drugbank_target|Q9BZZ2 Sialoadhesin (DB02379; DB03721)
 OpenBabel12092120553D

  0  0  0     0  0            999 V3000
M  V30 BEGIN CTAB
M  V30 COUNTS 25558 25856 0 0 0
M  V30 BEGIN ATOM
M  V30 1 H -0.908 1.98254 -0.117106 0
M  V30 2 N 0 1.576 0 0
M  V30 3 C 0.933 2.03868 1.02534 0
M  V30 4 C 1.911 0.928543 1.3348 0
M  V30 5 O 3.095 1.19667 1.45644 0
M  V30 6 C 0.222 2.43627 2.35294 0
M  V30 7 C -0.732 3.65373 2.2001 0
M  V30 8 S 0.101 5.13292 1.52614 0
M  V30 9 C 1.257 5.56322 2.86805 0
M  V30 10 H 1.49 2.90518 0.631377 0
M  V30 11 H -0.977 1.52953 0.210867 0
M  V30 12 H 0.981 2.67203 3.11629 0
M  V30 13 H -0.358 1.57376 2.7183 0
M  V30 14 H -1.165 3.90944 3.18086 0
M  V30 15 H -1.563 3.418 1.51819 0
M  V30 16 H 0.729 5.58782 3.83104 0
M  V30 17 H 1.672 6.56266 2.65933 0
M  V30 18 H 2.08 4.83886 2.90714 0
M  V30 19 N 1.4781 -0.272755 1.55222 0
M  V30 20 C 2.7261 -1.00234 1.75492 0
M  V30 21 C 3.0471 -1.8681 0.5592 0
M  V30 22 O 2.3171 -1.91215 -0.425882 0
M  V30 23 H 0.8971 -0.373076 0.647166 0
M  V30 24 H 3.5591 -0.296926 1.92625 0
M  V30 25 H 2.6551 -1.63913 2.65592 0
M  V30 26 N 2.9562 -1.48159 -0.537278 0
M  V30 27 C 4.2032 -1.55804 -1.29349 0
M  V30 28 C 4.5312 -0.228802 -1.9315 0
M  V30 29 O 3.7862 0.780242 -1.79473 0
M  V30 30 C 4.0852 -2.63956 -2.40961 0
M  V30 31 C 3.7512 -4.0662 -1.94861 0
M  V30 32 C 2.4132 -4.45452 -1.82006 0
M  V30 33 C 4.7652 -4.96055 -1.59933 0
M  V30 34 C 2.0932 -5.71531 -1.32547 0
M  V30 35 C 4.4452 -6.22617 -1.11939 0
M  V30 36 C 3.1092 -6.60312 -0.976951 0
M  V30 37 H 2.3792 -0.570129 -0.473322 0
M  V30 38 H 5.0262 -1.81845 -0.600372 0
M  V30 39 H 3.3312 -2.31747 -3.15912 0
M  V30 40 H 5.0282 -2.67089 -2.99107 0
M  V30 41 H 1.6182 -3.75949 -2.05815 0
M  V30 42 H 5.8022 -4.66738 -1.68728 0
M  V30 43 H 1.0582 -5.99468 -1.202 0
M  V30 44 H 5.2322 -6.91318 -0.839811 0
M  V30 45 H 2.8592 -7.57895 -0.591501 0
M  V30 46 N 4.4343 0.785586 -1.36625 0
M  V30 47 C 5.3643 1.91259 -1.33949 0
M  V30 48 C 6.3453 1.68795 -0.210325 0
M  V30 49 O 7.5303 1.89854 -0.408561 0
M  V30 50 C 4.6603 3.28339 -1.13186 0
M  V30 51 C 3.6143 3.65335 -2.22967 0
M  V30 52 C 2.9403 5.00806 -1.87342 0
M  V30 53 C 4.2403 3.7352 -3.65075 0
M  V30 54 H 5.9343 1.93755 -2.28253 0
M  V30 55 H 3.4803 0.930788 -1.09874 0
M  V30 56 H 5.4333 4.06804 -1.09948 0
M  V30 57 H 4.1573 3.2624 -0.153332 0
M  V30 58 H 2.8163 2.89169 -2.25337 0
M  V30 59 H 2.4643 4.95233 -0.880545 0
M  V30 60 H 2.1643 5.26529 -2.60846 0
M  V30 61 H 3.6883 5.81687 -1.85667 0
M  V30 62 H 5.1023 4.42168 -3.64911 0
M  V30 63 H 3.4993 4.10731 -4.37516 0
M  V30 64 H 4.5693 2.74527 -3.99703 0
M  V30 65 N 5.9124 1.20967 1.01018 0
M  V30 66 C 7.3234 1.02319 1.56165 0
M  V30 67 C 7.6744 -0.418546 1.91684 0
M  V30 68 O 6.7994 -1.30096 1.72928 0
M  V30 69 C 7.3944 1.85109 2.8376 0
M  V30 70 C 5.9534 1.70809 3.35412 0
M  V30 71 C 5.1004 1.82643 2.08655 0
M  V30 72 H 8.0514 1.35065 0.833255 0
M  V30 73 H 8.0724 1.35827 3.55431 0
M  V30 74 H 7.5844 2.90035 2.57878 0
M  V30 75 H 5.6854 0.685464 3.66241 0
M  V30 76 H 5.7984 2.52467 4.07182 0
M  V30 77 H 4.1624 1.25896 2.21409 0
M  V30 78 H 4.9454 2.89066 1.85191 0
M  V30 79 N 7.3905 -1.2043 1.01659 0
M  V30 80 C 8.3375 -2.23215 0.586822 0
M  V30 81 C 9.3075 -1.61382 -0.393085 0
M  V30 82 O 10.4925 -1.88544 -0.292525 0
M  V30 83 C 7.6325 -3.45032 -0.0687464 0
M  V30 84 C 6.7455 -4.21296 0.955724 0
M  V30 85 C 5.8805 -5.30507 0.271208 0
M  V30 86 C 4.9195 -5.98515 1.28244 0
M  V30 87 N 4.0565 -6.99316 0.62459 0
M  V30 88 H 8.8965 -2.59336 1.46796 0
M  V30 89 H 6.4335 -1.27431 0.734836 0
M  V30 90 H 8.3915 -4.1459 -0.465965 0
M  V30 91 H 7.0215 -3.09604 -0.913529 0
M  V30 92 H 6.0735 -3.50803 1.4711 0
M  V30 93 H 7.3855 -4.6803 1.72479 0
M  V30 94 H 6.5395 -6.06428 -0.18151 0
M  V30 95 H 5.2785 -4.8481 -0.530163 0
M  V30 96 H 4.2835 -5.21355 1.74554 0
M  V30 97 H 5.5085 -6.46298 2.08509 0
M  V30 98 H 3.4545 -6.55812 -0.156914 0
M  V30 99 H 3.3715 -7.44178 1.33172 0
M  V30 100 H 4.6395 -7.79255 0.195462 0
M  V30 101 N 8.8686 -0.792821 -1.36206 0
M  V30 102 C 9.7986 -0.207853 -2.32573 0
M  V30 103 C 10.7796 0.659055 -1.56813 0
M  V30 104 O 11.9646 0.592176 -1.84951 0
M  V30 105 C 9.0946 0.655449 -3.41059 0
M  V30 106 C 8.0486 -0.111842 -4.27854 0
M  V30 107 C 7.3746 0.872274 -5.27537 0
M  V30 108 C 8.6746 -1.30299 -5.05786 0
M  V30 109 H 10.3686 -1.01294 -2.81744 0
M  V30 110 H 7.9146 -0.48854 -1.3546 0
M  V30 111 H 9.8676 1.07464 -4.07467 0
M  V30 112 H 8.5916 1.49328 -2.90463 0
M  V30 113 H 7.2506 -0.512053 -3.63006 0
M  V30 114 H 6.8986 1.70523 -4.73214 0
M  V30 115 H 6.5986 0.363291 -5.86476 0
M  V30 116 H 8.1226 1.28996 -5.96818 0
M  V30 117 H 9.5366 -0.959379 -5.65216 0
M  V30 118 H 7.9336 -1.7455 -5.74154 0
M  V30 119 H 9.0036 -2.09663 -4.37229 0
M  V30 120 N 10.3467 1.47872 -0.545128 0
M  V30 121 C 11.2767 2.32661 0.197793 0
M  V30 122 C 12.2577 1.43041 0.920504 0
M  V30 123 O 13.4427 1.71912 0.90333 0
M  V30 124 C 10.5727 3.24569 1.23582 0
M  V30 125 C 9.5267 4.23333 0.630323 0
M  V30 126 C 8.8527 5.0448 1.77211 0
M  V30 127 C 10.1527 5.20704 -0.407974 0
M  V30 128 H 11.8467 2.95024 -0.510045 0
M  V30 129 H 9.3927 1.4187 -0.246731 0
M  V30 130 H 11.3457 3.8272 1.76362 0
M  V30 131 H 10.0697 2.60236 1.97344 0
M  V30 132 H 8.7287 3.6639 0.123922 0
M  V30 133 H 8.3767 4.36561 2.49847 0
M  V30 134 H 8.0767 5.71339 1.37281 0
M  V30 135 H 9.6007 5.65487 2.3034 0
M  V30 136 H 11.0147 5.7329 0.033305 0
M  V30 137 H 9.4117 5.95699 -0.725486 0
M  V30 138 H 10.4817 4.66917 -1.30828 0
M  V30 139 N 11.8248 0.280983 1.55075 0
M  V30 140 C 12.7548 -0.597469 2.25727 0
M  V30 141 C 13.7358 -1.15417 1.24952 0
M  V30 142 O 14.9208 -1.18722 1.53684 0
M  V30 143 C 12.0508 -1.7789 2.98283 0
M  V30 144 C 11.0048 -1.35347 4.06036 0
M  V30 145 C 10.3308 -2.61846 4.66198 0
M  V30 146 C 11.6308 -0.499354 5.19907 0
M  V30 147 H 13.3248 -0.00824265 2.99399 0
M  V30 148 H 10.8708 -0.0025244 1.44 0
M  V30 149 H 12.8238 -2.39937 3.46422 0
M  V30 150 H 11.5478 -2.39405 2.22155 0
M  V30 151 H 10.2068 -0.756156 3.58717 0
M  V30 152 H 9.8548 -3.21632 3.86732 0
M  V30 153 H 9.5548 -2.3409 5.38958 0
M  V30 154 H 11.0788 -3.24732 5.1709 0
M  V30 155 H 12.4928 -1.02498 5.64063 0
M  V30 156 H 10.8898 -0.316424 5.99265 0
M  V30 157 H 11.9598 0.480459 4.82514 0
M  V30 158 N 13.3029 -1.57598 0.00835791 0
M  V30 159 C 14.2329 -2.1198 -0.979113 0
M  V30 160 C 15.2139 -1.03091 -1.35301 0
M  V30 161 O 16.3989 -1.30818 -1.43528 0
M  V30 162 C 13.5289 -2.62995 -2.26828 0
M  V30 163 C 12.4829 -3.76485 -2.03576 0
M  V30 164 C 11.8089 -4.13846 -3.38579 0
M  V30 165 C 13.1089 -5.0342 -1.39161 0
M  V30 166 H 14.8029 -2.94738 -0.526281 0
M  V30 167 H 12.3489 -1.41783 -0.251704 0
M  V30 168 H 14.3019 -2.99669 -2.96271 0
M  V30 169 H 13.0259 -1.7737 -2.7424 0
M  V30 170 H 11.6849 -3.40217 -1.36557 0
M  V30 171 H 11.3329 -3.25232 -3.83709 0
M  V30 172 H 11.0329 -4.90312 -3.23834 0
M  V30 173 H 12.5569 -4.53086 -4.09323 0
M  V30 174 H 13.9709 -5.37812 -1.98573 0
M  V30 175 H 12.3679 -5.84746 -1.34878 0
M  V30 176 H 13.4379 -4.83548 -0.361868 0
M  V30 177 N 14.781 0.264519 -1.55364 0
M  V30 178 C 15.744 1.31046 -1.88042 0
M  V30 179 C 16.744 1.41943 -0.755569 0
M  V30 180 O 17.934 1.40947 -1.02369 0
M  V30 181 C 15.066 2.69067 -2.09323 0
M  V30 182 H 16.259 1.03297 -2.81549 0
M  V30 183 H 13.812 0.502989 -1.47986 0
M  V30 184 H 14.547 3.01982 -1.18226 0
M  V30 185 H 14.332 2.62542 -2.91229 0
M  V30 186 H 15.822 3.44623 -2.35848 0
M  V30 187 N 16.2591 1.48442 0.529413 0
M  V30 188 C 17.4841 1.60406 1.31471 0
M  V30 189 C 17.9091 0.264738 1.86228 0
M  V30 190 O 17.2671 -0.763668 1.64432 0
M  V30 191 C 17.3151 2.65419 2.44101 0
M  V30 192 O 16.4191 2.22618 3.47153 0
M  V30 193 H 15.7601 0.537863 0.389357 0
M  V30 194 H 18.2901 1.94432 0.636965 0
M  V30 195 H 18.3001 2.86709 2.90279 0
M  V30 196 H 16.9751 3.62652 2.03608 0
M  V30 197 H 15.5521 2.11543 3.0709 0
M  V30 198 N 17.7372 -0.778329 1.37039 0
M  V30 199 C 18.9842 -1.53665 1.31884 0
M  V30 200 C 19.3122 -1.9425 -0.0986303 0
M  V30 201 O 18.5672 -1.63832 -1.07041 0
M  V30 202 C 18.8662 -2.81845 2.19768 0
M  V30 203 C 18.5322 -2.60345 3.68146 0
M  V30 204 C 17.1942 -2.5419 4.08584 0
M  V30 205 C 19.5462 -2.40923 4.62175 0
M  V30 206 C 16.8742 -2.26594 5.41177 0
M  V30 207 C 19.2262 -2.14852 5.94997 0
M  V30 208 C 17.8902 -2.07137 6.34547 0
M  V30 209 H 17.1602 -0.562299 0.482598 0
M  V30 210 H 19.8072 -0.897069 1.69189 0
M  V30 211 H 18.1122 -3.50328 1.75436 0
M  V30 212 H 19.8092 -3.39692 2.13097 0
M  V30 213 H 16.3992 -2.65996 3.36072 0
M  V30 214 H 20.5832 -2.44673 4.31797 0
M  V30 215 H 15.8392 -2.19111 5.70789 0
M  V30 216 H 20.0132 -1.98822 6.67415 0
M  V30 217 H 17.6402 -1.85518 7.37216 0
M  V30 218 N 19.2153 -1.21501 -1.00376 0
M  V30 219 C 20.4623 -1.03299 -1.74171 0
M  V30 220 C 20.7903 0.433326 -1.89612 0
M  V30 221 O 20.0453 1.33779 -1.42834 0
M  V30 222 C 20.3443 -1.67673 -3.15627 0
M  V30 223 C 20.0103 -3.17533 -3.2013 0
M  V30 224 C 18.6723 -3.58427 -3.21067 0
M  V30 225 C 21.0243 -4.13504 -3.17275 0
M  V30 226 C 18.3523 -4.93794 -3.16835 0
M  V30 227 C 20.7043 -5.48834 -3.14585 0
M  V30 228 C 19.3683 -5.89123 -3.13831 0
M  V30 229 H 18.6383 -0.377999 -0.637336 0
M  V30 230 H 21.2853 -1.51111 -1.17634 0
M  V30 231 H 19.5903 -1.12158 -3.75404 0
M  V30 232 H 21.2873 -1.51091 -3.71446 0
M  V30 233 H 17.8773 -2.84965 -3.20145 0
M  V30 234 H 22.0613 -3.82936 -3.15711 0
M  V30 235 H 17.3173 -5.24255 -3.1459 0
M  V30 236 H 21.4913 -6.22934 -3.1133 0
M  V30 237 H 19.1183 -6.93984 -3.10307 0
M  V30 238 N 20.6934 1.19889 -1.02296 0
M  V30 239 C 22.1044 1.71124 -0.746568 0
M  V30 240 C 22.4554 1.81939 0.734335 0
M  V30 241 O 21.5804 1.48639 1.57275 0
M  V30 242 C 22.1754 3.10804 -1.34857 0
M  V30 243 C 20.7344 3.59323 -1.1209 0
M  V30 244 C 19.8814 2.3635 -1.45031 0
M  V30 245 H 22.8324 1.04813 -1.19163 0
M  V30 246 H 22.8534 3.73186 -0.742437 0
M  V30 247 H 22.3654 3.029 -2.42638 0
M  V30 248 H 20.4664 3.7255 -0.0610337 0
M  V30 249 H 20.5794 4.4378 -1.80544 0
M  V30 250 H 18.9434 2.39399 -0.869487 0
M  V30 251 H 19.7264 2.31081 -2.53883 0
M  V30 252 N 22.1715 0.800033 1.35784 0
M  V30 253 C 23.1345 0.211565 2.28221 0
M  V30 254 C 24.1345 -0.59728 1.49296 0
M  V30 255 O 25.3245 -0.416721 1.69142 0
M  V30 256 C 22.4565 -0.705846 3.33513 0
M  V30 257 H 23.6495 1.02677 2.81776 0
M  V30 258 H 21.2025 0.570211 1.45528 0
M  V30 259 H 21.9375 -1.54498 2.85133 0
M  V30 260 H 21.7225 -0.127655 3.91892 0
M  V30 261 H 23.2125 -1.11211 4.02519 0
M  V30 262 N 23.6496 -1.47581 0.552962 0
M  V30 263 C 24.8976 -2.02082 0.0272703 0
M  V30 264 C 25.2186 -1.4301 -1.32563 0
M  V30 265 O 24.4886 -0.603745 -1.86365 0
M  V30 266 H 23.0686 -0.746966 0.00709182 0
M  V30 267 H 25.7306 -1.81033 0.722008 0
M  V30 268 H 24.8266 -3.12034 -0.0639951 0
M  V30 269 N 25.1277 -0.289203 -1.54924 0
M  V30 270 C 26.0597 0.625583 -2.20497 0
M  V30 271 C 27.0727 1.10667 -1.19402 0
M  V30 272 O 28.2617 1.02615 -1.46056 0
M  V30 273 C 25.3617 1.86702 -2.82835 0
M  V30 274 C 24.5347 1.5304 -4.09753 0
M  V30 275 C 23.5937 2.62576 -4.56005 0
M  V30 276 O 22.6197 2.28167 -5.21468 0
M  V30 277 N 23.8217 3.92901 -4.27328 0
M  V30 278 H 26.5867 0.0642801 -2.99631 0
M  V30 279 H 24.1477 -0.110896 -1.6152 0
M  V30 280 H 26.1397 2.59304 -3.10715 0
M  V30 281 H 24.7097 2.33702 -2.07611 0
M  V30 282 H 23.9297 0.637564 -3.8901 0
M  V30 283 H 25.2177 1.28072 -4.92418 0
M  V30 284 H 24.6157 4.23671 -3.74859 0
M  V30 285 H 23.1727 4.61837 -4.59946 0
M  V30 286 N 26.6058 1.57591 -0.0167156 0
M  V30 287 C 27.5688 2.08393 0.954204 0
M  V30 288 C 28.5688 0.996531 1.26198 0
M  V30 289 O 29.7588 1.25858 1.20438 0
M  V30 290 C 26.8908 2.5394 2.27436 0
M  V30 291 H 28.0838 2.95455 0.514451 0
M  V30 292 H 25.6368 1.54582 0.231089 0
M  V30 293 H 26.3718 1.70171 2.76066 0
M  V30 294 H 26.1568 3.33371 2.06412 0
M  V30 295 H 27.6468 2.93512 2.97053 0
M  V30 296 N 28.0839 -0.256276 1.55502 0
M  V30 297 C 29.3089 -1.00766 1.81276 0
M  V30 298 C 29.7339 -1.78524 0.59252 0
M  V30 299 O 29.0919 -1.75413 -0.45827 0
M  V30 300 C 29.1399 -1.92869 3.04687 0
M  V30 301 O 28.2439 -3.019 2.80945 0
M  V30 302 H 27.5849 -0.287224 0.598664 0
M  V30 303 H 30.1149 -0.280109 2.02674 0
M  V30 304 H 30.1249 -2.34511 3.33869 0
M  V30 305 H 28.7999 -1.35689 3.93143 0
M  V30 306 H 27.3769 -2.64454 2.62904 0
M  V30 307 N 29.562 -1.4872 -0.521534 0
M  V30 308 C 30.808 -1.58378 -1.27624 0
M  V30 309 C 31.163 -0.258028 -1.90662 0
M  V30 310 O 30.456 0.739917 -1.76736 0
M  V30 311 C 30.65 -2.66497 -2.38148 0
M  V30 312 C 30.479 -4.09456 -1.85945 0
M  V30 313 C 29.249 -4.76495 -1.68168 0
M  V30 314 C 31.447 -4.95353 -1.3831 0
M  V30 315 N 29.429 -6.0384 -1.1068 0
M  V30 316 C 30.8 -6.13012 -0.928238 0
M  V30 317 C 32.855 -4.81512 -1.26692 0
M  V30 318 C 31.558 -7.18354 -0.368701 0
M  V30 319 C 33.584 -5.86984 -0.721368 0
M  V30 320 C 32.946 -7.03857 -0.276623 0
M  V30 321 H 29.045 -0.634045 -0.457724 0
M  V30 322 H 31.629 -1.85639 -0.587049 0
M  V30 323 H 29.8 -2.41043 -3.04553 0
M  V30 324 H 31.532 -2.65791 -3.05184 0
M  V30 325 H 28.287 -4.32962 -1.91939 0
M  V30 326 H 28.711 -6.71778 -0.839217 0
M  V30 327 H 33.353 -3.91487 -1.5968 0
M  V30 328 H 31.071 -8.08096 -0.0265122 0
M  V30 329 H 34.657 -5.78329 -0.634531 0
M  V30 330 H 33.537 -7.84077 0.138947 0
M  V30 331 N 31.0401 0.771051 -1.3745 0
M  V30 332 C 32.2881 1.52661 -1.32435 0
M  V30 333 C 32.6091 1.9479 0.0905024 0
M  V30 334 O 31.8791 1.66348 1.03466 0
M  V30 335 H 30.4591 0.566218 -0.487244 0
M  V30 336 H 33.1211 0.917636 -1.71946 0
M  V30 337 H 32.2171 2.42568 -1.96385 0
M  V30 338 N 32.5182 1.22032 0.997298 0
M  V30 339 C 33.7642 1.04376 1.73878 0
M  V30 340 C 34.0972 -0.420716 1.89588 0
M  V30 341 O 33.3722 -1.31202 1.43583 0
M  V30 342 C 33.6552 1.75047 3.14691 0
M  V30 343 C 33.5082 3.29062 3.06656 0
M  V30 344 C 34.8272 1.49928 4.13775 0
M  V30 345 H 31.9462 0.380578 0.631133 0
M  V30 346 H 34.5882 1.50312 1.16217 0
M  V30 347 H 32.7382 1.35996 3.63919 0
M  V30 348 H 34.4102 3.7753 2.65083 0
M  V30 349 H 32.6532 3.58967 2.43568 0
M  V30 350 H 33.3242 3.73683 4.06282 0
M  V30 351 H 35.8002 1.83842 3.73285 0
M  V30 352 H 34.6762 2.01878 5.10428 0
M  V30 353 H 34.9372 0.430929 4.39995 0
M  V30 354 N 33.9963 -1.19345 1.0293 0
M  V30 355 C 35.2213 -1.93538 0.745511 0
M  V30 356 C 35.6463 -1.75007 -0.689511 0
M  V30 357 O 35.0043 -1.05265 -1.47611 0
M  V30 358 C 35.0523 -3.43336 1.10239 0
M  V30 359 O 34.1563 -4.11806 0.221289 0
M  V30 360 H 33.4973 -0.604193 0.275404 0
M  V30 361 H 36.0273 -1.5141 1.37609 0
M  V30 362 H 36.0373 -3.94004 1.05947 0
M  V30 363 H 34.7123 -3.56146 2.14786 0
M  V30 364 H 33.2893 -3.715 0.322842 0
M  V30 365 N 35.4744 -0.807222 -1.35358 0
M  V30 366 C 36.6994 -0.399309 -2.0352 0
M  V30 367 C 37.1244 0.981986 -1.60433 0
M  V30 368 O 36.4824 1.63601 -0.781299 0
M  V30 369 C 36.5304 -0.491552 -3.57234 0
M  V30 370 O 35.6344 0.494754 -4.09421 0
M  V30 371 H 34.9754 -0.166682 -0.642739 0
M  V30 372 H 37.5054 -1.09328 -1.72941 0
M  V30 373 H 37.5154 -0.361588 -4.06395 0
M  V30 374 H 36.1904 -1.49907 -3.87944 0
M  V30 375 H 34.7674 0.324977 -3.71481 0
M  V30 376 N 36.9525 1.47285 -0.560781 0
M  V30 377 C 38.3635 1.86258 -0.128343 0
M  V30 378 C 38.7145 1.46699 1.30284 0
M  V30 379 O 37.8395 0.871698 1.98067 0
M  V30 380 C 38.4345 3.38044 -0.22614 0
M  V30 381 C 36.9935 3.76096 0.151283 0
M  V30 382 C 36.1405 2.71335 -0.572084 0
M  V30 383 H 39.0915 1.38752 -0.770297 0
M  V30 384 H 39.1125 3.76441 0.554322 0
M  V30 385 H 38.6245 3.66806 -1.26788 0
M  V30 386 H 36.7255 3.52951 1.19399 0
M  V30 387 H 36.8385 4.78641 -0.209765 0
M  V30 388 H 35.2025 2.54696 -0.0147653 0
M  V30 389 H 35.9855 3.02938 -1.61504 0
M  V30 390 N 38.4306 0.297415 1.54768 0
M  V30 391 C 39.3626 -0.613881 2.20826 0
M  V30 392 C 40.3756 -1.10032 1.19987 0
M  V30 393 O 41.5646 -1.01839 1.46598 0
M  V30 394 C 38.6646 -1.852 2.83821 0
M  V30 395 C 37.8376 -1.50865 4.10559 0
M  V30 396 C 36.8966 -2.60154 4.57391 0
M  V30 397 O 35.9226 -2.25398 5.2267 0
M  V30 398 N 37.1246 -3.90629 4.29406 0
M  V30 399 H 39.8896 -0.048389 2.99661 0
M  V30 400 H 37.4506 0.11946 1.61459 0
M  V30 401 H 39.4426 -2.57652 3.12086 0
M  V30 402 H 38.0126 -2.32597 2.08847 0
M  V30 403 H 37.2326 -0.616925 3.89343 0
M  V30 404 H 38.5206 -1.25458 4.9309 0
M  V30 405 H 37.9186 -4.21677 3.77101 0
M  V30 406 H 36.4756 -4.59391 4.62388 0
M  V30 407 N 39.9087 -1.5758 0.0250728 0
M  V30 408 C 41.1857 -1.82917 -0.692873 0
M  V30 409 C 41.5657 -0.908137 -1.90568 0
M  V30 410 O 40.9137 0.0372298 -2.2847 0
M  V30 411 C 41.1237 -3.32034 -1.07492 0
M  V30 412 C 42.4717 -3.98406 -1.46826 0
M  V30 413 O 43.4957 -3.36505 -1.16801 0
M  V30 414 O 42.3547 -5.07497 -2.02754 0
M  V30 415 H 39.4487 -0.754079 -0.33955 0
M  V30 416 H 41.9947 -1.69619 0.0524456 0
M  V30 417 H 40.7667 -3.90728 -0.211552 0
M  V30 418 H 40.3897 -3.50424 -1.87854 0
M  V30 419 N 41.3868 0.248026 -1.55636 0
M  V30 420 C 42.6328 0.97767 -1.77678 0
M  V30 421 C 42.9658 1.85016 -0.590135 0
M  V30 422 O 42.2408 1.90095 0.411611 0
M  V30 423 C 42.5238 1.83914 -3.09593 0
M  V30 424 C 42.3768 0.99491 -4.38659 0
M  V30 425 C 43.6958 2.82183 -3.37729 0
M  V30 426 H 40.8148 0.354005 -0.646413 0
M  V30 427 H 43.4568 0.248253 -1.88371 0
M  V30 428 H 41.6068 2.46104 -3.00608 0
M  V30 429 H 43.2788 0.391789 -4.59633 0
M  V30 430 H 41.5218 0.299231 -4.32767 0
M  V30 431 H 42.1928 1.63145 -5.2734 0
M  V30 432 H 44.6688 2.30129 -3.4667 0
M  V30 433 H 43.5448 3.39582 -4.31249 0
M  V30 434 H 43.8058 3.58588 -2.58586 0
M  V30 435 N 42.8649 1.48995 0.513639 0
M  V30 436 C 43.7969 1.60836 1.63293 0
M  V30 437 C 44.8099 0.491701 1.55197 0
M  V30 438 O 45.9989 0.763238 1.6136 0
M  V30 439 C 43.0989 1.53731 3.02027 0
M  V30 440 C 42.2719 2.80715 3.35437 0
M  V30 441 C 41.3309 2.66837 4.53525 0
M  V30 442 O 40.3569 3.40753 4.55934 0
M  V30 443 N 41.5589 1.77539 5.52684 0
M  V30 444 H 44.3239 2.57366 1.53566 0
M  V30 445 H 41.8849 1.45925 0.701259 0
M  V30 446 H 43.8769 1.42118 3.78926 0
M  V30 447 H 42.4469 0.651092 3.05744 0
M  V30 448 H 41.6669 3.06772 2.47557 0
M  V30 449 H 42.9549 3.64927 3.54551 0
M  V30 450 H 42.3529 1.16719 5.53528 0
M  V30 451 H 40.9099 1.71856 6.28736 0
M  V30 452 N 44.343 -0.763751 1.37857 0
M  V30 453 C 45.591 -1.51957 1.33243 0
M  V30 454 C 45.912 -1.94835 -0.0801709 0
M  V30 455 O 45.182 -1.66894 -1.02582 0
M  V30 456 H 43.762 -0.563626 0.49024 0
M  V30 457 H 46.424 -0.908504 1.7243 0
M  V30 458 H 45.52 -2.41523 1.97669 0
M  V30 459 N 45.8211 -1.22559 -0.990812 0
M  V30 460 C 47.0671 -1.05297 -1.73322 0
M  V30 461 C 47.4001 0.410655 -1.89808 0
M  V30 462 O 46.6751 1.30439 -1.44277 0
M  V30 463 C 46.9581 -1.76713 -3.13759 0
M  V30 464 C 46.8111 -3.30684 -3.04907 0
M  V30 465 C 48.1301 -1.52121 -4.12974 0
M  V30 466 H 45.2491 -0.38392 -0.629106 0
M  V30 467 H 47.8911 -1.50926 -1.15418 0
M  V30 468 H 46.0411 -1.37924 -3.63193 0
M  V30 469 H 47.7131 -3.7893 -2.63077 0
M  V30 470 H 45.9561 -3.60253 -2.41661 0
M  V30 471 H 46.6271 -3.75833 -4.04294 0
M  V30 472 H 49.1031 -1.85819 -3.72304 0
M  V30 473 H 47.9791 -2.04582 -5.0935 0
M  V30 474 H 48.2401 -0.454257 -4.3976 0
M  V30 475 N 47.2992 1.18797 -1.03562 0
M  V30 476 C 48.2462 2.22253 -0.622259 0
M  V30 477 C 49.2162 1.61987 0.36736 0
M  V30 478 O 50.4012 1.88986 0.262492 0
M  V30 479 C 47.5412 3.45097 0.0138462 0
M  V30 480 C 46.6542 4.19722 -1.02263 0
M  V30 481 C 45.7892 5.30009 -0.355573 0
M  V30 482 C 44.8282 5.96399 -1.37749 0
M  V30 483 N 43.9652 6.98234 -0.735766 0
M  V30 484 H 48.8052 2.56968 -1.50903 0
M  V30 485 H 46.3422 1.26245 -0.755017 0
M  V30 486 H 48.3002 4.15279 0.399948 0
M  V30 487 H 46.9302 3.11018 0.864158 0
M  V30 488 H 45.9822 3.48418 -1.52673 0
M  V30 489 H 47.2942 4.65227 -1.79903 0
M  V30 490 H 46.4482 6.0664 0.0850095 0
M  V30 491 H 45.1872 4.85592 0.452967 0
M  V30 492 H 44.1922 5.18512 -1.82826 0
M  V30 493 H 45.4172 6.42899 -2.18764 0
M  V30 494 H 43.3632 6.55979 0.0525597 0
M  V30 495 H 43.2802 7.41965 -1.44995 0
M  V30 496 H 44.5482 7.78845 -0.31941 0
M  V30 497 N 48.7773 0.814389 1.34928 0
M  V30 498 C 50.0253 0.397636 1.9815 0
M  V30 499 C 50.3463 -1.04069 1.64908 0
M  V30 500 O 49.6163 -1.72121 0.93548 0
M  V30 501 H 48.1963 0.144043 0.732981 0
M  V30 502 H 50.8583 1.04195 1.6471 0
M  V30 503 H 49.9543 0.509688 3.0791 0
M  V30 504 N 50.2554 -1.46986 0.568584 0
M  V30 505 C 51.4804 -2.07335 0.0520528 0
M  V30 506 C 51.9054 -1.41675 -1.23733 0
M  V30 507 O 51.2634 -0.495623 -1.74394 0
M  V30 508 C 51.3114 -3.60417 -0.11501 0
M  V30 509 O 50.4154 -3.95309 -1.17492 0
M  V30 510 H 49.7564 -0.661597 0.0564385 0
M  V30 511 H 52.2864 -1.88837 0.787507 0
M  V30 512 H 52.2964 -4.06698 -0.325644 0
M  V30 513 H 50.9714 -4.07601 0.826675 0
M  V30 514 H 49.5484 -3.60757 -0.943869 0
M  V30 515 N 51.7335 -0.305618 -1.54608 0
M  V30 516 C 52.9735 0.303114 -2.0214 0
M  V30 517 C 53.3375 1.50737 -1.18921 0
M  V30 518 O 54.5385 2.18778 -1.56172 0
M  V30 519 C 52.8095 0.646332 -3.51507 0
M  V30 520 S 54.3685 1.23727 -4.20995 0
M  V30 521 H 51.1865 0.0927643 -0.704923 0
M  V30 522 H 53.7885 -0.434566 -1.90609 0
M  V30 523 H 52.4925 -0.238541 -4.09706 0
M  V30 524 H 52.0235 1.41468 -3.67084 0
M  V30 525 H 54.0385 2.52489 -4.27158 0
M  V30 526 N 53.2116 1.57565 -0.0334293 0
M  V30 527 C 54.1416 2.13511 0.945265 0
M  V30 528 C 55.1226 1.05231 1.33643 0
M  V30 529 O 56.3076 1.33084 1.41429 0
M  V30 530 C 53.4376 2.6657 2.22616 0
M  V30 531 C 52.3916 3.79676 1.97561 0
M  V30 532 C 51.7176 4.1918 3.31952 0
M  V30 533 C 53.0176 5.0557 1.31135 0
M  V30 534 H 54.7116 2.95538 0.479325 0
M  V30 535 H 52.2576 1.42166 0.229115 0
M  V30 536 H 54.2106 3.04344 2.91466 0
M  V30 537 H 52.9346 1.8171 2.71384 0
M  V30 538 H 51.5936 3.42347 1.31127 0
M  V30 539 H 51.2416 3.31296 3.78487 0
M  V30 540 H 50.9416 4.95402 3.15992 0
M  V30 541 H 52.4656 4.59541 4.02063 0
M  V30 542 H 53.8796 5.40903 1.89992 0
M  V30 543 H 52.2766 5.86818 1.25559 0
M  V30 544 H 53.3466 4.84062 0.284894 0
M  V30 545 N 54.6897 -0.239769 1.55765 0
M  V30 546 C 55.6197 -1.30052 1.9393 0
M  V30 547 C 56.6007 -1.49839 0.805132 0
M  V30 548 O 57.7857 -1.62328 1.06599 0
M  V30 549 C 54.9157 -2.65391 2.2402 0
M  V30 550 C 53.8697 -2.60289 3.39755 0
M  V30 551 C 53.1957 -3.99489 3.55405 0
M  V30 552 C 54.4957 -2.16654 4.75246 0
M  V30 553 H 56.1897 -0.983573 2.82783 0
M  V30 554 H 53.7357 -0.471701 1.36055 0
M  V30 555 H 55.6887 -3.3974 2.49308 0
M  V30 556 H 54.4127 -2.98736 1.32 0
M  V30 557 H 53.0717 -1.88398 3.14487 0
M  V30 558 H 52.7197 -4.30112 2.60793 0
M  V30 559 H 52.4197 -3.96962 4.33238 0
M  V30 560 H 53.9437 -4.75528 3.83022 0
M  V30 561 H 55.3577 -2.80737 4.99859 0
M  V30 562 H 53.7547 -2.25223 5.56232 0
M  V30 563 H 54.8247 -1.11835 4.71827 0
M  V30 564 N 56.1678 -1.49265 -0.50573 0
M  V30 565 C 57.4168 -1.57761 -1.25675 0
M  V30 566 C 57.7298 -0.267371 -1.93764 0
M  V30 567 O 58.9358 -0.230827 -2.70517 0
M  V30 568 C 57.3918 -2.78332 -2.28165 0
M  V30 569 C 56.9998 -4.16096 -1.66037 0
M  V30 570 C 58.7438 -2.96155 -3.04125 0
M  V30 571 C 56.6508 -5.27895 -2.6661 0
M  V30 572 H 55.5808 -0.587391 -0.472745 0
M  V30 573 H 58.2318 -1.75644 -0.53118 0
M  V30 574 H 56.6138 -2.53934 -3.03865 0
M  V30 575 H 57.7878 -4.50612 -0.963622 0
M  V30 576 H 56.1028 -4.03591 -1.02484 0
M  V30 577 H 58.6998 -3.76849 -3.79327 0
M  V30 578 H 59.0428 -2.06534 -3.61455 0
M  V30 579 H 59.5758 -3.2057 -2.35541 0
M  V30 580 H 56.3148 -6.1956 -2.14068 0
M  V30 581 H 55.8348 -4.97839 -3.34539 0
M  V30 582 H 57.5138 -5.57031 -3.29129 0
M  V30 583 N 57.6459 0.756429 -1.3826 0
M  V30 584 C 59.0569 1.33359 -1.30661 0
M  V30 585 C 59.4079 1.96161 0.0388875 0
M  V30 586 O 58.5329 1.94874 0.940918 0
M  V30 587 C 59.1279 2.42477 -2.36622 0
M  V30 588 C 57.6869 2.95922 -2.3261 0
M  V30 589 C 56.8339 1.69275 -2.19639 0
M  V30 590 H 59.7849 0.55552 -1.4866 0
M  V30 591 H 59.8059 3.22345 -2.02174 0
M  V30 592 H 59.3179 1.96739 -3.34538 0
M  V30 593 H 57.4189 3.45996 -1.38267 0
M  V30 594 H 57.5319 3.50494 -3.26636 0
M  V30 595 H 55.8959 1.92793 -1.66442 0
M  V30 596 H 56.6789 1.25619 -3.19491 0
M  V30 597 N 59.124 1.23083 0.984299 0
M  V30 598 C 60.364 1.07226 1.74017 0
M  V30 599 C 60.728 -0.384766 1.88105 0
M  V30 600 O 61.929 -0.664411 2.60459 0
M  V30 601 C 60.2 1.77348 3.10294 0
M  V30 602 S 61.759 1.77014 4.01512 0
M  V30 603 H 58.577 0.383819 0.598502 0
M  V30 604 H 61.179 1.56158 1.17622 0
M  V30 605 H 59.883 2.82506 2.97689 0
M  V30 606 H 59.414 1.28682 3.71759 0
M  V30 607 H 61.429 0.825956 4.89277 0
M  V30 608 N 60.6021 -1.18246 1.0419 0
M  V30 609 C 61.8511 -1.87588 0.741194 0
M  V30 610 C 62.1641 -1.81303 -0.734066 0
M  V30 611 O 63.3701 -2.46019 -1.14834 0
M  V30 612 C 61.8261 -3.36538 1.27555 0
M  V30 613 C 61.4341 -3.51349 2.77953 0
M  V30 614 C 63.1781 -4.11273 1.05143 0
M  V30 615 C 61.0851 -4.94265 3.2474 0
M  V30 616 H 60.0151 -0.702622 0.273565 0
M  V30 617 H 62.6661 -1.33601 1.25789 0
M  V30 618 H 61.0481 -3.9 0.686703 0
M  V30 619 H 62.2221 -3.08153 3.42605 0
M  V30 620 H 60.5371 -2.90022 2.98791 0
M  V30 621 H 63.1341 -5.16689 1.37611 0
M  V30 622 H 63.4771 -4.16298 -0.0112774 0
M  V30 623 H 64.0101 -3.63987 1.60495 0
M  V30 624 H 60.7491 -4.94408 4.30396 0
M  V30 625 H 60.2691 -5.38172 2.64823 0
M  V30 626 H 61.9481 -5.62987 3.18834 0
M  V30 627 N 62.0802 -0.821533 -1.34494 0
M  V30 628 C 63.3272 -0.408946 -1.98328 0
M  V30 629 C 63.6552 1.02764 -1.65136 0
M  V30 630 O 62.9102 1.73026 -0.914349 0
M  V30 631 C 63.2092 -0.556512 -3.53041 0
M  V30 632 C 62.8752 -1.95861 -4.0614 0
M  V30 633 C 61.5372 -2.34217 -4.20352 0
M  V30 634 C 63.8892 -2.87523 -4.34718 0
M  V30 635 C 61.2172 -3.63572 -4.6047 0
M  V30 636 C 63.5692 -4.1634 -4.76281 0
M  V30 637 C 62.2332 -4.54675 -4.88699 0
M  V30 638 H 61.5032 -0.149644 -0.725732 0
M  V30 639 H 64.1502 -1.04521 -1.6046 0
M  V30 640 H 62.4552 0.163148 -3.9146 0
M  V30 641 H 64.1522 -0.217826 -4.00408 0
M  V30 642 H 60.7422 -1.65066 -3.95539 0
M  V30 643 H 64.9262 -2.59133 -4.23277 0
M  V30 644 H 60.1822 -3.93101 -4.68275 0
M  V30 645 H 64.3562 -4.87455 -4.97354 0
M  V30 646 H 61.9832 -5.54959 -5.19542 0
M  V30 647 N 63.5583 1.46682 -0.576371 0
M  V30 648 C 64.7833 2.07304 -0.0630475 0
M  V30 649 C 65.2083 1.42329 1.2298 0
M  V30 650 O 64.5663 0.504865 1.74129 0
M  V30 651 C 64.6143 3.60472 0.095895 0
M  V30 652 O 63.7183 3.95927 1.15394 0
M  V30 653 H 63.0593 0.661288 -0.0599463 0
M  V30 654 H 65.5893 1.88417 -0.797511 0
M  V30 655 H 65.5993 4.06865 0.304071 0
M  V30 656 H 64.2743 4.07157 -0.84828 0
M  V30 657 H 62.8513 3.61252 0.924724 0
M  V30 658 N 65.0364 0.313813 1.54444 0
M  V30 659 C 66.2834 -0.291675 2.00388 0
M  V30 660 C 66.6114 -1.52904 1.2021 0
M  V30 661 O 65.8664 -1.93833 0.269707 0
M  V30 662 C 66.1654 -0.680386 3.50864 0
M  V30 663 C 65.8314 0.456699 4.48581 0
M  V30 664 C 64.4934 0.768824 4.75018 0
M  V30 665 C 66.8454 1.22098 5.06697 0
M  V30 666 C 64.1734 1.84812 5.56831 0
M  V30 667 C 66.5254 2.29029 5.89685 0
M  V30 668 C 65.1894 2.60834 6.14428 0
M  V30 669 H 64.4594 -0.106732 0.733273 0
M  V30 670 H 67.1064 0.43557 1.86481 0
M  V30 671 H 65.4114 -1.48791 3.62448 0
M  V30 672 H 67.1084 -1.16026 3.83847 0
M  V30 673 H 63.6984 0.203337 4.28117 0
M  V30 674 H 67.8824 0.993096 4.86263 0
M  V30 675 H 63.1384 2.09912 5.74236 0
M  V30 676 H 67.3124 2.887 6.33739 0
M  V30 677 H 64.9394 3.44596 6.77612 0
M  V30 678 N 66.5145 -1.57545 0.0417849 0
M  V30 679 C 67.9255 -1.80011 -0.495259 0
M  V30 680 C 68.2765 -0.953199 -1.71489 0
M  V30 681 O 67.4015 -0.167138 -2.15754 0
M  V30 682 C 67.9965 -3.26482 -0.905265 0
M  V30 683 C 66.5555 -3.499 -1.38734 0
M  V30 684 C 65.7025 -2.74979 -0.358056 0
M  V30 685 H 68.6535 -1.56425 0.267736 0
M  V30 686 H 68.6745 -3.36887 -1.76882 0
M  V30 687 H 68.1865 -3.88096 -0.017401 0
M  V30 688 H 66.2875 -2.93553 -2.29471 0
M  V30 689 H 66.4005 -4.58615 -1.38598 0
M  V30 690 H 64.7645 -2.40834 -0.828912 0
M  V30 691 H 65.5475 -3.39315 0.521561 0
M  V30 692 N 67.9926 0.231505 -1.5589 0
M  V30 693 C 68.9556 1.27028 -1.90779 0
M  V30 694 C 69.9556 1.40308 -0.785507 0
M  V30 695 O 71.1456 1.38744 -1.05336 0
M  V30 696 C 68.2776 2.64566 -2.14983 0
M  V30 697 H 69.4706 0.973017 -2.83677 0
M  V30 698 H 67.0236 0.471486 -1.49019 0
M  V30 699 H 67.7586 2.99406 -1.24604 0
M  V30 700 H 67.5436 2.56305 -2.96732 0
M  V30 701 H 69.0336 3.39543 -2.43105 0
M  V30 702 N 69.4707 1.49531 0.497807 0
M  V30 703 C 70.7477 1.49682 1.25915 0
M  V30 704 C 71.1277 0.226339 2.09883 0
M  V30 705 O 70.4757 -0.791189 2.14365 0
M  V30 706 C 70.6857 2.77755 2.11313 0
M  V30 707 C 72.0337 3.27371 2.70395 0
M  V30 708 O 73.0577 2.78894 2.21578 0
M  V30 709 O 71.9167 4.11808 3.59272 0
M  V30 710 H 69.0107 0.599228 0.56996 0
M  V30 711 H 71.5567 1.61798 0.511816 0
M  V30 712 H 70.3287 3.61713 1.49264 0
M  V30 713 H 69.9517 2.68515 2.93233 0
M  V30 714 N 70.9488 -0.749086 1.3866 0
M  V30 715 C 72.1948 -1.51056 1.35314 0
M  V30 716 C 72.5278 -1.94121 -0.0553751 0
M  V30 717 O 71.8028 -1.65763 -1.01749 0
M  V30 718 C 72.0858 -2.76003 2.31288 0
M  V30 719 C 71.9388 -2.39047 3.8102 0
M  V30 720 C 73.2578 -3.78046 2.2532 0
M  V30 721 H 70.3768 -0.547972 0.492844 0
M  V30 722 H 73.0188 -0.857628 1.69543 0
M  V30 723 H 71.1688 -3.31716 2.02229 0
M  V30 724 H 72.8408 -1.89074 4.20771 0
M  V30 725 H 71.0838 -1.71449 3.98482 0
M  V30 726 H 71.7548 -3.28462 4.4364 0
M  V30 727 H 74.2308 -3.31884 2.50983 0
M  V30 728 H 73.1068 -4.63159 2.94576 0
M  V30 729 H 73.3678 -4.23957 1.25352 0
M  V30 730 N 72.4269 -1.23603 -0.977757 0
M  V30 731 C 73.3369 -1.03632 -2.1047 0
M  V30 732 C 74.3529 0.0199435 -1.73989 0
M  V30 733 O 75.5289 -0.176076 -2.00629 0
M  V30 734 C 72.5939 -0.63276 -3.40877 0
M  V30 735 C 71.6549 -1.76437 -3.91367 0
M  V30 736 C 70.8879 -1.37997 -5.15551 0
M  V30 737 O 71.1109 -0.265357 -5.69782 0
M  V30 738 O 70.0449 -2.20201 -5.60174 0
M  V30 739 H 73.8709 -1.98086 -2.30208 0
M  V30 740 H 71.4559 -1.02332 -1.08851 0
M  V30 741 H 73.3379 -0.418761 -4.19314 0
M  V30 742 H 72.0129 0.282754 -3.22463 0
M  V30 743 H 70.9199 -2.03304 -3.14036 0
M  V30 744 H 72.2529 -2.6583 -4.14241 0
M  V30 745 N 73.905 1.17692 -1.04816 0
M  V30 746 C 75.151 1.88137 -0.75711 0
M  V30 747 C 75.484 1.80604 0.713841 0
M  V30 748 O 74.759 1.21146 1.52164 0
M  V30 749 C 75.042 3.38318 -1.2334 0
M  V30 750 C 74.895 3.54622 -2.76701 0
M  V30 751 C 76.214 4.32214 -0.829415 0
M  V30 752 H 73.333 0.683163 -0.27651 0
M  V30 753 H 75.975 1.38424 -1.30149 0
M  V30 754 H 74.125 3.80787 -0.770286 0
M  V30 755 H 75.797 3.21194 -3.31107 0
M  V30 756 H 74.04 2.97026 -3.16161 0
M  V30 757 H 74.711 4.60028 -3.05088 0
M  V30 758 H 77.187 3.97565 -1.22805 0
M  V30 759 H 76.063 5.35838 -1.19033 0
M  V30 760 H 76.324 4.41294 0.266891 0
M  V30 761 N 75.3831 0.828654 1.34056 0
M  V30 762 C 76.7941 0.477534 1.8049 0
M  V30 763 C 77.1451 -1.00258 1.6865 0
M  V30 764 O 76.2701 -1.78057 1.22982 0
M  V30 765 C 76.8651 0.860018 3.27703 0
M  V30 766 C 75.4241 0.561185 3.72193 0
M  V30 767 C 74.5711 1.07385 2.55663 0
M  V30 768 H 77.5221 1.0183 1.21722 0
M  V30 769 H 77.5431 0.166038 3.80138 0
M  V30 770 H 77.0551 1.93731 3.36288 0
M  V30 771 H 75.1561 -0.506465 3.69142 0
M  V30 772 H 75.2691 1.10926 4.66082 0
M  V30 773 H 73.6331 0.495149 2.49841 0
M  V30 774 H 74.4161 2.15771 2.67016 0
M  V30 775 N 76.8612 -1.46375 0.584142 0
M  V30 776 C 78.1382 -1.956 0.0033388 0
M  V30 777 C 78.5182 -1.52679 -1.45782 0
M  V30 778 O 77.8662 -0.77816 -2.14842 0
M  V30 779 C 78.0762 -3.48551 0.176891 0
M  V30 780 C 79.4242 -4.24576 0.0454609 0
M  V30 781 O 80.4482 -3.56043 0.105801 0
M  V30 782 O 79.3072 -5.46427 -0.0890376 0
M  V30 783 H 76.4012 -0.825547 -0.0490066 0
M  V30 784 H 78.9472 -1.56652 0.65256 0
M  V30 785 H 77.7192 -3.72683 1.1926 0
M  V30 786 H 77.3422 -3.94332 -0.508695 0
M  V30 787 N 78.3393 -0.321999 -1.54275 0
M  V30 788 C 79.5873 0.280489 -2.00144 0
M  V30 789 C 79.9083 1.52777 -1.21178 0
M  V30 790 O 79.1783 1.9338 -0.313187 0
M  V30 791 H 77.7583 0.106632 -0.73935 0
M  V30 792 H 80.4203 -0.438184 -1.8991 0
M  V30 793 H 79.5163 0.537972 -3.07428 0
M  V30 794 N 79.8174 1.5752 -0.0501392 0
M  V30 795 C 81.0664 1.91827 0.623328 0
M  V30 796 C 81.3794 0.930222 1.72065 0
M  V30 797 O 82.5854 1.1653 2.4522 0
M  V30 798 C 81.0414 3.40692 1.16003 0
M  V30 799 C 80.6494 4.479 0.0948811 0
M  V30 800 C 82.3934 3.84034 1.80881 0
M  V30 801 C 80.3004 5.87879 0.644411 0
M  V30 802 H 79.2304 0.715918 0.236596 0
M  V30 803 H 81.8814 1.83115 -0.118861 0
M  V30 804 H 80.2634 3.44405 1.9545 0
M  V30 805 H 81.4374 4.55775 -0.678675 0
M  V30 806 H 79.7524 4.13892 -0.45637 0
M  V30 807 H 82.3494 4.85984 2.22988 0
M  V30 808 H 82.6924 3.20225 2.6601 0
M  V30 809 H 83.2254 3.82833 1.0809 0
M  V30 810 H 79.9644 6.55282 -0.169229 0
M  V30 811 H 79.4844 5.83567 1.38598 0
M  V30 812 H 81.1634 6.37098 1.12763 0
M  V30 813 N 81.2955 -0.223234 1.56011 0
M  V30 814 C 82.5235 -0.964812 1.83027 0
M  V30 815 C 82.9385 -1.78013 0.62904 0
M  V30 816 O 82.2955 -1.78008 -0.402414 0
M  V30 817 C 82.3465 -1.88373 3.08542 0
M  V30 818 O 82.0675 -1.10137 4.2403 0
M  V30 819 C 83.5685 -2.73934 3.48533 0
M  V30 820 H 80.7885 -0.282842 0.608475 0
M  V30 821 H 83.3325 -0.238971 2.03099 0
M  V30 822 H 81.4875 -2.56354 2.9045 0
M  V30 823 H 81.9015 -1.72501 4.95322 0
M  V30 824 H 83.3755 -3.34117 4.39397 0
M  V30 825 H 83.8525 -3.46244 2.70207 0
M  V30 826 H 84.4585 -2.11369 3.69057 0
M  V30 827 N 82.7736 -1.49793 -0.48987 0
M  V30 828 C 83.7366 -1.66752 -1.57246 0
M  V30 829 C 84.7366 -0.538867 -1.51502 0
M  V30 830 O 85.9266 -0.805545 -1.54456 0
M  V30 831 C 83.0586 -1.67528 -2.96896 0
M  V30 832 H 84.2516 -2.63321 -1.43534 0
M  V30 833 H 81.8046 -1.38992 -0.714914 0
M  V30 834 H 82.5396 -0.725837 -3.16073 0
M  V30 835 H 82.3246 -2.49504 -3.02473 0
M  V30 836 H 83.8146 -1.82667 -3.7553 0
M  V30 837 N 84.2517 0.741722 -1.39055 0
M  V30 838 C 85.5007 1.49656 -1.35225 0
M  V30 839 C 85.8137 1.95533 0.0512708 0
M  V30 840 O 87.0197 2.7067 0.212138 0
M  V30 841 C 85.4757 2.70389 -2.37525 0
M  V30 842 C 85.0837 2.31489 -3.83558 0
M  V30 843 C 86.8277 3.48236 -2.42759 0
M  V30 844 C 84.7347 3.48903 -4.77515 0
M  V30 845 H 83.6647 0.56197 -0.502699 0
M  V30 846 H 86.3157 0.809727 -1.64668 0
M  V30 847 H 84.6977 3.41113 -2.01142 0
M  V30 848 H 85.8717 1.68354 -4.28945 0
M  V30 849 H 84.1867 1.66749 -3.81554 0
M  V30 850 H 86.7837 4.35558 -3.1015 0
M  V30 851 H 87.1267 3.90229 -1.45008 0
M  V30 852 H 87.6597 2.84535 -2.78002 0
M  V30 853 H 84.3987 3.11966 -5.76504 0
M  V30 854 H 83.9187 4.11041 -4.36813 0
M  V30 855 H 85.5977 4.15328 -4.96096 0
M  V30 856 N 85.7298 1.2412 0.971189 0
M  V30 857 C 86.9758 1.09048 1.71698 0
M  V30 858 C 87.3308 -0.367442 1.88859 0
M  V30 859 O 86.6238 -1.26792 1.43646 0
M  V30 860 C 86.8178 1.75983 3.11071 0
M  V30 861 C 86.6468 3.28133 3.07504 0
M  V30 862 C 85.4168 3.97331 3.1218 0
M  V30 863 C 87.6148 4.24773 2.89952 0
M  V30 864 N 85.5968 5.3639 2.98596 0
M  V30 865 C 86.9678 5.50806 2.84627 0
M  V30 866 C 89.0228 4.15392 2.74506 0
M  V30 867 C 87.7258 6.68533 2.65437 0
M  V30 868 C 89.7518 5.32793 2.56682 0
M  V30 869 C 89.1138 6.57756 2.52063 0
M  V30 870 H 85.2128 0.453632 0.636979 0
M  V30 871 H 87.7968 1.56983 1.15171 0
M  V30 872 H 85.9678 1.30566 3.65796 0
M  V30 873 H 87.6998 1.53803 3.74335 0
M  V30 874 H 84.4548 3.48473 3.20724 0
M  V30 875 H 84.8788 6.09321 2.95054 0
M  V30 876 H 89.5208 3.19543 2.76861 0
M  V30 877 H 87.2388 7.64509 2.61825 0
M  V30 878 H 90.8248 5.27383 2.4568 0
M  V30 879 H 89.7048 7.4707 2.38446 0
M  V30 880 N 87.2079 -1.17134 1.05439 0
M  V30 881 C 88.4379 -1.91094 0.785274 0
M  V30 882 C 88.8459 -1.77198 -0.663142 0
M  V30 883 O 88.1889 -1.10835 -1.46497 0
M  V30 884 C 88.2509 -3.42594 1.08949 0
M  V30 885 C 87.9149 -3.80274 2.53458 0
M  V30 886 C 88.9119 -3.82912 3.51673 0
M  V30 887 C 86.5969 -4.11162 2.88532 0
M  V30 888 C 88.5909 -4.15913 4.83006 0
M  V30 889 C 86.2779 -4.43831 4.20068 0
M  V30 890 C 87.2759 -4.46185 5.17115 0
M  V30 891 O 86.9639 -4.78083 6.46291 0
M  V30 892 H 86.6959 -0.613073 0.284811 0
M  V30 893 H 89.2499 -1.49461 1.40893 0
M  V30 894 H 87.4799 -3.84534 0.408741 0
M  V30 895 H 89.1689 -3.97817 0.805991 0
M  V30 896 H 89.9349 -3.5917 3.25917 0
M  V30 897 H 85.8139 -4.085 2.13656 0
M  V30 898 H 89.3579 -4.17665 5.5875 0
M  V30 899 H 85.2549 -4.67037 4.45586 0
M  V30 900 H 86.0229 -4.9593 6.51149 0
M  V30 901 N 88.686 -0.835752 -1.33615 0
M  V30 902 C 89.916 -0.442701 -2.01801 0
M  V30 903 C 90.324 0.959807 -1.63047 0
M  V30 904 O 89.667 1.63468 -0.838088 0
M  V30 905 C 89.729 -0.480125 -3.56279 0
M  V30 906 C 89.393 -1.8382 -4.18401 0
M  V30 907 C 90.39 -2.80097 -4.37998 0
M  V30 908 C 88.075 -2.13019 -4.54894 0
M  V30 909 C 90.069 -4.03736 -4.9323 0
M  V30 910 C 87.756 -3.36916 -5.09834 0
M  V30 911 C 88.754 -4.32091 -5.28948 0
M  V30 912 O 88.442 -5.53797 -5.82721 0
M  V30 913 H 88.174 -0.17441 -0.653114 0
M  V30 914 H 90.728 -1.129 -1.71589 0
M  V30 915 H 88.958 0.262931 -3.85805 0
M  V30 916 H 90.647 -0.105335 -4.05763 0
M  V30 917 H 91.413 -2.58838 -4.10156 0
M  V30 918 H 87.292 -1.39733 -4.39313 0
M  V30 919 H 90.836 -4.78034 -5.08064 0
M  V30 920 H 86.733 -3.58033 -5.37106 0
M  V30 921 H 87.501 -5.55494 -6.0114 0
M  V30 922 N 90.1641 1.46063 -0.591896 0
M  V30 923 C 91.4411 1.95595 -0.0137119 0
M  V30 924 C 91.8211 1.5345 1.4497 0
M  V30 925 O 91.1691 0.789543 2.14426 0
M  V30 926 C 91.3791 3.48453 -0.195373 0
M  V30 927 C 92.7271 4.24546 -0.0679765 0
M  V30 928 O 93.7511 3.55982 -0.124681 0
M  V30 929 O 92.6101 5.46467 0.0600579 0
M  V30 930 H 89.7041 0.825795 0.0446279 0
M  V30 931 H 92.2501 1.56303 -0.660859 0
M  V30 932 H 91.0221 3.72045 -1.21235 0
M  V30 933 H 90.6451 3.94597 0.487775 0
M  V30 934 N 91.6422 0.330177 1.54103 0
M  V30 935 C 92.8722 -0.271784 2.04805 0
M  V30 936 C 93.2802 -1.45816 1.20559 0
M  V30 937 O 92.6232 -1.82247 0.2306 0
M  V30 938 C 92.6852 -0.763238 3.51305 0
M  V30 939 C 92.3492 0.301705 4.56003 0
M  V30 940 C 93.3462 1.13999 5.07248 0
M  V30 941 C 91.0312 0.451793 5.00264 0
M  V30 942 C 93.0252 2.11402 6.01322 0
M  V30 943 C 90.7122 1.42924 5.94151 0
M  V30 944 C 91.7102 2.25882 6.44567 0
M  V30 945 O 91.3982 3.21965 7.3661 0
M  V30 946 H 91.1302 -0.058693 0.673447 0
M  V30 947 H 93.6842 0.476395 1.99799 0
M  V30 948 H 91.9142 -1.56244 3.5373 0
M  V30 949 H 93.6032 -1.28427 3.85047 0
M  V30 950 H 94.3692 1.03505 4.73827 0
M  V30 951 H 90.2482 -0.184044 4.60632 0
M  V30 952 H 93.7922 2.76192 6.40596 0
M  V30 953 H 89.6892 1.53479 6.26988 0
M  V30 954 H 90.4572 3.17281 7.54503 0
M  V30 955 N 93.1203 -1.57491 0.0584922 0
M  V30 956 C 94.3453 -1.97711 -0.62652 0
M  V30 957 C 94.7703 -0.936132 -1.63151 0
M  V30 958 O 94.1283 0.099811 -1.81025 0
M  V30 959 C 94.1763 -3.36989 -1.28338 0
M  V30 960 O 93.2803 -3.35433 -2.39913 0
M  V30 961 H 92.6213 -0.643868 -0.162266 0
M  V30 962 H 95.1513 -2.04193 0.129064 0
M  V30 963 H 95.1613 -3.73879 -1.63335 0
M  V30 964 H 93.8363 -4.12289 -0.546889 0
M  V30 965 H 92.4133 -3.10298 -2.06809 0
M  V30 966 N 94.5984 0.214957 -1.56127 0
M  V30 967 C 95.8464 0.936518 -1.79091 0
M  V30 968 C 96.1674 1.84606 -0.628148 0
M  V30 969 O 95.4374 1.92664 0.35462 0
M  V30 970 H 94.0174 0.3488 -0.660566 0
M  V30 971 H 96.6794 0.22523 -1.93594 0
M  V30 972 H 95.7754 1.53943 -2.71492 0
M  V30 973 N 96.0765 1.50051 0.48192 0
M  V30 974 C 97.0085 1.64263 1.59844 0
M  V30 975 C 98.0215 0.52451 1.54119 0
M  V30 976 O 99.2105 0.797293 1.59704 0
M  V30 977 C 96.3105 1.60102 2.98698 0
M  V30 978 C 95.4835 2.87767 3.29407 0
M  V30 979 C 94.5425 2.76397 4.47762 0
M  V30 980 O 93.5685 3.50348 4.48603 0
M  V30 981 N 94.7705 1.89222 5.48794 0
M  V30 982 H 97.5355 2.60566 1.48073 0
M  V30 983 H 95.0965 1.47379 0.670149 0
M  V30 984 H 97.0885 1.50123 3.75826 0
M  V30 985 H 95.6585 0.715798 3.04294 0
M  V30 986 H 94.8785 3.11954 2.40994 0
M  V30 987 H 96.1665 3.72365 3.4673 0
M  V30 988 H 95.5645 1.28434 5.50928 0
M  V30 989 H 94.1215 1.85154 6.24949 0
M  V30 990 N 97.5546 -0.734337 1.39446 0
M  V30 991 C 98.9706 -1.03997 1.21065 0
M  V30 992 C 99.1706 -2.01369 0.0727019 0
M  V30 993 O 98.2266 -2.45856 -0.575426 0
M  V30 994 C 99.5396 -1.60163 2.54496 0
M  V30 995 C 101.088 -1.7224 2.61347 0
M  V30 996 C 101.563 -2.31814 3.95002 0
M  V30 997 N 103.054 -2.39223 3.96644 0
M  V30 998 C 103.789 -2.86258 4.96834 0
M  V30 999 N 103.285 -3.33184 6.07421 0
M  V30 1000 N 105.078 -2.85473 4.84213 0
M  V30 1001 H 97.2286 -0.0885624 2.12215 0
M  V30 1002 H 99.4916 -0.10191 0.942506 0
M  V30 1003 H 99.1976 -0.960811 3.38321 0
M  V30 1004 H 99.0716 -2.5896 2.74262 0
M  V30 1005 H 101.459 -2.35443 1.77906 0
M  V30 1006 H 101.54 -0.720939 2.4543 0
M  V30 1007 H 101.184 -1.69238 4.78875 0
M  V30 1008 H 101.114 -3.32638 4.08239 0
M  V30 1009 H 103.605 -2.06057 3.16779 0
M  V30 1010 H 103.918 -3.67586 6.7978 0
M  V30 1011 H 102.263 -3.31191 6.11013 0
M  V30 1012 H 105.454 -2.48136 3.96921 0
M  V30 1013 H 105.627 -3.21814 5.62441 0
M  V30 1014 N 99.0327 -1.24633 -0.964593 0
M  V30 1015 C 99.9647 -0.999302 -2.06268 0
M  V30 1016 C 100.978 0.0323226 -1.62768 0
M  V30 1017 O 102.167 -0.205079 -1.77318 0
M  V30 1018 C 99.2667 -0.486816 -3.35385 0
M  V30 1019 C 98.4397 -1.5823 -4.07777 0
M  V30 1020 C 97.4987 -1.07191 -5.15166 0
M  V30 1021 O 96.5247 -1.76426 -5.41168 0
M  V30 1022 N 97.7267 0.0920373 -5.80427 0
M  V30 1023 H 100.492 -1.94477 -2.28033 0
M  V30 1024 H 98.0527 -1.15704 -1.13244 0
M  V30 1025 H 100.045 -0.130066 -4.04491 0
M  V30 1026 H 98.6147 0.364459 -3.10468 0
M  V30 1027 H 97.8347 -2.11109 -3.32906 0
M  V30 1028 H 99.1227 -2.31854 -4.52903 0
M  V30 1029 H 98.5207 0.670784 -5.61709 0
M  V30 1030 H 97.0777 0.389905 -6.50633 0
M  V30 1031 N 100.511 1.16574 -1.06058 0
M  V30 1032 C 101.757 1.87324 -0.777022 0
M  V30 1033 C 102.09 1.81351 0.694645 0
M  V30 1034 O 101.365 1.22753 1.50871 0
M  V30 1035 C 101.648 3.36991 -1.26922 0
M  V30 1036 C 101.501 3.51667 -2.80447 0
M  V30 1037 C 102.82 4.3131 -0.87521 0
M  V30 1038 H 99.9388 0.680191 -0.28374 0
M  V30 1039 H 102.581 1.37036 -1.3161 0
M  V30 1040 H 100.731 3.79949 -0.81063 0
M  V30 1041 H 102.403 3.17664 -3.34495 0
M  V30 1042 H 100.646 2.93656 -3.19294 0
M  V30 1043 H 101.317 4.56766 -3.0995 0
M  V30 1044 H 103.793 3.9624 -1.27014 0
M  V30 1045 H 102.669 5.34545 -1.2471 0
M  V30 1046 H 102.93 4.41552 0.220071 0
M  V30 1047 N 101.989 0.842826 1.3317 0
M  V30 1048 C 103.235 0.441099 1.97945 0
M  V30 1049 C 103.568 -0.998024 1.66593 0
M  V30 1050 O 102.843 -1.69839 0.947898 0
M  V30 1051 C 103.126 0.666841 3.53872 0
M  V30 1052 C 102.979 2.15352 3.94897 0
M  V30 1053 C 104.298 0.115544 4.39948 0
M  V30 1054 H 101.417 0.161739 0.719034 0
M  V30 1055 H 104.059 1.05907 1.57746 0
M  V30 1056 H 102.209 0.140828 3.88245 0
M  V30 1057 H 103.881 2.7447 3.70761 0
M  V30 1058 H 102.124 2.63653 3.44484 0
M  V30 1059 H 102.795 2.26221 5.03516 0
M  V30 1060 H 105.271 0.565213 4.12243 0
M  V30 1061 H 104.147 0.303152 5.48062 0
M  V30 1062 H 104.408 -0.980935 4.3108 0
M  V30 1063 N 103.467 -1.45747 0.599634 0
M  V30 1064 C 104.692 -2.07178 0.0960198 0
M  V30 1065 C 105.117 -1.44268 -1.207 0
M  V30 1066 O 104.475 -0.532503 -1.73303 0
M  V30 1067 C 104.523 -3.60579 -0.0385348 0
M  V30 1068 O 103.627 -3.97713 -1.0908 0
M  V30 1069 H 102.968 -0.660251 0.0704593 0
M  V30 1070 H 105.498 -1.87124 0.827385 0
M  V30 1071 H 105.508 -4.07298 -0.239304 0
M  V30 1072 H 104.183 -4.05756 0.912947 0
M  V30 1073 H 102.76 -3.62678 -0.867135 0
M  V30 1074 N 104.945 -0.338344 -1.53925 0
M  V30 1075 C 105.895 0.536712 -2.21593 0
M  V30 1076 C 106.879 1.07015 -1.20153 0
M  V30 1077 O 108.071 1.00471 -1.45721 0
M  V30 1078 C 105.2 1.68977 -2.98834 0
M  V30 1079 C 104.286 1.17052 -4.07627 0
M  V30 1080 N 104.677 0.372085 -5.0443 0
M  V30 1081 C 102.975 1.44789 -4.21844 0
M  V30 1082 C 103.676 0.0909171 -5.81629 0
M  V30 1083 N 102.652 0.681131 -5.39316 0
M  V30 1084 H 106.454 -0.0804298 -2.9379 0
M  V30 1085 H 103.968 -0.144943 -1.61752 0
M  V30 1086 H 105.965 2.32857 -3.45808 0
M  V30 1087 H 104.625 2.31024 -2.28162 0
M  V30 1088 H 105.636 0.0136217 -5.17898 0
M  V30 1089 H 102.313 2.07313 -3.62391 0
M  V30 1090 H 103.703 -0.552817 -6.69622 0
M  V30 1091 N 106.423 1.57458 -0.0668435 0
M  V30 1092 C 107.648 1.9804 0.616027 0
M  V30 1093 C 108.073 0.944771 1.62652 0
M  V30 1094 O 107.431 -0.0902094 1.81075 0
M  V30 1095 C 107.479 3.37665 1.26549 0
M  V30 1096 O 106.583 3.36701 2.38131 0
M  V30 1097 H 105.924 0.644719 0.158849 0
M  V30 1098 H 108.454 2.04121 -0.139891 0
M  V30 1099 H 108.464 3.7474 1.6135 0
M  V30 1100 H 107.139 4.12573 0.525016 0
M  V30 1101 H 105.716 3.1139 2.0516 0
M  V30 1102 N 107.901 -0.206675 1.56239 0
M  V30 1103 C 108.864 -1.23976 1.92776 0
M  V30 1104 C 109.864 -1.39041 0.807729 0
M  V30 1105 O 111.054 -1.37051 1.0753 0
M  V30 1106 C 108.186 -2.61112 2.19165 0
M  V30 1107 H 109.379 -0.927764 2.85189 0
M  V30 1108 H 106.932 -0.447718 1.4975 0
M  V30 1109 H 107.667 -2.97386 1.29352 0
M  V30 1110 H 107.452 -2.51552 3.00772 0
M  V30 1111 H 108.942 -3.35633 2.48476 0
M  V30 1112 N 109.379 -1.50304 -0.473955 0
M  V30 1113 C 110.656 -1.51667 -1.23518 0
M  V30 1114 C 111.036 -0.259701 -2.09496 0
M  V30 1115 O 110.384 0.756986 -2.15597 0
M  V30 1116 C 110.594 -2.81082 -2.06868 0
M  V30 1117 C 111.942 -3.31631 -2.65153 0
M  V30 1118 O 112.966 -2.82384 -2.17113 0
M  V30 1119 O 111.825 -4.17471 -3.52675 0
M  V30 1120 H 108.919 -0.60822 -0.560355 0
M  V30 1121 H 111.465 -1.62592 -0.486011 0
M  V30 1122 H 110.237 -3.64041 -1.4349 0
M  V30 1123 H 109.86 -2.73146 -2.88924 0
M  V30 1124 N 110.857 0.726932 -1.39834 0
M  V30 1125 C 112.268 1.30558 -1.3346 0
M  V30 1126 C 112.619 1.962 -0.00273003 0
M  V30 1127 O 111.744 1.96826 0.899371 0
M  V30 1128 C 112.339 2.37404 -2.41713 0
M  V30 1129 C 110.898 2.90921 -2.38835 0
M  V30 1130 C 110.045 1.64578 -2.2318 0
M  V30 1131 H 112.996 0.523862 -1.49804 0
M  V30 1132 H 113.017 3.17984 -2.08966 0
M  V30 1133 H 112.529 1.89599 -3.38635 0
M  V30 1134 H 110.63 3.42985 -1.45575 0
M  V30 1135 H 110.743 3.43487 -3.33997 0
M  V30 1136 H 109.107 1.89219 -1.70494 0
M  V30 1137 H 109.89 1.18814 -3.22084 0
M  V30 1138 N 112.336 1.25143 0.95797 0
M  V30 1139 C 113.283 1.05235 2.05412 0
M  V30 1140 C 114.253 -0.0374561 1.66058 0
M  V30 1141 O 115.438 0.119073 1.90428 0
M  V30 1142 C 112.578 0.673589 3.38462 0
M  V30 1143 C 111.691 1.8379 3.90954 0
M  V30 1144 C 110.826 1.40381 5.12315 0
M  V30 1145 C 109.865 2.53746 5.57027 0
M  V30 1146 N 109.002 2.11136 6.69601 0
M  V30 1147 H 113.842 1.99048 2.21774 0
M  V30 1148 H 111.379 0.991277 1.08683 0
M  V30 1149 H 113.337 0.434964 4.14926 0
M  V30 1150 H 111.967 -0.227554 3.21997 0
M  V30 1151 H 111.019 2.18992 3.11041 0
M  V30 1152 H 112.331 2.68937 4.20089 0
M  V30 1153 H 111.485 1.12464 5.96185 0
M  V30 1154 H 110.224 0.523015 4.84887 0
M  V30 1155 H 109.229 2.82412 4.71724 0
M  V30 1156 H 110.454 3.42398 5.86464 0
M  V30 1157 H 108.4 1.25468 6.4389 0
M  V30 1158 H 108.317 2.89832 6.98236 0
M  V30 1159 H 109.585 1.86385 7.56889 0
M  V30 1160 N 113.814 -1.1601 1.06675 0
M  V30 1161 C 114.744 -2.22688 0.702307 0
M  V30 1162 C 115.725 -1.67306 -0.307032 0
M  V30 1163 O 116.91 -1.93352 -0.181305 0
M  V30 1164 C 114.04 -3.47178 0.092038 0
M  V30 1165 C 112.994 -4.15477 1.02777 0
M  V30 1166 C 112.32 -5.33963 0.28061 0
M  V30 1167 C 113.62 -4.66019 2.35846 0
M  V30 1168 H 115.314 -2.53429 1.59419 0
M  V30 1169 H 112.86 -1.21813 0.767961 0
M  V30 1170 H 114.813 -4.21037 -0.174814 0
M  V30 1171 H 113.537 -3.15749 -0.834877 0
M  V30 1172 H 112.196 -3.43549 1.27944 0
M  V30 1173 H 111.844 -4.98788 -0.649545 0
M  V30 1174 H 111.544 -5.806 0.904258 0
M  V30 1175 H 113.068 -6.10596 0.021396 0
M  V30 1176 H 114.482 -5.3144 2.15045 0
M  V30 1177 H 112.879 -5.23293 2.93743 0
M  V30 1178 H 113.949 -3.82023 2.98641 0
M  V30 1179 N 115.292 -0.849877 -1.32721 0
M  V30 1180 C 116.538 -0.451591 -1.97708 0
M  V30 1181 C 116.871 0.989175 -1.6712 0
M  V30 1182 O 116.146 1.69334 -0.956891 0
M  V30 1183 C 116.429 -0.685598 -3.53513 0
M  V30 1184 C 116.282 -2.17444 -3.93749 0
M  V30 1185 C 117.601 -0.138874 -4.39881 0
M  V30 1186 H 114.72 -0.16555 -0.718166 0
M  V30 1187 H 117.362 -1.06742 -1.57182 0
M  V30 1188 H 115.512 -0.161416 -3.88165 0
M  V30 1189 H 117.184 -2.76433 -3.693 0
M  V30 1190 H 115.427 -2.65476 -3.43081 0
M  V30 1191 H 116.098 -2.28888 -5.02309 0
M  V30 1192 H 118.574 -0.587068 -4.11938 0
M  V30 1193 H 117.45 -0.332213 -5.47894 0
M  V30 1194 H 117.711 0.95806 -4.31594 0
M  V30 1195 N 116.77 1.45427 -0.607355 0
M  V30 1196 C 117.68 2.34325 0.113463 0
M  V30 1197 C 118.696 1.51226 0.860617 0
M  V30 1198 O 119.872 1.84029 0.818255 0
M  V30 1199 C 116.937 3.28839 1.09844 0
M  V30 1200 C 115.998 4.27844 0.353271 0
M  V30 1201 C 115.231 5.17842 1.29133 0
M  V30 1202 O 115.454 5.11264 2.52913 0
M  V30 1203 O 114.388 5.96713 0.788523 0
M  V30 1204 H 118.214 2.97364 -0.617094 0
M  V30 1205 H 115.799 1.44807 -0.367619 0
M  V30 1206 H 117.681 3.8708 1.66575 0
M  V30 1207 H 116.356 2.68365 1.81003 0
M  V30 1208 H 115.263 3.7322 -0.256494 0
M  V30 1209 H 116.596 4.91173 -0.317822 0
M  V30 1210 N 118.248 0.346503 1.53744 0
M  V30 1211 C 119.211 -0.496439 2.23759 0
M  V30 1212 C 120.211 -1.0252 1.2388 0
M  V30 1213 O 121.401 -0.913974 1.48297 0
M  V30 1214 C 118.533 -1.69187 2.95954 0
M  V30 1215 H 119.726 0.115952 2.99676 0
M  V30 1216 H 117.279 0.0978939 1.55993 0
M  V30 1217 H 118.014 -2.34288 2.24231 0
M  V30 1218 H 117.799 -1.31989 3.69217 0
M  V30 1219 H 119.289 -2.28969 3.49232 0
M  V30 1220 N 119.726 -1.57421 0.075193 0
M  V30 1221 C 121.142 -1.57099 -0.281444 0
M  V30 1222 C 121.342 -1.08486 -1.69803 0
M  V30 1223 O 120.398 -0.752279 -2.41033 0
M  V30 1224 C 121.711 -3.00571 -0.0880041 0
M  V30 1225 C 123.259 -3.12605 -0.157281 0
M  V30 1226 C 123.734 -4.57999 0.0079207 0
M  V30 1227 N 125.225 -4.63176 -0.0475725 0
M  V30 1228 C 125.96 -5.73373 0.0557876 0
M  V30 1229 N 125.456 -6.92473 0.21286 0
M  V30 1230 N 127.249 -5.621 -0.00152098 0
M  V30 1231 H 119.4 -1.87335 1.00098 0
M  V30 1232 H 121.663 -0.86377 0.390646 0
M  V30 1233 H 121.369 -3.40262 0.889629 0
M  V30 1234 H 121.243 -3.67754 -0.838875 0
M  V30 1235 H 123.63 -2.72798 -1.1254 0
M  V30 1236 H 123.711 -2.48053 0.62475 0
M  V30 1237 H 123.355 -4.98496 0.972824 0
M  V30 1238 H 123.285 -5.20586 -0.793556 0
M  V30 1239 H 125.776 -3.7753 -0.167244 0
M  V30 1240 H 126.089 -7.72279 0.283781 0
M  V30 1241 H 124.434 -6.94556 0.248267 0
M  V30 1242 H 127.625 -4.67938 -0.122958 0
M  V30 1243 H 127.798 -6.47948 0.0824844 0
M  V30 1244 N 121.204 0.198386 -1.56346 0
M  V30 1245 C 122.451 0.919286 -1.80431 0
M  V30 1246 C 122.779 1.83393 -0.647866 0
M  V30 1247 O 122.034 1.92236 0.366556 0
M  V30 1248 C 122.333 1.77031 -3.10475 0
M  V30 1249 C 121.999 1.00693 -4.39513 0
M  V30 1250 C 120.661 0.796145 -4.74568 0
M  V30 1251 C 123.013 0.469559 -5.19081 0
M  V30 1252 C 120.341 0.0364588 -5.86689 0
M  V30 1253 C 122.693 -0.2769 -6.31994 0
M  V30 1254 C 121.357 -0.49873 -6.65634 0
M  V30 1255 H 120.627 0.336391 -0.660244 0
M  V30 1256 H 123.274 0.185872 -1.90596 0
M  V30 1257 H 121.579 2.5723 -2.95533 0
M  V30 1258 H 123.276 2.33065 -3.26315 0
M  V30 1259 H 119.866 1.18122 -4.12001 0
M  V30 1260 H 124.05 0.619816 -4.92414 0
M  V30 1261 H 119.306 -0.145412 -6.11227 0
M  V30 1262 H 123.48 -0.700684 -6.92866 0
M  V30 1263 H 121.107 -1.0893 -7.52355 0
M  V30 1264 N 122.682 1.50554 0.465978 0
M  V30 1265 C 124.098 1.38093 0.800154 0
M  V30 1266 C 124.298 0.440988 1.96615 0
M  V30 1267 O 123.354 -0.114499 2.5224 0
M  V30 1268 C 124.667 2.79565 1.10742 0
M  V30 1269 C 126.215 2.88516 1.21357 0
M  V30 1270 C 126.69 4.30833 1.55393 0
M  V30 1271 N 128.181 4.33807 1.62375 0
M  V30 1272 C 128.916 5.40927 1.90225 0
M  V30 1273 N 128.412 6.58247 2.16062 0
M  V30 1274 N 130.205 5.28376 1.9177 0
M  V30 1275 H 122.356 2.10237 -0.302366 0
M  V30 1276 H 124.619 0.945203 -0.0727746 0
M  V30 1277 H 124.325 3.50208 0.323661 0
M  V30 1278 H 124.199 3.17125 2.04234 0
M  V30 1279 H 126.586 2.1809 1.98799 0
M  V30 1280 H 126.667 2.54492 0.258321 0
M  V30 1281 H 126.311 5.01799 0.784889 0
M  V30 1282 H 126.241 4.62347 2.52076 0
M  V30 1283 H 128.732 3.49212 1.44427 0
M  V30 1284 H 129.045 7.3569 2.36601 0
M  V30 1285 H 127.39 6.61413 2.13444 0
M  V30 1286 H 130.581 4.35715 1.71085 0
M  V30 1287 H 130.754 6.11944 2.13139 0
M  V30 1288 N 124.16 -0.719506 1.40217 0
M  V30 1289 C 125.408 -1.47641 1.3801 0
M  V30 1290 C 125.729 -1.94992 -0.018145 0
M  V30 1291 O 124.999 -1.70073 -0.972207 0
M  V30 1292 H 123.579 -0.547744 0.507923 0
M  V30 1293 H 126.241 -0.853187 1.75233 0
M  V30 1294 H 125.337 -2.35112 2.05253 0
M  V30 1295 N 125.638 -1.25649 -0.95132 0
M  V30 1296 C 127.054 -1.02542 -1.223 0
M  V30 1297 C 127.254 0.255715 -1.99871 0
M  V30 1298 O 126.31 0.967558 -2.33226 0
M  V30 1299 C 127.623 -2.25065 -1.99415 0
M  V30 1300 C 129.171 -2.29861 -2.12446 0
M  V30 1301 C 129.646 -3.52048 -2.92961 0
M  V30 1302 N 131.137 -3.52465 -3.00538 0
M  V30 1303 C 131.872 -4.43672 -3.63239 0
M  V30 1304 N 131.368 -5.45157 -4.27523 0
M  V30 1305 N 133.161 -4.31346 -3.60412 0
M  V30 1306 H 125.312 -2.07951 -0.432471 0
M  V30 1307 H 127.575 -0.91339 -0.253816 0
M  V30 1308 H 127.281 -3.18194 -1.49817 0
M  V30 1309 H 127.155 -2.28502 -3.00111 0
M  V30 1310 H 129.542 -1.37252 -2.61239 0
M  V30 1311 H 129.623 -2.3044 -1.11044 0
M  V30 1312 H 129.267 -4.44981 -2.44856 0
M  V30 1313 H 129.197 -3.48715 -3.94596 0
M  V30 1314 H 131.688 -2.79056 -2.54826 0
M  V30 1315 H 132.001 -6.10958 -4.73234 0
M  V30 1316 H 130.346 -5.49025 -4.26141 0
M  V30 1317 H 133.537 -3.51288 -3.09377 0
M  V30 1318 H 133.71 -5.02624 -4.0899 0
M  V30 1319 N 127.117 1.15442 -1.07289 0
M  V30 1320 C 128.345 1.90096 -0.81676 0
M  V30 1321 C 128.76 1.7798 0.629966 0
M  V30 1322 O 128.117 1.1313 1.43206 0
M  V30 1323 C 128.168 3.40466 -1.21512 0
M  V30 1324 O 127.889 3.52232 -2.60508 0
M  V30 1325 C 129.39 4.32145 -0.988198 0
M  V30 1326 H 126.61 0.602495 -0.295366 0
M  V30 1327 H 129.154 1.4627 -1.42918 0
M  V30 1328 H 127.309 3.81958 -0.647039 0
M  V30 1329 H 127.723 4.45549 -2.76742 0
M  V30 1330 H 129.197 5.36072 -1.31645 0
M  V30 1331 H 129.674 4.39135 0.0755063 0
M  V30 1332 H 130.28 3.96395 -1.54115 0
M  V30 1333 N 128.595 0.856903 1.32268 0
M  V30 1334 C 129.505 0.306131 2.32594 0
M  V30 1335 C 130.521 -0.577209 1.64147 0
M  V30 1336 O 131.697 -0.477043 1.95669 0
M  V30 1337 C 128.762 -0.494561 3.43154 0
M  V30 1338 C 127.823 0.415186 4.27288 0
M  V30 1339 C 127.056 -0.347387 5.32568 0
M  V30 1340 O 127.279 -1.57708 5.48165 0
M  V30 1341 O 126.213 0.287982 6.01211 0
M  V30 1342 H 130.039 1.13737 2.81598 0
M  V30 1343 H 127.624 0.619902 1.35932 0
M  V30 1344 H 129.506 -0.948944 4.10576 0
M  V30 1345 H 128.181 -1.30257 2.96336 0
M  V30 1346 H 127.088 0.917793 3.62667 0
M  V30 1347 H 128.421 1.18844 4.77637 0
M  V30 1348 N 130.073 -1.45103 0.615059 0
M  V30 1349 C 131.32 -2.02183 0.113179 0
M  V30 1350 C 131.648 -1.48249 -1.25906 0
M  V30 1351 O 130.903 -0.650265 -1.84581 0
M  V30 1352 C 131.202 -3.57386 0.0318797 0
M  V30 1353 C 130.868 -4.30505 1.34077 0
M  V30 1354 C 129.53 -4.50197 1.69929 0
M  V30 1355 C 131.882 -4.72238 2.20546 0
M  V30 1356 C 129.21 -5.08881 2.91988 0
M  V30 1357 C 131.562 -5.32272 3.41861 0
M  V30 1358 C 130.226 -5.50187 3.77956 0
M  V30 1359 H 129.496 -0.739842 0.0414151 0
M  V30 1360 H 132.143 -1.74073 0.798168 0
M  V30 1361 H 130.448 -3.84817 -0.736409 0
M  V30 1362 H 132.145 -3.99264 -0.372712 0
M  V30 1363 H 128.735 -4.15496 1.05173 0
M  V30 1364 H 132.919 -4.56751 1.94146 0
M  V30 1365 H 128.175 -5.20939 3.2005 0
M  V30 1366 H 132.349 -5.63563 4.09109 0
M  V30 1367 H 129.976 -5.95427 4.72622 0
M  V30 1368 N 131.551 -0.354651 -1.53558 0
M  V30 1369 C 132.484 0.540273 -2.21712 0
M  V30 1370 C 133.462 1.09161 -1.2051 0
M  V30 1371 O 134.646 1.14979 -1.49372 0
M  V30 1372 C 131.773 1.74435 -2.90328 0
M  V30 1373 C 130.819 1.32146 -4.05512 0
M  V30 1374 S 131.652 0.331924 -5.3447 0
M  V30 1375 C 132.808 1.54258 -6.06593 0
M  V30 1376 H 133.041 -0.0385776 -2.97275 0
M  V30 1377 H 130.574 -0.138736 -1.53775 0
M  V30 1378 H 132.532 2.43507 -3.30476 0
M  V30 1379 H 131.193 2.29444 -2.1451 0
M  V30 1380 H 130.386 2.21952 -4.52497 0
M  V30 1381 H 129.988 0.710091 -3.67197 0
M  V30 1382 H 132.28 2.47534 -6.30661 0
M  V30 1383 H 133.223 1.11431 -6.99277 0
M  V30 1384 H 133.631 1.74367 -5.36895 0
M  V30 1385 N 133.029 1.57378 -0.0835403 0
M  V30 1386 C 134.277 1.93547 0.581718 0
M  V30 1387 C 134.598 0.96524 1.69435 0
M  V30 1388 O 133.868 0.0153369 1.95894 0
M  V30 1389 H 132.448 0.714521 0.217874 0
M  V30 1390 H 135.11 1.94366 -0.144158 0
M  V30 1391 H 134.206 2.95665 0.999423 0
M  V30 1392 N 134.507 -0.190092 1.56449 0
M  V30 1393 C 135.455 -1.25501 1.95837 0
M  V30 1394 C 136.449 -1.4685 0.844485 0
M  V30 1395 O 137.655 -1.47651 1.02952 0
M  V30 1396 H 134.03 -0.421447 0.622805 0
M  V30 1397 H 136.001 -0.895821 2.84636 0
M  V30 1398 C 134.75 -2.59124 2.31841 0
M  V30 1399 H 134.073 -2.43514 3.17082 0
M  V30 1400 H 135.513 -3.32371 2.6326 0
M  V30 1401 C 133.972 -3.16488 1.15486 0
M  V30 1402 O 134.502 -3.99365 0.432535 0
M  V30 1403 N 132.708 -2.75305 0.930349 0
M  V30 1404 H 132.255 -2.08013 1.51948 0
M  V30 1405 H 132.213 -3.14024 0.153634 0
M  V30 1406 N 135.985 -1.50799 -0.457987 0
M  V30 1407 C 137.396 -1.55152 -1.0385 0
M  V30 1408 C 137.747 -0.362719 -1.92818 0
M  V30 1409 O 136.872 0.522915 -2.09987 0
M  V30 1410 C 137.467 -2.81173 -1.89017 0
M  V30 1411 C 136.026 -2.88164 -2.42154 0
M  V30 1412 C 135.173 -2.49591 -1.20829 0
M  V30 1413 H 138.124 -1.56874 -0.240068 0
M  V30 1414 H 138.145 -2.63769 -2.74238 0
M  V30 1415 H 137.657 -3.67677 -1.24238 0
M  V30 1416 H 135.758 -2.06042 -3.10447 0
M  V30 1417 H 135.871 -3.91356 -2.76364 0
M  V30 1418 H 134.235 -2.02322 -1.54719 0
M  V30 1419 H 135.018 -3.38418 -0.576927 0
M  V30 1420 N 137.463 0.71206 -1.40597 0
M  V30 1421 C 138.373 1.8562 -1.43466 0
M  V30 1422 C 139.389 1.70902 -0.326902 0
M  V30 1423 O 140.565 1.93105 -0.572043 0
M  V30 1424 C 137.63 3.21451 -1.29884 0
M  V30 1425 C 136.691 3.48398 -2.50833 0
M  V30 1426 C 135.924 4.77749 -2.3789 0
M  V30 1427 O 136.147 5.53089 -1.39459 0
M  V30 1428 O 135.081 5.05111 -3.27333 0
M  V30 1429 H 138.907 1.86155 -2.39958 0
M  V30 1430 H 136.492 0.86295 -1.21957 0
M  V30 1431 H 138.374 4.02579 -1.24531 0
M  V30 1432 H 137.049 3.21636 -0.364997 0
M  V30 1433 H 135.956 2.67265 -2.61763 0
M  V30 1434 H 137.289 3.53014 -3.4299 0
M  V30 1435 N 138.941 1.26152 0.944643 0
M  V30 1436 C 139.891 1.04081 2.02857 0
M  V30 1437 C 140.875 -0.0256555 1.6088 0
M  V30 1438 O 142.067 0.190884 1.75968 0
M  V30 1439 C 139.196 0.672118 3.36656 0
M  V30 1440 C 138.282 1.77586 3.85128 0
M  V30 1441 N 138.673 3.01272 4.06287 0
M  V30 1442 C 136.971 1.65867 4.1401 0
M  V30 1443 C 137.672 3.72983 4.46384 0
M  V30 1444 N 136.648 3.00653 4.52889 0
M  V30 1445 H 140.45 1.97968 2.17223 0
M  V30 1446 H 137.964 1.16618 1.13022 0
M  V30 1447 H 139.961 0.495166 4.13949 0
M  V30 1448 H 138.621 -0.259307 3.23663 0
M  V30 1449 H 139.632 3.37213 3.93075 0
M  V30 1450 H 136.309 0.796907 4.09824 0
M  V30 1451 H 137.699 4.792 4.70975 0
M  V30 1452 N 140.419 -1.14872 1.07899 0
M  V30 1453 C 141.835 -1.37776 0.805606 0
M  V30 1454 C 142.035 -1.92743 -0.587555 0
M  V30 1455 O 141.091 -2.13678 -1.34528 0
M  V30 1456 C 142.404 -2.34361 1.88402 0
M  V30 1457 C 143.952 -2.48012 1.90942 0
M  V30 1458 C 144.427 -3.47893 2.97883 0
M  V30 1459 N 145.918 -3.55433 2.97021 0
M  V30 1460 C 146.653 -4.32553 3.76412 0
M  V30 1461 N 146.149 -5.12959 4.65666 0
M  V30 1462 N 147.942 -4.27697 3.64735 0
M  V30 1463 H 140.093 -0.775365 1.97742 0
M  V30 1464 H 142.356 -0.403521 0.857831 0
M  V30 1465 H 142.062 -2.01098 2.88535 0
M  V30 1466 H 141.936 -3.34206 1.74889 0
M  V30 1467 H 144.323 -2.8057 0.914579 0
M  V30 1468 H 144.404 -1.48147 2.08534 0
M  V30 1469 H 144.048 -3.16069 3.97571 0
M  V30 1470 H 143.978 -4.47527 2.77538 0
M  V30 1471 H 146.469 -2.98048 2.32326 0
M  V30 1472 H 146.782 -5.69065 5.22862 0
M  V30 1473 H 145.127 -5.12245 4.69712 0
M  V30 1474 H 148.318 -3.63949 2.94378 0
M  V30 1475 H 148.491 -4.8755 4.26848 0
M  V30 1476 N 141.898 -0.863906 -1.31812 0
M  V30 1477 C 143.144 -0.472535 -1.97218 0
M  V30 1478 C 143.477 0.971394 -1.68159 0
M  V30 1479 O 142.752 1.68309 -0.974798 0
M  V30 1480 C 143.035 -0.723054 -3.52766 0
M  V30 1481 C 142.888 -2.21608 -3.91421 0
M  V30 1482 C 144.207 -0.185522 -4.39709 0
M  V30 1483 H 141.326 -0.173158 -0.71637 0
M  V30 1484 H 143.968 -1.08403 -1.56041 0
M  V30 1485 H 142.118 -0.202577 -3.87971 0
M  V30 1486 H 143.79 -2.80334 -3.66347 0
M  V30 1487 H 142.033 -2.691 -3.40246 0
M  V30 1488 H 142.704 -2.34203 -4.99853 0
M  V30 1489 H 145.18 -0.630726 -4.11292 0
M  V30 1490 H 144.056 -0.390306 -5.47511 0
M  V30 1491 H 144.317 0.912229 -4.32586 0
M  V30 1492 N 143.376 1.44774 -0.622745 0
M  V30 1493 C 144.616 2.04004 -0.127102 0
M  V30 1494 C 144.98 1.47862 1.22478 0
M  V30 1495 O 146.181 1.98541 1.81204 0
M  V30 1496 C 144.452 3.57247 -0.104429 0
M  V30 1497 S 146.011 4.37574 0.327814 0
M  V30 1498 H 142.829 0.708713 -0.0569776 0
M  V30 1499 H 145.431 1.77275 -0.824253 0
M  V30 1500 H 144.135 3.95616 -1.09159 0
M  V30 1501 H 143.666 3.88575 0.614236 0
M  V30 1502 H 145.681 4.70575 1.57395 0
M  V30 1503 N 144.854 0.36279 1.53368 0
M  V30 1504 C 145.802 -0.500155 2.27159 0
M  V30 1505 C 146.796 -1.08575 1.3003 0
M  V30 1506 O 148.002 -1.02927 1.47668 0
M  V30 1507 H 144.377 -0.180009 0.730138 0
M  V30 1508 H 146.348 0.14401 2.98052 0
M  V30 1509 C 145.097 -1.62937 3.07159 0
M  V30 1510 H 144.42 -1.18806 3.8174 0
M  V30 1511 H 145.86 -2.20795 3.61975 0
M  V30 1512 C 144.319 -2.57007 2.17829 0
M  V30 1513 O 144.849 -3.59752 1.78721 0
M  V30 1514 N 143.055 -2.26131 1.82518 0
M  V30 1515 H 142.602 -1.42616 2.14519 0
M  V30 1516 H 142.56 -2.89327 1.23034 0
M  V30 1517 N 146.332 -1.57332 0.0918853 0
M  V30 1518 C 147.262 -2.16872 -0.865371 0
M  V30 1519 C 148.243 -1.10118 -1.29646 0
M  V30 1520 O 149.428 -1.38242 -1.36392 0
M  V30 1521 C 146.558 -2.74649 -2.12569 0
M  V30 1522 C 145.512 -3.86747 -1.83333 0
M  V30 1523 C 144.838 -4.31212 -3.16166 0
M  V30 1524 C 146.138 -5.10089 -1.1228 0
M  V30 1525 H 147.832 -2.97114 -0.369307 0
M  V30 1526 H 145.378 -1.42918 -0.176194 0
M  V30 1527 H 147.331 -3.14952 -2.7997 0
M  V30 1528 H 146.055 -1.91657 -2.64452 0
M  V30 1529 H 144.714 -3.46978 -1.18331 0
M  V30 1530 H 144.362 -3.45115 -3.6593 0
M  V30 1531 H 144.062 -5.06788 -2.97388 0
M  V30 1532 H 145.586 -4.74146 -3.84731 0
M  V30 1533 H 147 -5.47582 -1.69785 0
M  V30 1534 H 145.397 -5.91073 -1.03693 0
M  V30 1535 H 146.467 -4.84786 -0.105041 0
M  V30 1536 N 147.81 0.181792 -1.56548 0
M  V30 1537 C 148.74 1.22765 -1.98623 0
M  V30 1538 C 149.721 1.46747 -0.860189 0
M  V30 1539 O 150.906 1.58259 -1.12551 0
M  V30 1540 C 148.036 2.56894 -2.33715 0
M  V30 1541 C 146.99 2.475 -3.49182 0
M  V30 1542 C 146.316 3.86023 -3.69986 0
M  V30 1543 C 147.616 1.98866 -4.82959 0
M  V30 1544 H 149.31 0.877942 -2.86239 0
M  V30 1545 H 146.856 0.42088 -1.37712 0
M  V30 1546 H 148.809 3.30253 -2.61746 0
M  V30 1547 H 147.533 2.93632 -1.42997 0
M  V30 1548 H 146.192 1.76596 -3.21262 0
M  V30 1549 H 145.84 4.20136 -2.76576 0
M  V30 1550 H 145.54 3.80609 -4.47672 0
M  V30 1551 H 147.064 4.60984 -4.00407 0
M  V30 1552 H 148.478 2.61992 -5.09934 0
M  V30 1553 H 146.875 2.04424 -5.64208 0
M  V30 1554 H 147.945 0.942465 -4.75653 0
M  V30 1555 N 149.288 1.51039 0.449983 0
M  V30 1556 C 150.218 1.74379 1.55288 0
M  V30 1557 C 151.199 0.593236 1.5942 0
M  V30 1558 O 152.384 0.834625 1.7535 0
M  V30 1559 C 149.514 1.85728 2.93466 0
M  V30 1560 C 148.468 3.01078 3.04197 0
M  V30 1561 C 147.794 2.97595 4.44231 0
M  V30 1562 C 149.094 4.41254 2.7945 0
M  V30 1563 H 150.788 2.66725 1.36008 0
M  V30 1564 H 148.334 1.2835 0.652864 0
M  V30 1565 H 150.287 2.0064 3.70569 0
M  V30 1566 H 149.011 0.900207 3.13949 0
M  V30 1567 H 147.67 2.85851 2.29531 0
M  V30 1568 H 147.318 1.99691 4.61663 0
M  V30 1569 H 147.018 3.75046 4.52343 0
M  V30 1570 H 148.542 3.14583 5.23326 0
M  V30 1571 H 149.956 4.56897 3.46292 0
M  V30 1572 H 148.353 5.20315 2.98985 0
M  V30 1573 H 149.423 4.52164 1.75144 0
M  V30 1574 N 150.766 -0.704594 1.40972 0
M  V30 1575 C 151.713 -1.81862 1.42109 0
M  V30 1576 C 152.683 -1.63781 0.276593 0
M  V30 1577 O 153.868 -1.84759 0.4763 0
M  V30 1578 C 151.008 -3.19669 1.30022 0
M  V30 1579 C 150.121 -3.49246 2.54267 0
M  V30 1580 C 149.256 -4.76618 2.3454 0
M  V30 1581 C 148.295 -4.99133 3.54306 0
M  V30 1582 N 147.432 -6.17726 3.33706 0
M  V30 1583 H 152.272 -1.80226 2.37324 0
M  V30 1584 H 149.809 -0.880238 1.17857 0
M  V30 1585 H 151.767 -3.99263 1.21018 0
M  V30 1586 H 150.397 -3.20506 0.384192 0
M  V30 1587 H 149.449 -2.64125 2.73756 0
M  V30 1588 H 150.761 -3.61788 3.43381 0
M  V30 1589 H 149.915 -5.64249 2.22952 0
M  V30 1590 H 148.654 -4.66305 1.42867 0
M  V30 1591 H 147.659 -4.09953 3.66359 0
M  V30 1592 H 148.884 -5.11311 4.4692 0
M  V30 1593 H 146.83 -6.08642 2.44725 0
M  V30 1594 H 146.747 -6.30995 4.16391 0
M  V30 1595 H 148.015 -7.08115 3.25873 0
M  V30 1596 N 152.244 -1.26651 -0.937939 0
M  V30 1597 C 153.521 -1.0313 -1.66204 0
M  V30 1598 C 153.901 0.437256 -2.06522 0
M  V30 1599 O 153.249 1.41831 -1.79154 0
M  V30 1600 C 153.459 -1.98314 -2.87181 0
M  V30 1601 C 154.807 -2.27107 -3.58758 0
M  V30 1602 O 155.831 -1.96205 -2.97291 0
M  V30 1603 O 154.69 -2.79736 -4.69479 0
M  V30 1604 H 151.784 -0.392384 -0.727986 0
M  V30 1605 H 154.33 -1.37874 -0.989382 0
M  V30 1606 H 153.102 -2.97399 -2.54302 0
M  V30 1607 H 152.725 -1.64068 -3.6217 0
M  V30 1608 N 153.722 1.14298 -1.08507 0
M  V30 1609 C 154.652 2.21542 -0.737646 0
M  V30 1610 C 155.633 1.67773 0.280377 0
M  V30 1611 O 156.818 1.93616 0.150521 0
M  V30 1612 C 153.948 3.46988 -0.147259 0
M  V30 1613 C 152.902 4.13789 -1.09374 0
M  V30 1614 C 152.228 5.33449 -0.365524 0
M  V30 1615 C 153.528 4.62208 -2.4323 0
M  V30 1616 H 155.222 2.5086 -1.6343 0
M  V30 1617 H 152.768 1.20576 -0.787243 0
M  V30 1618 H 154.721 4.21262 0.107808 0
M  V30 1619 H 153.445 3.17037 0.784538 0
M  V30 1620 H 152.104 3.4147 -1.33393 0
M  V30 1621 H 151.752 4.99759 0.57011 0
M  V30 1622 H 151.452 5.79088 -0.996512 0
M  V30 1623 H 152.976 6.10485 -0.118534 0
M  V30 1624 H 154.39 5.27952 -2.23472 0
M  V30 1625 H 152.787 5.18553 -3.02031 0
M  V30 1626 H 153.857 3.77224 -3.04681 0
M  V30 1627 N 155.201 0.870884 1.31352 0
M  V30 1628 C 156.133 0.28455 2.27427 0
M  V30 1629 C 157.146 -0.552927 1.53123 0
M  V30 1630 O 158.335 -0.374771 1.74521 0
M  V30 1631 C 155.435 -0.615164 3.3327 0
M  V30 1632 C 154.608 0.190079 4.36987 0
M  V30 1633 C 153.667 -0.637917 5.22319 0
M  V30 1634 O 152.693 -0.065626 5.69162 0
M  V30 1635 N 153.895 -1.94973 5.46778 0
M  V30 1636 H 156.66 1.11017 2.7838 0
M  V30 1637 H 154.221 0.732458 1.44384 0
M  V30 1638 H 156.213 -1.1748 3.87273 0
M  V30 1639 H 154.783 -1.34146 2.82354 0
M  V30 1640 H 154.003 0.931165 3.83044 0
M  V30 1641 H 155.291 0.742579 5.03352 0
M  V30 1642 H 154.689 -2.4378 5.10478 0
M  V30 1643 H 153.246 -2.45713 6.03712 0
M  V30 1644 N 156.679 -1.44442 0.630414 0
M  V30 1645 C 158.09 -1.85434 0.217063 0
M  V30 1646 C 158.441 -1.52748 -1.23136 0
M  V30 1647 O 157.566 -0.965205 -1.93682 0
M  V30 1648 C 158.161 -3.36581 0.387168 0
M  V30 1649 C 156.72 -3.76389 0.0283297 0
M  V30 1650 C 155.867 -2.68296 0.700889 0
M  V30 1651 H 158.818 -1.34919 0.83562 0
M  V30 1652 H 158.839 -3.78657 -0.374086 0
M  V30 1653 H 158.351 -3.60339 1.44144 0
M  V30 1654 H 156.452 -3.58246 -1.02423 0
M  V30 1655 H 156.565 -4.77095 0.437892 0
M  V30 1656 H 154.929 -2.54335 0.136267 0
M  V30 1657 H 155.712 -2.94887 1.75774 0
M  V30 1658 N 158.157 -0.370918 -1.53173 0
M  V30 1659 C 159.067 0.480823 -2.2962 0
M  V30 1660 C 160.083 1.08789 -1.35798 0
M  V30 1661 O 161.259 1.09768 -1.68858 0
M  V30 1662 C 158.324 1.60227 -3.07454 0
M  V30 1663 C 157.385 1.0222 -4.16953 0
M  V30 1664 C 156.618 2.0902 -4.91066 0
M  V30 1665 O 156.841 3.30222 -4.65091 0
M  V30 1666 O 155.775 1.71778 -5.76867 0
M  V30 1667 H 159.601 -0.141421 -3.03371 0
M  V30 1668 H 157.186 -0.135146 -1.48787 0
M  V30 1669 H 159.068 2.25417 -3.56041 0
M  V30 1670 H 157.743 2.20982 -2.36535 0
M  V30 1671 H 156.65 0.334064 -3.72605 0
M  V30 1672 H 157.983 0.459131 -4.90054 0
M  V30 1673 N 159.635 1.57281 -0.100228 0
M  V30 1674 C 160.912 1.86014 0.604812 0
M  V30 1675 C 161.292 0.998025 1.86018 0
M  V30 1676 O 160.64 0.0718184 2.28387 0
M  V30 1677 C 160.85 3.36784 0.915278 0
M  V30 1678 C 162.198 4.04957 1.27651 0
M  V30 1679 O 163.222 3.41695 1.00613 0
M  V30 1680 O 162.081 5.16593 1.7831 0
M  V30 1681 H 159.175 0.76942 0.303185 0
M  V30 1682 H 161.721 1.69176 -0.133313 0
M  V30 1683 H 160.493 3.91292 0.0248896 0
M  V30 1684 H 160.116 3.58987 1.70921 0
M  V30 1685 N 161.113 -0.173488 1.56642 0
M  V30 1686 C 162.338 -0.910149 1.86363 0
M  V30 1687 C 162.763 -1.75132 0.686318 0
M  V30 1688 O 162.121 -1.77595 -0.364643 0
M  V30 1689 C 162.169 -1.76447 3.14482 0
M  V30 1690 O 161.273 -2.86584 2.96553 0
M  V30 1691 H 160.614 -0.255086 0.613047 0
M  V30 1692 H 163.144 -0.172283 2.03873 0
M  V30 1693 H 163.154 -2.16483 3.45831 0
M  V30 1694 H 161.829 -1.14658 3.99783 0
M  V30 1695 H 160.406 -2.50146 2.76553 0
M  V30 1696 N 162.591 -1.51276 -0.441967 0
M  V30 1697 C 163.839 -1.63392 -1.18943 0
M  V30 1698 C 164.16 -0.350159 -1.9183 0
M  V30 1699 O 163.43 0.633784 -1.85364 0
M  V30 1700 H 162.01 -0.602164 -0.442049 0
M  V30 1701 H 164.672 -1.88186 -0.507165 0
M  V30 1702 H 163.768 -2.45934 -1.92154 0
M  V30 1703 N 164.069 0.697108 -1.41344 0
M  V30 1704 C 165.294 1.49096 -1.44171 0
M  V30 1705 C 165.719 1.88038 -0.0481568 0
M  V30 1706 O 165.077 1.54525 0.948243 0
M  V30 1707 C 165.125 2.73088 -2.3549 0
M  V30 1708 O 164.229 3.70514 -1.81088 0
M  V30 1709 H 163.57 0.448801 -0.489361 0
M  V30 1710 H 166.1 0.856992 -1.85787 0
M  V30 1711 H 166.11 3.21413 -2.51312 0
M  V30 1712 H 164.785 2.44081 -3.36745 0
M  V30 1713 H 163.362 3.29441 -1.74708 0
M  V30 1714 N 165.547 1.27147 0.931209 0
M  V30 1715 C 166.777 1.15914 1.71019 0
M  V30 1716 C 167.185 -0.287112 1.87009 0
M  V30 1717 O 166.528 -1.20761 1.38429 0
M  V30 1718 C 166.59 1.76647 3.13107 0
M  V30 1719 C 166.254 3.25807 3.20467 0
M  V30 1720 C 167.251 4.22489 3.02983 0
M  V30 1721 C 164.936 3.66452 3.43538 0
M  V30 1722 C 166.93 5.57794 3.08454 0
M  V30 1723 C 164.617 5.01888 3.48643 0
M  V30 1724 C 165.615 5.97369 3.31119 0
M  V30 1725 O 165.303 7.30337 3.35952 0
M  V30 1726 H 165.035 0.404062 0.54195 0
M  V30 1727 H 167.589 1.68457 1.17521 0
M  V30 1728 H 165.819 1.18578 3.68071 0
M  V30 1729 H 167.508 1.60179 3.72958 0
M  V30 1730 H 168.274 3.92425 2.85004 0
M  V30 1731 H 164.153 2.92611 3.5623 0
M  V30 1732 H 167.697 6.32298 2.94694 0
M  V30 1733 H 163.594 5.31609 3.66145 0
M  V30 1734 H 164.362 7.38739 3.5243 0
M  V30 1735 N 167.025 -1.13721 1.09112 0
M  V30 1736 C 167.973 -2.21103 0.722219 0
M  V30 1737 C 168.967 -1.67147 -0.275374 0
M  V30 1738 O 170.173 -1.79477 -0.137176 0
M  V30 1739 H 166.548 -0.720445 0.215553 0
M  V30 1740 H 168.519 -2.49483 1.63709 0
M  V30 1741 C 167.268 -3.47352 0.15543 0
M  V30 1742 H 166.591 -3.89206 0.914246 0
M  V30 1743 H 168.031 -4.2395 -0.0647967 0
M  V30 1744 C 166.49 -3.1814 -1.10852 0
M  V30 1745 O 167.02 -3.36604 -2.19227 0
M  V30 1746 N 165.226 -2.72045 -1.02176 0
M  V30 1747 H 164.773 -2.57221 -0.139764 0
M  V30 1748 H 164.731 -2.52875 -1.8682 0
M  V30 1749 N 168.503 -0.877838 -1.30888 0
M  V30 1750 C 169.75 -0.492696 -1.96415 0
M  V30 1751 C 170.078 0.956671 -1.69346 0
M  V30 1752 O 169.333 1.68993 -0.986913 0
M  V30 1753 C 169.632 -0.705748 -3.50363 0
M  V30 1754 C 169.298 -2.1291 -3.97467 0
M  V30 1755 C 167.96 -2.51834 -4.1004 0
M  V30 1756 C 170.312 -3.05702 -4.22132 0
M  V30 1757 C 167.64 -3.82775 -4.44635 0
M  V30 1758 C 169.992 -4.36166 -4.58194 0
M  V30 1759 C 168.656 -4.74993 -4.68975 0
M  V30 1760 H 167.926 -0.18029 -0.718733 0
M  V30 1761 H 170.573 -1.11233 -1.55883 0
M  V30 1762 H 168.878 -0.00303058 -3.918 0
M  V30 1763 H 170.575 -0.387456 -3.99124 0
M  V30 1764 H 167.165 -1.81694 -3.88182 0
M  V30 1765 H 171.349 -2.76853 -4.11906 0
M  V30 1766 H 166.605 -4.12609 -4.51181 0
M  V30 1767 H 170.779 -5.08111 -4.76231 0
M  V30 1768 H 168.406 -5.76495 -4.95537 0
M  V30 1769 N 169.982 1.44106 -0.638065 0
M  V30 1770 C 171.398 1.56672 -0.304286 0
M  V30 1771 C 171.598 1.6244 1.19228 0
M  V30 1772 O 170.654 1.57121 1.9766 0
M  V30 1773 C 171.967 2.83503 -1.00231 0
M  V30 1774 C 173.515 2.97226 -0.981116 0
M  V30 1775 C 173.99 4.26868 -1.65974 0
M  V30 1776 N 175.481 4.33698 -1.62666 0
M  V30 1777 C 176.216 5.32745 -2.12063 0
M  V30 1778 N 175.712 6.38157 -2.6968 0
M  V30 1779 N 177.505 5.24299 -2.02651 0
M  V30 1780 H 169.656 1.38605 -1.60942 0
M  V30 1781 H 171.919 0.664661 -0.675965 0
M  V30 1782 H 171.625 2.85251 -2.0573 0
M  V30 1783 H 171.499 3.73251 -0.54439 0
M  V30 1784 H 173.886 2.95027 0.0654188 0
M  V30 1785 H 173.967 2.08808 -1.47759 0
M  V30 1786 H 173.611 4.29826 -2.70576 0
M  V30 1787 H 173.541 5.14156 -1.13804 0
M  V30 1788 H 176.032 3.58138 -1.20606 0
M  V30 1789 H 176.345 7.10029 -3.05087 0
M  V30 1790 H 174.69 6.38823 -2.73734 0
M  V30 1791 H 177.881 4.4086 -1.57353 0
M  V30 1792 H 178.054 6.01334 -2.41457 0
M  V30 1793 N 171.46 0.379036 1.52974 0
M  V30 1794 C 172.707 -0.206421 2.01445 0
M  V30 1795 C 173.035 -1.47668 1.26587 0
M  V30 1796 O 172.29 -1.92514 0.351675 0
M  V30 1797 C 172.589 -0.53096 3.53434 0
M  V30 1798 C 172.255 0.646546 4.46241 0
M  V30 1799 C 170.917 0.969604 4.7133 0
M  V30 1800 C 173.269 1.43479 5.01062 0
M  V30 1801 C 170.597 2.08263 5.48492 0
M  V30 1802 C 172.949 2.53834 5.7944 0
M  V30 1803 C 171.613 2.86659 6.02812 0
M  V30 1804 H 170.883 -0.0755349 0.73714 0
M  V30 1805 H 173.53 0.514271 1.84465 0
M  V30 1806 H 171.835 -1.33285 3.68432 0
M  V30 1807 H 173.532 -0.996417 3.88423 0
M  V30 1808 H 170.122 0.384734 4.2687 0
M  V30 1809 H 174.306 1.19844 4.81613 0
M  V30 1810 H 169.562 2.34078 5.64816 0
M  V30 1811 H 173.736 3.15319 6.20924 0
M  V30 1812 H 171.363 3.73026 6.62387 0
M  V30 1813 N 172.938 -1.57226 0.108567 0
M  V30 1814 C 173.848 -2.18292 -0.859401 0
M  V30 1815 C 174.864 -1.15612 -1.30038 0
M  V30 1816 O 176.04 -1.48039 -1.36552 0
M  V30 1817 C 173.105 -2.762 -2.09558 0
M  V30 1818 C 172.166 -3.93881 -1.70752 0
M  V30 1819 C 171.399 -4.49018 -2.88477 0
M  V30 1820 O 171.622 -4.03068 -4.036 0
M  V30 1821 O 170.556 -5.39852 -2.66164 0
M  V30 1822 H 174.382 -3.01441 -0.369769 0
M  V30 1823 H 171.967 -1.48945 -0.1165 0
M  V30 1824 H 173.849 -3.13156 -2.81978 0
M  V30 1825 H 172.524 -1.96089 -2.57548 0
M  V30 1826 H 171.431 -3.61713 -0.954714 0
M  V30 1827 H 172.764 -4.75396 -1.27513 0
M  V30 1828 N 174.416 0.165178 -1.56732 0
M  V30 1829 C 175.665 0.879143 -1.81532 0
M  V30 1830 C 175.978 1.83144 -0.686842 0
M  V30 1831 O 177.184 2.58823 -0.819944 0
M  V30 1832 C 175.64 1.61388 -3.21686 0
M  V30 1833 C 175.248 0.704904 -4.4242 0
M  V30 1834 C 176.992 2.3157 -3.55774 0
M  V30 1835 C 174.899 1.44022 -5.73595 0
M  V30 1836 H 173.829 0.332033 -0.676957 0
M  V30 1837 H 176.48 0.132008 -1.83025 0
M  V30 1838 H 174.862 2.40599 -3.14529 0
M  V30 1839 H 176.036 -0.0506815 -4.60772 0
M  V30 1840 H 174.351 0.112419 -4.16248 0
M  V30 1841 H 176.948 2.8719 -4.51028 0
M  V30 1842 H 177.291 3.07201 -2.8095 0
M  V30 1843 H 177.824 1.59297 -3.64513 0
M  V30 1844 H 174.563 0.72612 -6.51466 0
M  V30 1845 H 174.083 2.16898 -5.5921 0
M  V30 1846 H 175.762 1.98606 -6.15764 0
M  V30 1847 N 175.894 1.51508 0.433938 0
M  V30 1848 C 177.119 1.68443 1.21003 0
M  V30 1849 C 177.544 0.382636 1.84167 0
M  V30 1850 O 176.902 -0.65755 1.68956 0
M  V30 1851 C 176.95 2.80405 2.26727 0
M  V30 1852 O 176.054 2.44245 3.32292 0
M  V30 1853 H 175.395 0.561536 0.354363 0
M  V30 1854 H 177.925 1.9809 0.512024 0
M  V30 1855 H 177.935 3.0459 2.71457 0
M  V30 1856 H 176.61 3.74867 1.80132 0
M  V30 1857 H 175.187 2.30644 2.93015 0
M  V30 1858 N 177.372 -0.689602 1.41712 0
M  V30 1859 C 178.282 -1.83314 1.46401 0
M  V30 1860 C 179.298 -1.7036 0.35405 0
M  V30 1861 O 180.474 -1.92171 0.602692 0
M  V30 1862 C 177.539 -3.19344 1.34982 0
M  V30 1863 C 176.6 -3.44363 2.56344 0
M  V30 1864 C 175.833 -4.73904 2.45461 0
M  V30 1865 O 176.056 -5.508 1.48241 0
M  V30 1866 O 174.99 -4.99839 3.35328 0
M  V30 1867 H 178.816 -1.82314 2.42889 0
M  V30 1868 H 176.401 -0.843438 1.23315 0
M  V30 1869 H 178.283 -4.00547 1.3092 0
M  V30 1870 H 176.958 -3.21014 0.41612 0
M  V30 1871 H 175.865 -2.63067 2.65982 0
M  V30 1872 H 177.198 -3.47512 3.48563 0
M  V30 1873 N 178.85 -1.27639 -0.924453 0
M  V30 1874 C 180.096 -1.14336 -1.67497 0
M  V30 1875 C 180.429 0.309465 -1.91718 0
M  V30 1876 O 179.704 1.22608 -1.50989 0
M  V30 1877 C 179.987 -1.93096 -3.0395 0
M  V30 1878 C 179.84 -3.46381 -2.8695 0
M  V30 1879 C 181.159 -1.73798 -4.0433 0
M  V30 1880 H 178.278 -0.416728 -0.607871 0
M  V30 1881 H 180.92 -1.56832 -1.07256 0
M  V30 1882 H 179.07 -1.56982 -3.55372 0
M  V30 1883 H 180.742 -3.92343 -2.42621 0
M  V30 1884 H 178.985 -3.72557 -2.22225 0
M  V30 1885 H 179.656 -3.96735 -3.83804 0
M  V30 1886 H 182.132 -2.05293 -3.61931 0
M  V30 1887 H 181.008 -2.31294 -4.97789 0
M  V30 1888 H 181.269 -0.686725 -4.36734 0
M  V30 1889 N 180.328 1.1314 -1.09713 0
M  V30 1890 C 181.276 2.20717 -0.733934 0
M  V30 1891 C 182.27 1.6729 0.266506 0
M  V30 1892 O 183.476 1.79547 0.127656 0
M  V30 1893 H 179.851 0.719292 -0.21937 0
M  V30 1894 H 181.822 2.48611 -1.6503 0
M  V30 1895 C 180.571 3.47265 -0.173849 0
M  V30 1896 H 179.894 3.88716 -0.934873 0
M  V30 1897 H 181.334 4.23979 0.0423126 0
M  V30 1898 C 179.793 3.18724 1.09164 0
M  V30 1899 O 180.323 3.37762 2.17439 0
M  V30 1900 N 178.529 2.72583 1.00732 0
M  V30 1901 H 178.076 2.57291 0.126121 0
M  V30 1902 H 178.034 2.53862 1.85476 0
M  V30 1903 N 181.806 0.884767 1.30421 0
M  V30 1904 C 183.222 0.57874 1.48737 0
M  V30 1905 C 183.422 -0.883567 1.81095 0
M  V30 1906 O 182.478 -1.6648 1.89844 0
M  V30 1907 C 183.791 1.49171 2.61091 0
M  V30 1908 C 185.339 1.49532 2.74971 0
M  V30 1909 C 185.814 2.39421 3.90438 0
M  V30 1910 N 187.305 2.37383 3.97748 0
M  V30 1911 C 188.04 3.03647 4.86401 0
M  V30 1912 N 187.536 3.79136 5.79852 0
M  V30 1913 N 189.329 2.9288 4.79768 0
M  V30 1914 H 181.48 1.83075 1.0769 0
M  V30 1915 H 183.743 0.783637 0.533495 0
M  V30 1916 H 183.449 2.53291 2.44001 0
M  V30 1917 H 183.323 1.20113 3.57565 0
M  V30 1918 H 185.71 0.46163 2.91467 0
M  V30 1919 H 185.791 1.8262 1.79119 0
M  V30 1920 H 185.435 3.42874 3.74699 0
M  V30 1921 H 185.365 2.03649 4.85628 0
M  V30 1922 H 187.856 1.82525 3.30897 0
M  V30 1923 H 188.169 4.26789 6.4426 0
M  V30 1924 H 186.514 3.83243 5.79784 0
M  V30 1925 H 189.705 2.33433 4.05742 0
M  V30 1926 H 189.878 3.448 5.4865 0
M  V30 1927 N 183.284 -1.43765 0.645699 0
M  V30 1928 C 184.53 -2.02731 0.164844 0
M  V30 1929 C 184.885 -1.49983 -1.2051 0
M  V30 1930 O 184.178 -0.680208 -1.79119 0
M  V30 1931 C 184.372 -3.57238 0.107679 0
M  V30 1932 C 184.201 -4.24977 1.47054 0
M  V30 1933 C 182.971 -4.61356 2.06103 0
M  V30 1934 C 185.169 -4.54476 2.40741 0
M  V30 1935 N 183.151 -5.14132 3.35473 0
M  V30 1936 C 184.522 -5.08489 3.54737 0
M  V30 1937 C 186.577 -4.36438 2.39637 0
M  V30 1938 C 185.28 -5.46364 4.67845 0
M  V30 1939 C 187.306 -4.7537 3.5182 0
M  V30 1940 C 186.668 -5.2951 4.64541 0
M  V30 1941 H 182.767 -0.774976 0.104578 0
M  V30 1942 H 185.351 -1.75051 0.852367 0
M  V30 1943 H 183.522 -3.84498 -0.549165 0
M  V30 1944 H 185.254 -4.0288 -0.383351 0
M  V30 1945 H 182.009 -4.46151 1.58892 0
M  V30 1946 H 182.433 -5.4498 4.01654 0
M  V30 1947 H 187.075 -3.93861 1.53731 0
M  V30 1948 H 184.793 -5.87888 5.54448 0
M  V30 1949 H 188.379 -4.63115 3.52159 0
M  V30 1950 H 187.259 -5.59077 5.49911 0
M  V30 1951 N 184.763 -0.387143 -1.52771 0
M  V30 1952 C 185.988 0.198407 -2.06449 0
M  V30 1953 C 186.413 1.39918 -1.25716 0
M  V30 1954 O 185.771 1.79099 -0.281657 0
M  V30 1955 C 185.819 0.548893 -3.56398 0
M  V30 1956 O 184.923 1.64315 -3.78252 0
M  V30 1957 H 184.264 0.0237731 -0.663574 0
M  V30 1958 H 186.794 -0.553989 -1.96957 0
M  V30 1959 H 186.804 0.813812 -3.99801 0
M  V30 1960 H 185.479 -0.329005 -4.14597 0
M  V30 1961 H 184.056 1.37211 -3.46738 0
M  V30 1962 N 186.241 1.57166 -0.116904 0
M  V30 1963 C 187.518 1.86645 0.585049 0
M  V30 1964 C 187.898 1.0177 1.84949 0
M  V30 1965 O 187.246 0.0960379 2.28298 0
M  V30 1966 C 187.456 3.37736 0.879507 0
M  V30 1967 C 188.804 4.06289 1.23348 0
M  V30 1968 O 189.828 3.42743 0.969836 0
M  V30 1969 O 188.687 5.18455 1.7282 0
M  V30 1970 H 185.781 0.772593 0.295007 0
M  V30 1971 H 188.327 1.69025 -0.151249 0
M  V30 1972 H 187.099 3.91296 -0.0166136 0
M  V30 1973 H 186.722 3.6078 1.67103 0
M  V30 1974 N 187.719 -0.156864 1.56817 0
M  V30 1975 C 188.965 -0.872416 1.83076 0
M  V30 1976 C 189.298 -1.81261 0.697001 0
M  V30 1977 O 188.573 -1.92171 -0.30008 0
M  V30 1978 C 188.856 -1.65551 3.19789 0
M  V30 1979 C 188.709 -0.737467 4.43713 0
M  V30 1980 C 190.028 -2.62012 3.53606 0
M  V30 1981 H 187.147 -0.315715 0.665953 0
M  V30 1982 H 189.789 -0.138004 1.89498 0
M  V30 1983 H 187.939 -2.28159 3.14445 0
M  V30 1984 H 189.611 -0.123143 4.61136 0
M  V30 1985 H 187.854 -0.0464067 4.33775 0
M  V30 1986 H 188.525 -1.32122 5.35955 0
M  V30 1987 H 191.001 -2.09525 3.59497 0
M  V30 1988 H 189.877 -3.13861 4.50314 0
M  V30 1989 H 190.138 -3.42902 2.79053 0
M  V30 1990 N 189.197 -1.51736 -0.425897 0
M  V30 1991 C 190.144 -1.73875 -1.51776 0
M  V30 1992 C 191.114 -0.580702 -1.55618 0
M  V30 1993 O 192.299 -0.81641 -1.72451 0
M  V30 1994 C 189.439 -1.88012 -2.89388 0
M  V30 1995 C 188.552 -3.15606 -2.94986 0
M  V30 1996 C 187.687 -3.20271 -4.23793 0
M  V30 1997 C 186.726 -4.42134 -4.23302 0
M  V30 1998 N 185.863 -4.44284 -5.43651 0
M  V30 1999 H 190.703 -2.67071 -1.32201 0
M  V30 2000 H 188.24 -1.32351 -0.642008 0
M  V30 2001 H 190.198 -1.9419 -3.69251 0
M  V30 2002 H 188.828 -0.98213 -3.07496 0
M  V30 2003 H 187.88 -3.18681 -2.07717 0
M  V30 2004 H 189.192 -4.05486 -2.90486 0
M  V30 2005 H 188.346 -3.25428 -5.12036 0
M  V30 2006 H 187.085 -2.28299 -4.30965 0
M  V30 2007 H 186.09 -4.3714 -3.3345 0
M  V30 2008 H 187.315 -5.35382 -4.17783 0
M  V30 2009 H 185.261 -3.55188 -5.51523 0
M  V30 2010 H 185.178 -5.27988 -5.41078 0
M  V30 2011 H 186.446 -4.53649 -6.33895 0
M  V30 2012 N 190.675 0.682077 -1.42076 0
M  V30 2013 C 191.923 1.4393 -1.41876 0
M  V30 2014 C 192.244 1.94971 -0.0335599 0
M  V30 2015 O 191.514 1.72591 0.926773 0
M  V30 2016 H 190.094 0.534085 -0.522267 0
M  V30 2017 H 192.756 0.806427 -1.77434 0
M  V30 2018 H 191.852 2.29588 -2.11414 0
M  V30 2019 N 192.153 1.28127 0.917671 0
M  V30 2020 C 193.381 1.17892 1.70026 0
M  V30 2021 C 193.796 -0.262958 1.8696 0
M  V30 2022 O 193.153 -1.17811 1.3938 0
M  V30 2023 C 193.204 1.86872 3.09453 0
M  V30 2024 O 192.925 3.25428 2.93306 0
M  V30 2025 C 194.426 1.8289 4.03815 0
M  V30 2026 H 191.646 0.40942 0.531617 0
M  V30 2027 H 194.19 1.69181 1.14883 0
M  V30 2028 H 192.345 1.39464 3.61426 0
M  V30 2029 H 192.759 3.59918 3.81523 0
M  V30 2030 H 194.233 2.35751 4.99125 0
M  V30 2031 H 194.71 0.800412 4.31845 0
M  V30 2032 H 195.316 2.29959 3.57769 0
M  V30 2033 N 193.631 -1.12557 1.10312 0
M  V30 2034 C 194.561 -2.20341 0.772798 0
M  V30 2035 C 195.542 -1.68198 -0.25365 0
M  V30 2036 O 196.727 -1.93831 -0.119699 0
M  V30 2037 C 193.857 -3.46709 0.202443 0
M  V30 2038 C 192.811 -4.11996 1.15943 0
M  V30 2039 C 192.137 -5.328 0.450345 0
M  V30 2040 C 193.437 -4.5828 2.50552 0
M  V30 2041 H 195.131 -2.48229 1.674 0
M  V30 2042 H 192.677 -1.19308 0.806326 0
M  V30 2043 H 194.63 -4.2138 -0.0407752 0
M  V30 2044 H 193.354 -3.18245 -0.734001 0
M  V30 2045 H 192.013 -3.39305 1.38808 0
M  V30 2046 H 191.661 -5.00602 -0.490531 0
M  V30 2047 H 191.361 -5.7743 1.08851 0
M  V30 2048 H 192.885 -6.10219 0.215642 0
M  V30 2049 H 194.299 -5.2433 2.31843 0
M  V30 2050 H 192.696 -5.13683 3.10242 0
M  V30 2051 H 193.766 -3.72329 3.10643 0
M  V30 2052 N 195.109 -0.891671 -1.2995 0
M  V30 2053 C 196.355 -0.514261 -1.96171 0
M  V30 2054 C 196.688 0.935506 -1.70182 0
M  V30 2055 O 195.963 1.66204 -1.01028 0
M  V30 2056 C 196.246 -0.797719 -3.51153 0
M  V30 2057 C 196.099 -2.2986 -3.86632 0
M  V30 2058 C 197.418 -0.278749 -4.39216 0
M  V30 2059 H 194.537 -0.188314 -0.712535 0
M  V30 2060 H 197.179 -1.11689 -1.53706 0
M  V30 2061 H 195.329 -0.284826 -3.87455 0
M  V30 2062 H 197.001 -2.88042 -3.60319 0
M  V30 2063 H 195.244 -2.76257 -3.34462 0
M  V30 2064 H 195.915 -2.44753 -4.94773 0
M  V30 2065 H 198.391 -0.717825 -4.09862 0
M  V30 2066 H 197.267 -0.506353 -5.46559 0
M  V30 2067 H 197.528 0.820266 -4.34424 0
M  V30 2068 N 196.587 1.43421 -0.653314 0
M  V30 2069 C 197.815 2.06163 -0.174491 0
M  V30 2070 C 198.23 1.48969 1.1599 0
M  V30 2071 O 197.587 0.621042 1.71608 0
M  V30 2072 C 197.638 3.61417 -0.0774865 0
M  V30 2073 O 197.359 4.16485 -1.35912 0
M  V30 2074 C 198.86 4.41235 0.427402 0
M  V30 2075 H 196.08 0.664946 -0.0899353 0
M  V30 2076 H 198.624 1.83924 -0.893988 0
M  V30 2077 H 196.779 3.82841 0.59257 0
M  V30 2078 H 197.193 5.10153 -1.21839 0
M  V30 2079 H 198.667 5.5021 0.44423 0
M  V30 2080 H 199.144 4.14268 1.45873 0
M  V30 2081 H 199.75 4.2478 -0.210167 0
M  V30 2082 N 198.065 0.39524 1.52563 0
M  V30 2083 C 199.311 -0.185318 2.01952 0
M  V30 2084 C 199.644 -1.45964 1.28095 0
M  V30 2085 O 198.919 -1.90689 0.38315 0
M  V30 2086 C 199.202 -0.447193 3.57312 0
M  V30 2087 C 199.055 0.842828 4.41833 0
M  V30 2088 C 200.374 -1.23529 4.22408 0
M  V30 2089 H 197.493 -0.0658788 0.73405 0
M  V30 2090 H 200.135 0.525975 1.82575 0
M  V30 2091 H 198.285 -1.05312 3.73954 0
M  V30 2092 H 199.957 1.4795 4.36931 0
M  V30 2093 H 198.2 1.45686 4.08605 0
M  V30 2094 H 198.871 0.614165 5.48573 0
M  V30 2095 H 201.347 -0.722445 4.0978 0
M  V30 2096 H 200.223 -1.38727 5.3108 0
M  V30 2097 H 200.484 -2.25213 3.80436 0
M  V30 2098 N 199.544 -1.57102 0.125237 0
M  V30 2099 C 200.772 -1.99761 -0.538797 0
M  V30 2100 C 201.187 -1.00503 -1.59827 0
M  V30 2101 O 200.544 0.00119474 -1.825 0
M  V30 2102 C 200.595 -3.42408 -1.15927 0
M  V30 2103 O 200.316 -4.37869 -0.142143 0
M  V30 2104 C 201.817 -4.00232 -1.90602 0
M  V30 2105 H 199.037 -0.655772 -0.14214 0
M  V30 2106 H 201.581 -2.03383 0.213413 0
M  V30 2107 H 199.736 -3.39706 -1.86223 0
M  V30 2108 H 200.15 -5.21128 -0.593775 0
M  V30 2109 H 201.624 -5.02105 -2.29335 0
M  V30 2110 H 202.101 -3.39721 -2.78363 0
M  V30 2111 H 202.707 -4.06499 -1.25055 0
M  V30 2112 N 201.022 0.148545 -1.56898 0
M  V30 2113 C 201.932 1.20293 -2.01412 0
M  V30 2114 C 202.948 1.47107 -0.929273 0
M  V30 2115 O 204.124 1.58807 -1.23863 0
M  V30 2116 C 201.189 2.51682 -2.38447 0
M  V30 2117 C 200.25 2.32529 -3.60872 0
M  V30 2118 C 199.483 3.57653 -3.96132 0
M  V30 2119 O 199.706 4.63771 -3.32073 0
M  V30 2120 O 198.64 3.50408 -4.89385 0
M  V30 2121 H 202.466 0.855025 -2.91416 0
M  V30 2122 H 200.051 0.357151 -1.45068 0
M  V30 2123 H 201.933 3.29147 -2.63135 0
M  V30 2124 H 200.608 2.86006 -1.51599 0
M  V30 2125 H 199.515 1.53019 -3.41373 0
M  V30 2126 H 200.848 2.03121 -4.48333 0
M  V30 2127 N 202.5 1.5196 0.417844 0
M  V30 2128 C 203.41 1.77554 1.53336 0
M  V30 2129 C 204.426 0.660655 1.6097 0
M  V30 2130 O 205.602 0.945099 1.77848 0
M  V30 2131 C 202.667 1.91291 2.89152 0
M  V30 2132 C 201.728 3.15183 2.91475 0
M  V30 2133 C 200.961 3.28256 4.20813 0
M  V30 2134 O 201.184 2.46798 5.14244 0
M  V30 2135 O 200.118 4.21356 4.29817 0
M  V30 2136 H 203.944 2.7222 1.34647 0
M  V30 2137 H 201.529 1.36698 0.602828 0
M  V30 2138 H 203.411 2.02199 3.69721 0
M  V30 2139 H 202.086 0.998129 3.07927 0
M  V30 2140 H 200.993 3.09739 2.09791 0
M  V30 2141 H 202.326 4.06414 2.77648 0
M  V30 2142 N 203.978 -0.674533 1.42435 0
M  V30 2143 C 205.389 -1.25514 1.38214 0
M  V30 2144 C 205.74 -1.96055 0.0755464 0
M  V30 2145 O 204.865 -2.00028 -0.8257 0
M  V30 2146 C 205.46 -2.28269 2.50357 0
M  V30 2147 C 204.019 -2.81856 2.49467 0
M  V30 2148 C 203.166 -1.56182 2.29134 0
M  V30 2149 H 206.117 -0.467902 1.51646 0
M  V30 2150 H 206.138 -3.10009 2.20624 0
M  V30 2151 H 205.65 -1.769 3.45439 0
M  V30 2152 H 203.751 -3.37346 1.58204 0
M  V30 2153 H 203.864 -3.30854 3.46515 0
M  V30 2154 H 202.228 -1.82761 1.774 0
M  V30 2155 H 203.011 -1.06778 3.26272 0
M  V30 2156 N 205.456 -1.28612 -0.910864 0
M  V30 2157 C 206.872 -1.06381 -1.18976 0
M  V30 2158 C 207.072 0.191998 -2.00583 0
M  V30 2159 O 206.128 0.892869 -2.36187 0
M  V30 2160 C 207.441 -2.31295 -1.92154 0
M  V30 2161 C 208.989 -2.36503 -2.05025 0
M  V30 2162 C 209.464 -3.61191 -2.81612 0
M  V30 2163 N 210.955 -3.61847 -2.89172 0
M  V30 2164 C 211.69 -4.55004 -3.4894 0
M  V30 2165 N 211.186 -5.58482 -4.09963 0
M  V30 2166 N 212.979 -4.42594 -3.46506 0
M  V30 2167 H 205.13 -2.09221 -0.366094 0
M  V30 2168 H 207.393 -0.921003 -0.224629 0
M  V30 2169 H 207.099 -3.228 -1.39618 0
M  V30 2170 H 206.973 -2.37934 -2.9269 0
M  V30 2171 H 209.36 -1.45494 -2.5674 0
M  V30 2172 H 209.441 -2.33857 -1.03657 0
M  V30 2173 H 209.085 -4.52545 -2.30576 0
M  V30 2174 H 209.015 -3.61092 -3.83302 0
M  V30 2175 H 211.506 -2.87022 -2.45819 0
M  V30 2176 H 211.819 -6.25704 -4.53557 0
M  V30 2177 H 210.164 -5.62305 -4.08459 0
M  V30 2178 H 213.355 -3.60953 -2.98045 0
M  V30 2179 H 213.528 -5.15381 -3.92793 0
M  V30 2180 N 206.934 1.1197 -1.10907 0
M  V30 2181 C 208.18 1.8386 -0.855773 0
M  V30 2182 C 208.513 1.84134 0.617103 0
M  V30 2183 O 207.788 1.29041 1.45529 0
M  V30 2184 C 208.071 3.31305 -1.411 0
M  V30 2185 C 207.924 3.39456 -2.9511 0
M  V30 2186 C 209.243 4.2721 -1.05736 0
M  V30 2187 H 206.362 0.667545 -0.312334 0
M  V30 2188 H 209.004 1.31331 -1.37303 0
M  V30 2189 H 207.154 3.76169 -0.97105 0
M  V30 2190 H 208.826 3.03191 -3.47668 0
M  V30 2191 H 207.069 2.79849 -3.31462 0
M  V30 2192 H 207.74 4.43209 -3.29044 0
M  V30 2193 H 210.216 3.90497 -1.43706 0
M  V30 2194 H 209.092 5.28775 -1.47269 0
M  V30 2195 H 209.353 4.42088 0.0325958 0
M  V30 2196 N 208.412 0.89855 1.29475 0
M  V30 2197 C 209.823 0.572537 1.77705 0
M  V30 2198 C 210.174 -0.911778 1.73727 0
M  V30 2199 O 209.299 -1.71288 1.32247 0
M  V30 2200 C 209.894 1.03252 3.22683 0
M  V30 2201 C 208.453 0.757687 3.68695 0
M  V30 2202 C 207.6 1.20787 2.49612 0
M  V30 2203 H 210.551 1.08139 1.16153 0
M  V30 2204 H 210.572 0.367307 3.78723 0
M  V30 2205 H 210.084 2.11285 3.25546 0
M  V30 2206 H 208.185 -0.310079 3.71308 0
M  V30 2207 H 208.298 1.35476 4.59547 0
M  V30 2208 H 206.662 0.626888 2.46865 0
M  V30 2209 H 207.445 2.29622 2.55203 0
M  V30 2210 N 209.89 -1.43072 0.660911 0
M  V30 2211 C 211.118 -2.06067 0.185422 0
M  V30 2212 C 211.533 -1.49582 -1.15198 0
M  V30 2213 O 210.89 -0.630134 -1.71276 0
M  V30 2214 C 210.941 -3.61371 0.0966523 0
M  V30 2215 O 210.662 -4.15758 1.38119 0
M  V30 2216 C 212.163 -4.41455 -0.403996 0
M  V30 2217 H 209.383 -0.664459 0.0934604 0
M  V30 2218 H 211.927 -1.83447 0.90373 0
M  V30 2219 H 210.082 -3.8315 -0.572259 0
M  V30 2220 H 210.496 -5.09499 1.24542 0
M  V30 2221 H 211.97 -5.50437 -0.415045 0
M  V30 2222 H 212.447 -4.15036 -1.43674 0
M  V30 2223 H 213.053 -4.24663 0.232691 0
M  V30 2224 N 211.368 -0.403325 -1.52352 0
M  V30 2225 C 212.617 0.175668 -2.00934 0
M  V30 2226 C 212.93 1.46718 -1.29356 0
M  V30 2227 O 214.136 2.12708 -1.68724 0
M  V30 2228 C 212.592 0.363612 -3.58058 0
M  V30 2229 C 212.2 -0.915472 -4.38547 0
M  V30 2230 C 213.944 0.89821 -4.14888 0
M  V30 2231 C 211.851 -0.695035 -5.87302 0
M  V30 2232 H 210.781 0.0694234 -0.750797 0
M  V30 2233 H 213.432 -0.527879 -1.75743 0
M  V30 2234 H 211.814 1.12935 -3.79555 0
M  V30 2235 H 212.988 -1.68691 -4.28812 0
M  V30 2236 H 211.303 -1.37606 -3.93006 0
M  V30 2237 H 213.9 1.07907 -5.23699 0
M  V30 2238 H 214.243 1.87126 -3.71873 0
M  V30 2239 H 214.776 0.191681 -3.97338 0
M  V30 2240 H 211.515 -1.63948 -6.34666 0
M  V30 2241 H 211.035 0.0372116 -5.99788 0
M  V30 2242 H 212.714 -0.33497 -6.46132 0
M  V30 2243 N 212.846 1.57033 -0.133567 0
M  V30 2244 C 213.809 2.14897 0.796995 0
M  V30 2245 C 214.809 1.0874 1.18458 0
M  V30 2246 O 215.999 1.34446 1.1077 0
M  V30 2247 C 213.131 2.70112 2.07973 0
M  V30 2248 H 214.324 2.98457 0.293873 0
M  V30 2249 H 211.877 1.55871 0.115787 0
M  V30 2250 H 212.612 1.9018 2.62682 0
M  V30 2251 H 212.397 3.47764 1.81115 0
M  V30 2252 H 213.887 3.14738 2.74462 0
M  V30 2253 N 214.325 -0.140222 1.56975 0
M  V30 2254 C 215.55 -0.870414 1.88251 0
M  V30 2255 C 215.975 -1.73637 0.723312 0
M  V30 2256 O 215.333 -1.78329 -0.32689 0
M  V30 2257 C 215.381 -1.69737 3.18154 0
M  V30 2258 O 214.485 -2.80229 3.02565 0
M  V30 2259 H 213.826 -0.242025 0.61832 0
M  V30 2260 H 216.356 -0.128999 2.04193 0
M  V30 2261 H 216.366 -2.09099 3.50345 0
M  V30 2262 H 215.041 -1.06152 4.02125 0
M  V30 2263 H 213.618 -2.44224 2.81796 0
M  V30 2264 N 215.803 -1.52179 -0.40978 0
M  V30 2265 C 217.214 -1.58377 -0.988615 0
M  V30 2266 C 217.565 -0.423879 -1.91566 0
M  V30 2267 O 216.69 0.455844 -2.11544 0
M  V30 2268 C 217.285 -2.87044 -1.79976 0
M  V30 2269 C 215.844 -2.95722 -2.32863 0
M  V30 2270 C 214.991 -2.53309 -1.12828 0
M  V30 2271 H 217.942 -1.57558 -0.190039 0
M  V30 2272 H 217.963 -2.7236 -2.65707 0
M  V30 2273 H 217.475 -3.71444 -1.12478 0
M  V30 2274 H 215.576 -2.15814 -3.03735 0
M  V30 2275 H 215.689 -3.99951 -2.63773 0
M  V30 2276 H 214.053 -2.07142 -1.48204 0
M  V30 2277 H 214.836 -3.40082 -0.46897 0
M  V30 2278 N 217.281 0.66697 -1.42791 0
M  V30 2279 C 218.527 1.4291 -1.43891 0
M  V30 2280 C 218.86 1.94114 -0.0578972 0
M  V30 2281 O 218.135 1.71414 0.91911 0
M  V30 2282 C 218.418 2.62049 -2.46987 0
M  V30 2283 C 218.271 2.16426 -3.94309 0
M  V30 2284 C 219.59 3.64266 -2.46978 0
M  V30 2285 H 216.709 0.518306 -0.523954 0
M  V30 2286 H 219.351 0.757321 -1.74255 0
M  V30 2287 H 217.501 3.19361 -2.21225 0
M  V30 2288 H 219.173 1.64221 -4.31079 0
M  V30 2289 H 217.416 1.47925 -4.078 0
M  V30 2290 H 218.087 3.02038 -4.62036 0
M  V30 2291 H 220.563 3.16686 -2.69906 0
M  V30 2292 H 219.439 4.45196 -3.21079 0
M  V30 2293 H 219.7 4.15927 -1.49857 0
M  V30 2294 N 218.759 1.29093 0.90403 0
M  V30 2295 C 219.669 1.15727 2.0407 0
M  V30 2296 C 220.685 0.0815308 1.73809 0
M  V30 2297 O 221.861 0.292749 1.99261 0
M  V30 2298 C 218.926 0.830424 3.36608 0
M  V30 2299 C 217.987 1.98955 3.80415 0
M  V30 2300 C 217.22 1.6782 5.06628 0
M  V30 2301 O 217.443 0.597105 5.67266 0
M  V30 2302 O 216.377 2.52486 5.46383 0
M  V30 2303 H 220.203 2.11171 2.18267 0
M  V30 2304 H 217.788 1.08504 1.027 0
M  V30 2305 H 219.67 0.662521 4.16159 0
M  V30 2306 H 218.345 -0.0942678 3.23563 0
M  V30 2307 H 217.252 2.21267 3.01648 0
M  V30 2308 H 218.585 2.89529 3.98037 0
M  V30 2309 N 220.237 -1.11381 1.11499 0
M  V30 2310 C 221.167 -2.19509 0.796125 0
M  V30 2311 C 222.148 -1.68458 -0.235796 0
M  V30 2312 O 223.333 -1.93947 -0.0991344 0
M  V30 2313 C 220.463 -3.46475 0.239205 0
M  V30 2314 C 219.417 -4.10744 1.20307 0
M  V30 2315 C 218.743 -5.32293 0.50683 0
M  V30 2316 C 220.043 -4.55597 2.55399 0
M  V30 2317 H 221.737 -2.46439 1.70024 0
M  V30 2318 H 219.283 -1.18446 0.818935 0
M  V30 2319 H 221.236 -4.214 0.00392006 0
M  V30 2320 H 219.96 -3.19006 -0.700206 0
M  V30 2321 H 218.619 -3.37813 1.42399 0
M  V30 2322 H 218.267 -5.01095 -0.437408 0
M  V30 2323 H 217.967 -5.76243 1.1497 0
M  V30 2324 H 219.491 -6.09956 0.280351 0
M  V30 2325 H 220.905 -5.21841 2.37391 0
M  V30 2326 H 219.302 -5.10363 3.15673 0
M  V30 2327 H 220.372 -3.69013 3.14575 0
M  V30 2328 N 221.715 -0.905404 -1.28997 0
M  V30 2329 C 222.645 -0.404212 -2.29975 0
M  V30 2330 C 223.626 0.523784 -1.61835 0
M  V30 2331 O 224.811 0.433298 -1.89304 0
M  V30 2332 C 221.941 0.364042 -3.45387 0
M  V30 2333 C 220.895 -0.474048 -4.25367 0
M  V30 2334 C 220.221 0.422045 -5.33032 0
M  V30 2335 C 221.521 -1.72696 -4.92923 0
M  V30 2336 H 223.215 -1.24807 -2.72146 0
M  V30 2337 H 220.761 -0.601585 -1.30832 0
M  V30 2338 H 222.714 0.725447 -4.15109 0
M  V30 2339 H 221.438 1.24174 -3.02074 0
M  V30 2340 H 220.097 -0.81786 -3.57361 0
M  V30 2341 H 219.745 1.29804 -4.85963 0
M  V30 2342 H 219.445 -0.135057 -5.87445 0
M  V30 2343 H 220.969 0.779517 -6.05604 0
M  V30 2344 H 222.383 -1.43495 -5.55051 0
M  V30 2345 H 220.78 -2.22582 -5.57295 0
M  V30 2346 H 221.85 -2.45964 -4.17887 0
M  V30 2347 N 223.193 1.4272 -0.668489 0
M  V30 2348 C 224.103 2.34596 0.0139753 0
M  V30 2349 C 225.119 1.5474 0.795703 0
M  V30 2350 O 226.295 1.87334 0.739466 0
M  V30 2351 C 223.36 3.33202 0.957982 0
M  V30 2352 C 222.421 4.28957 0.17149 0
M  V30 2353 C 221.654 5.22853 1.07053 0
M  V30 2354 O 221.877 5.21531 2.31001 0
M  V30 2355 O 220.811 5.9952 0.534727 0
M  V30 2356 H 224.637 2.9448 -0.742661 0
M  V30 2357 H 222.222 1.43117 -0.428705 0
M  V30 2358 H 224.104 3.93796 1.50008 0
M  V30 2359 H 222.779 2.758 1.69458 0
M  V30 2360 H 221.686 3.71796 -0.414558 0
M  V30 2361 H 223.019 4.89383 -0.52586 0
M  V30 2362 N 224.671 0.411399 1.52136 0
M  V30 2363 C 225.919 -0.163322 2.01439 0
M  V30 2364 C 226.24 -1.45453 1.29879 0
M  V30 2365 O 225.51 -1.91225 0.4254 0
M  V30 2366 H 224.09 -0.0633447 0.744309 0
M  V30 2367 H 226.752 0.548161 1.87033 0
M  V30 2368 H 225.848 -0.357817 3.10042 0
M  V30 2369 N 226.149 -1.5696 0.141893 0
M  V30 2370 C 227.377 -2.00322 -0.517579 0
M  V30 2371 C 227.792 -1.02193 -1.58752 0
M  V30 2372 O 227.149 -0.0181619 -1.82491 0
M  V30 2373 C 227.2 -3.43618 -1.12289 0
M  V30 2374 O 226.921 -4.37995 -0.0956929 0
M  V30 2375 C 228.422 -4.02231 -1.86347 0
M  V30 2376 H 225.642 -0.657243 -0.135177 0
M  V30 2377 H 228.186 -2.03146 0.234973 0
M  V30 2378 H 226.341 -3.41662 -1.82609 0
M  V30 2379 H 226.755 -5.21729 -0.538469 0
M  V30 2380 H 228.229 -5.04509 -2.23997 0
M  V30 2381 H 228.706 -3.42655 -2.74744 0
M  V30 2382 H 229.312 -4.07802 -1.20737 0
M  V30 2383 N 227.627 0.131896 -1.57047 0
M  V30 2384 C 228.537 1.1815 -2.02676 0
M  V30 2385 C 229.553 1.46113 -0.944824 0
M  V30 2386 O 230.729 1.57485 -1.25541 0
M  V30 2387 C 227.794 2.49139 -2.41103 0
M  V30 2388 C 226.855 2.28688 -3.63318 0
M  V30 2389 C 226.088 3.53431 -3.99903 0
M  V30 2390 O 226.311 4.60223 -3.36973 0
M  V30 2391 O 225.245 3.45198 -4.93074 0
M  V30 2392 H 229.071 0.824069 -2.92306 0
M  V30 2393 H 226.656 0.341745 -1.45439 0
M  V30 2394 H 228.538 3.26338 -2.66611 0
M  V30 2395 H 227.213 2.84382 -1.54624 0
M  V30 2396 H 226.12 1.4939 -3.42977 0
M  V30 2397 H 227.453 1.98355 -4.50462 0
M  V30 2398 N 229.106 1.52395 0.401703 0
M  V30 2399 C 230.352 1.67065 1.14966 0
M  V30 2400 C 230.685 0.403052 1.89971 0
M  V30 2401 O 229.96 -0.598774 1.85054 0
M  V30 2402 C 230.243 2.8975 2.13815 0
M  V30 2403 C 230.096 4.26578 1.42658 0
M  V30 2404 C 231.415 3.07965 3.14397 0
M  V30 2405 H 228.534 0.607968 0.416587 0
M  V30 2406 H 231.176 1.84965 0.434511 0
M  V30 2407 H 229.326 2.74619 2.74803 0
M  V30 2408 H 230.998 4.53451 0.847329 0
M  V30 2409 H 229.241 4.27639 0.72849 0
M  V30 2410 H 229.912 5.08483 2.14823 0
M  V30 2411 H 232.388 3.22043 2.63491 0
M  V30 2412 H 231.264 3.95308 3.80819 0
M  V30 2413 H 231.525 2.21611 3.82545 0
M  V30 2414 N 230.584 -0.659388 1.43143 0
M  V30 2415 C 231.861 -1.41627 1.34912 0
M  V30 2416 C 232.241 -2.11099 -0.00607785 0
M  V30 2417 O 231.589 -2.04353 -1.02236 0
M  V30 2418 C 231.799 -2.40604 2.52805 0
M  V30 2419 C 233.147 -3.04789 2.95616 0
M  V30 2420 O 234.171 -2.50932 2.52807 0
M  V30 2421 O 233.03 -4.02421 3.69756 0
M  V30 2422 H 230.124 -0.63246 0.532844 0
M  V30 2423 H 232.67 -0.686814 1.5518 0
M  V30 2424 H 231.442 -1.88174 3.43083 0
M  V30 2425 H 231.065 -3.21009 2.34604 0
M  V30 2426 N 232.062 -1.29571 -0.897171 0
M  V30 2427 C 233.309 -1.17689 -1.6479 0
M  V30 2428 C 233.637 0.27107 -1.92602 0
M  V30 2429 O 232.892 1.21193 -1.53658 0
M  V30 2430 C 233.191 -1.9382 -3.00281 0
M  V30 2431 C 232.857 -3.43522 -2.92068 0
M  V30 2432 C 231.519 -3.84348 -2.89535 0
M  V30 2433 C 233.871 -4.38906 -2.81089 0
M  V30 2434 C 231.199 -5.18869 -2.73846 0
M  V30 2435 C 233.551 -5.73521 -2.66939 0
M  V30 2436 C 232.215 -6.13601 -2.62774 0
M  V30 2437 H 231.485 -0.430654 -0.603008 0
M  V30 2438 H 234.132 -1.60536 -1.04404 0
M  V30 2439 H 232.437 -1.4357 -3.64547 0
M  V30 2440 H 234.134 -1.82028 -3.57305 0
M  V30 2441 H 230.724 -3.11072 -2.94842 0
M  V30 2442 H 234.908 -4.08315 -2.82121 0
M  V30 2443 H 230.164 -5.4903 -2.69027 0
M  V30 2444 H 234.338 -6.47078 -2.57416 0
M  V30 2445 H 231.965 -7.17786 -2.50375 0
M  V30 2446 N 233.54 1.10788 -1.12088 0
M  V30 2447 C 234.488 2.19111 -0.780587 0
M  V30 2448 C 235.482 1.67818 0.230961 0
M  V30 2449 O 236.688 1.79777 0.0895427 0
M  V30 2450 H 233.063 0.714477 -0.234578 0
M  V30 2451 H 235.034 2.45055 -1.70266 0
M  V30 2452 C 233.783 3.46818 -0.24747 0
M  V30 2453 H 233.106 3.86646 -1.01712 0
M  V30 2454 H 234.546 4.23973 -0.0476291 0
M  V30 2455 C 233.005 3.20968 1.02378 0
M  V30 2456 O 233.535 3.42298 2.10226 0
M  V30 2457 N 231.741 2.74658 0.949271 0
M  V30 2458 H 231.288 2.57501 0.0715173 0
M  V30 2459 H 231.246 2.57739 1.80049 0
M  V30 2460 N 235.018 0.912232 1.28515 0
M  V30 2461 C 236.258 0.551677 1.96814 0
M  V30 2462 C 236.622 -0.887825 1.7024 0
M  V30 2463 O 237.823 -1.35588 2.32098 0
M  V30 2464 C 236.094 0.850555 3.47132 0
M  V30 2465 S 237.653 0.59619 4.34731 0
M  V30 2466 H 234.471 0.204191 0.681049 0
M  V30 2467 H 237.073 1.17736 1.56072 0
M  V30 2468 H 235.777 1.8962 3.63968 0
M  V30 2469 H 235.308 0.213471 3.9282 0
M  V30 2470 H 237.323 -0.553154 4.93107 0
M  V30 2471 N 236.496 -1.42363 0.676048 0
M  V30 2472 C 237.721 -2.06377 0.205705 0
M  V30 2473 C 238.146 -1.50463 -1.12883 0
M  V30 2474 O 237.504 -0.623619 -1.70237 0
M  V30 2475 C 237.552 -3.60277 0.152655 0
M  V30 2476 O 236.656 -4.02935 -0.87845 0
M  V30 2477 H 235.997 -0.655588 0.105359 0
M  V30 2478 H 238.527 -1.82475 0.925412 0
M  V30 2479 H 238.537 -4.07993 -0.0230675 0
M  V30 2480 H 237.212 -4.00346 1.12675 0
M  V30 2481 H 235.789 -3.66764 -0.673668 0
M  V30 2482 N 237.974 -0.419461 -1.51915 0
M  V30 2483 C 239.202 0.152136 -2.0634 0
M  V30 2484 C 239.617 1.37988 -1.28859 0
M  V30 2485 O 238.974 1.79243 -0.343232 0
M  V30 2486 C 239.025 0.492266 -3.58133 0
M  V30 2487 O 238.746 -0.686736 -4.32684 0
M  V30 2488 C 240.247 1.11648 -4.2901 0
M  V30 2489 H 237.467 0.0158325 -0.670813 0
M  V30 2490 H 240.011 -0.593394 -1.95702 0
M  V30 2491 H 238.166 1.18769 -3.68745 0
M  V30 2492 H 238.58 -0.400341 -5.2297 0
M  V30 2493 H 240.054 1.3046 -5.36362 0
M  V30 2494 H 240.531 2.09251 -3.86148 0
M  V30 2495 H 241.137 0.460958 -4.22795 0
M  V30 2496 N 239.452 1.56882 -0.150215 0
M  V30 2497 C 240.863 1.82995 0.370076 0
M  V30 2498 C 241.214 1.06907 1.64515 0
M  V30 2499 O 240.339 0.315369 2.1409 0
M  V30 2500 C 240.934 3.31942 0.678208 0
M  V30 2501 C 239.493 3.58625 1.14301 0
M  V30 2502 C 238.64 2.76792 0.167778 0
M  V30 2503 H 241.591 1.54209 -0.374858 0
M  V30 2504 H 241.612 3.48272 1.53254 0
M  V30 2505 H 241.124 3.87294 -0.249991 0
M  V30 2506 H 239.225 3.08664 2.08704 0
M  V30 2507 H 239.338 4.67073 1.06676 0
M  V30 2508 H 237.702 2.45972 0.661037 0
M  V30 2509 H 238.485 3.34916 -0.754069 0
M  V30 2510 N 240.93 -0.123565 1.57115 0
M  V30 2511 C 242.16 -0.845233 1.88519 0
M  V30 2512 C 242.568 -1.74168 0.739064 0
M  V30 2513 O 241.911 -1.81244 -0.299355 0
M  V30 2514 C 241.973 -1.73452 3.14888 0
M  V30 2515 C 241.637 -1.01285 4.45635 0
M  V30 2516 C 242.634 -0.355774 5.18681 0
M  V30 2517 C 240.319 -0.99538 4.92339 0
M  V30 2518 C 242.313 0.309114 6.3665 0
M  V30 2519 C 240 -0.32669 6.10226 0
M  V30 2520 C 240.998 0.324406 6.82229 0
M  V30 2521 O 240.686 0.982437 7.97874 0
M  V30 2522 H 240.418 -0.248534 0.628655 0
M  V30 2523 H 242.972 -0.113907 2.05084 0
M  V30 2524 H 241.202 -2.50737 2.94394 0
M  V30 2525 H 242.891 -2.33021 3.32349 0
M  V30 2526 H 243.657 -0.360918 4.83655 0
M  V30 2527 H 239.536 -1.49159 4.36202 0
M  V30 2528 H 243.08 0.8179 6.92789 0
M  V30 2529 H 238.977 -0.319294 6.4471 0
M  V30 2530 H 239.745 0.886454 8.13686 0
M  V30 2531 N 242.408 -1.52605 -0.393616 0
M  V30 2532 C 243.654 -1.67672 -1.14079 0
M  V30 2533 C 243.987 -0.413121 -1.89755 0
M  V30 2534 O 243.262 0.588952 -1.85369 0
M  V30 2535 C 243.545 -2.9088 -2.12276 0
M  V30 2536 C 243.398 -4.27329 -1.40394 0
M  V30 2537 C 244.717 -3.09628 -3.12759 0
M  V30 2538 H 241.836 -0.610168 -0.413356 0
M  V30 2539 H 244.478 -1.85193 -0.424696 0
M  V30 2540 H 242.628 -2.76073 -2.73342 0
M  V30 2541 H 244.3 -4.53894 -0.82327 0
M  V30 2542 H 242.543 -4.2802 -0.705801 0
M  V30 2543 H 243.214 -5.09615 -2.12123 0
M  V30 2544 H 245.69 -3.23436 -2.61779 0
M  V30 2545 H 244.566 -3.97322 -3.78717 0
M  V30 2546 H 244.827 -2.23637 -3.81365 0
M  V30 2547 N 243.887 0.651787 -1.4349 0
M  V30 2548 C 245.127 1.42345 -1.46688 0
M  V30 2549 C 245.491 1.91793 -0.0891023 0
M  V30 2550 O 246.692 2.688 0.00423594 0
M  V30 2551 C 244.963 2.57221 -2.48137 0
M  V30 2552 S 246.522 3.45725 -2.70221 0
M  V30 2553 H 243.34 0.485878 -0.51908 0
M  V30 2554 H 245.942 0.756578 -1.80267 0
M  V30 2555 H 244.646 2.1917 -3.46976 0
M  V30 2556 H 244.177 3.28757 -2.16061 0
M  V30 2557 H 246.192 4.53996 -2.00255 0
M  V30 2558 N 245.365 1.30045 0.890287 0
M  V30 2559 C 246.295 1.18541 2.01172 0
M  V30 2560 C 247.276 0.0773356 1.69924 0
M  V30 2561 O 248.461 0.25845 1.92473 0
M  V30 2562 C 245.591 0.870941 3.36202 0
M  V30 2563 C 244.545 1.93637 3.81692 0
M  V30 2564 C 243.871 1.475 5.13953 0
M  V30 2565 C 245.171 3.34666 4.00994 0
M  V30 2566 H 246.865 2.12359 2.11054 0
M  V30 2567 H 244.411 1.02238 1.01407 0
M  V30 2568 H 246.364 0.777141 4.14172 0
M  V30 2569 H 245.088 -0.102926 3.26438 0
M  V30 2570 H 243.747 2.01972 3.05946 0
M  V30 2571 H 243.395 0.489551 5.00612 0
M  V30 2572 H 243.095 2.1876 5.4536 0
M  V30 2573 H 244.619 1.39489 5.94454 0
M  V30 2574 H 246.033 3.2912 4.69417 0
M  V30 2575 H 244.43 4.03966 4.43769 0
M  V30 2576 H 245.5 3.76949 3.05021 0
M  V30 2577 N 246.843 -1.10192 1.12674 0
M  V30 2578 C 247.775 -2.16418 0.754701 0
M  V30 2579 C 248.788 -1.61309 -0.21986 0
M  V30 2580 O 249.977 -1.785 -0.000826841 0
M  V30 2581 C 247.077 -3.38762 0.096698 0
M  V30 2582 C 246.25 -4.23307 1.10136 0
M  V30 2583 C 245.309 -5.24092 0.470513 0
M  V30 2584 O 244.335 -5.57906 1.12824 0
M  V30 2585 N 245.537 -5.75491 -0.760948 0
M  V30 2586 H 248.302 -2.48943 1.66875 0
M  V30 2587 H 245.863 -1.25834 1.01869 0
M  V30 2588 H 247.855 -4.03291 -0.337384 0
M  V30 2589 H 246.425 -3.04192 -0.720153 0
M  V30 2590 H 245.645 -3.55036 1.71299 0
M  V30 2591 H 246.933 -4.76624 1.78064 0
M  V30 2592 H 246.331 -5.50222 -1.31424 0
M  V30 2593 H 244.888 -6.41792 -1.13781 0
M  V30 2594 N 248.321 -0.919034 -1.28029 0
M  V30 2595 C 249.231 -0.416756 -2.30869 0
M  V30 2596 C 250.247 0.498235 -1.66714 0
M  V30 2597 O 251.423 0.383144 -1.97722 0
M  V30 2598 C 248.488 0.330274 -3.45123 0
M  V30 2599 C 247.549 -0.618578 -4.2482 0
M  V30 2600 C 246.782 0.0928959 -5.33619 0
M  V30 2601 O 247.005 1.31375 -5.55065 0
M  V30 2602 O 245.939 -0.574499 -5.99152 0
M  V30 2603 H 249.765 -1.27043 -2.75851 0
M  V30 2604 H 247.35 -0.684052 -1.3282 0
M  V30 2605 H 249.232 0.751972 -4.14636 0
M  V30 2606 H 247.907 1.1597 -3.02213 0
M  V30 2607 H 246.814 -1.08978 -3.57875 0
M  V30 2608 H 248.147 -1.41497 -4.71423 0
M  V30 2609 N 249.799 1.42003 -0.683588 0
M  V30 2610 C 250.731 2.29183 0.0283068 0
M  V30 2611 C 251.744 1.4415 0.756611 0
M  V30 2612 O 252.933 1.67779 0.609306 0
M  V30 2613 C 250.033 3.21765 1.06398 0
M  V30 2614 C 249.206 4.35496 0.407723 0
M  V30 2615 C 248.265 5.08737 1.34437 0
M  V30 2616 O 247.291 5.62948 0.841318 0
M  V30 2617 N 248.493 5.15075 2.67728 0
M  V30 2618 H 251.258 2.9092 -0.720105 0
M  V30 2619 H 248.819 1.53025 -0.528682 0
M  V30 2620 H 250.811 3.6763 1.69204 0
M  V30 2621 H 249.381 2.61418 1.71404 0
M  V30 2622 H 248.601 3.92165 -0.400012 0
M  V30 2623 H 249.889 5.08776 -0.0490956 0
M  V30 2624 H 249.287 4.72457 3.11129 0
M  V30 2625 H 247.844 5.64556 3.2576 0
M  V30 2626 N 251.277 0.427512 1.51691 0
M  V30 2627 C 252.523 -0.142439 2.02299 0
M  V30 2628 C 252.856 -1.43214 1.31162 0
M  V30 2629 O 252.131 -1.89833 0.423511 0
M  V30 2630 C 252.414 -0.371301 3.58181 0
M  V30 2631 C 252.267 0.936358 4.39946 0
M  V30 2632 C 253.586 -1.14542 4.24933 0
M  V30 2633 H 250.705 -0.0502937 0.735282 0
M  V30 2634 H 253.347 0.564584 1.81418 0
M  V30 2635 H 251.497 -0.973559 3.76104 0
M  V30 2636 H 253.169 1.57184 4.33694 0
M  V30 2637 H 251.412 1.5432 4.05423 0
M  V30 2638 H 252.083 0.730388 5.47147 0
M  V30 2639 H 254.559 -0.635362 4.11221 0
M  V30 2640 H 253.435 -1.27431 5.33903 0
M  V30 2641 H 253.696 -2.17093 3.85127 0
M  V30 2642 N 252.755 -1.56801 0.158532 0
M  V30 2643 C 254.171 -1.5837 -0.197774 0
M  V30 2644 C 254.371 -1.17334 -1.63814 0
M  V30 2645 O 253.427 -0.878988 -2.36707 0
M  V30 2646 C 254.74 -3.00615 0.0714459 0
M  V30 2647 C 256.288 -3.12999 0.00864533 0
M  V30 2648 C 256.763 -4.57313 0.250685 0
M  V30 2649 N 258.254 -4.62777 0.198014 0
M  V30 2650 C 258.989 -5.72271 0.359642 0
M  V30 2651 N 258.485 -6.90371 0.579625 0
M  V30 2652 N 260.278 -5.61318 0.296438 0
M  V30 2653 H 252.429 -1.81765 1.09887 0
M  V30 2654 H 254.692 -0.841849 0.435884 0
M  V30 2655 H 254.398 -3.35068 1.06874 0
M  V30 2656 H 254.272 -3.71683 -0.642757 0
M  V30 2657 H 256.659 -2.7838 -0.979217 0
M  V30 2658 H 256.74 -2.44393 0.755359 0
M  V30 2659 H 256.384 -4.92639 1.2357 0
M  V30 2660 H 256.314 -5.24061 -0.516489 0
M  V30 2661 H 258.805 -3.77885 0.0331115 0
M  V30 2662 H 259.118 -7.69689 0.69275 0
M  V30 2663 H 257.463 -6.92264 0.616087 0
M  V30 2664 H 260.654 -4.67932 0.125258 0
M  V30 2665 H 260.827 -6.46599 0.425831 0
M  V30 2666 N 254.233 0.115231 -1.57178 0
M  V30 2667 C 255.163 1.1423 -2.03651 0
M  V30 2668 C 256.144 1.42967 -0.921655 0
M  V30 2669 O 257.329 1.53343 -1.19162 0
M  V30 2670 C 254.459 2.4675 -2.44401 0
M  V30 2671 C 253.413 2.32467 -3.59365 0
M  V30 2672 C 252.739 3.69984 -3.86026 0
M  V30 2673 C 254.039 1.78203 -4.90959 0
M  V30 2674 H 255.733 0.755749 -2.89705 0
M  V30 2675 H 253.279 0.362093 -1.39373 0
M  V30 2676 H 255.232 3.18854 -2.75517 0
M  V30 2677 H 253.956 2.87302 -1.55322 0
M  V30 2678 H 252.615 1.62811 -3.28463 0
M  V30 2679 H 252.263 4.08028 -2.94147 0
M  V30 2680 H 251.963 3.61279 -4.63412 0
M  V30 2681 H 253.487 4.43587 -4.19599 0
M  V30 2682 H 254.901 2.40128 -5.20587 0
M  V30 2683 H 253.298 1.8031 -5.72371 0
M  V30 2684 H 254.368 0.739876 -4.79222 0
M  V30 2685 N 255.711 1.52812 0.385517 0
M  V30 2686 C 256.643 1.74096 1.49074 0
M  V30 2687 C 257.656 0.621462 1.50472 0
M  V30 2688 O 258.845 0.897245 1.54311 0
M  V30 2689 C 255.945 1.78774 2.87911 0
M  V30 2690 C 255.118 3.08134 3.10439 0
M  V30 2691 C 254.177 3.04313 4.29278 0
M  V30 2692 O 253.203 3.78168 4.25415 0
M  V30 2693 N 254.405 2.23741 5.35649 0
M  V30 2694 H 257.17 2.69455 1.31202 0
M  V30 2695 H 254.731 1.51343 0.575065 0
M  V30 2696 H 256.723 1.73721 3.65518 0
M  V30 2697 H 255.293 0.907869 2.99126 0
M  V30 2698 H 254.513 3.26649 2.20667 0
M  V30 2699 H 255.801 3.93662 3.22347 0
M  V30 2700 H 255.199 1.63211 5.41645 0
M  V30 2701 H 253.756 2.24524 6.11909 0
M  V30 2702 N 257.189 -0.644168 1.43834 0
M  V30 2703 C 258.435 -1.40431 1.47141 0
M  V30 2704 C 258.79 -1.92153 0.0975577 0
M  V30 2705 O 258.083 -1.69924 -0.885232 0
M  V30 2706 C 258.277 -2.59615 2.45631 0
M  V30 2707 C 258.106 -2.1956 3.92458 0
M  V30 2708 C 256.876 -2.07456 4.60749 0
M  V30 2709 C 259.074 -1.79281 4.8204 0
M  V30 2710 N 257.056 -1.60827 5.92459 0
M  V30 2711 C 258.427 -1.43801 6.03093 0
M  V30 2712 C 260.482 -1.66545 4.6922 0
M  V30 2713 C 259.185 -0.968599 7.12749 0
M  V30 2714 C 261.211 -1.21008 5.78888 0
M  V30 2715 C 260.573 -0.864711 6.99072 0
M  V30 2716 H 256.672 -0.509182 0.593513 0
M  V30 2717 H 259.256 -0.740351 1.80075 0
M  V30 2718 H 257.427 -3.23658 2.1471 0
M  V30 2719 H 259.159 -3.26357 2.39318 0
M  V30 2720 H 255.914 -2.275 4.1538 0
M  V30 2721 H 256.338 -1.39848 6.62398 0
M  V30 2722 H 260.98 -1.91883 3.7675 0
M  V30 2723 H 258.698 -0.702715 8.05039 0
M  V30 2724 H 262.284 -1.11631 5.7099 0
M  V30 2725 H 261.164 -0.517736 7.82489 0
M  V30 2726 N 258.668 -1.30515 -0.883378 0
M  V30 2727 C 259.6 -1.12846 -1.99496 0
M  V30 2728 C 260.613 -0.0712571 -1.62644 0
M  V30 2729 O 261.802 -0.317432 -1.75655 0
M  V30 2730 C 258.902 -0.699123 -3.3161 0
M  V30 2731 C 258.075 -1.83842 -3.96889 0
M  V30 2732 C 257.134 -1.39737 -5.07307 0
M  V30 2733 O 256.16 -2.10485 -5.28852 0
M  V30 2734 N 257.362 -0.277279 -5.79837 0
M  V30 2735 H 260.127 -2.08585 -2.15203 0
M  V30 2736 H 257.688 -1.22672 -1.05656 0
M  V30 2737 H 259.68 -0.387044 -4.02845 0
M  V30 2738 H 258.25 0.166276 -3.12157 0
M  V30 2739 H 257.47 -2.31853 -3.18807 0
M  V30 2740 H 258.758 -2.60187 -4.37241 0
M  V30 2741 H 258.156 0.3122 -5.64838 0
M  V30 2742 H 256.713 -0.0246623 -6.51795 0
M  V30 2743 N 260.146 1.09593 -1.13257 0
M  V30 2744 C 261.394 1.81375 -0.891492 0
M  V30 2745 C 261.715 1.86049 0.584009 0
M  V30 2746 O 260.985 1.34481 1.42449 0
M  V30 2747 H 259.565 0.671708 -0.326828 0
M  V30 2748 H 262.227 1.3256 -1.42877 0
M  V30 2749 H 261.323 2.84612 -1.28071 0
M  V30 2750 N 261.624 0.925811 1.2754 0
M  V30 2751 C 262.556 0.380753 2.26015 0
M  V30 2752 C 263.569 -0.487485 1.5533 0
M  V30 2753 O 264.758 -0.300413 1.75954 0
M  V30 2754 C 261.858 -0.473259 3.35579 0
M  V30 2755 C 261.031 0.375249 4.35787 0
M  V30 2756 C 260.09 -0.415809 5.24555 0
M  V30 2757 O 259.116 0.175834 5.68928 0
M  V30 2758 N 260.318 -1.71607 5.54555 0
M  V30 2759 H 263.083 1.22725 2.73421 0
M  V30 2760 H 260.644 0.793037 1.41147 0
M  V30 2761 H 262.636 -1.00949 3.91907 0
M  V30 2762 H 261.206 -1.2205 2.87789 0
M  V30 2763 H 260.426 1.09279 3.7875 0
M  V30 2764 H 261.714 0.955399 4.99749 0
M  V30 2765 H 261.112 -2.2191 5.20358 0
M  V30 2766 H 259.669 -2.19887 6.1359 0
M  V30 2767 N 263.102 -1.41638 0.69111 0
M  V30 2768 C 264.379 -1.95036 0.148421 0
M  V30 2769 C 264.759 -1.63072 -1.34055 0
M  V30 2770 O 264.107 -0.93538 -2.08478 0
M  V30 2771 C 264.317 -3.46279 0.434951 0
M  V30 2772 C 265.665 -4.23069 0.360275 0
M  V30 2773 O 266.689 -3.54277 0.369613 0
M  V30 2774 O 265.548 -5.45583 0.316534 0
M  V30 2775 H 262.642 -0.826908 0.0123654 0
M  V30 2776 H 265.188 -1.5138 0.766963 0
M  V30 2777 H 263.96 -3.6281 1.46576 0
M  V30 2778 H 263.583 -3.97019 -0.214787 0
M  V30 2779 N 264.58 -0.43555 -1.51462 0
M  V30 2780 C 265.991 0.0279871 -1.86679 0
M  V30 2781 C 266.342 1.42104 -1.35281 0
M  V30 2782 O 265.467 2.04667 -0.702878 0
M  V30 2783 C 266.062 0.0575626 -3.38751 0
M  V30 2784 C 264.621 0.465507 -3.7351 0
M  V30 2785 C 263.768 -0.342996 -2.75171 0
M  V30 2786 H 266.719 -0.651473 -1.44712 0
M  V30 2787 H 266.74 0.867421 -3.70481 0
M  V30 2788 H 266.252 -0.956448 -3.7613 0
M  V30 2789 H 264.353 1.48519 -3.41721 0
M  V30 2790 H 264.466 0.191546 -4.78717 0
M  V30 2791 H 262.83 0.198442 -2.53926 0
M  V30 2792 H 263.613 -1.35585 -3.15391 0
M  V30 2793 N 266.058 1.56714 -0.166846 0
M  V30 2794 C 267.021 2.16539 0.751232 0
M  V30 2795 C 268.021 1.11228 1.16125 0
M  V30 2796 O 269.211 1.36765 1.07894 0
M  V30 2797 C 266.343 2.74462 2.02196 0
M  V30 2798 H 267.536 2.99013 0.230499 0
M  V30 2799 H 265.089 1.56081 0.0826982 0
M  V30 2800 H 265.824 1.95709 2.58589 0
M  V30 2801 H 265.609 3.51527 1.73698 0
M  V30 2802 H 267.099 3.20489 2.67725 0
M  V30 2803 N 267.536 -0.106894 1.57237 0
M  V30 2804 C 268.952 -0.46078 1.52804 0
M  V30 2805 C 269.152 -1.81184 0.881746 0
M  V30 2806 O 268.208 -2.48102 0.469224 0
M  V30 2807 C 269.521 -0.434127 2.9755 0
M  V30 2808 C 271.069 -0.516821 3.08704 0
M  V30 2809 C 271.544 -0.520436 4.55033 0
M  V30 2810 N 273.035 -0.58153 4.59535 0
M  V30 2811 C 273.77 -0.605973 5.70189 0
M  V30 2812 N 273.266 -0.587331 6.90306 0
M  V30 2813 N 275.059 -0.649895 5.5833 0
M  V30 2814 H 267.21 0.778203 1.9763 0
M  V30 2815 H 269.473 0.288403 0.903066 0
M  V30 2816 H 269.179 0.491197 3.48253 0
M  V30 2817 H 269.053 -1.25748 3.55622 0
M  V30 2818 H 271.44 -1.43256 2.57995 0
M  V30 2819 H 271.521 0.334449 2.53604 0
M  V30 2820 H 271.165 0.391313 5.0639 0
M  V30 2821 H 271.095 -1.38876 5.07958 0
M  V30 2822 H 273.586 -0.60161 3.73081 0
M  V30 2823 H 273.899 -0.60894 7.70397 0
M  V30 2824 H 272.244 -0.554564 6.92784 0
M  V30 2825 H 275.435 -0.661907 4.63397 0
M  V30 2826 H 275.608 -0.665476 6.44574 0
M  V30 2827 N 269.014 -1.53014 -0.377408 0
M  V30 2828 C 270.239 -1.72818 -1.14668 0
M  V30 2829 C 270.664 -0.450725 -1.8262 0
M  V30 2830 O 270.022 0.59439 -1.7128 0
M  V30 2831 C 270.07 -2.88627 -2.16164 0
M  V30 2832 O 269.174 -2.56409 -3.22998 0
M  V30 2833 H 268.515 -0.574301 -0.333278 0
M  V30 2834 H 271.045 -1.99853 -0.438152 0
M  V30 2835 H 271.055 -3.14455 -2.59966 0
M  V30 2836 H 269.73 -3.81294 -1.66095 0
M  V30 2837 H 268.307 -2.4136 -2.84253 0
M  V30 2838 N 270.492 0.636531 -1.44174 0
M  V30 2839 C 271.738 1.39826 -1.4689 0
M  V30 2840 C 272.071 1.93947 -0.0990585 0
M  V30 2841 O 271.346 1.73325 0.882544 0
M  V30 2842 C 271.629 2.56751 -2.5249 0
M  V30 2843 C 271.482 2.08014 -3.98811 0
M  V30 2844 C 272.801 3.58946 -2.54649 0
M  V30 2845 H 269.92 0.507075 -0.53483 0
M  V30 2846 H 272.562 0.720188 -1.75822 0
M  V30 2847 H 270.712 3.14597 -2.2795 0
M  V30 2848 H 272.384 1.5504 -4.34466 0
M  V30 2849 H 270.627 1.39242 -4.10846 0
M  V30 2850 H 271.298 2.92169 -4.68339 0
M  V30 2851 H 273.774 3.1089 -2.76563 0
M  V30 2852 H 272.65 4.38286 -3.3045 0
M  V30 2853 H 272.911 4.12655 -1.58646 0
M  V30 2854 N 271.97 1.30982 0.876444 0
M  V30 2855 C 273.198 1.23242 1.6619 0
M  V30 2856 C 273.613 -0.203345 1.87702 0
M  V30 2857 O 272.97 -1.13317 1.43057 0
M  V30 2858 C 273.021 1.96623 3.03351 0
M  V30 2859 O 272.742 3.34594 2.82804 0
M  V30 2860 C 274.243 1.95644 3.97792 0
M  V30 2861 H 271.463 0.426126 0.518322 0
M  V30 2862 H 274.007 1.7275 1.09442 0
M  V30 2863 H 272.162 1.50892 3.56806 0
M  V30 2864 H 272.576 3.71873 3.69879 0
M  V30 2865 H 274.05 2.51511 4.91372 0
M  V30 2866 H 274.527 0.937395 4.2908 0
M  V30 2867 H 275.133 2.41225 3.50272 0
M  V30 2868 N 273.449 -1.08991 1.13837 0
M  V30 2869 C 274.696 -1.81258 0.902882 0
M  V30 2870 C 275.024 -1.85936 -0.570803 0
M  V30 2871 O 274.279 -1.3267 -1.43865 0
M  V30 2872 C 274.578 -3.27042 1.44147 0
M  V30 2873 C 274.244 -3.4249 2.93276 0
M  V30 2874 C 272.906 -3.46414 3.33992 0
M  V30 2875 C 275.258 -3.4666 3.892 0
M  V30 2876 C 272.586 -3.52091 4.69307 0
M  V30 2877 C 274.938 -3.53872 5.24364 0
M  V30 2878 C 273.602 -3.56066 5.646 0
M  V30 2879 H 272.872 -0.663268 0.330388 0
M  V30 2880 H 275.519 -1.28368 1.42105 0
M  V30 2881 H 273.824 -3.82599 0.844097 0
M  V30 2882 H 275.521 -3.81499 1.23528 0
M  V30 2883 H 272.111 -3.40124 2.60794 0
M  V30 2884 H 276.295 -3.42865 3.58828 0
M  V30 2885 H 271.551 -3.52079 4.9985 0
M  V30 2886 H 275.725 -3.56043 5.98503 0
M  V30 2887 H 273.352 -3.60218 6.69438 0
M  V30 2888 N 274.927 -0.932562 -1.27047 0
M  V30 2889 C 275.875 -0.42603 -2.28665 0
M  V30 2890 C 276.869 0.49219 -1.62092 0
M  V30 2891 O 278.075 0.371355 -1.76128 0
M  V30 2892 H 274.45 -0.119213 -0.742491 0
M  V30 2893 H 276.421 -1.29579 -2.68797 0
M  V30 2894 C 275.17 0.301426 -3.46391 0
M  V30 2895 H 274.493 -0.39595 -3.97834 0
M  V30 2896 H 275.933 0.6202 -4.1944 0
M  V30 2897 C 274.392 1.51616 -3.00856 0
M  V30 2898 O 274.922 2.61476 -3.04948 0
M  V30 2899 N 273.128 1.36969 -2.56296 0
M  V30 2900 H 272.675 0.475873 -2.53166 0
M  V30 2901 H 272.633 2.18368 -2.26192 0
M  V30 2902 N 276.405 1.4127 -0.698611 0
M  V30 2903 C 277.63 2.06024 -0.238512 0
M  V30 2904 C 278.055 1.5224 1.10475 0
M  V30 2905 O 277.413 0.650623 1.69223 0
M  V30 2906 C 277.461 3.59988 -0.209952 0
M  V30 2907 O 276.565 4.04282 0.814235 0
M  V30 2908 H 275.906 0.653829 -0.115775 0
M  V30 2909 H 278.436 1.8098 -0.954326 0
M  V30 2910 H 278.446 4.07979 -0.0418436 0
M  V30 2911 H 277.121 3.98503 -1.1903 0
M  V30 2912 H 275.698 3.6779 0.615234 0
M  V30 2913 N 277.883 0.443576 1.51229 0
M  V30 2914 C 278.815 -0.400608 2.25672 0
M  V30 2915 C 279.828 -0.980945 1.29928 0
M  V30 2916 O 281.017 -0.874024 1.55638 0
M  V30 2917 C 278.117 -1.57304 3.00181 0
M  V30 2918 C 277.29 -1.11046 4.23069 0
M  V30 2919 C 276.349 -2.15374 4.80105 0
M  V30 2920 O 275.375 -1.74554 5.41774 0
M  V30 2921 N 276.577 -3.47922 4.64683 0
M  V30 2922 H 279.342 0.23745 2.98758 0
M  V30 2923 H 276.903 0.272809 1.59585 0
M  V30 2924 H 278.895 -2.26733 3.35223 0
M  V30 2925 H 277.465 -2.11632 2.30066 0
M  V30 2926 H 276.685 -0.243019 3.9345 0
M  V30 2927 H 277.973 -0.778888 5.02803 0
M  V30 2928 H 277.371 -3.83815 4.15575 0
M  V30 2929 H 275.928 -4.13228 5.0407 0
M  V30 2930 N 279.361 -1.56624 0.175154 0
M  V30 2931 C 280.308 -2.18149 -0.753634 0
M  V30 2932 C 281.278 -1.12265 -1.22417 0
M  V30 2933 O 282.463 -1.40432 -1.29165 0
M  V30 2934 C 279.603 -2.82933 -1.97592 0
M  V30 2935 C 278.716 -4.03289 -1.5486 0
M  V30 2936 C 277.851 -4.55988 -2.72485 0
M  V30 2937 C 276.89 -5.68746 -2.26262 0
M  V30 2938 N 276.027 -6.15938 -3.36994 0
M  V30 2939 H 280.867 -2.9717 -0.222195 0
M  V30 2940 H 278.404 -1.46774 -0.0979422 0
M  V30 2941 H 280.362 -3.18653 -2.69288 0
M  V30 2942 H 278.992 -2.06509 -2.481 0
M  V30 2943 H 278.044 -3.73364 -0.728246 0
M  V30 2944 H 279.356 -4.849 -1.16933 0
M  V30 2945 H 278.51 -4.9391 -3.52332 0
M  V30 2946 H 277.249 -3.73443 -3.13674 0
M  V30 2947 H 276.254 -5.30372 -1.44863 0
M  V30 2948 H 277.479 -6.53095 -1.86127 0
M  V30 2949 H 275.425 -5.36321 -3.77751 0
M  V30 2950 H 275.342 -6.92548 -3.03172 0
M  V30 2951 H 276.61 -6.58511 -4.17114 0
M  V30 2952 N 280.839 0.0985539 -1.57292 0
M  V30 2953 C 282.086 0.802678 -1.85912 0
M  V30 2954 C 282.414 1.78901 -0.763186 0
M  V30 2955 O 281.669 1.94178 0.243559 0
M  V30 2956 C 281.968 1.56927 -3.21105 0
M  V30 2957 C 281.634 0.725376 -4.45027 0
M  V30 2958 C 280.296 0.492726 -4.78671 0
M  V30 2959 C 282.648 0.138493 -5.21016 0
M  V30 2960 C 279.976 -0.336727 -5.85733 0
M  V30 2961 C 282.328 -0.678264 -6.28953 0
M  V30 2962 C 280.992 -0.921039 -6.61115 0
M  V30 2963 H 280.262 0.293721 -0.680301 0
M  V30 2964 H 282.909 0.0642841 -1.91392 0
M  V30 2965 H 281.214 2.37914 -3.11294 0
M  V30 2966 H 282.911 2.11841 -3.40477 0
M  V30 2967 H 279.501 0.916815 -4.18679 0
M  V30 2968 H 283.685 0.305404 -4.95359 0
M  V30 2969 H 278.941 -0.533836 -6.09065 0
M  V30 2970 H 283.115 -1.1399 -6.87007 0
M  V30 2971 H 280.742 -1.56556 -7.43905 0
M  V30 2972 N 282.317 1.53212 0.369288 0
M  V30 2973 C 283.227 1.82342 1.47609 0
M  V30 2974 C 284.243 0.711532 1.58787 0
M  V30 2975 O 285.419 1.0012 1.74751 0
M  V30 2976 C 282.484 2.00393 2.8292 0
M  V30 2977 C 281.545 3.24297 2.81301 0
M  V30 2978 C 280.778 3.41478 4.10157 0
M  V30 2979 O 281.001 2.63033 5.06132 0
M  V30 2980 O 279.935 4.34817 4.16194 0
M  V30 2981 H 283.761 2.76366 1.25918 0
M  V30 2982 H 281.346 1.38547 0.559034 0
M  V30 2983 H 283.228 2.13859 3.63101 0
M  V30 2984 H 281.903 1.09559 3.04596 0
M  V30 2985 H 280.81 3.16257 1.99831 0
M  V30 2986 H 282.143 4.15041 2.64578 0
M  V30 2987 N 283.795 -0.628877 1.44509 0
M  V30 2988 C 285.206 -1.21054 1.42137 0
M  V30 2989 C 285.557 -1.95715 0.137881 0
M  V30 2990 O 284.682 -2.02554 -0.761645 0
M  V30 2991 C 285.277 -2.20189 2.57493 0
M  V30 2992 C 283.836 -2.73777 2.58308 0
M  V30 2993 C 282.983 -1.48813 2.33987 0
M  V30 2994 H 285.934 -0.41942 1.53057 0
M  V30 2995 H 285.955 -3.02833 2.30375 0
M  V30 2996 H 285.467 -1.6582 3.50892 0
M  V30 2997 H 283.568 -3.32142 1.68856 0
M  V30 2998 H 283.681 -3.19662 3.56865 0
M  V30 2999 H 282.045 -1.77024 1.83124 0
M  V30 3000 H 282.828 -0.963442 3.29504 0
M  V30 3001 N 285.273 -1.31445 -0.869486 0
M  V30 3002 C 286.501 -1.24122 -1.65534 0
M  V30 3003 C 286.916 0.193387 -1.87807 0
M  V30 3004 O 286.273 1.12557 -1.43656 0
M  V30 3005 C 286.324 -1.98229 -3.02304 0
M  V30 3006 O 286.045 -3.3609 -2.81026 0
M  V30 3007 C 287.546 -1.97751 -3.96749 0
M  V30 3008 H 284.766 -0.428868 -0.516055 0
M  V30 3009 H 287.31 -1.73328 -1.08525 0
M  V30 3010 H 285.465 -1.52782 -3.56001 0
M  V30 3011 H 285.879 -3.7383 -3.67902 0
M  V30 3012 H 287.353 -2.54114 -4.90031 0
M  V30 3013 H 287.83 -0.960137 -4.28577 0
M  V30 3014 H 288.436 -2.43079 -3.48988 0
M  V30 3015 N 286.751 1.08385 -1.14413 0
M  V30 3016 C 287.999 1.80419 -0.910679 0
M  V30 3017 C 288.32 1.86658 0.564243 0
M  V30 3018 O 287.59 1.35985 1.41014 0
M  V30 3019 H 286.17 0.668204 -0.333934 0
M  V30 3020 H 288.832 1.31037 -1.44275 0
M  V30 3021 H 287.928 2.83238 -1.31082 0
M  V30 3022 N 288.23 0.939286 1.26551 0
M  V30 3023 C 289.476 0.586715 1.94128 0
M  V30 3024 C 289.809 -0.8717 1.73537 0
M  V30 3025 O 289.084 -1.62339 1.07127 0
M  V30 3026 C 289.367 0.927497 3.4795 0
M  V30 3027 C 289.22 2.44052 3.77834 0
M  V30 3028 C 290.539 0.441569 4.37879 0
M  V30 3029 H 287.658 0.21463 0.705055 0
M  V30 3030 H 290.3 1.17316 1.49455 0
M  V30 3031 H 288.45 0.428431 3.8613 0
M  V30 3032 H 290.122 3.01216 3.4938 0
M  V30 3033 H 288.365 2.8848 3.23978 0
M  V30 3034 H 289.036 2.62947 4.85348 0
M  V30 3035 H 291.512 0.869448 4.06915 0
M  V30 3036 H 290.388 0.708856 5.44304 0
M  V30 3037 H 290.649 -0.658467 4.37169 0
M  V30 3038 N 289.708 -1.40897 0.706093 0
M  V30 3039 C 290.956 -2.00657 0.241054 0
M  V30 3040 C 291.277 -1.56241 -1.16678 0
M  V30 3041 O 290.547 -0.79765 -1.78926 0
M  V30 3042 H 289.127 -0.742018 0.0861308 0
M  V30 3043 H 291.789 -1.72372 0.909604 0
M  V30 3044 H 290.885 -3.10958 0.266705 0
M  V30 3045 N 291.186 -0.45159 -1.50991 0
M  V30 3046 C 292.136 0.370861 -2.24964 0
M  V30 3047 C 293.12 0.978074 -1.2776 0
M  V30 3048 O 294.312 0.893854 -1.52772 0
M  V30 3049 C 291.441 1.46344 -3.10545 0
M  V30 3050 C 290.527 0.864924 -4.15187 0
M  V30 3051 N 290.918 -0.00311354 -5.058 0
M  V30 3052 C 289.216 1.13099 -4.31422 0
M  V30 3053 C 289.917 -0.340772 -5.80701 0
M  V30 3054 N 288.893 0.279203 -5.42883 0
M  V30 3055 H 292.695 -0.298134 -2.92384 0
M  V30 3056 H 290.209 -0.264528 -1.60231 0
M  V30 3057 H 292.206 2.06565 -3.62128 0
M  V30 3058 H 290.866 2.13463 -2.4467 0
M  V30 3059 H 291.877 -0.37058 -5.16572 0
M  V30 3060 H 288.554 1.79861 -3.76771 0
M  V30 3061 H 289.944 -1.048 -6.63677 0
M  V30 3062 N 292.664 1.56529 -0.183458 0
M  V30 3063 C 293.594 2.21549 0.737456 0
M  V30 3064 C 294.575 1.17489 1.23005 0
M  V30 3065 O 295.76 1.45959 1.281 0
M  V30 3066 C 292.89 2.86575 1.96194 0
M  V30 3067 C 291.844 3.96778 1.60473 0
M  V30 3068 C 291.17 4.48911 2.90487 0
M  V30 3069 C 292.47 5.15767 0.823497 0
M  V30 3070 H 294.164 2.98761 0.195453 0
M  V30 3071 H 291.71 1.43702 0.0925686 0
M  V30 3072 H 293.663 3.30739 2.61131 0
M  V30 3073 H 292.387 2.06749 2.52828 0
M  V30 3074 H 291.046 3.53286 0.978997 0
M  V30 3075 H 290.694 3.65862 3.45186 0
M  V30 3076 H 290.394 5.23265 2.67335 0
M  V30 3077 H 291.918 4.95771 3.56432 0
M  V30 3078 H 293.332 5.56549 1.37571 0
M  V30 3079 H 291.729 5.96114 0.690551 0
M  V30 3080 H 292.799 4.84574 -0.177782 0
M  V30 3081 N 294.142 -0.090211 1.57342 0
M  V30 3082 C 295.052 -1.12735 2.05738 0
M  V30 3083 C 296.068 -1.43557 0.983231 0
M  V30 3084 O 297.244 -1.54101 1.29672 0
M  V30 3085 C 294.309 -2.42659 2.47624 0
M  V30 3086 C 293.37 -2.18975 3.69254 0
M  V30 3087 C 292.603 -3.42704 4.09133 0
M  V30 3088 O 292.826 -4.51127 3.49057 0
M  V30 3089 O 291.76 -3.32003 5.02053 0
M  V30 3090 H 295.586 -0.746279 2.94388 0
M  V30 3091 H 293.171 -0.303064 1.46294 0
M  V30 3092 H 295.053 -3.19155 2.7517 0
M  V30 3093 H 293.728 -2.80182 1.62109 0
M  V30 3094 H 292.635 -1.40244 3.46818 0
M  V30 3095 H 293.968 -1.86342 4.55563 0
M  V30 3096 N 295.62 -1.53406 -0.361157 0
M  V30 3097 C 296.848 -1.73717 -1.12383 0
M  V30 3098 C 297.263 -0.468161 -1.82904 0
M  V30 3099 O 296.62 0.559198 -1.73722 0
M  V30 3100 C 296.671 -2.90558 -2.15078 0
M  V30 3101 O 296.392 -4.12549 -1.47428 0
M  V30 3102 C 297.893 -3.22777 -3.03858 0
M  V30 3103 H 295.113 -0.580896 -0.335858 0
M  V30 3104 H 297.657 -2.00167 -0.418728 0
M  V30 3105 H 295.812 -2.66489 -2.8118 0
M  V30 3106 H 296.226 -4.78009 -2.15887 0
M  V30 3107 H 297.7 -4.07927 -3.71887 0
M  V30 3108 H 298.177 -2.38329 -3.68912 0
M  V30 3109 H 298.783 -3.48787 -2.43367 0
M  V30 3110 N 297.098 0.621204 -1.44841 0
M  V30 3111 C 298.028 1.74366 -1.55303 0
M  V30 3112 C 299.009 1.65199 -0.405385 0
M  V30 3113 O 300.194 1.83807 -0.626787 0
M  V30 3114 C 297.324 3.12931 -1.50637 0
M  V30 3115 C 296.278 3.36896 -2.63979 0
M  V30 3116 C 295.604 4.75594 -2.44366 0
M  V30 3117 C 296.904 3.28483 -4.06074 0
M  V30 3118 H 298.598 1.65867 -2.49256 0
M  V30 3119 H 296.144 0.796558 -1.19962 0
M  V30 3120 H 298.097 3.9124 -1.56555 0
M  V30 3121 H 296.821 3.22237 -0.532057 0
M  V30 3122 H 295.48 2.60972 -2.57467 0
M  V30 3123 H 295.128 4.81616 -1.45105 0
M  V30 3124 H 294.828 4.92586 -3.20364 0
M  V30 3125 H 296.352 5.5612 -2.52117 0
M  V30 3126 H 297.766 3.96684 -4.13902 0
M  V30 3127 H 296.163 3.57008 -4.82354 0
M  V30 3128 H 297.233 2.26133 -4.28943 0
M  V30 3129 N 298.576 1.31904 0.862503 0
M  V30 3130 C 299.526 1.16772 1.95827 0
M  V30 3131 C 300.51 0.0767098 1.60717 0
M  V30 3132 O 301.702 0.302407 1.74398 0
M  V30 3133 C 298.831 0.884858 3.317 0
M  V30 3134 C 297.917 2.0172 3.73055 0
M  V30 3135 N 298.308 3.265 3.86305 0
M  V30 3136 C 296.606 1.91861 4.02623 0
M  V30 3137 C 297.307 4.00616 4.2176 0
M  V30 3138 N 296.283 3.28847 4.32852 0
M  V30 3139 H 300.085 2.11382 2.04193 0
M  V30 3140 H 297.599 1.2357 1.05377 0
M  V30 3141 H 299.596 0.757419 4.09962 0
M  V30 3142 H 298.256 -0.0529448 3.24657 0
M  V30 3143 H 299.267 3.61529 3.70833 0
M  V30 3144 H 295.944 1.05593 4.03926 0
M  V30 3145 H 297.334 5.08182 4.39546 0
M  V30 3146 N 300.054 -1.07777 1.14986 0
M  V30 3147 C 300.987 -2.14228 0.786243 0
M  V30 3148 C 301.965 -1.60888 -0.235347 0
M  V30 3149 O 303.149 -1.88099 -0.122909 0
M  V30 3150 C 300.276 -3.38281 0.168433 0
M  V30 3151 C 299.322 -4.10387 1.16123 0
M  V30 3152 S 300.155 -4.62371 2.70135 0
M  V30 3153 C 301.311 -5.89704 2.09762 0
M  V30 3154 H 301.544 -2.44741 1.68787 0
M  V30 3155 H 299.077 -1.19984 0.971756 0
M  V30 3156 H 301.035 -4.10098 -0.181588 0
M  V30 3157 H 299.696 -3.05953 -0.710725 0
M  V30 3158 H 298.889 -4.99431 0.677086 0
M  V30 3159 H 298.491 -3.44513 1.45556 0
M  V30 3160 H 300.783 -6.61648 1.45701 0
M  V30 3161 H 301.726 -6.42824 2.96955 0
M  V30 3162 H 302.134 -5.4302 1.54239 0
M  V30 3163 N 301.532 -0.945985 -1.26051 0
M  V30 3164 C 302.495 -0.463897 -2.24456 0
M  V30 3165 C 303.495 0.427655 -1.55009 0
M  V30 3166 O 304.685 0.226157 -1.72726 0
M  V30 3167 C 301.817 0.330812 -3.39291 0
M  V30 3168 H 303.01 -1.33357 -2.68619 0
M  V30 3169 H 300.563 -0.728416 -1.38289 0
M  V30 3170 H 301.298 1.21852 -3.00537 0
M  V30 3171 H 301.083 -0.308679 -3.90883 0
M  V30 3172 H 302.573 0.657865 -4.12386 0
M  V30 3173 N 303.011 1.40521 -0.713556 0
M  V30 3174 C 303.944 2.28198 -0.00881422 0
M  V30 3175 C 304.922 1.43227 0.769735 0
M  V30 3176 O 306.106 1.72641 0.756799 0
M  V30 3177 C 303.233 3.23758 0.994899 0
M  V30 3178 C 302.279 4.25391 0.3074 0
M  V30 3179 S 303.112 5.26765 -0.963247 0
M  V30 3180 C 304.268 6.25888 0.0384143 0
M  V30 3181 H 304.501 2.87622 -0.752407 0
M  V30 3182 H 302.034 1.45925 -0.504502 0
M  V30 3183 H 303.992 3.79341 1.56879 0
M  V30 3184 H 302.653 2.63396 1.71118 0
M  V30 3185 H 301.846 4.92596 1.0661 0
M  V30 3186 H 301.448 3.73497 -0.193879 0
M  V30 3187 H 303.74 6.71683 0.885912 0
M  V30 3188 H 304.683 7.05552 -0.60019 0
M  V30 3189 H 305.091 5.63072 0.401233 0
M  V30 3190 N 304.489 0.459591 1.5075 0
M  V30 3191 C 305.714 -0.0996819 2.0716 0
M  V30 3192 C 306.139 -1.33761 1.32249 0
M  V30 3193 O 305.497 -1.77551 0.366786 0
M  V30 3194 C 305.545 -0.378226 3.58611 0
M  V30 3195 O 304.649 -1.46081 3.85661 0
M  V30 3196 H 303.99 0.00791392 0.663953 0
M  V30 3197 H 306.52 0.647329 1.9409 0
M  V30 3198 H 306.53 -0.622135 4.03229 0
M  V30 3199 H 305.205 0.526439 4.12555 0
M  V30 3200 H 303.782 -1.20511 3.5289 0
M  V30 3201 N 305.967 -1.56429 0.191757 0
M  V30 3202 C 307.213 -1.98541 -0.441943 0
M  V30 3203 C 307.568 -1.07646 -1.59468 0
M  V30 3204 O 306.861 -0.120191 -1.91223 0
M  V30 3205 C 307.055 -3.44449 -0.953384 0
M  V30 3206 C 306.884 -4.49456 0.148262 0
M  V30 3207 C 305.654 -5.01668 0.604781 0
M  V30 3208 C 307.852 -5.05336 0.95602 0
M  V30 3209 N 305.834 -5.90334 1.6846 0
M  V30 3210 C 307.205 -5.9064 1.88531 0
M  V30 3211 C 309.26 -4.87779 0.998811 0
M  V30 3212 C 307.963 -6.60264 2.85383 0
M  V30 3213 C 309.989 -5.58139 1.95537 0
M  V30 3214 C 309.351 -6.43187 2.8721 0
M  V30 3215 H 305.45 -0.771247 -0.129236 0
M  V30 3216 H 308.034 -1.92426 0.296682 0
M  V30 3217 H 306.205 -3.5107 -1.66146 0
M  V30 3218 H 307.937 -3.73533 -1.55741 0
M  V30 3219 H 304.692 -4.73183 0.198736 0
M  V30 3220 H 305.116 -6.39371 2.22561 0
M  V30 3221 H 309.758 -4.21705 0.304048 0
M  V30 3222 H 307.476 -7.25538 3.55837 0
M  V30 3223 H 311.062 -5.46532 1.99484 0
M  V30 3224 H 309.942 -6.96674 3.60022 0
M  V30 3225 N 307.445 0.0818655 -1.57387 0
M  V30 3226 C 308.377 1.12484 -1.997 0
M  V30 3227 C 309.39 1.35564 -0.90146 0
M  V30 3228 O 310.579 1.33982 -1.17945 0
M  V30 3229 C 307.679 2.47778 -2.31213 0
M  V30 3230 C 306.852 2.44793 -3.62485 0
M  V30 3231 C 305.911 3.62117 -3.81782 0
M  V30 3232 O 304.937 3.44005 -4.53486 0
M  V30 3233 N 306.139 4.82094 -3.23367 0
M  V30 3234 H 308.904 0.764585 -2.89783 0
M  V30 3235 H 306.465 0.270664 -1.59621 0
M  V30 3236 H 308.457 3.24891 -2.41304 0
M  V30 3237 H 307.027 2.75843 -1.4707 0
M  V30 3238 H 306.247 1.53134 -3.6324 0
M  V30 3239 H 307.535 2.39889 -4.48699 0
M  V30 3240 H 306.933 4.99713 -2.65148 0
M  V30 3241 H 305.49 5.56753 -3.38923 0
M  V30 3242 N 308.923 1.53595 0.353017 0
M  V30 3243 C 310.2 1.61002 1.11075 0
M  V30 3244 C 310.58 0.425356 2.0677 0
M  V30 3245 O 309.928 -0.583267 2.2093 0
M  V30 3246 C 310.138 2.96631 1.83877 0
M  V30 3247 C 311.486 3.51653 2.37961 0
M  V30 3248 O 312.51 2.98743 1.93987 0
M  V30 3249 O 311.369 4.44177 3.18386 0
M  V30 3250 H 308.463 0.650825 0.510251 0
M  V30 3251 H 311.009 1.6594 0.35527 0
M  V30 3252 H 309.781 3.74293 1.14108 0
M  V30 3253 H 309.404 2.95242 2.66304 0
M  V30 3254 N 310.401 -0.613514 1.45168 0
M  V30 3255 C 311.351 -1.71871 1.49815 0
M  V30 3256 C 312.335 -1.56774 0.362021 0
M  V30 3257 O 313.527 -1.66212 0.608493 0
M  V30 3258 C 310.656 -3.1061 1.46207 0
M  V30 3259 C 309.742 -3.31114 2.64999 0
M  V30 3260 N 310.133 -3.21904 3.90143 0
M  V30 3261 C 308.431 -3.61966 2.6057 0
M  V30 3262 C 309.132 -3.43577 4.69393 0
M  V30 3263 N 308.108 -3.67287 4.00751 0
M  V30 3264 H 311.91 -1.63235 2.444 0
M  V30 3265 H 309.424 -0.816577 1.40377 0
M  V30 3266 H 311.421 -3.8989 1.4762 0
M  V30 3267 H 310.081 -3.20399 0.52673 0
M  V30 3268 H 311.092 -3.00436 4.21852 0
M  V30 3269 H 307.769 -3.78629 1.75916 0
M  V30 3270 H 309.159 -3.41901 5.78406 0
M  V30 3271 N 311.879 -1.3236 -0.855495 0
M  V30 3272 C 313.127 -1.22629 -1.60644 0
M  V30 3273 C 313.448 0.212136 -1.93843 0
M  V30 3274 O 312.718 1.13666 -1.59552 0
M  V30 3275 H 311.298 -0.450882 -0.595579 0
M  V30 3276 H 313.96 -1.65871 -1.02337 0
M  V30 3277 H 313.056 -1.80832 -2.54374 0
M  V30 3278 N 313.357 1.07166 -1.15556 0
M  V30 3279 C 314.773 1.31899 -0.898603 0
M  V30 3280 C 314.973 1.96333 0.453383 0
M  V30 3281 O 314.029 2.22438 1.19489 0
M  V30 3282 C 315.342 2.20826 -2.04099 0
M  V30 3283 C 316.89 2.34269 -2.07574 0
M  V30 3284 C 317.365 3.26546 -3.21141 0
M  V30 3285 N 318.856 3.34127 -3.20801 0
M  V30 3286 C 319.591 4.05595 -4.05315 0
M  V30 3287 N 319.087 4.79661 -4.99897 0
M  V30 3288 N 320.88 4.01555 -3.93332 0
M  V30 3289 H 313.031 0.637302 -2.02613 0
M  V30 3290 H 315.294 0.343468 -0.883591 0
M  V30 3291 H 315 1.80744 -3.01703 0
M  V30 3292 H 314.874 3.21364 -1.97496 0
M  V30 3293 H 317.261 2.73603 -1.10568 0
M  V30 3294 H 317.342 1.33429 -2.18244 0
M  V30 3295 H 316.986 2.87931 -4.184 0
M  V30 3296 H 316.916 4.27345 -3.07708 0
M  V30 3297 H 319.407 2.81336 -2.52306 0
M  V30 3298 H 319.72 5.31694 -5.60822 0
M  V30 3299 H 318.065 4.78671 -5.03884 0
M  V30 3300 H 321.256 3.42806 -3.18751 0
M  V30 3301 H 321.429 4.56987 -4.5942 0
M  V30 3302 N 314.835 0.952656 1.25548 0
M  V30 3303 C 316.084 0.602053 1.92505 0
M  V30 3304 C 316.397 -0.864663 1.75451 0
M  V30 3305 O 317.603 -1.32514 2.36965 0
M  V30 3306 C 316.059 1.02607 3.44963 0
M  V30 3307 C 315.667 2.51519 3.70732 0
M  V30 3308 C 317.411 0.747905 4.1786 0
M  V30 3309 C 315.318 2.87732 5.16686 0
M  V30 3310 H 314.248 0.22146 0.720744 0
M  V30 3311 H 316.899 1.15684 1.42441 0
M  V30 3312 H 315.281 0.399712 3.93978 0
M  V30 3313 H 316.455 3.19157 3.32378 0
M  V30 3314 H 314.77 2.76786 3.11092 0
M  V30 3315 H 317.367 0.994647 5.25367 0
M  V30 3316 H 317.71 -0.315629 4.15102 0
M  V30 3317 H 318.243 1.33452 3.74747 0
M  V30 3318 H 314.982 3.93095 5.24554 0
M  V30 3319 H 314.502 2.24765 5.56094 0
M  V30 3320 H 316.181 2.76817 5.84792 0
M  V30 3321 N 316.313 -1.40141 0.720998 0
M  V30 3322 C 317.243 -2.33339 0.0867621 0
M  V30 3323 C 318.224 -1.53178 -0.739622 0
M  V30 3324 O 319.409 -1.81625 -0.687449 0
M  V30 3325 C 316.539 -3.37194 -0.831728 0
M  V30 3326 C 315.493 -4.27857 -0.110558 0
M  V30 3327 C 314.819 -5.22294 -1.14513 0
M  V30 3328 C 316.119 -5.11872 1.0385 0
M  V30 3329 H 317.813 -2.86626 0.865219 0
M  V30 3330 H 315.359 -1.37814 0.417516 0
M  V30 3331 H 317.312 -4.01335 -1.28485 0
M  V30 3332 H 316.036 -2.82314 -1.64214 0
M  V30 3333 H 314.695 -3.65176 0.322797 0
M  V30 3334 H 314.343 -4.63717 -1.94874 0
M  V30 3335 H 314.043 -5.83797 -0.667446 0
M  V30 3336 H 315.567 -5.89312 -1.59824 0
M  V30 3337 H 316.981 -5.69436 0.664482 0
M  V30 3338 H 315.378 -5.82445 1.4449 0
M  V30 3339 H 316.448 -4.4753 1.86668 0
M  V30 3340 N 317.792 -0.46758 -1.50504 0
M  V30 3341 C 319.208 -0.121533 -1.59137 0
M  V30 3342 C 319.408 1.3717 -1.47603 0
M  V30 3343 O 318.464 2.14464 -1.33272 0
M  V30 3344 C 319.777 -0.6686 -2.93173 0
M  V30 3345 C 321.325 -0.631716 -3.06559 0
M  V30 3346 C 321.8 -1.15627 -4.43164 0
M  V30 3347 N 323.291 -1.11553 -4.49567 0
M  V30 3348 C 324.026 -1.49195 -5.5365 0
M  V30 3349 N 323.522 -1.94269 -6.65005 0
M  V30 3350 N 325.315 -1.4082 -5.44175 0
M  V30 3351 H 317.466 -1.4388 -1.56245 0
M  V30 3352 H 319.729 -0.594784 -0.738198 0
M  V30 3353 H 319.435 -1.71453 -3.07078 0
M  V30 3354 H 319.309 -0.11021 -3.77039 0
M  V30 3355 H 321.696 0.405297 -2.92304 0
M  V30 3356 H 321.777 -1.22687 -2.24458 0
M  V30 3357 H 321.421 -2.1919 -4.58168 0
M  V30 3358 H 321.351 -0.537365 -5.23851 0
M  V30 3359 H 323.842 -0.784895 -3.69659 0
M  V30 3360 H 324.155 -2.21148 -7.40482 0
M  V30 3361 H 322.5 -1.98219 -6.66134 0
M  V30 3362 H 325.691 -1.0545 -4.56068 0
M  V30 3363 H 325.864 -1.70481 -6.25172 0
M  V30 3364 N 319.27 1.56325 -0.20005 0
M  V30 3365 C 320.51 1.99619 0.439519 0
M  V30 3366 C 320.874 1.08423 1.58456 0
M  V30 3367 O 322.075 1.40973 2.28867 0
M  V30 3368 C 320.346 3.46314 0.883258 0
M  V30 3369 S 321.905 4.11634 1.51997 0
M  V30 3370 H 318.723 0.697007 0.140363 0
M  V30 3371 H 321.325 1.93118 -0.304282 0
M  V30 3372 H 320.029 4.10381 0.0398967 0
M  V30 3373 H 319.56 3.56643 1.6604 0
M  V30 3374 H 321.575 4.09049 2.8088 0
M  V30 3375 N 320.748 -0.0735177 1.57428 0
M  V30 3376 C 321.68 -1.11423 2.00294 0
M  V30 3377 C 322.693 -1.35084 0.908637 0
M  V30 3378 O 323.882 -1.33355 1.18654 0
M  V30 3379 C 320.982 -2.46548 2.32523 0
M  V30 3380 C 320.155 -2.42867 3.63778 0
M  V30 3381 C 319.214 -3.60087 3.83697 0
M  V30 3382 O 318.24 -3.41595 4.55304 0
M  V30 3383 N 319.442 -4.80372 3.25919 0
M  V30 3384 H 322.207 -0.749206 2.90184 0
M  V30 3385 H 319.768 -0.262195 1.59763 0
M  V30 3386 H 321.76 -3.23607 2.43024 0
M  V30 3387 H 320.33 -2.75059 1.48531 0
M  V30 3388 H 319.55 -1.51206 3.64047 0
M  V30 3389 H 320.838 -2.37506 4.49965 0
M  V30 3390 H 320.236 -4.983 2.67795 0
M  V30 3391 H 318.793 -5.54948 3.41871 0
M  V30 3392 N 322.226 -1.5378 -0.344866 0
M  V30 3393 C 323.156 -1.84662 -1.42906 0
M  V30 3394 C 324.137 -0.701648 -1.54955 0
M  V30 3395 O 325.322 -0.953438 -1.69184 0
M  V30 3396 C 322.452 -2.05503 -2.79974 0
M  V30 3397 C 321.406 -3.21318 -2.82734 0
M  V30 3398 C 320.732 -3.2749 -4.22675 0
M  V30 3399 C 322.032 -4.59456 -2.48389 0
M  V30 3400 H 323.726 -2.75461 -1.17311 0
M  V30 3401 H 321.272 -1.32542 -0.562896 0
M  V30 3402 H 323.225 -2.25691 -3.55867 0
M  V30 3403 H 321.949 -1.11434 -3.07002 0
M  V30 3404 H 320.608 -3.00984 -2.09294 0
M  V30 3405 H 320.256 -2.31019 -4.4681 0
M  V30 3406 H 319.956 -4.05316 -4.25433 0
M  V30 3407 H 321.48 -3.49887 -5.00412 0
M  V30 3408 H 322.894 -4.79667 -3.13995 0
M  V30 3409 H 321.291 -5.39675 -2.62432 0
M  V30 3410 H 322.361 -4.63155 -1.4358 0
M  V30 3411 N 323.704 0.605807 -1.45491 0
M  V30 3412 C 324.929 1.39625 -1.53361 0
M  V30 3413 C 325.354 1.87351 -0.167645 0
M  V30 3414 O 324.712 1.60243 0.848051 0
M  V30 3415 C 324.76 2.57559 -2.5238 0
M  V30 3416 O 323.864 3.58248 -2.04285 0
M  V30 3417 H 323.205 0.416771 -0.516912 0
M  V30 3418 H 325.735 0.737103 -1.90861 0
M  V30 3419 H 325.745 3.0478 -2.71244 0
M  V30 3420 H 324.42 2.22171 -3.51586 0
M  V30 3421 H 322.997 3.17664 -1.95305 0
M  V30 3422 N 325.182 1.32811 0.848464 0
M  V30 3423 C 326.428 1.23907 1.60546 0
M  V30 3424 C 326.761 -0.197161 1.93197 0
M  V30 3425 O 326.036 -1.13596 1.5788 0
M  V30 3426 C 326.319 2.10489 2.92175 0
M  V30 3427 C 326.172 3.62522 2.66266 0
M  V30 3428 C 327.491 1.97075 3.93509 0
M  V30 3429 H 324.61 0.451459 0.58254 0
M  V30 3430 H 327.252 1.62818 0.979296 0
M  V30 3431 H 325.402 1.77434 3.45614 0
M  V30 3432 H 327.074 4.05821 2.19334 0
M  V30 3433 H 325.317 3.84879 2.00126 0
M  V30 3434 H 325.988 4.18437 3.6002 0
M  V30 3435 H 328.464 2.26045 3.49346 0
M  V30 3436 H 327.34 2.59923 4.83457 0
M  V30 3437 H 327.601 0.940186 4.31987 0
M  V30 3438 N 326.66 -1.06551 1.16123 0
M  V30 3439 C 327.623 -2.12132 0.867906 0
M  V30 3440 C 328.623 -1.60224 -0.135944 0
M  V30 3441 O 329.813 -1.73943 0.0946422 0
M  V30 3442 C 326.945 -3.396 0.297419 0
M  V30 3443 H 328.138 -2.39586 1.80385 0
M  V30 3444 H 325.691 -1.22574 0.969812 0
M  V30 3445 H 326.426 -3.17794 -0.64633 0
M  V30 3446 H 326.211 -3.78581 1.02073 0
M  V30 3447 H 327.701 -4.17455 0.110052 0
M  V30 3448 N 328.138 -0.959301 -1.25041 0
M  V30 3449 C 329.086 -0.474437 -2.2771 0
M  V30 3450 C 330.08 0.457697 -1.631 0
M  V30 3451 O 331.286 0.333912 -1.76876 0
M  V30 3452 H 327.661 -0.134936 -0.739795 0
M  V30 3453 H 329.632 -1.35251 -2.65988 0
M  V30 3454 C 328.381 0.227884 -3.46952 0
M  V30 3455 H 327.704 -0.480248 -3.96905 0
M  V30 3456 H 329.144 0.531091 -4.20661 0
M  V30 3457 C 327.603 1.452 -3.04004 0
M  V30 3458 O 328.133 2.54949 -3.10426 0
M  V30 3459 N 326.339 1.31502 -2.59144 0
M  V30 3460 H 325.886 0.422065 -2.54119 0
M  V30 3461 H 325.844 2.13521 -2.30773 0
M  V30 3462 N 329.616 1.39756 -0.72842 0
M  V30 3463 C 330.566 2.2792 -0.0603424 0
M  V30 3464 C 331.55 1.43922 0.719399 0
M  V30 3465 O 332.742 1.66895 0.589489 0
M  V30 3466 C 329.871 3.32582 0.851104 0
M  V30 3467 C 328.957 4.24049 0.0658641 0
M  V30 3468 N 329.348 4.96653 -0.957578 0
M  V30 3469 C 327.646 4.45013 0.296509 0
M  V30 3470 C 328.347 5.63836 -1.43052 0
M  V30 3471 N 327.323 5.38397 -0.750315 0
M  V30 3472 H 331.125 2.81504 -0.84455 0
M  V30 3473 H 328.639 1.5236 -0.562155 0
M  V30 3474 H 330.636 3.94603 1.34514 0
M  V30 3475 H 329.296 2.80558 1.63454 0
M  V30 3476 H 330.307 5.00297 -1.33877 0
M  V30 3477 H 326.984 4.03943 1.05527 0
M  V30 3478 H 328.374 6.31974 -2.28163 0
M  V30 3479 N 331.094 0.475555 1.50254 0
M  V30 3480 C 332.51 0.12997 1.5907 0
M  V30 3481 C 332.71 -1.36385 1.48328 0
M  V30 3482 O 331.766 -2.13754 1.34407 0
M  V30 3483 C 333.079 0.684139 2.92814 0
M  V30 3484 C 334.627 0.647965 3.0622 0
M  V30 3485 C 335.102 1.17975 4.42545 0
M  V30 3486 N 336.593 1.13936 4.48969 0
M  V30 3487 C 337.328 1.52129 5.52851 0
M  V30 3488 N 336.824 1.97793 6.63965 0
M  V30 3489 N 338.617 1.43704 5.4342 0
M  V30 3490 H 330.768 1.44706 1.55479 0
M  V30 3491 H 333.031 0.598691 0.735033 0
M  V30 3492 H 332.737 1.73079 3.06164 0
M  V30 3493 H 332.611 0.130204 3.76975 0
M  V30 3494 H 334.998 -0.38979 2.92514 0
M  V30 3495 H 335.079 1.23876 2.23805 0
M  V30 3496 H 334.723 2.21616 4.57 0
M  V30 3497 H 334.653 0.565138 5.23559 0
M  V30 3498 H 337.144 0.804488 3.69238 0
M  V30 3499 H 337.457 2.25072 7.39299 0
M  V30 3500 H 335.802 2.01749 6.65073 0
M  V30 3501 H 338.993 1.07867 4.55502 0
M  V30 3502 H 339.166 1.73794 6.24259 0
M  V30 3503 N 332.573 -1.56217 0.208337 0
M  V30 3504 C 333.536 -2.18455 -0.693557 0
M  V30 3505 C 334.536 -1.14268 -1.13135 0
M  V30 3506 O 335.726 -1.39577 -1.0423 0
M  V30 3507 C 332.858 -2.79727 -1.94848 0
M  V30 3508 H 334.051 -2.99519 -0.15114 0
M  V30 3509 H 331.604 -1.56245 -0.041287 0
M  V30 3510 H 332.339 -2.02497 -2.53309 0
M  V30 3511 H 332.124 -3.56009 -1.64316 0
M  V30 3512 H 333.614 -3.27475 -2.59133 0
M  V30 3513 N 334.051 0.0651679 -1.57465 0
M  V30 3514 C 334.983 1.10359 -2.00882 0
M  V30 3515 C 335.996 1.346 -0.915788 0
M  V30 3516 O 337.185 1.32723 -1.1936 0
M  V30 3517 C 334.285 2.45312 -2.33828 0
M  V30 3518 C 333.458 2.40934 -3.65061 0
M  V30 3519 C 332.517 3.58047 -3.85602 0
M  V30 3520 O 331.543 3.39175 -4.57109 0
M  V30 3521 N 332.745 4.78637 -3.28462 0
M  V30 3522 H 335.51 0.733807 -2.90578 0
M  V30 3523 H 333.071 0.253719 -1.599 0
M  V30 3524 H 335.063 3.22314 -2.44737 0
M  V30 3525 H 333.633 2.74267 -1.49988 0
M  V30 3526 H 332.853 1.49273 -3.64844 0
M  V30 3527 H 334.141 2.35117 -4.51218 0
M  V30 3528 H 333.539 4.96872 -2.70433 0
M  V30 3529 H 332.096 5.53127 -3.44809 0
M  V30 3530 N 335.529 1.53961 0.336706 0
M  V30 3531 C 336.754 1.75797 1.10046 0
M  V30 3532 C 337.179 0.498985 1.81361 0
M  V30 3533 O 336.537 -0.548769 1.72795 0
M  V30 3534 C 336.585 2.94257 2.08436 0
M  V30 3535 O 335.689 2.64883 3.16087 0
M  V30 3536 H 335.03 0.582936 0.317934 0
M  V30 3537 H 337.56 2.00945 0.38501 0
M  V30 3538 H 337.57 3.21237 2.51537 0
M  V30 3539 H 336.245 3.85564 1.55927 0
M  V30 3540 H 334.822 2.48812 2.77753 0
M  V30 3541 N 337.007 -0.598083 1.45811 0
M  V30 3542 C 337.917 -1.73632 1.57763 0
M  V30 3543 C 338.933 -1.67763 0.461676 0
M  V30 3544 O 340.109 -1.87949 0.723685 0
M  V30 3545 C 337.174 -3.10114 1.55018 0
M  V30 3546 C 336.235 -3.27364 2.77726 0
M  V30 3547 C 335.468 -4.57334 2.75102 0
M  V30 3548 O 335.691 -5.40258 1.8297 0
M  V30 3549 O 334.625 -4.77502 3.66437 0
M  V30 3550 H 338.451 -1.66498 2.53992 0
M  V30 3551 H 336.036 -0.763308 1.28429 0
M  V30 3552 H 337.918 -3.9141 1.56129 0
M  V30 3553 H 336.593 -3.17718 0.619431 0
M  V30 3554 H 335.5 -2.45619 2.82174 0
M  V30 3555 H 336.833 -3.24641 3.69958 0
M  V30 3556 N 338.485 -1.33259 -0.841409 0
M  V30 3557 C 339.734 -1.23921 -1.59143 0
M  V30 3558 C 340.047 0.1941 -1.94635 0
M  V30 3559 O 341.253 0.409474 -2.68394 0
M  V30 3560 C 339.709 -2.17119 -2.87032 0
M  V30 3561 C 339.317 -3.65606 -2.58914 0
M  V30 3562 C 341.061 -2.16648 -3.65053 0
M  V30 3563 C 338.968 -4.50726 -3.82884 0
M  V30 3564 H 337.898 -0.460264 -0.597221 0
M  V30 3565 H 340.549 -1.58307 -0.927959 0
M  V30 3566 H 338.931 -1.75663 -3.54906 0
M  V30 3567 H 340.105 -4.15487 -1.99267 0
M  V30 3568 H 338.42 -3.68341 -1.942 0
M  V30 3569 H 341.017 -2.77474 -4.57069 0
M  V30 3570 H 341.36 -1.16088 -3.99787 0
M  V30 3571 H 341.893 -2.56453 -3.041 0
M  V30 3572 H 338.632 -5.52151 -3.53283 0
M  V30 3573 H 338.152 -4.0559 -4.41879 0
M  V30 3574 H 339.831 -4.64401 -4.50489 0
M  V30 3575 N 339.963 1.05934 -1.16686 0
M  V30 3576 C 340.913 2.11764 -0.844978 0
M  V30 3577 C 341.897 1.59922 0.177178 0
M  V30 3578 O 343.089 1.76983 -0.0241768 0
M  V30 3579 C 340.218 3.41493 -0.351812 0
M  V30 3580 C 339.304 4.00152 -1.40496 0
M  V30 3581 N 339.695 4.32874 -2.61636 0
M  V30 3582 C 337.993 4.278 -1.26106 0
M  V30 3583 C 338.694 4.79552 -3.29249 0
M  V30 3584 N 337.67 4.79211 -2.56628 0
M  V30 3585 H 341.472 2.34916 -1.76612 0
M  V30 3586 H 338.986 1.23511 -1.05446 0
M  V30 3587 H 340.983 4.16773 -0.102796 0
M  V30 3588 H 339.643 3.19778 0.56322 0
M  V30 3589 H 340.654 4.23109 -2.98663 0
M  V30 3590 H 337.331 4.15511 -0.407081 0
M  V30 3591 H 338.721 5.14045 -4.32675 0
M  V30 3592 N 341.441 0.965919 1.2453 0
M  V30 3593 C 342.371 0.513476 2.27784 0
M  V30 3594 C 343.352 -0.445974 1.6415 0
M  V30 3595 O 344.537 -0.342485 1.91156 0
M  V30 3596 C 341.667 -0.198839 3.4673 0
M  V30 3597 C 340.621 0.676456 4.2262 0
M  V30 3598 C 339.947 -0.167248 5.34438 0
M  V30 3599 C 341.247 1.96017 4.84123 0
M  V30 3600 H 342.941 1.3765 2.65881 0
M  V30 3601 H 340.487 0.663321 1.27813 0
M  V30 3602 H 342.44 -0.526567 4.18097 0
M  V30 3603 H 341.164 -1.0962 3.07654 0
M  V30 3604 H 339.823 0.98743 3.53052 0
M  V30 3605 H 339.471 -1.0647 4.91603 0
M  V30 3606 H 339.171 0.415181 5.86131 0
M  V30 3607 H 340.695 -0.489688 6.08633 0
M  V30 3608 H 342.109 1.69814 5.47573 0
M  V30 3609 H 340.506 2.48918 5.4604 0
M  V30 3610 H 341.576 2.65622 4.05676 0
M  V30 3611 N 342.919 -1.39368 0.735821 0
M  V30 3612 C 343.851 -2.2913 0.0567723 0
M  V30 3613 C 344.864 -1.46859 -0.702589 0
M  V30 3614 O 346.053 -1.69925 -0.546616 0
M  V30 3615 C 343.153 -3.25492 -0.943823 0
M  V30 3616 C 342.326 -4.36709 -0.24581 0
M  V30 3617 C 341.385 -5.13376 -1.15463 0
M  V30 3618 O 340.411 -5.65683 -0.631803 0
M  V30 3619 N 341.613 -5.24656 -2.48427 0
M  V30 3620 H 344.378 -2.88047 0.827582 0
M  V30 3621 H 341.939 -1.50957 0.585112 0
M  V30 3622 H 343.931 -3.73657 -1.55443 0
M  V30 3623 H 342.501 -2.676 -1.61583 0
M  V30 3624 H 341.721 -3.9041 0.545286 0
M  V30 3625 H 343.009 -5.08244 0.237891 0
M  V30 3626 H 342.407 -4.83679 -2.93379 0
M  V30 3627 H 340.964 -5.76258 -3.04582 0
M  V30 3628 N 344.397 -0.483516 -1.5 0
M  V30 3629 C 345.643 0.0672592 -2.02688 0
M  V30 3630 C 345.976 1.38247 -1.36387 0
M  V30 3631 O 345.251 1.88131 -0.493675 0
M  V30 3632 C 345.534 0.238109 -3.59312 0
M  V30 3633 C 345.387 -1.099 -4.36168 0
M  V30 3634 C 346.706 0.986916 -4.28892 0
M  V30 3635 H 343.825 0.0229696 -0.736642 0
M  V30 3636 H 346.467 -0.631527 -1.79197 0
M  V30 3637 H 344.617 0.8333 -3.79458 0
M  V30 3638 H 346.289 -1.73172 -4.27562 0
M  V30 3639 H 344.532 -1.69261 -3.99416 0
M  V30 3640 H 345.203 -0.932954 -5.44059 0
M  V30 3641 H 347.679 0.482302 -4.13295 0
M  V30 3642 H 346.555 1.07527 -5.38265 0
M  V30 3643 H 346.816 2.0265 -3.92919 0
M  V30 3644 N 345.875 1.56104 -0.216619 0
M  V30 3645 C 346.822 2.2007 0.695531 0
M  V30 3646 C 347.792 1.15471 1.19397 0
M  V30 3647 O 348.977 1.43807 1.25396 0
M  V30 3648 C 346.117 2.88073 1.90021 0
M  V30 3649 C 345.23 4.07253 1.44113 0
M  V30 3650 C 344.365 4.63052 2.603 0
M  V30 3651 C 343.404 5.74545 2.11103 0
M  V30 3652 N 342.541 6.24656 3.20545 0
M  V30 3653 H 347.381 2.97655 0.143327 0
M  V30 3654 H 344.918 1.46982 0.0589934 0
M  V30 3655 H 346.876 3.25681 2.60745 0
M  V30 3656 H 345.506 2.13015 2.42538 0
M  V30 3657 H 344.558 3.75164 0.628999 0
M  V30 3658 H 345.87 4.8783 1.04036 0
M  V30 3659 H 345.024 5.03078 3.39113 0
M  V30 3660 H 343.763 3.81628 3.03663 0
M  V30 3661 H 342.768 5.34027 1.3075 0
M  V30 3662 H 343.993 6.57801 1.68746 0
M  V30 3663 H 341.939 5.46148 3.63399 0
M  V30 3664 H 341.856 7.00343 2.84704 0
M  V30 3665 H 343.124 6.69338 3.99508 0
M  V30 3666 N 347.353 -0.0568162 1.57498 0
M  V30 3667 C 348.583 -0.764515 1.91934 0
M  V30 3668 C 348.991 -1.70877 0.81227 0
M  V30 3669 O 348.334 -1.82351 -0.222213 0
M  V30 3670 C 348.396 -1.5994 3.21962 0
M  V30 3671 C 348.06 -0.822925 4.4953 0
M  V30 3672 C 349.057 -0.135464 5.19723 0
M  V30 3673 C 346.742 -0.785666 4.96117 0
M  V30 3674 C 348.736 0.578861 6.34766 0
M  V30 3675 C 346.423 -0.0675784 6.11063 0
M  V30 3676 C 347.421 0.613471 6.80239 0
M  V30 3677 O 347.109 1.31996 7.92989 0
M  V30 3678 H 346.841 -0.221647 0.63863 0
M  V30 3679 H 349.395 -0.0268218 2.05382 0
M  V30 3680 H 347.625 -2.38026 3.04763 0
M  V30 3681 H 349.314 -2.18715 3.41934 0
M  V30 3682 H 350.08 -0.155458 4.84751 0
M  V30 3683 H 345.959 -1.30524 4.42136 0
M  V30 3684 H 349.503 1.111 6.88696 0
M  V30 3685 H 345.4 -0.0455636 6.45484 0
M  V30 3686 H 346.168 1.23077 8.09194 0
M  V30 3687 N 348.832 -1.54138 -0.328536 0
M  V30 3688 C 349.795 -1.82462 -1.38709 0
M  V30 3689 C 350.795 -0.696229 -1.44946 0
M  V30 3690 O 351.985 -0.964535 -1.4506 0
M  V30 3691 C 349.117 -1.98018 -2.77492 0
M  V30 3692 H 350.31 -2.77037 -1.14851 0
M  V30 3693 H 347.863 -1.45779 -0.563751 0
M  V30 3694 H 348.598 -1.05637 -3.06613 0
M  V30 3695 H 348.383 -2.80124 -2.74359 0
M  V30 3696 H 349.873 -2.21396 -3.54081 0
M  V30 3697 N 350.31 0.590341 -1.46126 0
M  V30 3698 C 351.721 1.17243 -1.45296 0
M  V30 3699 C 352.072 1.95281 -0.189723 0
M  V30 3700 O 351.197 2.04502 0.707674 0
M  V30 3701 C 351.792 2.13284 -2.6324 0
M  V30 3702 C 350.351 2.66832 -2.65476 0
M  V30 3703 C 349.498 1.42557 -2.3785 0
M  V30 3704 H 352.449 0.378692 -1.54116 0
M  V30 3705 H 352.47 2.96619 -2.38323 0
M  V30 3706 H 351.982 1.56459 -3.55165 0
M  V30 3707 H 350.083 3.27548 -1.77603 0
M  V30 3708 H 350.196 3.10088 -3.65215 0
M  V30 3709 H 348.56 1.72107 -1.87753 0
M  V30 3710 H 349.343 0.875741 -3.31942 0
M  V30 3711 N 351.788 1.33704 0.83433 0
M  V30 3712 C 352.735 1.24335 1.94447 0
M  V30 3713 C 353.705 0.120991 1.65659 0
M  V30 3714 O 354.89 0.300035 1.88426 0
M  V30 3715 C 352.03 0.993124 3.30501 0
M  V30 3716 C 351.143 2.20217 3.71657 0
M  V30 3717 C 350.278 1.88572 4.96602 0
M  V30 3718 C 349.317 3.05683 5.30306 0
M  V30 3719 N 348.454 2.73997 6.46429 0
M  V30 3720 H 353.294 2.1928 2.01792 0
M  V30 3721 H 350.831 1.09035 0.987404 0
M  V30 3722 H 352.789 0.828467 4.08892 0
M  V30 3723 H 351.419 0.0803902 3.227 0
M  V30 3724 H 350.471 2.47642 2.88752 0
M  V30 3725 H 351.783 3.07752 3.92543 0
M  V30 3726 H 350.937 1.68776 5.82752 0
M  V30 3727 H 349.676 0.982799 4.77695 0
M  V30 3728 H 348.681 3.26088 4.42659 0
M  V30 3729 H 349.906 3.96737 5.51159 0
M  V30 3730 H 347.852 1.86268 6.28999 0
M  V30 3731 H 347.769 3.55064 6.67432 0
M  V30 3732 H 349.037 2.57679 7.35678 0
M  V30 3733 N 353.266 -1.05314 1.17247 0
M  V30 3734 C 354.514 -1.77941 0.958194 0
M  V30 3735 C 354.835 -1.88089 -0.514556 0
M  V30 3736 O 354.105 -1.39676 -1.37359 0
M  V30 3737 H 352.685 -0.659116 0.351533 0
M  V30 3738 H 355.347 -1.27166 1.47699 0
M  V30 3739 H 354.443 -2.79663 1.38546 0
M  V30 3740 N 354.744 -0.972509 -1.24016 0
M  V30 3741 C 355.99 -0.637978 -1.92504 0
M  V30 3742 C 356.323 0.825383 -1.75787 0
M  V30 3743 O 355.598 1.59442 -1.11393 0
M  V30 3744 C 355.881 -1.01942 -3.45369 0
M  V30 3745 C 355.734 -2.53983 -3.71231 0
M  V30 3746 C 357.053 -0.55751 -4.36555 0
M  V30 3747 H 354.172 -0.233248 -0.699117 0
M  V30 3748 H 356.814 -1.21238 -1.46292 0
M  V30 3749 H 354.964 -0.530656 -3.84859 0
M  V30 3750 H 356.636 -3.10374 -3.41271 0
M  V30 3751 H 354.879 -2.96968 -3.16216 0
M  V30 3752 H 355.55 -2.75723 -4.78206 0
M  V30 3753 H 358.026 -0.977029 -4.04467 0
M  V30 3754 H 356.902 -0.85292 -5.42233 0
M  V30 3755 H 357.163 0.542328 -4.38761 0
M  V30 3756 N 356.222 1.38976 -0.743202 0
M  V30 3757 C 357.169 2.30544 -0.10861 0
M  V30 3758 C 358.139 1.49642 0.720869 0
M  V30 3759 O 359.324 1.78304 0.679142 0
M  V30 3760 C 356.464 3.36018 0.786496 0
M  V30 3761 C 355.577 4.31963 -0.0564849 0
M  V30 3762 C 354.712 5.24506 0.840657 0
M  V30 3763 C 353.751 6.121 -0.00658363 0
M  V30 3764 N 352.888 6.96973 0.846943 0
M  V30 3765 H 357.728 2.8424 -0.895088 0
M  V30 3766 H 355.265 1.3995 -0.453048 0
M  V30 3767 H 357.223 3.95768 1.31999 0
M  V30 3768 H 355.853 2.83758 1.53887 0
M  V30 3769 H 354.905 3.73763 -0.707492 0
M  V30 3770 H 356.217 4.93703 -0.711229 0
M  V30 3771 H 355.371 5.89322 1.4417 0
M  V30 3772 H 354.11 4.63107 1.52916 0
M  V30 3773 H 353.115 5.46289 -0.620366 0
M  V30 3774 H 354.34 6.75565 -0.691992 0
M  V30 3775 H 352.286 6.38133 1.52059 0
M  V30 3776 H 352.203 7.5559 0.248864 0
M  V30 3777 H 353.471 7.6621 1.43328 0
M  V30 3778 N 357.7 0.491464 1.49741 0
M  V30 3779 C 358.949 -0.0582189 2.01616 0
M  V30 3780 C 359.262 -1.38927 1.3769 0
M  V30 3781 O 360.468 -2.02509 1.80838 0
M  V30 3782 C 358.924 -0.154235 3.59569 0
M  V30 3783 C 358.532 1.1696 4.32463 0
M  V30 3784 C 360.276 -0.65479 4.1942 0
M  V30 3785 C 358.183 1.03627 5.8225 0
M  V30 3786 H 357.113 -0.0255317 0.753568 0
M  V30 3787 H 359.764 0.629445 1.72367 0
M  V30 3788 H 358.146 -0.906138 3.85493 0
M  V30 3789 H 359.32 1.93405 4.18248 0
M  V30 3790 H 357.635 1.60285 3.84315 0
M  V30 3791 H 360.232 -0.771903 5.29099 0
M  V30 3792 H 360.575 -1.65127 3.8215 0
M  V30 3793 H 361.108 0.040304 3.9778 0
M  V30 3794 H 357.847 2.00672 6.24028 0
M  V30 3795 H 357.367 0.312546 5.98985 0
M  V30 3796 H 359.046 0.711114 6.4308 0
M  V30 3797 N 359.178 -1.55987 0.224894 0
M  V30 3798 C 360.108 -2.23426 -0.678457 0
M  V30 3799 C 361.089 -1.20709 -1.19847 0
M  V30 3800 O 362.274 -1.49304 -1.24186 0
M  V30 3801 C 359.404 -2.91676 -1.88527 0
M  V30 3802 C 358.358 -4.00893 -1.49896 0
M  V30 3803 C 357.684 -4.56455 -2.78483 0
M  V30 3804 C 358.984 -5.17769 -0.686461 0
M  V30 3805 H 360.678 -2.99175 -0.116173 0
M  V30 3806 H 358.224 -1.43897 -0.054436 0
M  V30 3807 H 360.177 -3.37547 -2.5227 0
M  V30 3808 H 358.901 -2.1338 -2.47258 0
M  V30 3809 H 357.56 -3.55758 -0.884985 0
M  V30 3810 H 357.208 -3.74886 -3.35365 0
M  V30 3811 H 356.908 -5.30169 -2.53368 0
M  V30 3812 H 358.432 -5.05047 -3.43162 0
M  V30 3813 H 359.846 -5.60001 -1.22767 0
M  V30 3814 H 358.243 -5.97735 -0.532259 0
M  V30 3815 H 359.313 -4.83932 0.306196 0
M  V30 3816 N 360.656 0.0484629 -1.57525 0
M  V30 3817 C 361.586 1.0549 -2.08313 0
M  V30 3818 C 362.567 1.38929 -0.981463 0
M  V30 3819 O 363.752 1.48151 -1.25558 0
M  V30 3820 C 360.882 2.36162 -2.54646 0
M  V30 3821 C 359.836 2.17016 -3.68901 0
M  V30 3822 C 359.162 3.53278 -4.01371 0
M  V30 3823 C 360.462 1.57219 -4.98076 0
M  V30 3824 H 362.156 0.632195 -2.92649 0
M  V30 3825 H 359.702 0.302654 -1.40784 0
M  V30 3826 H 361.655 3.06882 -2.88793 0
M  V30 3827 H 360.379 2.80456 -1.67368 0
M  V30 3828 H 359.038 1.48733 -3.35073 0
M  V30 3829 H 358.686 3.95185 -3.11188 0
M  V30 3830 H 358.386 3.41299 -4.78318 0
M  V30 3831 H 359.91 4.25391 -4.38035 0
M  V30 3832 H 361.324 2.17832 -5.30304 0
M  V30 3833 H 359.721 1.55871 -5.79503 0
M  V30 3834 H 360.791 0.535956 -4.81929 0
M  V30 3835 N 362.134 1.5431 0.320358 0
M  V30 3836 C 363.359 1.76954 1.08175 0
M  V30 3837 C 363.784 0.518193 1.80821 0
M  V30 3838 O 363.142 -0.530411 1.73368 0
M  V30 3839 C 363.19 2.96451 2.05303 0
M  V30 3840 O 362.294 2.68221 3.13259 0
M  V30 3841 H 361.635 0.586275 0.311733 0
M  V30 3842 H 364.165 2.01342 0.363676 0
M  V30 3843 H 364.175 3.23887 2.48116 0
M  V30 3844 H 362.85 3.87196 1.51829 0
M  V30 3845 H 361.427 2.51744 2.75099 0
M  V30 3846 N 363.613 -0.582584 1.46437 0
M  V30 3847 C 365.024 -1.1647 1.45916 0
M  V30 3848 C 365.375 -1.95177 0.200077 0
M  V30 3849 O 364.5 -2.04874 -0.696819 0
M  V30 3850 C 365.095 -2.11885 2.64367 0
M  V30 3851 C 363.654 -2.65421 2.66887 0
M  V30 3852 C 362.801 -1.41294 2.38603 0
M  V30 3853 H 365.752 -0.370514 1.54314 0
M  V30 3854 H 365.773 -2.9535 2.39892 0
M  V30 3855 H 365.285 -1.54573 3.5599 0
M  V30 3856 H 363.386 -3.26602 1.79338 0
M  V30 3857 H 363.499 -3.08147 3.66854 0
M  V30 3858 H 361.863 -1.71109 1.88663 0
M  V30 3859 H 362.646 -0.858125 3.32402 0
M  V30 3860 N 365.091 -1.34144 -0.827227 0
M  V30 3861 C 366.316 -1.29476 -1.62021 0
M  V30 3862 C 366.741 0.129292 -1.87655 0
M  V30 3863 O 366.099 1.08967 -1.449 0
M  V30 3864 C 366.147 -2.08702 -2.94068 0
M  V30 3865 O 365.251 -1.45359 -3.85933 0
M  V30 3866 H 364.592 -0.444881 -0.492927 0
M  V30 3867 H 367.122 -1.76882 -1.02829 0
M  V30 3868 H 367.132 -2.19898 -3.43669 0
M  V30 3869 H 365.807 -3.12241 -2.74734 0
M  V30 3870 H 364.384 -1.42879 -3.44442 0
M  V30 3871 N 366.569 1.04691 -1.17803 0
M  V30 3872 C 367.817 1.7743 -0.967617 0
M  V30 3873 C 368.138 1.88359 0.504574 0
M  V30 3874 O 367.408 1.40402 1.36617 0
M  V30 3875 H 365.988 0.657242 -0.355024 0
M  V30 3876 H 368.65 1.2638 -1.48371 0
M  V30 3877 H 367.746 2.78924 -1.40027 0
M  V30 3878 N 368.047 0.979072 1.23499 0
M  V30 3879 C 369.463 0.687475 1.44034 0
M  V30 3880 C 369.663 -0.746801 1.8715 0
M  V30 3881 O 368.719 -1.51939 2.0167 0
M  V30 3882 C 370.032 1.68127 2.49307 0
M  V30 3883 C 371.58 1.69516 2.63122 0
M  V30 3884 C 372.055 2.67723 3.71603 0
M  V30 3885 N 373.546 2.66233 3.79044 0
M  V30 3886 C 374.281 3.38891 4.62537 0
M  V30 3887 N 373.777 4.21103 5.50131 0
M  V30 3888 N 375.57 3.27661 4.56721 0
M  V30 3889 H 367.721 1.90559 0.938135 0
M  V30 3890 H 369.984 0.821051 0.473897 0
M  V30 3891 H 369.69 2.70693 2.2454 0
M  V30 3892 H 369.564 1.46306 3.4767 0
M  V30 3893 H 371.951 0.676561 2.8724 0
M  V30 3894 H 372.032 1.95404 1.65079 0
M  V30 3895 H 371.676 3.69724 3.48233 0
M  V30 3896 H 371.606 2.39111 4.69184 0
M  V30 3897 H 374.097 2.06568 3.16446 0
M  V30 3898 H 374.41 4.73403 6.10827 0
M  V30 3899 H 372.755 4.25195 5.49759 0
M  V30 3900 H 375.946 2.62887 3.87309 0
M  V30 3901 H 376.119 3.84547 5.21562 0
M  V30 3902 N 369.525 -1.3858 0.750561 0
M  V30 3903 C 370.473 -2.32339 0.110162 0
M  V30 3904 C 371.467 -1.53864 -0.708674 0
M  V30 3905 O 372.673 -1.69417 -0.608112 0
M  V30 3906 H 369.048 -0.751812 0.0168275 0
M  V30 3907 H 371.019 -2.83959 0.917053 0
M  V30 3908 C 369.768 -3.39043 -0.771067 0
M  V30 3909 H 369.091 -3.99517 -0.150374 0
M  V30 3910 H 370.531 -4.07061 -1.1865 0
M  V30 3911 C 368.99 -2.77365 -1.91234 0
M  V30 3912 O 369.52 -2.66434 -3.00626 0
M  V30 3913 N 367.726 -2.35219 -1.70646 0
M  V30 3914 H 367.273 -2.4431 -0.81673 0
M  V30 3915 H 367.231 -1.94294 -2.47178 0
M  V30 3916 N 371.003 -0.499398 -1.49478 0
M  V30 3917 C 372.252 0.0475259 -2.01644 0
M  V30 3918 C 372.565 1.38195 -1.38425 0
M  V30 3919 O 373.771 2.01547 -1.8191 0
M  V30 3920 C 372.227 0.135164 -3.59646 0
M  V30 3921 C 371.835 -1.19252 -4.31837 0
M  V30 3922 C 373.579 0.632538 -4.19761 0
M  V30 3923 C 371.486 -1.06713 -5.81693 0
M  V30 3924 H 370.416 0.0215349 -0.753692 0
M  V30 3925 H 373.067 -0.638577 -1.7203 0
M  V30 3926 H 371.449 0.885681 -3.85969 0
M  V30 3927 H 372.623 -1.9562 -4.17216 0
M  V30 3928 H 370.938 -1.62321 -3.83459 0
M  V30 3929 H 373.535 0.743833 -5.29501 0
M  V30 3930 H 373.878 1.63098 -3.83021 0
M  V30 3931 H 374.411 -0.0613987 -3.97753 0
M  V30 3932 H 371.15 -2.03979 -6.22955 0
M  V30 3933 H 370.67 -0.344307 -5.98811 0
M  V30 3934 H 372.349 -0.745208 -6.42694 0
M  V30 3935 N 372.481 1.55866 -0.233164 0
M  V30 3936 C 373.411 2.23783 0.666599 0
M  V30 3937 C 374.392 1.21343 1.19205 0
M  V30 3938 O 375.577 1.4996 1.23392 0
M  V30 3939 C 372.707 2.92671 1.86978 0
M  V30 3940 C 371.661 4.01682 1.47768 0
M  V30 3941 C 370.987 4.57926 2.76058 0
M  V30 3942 C 372.287 5.18126 0.658993 0
M  V30 3943 H 373.981 2.99232 0.100306 0
M  V30 3944 H 371.527 1.43924 0.046804 0
M  V30 3945 H 373.48 3.3888 2.50476 0
M  V30 3946 H 372.204 2.14688 2.46123 0
M  V30 3947 H 370.863 3.56222 0.866106 0
M  V30 3948 H 370.511 3.76659 3.33372 0
M  V30 3949 H 370.211 5.31505 2.50552 0
M  V30 3950 H 371.735 5.06859 3.40479 0
M  V30 3951 H 373.149 5.60644 1.19795 0
M  V30 3952 H 371.546 5.98009 0.500552 0
M  V30 3953 H 372.616 4.83763 -0.331856 0
M  V30 3954 N 373.959 -0.0401083 1.57549 0
M  V30 3955 C 375.37 -0.588097 1.77196 0
M  V30 3956 C 375.721 -1.76209 0.862832 0
M  V30 3957 O 374.846 -2.16331 0.0548389 0
M  V30 3958 C 375.441 -1.07363 3.21339 0
M  V30 3959 C 374 -1.56723 3.42221 0
M  V30 3960 C 373.147 -0.50041 2.72747 0
M  V30 3961 H 376.098 0.186119 1.57605 0
M  V30 3962 H 376.119 -1.94143 3.27244 0
M  V30 3963 H 375.631 -0.218975 3.87482 0
M  V30 3964 H 373.732 -2.4441 2.81237 0
M  V30 3965 H 373.845 -1.62234 4.50796 0
M  V30 3966 H 372.209 -0.952894 2.36203 0
M  V30 3967 H 372.992 0.344599 3.41566 0
M  V30 3968 N 375.437 -1.54477 -0.31217 0
M  V30 3969 C 376.685 -1.72884 -1.04668 0
M  V30 3970 C 377.006 -0.511477 -1.88173 0
M  V30 3971 O 376.276 0.474407 -1.90069 0
M  V30 3972 H 374.856 -0.637461 -0.389425 0
M  V30 3973 H 377.518 -1.91807 -0.345852 0
M  V30 3974 H 376.614 -2.61334 -1.70619 0
M  V30 3975 N 376.915 0.57481 -1.46744 0
M  V30 3976 C 377.825 1.711 -1.60505 0
M  V30 3977 C 378.841 1.67008 -0.488307 0
M  V30 3978 O 380.017 1.86774 -0.753495 0
M  V30 3979 C 377.082 3.07608 -1.59932 0
M  V30 3980 C 376.143 3.22904 -2.82898 0
M  V30 3981 C 375.376 4.529 -2.82343 0
M  V30 3982 O 375.599 5.37278 -1.91542 0
M  V30 3983 O 374.533 4.71611 -3.73987 0
M  V30 3984 H 378.359 1.62436 -2.56609 0
M  V30 3985 H 375.944 0.742779 -1.29627 0
M  V30 3986 H 377.826 3.88877 -1.62336 0
M  V30 3987 H 376.501 3.16692 -0.669898 0
M  V30 3988 H 375.408 2.41099 -2.86046 0
M  V30 3989 H 376.741 3.18715 -3.75076 0
M  V30 3990 N 378.394 1.34581 0.820102 0
M  V30 3991 C 379.324 1.29038 1.94606 0
M  V30 3992 C 380.305 0.1673 1.69275 0
M  V30 3993 O 381.49 0.360112 1.90832 0
M  V30 3994 C 378.62 1.04793 3.31113 0
M  V30 3995 C 377.574 2.13597 3.70891 0
M  V30 3996 C 376.9 1.74537 5.05412 0
M  V30 3997 C 378.2 3.55451 3.8269 0
M  V30 3998 H 379.894 2.23248 1.99501 0
M  V30 3999 H 377.44 1.0747 0.958449 0
M  V30 4000 H 379.393 0.995592 4.0947 0
M  V30 4001 H 378.117 0.0702565 3.26524 0
M  V30 4002 H 376.776 2.17905 2.9481 0
M  V30 4003 H 376.424 0.754226 4.97313 0
M  V30 4004 H 376.124 2.47361 5.32997 0
M  V30 4005 H 377.648 1.70803 5.86224 0
M  V30 4006 H 379.062 3.5354 4.51312 0
M  V30 4007 H 377.459 4.26922 4.21732 0
M  V30 4008 H 378.529 3.92587 2.84611 0
M  V30 4009 N 379.872 -1.04064 1.18357 0
M  V30 4010 C 381.118 -1.77528 0.980397 0
M  V30 4011 C 381.451 -1.87948 -0.48879 0
M  V30 4012 O 380.726 -1.3876 -1.36293 0
M  V30 4013 C 381.009 -3.20797 1.63588 0
M  V30 4014 C 380.862 -3.1832 3.17793 0
M  V30 4015 C 382.181 -4.18911 1.34914 0
M  V30 4016 H 379.3 -0.644443 0.357578 0
M  V30 4017 H 381.942 -1.2156 1.46024 0
M  V30 4018 H 380.092 -3.68586 1.22788 0
M  V30 4019 H 381.764 -2.78521 3.67728 0
M  V30 4020 H 380.007 -2.56351 3.49952 0
M  V30 4021 H 380.678 -4.19489 3.58794 0
M  V30 4022 H 383.154 -3.7967 1.70265 0
M  V30 4023 H 382.03 -5.17374 1.83346 0
M  V30 4024 H 382.291 -4.41262 0.272027 0
M  V30 4025 N 381.35 -0.985608 -1.22978 0
M  V30 4026 C 382.578 -0.675582 -1.95559 0
M  V30 4027 C 382.993 0.758413 -1.72897 0
M  V30 4028 O 382.35 1.51094 -1.02357 0
M  V30 4029 C 382.401 -0.96293 -3.48439 0
M  V30 4030 O 382.122 -2.34057 -3.70336 0
M  V30 4031 C 383.623 -0.669585 -4.38214 0
M  V30 4032 H 380.843 -0.250523 -0.622478 0
M  V30 4033 H 383.387 -1.3184 -1.56328 0
M  V30 4034 H 381.542 -0.366033 -3.85667 0
M  V30 4035 H 381.956 -2.43424 -4.64591 0
M  V30 4036 H 383.43 -0.920967 -5.44263 0
M  V30 4037 H 383.907 0.396383 -4.37408 0
M  V30 4038 H 384.513 -1.2472 -4.06602 0
M  V30 4039 N 382.828 1.3818 -0.7579 0
M  V30 4040 C 383.758 2.33027 -0.148597 0
M  V30 4041 C 384.739 1.55085 0.69875 0
M  V30 4042 O 385.924 1.83384 0.639053 0
M  V30 4043 C 383.054 3.3928 0.742034 0
M  V30 4044 C 382.008 4.28 -0.00291946 0
M  V30 4045 C 381.334 5.25146 1.00625 0
M  V30 4046 C 382.634 5.08938 -1.17385 0
M  V30 4047 H 384.328 2.84231 -0.940909 0
M  V30 4048 H 381.874 1.36659 -0.453908 0
M  V30 4049 H 383.827 4.046 1.17799 0
M  V30 4050 H 382.551 2.86569 1.56671 0
M  V30 4051 H 381.21 3.64192 -0.419504 0
M  V30 4052 H 380.858 4.68721 1.8251 0
M  V30 4053 H 380.558 5.85361 0.512428 0
M  V30 4054 H 382.082 5.93342 1.44143 0
M  V30 4055 H 383.496 5.67474 -0.815224 0
M  V30 4056 H 381.893 5.7841 -1.59882 0
M  V30 4057 H 382.963 4.42424 -1.98468 0
M  V30 4058 N 384.306 0.507319 1.49211 0
M  V30 4059 C 385.534 -0.0315749 2.06876 0
M  V30 4060 C 385.949 -1.30241 1.36685 0
M  V30 4061 O 385.306 -1.76937 0.447152 0
M  V30 4062 C 385.357 -0.282627 3.60393 0
M  V30 4063 O 385.078 0.937835 4.27944 0
M  V30 4064 C 386.579 -0.864453 4.3479 0
M  V30 4065 H 383.799 0.0233048 0.670595 0
M  V30 4066 H 386.343 0.706484 1.91909 0
M  V30 4067 H 384.498 -0.97068 3.75042 0
M  V30 4068 H 384.912 0.704567 5.19746 0
M  V30 4069 H 386.386 -0.989664 5.43056 0
M  V30 4070 H 386.863 -1.86382 3.97692 0
M  V30 4071 H 387.469 -0.213672 4.24763 0
M  V30 4072 N 385.784 -1.5574 0.241426 0
M  V30 4073 C 387.024 -2.00714 -0.38644 0
M  V30 4074 C 387.388 -1.12586 -1.55526 0
M  V30 4075 O 388.589 -1.46992 -2.25048 0
M  V30 4076 C 386.86 -3.48534 -0.791128 0
M  V30 4077 S 388.419 -4.15519 -1.41029 0
M  V30 4078 H 385.237 -0.700484 -0.121834 0
M  V30 4079 H 387.839 -1.92243 0.355377 0
M  V30 4080 H 386.543 -4.10342 0.0689225 0
M  V30 4081 H 386.074 -3.6092 -1.56526 0
M  V30 4082 H 388.089 -4.16352 -2.69936 0
M  V30 4083 N 387.262 0.0317525 -1.57568 0
M  V30 4084 C 388.194 1.06073 -2.03178 0
M  V30 4085 C 389.207 1.32627 -0.944132 0
M  V30 4086 O 390.396 1.30162 -1.22148 0
M  V30 4087 C 387.496 2.40297 -2.38978 0
M  V30 4088 C 386.669 2.33137 -3.70089 0
M  V30 4089 C 385.728 3.49787 -3.9311 0
M  V30 4090 O 384.754 3.29403 -4.64201 0
M  V30 4091 N 385.956 4.71562 -3.38541 0
M  V30 4092 H 388.721 0.672006 -2.92069 0
M  V30 4093 H 386.282 0.219745 -1.60402 0
M  V30 4094 H 388.274 3.1705 -2.51518 0
M  V30 4095 H 386.844 2.71024 -1.55771 0
M  V30 4096 H 386.064 1.415 -3.67928 0
M  V30 4097 H 387.352 2.25493 -4.56104 0
M  V30 4098 H 386.75 4.91024 -2.80912 0
M  V30 4099 H 385.307 5.45689 -3.56464 0
M  V30 4100 N 388.74 1.54641 0.303973 0
M  V30 4101 C 389.986 1.74038 1.04109 0
M  V30 4102 C 390.319 0.523051 1.87024 0
M  V30 4103 O 389.594 -0.479874 1.88487 0
M  V30 4104 C 389.877 3.02761 1.94955 0
M  V30 4105 C 389.73 4.34787 1.1524 0
M  V30 4106 C 391.049 3.27336 2.94175 0
M  V30 4107 H 388.168 0.63323 0.377079 0
M  V30 4108 H 390.81 1.87354 0.316001 0
M  V30 4109 H 388.96 2.9154 2.56782 0
M  V30 4110 H 390.632 4.57922 0.557236 0
M  V30 4111 H 388.875 4.31407 0.455053 0
M  V30 4112 H 389.546 5.21116 1.8205 0
M  V30 4113 H 392.022 3.38148 2.42477 0
M  V30 4114 H 390.898 4.18726 3.54908 0
M  V30 4115 H 391.159 2.45491 3.67677 0
M  V30 4116 N 390.218 -0.567019 1.47046 0
M  V30 4117 C 391.166 -1.69593 1.59188 0
M  V30 4118 C 392.16 -1.63046 0.459609 0
M  V30 4119 O 393.366 -1.6835 0.637058 0
M  V30 4120 H 389.741 -0.560993 0.500791 0
M  V30 4121 H 391.712 -1.56488 2.54075 0
M  V30 4122 C 390.461 -3.07964 1.61411 0
M  V30 4123 H 389.784 -3.13679 2.47881 0
M  V30 4124 H 391.224 -3.86671 1.73958 0
M  V30 4125 C 389.683 -3.35123 0.34559 0
M  V30 4126 O 390.213 -3.97812 -0.557521 0
M  V30 4127 N 388.419 -2.89699 0.22864 0
M  V30 4128 H 387.966 -2.38863 0.964479 0
M  V30 4129 H 387.924 -3.08242 -0.619192 0
M  V30 4130 N 391.696 -1.35014 -0.812953 0
M  V30 4131 C 392.921 -1.31187 -1.60639 0
M  V30 4132 C 393.346 0.109382 -1.87782 0
M  V30 4133 O 392.704 1.07424 -1.46047 0
M  V30 4134 C 392.752 -2.11809 -2.91838 0
M  V30 4135 O 391.856 -1.49444 -3.8437 0
M  V30 4136 H 391.197 -0.450084 -0.488181 0
M  V30 4137 H 393.727 -1.77963 -1.00947 0
M  V30 4138 H 393.737 -2.23531 -3.41318 0
M  V30 4139 H 392.412 -3.15137 -2.71407 0
M  V30 4140 H 390.989 -1.46524 -3.42907 0
M  V30 4141 N 393.175 1.03435 -1.18907 0
M  V30 4142 C 394.4 1.80919 -1.01406 0
M  V30 4143 C 394.825 1.83055 0.432721 0
M  V30 4144 O 394.183 1.25252 1.31079 0
M  V30 4145 C 394.231 3.24091 -1.58105 0
M  V30 4146 O 393.335 4.04434 -0.806669 0
M  V30 4147 H 392.676 0.558709 -0.358803 0
M  V30 4148 H 395.206 1.30223 -1.57807 0
M  V30 4149 H 395.216 3.74853 -1.61087 0
M  V30 4150 H 393.891 3.21851 -2.6341 0
M  V30 4151 H 392.468 3.63091 -0.849666 0
M  V30 4152 N 394.653 0.992116 1.22453 0
M  V30 4153 C 395.883 0.684949 1.94915 0
M  V30 4154 C 396.291 -0.754292 1.73514 0
M  V30 4155 O 395.634 -1.52056 1.03076 0
M  V30 4156 C 395.696 0.910054 3.47791 0
M  V30 4157 C 395.36 2.33363 3.92926 0
M  V30 4158 C 396.357 3.31308 4.00663 0
M  V30 4159 C 394.042 2.66785 4.25595 0
M  V30 4160 C 396.036 4.6075 4.40441 0
M  V30 4161 C 393.723 3.96446 4.65053 0
M  V30 4162 C 394.721 4.9324 4.72444 0
M  V30 4163 O 394.409 6.20584 5.1101 0
M  V30 4164 H 394.141 0.25258 0.62704 0
M  V30 4165 H 396.695 1.32939 1.56577 0
M  V30 4166 H 394.925 0.208443 3.86138 0
M  V30 4167 H 396.614 0.598257 4.01467 0
M  V30 4168 H 397.38 3.0682 3.75615 0
M  V30 4169 H 393.259 1.92148 4.19047 0
M  V30 4170 H 396.803 5.363 4.46126 0
M  V30 4171 H 392.7 4.20724 4.89552 0
M  V30 4172 H 393.468 6.24509 5.29085 0
M  V30 4173 N 396.131 -1.37776 0.765217 0
M  V30 4174 C 397.542 -1.82521 0.392819 0
M  V30 4175 C 397.893 -1.63789 -1.08017 0
M  V30 4176 O 397.018 -1.14542 -1.83601 0
M  V30 4177 C 397.613 -3.31358 0.706214 0
M  V30 4178 C 396.172 -3.74406 0.386952 0
M  V30 4179 C 395.319 -2.60394 0.953422 0
M  V30 4180 H 398.27 -1.2634 0.960412 0
M  V30 4181 H 398.291 -3.80498 -0.0114706 0
M  V30 4182 H 397.803 -3.44959 1.77833 0
M  V30 4183 H 395.904 -3.66377 -0.678112 0
M  V30 4184 H 396.017 -4.70749 0.890636 0
M  V30 4185 H 394.381 -2.51878 0.378064 0
M  V30 4186 H 395.164 -2.76791 2.03081 0
M  V30 4187 N 397.609 -0.515225 -1.4894 0
M  V30 4188 C 398.572 0.244681 -2.2789 0
M  V30 4189 C 399.572 0.881166 -1.34507 0
M  V30 4190 O 400.762 0.743497 -1.57537 0
M  V30 4191 C 397.894 1.35247 -3.12923 0
M  V30 4192 H 399.087 -0.448289 -2.96531 0
M  V30 4193 H 396.64 -0.270656 -1.53939 0
M  V30 4194 H 397.375 2.07916 -2.48881 0
M  V30 4195 H 397.16 0.901374 -3.81599 0
M  V30 4196 H 398.65 1.88737 -3.72516 0
M  V30 4197 N 399.087 1.5561 -0.249682 0
M  V30 4198 C 400.333 1.99306 0.374841 0
M  V30 4199 C 400.666 1.13767 1.57387 0
M  V30 4200 O 399.941 0.201711 1.93451 0
M  V30 4201 C 400.224 3.51507 0.781986 0
M  V30 4202 C 400.077 4.4781 -0.422629 0
M  V30 4203 C 401.396 4.08884 1.62793 0
M  V30 4204 H 398.515 0.724572 0.134773 0
M  V30 4205 H 401.157 1.86719 -0.351549 0
M  V30 4206 H 399.307 3.62363 1.4009 0
M  V30 4207 H 400.979 4.48931 -1.06108 0
M  V30 4208 H 399.222 4.20518 -1.06524 0
M  V30 4209 H 399.893 5.51919 -0.0943766 0
M  V30 4210 H 402.369 4.01147 1.10547 0
M  V30 4211 H 401.245 5.1564 1.88166 0
M  V30 4212 H 401.506 3.57515 2.60068 0
M  V30 4213 N 400.565 -0.0233959 1.57583 0
M  V30 4214 C 401.79 -0.728376 1.94189 0
M  V30 4215 C 402.215 -1.67793 0.850119 0
M  V30 4216 O 401.573 -1.80262 -0.19371 0
M  V30 4217 C 401.621 -1.45669 3.29868 0
M  V30 4218 O 400.725 -2.57013 3.22518 0
M  V30 4219 H 400.066 -0.195493 0.63457 0
M  V30 4220 H 402.596 0.0228214 2.04587 0
M  V30 4221 H 402.606 -1.82535 3.6489 0
M  V30 4222 H 401.281 -0.760314 4.08891 0
M  V30 4223 H 399.858 -2.22648 2.99136 0
M  V30 4224 N 402.043 -1.548 -0.295768 0
M  V30 4225 C 403.268 -1.78653 -1.05346 0
M  V30 4226 C 403.693 -0.546894 -1.79974 0
M  V30 4227 O 403.051 0.502763 -1.7419 0
M  V30 4228 C 403.099 -2.99679 -2.00561 0
M  V30 4229 O 402.203 -2.7317 -3.08953 0
M  V30 4230 H 401.544 -0.59116 -0.302367 0
M  V30 4231 H 404.074 -2.01895 -0.331598 0
M  V30 4232 H 404.084 -3.27793 -2.42932 0
M  V30 4233 H 402.759 -3.89562 -1.4565 0
M  V30 4234 H 401.336 -2.56089 -2.71059 0
M  V30 4235 N 403.521 0.559213 -1.47345 0
M  V30 4236 C 404.77 1.31281 -1.53128 0
M  V30 4237 C 405.083 1.94602 -0.197344 0
M  V30 4238 O 406.289 2.71173 -0.133154 0
M  V30 4239 C 404.745 2.38051 -2.69925 0
M  V30 4240 C 404.353 1.8093 -4.0984 0
M  V30 4241 C 406.097 3.14604 -2.84999 0
M  V30 4242 C 404.004 2.85468 -5.1794 0
M  V30 4243 H 402.934 0.493614 -0.569966 0
M  V30 4244 H 405.585 0.594155 -1.73615 0
M  V30 4245 H 403.967 3.12822 -2.42814 0
M  V30 4246 H 405.141 1.12544 -4.46845 0
M  V30 4247 H 403.456 1.16967 -3.99634 0
M  V30 4248 H 406.053 3.92666 -3.62929 0
M  V30 4249 H 406.396 3.68665 -1.93369 0
M  V30 4250 H 406.929 2.46945 -3.1187 0
M  V30 4251 H 403.668 2.36264 -6.1144 0
M  V30 4252 H 403.188 3.52269 -4.85455 0
M  V30 4253 H 404.867 3.48996 -5.44803 0
M  V30 4254 N 404.999 1.35443 0.805782 0
M  V30 4255 C 405.946 1.28431 1.91766 0
M  V30 4256 C 406.916 0.156102 1.65365 0
M  V30 4257 O 408.101 0.339936 1.87747 0
M  V30 4258 C 405.241 1.06301 3.2832 0
M  V30 4259 C 404.354 2.2805 3.66902 0
M  V30 4260 C 403.489 1.99064 4.92491 0
M  V30 4261 C 402.528 3.16863 5.23703 0
M  V30 4262 N 401.665 2.87647 6.40471 0
M  V30 4263 H 406.505 2.23511 1.97096 0
M  V30 4264 H 404.042 1.11105 0.964054 0
M  V30 4265 H 406 0.915012 4.07042 0
M  V30 4266 H 404.63 0.148822 3.22457 0
M  V30 4267 H 403.682 2.53711 2.83434 0
M  V30 4268 H 404.994 3.1601 3.85927 0
M  V30 4269 H 404.148 1.81099 5.7904 0
M  V30 4270 H 402.887 1.0839 4.75503 0
M  V30 4271 H 401.892 3.35404 4.35642 0
M  V30 4272 H 403.117 4.08339 5.4262 0
M  V30 4273 H 401.063 1.99568 6.24907 0
M  V30 4274 H 400.98 3.69141 6.59751 0
M  V30 4275 H 402.248 2.73226 7.30047 0
M  V30 4276 N 406.477 -1.02803 1.19454 0
M  V30 4277 C 407.723 -1.76598 1.0092 0
M  V30 4278 C 408.078 -1.86939 -0.455142 0
M  V30 4279 O 407.371 -1.37575 -1.33355 0
M  V30 4280 C 407.565 -3.18941 1.6128 0
M  V30 4281 C 407.394 -3.22476 3.13431 0
M  V30 4282 C 406.164 -3.30375 3.82336 0
M  V30 4283 C 408.362 -3.09451 4.10785 0
M  V30 4284 N 406.344 -3.23292 5.21877 0
M  V30 4285 C 407.715 -3.10012 5.36929 0
M  V30 4286 C 409.77 -2.93585 4.02135 0
M  V30 4287 C 408.473 -2.96334 6.55423 0
M  V30 4288 C 410.499 -2.81256 5.20239 0
M  V30 4289 C 409.861 -2.82472 6.45282 0
M  V30 4290 H 405.96 -0.657447 0.423424 0
M  V30 4291 H 408.544 -1.22369 1.5144 0
M  V30 4292 H 406.715 -3.71489 1.1336 0
M  V30 4293 H 408.447 -3.81102 1.36173 0
M  V30 4294 H 405.202 -3.3663 3.33132 0
M  V30 4295 H 405.626 -3.23156 5.94894 0
M  V30 4296 H 410.268 -2.91466 3.0628 0
M  V30 4297 H 407.986 -2.97203 7.51463 0
M  V30 4298 H 411.572 -2.70014 5.15348 0
M  V30 4299 H 410.452 -2.73036 7.35133 0
M  V30 4300 N 407.956 -0.998596 -1.21925 0
M  V30 4301 C 408.886 -0.573688 -2.26343 0
M  V30 4302 C 409.867 0.402296 -1.65274 0
M  V30 4303 O 411.052 0.291683 -1.91997 0
M  V30 4304 C 408.182 0.106839 -3.47136 0
M  V30 4305 C 407.136 -0.788269 -4.20678 0
M  V30 4306 C 406.462 0.0254927 -5.34694 0
M  V30 4307 C 407.762 -2.08784 -4.78755 0
M  V30 4308 H 409.456 -1.44651 -2.62138 0
M  V30 4309 H 407.002 -0.696975 -1.26009 0
M  V30 4310 H 408.955 0.415531 -4.19346 0
M  V30 4311 H 407.679 1.01424 -3.10452 0
M  V30 4312 H 406.338 -1.08069 -3.50309 0
M  V30 4313 H 405.986 0.933989 -4.94253 0
M  V30 4314 H 405.686 -0.570437 -5.84825 0
M  V30 4315 H 407.21 0.328147 -6.09718 0
M  V30 4316 H 408.624 -1.84272 -5.42878 0
M  V30 4317 H 407.021 -2.63307 -5.39249 0
M  V30 4318 H 408.091 -2.76284 -3.98491 0
M  V30 4319 N 409.434 1.37368 -0.772513 0
M  V30 4320 C 410.381 2.30262 -0.157488 0
M  V30 4321 C 411.351 1.51137 0.688965 0
M  V30 4322 O 412.536 1.79704 0.641168 0
M  V30 4323 C 409.676 3.37611 0.715045 0
M  V30 4324 C 408.789 4.31746 -0.148098 0
M  V30 4325 C 407.924 5.26171 0.729213 0
M  V30 4326 C 406.963 6.11948 -0.136418 0
M  V30 4327 N 406.1 6.98613 0.698914 0
M  V30 4328 H 410.94 2.82277 -0.955179 0
M  V30 4329 H 408.477 1.38957 -0.482631 0
M  V30 4330 H 410.435 3.98479 1.23575 0
M  V30 4331 H 409.065 2.86959 1.47833 0
M  V30 4332 H 408.117 3.72178 -0.786613 0
M  V30 4333 H 409.429 4.92084 -0.81579 0
M  V30 4334 H 408.583 5.92247 1.31637 0
M  V30 4335 H 407.322 4.66246 1.43059 0
M  V30 4336 H 406.327 5.4485 -0.736102 0
M  V30 4337 H 407.552 6.73945 -0.835134 0
M  V30 4338 H 405.498 6.41215 1.38489 0
M  V30 4339 H 405.415 7.55948 0.0885358 0
M  V30 4340 H 406.683 7.69077 1.27044 0
M  V30 4341 N 410.912 0.523116 1.48665 0
M  V30 4342 C 412.189 -0.0775449 1.95446 0
M  V30 4343 C 412.569 -1.5197 1.4652 0
M  V30 4344 O 411.917 -2.17876 0.688657 0
M  V30 4345 C 412.127 0.0326135 3.48985 0
M  V30 4346 C 413.475 -0.130141 4.24401 0
M  V30 4347 O 414.499 -0.0415142 3.56176 0
M  V30 4348 O 413.358 -0.31491 5.45592 0
M  V30 4349 H 410.452 -0.0831012 0.822814 0
M  V30 4350 H 412.998 0.587227 1.59216 0
M  V30 4351 H 411.77 1.03748 3.77296 0
M  V30 4352 H 411.393 -0.671317 3.91892 0
M  V30 4353 N 412.39 -1.55475 0.257931 0
M  V30 4354 C 413.638 -1.98813 -0.363009 0
M  V30 4355 C 413.959 -1.14757 -1.57657 0
M  V30 4356 O 413.229 -0.232956 -1.9451 0
M  V30 4357 H 411.809 -0.734308 -0.137113 0
M  V30 4358 H 414.471 -1.9156 0.359281 0
M  V30 4359 H 413.567 -3.04941 -0.664634 0
M  V30 4360 N 413.868 0.0150385 -1.57593 0
M  V30 4361 C 415.114 0.704043 -1.90187 0
M  V30 4362 C 415.447 1.74249 -0.857366 0
M  V30 4363 O 414.722 1.94092 0.125843 0
M  V30 4364 C 415.005 1.36087 -3.33395 0
M  V30 4365 C 414.858 0.334981 -4.48551 0
M  V30 4366 C 416.177 2.29112 -3.7576 0
M  V30 4367 H 413.296 0.254475 -0.691673 0
M  V30 4368 H 415.938 -0.0331678 -1.89971 0
M  V30 4369 H 414.088 1.98922 -3.3371 0
M  V30 4370 H 415.76 -0.292534 -4.60372 0
M  V30 4371 H 414.003 -0.344325 -4.32431 0
M  V30 4372 H 414.674 0.833316 -5.45674 0
M  V30 4373 H 417.15 1.76308 -3.76902 0
M  V30 4374 H 416.026 2.72043 -4.76743 0
M  V30 4375 H 416.287 3.16385 -3.08793 0
M  V30 4376 N 415.346 1.54954 0.287554 0
M  V30 4377 C 416.762 1.46469 0.633964 0
M  V30 4378 C 416.962 0.666865 1.90145 0
M  V30 4379 O 416.018 0.179906 2.51858 0
M  V30 4380 C 417.331 2.90556 0.774454 0
M  V30 4381 C 418.879 3.00681 0.869462 0
M  V30 4382 C 419.354 4.45993 1.04184 0
M  V30 4383 N 420.845 4.4976 1.10772 0
M  V30 4384 C 421.58 5.59393 1.25964 0
M  V30 4385 N 421.076 6.78923 1.37968 0
M  V30 4386 N 422.869 5.47107 1.28959 0
M  V30 4387 H 415.02 2.05288 -0.545041 0
M  V30 4388 H 417.283 0.930305 -0.182308 0
M  V30 4389 H 416.989 3.51594 -0.086207 0
M  V30 4390 H 416.863 3.38743 1.6593 0
M  V30 4391 H 419.25 2.39749 1.7206 0
M  V30 4392 H 419.331 2.55769 -0.0396831 0
M  V30 4393 H 418.975 5.07524 0.195422 0
M  V30 4394 H 418.905 4.88548 1.96542 0
M  V30 4395 H 421.396 3.63651 1.02794 0
M  V30 4396 H 421.709 7.58231 1.49353 0
M  V30 4397 H 420.054 6.81763 1.34999 0
M  V30 4398 H 423.245 4.52668 1.19202 0
M  V30 4399 H 423.418 6.32595 1.40455 0
M  V30 4400 N 416.824 -0.551391 1.4764 0
M  V30 4401 C 417.754 -1.66757 1.63445 0
M  V30 4402 C 418.735 -1.63077 0.483742 0
M  V30 4403 O 419.92 -1.80607 0.71377 0
M  V30 4404 C 417.05 -3.05387 1.65396 0
M  V30 4405 C 416.004 -3.23918 2.79752 0
M  V30 4406 C 415.33 -4.63393 2.66779 0
M  V30 4407 C 416.63 -3.08735 4.21284 0
M  V30 4408 H 418.324 -1.53786 2.56886 0
M  V30 4409 H 415.87 -0.738415 1.23626 0
M  V30 4410 H 417.823 -3.83325 1.75043 0
M  V30 4411 H 416.547 -3.19332 0.685195 0
M  V30 4412 H 415.206 -2.48391 2.69625 0
M  V30 4413 H 414.854 -4.74144 1.67918 0
M  V30 4414 H 414.554 -4.7674 3.43501 0
M  V30 4415 H 416.078 -5.43458 2.78364 0
M  V30 4416 H 417.492 -3.76484 4.32357 0
M  V30 4417 H 415.889 -3.33588 4.98838 0
M  V30 4418 H 416.959 -2.0541 4.39243 0
M  V30 4419 N 418.302 -1.35869 -0.798587 0
M  V30 4420 C 419.234 -1.25305 -1.91915 0
M  V30 4421 C 420.247 -0.174548 -1.61862 0
M  V30 4422 O 421.436 -0.428499 -1.73281 0
M  V30 4423 C 418.536 -0.9086 -3.26493 0
M  V30 4424 C 417.709 -2.08711 -3.84394 0
M  V30 4425 C 416.768 -1.71717 -4.97393 0
M  V30 4426 O 415.794 -2.43692 -5.14396 0
M  V30 4427 N 416.996 -0.645473 -5.769 0
M  V30 4428 H 419.761 -2.21849 -2.01502 0
M  V30 4429 H 417.322 -1.29143 -0.976408 0
M  V30 4430 H 419.314 -0.642455 -3.99568 0
M  V30 4431 H 417.884 -0.0325815 -3.12583 0
M  V30 4432 H 417.104 -2.51659 -3.03416 0
M  V30 4433 H 418.392 -2.87468 -4.19809 0
M  V30 4434 H 417.79 -0.047648 -5.6568 0
M  V30 4435 H 416.347 -0.43913 -6.50319 0
M  V30 4436 N 419.78 1.02168 -1.19998 0
M  V30 4437 C 421.008 1.79296 -1.03249 0
M  V30 4438 C 421.423 1.84103 0.418502 0
M  V30 4439 O 420.78 1.29031 1.29063 0
M  V30 4440 C 420.831 3.24007 -1.60319 0
M  V30 4441 O 420.552 3.19512 -2.99739 0
M  V30 4442 C 422.053 4.17704 -1.48453 0
M  V30 4443 H 419.273 0.564016 -0.363493 0
M  V30 4444 H 421.817 1.28639 -1.58973 0
M  V30 4445 H 419.972 3.7183 -1.08727 0
M  V30 4446 H 420.386 4.10306 -3.26725 0
M  V30 4447 H 421.86 5.17104 -1.93153 0
M  V30 4448 H 422.337 4.37029 -0.436193 0
M  V30 4449 H 422.943 3.7576 -1.99211 0
M  V30 4450 N 421.258 1.00505 1.21394 0
M  V30 4451 C 422.205 0.565496 2.23765 0
M  V30 4452 C 423.175 -0.408466 1.60999 0
M  V30 4453 O 424.36 -0.310503 1.88257 0
M  V30 4454 C 421.5 -0.101667 3.4495 0
M  V30 4455 C 420.613 0.915479 4.22188 0
M  V30 4456 C 419.748 0.220574 5.30742 0
M  V30 4457 C 418.787 1.22527 5.99711 0
M  V30 4458 N 417.924 0.557831 6.9988 0
M  V30 4459 H 422.764 1.44314 2.60725 0
M  V30 4460 H 420.301 0.722643 1.28126 0
M  V30 4461 H 422.259 -0.505504 4.14126 0
M  V30 4462 H 420.889 -0.94303 3.08718 0
M  V30 4463 H 419.941 1.43756 3.52191 0
M  V30 4464 H 421.253 1.68005 4.69655 0
M  V30 4465 H 420.407 -0.239368 6.06228 0
M  V30 4466 H 419.146 -0.576401 4.84282 0
M  V30 4467 H 418.151 1.69571 5.22997 0
M  V30 4468 H 419.376 2.02332 6.48258 0
M  V30 4469 H 417.322 -0.219486 6.55633 0
M  V30 4470 H 417.239 1.26065 7.45415 0
M  V30 4471 H 418.507 0.121095 7.79406 0
M  V30 4472 N 422.737 -1.36956 0.779787 0
M  V30 4473 C 423.965 -2.03755 0.359398 0
M  V30 4474 C 424.38 -1.58807 -1.02106 0
M  V30 4475 O 423.737 -0.773024 -1.6532 0
M  V30 4476 C 423.788 -3.59251 0.402568 0
M  V30 4477 O 423.509 -4.02557 1.72858 0
M  V30 4478 C 425.01 -4.43291 -0.0284068 0
M  V30 4479 H 422.23 -0.654148 0.149437 0
M  V30 4480 H 424.774 -1.75128 1.05595 0
M  V30 4481 H 422.929 -3.86621 -0.245478 0
M  V30 4482 H 423.343 -4.97111 1.67275 0
M  V30 4483 H 424.817 -5.51975 0.0529466 0
M  V30 4484 H 425.294 -4.25719 -1.07982 0
M  V30 4485 H 425.9 -4.21163 0.591758 0
M  V30 4486 N 424.215 -0.530993 -1.48385 0
M  V30 4487 C 425.463 0.00273189 -2.021 0
M  V30 4488 C 425.784 1.34672 -1.41027 0
M  V30 4489 O 425.054 1.8724 -0.576012 0
M  V30 4490 H 423.634 0.00399774 -0.746989 0
M  V30 4491 H 426.296 -0.695054 -1.82085 0
M  V30 4492 H 425.392 0.11031 -3.11905 0
M  V30 4493 N 425.693 1.55336 -0.266172 0
M  V30 4494 C 426.939 1.99692 0.353681 0
M  V30 4495 C 427.272 1.1543 1.56172 0
M  V30 4496 O 426.547 0.222218 1.93226 0
M  V30 4497 C 426.83 3.52316 0.74466 0
M  V30 4498 C 426.683 4.47337 -0.470101 0
M  V30 4499 C 428.002 4.10588 1.58447 0
M  V30 4500 H 425.121 0.725961 0.12708 0
M  V30 4501 H 427.763 1.86336 -0.371333 0
M  V30 4502 H 425.913 3.63829 1.36239 0
M  V30 4503 H 427.585 4.4778 -1.10864 0
M  V30 4504 H 425.828 4.19364 -1.10978 0
M  V30 4505 H 426.499 5.51788 -0.15291 0
M  V30 4506 H 428.975 4.02297 1.06286 0
M  V30 4507 H 427.851 5.17607 1.82686 0
M  V30 4508 H 428.112 3.60253 2.56262 0
M  V30 4509 N 427.171 -0.0066808 1.57599 0
M  V30 4510 C 428.101 -0.999296 2.11036 0
M  V30 4511 C 429.082 -1.36278 1.01795 0
M  V30 4512 O 430.267 -1.4477 1.29442 0
M  V30 4513 C 427.397 -2.29328 2.60818 0
M  V30 4514 C 426.351 -2.07159 3.74525 0
M  V30 4515 C 425.677 -3.42512 4.10596 0
M  V30 4516 C 426.977 -1.43959 5.02069 0
M  V30 4517 H 428.671 -0.554382 2.94223 0
M  V30 4518 H 426.217 -0.265221 1.41536 0
M  V30 4519 H 428.17 -2.99117 2.96828 0
M  V30 4520 H 426.894 -2.7592 1.74745 0
M  V30 4521 H 425.553 -1.39797 3.38899 0
M  V30 4522 H 425.201 -3.86795 3.21556 0
M  V30 4523 H 424.901 -3.28498 4.87199 0
M  V30 4524 H 426.425 -4.13628 4.4916 0
M  V30 4525 H 427.839 -2.03696 5.35893 0
M  V30 4526 H 426.236 -1.40452 5.83432 0
M  V30 4527 H 427.306 -0.407992 4.83181 0
M  V30 4528 N 428.649 -1.55105 -0.279332 0
M  V30 4529 C 429.599 -1.83937 -1.34727 0
M  V30 4530 C 430.583 -0.69785 -1.44979 0
M  V30 4531 O 431.775 -0.95904 -1.48766 0
M  V30 4532 C 428.904 -2.1092 -2.70864 0
M  V30 4533 C 427.99 -3.31314 -2.64748 0
M  V30 4534 N 428.381 -4.51371 -2.2825 0
M  V30 4535 C 426.679 -3.33777 -2.95819 0
M  V30 4536 C 427.38 -5.33447 -2.31969 0
M  V30 4537 N 426.356 -4.71697 -2.7019 0
M  V30 4538 H 430.158 -2.74309 -1.05506 0
M  V30 4539 H 427.672 -1.54896 -0.487959 0
M  V30 4540 H 429.669 -2.2973 -3.47893 0
M  V30 4541 H 428.329 -1.21828 -3.00979 0
M  V30 4542 H 429.34 -4.77584 -2.00335 0
M  V30 4543 H 426.017 -2.54858 -3.30687 0
M  V30 4544 H 427.407 -6.39424 -2.06365 0
M  V30 4545 N 430.127 0.543554 -1.4793 0
M  V30 4546 C 431.057 1.65888 -1.64327 0
M  V30 4547 C 432.038 1.62818 -0.492383 0
M  V30 4548 O 433.223 1.80226 -0.723338 0
M  V30 4549 C 430.353 3.04506 -1.67013 0
M  V30 4550 C 429.307 3.2243 -2.81466 0
M  V30 4551 C 428.633 4.61972 -2.69233 0
M  V30 4552 C 429.933 3.06496 -4.22915 0
M  V30 4553 H 431.627 1.52421 -2.57698 0
M  V30 4554 H 429.173 0.731849 -1.24016 0
M  V30 4555 H 431.126 3.82391 -1.77074 0
M  V30 4556 H 429.85 3.18964 -0.70212 0
M  V30 4557 H 428.509 2.46957 -2.70938 0
M  V30 4558 H 428.157 4.73247 -1.7043 0
M  V30 4559 H 427.857 4.74911 -3.46025 0
M  V30 4560 H 429.381 5.41974 -2.81242 0
M  V30 4561 H 430.795 3.74186 -4.34348 0
M  V30 4562 H 429.192 3.30938 -5.006 0
M  V30 4563 H 430.262 2.03077 -4.40327 0
M  V30 4564 N 431.605 1.3629 0.791371 0
M  V30 4565 C 433.016 1.27225 1.36641 0
M  V30 4566 C 433.367 -0.0887968 1.95999 0
M  V30 4567 O 432.492 -0.990207 1.92416 0
M  V30 4568 C 433.087 2.30375 2.48421 0
M  V30 4569 C 431.646 2.25004 3.01746 0
M  V30 4570 C 430.793 2.15259 1.7481 0
M  V30 4571 H 433.744 1.47198 0.593173 0
M  V30 4572 H 433.765 1.93905 3.27385 0
M  V30 4573 H 433.277 3.29422 2.05189 0
M  V30 4574 H 431.378 1.29417 3.49403 0
M  V30 4575 H 431.491 3.1761 3.58693 0
M  V30 4576 H 429.855 1.61482 1.96966 0
M  V30 4577 H 430.638 3.16191 1.33709 0
M  V30 4578 N 433.083 -1.0153 1.20538 0
M  V30 4579 C 434.015 -2.10224 0.913155 0
M  V30 4580 C 435.028 -1.62495 -0.0995998 0
M  V30 4581 O 436.217 -1.78014 0.131582 0
M  V30 4582 C 433.317 -3.37111 0.347717 0
M  V30 4583 C 432.49 -4.13971 1.41233 0
M  V30 4584 C 431.549 -5.19158 0.857976 0
M  V30 4585 O 430.575 -5.48 1.53897 0
M  V30 4586 N 431.777 -5.7955 -0.331966 0
M  V30 4587 H 434.542 -2.35879 1.84881 0
M  V30 4588 H 432.103 -1.17931 1.10923 0
M  V30 4589 H 434.095 -4.04683 -0.0373026 0
M  V30 4590 H 432.665 -3.08696 -0.492527 0
M  V30 4591 H 431.885 -3.41351 1.97163 0
M  V30 4592 H 433.173 -4.62103 2.12928 0
M  V30 4593 H 432.571 -5.58455 -0.902478 0
M  V30 4594 H 431.128 -6.48464 -0.65861 0
M  V30 4595 N 434.561 -1.01147 -1.20859 0
M  V30 4596 C 435.524 -0.582224 -2.21682 0
M  V30 4597 C 436.524 0.344887 -1.57058 0
M  V30 4598 O 437.714 0.134281 -1.73682 0
M  V30 4599 C 434.846 0.150496 -3.40568 0
M  V30 4600 H 436.039 -1.47408 -2.61172 0
M  V30 4601 H 433.592 -0.800695 -1.34233 0
M  V30 4602 H 434.327 1.0575 -3.06574 0
M  V30 4603 H 434.112 -0.515444 -3.88697 0
M  V30 4604 H 435.602 0.438344 -4.15293 0
M  V30 4605 N 436.039 1.36541 -0.78704 0
M  V30 4606 C 437.002 2.28413 -0.189778 0
M  V30 4607 C 438.002 1.48719 0.611499 0
M  V30 4608 O 439.192 1.68737 0.432842 0
M  V30 4609 C 436.324 3.32824 0.737638 0
M  V30 4610 H 437.517 2.82743 -0.999831 0
M  V30 4611 H 435.07 1.46065 -0.556298 0
M  V30 4612 H 435.805 2.83646 1.57212 0
M  V30 4613 H 435.59 3.91752 0.165044 0
M  V30 4614 H 437.08 4.0144 1.15047 0
M  V30 4615 N 437.518 0.538854 1.48102 0
M  V30 4616 C 438.764 0.0161732 2.03394 0
M  V30 4617 C 439.119 -1.31154 1.40771 0
M  V30 4618 O 438.412 -1.83613 0.547421 0
M  V30 4619 C 438.606 -0.153808 3.57069 0
M  V30 4620 C 438.435 1.15588 4.34591 0
M  V30 4621 C 437.205 1.71818 4.75191 0
M  V30 4622 C 439.403 2.06867 4.70861 0
M  V30 4623 N 437.385 2.96983 5.37284 0
M  V30 4624 C 438.756 3.16609 5.33066 0
M  V30 4625 C 440.811 2.07085 4.52791 0
M  V30 4626 C 439.514 4.26645 5.79109 0
M  V30 4627 C 441.54 3.16121 4.99821 0
M  V30 4628 C 440.902 4.24582 5.62058 0
M  V30 4629 H 437.001 0.0476346 0.780548 0
M  V30 4630 H 439.585 0.722094 1.80815 0
M  V30 4631 H 437.756 -0.828825 3.79454 0
M  V30 4632 H 439.488 -0.676896 3.98999 0
M  V30 4633 H 436.243 1.25845 4.56574 0
M  V30 4634 H 436.667 3.60732 5.72889 0
M  V30 4635 H 441.309 1.24522 4.04047 0
M  V30 4636 H 439.027 5.0998 6.26854 0
M  V30 4637 H 442.613 3.17355 4.87624 0
M  V30 4638 H 441.493 5.07562 5.97788 0
M  V30 4639 N 438.996 -1.55193 0.274407 0
M  V30 4640 C 440.221 -2.04446 -0.348824 0
M  V30 4641 C 440.646 -1.15149 -1.48735 0
M  V30 4642 O 440.004 -0.149952 -1.80679 0
M  V30 4643 C 440.052 -3.51431 -0.808009 0
M  V30 4644 O 439.156 -3.65225 -1.91531 0
M  V30 4645 H 438.497 -0.66006 -0.0722276 0
M  V30 4646 H 441.027 -2.00481 0.408498 0
M  V30 4647 H 441.037 -3.92781 -1.10395 0
M  V30 4648 H 439.712 -4.15892 0.0249865 0
M  V30 4649 H 438.289 -3.35778 -1.62196 0
M  V30 4650 N 440.474 -0.00167713 -1.576 0
M  V30 4651 C 441.751 0.719951 -1.81868 0
M  V30 4652 C 442.131 1.91895 -0.879747 0
M  V30 4653 O 441.479 2.28389 0.0711423 0
M  V30 4654 C 441.689 1.12409 -3.30402 0
M  V30 4655 C 443.037 1.52724 -3.96182 0
M  V30 4656 O 444.061 1.21784 -3.34734 0
M  V30 4657 O 442.92 2.10265 -5.04431 0
M  V30 4658 H 440.014 0.350707 -0.748955 0
M  V30 4659 H 442.56 -0.0272597 -1.69678 0
M  V30 4660 H 441.332 0.269532 -3.90371 0
M  V30 4661 H 440.955 1.93035 -3.47596 0
M  V30 4662 N 441.952 1.55251 0.271103 0
M  V30 4663 C 442.915 1.87484 1.31842 0
M  V30 4664 C 443.915 0.749545 1.42262 0
M  V30 4665 O 445.105 1.01771 1.4138 0
M  V30 4666 C 442.237 2.0818 2.69951 0
M  V30 4667 H 443.43 2.81108 1.0449 0
M  V30 4668 H 440.983 1.47771 0.509258 0
M  V30 4669 H 441.718 1.16944 3.02481 0
M  V30 4670 H 441.503 2.90114 2.63774 0
M  V30 4671 H 442.993 2.34385 3.4562 0
M  V30 4672 N 443.43 -0.535701 1.48216 0
M  V30 4673 C 444.678 -1.28928 1.55634 0
M  V30 4674 C 444.999 -1.93645 0.229514 0
M  V30 4675 O 444.269 -1.81038 -0.74846 0
M  V30 4676 H 442.849 -0.47884 0.573342 0
M  V30 4677 H 445.511 -0.623853 1.84646 0
M  V30 4678 H 444.607 -2.07157 2.33436 0
M  V30 4679 N 444.908 -1.36708 -0.784132 0
M  V30 4680 C 446.154 -1.31426 -1.54451 0
M  V30 4681 C 446.487 0.10476 -1.93917 0
M  V30 4682 O 445.762 1.05934 -1.6312 0
M  V30 4683 C 446.045 -2.24189 -2.818 0
M  V30 4684 C 445.898 -3.74813 -2.48667 0
M  V30 4685 C 447.217 -2.15626 -3.83658 0
M  V30 4686 H 444.336 -0.478739 -0.560337 0
M  V30 4687 H 446.978 -1.67305 -0.900498 0
M  V30 4688 H 445.128 -1.93722 -3.36755 0
M  V30 4689 H 446.8 -4.15823 -1.99722 0
M  V30 4690 H 445.043 -3.93989 -1.81535 0
M  V30 4691 H 445.714 -4.35138 -3.39646 0
M  V30 4692 H 448.19 -2.42456 -3.38163 0
M  V30 4693 H 447.066 -2.82694 -4.70506 0
M  V30 4694 H 447.327 -1.14522 -4.27009 0
M  V30 4695 N 446.386 1.0089 -1.21074 0
M  V30 4696 C 447.616 1.77933 -1.04993 0
M  V30 4697 C 448.024 1.84847 0.403495 0
M  V30 4698 O 447.367 1.30606 1.29181 0
M  V30 4699 C 447.429 3.23541 -1.56722 0
M  V30 4700 C 447.093 3.40214 -3.05129 0
M  V30 4701 C 448.09 3.2881 -4.02716 0
M  V30 4702 C 445.775 3.65781 -3.44252 0
M  V30 4703 C 447.769 3.42732 -5.37414 0
M  V30 4704 C 445.456 3.79346 -4.79103 0
M  V30 4705 C 446.454 3.67827 -5.75493 0
M  V30 4706 O 446.142 3.80965 -7.07899 0
M  V30 4707 H 445.874 0.566157 -0.369381 0
M  V30 4708 H 448.428 1.27826 -1.60779 0
M  V30 4709 H 446.658 3.74766 -0.953285 0
M  V30 4710 H 448.347 3.82245 -1.36543 0
M  V30 4711 H 449.113 3.08986 -3.73835 0
M  V30 4712 H 444.992 3.73831 -2.69762 0
M  V30 4713 H 448.536 3.33658 -6.12632 0
M  V30 4714 H 444.433 3.98672 -5.07672 0
M  V30 4715 H 445.201 3.97937 -7.15254 0
M  V30 4716 N 447.864 1.01787 1.20321 0
M  V30 4717 C 449.092 0.727194 1.937 0
M  V30 4718 C 449.507 -0.712305 1.74848 0
M  V30 4719 O 448.864 -1.48327 1.06327 0
M  V30 4720 C 448.915 1.05497 3.45764 0
M  V30 4721 O 448.636 2.43794 3.64 0
M  V30 4722 C 450.137 0.785534 4.36285 0
M  V30 4723 H 447.357 0.266939 0.615617 0
M  V30 4724 H 449.901 1.35939 1.52777 0
M  V30 4725 H 448.056 0.468158 3.84561 0
M  V30 4726 H 448.47 2.55656 4.57974 0
M  V30 4727 H 449.944 1.06495 5.4163 0
M  V30 4728 H 450.421 -0.280273 4.38305 0
M  V30 4729 H 451.027 1.35456 4.03152 0
M  V30 4730 N 449.342 -1.36122 0.79427 0
M  V30 4731 C 450.582 -2.00942 0.374376 0
M  V30 4732 C 450.946 -1.61666 -1.03577 0
M  V30 4733 O 452.147 -2.19113 -1.55701 0
M  V30 4734 C 450.418 -3.53323 0.538327 0
M  V30 4735 S 451.977 -4.38311 0.20703 0
M  V30 4736 H 448.795 -0.696515 0.142785 0
M  V30 4737 H 451.397 -1.65929 1.03382 0
M  V30 4738 H 450.101 -3.79395 1.56484 0
M  V30 4739 H 449.632 -3.93162 -0.136882 0
M  V30 4740 H 451.647 -4.8623 -0.989695 0
M  V30 4741 N 450.82 -0.546701 -1.47814 0
M  V30 4742 C 451.752 0.244196 -2.27895 0
M  V30 4743 C 452.765 0.88911 -1.36377 0
M  V30 4744 O 453.954 0.764733 -1.61289 0
M  V30 4745 C 451.054 1.36252 -3.10304 0
M  V30 4746 C 450.227 0.816382 -4.29714 0
M  V30 4747 C 449.286 1.81789 -4.93801 0
M  V30 4748 O 448.312 1.36818 -5.52512 0
M  V30 4749 N 449.514 3.15085 -4.87547 0
M  V30 4750 H 452.279 -0.442694 -2.96412 0
M  V30 4751 H 449.84 -0.382095 -1.57327 0
M  V30 4752 H 451.832 2.03102 -3.50045 0
M  V30 4753 H 450.402 1.95281 -2.44099 0
M  V30 4754 H 449.622 -0.0285981 -3.9419 0
M  V30 4755 H 450.91 0.430668 -5.06974 0
M  V30 4756 H 450.308 3.54275 -4.41028 0
M  V30 4757 H 448.865 3.77522 -5.31339 0
M  V30 4758 N 452.299 1.55045 -0.282633 0
M  V30 4759 C 453.262 2.21515 0.588539 0
M  V30 4760 C 454.262 1.19535 1.07554 0
M  V30 4761 O 455.452 1.44391 0.974514 0
M  V30 4762 C 452.584 2.88704 1.8128 0
M  V30 4763 H 453.777 2.99899 0.00806397 0
M  V30 4764 H 451.33 1.56265 -0.0333067 0
M  V30 4765 H 452.065 2.14352 2.43359 0
M  V30 4766 H 451.85 3.63443 1.47144 0
M  V30 4767 H 453.34 3.39465 2.43214 0
M  V30 4768 N 453.777 0.010035 1.57597 0
M  V30 4769 C 454.687 -0.994226 2.12491 0
M  V30 4770 C 455.703 -1.37013 1.07254 0
M  V30 4771 O 456.879 -1.45542 1.3921 0
M  V30 4772 C 453.944 -2.2642 2.62555 0
M  V30 4773 C 453.005 -1.95049 3.82432 0
M  V30 4774 C 452.238 -3.15991 4.30099 0
M  V30 4775 O 452.461 -4.28015 3.7704 0
M  V30 4776 O 451.395 -2.99403 5.22151 0
M  V30 4777 H 455.221 -0.557549 2.98538 0
M  V30 4778 H 452.806 -0.209413 1.47925 0
M  V30 4779 H 454.688 -3.01009 2.9491 0
M  V30 4780 H 453.363 -2.69306 1.796 0
M  V30 4781 H 452.27 -1.17904 3.55034 0
M  V30 4782 H 453.603 -1.56992 4.66491 0
M  V30 4783 N 455.255 -1.55392 -0.262866 0
M  V30 4784 C 456.203 -1.8977 -1.345 0
M  V30 4785 C 457.197 -0.775063 -1.50629 0
M  V30 4786 O 458.403 -0.959519 -1.52293 0
M  V30 4787 H 454.778 -0.602467 -0.450041 0
M  V30 4788 H 456.749 -2.80147 -1.02762 0
M  V30 4789 C 455.498 -2.19501 -2.69657 0
M  V30 4790 H 454.821 -3.05378 -2.5804 0
M  V30 4791 H 456.261 -2.47469 -3.44289 0
M  V30 4792 C 454.72 -1.00597 -3.21531 0
M  V30 4793 O 455.25 -0.245768 -4.00947 0
M  V30 4794 N 453.456 -0.800911 -2.79345 0
M  V30 4795 H 453.003 -1.42079 -2.14875 0
M  V30 4796 H 452.961 -0.00697996 -3.14399 0
M  V30 4797 N 456.733 0.527833 -1.48498 0
M  V30 4798 C 457.981 1.28101 -1.56316 0
M  V30 4799 C 458.302 1.9352 -0.239781 0
M  V30 4800 O 457.572 1.81433 0.738849 0
M  V30 4801 H 456.152 0.475793 -0.575873 0
M  V30 4802 H 458.814 0.614052 -1.84974 0
M  V30 4803 H 457.91 2.05916 -2.34532 0
M  V30 4804 N 458.211 1.37122 0.776871 0
M  V30 4805 C 459.457 1.32243 1.53752 0
M  V30 4806 C 459.79 -0.0944745 1.9397 0
M  V30 4807 O 459.065 -1.05068 1.6368 0
M  V30 4808 C 459.348 2.25681 2.80607 0
M  V30 4809 C 459.201 3.76127 2.46676 0
M  V30 4810 C 460.52 2.17657 3.82509 0
M  V30 4811 H 457.639 0.481704 0.557791 0
M  V30 4812 H 460.281 1.6778 0.891612 0
M  V30 4813 H 458.431 1.95505 3.35723 0
M  V30 4814 H 460.103 4.16877 1.97513 0
M  V30 4815 H 458.346 3.94946 1.79443 0
M  V30 4816 H 459.017 4.36933 3.37333 0
M  V30 4817 H 461.493 2.44245 3.36873 0
M  V30 4818 H 460.369 2.85185 4.69 0
M  V30 4819 H 460.63 1.16785 4.26396 0
M  V30 4820 N 459.689 -1.00246 1.21608 0
M  V30 4821 C 460.937 -1.73717 1.0328 0
M  V30 4822 C 461.258 -1.90102 -0.434318 0
M  V30 4823 O 460.528 -1.45376 -1.31311 0
M  V30 4824 H 459.108 -0.643613 0.379172 0
M  V30 4825 H 461.77 -1.20787 1.52959 0
M  V30 4826 H 460.866 -2.73535 1.50283 0
M  V30 4827 N 461.167 -1.02423 -1.1978 0
M  V30 4828 C 462.392 -0.7373 -1.93852 0
M  V30 4829 C 462.817 0.696923 -1.74713 0
M  V30 4830 O 462.175 1.48056 -1.04638 0
M  V30 4831 C 462.223 -1.08783 -3.438 0
M  V30 4832 O 461.327 -0.20383 -4.11896 0
M  V30 4833 H 460.668 -0.27284 -0.605355 0
M  V30 4834 H 463.198 -1.36966 -1.51992 0
M  V30 4835 H 463.208 -1.04276 -3.9445 0
M  V30 4836 H 461.883 -2.13274 -3.57053 0
M  V30 4837 H 460.46 -0.307091 -3.71633 0
M  V30 4838 N 462.645 1.35699 -0.801477 0
M  V30 4839 C 463.575 2.32436 -0.222658 0
M  V30 4840 C 464.556 1.5723 0.649057 0
M  V30 4841 O 465.741 1.85324 0.580387 0
M  V30 4842 C 462.871 3.41469 0.633719 0
M  V30 4843 C 461.825 4.27774 -0.139083 0
M  V30 4844 C 461.151 5.28082 0.838666 0
M  V30 4845 C 462.451 5.04946 -1.33517 0
M  V30 4846 H 464.145 2.81094 -1.03086 0
M  V30 4847 H 461.691 1.35146 -0.497155 0
M  V30 4848 H 463.644 4.08143 1.04868 0
M  V30 4849 H 462.368 2.91408 1.47475 0
M  V30 4850 H 461.027 3.62673 -0.535156 0
M  V30 4851 H 460.675 4.7429 1.67506 0
M  V30 4852 H 460.375 5.86695 0.32594 0
M  V30 4853 H 461.899 5.97628 1.25194 0
M  V30 4854 H 463.313 5.64593 -0.995349 0
M  V30 4855 H 461.71 5.7303 -1.78202 0
M  V30 4856 H 462.78 4.35886 -2.12442 0
M  V30 4857 N 464.123 0.554532 1.47522 0
M  V30 4858 C 465.369 0.0295227 2.02779 0
M  V30 4859 C 465.702 -1.31582 1.42828 0
M  V30 4860 O 464.977 -1.85561 0.582872 0
M  V30 4861 C 465.26 -0.0664057 3.60039 0
M  V30 4862 C 465.113 1.30585 4.30427 0
M  V30 4863 C 466.432 -0.781162 4.33112 0
M  V30 4864 H 463.551 0.0122027 0.736899 0
M  V30 4865 H 466.193 0.716305 1.7598 0
M  V30 4866 H 464.343 -0.651307 3.83002 0
M  V30 4867 H 466.015 1.93374 4.18813 0
M  V30 4868 H 464.258 1.88125 3.90886 0
M  V30 4869 H 464.929 1.19147 5.38988 0
M  V30 4870 H 467.405 -0.284565 4.15126 0
M  V30 4871 H 466.281 -0.817237 5.42782 0
M  V30 4872 H 466.542 -1.83672 4.0214 0
M  V30 4873 N 465.601 -1.54893 0.290851 0
M  V30 4874 C 466.826 -2.04804 -0.32712 0
M  V30 4875 C 467.251 -1.16721 -1.47506 0
M  V30 4876 O 466.609 -0.169107 -1.8051 0
M  V30 4877 C 466.657 -3.52268 -0.770689 0
M  V30 4878 O 465.761 -3.67236 -1.87647 0
M  V30 4879 H 465.102 -0.660789 -0.0652227 0
M  V30 4880 H 467.632 -2.00036 0.429739 0
M  V30 4881 H 467.642 -3.9393 -1.06223 0
M  V30 4882 H 466.317 -4.15843 0.069096 0
M  V30 4883 H 464.894 -3.37479 -1.58626 0
M  V30 4884 N 467.08 -0.0183926 -1.57589 0
M  V30 4885 C 468.491 0.521927 -1.79256 0
M  V30 4886 C 468.842 1.72885 -0.927636 0
M  V30 4887 O 467.967 2.15978 -0.135091 0
M  V30 4888 C 468.562 0.953632 -3.25102 0
M  V30 4889 C 467.121 1.43913 -3.47801 0
M  V30 4890 C 466.268 0.398837 -2.74417 0
M  V30 4891 H 469.219 -0.244485 -1.56805 0
M  V30 4892 H 469.24 1.81863 -3.34224 0
M  V30 4893 H 468.752 0.0750123 -3.88028 0
M  V30 4894 H 466.853 2.33804 -2.90115 0
M  V30 4895 H 466.966 1.45391 -4.56507 0
M  V30 4896 H 465.33 0.864572 -2.39577 0
M  V30 4897 H 466.113 -0.471132 -3.40052 0
M  V30 4898 N 468.558 1.5553 0.254621 0
M  V30 4899 C 469.969 1.67518 0.824286 0
M  V30 4900 C 470.32 0.614429 1.86331 0
M  V30 4901 O 469.445 -0.240736 2.15057 0
M  V30 4902 C 470.04 3.03692 1.50189 0
M  V30 4903 C 468.599 3.17646 2.01935 0
M  V30 4904 C 467.746 2.63373 0.867746 0
M  V30 4905 H 470.697 1.58671 0.0305843 0
M  V30 4906 H 470.718 2.97706 2.36962 0
M  V30 4907 H 470.23 3.80874 0.745431 0
M  V30 4908 H 468.331 2.45273 2.80485 0
M  V30 4909 H 468.444 4.24455 2.22204 0
M  V30 4910 H 466.808 2.20999 1.26616 0
M  V30 4911 H 467.591 3.43074 0.124498 0
M  V30 4912 N 470.036 -0.519951 1.48776 0
M  V30 4913 C 471.285 -1.27175 1.56555 0
M  V30 4914 C 471.598 -1.9401 0.248869 0
M  V30 4915 O 472.804 -2.70725 0.205004 0
M  V30 4916 C 471.26 -2.30811 2.76142 0
M  V30 4917 C 470.868 -1.7 4.14493 0
M  V30 4918 C 472.612 -3.06937 2.9324 0
M  V30 4919 C 470.519 -2.71635 5.25327 0
M  V30 4920 H 469.449 -0.478329 0.582853 0
M  V30 4921 H 472.1 -0.547916 1.75129 0
M  V30 4922 H 470.482 -3.06274 2.51023 0
M  V30 4923 H 471.656 -1.00658 4.49672 0
M  V30 4924 H 469.971 -1.06331 4.02595 0
M  V30 4925 H 472.568 -3.82905 3.73213 0
M  V30 4926 H 472.911 -3.63409 2.03075 0
M  V30 4927 H 473.444 -2.38589 3.18308 0
M  V30 4928 H 470.183 -2.1997 6.1749 0
M  V30 4929 H 469.703 -3.39275 4.94624 0
M  V30 4930 H 471.382 -3.34429 5.53865 0
M  V30 4931 N 471.514 -1.37532 -0.769588 0
M  V30 4932 C 472.739 -1.36231 -1.56384 0
M  V30 4933 C 473.164 0.0495849 -1.88035 0
M  V30 4934 O 472.522 1.02723 -1.49391 0
M  V30 4935 C 472.57 -2.20986 -2.84952 0
M  V30 4936 O 471.674 -1.61597 -3.79421 0
M  V30 4937 H 471.015 -0.465387 -0.473615 0
M  V30 4938 H 473.545 -1.81085 -0.952342 0
M  V30 4939 H 473.555 -2.34277 -3.34034 0
M  V30 4940 H 472.23 -3.23612 -2.61243 0
M  V30 4941 H 470.807 -1.57359 -3.38072 0
M  V30 4942 N 472.992 0.995999 -1.22138 0
M  V30 4943 C 473.922 2.10387 -1.01289 0
M  V30 4944 C 474.903 1.69975 0.0651454 0
M  V30 4945 O 476.088 1.9396 -0.0964628 0
M  V30 4946 C 473.218 3.42312 -0.586517 0
M  V30 4947 C 472.172 3.96558 -1.61014 0
M  V30 4948 C 471.498 5.24494 -1.0397 0
M  V30 4949 C 472.798 4.27595 -2.99933 0
M  V30 4950 H 474.492 2.28086 -1.93951 0
M  V30 4951 H 472.038 1.09607 -0.933928 0
M  V30 4952 H 473.991 4.19223 -0.427793 0
M  V30 4953 H 472.715 3.24431 0.375761 0
M  V30 4954 H 471.374 3.21776 -1.75658 0
M  V30 4955 H 471.022 5.02953 -0.0688703 0
M  V30 4956 H 470.722 5.61755 -1.72352 0
M  V30 4957 H 472.246 6.04042 -0.892494 0
M  V30 4958 H 473.66 4.95315 -2.8868 0
M  V30 4959 H 472.057 4.76021 -3.6541 0
M  V30 4960 H 473.127 3.35498 -3.50099 0
M  V30 4961 N 474.47 1.03057 1.19235 0
M  V30 4962 C 475.42 0.583386 2.2041 0
M  V30 4963 C 476.404 -0.368776 1.56617 0
M  V30 4964 O 477.596 -0.189471 1.75983 0
M  V30 4965 C 474.725 -0.0626534 3.43243 0
M  V30 4966 C 473.811 0.91205 4.14177 0
M  V30 4967 N 474.202 2.07514 4.61272 0
M  V30 4968 C 472.5 0.735859 4.39888 0
M  V30 4969 C 473.201 2.69003 5.15764 0
M  V30 4970 N 472.177 1.96954 5.06666 0
M  V30 4971 H 475.979 1.46988 2.54503 0
M  V30 4972 H 473.493 0.897785 1.35328 0
M  V30 4973 H 475.49 -0.400653 4.1497 0
M  V30 4974 H 474.15 -0.944813 3.1065 0
M  V30 4975 H 475.161 2.45448 4.56043 0
M  V30 4976 H 471.838 -0.0970656 4.17387 0
M  V30 4977 H 473.228 3.67514 5.6248 0
M  V30 4978 N 475.948 -1.35272 0.808662 0
M  V30 4979 C 477.197 -1.97963 0.386483 0
M  V30 4980 C 477.51 -1.64866 -1.05255 0
M  V30 4981 O 478.716 -2.20937 -1.57794 0
M  V30 4982 C 477.172 -3.54162 0.640096 0
M  V30 4983 C 476.78 -3.96166 2.0918 0
M  V30 4984 C 478.524 -4.23553 0.283376 0
M  V30 4985 C 476.431 -5.4522 2.29106 0
M  V30 4986 H 475.361 -0.740742 0.140774 0
M  V30 4987 H 478.012 -1.5431 0.993012 0
M  V30 4988 H 476.394 -3.95983 -0.0364117 0
M  V30 4989 H 477.568 -3.65491 2.80629 0
M  V30 4990 H 475.883 -3.3967 2.40859 0
M  V30 4991 H 478.48 -5.33124 0.410273 0
M  V30 4992 H 478.823 -4.09105 -0.770659 0
M  V30 4993 H 479.356 -3.8716 0.913884 0
M  V30 4994 H 476.095 -5.64638 3.32962 0
M  V30 4995 H 475.615 -5.77457 1.62184 0
M  V30 4996 H 477.294 -6.1171 2.1076 0
M  V30 4997 N 477.426 -0.562348 -1.47226 0
M  V30 4998 C 478.673 -0.0402165 -2.0246 0
M  V30 4999 C 479.001 1.31169 -1.43614 0
M  V30 5000 O 478.256 1.86805 -0.5833 0
M  V30 5001 C 478.555 0.0969817 -3.57268 0
M  V30 5002 C 478.221 -1.1847 -4.35058 0
M  V30 5003 C 476.883 -1.53588 -4.56031 0
M  V30 5004 C 479.235 -2.03378 -4.79882 0
M  V30 5005 C 476.563 -2.73452 -5.19077 0
M  V30 5006 C 478.915 -3.2245 -5.44251 0
M  V30 5007 C 477.579 -3.57876 -5.63455 0
M  V30 5008 H 476.849 -0.0147163 -0.740854 0
M  V30 5009 H 479.496 -0.734895 -1.76838 0
M  V30 5010 H 477.801 0.87466 -3.81912 0
M  V30 5011 H 479.498 0.516408 -3.97661 0
M  V30 5012 H 476.088 -0.90126 -4.19017 0
M  V30 5013 H 480.272 -1.77553 -4.63453 0
M  V30 5014 H 475.528 -3.01062 -5.32139 0
M  V30 5015 H 479.702 -3.88526 -5.77945 0
M  V30 5016 H 477.329 -4.50849 -6.12078 0
M  V30 5017 N 478.904 1.54736 -0.299062 0
M  V30 5018 C 479.837 2.1962 0.619851 0
M  V30 5019 C 480.815 1.16496 1.13434 0
M  V30 5020 O 481.999 1.4513 1.2029 0
M  V30 5021 C 479.126 2.8385 1.84788 0
M  V30 5022 C 478.172 4.00484 1.46679 0
M  V30 5023 S 479.005 5.32926 0.524389 0
M  V30 5024 C 480.161 6.00638 1.76026 0
M  V30 5025 H 480.394 2.97221 0.0686177 0
M  V30 5026 H 477.927 1.54176 -0.0832085 0
M  V30 5027 H 479.885 3.21483 2.55263 0
M  V30 5028 H 478.546 2.06099 2.37028 0
M  V30 5029 H 477.739 4.44201 2.38121 0
M  V30 5030 H 477.341 3.64398 0.842008 0
M  V30 5031 H 479.633 6.21327 2.70109 0
M  V30 5032 H 480.576 6.94805 1.36569 0
M  V30 5033 H 480.984 5.3026 1.93609 0
M  V30 5034 N 480.382 0.0267497 1.57577 0
M  V30 5035 C 481.345 -0.940916 2.08996 0
M  V30 5036 C 482.345 -1.25561 1.00455 0
M  V30 5037 O 483.535 -1.19634 1.26623 0
M  V30 5038 C 480.667 -2.25814 2.55384 0
M  V30 5039 H 481.86 -0.495628 2.95776 0
M  V30 5040 H 479.413 -0.221241 1.54726 0
M  V30 5041 H 480.148 -2.74976 1.71926 0
M  V30 5042 H 479.933 -2.04285 3.34679 0
M  V30 5043 H 481.423 -2.95178 2.95398 0
M  V30 5044 N 481.861 -1.55662 -0.24637 0
M  V30 5045 C 482.771 -1.93495 -1.32653 0
M  V30 5046 C 483.787 -0.835462 -1.5263 0
M  V30 5047 O 484.963 -1.1369 -1.66242 0
M  V30 5048 C 482.028 -2.22242 -2.66101 0
M  V30 5049 C 481.089 -3.45625 -2.54641 0
M  V30 5050 C 480.322 -3.72991 -3.81724 0
M  V30 5051 O 480.545 -3.02421 -4.8363 0
M  V30 5052 O 479.479 -4.66515 -3.80325 0
M  V30 5053 H 483.305 -2.85498 -1.03559 0
M  V30 5054 H 480.89 -1.42551 -0.44717 0
M  V30 5055 H 482.772 -2.42037 -3.44958 0
M  V30 5056 H 481.447 -1.33417 -2.94926 0
M  V30 5057 H 480.354 -3.31136 -1.74067 0
M  V30 5058 H 481.687 -4.34754 -2.3076 0
M  V30 5059 N 483.339 0.512053 -1.4905 0
M  V30 5060 C 484.585 1.26874 -1.58212 0
M  V30 5061 C 484.918 1.9241 -0.263073 0
M  V30 5062 O 484.193 1.80181 0.732476 0
M  V30 5063 C 484.476 2.34428 -2.73341 0
M  V30 5064 C 484.329 1.73466 -4.15006 0
M  V30 5065 C 485.648 3.36073 -2.84154 0
M  V30 5066 H 482.767 0.459924 -0.575881 0
M  V30 5067 H 485.409 0.568587 -1.81293 0
M  V30 5068 H 483.559 2.94146 -2.53792 0
M  V30 5069 H 485.231 1.17661 -4.46042 0
M  V30 5070 H 483.474 1.03921 -4.21168 0
M  V30 5071 H 484.145 2.51426 -4.91415 0
M  V30 5072 H 486.621 2.86332 -3.01916 0
M  V30 5073 H 485.497 4.08703 -3.66406 0
M  V30 5074 H 485.758 3.97725 -1.93048 0
M  V30 5075 N 484.817 1.37938 0.762283 0
M  V30 5076 C 485.749 1.30349 1.88525 0
M  V30 5077 C 486.762 0.217402 1.61342 0
M  V30 5078 O 487.951 0.474291 1.72084 0
M  V30 5079 C 485.051 0.994844 3.23969 0
M  V30 5080 C 484.224 2.18829 3.78725 0
M  V30 5081 C 483.283 1.84844 4.92665 0
M  V30 5082 O 482.309 2.57244 5.07754 0
M  V30 5083 N 483.511 0.798201 5.74986 0
M  V30 5084 H 486.276 2.27114 1.95549 0
M  V30 5085 H 483.837 1.31686 0.941825 0
M  V30 5086 H 485.829 0.748168 3.97724 0
M  V30 5087 H 484.399 0.115446 3.12387 0
M  V30 5088 H 483.619 2.59615 2.96637 0
M  V30 5089 H 484.907 2.98497 4.1204 0
M  V30 5090 H 484.305 0.197611 5.65355 0
M  V30 5091 H 482.862 0.611396 6.48926 0
M  V30 5092 N 486.295 -0.989507 1.22664 0
M  V30 5093 C 487.541 -1.7321 1.05481 0
M  V30 5094 C 487.874 -1.89852 -0.408635 0
M  V30 5095 O 487.149 -1.44416 -1.30285 0
M  V30 5096 C 487.432 -3.1357 1.77047 0
M  V30 5097 C 487.285 -3.04555 3.31008 0
M  V30 5098 C 488.604 -4.12812 1.5256 0
M  V30 5099 H 485.723 -0.628697 0.384589 0
M  V30 5100 H 488.365 -1.15258 1.51049 0
M  V30 5101 H 486.515 -3.63046 1.3831 0
M  V30 5102 H 488.187 -2.62674 3.7921 0
M  V30 5103 H 486.43 -2.41278 3.6051 0
M  V30 5104 H 487.101 -4.03894 3.76263 0
M  V30 5105 H 489.577 -3.72106 1.86215 0
M  V30 5106 H 488.453 -5.09132 2.05124 0
M  V30 5107 H 488.714 -4.39711 0.458936 0
M  V30 5108 N 487.773 -1.03688 -1.18687 0
M  V30 5109 C 488.998 -0.757819 -1.93059 0
M  V30 5110 C 489.423 0.678353 -1.75442 0
M  V30 5111 O 488.781 1.46938 -1.06203 0
M  V30 5112 C 488.829 -1.12423 -3.42627 0
M  V30 5113 O 487.933 -0.247505 -4.11657 0
M  V30 5114 H 487.274 -0.279245 -0.602427 0
M  V30 5115 H 489.804 -1.3857 -1.5053 0
M  V30 5116 H 489.814 -1.08454 -3.93322 0
M  V30 5117 H 488.489 -2.17049 -3.54771 0
M  V30 5118 H 487.066 -0.34649 -3.71287 0
M  V30 5119 N 489.251 1.34841 -0.815825 0
M  V30 5120 C 490.662 1.80937 -0.46029 0
M  V30 5121 C 491.013 1.67685 1.01863 0
M  V30 5122 O 490.138 1.21277 1.79223 0
M  V30 5123 C 490.733 3.28509 -0.828708 0
M  V30 5124 C 489.292 3.72712 -0.525644 0
M  V30 5125 C 488.439 2.56676 -1.04941 0
M  V30 5126 H 491.39 1.22688 -1.00664 0
M  V30 5127 H 491.411 3.80279 -0.129757 0
M  V30 5128 H 490.923 3.38122 -1.90513 0
M  V30 5129 H 489.024 3.68642 0.541666 0
M  V30 5130 H 489.137 4.67119 -1.06474 0
M  V30 5131 H 487.501 2.50302 -0.471286 0
M  V30 5132 H 488.284 2.69063 -2.13214 0
M  V30 5133 N 490.729 0.570148 1.46925 0
M  V30 5134 C 491.692 -0.159933 2.28641 0
M  V30 5135 C 492.692 -0.830638 1.37685 0
M  V30 5136 O 493.882 -0.684516 1.60187 0
M  V30 5137 C 491.014 -1.2354 3.17727 0
M  V30 5138 H 492.207 0.558035 2.94662 0
M  V30 5139 H 489.76 0.327603 1.52828 0
M  V30 5140 H 490.495 -1.98535 2.56426 0
M  V30 5141 H 490.28 -0.759125 3.84681 0
M  V30 5142 H 491.77 -1.74782 3.79264 0
M  V30 5143 N 492.207 -1.54576 0.307264 0
M  V30 5144 C 493.455 -1.99867 -0.299574 0
M  V30 5145 C 493.776 -1.19714 -1.53927 0
M  V30 5146 O 493.046 -0.29472 -1.9367 0
M  V30 5147 H 491.626 -0.738299 -0.113683 0
M  V30 5148 H 494.288 -1.9032 0.420042 0
M  V30 5149 H 493.384 -3.06901 -0.567283 0
M  V30 5150 N 493.685 -0.035106 -1.57561 0
M  V30 5151 C 495.096 0.502885 -1.798 0
M  V30 5152 C 495.447 1.71892 -0.945921 0
M  V30 5153 O 494.572 2.15822 -0.157991 0
M  V30 5154 C 495.167 0.919097 -3.26095 0
M  V30 5155 C 493.726 1.40216 -3.49308 0
M  V30 5156 C 492.873 0.369709 -2.74824 0
M  V30 5157 H 495.824 -0.261102 -1.56537 0
M  V30 5158 H 495.845 1.78308 -3.36135 0
M  V30 5159 H 495.357 0.0338526 -3.88085 0
M  V30 5160 H 493.458 2.30714 -2.92578 0
M  V30 5161 H 493.571 1.40541 -4.58023 0
M  V30 5162 H 491.935 0.839113 -2.40481 0
M  V30 5163 H 492.718 -0.507173 -3.39533 0
M  V30 5164 N 495.163 1.55791 0.238111 0
M  V30 5165 C 496.412 1.77234 0.962868 0
M  V30 5166 C 496.725 0.600661 1.86149 0
M  V30 5167 O 497.931 0.698315 2.62366 0
M  V30 5168 C 496.387 3.13808 1.76218 0
M  V30 5169 C 495.995 4.3865 0.910518 0
M  V30 5170 C 497.739 3.44585 2.47914 0
M  V30 5171 C 495.646 5.66252 1.70623 0
M  V30 5172 H 494.576 0.660731 0.36325 0
M  V30 5173 H 497.227 1.8221 0.217242 0
M  V30 5174 H 495.609 3.02963 2.55009 0
M  V30 5175 H 496.783 4.60507 0.164316 0
M  V30 5176 H 495.098 4.15271 0.30647 0
M  V30 5177 H 497.695 4.3714 3.07917 0
M  V30 5178 H 498.038 2.66314 3.19973 0
M  V30 5179 H 498.571 3.56685 1.76127 0
M  V30 5180 H 495.31 6.47369 1.02923 0
M  V30 5181 H 494.83 5.48483 2.42748 0
M  V30 5182 H 496.509 6.05829 2.27114 0
M  V30 5183 N 496.642 -0.504142 1.49319 0
M  V30 5184 C 497.572 -1.61473 1.68667 0
M  V30 5185 C 498.553 -1.61455 0.535378 0
M  V30 5186 O 499.738 -1.78245 0.770868 0
M  V30 5187 C 496.868 -2.99971 1.75028 0
M  V30 5188 C 495.822 -3.14854 2.89916 0
M  V30 5189 C 495.148 -4.54671 2.81387 0
M  V30 5190 C 496.448 -2.95176 4.30893 0
M  V30 5191 H 498.142 -1.45535 2.61648 0
M  V30 5192 H 495.688 -0.698711 1.25913 0
M  V30 5193 H 497.641 -3.77562 1.8715 0
M  V30 5194 H 496.365 -3.1699 0.786441 0
M  V30 5195 H 495.024 -2.39687 2.77391 0
M  V30 5196 H 494.672 -4.68562 1.82917 0
M  V30 5197 H 494.372 -4.6557 3.58494 0
M  V30 5198 H 495.896 -5.34327 2.95512 0
M  V30 5199 H 497.31 -3.62538 4.44116 0
M  V30 5200 H 495.707 -3.17549 5.09198 0
M  V30 5201 H 496.777 -1.91332 4.45556 0
M  V30 5202 N 498.12 -1.38341 -0.754957 0
M  V30 5203 C 499.03 -1.3769 -1.89944 0
M  V30 5204 C 500.046 -0.274194 -1.71826 0
M  V30 5205 O 501.222 -0.512391 -1.94773 0
M  V30 5206 C 498.287 -1.19938 -3.25293 0
M  V30 5207 C 497.348 -2.40001 -3.55946 0
M  V30 5208 C 496.581 -2.23087 -4.84838 0
M  V30 5209 O 496.804 -1.22386 -5.57116 0
M  V30 5210 O 495.738 -3.11646 -5.14937 0
M  V30 5211 H 499.564 -2.3412 -1.93446 0
M  V30 5212 H 497.149 -1.19246 -0.900044 0
M  V30 5213 H 499.031 -1.12093 -4.06218 0
M  V30 5214 H 497.706 -0.265919 -3.22606 0
M  V30 5215 H 496.613 -2.53421 -2.75188 0
M  V30 5216 H 497.946 -3.31973 -3.63394 0
M  V30 5217 N 499.598 0.982988 -1.23187 0
M  V30 5218 C 500.546 2.09616 -1.00817 0
M  V30 5219 C 501.54 1.6932 0.0519995 0
M  V30 5220 O 502.746 1.79715 -0.101284 0
M  V30 5221 H 499.121 0.685628 -0.308899 0
M  V30 5222 H 501.092 2.25652 -1.95253 0
M  V30 5223 C 499.841 3.42249 -0.613243 0
M  V30 5224 H 499.164 3.73705 -1.42073 0
M  V30 5225 H 500.604 4.21086 -0.496208 0
M  V30 5226 C 499.063 3.30002 0.678233 0
M  V30 5227 O 499.593 3.6263 1.72807 0
M  V30 5228 N 497.799 2.83164 0.653165 0
M  V30 5229 H 497.346 2.56811 -0.201492 0
M  V30 5230 H 497.304 2.75352 1.51752 0
M  V30 5231 N 501.076 1.04316 1.18135 0
M  V30 5232 C 502.008 0.594444 2.21357 0
M  V30 5233 C 503.021 -0.337215 1.59269 0
M  V30 5234 O 504.21 -0.131337 1.78016 0
M  V30 5235 C 501.31 -0.151251 3.38562 0
M  V30 5236 C 500.483 0.788907 4.30227 0
M  V30 5237 C 499.542 0.0860572 5.2613 0
M  V30 5238 O 498.568 0.717302 5.64662 0
M  V30 5239 N 499.77 -1.17969 5.68387 0
M  V30 5240 H 502.535 1.48227 2.60478 0
M  V30 5241 H 500.096 0.92396 1.32946 0
M  V30 5242 H 502.088 -0.631352 3.99745 0
M  V30 5243 H 500.658 -0.940639 2.98112 0
M  V30 5244 H 499.878 1.44882 3.6661 0
M  V30 5245 H 501.166 1.42738 4.88368 0
M  V30 5246 H 500.564 -1.71302 5.3914 0
M  V30 5247 H 499.121 -1.60402 6.31755 0
M  V30 5248 N 502.554 -1.34406 0.822964 0
M  V30 5249 C 503.782 -2.02508 0.424039 0
M  V30 5250 C 504.197 -1.61975 -0.970022 0
M  V30 5251 O 503.554 -0.825228 -1.62777 0
M  V30 5252 C 503.605 -3.57789 0.516657 0
M  V30 5253 O 503.326 -3.96853 1.85577 0
M  V30 5254 C 504.827 -4.43157 0.112637 0
M  V30 5255 H 502.047 -0.649063 0.170173 0
M  V30 5256 H 504.591 -1.7168 1.11113 0
M  V30 5257 H 502.746 -3.87207 -0.122353 0
M  V30 5258 H 503.16 -4.91538 1.83005 0
M  V30 5259 H 504.634 -5.51527 0.228526 0
M  V30 5260 H 505.111 -4.28939 -0.943837 0
M  V30 5261 H 505.717 -4.19067 0.725449 0
M  V30 5262 N 504.032 -0.577932 -1.46621 0
M  V30 5263 C 505.278 -0.0617793 -2.02706 0
M  V30 5264 C 505.611 1.29294 -1.44903 0
M  V30 5265 O 504.886 1.8461 -0.61232 0
M  V30 5266 C 505.169 0.00911824 -3.60099 0
M  V30 5267 C 505.022 -1.37416 -4.28295 0
M  V30 5268 C 506.341 0.712159 -4.343 0
M  V30 5269 H 503.46 -0.0239246 -0.736612 0
M  V30 5270 H 506.102 -0.744211 -1.74818 0
M  V30 5271 H 504.252 0.590292 -3.83989 0
M  V30 5272 H 505.924 -2.00013 -4.15683 0
M  V30 5273 H 504.167 -1.94319 -3.87843 0
M  V30 5274 H 504.838 -1.27707 -5.37024 0
M  V30 5275 H 507.314 0.218486 -4.15526 0
M  V30 5276 H 506.19 0.730782 -5.44014 0
M  V30 5277 H 506.451 1.77251 -4.05012 0
M  V30 5278 N 505.51 1.54411 -0.315457 0
M  V30 5279 C 506.738 2.04833 0.291738 0
M  V30 5280 C 507.153 1.19203 1.46411 0
M  V30 5281 O 506.51 0.220867 1.81159 0
M  V30 5282 C 506.561 3.53969 0.73404 0
M  V30 5283 O 506.282 4.36346 -0.391682 0
M  V30 5284 C 507.783 4.2045 1.40489 0
M  V30 5285 H 505.003 0.668195 0.0612947 0
M  V30 5286 H 507.547 1.99276 -0.45929 0
M  V30 5287 H 505.702 3.5984 1.43506 0
M  V30 5288 H 506.116 5.24481 -0.0447088 0
M  V30 5289 H 507.59 5.26278 1.66539 0
M  V30 5290 H 508.067 3.71067 2.3496 0
M  V30 5291 H 508.673 4.18694 0.746662 0
M  V30 5292 N 506.988 0.0434614 1.5754 0
M  V30 5293 C 507.918 -0.931651 2.14109 0
M  V30 5294 C 508.899 -1.32971 1.06079 0
M  V30 5295 O 510.084 -1.40579 1.33982 0
M  V30 5296 C 507.214 -2.20914 2.67982 0
M  V30 5297 C 506.168 -1.95139 3.80926 0
M  V30 5298 C 505.494 -3.29276 4.21285 0
M  V30 5299 C 506.794 -1.27913 5.06395 0
M  V30 5300 H 508.488 -0.460497 2.95837 0
M  V30 5301 H 506.034 -0.220058 1.42309 0
M  V30 5302 H 507.987 -2.89522 3.06194 0
M  V30 5303 H 506.711 -2.70221 1.83434 0
M  V30 5304 H 505.37 -1.28945 3.43175 0
M  V30 5305 H 505.018 -3.76369 3.33699 0
M  V30 5306 H 504.718 -3.12831 4.97404 0
M  V30 5307 H 506.242 -3.99129 4.62091 0
M  V30 5308 H 507.656 -1.86544 5.42102 0
M  V30 5309 H 506.053 -1.2182 5.87605 0
M  V30 5310 H 507.123 -0.254066 4.84234 0
M  V30 5311 N 508.466 -1.55915 -0.229846 0
M  V30 5312 C 509.712 -1.78807 -0.956868 0
M  V30 5313 C 510.045 -0.611687 -1.84315 0
M  V30 5314 O 509.32 0.389398 -1.90562 0
M  V30 5315 C 509.603 -3.11718 -1.80288 0
M  V30 5316 C 509.456 -4.3979 -0.943649 0
M  V30 5317 C 510.775 -3.40999 -2.78222 0
M  V30 5318 H 507.894 -0.6505 -0.346437 0
M  V30 5319 H 510.536 -1.88648 -0.226252 0
M  V30 5320 H 508.686 -3.03459 -2.42579 0
M  V30 5321 H 510.358 -4.60059 -0.338121 0
M  V30 5322 H 508.601 -4.33086 -0.248705 0
M  V30 5323 H 509.272 -5.29208 -1.5698 0
M  V30 5324 H 511.748 -3.49332 -2.26067 0
M  V30 5325 H 510.624 -4.35183 -3.34526 0
M  V30 5326 H 510.885 -2.62754 -3.55546 0
M  V30 5327 N 509.944 0.496216 -1.49584 0
M  V30 5328 C 511.184 1.26015 -1.60933 0
M  V30 5329 C 511.548 1.89772 -0.291646 0
M  V30 5330 O 512.749 2.67334 -0.280357 0
M  V30 5331 C 511.02 2.29506 -2.73974 0
M  V30 5332 S 512.579 3.15175 -3.05303 0
M  V30 5333 H 509.397 0.428194 -0.567601 0
M  V30 5334 H 511.999 0.561484 -1.87263 0
M  V30 5335 H 510.703 1.81205 -3.68229 0
M  V30 5336 H 510.234 3.04036 -2.49651 0
M  V30 5337 H 512.249 4.30244 -2.47193 0
M  V30 5338 N 511.423 1.38739 0.74761 0
M  V30 5339 C 512.371 1.36573 1.88283 0
M  V30 5340 C 513.365 0.250712 1.67534 0
M  V30 5341 O 514.571 0.420073 1.7503 0
M  V30 5342 H 510.946 0.42619 0.619569 0
M  V30 5343 H 512.917 2.32356 1.87226 0
M  V30 5344 C 511.666 1.21361 3.25832 0
M  V30 5345 H 510.989 2.06424 3.42388 0
M  V30 5346 H 512.429 1.23901 4.05493 0
M  V30 5347 C 510.888 -0.0790099 3.36807 0
M  V30 5348 O 511.418 -1.05385 3.8763 0
M  V30 5349 N 509.624 -0.13785 2.90273 0
M  V30 5350 H 509.171 0.656128 2.49104 0
M  V30 5351 H 509.129 -1.00228 2.97996 0
M  V30 5352 N 512.901 -0.976442 1.23707 0
M  V30 5353 C 514.129 -1.75341 1.09833 0
M  V30 5354 C 514.544 -1.8553 -0.349885 0
M  V30 5355 O 513.901 -1.33732 -1.24185 0
M  V30 5356 C 513.952 -3.17833 1.72233 0
M  V30 5357 O 513.673 -3.08167 3.11391 0
M  V30 5358 C 515.174 -4.11906 1.63853 0
M  V30 5359 H 512.394 -0.550137 0.384175 0
M  V30 5360 H 514.938 -1.2265 1.63638 0
M  V30 5361 H 513.093 -3.67538 1.22452 0
M  V30 5362 H 513.507 -3.97897 3.41729 0
M  V30 5363 H 514.981 -5.09579 2.12211 0
M  V30 5364 H 515.458 -4.35109 0.598092 0
M  V30 5365 H 516.064 -3.68107 2.13019 0
M  V30 5366 N 514.379 -1.04941 -1.1758 0
M  V30 5367 C 515.79 -0.784501 -1.69418 0
M  V30 5368 C 516.141 0.693625 -1.8353 0
M  V30 5369 O 515.266 1.53925 -1.52106 0
M  V30 5370 C 515.861 -1.41746 -3.07723 0
M  V30 5371 C 514.42 -1.20066 -3.56737 0
M  V30 5372 C 513.567 -1.5026 -2.33061 0
M  V30 5373 H 516.518 -1.21469 -1.02133 0
M  V30 5374 H 516.539 -0.825381 -3.7144 0
M  V30 5375 H 516.051 -2.49325 -2.9742 0
M  V30 5376 H 514.152 -0.144006 -3.72322 0
M  V30 5377 H 514.265 -1.90384 -4.39648 0
M  V30 5378 H 512.629 -0.922598 -2.37403 0
M  V30 5379 H 513.412 -2.58967 -2.25368 0
M  V30 5380 N 515.857 1.33968 -0.830081 0
M  V30 5381 C 516.805 2.31301 -0.245435 0
M  V30 5382 C 517.799 1.57734 0.617762 0
M  V30 5383 O 519.005 1.72674 0.508303 0
M  V30 5384 H 515.38 0.749552 -0.0606316 0
M  V30 5385 H 517.351 2.78129 -1.08105 0
M  V30 5386 C 516.1 3.42961 0.572084 0
M  V30 5387 H 515.423 3.99714 -0.0828118 0
M  V30 5388 H 516.863 4.13286 0.94715 0
M  V30 5389 C 515.322 2.88043 1.74737 0
M  V30 5390 O 515.852 2.83508 2.8458 0
M  V30 5391 N 514.058 2.44768 1.56642 0
M  V30 5392 H 513.605 2.48656 0.672901 0
M  V30 5393 H 513.563 2.08375 2.3543 0
M  V30 5394 N 517.335 0.585699 1.46312 0
M  V30 5395 C 518.245 -0.148236 2.34131 0
M  V30 5396 C 519.261 -0.882972 1.49932 0
M  V30 5397 O 520.437 -0.845484 1.82794 0
M  V30 5398 C 517.502 -1.14714 3.27172 0
M  V30 5399 C 516.563 -0.416746 4.27272 0
M  V30 5400 C 515.796 -1.36806 5.15868 0
M  V30 5401 O 516.019 -2.60475 5.07454 0
M  V30 5402 O 514.953 -0.877018 5.95476 0
M  V30 5403 H 518.779 0.572882 2.98248 0
M  V30 5404 H 516.364 0.346082 1.45336 0
M  V30 5405 H 518.246 -1.72303 3.84564 0
M  V30 5406 H 516.921 -1.84967 2.65648 0
M  V30 5407 H 515.828 0.201061 3.73559 0
M  V30 5408 H 517.161 0.244872 4.9159 0
M  V30 5409 N 518.813 -1.54241 0.323641 0
M  V30 5410 C 519.776 -2.22997 -0.529602 0
M  V30 5411 C 520.776 -1.22345 -1.04347 0
M  V30 5412 O 521.966 -1.46924 -0.935889 0
M  V30 5413 C 519.098 -2.93409 -1.73562 0
M  V30 5414 H 520.291 -2.99815 0.0714518 0
M  V30 5415 H 517.844 -1.56121 0.0747258 0
M  V30 5416 H 518.579 -2.20729 -2.37591 0
M  V30 5417 H 518.364 -3.67217 -1.37456 0
M  V30 5418 H 519.854 -3.45794 -2.34128 0
M  V30 5419 N 520.291 -0.0518155 -1.57515 0
M  V30 5420 C 521.702 0.483787 -1.80323 0
M  V30 5421 C 522.053 1.70879 -0.964099 0
M  V30 5422 O 521.178 2.15643 -0.180872 0
M  V30 5423 C 521.773 0.884459 -3.27052 0
M  V30 5424 C 520.332 1.36504 -3.50776 0
M  V30 5425 C 519.479 0.340539 -2.75201 0
M  V30 5426 H 522.43 -0.277691 -1.56252 0
M  V30 5427 H 522.451 1.74733 -3.38007 0
M  V30 5428 H 521.963 -0.00731093 -3.88099 0
M  V30 5429 H 520.064 2.27598 -2.95009 0
M  V30 5430 H 520.177 1.35675 -4.59488 0
M  V30 5431 H 518.541 0.81356 -2.41357 0
M  V30 5432 H 519.324 -0.543156 -3.38976 0
M  V30 5433 N 521.769 1.56035 0.221574 0
M  V30 5434 C 522.994 1.83476 0.967026 0
M  V30 5435 C 523.419 0.632139 1.7716 0
M  V30 5436 O 522.777 -0.419082 1.7639 0
M  V30 5437 C 522.825 3.08907 1.86034 0
M  V30 5438 O 521.929 2.876 2.95567 0
M  V30 5439 H 521.27 0.604913 0.273817 0
M  V30 5440 H 523.8 2.03247 0.234893 0
M  V30 5441 H 523.81 3.3901 2.27016 0
M  V30 5442 H 522.485 3.96068 1.26898 0
M  V30 5443 H 521.062 2.6873 2.58532 0
M  V30 5444 N 523.247 -0.488276 1.49845 0
M  V30 5445 C 524.524 -1.24959 1.50481 0
M  V30 5446 C 524.904 -2.09735 0.239698 0
M  V30 5447 O 524.252 -2.14865 -0.777524 0
M  V30 5448 C 524.462 -2.0954 2.79095 0
M  V30 5449 C 525.81 -2.68305 3.29086 0
M  V30 5450 O 526.834 -2.19797 2.80299 0
M  V30 5451 O 525.693 -3.56643 4.14087 0
M  V30 5452 H 522.787 -0.566133 0.602845 0
M  V30 5453 H 525.333 -0.501504 1.6212 0
M  V30 5454 H 524.105 -1.46958 3.62656 0
M  V30 5455 H 523.728 -2.91517 2.70377 0
M  V30 5456 N 524.725 -1.39134 -0.740242 0
M  V30 5457 C 525.655 -1.40165 -1.86751 0
M  V30 5458 C 526.636 -0.265708 -1.68012 0
M  V30 5459 O 527.821 -0.47076 -1.88408 0
M  V30 5460 C 524.951 -1.2392 -3.2444 0
M  V30 5461 C 523.905 -2.34858 -3.57807 0
M  V30 5462 C 523.231 -2.03707 -4.94376 0
M  V30 5463 C 524.531 -3.77159 -3.61315 0
M  V30 5464 H 526.225 -2.345 -1.86145 0
M  V30 5465 H 523.771 -1.12875 -0.89416 0
M  V30 5466 H 525.724 -1.23263 -4.02969 0
M  V30 5467 H 524.448 -0.26051 -3.25559 0
M  V30 5468 H 523.107 -2.34723 -2.81604 0
M  V30 5469 H 522.755 -1.04289 -4.9207 0
M  V30 5470 H 522.455 -2.78016 -5.17669 0
M  V30 5471 H 523.979 -2.04691 -5.75268 0
M  V30 5472 H 525.393 -3.79252 -4.29931 0
M  V30 5473 H 523.79 -4.50784 -3.96124 0
M  V30 5474 H 524.86 -4.08513 -2.61238 0
M  V30 5475 N 526.204 0.969867 -1.24223 0
M  V30 5476 C 527.62 1.23809 -1.00716 0
M  V30 5477 C 527.82 1.99469 0.285358 0
M  V30 5478 O 526.876 2.31764 1.00207 0
M  V30 5479 C 528.189 2.02734 -2.2208 0
M  V30 5480 C 529.737 2.15834 -2.26681 0
M  V30 5481 C 530.212 2.98154 -3.47661 0
M  V30 5482 N 531.703 3.05737 -3.47964 0
M  V30 5483 C 532.438 3.69785 -4.38231 0
M  V30 5484 N 531.934 4.35569 -5.3875 0
M  V30 5485 N 533.727 3.66775 -4.25949 0
M  V30 5486 H 525.878 0.463294 -2.07286 0
M  V30 5487 H 528.141 0.267348 -0.909521 0
M  V30 5488 H 527.847 1.54524 -3.15935 0
M  V30 5489 H 527.721 3.0347 -2.24021 0
M  V30 5490 H 530.108 2.63248 -1.33359 0
M  V30 5491 H 530.189 1.14453 -2.28767 0
M  V30 5492 H 529.833 2.51435 -4.41297 0
M  V30 5493 H 529.763 3.99729 -3.42818 0
M  V30 5494 H 532.254 2.58941 -2.75242 0
M  V30 5495 H 532.567 4.82251 -6.03866 0
M  V30 5496 H 530.912 4.34244 -5.42639 0
M  V30 5497 H 534.103 3.14558 -3.46657 0
M  V30 5498 H 534.276 4.16407 -4.96497 0
M  V30 5499 N 527.682 1.05563 1.17022 0
M  V30 5500 C 528.912 0.787307 1.91011 0
M  V30 5501 C 529.32 -0.661256 1.77268 0
M  V30 5502 O 528.663 -1.46379 1.10991 0
M  V30 5503 C 528.725 1.09313 3.42478 0
M  V30 5504 C 528.389 2.53863 3.80004 0
M  V30 5505 C 529.386 3.52081 3.82538 0
M  V30 5506 C 527.071 2.88969 4.10855 0
M  V30 5507 C 529.065 4.83449 4.15399 0
M  V30 5508 C 526.752 4.2054 4.43384 0
M  V30 5509 C 527.75 5.17589 4.45635 0
M  V30 5510 O 527.438 6.46799 4.77395 0
M  V30 5511 H 527.17 0.285463 0.61277 0
M  V30 5512 H 529.724 1.41051 1.49311 0
M  V30 5513 H 527.954 0.412833 3.8449 0
M  V30 5514 H 529.643 0.810224 3.97731 0
M  V30 5515 H 530.409 3.26299 3.58823 0
M  V30 5516 H 526.288 2.1409 4.08272 0
M  V30 5517 H 529.832 5.59194 4.1707 0
M  V30 5518 H 525.729 4.46083 4.66563 0
M  V30 5519 H 526.497 6.51677 4.95237 0
M  V30 5520 N 529.16 -1.33526 0.837174 0
M  V30 5521 C 530.385 -2.0258 0.444545 0
M  V30 5522 C 530.81 -1.6258 -0.946006 0
M  V30 5523 O 530.168 -0.817548 -1.6182 0
M  V30 5524 C 530.216 -3.5605 0.571006 0
M  V30 5525 O 529.32 -4.10422 -0.403431 0
M  V30 5526 H 528.661 -0.638866 0.180958 0
M  V30 5527 H 531.191 -1.70462 1.13154 0
M  V30 5528 H 531.201 -4.05488 0.452024 0
M  V30 5529 H 529.876 -3.84509 1.58512 0
M  V30 5530 H 528.453 -3.72113 -0.242147 0
M  V30 5531 N 530.638 -0.59345 -1.46 0
M  V30 5532 C 531.884 -0.0916503 -2.03193 0
M  V30 5533 C 532.239 1.25839 -1.45541 0
M  V30 5534 O 531.532 1.81455 -0.615191 0
M  V30 5535 C 531.726 0.021178 -3.57394 0
M  V30 5536 C 531.555 -1.31638 -4.30002 0
M  V30 5537 C 530.325 -1.89336 -4.68487 0
M  V30 5538 C 532.523 -2.242 -4.62859 0
M  V30 5539 N 530.505 -3.1672 -5.25891 0
M  V30 5540 C 531.876 -3.36175 -5.20948 0
M  V30 5541 C 533.931 -2.23748 -4.44794 0
M  V30 5542 C 532.634 -4.47844 -5.62875 0
M  V30 5543 C 534.66 -3.34454 -4.87744 0
M  V30 5544 C 534.022 -4.4515 -5.45913 0
M  V30 5545 H 530.121 -0.0765713 -0.778242 0
M  V30 5546 H 532.705 -0.788705 -1.7801 0
M  V30 5547 H 530.876 0.687423 -3.82268 0
M  V30 5548 H 532.608 0.528343 -4.01236 0
M  V30 5549 H 529.363 -1.42704 -4.51589 0
M  V30 5550 H 529.787 -3.81746 -5.59106 0
M  V30 5551 H 534.429 -1.39433 -3.99147 0
M  V30 5552 H 532.147 -5.32894 -6.07495 0
M  V30 5553 H 535.733 -3.35234 -4.75509 0
M  V30 5554 H 534.613 -5.29398 -5.78539 0
M  V30 5555 N 532.116 1.54067 -0.331816 0
M  V30 5556 C 533.346 2.04833 0.269605 0
M  V30 5557 C 533.754 1.20714 1.45687 0
M  V30 5558 O 533.097 0.232539 1.82222 0
M  V30 5559 C 533.159 3.51386 0.759499 0
M  V30 5560 C 532.823 4.55971 -0.306557 0
M  V30 5561 C 533.82 5.07126 -1.14538 0
M  V30 5562 C 531.505 5.00216 -0.457116 0
M  V30 5563 C 533.499 6.01096 -2.12042 0
M  V30 5564 C 531.186 5.93999 -1.43556 0
M  V30 5565 C 532.184 6.44326 -2.26568 0
M  V30 5566 O 531.872 7.36267 -3.22749 0
M  V30 5567 H 531.604 0.673509 0.0579763 0
M  V30 5568 H 534.158 1.99748 -0.478521 0
M  V30 5569 H 532.388 3.53896 1.55867 0
M  V30 5570 H 534.077 3.85184 1.28017 0
M  V30 5571 H 534.843 4.73716 -1.04009 0
M  V30 5572 H 530.722 4.60652 0.179142 0
M  V30 5573 H 534.266 6.40302 -2.76873 0
M  V30 5574 H 530.163 6.26825 -1.54146 0
M  V30 5575 H 530.931 7.54165 -3.18083 0
M  V30 5576 N 533.594 0.0601682 1.57485 0
M  V30 5577 C 534.541 -0.91112 2.12055 0
M  V30 5578 C 535.511 -1.30298 1.03013 0
M  V30 5579 O 536.696 -1.39087 1.30612 0
M  V30 5580 C 533.836 -2.1775 2.67729 0
M  V30 5581 C 532.949 -1.83933 3.90887 0
M  V30 5582 C 532.084 -3.05096 4.34845 0
M  V30 5583 C 531.123 -2.67241 5.5068 0
M  V30 5584 N 530.26 -3.81127 5.8965 0
M  V30 5585 H 535.1 -0.43888 2.9475 0
M  V30 5586 H 532.637 -0.204995 1.45665 0
M  V30 5587 H 534.595 -2.91866 2.98111 0
M  V30 5588 H 533.225 -2.62535 1.87816 0
M  V30 5589 H 532.277 -0.999287 3.6704 0
M  V30 5590 H 533.589 -1.52074 4.75052 0
M  V30 5591 H 532.743 -3.87502 4.66827 0
M  V30 5592 H 531.482 -3.40139 3.49509 0
M  V30 5593 H 530.487 -1.83254 5.18361 0
M  V30 5594 H 531.712 -2.3338 6.37738 0
M  V30 5595 H 529.658 -4.15954 5.07266 0
M  V30 5596 H 529.575 -3.52997 6.68528 0
M  V30 5597 H 530.843 -4.64145 6.2625 0
M  V30 5598 N 535.072 -1.5615 -0.213296 0
M  V30 5599 C 536.02 -1.93953 -1.28394 0
M  V30 5600 C 537.014 -0.822592 -1.48087 0
M  V30 5601 O 538.22 -1.00748 -1.49164 0
M  V30 5602 H 534.595 -0.61648 -0.430646 0
M  V30 5603 H 536.566 -2.83275 -0.937977 0
M  V30 5604 C 535.315 -2.27969 -2.62537 0
M  V30 5605 H 534.638 -3.13432 -2.48194 0
M  V30 5606 H 536.078 -2.58297 -3.36242 0
M  V30 5607 C 534.537 -1.10775 -3.18167 0
M  V30 5608 O 535.067 -0.373201 -3.99963 0
M  V30 5609 N 533.273 -0.889377 -2.76656 0
M  V30 5610 H 532.82 -1.48843 -2.10246 0
M  V30 5611 H 532.778 -0.107 -3.14218 0
M  V30 5612 N 536.55 0.480323 -1.50102 0
M  V30 5613 C 537.5 1.57685 -1.6468 0
M  V30 5614 C 538.484 1.52878 -0.5017 0
M  V30 5615 O 539.676 1.60058 -0.755668 0
M  V30 5616 C 536.805 2.96185 -1.73578 0
M  V30 5617 C 535.891 3.0591 -2.93734 0
M  V30 5618 N 536.282 2.85471 -4.1754 0
M  V30 5619 C 534.58 3.37036 -2.92101 0
M  V30 5620 C 535.281 2.99921 -4.9842 0
M  V30 5621 N 534.257 3.29715 -4.32191 0
M  V30 5622 H 538.059 1.40568 -2.58104 0
M  V30 5623 H 535.573 0.686874 -1.47159 0
M  V30 5624 H 537.57 3.75015 -1.82124 0
M  V30 5625 H 536.23 3.14356 -0.813057 0
M  V30 5626 H 537.241 2.61235 -4.47188 0
M  V30 5627 H 533.918 3.61253 -2.09291 0
M  V30 5628 H 535.308 2.88436 -6.06839 0
M  V30 5629 N 538.028 1.39524 0.732853 0
M  V30 5630 C 539.274 1.37068 1.49467 0
M  V30 5631 C 539.607 -0.0327166 1.94172 0
M  V30 5632 O 538.882 -0.998071 1.66939 0
M  V30 5633 C 539.165 2.34494 2.73285 0
M  V30 5634 C 539.018 3.83784 2.34585 0
M  V30 5635 C 540.337 2.29717 3.75391 0
M  V30 5636 H 537.456 0.499206 0.542183 0
M  V30 5637 H 540.098 1.70532 0.837783 0
M  V30 5638 H 538.248 2.06087 3.29333 0
M  V30 5639 H 539.92 4.22949 1.84151 0
M  V30 5640 H 538.163 4.00455 1.66787 0
M  V30 5641 H 538.834 4.47444 3.23262 0
M  V30 5642 H 541.31 2.54839 3.28932 0
M  V30 5643 H 540.186 2.99962 4.59689 0
M  V30 5644 H 540.447 1.30291 4.22465 0
M  V30 5645 N 539.506 -0.963266 1.24736 0
M  V30 5646 C 540.436 -2.07628 1.06832 0
M  V30 5647 C 541.417 -1.70088 -0.0200566 0
M  V30 5648 O 542.602 -1.93636 0.147854 0
M  V30 5649 C 539.732 -3.40636 0.677069 0
M  V30 5650 C 538.686 -3.9215 1.71471 0
M  V30 5651 C 538.012 -5.21553 1.1784 0
M  V30 5652 C 539.312 -4.19493 3.11164 0
M  V30 5653 H 541.006 -2.22864 1.9993 0
M  V30 5654 H 538.552 -1.07093 0.96266 0
M  V30 5655 H 540.505 -4.17941 0.538792 0
M  V30 5656 H 539.229 -3.25313 -0.289612 0
M  V30 5657 H 537.888 -3.17005 1.84128 0
M  V30 5658 H 537.536 -5.02593 0.202195 0
M  V30 5659 H 537.236 -5.56988 1.87185 0
M  V30 5660 H 538.76 -6.01463 1.05233 0
M  V30 5661 H 540.174 -4.87487 3.01711 0
M  V30 5662 H 538.571 -4.66165 3.77902 0
M  V30 5663 H 539.641 -3.26097 3.58871 0
M  V30 5664 N 540.985 -1.06182 -1.16461 0
M  V30 5665 C 541.915 -0.692861 -2.22984 0
M  V30 5666 C 542.896 0.314122 -1.67174 0
M  V30 5667 O 544.081 0.189499 -1.93273 0
M  V30 5668 C 541.211 -0.07732 -3.47214 0
M  V30 5669 C 540.165 -1.01015 -4.15909 0
M  V30 5670 C 539.491 -0.257973 -5.34077 0
M  V30 5671 C 540.791 -2.33868 -4.67015 0
M  V30 5672 H 542.485 -1.58343 -2.54102 0
M  V30 5673 H 540.031 -0.76279 -1.22137 0
M  V30 5674 H 541.984 0.19266 -4.20959 0
M  V30 5675 H 540.708 0.848254 -3.15392 0
M  V30 5676 H 539.367 -1.26486 -3.44088 0
M  V30 5677 H 539.015 0.670684 -4.98509 0
M  V30 5678 H 538.715 -0.879638 -5.80979 0
M  V30 5679 H 540.239 0.00448788 -6.106 0
M  V30 5680 H 541.653 -2.1279 -5.32347 0
M  V30 5681 H 540.05 -2.91522 -5.24533 0
M  V30 5682 H 541.12 -2.97019 -3.83286 0
M  V30 5683 N 542.463 1.3308 -0.844243 0
M  V30 5684 C 543.373 2.32876 -0.283922 0
M  V30 5685 C 544.389 1.63589 0.592846 0
M  V30 5686 O 545.565 1.95205 0.495693 0
M  V30 5687 C 542.63 3.42667 0.527283 0
M  V30 5688 C 541.691 4.27664 -0.374394 0
M  V30 5689 C 540.924 5.32212 0.39819 0
M  V30 5690 O 541.147 5.46635 1.62932 0
M  V30 5691 O 540.081 6.01458 -0.2306 0
M  V30 5692 H 543.907 2.82671 -1.11045 0
M  V30 5693 H 541.492 1.36518 -0.606903 0
M  V30 5694 H 543.374 4.09652 0.988078 0
M  V30 5695 H 542.049 2.95079 1.33078 0
M  V30 5696 H 540.956 3.63526 -0.883144 0
M  V30 5697 H 542.289 4.78749 -1.1428 0
M  V30 5698 N 543.941 0.601185 1.45683 0
M  V30 5699 C 545.218 0.0261659 1.95582 0
M  V30 5700 C 545.598 -1.4399 1.5437 0
M  V30 5701 O 544.946 -2.13919 0.80318 0
M  V30 5702 C 545.156 0.217557 3.48321 0
M  V30 5703 C 546.504 0.0950076 4.24494 0
M  V30 5704 O 547.528 0.147345 3.55895 0
M  V30 5705 O 546.387 -0.025261 5.46494 0
M  V30 5706 H 543.481 -0.0393688 0.826062 0
M  V30 5707 H 546.027 0.670798 1.55879 0
M  V30 5708 H 544.799 1.23601 3.71266 0
M  V30 5709 H 544.422 -0.46264 3.94899 0
M  V30 5710 N 545.419 -1.53889 0.339982 0
M  V30 5711 C 546.382 -2.23547 -0.50592 0
M  V30 5712 C 547.382 -1.23445 -1.03044 0
M  V30 5713 O 548.572 -1.47909 -0.920253 0
M  V30 5714 C 545.704 -2.95234 -1.7044 0
M  V30 5715 H 546.897 -2.99722 0.103247 0
M  V30 5716 H 544.45 -1.56033 0.0912804 0
M  V30 5717 H 545.185 -2.23236 -2.35236 0
M  V30 5718 H 544.97 -3.68654 -1.33553 0
M  V30 5719 H 546.46 -3.48258 -2.30447 0
M  V30 5720 N 546.897 -0.0685191 -1.57451 0
M  V30 5721 C 547.847 0.909895 -2.09057 0
M  V30 5722 C 548.831 1.26088 -0.999528 0
M  V30 5723 O 550.023 1.24041 -1.26265 0
M  V30 5724 C 547.152 2.17863 -2.65312 0
M  V30 5725 C 546.238 1.85427 -3.81415 0
M  V30 5726 N 546.629 1.23426 -4.9051 0
M  V30 5727 C 544.927 2.15196 -3.90649 0
M  V30 5728 C 545.628 1.09008 -5.71395 0
M  V30 5729 N 544.604 1.59871 -5.1956 0
M  V30 5730 H 548.406 0.426145 -2.90794 0
M  V30 5731 H 545.92 0.135462 -1.61834 0
M  V30 5732 H 547.917 2.88872 -3.00597 0
M  V30 5733 H 546.577 2.66829 -1.85021 0
M  V30 5734 H 547.588 0.904305 -5.09944 0
M  V30 5735 H 544.265 2.66562 -3.21327 0
M  V30 5736 H 545.655 0.607305 -6.6915 0
M  V30 5737 N 548.375 1.56261 0.205012 0
M  V30 5738 C 549.6 1.84491 0.947512 0
M  V30 5739 C 550.025 0.650894 1.76479 0
M  V30 5740 O 549.383 -0.40035 1.76824 0
M  V30 5741 C 549.431 3.10863 1.82747 0
M  V30 5742 O 548.535 2.90719 2.925 0
M  V30 5743 H 547.876 0.607783 0.267386 0
M  V30 5744 H 550.406 2.03485 0.213323 0
M  V30 5745 H 550.416 3.41399 2.23407 0
M  V30 5746 H 549.091 3.97392 1.2269 0
M  V30 5747 H 547.668 2.71457 2.55667 0
M  V30 5748 N 549.853 -0.472356 1.50355 0
M  V30 5749 C 550.803 -1.56809 1.65514 0
M  V30 5750 C 551.787 -1.5261 0.509801 0
M  V30 5751 O 552.979 -1.59655 0.764145 0
M  V30 5752 C 550.108 -2.9526 1.75146 0
M  V30 5753 C 549.194 -3.04348 2.95353 0
M  V30 5754 N 549.585 -2.83253 4.19048 0
M  V30 5755 C 547.883 -3.35482 2.93884 0
M  V30 5756 C 548.584 -2.97273 5.00003 0
M  V30 5757 N 547.56 -3.27418 4.33934 0
M  V30 5758 H 551.362 -1.39197 2.58846 0
M  V30 5759 H 548.876 -0.67906 1.47521 0
M  V30 5760 H 550.873 -3.74044 1.8411 0
M  V30 5761 H 549.533 -3.1392 0.829717 0
M  V30 5762 H 550.544 -2.5886 4.48567 0
M  V30 5763 H 547.221 -3.60138 2.11204 0
M  V30 5764 H 548.611 -2.85214 6.08361 0
M  V30 5765 N 551.331 -1.39911 -0.725443 0
M  V30 5766 C 552.559 -1.40949 -1.51463 0
M  V30 5767 C 552.974 -0.0065242 -1.88799 0
M  V30 5768 O 552.331 0.967163 -1.54765 0
M  V30 5769 C 552.382 -2.29119 -2.79619 0
M  V30 5770 O 552.103 -3.63952 -2.43866 0
M  V30 5771 C 553.604 -2.38642 -3.73584 0
M  V30 5772 H 550.824 -0.481091 -0.467752 0
M  V30 5773 H 553.368 -1.83843 -0.895651 0
M  V30 5774 H 551.523 -1.89612 -3.37826 0
M  V30 5775 H 551.937 -4.10677 -3.26258 0
M  V30 5776 H 553.411 -3.04563 -4.60375 0
M  V30 5777 H 553.888 -1.40846 -4.16004 0
M  V30 5778 H 554.494 -2.78659 -3.21293 0
M  V30 5779 N 552.809 0.956637 -1.25245 0
M  V30 5780 C 553.739 2.07058 -1.07931 0
M  V30 5781 C 554.72 1.70096 0.0110361 0
M  V30 5782 O 555.905 1.93555 -0.158121 0
M  V30 5783 C 553.035 3.40272 -0.695124 0
M  V30 5784 C 551.989 3.91235 -1.73549 0
M  V30 5785 C 551.315 5.20921 -1.20604 0
M  V30 5786 C 552.615 4.17837 -3.13385 0
M  V30 5787 H 554.309 2.218 -2.01109 0
M  V30 5788 H 551.855 1.06581 -0.968326 0
M  V30 5789 H 553.808 4.1765 -0.560949 0
M  V30 5790 H 552.532 3.25462 0.272355 0
M  V30 5791 H 551.191 3.16025 -1.85807 0
M  V30 5792 H 550.839 5.02479 -0.228846 0
M  V30 5793 H 550.539 5.55987 -1.90136 0
M  V30 5794 H 552.063 6.00897 -1.08421 0
M  V30 5795 H 553.477 4.8588 -3.04292 0
M  V30 5796 H 551.874 4.64154 -3.80369 0
M  V30 5797 H 552.944 3.2419 -3.60595 0
M  V30 5798 N 554.287 1.06798 1.15896 0
M  V30 5799 C 555.703 0.792423 1.38538 0
M  V30 5800 C 555.903 -0.60592 1.92174 0
M  V30 5801 O 554.959 -1.36561 2.12385 0
M  V30 5802 C 556.272 1.86157 2.36149 0
M  V30 5803 C 557.82 1.88567 2.49823 0
M  V30 5804 C 558.295 2.9455 3.5072 0
M  V30 5805 N 559.786 2.93616 3.58251 0
M  V30 5806 C 560.521 3.72267 4.36125 0
M  V30 5807 N 560.017 4.60751 5.17379 0
M  V30 5808 N 561.81 3.60637 4.31158 0
M  V30 5809 H 553.961 1.96993 0.794198 0
M  V30 5810 H 556.224 0.853942 0.411688 0
M  V30 5811 H 555.93 2.86603 2.03843 0
M  V30 5812 H 555.804 1.71692 3.3586 0
M  V30 5813 H 558.191 0.887765 2.8143 0
M  V30 5814 H 558.272 2.0711 1.5013 0
M  V30 5815 H 557.916 3.94537 3.19849 0
M  V30 5816 H 557.846 2.73255 4.50155 0
M  V30 5817 H 560.337 2.29472 3.00252 0
M  V30 5818 H 560.65 5.17408 5.74028 0
M  V30 5819 H 558.995 4.64803 5.16704 0
M  V30 5820 H 562.186 2.90892 3.66742 0
M  V30 5821 H 562.359 4.22176 4.91601 0
M  V30 5822 N 555.766 -1.3263 0.851289 0
M  V30 5823 C 556.696 -2.31449 0.308771 0
M  V30 5824 C 557.677 -1.59531 -0.590255 0
M  V30 5825 O 558.862 -1.87351 -0.511205 0
M  V30 5826 C 555.992 -3.43586 -0.506548 0
M  V30 5827 C 554.946 -4.26963 0.297753 0
M  V30 5828 C 554.272 -5.30831 -0.642094 0
M  V30 5829 C 555.572 -4.99643 1.52166 0
M  V30 5830 H 557.266 -2.77074 1.13447 0
M  V30 5831 H 554.812 -1.33207 0.546971 0
M  V30 5832 H 556.765 -4.11754 -0.896474 0
M  V30 5833 H 555.489 -2.96681 -1.36558 0
M  V30 5834 H 554.148 -3.60437 0.669391 0
M  V30 5835 H 553.796 -4.8018 -1.49788 0
M  V30 5836 H 553.496 -5.87501 -0.107968 0
M  V30 5837 H 555.02 -6.01862 -1.02927 0
M  V30 5838 H 556.434 -5.6051 1.20421 0
M  V30 5839 H 554.831 -5.66022 1.99347 0
M  V30 5840 H 555.901 -4.27701 2.28474 0
M  V30 5841 N 557.244 -0.608902 -1.45362 0
M  V30 5842 C 558.194 0.130616 -2.27626 0
M  V30 5843 C 559.178 0.837323 -1.37396 0
M  V30 5844 O 560.37 0.727096 -1.61376 0
M  V30 5845 C 557.499 1.12646 -3.24293 0
M  V30 5846 C 556.585 0.42052 -4.2201 0
M  V30 5847 N 556.976 -0.538569 -5.02925 0
M  V30 5848 C 555.274 0.667901 -4.40971 0
M  V30 5849 C 555.975 -0.953625 -5.7383 0
M  V30 5850 N 554.951 -0.297097 -5.42788 0
M  V30 5851 H 558.753 -0.605996 -2.87585 0
M  V30 5852 H 556.267 -0.432672 -1.5653 0
M  V30 5853 H 558.264 1.67066 -3.81961 0
M  V30 5854 H 556.924 1.86361 -2.65894 0
M  V30 5855 H 557.935 -0.915375 -5.09746 0
M  V30 5856 H 554.612 1.38963 -3.93695 0
M  V30 5857 H 556.002 -1.74473 -6.48852 0
M  V30 5858 N 558.722 1.53707 -0.348139 0
M  V30 5859 C 559.652 2.28111 0.498766 0
M  V30 5860 C 560.633 1.29851 1.09876 0
M  V30 5861 O 561.818 1.587 1.11928 0
M  V30 5862 C 558.948 3.05735 1.64753 0
M  V30 5863 C 557.902 4.11537 1.17565 0
M  V30 5864 C 557.228 4.77142 2.4133 0
M  V30 5865 C 558.528 5.21587 0.272844 0
M  V30 5866 H 560.222 2.99152 -0.121934 0
M  V30 5867 H 557.768 1.43875 -0.0600842 0
M  V30 5868 H 559.721 3.56526 2.24649 0
M  V30 5869 H 558.445 2.32354 2.2952 0
M  V30 5870 H 557.104 3.61665 0.599483 0
M  V30 5871 H 556.752 4.0035 3.04514 0
M  V30 5872 H 556.452 5.48626 2.10436 0
M  V30 5873 H 557.976 5.30719 3.01943 0
M  V30 5874 H 559.39 5.67986 0.778779 0
M  V30 5875 H 557.787 6.00074 0.0555849 0
M  V30 5876 H 558.857 4.79969 -0.689785 0
M  V30 5877 N 560.2 0.0768682 1.57412 0
M  V30 5878 C 561.163 -0.873949 2.11884 0
M  V30 5879 C 562.163 -1.22301 1.04398 0
M  V30 5880 O 563.353 -1.15545 1.30365 0
M  V30 5881 C 560.485 -2.17575 2.62438 0
M  V30 5882 H 561.678 -0.401278 2.97203 0
M  V30 5883 H 559.231 -0.171904 1.55352 0
M  V30 5884 H 559.966 -2.69368 1.80587 0
M  V30 5885 H 559.751 -1.93534 3.41009 0
M  V30 5886 H 561.241 -2.85631 3.04639 0
M  V30 5887 N 561.678 -1.56367 -0.196722 0
M  V30 5888 C 562.906 -1.84639 -0.933608 0
M  V30 5889 C 563.321 -0.659164 -1.76919 0
M  V30 5890 O 562.678 0.372142 -1.78665 0
M  V30 5891 C 562.729 -3.11694 -1.83109 0
M  V30 5892 O 562.45 -4.25838 -1.02924 0
M  V30 5893 C 563.951 -3.53132 -2.67979 0
M  V30 5894 H 561.171 -0.613188 -0.272473 0
M  V30 5895 H 563.715 -2.03475 -0.204465 0
M  V30 5896 H 561.87 -2.94759 -2.51387 0
M  V30 5897 H 562.284 -4.98178 -1.64069 0
M  V30 5898 H 563.758 -4.45005 -3.26611 0
M  V30 5899 H 564.235 -2.76045 -3.41608 0
M  V30 5900 H 564.841 -3.72592 -2.05074 0
M  V30 5901 N 563.156 0.464375 -1.50603 0
M  V30 5902 C 564.572 0.798684 -1.38178 0
M  V30 5903 C 564.772 1.96568 -0.44308 0
M  V30 5904 O 563.828 2.52252 0.111814 0
M  V30 5905 C 565.141 1.10444 -2.79683 0
M  V30 5906 C 566.689 1.2105 -2.88645 0
M  V30 5907 C 567.164 1.54934 -4.30998 0
M  V30 5908 N 568.655 1.61913 -4.3398 0
M  V30 5909 C 569.39 1.8965 -5.41129 0
M  V30 5910 N 568.886 2.15361 -6.58477 0
M  V30 5911 N 570.679 1.91207 -5.28579 0
M  V30 5912 H 562.83 -0.304603 -2.10204 0
M  V30 5913 H 565.093 -0.0737804 -0.945125 0
M  V30 5914 H 564.799 0.319934 -3.50242 0
M  V30 5915 H 564.673 2.03896 -3.17342 0
M  V30 5916 H 567.06 1.98567 -2.18301 0
M  V30 5917 H 567.141 0.255613 -2.5452 0
M  V30 5918 H 566.785 0.779549 -5.01882 0
M  V30 5919 H 566.715 2.51584 -4.62615 0
M  V30 5920 H 569.206 1.44055 -3.49366 0
M  V30 5921 H 569.519 2.35818 -7.35941 0
M  V30 5922 H 567.864 2.1274 -6.6164 0
M  V30 5923 H 571.055 1.70622 -4.35897 0
M  V30 5924 H 571.228 2.12488 -6.12171 0
M  V30 5925 N 564.634 1.40294 0.718013 0
M  V30 5926 C 565.597 1.4012 1.81381 0
M  V30 5927 C 566.597 0.295405 1.58063 0
M  V30 5928 O 567.787 0.554187 1.6515 0
M  V30 5929 C 564.919 1.19056 3.19435 0
M  V30 5930 H 566.112 2.37645 1.82933 0
M  V30 5931 H 563.665 1.26107 0.923405 0
M  V30 5932 H 564.4 0.222809 3.23534 0
M  V30 5933 H 564.185 1.99152 3.37758 0
M  V30 5934 H 565.675 1.21716 3.99468 0
M  V30 5935 N 566.112 -0.949982 1.2575 0
M  V30 5936 C 567.389 -1.6718 1.01539 0
M  V30 5937 C 567.769 -2.06095 -0.456942 0
M  V30 5938 O 567.117 -1.77792 -1.43534 0
M  V30 5939 C 567.327 -2.8906 1.95564 0
M  V30 5940 C 568.675 -3.60909 2.23673 0
M  V30 5941 O 569.699 -2.9915 1.9336 0
M  V30 5942 O 568.558 -4.72127 2.75243 0
M  V30 5943 H 565.652 -0.731697 0.385419 0
M  V30 5944 H 568.198 -1.00249 1.36924 0
M  V30 5945 H 566.97 -2.57128 2.94959 0
M  V30 5946 H 566.593 -3.63719 1.60605 0
M  V30 5947 N 567.59 -1.07411 -1.15328 0
M  V30 5948 C 568.818 -0.818782 -1.90009 0
M  V30 5949 C 569.233 0.628072 -1.78047 0
M  V30 5950 O 568.59 1.43085 -1.13282 0
M  V30 5951 C 568.641 -1.21874 -3.40337 0
M  V30 5952 O 568.362 -2.60883 -3.51954 0
M  V30 5953 C 569.863 -0.992796 -4.3204 0
M  V30 5954 H 567.083 -0.296007 -0.60218 0
M  V30 5955 H 569.627 -1.43073 -1.46117 0
M  V30 5956 H 567.782 -0.651103 -3.81889 0
M  V30 5957 H 568.196 -2.77216 -4.45255 0
M  V30 5958 H 569.67 -1.32215 -5.35932 0
M  V30 5959 H 570.147 0.0708331 -4.39143 0
M  V30 5960 H 570.753 -1.54537 -3.9623 0
M  V30 5961 N 569.068 1.32177 -0.85831 0
M  V30 5962 C 570.316 1.96735 -0.462568 0
M  V30 5963 C 570.637 1.6824 0.985911 0
M  V30 5964 O 569.907 0.991564 1.68952 0
M  V30 5965 H 568.487 0.727849 -0.168064 0
M  V30 5966 H 571.149 1.61195 -1.09554 0
M  V30 5967 H 570.245 3.06068 -0.610647 0
M  V30 5968 N 570.547 0.616602 1.45037 0
M  V30 5969 C 571.794 0.115331 2.02171 0
M  V30 5970 C 572.122 -1.25748 1.48383 0
M  V30 5971 O 571.377 -1.84511 0.652229 0
M  V30 5972 C 571.676 0.0356829 3.57382 0
M  V30 5973 C 571.342 1.34535 4.30362 0
M  V30 5974 C 570.004 1.70408 4.50016 0
M  V30 5975 C 572.356 2.21049 4.72003 0
M  V30 5976 C 569.684 2.92529 5.0857 0
M  V30 5977 C 572.036 3.42427 5.31908 0
M  V30 5978 C 570.7 3.78541 5.49784 0
M  V30 5979 H 569.97 0.0422024 0.739797 0
M  V30 5980 H 572.617 0.80002 1.73988 0
M  V30 5981 H 570.922 -0.732314 3.84895 0
M  V30 5982 H 572.619 -0.368463 3.99304 0
M  V30 5983 H 569.209 1.05615 4.15383 0
M  V30 5984 H 573.393 1.94632 4.56544 0
M  V30 5985 H 568.649 3.20605 5.20598 0
M  V30 5986 H 572.823 4.09709 5.63127 0
M  V30 5987 H 570.45 4.73255 5.94923 0
M  V30 5988 N 572.025 -1.5352 0.356285 0
M  V30 5989 C 573.255 -2.05236 -0.236983 0
M  V30 5990 C 573.663 -1.23016 -1.43749 0
M  V30 5991 O 573.006 -0.2615 -1.81829 0
M  V30 5992 C 573.068 -3.52549 -0.7035 0
M  V30 5993 C 572.732 -4.55425 0.379059 0
M  V30 5994 C 573.729 -5.0524 1.22592 0
M  V30 5995 C 571.414 -4.99425 0.536638 0
M  V30 5996 C 573.408 -5.97647 2.21578 0
M  V30 5997 C 571.095 -5.9164 1.52988 0
M  V30 5998 C 572.093 -6.4064 2.3679 0
M  V30 5999 O 571.781 -7.31039 3.34421 0
M  V30 6000 H 571.513 -0.674346 -0.047254 0
M  V30 6001 H 574.067 -1.98962 0.510238 0
M  V30 6002 H 572.297 -3.56331 -1.50217 0
M  V30 6003 H 573.986 -3.87171 -1.21873 0
M  V30 6004 H 574.752 -4.72002 1.11532 0
M  V30 6005 H 570.631 -4.60879 -0.105834 0
M  V30 6006 H 574.175 -6.35816 2.87025 0
M  V30 6007 H 570.072 -6.24293 1.64099 0
M  V30 6008 H 570.84 -7.49009 3.30041 0
M  V30 6009 N 573.503 -0.0852151 -1.57369 0
M  V30 6010 C 574.75 0.580806 -1.93992 0
M  V30 6011 C 575.078 1.68801 -0.966252 0
M  V30 6012 O 574.333 1.95694 0.0158649 0
M  V30 6013 C 574.632 1.18482 -3.3719 0
M  V30 6014 C 574.298 0.2024 -4.50446 0
M  V30 6015 C 572.96 -0.0678318 -4.81152 0
M  V30 6016 C 575.312 -0.46895 -5.19086 0
M  V30 6017 C 572.64 -1.01627 -5.77831 0
M  V30 6018 C 574.992 -1.4058 -6.16782 0
M  V30 6019 C 573.656 -1.68436 -6.45899 0
M  V30 6020 H 572.926 0.212532 -0.709867 0
M  V30 6021 H 575.573 -0.158947 -1.90839 0
M  V30 6022 H 573.878 2.0006 -3.36873 0
M  V30 6023 H 575.575 1.70767 -3.62822 0
M  V30 6024 H 572.165 0.423208 -4.26505 0
M  V30 6025 H 576.349 -0.273307 -4.95547 0
M  V30 6026 H 571.605 -1.2392 -5.9871 0
M  V30 6027 H 575.779 -1.93188 -6.69068 0
M  V30 6028 H 573.406 -2.42088 -7.20623 0
M  V30 6029 N 574.981 1.5647 0.188427 0
M  V30 6030 C 576.221 1.82803 0.914469 0
M  V30 6031 C 576.585 0.663681 1.80165 0
M  V30 6032 O 577.786 0.807059 2.56398 0
M  V30 6033 C 576.057 3.14187 1.70357 0
M  V30 6034 S 577.616 3.61947 2.48072 0
M  V30 6035 H 574.434 0.641497 0.306599 0
M  V30 6036 H 577.036 1.94694 0.177361 0
M  V30 6037 H 575.74 3.96937 1.04255 0
M  V30 6038 H 575.271 3.05192 2.48237 0
M  V30 6039 H 577.286 3.27913 3.72407 0
M  V30 6040 N 576.459 -0.456382 1.50847 0
M  V30 6041 C 577.369 -1.57805 1.73594 0
M  V30 6042 C 578.385 -1.62599 0.619476 0
M  V30 6043 O 579.561 -1.80195 0.899532 0
M  V30 6044 C 576.626 -2.93926 1.8387 0
M  V30 6045 C 575.687 -2.99402 3.07663 0
M  V30 6046 C 574.92 -4.29031 3.1744 0
M  V30 6047 O 575.143 -5.20358 2.33631 0
M  V30 6048 O 574.077 -4.40401 4.10281 0
M  V30 6049 H 577.903 -1.41531 2.68705 0
M  V30 6050 H 575.488 -0.637422 1.3512 0
M  V30 6051 H 577.37 -3.74747 1.92725 0
M  V30 6052 H 576.045 -3.10368 0.91944 0
M  V30 6053 H 574.952 -2.17606 3.043 0
M  V30 6054 H 576.285 -2.87901 3.99216 0
M  V30 6055 N 577.937 -1.40673 -0.710563 0
M  V30 6056 C 579.183 -1.39428 -1.47267 0
M  V30 6057 C 579.516 0.00182129 -1.942 0
M  V30 6058 O 578.791 0.971387 -1.68506 0
M  V30 6059 C 579.074 -2.38812 -2.6952 0
M  V30 6060 C 578.927 -3.87467 -2.28449 0
M  V30 6061 C 580.246 -2.3566 -3.71689 0
M  V30 6062 H 577.365 -0.507768 -0.534173 0
M  V30 6063 H 580.007 -1.71843 -0.810547 0
M  V30 6064 H 578.157 -2.113 -3.26013 0
M  V30 6065 H 579.829 -4.25825 -1.77399 0
M  V30 6066 H 578.072 -4.03058 -1.60395 0
M  V30 6067 H 578.743 -4.5253 -3.16103 0
M  V30 6068 H 581.219 -2.6004 -3.24836 0
M  V30 6069 H 580.095 -3.07237 -4.54859 0
M  V30 6070 H 580.356 -1.36996 -4.20339 0
M  V30 6071 N 579.415 0.9433 -1.26252 0
M  V30 6072 C 580.347 2.04542 -1.03417 0
M  V30 6073 C 581.36 1.62799 0.0046911 0
M  V30 6074 O 582.549 1.76944 -0.235146 0
M  V30 6075 C 579.649 3.34511 -0.543671 0
M  V30 6076 C 578.822 4.05033 -1.65128 0
M  V30 6077 C 577.881 5.13273 -1.1592 0
M  V30 6078 O 576.907 5.38095 -1.85586 0
M  V30 6079 N 578.109 5.805 -0.00649279 0
M  V30 6080 H 580.874 2.24699 -1.98319 0
M  V30 6081 H 578.435 1.11264 -1.1761 0
M  V30 6082 H 580.427 4.04212 -0.198703 0
M  V30 6083 H 578.997 3.11042 0.311711 0
M  V30 6084 H 578.217 3.29275 -2.16729 0
M  V30 6085 H 579.505 4.48903 -2.39508 0
M  V30 6086 H 578.903 5.62767 0.575347 0
M  V30 6087 H 577.46 6.51201 0.279416 0
M  V30 6088 N 580.893 1.08022 1.14757 0
M  V30 6089 C 581.841 0.701088 2.21783 0
M  V30 6090 C 582.835 -0.291311 1.66876 0
M  V30 6091 O 584.041 -0.154296 1.79337 0
M  V30 6092 H 580.416 0.208668 0.722469 0
M  V30 6093 H 582.387 1.61321 2.51034 0
M  V30 6094 C 581.136 0.122278 3.47485 0
M  V30 6095 H 580.459 0.877065 3.90061 0
M  V30 6096 H 581.899 -0.105248 4.23869 0
M  V30 6097 C 580.358 -1.13883 3.17068 0
M  V30 6098 O 580.888 -2.22429 3.34497 0
M  V30 6099 N 579.094 -1.04767 2.71058 0
M  V30 6100 H 578.641 -0.164302 2.57075 0
M  V30 6101 H 578.599 -1.89224 2.51081 0
M  V30 6102 N 582.371 -1.3172 0.865308 0
M  V30 6103 C 583.617 -1.97168 0.474633 0
M  V30 6104 C 583.95 -1.68263 -0.969604 0
M  V30 6105 O 583.225 -0.976588 -1.68205 0
M  V30 6106 C 583.508 -3.52689 0.726808 0
M  V30 6107 C 583.361 -3.91185 2.22024 0
M  V30 6108 C 584.68 -4.39689 0.190201 0
M  V30 6109 H 581.799 -0.716185 0.17392 0
M  V30 6110 H 584.441 -1.55925 1.08569 0
M  V30 6111 H 582.591 -3.8795 0.206705 0
M  V30 6112 H 584.263 -3.66049 2.80724 0
M  V30 6113 H 582.506 -3.3996 2.69462 0
M  V30 6114 H 583.177 -4.99604 2.34735 0
M  V30 6115 H 585.653 -4.11225 0.635103 0
M  V30 6116 H 584.529 -5.47469 0.396132 0
M  V30 6117 H 584.79 -4.32683 -0.907625 0
M  V30 6118 N 583.85 -0.624285 -1.44708 0
M  V30 6119 C 584.8 0.106466 -2.27751 0
M  V30 6120 C 585.784 0.822703 -1.38277 0
M  V30 6121 O 586.976 0.709939 -1.62138 0
M  V30 6122 C 584.105 1.092 -3.25469 0
M  V30 6123 C 583.191 0.375737 -4.22432 0
M  V30 6124 N 583.582 -0.591881 -5.02325 0
M  V30 6125 C 581.88 0.621093 -4.41654 0
M  V30 6126 C 582.581 -1.01443 -5.72786 0
M  V30 6127 N 581.557 -0.354651 -5.42442 0
M  V30 6128 H 585.359 -0.636464 -2.86926 0
M  V30 6129 H 582.873 -0.44925 -1.56062 0
M  V30 6130 H 584.87 1.63006 -3.83712 0
M  V30 6131 H 583.529 1.8353 -2.67856 0
M  V30 6132 H 584.541 -0.969389 -5.08747 0
M  V30 6133 H 581.218 1.34779 -3.95147 0
M  V30 6134 H 582.608 -1.81345 -6.46965 0
M  V30 6135 N 585.328 1.53329 -0.364422 0
M  V30 6136 C 586.576 2.00842 0.225189 0
M  V30 6137 C 586.897 1.25345 1.49378 0
M  V30 6138 O 586.167 0.366396 1.92443 0
M  V30 6139 H 584.747 0.742009 0.0862027 0
M  V30 6140 H 587.409 1.8863 -0.490389 0
M  V30 6141 H 586.505 3.08795 0.452987 0
M  V30 6142 N 586.806 0.0935595 1.57322 0
M  V30 6143 C 588.031 -0.582324 1.99057 0
M  V30 6144 C 588.456 -1.61025 0.972242 0
M  V30 6145 O 587.814 -1.81202 -0.0594622 0
M  V30 6146 C 587.862 -1.20799 3.39765 0
M  V30 6147 O 586.966 -2.32382 3.40694 0
M  V30 6148 H 586.307 -0.147884 0.647323 0
M  V30 6149 H 588.837 0.174516 2.03854 0
M  V30 6150 H 588.847 -1.54966 3.77425 0
M  V30 6151 H 587.522 -0.454914 4.13405 0
M  V30 6152 H 586.099 -1.99845 3.14827 0
M  V30 6153 N 588.284 -1.56567 -0.180126 0
M  V30 6154 C 589.194 -1.98947 -1.24327 0
M  V30 6155 C 590.21 -0.899446 -1.4895 0
M  V30 6156 O 591.386 -1.20639 -1.61271 0
M  V30 6157 C 588.451 -2.33328 -2.56435 0
M  V30 6158 C 587.512 -3.56114 -2.39752 0
M  V30 6159 C 586.745 -3.88845 -3.65561 0
M  V30 6160 O 586.968 -3.22662 -4.70368 0
M  V30 6161 O 585.902 -4.82226 -3.60197 0
M  V30 6162 H 589.728 -2.89634 -0.913565 0
M  V30 6163 H 587.313 -1.44319 -0.386306 0
M  V30 6164 H 589.195 -2.5645 -3.34382 0
M  V30 6165 H 587.87 -1.45806 -2.89002 0
M  V30 6166 H 586.777 -3.38221 -1.59866 0
M  V30 6167 H 588.11 -4.4415 -2.12113 0
M  V30 6168 N 589.762 0.448376 -1.51087 0
M  V30 6169 C 591.178 0.783984 -1.39017 0
M  V30 6170 C 591.378 1.96087 -0.463904 0
M  V30 6171 O 590.434 2.52357 0.0850534 0
M  V30 6172 C 591.747 1.07471 -2.80839 0
M  V30 6173 C 593.295 1.17981 -2.89913 0
M  V30 6174 C 593.77 1.50354 -4.32617 0
M  V30 6175 N 595.261 1.57301 -4.35673 0
M  V30 6176 C 595.996 1.839 -5.4311 0
M  V30 6177 N 595.492 2.08365 -6.60724 0
M  V30 6178 N 597.285 1.8559 -5.30578 0
M  V30 6179 H 589.436 -0.326881 -2.0987 0
M  V30 6180 H 591.699 -0.0838006 -0.944289 0
M  V30 6181 H 591.405 0.282768 -3.50561 0
M  V30 6182 H 591.279 2.00519 -3.19487 0
M  V30 6183 H 593.666 1.9624 -2.20395 0
M  V30 6184 H 593.747 0.228603 -2.54776 0
M  V30 6185 H 593.391 0.726273 -5.0268 0
M  V30 6186 H 593.321 2.46663 -4.65258 0
M  V30 6187 H 595.812 1.40342 -3.50874 0
M  V30 6188 H 596.125 2.27999 -7.38401 0
M  V30 6189 H 594.47 2.0571 -6.63859 0
M  V30 6190 H 597.661 1.65989 -4.37682 0
M  V30 6191 H 597.834 2.05983 -6.1439 0
M  V30 6192 N 591.24 1.41047 0.703093 0
M  V30 6193 C 592.465 1.43537 1.49706 0
M  V30 6194 C 592.89 0.0401853 1.88057 0
M  V30 6195 O 592.248 -0.954785 1.54122 0
M  V30 6196 C 592.296 2.3433 2.74084 0
M  V30 6197 O 591.4 1.79515 3.71279 0
M  V30 6198 H 590.741 0.487454 0.450871 0
M  V30 6199 H 593.271 1.85422 0.86486 0
M  V30 6200 H 593.281 2.49947 3.22476 0
M  V30 6201 H 591.956 3.35708 2.45506 0
M  V30 6202 H 590.533 1.7331 3.30179 0
M  V30 6203 N 592.718 -0.936591 1.26751 0
M  V30 6204 C 593.966 -1.67998 1.12343 0
M  V30 6205 C 594.287 -1.92137 -0.332938 0
M  V30 6206 O 593.557 -1.52132 -1.23421 0
M  V30 6207 H 592.137 -0.622609 0.412756 0
M  V30 6208 H 594.799 -1.12509 1.59147 0
M  V30 6209 H 593.895 -2.65185 1.64571 0
M  V30 6210 N 594.196 -1.08629 -1.14182 0
M  V30 6211 C 595.607 -0.838003 -1.66836 0
M  V30 6212 C 595.958 0.634885 -1.85644 0
M  V30 6213 O 595.083 1.49008 -1.56926 0
M  V30 6214 C 595.678 -1.51465 -3.03058 0
M  V30 6215 C 594.237 -1.31355 -3.52736 0
M  V30 6216 C 593.384 -1.57599 -2.28162 0
M  V30 6217 H 596.335 -1.24656 -0.982165 0
M  V30 6218 H 596.356 -0.943134 -3.68626 0
M  V30 6219 H 595.868 -2.58661 -2.89337 0
M  V30 6220 H 593.969 -0.262384 -3.71675 0
M  V30 6221 H 594.082 -2.04275 -4.33369 0
M  V30 6222 H 592.446 -0.997659 -2.34348 0
M  V30 6223 H 593.229 -2.66006 -2.17015 0
M  V30 6224 N 595.674 1.31259 -0.872281 0
M  V30 6225 C 596.92 1.96913 -0.485083 0
M  V30 6226 C 597.253 1.68774 0.960667 0
M  V30 6227 O 596.528 0.985495 1.67685 0
M  V30 6228 C 596.811 3.52299 -0.745502 0
M  V30 6229 C 596.664 3.90002 -2.24095 0
M  V30 6230 C 597.983 4.39582 -0.213516 0
M  V30 6231 H 595.102 0.715252 -0.177716 0
M  V30 6232 H 597.744 1.55347 -1.09395 0
M  V30 6233 H 595.894 3.87835 -0.227276 0
M  V30 6234 H 597.566 3.64555 -2.82661 0
M  V30 6235 H 595.809 3.38526 -2.71261 0
M  V30 6236 H 596.48 4.98352 -2.37381 0
M  V30 6237 H 598.956 4.10882 -0.656902 0
M  V30 6238 H 597.832 5.47251 -0.42516 0
M  V30 6239 H 598.093 4.33158 0.884666 0
M  V30 6240 N 597.152 0.631951 1.44375 0
M  V30 6241 C 598.377 0.142146 2.06912 0
M  V30 6242 C 598.802 -1.17456 1.4692 0
M  V30 6243 O 598.16 -1.72074 0.570975 0
M  V30 6244 C 598.208 0.0417952 3.60576 0
M  V30 6245 O 597.312 -1.00194 4.00044 0
M  V30 6246 H 596.653 0.0851491 0.658518 0
M  V30 6247 H 599.183 0.868863 1.85235 0
M  V30 6248 H 599.193 -0.148517 4.0773 0
M  V30 6249 H 597.868 1.0031 4.03622 0
M  V30 6250 H 596.445 -0.786131 3.64519 0
M  V30 6251 N 598.631 -1.53133 0.372548 0
M  V30 6252 C 599.877 -2.01654 -0.215277 0
M  V30 6253 C 600.21 -1.25914 -1.47849 0
M  V30 6254 O 599.485 -0.3548 -1.91237 0
M  V30 6255 C 599.768 -3.56609 -0.500187 0
M  V30 6256 C 599.621 -4.43036 0.777145 0
M  V30 6257 C 600.94 -4.20528 -1.29786 0
M  V30 6258 H 598.059 -0.732991 -0.0767686 0
M  V30 6259 H 600.701 -1.83335 0.498814 0
M  V30 6260 H 598.851 -3.7235 -1.10852 0
M  V30 6261 H 600.523 -4.39079 1.41447 0
M  V30 6262 H 598.766 -4.10723 1.39604 0
M  V30 6263 H 599.437 -5.49424 0.532662 0
M  V30 6264 H 601.913 -4.08663 -0.783198 0
M  V30 6265 H 600.789 -5.28962 -1.46596 0
M  V30 6266 H 601.05 -3.77051 -2.30836 0
M  V30 6267 N 600.109 -0.101901 -1.5727 0
M  V30 6268 C 601.355 0.561027 -1.94885 0
M  V30 6269 C 601.688 1.6741 -0.984258 0
M  V30 6270 O 600.963 1.94491 -0.0184767 0
M  V30 6271 C 601.246 1.10982 -3.42571 0
M  V30 6272 C 601.099 0.00133418 -4.498 0
M  V30 6273 C 602.418 2.00608 -3.9172 0
M  V30 6274 H 599.537 0.202467 -0.708644 0
M  V30 6275 H 602.179 -0.173992 -1.89202 0
M  V30 6276 H 600.329 1.73621 -3.47546 0
M  V30 6277 H 602.001 -0.63322 -4.56933 0
M  V30 6278 H 600.244 -0.664143 -4.28686 0
M  V30 6279 H 600.915 0.426253 -5.50352 0
M  V30 6280 H 603.391 1.47864 -3.88941 0
M  V30 6281 H 602.267 2.3593 -4.95609 0
M  V30 6282 H 602.528 2.92608 -3.3141 0
M  V30 6283 N 601.587 1.56661 0.17182 0
M  V30 6284 C 602.833 1.82235 0.889845 0
M  V30 6285 C 603.166 0.679673 1.81918 0
M  V30 6286 O 602.441 -0.318404 1.91876 0
M  V30 6287 C 602.724 3.18195 1.68595 0
M  V30 6288 C 602.577 4.42989 0.779773 0
M  V30 6289 C 603.896 3.5109 2.65375 0
M  V30 6290 H 601.015 0.66291 0.322056 0
M  V30 6291 H 603.657 1.89358 0.15608 0
M  V30 6292 H 601.807 3.12253 2.3115 0
M  V30 6293 H 603.479 4.60997 0.16714 0
M  V30 6294 H 601.722 4.33711 0.0877964 0
M  V30 6295 H 602.393 5.3467 1.3723 0
M  V30 6296 H 604.869 3.57482 2.12946 0
M  V30 6297 H 603.745 4.47298 3.18144 0
M  V30 6298 H 604.006 2.75768 3.45549 0
M  V30 6299 N 603.065 -0.440357 1.51323 0
M  V30 6300 C 604.013 -1.55492 1.72988 0
M  V30 6301 C 605.007 -1.58564 0.596138 0
M  V30 6302 O 606.213 -1.62345 0.777443 0
M  V30 6303 H 602.588 -0.516532 0.546533 0
M  V30 6304 H 604.559 -1.34392 2.66423 0
M  V30 6305 C 603.308 -2.93176 1.86931 0
M  V30 6306 H 602.631 -2.91543 2.73574 0
M  V30 6307 H 604.071 -3.70537 2.06103 0
M  V30 6308 C 602.53 -3.30988 0.628365 0
M  V30 6309 O 603.06 -4.01106 -0.218367 0
M  V30 6310 N 601.266 -2.86719 0.473339 0
M  V30 6311 H 600.813 -2.2983 1.16345 0
M  V30 6312 H 600.771 -3.12381 -0.355727 0
M  V30 6313 N 604.543 -1.41418 -0.695603 0
M  V30 6314 C 605.493 -1.39731 -1.80165 0
M  V30 6315 C 606.477 -0.271689 -1.5859 0
M  V30 6316 O 607.669 -0.512354 -1.69422 0
M  V30 6317 C 604.798 -1.28187 -3.1847 0
M  V30 6318 C 603.884 -2.45612 -3.45739 0
M  V30 6319 N 604.275 -3.71077 -3.43708 0
M  V30 6320 C 602.573 -2.39424 -3.76288 0
M  V30 6321 C 603.274 -4.48957 -3.69882 0
M  V30 6322 N 602.25 -3.7907 -3.89624 0
M  V30 6323 H 606.052 -2.34656 -1.76957 0
M  V30 6324 H 603.566 -1.35473 -0.89559 0
M  V30 6325 H 605.563 -1.2506 -3.977 0
M  V30 6326 H 604.223 -0.342468 -3.22889 0
M  V30 6327 H 605.234 -4.03963 -3.2409 0
M  V30 6328 H 601.911 -1.53955 -3.88077 0
M  V30 6329 H 603.301 -5.57887 -3.74448 0
M  V30 6330 N 606.021 0.929856 -1.27246 0
M  V30 6331 C 607.432 1.49223 -1.12203 0
M  V30 6332 C 607.783 1.93989 0.293731 0
M  V30 6333 O 606.908 1.80978 1.18642 0
M  V30 6334 C 607.503 2.71198 -2.0307 0
M  V30 6335 C 606.062 3.23666 -1.92139 0
M  V30 6336 C 605.209 1.96409 -1.95752 0
M  V30 6337 H 608.16 0.744181 -1.4017 0
M  V30 6338 H 608.181 3.45905 -1.58524 0
M  V30 6339 H 607.693 2.38585 -3.06102 0
M  V30 6340 H 605.794 3.61042 -0.920834 0
M  V30 6341 H 605.907 3.90006 -2.78267 0
M  V30 6342 H 604.271 2.12806 -1.39949 0
M  V30 6343 H 605.054 1.66113 -3.00436 0
M  V30 6344 N 607.499 1.09233 1.13605 0
M  V30 6345 C 608.91 0.846839 1.6639 0
M  V30 6346 C 609.261 -0.625031 1.85978 0
M  V30 6347 O 608.386 -1.48173 1.57714 0
M  V30 6348 C 608.981 1.5307 3.0225 0
M  V30 6349 C 607.54 1.33223 3.52035 0
M  V30 6350 C 606.687 1.58806 2.27323 0
M  V30 6351 H 609.638 1.25175 0.975541 0
M  V30 6352 H 609.659 0.96267 3.68121 0
M  V30 6353 H 609.171 2.60192 2.87961 0
M  V30 6354 H 607.272 0.282091 3.71531 0
M  V30 6355 H 607.385 2.0657 4.32279 0
M  V30 6356 H 605.749 1.01007 2.33815 0
M  V30 6357 H 606.532 2.67153 2.15602 0
M  V30 6358 N 608.977 -1.30795 0.87923 0
M  V30 6359 C 609.907 -2.30742 0.357796 0
M  V30 6360 C 610.888 -1.60747 -0.556283 0
M  V30 6361 O 612.073 -1.88393 -0.47135 0
M  V30 6362 C 609.203 -3.44583 -0.433555 0
M  V30 6363 C 608.157 -4.26235 0.388251 0
M  V30 6364 C 607.483 -5.32073 -0.529352 0
M  V30 6365 C 608.783 -4.96303 1.62729 0
M  V30 6366 H 610.477 -2.74605 1.19299 0
M  V30 6367 H 608.023 -1.32017 0.575104 0
M  V30 6368 H 609.976 -4.13563 -0.808934 0
M  V30 6369 H 608.7 -2.99511 -1.30234 0
M  V30 6370 H 607.359 -3.58936 0.745695 0
M  V30 6371 H 607.007 -4.83249 -1.39569 0
M  V30 6372 H 606.707 -5.87598 0.0166741 0
M  V30 6373 H 608.231 -6.0391 -0.901373 0
M  V30 6374 H 609.645 -5.5783 1.32283 0
M  V30 6375 H 608.042 -5.61666 2.11309 0
M  V30 6376 H 609.112 -4.22758 2.37494 0
M  V30 6377 N 610.455 -0.639598 -1.44038 0
M  V30 6378 C 611.683 -0.154811 -2.0632 0
M  V30 6379 C 612.098 1.17406 -1.47856 0
M  V30 6380 O 611.455 1.72193 -0.604638 0
M  V30 6381 C 611.506 -0.0429958 -3.61474 0
M  V30 6382 O 611.227 -1.31932 -4.17763 0
M  V30 6383 C 612.728 0.469486 -4.40807 0
M  V30 6384 H 609.948 -0.0835862 -0.665773 0
M  V30 6385 H 612.492 -0.876397 -1.84769 0
M  V30 6386 H 610.647 0.629075 -3.82258 0
M  V30 6387 H 611.061 -1.16965 -5.11292 0
M  V30 6388 H 612.535 0.496712 -5.49761 0
M  V30 6389 H 613.012 1.49819 -4.12857 0
M  V30 6390 H 613.618 -0.169624 -4.24962 0
M  V30 6391 N 611.933 1.52934 -0.380664 0
M  V30 6392 C 613.344 1.86457 0.0952684 0
M  V30 6393 C 613.695 1.3007 1.46889 0
M  V30 6394 O 612.82 0.628636 2.07068 0
M  V30 6395 C 613.415 3.38323 0.179648 0
M  V30 6396 C 611.974 3.71589 0.599858 0
M  V30 6397 C 611.121 2.76228 -0.243572 0
M  V30 6398 H 614.072 1.46966 -0.59888 0
M  V30 6399 H 614.093 3.67113 1.00042 0
M  V30 6400 H 613.605 3.79333 -0.820228 0
M  V30 6401 H 611.706 3.36144 1.60742 0
M  V30 6402 H 611.819 4.77715 0.364003 0
M  V30 6403 H 610.183 2.53045 0.289855 0
M  V30 6404 H 610.966 3.20074 -1.24127 0
M  V30 6405 N 613.412 0.11024 1.57214 0
M  V30 6406 C 614.658 -0.550684 1.9518 0
M  V30 6407 C 614.991 -1.66885 0.993122 0
M  V30 6408 O 614.266 -1.94479 0.0287907 0
M  V30 6409 C 614.549 -1.09163 3.43155 0
M  V30 6410 C 614.402 0.0225198 4.49794 0
M  V30 6411 C 615.721 -1.98527 3.92778 0
M  V30 6412 H 612.84 -0.198706 0.709708 0
M  V30 6413 H 615.482 0.184024 1.89107 0
M  V30 6414 H 613.632 -1.71775 3.48462 0
M  V30 6415 H 615.304 0.657443 4.56591 0
M  V30 6416 H 613.547 0.686868 4.28328 0
M  V30 6417 H 614.218 -0.39706 5.5057 0
M  V30 6418 H 616.694 -1.458 3.8972 0
M  V30 6419 H 615.57 -2.33298 4.96853 0
M  V30 6420 H 615.831 -2.90846 3.32958 0
M  V30 6421 N 614.89 -1.56749 -0.16351 0
M  V30 6422 C 615.82 -2.00042 -1.20438 0
M  V30 6423 C 616.801 -0.877256 -1.45733 0
M  V30 6424 O 617.986 -1.1439 -1.56935 0
M  V30 6425 C 615.116 -2.36697 -2.54149 0
M  V30 6426 C 614.07 -3.52046 -2.43408 0
M  V30 6427 C 613.396 -3.74466 -3.81679 0
M  V30 6428 C 614.696 -4.85247 -1.93216 0
M  V30 6429 H 616.39 -2.87244 -0.844477 0
M  V30 6430 H 613.936 -1.38194 -0.40478 0
M  V30 6431 H 615.889 -2.65582 -3.27176 0
M  V30 6432 H 614.613 -1.46414 -2.91943 0
M  V30 6433 H 613.272 -3.23301 -1.72834 0
M  V30 6434 H 612.92 -2.81461 -4.1688 0
M  V30 6435 H 612.62 -4.52084 -3.75359 0
M  V30 6436 H 614.144 -4.0576 -4.5628 0
M  V30 6437 H 615.558 -5.12957 -2.56023 0
M  V30 6438 H 613.955 -5.66556 -1.97825 0
M  V30 6439 H 615.025 -4.7672 -0.88689 0
M  V30 6440 N 616.368 0.432326 -1.51554 0
M  V30 6441 C 617.596 1.20364 -1.68286 0
M  V30 6442 C 618.011 1.84888 -0.38233 0
M  V30 6443 O 617.368 1.70924 0.639627 0
M  V30 6444 C 617.419 2.28398 -2.80208 0
M  V30 6445 O 617.14 1.66512 -4.05223 0
M  V30 6446 C 618.641 3.18584 -3.08251 0
M  V30 6447 H 615.861 0.36259 -0.564596 0
M  V30 6448 H 618.405 0.511647 -1.97996 0
M  V30 6449 H 616.56 2.93305 -2.53083 0
M  V30 6450 H 616.974 2.37951 -4.67418 0
M  V30 6451 H 618.448 3.90511 -3.90135 0
M  V30 6452 H 618.925 3.79628 -2.2086 0
M  V30 6453 H 619.531 2.59372 -3.37055 0
M  V30 6454 N 617.846 1.41785 0.688094 0
M  V30 6455 C 618.809 1.43936 1.78368 0
M  V30 6456 C 619.809 0.328866 1.57401 0
M  V30 6457 O 620.999 0.589093 1.63937 0
M  V30 6458 C 618.131 1.25804 3.16838 0
M  V30 6459 H 619.324 2.41472 1.77852 0
M  V30 6460 H 616.877 1.28037 0.896448 0
M  V30 6461 H 617.612 0.291386 3.22988 0
M  V30 6462 H 617.397 2.06272 3.33458 0
M  V30 6463 H 618.887 1.30162 3.96797 0
M  V30 6464 N 619.324 -0.923095 1.27737 0
M  V30 6465 C 620.571 -1.67127 1.14345 0
M  V30 6466 C 620.899 -1.92017 -0.30982 0
M  V30 6467 O 620.154 -1.51185 -1.24264 0
M  V30 6468 C 620.453 -3.04125 1.8773 0
M  V30 6469 C 620.119 -2.98929 3.37568 0
M  V30 6470 C 618.781 -2.9722 3.78436 0
M  V30 6471 C 621.133 -2.89875 4.33154 0
M  V30 6472 C 618.461 -2.84244 5.13247 0
M  V30 6473 C 620.813 -2.7844 5.68026 0
M  V30 6474 C 619.477 -2.75083 6.08182 0
M  V30 6475 H 618.747 -0.611562 0.418417 0
M  V30 6476 H 621.394 -1.07618 1.584 0
M  V30 6477 H 619.699 -3.67366 1.36196 0
M  V30 6478 H 621.396 -3.609 1.74792 0
M  V30 6479 H 617.986 -3.0105 3.05069 0
M  V30 6480 H 622.17 -2.9029 4.02548 0
M  V30 6481 H 617.426 -2.80034 5.43499 0
M  V30 6482 H 621.6 -2.70401 6.4176 0
M  V30 6483 H 619.227 -2.64786 7.12596 0
M  V30 6484 N 620.802 -1.09834 -1.13024 0
M  V30 6485 C 621.732 -0.763451 -2.20666 0
M  V30 6486 C 622.713 0.260778 -1.68089 0
M  V30 6487 O 623.898 0.127915 -1.93778 0
M  V30 6488 C 621.028 -0.187744 -3.46792 0
M  V30 6489 C 619.982 -1.14196 -4.12484 0
M  V30 6490 C 619.308 -0.427755 -5.32986 0
M  V30 6491 C 620.608 -2.48607 -4.59338 0
M  V30 6492 H 622.302 -1.66347 -2.48936 0
M  V30 6493 H 619.848 -0.801261 -1.19649 0
M  V30 6494 H 621.801 0.0586375 -4.21359 0
M  V30 6495 H 620.525 0.747485 -3.17931 0
M  V30 6496 H 619.184 -1.37369 -3.3989 0
M  V30 6497 H 618.832 0.511747 -5.0039 0
M  V30 6498 H 618.532 -1.06403 -5.77886 0
M  V30 6499 H 620.056 -0.189772 -6.10305 0
M  V30 6500 H 621.47 -2.29618 -5.25308 0
M  V30 6501 H 619.867 -3.08062 -5.14993 0
M  V30 6502 H 620.937 -3.09062 -3.73642 0
M  V30 6503 N 622.28 1.30327 -0.886154 0
M  V30 6504 C 623.19 2.31854 -0.357866 0
M  V30 6505 C 624.206 1.65392 0.540502 0
M  V30 6506 O 625.382 1.96683 0.433339 0
M  V30 6507 C 622.447 3.44171 0.417999 0
M  V30 6508 C 621.508 4.26257 -0.510263 0
M  V30 6509 C 620.741 5.3321 0.228669 0
M  V30 6510 O 620.964 5.51542 1.45458 0
M  V30 6511 O 619.898 6.0042 -0.421832 0
M  V30 6512 H 623.724 2.78995 -1.19982 0
M  V30 6513 H 621.309 1.34518 -0.650028 0
M  V30 6514 H 623.191 4.12588 0.857251 0
M  V30 6515 H 621.866 2.99164 1.23623 0
M  V30 6516 H 620.773 3.60533 -0.99835 0
M  V30 6517 H 622.106 4.74871 -1.29454 0
M  V30 6518 N 623.758 0.647228 1.43697 0
M  V30 6519 C 624.986 0.16575 2.06235 0
M  V30 6520 C 625.401 -1.1662 1.48476 0
M  V30 6521 O 624.758 -1.7187 0.613762 0
M  V30 6522 C 624.809 0.0621651 3.61447 0
M  V30 6523 O 624.53 1.34146 4.17057 0
M  V30 6524 C 626.031 -0.446102 4.4105 0
M  V30 6525 H 623.251 0.0871158 0.665321 0
M  V30 6526 H 625.795 0.886183 1.84301 0
M  V30 6527 H 623.95 -0.608794 3.82587 0
M  V30 6528 H 624.364 1.19675 5.10664 0
M  V30 6529 H 625.838 -0.46755 5.50016 0
M  V30 6530 H 626.315 -1.47627 4.13646 0
M  V30 6531 H 626.921 0.192159 4.24866 0
M  V30 6532 N 625.236 -1.5273 0.388769 0
M  V30 6533 C 626.168 -2.24081 -0.481704 0
M  V30 6534 C 627.181 -1.26307 -1.02715 0
M  V30 6535 O 628.37 -1.52386 -0.929565 0
M  V30 6536 C 625.47 -2.94315 -1.68024 0
M  V30 6537 C 624.643 -4.18791 -1.26226 0
M  V30 6538 C 623.702 -4.72028 -2.32542 0
M  V30 6539 O 622.728 -5.35129 -1.93972 0
M  V30 6540 N 623.93 -4.51838 -3.64448 0
M  V30 6541 H 626.695 -2.9942 0.129591 0
M  V30 6542 H 624.256 -1.60465 0.2151 0
M  V30 6543 H 626.248 -3.26831 -2.38671 0
M  V30 6544 H 624.818 -2.22287 -2.19789 0
M  V30 6545 H 624.038 -3.92318 -0.384703 0
M  V30 6546 H 625.326 -4.99668 -0.959647 0
M  V30 6547 H 624.724 -4.01468 -3.98547 0
M  V30 6548 H 623.281 -4.88845 -4.31131 0
M  V30 6549 N 626.714 -0.118576 -1.57153 0
M  V30 6550 C 627.677 0.817464 -2.14127 0
M  V30 6551 C 628.677 1.1949 -1.07604 0
M  V30 6552 O 629.867 1.12048 -1.33382 0
M  V30 6553 C 626.999 2.10541 -2.68115 0
M  V30 6554 H 628.192 0.322339 -2.98163 0
M  V30 6555 H 625.745 0.130655 -1.55753 0
M  V30 6556 H 626.48 2.64485 -1.87665 0
M  V30 6557 H 626.265 1.84425 -3.4602 0
M  V30 6558 H 627.755 2.77453 -3.12105 0
M  V30 6559 N 628.193 1.56834 0.155195 0
M  V30 6560 C 629.441 1.82536 0.867462 0
M  V30 6561 C 629.762 0.698168 1.82073 0
M  V30 6562 O 629.032 -0.280807 1.93877 0
M  V30 6563 H 627.612 0.673401 0.323327 0
M  V30 6564 H 630.274 1.94313 0.151156 0
M  V30 6565 H 629.37 2.77171 1.43466 0
M  V30 6566 N 629.671 -0.424282 1.51781 0
M  V30 6567 C 630.601 -1.52305 1.7699 0
M  V30 6568 C 631.582 -1.5839 0.620209 0
M  V30 6569 O 632.767 -1.73908 0.864268 0
M  V30 6570 C 629.897 -2.90271 1.90683 0
M  V30 6571 C 628.851 -2.99043 3.06198 0
M  V30 6572 C 628.177 -4.39116 3.05092 0
M  V30 6573 C 629.477 -2.7192 4.45934 0
M  V30 6574 H 631.171 -1.31461 2.68995 0
M  V30 6575 H 628.717 -0.630985 1.29439 0
M  V30 6576 H 630.67 -3.6711 2.06901 0
M  V30 6577 H 629.394 -3.12376 0.953365 0
M  V30 6578 H 628.053 -2.24646 2.89706 0
M  V30 6579 H 627.701 -4.58207 2.07498 0
M  V30 6580 H 627.401 -4.45912 3.82669 0
M  V30 6581 H 628.925 -5.17911 3.2342 0
M  V30 6582 H 630.339 -3.38487 4.62709 0
M  V30 6583 H 628.736 -2.90111 5.25315 0
M  V30 6584 H 629.806 -1.67445 4.55072 0
M  V30 6585 N 631.149 -1.42148 -0.680565 0
M  V30 6586 C 632.395 -1.42521 -1.44277 0
M  V30 6587 C 632.728 -0.0393718 -1.9416 0
M  V30 6588 O 632.003 0.935425 -1.70529 0
M  V30 6589 C 632.286 -2.44475 -2.64394 0
M  V30 6590 C 632.139 -3.92226 -2.20179 0
M  V30 6591 C 633.458 -2.43491 -3.66606 0
M  V30 6592 H 630.577 -0.518985 -0.523282 0
M  V30 6593 H 633.219 -1.73524 -0.773914 0
M  V30 6594 H 631.369 -2.18168 -3.21458 0
M  V30 6595 H 633.041 -4.29493 -1.68327 0
M  V30 6596 H 631.284 -4.0637 -1.5181 0
M  V30 6597 H 631.955 -4.59133 -3.06433 0
M  V30 6598 H 634.431 -2.66872 -3.19247 0
M  V30 6599 H 633.307 -3.16816 -4.4824 0
M  V30 6600 H 633.568 -1.45881 -4.17338 0
M  V30 6601 N 632.627 0.916307 -1.28225 0
M  V30 6602 C 633.875 1.6619 -1.15002 0
M  V30 6603 C 634.196 1.92642 0.302329 0
M  V30 6604 O 633.466 1.54076 1.20985 0
M  V30 6605 H 632.046 0.615964 -0.422608 0
M  V30 6606 H 634.708 1.09963 -1.60917 0
M  V30 6607 H 633.804 2.62533 -1.68769 0
M  V30 6608 N 634.105 1.10431 1.1244 0
M  V30 6609 C 635.354 0.841539 1.83306 0
M  V30 6610 C 635.667 -0.634961 1.85007 0
M  V30 6611 O 636.873 -1.01363 2.51869 0
M  V30 6612 C 635.329 1.45565 3.29149 0
M  V30 6613 C 634.937 2.96544 3.35806 0
M  V30 6614 C 636.681 1.27227 4.04986 0
M  V30 6615 C 634.588 3.5099 4.75983 0
M  V30 6616 H 633.518 0.311156 0.686803 0
M  V30 6617 H 636.169 1.32829 1.26604 0
M  V30 6618 H 634.551 0.896574 3.85717 0
M  V30 6619 H 635.725 3.58766 2.89177 0
M  V30 6620 H 634.04 3.14036 2.73442 0
M  V30 6621 H 636.637 1.65348 5.08492 0
M  V30 6622 H 636.98 0.213834 4.1575 0
M  V30 6623 H 637.513 1.79941 3.54776 0
M  V30 6624 H 634.252 4.56499 4.70413 0
M  V30 6625 H 633.772 2.93535 5.23065 0
M  V30 6626 H 635.451 3.48808 5.44924 0
M  V30 6627 N 635.583 -1.29855 0.893053 0
M  V30 6628 C 636.513 -2.3035 0.382249 0
M  V30 6629 C 637.494 -1.61328 -0.539203 0
M  V30 6630 O 638.679 -1.88882 -0.451342 0
M  V30 6631 C 635.809 -3.45024 -0.396983 0
M  V30 6632 C 634.763 -4.258 0.433437 0
M  V30 6633 C 634.089 -5.32605 -0.472889 0
M  V30 6634 C 635.389 -4.94549 1.67984 0
M  V30 6635 H 637.083 -2.73325 1.22205 0
M  V30 6636 H 634.629 -1.314 0.589073 0
M  V30 6637 H 636.582 -4.14398 -0.765024 0
M  V30 6638 H 635.306 -3.00875 -1.2705 0
M  V30 6639 H 633.965 -3.58125 0.783723 0
M  V30 6640 H 633.613 -4.84702 -1.34435 0
M  V30 6641 H 633.313 -5.87547 0.0789958 0
M  V30 6642 H 634.837 -6.04832 -0.837269 0
M  V30 6643 H 636.251 -5.56395 1.38192 0
M  V30 6644 H 634.648 -5.59393 2.17254 0
M  V30 6645 H 635.718 -4.20215 2.41965 0
M  V30 6646 N 637.061 -0.65484 -1.43351 0
M  V30 6647 C 638.011 0.0581325 -2.27926 0
M  V30 6648 C 638.995 0.793188 -1.3999 0
M  V30 6649 O 640.187 0.675387 -1.63608 0
M  V30 6650 C 637.316 1.02272 -3.27712 0
M  V30 6651 C 636.402 0.286048 -4.23134 0
M  V30 6652 N 636.793 -0.698298 -5.00957 0
M  V30 6653 C 635.091 0.527272 -4.42872 0
M  V30 6654 C 635.792 -1.1357 -5.70506 0
M  V30 6655 N 634.768 -0.469631 -5.41568 0
M  V30 6656 H 638.57 -0.697182 -2.85511 0
M  V30 6657 H 636.084 -0.482252 -1.55074 0
M  V30 6658 H 638.081 1.5483 -3.87083 0
M  V30 6659 H 636.741 1.77807 -2.71688 0
M  V30 6660 H 637.752 -1.07708 -5.06576 0
M  V30 6661 H 634.429 1.26367 -3.97916 0
M  V30 6662 H 635.819 -1.95027 -6.42973 0
M  V30 6663 N 638.539 1.52521 -0.396863 0
M  V30 6664 C 639.779 2.03583 0.182578 0
M  V30 6665 C 640.143 1.2766 1.43412 0
M  V30 6666 O 641.344 1.68884 2.09121 0
M  V30 6667 C 639.615 3.54724 0.436519 0
M  V30 6668 S 641.174 4.27598 0.985163 0
M  V30 6669 H 637.992 0.709186 0.0507529 0
M  V30 6670 H 640.594 1.87693 -0.546955 0
M  V30 6671 H 639.298 4.07567 -0.481343 0
M  V30 6672 H 638.829 3.74834 1.19427 0
M  V30 6673 H 640.844 4.41393 2.26686 0
M  V30 6674 N 640.017 0.126909 1.57088 0
M  V30 6675 C 641.242 -0.53997 2.00248 0
M  V30 6676 C 641.667 -1.58927 1.00618 0
M  V30 6677 O 641.025 -1.81288 -0.0210131 0
M  V30 6678 C 641.073 -1.13565 3.4225 0
M  V30 6679 O 640.177 -2.25103 3.45547 0
M  V30 6680 H 639.518 -0.13412 0.650314 0
M  V30 6681 H 642.048 0.217718 2.03438 0
M  V30 6682 H 642.058 -1.46925 3.80627 0
M  V30 6683 H 640.733 -0.367122 4.14277 0
M  V30 6684 H 639.31 -1.93123 3.18995 0
M  V30 6685 N 641.495 -1.56914 -0.146875 0
M  V30 6686 C 642.741 -1.83628 -0.860741 0
M  V30 6687 C 643.074 -0.708528 -1.80813 0
M  V30 6688 O 642.349 0.287838 -1.92358 0
M  V30 6689 C 642.632 -3.20836 -1.63511 0
M  V30 6690 C 642.485 -4.44174 -0.709199 0
M  V30 6691 C 643.804 -3.55268 -2.59756 0
M  V30 6692 H 640.923 -0.667949 -0.311468 0
M  V30 6693 H 643.565 -1.89582 -0.125936 0
M  V30 6694 H 641.715 -3.15891 -2.26153 0
M  V30 6695 H 643.387 -4.61205 -0.0937781 0
M  V30 6696 H 641.63 -4.33796 -0.0187856 0
M  V30 6697 H 642.301 -5.36785 -1.28707 0
M  V30 6698 H 644.777 -3.60824 -2.07232 0
M  V30 6699 H 643.653 -4.52303 -3.10987 0
M  V30 6700 H 643.914 -2.81231 -3.41118 0
M  V30 6701 N 642.974 0.416227 -1.52004 0
M  V30 6702 C 644.22 1.16555 -1.6596 0
M  V30 6703 C 644.553 1.90347 -0.384906 0
M  V30 6704 O 643.828 1.84474 0.616405 0
M  V30 6705 C 644.111 2.1657 -2.87696 0
M  V30 6706 C 643.964 1.46722 -4.25197 0
M  V30 6707 C 645.283 3.17321 -3.04951 0
M  V30 6708 H 642.402 0.422369 -0.603965 0
M  V30 6709 H 645.044 0.452141 -1.84542 0
M  V30 6710 H 643.194 2.77411 -2.71985 0
M  V30 6711 H 644.866 0.89056 -4.52622 0
M  V30 6712 H 643.109 0.769263 -4.26925 0
M  V30 6713 H 643.78 2.19665 -5.0641 0
M  V30 6714 H 646.256 2.66552 -3.19514 0
M  V30 6715 H 645.132 3.84573 -3.91656 0
M  V30 6716 H 645.393 3.84643 -2.17951 0
M  V30 6717 N 644.452 1.42507 0.673017 0
M  V30 6718 C 645.677 1.4668 1.46627 0
M  V30 6719 C 646.102 0.080066 1.8793 0
M  V30 6720 O 645.46 -0.921879 1.56112 0
M  V30 6721 C 645.508 2.40091 2.69051 0
M  V30 6722 O 644.612 1.8735 3.67387 0
M  V30 6723 H 643.953 0.496908 0.44043 0
M  V30 6724 H 646.483 1.87215 0.825334 0
M  V30 6725 H 646.493 2.56731 3.17101 0
M  V30 6726 H 645.168 3.4084 2.3833 0
M  V30 6727 H 643.745 1.80274 3.26429 0
M  V30 6728 N 645.93 -0.909495 1.28709 0
M  V30 6729 C 646.84 -2.04558 1.14861 0
M  V30 6730 C 647.856 -1.73842 0.0741621 0
M  V30 6731 O 649.032 -1.99383 0.2843 0
M  V30 6732 C 646.097 -3.36957 0.816148 0
M  V30 6733 C 645.158 -3.81255 1.97341 0
M  V30 6734 C 644.391 -5.07335 1.65671 0
M  V30 6735 O 644.614 -5.67514 0.573053 0
M  V30 6736 O 643.548 -5.47449 2.50167 0
M  V30 6737 H 647.374 -2.19161 2.10243 0
M  V30 6738 H 644.959 -1.03159 1.08068 0
M  V30 6739 H 646.841 -4.16436 0.644873 0
M  V30 6740 H 645.516 -3.2352 -0.107983 0
M  V30 6741 H 644.423 -3.02584 2.19986 0
M  V30 6742 H 645.756 -3.99261 2.87839 0
M  V30 6743 N 647.408 -1.11026 -1.11852 0
M  V30 6744 C 648.819 -0.873203 -1.65021 0
M  V30 6745 C 649.17 0.595364 -1.86949 0
M  V30 6746 O 648.295 1.45645 -1.60051 0
M  V30 6747 C 648.89 -1.57859 -2.99777 0
M  V30 6748 C 647.449 -1.38807 -3.49871 0
M  V30 6749 C 646.596 -1.62403 -2.24768 0
M  V30 6750 H 649.547 -1.26712 -0.955503 0
M  V30 6751 H 649.568 -1.02111 -3.66543 0
M  V30 6752 H 649.08 -2.6474 -2.83786 0
M  V30 6753 H 647.181 -0.341163 -3.71035 0
M  V30 6754 H 647.294 -2.13421 -4.28938 0
M  V30 6755 H 645.658 -1.04714 -2.32179 0
M  V30 6756 H 646.441 -2.70549 -2.11324 0
M  V30 6757 N 648.886 1.2938 -0.899927 0
M  V30 6758 C 649.816 2.30144 -0.39446 0
M  V30 6759 C 650.797 1.61611 0.530639 0
M  V30 6760 O 651.982 1.89119 0.441319 0
M  V30 6761 C 649.112 3.45229 0.37868 0
M  V30 6762 C 648.066 4.25564 -0.456012 0
M  V30 6763 C 647.392 5.32848 0.444637 0
M  V30 6764 C 648.692 4.93651 -1.70605 0
M  V30 6765 H 650.386 2.72673 -1.23653 0
M  V30 6766 H 647.932 1.31086 -0.596034 0
M  V30 6767 H 649.885 4.14797 0.743037 0
M  V30 6768 H 648.609 3.01545 1.25453 0
M  V30 6769 H 647.268 3.57704 -0.802704 0
M  V30 6770 H 646.916 4.85408 1.31863 0
M  V30 6771 H 646.616 5.87497 -0.110154 0
M  V30 6772 H 648.14 6.05268 0.805182 0
M  V30 6773 H 649.554 5.55655 -1.41141 0
M  V30 6774 H 647.951 5.58233 -2.20217 0
M  V30 6775 H 649.021 4.18926 -2.4419 0
M  V30 6776 N 650.364 0.662433 1.43002 0
M  V30 6777 C 651.327 -0.0142016 2.29196 0
M  V30 6778 C 652.327 -0.741394 1.42688 0
M  V30 6779 O 653.517 -0.581257 1.64216 0
M  V30 6780 C 650.649 -1.03084 3.24941 0
M  V30 6781 H 651.842 0.7443 2.90517 0
M  V30 6782 H 649.395 0.424133 1.50435 0
M  V30 6783 H 650.13 -1.81826 2.68533 0
M  V30 6784 H 649.915 -0.512946 3.8873 0
M  V30 6785 H 651.405 -1.50308 3.89612 0
M  V30 6786 N 651.842 -1.52309 0.404946 0
M  V30 6787 C 653.07 -2.06185 -0.171818 0
M  V30 6788 C 653.485 -1.27536 -1.39212 0
M  V30 6789 O 652.842 -0.326112 -1.79563 0
M  V30 6790 C 652.893 -3.57647 -0.526417 0
M  V30 6791 O 652.614 -4.3332 0.645417 0
M  V30 6792 C 654.115 -4.27925 -1.15736 0
M  V30 6793 H 651.335 -0.670632 -0.0222328 0
M  V30 6794 H 653.879 -1.96259 0.574692 0
M  V30 6795 H 652.034 -3.67595 -1.22282 0
M  V30 6796 H 652.448 -5.23328 0.35042 0
M  V30 6797 H 653.922 -5.35093 -1.35572 0
M  V30 6798 H 654.399 -3.84134 -2.12926 0
M  V30 6799 H 655.005 -4.22335 -0.501281 0
M  V30 6800 N 653.32 -0.135238 -1.57019 0
M  V30 6801 C 654.25 0.805235 -2.19176 0
M  V30 6802 C 655.231 1.2656 -1.13651 0
M  V30 6803 O 656.416 1.32528 -1.4195 0
M  V30 6804 C 653.546 2.04914 -2.80406 0
M  V30 6805 C 652.5 1.72598 -3.91655 0
M  V30 6806 C 651.826 3.04154 -4.39766 0
M  V30 6807 C 653.126 0.981709 -5.12991 0
M  V30 6808 H 654.82 0.287232 -2.98019 0
M  V30 6809 H 652.366 0.136714 -1.4335 0
M  V30 6810 H 654.319 2.71178 -3.22553 0
M  V30 6811 H 653.043 2.59067 -1.98877 0
M  V30 6812 H 651.702 1.08717 -3.50109 0
M  V30 6813 H 651.35 3.56274 -3.55075 0
M  V30 6814 H 651.05 2.83299 -5.14796 0
M  V30 6815 H 652.574 3.71509 -4.84576 0
M  V30 6816 H 653.988 1.5462 -5.52056 0
M  V30 6817 H 652.385 0.873533 -5.93708 0
M  V30 6818 H 653.455 -0.0286887 -4.84892 0
M  V30 6819 N 654.798 1.5699 0.138552 0
M  V30 6820 C 656.044 1.84081 0.85099 0
M  V30 6821 C 656.377 0.718107 1.80435 0
M  V30 6822 O 655.652 -0.277633 1.92508 0
M  V30 6823 C 655.935 3.21699 1.61808 0
M  V30 6824 C 655.788 4.44544 0.685633 0
M  V30 6825 C 657.107 3.5664 2.57868 0
M  V30 6826 H 654.226 0.669592 0.307922 0
M  V30 6827 H 656.868 1.89646 0.11588 0
M  V30 6828 H 655.018 3.17086 2.24474 0
M  V30 6829 H 656.69 4.61248 0.0693179 0
M  V30 6830 H 654.933 4.338 -0.00421993 0
M  V30 6831 H 655.604 5.3746 1.25858 0
M  V30 6832 H 658.08 3.61918 2.05316 0
M  V30 6833 H 656.956 4.53946 3.08584 0
M  V30 6834 H 657.217 2.83036 3.39622 0
M  V30 6835 N 656.276 -0.40816 1.52223 0
M  V30 6836 C 657.206 -1.5042 1.78595 0
M  V30 6837 C 658.187 -1.57723 0.636974 0
M  V30 6838 O 659.372 -1.72982 0.882664 0
M  V30 6839 C 656.502 -2.88232 1.93751 0
M  V30 6840 C 655.456 -2.95779 3.09352 0
M  V30 6841 C 654.782 -4.35855 3.09732 0
M  V30 6842 C 656.082 -2.67175 4.48793 0
M  V30 6843 H 657.776 -1.28601 2.70374 0
M  V30 6844 H 655.322 -0.617221 1.30101 0
M  V30 6845 H 657.275 -3.64895 2.10783 0
M  V30 6846 H 655.999 -3.11347 0.986443 0
M  V30 6847 H 654.658 -2.21561 2.92072 0
M  V30 6848 H 654.306 -4.55981 2.12346 0
M  V30 6849 H 654.006 -4.41829 3.87377 0
M  V30 6850 H 655.53 -5.14451 3.28895 0
M  V30 6851 H 656.944 -3.3356 4.66273 0
M  V30 6852 H 655.341 -2.84523 5.28362 0
M  V30 6853 H 656.411 -1.62609 4.56822 0
M  V30 6854 N 657.755 -1.42862 -0.66545 0
M  V30 6855 C 658.98 -1.47456 -1.45848 0
M  V30 6856 C 659.405 -0.0900312 -1.87884 0
M  V30 6857 O 658.763 0.913587 -1.56599 0
M  V30 6858 C 658.811 -2.41514 -2.67774 0
M  V30 6859 O 657.915 -1.89296 -3.66389 0
M  V30 6860 H 657.256 -0.499236 -0.437789 0
M  V30 6861 H 659.786 -1.8765 -0.815394 0
M  V30 6862 H 659.796 -2.58409 -3.15735 0
M  V30 6863 H 658.471 -3.42099 -2.36519 0
M  V30 6864 H 657.048 -1.82003 -3.25468 0
M  V30 6865 N 659.233 0.902656 -1.29189 0
M  V30 6866 C 660.183 1.99326 -1.10695 0
M  V30 6867 C 661.167 1.60877 -0.0272521 0
M  V30 6868 O 662.359 1.75245 -0.248635 0
M  V30 6869 C 659.488 3.34265 -0.78244 0
M  V30 6870 C 658.574 3.79081 -1.90153 0
M  V30 6871 N 658.965 3.96162 -3.14466 0
M  V30 6872 C 657.263 4.08333 -1.79389 0
M  V30 6873 C 657.964 4.3388 -3.87458 0
M  V30 6874 N 656.94 4.42759 -3.15381 0
M  V30 6875 H 660.742 2.10597 -2.05003 0
M  V30 6876 H 658.256 1.09127 -1.20271 0
M  V30 6877 H 660.253 4.12097 -0.630996 0
M  V30 6878 H 658.913 3.2434 0.152754 0
M  V30 6879 H 659.924 3.81775 -3.49954 0
M  V30 6880 H 656.601 4.06982 -0.931217 0
M  V30 6881 H 657.991 4.54965 -4.94425 0
M  V30 6882 N 660.711 1.11618 1.11262 0
M  V30 6883 C 661.959 0.864469 1.82678 0
M  V30 6884 C 662.28 -0.611564 1.85162 0
M  V30 6885 O 661.55 -1.44429 1.32352 0
M  V30 6886 H 660.13 0.316821 0.676486 0
M  V30 6887 H 662.792 1.40894 1.34666 0
M  V30 6888 H 661.888 1.23832 2.86482 0
M  V30 6889 N 662.189 -1.289 0.906776 0
M  V30 6890 C 663.437 -1.94883 0.535266 0
M  V30 6891 C 663.758 -1.71784 -0.922791 0
M  V30 6892 O 663.028 -1.05359 -1.65156 0
M  V30 6893 H 661.608 -0.721109 0.194962 0
M  V30 6894 H 664.27 -1.57018 1.15461 0
M  V30 6895 H 663.366 -3.03591 0.723821 0
M  V30 6896 N 663.667 -0.670007 -1.42649 0
M  V30 6897 C 664.617 0.0339546 -2.27975 0
M  V30 6898 C 665.601 0.778295 -1.40824 0
M  V30 6899 O 666.793 0.657997 -1.64315 0
M  V30 6900 C 663.922 0.987899 -3.28779 0
M  V30 6901 C 663.008 0.241153 -4.23414 0
M  V30 6902 N 663.399 -0.751392 -5.00188 0
M  V30 6903 C 661.697 0.480269 -4.43407 0
M  V30 6904 C 662.398 -1.19615 -5.69269 0
M  V30 6905 N 661.374 -0.527045 -5.41039 0
M  V30 6906 H 665.176 -0.727425 -2.84756 0
M  V30 6907 H 662.69 -0.498673 -1.54554 0
M  V30 6908 H 664.687 1.50716 -3.88703 0
M  V30 6909 H 663.347 1.74916 -2.73559 0
M  V30 6910 H 664.358 -1.13075 -5.05405 0
M  V30 6911 H 661.035 1.2214 -3.99234 0
M  V30 6912 H 662.425 -2.01836 -6.40868 0
M  V30 6913 N 665.145 1.52092 -0.413018 0
M  V30 6914 C 666.394 2.01041 0.16287 0
M  V30 6915 C 666.707 1.30288 1.45892 0
M  V30 6916 O 667.913 1.70075 2.11629 0
M  V30 6917 C 666.369 3.58283 0.340806 0
M  V30 6918 C 665.977 4.37955 -0.943377 0
M  V30 6919 C 667.721 4.15452 0.871774 0
M  V30 6920 C 665.628 5.86847 -0.732417 0
M  V30 6921 H 664.558 0.751224 0.0646414 0
M  V30 6922 H 667.209 1.75404 -0.539059 0
M  V30 6923 H 665.591 3.80266 1.10516 0
M  V30 6924 H 666.765 4.2773 -1.71418 0
M  V30 6925 H 665.08 3.92122 -1.40105 0
M  V30 6926 H 667.677 5.24375 1.0457 0
M  V30 6927 H 668.02 3.73057 1.84755 0
M  V30 6928 H 668.553 3.97452 0.166377 0
M  V30 6929 H 665.292 6.33609 -1.67986 0
M  V30 6930 H 664.812 5.998 -0.000980058 0
M  V30 6931 H 666.491 6.45906 -0.376105 0
M  V30 6932 N 666.623 0.143563 1.56945 0
M  V30 6933 C 667.553 -0.7936 2.196 0
M  V30 6934 C 668.534 -1.25955 1.14321 0
M  V30 6935 O 669.719 -1.31773 1.42651 0
M  V30 6936 C 666.849 -2.03424 2.81489 0
M  V30 6937 C 665.803 -1.70519 3.92565 0
M  V30 6938 C 665.129 -3.01817 4.41373 0
M  V30 6939 C 666.429 -0.95449 5.13504 0
M  V30 6940 H 668.123 -0.271423 2.98167 0
M  V30 6941 H 665.669 -0.12911 1.4342 0
M  V30 6942 H 667.622 -2.69463 3.23987 0
M  V30 6943 H 666.346 -2.58008 2.00248 0
M  V30 6944 H 665.005 -1.06859 3.5068 0
M  V30 6945 H 664.653 -3.54386 3.56959 0
M  V30 6946 H 664.353 -2.80565 5.16292 0
M  V30 6947 H 665.877 -3.68934 4.86539 0
M  V30 6948 H 667.291 -1.5169 5.52868 0
M  V30 6949 H 665.688 -0.842035 5.94163 0
M  V30 6950 H 666.758 0.0544033 4.84869 0
M  V30 6951 N 668.101 -1.57061 -0.130224 0
M  V30 6952 C 669.064 -1.98593 -1.14426 0
M  V30 6953 C 670.064 -0.874584 -1.34936 0
M  V30 6954 O 671.254 -1.14086 -1.31643 0
M  V30 6955 C 668.386 -2.31639 -2.50112 0
M  V30 6956 H 669.579 -2.89374 -0.787561 0
M  V30 6957 H 667.132 -1.51756 -0.374146 0
M  V30 6958 H 667.867 -1.43703 -2.90723 0
M  V30 6959 H 667.652 -3.12684 -2.36583 0
M  V30 6960 H 669.142 -2.64551 -3.23114 0
M  V30 6961 N 669.579 0.400081 -1.52437 0
M  V30 6962 C 670.804 1.17221 -1.71096 0
M  V30 6963 C 671.229 1.83269 -0.423565 0
M  V30 6964 O 670.587 1.70378 0.619751 0
M  V30 6965 C 670.635 2.20425 -2.85386 0
M  V30 6966 O 669.739 3.26769 -2.51586 0
M  V30 6967 H 669.08 0.341766 -0.569291 0
M  V30 6968 H 671.61 0.467772 -1.99181 0
M  V30 6969 H 671.62 2.64605 -3.10561 0
M  V30 6970 H 670.295 1.71737 -3.78786 0
M  V30 6971 H 668.872 2.87804 -2.37114 0
M  V30 6972 N 671.057 1.43213 0.657864 0
M  V30 6973 C 672.285 1.48015 1.44566 0
M  V30 6974 C 672.7 0.0965951 1.88553 0
M  V30 6975 O 672.057 -0.892221 1.59203 0
M  V30 6976 C 672.108 2.42199 2.68369 0
M  V30 6977 O 671.829 3.75173 2.26223 0
M  V30 6978 C 673.33 2.56195 3.61772 0
M  V30 6979 H 670.55 0.502861 0.444266 0
M  V30 6980 H 673.094 1.87907 0.806917 0
M  V30 6981 H 671.249 2.05514 3.28394 0
M  V30 6982 H 671.663 4.25776 3.06293 0
M  V30 6983 H 673.137 3.26182 4.4532 0
M  V30 6984 H 673.614 1.60534 4.0881 0
M  V30 6985 H 674.22 2.93671 3.07632 0
M  V30 6986 N 672.536 -0.895792 1.29666 0
M  V30 6987 C 673.761 -1.68528 1.20885 0
M  V30 6988 C 674.186 -1.8673 -0.226595 0
M  V30 6989 O 673.544 -1.39044 -1.16347 0
M  V30 6990 C 673.592 -3.04512 1.93144 0
M  V30 6991 O 672.696 -3.92963 1.25115 0
M  V30 6992 H 672.037 -0.515371 0.418675 0
M  V30 6993 H 674.567 -1.11878 1.71302 0
M  V30 6994 H 674.577 -3.54628 2.0175 0
M  V30 6995 H 673.252 -2.90582 2.97548 0
M  V30 6996 H 671.829 -3.51399 1.24794 0
M  V30 6997 N 674.014 -1.12206 -1.10668 0
M  V30 6998 C 675.262 -0.874144 -1.82217 0
M  V30 6999 C 675.583 0.601736 -1.85484 0
M  V30 7000 O 674.853 1.43725 -1.33116 0
M  V30 7001 H 673.433 -0.320404 -0.674797 0
M  V30 7002 H 676.095 -1.41606 -1.33917 0
M  V30 7003 H 675.191 -1.25349 -2.85822 0
M  V30 7004 N 675.492 1.28418 -0.913599 0
M  V30 7005 C 676.769 1.89977 -0.465619 0
M  V30 7006 C 677.149 1.82813 1.05559 0
M  V30 7007 O 676.497 1.26397 1.90358 0
M  V30 7008 C 676.707 3.34492 -0.995813 0
M  V30 7009 C 678.055 4.11468 -1.04782 0
M  V30 7010 O 679.079 3.43451 -0.944445 0
M  V30 7011 O 677.938 5.33046 -1.20518 0
M  V30 7012 H 675.032 0.813734 -0.147532 0
M  V30 7013 H 677.578 1.36786 -1.00437 0
M  V30 7014 H 676.35 3.33929 -2.03978 0
M  V30 7015 H 675.973 3.95181 -0.437878 0
M  V30 7016 N 676.97 0.677563 1.42291 0
M  V30 7017 C 678.195 0.207901 2.06355 0
M  V30 7018 C 678.62 -1.12723 1.50583 0
M  V30 7019 O 677.978 -1.70171 0.62543 0
M  V30 7020 C 678.026 0.156489 3.6026 0
M  V30 7021 O 677.13 -0.874162 4.03029 0
M  V30 7022 H 676.471 0.106056 0.655475 0
M  V30 7023 H 679.001 0.927354 1.82377 0
M  V30 7024 H 679.011 -0.0187258 4.07996 0
M  V30 7025 H 677.686 1.13101 4.00226 0
M  V30 7026 H 676.263 -0.669764 3.66836 0
M  V30 7027 N 678.448 -1.51871 0.421078 0
M  V30 7028 C 679.725 -1.9447 -0.20993 0
M  V30 7029 C 680.105 -1.35875 -1.61558 0
M  V30 7030 O 679.453 -0.539294 -2.22045 0
M  V30 7031 C 679.663 -3.48402 -0.204165 0
M  V30 7032 C 681.011 -4.2254 -0.417696 0
M  V30 7033 O 682.035 -3.55074 -0.282999 0
M  V30 7034 O 680.894 -5.422 -0.684239 0
M  V30 7035 H 677.988 -0.815283 -0.138718 0
M  V30 7036 H 680.534 -1.62832 0.477884 0
M  V30 7037 H 679.306 -3.83464 0.779183 0
M  V30 7038 H 678.929 -3.86436 -0.935576 0
M  V30 7039 N 679.926 -0.151884 -1.56866 0
M  V30 7040 C 680.876 0.797799 -2.13586 0
M  V30 7041 C 681.86 1.20613 -1.06496 0
M  V30 7042 O 683.052 1.17173 -1.32663 0
M  V30 7043 C 680.181 2.03493 -2.76488 0
M  V30 7044 C 679.267 1.64948 -3.90708 0
M  V30 7045 N 679.658 0.972513 -4.96363 0
M  V30 7046 C 677.956 1.94186 -4.01507 0
M  V30 7047 C 678.657 0.785661 -5.7637 0
M  V30 7048 N 677.633 1.32105 -5.27304 0
M  V30 7049 H 681.435 0.271403 -2.92644 0
M  V30 7050 H 678.949 0.049487 -1.62325 0
M  V30 7051 H 680.946 2.72532 -3.15487 0
M  V30 7052 H 679.606 2.56646 -1.98904 0
M  V30 7053 H 680.617 0.632724 -5.1402 0
M  V30 7054 H 677.294 2.49154 -3.35005 0
M  V30 7055 H 678.684 0.251749 -6.71428 0
M  V30 7056 N 681.404 1.57128 0.121893 0
M  V30 7057 C 682.629 1.89254 0.848385 0
M  V30 7058 C 683.054 0.743527 1.72781 0
M  V30 7059 O 682.412 -0.306056 1.78698 0
M  V30 7060 C 682.46 3.20113 1.66012 0
M  V30 7061 O 681.564 3.05815 2.76679 0
M  V30 7062 H 680.905 0.621103 0.234793 0
M  V30 7063 H 683.435 2.0433 0.10516 0
M  V30 7064 H 683.445 3.52761 2.04996 0
M  V30 7065 H 682.12 4.03336 1.01452 0
M  V30 7066 H 680.697 2.84627 2.40918 0
M  V30 7067 N 682.882 -0.391992 1.52647 0
M  V30 7068 C 684.293 -0.970064 1.5952 0
M  V30 7069 C 684.644 -1.91059 0.446207 0
M  V30 7070 O 683.769 -2.12062 -0.431125 0
M  V30 7071 C 684.364 -1.76614 2.89125 0
M  V30 7072 C 682.923 -2.29396 2.9842 0
M  V30 7073 C 682.07 -1.09864 2.54608 0
M  V30 7074 H 685.021 -0.171638 1.57769 0
M  V30 7075 H 685.042 -2.62511 2.75442 0
M  V30 7076 H 684.554 -1.08135 3.72731 0
M  V30 7077 H 682.655 -3.01196 2.19344 0
M  V30 7078 H 682.768 -2.59088 4.03002 0
M  V30 7079 H 681.132 -1.45777 2.08857 0
M  V30 7080 H 681.915 -0.429249 3.40606 0
M  V30 7081 N 684.36 -1.4356 -0.65026 0
M  V30 7082 C 685.776 -1.27025 -0.966269 0
M  V30 7083 C 685.976 -0.192117 -2.00582 0
M  V30 7084 O 685.032 0.428459 -2.48838 0
M  V30 7085 C 686.345 -2.63556 -1.44772 0
M  V30 7086 C 687.893 -2.71111 -1.56421 0
M  V30 7087 C 688.368 -4.08067 -2.07956 0
M  V30 7088 N 689.859 -4.10146 -2.15254 0
M  V30 7089 C 690.594 -5.12952 -2.56258 0
M  V30 7090 N 690.09 -6.26129 -2.96537 0
M  V30 7091 N 691.883 -5.00306 -2.56224 0
M  V30 7092 H 684.034 -2.12367 0.0375758 0
M  V30 7093 H 686.297 -0.946894 -0.0457782 0
M  V30 7094 H 686.003 -3.43429 -0.758271 0
M  V30 7095 H 685.877 -2.89152 -2.42221 0
M  V30 7096 H 688.264 -1.91569 -2.24467 0
M  V30 7097 H 688.345 -2.49277 -0.573967 0
M  V30 7098 H 687.989 -4.88077 -1.40511 0
M  V30 7099 H 687.919 -4.27266 -3.07817 0
M  V30 7100 H 690.41 -3.28453 -1.86887 0
M  V30 7101 H 690.723 -7.00403 -3.26582 0
M  V30 7102 H 689.068 -6.29597 -2.94334 0
M  V30 7103 H 692.259 -4.10952 -2.24135 0
M  V30 7104 H 692.432 -5.80553 -2.87857 0
M  V30 7105 N 685.838 0.888903 -1.30139 0
M  V30 7106 C 687.085 1.64037 -1.18736 0
M  V30 7107 C 687.413 1.92771 0.258801 0
M  V30 7108 O 686.668 1.54427 1.20212 0
M  V30 7109 C 686.967 2.99041 -1.95728 0
M  V30 7110 C 686.633 2.89874 -3.45375 0
M  V30 7111 C 685.295 2.87082 -3.86183 0
M  V30 7112 C 687.647 2.78289 -4.40687 0
M  V30 7113 C 684.975 2.70536 -5.20603 0
M  V30 7114 C 687.327 2.63282 -5.75209 0
M  V30 7115 C 685.991 2.58861 -6.15262 0
M  V30 7116 H 685.261 0.600253 -0.434485 0
M  V30 7117 H 687.908 1.0338 -1.61198 0
M  V30 7118 H 686.213 3.63626 -1.45888 0
M  V30 7119 H 687.91 3.56139 -1.843 0
M  V30 7120 H 684.5 2.92856 -3.12943 0
M  V30 7121 H 688.684 2.79516 -4.10103 0
M  V30 7122 H 683.94 2.65526 -5.50732 0
M  V30 7123 H 688.114 2.5329 -6.48704 0
M  V30 7124 H 685.741 2.45799 -7.19366 0
M  V30 7125 N 687.317 1.12792 1.10072 0
M  V30 7126 C 688.542 0.908838 1.86427 0
M  V30 7127 C 688.967 -0.536793 1.80278 0
M  V30 7128 O 688.325 -1.38033 1.17543 0
M  V30 7129 C 688.373 1.39295 3.3261 0
M  V30 7130 O 687.477 0.573846 4.08388 0
M  V30 7131 H 686.818 0.326234 0.578331 0
M  V30 7132 H 689.348 1.50094 1.39043 0
M  V30 7133 H 689.358 1.39366 3.83459 0
M  V30 7134 H 688.033 2.44555 3.36401 0
M  V30 7135 H 686.61 0.640438 3.67359 0
M  V30 7136 N 688.795 -1.27931 0.920396 0
M  V30 7137 C 690.043 -1.94304 0.555906 0
M  V30 7138 C 690.364 -1.72753 -0.904519 0
M  V30 7139 O 689.634 -1.07104 -1.64029 0
M  V30 7140 H 688.214 -0.719001 0.202599 0
M  V30 7141 H 690.876 -1.55785 1.1712 0
M  V30 7142 H 689.972 -3.02806 0.755981 0
M  V30 7143 N 690.273 -0.685099 -1.4193 0
M  V30 7144 C 691.501 -0.220372 -2.05723 0
M  V30 7145 C 691.916 1.12642 -1.51516 0
M  V30 7146 O 691.273 1.70182 -0.659114 0
M  V30 7147 C 691.324 -0.157974 -3.61155 0
M  V30 7148 O 691.045 -1.45156 -4.13354 0
M  V30 7149 C 692.546 0.329009 -4.42077 0
M  V30 7150 H 689.766 -0.104725 -0.662777 0
M  V30 7151 H 692.31 -0.934736 -1.81887 0
M  V30 7152 H 690.465 0.507144 -3.84066 0
M  V30 7153 H 690.879 -1.33172 -5.07312 0
M  V30 7154 H 692.353 0.321559 -5.51063 0
M  V30 7155 H 692.83 1.36608 -4.17414 0
M  V30 7156 H 693.436 -0.304737 -4.24207 0
M  V30 7157 N 691.751 1.51645 -0.429126 0
M  V30 7158 C 692.976 2.06917 0.141399 0
M  V30 7159 C 693.401 1.29527 1.36398 0
M  V30 7160 O 692.759 0.33094 1.78254 0
M  V30 7161 C 692.807 3.57776 0.4504 0
M  V30 7162 O 691.911 3.82639 1.53821 0
M  V30 7163 H 691.252 0.663978 0.0054647 0
M  V30 7164 H 693.782 1.95355 -0.608093 0
M  V30 7165 H 693.792 4.01894 0.703249 0
M  V30 7166 H 692.467 4.13532 -0.443213 0
M  V30 7167 H 691.044 3.5039 1.27597 0
M  V30 7168 N 693.229 0.160201 1.56784 0
M  V30 7169 C 694.477 -0.486625 1.96154 0
M  V30 7170 C 694.798 -1.64525 1.04673 0
M  V30 7171 O 694.068 -1.95586 0.110864 0
M  V30 7172 H 692.648 -0.182764 0.724297 0
M  V30 7173 H 695.31 0.238787 1.93432 0
M  V30 7174 H 694.406 -0.854025 3.00188 0
M  V30 7175 N 694.707 -1.5719 -0.113559 0
M  V30 7176 C 696.118 -1.74259 -0.670116 0
M  V30 7177 C 696.469 -0.779694 -1.80042 0
M  V30 7178 O 695.594 0.0461353 -2.16351 0
M  V30 7179 C 696.189 -3.15981 -1.22236 0
M  V30 7180 C 694.748 -3.34537 -1.72516 0
M  V30 7181 C 693.895 -2.70116 -0.627098 0
M  V30 7182 H 696.846 -1.58301 0.112396 0
M  V30 7183 H 696.867 -3.17832 -2.09197 0
M  V30 7184 H 696.379 -3.86038 -0.39949 0
M  V30 7185 H 694.48 -2.6953 -2.57263 0
M  V30 7186 H 694.593 -4.42737 -1.83086 0
M  V30 7187 H 692.957 -2.31501 -1.06204 0
M  V30 7188 H 693.74 -3.42802 0.184889 0
M  V30 7189 N 696.185 0.383891 -1.52853 0
M  V30 7190 C 697.133 1.48965 -1.7864 0
M  V30 7191 C 698.127 1.56242 -0.654577 0
M  V30 7192 O 699.333 1.59347 -0.83716 0
M  V30 7193 H 695.708 0.495892 -0.565328 0
M  V30 7194 H 697.679 1.24411 -2.71228 0
M  V30 7195 C 696.428 2.86036 -1.97683 0
M  V30 7196 H 695.751 2.81188 -2.84206 0
M  V30 7197 H 697.191 3.62632 -2.19713 0
M  V30 7198 C 695.65 3.28428 -0.750776 0
M  V30 7199 O 696.18 4.0164 0.0693491 0
M  V30 7200 N 694.386 2.84765 -0.579427 0
M  V30 7201 H 693.933 2.25353 -1.24795 0
M  V30 7202 H 693.891 3.13486 0.239544 0
M  V30 7203 N 697.663 1.43903 0.642637 0
M  V30 7204 C 698.888 1.49758 1.43483 0
M  V30 7205 C 699.313 0.119911 1.87717 0
M  V30 7206 O 698.671 -0.888558 1.58033 0
M  V30 7207 C 698.719 2.45744 2.63898 0
M  V30 7208 O 697.823 1.95101 3.63331 0
M  V30 7209 H 697.164 0.506138 0.429791 0
M  V30 7210 H 699.694 1.88923 0.785438 0
M  V30 7211 H 699.704 2.63399 3.11584 0
M  V30 7212 H 698.379 3.45818 2.31046 0
M  V30 7213 H 696.956 1.87158 3.22531 0
M  V30 7214 N 699.141 -0.881989 1.30609 0
M  V30 7215 C 700.071 -2.00413 1.1982 0
M  V30 7216 C 701.052 -1.69871 0.0881538 0
M  V30 7217 O 702.237 -1.92304 0.2707 0
M  V30 7218 C 699.367 -3.35641 0.89233 0
M  V30 7219 C 698.321 -3.80451 1.96064 0
M  V30 7220 C 697.647 -5.13003 1.5077 0
M  V30 7221 C 698.947 -3.98855 3.37213 0
M  V30 7222 H 700.641 -2.09698 2.13699 0
M  V30 7223 H 698.187 -1.00754 1.02882 0
M  V30 7224 H 700.14 -4.13669 0.803497 0
M  V30 7225 H 698.864 -3.26497 -0.0821381 0
M  V30 7226 H 697.523 -3.04654 2.03916 0
M  V30 7227 H 697.171 -5.0029 0.521417 0
M  V30 7228 H 696.871 -5.43956 2.22229 0
M  V30 7229 H 698.395 -5.93554 1.43271 0
M  V30 7230 H 699.809 -4.67312 3.32103 0
M  V30 7231 H 698.206 -4.41188 4.06784 0
M  V30 7232 H 699.276 -3.02614 3.78883 0
M  V30 7233 N 700.619 -1.13374 -1.09472 0
M  V30 7234 C 702.035 -0.871846 -1.33682 0
M  V30 7235 C 702.235 0.492847 -1.9538 0
M  V30 7236 O 701.291 1.23946 -2.19985 0
M  V30 7237 C 702.604 -1.99608 -2.24893 0
M  V30 7238 C 704.152 -2.02812 -2.38404 0
M  V30 7239 C 704.627 -3.14497 -3.3295 0
M  V30 7240 N 706.118 -3.14004 -3.40523 0
M  V30 7241 C 706.853 -3.97061 -4.13679 0
M  V30 7242 N 706.349 -4.90131 -4.89636 0
M  V30 7243 N 708.142 -3.85162 -4.09398 0
M  V30 7244 H 700.293 -2.01288 -0.677995 0
M  V30 7245 H 702.556 -0.876492 -0.361201 0
M  V30 7246 H 702.262 -2.98 -1.86786 0
M  V30 7247 H 702.136 -1.90981 -3.25278 0
M  V30 7248 H 704.523 -1.05034 -2.75775 0
M  V30 7249 H 704.604 -2.15511 -1.37799 0
M  V30 7250 H 704.248 -4.12514 -2.96302 0
M  V30 7251 H 704.178 -2.99035 -4.33458 0
M  V30 7252 H 706.669 -2.46587 -2.86362 0
M  V30 7253 H 706.982 -5.49996 -5.42885 0
M  V30 7254 H 705.327 -4.94138 -4.88726 0
M  V30 7255 H 708.518 -3.11779 -3.49158 0
M  V30 7256 H 708.691 -4.5012 -4.6615 0
M  V30 7257 N 702.098 1.27442 -0.927168 0
M  V30 7258 C 703.028 2.29256 -0.443188 0
M  V30 7259 C 704.009 1.62701 0.49624 0
M  V30 7260 O 705.194 1.90013 0.401105 0
M  V30 7261 C 702.324 3.45955 0.305366 0
M  V30 7262 C 701.278 4.24501 -0.546178 0
M  V30 7263 C 700.604 5.33671 0.331512 0
M  V30 7264 C 701.904 4.89921 -1.81037 0
M  V30 7265 H 703.598 2.69988 -1.29409 0
M  V30 7266 H 701.144 1.29792 -0.623705 0
M  V30 7267 H 703.097 4.1628 0.654885 0
M  V30 7268 H 701.821 3.04138 1.19029 0
M  V30 7269 H 700.48 3.55921 -0.878398 0
M  V30 7270 H 700.128 4.88096 1.21537 0
M  V30 7271 H 699.828 5.87131 -0.234746 0
M  V30 7272 H 701.352 6.0684 0.676614 0
M  V30 7273 H 702.766 5.52536 -1.52895 0
M  V30 7274 H 701.163 5.53436 -2.32009 0
M  V30 7275 H 702.233 4.13652 -2.53021 0
M  V30 7276 N 703.576 0.692616 1.41565 0
M  V30 7277 C 704.486 0.0258451 2.34586 0
M  V30 7278 C 705.502 -0.769324 1.56069 0
M  V30 7279 O 706.678 -0.707563 1.88562 0
M  V30 7280 C 703.743 -0.901289 3.3478 0
M  V30 7281 C 702.804 -0.0986579 4.29187 0
M  V30 7282 C 702.037 -0.981634 5.24595 0
M  V30 7283 O 702.26 -2.22115 5.25377 0
M  V30 7284 O 701.194 -0.432892 6.00341 0
M  V30 7285 H 705.02 0.792537 2.93177 0
M  V30 7286 H 702.605 0.452935 1.42369 0
M  V30 7287 H 704.487 -1.43302 3.96286 0
M  V30 7288 H 703.162 -1.64752 2.78637 0
M  V30 7289 H 702.069 0.477604 3.71039 0
M  V30 7290 H 703.402 0.608848 4.8842 0
M  V30 7291 N 705.054 -1.51416 0.437162 0
M  V30 7292 C 706.303 -2.01275 -0.130865 0
M  V30 7293 C 706.616 -1.32593 -1.438 0
M  V30 7294 O 707.822 -1.7342 -2.08897 0
M  V30 7295 C 706.278 -3.5878 -0.283763 0
M  V30 7296 C 705.886 -4.36399 1.01293 0
M  V30 7297 C 707.63 -4.16786 -0.805569 0
M  V30 7298 C 705.537 -5.85608 0.825687 0
M  V30 7299 H 704.467 -0.752157 -0.0526818 0
M  V30 7300 H 707.118 -1.74524 0.566896 0
M  V30 7301 H 705.5 -3.81976 -1.04452 0
M  V30 7302 H 706.674 -4.24948 1.78201 0
M  V30 7303 H 704.989 -3.89843 1.46326 0
M  V30 7304 H 707.586 -5.25972 -0.962146 0
M  V30 7305 H 707.929 -3.75949 -1.78796 0
M  V30 7306 H 708.462 -3.97666 -0.103125 0
M  V30 7307 H 705.201 -6.30857 1.78045 0
M  V30 7308 H 704.721 -5.99723 0.0964029 0
M  V30 7309 H 706.4 -6.45226 0.478815 0
M  V30 7310 N 706.532 -0.168513 -1.56696 0
M  V30 7311 C 707.948 0.187686 -1.58493 0
M  V30 7312 C 708.148 1.63063 -1.18375 0
M  V30 7313 O 707.204 2.36142 -0.894042 0
M  V30 7314 C 708.517 -0.0905858 -3.00564 0
M  V30 7315 C 710.065 -0.028575 -3.12987 0
M  V30 7316 C 710.54 -0.279799 -4.57145 0
M  V30 7317 N 712.031 -0.227476 -4.62641 0
M  V30 7318 C 712.766 -0.396073 -5.7203 0
M  V30 7319 N 712.262 -0.623572 -6.89988 0
M  V30 7320 N 714.055 -0.332173 -5.61118 0
M  V30 7321 H 706.206 -1.11042 -1.81062 0
M  V30 7322 H 708.469 -0.441235 -0.839056 0
M  V30 7323 H 708.175 -1.09006 -3.34381 0
M  V30 7324 H 708.049 0.619078 -3.72085 0
M  V30 7325 H 710.436 0.961471 -2.78998 0
M  V30 7326 H 710.517 -0.770905 -2.43907 0
M  V30 7327 H 710.161 -1.26704 -4.91842 0
M  V30 7328 H 710.091 0.48311 -5.24379 0
M  V30 7329 H 712.582 -0.0571723 -3.77857 0
M  V30 7330 H 712.895 -0.741745 -7.69232 0
M  V30 7331 H 711.24 -0.660153 -6.91858 0
M  V30 7332 H 714.431 -0.155051 -4.67843 0
M  V30 7333 H 714.604 -0.466994 -6.46315 0
M  V30 7334 N 708.01 1.57248 0.105221 0
M  V30 7335 C 709.287 1.76566 0.841647 0
M  V30 7336 C 709.667 0.747566 1.9742 0
M  V30 7337 O 709.015 -0.225886 2.27381 0
M  V30 7338 C 709.225 3.22016 1.3456 0
M  V30 7339 C 710.573 3.84911 1.79244 0
M  V30 7340 O 711.597 3.25703 1.44207 0
M  V30 7341 O 710.456 4.89008 2.43995 0
M  V30 7342 H 707.55 0.723443 0.400698 0
M  V30 7343 H 710.096 1.69472 0.0878893 0
M  V30 7344 H 708.868 3.87644 0.533685 0
M  V30 7345 H 708.491 3.33703 2.16167 0
M  V30 7346 N 709.488 -0.375779 1.53054 0
M  V30 7347 C 710.418 -1.46598 1.81745 0
M  V30 7348 C 711.399 -1.56337 0.670286 0
M  V30 7349 O 712.584 -1.71071 0.919158 0
M  V30 7350 C 709.714 -2.84058 1.99821 0
M  V30 7351 C 708.668 -2.8915 3.15557 0
M  V30 7352 C 707.994 -4.29187 3.18908 0
M  V30 7353 C 709.294 -2.57595 4.54359 0
M  V30 7354 H 710.988 -1.22837 2.73041 0
M  V30 7355 H 708.534 -0.589485 1.31381 0
M  V30 7356 H 710.487 -3.60342 2.18475 0
M  V30 7357 H 709.211 -3.09184 1.05226 0
M  V30 7358 H 707.87 -2.15316 2.96706 0
M  V30 7359 H 707.518 -4.51374 2.2197 0
M  V30 7360 H 707.218 -4.33512 3.96662 0
M  V30 7361 H 708.742 -5.07359 3.39734 0
M  V30 7362 H 710.156 -3.23595 4.73243 0
M  V30 7363 H 708.553 -2.73252 5.34279 0
M  V30 7364 H 709.623 -1.52882 4.60169 0
M  V30 7365 N 710.966 -1.44241 -0.634997 0
M  V30 7366 C 711.876 -1.53293 -1.77591 0
M  V30 7367 C 712.892 -0.418831 -1.68884 0
M  V30 7368 O 714.068 -0.675619 -1.8973 0
M  V30 7369 C 711.133 -1.47075 -3.13958 0
M  V30 7370 C 710.194 -2.69304 -3.34326 0
M  V30 7371 C 709.427 -2.63374 -4.64187 0
M  V30 7372 O 709.65 -1.69161 -5.44739 0
M  V30 7373 O 708.584 -3.54166 -4.86673 0
M  V30 7374 H 712.41 -2.49673 -1.72908 0
M  V30 7375 H 709.995 -1.26445 -0.795745 0
M  V30 7376 H 711.877 -1.46117 -3.95257 0
M  V30 7377 H 710.552 -0.538373 -3.19192 0
M  V30 7378 H 709.459 -2.75831 -2.52721 0
M  V30 7379 H 710.792 -3.61576 -3.33951 0
M  V30 7380 N 712.444 0.87505 -1.31075 0
M  V30 7381 C 713.354 2.01441 -1.20244 0
M  V30 7382 C 714.37 1.73584 -0.120227 0
M  V30 7383 O 715.546 1.98559 -0.337063 0
M  V30 7384 C 712.611 3.34675 -0.905199 0
M  V30 7385 C 711.672 3.75889 -2.0738 0
M  V30 7386 C 710.905 5.02764 -1.79064 0
M  V30 7387 O 711.128 5.65795 -0.723318 0
M  V30 7388 O 710.062 5.40623 -2.64594 0
M  V30 7389 H 713.888 2.13509 -2.1598 0
M  V30 7390 H 711.473 1.00257 -1.10765 0
M  V30 7391 H 713.355 4.1458 -0.755057 0
M  V30 7392 H 712.03 3.23692 0.0221695 0
M  V30 7393 H 710.937 2.96645 -2.27931 0
M  V30 7394 H 712.27 3.91489 -2.98324 0
M  V30 7395 N 713.922 1.13953 1.08869 0
M  V30 7396 C 715.15 0.92817 1.84912 0
M  V30 7397 C 715.565 -0.523197 1.81406 0
M  V30 7398 O 714.922 -1.36237 1.21432 0
M  V30 7399 C 714.973 1.41509 3.32652 0
M  V30 7400 O 714.694 2.80959 3.36145 0
M  V30 7401 C 716.195 1.243 4.25517 0
M  V30 7402 H 713.415 0.330612 0.583898 0
M  V30 7403 H 715.959 1.51349 1.37527 0
M  V30 7404 H 714.114 0.872648 3.77444 0
M  V30 7405 H 714.528 3.02704 4.28335 0
M  V30 7406 H 716.002 1.63237 5.27312 0
M  V30 7407 H 716.479 0.18532 4.38809 0
M  V30 7408 H 717.085 1.77375 3.86546 0
M  V30 7409 N 715.4 -1.26948 0.933913 0
M  V30 7410 C 716.677 -1.89212 0.495784 0
M  V30 7411 C 717.057 -1.84469 -1.02637 0
M  V30 7412 O 716.405 -1.29409 -1.88323 0
M  V30 7413 C 716.615 -3.32865 1.0489 0
M  V30 7414 C 717.963 -4.09749 1.11315 0
M  V30 7415 O 718.987 -3.41905 0.998966 0
M  V30 7416 O 717.846 -5.31061 1.28983 0
M  V30 7417 H 714.94 -0.811284 0.160459 0
M  V30 7418 H 717.486 -1.35171 1.02601 0
M  V30 7419 H 716.258 -3.30642 2.09265 0
M  V30 7420 H 715.881 -3.94435 0.500692 0
M  V30 7421 N 716.879 -0.700114 -1.41195 0
M  V30 7422 C 718.104 -0.240704 -2.05998 0
M  V30 7423 C 718.529 1.10313 -1.52357 0
M  V30 7424 O 717.887 1.69154 -0.652424 0
M  V30 7425 C 717.935 -0.213783 -3.59966 0
M  V30 7426 O 717.039 0.809933 -4.04368 0
M  V30 7427 H 716.38 -0.116471 -0.653705 0
M  V30 7428 H 718.91 -0.956251 -1.80878 0
M  V30 7429 H 718.92 -0.0461852 -4.07974 0
M  V30 7430 H 717.595 -1.19454 -3.98376 0
M  V30 7431 H 716.172 0.611319 -3.67855 0
M  V30 7432 N 718.357 1.51182 -0.445186 0
M  V30 7433 C 719.605 2.01753 0.11841 0
M  V30 7434 C 719.926 1.33087 1.42523 0
M  V30 7435 O 719.196 0.467891 1.9023 0
M  V30 7436 H 717.776 0.745536 0.0467492 0
M  V30 7437 H 720.438 1.85765 -0.589688 0
M  V30 7438 H 719.534 3.10762 0.288665 0
M  V30 7439 N 719.835 0.176821 1.56605 0
M  V30 7440 C 720.745 -0.763682 2.21822 0
M  V30 7441 C 721.761 -1.24889 1.21156 0
M  V30 7442 O 722.937 -1.29987 1.53836 0
M  V30 7443 C 720.002 -1.97352 2.8505 0
M  V30 7444 C 719.063 -1.53466 4.00932 0
M  V30 7445 C 718.296 -2.68682 4.61135 0
M  V30 7446 O 718.519 -3.85694 4.20234 0
M  V30 7447 O 717.453 -2.42442 5.50913 0
M  V30 7448 H 721.279 -0.238363 3.02763 0
M  V30 7449 H 718.864 -0.0516331 1.49311 0
M  V30 7450 H 720.746 -2.68096 3.25119 0
M  V30 7451 H 719.421 -2.48779 2.07101 0
M  V30 7452 H 718.328 -0.796551 3.65521 0
M  V30 7453 H 719.661 -1.06724 4.8049 0
M  V30 7454 N 721.313 -1.57302 -0.09688 0
M  V30 7455 C 722.543 -1.89926 -0.813114 0
M  V30 7456 C 722.951 -0.76852 -1.72888 0
M  V30 7457 O 722.294 0.268549 -1.81726 0
M  V30 7458 C 722.356 -3.17787 -1.68082 0
M  V30 7459 C 722.02 -4.4729 -0.937061 0
M  V30 7460 C 723.017 -5.1921 -0.267687 0
M  V30 7461 C 720.702 -4.93957 -0.911671 0
M  V30 7462 C 722.696 -6.36034 0.417129 0
M  V30 7463 C 720.383 -6.10693 -0.223068 0
M  V30 7464 C 721.381 -6.8158 0.440155 0
M  V30 7465 O 721.069 -7.96092 1.11772 0
M  V30 7466 H 720.801 -0.632783 -0.237828 0
M  V30 7467 H 723.355 -2.05248 -0.0790818 0
M  V30 7468 H 721.585 -2.98607 -2.45705 0
M  V30 7469 H 723.274 -3.36257 -2.27346 0
M  V30 7470 H 724.04 -4.84198 -0.278774 0
M  V30 7471 H 719.919 -4.38671 -1.41734 0
M  V30 7472 H 723.463 -6.91301 0.93537 0
M  V30 7473 H 719.36 -6.45159 -0.209821 0
M  V30 7474 H 720.128 -8.12064 1.02443 0
M  V30 7475 N 722.791 0.367657 -1.53252 0
M  V30 7476 C 723.738 1.45028 -1.79543 0
M  V30 7477 C 724.708 1.53288 -0.63969 0
M  V30 7478 O 725.893 1.69209 -0.881653 0
M  V30 7479 C 723.033 2.82 -1.98923 0
M  V30 7480 C 722.146 2.82722 -3.26638 0
M  V30 7481 C 721.281 4.11257 -3.36216 0
M  V30 7482 C 720.32 4.06113 -4.57972 0
M  V30 7483 N 719.457 5.26293 -4.64715 0
M  V30 7484 H 724.297 1.21908 -2.71923 0
M  V30 7485 H 721.834 0.591011 -1.34705 0
M  V30 7486 H 723.792 3.61568 -2.08146 0
M  V30 7487 H 722.422 3.03523 -1.09881 0
M  V30 7488 H 721.474 1.95399 -3.26379 0
M  V30 7489 H 722.786 2.74794 -4.16281 0
M  V30 7490 H 721.94 4.99239 -3.44739 0
M  V30 7491 H 720.679 4.21935 -2.44586 0
M  V30 7492 H 719.684 3.16517 -4.49552 0
M  V30 7493 H 720.909 3.97039 -5.50942 0
M  V30 7494 H 718.855 5.37561 -3.75985 0
M  V30 7495 H 718.772 5.20526 -5.4826 0
M  V30 7496 H 720.04 6.16113 -4.77519 0
M  V30 7497 N 724.269 1.44576 0.627338 0
M  V30 7498 C 725.509 1.49083 1.39834 0
M  V30 7499 C 725.873 0.121643 1.91614 0
M  V30 7500 O 727.074 0.0413885 2.68768 0
M  V30 7501 C 725.345 2.52467 2.52973 0
M  V30 7502 S 726.904 2.7605 3.41089 0
M  V30 7503 H 723.722 0.527252 0.476997 0
M  V30 7504 H 726.324 1.81525 0.725872 0
M  V30 7505 H 725.028 3.50646 2.13249 0
M  V30 7506 H 724.559 2.2161 3.25042 0
M  V30 7507 H 726.574 2.07932 4.50531 0
M  V30 7508 N 725.747 -0.868086 1.31537 0
M  V30 7509 C 726.972 -1.65926 1.24432 0
M  V30 7510 C 727.397 -1.87169 -0.186936 0
M  V30 7511 O 726.755 -1.4148 -1.13371 0
M  V30 7512 C 726.803 -3.00347 1.9956 0
M  V30 7513 O 725.907 -3.90221 1.33422 0
M  V30 7514 H 725.248 -0.506375 0.429512 0
M  V30 7515 H 727.778 -1.0822 1.73637 0
M  V30 7516 H 727.788 -3.50269 2.09226 0
M  V30 7517 H 726.463 -2.84205 3.03645 0
M  V30 7518 H 725.04 -3.48672 1.32219 0
M  V30 7519 N 727.225 -1.14528 -1.08264 0
M  V30 7520 C 728.188 -0.83632 -2.13397 0
M  V30 7521 C 729.188 0.159715 -1.60005 0
M  V30 7522 O 730.378 -0.0688098 -1.74064 0
M  V30 7523 C 727.51 -0.246973 -3.40004 0
M  V30 7524 H 728.703 -1.76808 -2.42237 0
M  V30 7525 H 726.256 -0.951509 -1.24 0
M  V30 7526 H 726.991 0.693436 -3.168 0
M  V30 7527 H 726.776 -0.964412 -3.80055 0
M  V30 7528 H 728.266 -0.0480679 -4.17572 0
M  V30 7529 N 728.703 1.26451 -0.940633 0
M  V30 7530 C 729.931 1.97868 -0.604642 0
M  V30 7531 C 730.346 1.70051 0.820251 0
M  V30 7532 O 729.703 0.96843 1.54686 0
M  V30 7533 C 729.754 3.51684 -0.836689 0
M  V30 7534 O 729.475 3.78533 -2.20554 0
M  V30 7535 C 730.976 4.40343 -0.511169 0
M  V30 7536 H 728.196 0.631105 -0.227919 0
M  V30 7537 H 730.74 1.60979 -1.26119 0
M  V30 7538 H 728.895 3.86736 -0.226759 0
M  V30 7539 H 729.309 4.73065 -2.26517 0
M  V30 7540 H 730.783 5.47229 -0.724157 0
M  V30 7541 H 731.26 4.35694 0.553815 0
M  V30 7542 H 731.866 4.10834 -1.0998 0
M  V30 7543 N 730.181 0.707592 1.40822 0
M  V30 7544 C 731.129 0.0386643 2.32568 0
M  V30 7545 C 732.123 -0.755653 1.51612 0
M  V30 7546 O 733.329 -0.659921 1.67467 0
M  V30 7547 H 729.704 -0.00629912 0.751974 0
M  V30 7548 H 731.675 0.8293 2.86645 0
M  V30 7549 C 730.424 -0.87496 3.36511 0
M  V30 7550 H 729.747 -0.273157 3.98866 0
M  V30 7551 H 731.187 -1.31111 4.03219 0
M  V30 7552 C 729.646 -1.99672 2.71353 0
M  V30 7553 O 730.176 -3.08676 2.57064 0
M  V30 7554 N 728.382 -1.77799 2.29861 0
M  V30 7555 H 727.929 -0.89147 2.41683 0
M  V30 7556 H 727.887 -2.53036 1.86601 0
M  V30 7557 N 731.66 -1.50943 0.453197 0
M  V30 7558 C 732.885 -2.07116 -0.108463 0
M  V30 7559 C 733.31 -1.31681 -1.3432 0
M  V30 7560 O 732.668 -0.359256 -1.77705 0
M  V30 7561 C 732.716 -3.58447 -0.393424 0
M  V30 7562 O 731.82 -3.85038 -1.47714 0
M  V30 7563 H 731.161 -0.66398 0.0050993 0
M  V30 7564 H 733.691 -1.94362 0.639095 0
M  V30 7565 H 733.701 -4.02961 -0.639222 0
M  V30 7566 H 732.376 -4.12774 0.508946 0
M  V30 7567 H 730.953 -3.52376 -1.22006 0
M  V30 7568 N 733.138 -0.185124 -1.56509 0
M  V30 7569 C 734.068 0.735098 -2.21627 0
M  V30 7570 C 735.049 1.2288 -1.1762 0
M  V30 7571 O 736.234 1.27945 -1.46095 0
M  V30 7572 C 733.364 1.95889 -2.86783 0
M  V30 7573 C 732.318 1.6005 -3.96948 0
M  V30 7574 C 731.644 2.90009 -4.4922 0
M  V30 7575 C 732.944 0.818008 -5.15855 0
M  V30 7576 H 734.638 0.192274 -2.98782 0
M  V30 7577 H 732.184 0.0910393 -1.43712 0
M  V30 7578 H 734.137 2.60779 -3.31017 0
M  V30 7579 H 732.861 2.52608 -2.07018 0
M  V30 7580 H 731.52 0.975237 -3.5339 0
M  V30 7581 H 731.168 3.44797 -3.6623 0
M  V30 7582 H 730.868 2.66778 -5.23549 0
M  V30 7583 H 732.392 3.55904 -4.9615 0
M  V30 7584 H 733.806 1.36979 -5.56695 0
M  V30 7585 H 732.203 0.684207 -5.96187 0
M  V30 7586 H 733.273 -0.182939 -4.84555 0
M  V30 7587 N 734.616 1.57351 0.0885366 0
M  V30 7588 C 735.864 1.86051 0.789262 0
M  V30 7589 C 736.185 0.774763 1.78948 0
M  V30 7590 O 735.455 -0.198324 1.94894 0
M  V30 7591 H 734.035 0.686508 0.294475 0
M  V30 7592 H 736.697 1.94779 0.0686055 0
M  V30 7593 H 735.793 2.83007 1.31581 0
M  V30 7594 N 736.094 -0.359525 1.53444 0
M  V30 7595 C 737.042 -1.46104 1.80987 0
M  V30 7596 C 738.036 -1.55181 0.679351 0
M  V30 7597 O 739.242 -1.57995 0.862405 0
M  V30 7598 H 735.617 -0.486835 0.573145 0
M  V30 7599 H 737.588 -1.2008 2.73173 0
M  V30 7600 C 736.337 -2.82855 2.02208 0
M  V30 7601 H 735.66 -2.76631 2.88644 0
M  V30 7602 H 737.1 -3.59091 2.25455 0
M  V30 7603 C 735.559 -3.27192 0.802931 0
M  V30 7604 O 736.089 -4.017 -0.00544286 0
M  V30 7605 N 734.295 -2.83807 0.624657 0
M  V30 7606 H 733.842 -2.23339 1.28364 0
M  V30 7607 H 733.8 -3.13828 -0.189641 0
M  V30 7608 N 737.572 -1.44907 -0.619662 0
M  V30 7609 C 738.535 -1.52282 -1.71297 0
M  V30 7610 C 739.535 -0.40359 -1.55653 0
M  V30 7611 O 740.725 -0.666638 -1.6094 0
M  V30 7612 C 737.857 -1.40778 -3.10474 0
M  V30 7613 H 739.05 -2.49683 -1.66128 0
M  V30 7614 H 736.603 -1.32168 -0.834339 0
M  V30 7615 H 737.338 -0.445156 -3.2123 0
M  V30 7616 H 737.123 -2.21947 -3.23237 0
M  V30 7617 H 738.613 -1.48946 -3.90135 0
M  V30 7618 N 739.05 0.861098 -1.31996 0
M  V30 7619 C 740.278 1.6474 -1.25173 0
M  V30 7620 C 740.693 1.87926 0.181425 0
M  V30 7621 O 740.05 1.4437 1.1164 0
M  V30 7622 C 740.101 3.01036 -2.0015 0
M  V30 7623 O 739.822 2.7888 -3.37872 0
M  V30 7624 C 741.323 3.95481 -2.00273 0
M  V30 7625 H 738.543 0.513314 -0.432146 0
M  V30 7626 H 741.087 1.07419 -1.74016 0
M  V30 7627 H 739.242 3.55021 -1.55046 0
M  V30 7628 H 739.656 3.65514 -3.76165 0
M  V30 7629 H 741.13 4.88403 -2.57229 0
M  V30 7630 H 741.607 4.27957 -0.987407 0
M  V30 7631 H 742.213 3.47433 -2.45296 0
M  V30 7632 N 740.528 1.15101 1.07655 0
M  V30 7633 C 741.753 0.948177 1.84457 0
M  V30 7634 C 742.178 -0.498432 1.81376 0
M  V30 7635 O 741.536 -1.35509 1.20445 0
M  V30 7636 C 741.584 1.46318 3.29581 0
M  V30 7637 O 740.688 0.660342 4.07079 0
M  V30 7638 H 740.029 0.338428 0.571281 0
M  V30 7639 H 742.559 1.5301 1.35828 0
M  V30 7640 H 742.569 1.47468 3.80417 0
M  V30 7641 H 741.244 2.51635 3.31138 0
M  V30 7642 H 739.821 0.718216 3.65918 0
M  V30 7643 N 742.006 -1.2595 0.947325 0
M  V30 7644 C 743.234 -1.97544 0.615127 0
M  V30 7645 C 743.649 -1.70484 -0.811221 0
M  V30 7646 O 743.006 -0.97662 -1.5417 0
M  V30 7647 C 743.057 -3.51236 0.855328 0
M  V30 7648 O 742.778 -3.77359 2.22558 0
M  V30 7649 C 744.279 -4.40066 0.534515 0
M  V30 7650 H 741.499 -0.629888 0.231263 0
M  V30 7651 H 744.043 -1.60308 1.26971 0
M  V30 7652 H 742.198 -3.8661 0.247266 0
M  V30 7653 H 742.612 -4.71857 2.29022 0
M  V30 7654 H 744.086 -5.46838 0.753168 0
M  V30 7655 H 744.563 -4.35982 -0.530701 0
M  V30 7656 H 745.169 -4.10245 1.12158 0
M  V30 7657 N 743.484 -0.715051 -1.40445 0
M  V30 7658 C 744.414 -0.0768699 -2.33373 0
M  V30 7659 C 745.395 0.746109 -1.52863 0
M  V30 7660 O 746.58 0.695142 -1.81332 0
M  V30 7661 C 743.71 0.846014 -3.36838 0
M  V30 7662 C 742.664 0.128694 -4.27806 0
M  V30 7663 C 741.99 1.16726 -5.21804 0
M  V30 7664 C 743.29 -1.01679 -5.12307 0
M  V30 7665 H 744.984 -0.853061 -2.8699 0
M  V30 7666 H 742.53 -0.41167 -1.3799 0
M  V30 7667 H 744.483 1.30185 -4.00786 0
M  V30 7668 H 743.207 1.6541 -2.81615 0
M  V30 7669 H 741.866 -0.307314 -3.6531 0
M  V30 7670 H 741.514 1.96838 -4.62887 0
M  V30 7671 H 741.214 0.692188 -5.83509 0
M  V30 7672 H 742.738 1.62321 -5.88629 0
M  V30 7673 H 744.152 -0.640337 -5.69713 0
M  V30 7674 H 742.549 -1.4202 -5.83053 0
M  V30 7675 H 743.619 -1.84769 -4.48317 0
M  V30 7676 N 744.962 1.50701 -0.461195 0
M  V30 7677 C 746.239 1.94958 0.158296 0
M  V30 7678 C 746.619 1.40111 1.57899 0
M  V30 7679 O 745.967 0.597976 2.20537 0
M  V30 7680 C 746.177 3.48821 0.11172 0
M  V30 7681 C 747.525 4.23499 0.30552 0
M  V30 7682 O 748.549 3.557 0.188758 0
M  V30 7683 O 747.408 5.43823 0.540244 0
M  V30 7684 H 744.502 0.818674 0.117054 0
M  V30 7685 H 747.048 1.61508 -0.520888 0
M  V30 7686 H 745.82 3.81263 -0.880577 0
M  V30 7687 H 745.443 3.88781 0.832791 0
M  V30 7688 N 746.441 0.193421 1.56409 0
M  V30 7689 C 747.688 -0.445789 1.97532 0
M  V30 7690 C 748.016 -1.61744 1.08024 0
M  V30 7691 O 747.271 -1.95338 0.118982 0
M  V30 7692 C 747.57 -0.949718 3.44551 0
M  V30 7693 C 747.236 0.108383 4.5077 0
M  V30 7694 C 745.898 0.399126 4.79542 0
M  V30 7695 C 748.25 0.825423 5.14622 0
M  V30 7696 C 745.578 1.41192 5.69457 0
M  V30 7697 C 747.93 1.82735 6.05632 0
M  V30 7698 C 746.594 2.12531 6.32761 0
M  V30 7699 H 745.864 -0.163126 0.722822 0
M  V30 7700 H 748.511 0.290035 1.89291 0
M  V30 7701 H 746.816 -1.76378 3.49854 0
M  V30 7702 H 748.513 -1.45367 3.73724 0
M  V30 7703 H 745.103 -0.128392 4.28408 0
M  V30 7704 H 749.287 0.61403 4.92487 0
M  V30 7705 H 744.543 1.6487 5.88751 0
M  V30 7706 H 748.717 2.3882 6.5417 0
M  V30 7707 H 746.344 2.91155 7.02234 0
M  V30 7708 N 747.919 -1.57396 -0.0801906 0
M  V30 7709 C 748.869 -1.9955 -1.10289 0
M  V30 7710 C 749.853 -0.876234 -1.34948 0
M  V30 7711 O 751.045 -1.14012 -1.35389 0
M  V30 7712 C 748.174 -2.43596 -2.419 0
M  V30 7713 C 747.26 -3.6224 -2.20551 0
M  V30 7714 N 747.651 -4.76693 -1.69109 0
M  V30 7715 C 745.949 -3.68627 -2.51059 0
M  V30 7716 C 746.65 -5.58577 -1.62379 0
M  V30 7717 N 745.626 -5.02178 -2.0813 0
M  V30 7718 H 749.428 -2.85483 -0.698335 0
M  V30 7719 H 746.942 -1.59837 -0.287395 0
M  V30 7720 H 748.939 -2.72031 -3.15919 0
M  V30 7721 H 747.599 -1.59047 -2.8308 0
M  V30 7722 H 748.61 -4.9915 -1.38092 0
M  V30 7723 H 745.287 -2.94772 -2.95661 0
M  V30 7724 H 746.677 -6.60447 -1.2353 0
M  V30 7725 N 749.397 0.351382 -1.53633 0
M  V30 7726 C 750.36 1.41403 -1.80383 0
M  V30 7727 C 751.36 1.45963 -0.674635 0
M  V30 7728 O 752.55 1.46476 -0.942895 0
M  V30 7729 C 749.682 2.80401 -1.93876 0
M  V30 7730 H 750.875 1.18951 -2.75301 0
M  V30 7731 H 748.428 0.58533 -1.44926 0
M  V30 7732 H 749.163 3.08147 -1.01074 0
M  V30 7733 H 748.948 2.78488 -2.7602 0
M  V30 7734 H 750.438 3.57329 -2.16116 0
M  V30 7735 N 750.875 1.45233 0.611969 0
M  V30 7736 C 751.823 1.53898 1.74408 0
M  V30 7737 C 752.817 0.409254 1.64382 0
M  V30 7738 O 754.023 0.584988 1.70229 0
M  V30 7739 H 750.398 0.483303 0.576127 0
M  V30 7740 H 752.369 2.49143 1.64227 0
M  V30 7741 C 751.118 1.51865 3.12782 0
M  V30 7742 H 750.441 2.38118 3.21154 0
M  V30 7743 H 751.881 1.61986 3.91838 0
M  V30 7744 C 750.34 0.242374 3.36027 0
M  V30 7745 O 750.87 -0.679587 3.9591 0
M  V30 7746 N 749.076 0.139448 2.90265 0
M  V30 7747 H 748.623 0.890571 2.41716 0
M  V30 7748 H 748.581 -0.713686 3.06193 0
M  V30 7749 N 752.353 -0.854086 1.3245 0
M  V30 7750 C 753.316 -1.94427 1.21371 0
M  V30 7751 C 754.316 -1.60219 0.136613 0
M  V30 7752 O 755.506 -1.69846 0.387057 0
M  V30 7753 C 752.638 -3.29698 0.866701 0
M  V30 7754 H 753.831 -2.05679 2.18257 0
M  V30 7755 H 751.384 -1.04434 1.1629 0
M  V30 7756 H 752.119 -3.24145 -0.100319 0
M  V30 7757 H 751.904 -3.55903 1.64545 0
M  V30 7758 H 753.394 -4.09599 0.813515 0
M  V30 7759 N 753.831 -1.1567 -1.07043 0
M  V30 7760 C 754.794 -0.858906 -2.12498 0
M  V30 7761 C 755.794 0.142735 -1.60165 0
M  V30 7762 O 756.984 -0.0872678 -1.73981 0
M  V30 7763 C 754.116 -0.283021 -3.39723 0
M  V30 7764 H 755.309 -1.79368 -2.40348 0
M  V30 7765 H 752.862 -0.964608 -1.22984 0
M  V30 7766 H 753.597 0.659796 -3.17517 0
M  V30 7767 H 753.382 -1.00467 -3.7901 0
M  V30 7768 H 754.872 -0.0923543 -4.17498 0
M  V30 7769 N 755.309 1.25446 -0.953992 0
M  V30 7770 C 756.725 1.4539 -0.658316 0
M  V30 7771 C 756.925 1.85607 0.784356 0
M  V30 7772 O 755.981 1.98568 1.55972 0
M  V30 7773 C 757.294 2.52643 -1.6307 0
M  V30 7774 C 758.842 2.66484 -1.64181 0
M  V30 7775 C 759.317 3.76921 -2.60182 0
M  V30 7776 N 760.808 3.84331 -2.58542 0
M  V30 7777 C 761.543 4.69271 -3.29503 0
M  V30 7778 N 761.039 5.58503 -4.09934 0
M  V30 7779 N 762.832 4.6323 -3.18393 0
M  V30 7780 H 754.983 0.976337 -1.8863 0
M  V30 7781 H 757.246 0.490343 -0.811337 0
M  V30 7782 H 756.952 2.29949 -2.66114 0
M  V30 7783 H 756.826 3.50547 -1.39271 0
M  V30 7784 H 759.213 2.88545 -0.618552 0
M  V30 7785 H 759.294 1.68982 -1.92038 0
M  V30 7786 H 758.938 3.55612 -3.62633 0
M  V30 7787 H 758.868 4.73906 -2.29609 0
M  V30 7788 H 761.359 3.20544 -2.0015 0
M  V30 7789 H 761.672 6.20241 -4.61 0
M  V30 7790 H 760.017 5.58214 -4.14032 0
M  V30 7791 H 763.208 3.92527 -2.5503 0
M  V30 7792 H 763.381 5.29204 -3.73961 0
M  V30 7793 N 756.787 0.722489 1.40064 0
M  V30 7794 C 757.717 0.0892452 2.33329 0
M  V30 7795 C 758.698 -0.737992 1.53257 0
M  V30 7796 O 759.883 -0.685516 1.81698 0
M  V30 7797 C 757.013 -0.828139 3.37282 0
M  V30 7798 C 755.967 -0.106005 4.27869 0
M  V30 7799 C 755.293 -1.13957 5.22415 0
M  V30 7800 C 756.593 1.04395 5.11761 0
M  V30 7801 H 758.287 0.868269 2.86534 0
M  V30 7802 H 755.833 0.418982 1.3777 0
M  V30 7803 H 757.786 -1.28058 4.01471 0
M  V30 7804 H 756.51 -1.63914 2.82489 0
M  V30 7805 H 755.169 0.326683 3.65142 0
M  V30 7806 H 754.817 -1.9438 4.63924 0
M  V30 7807 H 754.517 -0.661233 5.83868 0
M  V30 7808 H 756.041 -1.59197 5.89482 0
M  V30 7809 H 757.455 0.670541 5.69365 0
M  V30 7810 H 755.852 1.4511 5.82291 0
M  V30 7811 H 756.922 1.87144 4.47331 0
M  V30 7812 N 758.265 -1.50454 0.469181 0
M  V30 7813 C 759.195 -2.31353 -0.31592 0
M  V30 7814 C 760.176 -1.38172 -0.992094 0
M  V30 7815 O 761.361 -1.67093 -0.989633 0
M  V30 7816 C 758.491 -3.1786 -1.39937 0
M  V30 7817 C 757.445 -4.19578 -0.844909 0
M  V30 7818 C 756.771 -4.9481 -2.0265 0
M  V30 7819 C 758.071 -5.22106 0.142499 0
M  V30 7820 H 759.765 -2.97237 0.359269 0
M  V30 7821 H 757.311 -1.42942 0.174224 0
M  V30 7822 H 759.264 -3.7325 -1.95607 0
M  V30 7823 H 757.988 -2.49858 -2.1033 0
M  V30 7824 H 756.647 -3.65285 -0.310189 0
M  V30 7825 H 756.295 -4.23282 -2.71737 0
M  V30 7826 H 755.995 -5.63613 -1.66174 0
M  V30 7827 H 757.519 -5.53035 -2.58815 0
M  V30 7828 H 758.933 -5.72378 -0.324966 0
M  V30 7829 H 757.33 -5.98618 0.421441 0
M  V30 7830 H 758.4 -4.7297 1.06901 0
M  V30 7831 N 759.743 -0.201713 -1.56304 0
M  V30 7832 C 760.992 0.435557 -1.96941 0
M  V30 7833 C 761.305 1.62299 -1.09172 0
M  V30 7834 O 762.511 2.32849 -1.3962 0
M  V30 7835 C 760.967 0.826298 -3.50286 0
M  V30 7836 C 760.575 -0.337216 -4.46729 0
M  V30 7837 C 762.319 1.43028 -3.99679 0
M  V30 7838 C 760.226 0.0748539 -5.91353 0
M  V30 7839 H 759.156 0.1665 -0.735387 0
M  V30 7840 H 761.807 -0.294781 -1.81117 0
M  V30 7841 H 760.189 1.61349 -3.61639 0
M  V30 7842 H 761.363 -1.11476 -4.47113 0
M  V30 7843 H 759.678 -0.853126 -4.07567 0
M  V30 7844 H 762.275 1.75115 -5.05212 0
M  V30 7845 H 762.618 2.33911 -3.44371 0
M  V30 7846 H 763.151 0.706924 -3.91468 0
M  V30 7847 H 759.89 -0.799957 -6.506 0
M  V30 7848 H 759.41 0.817122 -5.94208 0
M  V30 7849 H 761.089 0.508389 -6.45 0
M  V30 7850 N 761.222 1.57436 0.0718424 0
M  V30 7851 C 762.447 1.91858 0.787745 0
M  V30 7852 C 762.872 0.798119 1.70328 0
M  V30 7853 O 762.23 -0.24905 1.79581 0
M  V30 7854 C 762.278 3.25232 1.55744 0
M  V30 7855 O 761.382 3.14462 2.6681 0
M  V30 7856 H 760.723 0.628258 0.214914 0
M  V30 7857 H 763.253 2.04561 0.0401012 0
M  V30 7858 H 763.263 3.59105 1.9367 0
M  V30 7859 H 761.938 4.0636 0.885691 0
M  V30 7860 H 760.515 2.92148 2.31741 0
M  V30 7861 N 762.7 -0.34323 1.53817 0
M  V30 7862 C 764.111 -0.918823 1.62525 0
M  V30 7863 C 764.462 -1.89542 0.506765 0
M  V30 7864 O 763.587 -2.13326 -0.363441 0
M  V30 7865 C 764.182 -1.67326 2.94597 0
M  V30 7866 C 762.741 -2.19786 3.05567 0
M  V30 7867 C 761.888 -1.01708 2.57974 0
M  V30 7868 H 764.839 -0.121358 1.58235 0
M  V30 7869 H 764.86 -2.53615 2.83654 0
M  V30 7870 H 764.372 -0.962223 3.75983 0
M  V30 7871 H 762.473 -2.94065 2.28816 0
M  V30 7872 H 762.586 -2.46135 4.1104 0
M  V30 7873 H 760.95 -1.39058 2.13389 0
M  V30 7874 H 761.733 -0.320671 3.41799 0
M  V30 7875 N 764.178 -1.45556 -0.604258 0
M  V30 7876 C 765.141 -1.54091 -1.69672 0
M  V30 7877 C 766.141 -0.420076 -1.55216 0
M  V30 7878 O 767.331 -0.683671 -1.60224 0
M  V30 7879 C 764.463 -1.44063 -3.08964 0
M  V30 7880 H 765.656 -2.51431 -1.6347 0
M  V30 7881 H 763.209 -1.33046 -0.820273 0
M  V30 7882 H 763.944 -0.479201 -3.2074 0
M  V30 7883 H 763.729 -2.25362 -3.20865 0
M  V30 7884 H 765.219 -1.53075 -3.88533 0
M  V30 7885 N 765.656 0.84705 -1.32902 0
M  V30 7886 C 766.619 1.9378 -1.224 0
M  V30 7887 C 767.619 1.60144 -0.145108 0
M  V30 7888 O 768.809 1.69638 -0.396058 0
M  V30 7889 C 765.941 3.29234 -0.884174 0
M  V30 7890 H 767.134 2.04518 -2.19345 0
M  V30 7891 H 764.687 1.03816 -1.16842 0
M  V30 7892 H 765.422 3.24193 0.0831277 0
M  V30 7893 H 765.207 3.55026 -1.6643 0
M  V30 7894 H 766.697 4.09162 -0.835226 0
M  V30 7895 N 767.134 1.16236 1.06428 0
M  V30 7896 C 768.044 0.881976 2.1739 0
M  V30 7897 C 769.06 -0.145259 1.73393 0
M  V30 7898 O 770.236 0.0310558 2.01376 0
M  V30 7899 C 767.301 0.385496 3.4455 0
M  V30 7900 C 766.362 1.47779 4.03063 0
M  V30 7901 C 765.595 1.0049 5.24154 0
M  V30 7902 O 765.818 -0.145889 5.70213 0
M  V30 7903 O 764.752 1.79265 5.74585 0
M  V30 7904 H 768.578 1.80983 2.43883 0
M  V30 7905 H 766.163 0.942226 1.15942 0
M  V30 7906 H 768.045 0.115536 4.21242 0
M  V30 7907 H 766.72 -0.514369 3.19587 0
M  V30 7908 H 765.627 1.80147 3.27869 0
M  V30 7909 H 766.96 2.35291 4.32318 0
M  V30 7910 N 768.612 -1.24939 0.960631 0
M  V30 7911 C 769.858 -1.93104 0.61958 0
M  V30 7912 C 770.191 -1.74991 -0.84212 0
M  V30 7913 O 769.466 -1.09867 -1.60498 0
M  V30 7914 C 769.749 -3.46326 0.986422 0
M  V30 7915 C 769.602 -3.73638 2.50429 0
M  V30 7916 C 770.921 -4.37067 0.515827 0
M  V30 7917 H 768.04 -0.701311 0.226566 0
M  V30 7918 H 770.682 -1.47442 1.19836 0
M  V30 7919 H 768.832 -3.85348 0.493907 0
M  V30 7920 H 770.504 -3.44217 3.07103 0
M  V30 7921 H 768.747 -3.19035 2.93937 0
M  V30 7922 H 769.418 -4.80815 2.71147 0
M  V30 7923 H 771.894 -4.05381 0.938389 0
M  V30 7924 H 770.77 -5.43022 0.80114 0
M  V30 7925 H 771.031 -4.38224 -0.584171 0
M  V30 7926 N 770.09 -0.729906 -1.39679 0
M  V30 7927 C 771.336 -0.27603 -2.00913 0
M  V30 7928 C 771.669 1.13227 -1.57776 0
M  V30 7929 O 770.944 1.7709 -0.804319 0
M  V30 7930 C 771.227 -0.372157 -3.58172 0
M  V30 7931 C 771.08 -1.81986 -4.11341 0
M  V30 7932 C 772.399 0.248378 -4.39399 0
M  V30 7933 H 769.518 -0.101773 -0.729939 0
M  V30 7934 H 772.16 -0.925104 -1.65957 0
M  V30 7935 H 770.31 0.180459 -3.88081 0
M  V30 7936 H 771.982 -2.42896 -3.92172 0
M  V30 7937 H 770.225 -2.34287 -3.65092 0
M  V30 7938 H 770.896 -1.83842 -5.20486 0
M  V30 7939 H 773.372 -0.222645 -4.15504 0
M  V30 7940 H 772.248 0.150746 -5.48693 0
M  V30 7941 H 772.509 1.33378 -4.21501 0
M  V30 7942 N 771.568 1.50203 -0.477153 0
M  V30 7943 C 772.478 2.32421 0.319027 0
M  V30 7944 C 773.494 1.43075 0.990233 0
M  V30 7945 O 774.67 1.76123 0.976873 0
M  V30 7946 C 771.735 3.17909 1.38328 0
M  V30 7947 C 770.796 4.23082 0.728036 0
M  V30 7948 C 770.029 5.04484 1.74158 0
M  V30 7949 O 770.252 4.8705 2.96881 0
M  V30 7950 O 769.186 5.8747 1.31006 0
M  V30 7951 H 773.012 3.01638 -0.353281 0
M  V30 7952 H 770.597 1.47478 -0.238891 0
M  V30 7953 H 772.479 3.70937 1.9996 0
M  V30 7954 H 771.154 2.51413 2.03895 0
M  V30 7955 H 770.061 3.7403 0.07261 0
M  V30 7956 H 771.394 4.92065 0.115216 0
M  V30 7957 N 773.046 0.209999 1.56195 0
M  V30 7958 C 774.294 -0.423974 1.97603 0
M  V30 7959 C 774.615 -1.61112 1.09854 0
M  V30 7960 O 773.885 -1.95134 0.173032 0
M  V30 7961 H 772.465 -0.159629 0.729745 0
M  V30 7962 H 775.127 0.300205 1.92574 0
M  V30 7963 H 774.223 -0.75809 3.02753 0
M  V30 7964 N 774.524 -1.57472 -0.0634922 0
M  V30 7965 C 775.456 -2.00999 -1.10145 0
M  V30 7966 C 776.469 -0.917219 -1.34503 0
M  V30 7967 O 777.658 -1.19501 -1.32596 0
M  V30 7968 C 774.758 -2.34089 -2.45063 0
M  V30 7969 C 773.931 -3.65317 -2.40546 0
M  V30 7970 C 772.99 -3.85982 -3.57637 0
M  V30 7971 O 772.016 -4.5747 -3.38689 0
M  V30 7972 N 773.218 -3.28971 -4.78287 0
M  V30 7973 H 775.983 -2.90656 -0.730714 0
M  V30 7974 H 773.544 -1.59926 -0.252017 0
M  V30 7975 H 775.536 -2.4508 -3.22053 0
M  V30 7976 H 774.106 -1.50279 -2.74107 0
M  V30 7977 H 773.326 -3.65003 -1.48885 0
M  V30 7978 H 774.614 -4.51468 -2.34636 0
M  V30 7979 H 774.012 -2.70962 -4.96584 0
M  V30 7980 H 772.569 -3.45398 -5.5276 0
M  V30 7981 N 776.003 0.335068 -1.53997 0
M  V30 7982 C 776.966 1.39481 -1.81872 0
M  V30 7983 C 777.966 1.4524 -0.690078 0
M  V30 7984 O 779.156 1.45467 -0.958377 0
M  V30 7985 C 776.288 2.78329 -1.9684 0
M  V30 7986 H 777.481 1.16024 -2.76547 0
M  V30 7987 H 775.034 0.569926 -1.45539 0
M  V30 7988 H 775.769 3.07058 -1.04337 0
M  V30 7989 H 775.554 2.75544 -2.78958 0
M  V30 7990 H 777.044 3.55016 -2.19894 0
M  V30 7991 N 777.481 1.45874 0.596531 0
M  V30 7992 C 778.727 1.5069 1.35722 0
M  V30 7993 C 779.06 0.152506 1.936 0
M  V30 7994 O 778.335 -0.834411 1.75692 0
M  V30 7995 C 778.618 2.59474 2.4969 0
M  V30 7996 C 778.471 4.04396 1.96937 0
M  V30 7997 C 779.79 2.64451 3.51787 0
M  V30 7998 H 776.909 0.548611 0.492133 0
M  V30 7999 H 779.551 1.77741 0.671428 0
M  V30 8000 H 777.701 2.36539 3.08191 0
M  V30 8001 H 779.373 4.38576 1.43 0
M  V30 8002 H 777.616 4.14529 1.27859 0
M  V30 8003 H 778.287 4.76218 2.79143 0
M  V30 8004 H 780.763 2.85031 3.03145 0
M  V30 8005 H 779.639 3.42411 4.29006 0
M  V30 8006 H 779.9 1.69965 4.08123 0
M  V30 8007 N 778.959 -0.83999 1.33349 0
M  V30 8008 C 780.187 -1.62728 1.27778 0
M  V30 8009 C 780.602 -1.88191 -0.151505 0
M  V30 8010 O 779.959 -1.46128 -1.09329 0
M  V30 8011 C 780.01 -2.97813 2.04913 0
M  V30 8012 O 779.731 -2.73469 3.42266 0
M  V30 8013 C 781.232 -3.92245 2.0654 0
M  V30 8014 H 778.452 -0.506374 0.440257 0
M  V30 8015 H 780.996 -1.04637 1.75703 0
M  V30 8016 H 779.151 -3.52509 1.60674 0
M  V30 8017 H 779.565 -3.59483 3.81932 0
M  V30 8018 H 781.039 -4.84249 2.64966 0
M  V30 8019 H 781.516 -4.26332 1.05537 0
M  V30 8020 H 782.122 -3.43487 2.50793 0
M  V30 8021 N 780.437 -1.16799 -1.0581 0
M  V30 8022 C 781.367 -0.902241 -2.15364 0
M  V30 8023 C 782.348 0.153351 -1.69407 0
M  V30 8024 O 783.533 0.00442032 -1.94199 0
M  V30 8025 C 780.663 -0.407911 -3.44896 0
M  V30 8026 C 779.617 -1.40197 -4.04387 0
M  V30 8027 C 778.943 -0.765848 -5.29187 0
M  V30 8028 C 780.243 -2.77316 -4.42598 0
M  V30 8029 H 781.937 -1.81841 -2.37853 0
M  V30 8030 H 779.483 -0.875731 -1.14311 0
M  V30 8031 H 781.436 -0.20945 -4.20879 0
M  V30 8032 H 780.16 0.54378 -3.22041 0
M  V30 8033 H 778.819 -1.58707 -3.30466 0
M  V30 8034 H 778.467 0.192482 -5.02632 0
M  V30 8035 H 778.167 -1.42939 -5.69949 0
M  V30 8036 H 779.691 -0.577519 -6.07863 0
M  V30 8037 H 781.105 -2.62561 -5.09642 0
M  V30 8038 H 779.502 -3.4019 -4.94359 0
M  V30 8039 H 780.572 -3.32199 -3.53231 0
M  V30 8040 N 781.915 1.24427 -0.967243 0
M  V30 8041 C 783.14 1.9708 -0.646069 0
M  V30 8042 C 783.565 1.71272 0.777665 0
M  V30 8043 O 782.923 0.976179 1.52776 0
M  V30 8044 C 782.971 3.48501 -0.926266 0
M  V30 8045 O 782.075 4.12398 -0.0114653 0
M  V30 8046 H 781.416 0.617423 -0.244304 0
M  V30 8047 H 783.946 1.58215 -1.29727 0
M  V30 8048 H 783.956 3.98885 -0.857619 0
M  V30 8049 H 782.631 3.66613 -1.96386 0
M  V30 8050 H 781.208 3.72661 -0.133396 0
M  V30 8051 N 783.393 0.737304 1.3929 0
M  V30 8052 C 784.633 0.290966 2.02318 0
M  V30 8053 C 784.997 -1.10174 1.57244 0
M  V30 8054 O 786.198 -1.64628 2.12488 0
M  V30 8055 C 784.469 0.391767 3.55246 0
M  V30 8056 S 786.028 0.0256103 4.38793 0
M  V30 8057 H 782.846 0.113862 0.701824 0
M  V30 8058 H 785.448 0.964329 1.70062 0
M  V30 8059 H 784.152 1.40662 3.85542 0
M  V30 8060 H 783.683 -0.299338 3.9226 0
M  V30 8061 H 785.698 -1.18991 4.81722 0
M  V30 8062 N 784.871 -1.49948 0.485112 0
M  V30 8063 C 786.287 -1.58984 0.140096 0
M  V30 8064 C 786.487 -1.49194 -1.35438 0
M  V30 8065 O 785.543 -1.35765 -2.12894 0
M  V30 8066 C 786.856 -2.92372 0.702769 0
M  V30 8067 C 788.404 -3.05801 0.66745 0
M  V30 8068 C 788.879 -4.41785 1.20791 0
M  V30 8069 N 790.37 -4.48234 1.16792 0
M  V30 8070 C 791.105 -5.51871 1.55646 0
M  V30 8071 N 790.601 -6.62692 2.02016 0
M  V30 8072 N 792.394 -5.42494 1.47161 0
M  V30 8073 H 784.545 -1.54555 1.45693 0
M  V30 8074 H 786.808 -0.731206 0.603359 0
M  V30 8075 H 786.514 -3.05056 1.75025 0
M  V30 8076 H 786.388 -3.76885 0.154205 0
M  V30 8077 H 788.775 -2.92757 -0.371157 0
M  V30 8078 H 788.856 -2.23011 1.25298 0
M  V30 8079 H 788.5 -4.55579 2.24522 0
M  V30 8080 H 788.43 -5.23188 0.598464 0
M  V30 8081 H 790.921 -3.68718 0.827982 0
M  V30 8082 H 791.234 -7.3785 2.29775 0
M  V30 8083 H 789.579 -6.63775 2.05979 0
M  V30 8084 H 792.77 -4.54806 1.10765 0
M  V30 8085 H 792.943 -6.2314 1.77766 0
M  V30 8086 N 786.349 -0.21828 -1.56081 0
M  V30 8087 C 787.574 0.422302 -2.03055 0
M  V30 8088 C 787.999 1.5279 -1.09713 0
M  V30 8089 O 787.357 1.81102 -0.0847187 0
M  V30 8090 C 787.405 0.934177 -3.48289 0
M  V30 8091 O 786.509 2.04574 -3.58083 0
M  V30 8092 H 785.85 0.0959764 -0.657027 0
M  V30 8093 H 788.38 -0.335958 -2.01823 0
M  V30 8094 H 788.39 1.24484 -3.88546 0
M  V30 8095 H 787.065 0.124963 -4.15712 0
M  V30 8096 H 785.642 1.74196 -3.29712 0
M  V30 8097 N 787.827 1.57504 0.0551401 0
M  V30 8098 C 789.075 1.87684 0.74962 0
M  V30 8099 C 789.396 0.812547 1.77264 0
M  V30 8100 O 788.666 -0.15694 1.9527 0
M  V30 8101 H 787.246 0.6926 0.279846 0
M  V30 8102 H 789.908 1.94881 0.0272745 0
M  V30 8103 H 789.004 2.85734 1.25548 0
M  V30 8104 N 789.305 -0.326896 1.54172 0
M  V30 8105 C 790.235 -1.40741 1.86317 0
M  V30 8106 C 791.216 -1.54125 0.719684 0
M  V30 8107 O 792.401 -1.6806 0.973117 0
M  V30 8108 C 789.531 -2.77557 2.08757 0
M  V30 8109 C 788.485 -2.78965 3.24596 0
M  V30 8110 C 787.811 -4.18824 3.32401 0
M  V30 8111 C 789.111 -2.4301 4.62324 0
M  V30 8112 H 790.805 -1.14088 2.76811 0
M  V30 8113 H 788.351 -0.547389 1.3319 0
M  V30 8114 H 790.304 -3.53209 2.29829 0
M  V30 8115 H 789.028 -3.0568 1.15009 0
M  V30 8116 H 787.687 -2.05767 3.03406 0
M  V30 8117 H 787.335 -4.44083 2.36218 0
M  V30 8118 H 787.035 -4.20673 4.10253 0
M  V30 8119 H 788.559 -4.96294 3.55703 0
M  V30 8120 H 789.973 -3.08375 4.83299 0
M  V30 8121 H 788.37 -2.56116 5.42701 0
M  V30 8122 H 789.44 -1.38165 4.64799 0
M  V30 8123 N 790.784 -1.46188 -0.588786 0
M  V30 8124 C 792.009 -1.5498 -1.37826 0
M  V30 8125 C 792.434 -0.189498 -1.87143 0
M  V30 8126 O 791.792 0.829293 -1.61222 0
M  V30 8127 C 791.84 -2.55369 -2.54596 0
M  V30 8128 O 790.944 -2.08452 -3.55839 0
M  V30 8129 H 790.285 -0.521741 -0.41071 0
M  V30 8130 H 792.815 -1.91708 -0.714779 0
M  V30 8131 H 792.825 -2.74782 -3.01594 0
M  V30 8132 H 791.5 -3.54155 -2.18052 0
M  V30 8133 H 790.077 -1.98999 -3.15363 0
M  V30 8134 N 792.262 0.832906 -1.33792 0
M  V30 8135 C 793.673 1.40489 -1.22963 0
M  V30 8136 C 794.024 1.95633 0.149026 0
M  V30 8137 O 793.149 1.8928 1.04891 0
M  V30 8138 C 793.744 2.55387 -2.22627 0
M  V30 8139 C 792.303 3.08522 -2.15618 0
M  V30 8140 C 791.45 1.81347 -2.09782 0
M  V30 8141 H 794.401 0.638156 -1.45304 0
M  V30 8142 H 794.422 3.33193 -1.83746 0
M  V30 8143 H 793.934 2.15222 -3.22957 0
M  V30 8144 H 792.035 3.53217 -1.18611 0
M  V30 8145 H 792.148 3.6829 -3.0643 0
M  V30 8146 H 790.512 2.01839 -1.55349 0
M  V30 8147 H 791.295 1.43369 -3.1193 0
M  V30 8148 N 793.74 1.17359 1.05189 0
M  V30 8149 C 794.968 0.986529 1.81866 0
M  V30 8150 C 795.383 -0.46522 1.82979 0
M  V30 8151 O 794.74 -1.32305 1.25705 0
M  V30 8152 C 794.791 1.52021 3.27982 0
M  V30 8153 O 794.512 2.91511 3.27037 0
M  V30 8154 C 796.013 1.37774 4.21347 0
M  V30 8155 H 793.233 0.349021 0.573084 0
M  V30 8156 H 795.777 1.55648 1.32643 0
M  V30 8157 H 793.932 0.992287 3.74476 0
M  V30 8158 H 794.346 3.16178 4.18488 0
M  V30 8159 H 795.82 1.7993 5.21852 0
M  V30 8160 H 796.297 0.32483 4.37997 0
M  V30 8161 H 796.903 1.89583 3.80708 0
M  V30 8162 N 795.218 -1.23913 0.973828 0
M  V30 8163 C 796.629 -1.73992 0.677021 0
M  V30 8164 C 796.98 -1.78833 -0.807036 0
M  V30 8165 O 796.105 -1.42183 -1.63135 0
M  V30 8166 C 796.7 -3.15985 1.22226 0
M  V30 8167 C 795.259 -3.63547 0.975228 0
M  V30 8168 C 794.406 -2.42001 1.35392 0
M  V30 8169 H 797.357 -1.09529 1.14844 0
M  V30 8170 H 797.378 -3.75875 0.591489 0
M  V30 8171 H 796.89 -3.12429 2.30238 0
M  V30 8172 H 794.991 -3.72493 -0.0891047 0
M  V30 8173 H 795.104 -4.50693 1.62518 0
M  V30 8174 H 793.468 -2.42708 0.772334 0
M  V30 8175 H 794.251 -2.41122 2.44367 0
M  V30 8176 N 796.696 -0.74468 -1.38897 0
M  V30 8177 C 797.973 -0.222773 -1.94327 0
M  V30 8178 C 798.353 1.27731 -1.68071 0
M  V30 8179 O 797.701 2.04754 -1.01429 0
M  V30 8180 C 797.911 -0.566836 -3.44366 0
M  V30 8181 C 799.259 -0.521531 -4.21385 0
M  V30 8182 O 800.283 -0.504599 -3.52608 0
M  V30 8183 O 799.142 -0.524595 -5.43976 0
M  V30 8184 H 796.236 -0.0439259 -0.825833 0
M  V30 8185 H 798.782 -0.824197 -1.48341 0
M  V30 8186 H 797.554 -1.60321 -3.56949 0
M  V30 8187 H 797.177 0.0630577 -3.9755 0
M  V30 8188 N 798.174 1.49689 -0.493057 0
M  V30 8189 C 799.137 2.27502 0.278485 0
M  V30 8190 C 800.137 1.33184 0.901037 0
M  V30 8191 O 801.327 1.56415 0.766801 0
M  V30 8192 C 798.459 3.10881 1.39878 0
M  V30 8193 H 799.652 2.97163 -0.404219 0
M  V30 8194 H 797.205 1.54324 -0.247774 0
M  V30 8195 H 797.94 2.45767 2.11587 0
M  V30 8196 H 797.725 3.80219 0.957924 0
M  V30 8197 H 799.215 3.69673 1.94247 0
M  V30 8198 N 799.652 0.226554 1.55963 0
M  V30 8199 C 801.068 -0.128733 1.5908 0
M  V30 8200 C 801.268 -1.58558 1.24345 0
M  V30 8201 O 800.324 -2.32661 0.981069 0
M  V30 8202 C 801.637 0.202076 3.0002 0
M  V30 8203 C 803.185 0.144718 3.12665 0
M  V30 8204 C 803.66 0.449272 4.55791 0
M  V30 8205 N 805.151 0.399026 4.61478 0
M  V30 8206 C 805.886 0.608106 5.70166 0
M  V30 8207 N 805.382 0.879227 6.87198 0
M  V30 8208 N 807.175 0.5402 5.59498 0
M  V30 8209 H 799.326 1.17686 1.76816 0
M  V30 8210 H 801.589 0.472072 0.822102 0
M  V30 8211 H 801.295 1.21341 3.30105 0
M  V30 8212 H 801.169 -0.480554 3.74126 0
M  V30 8213 H 803.556 -0.857261 2.82374 0
M  V30 8214 H 803.637 0.860899 2.40878 0
M  V30 8215 H 803.281 1.44871 4.86801 0
M  V30 8216 H 803.211 -0.288157 5.25811 0
M  V30 8217 H 805.702 0.197372 3.77384 0
M  V30 8218 H 806.015 1.02673 7.65949 0
M  V30 8219 H 804.36 0.916477 6.88931 0
M  V30 8220 H 807.551 0.328581 4.66945 0
M  V30 8221 H 807.724 0.706548 6.44137 0
M  V30 8222 N 801.13 -1.57531 -0.0467866 0
M  V30 8223 C 802.377 -1.88451 -0.74112 0
M  V30 8224 C 802.705 -0.821592 -1.76296 0
M  V30 8225 O 801.96 0.179585 -1.94874 0
M  V30 8226 C 802.259 -3.26091 -1.46285 0
M  V30 8227 C 801.925 -4.47171 -0.578669 0
M  V30 8228 C 800.587 -4.80032 -0.335083 0
M  V30 8229 C 802.939 -5.2119 0.0328809 0
M  V30 8230 C 800.267 -5.84309 0.529121 0
M  V30 8231 C 802.619 -6.26383 0.884684 0
M  V30 8232 C 801.283 -6.57729 1.1379 0
M  V30 8233 H 800.553 -0.68959 -0.271195 0
M  V30 8234 H 803.2 -1.915 -0.00132378 0
M  V30 8235 H 801.505 -3.18948 -2.27551 0
M  V30 8236 H 803.202 -3.47258 -2.00532 0
M  V30 8237 H 799.792 -4.21467 -0.778666 0
M  V30 8238 H 803.976 -4.96096 -0.142375 0
M  V30 8239 H 799.232 -6.06981 0.733794 0
M  V30 8240 H 803.406 -6.82888 1.36516 0
M  V30 8241 H 801.033 -7.38355 1.80929 0
M  V30 8242 N 802.608 0.318715 -1.54344 0
M  V30 8243 C 803.833 1.07987 -1.77069 0
M  V30 8244 C 804.258 1.80766 -0.520117 0
M  V30 8245 O 803.616 1.73424 0.528566 0
M  V30 8246 C 803.664 2.04987 -2.96669 0
M  V30 8247 O 802.768 3.12974 -2.68554 0
M  V30 8248 H 802.109 0.311109 -0.586606 0
M  V30 8249 H 804.639 0.361533 -2.0138 0
M  V30 8250 H 804.649 2.47771 -3.2415 0
M  V30 8251 H 803.324 1.51417 -3.87357 0
M  V30 8252 H 801.901 2.74831 -2.52037 0
M  V30 8253 N 804.086 1.46499 0.581025 0
M  V30 8254 C 805.332 1.53108 1.33901 0
M  V30 8255 C 805.687 0.181007 1.91547 0
M  V30 8256 O 804.98 -0.810518 1.73612 0
M  V30 8257 C 805.174 2.56686 2.48691 0
M  V30 8258 C 805.003 4.01633 2.0229 0
M  V30 8259 C 803.773 4.69333 1.87228 0
M  V30 8260 C 805.971 4.89379 1.58154 0
M  V30 8261 N 803.953 5.98891 1.34917 0
M  V30 8262 C 805.324 6.08775 1.17445 0
M  V30 8263 C 807.379 4.76017 1.45987 0
M  V30 8264 C 806.082 7.16286 0.657805 0
M  V30 8265 C 808.108 5.83601 0.95726 0
M  V30 8266 C 807.47 7.02171 0.55996 0
M  V30 8267 H 803.569 0.61509 0.482896 0
M  V30 8268 H 806.153 1.83123 0.661361 0
M  V30 8269 H 804.324 2.28578 3.14017 0
M  V30 8270 H 806.056 2.5328 3.15644 0
M  V30 8271 H 802.811 4.24878 2.09226 0
M  V30 8272 H 803.235 6.67852 1.10917 0
M  V30 8273 H 807.877 3.84736 1.75322 0
M  V30 8274 H 805.595 8.07333 0.352047 0
M  V30 8275 H 809.181 5.75304 0.867007 0
M  V30 8276 H 808.061 7.84 0.177046 0
M  V30 8277 N 805.565 -0.825799 1.34232 0
M  V30 8278 C 806.795 -1.61129 1.29309 0
M  V30 8279 C 807.203 -1.88714 -0.135589 0
M  V30 8280 O 806.546 -1.47703 -1.09222 0
M  V30 8281 C 806.608 -2.97866 2.01287 0
M  V30 8282 C 806.272 -2.9319 3.50555 0
M  V30 8283 C 807.269 -2.67978 4.45515 0
M  V30 8284 C 804.954 -3.12913 3.92926 0
M  V30 8285 C 806.948 -2.62536 5.80822 0
M  V30 8286 C 804.635 -3.07096 5.28333 0
M  V30 8287 C 805.633 -2.8194 6.22092 0
M  V30 8288 O 805.321 -2.7605 7.55018 0
M  V30 8289 H 805.053 -0.507652 0.446391 0
M  V30 8290 H 807.607 -1.03575 1.77374 0
M  V30 8291 H 805.837 -3.57327 1.47832 0
M  V30 8292 H 807.526 -3.58848 1.89691 0
M  V30 8293 H 808.292 -2.52478 4.14101 0
M  V30 8294 H 804.171 -3.3151 3.20347 0
M  V30 8295 H 807.715 -2.42821 6.53975 0
M  V30 8296 H 803.612 -3.22148 5.59367 0
M  V30 8297 H 804.38 -2.91798 7.6472 0
M  V30 8298 N 807.043 -1.17915 -1.04565 0
M  V30 8299 C 807.973 -0.925033 -2.14395 0
M  V30 8300 C 808.954 0.135375 -1.6956 0
M  V30 8301 O 810.139 -0.0161774 -1.94193 0
M  V30 8302 C 807.269 -0.444469 -3.44444 0
M  V30 8303 C 806.223 -1.44478 -4.02877 0
M  V30 8304 C 805.549 -0.821933 -5.28345 0
M  V30 8305 C 806.849 -2.81995 -4.39632 0
M  V30 8306 H 808.543 -1.84354 -2.35911 0
M  V30 8307 H 806.089 -0.887806 -1.13375 0
M  V30 8308 H 808.042 -0.254078 -4.20633 0
M  V30 8309 H 806.766 0.509592 -3.226 0
M  V30 8310 H 805.425 -1.62203 -3.28764 0
M  V30 8311 H 805.073 0.139161 -5.02807 0
M  V30 8312 H 804.773 -1.48976 -5.68401 0
M  V30 8313 H 806.297 -0.641959 -6.07216 0
M  V30 8314 H 807.711 -2.67952 -5.06828 0
M  V30 8315 H 806.108 -3.45414 -4.90723 0
M  V30 8316 H 807.178 -3.35927 -3.49687 0
M  V30 8317 N 808.521 1.23394 -0.980386 0
M  V30 8318 C 809.469 2.26872 -0.513018 0
M  V30 8319 C 810.463 1.63853 0.429948 0
M  V30 8320 O 811.669 1.77417 0.303842 0
M  V30 8321 H 808.044 0.737398 -0.147473 0
M  V30 8322 H 810.015 2.63654 -1.39746 0
M  V30 8323 C 808.764 3.47289 0.168962 0
M  V30 8324 H 808.087 3.96033 -0.547546 0
M  V30 8325 H 809.527 4.21502 0.459616 0
M  V30 8326 C 807.986 3.06425 1.40019 0
M  V30 8327 O 808.516 3.14708 2.49643 0
M  V30 8328 N 806.722 2.61339 1.27084 0
M  V30 8329 H 806.269 2.54799 0.378872 0
M  V30 8330 H 806.227 2.34364 2.09573 0
M  V30 8331 N 809.999 0.752036 1.385 0
M  V30 8332 C 811.247 0.306895 1.99756 0
M  V30 8333 C 811.568 -1.11478 1.59992 0
M  V30 8334 O 810.838 -1.76206 0.856045 0
M  V30 8335 H 809.418 0.11048 0.738785 0
M  V30 8336 H 812.08 0.965785 1.69289 0
M  V30 8337 H 811.176 0.368797 3.09913 0
M  V30 8338 N 811.477 -1.49425 0.500989 0
M  V30 8339 C 812.44 -2.27646 -0.266416 0
M  V30 8340 C 813.44 -1.3366 -0.893961 0
M  V30 8341 O 814.63 -1.5682 -0.758495 0
M  V30 8342 C 811.762 -3.11618 -1.38227 0
M  V30 8343 H 812.955 -2.96945 0.419973 0
M  V30 8344 H 810.508 -1.5419 0.255954 0
M  V30 8345 H 811.243 -2.46885 -2.10281 0
M  V30 8346 H 811.028 -3.80721 -0.937746 0
M  V30 8347 H 812.518 -3.70698 -1.92283 0
M  V30 8348 N 812.955 -0.234822 -1.55841 0
M  V30 8349 C 813.885 0.664217 -2.23854 0
M  V30 8350 C 814.866 1.19076 -1.2147 0
M  V30 8351 O 816.051 1.23232 -1.50091 0
M  V30 8352 C 813.181 1.86666 -2.9287 0
M  V30 8353 C 812.135 1.47341 -4.01839 0
M  V30 8354 C 811.461 2.75571 -4.58219 0
M  V30 8355 C 812.761 0.653479 -5.18196 0
M  V30 8356 H 814.455 0.0971213 -2.99242 0
M  V30 8357 H 812.001 0.0452724 -1.43929 0
M  V30 8358 H 813.954 2.50116 -3.39146 0
M  V30 8359 H 812.678 2.45894 -2.1495 0
M  V30 8360 H 811.337 0.862314 -3.56314 0
M  V30 8361 H 810.985 3.32971 -3.77014 0
M  V30 8362 H 810.685 2.49987 -5.31771 0
M  V30 8363 H 812.209 3.39939 -5.07221 0
M  V30 8364 H 813.623 1.19198 -5.60771 0
M  V30 8365 H 812.02 0.494188 -5.98062 0
M  V30 8366 H 813.09 -0.337004 -4.83728 0
M  V30 8367 N 814.433 1.57553 0.0384317 0
M  V30 8368 C 815.363 2.0898 1.04161 0
M  V30 8369 C 816.344 0.99029 1.38301 0
M  V30 8370 O 817.529 1.26499 1.47349 0
M  V30 8371 C 814.659 2.56145 2.34536 0
M  V30 8372 C 813.613 3.70275 2.14663 0
M  V30 8373 C 812.939 4.03612 3.50715 0
M  V30 8374 C 814.239 4.99067 1.54045 0
M  V30 8375 H 815.933 2.93046 0.613548 0
M  V30 8376 H 813.479 1.40973 0.293684 0
M  V30 8377 H 815.432 2.90741 3.05037 0
M  V30 8378 H 814.156 1.6915 2.79385 0
M  V30 8379 H 812.815 3.36013 1.46597 0
M  V30 8380 H 812.463 3.13698 3.93195 0
M  V30 8381 H 812.163 4.80482 3.38247 0
M  V30 8382 H 813.687 4.40735 4.22593 0
M  V30 8383 H 815.101 5.3168 2.14451 0
M  V30 8384 H 813.498 5.80484 1.52178 0
M  V30 8385 H 814.568 4.8226 0.505259 0
M  V30 8386 N 815.911 -0.310526 1.54511 0
M  V30 8387 C 816.861 -1.38405 1.81185 0
M  V30 8388 C 817.845 -1.46355 0.668499 0
M  V30 8389 O 819.037 -1.50668 0.928873 0
M  V30 8390 C 816.166 -2.75059 2.0542 0
M  V30 8391 C 815.252 -2.7137 3.25913 0
M  V30 8392 N 815.643 -2.37298 4.4668 0
M  V30 8393 C 813.941 -3.02484 3.27749 0
M  V30 8394 C 814.642 -2.42669 5.28665 0
M  V30 8395 N 813.618 -2.79639 4.66158 0
M  V30 8396 H 817.42 -1.11012 2.72128 0
M  V30 8397 H 814.934 -0.519068 1.53881 0
M  V30 8398 H 816.931 -3.52451 2.22674 0
M  V30 8399 H 815.591 -3.03372 1.15739 0
M  V30 8400 H 816.602 -2.09917 4.73451 0
M  V30 8401 H 813.279 -3.35754 2.48144 0
M  V30 8402 H 814.669 -2.19206 6.35136 0
M  V30 8403 N 817.389 -1.46805 -0.573248 0
M  V30 8404 C 818.299 -1.60687 -1.70929 0
M  V30 8405 C 819.315 -0.490084 -1.66956 0
M  V30 8406 O 820.491 -0.755482 -1.86693 0
M  V30 8407 C 817.556 -1.60259 -3.07438 0
M  V30 8408 C 816.617 -2.83242 -3.22603 0
M  V30 8409 C 815.85 -2.82825 -4.52599 0
M  V30 8410 O 816.073 -1.92113 -5.37074 0
M  V30 8411 O 815.007 -3.74489 -4.71213 0
M  V30 8412 H 818.833 -2.56782 -1.62163 0
M  V30 8413 H 816.418 -1.29706 -0.741399 0
M  V30 8414 H 818.3 -1.6275 -3.88704 0
M  V30 8415 H 816.975 -0.673268 -3.16621 0
M  V30 8416 H 815.882 -2.86302 -2.40794 0
M  V30 8417 H 817.215 -3.75415 -3.18315 0
M  V30 8418 N 818.867 0.818669 -1.34668 0
M  V30 8419 C 820.115 1.57201 -1.27013 0
M  V30 8420 C 820.436 1.94354 0.158599 0
M  V30 8421 O 819.706 1.62626 1.09223 0
M  V30 8422 H 818.286 0.582919 -0.467135 0
M  V30 8423 H 820.948 0.977234 -1.6863 0
M  V30 8424 H 820.044 2.49291 -1.87778 0
M  V30 8425 N 820.346 1.18468 1.03938 0
M  V30 8426 C 821.757 0.984808 1.58614 0
M  V30 8427 C 822.108 -0.465165 1.90606 0
M  V30 8428 O 821.233 -1.34274 1.69704 0
M  V30 8429 C 821.828 1.78135 2.8819 0
M  V30 8430 C 820.387 1.62579 3.39478 0
M  V30 8431 C 819.534 1.77501 2.13046 0
M  V30 8432 H 822.485 1.32993 0.865944 0
M  V30 8433 H 822.506 1.27119 3.58638 0
M  V30 8434 H 822.018 2.83661 2.64874 0
M  V30 8435 H 820.119 0.59595 3.67803 0
M  V30 8436 H 820.232 2.42463 4.13217 0
M  V30 8437 H 818.596 1.2046 2.24414 0
M  V30 8438 H 819.379 2.84464 1.92185 0
M  V30 8439 N 821.824 -1.22873 0.986916 0
M  V30 8440 C 823.072 -1.91084 0.658121 0
M  V30 8441 C 823.393 -1.77304 -0.811675 0
M  V30 8442 O 822.663 -1.15649 -1.58121 0
M  V30 8443 H 821.243 -0.707251 0.240427 0
M  V30 8444 H 823.905 -1.49357 1.25213 0
M  V30 8445 H 823.001 -2.98373 0.915428 0
M  V30 8446 N 823.302 -0.75937 -1.38099 0
M  V30 8447 C 824.527 -0.327859 -2.04792 0
M  V30 8448 C 824.952 1.03752 -1.56899 0
M  V30 8449 O 824.31 1.66235 -0.723581 0
M  V30 8450 C 824.358 -0.366264 -3.58735 0
M  V30 8451 O 823.462 0.637697 -4.0744 0
M  V30 8452 H 822.803 -0.144092 -0.648177 0
M  V30 8453 H 825.333 -1.03211 -1.7666 0
M  V30 8454 H 825.343 -0.219179 -4.07411 0
M  V30 8455 H 824.018 -1.36243 -3.92951 0
M  V30 8456 H 822.595 0.454749 -3.70117 0
M  V30 8457 N 824.78 1.49157 -0.508906 0
M  V30 8458 C 826.005 2.07376 0.0315182 0
M  V30 8459 C 826.43 1.36575 1.2934 0
M  V30 8460 O 825.788 0.424963 1.76249 0
M  V30 8461 C 825.836 3.59661 0.260118 0
M  V30 8462 O 824.94 3.90255 1.33322 0
M  V30 8463 H 824.281 0.663334 -0.029739 0
M  V30 8464 H 826.811 1.91857 -0.710791 0
M  V30 8465 H 826.821 4.05056 0.489225 0
M  V30 8466 H 825.496 4.10601 -0.661794 0
M  V30 8467 H 824.073 3.56661 1.08844 0
M  V30 8468 N 826.258 0.243083 1.55714 0
M  V30 8469 C 827.188 -0.652336 2.24203 0
M  V30 8470 C 828.169 -1.1843 1.221 0
M  V30 8471 O 829.354 -1.22435 1.50743 0
M  V30 8472 C 826.484 -1.85111 2.93856 0
M  V30 8473 C 825.438 -1.45208 4.02615 0
M  V30 8474 C 824.764 -2.73137 4.59674 0
M  V30 8475 C 826.064 -0.625988 5.18535 0
M  V30 8476 H 827.758 -0.0812504 2.9929 0
M  V30 8477 H 825.304 -0.0376388 1.43951 0
M  V30 8478 H 827.257 -2.48314 3.40468 0
M  V30 8479 H 825.981 -2.44751 2.16251 0
M  V30 8480 H 824.64 -0.843406 3.56766 0
M  V30 8481 H 824.288 -3.30967 3.78774 0
M  V30 8482 H 823.988 -2.47163 5.33089 0
M  V30 8483 H 825.512 -3.37245 5.09017 0
M  V30 8484 H 826.926 -1.16223 5.61396 0
M  V30 8485 H 825.323 -0.462465 5.98315 0
M  V30 8486 H 826.393 0.362652 4.83542 0
M  V30 8487 N 827.736 -1.57571 -0.0300757 0
M  V30 8488 C 828.666 -2.0953 -1.03051 0
M  V30 8489 C 829.647 -0.99761 -1.37774 0
M  V30 8490 O 830.832 -1.27279 -1.46676 0
M  V30 8491 C 827.962 -2.57385 -2.33174 0
M  V30 8492 C 826.916 -3.71409 -2.12696 0
M  V30 8493 C 826.242 -4.05467 -3.4857 0
M  V30 8494 C 827.542 -4.99877 -1.51396 0
M  V30 8495 H 829.236 -2.93367 -0.597999 0
M  V30 8496 H 826.782 -1.41127 -0.286203 0
M  V30 8497 H 828.735 -2.92355 -3.03491 0
M  V30 8498 H 827.459 -1.70629 -2.78484 0
M  V30 8499 H 826.118 -3.36786 -1.44813 0
M  V30 8500 H 825.766 -3.15779 -3.91526 0
M  V30 8501 H 825.466 -4.82269 -3.35694 0
M  V30 8502 H 826.99 -4.4297 -4.2025 0
M  V30 8503 H 828.404 -5.3281 -2.11629 0
M  V30 8504 H 826.801 -5.81283 -1.49098 0
M  V30 8505 H 827.871 -4.82522 -0.479676 0
M  V30 8506 N 829.214 0.302327 -1.54673 0
M  V30 8507 C 830.144 1.37759 -1.88533 0
M  V30 8508 C 831.125 1.52961 -0.744113 0
M  V30 8509 O 832.31 1.6649 -0.999731 0
M  V30 8510 C 829.44 2.74201 -2.13146 0
M  V30 8511 C 828.394 2.73765 -3.28993 0
M  V30 8512 C 827.72 4.13483 -3.39022 0
M  V30 8513 C 829.02 2.35624 -4.66132 0
M  V30 8514 H 830.714 1.0967 -2.78591 0
M  V30 8515 H 828.26 0.52613 -1.34044 0
M  V30 8516 H 830.213 3.49508 -2.35419 0
M  V30 8517 H 828.937 3.03812 -1.19858 0
M  V30 8518 H 827.596 2.00914 -3.06642 0
M  V30 8519 H 827.244 4.40269 -2.43253 0
M  V30 8520 H 826.944 4.14093 -4.16894 0
M  V30 8521 H 828.468 4.90572 -3.63553 0
M  V30 8522 H 829.882 3.00647 -4.88143 0
M  V30 8523 H 828.279 2.47449 -5.46707 0
M  V30 8524 H 829.349 1.30753 -4.66939 0
M  V30 8525 N 830.692 1.47107 0.565454 0
M  V30 8526 C 832.103 1.47266 1.1476 0
M  V30 8527 C 832.454 0.222841 1.9493 0
M  V30 8528 O 831.579 -0.672862 2.05673 0
M  V30 8529 C 832.174 2.66822 2.08785 0
M  V30 8530 C 830.733 2.69967 2.62288 0
M  V30 8531 C 829.88 2.40236 1.38499 0
M  V30 8532 H 832.831 1.54736 0.352479 0
M  V30 8533 H 832.852 2.43323 2.92531 0
M  V30 8534 H 832.364 3.5777 1.50408 0
M  V30 8535 H 830.465 1.83137 3.24487 0
M  V30 8536 H 830.578 3.70426 3.03845 0
M  V30 8537 H 828.942 1.90648 1.68895 0
M  V30 8538 H 829.725 3.33381 0.819274 0
M  V30 8539 N 832.17 -0.811516 1.35101 0
M  V30 8540 C 833.133 -1.90467 1.27495 0
M  V30 8541 C 834.133 -1.59703 0.187516 0
M  V30 8542 O 835.323 -1.68528 0.440896 0
M  V30 8543 C 832.455 -3.26774 0.971154 0
M  V30 8544 H 833.648 -1.98631 2.2469 0
M  V30 8545 H 831.201 -1.00681 1.19553 0
M  V30 8546 H 831.936 -3.243 0.0028557 0
M  V30 8547 H 831.721 -3.50488 1.75785 0
M  V30 8548 H 833.211 -4.06804 0.943414 0
M  V30 8549 N 833.648 -1.19017 -1.03309 0
M  V30 8550 C 834.611 -0.926076 -2.09658 0
M  V30 8551 C 835.611 0.0917077 -1.60538 0
M  V30 8552 O 836.801 -0.142574 -1.73616 0
M  V30 8553 C 833.933 -0.390958 -3.38651 0
M  V30 8554 H 835.126 -1.86923 -2.3452 0
M  V30 8555 H 832.679 -1.00325 -1.19853 0
M  V30 8556 H 833.414 0.558446 -3.19456 0
M  V30 8557 H 833.199 -1.12474 -3.75622 0
M  V30 8558 H 834.689 -0.225131 -4.16993 0
M  V30 8559 N 835.127 1.22348 -0.993418 0
M  V30 8560 C 836.352 1.95666 -0.687727 0
M  V30 8561 C 836.777 1.72883 0.741161 0
M  V30 8562 O 836.135 1.00837 1.50671 0
M  V30 8563 C 836.183 3.46457 -0.99998 0
M  V30 8564 O 835.287 4.12281 -0.0989386 0
M  V30 8565 H 834.628 0.612102 -0.257346 0
M  V30 8566 H 837.158 1.55428 -1.33054 0
M  V30 8567 H 837.168 3.96976 -0.942035 0
M  V30 8568 H 835.843 3.62365 -2.04118 0
M  V30 8569 H 834.42 3.72295 -0.212413 0
M  V30 8570 N 836.605 0.766683 1.37694 0
M  V30 8571 C 837.83 0.338715 2.04615 0
M  V30 8572 C 838.255 -1.02918 1.57447 0
M  V30 8573 O 837.613 -1.65849 0.732386 0
M  V30 8574 C 837.661 0.385284 3.58536 0
M  V30 8575 O 836.765 -0.616081 4.07772 0
M  V30 8576 H 836.106 0.147527 0.647404 0
M  V30 8577 H 838.636 1.04146 1.7611 0
M  V30 8578 H 838.646 0.240782 4.07289 0
M  V30 8579 H 837.321 1.38325 3.92223 0
M  V30 8580 H 835.898 -0.435115 3.70353 0
M  V30 8581 N 838.083 -1.48885 0.516809 0
M  V30 8582 C 839.311 -2.06892 -0.0184017 0
M  V30 8583 C 839.726 -1.37511 -1.29368 0
M  V30 8584 O 839.083 -0.458409 -1.76649 0
M  V30 8585 C 839.134 -3.60566 -0.259673 0
M  V30 8586 O 838.855 -4.27338 0.965065 0
M  V30 8587 C 840.356 -4.35331 -0.836751 0
M  V30 8588 H 837.576 -0.670433 0.0275743 0
M  V30 8589 H 840.12 -1.91455 0.718689 0
M  V30 8590 H 838.275 -3.75653 -0.94678 0
M  V30 8591 H 838.689 -5.19287 0.737647 0
M  V30 8592 H 840.163 -5.43675 -0.955065 0
M  V30 8593 H 840.64 -3.9887 -1.83845 0
M  V30 8594 H 841.246 -4.2489 -0.186622 0
M  V30 8595 N 839.561 -0.251338 -1.55583 0
M  V30 8596 C 840.838 0.422729 -1.90977 0
M  V30 8597 C 841.218 1.75534 -1.17265 0
M  V30 8598 O 840.566 2.26632 -0.291588 0
M  V30 8599 C 840.776 0.586448 -3.44037 0
M  V30 8600 C 842.124 0.880294 -4.15375 0
M  V30 8601 O 843.148 0.672148 -3.49801 0
M  V30 8602 O 842.007 1.27694 -5.31372 0
M  V30 8603 H 839.101 0.227622 -0.795058 0
M  V30 8604 H 841.647 -0.295733 -1.67103 0
M  V30 8605 H 840.419 -0.352327 -3.89711 0
M  V30 8606 H 840.042 1.35528 -3.73789 0
M  V30 8607 N 841.039 1.57585 0.0217189 0
M  V30 8608 C 842.002 2.06004 1.00474 0
M  V30 8609 C 843.002 0.965461 1.2859 0
M  V30 8610 O 844.192 1.22884 1.23471 0
M  V30 8611 C 841.324 2.48319 2.33561 0
M  V30 8612 H 842.517 2.94112 0.586346 0
M  V30 8613 H 840.07 1.53973 0.268716 0
M  V30 8614 H 840.805 1.63389 2.80133 0
M  V30 8615 H 840.59 3.28239 2.1448 0
M  V30 8616 H 842.08 2.86181 3.04122 0
M  V30 8617 N 842.517 -0.29412 1.54831 0
M  V30 8618 C 843.765 -1.02643 1.74094 0
M  V30 8619 C 844.086 -1.87563 0.533402 0
M  V30 8620 O 843.356 -1.9061 -0.452192 0
M  V30 8621 H 841.936 -0.381959 0.641963 0
M  V30 8622 H 844.598 -0.323444 1.92197 0
M  V30 8623 H 843.694 -1.67558 2.63307 0
M  V30 8624 N 843.995 -1.47404 -0.557645 0
M  V30 8625 C 845.22 -1.57868 -1.34508 0
M  V30 8626 C 845.645 -0.229151 -1.86699 0
M  V30 8627 O 845.003 0.794908 -1.62944 0
M  V30 8628 C 845.051 -2.60712 -2.49122 0
M  V30 8629 O 844.155 -2.15952 -3.51338 0
M  V30 8630 H 843.496 -0.530335 -0.399551 0
M  V30 8631 H 846.026 -1.93181 -0.673954 0
M  V30 8632 H 846.036 -2.81118 -2.95697 0
M  V30 8633 H 844.711 -3.58701 -2.10491 0
M  V30 8634 H 843.288 -2.05644 -3.11071 0
M  V30 8635 N 845.473 0.80434 -1.35529 0
M  V30 8636 C 846.703 1.59052 -1.31856 0
M  V30 8637 C 847.111 1.88905 0.105549 0
M  V30 8638 O 846.454 1.49422 1.06858 0
M  V30 8639 C 846.516 2.94626 -2.06 0
M  V30 8640 C 846.18 2.87576 -3.55175 0
M  V30 8641 C 847.177 2.60856 -4.49722 0
M  V30 8642 C 844.862 3.06623 -3.97854 0
M  V30 8643 C 846.856 2.53262 -5.84925 0
M  V30 8644 C 844.543 2.98652 -5.33151 0
M  V30 8645 C 845.541 2.72007 -6.26499 0
M  V30 8646 O 845.229 2.64003 -7.59314 0
M  V30 8647 H 844.961 0.500486 -0.454411 0
M  V30 8648 H 847.515 1.0074 -1.78999 0
M  V30 8649 H 845.745 3.5493 -1.53498 0
M  V30 8650 H 847.434 3.55785 -1.95376 0
M  V30 8651 H 848.2 2.45858 -4.18066 0
M  V30 8652 H 844.079 3.26372 -3.2558 0
M  V30 8653 H 847.623 2.32386 -6.57756 0
M  V30 8654 H 843.52 3.13208 -5.64421 0
M  V30 8655 H 844.288 2.79595 -7.69265 0
M  V30 8656 N 846.951 1.19563 1.02676 0
M  V30 8657 C 847.901 0.903055 2.09354 0
M  V30 8658 C 848.885 -0.133009 1.60349 0
M  V30 8659 O 850.077 0.0729744 1.7685 0
M  V30 8660 C 847.206 0.445852 3.40392 0
M  V30 8661 C 846.292 1.51477 3.96126 0
M  V30 8662 N 846.683 2.73474 4.25495 0
M  V30 8663 C 844.981 1.37856 4.2416 0
M  V30 8664 C 845.682 3.42348 4.7029 0
M  V30 8665 N 844.658 2.69746 4.71952 0
M  V30 8666 H 848.46 1.83023 2.29956 0
M  V30 8667 H 845.974 1.08812 1.20556 0
M  V30 8668 H 847.971 0.21769 4.16331 0
M  V30 8669 H 846.631 -0.47482 3.2121 0
M  V30 8670 H 847.642 3.10217 4.14711 0
M  V30 8671 H 844.319 0.521512 4.1423 0
M  V30 8672 H 845.709 4.46686 5.01917 0
M  V30 8673 N 848.429 -1.21819 0.999893 0
M  V30 8674 C 849.669 -1.92473 0.687996 0
M  V30 8675 C 850.033 -1.76033 -0.766569 0
M  V30 8676 O 851.234 -2.41013 -1.19021 0
M  V30 8677 C 849.505 -3.40332 1.09129 0
M  V30 8678 S 851.064 -4.29496 0.898822 0
M  V30 8679 H 847.882 -0.665097 0.251329 0
M  V30 8680 H 850.484 -1.47454 1.28364 0
M  V30 8681 H 849.188 -3.49812 2.14615 0
M  V30 8682 H 848.719 -3.90365 0.487724 0
M  V30 8683 H 850.734 -4.95769 -0.206873 0
M  V30 8684 N 849.908 -0.773975 -1.37286 0
M  V30 8685 C 851.324 -0.45386 -1.53011 0
M  V30 8686 C 851.524 1.03018 -1.73175 0
M  V30 8687 O 850.58 1.81597 -1.75438 0
M  V30 8688 C 851.893 -1.27087 -2.72524 0
M  V30 8689 C 853.441 -1.26299 -2.86387 0
M  V30 8690 C 853.916 -2.0634 -4.08886 0
M  V30 8691 N 855.407 -2.03706 -4.16003 0
M  V30 8692 C 856.142 -2.62418 -5.09828 0
M  V30 8693 N 855.638 -3.29926 -6.09197 0
M  V30 8694 N 857.431 -2.52236 -5.02328 0
M  V30 8695 H 849.582 -1.73551 -1.22449 0
M  V30 8696 H 851.845 -0.736874 -0.596423 0
M  V30 8697 H 851.551 -2.32263 -2.64096 0
M  V30 8698 H 851.425 -0.90157 -3.66267 0
M  V30 8699 H 853.812 -0.219213 -2.94285 0
M  V30 8700 H 853.893 -1.67195 -1.93596 0
M  V30 8701 H 853.537 -3.10741 -4.01749 0
M  V30 8702 H 853.467 -1.62825 -5.00795 0
M  V30 8703 H 855.958 -1.54559 -3.44848 0
M  V30 8704 H 856.271 -3.72095 -6.77322 0
M  V30 8705 H 854.616 -3.34026 -6.09469 0
M  V30 8706 H 857.807 -1.99108 -4.23643 0
M  V30 8707 H 857.98 -2.98286 -5.75265 0
M  V30 8708 N 851.386 1.48609 -0.524698 0
M  V30 8709 C 852.349 2.28041 0.230166 0
M  V30 8710 C 853.349 1.35065 0.872584 0
M  V30 8711 O 854.539 1.58007 0.73345 0
M  V30 8712 C 851.671 3.13778 1.33252 0
M  V30 8713 H 852.864 2.96239 -0.467161 0
M  V30 8714 H 850.417 1.53763 -0.280452 0
M  V30 8715 H 851.152 2.502 2.06327 0
M  V30 8716 H 850.937 3.82165 0.877058 0
M  V30 8717 H 852.427 3.7371 1.86362 0
M  V30 8718 N 852.864 0.259585 1.55447 0
M  V30 8719 C 854.28 -0.094961 1.59317 0
M  V30 8720 C 854.48 -1.55884 1.2768 0
M  V30 8721 O 853.536 -2.30528 1.0302 0
M  V30 8722 C 854.849 0.265669 2.99524 0
M  V30 8723 C 856.397 0.211007 3.12288 0
M  V30 8724 C 856.872 0.545851 4.54736 0
M  V30 8725 N 858.363 0.496823 4.60528 0
M  V30 8726 C 859.098 0.728909 5.68748 0
M  V30 8727 N 858.594 1.02479 6.85179 0
M  V30 8728 N 860.387 0.658756 5.58226 0
M  V30 8729 H 852.538 1.2141 1.7428 0
M  V30 8730 H 854.801 0.489404 0.811904 0
M  V30 8731 H 854.507 1.28316 3.27457 0
M  V30 8732 H 854.381 -0.401089 3.75061 0
M  V30 8733 H 856.768 -0.797172 2.84129 0
M  V30 8734 H 856.849 0.911799 2.38998 0
M  V30 8735 H 856.493 1.55164 4.83618 0
M  V30 8736 H 856.423 -0.17656 5.26304 0
M  V30 8737 H 858.914 0.277376 3.76881 0
M  V30 8738 H 859.227 1.18897 7.63599 0
M  V30 8739 H 857.572 1.0624 6.86832 0
M  V30 8740 H 860.763 0.427553 4.66143 0
M  V30 8741 H 860.936 0.84302 6.42493 0
M  V30 8742 N 854.342 -1.57594 -0.0133615 0
M  V30 8743 C 855.619 -1.81173 -0.737273 0
M  V30 8744 C 855.999 -0.861395 -1.92726 0
M  V30 8745 O 855.347 0.0929324 -2.28311 0
M  V30 8746 C 855.557 -3.29314 -1.15557 0
M  V30 8747 C 856.905 -3.94707 -1.56498 0
M  V30 8748 O 857.929 -3.33557 -1.24973 0
M  V30 8749 O 856.788 -5.02402 -2.15069 0
M  V30 8750 H 853.882 -0.745575 -0.357837 0
M  V30 8751 H 856.428 -1.69696 0.0110674 0
M  V30 8752 H 855.2 -3.90096 -0.30677 0
M  V30 8753 H 854.823 -3.45739 -1.96343 0
M  V30 8754 N 855.82 0.285905 -1.54985 0
M  V30 8755 C 857.068 1.01718 -1.74636 0
M  V30 8756 C 857.389 1.87277 -0.543342 0
M  V30 8757 O 856.659 1.90847 0.442078 0
M  V30 8758 H 855.239 0.378549 -0.643979 0
M  V30 8759 H 857.901 0.313247 -1.92366 0
M  V30 8760 H 856.997 1.66159 -2.64192 0
M  V30 8761 N 857.298 1.47698 0.54982 0
M  V30 8762 C 858.248 1.57145 1.65195 0
M  V30 8763 C 859.232 0.429839 1.55052 0
M  V30 8764 O 860.424 0.68018 1.63409 0
M  V30 8765 C 857.553 1.59573 3.0396 0
M  V30 8766 C 856.639 2.79144 3.19279 0
M  V30 8767 N 857.03 4.03769 3.04638 0
M  V30 8768 C 855.328 2.76061 3.50295 0
M  V30 8769 C 856.029 4.83887 3.22845 0
M  V30 8770 N 855.005 4.1634 3.49517 0
M  V30 8771 H 858.807 2.51266 1.52455 0
M  V30 8772 H 856.321 1.43795 0.754773 0
M  V30 8773 H 858.318 1.64431 3.83103 0
M  V30 8774 H 856.978 0.66553 3.17806 0
M  V30 8775 H 857.989 4.34515 2.81811 0
M  V30 8776 H 854.666 1.92211 3.70622 0
M  V30 8777 H 856.056 5.92724 3.1643 0
M  V30 8778 N 858.776 -0.797141 1.35954 0
M  V30 8779 C 860.001 -1.59097 1.33053 0
M  V30 8780 C 860.426 -1.87897 -0.0874592 0
M  V30 8781 O 859.784 -1.47291 -1.05712 0
M  V30 8782 C 859.832 -2.89346 2.152 0
M  V30 8783 O 858.936 -3.826 1.5392 0
M  V30 8784 H 858.277 -0.482895 0.45575 0
M  V30 8785 H 860.807 -0.988633 1.79129 0
M  V30 8786 H 860.817 -3.38686 2.27499 0
M  V30 8787 H 859.492 -2.6771 3.18283 0
M  V30 8788 H 858.069 -3.41174 1.50516 0
M  V30 8789 N 860.254 -1.20106 -1.0204 0
M  V30 8790 C 861.217 -0.948261 -2.08664 0
M  V30 8791 C 862.217 0.0746753 -1.60627 0
M  V30 8792 O 863.407 -0.160981 -1.73455 0
M  V30 8793 C 860.539 -0.426854 -3.38217 0
M  V30 8794 H 861.732 -1.894 -2.32524 0
M  V30 8795 H 859.285 -1.0159 -1.18782 0
M  V30 8796 H 860.02 0.524532 -3.2003 0
M  V30 8797 H 859.805 -1.16451 -3.74408 0
M  V30 8798 H 861.295 -0.269346 -4.1673 0
M  V30 8799 N 861.732 1.21287 -1.00634 0
M  V30 8800 C 862.957 1.94925 -0.708441 0
M  V30 8801 C 863.382 1.73659 0.722783 0
M  V30 8802 O 862.74 1.02429 1.49593 0
M  V30 8803 C 862.788 3.45377 -1.03667 0
M  V30 8804 O 861.892 4.12153 -0.142661 0
M  V30 8805 H 861.233 0.609338 -0.263824 0
M  V30 8806 H 863.763 1.54008 -1.34695 0
M  V30 8807 H 863.773 3.95954 -0.984086 0
M  V30 8808 H 862.448 3.6018 -2.0795 0
M  V30 8809 H 861.025 3.72048 -0.251888 0
M  V30 8810 N 863.21 0.781244 1.36873 0
M  V30 8811 C 864.458 0.349198 1.9906 0
M  V30 8812 C 864.779 -1.0806 1.62321 0
M  V30 8813 O 864.049 -1.74351 0.893229 0
M  V30 8814 H 862.629 0.126126 0.736275 0
M  V30 8815 H 865.291 1.00148 1.67202 0
M  V30 8816 H 864.387 0.434451 3.09061 0
M  V30 8817 N 864.689 -1.48329 0.532571 0
M  V30 8818 C 866.1 -1.86469 0.0927749 0
M  V30 8819 C 866.451 -1.44186 -1.3306 0
M  V30 8820 O 865.576 -0.833741 -1.99694 0
M  V30 8821 C 866.171 -3.38414 0.161588 0
M  V30 8822 C 864.73 -3.75739 -0.223028 0
M  V30 8823 C 863.877 -2.72377 0.520199 0
M  V30 8824 H 866.828 -1.40197 0.743678 0
M  V30 8825 H 866.849 -3.75314 -0.626059 0
M  V30 8826 H 866.361 -3.69159 1.19765 0
M  V30 8827 H 864.462 -3.50608 -1.26113 0
M  V30 8828 H 864.575 -4.78954 0.118385 0
M  V30 8829 H 862.939 -2.54678 -0.0338425 0
M  V30 8830 H 863.722 -3.05965 1.55694 0
M  V30 8831 N 866.167 -0.267825 -1.55308 0
M  V30 8832 C 867.392 0.357487 -2.04296 0
M  V30 8833 C 867.817 1.49222 -1.14518 0
M  V30 8834 O 867.175 1.80741 -0.142292 0
M  V30 8835 C 867.223 0.822899 -3.51085 0
M  V30 8836 O 866.327 1.93078 -3.6441 0
M  V30 8837 H 865.668 0.075025 -0.659748 0
M  V30 8838 H 868.198 -0.399996 -2.00652 0
M  V30 8839 H 868.208 1.12059 -3.92309 0
M  V30 8840 H 866.883 -0.0073562 -4.15899 0
M  V30 8841 H 865.46 1.63618 -3.35087 0
M  V30 8842 N 867.645 1.57599 0.00500368 0
M  V30 8843 C 868.87 1.95026 0.705663 0
M  V30 8844 C 869.295 0.869643 1.6679 0
M  V30 8845 O 868.653 -0.172659 1.80476 0
M  V30 8846 C 868.701 3.31545 1.4181 0
M  V30 8847 O 867.805 3.25495 2.53232 0
M  V30 8848 H 867.146 0.636808 0.188074 0
M  V30 8849 H 869.676 2.04547 -0.046696 0
M  V30 8850 H 869.686 3.66996 1.78265 0
M  V30 8851 H 868.361 4.09751 0.712543 0
M  V30 8852 H 866.938 3.01714 2.19142 0
M  V30 8853 N 869.123 -0.277682 1.55134 0
M  V30 8854 C 870.534 -0.849063 1.66276 0
M  V30 8855 C 870.885 -1.87223 0.5867 0
M  V30 8856 O 870.01 -2.14676 -0.272635 0
M  V30 8857 C 870.605 -1.54681 3.01429 0
M  V30 8858 C 869.164 -2.06628 3.14614 0
M  V30 8859 C 868.311 -0.906748 2.62056 0
M  V30 8860 H 871.262 -0.0541357 1.58608 0
M  V30 8861 H 871.283 -2.41356 2.94156 0
M  V30 8862 H 870.795 -0.80189 3.79725 0
M  V30 8863 H 868.896 -2.84095 2.41082 0
M  V30 8864 H 869.009 -2.2848 4.2111 0
M  V30 8865 H 867.373 -1.29882 2.19095 0
M  V30 8866 H 868.156 -0.175414 3.42852 0
M  V30 8867 N 870.601 -1.47988 -0.541979 0
M  V30 8868 C 871.564 -1.61148 -1.62984 0
M  V30 8869 C 872.564 -0.48553 -1.53295 0
M  V30 8870 O 873.754 -0.751012 -1.5718 0
M  V30 8871 C 870.886 -1.57038 -3.02576 0
M  V30 8872 H 872.079 -2.58138 -1.52659 0
M  V30 8873 H 869.632 -1.36405 -0.763106 0
M  V30 8874 H 870.367 -0.614807 -3.18419 0
M  V30 8875 H 870.152 -2.38769 -3.11018 0
M  V30 8876 H 871.642 -1.69416 -3.81691 0
M  V30 8877 N 872.079 0.78992 -1.36375 0
M  V30 8878 C 873.325 1.55007 -1.3077 0
M  V30 8879 C 873.658 1.93871 0.112979 0
M  V30 8880 O 872.933 1.6267 1.06625 0
M  V30 8881 C 873.216 2.82748 -2.22993 0
M  V30 8882 C 873.069 2.50253 -3.73756 0
M  V30 8883 C 874.388 3.84569 -2.13998 0
M  V30 8884 H 871.507 0.562362 -0.476359 0
M  V30 8885 H 874.149 0.907582 -1.66922 0
M  V30 8886 H 872.299 3.37573 -1.92292 0
M  V30 8887 H 873.971 2.01482 -4.14973 0
M  V30 8888 H 872.214 1.83203 -3.93216 0
M  V30 8889 H 872.885 3.41487 -4.33694 0
M  V30 8890 H 875.361 3.39188 -2.4102 0
M  V30 8891 H 874.237 4.717 -2.80697 0
M  V30 8892 H 874.498 4.27491 -1.12711 0
M  V30 8893 N 873.557 1.20646 1.01402 0
M  V30 8894 C 874.487 0.98155 2.11867 0
M  V30 8895 C 875.468 -0.0903712 1.6986 0
M  V30 8896 O 876.653 0.0676586 1.94082 0
M  V30 8897 C 873.783 0.535636 3.43145 0
M  V30 8898 C 872.737 1.55109 3.98905 0
M  V30 8899 C 872.063 0.961725 5.2598 0
M  V30 8900 C 873.363 2.93552 4.32001 0
M  V30 8901 H 875.057 1.90544 2.3094 0
M  V30 8902 H 872.603 0.917554 1.10982 0
M  V30 8903 H 874.556 0.365512 4.19812 0
M  V30 8904 H 873.28 -0.423882 3.23838 0
M  V30 8905 H 871.939 1.70862 3.24348 0
M  V30 8906 H 871.587 -0.00580108 5.03 0
M  V30 8907 H 871.287 1.63993 5.64252 0
M  V30 8908 H 872.811 0.802726 6.053 0
M  V30 8909 H 874.225 2.81295 4.99546 0
M  V30 8910 H 872.622 3.58303 4.81393 0
M  V30 8911 H 873.692 3.4508 3.40658 0
M  V30 8912 N 875.035 -1.20752 1.01276 0
M  V30 8913 C 876.263 -1.94006 0.718976 0
M  V30 8914 C 876.678 -1.74544 -0.719711 0
M  V30 8915 O 876.035 -1.05697 -1.48776 0
M  V30 8916 C 876.086 -3.46208 1.04031 0
M  V30 8917 O 875.807 -3.65031 2.42248 0
M  V30 8918 C 877.308 -4.36614 0.767032 0
M  V30 8919 H 874.528 -0.616743 0.264327 0
M  V30 8920 H 877.072 -1.53352 1.3529 0
M  V30 8921 H 875.227 -3.84756 0.451852 0
M  V30 8922 H 875.641 -4.59054 2.53712 0
M  V30 8923 H 877.115 -5.42076 1.04198 0
M  V30 8924 H 877.592 -4.38182 -0.298851 0
M  V30 8925 H 878.198 -4.03723 1.33746 0
M  V30 8926 N 876.513 -0.788492 -1.36457 0
M  V30 8927 C 877.759 -0.360995 -1.99561 0
M  V30 8928 C 878.092 1.06433 -1.62437 0
M  V30 8929 O 877.367 1.7352 -0.878705 0
M  V30 8930 C 877.65 -0.523735 -3.56271 0
M  V30 8931 C 877.503 -1.99268 -4.03252 0
M  V30 8932 C 878.822 0.0617908 -4.40057 0
M  V30 8933 H 875.941 -0.13264 -0.724966 0
M  V30 8934 H 878.583 -0.994659 -1.61884 0
M  V30 8935 H 876.733 0.0156979 -3.88497 0
M  V30 8936 H 878.405 -2.59311 -3.81518 0
M  V30 8937 H 876.648 -2.49561 -3.54826 0
M  V30 8938 H 877.319 -2.05752 -5.12221 0
M  V30 8939 H 879.795 -0.398674 -4.14186 0
M  V30 8940 H 878.671 -0.0821089 -5.48839 0
M  V30 8941 H 878.932 1.15381 -4.26778 0
M  V30 8942 N 877.991 1.48044 -0.54043 0
M  V30 8943 C 878.921 2.32597 0.205178 0
M  V30 8944 C 879.902 1.42748 0.925041 0
M  V30 8945 O 881.087 1.71624 0.908784 0
M  V30 8946 C 878.217 3.24175 1.24612 0
M  V30 8947 C 877.171 4.23131 0.64376 0
M  V30 8948 C 876.497 5.03915 1.78812 0
M  V30 8949 C 877.797 5.20831 -0.39144 0
M  V30 8950 H 879.491 2.95184 -0.500676 0
M  V30 8951 H 877.037 1.41948 -0.242225 0
M  V30 8952 H 878.99 3.82158 1.77576 0
M  V30 8953 H 877.714 2.59608 1.98169 0
M  V30 8954 H 876.373 3.66349 0.135554 0
M  V30 8955 H 876.021 4.35765 2.51232 0
M  V30 8956 H 875.721 5.709 1.39094 0
M  V30 8957 H 877.245 5.64753 2.32134 0
M  V30 8958 H 878.659 5.73277 0.0515064 0
M  V30 8959 H 877.056 5.95926 -0.706569 0
M  V30 8960 H 878.126 4.6733 -1.29345 0
M  V30 8961 N 879.47 0.276058 1.55163 0
M  V30 8962 C 880.7 -0.343274 2.03728 0
M  V30 8963 C 881.108 -1.49945 1.15383 0
M  V30 8964 O 880.451 -1.82942 0.166696 0
M  V30 8965 C 880.513 -0.885683 3.48419 0
M  V30 8966 C 880.177 0.141976 4.56779 0
M  V30 8967 C 881.174 0.961816 5.10926 0
M  V30 8968 C 878.859 0.276487 5.01538 0
M  V30 8969 C 880.853 1.90234 6.0835 0
M  V30 8970 C 878.54 1.22049 5.98788 0
M  V30 8971 C 879.538 2.03192 6.52075 0
M  V30 8972 O 879.226 2.95996 7.47423 0
M  V30 8973 H 878.958 -0.0822192 0.670981 0
M  V30 8974 H 881.512 0.406199 2.01343 0
M  V30 8975 H 879.742 -1.68524 3.48047 0
M  V30 8976 H 881.431 -1.4182 3.80318 0
M  V30 8977 H 882.197 0.868637 4.77158 0
M  V30 8978 H 878.076 -0.345095 4.59707 0
M  V30 8979 H 881.62 2.5361 6.49867 0
M  V30 8980 H 877.517 1.31448 6.31974 0
M  V30 8981 H 878.285 2.90688 7.65142 0
M  V30 8982 N 880.948 -1.576 0.00335426 0
M  V30 8983 C 882.359 -1.7875 -0.539008 0
M  V30 8984 C 882.71 -0.911097 -1.73763 0
M  V30 8985 O 881.835 -0.114476 -2.16097 0
M  V30 8986 C 882.43 -3.24177 -0.984611 0
M  V30 8987 C 880.989 -3.46412 -1.47226 0
M  V30 8988 C 880.136 -2.74024 -0.425004 0
M  V30 8989 H 883.087 -1.57032 0.229511 0
M  V30 8990 H 883.108 -3.32474 -1.85044 0
M  V30 8991 H 882.62 -3.87938 -0.112035 0
M  V30 8992 H 880.721 -2.8787 -2.36562 0
M  V30 8993 H 880.834 -4.55098 -1.49741 0
M  V30 8994 H 879.198 -2.38741 -0.887394 0
M  V30 8995 H 879.981 -3.40486 0.438662 0
M  V30 8996 N 882.426 0.269451 -1.5528 0
M  V30 8997 C 883.837 0.840233 -1.66724 0
M  V30 8998 C 884.188 1.86909 -0.596621 0
M  V30 8999 O 883.313 2.14817 0.261246 0
M  V30 9000 C 883.908 1.5308 -3.02245 0
M  V30 9001 C 882.467 2.04957 -3.15705 0
M  V30 9002 C 881.614 0.892838 -2.62533 0
M  V30 9003 H 884.565 0.0457236 -1.58634 0
M  V30 9004 H 884.586 2.39792 -2.95432 0
M  V30 9005 H 884.098 0.781741 -3.80145 0
M  V30 9006 H 882.199 2.82813 -2.42585 0
M  V30 9007 H 882.312 2.26244 -4.22316 0
M  V30 9008 H 880.676 1.28719 -2.19781 0
M  V30 9009 H 881.459 0.157229 -3.4294 0
M  V30 9010 N 883.904 1.48273 0.534124 0
M  V30 9011 C 885.32 1.34302 0.862272 0
M  V30 9012 C 885.52 0.350902 1.98421 0
M  V30 9013 O 884.576 -0.229364 2.51456 0
M  V30 9014 C 885.889 2.74227 1.23371 0
M  V30 9015 C 887.437 2.82684 1.34383 0
M  V30 9016 C 887.912 4.23301 1.74871 0
M  V30 9017 N 889.403 4.25954 1.81981 0
M  V30 9018 C 890.138 5.31693 2.14686 0
M  V30 9019 N 889.634 6.47714 2.45844 0
M  V30 9020 N 891.427 5.19084 2.15657 0
M  V30 9021 H 883.578 2.11397 -0.206215 0
M  V30 9022 H 885.841 0.947537 -0.0296116 0
M  V30 9023 H 885.547 3.48368 0.482967 0
M  V30 9024 H 885.421 3.07485 2.18478 0
M  V30 9025 H 887.808 2.08801 2.08534 0
M  V30 9026 H 887.889 2.5305 0.374063 0
M  V30 9027 H 887.533 4.97699 1.01282 0
M  V30 9028 H 887.463 4.50376 2.7289 0
M  V30 9029 H 889.954 3.42266 1.60196 0
M  V30 9030 H 890.267 7.2414 2.69892 0
M  V30 9031 H 888.612 6.50995 2.43372 0
M  V30 9032 H 891.803 4.27463 1.9077 0
M  V30 9033 H 891.976 6.01592 2.40813 0
M  V30 9034 N 885.382 -0.782676 1.36792 0
M  V30 9035 C 886.314 -1.9044 1.27536 0
M  V30 9036 C 887.327 -1.61647 0.193426 0
M  V30 9037 O 888.516 -1.72769 0.448692 0
M  V30 9038 C 885.616 -3.2541 0.946641 0
M  V30 9039 C 884.789 -3.81932 2.13183 0
M  V30 9040 C 883.848 -4.95355 1.7751 0
M  V30 9041 O 882.874 -5.11517 2.49678 0
M  V30 9042 N 884.076 -5.76108 0.712755 0
M  V30 9043 H 886.841 -1.98899 2.24186 0
M  V30 9044 H 884.402 -0.96127 1.30274 0
M  V30 9045 H 886.394 -3.98791 0.689043 0
M  V30 9046 H 884.964 -3.12524 0.0690591 0
M  V30 9047 H 884.184 -3.00459 2.55183 0
M  V30 9048 H 885.472 -4.16426 2.92347 0
M  V30 9049 H 884.87 -5.65586 0.113662 0
M  V30 9050 H 883.427 -6.49762 0.514995 0
M  V30 9051 N 886.86 -1.21182 -1.00761 0
M  V30 9052 C 888.271 -1.02652 -1.55947 0
M  V30 9053 C 888.622 0.414466 -1.91772 0
M  V30 9054 O 887.747 1.29727 -1.73204 0
M  V30 9055 C 888.342 -1.85713 -2.83366 0
M  V30 9056 C 886.901 -1.71523 -3.35048 0
M  V30 9057 C 886.048 -1.83087 -2.08265 0
M  V30 9058 H 888.999 -1.35242 -0.830379 0
M  V30 9059 H 889.02 -1.36583 -3.55141 0
M  V30 9060 H 888.532 -2.90584 -2.5726 0
M  V30 9061 H 886.633 -0.693257 -3.66094 0
M  V30 9062 H 886.746 -2.53333 -4.06644 0
M  V30 9063 H 885.11 -1.26367 -2.21141 0
M  V30 9064 H 885.893 -2.8946 -1.84575 0
M  V30 9065 N 888.338 1.20213 -1.01915 0
M  V30 9066 C 889.566 1.93622 -0.729255 0
M  V30 9067 C 889.981 1.74923 0.710444 0
M  V30 9068 O 889.338 1.06484 1.48214 0
M  V30 9069 C 889.389 3.45651 -1.05865 0
M  V30 9070 O 889.11 3.63741 -2.44181 0
M  V30 9071 C 890.611 4.36201 -0.790176 0
M  V30 9072 H 887.831 0.615333 -0.267594 0
M  V30 9073 H 890.375 1.52633 -1.36101 0
M  V30 9074 H 888.53 3.84511 -0.47225 0
M  V30 9075 H 888.944 4.57702 -2.56143 0
M  V30 9076 H 890.418 5.41516 -1.07071 0
M  V30 9077 H 890.895 4.38334 0.275609 0
M  V30 9078 H 891.501 4.03008 -1.35885 0
M  V30 9079 N 889.816 0.795718 1.36037 0
M  V30 9080 C 891.063 0.371024 1.99072 0
M  V30 9081 C 891.391 -1.05896 1.63145 0
M  V30 9082 O 890.646 -1.7474 0.881163 0
M  V30 9083 C 890.945 0.489038 3.54038 0
M  V30 9084 C 890.611 1.88075 4.09803 0
M  V30 9085 C 889.273 2.26152 4.24745 0
M  V30 9086 C 891.625 2.79174 4.40126 0
M  V30 9087 C 888.953 3.54718 4.67324 0
M  V30 9088 C 891.305 4.07175 4.8414 0
M  V30 9089 C 889.969 4.45266 4.97287 0
M  V30 9090 H 889.239 0.135767 0.728456 0
M  V30 9091 H 891.886 1.0144 1.62426 0
M  V30 9092 H 890.191 -0.237823 3.91078 0
M  V30 9093 H 891.888 0.141374 4.00751 0
M  V30 9094 H 888.478 1.57488 3.98617 0
M  V30 9095 H 892.662 2.51009 4.28145 0
M  V30 9096 H 887.918 3.84093 4.75691 0
M  V30 9097 H 892.092 4.77875 5.06565 0
M  V30 9098 H 889.719 5.44943 5.30038 0
M  V30 9099 N 891.294 -1.47756 0.548274 0
M  V30 9100 C 892.522 -2.06884 0.0254873 0
M  V30 9101 C 892.937 -1.40225 -1.26422 0
M  V30 9102 O 892.294 -0.495776 -1.75637 0
M  V30 9103 C 892.345 -3.61036 -0.183134 0
M  V30 9104 O 892.066 -4.25195 1.05549 0
M  V30 9105 C 893.567 -4.37008 -0.744222 0
M  V30 9106 H 890.787 -0.669697 0.041789 0
M  V30 9107 H 893.331 -1.89888 0.759138 0
M  V30 9108 H 891.486 -3.77576 -0.866886 0
M  V30 9109 H 891.9 -5.17606 0.847629 0
M  V30 9110 H 893.374 -5.45579 -0.839529 0
M  V30 9111 H 893.851 -4.0268 -1.75344 0
M  V30 9112 H 894.457 -4.25191 -0.0964542 0
M  V30 9113 N 892.772 -0.284283 -1.55015 0
M  V30 9114 C 894 0.332948 -2.04203 0
M  V30 9115 C 894.415 1.48783 -1.16229 0
M  V30 9116 O 893.772 1.81567 -0.184323 0
M  V30 9117 C 893.823 0.805207 -3.52418 0
M  V30 9118 O 893.544 -0.303689 -4.37046 0
M  V30 9119 C 895.045 1.48931 -4.17534 0
M  V30 9120 H 892.265 0.0747447 -0.666824 0
M  V30 9121 H 894.809 -0.419048 -2.00161 0
M  V30 9122 H 892.964 1.50727 -3.56876 0
M  V30 9123 H 893.378 0.0609703 -5.24465 0
M  V30 9124 H 894.852 1.77108 -5.22816 0
M  V30 9125 H 895.329 2.42389 -3.66257 0
M  V30 9126 H 895.935 0.830867 -4.17105 0
M  V30 9127 N 894.251 1.57596 -0.0117121 0
M  V30 9128 C 895.667 1.55837 0.344506 0
M  V30 9129 C 895.867 1.01557 1.74036 0
M  V30 9130 O 894.923 0.654563 2.43868 0
M  V30 9131 C 896.236 2.99973 0.209023 0
M  V30 9132 C 897.784 3.11717 0.283092 0
M  V30 9133 C 898.259 4.57659 0.176599 0
M  V30 9134 N 899.75 4.62608 0.234133 0
M  V30 9135 C 900.485 5.73132 0.175252 0
M  V30 9136 N 899.981 6.92768 0.0662888 0
M  V30 9137 N 901.774 5.61638 0.227972 0
M  V30 9138 H 893.925 1.91215 -0.924692 0
M  V30 9139 H 896.188 0.878807 -0.355531 0
M  V30 9140 H 895.894 3.4357 -0.751826 0
M  V30 9141 H 895.768 3.64075 0.98635 0
M  V30 9142 H 898.155 2.68043 1.23439 0
M  V30 9143 H 898.236 2.50369 -0.52431 0
M  V30 9144 H 897.88 5.02011 -0.771205 0
M  V30 9145 H 897.81 5.16967 1.00264 0
M  V30 9146 H 900.301 3.76549 0.319203 0
M  V30 9147 H 900.614 7.72795 0.0275765 0
M  V30 9148 H 898.959 6.94993 0.0317502 0
M  V30 9149 H 902.15 4.67063 0.311377 0
M  V30 9150 H 902.323 6.47754 0.178621 0
M  V30 9151 N 895.729 -0.261212 1.5542 0
M  V30 9152 C 896.659 -1.32712 1.92119 0
M  V30 9153 C 897.64 -1.50934 0.784406 0
M  V30 9154 O 898.825 -1.63781 1.04352 0
M  V30 9155 C 895.955 -2.68453 2.20341 0
M  V30 9156 C 894.909 -2.64947 3.36136 0
M  V30 9157 C 894.235 -4.04349 3.49865 0
M  V30 9158 C 895.535 -2.23182 4.72215 0
M  V30 9159 H 897.229 -1.02245 2.81401 0
M  V30 9160 H 894.775 -0.490406 1.35392 0
M  V30 9161 H 896.728 -3.43144 2.44603 0
M  V30 9162 H 895.452 -3.00527 1.27871 0
M  V30 9163 H 894.111 -1.92714 3.11861 0
M  V30 9164 H 893.759 -4.33665 2.5484 0
M  V30 9165 H 893.459 -4.02895 4.27726 0
M  V30 9166 H 894.983 -4.80761 3.76432 0
M  V30 9167 H 896.397 -2.87599 4.95943 0
M  V30 9168 H 894.794 -2.32867 5.53076 0
M  V30 9169 H 895.864 -1.18327 4.70241 0
M  V30 9170 N 897.207 -1.48554 -0.526253 0
M  V30 9171 C 898.484 -1.47252 -1.28748 0
M  V30 9172 C 898.864 -0.186245 -2.10277 0
M  V30 9173 O 898.212 0.831954 -2.12816 0
M  V30 9174 C 898.422 -2.73672 -2.16575 0
M  V30 9175 C 899.77 -3.22151 -2.76593 0
M  V30 9176 O 900.794 -2.74614 -2.2686 0
M  V30 9177 O 899.653 -4.04877 -3.67066 0
M  V30 9178 H 896.747 -0.588242 -0.581292 0
M  V30 9179 H 899.293 -1.60792 -0.5426 0
M  V30 9180 H 898.065 -3.58798 -1.56139 0
M  V30 9181 H 897.688 -2.6287 -2.98304 0
M  V30 9182 N 898.685 0.775411 -1.37205 0
M  V30 9183 C 899.615 1.90258 -1.35367 0
M  V30 9184 C 900.596 1.68634 -0.222864 0
M  V30 9185 O 901.781 1.89545 -0.422659 0
M  V30 9186 C 898.911 3.27488 -1.15623 0
M  V30 9187 C 897.865 3.63668 -2.25676 0
M  V30 9188 C 897.191 4.994 -1.91059 0
M  V30 9189 C 898.491 3.70797 -3.67841 0
M  V30 9190 H 900.185 1.92053 -2.29687 0
M  V30 9191 H 897.731 0.922597 -1.10563 0
M  V30 9192 H 899.684 4.05976 -1.12968 0
M  V30 9193 H 898.408 3.26117 -0.177573 0
M  V30 9194 H 897.067 2.87486 -2.2748 0
M  V30 9195 H 896.715 4.94565 -0.917324 0
M  V30 9196 H 896.415 5.24576 -2.64751 0
M  V30 9197 H 897.939 5.80291 -1.89985 0
M  V30 9198 H 899.353 4.39444 -3.68187 0
M  V30 9199 H 897.75 4.07468 -4.40556 0
M  V30 9200 H 898.82 2.71549 -4.01732 0
M  V30 9201 N 900.163 1.21714 1.00117 0
M  V30 9202 C 901.44 0.945391 1.71236 0
M  V30 9203 C 901.82 -0.541772 2.0403 0
M  V30 9204 O 901.168 -1.50763 1.71705 0
M  V30 9205 C 901.378 1.83444 2.96899 0
M  V30 9206 C 902.726 2.08558 3.69849 0
M  V30 9207 O 903.75 1.80824 3.06889 0
M  V30 9208 O 902.609 2.55485 4.83104 0
M  V30 9209 H 899.703 0.354834 0.747009 0
M  V30 9210 H 902.249 1.32661 1.05825 0
M  V30 9211 H 901.021 2.84075 2.69105 0
M  V30 9212 H 900.644 1.45428 3.70049 0
M  V30 9213 N 901.641 -1.19671 1.02551 0
M  V30 9214 C 902.604 -2.20987 0.608055 0
M  V30 9215 C 903.604 -1.5745 -0.326534 0
M  V30 9216 O 904.794 -1.73827 -0.114003 0
M  V30 9217 C 901.926 -3.4072 -0.11074 0
M  V30 9218 H 903.119 -2.59434 1.50446 0
M  V30 9219 H 900.672 -1.3329 0.816307 0
M  V30 9220 H 901.407 -3.07787 -1.02165 0
M  V30 9221 H 901.192 -3.88069 0.560772 0
M  V30 9222 H 902.682 -4.15776 -0.389848 0
M  V30 9223 N 903.119 -0.802921 -1.35613 0
M  V30 9224 C 904.082 -0.216422 -2.28176 0
M  V30 9225 C 905.082 0.594101 -1.49422 0
M  V30 9226 O 906.272 0.41312 -1.6923 0
M  V30 9227 C 903.404 0.698746 -3.33662 0
M  V30 9228 H 904.597 -1.03276 -2.81557 0
M  V30 9229 H 902.15 -0.573307 -1.45406 0
M  V30 9230 H 902.885 1.53891 -2.85461 0
M  V30 9231 H 902.67 0.119314 -3.91918 0
M  V30 9232 H 904.16 1.10354 -4.02755 0
M  V30 9233 N 904.597 1.47463 -0.556102 0
M  V30 9234 C 905.845 2.02075 -0.0315712 0
M  V30 9235 C 906.166 1.43292 1.32259 0
M  V30 9236 O 905.436 0.60771 1.86236 0
M  V30 9237 H 904.016 0.74695 -0.0086816 0
M  V30 9238 H 906.678 1.80879 -0.725859 0
M  V30 9239 H 905.774 3.12047 0.0573538 0
M  V30 9240 N 906.075 0.2925 1.54862 0
M  V30 9241 C 907.038 -0.574423 2.21885 0
M  V30 9242 C 908.038 -1.06791 1.20218 0
M  V30 9243 O 909.228 -0.9653 1.45009 0
M  V30 9244 C 906.36 -1.79438 2.89853 0
M  V30 9245 H 907.553 0.0110319 2.99898 0
M  V30 9246 H 905.106 0.043256 1.5624 0
M  V30 9247 H 905.841 -2.4199 2.15897 0
M  V30 9248 H 905.626 -1.44827 3.64373 0
M  V30 9249 H 907.116 -2.41048 3.41007 0
M  V30 9250 N 907.553 -1.57587 0.0200696 0
M  V30 9251 C 908.801 -1.91046 -0.65922 0
M  V30 9252 C 909.122 -0.896197 -1.73186 0
M  V30 9253 O 908.392 0.0635952 -1.95797 0
M  V30 9254 H 906.972 -0.705163 -0.246483 0
M  V30 9255 H 909.634 -1.94789 0.0657368 0
M  V30 9256 H 908.73 -2.91399 -1.11773 0
M  V30 9257 N 909.032 0.252966 -1.55557 0
M  V30 9258 C 909.995 1.29645 -1.8901 0
M  V30 9259 C 910.995 1.41378 -0.766096 0
M  V30 9260 O 912.185 1.40183 -1.03414 0
M  V30 9261 C 909.317 2.67504 -2.11316 0
M  V30 9262 H 910.51 1.01202 -2.82309 0
M  V30 9263 H 908.063 0.491977 -1.48355 0
M  V30 9264 H 908.798 3.01095 -1.20466 0
M  V30 9265 H 908.583 2.6037 -2.93172 0
M  V30 9266 H 910.073 3.42861 -2.38403 0
M  V30 9267 N 910.51 1.48831 0.518367 0
M  V30 9268 C 911.758 1.57128 1.27103 0
M  V30 9269 C 912.079 0.252098 1.93364 0
M  V30 9270 O 911.349 -0.727281 1.819 0
M  V30 9271 H 909.929 0.578891 0.472116 0
M  V30 9272 H 912.591 1.85361 0.602262 0
M  V30 9273 H 911.687 2.35838 2.04418 0
M  V30 9274 N 911.988 -0.768124 1.37614 0
M  V30 9275 C 913.404 -1.06919 1.18493 0
M  V30 9276 C 913.604 -2.01486 0.0235753 0
M  V30 9277 O 912.66 -2.4438 -0.635209 0
M  V30 9278 C 913.973 -1.66321 2.50515 0
M  V30 9279 C 915.521 -1.78562 2.57069 0
M  V30 9280 C 915.996 -2.41377 3.89231 0
M  V30 9281 N 917.487 -2.48824 3.90693 0
M  V30 9282 C 918.222 -2.98288 4.89706 0
M  V30 9283 N 917.718 -3.47897 5.99115 0
M  V30 9284 N 919.511 -2.97196 4.77107 0
M  V30 9285 H 911.662 -0.140286 2.11936 0
M  V30 9286 H 913.925 -0.124863 0.939741 0
M  V30 9287 H 913.631 -1.04303 3.35878 0
M  V30 9288 H 913.505 -2.65571 2.67866 0
M  V30 9289 H 915.892 -2.39712 1.72111 0
M  V30 9290 H 915.973 -0.780574 2.43599 0
M  V30 9291 H 915.617 -1.80866 4.74605 0
M  V30 9292 H 915.547 -3.42495 4.00006 0
M  V30 9293 H 918.038 -2.1372 3.1166 0
M  V30 9294 H 918.351 -3.84053 6.70614 0
M  V30 9295 H 916.696 -3.45993 6.02755 0
M  V30 9296 H 919.887 -2.57741 3.90752 0
M  V30 9297 H 920.06 -3.35434 5.54426 0
M  V30 9298 N 913.466 -1.22244 -0.994698 0
M  V30 9299 C 914.882 -0.982006 -1.25813 0
M  V30 9300 C 915.082 0.325488 -1.98854 0
M  V30 9301 O 914.138 1.04857 -2.29698 0
M  V30 9302 C 915.451 -2.1795 -2.07167 0
M  V30 9303 C 916.999 -2.22287 -2.20358 0
M  V30 9304 C 917.474 -3.41583 -3.05098 0
M  V30 9305 N 918.965 -3.41734 -3.12686 0
M  V30 9306 C 919.7 -4.30692 -3.78539 0
M  V30 9307 N 919.196 -5.29865 -4.46335 0
M  V30 9308 N 920.989 -4.18473 -3.75283 0
M  V30 9309 H 913.14 -2.0631 -0.504963 0
M  V30 9310 H 915.403 -0.90395 -0.285618 0
M  V30 9311 H 915.109 -3.12758 -1.60858 0
M  V30 9312 H 914.983 -2.17862 -3.07922 0
M  V30 9313 H 917.37 -1.28028 -2.65881 0
M  V30 9314 H 917.451 -2.26414 -1.19039 0
M  V30 9315 H 917.095 -4.36141 -2.60275 0
M  V30 9316 H 917.025 -3.34695 -4.06555 0
M  V30 9317 H 919.516 -2.69969 -2.64433 0
M  V30 9318 H 919.829 -5.94027 -4.9432 0
M  V30 9319 H 918.174 -5.3378 -4.45089 0
M  V30 9320 H 921.365 -3.40249 -3.21478 0
M  V30 9321 H 921.538 -4.88007 -4.26326 0
M  V30 9322 N 914.944 1.19125 -1.03184 0
M  V30 9323 C 916.192 1.8851 -0.728587 0
M  V30 9324 C 916.513 1.80195 0.74531 0
M  V30 9325 O 915.783 1.21437 1.5372 0
M  V30 9326 H 914.363 0.69784 -0.266511 0
M  V30 9327 H 917.025 1.44607 -1.3067 0
M  V30 9328 H 916.121 2.9477 -1.02554 0
M  V30 9329 N 916.422 0.810101 1.35185 0
M  V30 9330 C 917.352 0.237453 2.32289 0
M  V30 9331 C 918.333 -0.639032 1.5764 0
M  V30 9332 O 919.518 -0.568575 1.8569 0
M  V30 9333 C 916.648 -0.611964 3.41866 0
M  V30 9334 C 915.602 0.166318 4.27677 0
M  V30 9335 C 914.928 -0.805024 5.28605 0
M  V30 9336 C 916.228 1.36729 5.04086 0
M  V30 9337 H 917.922 1.04874 2.80432 0
M  V30 9338 H 915.468 0.505751 1.34826 0
M  V30 9339 H 917.421 -1.02267 4.08802 0
M  V30 9340 H 916.145 -1.45617 2.92341 0
M  V30 9341 H 914.804 0.558238 3.62325 0
M  V30 9342 H 914.452 -1.64483 4.75347 0
M  V30 9343 H 914.152 -0.288577 5.86891 0
M  V30 9344 H 915.676 -1.21386 5.98413 0
M  V30 9345 H 917.09 1.03128 5.63948 0
M  V30 9346 H 915.487 1.81848 5.71884 0
M  V30 9347 H 916.557 2.15214 4.34524 0
M  V30 9348 N 917.9 -1.47166 0.563914 0
M  V30 9349 C 918.83 -2.32894 -0.168148 0
M  V30 9350 C 919.811 -1.44202 -0.902214 0
M  V30 9351 O 920.996 -1.73048 -0.881365 0
M  V30 9352 C 918.126 -3.26116 -1.19439 0
M  V30 9353 C 917.08 -4.24101 -0.576363 0
M  V30 9354 C 916.406 -5.06696 -1.70772 0
M  V30 9355 C 917.706 -5.20142 0.47425 0
M  V30 9356 H 919.4 -2.9435 0.547573 0
M  V30 9357 H 916.946 -1.41545 0.264778 0
M  V30 9358 H 918.899 -3.84935 -1.71474 0
M  V30 9359 H 917.623 -2.62728 -1.94014 0
M  V30 9360 H 916.282 -3.66519 -0.0772534 0
M  V30 9361 H 915.93 -4.39707 -2.44268 0
M  V30 9362 H 915.63 -5.7304 -1.29994 0
M  V30 9363 H 917.154 -5.68375 -2.2312 0
M  V30 9364 H 918.568 -5.73286 0.0397035 0
M  V30 9365 H 916.965 -5.94726 0.801287 0
M  V30 9366 H 918.035 -4.65214 1.36764 0
M  V30 9367 N 919.378 -0.300708 -1.54705 0
M  V30 9368 C 920.308 0.568675 -2.26469 0
M  V30 9369 C 921.289 1.13817 -1.26411 0
M  V30 9370 O 922.474 1.16756 -1.55183 0
M  V30 9371 C 919.604 1.74077 -3.00524 0
M  V30 9372 C 918.558 1.30165 -4.07727 0
M  V30 9373 C 917.884 2.55888 -4.69495 0
M  V30 9374 C 919.184 0.433106 -5.20501 0
M  V30 9375 H 920.878 -0.0298851 -2.99385 0
M  V30 9376 H 918.424 -0.0158135 -1.43991 0
M  V30 9377 H 920.377 2.35506 -3.49449 0
M  V30 9378 H 919.101 2.36556 -2.25186 0
M  V30 9379 H 917.76 0.710414 -3.59651 0
M  V30 9380 H 917.408 3.16681 -3.90797 0
M  V30 9381 H 917.108 2.27207 -5.41895 0
M  V30 9382 H 918.632 3.18121 -5.21183 0
M  V30 9383 H 920.046 0.95307 -5.65322 0
M  V30 9384 H 918.443 0.240085 -5.9962 0
M  V30 9385 H 919.513 -0.541866 -4.81863 0
M  V30 9386 N 920.856 1.57574 -0.0284266 0
M  V30 9387 C 922.096 1.93637 0.65453 0
M  V30 9388 C 922.46 0.905015 1.69332 0
M  V30 9389 O 923.661 1.15181 2.42872 0
M  V30 9390 C 921.932 3.3462 1.25555 0
M  V30 9391 S 923.491 3.92609 1.95968 0
M  V30 9392 H 920.309 0.67755 0.215516 0
M  V30 9393 H 922.911 1.95284 -0.0919257 0
M  V30 9394 H 921.615 4.07499 0.487069 0
M  V30 9395 H 921.146 3.36415 2.03933 0
M  V30 9396 H 923.161 3.75988 3.23802 0
M  V30 9397 N 922.334 -0.244713 1.55689 0
M  V30 9398 C 923.75 -0.593331 1.48161 0
M  V30 9399 C 923.95 -1.88234 0.719047 0
M  V30 9400 O 923.006 -2.51266 0.249292 0
M  V30 9401 C 924.319 -0.694032 2.92581 0
M  V30 9402 C 925.867 -0.786213 3.02965 0
M  V30 9403 C 926.342 -0.918457 4.48696 0
M  V30 9404 N 927.833 -0.983272 4.52643 0
M  V30 9405 C 928.568 -1.1049 5.62654 0
M  V30 9406 N 928.064 -1.19193 6.8247 0
M  V30 9407 N 929.857 -1.13823 5.50455 0
M  V30 9408 H 922.008 0.601446 2.03707 0
M  V30 9409 H 924.271 0.207894 0.924924 0
M  V30 9410 H 923.977 0.183133 3.51223 0
M  V30 9411 H 923.851 -1.56525 3.4319 0
M  V30 9412 H 926.238 -1.65383 2.44402 0
M  V30 9413 H 926.319 0.110202 2.55563 0
M  V30 9414 H 925.963 -0.0553881 5.0787 0
M  V30 9415 H 925.893 -1.82994 4.93782 0
M  V30 9416 H 928.384 -0.927269 3.66347 0
M  V30 9417 H 928.697 -1.28387 7.62061 0
M  V30 9418 H 927.042 -1.16147 6.85226 0
M  V30 9419 H 930.233 -1.06673 4.55783 0
M  V30 9420 H 930.406 -1.22957 6.36228 0
M  V30 9421 N 923.813 -1.49104 -0.510467 0
M  V30 9422 C 925.059 -1.58346 -1.26705 0
M  V30 9423 C 925.392 -0.265121 -1.92382 0
M  V30 9424 O 924.667 0.730558 -1.80258 0
M  V30 9425 C 924.95 -2.7359 -2.34137 0
M  V30 9426 C 924.803 -4.1519 -1.73024 0
M  V30 9427 C 926.122 -2.84511 -3.3577 0
M  V30 9428 H 923.241 -0.57637 -0.459311 0
M  V30 9429 H 925.883 -1.81353 -0.566658 0
M  V30 9430 H 924.033 -2.54105 -2.93876 0
M  V30 9431 H 925.705 -4.46167 -1.17186 0
M  V30 9432 H 923.948 -4.21279 -1.03473 0
M  V30 9433 H 924.619 -4.91683 -2.50903 0
M  V30 9434 H 927.095 -3.0222 -2.86011 0
M  V30 9435 H 925.971 -3.6684 -4.08313 0
M  V30 9436 H 926.232 -1.93471 -3.97519 0
M  V30 9437 N 925.291 0.760815 -1.38019 0
M  V30 9438 C 926.568 1.5098 -1.24356 0
M  V30 9439 C 926.948 2.10507 0.158169 0
M  V30 9440 O 926.296 1.96455 1.16695 0
M  V30 9441 C 926.506 2.58195 -2.34811 0
M  V30 9442 C 927.854 3.25297 -2.72886 0
M  V30 9443 O 928.878 2.68496 -2.34069 0
M  V30 9444 O 927.737 4.28018 -3.39799 0
M  V30 9445 H 924.831 0.66921 -0.485888 0
M  V30 9446 H 927.377 0.796844 -1.49828 0
M  V30 9447 H 926.149 2.12406 -3.28633 0
M  V30 9448 H 925.772 3.37079 -2.10864 0
M  V30 9449 N 926.769 1.22769 0.988202 0
M  V30 9450 C 927.994 1.08239 1.76915 0
M  V30 9451 C 928.419 -0.362519 1.84574 0
M  V30 9452 O 927.777 -1.26202 1.30165 0
M  V30 9453 C 927.825 1.70363 3.17819 0
M  V30 9454 O 926.929 0.960484 4.01059 0
M  V30 9455 H 926.27 0.379872 0.544604 0
M  V30 9456 H 928.8 1.62663 1.24104 0
M  V30 9457 H 928.81 1.7528 3.6843 0
M  V30 9458 H 927.485 2.75505 3.1156 0
M  V30 9459 H 926.062 0.987667 3.59582 0
M  V30 9460 N 928.247 -1.18576 1.03814 0
M  V30 9461 C 929.524 -1.8433 0.654358 0
M  V30 9462 C 929.904 -1.92504 -0.866338 0
M  V30 9463 O 929.252 -1.44904 -1.76678 0
M  V30 9464 C 929.462 -3.22778 1.32723 0
M  V30 9465 C 930.81 -3.98841 1.45641 0
M  V30 9466 O 931.834 -3.32209 1.28514 0
M  V30 9467 O 930.693 -5.18219 1.73526 0
M  V30 9468 H 927.787 -0.794766 0.228638 0
M  V30 9469 H 930.333 -1.25989 1.13687 0
M  V30 9470 H 929.105 -3.11717 2.36534 0
M  V30 9471 H 928.728 -3.88772 0.833176 0
M  V30 9472 N 929.725 -0.817259 -1.34754 0
M  V30 9473 C 931.136 -0.462215 -1.80888 0
M  V30 9474 C 931.487 1.01685 -1.67794 0
M  V30 9475 O 930.612 1.79094 -1.21468 0
M  V30 9476 C 931.207 -0.832204 -3.2842 0
M  V30 9477 C 929.766 -0.52961 -3.72655 0
M  V30 9478 C 928.913 -1.05214 -2.56564 0
M  V30 9479 H 931.864 -1.00795 -1.22581 0
M  V30 9480 H 931.885 -0.133804 -3.80265 0
M  V30 9481 H 931.397 -1.90873 -3.37919 0
M  V30 9482 H 929.498 0.537743 -3.68699 0
M  V30 9483 H 929.611 -1.06971 -4.67005 0
M  V30 9484 H 927.975 -0.473949 -2.50251 0
M  V30 9485 H 928.758 -2.135 -2.68836 0
M  V30 9486 N 931.203 1.46865 -0.571711 0
M  V30 9487 C 932.614 1.86158 -0.142181 0
M  V30 9488 C 932.965 1.47663 1.2919 0
M  V30 9489 O 932.09 0.886393 1.97413 0
M  V30 9490 C 932.685 3.37867 -0.251256 0
M  V30 9491 C 931.244 3.76198 0.123329 0
M  V30 9492 C 930.391 2.70902 -0.592232 0
M  V30 9493 H 933.342 1.38176 -0.780587 0
M  V30 9494 H 933.363 3.76842 0.526331 0
M  V30 9495 H 932.875 3.65853 -1.2951 0
M  V30 9496 H 930.976 3.53829 1.16773 0
M  V30 9497 H 931.089 4.78471 -0.24533 0
M  V30 9498 H 929.453 2.54678 -0.0336927 0
M  V30 9499 H 930.236 3.01729 -1.63751 0
M  V30 9500 N 932.681 0.308908 1.54543 0
M  V30 9501 C 933.644 -0.550857 2.22482 0
M  V30 9502 C 934.644 -1.0551 1.21344 0
M  V30 9503 O 935.834 -0.949866 1.46025 0
M  V30 9504 C 932.966 -1.76354 2.9174 0
M  V30 9505 H 934.159 0.0428395 2.99869 0
M  V30 9506 H 931.712 0.059825 1.56185 0
M  V30 9507 H 932.447 -2.39686 2.18451 0
M  V30 9508 H 932.232 -1.40954 3.65889 0
M  V30 9509 H 933.722 -2.37417 3.43545 0
M  V30 9510 N 934.159 -1.57557 0.0367827 0
M  V30 9511 C 935.575 -1.56366 -0.31967 0
M  V30 9512 C 935.775 -1.04313 -1.72398 0
M  V30 9513 O 934.831 -0.693278 -2.42796 0
M  V30 9514 C 936.144 -3.00267 -0.161274 0
M  V30 9515 C 937.692 -3.12128 -0.233464 0
M  V30 9516 C 938.167 -4.57882 -0.103767 0
M  V30 9517 N 939.658 -4.62922 -0.160506 0
M  V30 9518 C 940.393 -5.73338 -0.0840493 0
M  V30 9519 N 939.889 -6.92786 0.043933 0
M  V30 9520 N 941.682 -5.61929 -0.138592 0
M  V30 9521 H 933.833 -1.8972 0.954996 0
M  V30 9522 H 936.096 -0.87304 0.369467 0
M  V30 9523 H 935.802 -3.42331 0.80639 0
M  V30 9524 H 935.676 -3.65599 -0.928304 0
M  V30 9525 H 938.063 -2.69972 -1.19159 0
M  V30 9526 H 938.144 -2.49503 0.564075 0
M  V30 9527 H 937.788 -5.0072 0.850973 0
M  V30 9528 H 937.718 -5.18496 -0.920268 0
M  V30 9529 H 940.209 -3.7701 -0.259257 0
M  V30 9530 H 940.522 -7.72741 0.095372 0
M  V30 9531 H 938.867 -6.94955 0.0788211 0
M  V30 9532 H 942.058 -4.67499 -0.237031 0
M  V30 9533 H 942.231 -6.47956 -0.075546 0
M  V30 9534 N 935.637 0.236453 -1.55816 0
M  V30 9535 C 936.567 1.29639 -1.94206 0
M  V30 9536 C 937.548 1.49667 -0.808319 0
M  V30 9537 O 938.733 1.621 -1.06945 0
M  V30 9538 C 935.863 2.64914 -2.24584 0
M  V30 9539 C 934.817 2.59565 -3.40308 0
M  V30 9540 C 934.143 3.98732 -3.56254 0
M  V30 9541 C 935.443 2.15642 -4.75706 0
M  V30 9542 H 937.137 0.977552 -2.82992 0
M  V30 9543 H 934.683 0.468804 -1.36155 0
M  V30 9544 H 936.636 3.39209 -2.50031 0
M  V30 9545 H 935.36 2.98455 -1.32636 0
M  V30 9546 H 934.019 1.87728 -3.14887 0
M  V30 9547 H 933.667 4.29556 -2.61707 0
M  V30 9548 H 933.367 3.96039 -4.34082 0
M  V30 9549 H 934.891 4.74711 -3.84033 0
M  V30 9550 H 936.305 2.79673 -5.00456 0
M  V30 9551 H 934.702 2.24039 -5.56711 0
M  V30 9552 H 935.772 1.10831 -4.72064 0
M  V30 9553 N 937.115 1.49373 0.502552 0
M  V30 9554 C 938.047 1.62045 1.62093 0
M  V30 9555 C 939.06 0.503221 1.54827 0
M  V30 9556 O 940.249 0.775208 1.60788 0
M  V30 9557 C 937.349 1.55971 3.00876 0
M  V30 9558 C 936.522 2.832 3.33341 0
M  V30 9559 C 935.581 2.702 4.51529 0
M  V30 9560 O 934.607 3.44132 4.53389 0
M  V30 9561 N 935.809 1.81642 5.5135 0
M  V30 9562 H 938.574 2.58501 1.51649 0
M  V30 9563 H 936.135 1.46442 0.690396 0
M  V30 9564 H 938.127 1.4493 3.77859 0
M  V30 9565 H 936.697 0.673795 3.05252 0
M  V30 9566 H 935.917 3.08604 2.4527 0
M  V30 9567 H 937.205 3.67551 3.51829 0
M  V30 9568 H 936.603 1.20829 5.52645 0
M  V30 9569 H 935.16 1.76524 6.27441 0
M  V30 9570 N 938.594 -0.753485 1.38421 0
M  V30 9571 C 939.524 -1.8808 1.38377 0
M  V30 9572 C 940.505 -1.68258 0.249664 0
M  V30 9573 O 941.69 -1.88848 0.45276 0
M  V30 9574 C 938.82 -3.25608 1.20818 0
M  V30 9575 C 937.774 -3.60032 2.31433 0
M  V30 9576 C 937.1 -4.96297 1.9898 0
M  V30 9577 C 938.4 -3.64898 3.73694 0
M  V30 9578 H 940.094 -1.88375 2.32713 0
M  V30 9579 H 937.64 -0.90489 1.12017 0
M  V30 9580 H 939.593 -4.04127 1.19412 0
M  V30 9581 H 938.317 -3.25793 0.229433 0
M  V30 9582 H 936.976 -2.83831 2.32025 0
M  V30 9583 H 936.624 -4.93043 0.995889 0
M  V30 9584 H 936.324 -5.20298 2.73063 0
M  V30 9585 H 937.848 -5.77196 1.99193 0
M  V30 9586 H 939.262 -4.33531 3.75132 0
M  V30 9587 H 937.659 -4.00407 4.46983 0
M  V30 9588 H 938.729 -2.65124 4.06002 0
M  V30 9589 N 940.072 -1.23292 -0.981677 0
M  V30 9590 C 941.002 -1.03738 -2.09191 0
M  V30 9591 C 941.983 0.0453041 -1.7004 0
M  V30 9592 O 943.168 -0.119092 -1.93834 0
M  V30 9593 C 940.298 -0.626426 -3.41604 0
M  V30 9594 C 939.252 -1.65631 -3.94652 0
M  V30 9595 C 938.578 -1.10084 -5.23245 0
M  V30 9596 C 939.878 -3.04903 -4.24066 0
M  V30 9597 H 941.572 -1.966 -2.25807 0
M  V30 9598 H 939.118 -0.946656 -1.0851 0
M  V30 9599 H 941.071 -0.476689 -4.18695 0
M  V30 9600 H 939.795 0.337873 -3.24848 0
M  V30 9601 H 938.454 -1.79402 -3.19704 0
M  V30 9602 H 938.102 -0.127562 -5.02838 0
M  V30 9603 H 937.802 -1.78896 -5.59705 0
M  V30 9604 H 939.326 -0.962928 -6.02959 0
M  V30 9605 H 940.74 -2.94441 -4.91912 0
M  V30 9606 H 939.137 -3.70941 -4.71724 0
M  V30 9607 H 940.207 -3.53991 -3.31389 0
M  V30 9608 N 941.55 1.18024 -1.04442 0
M  V30 9609 C 942.5 2.19714 -0.609069 0
M  V30 9610 C 943.484 1.57037 0.350473 0
M  V30 9611 O 944.676 1.76192 0.16892 0
M  V30 9612 C 941.805 3.43293 0.0225911 0
M  V30 9613 C 940.891 4.13084 -0.960325 0
M  V30 9614 N 941.282 4.58819 -2.12883 0
M  V30 9615 C 939.58 4.38999 -0.787146 0
M  V30 9616 C 940.281 5.12589 -2.75004 0
M  V30 9617 N 939.257 5.04333 -2.02853 0
M  V30 9618 H 943.059 2.5277 -1.49948 0
M  V30 9619 H 940.573 1.34271 -0.913517 0
M  V30 9620 H 942.57 4.1541 0.352196 0
M  V30 9621 H 941.23 3.11731 0.908495 0
M  V30 9622 H 942.241 4.53148 -2.50754 0
M  V30 9623 H 938.918 4.17472 0.048348 0
M  V30 9624 H 940.308 5.58152 -3.74053 0
M  V30 9625 N 943.028 0.824394 1.34319 0
M  V30 9626 C 943.975 0.245282 2.29493 0
M  V30 9627 C 944.945 -0.630762 1.53657 0
M  V30 9628 O 946.13 -0.572094 1.82021 0
M  V30 9629 C 943.27 -0.585631 3.40095 0
M  V30 9630 C 942.383 0.312821 4.30866 0
M  V30 9631 C 941.518 -0.527801 5.28571 0
M  V30 9632 C 940.557 0.369946 6.10981 0
M  V30 9633 N 939.694 -0.43169 7.00772 0
M  V30 9634 H 944.534 1.06225 2.78425 0
M  V30 9635 H 942.071 0.53533 1.37013 0
M  V30 9636 H 944.029 -1.08271 4.02906 0
M  V30 9637 H 942.659 -1.3677 2.92393 0
M  V30 9638 H 941.711 0.928129 3.68904 0
M  V30 9639 H 943.023 1.00306 4.8861 0
M  V30 9640 H 942.177 -1.0893 5.96841 0
M  V30 9641 H 940.916 -1.25154 4.71368 0
M  V30 9642 H 939.921 0.943577 5.41643 0
M  V30 9643 H 941.146 1.09182 6.70266 0
M  V30 9644 H 939.092 -1.13908 6.46035 0
M  V30 9645 H 939.009 0.200133 7.55735 0
M  V30 9646 H 940.277 -0.975894 7.73367 0
M  V30 9647 N 944.506 -1.46559 0.579492 0
M  V30 9648 C 945.783 -1.956 -0.00287136 0
M  V30 9649 C 946.163 -1.52215 -1.46266 0
M  V30 9650 O 945.511 -0.771335 -2.15088 0
M  V30 9651 C 945.721 -3.48606 0.165824 0
M  V30 9652 C 947.069 -4.24588 0.0319807 0
M  V30 9653 O 948.093 -3.56075 0.094496 0
M  V30 9654 O 946.952 -5.46396 -0.106386 0
M  V30 9655 H 944.046 -0.825387 -0.0516274 0
M  V30 9656 H 946.592 -1.56858 0.647584 0
M  V30 9657 H 945.364 -3.7306 1.18076 0
M  V30 9658 H 944.987 -3.94169 -0.521212 0
M  V30 9659 N 945.984 -0.3171 -1.54377 0
M  V30 9660 C 947.4 0.035766 -1.5956 0
M  V30 9661 C 947.6 1.51038 -1.33378 0
M  V30 9662 O 946.656 2.26546 -1.11505 0
M  V30 9663 C 947.969 -0.376652 -2.98332 0
M  V30 9664 C 949.517 -0.326765 -3.1129 0
M  V30 9665 C 949.992 -0.714247 -4.52396 0
M  V30 9666 N 951.483 -0.667402 -4.58367 0
M  V30 9667 C 952.218 -0.939494 -5.65651 0
M  V30 9668 N 951.714 -1.27839 -6.80903 0
M  V30 9669 N 953.507 -0.865484 -5.55397 0
M  V30 9670 H 945.658 -1.27794 -1.69654 0
M  V30 9671 H 947.921 -0.5192 -0.79318 0
M  V30 9672 H 947.627 -1.40381 -3.22469 0
M  V30 9673 H 947.501 0.261611 -3.76292 0
M  V30 9674 H 949.888 0.69117 -2.86892 0
M  V30 9675 H 949.969 -0.999873 -2.35449 0
M  V30 9676 H 949.613 -1.73007 -4.77526 0
M  V30 9677 H 949.543 -0.0188962 -5.26597 0
M  V30 9678 H 952.034 -0.417062 -3.75592 0
M  V30 9679 H 952.347 -1.47155 -7.5866 0
M  V30 9680 H 950.692 -1.31658 -6.82416 0
M  V30 9681 H 953.883 -0.600265 -4.64235 0
M  V30 9682 H 954.056 -1.0809 -6.38921 0
M  V30 9683 N 947.462 1.57535 -0.0451378 0
M  V30 9684 C 948.708 1.92736 0.630921 0
M  V30 9685 C 949.041 0.923265 1.70849 0
M  V30 9686 O 948.316 -0.0516512 1.94431 0
M  V30 9687 C 948.599 3.38348 1.23259 0
M  V30 9688 C 948.452 4.49503 0.16349 0
M  V30 9689 C 949.771 3.84233 2.14599 0
M  V30 9690 H 946.89 0.700884 0.227883 0
M  V30 9691 H 949.532 1.89706 -0.10567 0
M  V30 9692 H 947.682 3.41061 1.86037 0
M  V30 9693 H 949.354 4.58919 -0.46808 0
M  V30 9694 H 947.597 4.30802 -0.509166 0
M  V30 9695 H 948.268 5.48457 0.624382 0
M  V30 9696 H 950.744 3.83358 1.6179 0
M  V30 9697 H 949.62 4.86781 2.53644 0
M  V30 9698 H 949.881 3.20646 3.04366 0
M  V30 9699 N 948.94 -0.228186 1.55939 0
M  V30 9700 C 950.186 -0.954964 1.78909 0
M  V30 9701 C 950.519 -1.8425 0.613648 0
M  V30 9702 O 949.794 -1.90604 -0.38737 0
M  V30 9703 C 950.077 -1.79957 3.1191 0
M  V30 9704 C 949.93 -0.938968 4.3989 0
M  V30 9705 C 951.249 -2.77859 3.41295 0
M  V30 9706 H 948.368 -0.345745 0.650868 0
M  V30 9707 H 951.01 -0.224244 1.88672 0
M  V30 9708 H 949.16 -2.42256 3.03717 0
M  V30 9709 H 950.832 -0.333225 4.60095 0
M  V30 9710 H 949.075 -0.244096 4.33113 0
M  V30 9711 H 949.746 -1.56416 5.29375 0
M  V30 9712 H 952.222 -2.25695 3.49572 0
M  V30 9713 H 951.098 -3.34062 4.35538 0
M  V30 9714 H 951.359 -3.55266 2.63132 0
M  V30 9715 N 950.418 -1.49637 -0.494624 0
M  V30 9716 C 951.381 -1.66252 -1.57775 0
M  V30 9717 C 952.381 -0.534054 -1.51672 0
M  V30 9718 O 953.571 -0.800637 -1.54711 0
M  V30 9719 C 950.703 -1.66584 -2.97426 0
M  V30 9720 H 951.896 -2.62864 -1.4437 0
M  V30 9721 H 949.449 -1.38764 -0.719323 0
M  V30 9722 H 950.184 -0.715798 -3.16302 0
M  V30 9723 H 949.969 -2.48543 -3.03264 0
M  V30 9724 H 951.459 -1.81474 -3.76108 0
M  V30 9725 N 951.896 0.746133 -1.38819 0
M  V30 9726 C 953.124 1.53539 -1.38685 0
M  V30 9727 C 953.539 1.88788 0.0215039 0
M  V30 9728 O 952.896 1.53312 0.990031 0
M  V30 9729 C 952.947 2.8299 -2.24942 0
M  V30 9730 O 952.668 2.49242 -3.60292 0
M  V30 9731 C 954.169 3.77085 -2.3307 0
M  V30 9732 H 951.389 0.474842 -0.474095 0
M  V30 9733 H 953.933 0.922844 -1.82493 0
M  V30 9734 H 952.088 3.40603 -1.84576 0
M  V30 9735 H 952.502 3.32319 -4.05789 0
M  V30 9736 H 953.976 4.64845 -2.97696 0
M  V30 9737 H 954.453 4.18049 -1.34655 0
M  V30 9738 H 955.059 3.25394 -2.73859 0
M  V30 9739 N 953.375 1.23811 0.975125 0
M  V30 9740 C 954.6 1.10109 1.75757 0
M  V30 9741 C 955.025 -0.342922 1.84948 0
M  V30 9742 O 954.383 -1.24814 1.31496 0
M  V30 9743 C 954.431 1.73724 3.15994 0
M  V30 9744 O 953.535 1.00297 4.00018 0
M  V30 9745 H 952.876 0.385627 0.540544 0
M  V30 9746 H 955.406 1.63971 1.22372 0
M  V30 9747 H 955.416 1.79178 3.6655 0
M  V30 9748 H 954.091 2.78794 3.0862 0
M  V30 9749 H 952.668 1.02575 3.58515 0
M  V30 9750 N 954.853 -1.17469 1.05066 0
M  V30 9751 C 955.783 -2.23635 0.671552 0
M  V30 9752 C 956.764 -1.66867 -0.33006 0
M  V30 9753 O 957.949 -1.93084 -0.207933 0
M  V30 9754 C 955.079 -3.47272 0.0441845 0
M  V30 9755 C 954.033 -4.16854 0.97042 0
M  V30 9756 C 953.359 -5.34299 0.206998 0
M  V30 9757 C 954.659 -4.69225 2.29401 0
M  V30 9758 H 956.353 -2.55602 1.55911 0
M  V30 9759 H 953.899 -1.2286 0.751101 0
M  V30 9760 H 955.852 -4.20756 -0.23282 0
M  V30 9761 H 954.576 -3.14568 -0.878311 0
M  V30 9762 H 953.235 -3.4528 1.23197 0
M  V30 9763 H 952.883 -4.97846 -0.718222 0
M  V30 9764 H 952.583 -5.81792 0.82416 0
M  V30 9765 H 954.107 -6.10568 -0.0627525 0
M  V30 9766 H 955.521 -5.34353 2.077 0
M  V30 9767 H 953.918 -5.27291 2.86503 0
M  V30 9768 H 954.988 -3.86102 2.93348 0
M  V30 9769 N 956.331 -0.831506 -1.3388 0
M  V30 9770 C 957.742 -0.481375 -1.80388 0
M  V30 9771 C 958.093 0.998993 -1.68863 0
M  V30 9772 O 957.218 1.77795 -1.2336 0
M  V30 9773 C 957.813 -0.86699 -3.27519 0
M  V30 9774 C 956.372 -0.569105 -3.72073 0
M  V30 9775 C 955.519 -1.07929 -2.55434 0
M  V30 9776 H 958.47 -1.02089 -1.21505 0
M  V30 9777 H 958.491 -0.174128 -3.80101 0
M  V30 9778 H 958.003 -1.94447 -3.35875 0
M  V30 9779 H 956.104 0.498607 -3.69249 0
M  V30 9780 H 956.217 -1.11918 -4.65845 0
M  V30 9781 H 954.581 -0.500465 -2.49735 0
M  V30 9782 H 955.364 -2.16339 -2.66556 0
M  V30 9783 N 957.809 1.4625 -0.587256 0
M  V30 9784 C 959.034 2.07252 -0.0784517 0
M  V30 9785 C 959.459 1.43239 1.21919 0
M  V30 9786 O 958.817 0.517791 1.73749 0
M  V30 9787 C 958.865 3.60534 0.0691037 0
M  V30 9788 O 957.969 3.96773 1.12448 0
M  V30 9789 H 957.31 0.660825 -0.064859 0
M  V30 9790 H 959.84 1.87819 -0.811491 0
M  V30 9791 H 959.85 4.0708 0.273826 0
M  V30 9792 H 958.525 4.06516 -0.878514 0
M  V30 9793 H 957.102 3.6193 0.897852 0
M  V30 9794 N 959.287 0.325282 1.54207 0
M  V30 9795 C 960.535 -0.276229 2.00203 0
M  V30 9796 C 960.856 -1.52519 1.21503 0
M  V30 9797 O 960.126 -1.93313 0.317302 0
M  V30 9798 H 958.706 -0.105059 0.739575 0
M  V30 9799 H 961.368 0.442225 1.89817 0
M  V30 9800 H 960.464 -0.531427 3.07542 0
M  V30 9801 N 960.765 -1.57509 0.0534917 0
M  V30 9802 C 962.013 -1.92402 -0.618548 0
M  V30 9803 C 962.334 -0.93273 -1.71246 0
M  V30 9804 O 961.604 0.0220495 -1.95888 0
M  V30 9805 H 960.184 -0.710233 -0.23147 0
M  V30 9806 H 962.846 -1.94606 0.10704 0
M  V30 9807 H 961.942 -2.93704 -1.05566 0
M  V30 9808 N 962.243 0.219913 -1.56058 0
M  V30 9809 C 963.491 0.942199 -1.78793 0
M  V30 9810 C 963.812 1.84804 -0.622284 0
M  V30 9811 O 963.082 1.9255 0.360735 0
M  V30 9812 H 961.662 0.350895 -0.659455 0
M  V30 9813 H 964.324 0.231376 -1.93522 0
M  V30 9814 H 963.42 1.54804 -2.71002 0
M  V30 9815 N 963.721 1.49897 0.486681 0
M  V30 9816 C 964.961 1.61732 1.24988 0
M  V30 9817 C 965.325 0.303724 1.89582 0
M  V30 9818 O 966.526 0.297373 2.6715 0
M  V30 9819 C 964.797 2.75429 2.27757 0
M  V30 9820 S 966.356 3.07304 3.13225 0
M  V30 9821 H 963.174 0.570316 0.424571 0
M  V30 9822 H 965.776 1.87617 0.549549 0
M  V30 9823 H 964.48 3.69376 1.78857 0
M  V30 9824 H 964.011 2.51582 3.0244 0
M  V30 9825 H 966.026 2.49928 4.28661 0
M  V30 9826 N 965.199 -0.738761 1.39212 0
M  V30 9827 C 966.424 -1.5331 1.39681 0
M  V30 9828 C 966.849 -1.88098 -0.00768715 0
M  V30 9829 O 966.207 -1.51642 -0.993699 0
M  V30 9830 C 966.255 -2.79958 2.27279 0
M  V30 9831 O 965.359 -3.75727 1.70008 0
M  V30 9832 H 964.7 -0.463131 0.475821 0
M  V30 9833 H 967.23 -0.911768 1.83161 0
M  V30 9834 H 967.24 -3.28732 2.41659 0
M  V30 9835 H 965.915 -2.5397 3.29351 0
M  V30 9836 H 964.492 -3.34483 1.64851 0
M  V30 9837 N 966.677 -1.24326 -0.968545 0
M  V30 9838 C 967.905 -1.10947 -1.74638 0
M  V30 9839 C 968.32 0.338064 -1.85749 0
M  V30 9840 O 967.677 1.23331 -1.3452 0
M  V30 9841 C 967.728 -1.74254 -3.1673 0
M  V30 9842 O 967.449 -3.13347 -3.06178 0
M  V30 9843 C 968.95 -1.66473 -4.10855 0
M  V30 9844 H 966.17 -0.38767 -0.547679 0
M  V30 9845 H 968.714 -1.64415 -1.21605 0
M  V30 9846 H 966.869 -1.2479 -3.66751 0
M  V30 9847 H 967.283 -3.44255 -3.95713 0
M  V30 9848 H 968.757 -2.15452 -5.08217 0
M  V30 9849 H 969.234 -0.625785 -4.34719 0
M  V30 9850 H 969.84 -2.15359 -3.66743 0
M  V30 9851 N 968.156 1.1691 -1.05688 0
M  V30 9852 C 969.396 1.88972 -0.779044 0
M  V30 9853 C 969.76 1.7949 0.681708 0
M  V30 9854 O 970.961 2.46418 1.07386 0
M  V30 9855 C 969.232 3.34737 -1.25242 0
M  V30 9856 S 970.791 4.24718 -1.10272 0
M  V30 9857 H 967.609 0.652349 -0.282776 0
M  V30 9858 H 970.211 1.41162 -1.35254 0
M  V30 9859 H 968.915 3.39175 -2.3106 0
M  V30 9860 H 968.446 3.87593 -0.673417 0
M  V30 9861 H 970.461 4.96191 -0.0299004 0
M  V30 9862 N 969.634 0.838594 1.33437 0
M  V30 9863 C 970.882 0.433312 1.974 0
M  V30 9864 C 971.203 -1.01078 1.66758 0
M  V30 9865 O 970.473 -1.70406 0.966373 0
M  V30 9866 H 969.053 0.15724 0.730263 0
M  V30 9867 H 971.715 1.07149 1.62804 0
M  V30 9868 H 970.811 0.565144 3.06941 0
M  V30 9869 N 971.112 -1.45937 0.595003 0
M  V30 9870 C 972.36 -2.01921 0.0851368 0
M  V30 9871 C 972.681 -1.46748 -1.28413 0
M  V30 9872 O 971.951 -0.656873 -1.84559 0
M  V30 9873 H 970.531 -0.746457 0.0284826 0
M  V30 9874 H 973.193 -1.78891 0.773561 0
M  V30 9875 H 972.289 -3.1209 0.0254002 0
M  V30 9876 N 972.59 -0.333456 -1.54032 0
M  V30 9877 C 973.83 0.266604 -2.02654 0
M  V30 9878 C 974.194 1.48568 -1.21621 0
M  V30 9879 O 975.395 2.15925 -1.60093 0
M  V30 9880 C 973.666 0.582825 -3.52616 0
M  V30 9881 S 975.225 1.16113 -4.23159 0
M  V30 9882 H 972.043 0.0800344 -0.706481 0
M  V30 9883 H 974.645 -0.468876 -1.89794 0
M  V30 9884 H 973.349 -0.312401 -4.09209 0
M  V30 9885 H 972.88 1.34824 -3.69576 0
M  V30 9886 H 974.895 2.44743 -4.31642 0
M  V30 9887 N 974.068 1.57479 -0.061844 0
M  V30 9888 C 975.293 1.97843 0.622311 0
M  V30 9889 C 975.718 0.939602 1.62951 0
M  V30 9890 O 975.076 -0.095958 1.81046 0
M  V30 9891 C 975.124 3.37262 1.2762 0
M  V30 9892 O 974.228 3.35943 2.39199 0
M  V30 9893 H 973.569 0.644212 0.160896 0
M  V30 9894 H 976.099 2.04165 -0.133409 0
M  V30 9895 H 976.109 3.74226 1.62539 0
M  V30 9896 H 974.784 4.12404 0.538112 0
M  V30 9897 H 973.361 3.10737 2.06148 0
M  V30 9898 N 975.546 -0.211634 1.56173 0
M  V30 9899 C 976.957 -0.777776 1.69728 0
M  V30 9900 C 977.308 -1.84566 0.66558 0
M  V30 9901 O 976.433 -2.15639 -0.181338 0
M  V30 9902 C 977.028 -1.41757 3.07718 0
M  V30 9903 C 975.587 -1.93098 3.23094 0
M  V30 9904 C 974.734 -0.794785 2.65666 0
M  V30 9905 H 977.685 0.0131839 1.58695 0
M  V30 9906 H 977.706 -2.28662 3.04128 0
M  V30 9907 H 977.218 -0.640114 3.82785 0
M  V30 9908 H 975.319 -2.73615 2.52914 0
M  V30 9909 H 975.432 -2.10414 4.30422 0
M  V30 9910 H 973.796 -1.20473 2.24407 0
M  V30 9911 H 974.579 -0.0298408 3.43287 0
M  V30 9912 N 977.024 -1.50153 -0.478725 0
M  V30 9913 C 978.44 -1.3741 -0.811833 0
M  V30 9914 C 978.64 -0.424303 -1.96982 0
M  V30 9915 O 977.696 0.13588 -2.52134 0
M  V30 9916 C 979.009 -2.78616 -1.13108 0
M  V30 9917 C 980.557 -2.87477 -1.23798 0
M  V30 9918 C 981.032 -4.295 -1.5904 0
M  V30 9919 N 982.523 -4.32415 -1.66047 0
M  V30 9920 C 983.258 -5.39295 -1.94805 0
M  V30 9921 N 982.754 -6.56392 -2.21635 0
M  V30 9922 N 984.547 -5.26731 -1.96243 0
M  V30 9923 H 976.698 -2.10486 0.284531 0
M  V30 9924 H 978.961 -0.945786 0.0647585 0
M  V30 9925 H 978.667 -3.49921 -0.35334 0
M  V30 9926 H 978.541 -3.15382 -2.06915 0
M  V30 9927 H 980.928 -2.16396 -2.00641 0
M  V30 9928 H 981.009 -2.54264 -0.279888 0
M  V30 9929 H 980.653 -5.01115 -0.827404 0
M  V30 9930 H 980.583 -4.60194 -2.55987 0
M  V30 9931 H 983.074 -3.47975 -1.47383 0
M  V30 9932 H 983.387 -7.33658 -2.4283 0
M  V30 9933 H 981.732 -6.59579 -2.19043 0
M  V30 9934 H 984.923 -4.34249 -1.74773 0
M  V30 9935 H 985.096 -6.10115 -2.1832 0
M  V30 9936 N 978.502 0.731368 -1.39602 0
M  V30 9937 C 979.435 1.85433 -1.33004 0
M  V30 9938 C 980.413 1.61327 -0.20307 0
M  V30 9939 O 981.597 1.84545 -0.384124 0
M  V30 9940 C 978.724 3.21483 -1.06613 0
M  V30 9941 C 977.77 3.64443 -2.21549 0
M  V30 9942 S 978.603 3.73387 -3.83852 0
M  V30 9943 C 979.759 5.12222 -3.59694 0
M  V30 9944 H 979.992 1.90747 -2.28041 0
M  V30 9945 H 977.525 0.89659 -1.25701 0
M  V30 9946 H 979.483 4.00041 -0.920719 0
M  V30 9947 H 978.144 3.1382 -0.132563 0
M  V30 9948 H 977.337 4.63185 -1.98686 0
M  V30 9949 H 976.939 2.93099 -2.32312 0
M  V30 9950 H 979.231 5.98666 -3.17184 0
M  V30 9951 H 980.174 5.40115 -4.5791 0
M  V30 9952 H 980.582 4.8207 -2.93716 0
M  V30 9953 N 979.98 1.24838 0.961938 0
M  V30 9954 C 980.927 1.04582 2.05745 0
M  V30 9955 C 981.897 -0.0427281 1.66045 0
M  V30 9956 O 983.082 0.113026 1.90465 0
M  V30 9957 C 980.222 0.66284 3.38675 0
M  V30 9958 C 979.335 1.82548 3.91536 0
M  V30 9959 C 978.47 1.38753 5.12758 0
M  V30 9960 C 977.509 2.51976 5.5783 0
M  V30 9961 N 976.646 2.09009 6.70268 0
M  V30 9962 H 981.486 1.98343 2.22405 0
M  V30 9963 H 979.023 0.987822 1.08998 0
M  V30 9964 H 980.981 0.421788 4.15062 0
M  V30 9965 H 979.611 -0.237776 3.21923 0
M  V30 9966 H 978.663 2.18004 3.11735 0
M  V30 9967 H 979.975 2.67601 4.20941 0
M  V30 9968 H 979.129 1.1057 5.96539 0
M  V30 9969 H 977.868 0.507618 4.85051 0
M  V30 9970 H 976.873 2.80912 4.72619 0
M  V30 9971 H 978.098 3.40534 5.87549 0
M  V30 9972 H 976.044 1.23423 6.44285 0
M  V30 9973 H 975.961 2.87613 6.99153 0
M  V30 9974 H 977.229 1.83981 7.57477 0
M  V30 9975 N 981.458 -1.16348 1.06306 0
M  V30 9976 C 982.704 -1.87158 0.781007 0
M  V30 9977 C 983.037 -1.81499 -0.690784 0
M  V30 9978 O 982.312 -1.23074 -1.50609 0
M  V30 9979 C 982.595 -3.3672 1.27639 0
M  V30 9980 C 982.448 -3.51069 2.81194 0
M  V30 9981 C 983.767 -4.31122 0.884388 0
M  V30 9982 H 980.886 -0.679586 0.285187 0
M  V30 9983 H 983.528 -1.36756 1.31901 0
M  V30 9984 H 981.678 -3.79775 0.818715 0
M  V30 9985 H 983.35 -3.16952 3.35171 0
M  V30 9986 H 981.593 -2.92976 3.19918 0
M  V30 9987 H 982.264 -4.56105 3.10921 0
M  V30 9988 H 984.74 -3.95969 1.27858 0
M  V30 9989 H 983.616 -5.34279 1.25847 0
M  V30 9990 H 983.877 -4.41598 -0.210673 0
M  V30 9991 N 982.937 -0.845659 -1.3299 0
M  V30 9992 C 984.165 -0.45835 -2.01759 0
M  V30 9993 C 984.58 0.94239 -1.63598 0
M  V30 9994 O 983.937 1.61353 -0.852738 0
M  V30 9995 C 983.988 -0.577311 -3.5686 0
M  V30 9996 O 983.709 -1.92287 -3.93646 0
M  V30 9997 C 985.21 -0.187839 -4.42902 0
M  V30 9998 H 982.43 -0.181165 -0.646081 0
M  V30 9999 H 984.974 -1.14011 -1.6977 0
M  V30 10000 H 983.129 0.0566146 -3.87359 0
M  V30 10001 H 983.543 -1.91322 -4.88361 0
M  V30 10002 H 985.017 -0.322105 -5.51059 0
M  V30 10003 H 985.494 0.870896 -4.30479 0
M  V30 10004 H 986.1 -0.796473 -4.17776 0
M  V30 10005 N 984.415 1.45619 -0.602734 0
M  V30 10006 C 985.362 2.30493 0.118944 0
M  V30 10007 C 986.332 1.41816 0.864723 0
M  V30 10008 O 987.517 1.7075 0.851424 0
M  V30 10009 C 984.657 3.2664 1.11356 0
M  V30 10010 C 983.77 4.3042 0.369161 0
M  V30 10011 C 982.905 5.13678 1.35307 0
M  V30 10012 C 981.944 6.09189 0.596207 0
M  V30 10013 N 981.081 6.85245 1.52916 0
M  V30 10014 H 985.921 2.91672 -0.610836 0
M  V30 10015 H 983.458 1.43731 -0.313032 0
M  V30 10016 H 985.416 3.80846 1.7033 0
M  V30 10017 H 984.046 2.67225 1.81081 0
M  V30 10018 H 983.098 3.78913 -0.335994 0
M  V30 10019 H 984.41 4.98307 -0.221603 0
M  V30 10020 H 983.564 5.7226 2.01502 0
M  V30 10021 H 982.303 4.45798 1.97777 0
M  V30 10022 H 981.308 5.49743 -0.0793984 0
M  V30 10023 H 982.533 6.79096 -0.0233734 0
M  V30 10024 H 980.479 6.20058 2.14159 0
M  V30 10025 H 980.396 7.49467 0.991713 0
M  V30 10026 H 981.664 7.48371 2.18083 0
M  V30 10027 N 985.893 0.34162 1.53853 0
M  V30 10028 C 986.856 -0.503541 2.236 0
M  V30 10029 C 987.856 -1.02912 1.23554 0
M  V30 10030 O 989.046 -0.918678 1.48007 0
M  V30 10031 C 986.178 -1.70126 2.95415 0
M  V30 10032 H 987.371 0.106437 2.99711 0
M  V30 10033 H 984.924 0.0929408 1.56023 0
M  V30 10034 H 985.659 -2.34999 2.23486 0
M  V30 10035 H 985.444 -1.33161 3.68796 0
M  V30 10036 H 986.934 -2.30077 3.48503 0
M  V30 10037 N 987.371 -1.57444 0.0701946 0
M  V30 10038 C 988.782 -1.80875 -0.462709 0
M  V30 10039 C 989.133 -0.983975 -1.69742 0
M  V30 10040 O 988.258 -0.206027 -2.15417 0
M  V30 10041 C 988.853 -3.28062 -0.84623 0
M  V30 10042 C 987.412 -3.52345 -1.32401 0
M  V30 10043 C 986.559 -2.7558 -0.308399 0
M  V30 10044 H 989.51 -1.55917 0.295907 0
M  V30 10045 H 989.531 -3.40023 -1.70776 0
M  V30 10046 H 989.043 -3.88064 0.0526033 0
M  V30 10047 H 987.144 -2.97645 -2.24139 0
M  V30 10048 H 987.257 -4.6104 -1.30304 0
M  V30 10049 H 985.621 -2.4229 -0.785337 0
M  V30 10050 H 986.404 -3.38319 0.582679 0
M  V30 10051 N 988.849 0.203349 -1.56283 0
M  V30 10052 C 989.797 1.27157 -1.94766 0
M  V30 10053 C 990.791 1.4756 -0.832005 0
M  V30 10054 O 991.997 1.48519 -1.01696 0
M  V30 10055 H 988.372 0.426712 -0.61921 0
M  V30 10056 H 990.343 0.919921 -2.83866 0
M  V30 10057 C 989.092 2.6108 -2.29636 0
M  V30 10058 H 988.415 2.46193 -3.15006 0
M  V30 10059 H 989.855 3.34591 -2.60433 0
M  V30 10060 C 988.314 3.17456 -1.12799 0
M  V30 10061 O 988.844 3.99717 -0.398661 0
M  V30 10062 N 987.05 2.76084 -0.906975 0
M  V30 10063 H 986.597 2.09294 -1.50179 0
M  V30 10064 H 986.555 3.14143 -0.127005 0
M  V30 10065 N 990.327 1.50405 0.470755 0
M  V30 10066 C 991.257 1.72222 1.57676 0
M  V30 10067 C 992.238 0.57121 1.60222 0
M  V30 10068 O 993.423 0.810381 1.76484 0
M  V30 10069 C 990.553 1.81666 2.95998 0
M  V30 10070 C 989.507 2.96857 3.08318 0
M  V30 10071 C 988.833 2.91445 4.4829 0
M  V30 10072 C 990.133 4.37361 2.85504 0
M  V30 10073 H 991.827 2.64825 1.39671 0
M  V30 10074 H 989.373 1.27438 0.67049 0
M  V30 10075 H 991.326 1.95514 3.73299 0
M  V30 10076 H 990.05 0.856856 3.1516 0
M  V30 10077 H 988.709 2.82661 2.33449 0
M  V30 10078 H 988.357 1.93309 4.64371 0
M  V30 10079 H 988.057 3.68776 4.57469 0
M  V30 10080 H 989.581 3.07341 5.27611 0
M  V30 10081 H 990.995 4.52081 3.52555 0
M  V30 10082 H 989.392 5.16145 3.06127 0
M  V30 10083 H 990.462 4.49708 1.81359 0
M  V30 10084 N 991.805 -0.723954 1.39988 0
M  V30 10085 C 992.735 -1.85103 1.42335 0
M  V30 10086 C 993.716 -1.6769 0.285297 0
M  V30 10087 O 994.901 -1.87846 0.492716 0
M  V30 10088 C 992.031 -3.22972 1.27697 0
M  V30 10089 C 990.985 -3.55041 2.39018 0
M  V30 10090 C 990.311 -4.91965 2.09462 0
M  V30 10091 C 991.611 -3.56889 3.8135 0
M  V30 10092 H 993.305 -1.83396 2.36656 0
M  V30 10093 H 990.851 -0.880926 1.13911 0
M  V30 10094 H 992.804 -4.01503 1.27958 0
M  V30 10095 H 991.528 -3.25233 0.298487 0
M  V30 10096 H 990.187 -2.78845 2.37993 0
M  V30 10097 H 989.835 -4.90819 1.10025 0
M  V30 10098 H 989.535 -5.14389 2.84038 0
M  V30 10099 H 991.059 -5.7284 2.11391 0
M  V30 10100 H 992.473 -4.25476 3.84243 0
M  V30 10101 H 990.87 -3.90836 4.55376 0
M  V30 10102 H 991.94 -2.56452 4.11534 0
M  V30 10103 N 993.283 -1.25346 -0.955304 0
M  V30 10104 C 994.699 -1.02154 -1.22625 0
M  V30 10105 C 994.899 0.26206 -1.99789 0
M  V30 10106 O 993.955 0.974958 -2.32918 0
M  V30 10107 C 995.268 -2.2443 -2.00129 0
M  V30 10108 C 996.816 -2.29185 -2.13174 0
M  V30 10109 C 997.291 -3.51117 -2.94077 0
M  V30 10110 N 998.782 -3.51509 -3.01655 0
M  V30 10111 C 999.517 -4.42517 -3.64645 0
M  V30 10112 N 999.013 -5.43796 -4.29252 0
M  V30 10113 N 1000.81 -4.302 -3.61779 0
M  V30 10114 H 992.957 -2.07812 -0.439071 0
M  V30 10115 H 995.22 -0.91258 -0.256715 0
M  V30 10116 H 994.926 -3.17717 -1.50827 0
M  V30 10117 H 994.8 -2.27548 -3.00835 0
M  V30 10118 H 997.187 -1.36422 -2.61674 0
M  V30 10119 H 997.268 -2.30087 -1.11775 0
M  V30 10120 H 996.912 -4.44201 -2.46268 0
M  V30 10121 H 996.842 -3.4746 -3.95701 0
M  V30 10122 H 999.333 -2.78245 -2.55711 0
M  V30 10123 H 999.646 -6.09453 -4.75171 0
M  V30 10124 H 997.991 -5.4767 -4.27882 0
M  V30 10125 H 1001.18 -3.50304 -3.10491 0
M  V30 10126 H 1001.36 -5.01323 -4.10584 0
M  V30 10127 N 994.761 1.15782 -1.06922 0
M  V30 10128 C 996.007 1.86741 -0.790922 0
M  V30 10129 C 996.34 1.81863 0.681149 0
M  V30 10130 O 995.615 1.23871 1.49954 0
M  V30 10131 C 995.898 3.36038 -1.29422 0
M  V30 10132 C 995.751 3.49573 -2.83052 0
M  V30 10133 C 997.07 4.30647 -0.907239 0
M  V30 10134 H 994.189 0.678064 -0.288787 0
M  V30 10135 H 996.831 1.36054 -1.32624 0
M  V30 10136 H 994.981 3.79336 -0.838843 0
M  V30 10137 H 996.653 3.1517 -3.36847 0
M  V30 10138 H 994.896 2.91275 -3.21467 0
M  V30 10139 H 995.567 4.5445 -3.13335 0
M  V30 10140 H 998.043 3.95286 -1.29956 0
M  V30 10141 H 996.919 5.33604 -1.28679 0
M  V30 10142 H 997.18 4.41703 0.187251 0
M  V30 10143 N 996.239 0.8527 1.3254 0
M  V30 10144 C 997.149 0.298744 2.3269 0
M  V30 10145 C 998.165 -0.582418 1.63963 0
M  V30 10146 O 999.341 -0.483253 1.95516 0
M  V30 10147 C 996.406 -0.505453 3.42996 0
M  V30 10148 C 995.467 0.401618 4.27417 0
M  V30 10149 C 994.7 -0.364294 5.32455 0
M  V30 10150 O 994.923 -1.59448 5.47661 0
M  V30 10151 O 993.857 0.268892 6.01299 0
M  V30 10152 H 997.683 1.12843 2.81958 0
M  V30 10153 H 995.268 0.615584 1.36128 0
M  V30 10154 H 997.15 -0.961974 4.10273 0
M  V30 10155 H 995.825 -1.31197 2.95921 0
M  V30 10156 H 994.732 0.906274 3.62957 0
M  V30 10157 H 996.065 1.17327 4.78012 0
M  V30 10158 N 997.718 -1.45297 0.610449 0
M  V30 10159 C 998.967 -2.0143 0.104323 0
M  V30 10160 C 999.28 -1.48431 -1.27388 0
M  V30 10161 O 1000.49 -1.96558 -1.87289 0
M  V30 10162 C 998.942 -3.59644 0.135812 0
M  V30 10163 C 998.55 -4.2164 1.51405 0
M  V30 10164 C 1000.29 -4.2333 -0.314922 0
M  V30 10165 C 998.201 -5.72015 1.50176 0
M  V30 10166 H 997.131 -0.753176 0.035233 0
M  V30 10167 H 999.782 -1.66738 0.7662 0
M  V30 10168 H 998.164 -3.91538 -0.592773 0
M  V30 10169 H 999.338 -4.01315 2.26457 0
M  V30 10170 H 997.653 -3.70159 1.90712 0
M  V30 10171 H 1000.25 -5.33597 -0.343335 0
M  V30 10172 H 1000.59 -3.94206 -1.33817 0
M  V30 10173 H 1001.13 -3.96163 0.360489 0
M  V30 10174 H 997.865 -6.05842 2.50271 0
M  V30 10175 H 997.385 -5.94523 0.793869 0
M  V30 10176 H 999.064 -6.35266 1.22665 0
M  V30 10177 N 999.196 -0.349774 -1.5367 0
M  V30 10178 C 1000.15 0.52023 -2.21986 0
M  V30 10179 C 1001.13 1.06119 -1.20944 0
M  V30 10180 O 1002.32 0.993857 -1.46463 0
M  V30 10181 C 999.451 1.66751 -3.00082 0
M  V30 10182 C 998.537 1.14019 -4.08486 0
M  V30 10183 N 998.928 0.334588 -5.04692 0
M  V30 10184 C 997.226 1.4165 -4.22908 0
M  V30 10185 C 997.927 0.0476906 -5.8168 0
M  V30 10186 N 996.903 0.641032 -5.39807 0
M  V30 10187 H 1000.7 -0.102261 -2.93722 0
M  V30 10188 H 998.219 -0.15696 -1.6164 0
M  V30 10189 H 1000.22 2.30281 -3.47529 0
M  V30 10190 H 998.876 2.29322 -2.29873 0
M  V30 10191 H 999.887 -0.0248665 -5.17894 0
M  V30 10192 H 996.564 2.04615 -3.63922 0
M  V30 10193 H 997.954 -0.602565 -6.69193 0
M  V30 10194 N 1000.67 1.57404 -0.0785433 0
M  V30 10195 C 1001.62 2.14316 0.903949 0
M  V30 10196 C 1002.62 1.08176 1.30362 0
M  V30 10197 O 1003.82 1.26546 1.28008 0
M  V30 10198 H 1000.2 0.685367 0.309477 0
M  V30 10199 H 1002.17 2.95719 0.399081 0
M  V30 10200 C 1000.92 2.72504 2.15956 0
M  V30 10201 H 1000.24 3.53853 1.86087 0
M  V30 10202 H 1001.68 3.15914 2.82798 0
M  V30 10203 C 1000.14 1.6759 2.92259 0
M  V30 10204 O 1000.67 1.10492 3.86205 0
M  V30 10205 N 998.875 1.38467 2.5549 0
M  V30 10206 H 998.422 1.85088 1.79166 0
M  V30 10207 H 998.38 0.685053 3.06846 0
M  V30 10208 N 1002.15 -0.195058 1.56388 0
M  V30 10209 C 1003.56 -0.75973 1.70543 0
M  V30 10210 C 1003.91 -1.83849 0.685118 0
M  V30 10211 O 1003.04 -2.15819 -0.158457 0
M  V30 10212 C 1003.63 -1.38485 3.09204 0
M  V30 10213 C 1002.19 -1.89661 3.25124 0
M  V30 10214 C 1001.34 -0.766563 2.66494 0
M  V30 10215 H 1004.29 0.0300148 1.58672 0
M  V30 10216 H 1004.31 -2.25424 3.06536 0
M  V30 10217 H 1003.82 -0.599479 3.83442 0
M  V30 10218 H 1001.92 -2.70917 2.55802 0
M  V30 10219 H 1002.04 -2.05837 4.32629 0
M  V30 10220 H 1000.4 -1.18086 2.25672 0
M  V30 10221 H 1001.18 0.00657102 3.43299 0
M  V30 10222 N 1003.63 -1.50653 -0.462772 0
M  V30 10223 C 1004.56 -1.73056 -1.5676 0
M  V30 10224 C 1005.54 -0.579699 -1.59917 0
M  V30 10225 O 1006.73 -0.819729 -1.76051 0
M  V30 10226 C 1003.86 -1.83234 -2.9503 0
M  V30 10227 C 1002.81 -2.98488 -3.06739 0
M  V30 10228 C 1002.14 -2.93818 -4.46738 0
M  V30 10229 C 1003.44 -4.38869 -2.83181 0
M  V30 10230 H 1005.13 -2.65562 -1.38265 0
M  V30 10231 H 1002.68 -1.27792 -0.663722 0
M  V30 10232 H 1004.63 -1.97491 -3.72257 0
M  V30 10233 H 1003.35 -0.873558 -3.14701 0
M  V30 10234 H 1002.01 -2.83895 -2.31946 0
M  V30 10235 H 1001.66 -1.95769 -4.63339 0
M  V30 10236 H 1001.36 -3.71197 -4.55507 0
M  V30 10237 H 1002.88 -3.10135 -5.25974 0
M  V30 10238 H 1004.3 -4.53945 -3.50153 0
M  V30 10239 H 1002.69 -5.17762 -3.03386 0
M  V30 10240 H 1003.76 -4.50663 -1.78972 0
M  V30 10241 N 1005.11 0.71652 -1.4037 0
M  V30 10242 C 1006.04 1.84345 -1.43315 0
M  V30 10243 C 1007.02 1.67537 -0.294186 0
M  V30 10244 O 1008.2 1.87582 -0.502671 0
M  V30 10245 C 1005.33 3.2229 -1.29408 0
M  V30 10246 C 1004.29 3.53769 -2.40897 0
M  V30 10247 C 1003.61 4.90847 -2.12068 0
M  V30 10248 C 1004.91 3.54862 -3.83237 0
M  V30 10249 H 1006.61 1.82138 -2.37626 0
M  V30 10250 H 1004.15 0.874873 -1.14376 0
M  V30 10251 H 1006.11 4.00819 -1.30085 0
M  V30 10252 H 1004.83 3.2507 -0.31573 0
M  V30 10253 H 1003.49 2.77579 -2.39469 0
M  V30 10254 H 1003.14 4.90229 -1.12626 0
M  V30 10255 H 1002.84 5.12875 -2.86762 0
M  V30 10256 H 1004.36 5.71711 -2.14426 0
M  V30 10257 H 1005.78 4.23432 -3.86494 0
M  V30 10258 H 1004.17 3.88416 -4.57442 0
M  V30 10259 H 1005.24 2.54266 -4.12888 0
M  V30 10260 N 1006.59 1.25851 0.948643 0
M  V30 10261 C 1007.5 1.08516 2.07994 0
M  V30 10262 C 1008.51 0.0206696 1.73988 0
M  V30 10263 O 1009.69 0.222854 2.00163 0
M  V30 10264 C 1006.75 0.712145 3.39307 0
M  V30 10265 C 1005.81 1.85523 3.87143 0
M  V30 10266 C 1005.05 1.49992 5.1219 0
M  V30 10267 O 1005.27 0.398268 5.69008 0
M  V30 10268 O 1004.2 2.33215 5.54882 0
M  V30 10269 H 1008.03 2.03405 2.25522 0
M  V30 10270 H 1005.62 1.04844 1.06433 0
M  V30 10271 H 1007.5 0.516512 4.18223 0
M  V30 10272 H 1006.17 -0.207416 3.23035 0
M  V30 10273 H 1005.08 2.10578 3.09205 0
M  V30 10274 H 1006.41 2.75425 4.07924 0
M  V30 10275 N 1008.06 -1.15214 1.07534 0
M  V30 10276 C 1008.97 -2.23636 0.708818 0
M  V30 10277 C 1009.99 -1.7172 -0.280759 0
M  V30 10278 O 1011.17 -2.01 -0.126927 0
M  V30 10279 C 1008.23 -3.46512 0.114167 0
M  V30 10280 C 1007.29 -4.13409 1.15722 0
M  V30 10281 C 1006.53 -5.30419 0.59085 0
M  V30 10282 O 1006.75 -5.67314 -0.592512 0
M  V30 10283 O 1005.68 -5.86871 1.33663 0
M  V30 10284 H 1009.51 -2.57322 1.61305 0
M  V30 10285 H 1007.09 -1.22972 0.848422 0
M  V30 10286 H 1008.98 -4.20851 -0.215091 0
M  V30 10287 H 1007.65 -3.1457 -0.763356 0
M  V30 10288 H 1006.56 -3.40984 1.53886 0
M  V30 10289 H 1007.89 -4.49435 2.00671 0
M  V30 10290 N 1009.54 -0.859717 -1.32086 0
M  V30 10291 C 1010.45 -0.31108 -2.32528 0
M  V30 10292 C 1011.47 0.573714 -1.6427 0
M  V30 10293 O 1012.64 0.472878 -1.9577 0
M  V30 10294 C 1009.71 0.487256 -3.43259 0
M  V30 10295 C 1008.77 -0.424279 -4.27198 0
M  V30 10296 C 1008 0.336051 -5.32641 0
M  V30 10297 O 1008.23 1.56541 -5.48499 0
M  V30 10298 O 1007.16 -0.300777 -6.01148 0
M  V30 10299 H 1010.99 -1.14336 -2.81355 0
M  V30 10300 H 1008.57 -0.622794 -1.358 0
M  V30 10301 H 1010.45 0.940203 -4.10777 0
M  V30 10302 H 1009.13 1.29626 -2.96612 0
M  V30 10303 H 1008.04 -0.925509 -3.62471 0
M  V30 10304 H 1009.37 -1.1986 -4.77383 0
M  V30 10305 N 1011.02 1.44971 -0.618145 0
M  V30 10306 C 1012.27 2.0176 -0.11725 0
M  V30 10307 C 1012.59 1.48773 1.26062 0
M  V30 10308 O 1011.86 0.686152 1.83491 0
M  V30 10309 H 1010.44 0.745909 -0.0403545 0
M  V30 10310 H 1013.1 1.77638 -0.801923 0
M  V30 10311 H 1012.2 3.1201 -0.0750477 0
M  V30 10312 N 1012.5 0.357919 1.53482 0
M  V30 10313 C 1013.43 -0.484231 2.28424 0
M  V30 10314 C 1014.41 -1.09046 1.30548 0
M  V30 10315 O 1015.59 -1.10916 1.59409 0
M  V30 10316 C 1012.72 -1.62803 3.06778 0
M  V30 10317 C 1011.68 -1.14943 4.12277 0
M  V30 10318 C 1011 -2.38287 4.78669 0
M  V30 10319 C 1012.3 -0.239627 5.2175 0
M  V30 10320 H 1014 0.140979 2.99068 0
M  V30 10321 H 1011.54 0.069244 1.43833 0
M  V30 10322 H 1013.5 -2.22374 3.57949 0
M  V30 10323 H 1012.22 -2.28036 2.3381 0
M  V30 10324 H 1010.88 -0.576442 3.6204 0
M  V30 10325 H 1010.53 -3.01959 4.02281 0
M  V30 10326 H 1010.23 -2.06939 5.49955 0
M  V30 10327 H 1011.75 -2.98558 5.32631 0
M  V30 10328 H 1013.17 -0.742597 5.6847 0
M  V30 10329 H 1011.56 -0.0173747 6.00097 0
M  V30 10330 H 1012.63 0.720333 4.7952 0
M  V30 10331 N 1013.98 -1.5736 0.0868897 0
M  V30 10332 C 1015.21 -1.981 -0.586498 0
M  V30 10333 C 1015.61 -0.96455 -1.62767 0
M  V30 10334 O 1014.96 0.0551801 -1.83617 0
M  V30 10335 C 1015.02 -3.35193 -1.29947 0
M  V30 10336 C 1014.68 -4.55157 -0.410012 0
M  V30 10337 C 1015.68 -5.18797 0.338532 0
M  V30 10338 C 1013.37 -5.01212 -0.33047 0
M  V30 10339 C 1015.36 -6.26854 1.15468 0
M  V30 10340 C 1013.05 -6.09138 0.48934 0
M  V30 10341 C 1014.04 -6.71823 1.23057 0
M  V30 10342 O 1013.73 -7.77669 2.03683 0
M  V30 10343 H 1013.46 -0.656166 -0.16255 0
M  V30 10344 H 1016.02 -2.04773 0.160379 0
M  V30 10345 H 1014.25 -3.25179 -2.09274 0
M  V30 10346 H 1015.94 -3.60435 -1.86658 0
M  V30 10347 H 1016.7 -4.84151 0.286764 0
M  V30 10348 H 1012.58 -4.52188 -0.897058 0
M  V30 10349 H 1016.13 -6.75712 1.73374 0
M  V30 10350 H 1012.02 -6.43215 0.542618 0
M  V30 10351 H 1012.79 -7.94618 1.96277 0
M  V30 10352 N 1015.45 0.186762 -1.56489 0
M  V30 10353 C 1016.38 1.23395 -1.98232 0
M  V30 10354 C 1017.37 1.4702 -0.855526 0
M  V30 10355 O 1018.55 1.58616 -1.12048 0
M  V30 10356 C 1015.68 2.57635 -2.32898 0
M  V30 10357 C 1014.63 2.48607 -3.48394 0
M  V30 10358 C 1013.96 3.87196 -3.68759 0
M  V30 10359 C 1015.26 2.00398 -4.82325 0
M  V30 10360 H 1016.95 0.887026 -2.85958 0
M  V30 10361 H 1014.5 0.42525 -1.37578 0
M  V30 10362 H 1016.45 3.31082 -2.60696 0
M  V30 10363 H 1015.18 2.94084 -1.42064 0
M  V30 10364 H 1013.84 1.77615 -3.207 0
M  V30 10365 H 1013.48 4.21012 -2.75241 0
M  V30 10366 H 1013.18 3.82029 -4.46462 0
M  V30 10367 H 1014.71 4.62253 -3.98941 0
M  V30 10368 H 1016.12 2.6361 -5.091 0
M  V30 10369 H 1014.52 2.06214 -5.63556 0
M  V30 10370 H 1015.59 0.957562 -4.75351 0
M  V30 10371 N 1016.93 1.50896 0.454776 0
M  V30 10372 C 1018.17 1.64347 1.21529 0
M  V30 10373 C 1018.54 0.343869 1.88896 0
M  V30 10374 O 1019.74 0.353973 2.66459 0
M  V30 10375 C 1018.01 2.80199 2.21864 0
M  V30 10376 S 1019.57 3.13879 3.06636 0
M  V30 10377 H 1016.39 0.579193 0.412379 0
M  V30 10378 H 1018.99 1.88741 0.509629 0
M  V30 10379 H 1017.69 3.73086 1.70982 0
M  V30 10380 H 1017.22 2.57941 2.97036 0
M  V30 10381 H 1019.24 2.58964 4.23264 0
M  V30 10382 N 1018.41 -0.709066 1.40748 0
M  V30 10383 C 1019.32 -1.85314 1.43861 0
M  V30 10384 C 1020.34 -1.70832 0.330539 0
M  V30 10385 O 1021.51 -1.92983 0.576152 0
M  V30 10386 C 1018.58 -3.21174 1.30568 0
M  V30 10387 C 1017.64 -3.47863 2.51574 0
M  V30 10388 C 1016.87 -4.77241 2.38906 0
M  V30 10389 O 1017.09 -5.52791 1.40636 0
M  V30 10390 O 1016.03 -5.04413 3.28407 0
M  V30 10391 H 1019.85 -1.85644 2.40354 0
M  V30 10392 H 1017.44 -0.860352 1.2214 0
M  V30 10393 H 1019.32 -4.02313 1.25388 0
M  V30 10394 H 1018 -3.21557 0.371841 0
M  V30 10395 H 1016.9 -2.66708 2.62331 0
M  V30 10396 H 1018.24 -3.52283 3.43741 0
M  V30 10397 N 1019.89 -1.26353 -0.941956 0
M  V30 10398 C 1020.85 -1.07904 -2.02211 0
M  V30 10399 C 1021.85 -0.0276283 -1.60776 0
M  V30 10400 O 1023.04 -0.270965 -1.7208 0
M  V30 10401 C 1020.17 -0.641084 -3.34818 0
M  V30 10402 H 1021.37 -2.03804 -2.20009 0
M  V30 10403 H 1018.92 -1.08939 -1.12081 0
M  V30 10404 H 1019.66 0.319943 -3.22718 0
M  V30 10405 H 1019.44 -1.40027 -3.66244 0
M  V30 10406 H 1020.93 -0.533826 -4.14174 0
M  V30 10407 N 1021.37 1.14642 -1.08144 0
M  V30 10408 C 1022.59 1.90025 -0.830972 0
M  V30 10409 C 1023.02 1.77904 0.610879 0
M  V30 10410 O 1022.38 1.11735 1.42776 0
M  V30 10411 C 1022.42 3.38085 -1.25422 0
M  V30 10412 O 1021.53 4.10412 -0.404486 0
M  V30 10413 H 1020.87 0.591327 -0.302041 0
M  V30 10414 H 1023.4 1.4513 -1.44216 0
M  V30 10415 H 1023.41 3.88894 -1.23391 0
M  V30 10416 H 1022.08 3.46226 -2.30435 0
M  V30 10417 H 1020.66 3.69693 -0.487987 0
M  V30 10418 N 1022.85 0.866709 1.31628 0
M  V30 10419 C 1023.79 0.309128 2.30537 0
M  V30 10420 C 1024.79 -0.574028 1.59378 0
M  V30 10421 O 1025.99 -0.460491 1.7401 0
M  V30 10422 H 1022.37 0.081279 0.747595 0
M  V30 10423 H 1024.34 1.15734 2.75042 0
M  V30 10424 C 1023.09 -0.477287 3.44409 0
M  V30 10425 H 1022.41 0.19301 3.99334 0
M  V30 10426 H 1023.85 -0.832818 4.1574 0
M  V30 10427 C 1022.31 -1.66727 2.92752 0
M  V30 10428 O 1022.84 -2.76654 2.91248 0
M  V30 10429 N 1021.05 -1.49833 2.48995 0
M  V30 10430 H 1020.59 -0.604073 2.50417 0
M  V30 10431 H 1020.55 -2.29594 2.14788 0
M  V30 10432 N 1024.32 -1.44642 0.625825 0
M  V30 10433 C 1025.29 -2.29085 -0.072526 0
M  V30 10434 C 1026.29 -1.40755 -0.777467 0
M  V30 10435 O 1027.48 -1.62684 -0.622861 0
M  V30 10436 C 1024.61 -3.22212 -1.1132 0
M  V30 10437 H 1025.8 -2.92317 0.670124 0
M  V30 10438 H 1023.35 -1.51466 0.38571 0
M  V30 10439 H 1024.09 -2.63819 -1.88601 0
M  V30 10440 H 1023.87 -3.87299 -0.611709 0
M  V30 10441 H 1025.36 -3.8566 -1.60175 0
M  V30 10442 N 1025.8 -0.366053 -1.5329 0
M  V30 10443 C 1026.73 0.47211 -2.28677 0
M  V30 10444 C 1027.71 1.08353 -1.31125 0
M  V30 10445 O 1028.9 1.10069 -1.59995 0
M  V30 10446 C 1026.03 1.61174 -3.07637 0
M  V30 10447 C 1024.98 1.12755 -4.12881 0
M  V30 10448 C 1024.31 2.35745 -4.79925 0
M  V30 10449 C 1025.61 0.211954 -5.2187 0
M  V30 10450 H 1027.3 -0.156838 -2.98989 0
M  V30 10451 H 1024.85 -0.0768709 -1.43795 0
M  V30 10452 H 1026.8 2.20473 -3.59123 0
M  V30 10453 H 1025.52 2.26793 -2.35016 0
M  V30 10454 H 1024.18 0.557234 -3.6234 0
M  V30 10455 H 1023.83 2.99821 -4.03877 0
M  V30 10456 H 1023.53 2.04019 -5.51044 0
M  V30 10457 H 1025.06 2.95729 -5.34207 0
M  V30 10458 H 1026.47 0.71244 -5.68856 0
M  V30 10459 H 1024.87 -0.0144501 -6.00098 0
M  V30 10460 H 1025.94 -0.745753 -4.79131 0
M  V30 10461 N 1027.28 1.57312 -0.0952337 0
M  V30 10462 C 1028.53 1.93974 0.567319 0
M  V30 10463 C 1028.85 0.977805 1.68713 0
M  V30 10464 O 1028.12 0.0298944 1.95877 0
M  V30 10465 H 1026.7 0.71612 0.212558 0
M  V30 10466 H 1029.36 1.94254 -0.158598 0
M  V30 10467 H 1028.46 2.964 0.977423 0
M  V30 10468 N 1028.76 -0.17846 1.56586 0
M  V30 10469 C 1029.71 -1.24042 1.96765 0
M  V30 10470 C 1030.7 -1.46218 0.855375 0
M  V30 10471 O 1031.91 -1.46882 1.04046 0
M  V30 10472 H 1028.28 -0.416807 0.62592 0
M  V30 10473 H 1030.25 -0.874644 2.85294 0
M  V30 10474 C 1029 -2.57394 2.3376 0
M  V30 10475 H 1028.32 -2.41151 3.18883 0
M  V30 10476 H 1029.76 -3.30405 2.65723 0
M  V30 10477 C 1028.22 -3.15621 1.17835 0
M  V30 10478 O 1028.75 -3.99032 0.462202 0
M  V30 10479 N 1026.96 -2.74606 0.950783 0
M  V30 10480 H 1026.51 -2.06878 1.5349 0
M  V30 10481 H 1026.46 -3.13902 0.176967 0
M  V30 10482 N 1030.24 -1.51135 -0.446768 0
M  V30 10483 C 1031.2 -1.71187 -1.52406 0
M  V30 10484 C 1032.2 -0.582037 -1.49897 0
M  V30 10485 O 1033.39 -0.849452 -1.52085 0
M  V30 10486 C 1030.52 -1.75962 -2.91976 0
M  V30 10487 H 1031.71 -2.67324 -1.35934 0
M  V30 10488 H 1029.27 -1.40982 -0.674813 0
M  V30 10489 H 1030 -0.816065 -3.13864 0
M  V30 10490 H 1029.79 -2.58065 -2.95203 0
M  V30 10491 H 1031.28 -1.93347 -3.70144 0
M  V30 10492 N 1031.71 0.701592 -1.41122 0
M  V30 10493 C 1032.94 1.49553 -1.43696 0
M  V30 10494 C 1033.36 1.88053 -0.0421865 0
M  V30 10495 O 1032.72 1.54223 0.953144 0
M  V30 10496 C 1032.77 2.73834 -2.34622 0
M  V30 10497 O 1031.87 3.71088 -1.7991 0
M  V30 10498 H 1031.21 0.450352 -0.487933 0
M  V30 10499 H 1033.74 0.862886 -1.85514 0
M  V30 10500 H 1033.75 3.22209 -2.5029 0
M  V30 10501 H 1032.43 2.45149 -3.35969 0
M  V30 10502 H 1031.01 3.29994 -1.73661 0
M  V30 10503 N 1033.19 1.2685 0.935242 0
M  V30 10504 C 1034.42 1.15538 1.71635 0
M  V30 10505 C 1034.83 -0.288698 1.8658 0
M  V30 10506 O 1034.19 -1.19721 1.37743 0
M  V30 10507 C 1034.24 1.8259 3.11999 0
M  V30 10508 O 1033.96 3.21355 2.97763 0
M  V30 10509 C 1035.46 1.77307 4.06297 0
M  V30 10510 H 1032.68 0.402055 0.537208 0
M  V30 10511 H 1035.23 1.67582 1.17203 0
M  V30 10512 H 1033.38 1.3447 3.63313 0
M  V30 10513 H 1033.8 3.54626 3.86446 0
M  V30 10514 H 1035.27 2.28851 5.02326 0
M  V30 10515 H 1035.75 0.740823 4.32907 0
M  V30 10516 H 1036.35 2.25007 3.60904 0
M  V30 10517 N 1034.67 -1.14067 1.0875 0
M  V30 10518 C 1035.9 -1.89582 0.841038 0
M  V30 10519 C 1036.32 -1.78226 -0.601436 0
M  V30 10520 O 1035.68 -1.12491 -1.42181 0
M  V30 10521 C 1035.73 -3.37415 1.27213 0
M  V30 10522 O 1034.83 -4.10191 0.426246 0
M  V30 10523 H 1034.17 -0.589716 0.305173 0
M  V30 10524 H 1036.7 -1.44364 1.44984 0
M  V30 10525 H 1036.71 -3.88234 1.25451 0
M  V30 10526 H 1035.39 -3.44999 2.32268 0
M  V30 10527 H 1033.96 -3.69429 0.507585 0
M  V30 10528 N 1036.15 -0.873678 -1.31166 0
M  V30 10529 C 1037.11 -0.337069 -2.26708 0
M  V30 10530 C 1038.11 0.51406 -1.52362 0
M  V30 10531 O 1039.3 0.322834 -1.71182 0
M  V30 10532 C 1036.43 0.520897 -3.36897 0
M  V30 10533 H 1037.63 -1.18056 -2.75686 0
M  V30 10534 H 1035.18 -0.649577 -1.42163 0
M  V30 10535 H 1035.91 1.38543 -2.93217 0
M  V30 10536 H 1035.7 -0.0886015 -3.92 0
M  V30 10537 H 1037.19 0.888497 -4.08039 0
M  V30 10538 N 1037.63 1.44308 -0.633487 0
M  V30 10539 C 1038.85 2.06384 -0.146063 0
M  V30 10540 C 1039.27 1.47357 1.18031 0
M  V30 10541 O 1038.63 0.597334 1.72448 0
M  V30 10542 C 1038.68 3.61489 -0.0276722 0
M  V30 10543 O 1038.4 4.18318 -1.3016 0
M  V30 10544 C 1039.9 4.40604 0.488168 0
M  V30 10545 H 1037.12 0.666122 -0.0807632 0
M  V30 10546 H 1039.66 1.85139 -0.868557 0
M  V30 10547 H 1037.82 3.81988 0.645273 0
M  V30 10548 H 1038.23 5.11783 -1.14797 0
M  V30 10549 H 1039.71 5.49545 0.520013 0
M  V30 10550 H 1040.18 4.12218 1.51568 0
M  V30 10551 H 1040.79 4.2503 -0.151608 0
M  V30 10552 N 1039.1 0.374177 1.53094 0
M  V30 10553 C 1040.35 -0.212816 2.01379 0
M  V30 10554 C 1040.68 -1.48069 1.26118 0
M  V30 10555 O 1039.93 -1.92625 0.345561 0
M  V30 10556 C 1040.23 -0.542179 3.53264 0
M  V30 10557 C 1039.9 0.632375 4.46444 0
M  V30 10558 C 1038.56 0.954635 4.71636 0
M  V30 10559 C 1040.91 1.41887 5.01515 0
M  V30 10560 C 1038.24 2.06521 5.4915 0
M  V30 10561 C 1040.59 2.51993 5.80243 0
M  V30 10562 C 1039.26 2.84744 6.03719 0
M  V30 10563 H 1038.53 -0.0778749 0.736897 0
M  V30 10564 H 1041.17 0.508412 1.84628 0
M  V30 10565 H 1039.48 -1.34454 3.68007 0
M  V30 10566 H 1041.18 -1.00874 3.88105 0
M  V30 10567 H 1037.77 0.371179 4.2699 0
M  V30 10568 H 1041.95 1.18315 4.81991 0
M  V30 10569 H 1037.21 2.32284 5.65557 0
M  V30 10570 H 1041.38 3.13346 6.21922 0
M  V30 10571 H 1039.01 3.70921 6.63568 0
M  V30 10572 N 1040.58 -1.57259 0.103575 0
M  V30 10573 C 1041.53 -2.15727 -0.869739 0
M  V30 10574 C 1042.52 -1.10236 -1.28625 0
M  V30 10575 O 1043.73 -1.28567 -1.25979 0
M  V30 10576 H 1040.11 -0.690204 -0.298535 0
M  V30 10577 H 1042.08 -2.96317 -0.351984 0
M  V30 10578 C 1040.83 -2.75905 -2.11593 0
M  V30 10579 H 1040.15 -3.56768 -1.80434 0
M  V30 10580 H 1041.59 -3.20373 -2.77736 0
M  V30 10581 C 1040.05 -1.72218 -2.89556 0
M  V30 10582 O 1040.58 -1.16623 -3.84398 0
M  V30 10583 N 1038.78 -1.42514 -2.53255 0
M  V30 10584 H 1038.33 -1.87914 -1.76198 0
M  V30 10585 H 1038.29 -0.733782 -3.05717 0
M  V30 10586 N 1042.06 0.170153 -1.56679 0
M  V30 10587 C 1043.31 0.884841 -1.817 0
M  V30 10588 C 1043.63 1.82731 -0.680763 0
M  V30 10589 O 1042.9 1.936 0.299294 0
M  V30 10590 H 1041.48 0.329738 -0.670285 0
M  V30 10591 H 1044.14 0.169691 -1.9416 0
M  V30 10592 H 1043.24 1.46104 -2.7579 0
M  V30 10593 N 1043.54 1.5137 0.438746 0
M  V30 10594 C 1044.47 1.68774 1.55074 0
M  V30 10595 C 1045.48 0.568436 1.52554 0
M  V30 10596 O 1046.67 0.842707 1.57355 0
M  V30 10597 C 1043.77 1.68592 2.9399 0
M  V30 10598 C 1042.95 2.97084 3.2103 0
M  V30 10599 C 1042 2.89108 4.39663 0
M  V30 10600 O 1041.03 3.63052 4.38385 0
M  V30 10601 N 1042.23 2.04863 5.4315 0
M  V30 10602 H 1045 2.647 1.40549 0
M  V30 10603 H 1042.56 1.49238 0.627663 0
M  V30 10604 H 1044.55 1.60826 3.71372 0
M  V30 10605 H 1043.12 0.802657 3.02119 0
M  V30 10606 H 1042.34 3.18729 2.3196 0
M  V30 10607 H 1043.63 3.82143 3.35923 0
M  V30 10608 H 1043.03 1.4416 5.47023 0
M  V30 10609 H 1041.58 2.02977 6.1939 0
M  V30 10610 N 1045.02 -0.694098 1.41492 0
M  V30 10611 C 1045.98 -1.78976 1.43179 0
M  V30 10612 C 1046.98 -1.57539 0.322191 0
M  V30 10613 O 1048.17 -1.64185 0.582138 0
M  V30 10614 C 1045.3 -3.17368 1.2446 0
M  V30 10615 H 1046.49 -1.78874 2.40716 0
M  V30 10616 H 1044.05 -0.901867 1.27656 0
M  V30 10617 H 1044.78 -3.23109 0.277691 0
M  V30 10618 H 1044.57 -3.3433 2.04856 0
M  V30 10619 H 1046.06 -3.97345 1.28479 0
M  V30 10620 N 1046.49 -1.27344 -0.928501 0
M  V30 10621 C 1047.72 -1.16447 -1.7102 0
M  V30 10622 C 1048.14 0.278799 -1.8673 0
M  V30 10623 O 1047.49 1.18989 -1.38376 0
M  V30 10624 C 1047.55 -1.84242 -3.11026 0
M  V30 10625 O 1047.27 -3.2293 -2.96054 0
M  V30 10626 C 1048.77 -1.7946 -4.05351 0
M  V30 10627 H 1045.99 -0.404898 -0.535069 0
M  V30 10628 H 1048.53 -1.68201 -1.16313 0
M  V30 10629 H 1046.69 -1.36395 -3.62595 0
M  V30 10630 H 1047.1 -3.5667 -3.8456 0
M  V30 10631 H 1048.57 -2.31511 -5.01105 0
M  V30 10632 H 1049.05 -0.763771 -4.32508 0
M  V30 10633 H 1049.66 -2.26918 -3.59706 0
M  V30 10634 N 1047.97 1.13488 -1.09353 0
M  V30 10635 C 1049.22 1.85022 -0.830354 0
M  V30 10636 C 1049.55 1.83266 0.64242 0
M  V30 10637 O 1048.83 1.27024 1.47293 0
M  V30 10638 C 1049.11 3.33218 -1.36521 0
M  V30 10639 C 1048.96 3.43491 -2.90404 0
M  V30 10640 C 1050.28 4.28626 -0.998381 0
M  V30 10641 H 1047.4 0.671786 -0.303105 0
M  V30 10642 H 1050.04 1.33211 -1.3548 0
M  V30 10643 H 1048.19 3.77471 -0.919117 0
M  V30 10644 H 1049.86 3.07954 -3.43456 0
M  V30 10645 H 1048.11 2.84391 -3.27573 0
M  V30 10646 H 1048.78 4.47702 -3.22905 0
M  V30 10647 H 1051.25 3.9244 -1.38311 0
M  V30 10648 H 1050.13 5.30754 -1.39968 0
M  V30 10649 H 1050.39 4.42001 0.093517 0
M  V30 10650 N 1049.45 0.880621 1.30701 0
M  V30 10651 C 1050.38 0.360251 2.30704 0
M  V30 10652 C 1051.36 -0.554572 1.60806 0
M  V30 10653 O 1052.55 -0.469345 1.88443 0
M  V30 10654 C 1049.68 -0.429888 3.44629 0
M  V30 10655 C 1048.63 0.392786 4.26194 0
M  V30 10656 C 1047.96 -0.52369 5.32129 0
M  V30 10657 C 1049.26 1.63258 4.96129 0
M  V30 10658 H 1050.95 1.19591 2.74478 0
M  V30 10659 H 1048.5 0.576508 1.31956 0
M  V30 10660 H 1050.45 -0.804532 4.13649 0
M  V30 10661 H 1049.17 -1.29916 2.99649 0
M  V30 10662 H 1047.83 0.749514 3.58856 0
M  V30 10663 H 1047.48 -1.39054 4.83397 0
M  V30 10664 H 1047.18 0.0229272 5.87596 0
M  V30 10665 H 1048.71 -0.894946 6.04006 0
M  V30 10666 H 1050.12 1.32877 5.57689 0
M  V30 10667 H 1048.52 2.11906 5.61441 0
M  V30 10668 H 1049.59 2.37944 4.22505 0
M  V30 10669 N 1050.93 -1.4397 0.641131 0
M  V30 10670 C 1051.89 -2.29149 -0.0482243 0
M  V30 10671 C 1052.89 -1.41572 -0.762495 0
M  V30 10672 O 1054.08 -1.63335 -0.605571 0
M  V30 10673 C 1051.21 -3.23375 -1.07896 0
M  V30 10674 H 1052.41 -2.9159 0.70109 0
M  V30 10675 H 1049.96 -1.51048 0.401754 0
M  V30 10676 H 1050.7 -2.65804 -1.85792 0
M  V30 10677 H 1050.48 -3.87926 -0.570597 0
M  V30 10678 H 1051.97 -3.87337 -1.56075 0
M  V30 10679 N 1052.41 -0.382291 -1.52893 0
M  V30 10680 C 1053.66 0.203342 -2.00672 0
M  V30 10681 C 1053.97 1.48487 -1.27322 0
M  V30 10682 O 1055.18 2.15013 -1.65776 0
M  V30 10683 C 1053.63 0.412922 -3.57523 0
M  V30 10684 C 1053.24 -0.854949 -4.39767 0
M  V30 10685 C 1054.98 0.955301 -4.13611 0
M  V30 10686 C 1052.89 -0.614033 -5.88204 0
M  V30 10687 H 1051.82 0.0797635 -0.749769 0
M  V30 10688 H 1054.47 -0.50361 -1.76454 0
M  V30 10689 H 1052.85 1.18155 -3.77962 0
M  V30 10690 H 1054.03 -1.62765 -4.31096 0
M  V30 10691 H 1052.34 -1.32176 -3.94865 0
M  V30 10692 H 1054.94 1.15114 -5.22162 0
M  V30 10693 H 1055.28 1.92233 -3.69259 0
M  V30 10694 H 1055.82 0.24642 -3.97036 0
M  V30 10695 H 1052.55 -1.55187 -6.36865 0
M  V30 10696 H 1052.07 0.119865 -5.9968 0
M  V30 10697 H 1053.75 -0.245895 -6.46533 0
M  V30 10698 N 1053.89 1.57202 -0.111913 0
M  V30 10699 C 1054.85 2.13778 0.826534 0
M  V30 10700 C 1055.85 1.07097 1.19945 0
M  V30 10701 O 1057.04 1.32906 1.12613 0
M  V30 10702 C 1054.17 2.6722 2.11675 0
M  V30 10703 H 1055.36 2.98023 0.334975 0
M  V30 10704 H 1052.92 1.55696 0.137256 0
M  V30 10705 H 1053.65 1.86542 2.65278 0
M  V30 10706 H 1053.44 3.45235 1.8589 0
M  V30 10707 H 1054.93 3.10926 2.78774 0
M  V30 10708 N 1055.36 -0.161842 1.56767 0
M  V30 10709 C 1056.77 -0.723385 1.72116 0
M  V30 10710 C 1057.13 -1.82355 0.723961 0
M  V30 10711 O 1056.25 -2.16107 -0.112643 0
M  V30 10712 C 1056.85 -1.31895 3.12072 0
M  V30 10713 C 1055.4 -1.82722 3.29074 0
M  V30 10714 C 1054.55 -0.709863 2.6806 0
M  V30 10715 H 1057.5 0.0636647 1.58572 0
M  V30 10716 H 1057.52 -2.18871 3.11249 0
M  V30 10717 H 1057.04 -0.51801 3.84627 0
M  V30 10718 H 1055.14 -2.6543 2.61491 0
M  V30 10719 H 1055.25 -1.96614 4.36898 0
M  V30 10720 H 1053.61 -1.13273 2.28126 0
M  V30 10721 H 1054.4 0.0793884 3.43208 0
M  V30 10722 N 1056.84 -1.516 -0.430713 0
M  V30 10723 C 1058.07 -1.687 -1.20644 0
M  V30 10724 C 1058.49 -0.386555 -1.84085 0
M  V30 10725 O 1057.85 0.653952 -1.69095 0
M  V30 10726 C 1057.9 -2.80887 -2.2613 0
M  V30 10727 O 1057 -2.44952 -3.31772 0
M  V30 10728 H 1056.34 -0.562289 -0.353167 0
M  V30 10729 H 1058.87 -1.98198 -0.507807 0
M  V30 10730 H 1058.88 -3.05167 -2.70809 0
M  V30 10731 H 1057.56 -3.75249 -1.79334 0
M  V30 10732 H 1056.13 -2.31267 -2.92523 0
M  V30 10733 N 1058.32 0.686584 -1.41858 0
M  V30 10734 C 1059.27 1.79271 -1.40875 0
M  V30 10735 C 1060.25 1.58413 -0.281782 0
M  V30 10736 O 1061.45 1.69093 -0.523132 0
M  V30 10737 C 1058.57 3.17647 -1.30213 0
M  V30 10738 C 1057.66 3.44168 -2.47808 0
M  V30 10739 N 1058.05 3.41339 -3.73258 0
M  V30 10740 C 1056.35 3.74755 -2.41815 0
M  V30 10741 C 1057.05 3.67016 -4.51303 0
M  V30 10742 N 1056.03 3.87203 -3.81543 0
M  V30 10743 H 1059.83 1.75459 -2.35778 0
M  V30 10744 H 1057.34 0.886946 -1.36041 0
M  V30 10745 H 1059.34 3.96896 -1.2759 0
M  V30 10746 H 1058 3.22664 -0.363021 0
M  V30 10747 H 1059.01 3.21511 -4.06018 0
M  V30 10748 H 1055.69 3.87089 -1.56423 0
M  V30 10749 H 1057.08 3.70888 -5.6026 0
M  V30 10750 N 1059.8 1.27835 0.921735 0
M  V30 10751 C 1061.03 1.17352 1.704 0
M  V30 10752 C 1061.44 -0.268892 1.86875 0
M  V30 10753 O 1060.8 -1.18253 1.39005 0
M  V30 10754 C 1060.85 1.85889 3.10045 0
M  V30 10755 O 1060.57 3.24495 2.94338 0
M  V30 10756 C 1062.07 1.81607 4.04393 0
M  V30 10757 H 1059.29 0.40773 0.532914 0
M  V30 10758 H 1061.83 1.68815 1.15419 0
M  V30 10759 H 1059.99 1.38316 3.61867 0
M  V30 10760 H 1060.4 3.58705 3.82663 0
M  V30 10761 H 1061.88 2.34165 4.99871 0
M  V30 10762 H 1062.35 0.786697 4.32097 0
M  V30 10763 H 1062.96 2.28822 3.58498 0
M  V30 10764 N 1061.28 -1.12907 1.09954 0
M  V30 10765 C 1062.21 -2.20585 0.765799 0
M  V30 10766 C 1063.19 -1.68117 -0.258989 0
M  V30 10767 O 1064.37 -1.93792 -0.125853 0
M  V30 10768 C 1061.5 -3.46772 0.191435 0
M  V30 10769 C 1060.46 -4.12363 1.14635 0
M  V30 10770 C 1059.78 -5.3294 0.433426 0
M  V30 10771 C 1061.08 -4.59073 2.49096 0
M  V30 10772 H 1062.78 -2.48759 1.66612 0
M  V30 10773 H 1060.32 -1.19563 0.802534 0
M  V30 10774 H 1062.27 -4.21365 -0.0541535 0
M  V30 10775 H 1061 -3.18011 -0.744101 0
M  V30 10776 H 1059.66 -3.39744 1.37731 0
M  V30 10777 H 1059.31 -5.00444 -0.506422 0
M  V30 10778 H 1059.01 -5.77772 1.07018 0
M  V30 10779 H 1060.53 -6.10284 0.196267 0
M  V30 10780 H 1061.94 -5.25063 2.30177 0
M  V30 10781 H 1060.34 -5.14665 3.0861 0
M  V30 10782 H 1061.41 -3.73313 3.0946 0
M  V30 10783 N 1062.75 -0.88754 -1.30232 0
M  V30 10784 C 1063.69 -0.313488 -2.27046 0
M  V30 10785 C 1064.7 0.533383 -1.53814 0
M  V30 10786 O 1065.89 0.352516 -1.74984 0
M  V30 10787 C 1062.99 0.572674 -3.34026 0
M  V30 10788 C 1062.16 -0.245712 -4.36709 0
M  V30 10789 C 1061.22 0.57135 -5.23089 0
M  V30 10790 O 1060.25 -0.00685948 -5.692 0
M  V30 10791 N 1061.45 1.87994 -5.49216 0
M  V30 10792 H 1064.21 -1.14553 -2.76943 0
M  V30 10793 H 1061.77 -0.750785 -1.43439 0
M  V30 10794 H 1063.77 1.12539 -3.88738 0
M  V30 10795 H 1062.34 1.3054 -2.84039 0
M  V30 10796 H 1061.56 -0.979869 -3.81827 0
M  V30 10797 H 1062.84 -0.806618 -5.02366 0
M  V30 10798 H 1062.24 2.3726 -5.13541 0
M  V30 10799 H 1060.8 2.38005 -6.06792 0
M  V30 10800 N 1064.23 1.43628 -0.648757 0
M  V30 10801 C 1065.14 2.34554 0.0463037 0
M  V30 10802 C 1066.16 1.53629 0.816952 0
M  V30 10803 O 1067.33 1.86297 0.765212 0
M  V30 10804 C 1064.4 3.3185 1.00381 0
M  V30 10805 C 1063.46 4.2868 0.230589 0
M  V30 10806 C 1062.69 5.21328 1.14249 0
M  V30 10807 O 1062.92 5.18298 2.38166 0
M  V30 10808 O 1061.85 5.98726 0.617296 0
M  V30 10809 H 1065.68 2.95475 -0.702008 0
M  V30 10810 H 1063.26 1.43694 -0.408942 0
M  V30 10811 H 1065.14 3.91692 1.5542 0
M  V30 10812 H 1063.82 2.73439 1.73243 0
M  V30 10813 H 1062.73 3.72332 -0.363282 0
M  V30 10814 H 1064.06 4.90061 -0.458368 0
M  V30 10815 N 1065.71 0.390394 1.52688 0
M  V30 10816 C 1066.96 -0.191067 2.01195 0
M  V30 10817 C 1067.28 -1.47229 1.27862 0
M  V30 10818 O 1066.55 -1.91793 0.399007 0
M  V30 10819 H 1065.13 -0.073596 0.743366 0
M  V30 10820 H 1067.79 0.522334 1.8777 0
M  V30 10821 H 1066.89 -0.40051 3.0952 0
M  V30 10822 N 1067.19 -1.57141 0.120249 0
M  V30 10823 C 1068.42 -1.99589 -0.545136 0
M  V30 10824 C 1068.83 -0.999951 -1.60145 0
M  V30 10825 O 1068.19 0.00698897 -1.82499 0
M  V30 10826 C 1068.24 -3.42038 -1.17014 0
M  V30 10827 O 1067.96 -4.37822 -0.156044 0
M  V30 10828 C 1069.46 -3.99625 -1.91872 0
M  V30 10829 H 1066.68 -0.655318 -0.144222 0
M  V30 10830 H 1069.23 -2.0345 0.206955 0
M  V30 10831 H 1067.38 -3.39113 -1.873 0
M  V30 10832 H 1067.79 -5.20937 -0.610317 0
M  V30 10833 H 1069.27 -5.01374 -2.30928 0
M  V30 10834 H 1069.75 -3.38836 -2.7944 0
M  V30 10835 H 1070.35 -4.061 -1.26345 0
M  V30 10836 N 1068.67 0.153526 -1.5685 0
M  V30 10837 C 1069.58 1.20932 -2.01029 0
M  V30 10838 C 1070.59 1.47401 -0.924598 0
M  V30 10839 O 1071.77 1.592 -1.23359 0
M  V30 10840 C 1068.83 2.52438 -2.37647 0
M  V30 10841 C 1067.89 2.33673 -3.60132 0
M  V30 10842 C 1067.13 3.58909 -3.94994 0
M  V30 10843 O 1067.35 4.64823 -3.30599 0
M  V30 10844 O 1066.28 3.5196 -4.8827 0
M  V30 10845 H 1070.11 0.864273 -2.91143 0
M  V30 10846 H 1067.7 0.361755 -1.44954 0
M  V30 10847 H 1069.58 3.29981 -2.62088 0
M  V30 10848 H 1068.25 2.86486 -1.5069 0
M  V30 10849 H 1067.16 1.54102 -3.40886 0
M  V30 10850 H 1068.49 2.04544 -4.47686 0
M  V30 10851 N 1070.14 1.51827 0.422667 0
M  V30 10852 C 1071.11 1.7359 1.49663 0
M  V30 10853 C 1072.11 0.605811 1.48952 0
M  V30 10854 O 1073.3 0.87354 1.50715 0
M  V30 10855 C 1070.43 1.80585 2.8914 0
M  V30 10856 H 1071.62 2.69453 1.31664 0
M  V30 10857 H 1069.18 1.42038 0.652298 0
M  V30 10858 H 1069.91 0.865895 3.12526 0
M  V30 10859 H 1069.7 2.62729 2.9106 0
M  V30 10860 H 1071.19 1.99212 3.67021 0
M  V30 10861 N 1071.62 -0.679052 1.4222 0
M  V30 10862 C 1072.57 -1.81398 1.45594 0
M  V30 10863 C 1073.56 -1.66112 0.332127 0
M  V30 10864 O 1074.77 -1.72772 0.504942 0
M  V30 10865 H 1071.15 -0.598045 0.455902 0
M  V30 10866 H 1073.12 -1.7567 2.41211 0
M  V30 10867 C 1071.87 -3.19525 1.37109 0
M  V30 10868 H 1071.19 -3.31912 2.22878 0
M  V30 10869 H 1072.63 -3.98967 1.43531 0
M  V30 10870 C 1071.09 -3.36792 0.0853593 0
M  V30 10871 O 1071.62 -3.92309 -0.863532 0
M  V30 10872 N 1069.82 -2.906 0.00389229 0
M  V30 10873 H 1069.37 -2.45607 0.776846 0
M  V30 10874 H 1069.33 -3.0253 -0.855742 0
M  V30 10875 N 1073.1 -1.28322 -0.914942 0
M  V30 10876 C 1074.03 -1.14681 -2.03398 0
M  V30 10877 C 1075.01 -0.0448939 -1.70041 0
M  V30 10878 O 1076.2 -0.221672 -1.92931 0
M  V30 10879 C 1073.33 -0.806623 -3.37803 0
M  V30 10880 C 1072.28 -1.86318 -3.85318 0
M  V30 10881 C 1071.61 -1.37665 -5.16674 0
M  V30 10882 C 1072.91 -3.26953 -4.07307 0
M  V30 10883 H 1074.6 -2.08293 -2.15068 0
M  V30 10884 H 1072.15 -1.00284 -1.03339 0
M  V30 10885 H 1074.1 -0.69796 -4.1558 0
M  V30 10886 H 1072.82 0.165203 -3.26182 0
M  V30 10887 H 1071.48 -1.96096 -3.09745 0
M  V30 10888 H 1071.13 -0.393927 -5.01455 0
M  V30 10889 H 1070.83 -2.08313 -5.49435 0
M  V30 10890 H 1072.35 -1.28119 -5.97007 0
M  V30 10891 H 1073.77 -3.20102 -4.75613 0
M  V30 10892 H 1072.17 -3.95424 -4.51398 0
M  V30 10893 H 1073.24 -3.71059 -3.12159 0
M  V30 10894 N 1074.58 1.12322 -1.10551 0
M  V30 10895 C 1075.81 1.87679 -0.87087 0
M  V30 10896 C 1076.22 1.79711 0.578733 0
M  V30 10897 O 1075.58 1.17185 1.39907 0
M  V30 10898 C 1075.63 3.36846 -1.31213 0
M  V30 10899 O 1075.35 3.44626 -2.70489 0
M  V30 10900 C 1076.85 4.29138 -1.11156 0
M  V30 10901 H 1074.07 0.593788 -0.3125 0
M  V30 10902 H 1076.62 1.42116 -1.47048 0
M  V30 10903 H 1074.77 3.79948 -0.756169 0
M  V30 10904 H 1075.18 4.37441 -2.89389 0
M  V30 10905 H 1076.66 5.32082 -1.46944 0
M  V30 10906 H 1077.14 4.39171 -0.0502963 0
M  V30 10907 H 1077.74 3.91818 -1.65405 0
M  V30 10908 N 1076.06 0.894434 1.2976 0
M  V30 10909 C 1077.3 0.524501 1.97556 0
M  V30 10910 C 1077.66 -0.911202 1.69 0
M  V30 10911 O 1078.86 -1.38774 2.30207 0
M  V30 10912 C 1077.13 0.802636 3.48271 0
M  V30 10913 S 1078.69 0.536223 4.35511 0
M  V30 10914 H 1075.51 0.194786 0.683798 0
M  V30 10915 H 1078.11 1.15574 1.5768 0
M  V30 10916 H 1076.82 1.84586 3.66546 0
M  V30 10917 H 1076.35 0.159316 3.93077 0
M  V30 10918 H 1078.36 -0.621056 4.92298 0
M  V30 10919 N 1077.53 -1.43282 0.656365 0
M  V30 10920 C 1078.48 -2.32556 -0.0452037 0
M  V30 10921 C 1079.48 -1.48789 -0.80982 0
M  V30 10922 O 1080.68 -1.64979 -0.719865 0
M  V30 10923 H 1077.06 -0.751258 -0.0334043 0
M  V30 10924 H 1079.03 -2.89448 0.725423 0
M  V30 10925 C 1077.78 -3.33138 -0.995706 0
M  V30 10926 H 1077.1 -3.97622 -0.416774 0
M  V30 10927 H 1078.54 -3.98231 -1.45562 0
M  V30 10928 C 1077 -2.63978 -2.09325 0
M  V30 10929 O 1077.53 -2.45769 -3.17743 0
M  V30 10930 N 1075.74 -2.23301 -1.8597 0
M  V30 10931 H 1075.28 -2.38312 -0.97802 0
M  V30 10932 H 1075.24 -1.77358 -2.59599 0
M  V30 10933 N 1079.01 -0.398486 -1.52479 0
M  V30 10934 C 1080.26 0.181019 -2.0199 0
M  V30 10935 C 1080.59 1.45691 -1.28405 0
M  V30 10936 O 1079.87 1.90607 -0.387207 0
M  V30 10937 C 1080.15 0.439587 -3.57407 0
M  V30 10938 C 1080 -0.85223 -4.41653 0
M  V30 10939 C 1081.32 1.2263 -4.2267 0
M  V30 10940 H 1078.44 0.0643164 -0.734188 0
M  V30 10941 H 1081.08 -0.52986 -1.82462 0
M  V30 10942 H 1079.23 1.04516 -3.74177 0
M  V30 10943 H 1080.91 -1.48879 -4.36615 0
M  V30 10944 H 1079.15 -1.46555 -4.08294 0
M  V30 10945 H 1079.82 -0.625839 -5.48441 0
M  V30 10946 H 1082.3 0.713722 -4.09933 0
M  V30 10947 H 1081.17 1.37596 -5.31374 0
M  V30 10948 H 1081.43 2.24403 -3.80914 0
M  V30 10949 N 1080.49 1.57075 -0.12858 0
M  V30 10950 C 1081.72 2.00305 0.537839 0
M  V30 10951 C 1082.14 1.00787 1.58819 0
M  V30 10952 O 1081.5 -0.0190839 1.8129 0
M  V30 10953 C 1081.55 3.42371 1.13201 0
M  V30 10954 O 1080.65 3.45786 2.24735 0
M  V30 10955 H 1079.99 0.650456 0.133428 0
M  V30 10956 H 1082.52 2.03415 -0.219882 0
M  V30 10957 H 1082.53 3.80783 1.4652 0
M  V30 10958 H 1081.21 4.14315 0.362713 0
M  V30 10959 H 1079.78 3.19201 1.92783 0
M  V30 10960 N 1081.97 -0.145205 1.5693 0
M  V30 10961 C 1083.39 -0.497905 1.51635 0
M  V30 10962 C 1083.59 -1.8328 0.837301 0
M  V30 10963 O 1082.64 -2.49172 0.408584 0
M  V30 10964 C 1083.95 -0.506557 2.96403 0
M  V30 10965 C 1085.5 -0.591947 3.07352 0
M  V30 10966 C 1085.98 -0.631244 4.53629 0
M  V30 10967 N 1087.47 -0.693417 4.5798 0
M  V30 10968 C 1088.2 -0.744836 5.68542 0
M  V30 10969 N 1087.7 -0.755492 6.88668 0
M  V30 10970 N 1089.49 -0.785854 5.5658 0
M  V30 10971 H 1081.64 0.729779 1.99469 0
M  V30 10972 H 1083.91 0.266295 0.90983 0
M  V30 10973 H 1083.61 0.406127 3.49347 0
M  V30 10974 H 1083.49 -1.34383 3.5245 0
M  V30 10975 H 1085.87 -1.49505 2.54425 0
M  V30 10976 H 1085.95 0.272507 2.54344 0
M  V30 10977 H 1085.6 0.26771 5.07194 0
M  V30 10978 H 1085.53 -1.51221 5.0442 0
M  V30 10979 H 1088.02 -0.692408 3.71503 0
M  V30 10980 H 1088.33 -0.796624 7.68683 0
M  V30 10981 H 1086.68 -0.723339 6.91226 0
M  V30 10982 H 1089.87 -0.774712 4.61645 0
M  V30 10983 H 1090.04 -0.822461 6.42759 0
M  V30 10984 N 1083.45 -1.52049 -0.414609 0
M  V30 10985 C 1084.36 -1.7788 -1.52958 0
M  V30 10986 C 1085.37 -0.66408 -1.60829 0
M  V30 10987 O 1086.55 -0.948882 -1.77646 0
M  V30 10988 C 1083.61 -1.91906 -2.88744 0
M  V30 10989 C 1082.68 -3.15803 -2.90804 0
M  V30 10990 C 1081.91 -3.29151 -4.20114 0
M  V30 10991 O 1082.13 -2.47892 -5.13718 0
M  V30 10992 O 1081.07 -4.2227 -4.28919 0
M  V30 10993 H 1084.89 -2.72506 -1.34067 0
M  V30 10994 H 1082.48 -1.36826 -0.599918 0
M  V30 10995 H 1084.36 -2.02986 -3.6929 0
M  V30 10996 H 1083.03 -1.00468 -3.07714 0
M  V30 10997 H 1081.94 -3.10185 -2.09131 0
M  V30 10998 H 1083.27 -4.07004 -2.76783 0
M  V30 10999 N 1084.93 0.6715 -1.42579 0
M  V30 11000 C 1085.89 1.76676 -1.46008 0
M  V30 11001 C 1086.89 1.57007 -0.347213 0
M  V30 11002 O 1088.08 1.63238 -0.608185 0
M  V30 11003 C 1085.21 3.15348 -1.29494 0
M  V30 11004 H 1086.4 1.75021 -2.43531 0
M  V30 11005 H 1083.96 0.881444 -1.29075 0
M  V30 11006 H 1084.69 3.22626 -0.32906 0
M  V30 11007 H 1084.48 3.31028 -2.10149 0
M  V30 11008 H 1085.97 3.95251 -1.34784 0
M  V30 11009 N 1086.4 1.28806 0.908124 0
M  V30 11010 C 1087.37 1.13228 1.99279 0
M  V30 11011 C 1088.37 0.0702456 1.60646 0
M  V30 11012 O 1089.56 0.316494 1.71301 0
M  V30 11013 C 1086.69 0.729629 3.33 0
M  V30 11014 H 1087.88 2.09566 2.14528 0
M  V30 11015 H 1085.43 1.11872 1.09153 0
M  V30 11016 H 1086.17 -0.234268 3.23453 0
M  V30 11017 H 1085.95 1.49688 3.62403 0
M  V30 11018 H 1087.44 0.643449 4.12613 0
M  V30 11019 N 1087.88 -1.11734 1.11145 0
M  V30 11020 C 1089.13 -1.83043 0.856717 0
M  V30 11021 C 1089.45 -1.84901 -0.619407 0
M  V30 11022 O 1088.72 -1.31738 -1.44989 0
M  V30 11023 H 1087.3 -0.677823 0.31395 0
M  V30 11024 H 1089.96 -1.35262 1.40322 0
M  V30 11025 H 1089.06 -2.87005 1.22616 0
M  V30 11026 N 1089.36 -0.901303 -1.29284 0
M  V30 11027 C 1090.58 -0.542823 -2.0017 0
M  V30 11028 C 1091.01 0.865583 -1.67001 0
M  V30 11029 O 1090.37 1.5764 -0.895502 0
M  V30 11030 C 1090.42 -0.743987 -3.52842 0
M  V30 11031 O 1089.52 0.202771 -4.11901 0
M  V30 11032 H 1088.86 -0.211903 -0.62928 0
M  V30 11033 H 1091.39 -1.21333 -1.64741 0
M  V30 11034 H 1091.4 -0.64926 -4.02801 0
M  V30 11035 H 1090.08 -1.77077 -3.7632 0
M  V30 11036 H 1088.65 0.0603637 -3.72851 0
M  V30 11037 N 1090.84 1.42931 -0.663954 0
M  V30 11038 C 1092.25 1.84877 -0.260283 0
M  V30 11039 C 1092.6 1.5558 1.19538 0
M  V30 11040 O 1091.72 1.01015 1.91377 0
M  V30 11041 C 1092.32 3.35585 -0.465618 0
M  V30 11042 C 1090.88 3.76221 -0.116169 0
M  V30 11043 C 1090.03 2.66587 -0.763317 0
M  V30 11044 H 1092.98 1.32932 -0.866882 0
M  V30 11045 H 1093 3.79427 0.285608 0
M  V30 11046 H 1092.51 3.56877 -1.52515 0
M  V30 11047 H 1090.61 3.60539 0.940342 0
M  V30 11048 H 1090.72 4.75943 -0.549123 0
M  V30 11049 H 1089.09 2.53948 -0.19559 0
M  V30 11050 H 1089.87 2.90704 -1.82609 0
M  V30 11051 N 1092.32 0.406567 1.52266 0
M  V30 11052 C 1093.28 -0.408251 2.25535 0
M  V30 11053 C 1094.28 -0.975795 1.27808 0
M  V30 11054 O 1095.47 -0.855077 1.5177 0
M  V30 11055 C 1092.6 -1.57443 3.02365 0
M  V30 11056 H 1093.79 0.233459 2.9899 0
M  V30 11057 H 1091.35 0.159032 1.55489 0
M  V30 11058 H 1092.08 -2.25308 2.33252 0
M  V30 11059 H 1091.87 -1.17399 3.74112 0
M  V30 11060 H 1093.36 -2.15088 3.57948 0
M  V30 11061 N 1093.79 -1.57004 0.136909 0
M  V30 11062 C 1094.74 -2.17524 -0.823784 0
M  V30 11063 C 1095.74 -1.1294 -1.26258 0
M  V30 11064 O 1096.94 -1.3121 -1.23223 0
M  V30 11065 H 1093.32 -0.696381 -0.283827 0
M  V30 11066 H 1095.29 -2.96997 -0.289052 0
M  V30 11067 C 1094.04 -2.80331 -2.05693 0
M  V30 11068 H 1093.36 -3.60515 -1.72825 0
M  V30 11069 H 1094.8 -3.26192 -2.70878 0
M  V30 11070 C 1093.26 -1.78322 -2.85837 0
M  V30 11071 O 1093.79 -1.2475 -3.81838 0
M  V30 11072 N 1092 -1.47854 -2.50175 0
M  V30 11073 H 1091.54 -1.9161 -1.72173 0
M  V30 11074 H 1091.5 -0.798464 -3.04092 0
M  V30 11075 N 1095.27 0.136881 -1.57004 0
M  V30 11076 C 1096.52 0.847775 -1.83899 0
M  V30 11077 C 1096.85 1.80709 -0.719332 0
M  V30 11078 O 1096.1 1.93527 0.290838 0
M  V30 11079 C 1096.4 1.64711 -3.17183 0
M  V30 11080 C 1096.07 0.833683 -4.43126 0
M  V30 11081 C 1094.73 0.609306 -4.77327 0
M  V30 11082 C 1097.08 0.265504 -5.20523 0
M  V30 11083 C 1094.41 -0.193793 -5.8638 0
M  V30 11084 C 1096.76 -0.524688 -6.3042 0
M  V30 11085 C 1095.43 -0.759548 -6.63164 0
M  V30 11086 H 1094.7 0.310223 -0.672936 0
M  V30 11087 H 1097.34 0.110937 -1.91178 0
M  V30 11088 H 1095.65 2.45435 -3.054 0
M  V30 11089 H 1097.34 2.20081 -3.3521 0
M  V30 11090 H 1093.93 1.01864 -4.16319 0
M  V30 11091 H 1098.12 0.426109 -4.94467 0
M  V30 11092 H 1093.37 -0.385153 -6.10186 0
M  V30 11093 H 1097.55 -0.972033 -6.89583 0
M  V30 11094 H 1095.18 -1.38369 -7.47501 0
M  V30 11095 N 1096.75 1.52266 0.40654 0
M  V30 11096 C 1097.98 1.70598 1.17945 0
M  V30 11097 C 1098.4 0.415793 1.83447 0
M  V30 11098 O 1097.76 -0.626968 1.70114 0
M  V30 11099 C 1097.81 2.84449 2.21633 0
M  V30 11100 O 1096.91 2.50199 3.27833 0
M  V30 11101 H 1096.25 0.567837 0.344177 0
M  V30 11102 H 1098.78 1.98981 0.476211 0
M  V30 11103 H 1098.79 3.09436 2.65919 0
M  V30 11104 H 1097.47 3.78055 1.73341 0
M  V30 11105 H 1096.04 2.35892 2.88807 0
M  V30 11106 N 1098.23 -0.663929 1.42933 0
M  V30 11107 C 1099.47 -1.42446 1.45192 0
M  V30 11108 C 1099.83 -1.92269 0.0710678 0
M  V30 11109 O 1099.12 -1.68688 -0.908565 0
M  V30 11110 C 1099.32 -2.62976 2.4203 0
M  V30 11111 C 1099.15 -2.24948 3.89395 0
M  V30 11112 C 1097.92 -2.13786 4.57847 0
M  V30 11113 C 1100.11 -1.85907 4.79524 0
M  V30 11114 N 1098.1 -1.68976 5.90187 0
M  V30 11115 C 1099.47 -1.52099 6.01054 0
M  V30 11116 C 1101.52 -1.72995 4.6688 0
M  V30 11117 C 1100.22 -1.06673 7.11346 0
M  V30 11118 C 1102.25 -1.28975 5.77165 0
M  V30 11119 C 1101.61 -0.960968 6.97814 0
M  V30 11120 H 1097.71 -0.517312 0.58644 0
M  V30 11121 H 1100.3 -0.765097 1.79037 0
M  V30 11122 H 1098.47 -3.26586 2.10229 0
M  V30 11123 H 1100.2 -3.29624 2.34798 0
M  V30 11124 H 1096.95 -2.33203 4.12206 0
M  V30 11125 H 1097.38 -1.48964 6.60408 0
M  V30 11126 H 1102.02 -1.97057 3.7407 0
M  V30 11127 H 1099.74 -0.813591 8.03994 0
M  V30 11128 H 1103.32 -1.19489 5.69398 0
M  V30 11129 H 1102.2 -0.625522 7.81701 0
M  V30 11130 N 1099.71 -1.29285 -0.901281 0
M  V30 11131 C 1100.95 -1.17165 -1.65162 0
M  V30 11132 C 1101.28 0.277184 -1.92515 0
M  V30 11133 O 1100.54 1.2168 -1.53273 0
M  V30 11134 C 1100.84 -1.92865 -3.00895 0
M  V30 11135 C 1100.5 -3.42593 -2.93157 0
M  V30 11136 C 1099.16 -3.83426 -2.90754 0
M  V30 11137 C 1101.52 -4.38011 -2.82481 0
M  V30 11138 C 1098.84 -5.17997 -2.75492 0
M  V30 11139 C 1101.2 -5.7267 -2.68759 0
M  V30 11140 C 1099.86 -6.12764 -2.64721 0
M  V30 11141 H 1099.13 -0.428737 -0.604372 0
M  V30 11142 H 1101.78 -1.60204 -1.04914 0
M  V30 11143 H 1100.08 -1.42412 -3.65001 0
M  V30 11144 H 1101.78 -1.80893 -3.57881 0
M  V30 11145 H 1098.37 -3.10134 -2.95829 0
M  V30 11146 H 1102.55 -4.07417 -2.83416 0
M  V30 11147 H 1097.81 -5.48173 -2.70769 0
M  V30 11148 H 1101.98 -6.46258 -2.59469 0
M  V30 11149 H 1099.61 -7.16987 -2.52652 0
M  V30 11150 N 1101.18 1.11143 -1.11736 0
M  V30 11151 C 1102.6 1.34962 -0.851905 0
M  V30 11152 C 1102.8 1.94627 0.521797 0
M  V30 11153 O 1101.86 2.18121 1.27198 0
M  V30 11154 C 1103.17 2.27832 -1.96248 0
M  V30 11155 C 1104.72 2.41388 -1.9925 0
M  V30 11156 C 1105.19 3.37582 -3.09519 0
M  V30 11157 N 1106.68 3.45147 -3.08914 0
M  V30 11158 C 1107.42 4.19527 -3.90876 0
M  V30 11159 N 1106.91 4.96858 -4.82809 0
M  V30 11160 N 1108.71 4.15071 -3.79042 0
M  V30 11161 H 1100.86 0.707801 -2.0026 0
M  V30 11162 H 1103.12 0.374172 -0.871033 0
M  V30 11163 H 1102.83 1.91189 -2.95194 0
M  V30 11164 H 1102.7 3.28078 -1.86132 0
M  V30 11165 H 1105.09 2.77304 -1.00928 0
M  V30 11166 H 1105.17 1.40983 -2.13442 0
M  V30 11167 H 1104.81 3.02393 -4.0807 0
M  V30 11168 H 1104.74 4.37849 -2.92568 0
M  V30 11169 H 1107.23 2.89991 -2.42309 0
M  V30 11170 H 1107.55 5.5099 -5.41876 0
M  V30 11171 H 1105.89 4.96008 -4.86828 0
M  V30 11172 H 1109.08 3.53748 -3.06562 0
M  V30 11173 H 1109.26 4.72781 -4.4315 0
M  V30 11174 N 1102.66 0.908147 1.28804 0
M  V30 11175 C 1103.61 0.382315 2.29437 0
M  V30 11176 C 1104.6 -0.523033 1.61123 0
M  V30 11177 O 1105.81 -0.404898 1.75387 0
M  V30 11178 H 1102.19 0.105022 0.74463 0
M  V30 11179 H 1104.16 1.24425 2.71221 0
M  V30 11180 C 1102.91 -0.367475 3.45753 0
M  V30 11181 H 1102.23 0.319957 3.98518 0
M  V30 11182 H 1103.67 -0.700131 4.1818 0
M  V30 11183 C 1102.13 -1.57329 2.97908 0
M  V30 11184 O 1102.66 -2.67248 2.99902 0
M  V30 11185 N 1100.86 -1.41835 2.53636 0
M  V30 11186 H 1100.41 -0.524099 2.52212 0
M  V30 11187 H 1100.37 -2.22645 2.21984 0
M  V30 11188 N 1104.14 -1.42577 0.671525 0
M  V30 11189 C 1105.39 -2.01185 0.192051 0
M  V30 11190 C 1105.71 -1.53349 -1.20454 0
M  V30 11191 O 1104.98 -0.753781 -1.80817 0
M  V30 11192 H 1103.56 -0.743898 0.0680106 0
M  V30 11193 H 1106.22 -1.74539 0.8673 0
M  V30 11194 H 1105.32 -3.11516 0.190796 0
M  V30 11195 N 1105.62 -0.414636 -1.52048 0
M  V30 11196 C 1106.86 0.159585 -2.02171 0
M  V30 11197 C 1107.2 1.44321 -1.29943 0
M  V30 11198 O 1106.47 1.90185 -0.407402 0
M  V30 11199 C 1106.76 0.401655 -3.57853 0
M  V30 11200 C 1106.61 -0.899026 -4.40724 0
M  V30 11201 C 1107.93 1.1814 -4.23947 0
M  V30 11202 H 1105.05 0.0565257 -0.734829 0
M  V30 11203 H 1107.69 -0.549183 -1.8189 0
M  V30 11204 H 1105.84 1.00541 -3.75265 0
M  V30 11205 H 1107.51 -1.53502 -4.35011 0
M  V30 11206 H 1105.75 -1.50877 -4.06717 0
M  V30 11207 H 1106.42 -0.683974 -5.47746 0
M  V30 11208 H 1108.9 0.670203 -4.10667 0
M  V30 11209 H 1107.78 1.31953 -5.32804 0
M  V30 11210 H 1108.04 2.2035 -3.83273 0
M  V30 11211 N 1107.1 1.56929 -0.145233 0
M  V30 11212 C 1108.03 2.19685 0.791263 0
M  V30 11213 C 1109.01 1.14455 1.25833 0
M  V30 11214 O 1110.19 1.42791 1.31622 0
M  V30 11215 C 1107.32 2.81705 2.03124 0
M  V30 11216 C 1106.28 3.92746 1.70101 0
M  V30 11217 C 1105.6 4.41694 3.01347 0
M  V30 11218 C 1106.9 5.13606 0.949025 0
M  V30 11219 H 1108.6 2.98196 0.26825 0
M  V30 11220 H 1106.14 1.43434 0.127584 0
M  V30 11221 H 1108.1 3.24273 2.69119 0
M  V30 11222 H 1106.82 2.00523 2.57795 0
M  V30 11223 H 1105.48 3.50794 1.06486 0
M  V30 11224 H 1105.13 3.57336 3.54006 0
M  V30 11225 H 1104.83 5.1659 2.80016 0
M  V30 11226 H 1106.35 4.86931 3.68416 0
M  V30 11227 H 1107.76 5.53029 1.51102 0
M  V30 11228 H 1106.16 5.94252 0.835711 0
M  V30 11229 H 1107.23 4.84863 -0.0595631 0
M  V30 11230 N 1108.58 -0.128553 1.57075 0
M  V30 11231 C 1109.82 -0.834322 1.85501 0
M  V30 11232 C 1110.18 -1.77943 0.731725 0
M  V30 11233 O 1109.47 -1.89702 -0.269003 0
M  V30 11234 C 1109.66 -1.63027 3.18052 0
M  V30 11235 C 1109.49 -0.763737 4.43167 0
M  V30 11236 C 1108.26 -0.42224 5.03533 0
M  V30 11237 C 1110.46 -0.0856773 5.14229 0
M  V30 11238 N 1108.44 0.455954 6.12204 0
M  V30 11239 C 1109.81 0.651902 6.16563 0
M  V30 11240 C 1111.87 -0.00826404 4.97899 0
M  V30 11241 C 1110.57 1.45961 7.04335 0
M  V30 11242 C 1112.6 0.786239 5.8615 0
M  V30 11243 C 1111.96 1.51204 6.8798 0
M  V30 11244 H 1108.06 -0.282535 0.729176 0
M  V30 11245 H 1110.64 -0.0985924 1.9445 0
M  V30 11246 H 1108.81 -2.3371 3.10216 0
M  V30 11247 H 1110.55 -2.28063 3.34319 0
M  V30 11248 H 1107.3 -0.76229 4.67425 0
M  V30 11249 H 1107.72 0.886619 6.71169 0
M  V30 11250 H 1112.37 -0.555051 4.19141 0
M  V30 11251 H 1110.08 2.01759 7.82508 0
M  V30 11252 H 1113.67 0.848372 5.75581 0
M  V30 11253 H 1112.55 2.11694 7.55086 0
M  V30 11254 N 1110.05 -1.5248 -0.398459 0
M  V30 11255 C 1111.02 -1.75949 -1.46883 0
M  V30 11256 C 1112.02 -0.629431 -1.47969 0
M  V30 11257 O 1113.21 -0.897407 -1.49306 0
M  V30 11258 C 1110.34 -1.85162 -2.8623 0
M  V30 11259 H 1111.53 -2.71513 -1.2736 0
M  V30 11260 H 1109.08 -1.43058 -0.629619 0
M  V30 11261 H 1109.82 -0.915505 -3.11109 0
M  V30 11262 H 1109.6 -2.67326 -2.86844 0
M  V30 11263 H 1111.09 -2.05025 -3.63805 0
M  V30 11264 N 1111.53 0.65634 -1.43283 0
M  V30 11265 C 1112.46 1.78184 -1.44164 0
M  V30 11266 C 1113.48 1.59249 -0.338177 0
M  V30 11267 O 1114.67 1.68027 -0.60242 0
M  V30 11268 C 1111.77 3.15566 -1.23577 0
M  V30 11269 C 1110.94 3.61187 -2.46704 0
M  V30 11270 C 1110 4.77361 -2.21388 0
M  V30 11271 O 1109.02 4.8696 -2.94718 0
M  V30 11272 N 1110.23 5.67351 -1.22855 0
M  V30 11273 H 1112.99 1.77907 -2.41183 0
M  V30 11274 H 1110.55 0.840076 -1.38399 0
M  V30 11275 H 1112.54 3.90968 -1.04529 0
M  V30 11276 H 1111.11 3.10633 -0.350155 0
M  V30 11277 H 1110.33 2.76263 -2.81198 0
M  V30 11278 H 1111.62 3.88413 -3.28652 0
M  V30 11279 H 1111.02 5.62265 -0.622417 0
M  V30 11280 H 1109.58 6.42487 -1.09791 0
M  V30 11281 N 1113.01 1.29761 0.894412 0
M  V30 11282 C 1114.26 1.17806 1.64214 0
M  V30 11283 C 1114.58 -0.269588 1.93127 0
M  V30 11284 O 1113.85 -1.18352 1.56107 0
M  V30 11285 H 1112.43 0.433002 0.608702 0
M  V30 11286 H 1115.09 1.6276 1.07216 0
M  V30 11287 H 1114.19 1.73201 2.5963 0
M  V30 11288 N 1114.49 -1.10549 1.12324 0
M  V30 11289 C 1115.9 -1.63991 0.892402 0
M  V30 11290 C 1116.25 -1.87631 -0.573506 0
M  V30 11291 O 1115.37 -1.6174 -1.43768 0
M  V30 11292 C 1115.97 -2.97914 1.61347 0
M  V30 11293 C 1114.53 -3.48227 1.42881 0
M  V30 11294 C 1113.68 -2.22857 1.65015 0
M  V30 11295 H 1116.63 -0.94065 1.27818 0
M  V30 11296 H 1116.65 -3.65326 1.06382 0
M  V30 11297 H 1116.16 -2.80677 2.68034 0
M  V30 11298 H 1114.26 -3.70611 0.384441 0
M  V30 11299 H 1114.37 -4.26419 2.18413 0
M  V30 11300 H 1112.74 -2.30941 1.07417 0
M  V30 11301 H 1113.52 -2.08152 2.72997 0
M  V30 11302 N 1115.97 -0.914965 -1.28321 0
M  V30 11303 C 1116.9 -0.421292 -2.29668 0
M  V30 11304 C 1117.88 0.511743 -1.6222 0
M  V30 11305 O 1119.06 0.419218 -1.89621 0
M  V30 11306 C 1116.19 0.338364 -3.45648 0
M  V30 11307 C 1115.15 -0.505646 -4.25003 0
M  V30 11308 C 1114.47 0.382421 -5.33331 0
M  V30 11309 C 1115.77 -1.76354 -4.91626 0
M  V30 11310 H 1117.47 -1.26826 -2.71211 0
M  V30 11311 H 1115.01 -0.611291 -1.30381 0
M  V30 11312 H 1116.96 0.694578 -4.15636 0
M  V30 11313 H 1115.69 1.21925 -3.02988 0
M  V30 11314 H 1114.35 -0.844395 -3.56743 0
M  V30 11315 H 1114 1.26189 -4.86914 0
M  V30 11316 H 1113.7 -0.17871 -5.87328 0
M  V30 11317 H 1115.22 0.73449 -6.06166 0
M  V30 11318 H 1116.63 -1.47616 -5.5397 0
M  V30 11319 H 1115.03 -2.26717 -5.55625 0
M  V30 11320 H 1116.1 -2.49063 -4.16048 0
M  V30 11321 N 1117.44 1.42219 -0.679077 0
M  V30 11322 C 1118.35 2.346 -0.00345919 0
M  V30 11323 C 1119.37 1.55327 0.784181 0
M  V30 11324 O 1120.55 1.87878 0.725524 0
M  V30 11325 C 1117.61 3.33905 0.933194 0
M  V30 11326 C 1116.67 4.29073 0.139607 0
M  V30 11327 C 1115.9 5.23634 1.03165 0
M  V30 11328 O 1116.13 5.23234 2.27119 0
M  V30 11329 O 1115.06 5.99901 0.490159 0
M  V30 11330 H 1118.89 2.9392 -0.764525 0
M  V30 11331 H 1116.47 1.42794 -0.439329 0
M  V30 11332 H 1118.35 3.949 1.47077 0
M  V30 11333 H 1117.03 2.77052 1.67404 0
M  V30 11334 H 1115.94 3.71478 -0.442177 0
M  V30 11335 H 1117.27 4.88979 -0.562214 0
M  V30 11336 N 1118.92 0.422693 1.51826 0
M  V30 11337 C 1120.15 -0.147744 2.06372 0
M  V30 11338 C 1120.56 -1.37714 1.29152 0
M  V30 11339 O 1119.92 -1.7917 0.347046 0
M  V30 11340 C 1119.97 -0.484642 3.58237 0
M  V30 11341 O 1119.69 0.695944 4.32537 0
M  V30 11342 C 1121.19 -1.10734 4.29247 0
M  V30 11343 H 1118.41 -0.0144047 0.670845 0
M  V30 11344 H 1120.96 0.597558 1.95575 0
M  V30 11345 H 1119.11 -1.17984 3.68997 0
M  V30 11346 H 1119.53 0.411471 5.22884 0
M  V30 11347 H 1121 -1.29318 5.36639 0
M  V30 11348 H 1121.48 -2.08429 3.86593 0
M  V30 11349 H 1122.08 -0.451958 4.22892 0
M  V30 11350 N 1120.4 -1.5685 0.153553 0
M  V30 11351 C 1121.65 -1.96625 -0.49665 0
M  V30 11352 C 1121.98 -1.03877 -1.64083 0
M  V30 11353 O 1121.25 -0.0824112 -1.94325 0
M  V30 11354 C 1121.54 -3.46035 -0.996585 0
M  V30 11355 C 1121.39 -4.49561 0.146551 0
M  V30 11356 C 1122.71 -3.98104 -1.8762 0
M  V30 11357 H 1119.83 -0.714917 -0.179059 0
M  V30 11358 H 1122.47 -1.88527 0.236104 0
M  V30 11359 H 1120.62 -3.53066 -1.621 0
M  V30 11360 H 1122.29 -4.54604 0.783108 0
M  V30 11361 H 1120.53 -4.26271 0.804727 0
M  V30 11362 H 1121.21 -5.51456 -0.245078 0
M  V30 11363 H 1123.68 -3.93593 -1.34997 0
M  V30 11364 H 1122.56 -5.03098 -2.19508 0
M  V30 11365 H 1122.82 -3.40852 -2.81554 0
M  V30 11366 N 1121.88 0.120221 -1.57141 0
M  V30 11367 C 1123.11 0.842441 -1.88972 0
M  V30 11368 C 1123.52 1.73494 -0.744671 0
M  V30 11369 O 1122.88 1.80268 0.284557 0
M  V30 11370 C 1122.93 1.67688 -3.20254 0
M  V30 11371 O 1122.65 0.820319 -4.30351 0
M  V30 11372 C 1124.15 2.50436 -3.65782 0
M  V30 11373 H 1121.37 0.242241 -0.625748 0
M  V30 11374 H 1123.91 0.104978 -2.0423 0
M  V30 11375 H 1122.07 2.36712 -3.0667 0
M  V30 11376 H 1122.48 1.39575 -5.05588 0
M  V30 11377 H 1123.96 3.04518 -4.60405 0
M  V30 11378 H 1124.43 3.27737 -2.92378 0
M  V30 11379 H 1125.04 1.86657 -3.82151 0
M  V30 11380 N 1123.36 1.52689 0.390367 0
M  V30 11381 C 1124.29 1.80338 1.48325 0
M  V30 11382 C 1125.27 0.655338 1.56969 0
M  V30 11383 O 1126.45 0.902792 1.7194 0
M  V30 11384 C 1123.58 1.97101 2.85952 0
M  V30 11385 C 1122.54 3.12783 2.92148 0
M  V30 11386 C 1121.86 3.14798 4.32211 0
M  V30 11387 C 1123.16 4.5188 2.61919 0
M  V30 11388 H 1124.86 2.71857 1.25437 0
M  V30 11389 H 1122.4 1.30813 0.601995 0
M  V30 11390 H 1124.36 2.15027 3.62411 0
M  V30 11391 H 1123.08 1.02271 3.10174 0
M  V30 11392 H 1121.74 2.94638 2.18137 0
M  V30 11393 H 1121.39 2.17653 4.53471 0
M  V30 11394 H 1121.09 3.92507 4.37278 0
M  V30 11395 H 1122.61 3.34877 5.10578 0
M  V30 11396 H 1124.02 4.70134 3.28096 0
M  V30 11397 H 1122.42 5.31647 2.78337 0
M  V30 11398 H 1123.49 4.58689 1.57266 0
M  V30 11399 N 1124.83 -0.648732 1.43629 0
M  V30 11400 C 1125.76 -1.77298 1.51947 0
M  V30 11401 C 1126.75 -1.65942 0.373785 0
M  V30 11402 O 1127.93 -1.8497 0.591596 0
M  V30 11403 C 1125.06 -3.15749 1.44638 0
M  V30 11404 C 1124.01 -3.41872 2.57502 0
M  V30 11405 C 1123.34 -4.8017 2.35246 0
M  V30 11406 C 1124.64 -3.36173 3.99731 0
M  V30 11407 H 1126.33 -1.70594 2.46045 0
M  V30 11408 H 1123.88 -0.819306 1.1842 0
M  V30 11409 H 1125.83 -3.94156 1.4906 0
M  V30 11410 H 1124.56 -3.23194 0.470466 0
M  V30 11411 H 1123.22 -2.65838 2.5244 0
M  V30 11412 H 1122.86 -4.84297 1.35887 0
M  V30 11413 H 1122.56 -4.9861 3.10906 0
M  V30 11414 H 1124.09 -5.6083 2.41459 0
M  V30 11415 H 1125.5 -4.0451 4.06257 0
M  V30 11416 H 1123.9 -3.66148 4.75453 0
M  V30 11417 H 1124.97 -2.34277 4.24549 0
M  V30 11418 N 1126.31 -1.30234 -0.887518 0
M  V30 11419 C 1127.72 -1.17048 -1.45453 0
M  V30 11420 C 1128.07 0.229793 -1.9485 0
M  V30 11421 O 1127.2 1.12628 -1.84781 0
M  V30 11422 C 1127.79 -2.11876 -2.64375 0
M  V30 11423 C 1126.35 -2.02676 -3.17174 0
M  V30 11424 C 1125.5 -2.02104 -1.89866 0
M  V30 11425 H 1128.45 -1.42541 -0.697694 0
M  V30 11426 H 1128.47 -1.69811 -3.40506 0
M  V30 11427 H 1127.98 -3.13781 -2.28392 0
M  V30 11428 H 1126.09 -1.03904 -3.57819 0
M  V30 11429 H 1126.2 -2.90939 -3.80646 0
M  V30 11430 H 1124.56 -1.4687 -2.0809 0
M  V30 11431 H 1125.35 -3.05735 -1.56145 0
M  V30 11432 N 1127.79 1.09952 -1.12909 0
M  V30 11433 C 1129.04 1.82286 -0.888797 0
M  V30 11434 C 1129.37 1.85218 0.58379 0
M  V30 11435 O 1128.64 1.31645 1.43177 0
M  V30 11436 C 1128.93 3.28706 -1.47053 0
M  V30 11437 C 1128.78 3.34078 -3.01184 0
M  V30 11438 C 1130.1 4.25233 -1.13424 0
M  V30 11439 H 1127.22 0.661803 -0.324324 0
M  V30 11440 H 1129.86 1.28833 -1.3965 0
M  V30 11441 H 1128.01 3.74356 -1.03874 0
M  V30 11442 H 1129.68 2.96871 -3.5308 0
M  V30 11443 H 1127.93 2.73825 -3.36455 0
M  V30 11444 H 1128.6 4.37202 -3.36984 0
M  V30 11445 H 1131.07 3.87841 -1.50726 0
M  V30 11446 H 1129.95 5.26033 -1.56783 0
M  V30 11447 H 1130.21 4.42075 -0.0471496 0
M  V30 11448 N 1129.27 0.921757 1.27833 0
M  V30 11449 C 1130.23 0.420978 2.25301 0
M  V30 11450 C 1131.23 -0.457158 1.54165 0
M  V30 11451 O 1132.42 -0.259079 1.72263 0
M  V30 11452 C 1129.55 -0.395501 3.38598 0
M  V30 11453 H 1130.75 1.28206 2.71115 0
M  V30 11454 H 1128.3 0.701893 1.39654 0
M  V30 11455 H 1129.03 -1.27565 2.98157 0
M  V30 11456 H 1128.82 0.234029 3.91401 0
M  V30 11457 H 1130.31 -0.736444 4.11055 0
M  V30 11458 N 1130.75 -1.41857 0.686609 0
M  V30 11459 C 1132.16 -1.55549 0.357288 0
M  V30 11460 C 1132.36 -1.66394 -1.13646 0
M  V30 11461 O 1131.42 -1.63739 -1.92213 0
M  V30 11462 C 1132.73 -2.79938 1.09796 0
M  V30 11463 C 1134.28 -2.93724 1.08143 0
M  V30 11464 C 1134.75 -4.20989 1.80367 0
M  V30 11465 N 1136.25 -4.27927 1.77293 0
M  V30 11466 C 1136.98 -5.2524 2.30022 0
M  V30 11467 N 1136.48 -6.28636 2.91185 0
M  V30 11468 N 1138.27 -5.17118 2.20329 0
M  V30 11469 H 1130.42 -1.33063 1.65554 0
M  V30 11470 H 1132.68 -0.641335 0.698135 0
M  V30 11471 H 1132.39 -2.78104 2.15293 0
M  V30 11472 H 1132.26 -3.71188 0.670763 0
M  V30 11473 H 1134.65 -2.9508 0.0347554 0
M  V30 11474 H 1134.73 -2.03673 1.54761 0
M  V30 11475 H 1134.38 -4.20395 2.85009 0
M  V30 11476 H 1134.31 -5.09997 1.3119 0
M  V30 11477 H 1136.8 -3.53838 1.32692 0
M  V30 11478 H 1137.11 -6.99265 3.29011 0
M  V30 11479 H 1135.45 -6.29164 2.95259 0
M  V30 11480 H 1138.65 -4.35265 1.72226 0
M  V30 11481 H 1138.82 -5.92792 2.61728 0
M  V30 11482 N 1132.22 -0.430739 -1.51599 0
M  V30 11483 C 1133.45 0.136797 -2.06447 0
M  V30 11484 C 1133.87 1.37027 -1.29881 0
M  V30 11485 O 1133.22 1.78983 -0.356543 0
M  V30 11486 C 1133.28 0.465637 -3.58489 0
M  V30 11487 O 1133 -0.718873 -4.32162 0
M  V30 11488 C 1134.5 1.08456 -4.29828 0
M  V30 11489 H 1131.72 0.0108468 -0.670912 0
M  V30 11490 H 1134.26 -0.607921 -1.95255 0
M  V30 11491 H 1132.42 1.16025 -3.69617 0
M  V30 11492 H 1132.83 -0.439195 -5.22658 0
M  V30 11493 H 1134.3 1.2647 -5.37317 0
M  V30 11494 H 1134.78 2.06376 -3.87693 0
M  V30 11495 H 1135.39 0.429525 -4.23125 0
M  V30 11496 N 1133.7 1.56767 -0.161869 0
M  V30 11497 C 1134.98 1.88245 0.531352 0
M  V30 11498 C 1135.36 1.07025 1.81958 0
M  V30 11499 O 1134.71 0.161385 2.27929 0
M  V30 11500 C 1134.92 3.40117 0.782416 0
M  V30 11501 C 1136.27 4.09655 1.11661 0
M  V30 11502 O 1137.29 3.4538 0.871274 0
M  V30 11503 O 1136.15 5.23192 1.57901 0
M  V30 11504 H 1133.24 0.780725 0.272759 0
M  V30 11505 H 1135.79 1.68522 -0.199597 0
M  V30 11506 H 1134.56 3.91088 -0.128677 0
M  V30 11507 H 1134.18 3.65418 1.56702 0
M  V30 11508 N 1135.18 -0.111886 1.57202 0
M  V30 11509 C 1136.14 -1.12101 1.99915 0
M  V30 11510 C 1137.14 -1.33906 0.890272 0
M  V30 11511 O 1138.33 -1.30303 1.15615 0
M  V30 11512 C 1135.47 -2.47392 2.34543 0
M  V30 11513 H 1136.66 -0.753736 2.90274 0
M  V30 11514 H 1134.21 -0.35641 1.52182 0
M  V30 11515 H 1134.95 -2.89026 1.47086 0
M  V30 11516 H 1134.73 -2.32917 3.15423 0
M  V30 11517 H 1136.22 -3.20004 2.68304 0
M  V30 11518 N 1136.66 -1.52894 -0.382264 0
M  V30 11519 C 1137.62 -1.77497 -1.45008 0
M  V30 11520 C 1138.62 -0.64509 -1.47293 0
M  V30 11521 O 1139.81 -0.913192 -1.48346 0
M  V30 11522 C 1136.94 -1.88188 -2.8425 0
M  V30 11523 H 1138.14 -2.72849 -1.24473 0
M  V30 11524 H 1135.69 -1.43717 -0.61441 0
M  V30 11525 H 1136.42 -0.948451 -3.10121 0
M  V30 11526 H 1136.21 -2.70353 -2.83992 0
M  V30 11527 H 1137.7 -2.08873 -3.6161 0
M  V30 11528 N 1138.14 0.641106 -1.43971 0
M  V30 11529 C 1139.07 1.76489 -1.52885 0
M  V30 11530 C 1140.05 1.65742 -0.38258 0
M  V30 11531 O 1141.23 1.84653 -0.601397 0
M  V30 11532 C 1138.36 3.14977 -1.4631 0
M  V30 11533 C 1137.32 3.40502 -2.59311 0
M  V30 11534 C 1136.64 4.78916 -2.37789 0
M  V30 11535 C 1137.94 3.34048 -4.01509 0
M  V30 11536 H 1139.64 1.69286 -2.46946 0
M  V30 11537 H 1137.18 0.813015 -1.18853 0
M  V30 11538 H 1139.14 3.9336 -1.51149 0
M  V30 11539 H 1137.86 3.2294 -0.487599 0
M  V30 11540 H 1136.52 2.64495 -2.53846 0
M  V30 11541 H 1136.17 4.8357 -1.38454 0
M  V30 11542 H 1135.87 4.96954 -3.13545 0
M  V30 11543 H 1137.39 5.59541 -2.4443 0
M  V30 11544 H 1138.81 4.0235 -4.08396 0
M  V30 11545 H 1137.2 3.63622 -4.77388 0
M  V30 11546 H 1138.27 2.32022 -4.25786 0
M  V30 11547 N 1139.62 1.30703 0.880598 0
M  V30 11548 C 1140.85 1.22536 1.66339 0
M  V30 11549 C 1141.25 -0.213507 1.87991 0
M  V30 11550 O 1140.6 -1.15236 1.43061 0
M  V30 11551 C 1140.66 1.88798 3.05934 0
M  V30 11552 C 1140.32 3.38131 3.07435 0
M  V30 11553 C 1141.32 4.34053 2.86171 0
M  V30 11554 C 1139 3.79651 3.28893 0
M  V30 11555 C 1141 5.69469 2.86328 0
M  V30 11556 C 1138.69 5.15182 3.2868 0
M  V30 11557 C 1139.68 6.09902 3.07423 0
M  V30 11558 O 1139.37 7.42957 3.07034 0
M  V30 11559 H 1139.1 0.425018 0.525677 0
M  V30 11560 H 1141.66 1.72939 1.1082 0
M  V30 11561 H 1139.89 1.3293 3.63134 0
M  V30 11562 H 1141.58 1.74691 3.66385 0
M  V30 11563 H 1142.34 4.03307 2.69385 0
M  V30 11564 H 1138.22 3.06365 3.44473 0
M  V30 11565 H 1141.77 6.43375 2.69655 0
M  V30 11566 H 1137.66 5.45567 3.45002 0
M  V30 11567 H 1138.43 7.52 3.23169 0
M  V30 11568 N 1141.09 -1.09351 1.1349 0
M  V30 11569 C 1142.06 -2.14185 0.815919 0
M  V30 11570 C 1143.06 -1.59845 -0.174976 0
M  V30 11571 O 1144.25 -1.74122 0.0521971 0
M  V30 11572 C 1141.38 -3.40224 0.214517 0
M  V30 11573 H 1142.57 -2.43913 1.74489 0
M  V30 11574 H 1140.12 -1.24902 0.939634 0
M  V30 11575 H 1140.86 -3.16123 -0.723634 0
M  V30 11576 H 1140.64 -3.80958 0.928102 0
M  V30 11577 H 1142.13 -4.17599 0.00821999 0
M  V30 11578 N 1142.57 -0.928524 -1.27343 0
M  V30 11579 C 1143.81 -0.576696 -1.96096 0
M  V30 11580 C 1144.18 0.866074 -1.71357 0
M  V30 11581 O 1145.38 1.32621 -2.33805 0
M  V30 11582 C 1143.65 -0.894692 -3.4602 0
M  V30 11583 S 1145.21 -0.651503 -4.33936 0
M  V30 11584 H 1142.02 -0.212847 -0.678393 0
M  V30 11585 H 1144.63 -1.19714 -1.5456 0
M  V30 11586 H 1143.33 -1.94239 -3.61524 0
M  V30 11587 H 1142.86 -0.263478 -3.92517 0
M  V30 11588 H 1144.88 0.490314 -4.93772 0
M  V30 11589 N 1144.05 1.41491 -0.694123 0
M  V30 11590 C 1145.47 1.55358 -0.365532 0
M  V30 11591 C 1145.67 1.66994 1.12762 0
M  V30 11592 O 1144.72 1.64756 1.91342 0
M  V30 11593 C 1146.03 2.79352 -1.11279 0
M  V30 11594 C 1147.58 2.93147 -1.097 0
M  V30 11595 C 1148.06 4.20027 -1.82597 0
M  V30 11596 N 1149.55 4.26981 -1.7956 0
M  V30 11597 C 1150.28 5.24013 -2.32805 0
M  V30 11598 N 1149.78 6.27083 -2.94515 0
M  V30 11599 N 1151.57 5.15943 -2.23069 0
M  V30 11600 H 1143.72 1.32183 -1.66257 0
M  V30 11601 H 1145.99 0.637624 -0.701527 0
M  V30 11602 H 1145.69 2.76958 -2.16765 0
M  V30 11603 H 1145.57 3.70827 -0.690439 0
M  V30 11604 H 1147.95 2.95057 -0.0504037 0
M  V30 11605 H 1148.03 2.02849 -1.55839 0
M  V30 11606 H 1147.68 4.18878 -2.87235 0
M  V30 11607 H 1147.61 5.09294 -1.33893 0
M  V30 11608 H 1150.1 3.53129 -1.34567 0
M  V30 11609 H 1150.41 6.97511 -3.32714 0
M  V30 11610 H 1148.76 6.27589 -2.98592 0
M  V30 11611 H 1151.95 4.34346 -1.74532 0
M  V30 11612 H 1152.12 5.91396 -2.64868 0
M  V30 11613 N 1145.53 0.438773 1.51369 0
M  V30 11614 C 1146.78 -0.128723 2.01289 0
M  V30 11615 C 1147.09 -1.43659 1.32745 0
M  V30 11616 O 1148.3 -2.08712 1.73642 0
M  V30 11617 C 1146.75 -0.279945 3.5881 0
M  V30 11618 C 1146.36 1.01758 4.3629 0
M  V30 11619 C 1148.1 -0.801133 4.16872 0
M  V30 11620 C 1146.01 0.831918 5.85519 0
M  V30 11621 H 1144.94 -0.0518814 0.752213 0
M  V30 11622 H 1147.59 0.568753 1.74463 0
M  V30 11623 H 1145.97 -1.04046 3.82087 0
M  V30 11624 H 1147.15 1.78653 4.24758 0
M  V30 11625 H 1145.46 1.46741 3.89687 0
M  V30 11626 H 1148.06 -0.956548 5.26074 0
M  V30 11627 H 1148.4 -1.78396 3.76139 0
M  V30 11628 H 1148.94 -0.0988934 3.97677 0
M  V30 11629 H 1145.67 1.78716 6.30667 0
M  V30 11630 H 1145.19 0.102785 5.99712 0
M  V30 11631 H 1146.87 0.485681 6.45174 0
M  V30 11632 N 1147.01 -1.56678 0.170181 0
M  V30 11633 C 1147.94 -2.20916 -0.756213 0
M  V30 11634 C 1148.92 -1.16442 -1.23997 0
M  V30 11635 O 1150.1 -1.44867 -1.29333 0
M  V30 11636 C 1147.23 -2.84901 -1.98617 0
M  V30 11637 C 1146.19 -3.95403 -1.63831 0
M  V30 11638 C 1145.51 -4.46432 -2.94282 0
M  V30 11639 C 1146.81 -5.15051 -0.867195 0
M  V30 11640 H 1148.51 -2.98585 -0.220776 0
M  V30 11641 H 1146.05 -1.43619 -0.104748 0
M  V30 11642 H 1148 -3.28514 -2.63926 0
M  V30 11643 H 1146.73 -2.04598 -2.54572 0
M  V30 11644 H 1145.39 -3.52444 -1.00891 0
M  V30 11645 H 1145.04 -3.62923 -3.48276 0
M  V30 11646 H 1144.74 -5.20979 -2.71762 0
M  V30 11647 H 1146.26 -4.92731 -3.60622 0
M  V30 11648 H 1147.67 -5.55363 -1.42285 0
M  V30 11649 H 1146.07 -5.95507 -0.741065 0
M  V30 11650 H 1147.14 -4.84707 0.136693 0
M  V30 11651 N 1148.48 0.103547 -1.57259 0
M  V30 11652 C 1149.71 0.82235 -1.89855 0
M  V30 11653 C 1150.13 1.72694 -0.76303 0
M  V30 11654 O 1149.48 1.8056 0.265421 0
M  V30 11655 C 1149.53 1.64282 -3.22015 0
M  V30 11656 O 1149.26 0.774628 -4.31197 0
M  V30 11657 C 1150.76 2.46543 -3.68418 0
M  V30 11658 H 1147.98 0.235591 -0.628282 0
M  V30 11659 H 1150.52 0.0833106 -2.0433 0
M  V30 11660 H 1148.68 2.33446 -3.09163 0
M  V30 11661 H 1149.09 1.34205 -5.0704 0
M  V30 11662 H 1150.56 2.99618 -4.63609 0
M  V30 11663 H 1151.04 3.24618 -2.95838 0
M  V30 11664 H 1151.65 1.82594 -3.84109 0
M  V30 11665 N 1149.96 1.53094 0.37415 0
M  V30 11666 C 1150.87 1.81872 1.48188 0
M  V30 11667 C 1151.89 0.706487 1.59012 0
M  V30 11668 O 1153.06 0.995648 1.75068 0
M  V30 11669 C 1150.13 1.99494 2.83554 0
M  V30 11670 C 1149.19 3.23402 2.82329 0
M  V30 11671 C 1148.42 3.40174 4.11239 0
M  V30 11672 O 1148.65 2.61425 5.06965 0
M  V30 11673 O 1147.58 4.33493 4.17573 0
M  V30 11674 H 1151.41 2.75965 1.26795 0
M  V30 11675 H 1148.99 1.38368 0.56343 0
M  V30 11676 H 1150.87 2.12705 3.63778 0
M  V30 11677 H 1149.55 1.08591 3.04942 0
M  V30 11678 H 1148.45 3.15621 2.00834 0
M  V30 11679 H 1149.79 4.14199 2.65894 0
M  V30 11680 N 1151.44 -0.633461 1.44309 0
M  V30 11681 C 1152.4 -1.72743 1.50641 0
M  V30 11682 C 1153.4 -1.56031 0.388718 0
M  V30 11683 O 1154.59 -1.61568 0.651251 0
M  V30 11684 C 1151.72 -3.11804 1.37809 0
M  V30 11685 H 1152.92 -1.68503 2.48086 0
M  V30 11686 H 1150.47 -0.846912 1.31366 0
M  V30 11687 H 1151.21 -3.2164 0.414483 0
M  V30 11688 H 1150.99 -3.2534 2.18852 0
M  V30 11689 H 1152.48 -3.91538 1.45216 0
M  V30 11690 N 1152.92 -1.31168 -0.873655 0
M  V30 11691 C 1154.17 -1.20404 -1.62319 0
M  V30 11692 C 1154.49 0.238829 -1.93532 0
M  V30 11693 O 1153.76 1.15854 -1.57971 0
M  V30 11694 H 1152.34 -0.442632 -0.601736 0
M  V30 11695 H 1155 -1.64445 -1.04613 0
M  V30 11696 H 1154.1 -1.77309 -2.56842 0
M  V30 11697 N 1154.4 1.08748 -1.14068 0
M  V30 11698 C 1155.36 2.1375 -0.827266 0
M  V30 11699 C 1156.36 1.59936 0.166496 0
M  V30 11700 O 1157.55 1.74092 -0.0614305 0
M  V30 11701 C 1154.68 3.40106 -0.232557 0
M  V30 11702 H 1155.87 2.42985 -1.7578 0
M  V30 11703 H 1153.43 1.24402 -0.946244 0
M  V30 11704 H 1154.16 3.16503 0.706859 0
M  V30 11705 H 1153.95 3.8046 -0.948293 0
M  V30 11706 H 1155.44 4.17589 -0.0303662 0
M  V30 11707 N 1155.87 0.935264 1.26849 0
M  V30 11708 C 1156.81 0.397539 2.25726 0
M  V30 11709 C 1157.82 -0.475928 1.55688 0
M  V30 11710 O 1159.01 -0.287329 1.76172 0
M  V30 11711 C 1156.11 -0.448308 3.35922 0
M  V30 11712 C 1155.28 0.407624 4.35496 0
M  V30 11713 C 1154.34 -0.376815 5.24849 0
M  V30 11714 O 1153.37 0.218109 5.68782 0
M  V30 11715 N 1154.57 -1.67481 5.55815 0
M  V30 11716 H 1157.33 1.24753 2.72501 0
M  V30 11717 H 1154.89 0.803505 1.40554 0
M  V30 11718 H 1156.89 -0.980338 3.92647 0
M  V30 11719 H 1155.46 -1.19908 2.88688 0
M  V30 11720 H 1154.68 1.12091 3.77928 0
M  V30 11721 H 1155.96 0.992512 4.99026 0
M  V30 11722 H 1155.36 -2.18037 5.21993 0
M  V30 11723 H 1153.92 -2.15321 6.15207 0
M  V30 11724 N 1157.35 -1.41121 0.701616 0
M  V30 11725 C 1158.28 -2.33436 0.0545974 0
M  V30 11726 C 1159.26 -1.52144 -0.760662 0
M  V30 11727 O 1160.45 -1.80661 -0.712414 0
M  V30 11728 C 1157.58 -3.36015 -0.878117 0
M  V30 11729 C 1156.53 -4.27664 -0.169511 0
M  V30 11730 C 1155.86 -5.20666 -1.21699 0
M  V30 11731 C 1157.16 -5.13254 0.967859 0
M  V30 11732 H 1158.85 -2.87791 0.825637 0
M  V30 11733 H 1156.4 -1.38377 0.398484 0
M  V30 11734 H 1158.35 -3.99526 -1.34004 0
M  V30 11735 H 1157.08 -2.80024 -1.68089 0
M  V30 11736 H 1155.73 -3.65586 0.272441 0
M  V30 11737 H 1155.38 -4.60987 -2.01246 0
M  V30 11738 H 1155.08 -5.82822 -0.747836 0
M  V30 11739 H 1156.61 -5.87053 -1.6793 0
M  V30 11740 H 1158.02 -5.70298 0.585944 0
M  V30 11741 H 1156.42 -5.84381 1.3645 0
M  V30 11742 H 1157.49 -4.5006 1.80483 0
M  V30 11743 N 1158.83 -0.446794 -1.51134 0
M  V30 11744 C 1160.06 0.117242 -2.07068 0
M  V30 11745 C 1160.48 1.34877 -1.3111 0
M  V30 11746 O 1159.84 1.77856 -0.35172 0
M  V30 11747 C 1159.89 0.408616 -3.58277 0
M  V30 11748 O 1158.99 1.49345 -3.84408 0
M  V30 11749 H 1158.33 -0.00228458 -0.663996 0
M  V30 11750 H 1160.86 -0.63085 -1.94632 0
M  V30 11751 H 1160.87 0.656298 -4.02687 0
M  V30 11752 H 1159.55 -0.491444 -4.12986 0
M  V30 11753 H 1158.12 1.23499 -3.51856 0
M  V30 11754 N 1160.31 1.56586 -0.178487 0
M  V30 11755 C 1161.54 2.01475 0.470684 0
M  V30 11756 C 1161.95 1.0587 1.56323 0
M  V30 11757 O 1161.31 0.060749 1.82399 0
M  V30 11758 C 1161.36 3.46145 1.04238 0
M  V30 11759 O 1161.08 4.381 -0.0065582 0
M  V30 11760 C 1162.58 4.06471 1.76908 0
M  V30 11761 H 1159.8 0.660219 0.119801 0
M  V30 11762 H 1162.35 2.02542 -0.282322 0
M  V30 11763 H 1160.5 3.45831 1.74585 0
M  V30 11764 H 1160.91 5.22843 0.416554 0
M  V30 11765 H 1162.39 5.096 2.12161 0
M  V30 11766 H 1162.87 3.48974 2.66672 0
M  V30 11767 H 1163.47 4.10509 1.11186 0
M  V30 11768 N 1161.79 -0.095206 1.57312 0
M  V30 11769 C 1163.2 -0.649733 1.7503 0
M  V30 11770 C 1163.55 -1.7912 0.800652 0
M  V30 11771 O 1162.67 -2.1639 -0.0208831 0
M  V30 11772 C 1163.27 -1.18541 3.17386 0
M  V30 11773 C 1161.83 -1.686 3.36528 0
M  V30 11774 C 1160.97 -0.595531 2.7083 0
M  V30 11775 H 1163.93 0.130863 1.5816 0
M  V30 11776 H 1163.95 -2.05473 3.20252 0
M  V30 11777 H 1163.46 -0.35441 3.86478 0
M  V30 11778 H 1161.56 -2.541 2.72514 0
M  V30 11779 H 1161.67 -1.77907 4.44844 0
M  V30 11780 H 1160.04 -1.03495 2.32725 0
M  V30 11781 H 1160.82 0.224883 3.42563 0
M  V30 11782 N 1163.26 -1.53291 -0.366026 0
M  V30 11783 C 1164.51 -1.69702 -1.11036 0
M  V30 11784 C 1164.84 -0.44728 -1.88979 0
M  V30 11785 O 1164.12 0.55542 -1.86401 0
M  V30 11786 C 1164.4 -2.94661 -2.06995 0
M  V30 11787 C 1164.25 -4.29791 -1.32663 0
M  V30 11788 C 1165.57 -3.15219 -3.07123 0
M  V30 11789 H 1162.69 -0.617525 -0.402284 0
M  V30 11790 H 1165.33 -1.85929 -0.391223 0
M  V30 11791 H 1163.48 -2.80958 -2.68318 0
M  V30 11792 H 1165.16 -4.55305 -0.741266 0
M  V30 11793 H 1163.4 -4.29223 -0.628484 0
M  V30 11794 H 1164.07 -5.13359 -2.02896 0
M  V30 11795 H 1166.55 -3.28105 -2.55903 0
M  V30 11796 H 1165.42 -4.04088 -3.71489 0
M  V30 11797 H 1165.68 -2.30479 -3.77269 0
M  V30 11798 N 1164.74 0.6258 -1.44643 0
M  V30 11799 C 1165.67 1.74858 -1.54748 0
M  V30 11800 C 1166.65 1.65327 -0.400138 0
M  V30 11801 O 1167.84 1.84005 -0.620948 0
M  V30 11802 C 1164.97 3.13408 -1.49643 0
M  V30 11803 C 1163.92 3.37733 -2.62908 0
M  V30 11804 C 1163.25 4.76367 -2.42855 0
M  V30 11805 C 1164.55 3.29771 -4.05029 0
M  V30 11806 H 1166.24 1.66658 -2.48728 0
M  V30 11807 H 1163.79 0.800363 -1.19709 0
M  V30 11808 H 1165.74 3.91735 -1.55312 0
M  V30 11809 H 1164.47 3.22404 -0.521824 0
M  V30 11810 H 1163.12 2.61788 -2.56637 0
M  V30 11811 H 1162.77 4.82074 -1.43575 0
M  V30 11812 H 1162.47 4.936 -3.18799 0
M  V30 11813 H 1164 5.56917 -2.50351 0
M  V30 11814 H 1165.41 3.97996 -4.12641 0
M  V30 11815 H 1163.81 3.58538 -4.81218 0
M  V30 11816 H 1164.88 2.27493 -4.28223 0
M  V30 11817 N 1166.22 1.31629 0.866686 0
M  V30 11818 C 1167.15 1.22151 1.99001 0
M  V30 11819 C 1168.13 0.107972 1.69757 0
M  V30 11820 O 1169.32 0.293125 1.91975 0
M  V30 11821 C 1166.45 0.93144 3.34577 0
M  V30 11822 C 1165.4 2.0049 3.78137 0
M  V30 11823 C 1164.73 1.56747 5.11209 0
M  V30 11824 C 1166.03 3.41844 3.94892 0
M  V30 11825 H 1167.72 2.16132 2.0719 0
M  V30 11826 H 1165.27 1.04051 0.995463 0
M  V30 11827 H 1167.22 0.851719 4.12703 0
M  V30 11828 H 1165.94 -0.0440289 3.2657 0
M  V30 11829 H 1164.6 2.07457 3.02253 0
M  V30 11830 H 1164.25 0.579767 4.99648 0
M  V30 11831 H 1163.95 2.28562 5.41326 0
M  V30 11832 H 1165.47 1.50188 5.91841 0
M  V30 11833 H 1166.89 3.37534 4.63405 0
M  V30 11834 H 1165.29 4.11905 4.36411 0
M  V30 11835 H 1166.36 3.82389 2.98172 0
M  V30 11836 N 1167.7 -1.08142 1.14644 0
M  V30 11837 C 1168.92 -1.84857 0.940349 0
M  V30 11838 C 1169.35 -1.81163 -0.506117 0
M  V30 11839 O 1168.71 -1.19869 -1.36019 0
M  V30 11840 C 1168.76 -3.30198 1.4492 0
M  V30 11841 O 1167.86 -4.07355 0.64308 0
M  V30 11842 H 1167.2 -0.572711 0.336003 0
M  V30 11843 H 1169.73 -1.36475 1.52432 0
M  V30 11844 H 1169.74 -3.81039 1.45854 0
M  V30 11845 H 1168.42 -3.32202 2.50229 0
M  V30 11846 H 1166.99 -3.66219 0.702698 0
M  V30 11847 N 1169.18 -0.941978 -1.26351 0
M  V30 11848 C 1170.42 -0.590845 -1.94002 0
M  V30 11849 C 1170.76 0.868004 -1.73722 0
M  V30 11850 O 1170.03 1.62111 -1.07472 0
M  V30 11851 C 1170.31 -0.934901 -3.47752 0
M  V30 11852 C 1170.17 -2.44855 -3.77314 0
M  V30 11853 C 1171.49 -0.450888 -4.37784 0
M  V30 11854 H 1168.61 -0.21613 -0.704597 0
M  V30 11855 H 1171.25 -1.17634 -1.49205 0
M  V30 11856 H 1169.4 -0.436648 -3.86038 0
M  V30 11857 H 1171.07 -3.01959 -3.48738 0
M  V30 11858 H 1169.31 -2.89169 -3.23363 0
M  V30 11859 H 1169.98 -2.6398 -4.84787 0
M  V30 11860 H 1172.46 -0.878107 -4.06729 0
M  V30 11861 H 1171.34 -0.720439 -5.44152 0
M  V30 11862 H 1171.6 0.649162 -4.37308 0
M  V30 11863 N 1170.66 1.40747 -0.709091 0
M  V30 11864 C 1171.59 2.33404 -0.0669763 0
M  V30 11865 C 1172.57 1.52546 0.752582 0
M  V30 11866 O 1173.75 1.81036 0.702823 0
M  V30 11867 C 1170.88 3.36476 0.860285 0
M  V30 11868 C 1169.84 4.27748 0.146828 0
M  V30 11869 C 1169.16 5.21304 1.18937 0
M  V30 11870 C 1170.46 5.12734 -0.995064 0
M  V30 11871 H 1172.16 2.87349 -0.840888 0
M  V30 11872 H 1169.7 1.38163 -0.405817 0
M  V30 11873 H 1171.65 4.00231 1.31883 0
M  V30 11874 H 1170.38 2.80912 1.66602 0
M  V30 11875 H 1169.04 3.65437 -0.291826 0
M  V30 11876 H 1168.69 4.62048 1.98798 0
M  V30 11877 H 1168.39 5.8321 0.716917 0
M  V30 11878 H 1169.91 5.87936 1.64815 0
M  V30 11879 H 1171.32 5.69979 -0.61618 0
M  V30 11880 H 1169.72 5.83649 -1.39547 0
M  V30 11881 H 1170.79 4.49097 -1.82867 0
M  V30 11882 N 1172.13 0.454803 1.50895 0
M  V30 11883 C 1173.36 -0.103785 2.06339 0
M  V30 11884 C 1173.77 -1.35494 1.32053 0
M  V30 11885 O 1173.11 -1.79758 0.37852 0
M  V30 11886 C 1173.18 -0.474076 3.5636 0
M  V30 11887 C 1172.84 0.672736 4.52021 0
M  V30 11888 C 1173.84 1.55003 4.96256 0
M  V30 11889 C 1171.52 0.858435 4.9491 0
M  V30 11890 C 1173.52 2.59757 5.82069 0
M  V30 11891 C 1171.2 1.90922 5.8051 0
M  V30 11892 C 1172.2 2.77717 6.23989 0
M  V30 11893 O 1171.89 3.80989 7.07886 0
M  V30 11894 H 1171.62 -0.0035531 0.675991 0
M  V30 11895 H 1174.18 0.637816 1.95246 0
M  V30 11896 H 1172.41 -1.26863 3.65298 0
M  V30 11897 H 1174.09 -0.965845 3.94241 0
M  V30 11898 H 1174.86 1.41818 4.63802 0
M  V30 11899 H 1170.74 0.192384 4.60598 0
M  V30 11900 H 1174.28 3.27535 6.15927 0
M  V30 11901 H 1170.18 2.04121 6.12376 0
M  V30 11902 H 1170.95 3.7778 7.26102 0
M  V30 11903 N 1173.61 -1.56489 0.186789 0
M  V30 11904 C 1175.02 -1.83809 -0.327265 0
M  V30 11905 C 1175.37 -1.10718 -1.61976 0
M  V30 11906 O 1174.5 -0.36525 -2.13295 0
M  V30 11907 C 1175.09 -3.33435 -0.600551 0
M  V30 11908 C 1173.65 -3.61195 -1.059 0
M  V30 11909 C 1172.8 -2.77108 -0.103131 0
M  V30 11910 H 1175.75 -1.53292 0.410747 0
M  V30 11911 H 1175.77 -3.51754 -1.45084 0
M  V30 11912 H 1175.28 -3.86605 0.340315 0
M  V30 11913 H 1173.38 -3.13451 -2.01443 0
M  V30 11914 H 1173.5 -4.69435 -0.957458 0
M  V30 11915 H 1171.86 -2.47448 -0.603449 0
M  V30 11916 H 1172.64 -3.33065 0.832031 0
M  V30 11917 N 1175.09 0.086862 -1.5736 0
M  V30 11918 C 1176.5 0.640442 -1.75372 0
M  V30 11919 C 1176.85 1.78693 -0.81014 0
M  V30 11920 O 1175.98 2.16398 0.00940712 0
M  V30 11921 C 1176.57 1.16856 -3.1801 0
M  V30 11922 C 1175.13 1.66813 -3.37417 0
M  V30 11923 C 1174.28 0.58116 -2.71142 0
M  V30 11924 H 1177.23 -0.139249 -1.58088 0
M  V30 11925 H 1177.25 2.03772 -3.21337 0
M  V30 11926 H 1176.76 0.333909 -3.86661 0
M  V30 11927 H 1174.86 2.52652 -2.73858 0
M  V30 11928 H 1174.98 1.75545 -4.45781 0
M  V30 11929 H 1173.34 1.0226 -2.3327 0
M  V30 11930 H 1174.12 -0.243047 -3.42439 0
M  V30 11931 N 1176.57 1.53483 0.357892 0
M  V30 11932 C 1177.84 1.60649 1.11585 0
M  V30 11933 C 1178.22 0.418789 2.06904 0
M  V30 11934 O 1177.57 -0.590279 2.20744 0
M  V30 11935 C 1177.78 2.96046 1.84818 0
M  V30 11936 C 1179.13 3.50895 2.39076 0
M  V30 11937 O 1180.15 2.98126 1.94934 0
M  V30 11938 O 1179.01 4.43163 3.19794 0
M  V30 11939 H 1176.11 0.649202 0.512315 0
M  V30 11940 H 1178.65 1.65826 0.360537 0
M  V30 11941 H 1177.43 3.73929 1.15296 0
M  V30 11942 H 1177.05 2.94395 2.6724 0
M  V30 11943 N 1178.05 -0.61812 1.44973 0
M  V30 11944 C 1179.46 -0.937734 1.29146 0
M  V30 11945 C 1179.66 -2.00104 0.236749 0
M  V30 11946 O 1178.72 -2.49731 -0.372923 0
M  V30 11947 C 1180.03 -1.38865 2.66715 0
M  V30 11948 C 1181.58 -1.50343 2.74529 0
M  V30 11949 C 1182.05 -1.98814 4.12598 0
M  V30 11950 N 1183.54 -2.06064 4.14839 0
M  V30 11951 C 1184.28 -2.44768 5.18533 0
M  V30 11952 N 1183.78 -2.82516 6.32579 0
M  V30 11953 N 1185.57 -2.45016 5.05889 0
M  V30 11954 H 1177.72 0.084872 2.1223 0
M  V30 11955 H 1179.98 -0.0246744 0.947679 0
M  V30 11956 H 1179.69 -0.681583 3.45032 0
M  V30 11957 H 1179.56 -2.3572 2.94475 0
M  V30 11958 H 1181.95 -2.20144 1.96522 0
M  V30 11959 H 1182.03 -0.518297 2.50494 0
M  V30 11960 H 1181.67 -1.29604 4.91086 0
M  V30 11961 H 1181.6 -2.98223 4.34017 0
M  V30 11962 H 1184.1 -1.79525 3.32535 0
M  V30 11963 H 1184.41 -3.109 7.07504 0
M  V30 11964 H 1182.75 -2.80237 6.35997 0
M  V30 11965 H 1185.94 -2.14925 4.15842 0
M  V30 11966 H 1186.12 -2.74854 5.86821 0
M  V30 11967 N 1179.52 -1.32087 -0.859693 0
M  V30 11968 C 1180.93 -1.20107 -1.42938 0
M  V30 11969 C 1181.29 0.188411 -1.95293 0
M  V30 11970 O 1180.41 1.08683 -1.87128 0
M  V30 11971 C 1181.01 -2.17436 -2.59821 0
M  V30 11972 C 1179.56 -2.09359 -3.12803 0
M  V30 11973 C 1178.71 -2.06086 -1.85537 0
M  V30 11974 H 1181.66 -1.43989 -0.667302 0
M  V30 11975 H 1181.68 -1.76996 -3.36828 0
M  V30 11976 H 1181.2 -3.18555 -2.21685 0
M  V30 11977 H 1179.3 -1.1147 -3.55535 0
M  V30 11978 H 1179.41 -2.98947 -3.74389 0
M  V30 11979 H 1177.77 -1.51251 -2.04928 0
M  V30 11980 H 1178.56 -3.08978 -1.49625 0
M  V30 11981 N 1181 1.07532 -1.15215 0
M  V30 11982 C 1181.95 2.14687 -0.847243 0
M  V30 11983 C 1182.92 1.64903 0.199043 0
M  V30 11984 O 1184.1 1.90682 0.0669986 0
M  V30 11985 C 1181.24 3.43414 -0.340673 0
M  V30 11986 C 1180.36 4.06999 -1.44831 0
M  V30 11987 C 1179.49 5.23554 -0.898059 0
M  V30 11988 C 1178.53 5.79097 -1.98276 0
M  V30 11989 N 1177.67 6.86985 -1.44902 0
M  V30 11990 H 1182.51 2.4011 -1.76498 0
M  V30 11991 H 1180.04 1.17823 -0.880689 0
M  V30 11992 H 1182 4.1719 -0.0286956 0
M  V30 11993 H 1180.63 3.18249 0.540144 0
M  V30 11994 H 1179.68 3.30895 -1.87651 0
M  V30 11995 H 1181 4.44289 -2.26735 0
M  V30 11996 H 1180.15 6.04305 -0.538514 0
M  V30 11997 H 1178.89 4.87676 -0.0481752 0
M  V30 11998 H 1177.89 4.96992 -2.35115 0
M  V30 11999 H 1179.12 6.1703 -2.83639 0
M  V30 12000 H 1177.07 6.5305 -0.621468 0
M  V30 12001 H 1176.98 7.23149 -2.20434 0
M  V30 12002 H 1178.25 7.71446 -1.11767 0
M  V30 12003 N 1182.48 0.948665 1.2585 0
M  V30 12004 C 1183.41 0.482036 2.2847 0
M  V30 12005 C 1184.39 -0.468553 1.63519 0
M  V30 12006 O 1185.58 -0.368796 1.90666 0
M  V30 12007 C 1182.71 -0.246603 3.46423 0
M  V30 12008 C 1181.66 0.61815 4.23513 0
M  V30 12009 C 1180.99 -0.240884 5.34157 0
M  V30 12010 C 1182.29 1.89327 4.86778 0
M  V30 12011 H 1183.98 1.33973 2.67753 0
M  V30 12012 H 1181.53 0.645645 1.28715 0
M  V30 12013 H 1183.48 -0.584135 4.17332 0
M  V30 12014 H 1182.2 -1.13849 3.06114 0
M  V30 12015 H 1180.86 0.938682 3.54379 0
M  V30 12016 H 1180.51 -1.13235 4.90089 0
M  V30 12017 H 1180.21 0.334367 5.86648 0
M  V30 12018 H 1181.73 -0.573517 6.07901 0
M  V30 12019 H 1183.15 1.62252 5.49861 0
M  V30 12020 H 1181.55 2.41369 5.49419 0
M  V30 12021 H 1182.62 2.60006 4.09298 0
M  V30 12022 N 1183.96 -1.40369 0.716545 0
M  V30 12023 C 1185.18 -2.05704 0.264729 0
M  V30 12024 C 1185.61 -1.53634 -1.08527 0
M  V30 12025 O 1184.97 -0.67212 -1.68381 0
M  V30 12026 C 1185.01 -3.59692 0.255778 0
M  V30 12027 O 1184.12 -4.05286 -0.762686 0
M  V30 12028 H 1183.46 -0.652301 0.124092 0
M  V30 12029 H 1185.99 -1.7975 0.977295 0
M  V30 12030 H 1186 -4.07892 0.0937944 0
M  V30 12031 H 1184.67 -3.96955 1.24095 0
M  V30 12032 H 1183.25 -3.68543 -0.568347 0
M  V30 12033 N 1185.44 -0.462799 -1.50652 0
M  V30 12034 C 1186.4 0.324264 -2.26895 0
M  V30 12035 C 1187.4 0.927687 -1.31342 0
M  V30 12036 O 1188.59 0.798159 -1.54839 0
M  V30 12037 C 1185.72 1.46113 -3.08 0
M  V30 12038 H 1186.91 -0.344266 -2.97917 0
M  V30 12039 H 1184.47 -0.216631 -1.54791 0
M  V30 12040 H 1185.2 2.16496 -2.41454 0
M  V30 12041 H 1184.99 1.03433 -3.78212 0
M  V30 12042 H 1186.48 2.01655 -3.65684 0
M  V30 12043 N 1186.91 1.56388 -0.195085 0
M  V30 12044 C 1187.84 2.22091 0.720971 0
M  V30 12045 C 1188.83 1.184 1.22128 0
M  V30 12046 O 1190.01 1.46907 1.27012 0
M  V30 12047 C 1187.14 2.88025 1.94059 0
M  V30 12048 C 1186.09 3.97959 1.5752 0
M  V30 12049 C 1185.42 4.51058 2.87143 0
M  V30 12050 C 1186.72 5.16365 0.785145 0
M  V30 12051 H 1188.41 2.98898 0.173245 0
M  V30 12052 H 1185.96 1.43767 0.0818868 0
M  V30 12053 H 1187.91 3.32671 2.58666 0
M  V30 12054 H 1186.64 2.08623 2.51285 0
M  V30 12055 H 1185.3 3.54004 0.952715 0
M  V30 12056 H 1184.94 3.68418 3.42458 0
M  V30 12057 H 1184.64 5.25237 2.63439 0
M  V30 12058 H 1186.17 4.98406 3.52738 0
M  V30 12059 H 1187.58 5.57556 1.33431 0
M  V30 12060 H 1185.98 5.9661 0.646231 0
M  V30 12061 H 1187.05 4.84428 -0.213789 0
M  V30 12062 N 1188.39 -0.0785156 1.57404 0
M  V30 12063 C 1189.32 -1.09446 2.06262 0
M  V30 12064 C 1190.3 -1.40777 0.954772 0
M  V30 12065 O 1191.49 -1.5052 1.22708 0
M  V30 12066 C 1188.62 -2.40979 2.50093 0
M  V30 12067 C 1187.57 -2.24017 3.64692 0
M  V30 12068 C 1186.9 -3.60873 3.94556 0
M  V30 12069 C 1188.2 -1.66696 4.94985 0
M  V30 12070 H 1189.89 -0.687928 2.9139 0
M  V30 12071 H 1187.44 -0.329466 1.4018 0
M  V30 12072 H 1189.39 -3.12337 2.82884 0
M  V30 12073 H 1188.12 -2.83599 1.61985 0
M  V30 12074 H 1186.77 -1.55101 3.32174 0
M  V30 12075 H 1186.42 -4.01051 3.0359 0
M  V30 12076 H 1186.12 -3.50365 4.71718 0
M  V30 12077 H 1187.65 -4.33673 4.29837 0
M  V30 12078 H 1189.06 -2.27913 5.2605 0
M  V30 12079 H 1187.46 -1.66902 5.76423 0
M  V30 12080 H 1188.53 -0.627827 4.80818 0
M  V30 12081 N 1189.87 -1.5367 -0.349747 0
M  V30 12082 C 1191.15 -1.61238 -1.10732 0
M  V30 12083 C 1191.53 -0.429756 -2.06679 0
M  V30 12084 O 1190.88 0.578564 -2.21054 0
M  V30 12085 C 1191.09 -2.97022 -1.83245 0
M  V30 12086 C 1192.43 -3.52158 -2.37212 0
M  V30 12087 O 1193.46 -2.99156 -1.9335 0
M  V30 12088 O 1192.32 -4.44853 -3.1744 0
M  V30 12089 H 1189.41 -0.65191 -0.508864 0
M  V30 12090 H 1191.96 -1.66015 -0.351738 0
M  V30 12091 H 1190.73 -3.74535 -1.13311 0
M  V30 12092 H 1190.35 -2.95808 -2.65675 0
M  V30 12093 N 1191.35 0.610423 -1.45298 0
M  V30 12094 C 1192.28 1.73493 -1.48241 0
M  V30 12095 C 1193.26 1.59025 -0.339065 0
M  V30 12096 O 1194.44 1.80625 -0.539144 0
M  V30 12097 C 1191.57 3.11291 -1.33476 0
M  V30 12098 C 1190.62 3.44355 -2.51638 0
M  V30 12099 S 1191.45 3.39512 -4.14116 0
M  V30 12100 C 1192.61 4.79895 -4.01811 0
M  V30 12101 H 1192.84 1.70734 -2.43387 0
M  V30 12102 H 1190.37 0.786833 -1.32847 0
M  V30 12103 H 1192.33 3.90799 -1.25644 0
M  V30 12104 H 1190.99 3.11568 -0.39805 0
M  V30 12105 H 1190.18 4.44679 -2.37226 0
M  V30 12106 H 1189.79 2.72356 -2.56317 0
M  V30 12107 H 1192.08 5.6963 -3.6678 0
M  V30 12108 H 1193.02 4.99363 -5.02038 0
M  V30 12109 H 1193.43 4.55443 -3.33515 0
M  V30 12110 N 1192.83 1.32541 0.852676 0
M  V30 12111 C 1194.07 1.22971 1.60383 0
M  V30 12112 C 1194.4 -0.208009 1.93887 0
M  V30 12113 O 1193.67 -1.13326 1.59794 0
M  V30 12114 H 1192.25 0.452149 0.594618 0
M  V30 12115 H 1194.91 1.66089 1.01983 0
M  V30 12116 H 1194 1.81373 2.53989 0
M  V30 12117 N 1194.3 -1.0692 1.15784 0
M  V30 12118 C 1195.24 -2.14168 0.816375 0
M  V30 12119 C 1196.25 -1.61872 -0.17357 0
M  V30 12120 O 1197.44 -1.78429 0.0502973 0
M  V30 12121 C 1194.54 -3.38346 0.193682 0
M  V30 12122 C 1193.71 -4.19979 1.22215 0
M  V30 12123 C 1192.77 -5.2253 0.620424 0
M  V30 12124 O 1191.8 -5.54446 1.28757 0
M  V30 12125 N 1193 -5.77434 -0.595811 0
M  V30 12126 H 1195.76 -2.44062 1.73937 0
M  V30 12127 H 1193.32 -1.22865 1.05431 0
M  V30 12128 H 1195.32 -4.04092 -0.22174 0
M  V30 12129 H 1193.89 -3.06129 -0.632735 0
M  V30 12130 H 1193.11 -3.49984 1.81397 0
M  V30 12131 H 1194.39 -4.71329 1.91641 0
M  V30 12132 H 1193.79 -5.5376 -1.15611 0
M  V30 12133 H 1192.35 -6.44788 -0.953529 0
M  V30 12134 N 1195.78 -0.955326 -1.25345 0
M  V30 12135 C 1197.03 -0.609278 -1.92697 0
M  V30 12136 C 1197.35 0.856535 -1.75181 0
M  V30 12137 O 1196.62 1.61013 -1.11587 0
M  V30 12138 H 1195.2 -0.22235 -0.713141 0
M  V30 12139 H 1197.86 -1.21372 -1.52496 0
M  V30 12140 H 1196.96 -0.839198 -3.00606 0
M  V30 12141 N 1197.26 1.39987 -0.723979 0
M  V30 12142 C 1198.21 2.27938 -0.0531058 0
M  V30 12143 C 1199.2 1.43693 0.723965 0
M  V30 12144 O 1200.39 1.66707 0.594785 0
M  V30 12145 C 1197.52 3.32311 0.861659 0
M  V30 12146 C 1196.6 4.24026 0.079327 0
M  V30 12147 N 1196.99 4.96954 -0.941805 0
M  V30 12148 C 1195.29 4.44917 0.310637 0
M  V30 12149 C 1195.99 5.64287 -1.41261 0
M  V30 12150 N 1194.97 5.38632 -0.733217 0
M  V30 12151 H 1198.77 2.81771 -0.835608 0
M  V30 12152 H 1196.28 1.52538 -0.557315 0
M  V30 12153 H 1198.28 3.94174 1.35766 0
M  V30 12154 H 1196.94 2.80038 1.64344 0
M  V30 12155 H 1197.95 5.0072 -1.32288 0
M  V30 12156 H 1194.63 4.03606 1.06809 0
M  V30 12157 H 1196.02 6.32695 -2.26155 0
M  V30 12158 N 1198.74 0.470782 1.50404 0
M  V30 12159 C 1199.67 -0.369532 2.25188 0
M  V30 12160 C 1200.65 -0.996478 1.28488 0
M  V30 12161 O 1201.83 -1.03247 1.57709 0
M  V30 12162 C 1198.96 -1.51775 3.02791 0
M  V30 12163 C 1198.01 -1.00821 4.14412 0
M  V30 12164 S 1198.84 0.076844 5.35445 0
M  V30 12165 C 1200 -1.07525 6.16595 0
M  V30 12166 H 1200.23 0.265286 2.96114 0
M  V30 12167 H 1197.76 0.255662 1.52269 0
M  V30 12168 H 1199.72 -2.17582 3.48092 0
M  V30 12169 H 1198.38 -2.12408 2.31391 0
M  V30 12170 H 1197.57 -1.8678 4.68112 0
M  V30 12171 H 1197.18 -0.427851 3.71545 0
M  V30 12172 H 1199.47 -1.98693 6.47709 0
M  V30 12173 H 1200.41 -0.577518 7.05741 0
M  V30 12174 H 1200.82 -1.32894 5.48634 0
M  V30 12175 N 1200.22 -1.56282 0.203376 0
M  V30 12176 C 1201.18 -2.18233 -0.700489 0
M  V30 12177 C 1202.18 -1.13908 -1.13497 0
M  V30 12178 O 1203.37 -1.39246 -1.04672 0
M  V30 12179 C 1200.5 -2.79107 -1.95735 0
M  V30 12180 H 1201.7 -2.99469 -0.160649 0
M  V30 12181 H 1199.25 -1.56232 -0.0462475 0
M  V30 12182 H 1199.98 -2.01691 -2.53951 0
M  V30 12183 H 1199.77 -3.55486 -1.65446 0
M  V30 12184 H 1201.26 -3.2665 -2.60172 0
M  V30 12185 N 1201.7 0.070167 -1.57444 0
M  V30 12186 C 1202.63 1.08351 -2.06839 0
M  V30 12187 C 1203.61 1.40269 -0.962224 0
M  V30 12188 O 1204.79 1.49867 -1.23505 0
M  V30 12189 C 1201.92 2.39649 -2.51368 0
M  V30 12190 C 1200.88 2.22079 -3.65875 0
M  V30 12191 C 1200.2 3.58776 -3.96464 0
M  V30 12192 C 1201.5 1.64069 -4.95862 0
M  V30 12193 H 1203.2 0.672465 -2.9175 0
M  V30 12194 H 1200.74 0.322027 -1.40353 0
M  V30 12195 H 1202.69 3.10833 -2.84537 0
M  V30 12196 H 1201.42 2.82736 -1.63487 0
M  V30 12197 H 1200.08 1.53337 -3.32992 0
M  V30 12198 H 1199.73 3.99436 -3.05712 0
M  V30 12199 H 1199.43 3.47859 -4.7357 0
M  V30 12200 H 1200.95 4.31387 -4.32131 0
M  V30 12201 H 1202.36 2.2512 -5.27251 0
M  V30 12202 H 1200.76 1.63843 -5.773 0
M  V30 12203 H 1201.83 0.60232 -4.81145 0
M  V30 12204 N 1203.17 1.53854 0.341593 0
M  V30 12205 C 1204.42 1.71194 1.08162 0
M  V30 12206 C 1204.75 0.47614 1.88582 0
M  V30 12207 O 1204 -0.542115 1.88041 0
M  V30 12208 C 1204.3 2.92844 2.04884 0
M  V30 12209 C 1203.97 4.28366 1.40759 0
M  V30 12210 C 1202.63 4.65214 1.23 0
M  V30 12211 C 1204.98 5.12546 0.945819 0
M  V30 12212 C 1202.31 5.83857 0.576852 0
M  V30 12213 C 1204.66 6.31857 0.306568 0
M  V30 12214 C 1203.33 6.67398 0.116677 0
M  V30 12215 H 1202.6 0.626442 0.395792 0
M  V30 12216 H 1205.24 1.88073 0.360688 0
M  V30 12217 H 1203.55 2.70576 2.83365 0
M  V30 12218 H 1205.25 3.03454 2.62139 0
M  V30 12219 H 1201.84 3.99366 1.5558 0
M  V30 12220 H 1206.02 4.84609 1.07087 0
M  V30 12221 H 1201.28 6.09967 0.418363 0
M  V30 12222 H 1205.45 6.96375 -0.0593285 0
M  V30 12223 H 1203.08 7.59191 -0.391477 0
M  V30 12224 N 1204.65 -0.602709 1.4562 0
M  V30 12225 C 1205.9 -1.35769 1.49163 0
M  V30 12226 C 1206.21 -1.95102 0.139485 0
M  V30 12227 O 1207.42 -2.71449 0.0525919 0
M  V30 12228 C 1205.88 -2.45959 2.62739 0
M  V30 12229 C 1205.48 -1.93017 4.04288 0
M  V30 12230 C 1207.23 -3.22926 2.75534 0
M  V30 12231 C 1205.13 -3.00718 5.09237 0
M  V30 12232 H 1204.06 -0.510317 0.555061 0
M  V30 12233 H 1206.72 -0.645434 1.71774 0
M  V30 12234 H 1205.1 -3.19892 2.3342 0
M  V30 12235 H 1206.27 -1.2576 4.43307 0
M  V30 12236 H 1204.59 -1.2878 3.95986 0
M  V30 12237 H 1207.18 -4.03267 3.51112 0
M  V30 12238 H 1207.53 -3.74243 1.82339 0
M  V30 12239 H 1208.06 -2.56095 3.04402 0
M  V30 12240 H 1204.8 -2.54312 6.04157 0
M  V30 12241 H 1204.32 -3.66526 4.74783 0
M  V30 12242 H 1206 -3.65016 5.34202 0
M  V30 12243 N 1206.13 -1.32992 -0.845635 0
M  V30 12244 C 1207.37 -1.2539 -1.61421 0
M  V30 12245 C 1207.73 0.179395 -1.9116 0
M  V30 12246 O 1208.93 0.379275 -2.66111 0
M  V30 12247 C 1207.21 -2.09817 -2.8933 0
M  V30 12248 S 1208.76 -2.19335 -3.80049 0
M  V30 12249 H 1205.58 -0.446202 -0.553556 0
M  V30 12250 H 1208.18 -1.67946 -1.00072 0
M  V30 12251 H 1206.89 -3.12999 -2.65443 0
M  V30 12252 H 1206.42 -1.68073 -3.5569 0
M  V30 12253 H 1208.43 -1.34946 -4.77498 0
M  V30 12254 N 1207.61 1.06304 -1.1635 0
M  V30 12255 C 1208.84 1.82799 -0.96913 0
M  V30 12256 C 1209.25 1.82526 0.482659 0
M  V30 12257 O 1208.61 1.24437 1.33498 0
M  V30 12258 C 1208.66 3.29417 -1.48884 0
M  V30 12259 O 1208.38 3.29803 -2.88377 0
M  V30 12260 C 1209.88 4.22642 -1.33748 0
M  V30 12261 H 1207.1 0.576388 -0.343537 0
M  V30 12262 H 1209.64 1.34122 -1.54375 0
M  V30 12263 H 1207.8 3.75406 -0.956509 0
M  V30 12264 H 1208.21 4.21486 -3.1217 0
M  V30 12265 H 1209.69 5.23545 -1.74942 0
M  V30 12266 H 1210.16 4.38287 -0.283021 0
M  V30 12267 H 1210.77 3.82499 -1.85942 0
M  V30 12268 N 1209.09 0.96196 1.24836 0
M  V30 12269 C 1210.33 0.621634 1.93038 0
M  V30 12270 C 1210.66 -0.840257 1.75081 0
M  V30 12271 O 1209.94 -1.60381 1.10038 0
M  V30 12272 C 1210.22 0.990107 3.46221 0
M  V30 12273 C 1210.08 2.50827 3.73371 0
M  V30 12274 C 1211.39 0.520478 4.37011 0
M  V30 12275 H 1208.51 0.227312 0.701069 0
M  V30 12276 H 1211.16 1.19993 1.47315 0
M  V30 12277 H 1209.31 0.498008 3.85295 0
M  V30 12278 H 1210.98 3.07469 3.4389 0
M  V30 12279 H 1209.22 2.94277 3.18722 0
M  V30 12280 H 1209.89 2.71659 4.80526 0
M  V30 12281 H 1212.37 0.942703 4.05281 0
M  V30 12282 H 1211.24 0.806918 5.42937 0
M  V30 12283 H 1211.5 -0.579507 4.38285 0
M  V30 12284 N 1210.56 -1.39601 0.731392 0
M  V30 12285 C 1211.84 -1.94531 0.20422 0
M  V30 12286 C 1212.22 -1.66845 -1.29329 0
M  V30 12287 O 1211.57 -0.994706 -2.05713 0
M  V30 12288 C 1211.78 -3.44891 0.53395 0
M  V30 12289 C 1213.13 -4.21863 0.481298 0
M  V30 12290 O 1214.15 -3.53073 0.470929 0
M  V30 12291 O 1213.01 -5.44452 0.472663 0
M  V30 12292 H 1210.1 -0.826214 0.0360436 0
M  V30 12293 H 1212.65 -1.49121 0.810005 0
M  V30 12294 H 1211.42 -3.58463 1.56907 0
M  V30 12295 H 1211.04 -3.97472 -0.10099 0
M  V30 12296 N 1212.04 -0.478751 -1.50152 0
M  V30 12297 C 1213.27 0.0732929 -2.0727 0
M  V30 12298 C 1213.69 1.32066 -1.33941 0
M  V30 12299 O 1213.05 1.7707 -0.389367 0
M  V30 12300 C 1213.1 0.332528 -3.59064 0
M  V30 12301 O 1212.2 1.41158 -3.8749 0
M  V30 12302 H 1211.54 -0.0163684 -0.663798 0
M  V30 12303 H 1214.07 -0.671993 -1.9325 0
M  V30 12304 H 1214.08 0.570735 -4.03988 0
M  V30 12305 H 1212.76 -0.578934 -4.11851 0
M  V30 12306 H 1211.34 1.16008 -3.54396 0
M  V30 12307 N 1213.52 1.56172 -0.211661 0
M  V30 12308 C 1214.94 1.5895 0.143907 0
M  V30 12309 C 1215.14 1.22826 1.59737 0
M  V30 12310 O 1214.19 0.958823 2.33587 0
M  V30 12311 C 1215.51 3.00199 -0.173438 0
M  V30 12312 C 1217.05 3.12789 -0.114877 0
M  V30 12313 C 1217.53 4.56199 -0.405759 0
M  V30 12314 N 1219.02 4.61838 -0.354973 0
M  V30 12315 C 1219.75 5.70721 -0.553671 0
M  V30 12316 N 1219.25 6.88006 -0.813613 0
M  V30 12317 N 1221.04 5.59988 -0.486787 0
M  V30 12318 H 1213.19 1.77931 -1.15993 0
M  V30 12319 H 1215.46 0.826569 -0.464206 0
M  V30 12320 H 1215.16 3.31248 -1.18186 0
M  V30 12321 H 1215.04 3.73651 0.516232 0
M  V30 12322 H 1217.42 2.81543 0.884166 0
M  V30 12323 H 1217.51 2.41688 -0.837875 0
M  V30 12324 H 1217.15 4.88161 -1.40219 0
M  V30 12325 H 1217.08 5.25512 0.338318 0
M  V30 12326 H 1219.57 3.77555 -0.161352 0
M  V30 12327 H 1219.88 7.66894 -0.953594 0
M  V30 12328 H 1218.23 6.89774 -0.850696 0
M  V30 12329 H 1221.42 4.67238 -0.284009 0
M  V30 12330 H 1221.59 6.44781 -0.645051 0
M  V30 12331 N 1215 -0.0618163 1.57479 0
M  V30 12332 C 1216.41 -0.612461 1.76368 0
M  V30 12333 C 1216.76 -1.77381 0.838466 0
M  V30 12334 O 1215.89 -2.16386 0.0250211 0
M  V30 12335 C 1216.48 -1.11782 3.19829 0
M  V30 12336 C 1215.04 -1.61424 3.40028 0
M  V30 12337 C 1214.19 -0.53795 2.72032 0
M  V30 12338 H 1217.14 0.164382 1.57846 0
M  V30 12339 H 1217.16 -1.98634 3.24538 0
M  V30 12340 H 1216.67 -0.272353 3.87143 0
M  V30 12341 H 1214.77 -2.48263 2.77842 0
M  V30 12342 H 1214.88 -1.68431 4.48517 0
M  V30 12343 H 1213.25 -0.985355 2.34868 0
M  V30 12344 H 1214.03 0.297495 3.42009 0
M  V30 12345 N 1216.48 -1.54033 -0.333429 0
M  V30 12346 C 1217.41 -1.85719 -1.4153 0
M  V30 12347 C 1218.39 -0.713144 -1.54429 0
M  V30 12348 O 1219.57 -0.965984 -1.68471 0
M  V30 12349 C 1216.7 -2.07578 -2.78439 0
M  V30 12350 C 1215.66 -3.23411 -2.80338 0
M  V30 12351 C 1214.98 -3.30622 -4.2023 0
M  V30 12352 C 1216.28 -4.6129 -2.44968 0
M  V30 12353 H 1217.98 -2.76325 -1.15261 0
M  V30 12354 H 1215.52 -1.32957 -0.55303 0
M  V30 12355 H 1217.48 -2.28329 -3.5418 0
M  V30 12356 H 1216.2 -1.13713 -3.06165 0
M  V30 12357 H 1214.86 -3.02531 -2.07052 0
M  V30 12358 H 1214.51 -2.34333 -4.45081 0
M  V30 12359 H 1214.21 -4.08466 -4.22409 0
M  V30 12360 H 1215.73 -3.53596 -4.97798 0
M  V30 12361 H 1217.14 -4.81987 -3.10421 0
M  V30 12362 H 1215.54 -5.41611 -2.58414 0
M  V30 12363 H 1216.61 -4.6421 -1.40134 0
M  V30 12364 N 1217.95 0.594978 -1.45938 0
M  V30 12365 C 1218.92 1.68688 -1.55168 0
M  V30 12366 C 1219.92 1.54945 -0.429951 0
M  V30 12367 O 1221.11 1.59785 -0.693859 0
M  V30 12368 C 1218.24 3.0804 -1.46027 0
M  V30 12369 H 1219.43 1.61866 -2.52467 0
M  V30 12370 H 1216.99 0.811785 -1.33565 0
M  V30 12371 H 1217.72 3.20428 -0.499614 0
M  V30 12372 H 1217.51 3.19423 -2.27401 0
M  V30 12373 H 1219 3.8755 -1.55546 0
M  V30 12374 N 1219.43 1.33438 0.838571 0
M  V30 12375 C 1220.36 1.26344 1.96365 0
M  V30 12376 C 1221.34 0.143956 1.6949 0
M  V30 12377 O 1222.53 0.333779 1.9131 0
M  V30 12378 C 1219.66 1.0022 3.32526 0
M  V30 12379 C 1218.61 2.08466 3.73799 0
M  V30 12380 C 1217.94 1.67555 5.07769 0
M  V30 12381 C 1219.24 3.50144 3.87552 0
M  V30 12382 H 1220.93 2.20478 2.02558 0
M  V30 12383 H 1218.48 1.06139 0.973168 0
M  V30 12384 H 1220.43 0.939068 4.10803 0
M  V30 12385 H 1219.16 0.0252514 3.2659 0
M  V30 12386 H 1217.81 2.13822 2.97785 0
M  V30 12387 H 1217.46 0.685619 4.98305 0
M  V30 12388 H 1217.16 2.39993 5.36356 0
M  V30 12389 H 1218.69 1.62708 5.88522 0
M  V30 12390 H 1220.1 3.47287 4.56141 0
M  V30 12391 H 1218.5 4.21069 4.27575 0
M  V30 12392 H 1219.57 3.88628 2.89994 0
M  V30 12393 N 1220.91 -1.05686 1.16912 0
M  V30 12394 C 1221.84 -2.15268 0.904532 0
M  V30 12395 C 1222.82 -1.69424 -0.151548 0
M  V30 12396 O 1224.01 -1.942 -0.00235371 0
M  V30 12397 C 1221.14 -3.44853 0.411581 0
M  V30 12398 C 1220.09 -4.04237 1.40628 0
M  V30 12399 C 1219.42 -5.29105 0.771479 0
M  V30 12400 C 1220.72 -4.42303 2.77787 0
M  V30 12401 H 1222.41 -2.37659 1.82094 0
M  V30 12402 H 1219.96 -1.14217 0.876947 0
M  V30 12403 H 1221.91 -4.20857 0.213929 0
M  V30 12404 H 1220.63 -3.22099 -0.540352 0
M  V30 12405 H 1219.29 -3.30297 1.59058 0
M  V30 12406 H 1218.94 -5.02652 -0.187133 0
M  V30 12407 H 1218.64 -5.69797 1.43545 0
M  V30 12408 H 1220.16 -6.07801 0.583988 0
M  V30 12409 H 1221.58 -5.09362 2.63103 0
M  V30 12410 H 1219.98 -4.93997 3.40716 0
M  V30 12411 H 1221.05 -3.52877 3.32575 0
M  V30 12412 N 1222.39 -0.968567 -1.24324 0
M  V30 12413 C 1223.35 -0.504307 -2.23583 0
M  V30 12414 C 1224.35 0.399626 -1.55755 0
M  V30 12415 O 1225.54 0.194966 -1.73106 0
M  V30 12416 C 1222.67 0.26956 -3.39833 0
M  V30 12417 H 1223.87 -1.3818 -2.6617 0
M  V30 12418 H 1221.42 -0.753241 -1.36952 0
M  V30 12419 H 1222.15 1.16411 -3.02686 0
M  V30 12420 H 1221.94 -0.379133 -3.90263 0
M  V30 12421 H 1223.43 0.583376 -4.13505 0
M  V30 12422 N 1223.87 1.39211 -0.738786 0
M  V30 12423 C 1224.8 2.33209 -0.11647 0
M  V30 12424 C 1225.78 1.54108 0.720056 0
M  V30 12425 O 1226.96 1.82486 0.664264 0
M  V30 12426 C 1224.09 3.38226 0.78872 0
M  V30 12427 C 1223.05 4.27963 0.0560636 0
M  V30 12428 C 1222.37 5.2371 1.07852 0
M  V30 12429 C 1223.67 5.10508 -1.1036 0
M  V30 12430 H 1225.37 2.85501 -0.901649 0
M  V30 12431 H 1222.91 1.37272 -0.435032 0
M  V30 12432 H 1224.87 4.02938 1.23364 0
M  V30 12433 H 1223.59 2.84382 1.60606 0
M  V30 12434 H 1222.25 3.64735 -0.369274 0
M  V30 12435 H 1221.9 4.66161 1.88953 0
M  V30 12436 H 1221.6 5.846 0.593048 0
M  V30 12437 H 1223.12 5.91299 1.52307 0
M  V30 12438 H 1224.53 5.68544 -0.736943 0
M  V30 12439 H 1222.93 5.80558 -1.51895 0
M  V30 12440 H 1224 4.45117 -1.92352 0
M  V30 12441 N 1225.34 0.486708 1.49896 0
M  V30 12442 C 1226.59 -0.062852 2.02402 0
M  V30 12443 C 1226.92 -1.38306 1.36754 0
M  V30 12444 O 1226.17 -1.89531 0.487493 0
M  V30 12445 C 1226.47 -0.278643 3.56312 0
M  V30 12446 C 1226.14 0.961794 4.40523 0
M  V30 12447 C 1224.8 1.30185 4.63255 0
M  V30 12448 C 1227.15 1.78697 4.89609 0
M  V30 12449 C 1224.48 2.46686 5.32318 0
M  V30 12450 C 1226.83 2.9434 5.59953 0
M  V30 12451 C 1225.5 3.28742 5.80935 0
M  V30 12452 H 1224.77 -0.0229992 0.740643 0
M  V30 12453 H 1227.41 0.643963 1.80348 0
M  V30 12454 H 1225.72 -1.06785 3.76967 0
M  V30 12455 H 1227.42 -0.718078 3.94518 0
M  V30 12456 H 1224.01 0.686887 4.2306 0
M  V30 12457 H 1228.19 1.53742 4.71887 0
M  V30 12458 H 1223.45 2.73596 5.46768 0
M  V30 12459 H 1227.62 3.58616 5.96965 0
M  V30 12460 H 1225.25 4.19121 6.34225 0
M  V30 12461 N 1226.82 -1.56058 0.219941 0
M  V30 12462 C 1227.77 -2.16853 -0.704185 0
M  V30 12463 C 1228.76 -1.11639 -1.15869 0
M  V30 12464 O 1229.95 -1.37632 -1.11295 0
M  V30 12465 C 1227.08 -2.85073 -1.9128 0
M  V30 12466 C 1226.16 -3.9751 -1.47805 0
M  V30 12467 N 1226.56 -5.00121 -0.755792 0
M  V30 12468 C 1224.85 -4.0957 -1.76546 0
M  V30 12469 C 1225.55 -5.79241 -0.534332 0
M  V30 12470 N 1224.53 -5.32549 -1.09055 0
M  V30 12471 H 1228.33 -2.93547 -0.143914 0
M  V30 12472 H 1225.85 -1.62386 0.021133 0
M  V30 12473 H 1227.84 -3.27037 -2.58558 0
M  V30 12474 H 1226.5 -2.09874 -2.47756 0
M  V30 12475 H 1227.51 -5.16285 -0.408647 0
M  V30 12476 H 1224.19 -3.45521 -2.34353 0
M  V30 12477 H 1225.58 -6.71888 0.0404032 0
M  V30 12478 N 1228.3 0.053464 -1.57509 0
M  V30 12479 C 1229.55 0.747622 -1.87763 0
M  V30 12480 C 1229.87 1.77178 -0.814433 0
M  V30 12481 O 1229.14 1.95287 0.154862 0
M  V30 12482 H 1227.72 0.279109 -0.692898 0
M  V30 12483 H 1230.38 0.0252006 -1.94884 0
M  V30 12484 H 1229.48 1.25244 -2.85868 0
M  V30 12485 N 1229.78 1.54207 0.325255 0
M  V30 12486 C 1230.69 1.86495 1.42326 0
M  V30 12487 C 1231.71 0.756718 1.56684 0
M  V30 12488 O 1232.88 1.05084 1.71812 0
M  V30 12489 C 1229.95 2.08414 2.77064 0
M  V30 12490 C 1229.01 3.32221 2.71897 0
M  V30 12491 C 1228.24 3.53085 4.00209 0
M  V30 12492 O 1228.46 2.77421 4.98391 0
M  V30 12493 O 1227.4 4.46559 4.0357 0
M  V30 12494 H 1231.22 2.79859 1.17951 0
M  V30 12495 H 1228.81 1.40091 0.519124 0
M  V30 12496 H 1230.69 2.24171 3.56827 0
M  V30 12497 H 1229.37 1.18238 3.01333 0
M  V30 12498 H 1228.27 3.21851 1.90691 0
M  V30 12499 H 1229.61 4.22449 2.52582 0
M  V30 12500 N 1231.26 -0.58723 1.46251 0
M  V30 12501 C 1232.21 -1.69141 1.5289 0
M  V30 12502 C 1233.19 -1.56096 0.39024 0
M  V30 12503 O 1234.38 -1.65087 0.638373 0
M  V30 12504 C 1231.51 -3.07922 1.51785 0
M  V30 12505 C 1230.6 -3.2628 2.70928 0
M  V30 12506 N 1230.99 -3.14815 3.95885 0
M  V30 12507 C 1229.29 -3.57207 2.67056 0
M  V30 12508 C 1229.99 -3.35055 4.75514 0
M  V30 12509 N 1228.96 -3.59999 4.0731 0
M  V30 12510 H 1232.77 -1.588 2.47305 0
M  V30 12511 H 1230.28 -0.791124 1.41827 0
M  V30 12512 H 1232.28 -3.87164 1.54628 0
M  V30 12513 H 1230.94 -3.19397 0.584435 0
M  V30 12514 H 1231.95 -2.92778 4.27202 0
M  V30 12515 H 1228.63 -3.75394 1.82717 0
M  V30 12516 H 1230.02 -3.31412 5.84479 0
M  V30 12517 N 1232.74 -1.33881 -0.831482 0
M  V30 12518 C 1233.67 -1.27384 -1.95693 0
M  V30 12519 C 1234.65 -0.152943 -1.69411 0
M  V30 12520 O 1235.83 -0.34392 -1.9113 0
M  V30 12521 C 1232.96 -1.01982 -3.31989 0
M  V30 12522 C 1231.92 -2.10445 -3.72689 0
M  V30 12523 C 1231.24 -1.70245 -5.06873 0
M  V30 12524 C 1232.54 -3.52194 -3.8569 0
M  V30 12525 H 1234.24 -2.21549 -2.01386 0
M  V30 12526 H 1231.78 -1.06653 -0.967526 0
M  V30 12527 H 1233.73 -0.960841 -4.103 0
M  V30 12528 H 1232.46 -0.0425709 -3.26572 0
M  V30 12529 H 1231.12 -2.15398 -2.96647 0
M  V30 12530 H 1230.77 -0.712036 -4.97935 0
M  V30 12531 H 1230.47 -2.42834 -5.35075 0
M  V30 12532 H 1231.99 -1.65827 -5.87651 0
M  V30 12533 H 1233.4 -3.49701 -4.54293 0
M  V30 12534 H 1231.8 -4.23331 -4.25336 0
M  V30 12535 H 1232.87 -3.9016 -2.87929 0
M  V30 12536 N 1234.21 1.05064 -1.1747 0
M  V30 12537 C 1235.14 2.14786 -0.915936 0
M  V30 12538 C 1236.12 1.69502 0.142561 0
M  V30 12539 O 1237.31 1.94198 -0.00794522 0
M  V30 12540 C 1234.44 3.44629 -0.429864 0
M  V30 12541 C 1233.39 4.03486 -1.42769 0
M  V30 12542 C 1232.72 5.28689 -0.799528 0
M  V30 12543 C 1234.02 4.40823 -2.80129 0
M  V30 12544 H 1235.71 2.3669 -1.83352 0
M  V30 12545 H 1233.26 1.13751 -0.882992 0
M  V30 12546 H 1235.21 4.20737 -0.236245 0
M  V30 12547 H 1233.94 3.22381 0.523263 0
M  V30 12548 H 1232.6 3.29449 -1.60808 0
M  V30 12549 H 1232.24 5.02744 0.160474 0
M  V30 12550 H 1231.94 5.69028 -1.46565 0
M  V30 12551 H 1233.47 6.07483 -0.616212 0
M  V30 12552 H 1234.88 5.07959 -2.65801 0
M  V30 12553 H 1233.28 4.92183 -3.43331 0
M  V30 12554 H 1234.35 3.51108 -3.34441 0
M  V30 12555 N 1235.69 0.975146 1.23809 0
M  V30 12556 C 1236.65 0.516157 2.23312 0
M  V30 12557 C 1237.65 -0.39136 1.55965 0
M  V30 12558 O 1238.84 -0.185783 1.73206 0
M  V30 12559 C 1235.98 -0.251534 3.39971 0
M  V30 12560 H 1237.17 1.3959 2.65433 0
M  V30 12561 H 1234.72 0.760493 1.36551 0
M  V30 12562 H 1235.46 -1.14805 3.03299 0
M  V30 12563 H 1235.24 0.399825 3.90056 0
M  V30 12564 H 1236.73 -0.561438 4.13809 0
M  V30 12565 N 1237.17 -1.38817 0.746158 0
M  V30 12566 C 1238.4 -2.0457 0.309605 0
M  V30 12567 C 1238.81 -1.5627 -1.05948 0
M  V30 12568 O 1238.17 -0.73248 -1.67156 0
M  V30 12569 C 1238.22 -3.60126 0.314843 0
M  V30 12570 O 1237.94 -4.06652 1.6299 0
M  V30 12571 C 1239.44 -4.4309 -0.136497 0
M  V30 12572 H 1236.66 -0.657597 0.133441 0
M  V30 12573 H 1239.21 -1.77651 1.01293 0
M  V30 12574 H 1237.36 -3.85908 -0.339685 0
M  V30 12575 H 1237.78 -5.01042 1.55103 0
M  V30 12576 H 1239.25 -5.5194 -0.0816714 0
M  V30 12577 H 1239.73 -4.22959 -1.18332 0
M  V30 12578 H 1240.33 -4.22481 0.488879 0
M  V30 12579 N 1238.65 -0.49465 -1.49636 0
M  V30 12580 C 1239.87 0.051305 -2.07337 0
M  V30 12581 C 1240.3 1.30637 -1.35335 0
M  V30 12582 O 1239.66 1.76647 -0.408126 0
M  V30 12583 C 1239.7 0.294425 -3.59396 0
M  V30 12584 O 1238.81 1.3704 -3.88965 0
M  V30 12585 H 1238.15 -0.023408 -0.663587 0
M  V30 12586 H 1240.68 -0.692451 -1.92526 0
M  V30 12587 H 1240.69 0.527854 -4.04571 0
M  V30 12588 H 1239.36 -0.622583 -4.11214 0
M  V30 12589 H 1237.94 1.12242 -3.55607 0
M  V30 12590 N 1240.13 1.55939 -0.228214 0
M  V30 12591 C 1241.06 2.2357 0.6737 0
M  V30 12592 C 1242.04 1.20964 1.1959 0
M  V30 12593 O 1243.22 1.49568 1.23867 0
M  V30 12594 C 1240.35 2.92076 1.87906 0
M  V30 12595 C 1239.31 4.01211 1.49043 0
M  V30 12596 C 1238.63 4.57047 2.77511 0
M  V30 12597 C 1239.93 5.17914 0.67544 0
M  V30 12598 H 1241.63 2.99199 0.109806 0
M  V30 12599 H 1239.17 1.43908 0.0513732 0
M  V30 12600 H 1241.12 3.38083 2.51551 0
M  V30 12601 H 1239.85 2.13906 2.46803 0
M  V30 12602 H 1238.51 3.55945 0.877411 0
M  V30 12603 H 1238.16 3.75599 3.34566 0
M  V30 12604 H 1237.86 5.30707 2.52239 0
M  V30 12605 H 1239.38 5.05776 3.42087 0
M  V30 12606 H 1240.79 5.60261 1.21575 0
M  V30 12607 H 1239.19 5.97847 0.519536 0
M  V30 12608 H 1240.26 4.83866 -0.316495 0
M  V30 12609 N 1241.6 -0.0451101 1.57535 0
M  V30 12610 C 1242.85 -0.737654 1.88157 0
M  V30 12611 C 1243.17 -1.76743 0.823817 0
M  V30 12612 O 1242.44 -1.95366 -0.144503 0
M  V30 12613 H 1241.02 -0.275431 0.694368 0
M  V30 12614 H 1243.69 -0.0148651 1.94894 0
M  V30 12615 H 1242.78 -1.23726 2.86528 0
M  V30 12616 N 1243.08 -1.54377 -0.317073 0
M  V30 12617 C 1244.49 -1.64062 -0.891105 0
M  V30 12618 C 1244.84 -0.538863 -1.88655 0
M  V30 12619 O 1243.97 0.32718 -2.13912 0
M  V30 12620 C 1244.56 -2.97395 -1.62302 0
M  V30 12621 C 1243.12 -3.09253 -2.14568 0
M  V30 12622 C 1242.27 -2.59664 -0.973146 0
M  V30 12623 H 1245.22 -1.58418 -0.0944829 0
M  V30 12624 H 1245.24 -2.87918 -2.48764 0
M  V30 12625 H 1244.75 -3.77562 -0.898268 0
M  V30 12626 H 1242.86 -2.33774 -2.90139 0
M  V30 12627 H 1242.97 -4.15159 -2.39123 0
M  V30 12628 H 1241.33 -2.15719 -1.35416 0
M  V30 12629 H 1242.12 -3.42294 -0.262611 0
M  V30 12630 N 1244.56 0.579466 -1.4656 0
M  V30 12631 C 1245.49 1.70291 -1.53406 0
M  V30 12632 C 1246.51 1.57232 -0.422116 0
M  V30 12633 O 1247.69 1.64598 -0.69064 0
M  V30 12634 C 1244.79 3.08572 -1.40131 0
M  V30 12635 C 1243.97 3.47602 -2.65502 0
M  V30 12636 C 1243.03 4.64955 -2.4638 0
M  V30 12637 O 1242.05 4.70653 -3.20116 0
M  V30 12638 N 1243.25 5.60041 -1.52756 0
M  V30 12639 H 1246.02 1.64873 -2.50274 0
M  V30 12640 H 1243.58 0.765533 -1.42658 0
M  V30 12641 H 1245.57 3.84877 -1.25106 0
M  V30 12642 H 1244.14 3.0834 -0.514322 0
M  V30 12643 H 1243.36 2.60969 -2.95446 0
M  V30 12644 H 1244.65 3.70446 -3.48779 0
M  V30 12645 H 1244.05 5.58176 -0.919587 0
M  V30 12646 H 1242.61 6.35764 -1.43693 0
M  V30 12647 N 1246.04 1.3432 0.824371 0
M  V30 12648 C 1247.28 1.26783 1.58284 0
M  V30 12649 C 1247.62 -0.162282 1.93521 0
M  V30 12650 O 1246.89 -1.1073 1.59903 0
M  V30 12651 C 1247.18 2.15725 2.88331 0
M  V30 12652 C 1247.03 3.67266 2.59684 0
M  V30 12653 C 1248.35 2.04141 3.8989 0
M  V30 12654 H 1245.47 0.461893 0.574303 0
M  V30 12655 H 1248.11 1.64558 0.949769 0
M  V30 12656 H 1246.26 1.83639 3.42358 0
M  V30 12657 H 1247.93 4.09711 2.11978 0
M  V30 12658 H 1246.17 3.88426 1.93151 0
M  V30 12659 H 1246.84 4.24863 3.52414 0
M  V30 12660 H 1249.32 2.3231 3.45212 0
M  V30 12661 H 1248.2 2.68601 4.7869 0
M  V30 12662 H 1248.46 1.01795 4.30221 0
M  V30 12663 N 1247.52 -1.0444 1.18026 0
M  V30 12664 C 1248.93 -1.5903 0.978076 0
M  V30 12665 C 1249.28 -1.90407 -0.473241 0
M  V30 12666 O 1248.4 -1.69133 -1.34992 0
M  V30 12667 C 1249 -2.88942 1.76912 0
M  V30 12668 C 1247.56 -3.40164 1.61139 0
M  V30 12669 C 1246.7 -2.13797 1.76596 0
M  V30 12670 H 1249.66 -0.871574 1.32625 0
M  V30 12671 H 1249.68 -3.59173 1.25598 0
M  V30 12672 H 1249.19 -2.66074 2.82535 0
M  V30 12673 H 1247.29 -3.68053 0.580353 0
M  V30 12674 H 1247.4 -4.14241 2.40709 0
M  V30 12675 H 1245.77 -2.24922 1.19507 0
M  V30 12676 H 1246.55 -1.93389 2.83647 0
M  V30 12677 N 1248.99 -0.981699 -1.2329 0
M  V30 12678 C 1250.22 -0.669025 -1.96313 0
M  V30 12679 C 1250.64 0.757624 -1.72168 0
M  V30 12680 O 1250 1.51626 -0.993942 0
M  V30 12681 C 1250.05 -0.966875 -3.47396 0
M  V30 12682 O 1249.15 -0.0595933 -4.12357 0
M  V30 12683 H 1248.5 -0.251493 -0.61453 0
M  V30 12684 H 1251.03 -1.31564 -1.56691 0
M  V30 12685 H 1251.04 -0.904112 -3.97857 0
M  V30 12686 H 1249.71 -2.00651 -3.64296 0
M  V30 12687 H 1248.29 -0.176878 -3.7248 0
M  V30 12688 N 1250.47 1.3842 -0.753509 0
M  V30 12689 C 1251.42 2.27774 -0.101443 0
M  V30 12690 C 1252.41 1.45196 0.693322 0
M  V30 12691 O 1253.6 1.67931 0.55929 0
M  V30 12692 C 1250.73 3.34064 0.790977 0
M  V30 12693 C 1249.81 4.24099 -0.010633 0
M  V30 12694 N 1250.2 4.94845 -1.047 0
M  V30 12695 C 1248.5 4.45476 0.216193 0
M  V30 12696 C 1249.2 5.61164 -1.53199 0
M  V30 12697 N 1248.18 5.36956 -0.847304 0
M  V30 12698 H 1251.98 2.79935 -0.895188 0
M  V30 12699 H 1249.5 1.51321 -0.589545 0
M  V30 12700 H 1251.49 3.96965 1.27375 0
M  V30 12701 H 1250.15 2.83461 1.58367 0
M  V30 12702 H 1251.16 4.97801 -1.42879 0
M  V30 12703 H 1247.84 4.05781 0.982238 0
M  V30 12704 H 1249.23 6.27756 -2.39525 0
M  V30 12705 N 1251.95 0.502579 1.49372 0
M  V30 12706 C 1253.2 -0.0412993 2.02058 0
M  V30 12707 C 1253.52 -1.37338 1.38431 0
M  V30 12708 O 1252.79 -1.88305 0.540175 0
M  V30 12709 H 1251.37 -0.0182522 0.746777 0
M  V30 12710 H 1254.03 0.660179 1.83378 0
M  V30 12711 H 1253.13 -0.169812 3.11638 0
M  V30 12712 N 1253.43 -1.55816 0.23648 0
M  V30 12713 C 1254.84 -1.59159 -0.118601 0
M  V30 12714 C 1255.04 -1.25352 -1.57763 0
M  V30 12715 O 1254.1 -0.995863 -2.32032 0
M  V30 12716 C 1255.41 -2.99885 0.221175 0
M  V30 12717 C 1256.96 -3.12567 0.164624 0
M  V30 12718 C 1257.44 -4.55496 0.478285 0
M  V30 12719 N 1258.93 -4.61215 0.428402 0
M  V30 12720 C 1259.66 -5.69768 0.644398 0
M  V30 12721 N 1259.16 -6.86624 0.922966 0
M  V30 12722 N 1260.95 -5.59143 0.575814 0
M  V30 12723 H 1253.1 -1.76063 1.18809 0
M  V30 12724 H 1255.37 -0.819079 0.477297 0
M  V30 12725 H 1255.07 -3.29326 1.2344 0
M  V30 12726 H 1254.95 -3.74425 -0.456723 0
M  V30 12727 H 1257.33 -2.82914 -0.839263 0
M  V30 12728 H 1257.41 -2.40325 0.876219 0
M  V30 12729 H 1257.06 -4.85868 1.47968 0
M  V30 12730 H 1256.99 -5.25984 -0.254671 0
M  V30 12731 H 1259.48 -3.77251 0.221398 0
M  V30 12732 H 1259.79 -7.6528 1.07548 0
M  V30 12733 H 1258.14 -6.88333 0.960325 0
M  V30 12734 H 1261.33 -4.66727 0.358307 0
M  V30 12735 H 1261.5 -6.43674 0.747548 0
M  V30 12736 N 1254.91 0.036755 -1.57557 0
M  V30 12737 C 1256.15 0.729106 -1.88919 0
M  V30 12738 C 1256.48 1.75769 -0.832801 0
M  V30 12739 O 1255.74 1.94985 0.167173 0
M  V30 12740 C 1256.04 1.44206 -3.27016 0
M  V30 12741 C 1255.7 0.550184 -4.47531 0
M  V30 12742 C 1254.36 0.304511 -4.80236 0
M  V30 12743 C 1256.72 -0.0660664 -5.21158 0
M  V30 12744 C 1254.04 -0.566316 -5.8396 0
M  V30 12745 C 1256.4 -0.92455 -6.25807 0
M  V30 12746 C 1255.06 -1.17976 -6.56992 0
M  V30 12747 H 1254.33 0.266799 -0.691303 0
M  V30 12748 H 1256.98 -0.0108698 -1.91497 0
M  V30 12749 H 1255.28 2.25516 -3.2039 0
M  V30 12750 H 1256.98 1.98317 -3.48527 0
M  V30 12751 H 1253.57 0.751814 -4.21955 0
M  V30 12752 H 1257.75 0.110784 -4.96176 0
M  V30 12753 H 1253.01 -0.772428 -6.06501 0
M  V30 12754 H 1257.18 -1.40861 -6.82005 0
M  V30 12755 H 1254.81 -1.85627 -7.37188 0
M  V30 12756 N 1256.39 1.54543 0.308881 0
M  V30 12757 C 1257.32 1.81309 1.40212 0
M  V30 12758 C 1258.33 0.69568 1.47187 0
M  V30 12759 O 1259.52 0.973034 1.49647 0
M  V30 12760 C 1256.62 1.92901 2.78644 0
M  V30 12761 C 1255.79 3.23222 2.94697 0
M  V30 12762 C 1254.85 3.25329 4.13579 0
M  V30 12763 O 1253.88 3.989 4.06039 0
M  V30 12764 N 1255.08 2.50158 5.23833 0
M  V30 12765 H 1257.84 2.75659 1.1761 0
M  V30 12766 H 1255.41 1.54021 0.498925 0
M  V30 12767 H 1257.4 1.91721 3.56406 0
M  V30 12768 H 1255.97 1.05582 2.9423 0
M  V30 12769 H 1255.19 3.37241 2.04113 0
M  V30 12770 H 1256.48 4.09238 3.02328 0
M  V30 12771 H 1255.87 1.90002 5.32838 0
M  V30 12772 H 1254.43 2.5474 5.99959 0
M  V30 12773 N 1257.86 -0.571685 1.46866 0
M  V30 12774 C 1258.83 -1.66198 1.57832 0
M  V30 12775 C 1259.83 -1.54242 0.454547 0
M  V30 12776 O 1261.02 -1.58661 0.719191 0
M  V30 12777 C 1258.15 -3.05678 1.5091 0
M  V30 12778 H 1259.34 -1.57829 2.5501 0
M  V30 12779 H 1256.89 -0.790433 1.3484 0
M  V30 12780 H 1257.63 -3.19593 0.550529 0
M  V30 12781 H 1257.41 -3.15765 2.32454 0
M  V30 12782 H 1258.9 -3.85027 1.61692 0
M  V30 12783 N 1259.34 -1.34755 -0.817236 0
M  V30 12784 C 1260.29 -1.26801 -1.92848 0
M  V30 12785 C 1261.26 -0.142077 -1.65491 0
M  V30 12786 O 1262.44 -0.324006 -1.88029 0
M  V30 12787 C 1259.58 -1.03513 -3.2921 0
M  V30 12788 C 1258.7 -2.24932 -3.68822 0
M  V30 12789 C 1257.83 -1.94881 -4.94161 0
M  V30 12790 C 1256.87 -3.12411 -5.2637 0
M  V30 12791 N 1256.01 -2.82207 -6.42887 0
M  V30 12792 H 1260.85 -2.21832 -1.98983 0
M  V30 12793 H 1258.38 -1.10284 -0.973439 0
M  V30 12794 H 1260.34 -0.88047 -4.07803 0
M  V30 12795 H 1258.97 -0.121478 -3.22571 0
M  V30 12796 H 1258.02 -2.51299 -2.85575 0
M  V30 12797 H 1259.34 -3.12726 -3.88592 0
M  V30 12798 H 1258.49 -1.76184 -5.80555 0
M  V30 12799 H 1257.23 -1.04355 -4.76405 0
M  V30 12800 H 1256.23 -3.31698 -4.3847 0
M  V30 12801 H 1257.46 -4.03724 -5.46062 0
M  V30 12802 H 1255.41 -1.94263 -6.26576 0
M  V30 12803 H 1255.32 -3.63534 -6.62857 0
M  V30 12804 H 1256.59 -2.67026 -7.32337 0
M  V30 12805 N 1260.82 1.03812 -1.18578 0
M  V30 12806 C 1261.78 2.10049 -0.91718 0
M  V30 12807 C 1262.78 1.60498 0.0985122 0
M  V30 12808 O 1263.97 1.73674 -0.135213 0
M  V30 12809 C 1261.1 3.38813 -0.376599 0
M  V30 12810 H 1262.3 2.3531 -1.85927 0
M  V30 12811 H 1259.85 1.20277 -0.998156 0
M  V30 12812 H 1260.59 3.19216 0.571983 0
M  V30 12813 H 1260.37 3.76096 -1.10881 0
M  V30 12814 H 1261.86 4.17084 -0.207453 0
M  V30 12815 N 1262.3 0.988223 1.22768 0
M  V30 12816 C 1263.21 0.543407 2.2822 0
M  V30 12817 C 1264.22 -0.405563 1.69208 0
M  V30 12818 O 1265.4 -0.273551 1.99534 0
M  V30 12819 C 1262.46 -0.139495 3.46419 0
M  V30 12820 C 1261.53 0.851853 4.20764 0
M  V30 12821 C 1260.76 0.201446 5.3332 0
M  V30 12822 O 1260.98 -1.00573 5.61464 0
M  V30 12823 O 1259.92 0.903956 5.95073 0
M  V30 12824 H 1263.74 1.42059 2.68427 0
M  V30 12825 H 1261.33 0.756239 1.28846 0
M  V30 12826 H 1263.21 -0.522226 4.18152 0
M  V30 12827 H 1261.88 -0.991315 3.08147 0
M  V30 12828 H 1260.79 1.28543 3.51322 0
M  V30 12829 H 1262.12 1.67273 4.62905 0
M  V30 12830 N 1263.78 -1.38018 0.760839 0
M  V30 12831 C 1264.74 -2.28734 0.146154 0
M  V30 12832 C 1265.74 -1.47525 -0.639768 0
M  V30 12833 O 1266.93 -1.6788 -0.464964 0
M  V30 12834 C 1264.06 -3.31356 -0.801019 0
M  V30 12835 H 1265.25 -2.84599 0.945692 0
M  V30 12836 H 1262.81 -1.471 0.528323 0
M  V30 12837 H 1263.54 -2.80594 -1.62597 0
M  V30 12838 H 1263.33 -3.91366 -0.239775 0
M  V30 12839 H 1264.82 -3.99171 -1.22687 0
M  V30 12840 N 1265.25 -0.510493 -1.49103 0
M  V30 12841 C 1266.2 0.276449 -2.30951 0
M  V30 12842 C 1267.2 0.953893 -1.3999 0
M  V30 12843 O 1268.4 0.880499 -1.56994 0
M  V30 12844 H 1264.78 0.108013 -0.744202 0
M  V30 12845 H 1266.75 -0.433725 -2.95231 0
M  V30 12846 C 1265.5 1.32234 -3.21573 0
M  V30 12847 H 1264.82 0.810468 -3.91499 0
M  V30 12848 H 1266.26 1.84476 -3.81765 0
M  V30 12849 C 1264.72 2.3456 -2.41833 0
M  V30 12850 O 1265.25 3.40627 -2.12922 0
M  V30 12851 N 1263.45 2.07272 -2.03682 0
M  V30 12852 H 1263 1.21036 -2.27394 0
M  V30 12853 H 1262.96 2.75963 -1.50638 0
M  V30 12854 N 1266.73 1.55688 -0.24474 0
M  V30 12855 C 1267.96 2.03743 0.387776 0
M  V30 12856 C 1268.38 1.1229 1.50906 0
M  V30 12857 O 1267.74 0.115445 1.80932 0
M  V30 12858 C 1267.79 3.49825 0.874927 0
M  V30 12859 O 1266.89 3.61504 1.98466 0
M  V30 12860 H 1266.23 0.658561 0.0848107 0
M  V30 12861 H 1268.76 2.01224 -0.370165 0
M  V30 12862 H 1268.77 3.90603 1.17871 0
M  V30 12863 H 1267.45 4.15864 0.0543852 0
M  V30 12864 H 1266.02 3.32622 1.68574 0
M  V30 12865 N 1268.21 -0.0283989 1.57574 0
M  V30 12866 C 1269.14 -1.02828 2.09639 0
M  V30 12867 C 1270.12 -1.37668 0.999076 0
M  V30 12868 O 1271.31 -1.4654 1.27435 0
M  V30 12869 C 1268.44 -2.329 2.57633 0
M  V30 12870 C 1267.39 -2.12301 3.71635 0
M  V30 12871 C 1266.72 -3.48138 4.05837 0
M  V30 12872 C 1268.02 -1.50864 5.00037 0
M  V30 12873 H 1269.71 -0.594876 2.93431 0
M  V30 12874 H 1267.26 -0.284701 1.41158 0
M  V30 12875 H 1269.21 -3.03179 2.92678 0
M  V30 12876 H 1267.93 -2.78302 1.70926 0
M  V30 12877 H 1266.59 -1.44454 3.3694 0
M  V30 12878 H 1266.24 -3.9119 3.16195 0
M  V30 12879 H 1265.94 -3.3518 4.82626 0
M  V30 12880 H 1267.46 -4.19779 4.43417 0
M  V30 12881 H 1268.88 -2.11062 5.33035 0
M  V30 12882 H 1267.27 -1.48479 5.81441 0
M  V30 12883 H 1268.34 -0.474541 4.82572 0
M  V30 12884 N 1269.69 -1.54705 -0.300681 0
M  V30 12885 C 1270.63 -1.85678 -1.37084 0
M  V30 12886 C 1271.6 -0.70573 -1.50362 0
M  V30 12887 O 1272.79 -0.954385 -1.65215 0
M  V30 12888 C 1269.93 -2.10995 -2.73084 0
M  V30 12889 C 1269.04 -3.38621 -2.68254 0
M  V30 12890 C 1268.18 -3.53779 -3.9625 0
M  V30 12891 C 1267.22 -4.75195 -3.85818 0
M  V30 12892 N 1266.35 -4.87157 -5.05591 0
M  V30 12893 H 1271.19 -2.76967 -1.09971 0
M  V30 12894 H 1268.73 -1.37147 -0.531887 0
M  V30 12895 H 1270.69 -2.23669 -3.52176 0
M  V30 12896 H 1269.32 -1.22973 -2.98458 0
M  V30 12897 H 1268.37 -3.34566 -1.81025 0
M  V30 12898 H 1269.68 -4.27834 -2.56436 0
M  V30 12899 H 1268.84 -3.66119 -4.83779 0
M  V30 12900 H 1267.58 -2.62699 -4.10902 0
M  V30 12901 H 1266.58 -4.62888 -2.96673 0
M  V30 12902 H 1267.81 -5.67683 -3.72711 0
M  V30 12903 H 1265.75 -3.99001 -5.20706 0
M  V30 12904 H 1265.67 -5.70372 -4.96197 0
M  V30 12905 H 1266.94 -5.03854 -5.9477 0
M  V30 12906 N 1271.17 0.563888 -1.47167 0
M  V30 12907 C 1272.1 1.68137 -1.62025 0
M  V30 12908 C 1273.08 1.63481 -0.469899 0
M  V30 12909 O 1274.26 1.81206 -0.698432 0
M  V30 12910 C 1271.39 3.06779 -1.62801 0
M  V30 12911 C 1270.35 3.26278 -2.76996 0
M  V30 12912 C 1269.67 4.65638 -2.62841 0
M  V30 12913 C 1270.97 3.12295 -4.18651 0
M  V30 12914 H 1272.67 1.55958 -2.55573 0
M  V30 12915 H 1270.21 0.74887 -1.22996 0
M  V30 12916 H 1272.17 3.84795 -1.71787 0
M  V30 12917 H 1270.89 3.19901 -0.658097 0
M  V30 12918 H 1269.55 2.50668 -2.67509 0
M  V30 12919 H 1269.2 4.75551 -1.63892 0
M  V30 12920 H 1268.9 4.79635 -3.39447 0
M  V30 12921 H 1270.42 5.45798 -2.73746 0
M  V30 12922 H 1271.83 3.80136 -4.2915 0
M  V30 12923 H 1270.23 3.37805 -4.95992 0
M  V30 12924 H 1271.3 2.09126 -4.37486 0
M  V30 12925 N 1272.64 1.35187 0.810078 0
M  V30 12926 C 1273.55 1.29926 1.95337 0
M  V30 12927 C 1274.57 0.204748 1.72791 0
M  V30 12928 O 1275.75 0.433507 1.96679 0
M  V30 12929 C 1272.81 1.06736 3.29861 0
M  V30 12930 C 1271.87 2.25466 3.65326 0
M  V30 12931 C 1271.11 2.03373 4.93432 0
M  V30 12932 O 1271.33 0.998419 5.61594 0
M  V30 12933 O 1270.26 2.90648 5.27075 0
M  V30 12934 H 1274.09 2.26137 2.02721 0
M  V30 12935 H 1271.67 1.15523 0.947354 0
M  V30 12936 H 1273.56 0.956367 4.10404 0
M  V30 12937 H 1272.23 0.135735 3.23415 0
M  V30 12938 H 1271.14 2.42129 2.85175 0
M  V30 12939 H 1272.47 3.17063 3.76473 0
M  V30 12940 N 1274.12 -1.03182 1.19127 0
M  V30 12941 C 1275.37 -1.76794 0.993563 0
M  V30 12942 C 1275.7 -1.88306 -0.474809 0
M  V30 12943 O 1274.98 -1.39769 -1.35258 0
M  V30 12944 C 1275.26 -3.19573 1.65968 0
M  V30 12945 C 1275.11 -3.1595 3.2015 0
M  V30 12946 C 1276.43 -4.17897 1.38023 0
M  V30 12947 H 1273.55 -0.641768 0.362357 0
M  V30 12948 H 1276.19 -1.20472 1.46924 0
M  V30 12949 H 1274.34 -3.67663 1.25524 0
M  V30 12950 H 1276.01 -2.7578 3.69788 0
M  V30 12951 H 1274.26 -2.53743 3.51848 0
M  V30 12952 H 1274.93 -4.16811 3.61901 0
M  V30 12953 H 1277.4 -3.78394 1.73082 0
M  V30 12954 H 1276.28 -5.15997 1.87186 0
M  V30 12955 H 1276.54 -4.41048 0.304812 0
M  V30 12956 N 1275.6 -0.99472 -1.22242 0
M  V30 12957 C 1277.02 -0.705762 -1.43147 0
M  V30 12958 C 1277.22 0.722908 -1.88086 0
M  V30 12959 O 1276.27 1.49359 -2.03588 0
M  V30 12960 C 1277.59 -1.71288 -2.47145 0
M  V30 12961 C 1279.13 -1.72853 -2.60942 0
M  V30 12962 C 1279.61 -2.72433 -3.68163 0
M  V30 12963 N 1281.1 -2.71039 -3.75623 0
M  V30 12964 C 1281.83 -3.44753 -4.58184 0
M  V30 12965 N 1281.33 -4.28075 -5.44724 0
M  V30 12966 N 1283.12 -3.33451 -4.52512 0
M  V30 12967 H 1275.27 -1.91738 -0.913792 0
M  V30 12968 H 1277.54 -0.82702 -0.463403 0
M  V30 12969 H 1277.24 -2.7353 -2.21075 0
M  V30 12970 H 1277.12 -1.50721 -3.45779 0
M  V30 12971 H 1279.5 -0.713085 -2.86355 0
M  V30 12972 H 1279.59 -1.9749 -1.62577 0
M  V30 12973 H 1279.23 -3.74129 -3.43497 0
M  V30 12974 H 1279.16 -2.45066 -4.66101 0
M  V30 12975 H 1281.65 -2.10581 -3.1379 0
M  V30 12976 H 1281.96 -4.81143 -6.04749 0
M  V30 12977 H 1280.31 -4.32161 -5.44299 0
M  V30 12978 H 1283.5 -2.67797 -3.8393 0
M  V30 12979 H 1283.67 -3.91158 -5.16623 0
M  V30 12980 N 1277.08 1.37613 -0.768148 0
M  V30 12981 C 1277.99 2.34103 -0.152649 0
M  V30 12982 C 1279 1.6 0.683811 0
M  V30 12983 O 1280.18 1.92112 0.604572 0
M  V30 12984 C 1277.25 3.39164 0.718954 0
M  V30 12985 C 1276.31 4.29092 -0.13355 0
M  V30 12986 C 1275.54 5.29135 0.696547 0
M  V30 12987 O 1275.76 5.36618 1.93383 0
M  V30 12988 O 1274.7 6.01804 0.107652 0
M  V30 12989 H 1278.52 2.88462 -0.949899 0
M  V30 12990 H 1276.11 1.39711 -0.529252 0
M  V30 12991 H 1277.99 4.03454 1.21665 0
M  V30 12992 H 1276.66 2.87137 1.49445 0
M  V30 12993 H 1275.57 3.67914 -0.677528 0
M  V30 12994 H 1276.9 4.84413 -0.872048 0
M  V30 12995 N 1278.56 0.518393 1.4883 0
M  V30 12996 C 1279.49 -0.239685 2.32267 0
M  V30 12997 C 1280.47 -0.94613 1.41359 0
M  V30 12998 O 1281.65 -0.934162 1.70256 0
M  V30 12999 C 1278.78 -1.29411 3.22289 0
M  V30 13000 C 1277.74 -0.706504 4.22129 0
M  V30 13001 C 1277.06 -1.86273 5.01205 0
M  V30 13002 C 1278.36 0.314079 5.21355 0
M  V30 13003 H 1280.06 0.4568 2.95895 0
M  V30 13004 H 1277.6 0.221126 1.42292 0
M  V30 13005 H 1279.56 -1.8323 3.7948 0
M  V30 13006 H 1278.28 -2.02001 2.56638 0
M  V30 13007 H 1276.94 -0.189924 3.66108 0
M  V30 13008 H 1276.59 -2.57674 4.31988 0
M  V30 13009 H 1276.29 -1.47554 5.68772 0
M  V30 13010 H 1277.81 -2.40492 5.61245 0
M  V30 13011 H 1279.22 -0.136604 5.73137 0
M  V30 13012 H 1277.62 0.618026 5.96909 0
M  V30 13013 H 1278.69 1.22394 4.69199 0
M  V30 13014 N 1280.03 -1.55556 0.252993 0
M  V30 13015 C 1281.28 -1.98697 -0.369319 0
M  V30 13016 C 1281.6 -1.14256 -1.58021 0
M  V30 13017 O 1280.87 -0.226779 -1.94583 0
M  V30 13018 H 1279.45 -0.733869 -0.139444 0
M  V30 13019 H 1282.12 -1.91673 0.353197 0
M  V30 13020 H 1281.21 -3.04728 -0.674312 0
M  V30 13021 N 1281.51 0.0200419 -1.57587 0
M  V30 13022 C 1282.44 1.01715 -2.10181 0
M  V30 13023 C 1283.42 1.37136 -1.00636 0
M  V30 13024 O 1284.61 1.45862 -1.2821 0
M  V30 13025 C 1281.74 2.31531 -2.58865 0
M  V30 13026 C 1280.69 2.10327 -3.72755 0
M  V30 13027 C 1280.02 3.45981 -4.07678 0
M  V30 13028 C 1281.32 1.4821 -5.0083 0
M  V30 13029 H 1283.01 0.579307 -2.93742 0
M  V30 13030 H 1280.56 0.277211 -1.41307 0
M  V30 13031 H 1282.51 3.01623 -2.94281 0
M  V30 13032 H 1281.24 2.77392 -1.72399 0
M  V30 13033 H 1279.89 1.42665 -3.37701 0
M  V30 13034 H 1279.54 3.89508 -3.18265 0
M  V30 13035 H 1279.24 3.32616 -4.84397 0
M  V30 13036 H 1280.77 4.17421 -4.45637 0
M  V30 13037 H 1282.18 2.08232 -5.34146 0
M  V30 13038 H 1280.58 1.45393 -5.82221 0
M  V30 13039 H 1281.65 0.448942 -4.82817 0
M  V30 13040 N 1282.99 1.54862 0.292472 0
M  V30 13041 C 1284.24 1.74203 1.02458 0
M  V30 13042 C 1284.56 0.535398 1.87506 0
M  V30 13043 O 1283.83 -0.450164 1.90658 0
M  V30 13044 H 1282.41 0.642369 0.381276 0
M  V30 13045 H 1285.07 1.92232 0.321398 0
M  V30 13046 H 1284.17 2.63486 1.67277 0
M  V30 13047 N 1284.47 -0.556076 1.47464 0
M  V30 13048 C 1285.75 -1.31689 1.44628 0
M  V30 13049 C 1286.13 -2.10609 0.143841 0
M  V30 13050 O 1285.47 -2.11097 -0.874662 0
M  V30 13051 C 1285.68 -2.22045 2.69253 0
M  V30 13052 C 1287.03 -2.83028 3.16513 0
M  V30 13053 O 1288.06 -2.32346 2.69988 0
M  V30 13054 O 1286.91 -3.75148 3.97399 0
M  V30 13055 H 1284.01 -0.593026 0.576411 0
M  V30 13056 H 1286.55 -0.574885 1.59666 0
M  V30 13057 H 1285.33 -1.63337 3.5558 0
M  V30 13058 H 1284.95 -3.03539 2.56807 0
M  V30 13059 N 1285.95 -1.35615 -0.802897 0
M  V30 13060 C 1287.17 -1.32377 -1.59659 0
M  V30 13061 C 1287.6 0.0954235 -1.87858 0
M  V30 13062 O 1286.96 1.06336 -1.46842 0
M  V30 13063 C 1287 -2.13972 -2.90256 0
M  V30 13064 O 1286.11 -1.52296 -3.83249 0
M  V30 13065 H 1285.45 -0.453699 -0.484823 0
M  V30 13066 H 1287.98 -1.78708 -0.996217 0
M  V30 13067 H 1287.99 -2.26061 -3.39647 0
M  V30 13068 H 1286.66 -3.17145 -2.69057 0
M  V30 13069 H 1285.24 -1.49068 -3.41809 0
M  V30 13070 N 1287.43 1.02549 -1.19673 0
M  V30 13071 C 1288.67 1.75656 -0.999463 0
M  V30 13072 C 1288.99 1.89238 0.470517 0
M  V30 13073 O 1288.26 1.42843 1.34062 0
M  V30 13074 H 1286.84 0.650732 -0.366821 0
M  V30 13075 H 1289.51 1.23684 -1.50627 0
M  V30 13076 H 1288.6 2.76353 -1.45035 0
M  V30 13077 N 1288.9 1.00119 1.21713 0
M  V30 13078 C 1290.13 0.700172 1.95224 0
M  V30 13079 C 1290.55 -0.730138 1.73351 0
M  V30 13080 O 1289.91 -1.50026 1.01794 0
M  V30 13081 C 1289.96 1.02202 3.45814 0
M  V30 13082 O 1289.06 0.125188 4.1221 0
M  V30 13083 H 1288.4 0.261238 0.610451 0
M  V30 13084 H 1290.93 1.34041 1.54578 0
M  V30 13085 H 1290.94 0.967293 3.96368 0
M  V30 13086 H 1289.62 2.06422 3.61058 0
M  V30 13087 H 1288.2 0.236114 3.72152 0
M  V30 13088 N 1290.38 -1.37203 0.775435 0
M  V30 13089 C 1291.61 -2.03572 0.352416 0
M  V30 13090 C 1292.02 -1.58612 -1.03145 0
M  V30 13091 O 1291.36 -0.764478 -1.67037 0
M  V30 13092 C 1291.42 -3.58064 0.321026 0
M  V30 13093 C 1291.09 -4.2617 1.6501 0
M  V30 13094 C 1292.09 -4.50034 2.60318 0
M  V30 13095 C 1289.77 -4.63927 1.92555 0
M  V30 13096 C 1291.76 -5.10716 3.81376 0
M  V30 13097 C 1289.45 -5.24329 3.13883 0
M  V30 13098 C 1290.45 -5.47661 4.08113 0
M  V30 13099 O 1290.14 -6.068 5.27304 0
M  V30 13100 H 1289.87 -0.660231 0.145159 0
M  V30 13101 H 1292.42 -1.76446 1.05148 0
M  V30 13102 H 1290.65 -3.84252 -0.434439 0
M  V30 13103 H 1292.34 -4.0583 -0.0754241 0
M  V30 13104 H 1293.11 -4.21273 2.4032 0
M  V30 13105 H 1288.99 -4.45098 1.20036 0
M  V30 13106 H 1292.53 -5.28844 4.5494 0
M  V30 13107 H 1288.43 -5.52514 3.33765 0
M  V30 13108 H 1289.2 -6.25276 5.28179 0
M  V30 13109 N 1291.86 -0.526279 -1.48553 0
M  V30 13110 C 1293.28 -0.183886 -1.58537 0
M  V30 13111 C 1293.48 1.31272 -1.52872 0
M  V30 13112 O 1292.53 2.09069 -1.41585 0
M  V30 13113 C 1293.84 -0.78313 -2.90323 0
M  V30 13114 C 1295.39 -0.751527 -3.03844 0
M  V30 13115 C 1295.87 -1.32928 -4.38285 0
M  V30 13116 N 1297.36 -1.29109 -4.44843 0
M  V30 13117 C 1298.09 -1.70806 -5.47369 0
M  V30 13118 N 1297.59 -2.20215 -6.56869 0
M  V30 13119 N 1299.38 -1.62065 -5.3823 0
M  V30 13120 H 1291.53 -1.499 -1.50478 0
M  V30 13121 H 1293.8 -0.623294 -0.714289 0
M  V30 13122 H 1293.5 -1.83371 -3.00113 0
M  V30 13123 H 1293.38 -0.25808 -3.76316 0
M  V30 13124 H 1295.76 0.290282 -2.93669 0
M  V30 13125 H 1295.84 -1.314 -2.19471 0
M  V30 13126 H 1295.49 -2.37 -4.49214 0
M  V30 13127 H 1295.42 -0.742516 -5.21339 0
M  V30 13128 H 1297.91 -0.929348 -3.66294 0
M  V30 13129 H 1298.22 -2.50035 -7.31233 0
M  V30 13130 H 1296.57 -2.24206 -6.57842 0
M  V30 13131 H 1299.76 -1.23265 -4.51579 0
M  V30 13132 H 1299.93 -1.94883 -6.18001 0
M  V30 13133 N 1293.34 1.5542 -0.261239 0
M  V30 13134 C 1294.58 2.0119 0.360848 0
M  V30 13135 C 1294.94 1.14558 1.5408 0
M  V30 13136 O 1296.14 1.49846 2.23158 0
M  V30 13137 C 1294.41 3.49513 0.74668 0
M  V30 13138 S 1295.97 4.17281 1.35726 0
M  V30 13139 H 1292.79 0.701978 0.112903 0
M  V30 13140 H 1295.39 1.91775 -0.379829 0
M  V30 13141 H 1294.1 4.10221 -0.121172 0
M  V30 13142 H 1293.63 3.62884 1.51917 0
M  V30 13143 H 1295.64 4.19756 2.64612 0
M  V30 13144 N 1294.82 -0.0116844 1.57596 0
M  V30 13145 C 1295.73 -1.02342 2.111 0
M  V30 13146 C 1296.74 -1.38478 1.05355 0
M  V30 13147 O 1297.92 -1.47447 1.37191 0
M  V30 13148 C 1294.98 -2.30016 2.5941 0
M  V30 13149 C 1294.04 -2.003 3.79708 0
M  V30 13150 C 1293.28 -3.21888 4.25704 0
M  V30 13151 O 1293.5 -4.33171 3.71106 0
M  V30 13152 O 1292.43 -3.0657 5.17975 0
M  V30 13153 H 1296.26 -0.598637 2.97742 0
M  V30 13154 H 1293.84 -0.229779 1.47622 0
M  V30 13155 H 1295.73 -3.05044 2.90733 0
M  V30 13156 H 1294.4 -2.71755 1.75871 0
M  V30 13157 H 1293.31 -1.22785 3.53376 0
M  V30 13158 H 1294.64 -1.63406 4.64284 0
M  V30 13159 N 1296.29 -1.55015 -0.284256 0
M  V30 13160 C 1297.26 -1.8636 -1.33426 0
M  V30 13161 C 1298.26 -0.737457 -1.42892 0
M  V30 13162 O 1299.45 -1.00569 -1.42238 0
M  V30 13163 C 1296.58 -2.05884 -2.71707 0
M  V30 13164 H 1297.77 -2.80212 -1.06869 0
M  V30 13165 H 1295.32 -1.47334 -0.521767 0
M  V30 13166 H 1296.06 -1.14376 -3.03461 0
M  V30 13167 H 1295.84 -2.87867 -2.66224 0
M  V30 13168 H 1297.33 -2.31447 -3.47595 0
M  V30 13169 N 1297.77 0.548248 -1.47757 0
M  V30 13170 C 1299 1.3302 -1.58472 0
M  V30 13171 C 1299.41 1.87292 -0.238186 0
M  V30 13172 O 1298.77 1.65465 0.76991 0
M  V30 13173 C 1298.82 2.49386 -2.61704 0
M  V30 13174 O 1298.54 1.97355 -3.9113 0
M  V30 13175 C 1300.04 3.41471 -2.82688 0
M  V30 13176 H 1297.26 0.405172 -0.534861 0
M  V30 13177 H 1299.81 0.663251 -1.93446 0
M  V30 13178 H 1297.96 3.12001 -2.29639 0
M  V30 13179 H 1298.38 2.7339 -4.47614 0
M  V30 13180 H 1299.85 4.19516 -3.58762 0
M  V30 13181 H 1300.33 3.95573 -1.90837 0
M  V30 13182 H 1300.93 2.84664 -3.15985 0
M  V30 13183 N 1299.25 1.36039 0.795694 0
M  V30 13184 C 1300.2 1.29902 1.92946 0
M  V30 13185 C 1301.19 0.191943 1.68309 0
M  V30 13186 O 1302.4 0.358577 1.76392 0
M  V30 13187 H 1298.77 0.404252 0.634101 0
M  V30 13188 H 1300.74 2.25663 1.95241 0
M  V30 13189 C 1299.49 1.09887 3.29879 0
M  V30 13190 H 1298.82 1.94318 3.494 0
M  V30 13191 H 1300.26 1.09638 4.0958 0
M  V30 13192 C 1298.71 -0.196802 3.36325 0
M  V30 13193 O 1299.24 -1.18883 3.83705 0
M  V30 13194 N 1297.45 -0.239325 2.89613 0
M  V30 13195 H 1297 0.568571 2.51247 0
M  V30 13196 H 1296.96 -1.10593 2.94307 0
M  V30 13197 N 1300.73 -1.01913 1.20215 0
M  V30 13198 C 1301.97 -1.7573 1.01226 0
M  V30 13199 C 1302.31 -1.88799 -0.45481 0
M  V30 13200 O 1301.58 -1.41196 -1.33768 0
M  V30 13201 C 1301.87 -3.17795 1.69348 0
M  V30 13202 C 1301.72 -3.12536 3.23483 0
M  V30 13203 C 1303.04 -4.16409 1.42448 0
M  V30 13204 H 1300.16 -0.637889 0.369144 0
M  V30 13205 H 1302.8 -1.18907 1.48193 0
M  V30 13206 H 1300.95 -3.66311 1.29416 0
M  V30 13207 H 1302.62 -2.71843 3.72692 0
M  V30 13208 H 1300.86 -2.49997 3.54519 0
M  V30 13209 H 1301.53 -4.12949 3.66302 0
M  V30 13210 H 1304.01 -3.76537 1.77086 0
M  V30 13211 H 1302.89 -5.13983 1.92648 0
M  V30 13212 H 1303.15 -4.407 0.351574 0
M  V30 13213 N 1302.21 -1.00763 -1.2118 0
M  V30 13214 C 1303.14 -0.590493 -2.2591 0
M  V30 13215 C 1304.12 0.390002 -1.65569 0
M  V30 13216 O 1305.3 0.277406 -1.92208 0
M  V30 13217 C 1302.43 0.0810388 -3.47205 0
M  V30 13218 C 1301.39 -0.81951 -4.20081 0
M  V30 13219 C 1300.71 -0.014244 -5.34698 0
M  V30 13220 C 1302.01 -2.12336 -4.7719 0
M  V30 13221 H 1303.71 -1.46595 -2.61056 0
M  V30 13222 H 1301.25 -0.706321 -1.25487 0
M  V30 13223 H 1303.21 0.384355 -4.19644 0
M  V30 13224 H 1301.93 0.991145 -3.11197 0
M  V30 13225 H 1300.59 -1.10669 -3.49497 0
M  V30 13226 H 1300.24 0.897233 -4.94933 0
M  V30 13227 H 1299.94 -0.613883 -5.84384 0
M  V30 13228 H 1301.46 0.282827 -6.09945 0
M  V30 13229 H 1302.87 -1.88301 -5.41494 0
M  V30 13230 H 1301.27 -2.67308 -5.37277 0
M  V30 13231 H 1302.34 -2.79238 -3.96427 0
M  V30 13232 N 1303.68 1.3679 -0.7827 0
M  V30 13233 C 1304.93 1.99023 -0.351316 0
M  V30 13234 C 1305.25 1.62436 1.07887 0
M  V30 13235 O 1304.52 0.895084 1.74256 0
M  V30 13236 H 1303.1 0.736141 -0.126909 0
M  V30 13237 H 1305.77 1.67095 -1.00325 0
M  V30 13238 H 1304.86 3.09015 -0.43774 0
M  V30 13239 N 1305.16 0.53415 1.48272 0
M  V30 13240 C 1306.39 0.00368464 2.074 0
M  V30 13241 C 1306.81 -1.27003 1.38751 0
M  V30 13242 O 1306.17 -1.75502 0.454817 0
M  V30 13243 C 1306.22 -0.199034 3.6005 0
M  V30 13244 O 1305.32 -1.26679 3.92462 0
M  V30 13245 H 1304.66 0.0409936 0.662733 0
M  V30 13246 H 1307.19 0.743253 1.90622 0
M  V30 13247 H 1307.2 -0.420404 4.05828 0
M  V30 13248 H 1305.88 0.731391 4.09418 0
M  V30 13249 H 1304.46 -1.02775 3.58457 0
M  V30 13250 N 1306.64 -1.55279 0.269478 0
M  V30 13251 C 1307.87 -2.04334 -0.355313 0
M  V30 13252 C 1308.29 -1.14677 -1.491 0
M  V30 13253 O 1307.65 -0.144215 -1.80726 0
M  V30 13254 C 1307.7 -3.51172 -0.819162 0
M  V30 13255 O 1306.8 -3.64615 -1.9269 0
M  V30 13256 H 1306.14 -0.659827 -0.0743229 0
M  V30 13257 H 1308.67 -2.00609 0.402131 0
M  V30 13258 H 1308.68 -3.92428 -1.11642 0
M  V30 13259 H 1307.36 -4.15898 0.0117821 0
M  V30 13260 H 1305.93 -3.35261 -1.63261 0
M  V30 13261 N 1308.12 0.00332656 -1.576 0
M  V30 13262 C 1309.07 1.01406 -2.09331 0
M  V30 13263 C 1310.06 1.35806 -1.01258 0
M  V30 13264 O 1311.27 1.34409 -1.19726 0
M  V30 13265 H 1307.64 0.344661 -0.668366 0
M  V30 13266 H 1309.61 0.552154 -2.93247 0
M  V30 13267 C 1308.36 2.29819 -2.60918 0
M  V30 13268 H 1307.68 2.04216 -3.43709 0
M  V30 13269 H 1309.12 2.98826 -3.00797 0
M  V30 13270 C 1307.58 3.0057 -1.52182 0
M  V30 13271 O 1308.11 3.91423 -0.902817 0
M  V30 13272 N 1306.32 2.62338 -1.25009 0
M  V30 13273 H 1305.87 1.88538 -1.75531 0
M  V30 13274 H 1305.82 3.0999 -0.524736 0
M  V30 13275 N 1309.6 1.55164 0.276031 0
M  V30 13276 C 1310.82 1.79649 1.02635 0
M  V30 13277 C 1311.24 0.568289 1.80044 0
M  V30 13278 O 1310.6 -0.462569 1.7654 0
M  V30 13279 C 1310.65 3.01974 1.98731 0
M  V30 13280 O 1310.37 4.2005 1.24459 0
M  V30 13281 C 1311.87 3.39039 2.856 0
M  V30 13282 H 1309.09 0.598529 0.303321 0
M  V30 13283 H 1311.63 2.02171 0.307733 0
M  V30 13284 H 1309.79 2.81586 2.6606 0
M  V30 13285 H 1310.2 4.89185 1.89205 0
M  V30 13286 H 1311.68 4.27809 3.48831 0
M  V30 13287 H 1312.15 2.58306 3.55211 0
M  V30 13288 H 1312.76 3.61674 2.23767 0
M  V30 13289 N 1311.07 -0.540404 1.48045 0
M  V30 13290 C 1312.3 -1.32656 1.59427 0
M  V30 13291 C 1312.72 -1.86419 0.250924 0
M  V30 13292 O 1312.08 -1.63861 -0.775838 0
M  V30 13293 C 1312.13 -2.46062 2.63602 0
M  V30 13294 O 1311.23 -3.48794 2.20038 0
M  V30 13295 H 1310.58 -0.393334 0.534962 0
M  V30 13296 H 1313.11 -0.651363 1.93955 0
M  V30 13297 H 1313.12 -2.92396 2.84549 0
M  V30 13298 H 1311.79 -2.06291 3.61133 0
M  V30 13299 H 1310.37 -3.0865 2.0926 0
M  V30 13300 N 1312.55 -1.36459 -0.788468 0
M  V30 13301 C 1313.48 -1.33545 -1.91541 0
M  V30 13302 C 1314.46 -0.206762 -1.68839 0
M  V30 13303 O 1315.65 -0.404553 -1.89939 0
M  V30 13304 C 1312.78 -1.12492 -3.28577 0
M  V30 13305 C 1311.73 -2.22196 -3.65805 0
M  V30 13306 C 1311.06 -1.86285 -5.01201 0
M  V30 13307 C 1312.36 -3.64286 -3.7429 0
M  V30 13308 H 1314.05 -2.27844 -1.94236 0
M  V30 13309 H 1311.6 -1.09677 -0.933105 0
M  V30 13310 H 1313.55 -1.09089 -4.07035 0
M  V30 13311 H 1312.28 -0.146446 -3.26272 0
M  V30 13312 H 1310.93 -2.24727 -2.89644 0
M  V30 13313 H 1310.58 -0.87009 -4.95417 0
M  V30 13314 H 1310.28 -2.59734 -5.27079 0
M  V30 13315 H 1311.81 -1.84439 -5.82078 0
M  V30 13316 H 1313.22 -3.63977 -4.42937 0
M  V30 13317 H 1311.62 -4.36648 -4.11653 0
M  V30 13318 H 1312.69 -3.99123 -2.75371 0
M  V30 13319 N 1314.03 1.01274 -1.20754 0
M  V30 13320 C 1315.28 1.74932 -1.02005 0
M  V30 13321 C 1315.61 1.89285 0.447372 0
M  V30 13322 O 1314.86 1.41838 1.34835 0
M  V30 13323 C 1315.16 3.16862 -1.65329 0
M  V30 13324 C 1314.83 3.22476 -3.15151 0
M  V30 13325 C 1313.49 3.23715 -3.56036 0
M  V30 13326 C 1315.84 3.20332 -4.11141 0
M  V30 13327 C 1313.17 3.20487 -4.91431 0
M  V30 13328 C 1315.52 3.18646 -5.46487 0
M  V30 13329 C 1314.18 3.18191 -5.8678 0
M  V30 13330 H 1313.45 0.640121 -0.373264 0
M  V30 13331 H 1316.1 1.18751 -1.50234 0
M  V30 13332 H 1314.41 3.76225 -1.09372 0
M  V30 13333 H 1316.1 3.72556 -1.48333 0
M  V30 13334 H 1312.69 3.22249 -2.82584 0
M  V30 13335 H 1316.88 3.18541 -3.80585 0
M  V30 13336 H 1312.13 3.18468 -5.21908 0
M  V30 13337 H 1316.31 3.1594 -6.20609 0
M  V30 13338 H 1313.93 3.15443 -6.91664 0
M  V30 13339 N 1315.51 1.01404 1.20644 0
M  V30 13340 C 1316.76 0.701909 1.89946 0
M  V30 13341 C 1317.08 -0.768212 1.78686 0
M  V30 13342 O 1316.34 -1.57348 1.16363 0
M  V30 13343 C 1316.64 1.07995 3.40693 0
M  V30 13344 C 1316.3 2.54585 3.72152 0
M  V30 13345 C 1314.97 2.94639 3.80449 0
M  V30 13346 C 1317.32 3.49497 3.86654 0
M  V30 13347 C 1314.65 4.2855 4.00702 0
M  V30 13348 C 1317 4.83093 4.08416 0
M  V30 13349 C 1315.66 5.22857 4.14942 0
M  V30 13350 H 1314.93 0.256847 0.695062 0
M  V30 13351 H 1317.58 1.27415 1.4296 0
M  V30 13352 H 1315.88 0.426089 3.89476 0
M  V30 13353 H 1317.58 0.816176 3.92606 0
M  V30 13354 H 1314.17 2.22548 3.66292 0
M  V30 13355 H 1318.36 3.19713 3.79602 0
M  V30 13356 H 1313.61 4.58916 4.03988 0
M  V30 13357 H 1317.79 5.56565 4.18579 0
M  V30 13358 H 1315.41 6.26634 4.30388 0
M  V30 13359 N 1316.99 -1.36373 0.789944 0
M  V30 13360 C 1317.92 -2.2873 0.146642 0
M  V30 13361 C 1318.93 -1.49503 -0.644419 0
M  V30 13362 O 1320.12 -1.71939 -0.479515 0
M  V30 13363 C 1317.22 -3.28945 -0.815369 0
M  V30 13364 C 1316.39 -4.37337 -0.0742515 0
M  V30 13365 C 1315.45 -5.17511 -0.952284 0
M  V30 13366 O 1314.48 -5.67726 -0.409336 0
M  V30 13367 N 1315.68 -5.34001 -2.27648 0
M  V30 13368 H 1318.45 -2.84578 0.939978 0
M  V30 13369 H 1316.01 -1.48545 0.643898 0
M  V30 13370 H 1318 -3.79469 -1.40661 0
M  V30 13371 H 1316.57 -2.73734 -1.50958 0
M  V30 13372 H 1315.79 -3.8797 0.698068 0
M  V30 13373 H 1317.08 -5.06919 0.437148 0
M  V30 13374 H 1316.48 -4.94819 -2.74173 0
M  V30 13375 H 1315.03 -5.87766 -2.81735 0
M  V30 13376 N 1318.47 -0.542005 -1.47987 0
M  V30 13377 C 1319.71 -0.0123299 -2.02796 0
M  V30 13378 C 1320.04 1.32789 -1.41707 0
M  V30 13379 O 1319.32 1.86048 -0.567119 0
M  V30 13380 C 1319.6 0.0969277 -3.5997 0
M  V30 13381 C 1319.46 -1.26931 -4.31519 0
M  V30 13382 C 1320.77 0.817854 -4.32434 0
M  V30 13383 H 1317.89 -0.00595479 -0.736976 0
M  V30 13384 H 1320.54 -0.70136 -1.76581 0
M  V30 13385 H 1318.69 0.683755 -3.82436 0
M  V30 13386 H 1320.36 -1.89817 -4.20437 0
M  V30 13387 H 1318.6 -1.84804 -3.92467 0
M  V30 13388 H 1319.27 -1.14573 -5.39979 0
M  V30 13389 H 1321.75 0.319749 -4.1487 0
M  V30 13390 H 1320.62 0.863225 -5.4207 0
M  V30 13391 H 1320.88 1.87075 -4.00569 0
M  V30 13392 N 1319.94 1.55134 -0.277709 0
M  V30 13393 C 1321.36 1.59417 0.0763615 0
M  V30 13394 C 1321.56 1.29491 1.54384 0
M  V30 13395 O 1320.62 1.05703 2.2931 0
M  V30 13396 C 1321.93 2.99194 -0.300607 0
M  V30 13397 C 1323.48 3.1202 -0.247438 0
M  V30 13398 C 1323.95 4.54068 -0.598884 0
M  V30 13399 N 1325.44 4.59917 -0.550534 0
M  V30 13400 C 1326.18 5.67859 -0.795235 0
M  V30 13401 N 1325.67 6.83936 -1.10469 0
M  V30 13402 N 1327.47 5.5742 -0.723859 0
M  V30 13403 H 1319.62 1.72851 -1.23435 0
M  V30 13404 H 1321.88 0.806137 -0.498846 0
M  V30 13405 H 1321.59 3.25937 -1.32129 0
M  V30 13406 H 1321.46 3.75504 0.35729 0
M  V30 13407 H 1323.85 2.8504 0.763959 0
M  V30 13408 H 1323.93 2.37917 -0.939629 0
M  V30 13409 H 1323.57 4.81774 -1.60798 0
M  V30 13410 H 1323.5 5.26474 0.115126 0
M  V30 13411 H 1325.99 3.76531 -0.321341 0
M  V30 13412 H 1326.31 7.62159 -1.278 0
M  V30 13413 H 1324.65 6.85545 -1.14249 0
M  V30 13414 H 1327.84 4.65613 -0.481925 0
M  V30 13415 H 1328.02 6.41465 -0.917944 0
M  V30 13416 N 1321.42 0.00503138 1.57599 0
M  V30 13417 C 1322.67 -0.67742 1.90409 0
M  V30 13418 C 1322.99 -1.74033 0.87963 0
M  V30 13419 O 1322.26 -1.95727 -0.0822757 0
M  V30 13420 H 1320.84 -0.2532 0.702779 0
M  V30 13421 H 1323.5 0.0471466 1.94843 0
M  V30 13422 H 1322.6 -1.14548 2.90319 0
M  V30 13423 N 1322.9 -1.55308 -0.267798 0
M  V30 13424 C 1323.86 -1.87765 -1.31442 0
M  V30 13425 C 1324.86 -0.752571 -1.42102 0
M  V30 13426 O 1326.05 -1.02072 -1.41163 0
M  V30 13427 C 1323.18 -2.08754 -2.69508 0
M  V30 13428 H 1324.38 -2.8133 -1.03891 0
M  V30 13429 H 1321.93 -1.47879 -0.506111 0
M  V30 13430 H 1322.67 -1.17588 -3.02231 0
M  V30 13431 H 1322.45 -2.90674 -2.63156 0
M  V30 13432 H 1323.94 -2.3512 -3.4512 0
M  V30 13433 N 1324.38 0.532545 -1.4833 0
M  V30 13434 C 1325.62 1.28795 -1.57427 0
M  V30 13435 C 1325.98 1.90848 -0.243885 0
M  V30 13436 O 1325.27 1.76183 0.753 0
M  V30 13437 C 1325.47 2.40117 -2.64724 0
M  V30 13438 C 1325.29 1.88976 -4.08066 0
M  V30 13439 C 1324.06 1.71696 -4.75235 0
M  V30 13440 C 1326.26 1.41979 -4.94314 0
M  V30 13441 N 1324.24 1.15154 -6.03003 0
M  V30 13442 C 1325.62 0.973661 -6.12307 0
M  V30 13443 C 1327.67 1.30258 -4.80559 0
M  V30 13444 C 1326.37 0.42195 -7.18061 0
M  V30 13445 C 1328.4 0.764867 -5.86433 0
M  V30 13446 C 1327.76 0.328799 -7.03632 0
M  V30 13447 H 1323.86 0.462412 -0.630634 0
M  V30 13448 H 1326.44 0.600796 -1.85199 0
M  V30 13449 H 1324.62 3.06332 -2.38779 0
M  V30 13450 H 1326.35 3.07146 -2.63521 0
M  V30 13451 H 1323.1 1.95143 -4.31528 0
M  V30 13452 H 1323.53 0.888999 -6.71138 0
M  V30 13453 H 1328.17 1.62578 -3.90293 0
M  V30 13454 H 1325.89 0.0864233 -8.08054 0
M  V30 13455 H 1329.47 0.677391 -5.77843 0
M  V30 13456 H 1328.35 -0.0808116 -7.84158 0
M  V30 13457 N 1325.86 1.36875 0.78122 0
M  V30 13458 C 1327.1 1.31754 1.54171 0
M  V30 13459 C 1327.43 -0.100632 1.93939 0
M  V30 13460 O 1326.71 -1.05587 1.63345 0
M  V30 13461 C 1326.99 2.24789 2.81322 0
M  V30 13462 C 1326.85 3.75342 2.47868 0
M  V30 13463 C 1328.16 2.16442 3.83198 0
M  V30 13464 H 1325.28 0.479931 0.559317 0
M  V30 13465 H 1327.93 1.67497 0.896935 0
M  V30 13466 H 1326.08 1.94438 3.36342 0
M  V30 13467 H 1327.75 4.16247 1.98836 0
M  V30 13468 H 1325.99 3.94375 1.80696 0
M  V30 13469 H 1326.66 4.3586 3.38719 0
M  V30 13470 H 1329.14 2.43175 3.37647 0
M  V30 13471 H 1328.01 2.83695 4.69903 0
M  V30 13472 H 1328.27 1.15431 4.26765 0
M  V30 13473 N 1327.33 -1.00632 1.21289 0
M  V30 13474 C 1328.27 -2.0954 0.928753 0
M  V30 13475 C 1329.28 -1.62565 -0.0875212 0
M  V30 13476 O 1330.47 -1.77912 0.144808 0
M  V30 13477 C 1327.57 -3.36844 0.37276 0
M  V30 13478 C 1326.74 -4.1291 1.44305 0
M  V30 13479 C 1325.8 -5.18506 0.896534 0
M  V30 13480 O 1324.83 -5.46841 1.57966 0
M  V30 13481 N 1326.03 -5.79781 -0.288888 0
M  V30 13482 H 1328.79 -2.34499 1.86629 0
M  V30 13483 H 1326.35 -1.17104 1.11796 0
M  V30 13484 H 1328.35 -4.04699 -0.00722737 0
M  V30 13485 H 1326.92 -3.09053 -0.469572 0
M  V30 13486 H 1326.14 -3.39876 1.99694 0
M  V30 13487 H 1327.42 -4.60508 2.16356 0
M  V30 13488 H 1326.82 -5.5911 -0.860951 0
M  V30 13489 H 1325.38 -6.48936 -0.6104 0
M  V30 13490 N 1328.81 -1.02043 -1.20104 0
M  V30 13491 C 1330.06 -0.713027 -1.89852 0
M  V30 13492 C 1330.39 0.755767 -1.7889 0
M  V30 13493 O 1329.67 1.54948 -1.17564 0
M  V30 13494 C 1329.95 -1.15417 -3.41103 0
M  V30 13495 C 1329.8 -2.68355 -3.60979 0
M  V30 13496 C 1331.12 -0.728389 -4.34031 0
M  V30 13497 H 1328.24 -0.260502 -0.689426 0
M  V30 13498 H 1330.88 -1.26885 -1.41422 0
M  V30 13499 H 1329.03 -0.68127 -3.8248 0
M  V30 13500 H 1330.7 -3.23526 -3.28829 0
M  V30 13501 H 1328.95 -3.09148 -3.04319 0
M  V30 13502 H 1329.62 -2.94276 -4.67018 0
M  V30 13503 H 1332.09 -1.13499 -4.00321 0
M  V30 13504 H 1330.97 -1.06504 -5.38468 0
M  V30 13505 H 1331.23 0.369736 -4.40551 0
M  V30 13506 N 1330.29 1.35952 -0.797165 0
M  V30 13507 C 1331.52 2.0381 -0.38421 0
M  V30 13508 C 1331.94 1.597 0.993854 0
M  V30 13509 O 1331.3 0.769148 1.64176 0
M  V30 13510 C 1331.35 3.57589 -0.465054 0
M  V30 13511 O 1330.45 4.09043 0.525095 0
M  V30 13512 H 1329.79 0.643957 -0.161912 0
M  V30 13513 H 1332.32 1.73746 -1.08043 0
M  V30 13514 H 1332.33 4.06651 -0.331448 0
M  V30 13515 H 1331.01 3.89045 -1.47027 0
M  V30 13516 H 1329.58 3.7123 0.352509 0
M  V30 13517 N 1331.77 0.549846 1.47697 0
M  V30 13518 C 1333.18 0.11453 1.86348 0
M  V30 13519 C 1333.53 -1.31368 1.45729 0
M  V30 13520 O 1332.66 -1.98707 0.856989 0
M  V30 13521 C 1333.25 0.201072 3.38203 0
M  V30 13522 C 1331.81 -0.179162 3.75973 0
M  V30 13523 C 1330.96 0.551951 2.71751 0
M  V30 13524 H 1333.91 0.759989 1.39319 0
M  V30 13525 H 1333.93 -0.582216 3.76019 0
M  V30 13526 H 1333.44 1.24065 3.67736 0
M  V30 13527 H 1331.54 -1.22013 3.52056 0
M  V30 13528 H 1331.65 0.174273 4.78783 0
M  V30 13529 H 1330.02 -0.00411819 2.547 0
M  V30 13530 H 1330.8 1.59254 3.04127 0
M  V30 13531 N 1333.25 -1.54984 0.285932 0
M  V30 13532 C 1334.47 -2.04699 -0.333621 0
M  V30 13533 C 1334.9 -1.16252 -1.47875 0
M  V30 13534 O 1334.25 -0.163376 -1.80562 0
M  V30 13535 C 1334.3 -3.52022 -0.78187 0
M  V30 13536 O 1333.41 -3.66639 -1.88812 0
M  V30 13537 H 1332.75 -0.660579 -0.0673203 0
M  V30 13538 H 1335.28 -2.00171 0.423386 0
M  V30 13539 H 1335.29 -3.93591 -1.07473 0
M  V30 13540 H 1333.96 -4.15862 0.055893 0
M  V30 13541 H 1332.54 -3.36974 -1.59696 0
M  V30 13542 N 1334.72 -0.0133892 -1.57594 0
M  V30 13543 C 1336.14 0.527615 -1.7909 0
M  V30 13544 C 1336.49 1.73179 -0.922142 0
M  V30 13545 O 1335.61 2.1602 -0.128233 0
M  V30 13546 C 1336.21 0.963949 -3.24798 0
M  V30 13547 C 1334.77 1.45017 -3.47343 0
M  V30 13548 C 1333.91 0.407548 -2.74289 0
M  V30 13549 H 1336.86 -0.239505 -1.56882 0
M  V30 13550 H 1336.88 1.82924 -3.33645 0
M  V30 13551 H 1336.4 0.0873315 -3.88002 0
M  V30 13552 H 1334.5 2.34724 -2.89371 0
M  V30 13553 H 1334.61 1.4684 -4.56043 0
M  V30 13554 H 1332.97 0.872174 -2.39301 0
M  V30 13555 H 1333.76 -0.460333 -3.402 0
M  V30 13556 N 1336.2 1.55448 0.259558 0
M  V30 13557 C 1337.11 1.92364 1.34289 0
M  V30 13558 C 1338.13 0.822492 1.53333 0
M  V30 13559 O 1339.3 1.12277 1.672 0
M  V30 13560 C 1336.37 2.19978 2.67975 0
M  V30 13561 C 1335.43 3.43454 2.57562 0
M  V30 13562 C 1334.66 3.69741 3.84873 0
M  V30 13563 O 1334.89 2.9831 4.86176 0
M  V30 13564 O 1333.82 4.63274 3.84267 0
M  V30 13565 H 1337.65 2.8461 1.05975 0
M  V30 13566 H 1335.23 1.42167 0.459239 0
M  V30 13567 H 1337.11 2.39104 3.46998 0
M  V30 13568 H 1335.79 1.30912 2.96047 0
M  V30 13569 H 1334.7 3.29649 1.76869 0
M  V30 13570 H 1336.03 4.32782 2.34437 0
M  V30 13571 N 1337.68 -0.524672 1.4861 0
M  V30 13572 C 1338.61 -1.63782 1.66426 0
M  V30 13573 C 1339.59 -1.62177 0.513077 0
M  V30 13574 O 1340.78 -1.7929 0.74623 0
M  V30 13575 C 1337.91 -3.02354 1.70877 0
M  V30 13576 C 1336.86 -3.18819 2.85549 0
M  V30 13577 C 1336.19 -4.58506 2.75094 0
M  V30 13578 C 1337.49 -3.01086 4.26784 0
M  V30 13579 H 1339.18 -1.49127 2.59618 0
M  V30 13580 H 1336.73 -0.715997 1.24938 0
M  V30 13581 H 1338.68 -3.80105 1.81929 0
M  V30 13582 H 1337.4 -3.18044 0.742682 0
M  V30 13583 H 1336.06 -2.43487 2.74061 0
M  V30 13584 H 1335.71 -4.71038 1.76443 0
M  V30 13585 H 1335.41 -4.70466 3.52044 0
M  V30 13586 H 1336.93 -5.38348 2.88121 0
M  V30 13587 H 1338.35 -3.68624 4.39077 0
M  V30 13588 H 1336.75 -3.24536 5.04774 0
M  V30 13589 H 1337.82 -1.97454 4.42877 0
M  V30 13590 N 1339.16 -1.37287 -0.77395 0
M  V30 13591 C 1340.09 -1.28746 -1.89624 0
M  V30 13592 C 1341.1 -0.203715 -1.6152 0
M  V30 13593 O 1342.29 -0.459684 -1.72479 0
M  V30 13594 C 1339.39 -0.967342 -3.24801 0
M  V30 13595 C 1338.57 -2.1561 -3.80567 0
M  V30 13596 C 1337.62 -1.80661 -4.94215 0
M  V30 13597 O 1336.65 -2.5293 -5.09917 0
M  V30 13598 N 1337.85 -0.749424 -5.75642 0
M  V30 13599 H 1340.62 -2.25447 -1.97468 0
M  V30 13600 H 1338.18 -1.30883 -0.952956 0
M  V30 13601 H 1340.17 -0.714421 -3.98344 0
M  V30 13602 H 1338.74 -0.0889573 -3.12473 0
M  V30 13603 H 1337.96 -2.57091 -2.98828 0
M  V30 13604 H 1339.25 -2.94993 -4.14556 0
M  V30 13605 H 1338.65 -0.149673 -5.65502 0
M  V30 13606 H 1337.2 -0.556358 -6.49421 0
M  V30 13607 N 1340.64 0.999871 -1.21821 0
M  V30 13608 C 1341.55 2.12303 -0.99823 0
M  V30 13609 C 1342.56 1.73924 0.0512923 0
M  V30 13610 O 1343.74 2.00914 -0.139895 0
M  V30 13611 C 1340.8 3.41962 -0.571232 0
M  V30 13612 C 1339.86 3.94483 -1.69356 0
M  V30 13613 C 1339.1 5.17954 -1.28685 0
M  V30 13614 O 1339.32 5.70168 -0.162641 0
M  V30 13615 O 1338.25 5.64051 -2.10071 0
M  V30 13616 H 1342.08 2.3374 -1.93905 0
M  V30 13617 H 1339.67 1.10677 -1.00354 0
M  V30 13618 H 1341.55 4.20001 -0.343134 0
M  V30 13619 H 1340.22 3.21901 0.340814 0
M  V30 13620 H 1339.13 3.17648 -1.97612 0
M  V30 13621 H 1340.46 4.18964 -2.58322 0
M  V30 13622 N 1342.11 1.02678 1.19562 0
M  V30 13623 C 1343.36 0.72059 1.88817 0
M  V30 13624 C 1343.68 -0.752942 1.79877 0
M  V30 13625 O 1342.95 -1.54233 1.20785 0
M  V30 13626 H 1341.53 0.26355 0.698964 0
M  V30 13627 H 1344.2 1.30056 1.4516 0
M  V30 13628 H 1343.29 1.01303 2.95202 0
M  V30 13629 N 1343.59 -1.35528 0.804364 0
M  V30 13630 C 1344.52 -2.28562 0.170893 0
M  V30 13631 C 1345.54 -1.50178 -0.628526 0
M  V30 13632 O 1346.73 -1.72438 -0.461252 0
M  V30 13633 C 1343.83 -3.29792 -0.780434 0
M  V30 13634 C 1343 -4.37391 -0.0278619 0
M  V30 13635 C 1342.06 -5.18492 -0.897341 0
M  V30 13636 O 1341.08 -5.68128 -0.349098 0
M  V30 13637 N 1342.29 -5.36385 -2.21971 0
M  V30 13638 H 1345.05 -2.83565 0.970108 0
M  V30 13639 H 1342.61 -1.47854 0.659617 0
M  V30 13640 H 1344.6 -3.80939 -1.36628 0
M  V30 13641 H 1343.17 -2.7532 -1.48046 0
M  V30 13642 H 1342.39 -3.87208 0.739178 0
M  V30 13643 H 1343.68 -5.06426 0.490889 0
M  V30 13644 H 1343.08 -4.97699 -2.6891 0
M  V30 13645 H 1341.64 -5.90721 -2.75485 0
M  V30 13646 N 1345.07 -0.557671 -1.47404 0
M  V30 13647 C 1346.03 0.179311 -2.28498 0
M  V30 13648 C 1347.03 0.842281 -1.36975 0
M  V30 13649 O 1348.22 0.698072 -1.59601 0
M  V30 13650 C 1345.36 1.26229 -3.16668 0
M  V30 13651 H 1346.55 -0.533033 -2.95125 0
M  V30 13652 H 1344.1 -0.314634 -1.531 0
M  V30 13653 H 1344.84 2.00702 -2.54733 0
M  V30 13654 H 1344.62 0.791712 -3.84024 0
M  V30 13655 H 1346.11 1.77991 -3.77768 0
M  V30 13656 N 1346.55 1.54831 -0.294147 0
M  V30 13657 C 1347.8 2.00298 0.317605 0
M  V30 13658 C 1348.13 1.18228 1.54064 0
M  V30 13659 O 1347.4 0.257034 1.92794 0
M  V30 13660 C 1347.69 3.53602 0.680991 0
M  V30 13661 C 1347.54 4.46416 -0.550711 0
M  V30 13662 C 1348.86 4.13379 1.51016 0
M  V30 13663 H 1345.98 0.728135 0.113965 0
M  V30 13664 H 1348.62 1.85636 -0.404883 0
M  V30 13665 H 1346.77 3.66227 1.29654 0
M  V30 13666 H 1348.44 4.45707 -1.18922 0
M  V30 13667 H 1346.68 4.17294 -1.18524 0
M  V30 13668 H 1347.36 5.51423 -0.252412 0
M  V30 13669 H 1349.83 4.04148 0.99012 0
M  V30 13670 H 1348.71 5.20818 1.73321 0
M  V30 13671 H 1348.97 3.64817 2.49722 0
M  V30 13672 N 1348.03 0.0217466 1.57585 0
M  V30 13673 C 1349.27 -0.659463 1.91778 0
M  V30 13674 C 1349.61 -1.72201 0.897801 0
M  V30 13675 O 1348.88 -1.94333 -0.080509 0
M  V30 13676 C 1349.16 -1.28269 3.36481 0
M  V30 13677 C 1349.02 -0.230201 4.49211 0
M  V30 13678 C 1350.34 -2.20279 3.81005 0
M  V30 13679 H 1347.46 -0.238263 0.697424 0
M  V30 13680 H 1350.1 0.0774967 1.89842 0
M  V30 13681 H 1348.25 -1.9108 3.38262 0
M  V30 13682 H 1349.92 0.399901 4.59563 0
M  V30 13683 H 1348.16 0.445157 4.3151 0
M  V30 13684 H 1348.83 -0.705732 5.4747 0
M  V30 13685 H 1351.31 -1.67463 3.80914 0
M  V30 13686 H 1350.19 -2.60842 4.82962 0
M  V30 13687 H 1350.45 -3.09092 3.16093 0
M  V30 13688 N 1349.51 -1.55583 -0.251311 0
M  V30 13689 C 1350.44 -1.9296 -1.31486 0
M  V30 13690 C 1351.42 -0.794001 -1.50431 0
M  V30 13691 O 1352.6 -1.05393 -1.63113 0
M  V30 13692 C 1349.73 -2.22046 -2.67045 0
M  V30 13693 C 1348.69 -3.37816 -2.62801 0
M  V30 13694 C 1348.01 -3.52433 -4.02113 0
M  V30 13695 C 1349.31 -4.73626 -2.20171 0
M  V30 13696 H 1351.01 -2.82046 -1.00451 0
M  V30 13697 H 1348.55 -1.35702 -0.481775 0
M  V30 13698 H 1350.5 -2.46783 -3.41579 0
M  V30 13699 H 1349.23 -1.29782 -2.99707 0
M  V30 13700 H 1347.89 -3.13081 -1.90724 0
M  V30 13701 H 1347.54 -2.57597 -4.32034 0
M  V30 13702 H 1347.24 -4.30283 -4.00163 0
M  V30 13703 H 1348.76 -3.79486 -4.78354 0
M  V30 13704 H 1350.17 -4.97764 -2.84436 0
M  V30 13705 H 1348.57 -5.54547 -2.29341 0
M  V30 13706 H 1349.64 -4.70985 -1.1533 0
M  V30 13707 N 1350.98 0.516783 -1.48886 0
M  V30 13708 C 1352.21 1.30103 -1.61518 0
M  V30 13709 C 1352.63 1.85996 -0.28055 0
M  V30 13710 O 1351.99 1.65075 0.749671 0
M  V30 13711 C 1352.04 2.41837 -2.67483 0
M  V30 13712 O 1351.14 3.45249 -2.25559 0
M  V30 13713 H 1350.48 0.384774 -0.541152 0
M  V30 13714 H 1353.01 0.620424 -1.94966 0
M  V30 13715 H 1353.02 2.87832 -2.89165 0
M  V30 13716 H 1351.7 2.00519 -3.64369 0
M  V30 13717 H 1350.28 3.05281 -2.14144 0
M  V30 13718 N 1352.46 1.37696 0.766659 0
M  V30 13719 C 1353.7 1.34588 1.53836 0
M  V30 13720 C 1354.07 -0.0676384 1.91881 0
M  V30 13721 O 1355.27 -0.223479 2.67869 0
M  V30 13722 C 1353.54 2.26329 2.76604 0
M  V30 13723 S 1355.1 2.4112 3.66615 0
M  V30 13724 H 1351.91 0.477717 0.5266 0
M  V30 13725 H 1354.52 1.73495 0.901099 0
M  V30 13726 H 1353.22 3.27943 2.46742 0
M  V30 13727 H 1352.75 1.88525 3.45285 0
M  V30 13728 H 1354.77 1.62556 4.68818 0
M  V30 13729 N 1353.94 -0.993397 1.22349 0
M  V30 13730 C 1354.87 -2.08543 0.950925 0
M  V30 13731 C 1355.88 -1.62648 -0.0702741 0
M  V30 13732 O 1357.07 -1.77748 0.16367 0
M  V30 13733 C 1354.17 -3.36429 0.408466 0
M  V30 13734 C 1353.35 -4.11356 1.48676 0
M  V30 13735 C 1352.41 -5.17526 0.951478 0
M  V30 13736 O 1351.43 -5.45135 1.63757 0
M  V30 13737 N 1352.63 -5.80055 -0.227378 0
M  V30 13738 H 1355.4 -2.32506 1.89106 0
M  V30 13739 H 1352.96 -1.15911 1.13032 0
M  V30 13740 H 1354.95 -4.04684 0.0356968 0
M  V30 13741 H 1353.52 -3.09534 -0.436767 0
M  V30 13742 H 1352.74 -3.37739 2.03288 0
M  V30 13743 H 1354.03 -4.58187 2.21228 0
M  V30 13744 H 1353.43 -5.59992 -0.801601 0
M  V30 13745 H 1351.98 -6.49546 -0.541538 0
M  V30 13746 N 1355.42 -1.03311 -1.19015 0
M  V30 13747 C 1356.66 -0.733124 -1.89085 0
M  V30 13748 C 1357 0.73675 -1.79682 0
M  V30 13749 O 1356.27 1.53692 -1.19201 0
M  V30 13750 C 1356.55 -1.19028 -3.39859 0
M  V30 13751 C 1356.41 -2.72169 -3.58112 0
M  V30 13752 C 1357.73 -0.774383 -4.33234 0
M  V30 13753 H 1354.85 -0.2678 -0.686624 0
M  V30 13754 H 1357.49 -1.28378 -1.40068 0
M  V30 13755 H 1355.64 -0.721799 -3.81736 0
M  V30 13756 H 1357.31 -3.26996 -3.25379 0
M  V30 13757 H 1355.55 -3.12358 -3.01023 0
M  V30 13758 H 1356.22 -2.99213 -4.6387 0
M  V30 13759 H 1358.7 -1.17739 -3.99095 0
M  V30 13760 H 1357.58 -1.12209 -5.37308 0
M  V30 13761 H 1357.84 0.322989 -4.40919 0
M  V30 13762 N 1356.9 1.35099 -0.81154 0
M  V30 13763 C 1357.85 2.27139 -0.197958 0
M  V30 13764 C 1358.83 1.48006 0.631116 0
M  V30 13765 O 1360.02 1.70152 0.487562 0
M  V30 13766 C 1357.15 3.37118 0.648577 0
M  V30 13767 C 1356.24 4.23672 -0.190498 0
M  V30 13768 N 1356.63 4.89959 -1.25594 0
M  V30 13769 C 1354.93 4.45992 0.0270572 0
M  V30 13770 C 1355.63 5.54161 -1.76862 0
M  V30 13771 N 1354.6 5.32879 -1.07428 0
M  V30 13772 H 1358.4 2.75886 -1.01311 0
M  V30 13773 H 1355.92 1.48685 -0.653195 0
M  V30 13774 H 1357.92 4.0201 1.10423 0
M  V30 13775 H 1356.58 2.89922 1.46202 0
M  V30 13776 H 1357.59 4.91293 -1.63864 0
M  V30 13777 H 1354.26 4.09582 0.809248 0
M  V30 13778 H 1355.65 6.17032 -2.65935 0
M  V30 13779 N 1358.37 0.56548 1.47106 0
M  V30 13780 C 1359.6 0.0496298 2.0684 0
M  V30 13781 C 1360.02 -1.24777 1.4169 0
M  V30 13782 O 1359.37 -1.75046 0.516239 0
M  V30 13783 C 1359.42 -0.140987 3.61225 0
M  V30 13784 O 1359.15 1.10504 4.23934 0
M  V30 13785 C 1360.65 -0.693171 4.37847 0
M  V30 13786 H 1357.87 0.0496018 0.669164 0
M  V30 13787 H 1360.41 0.781247 1.88989 0
M  V30 13788 H 1358.57 -0.822762 3.78562 0
M  V30 13789 H 1358.98 0.907978 5.16581 0
M  V30 13790 H 1360.45 -0.7758 5.46521 0
M  V30 13791 H 1360.93 -1.70632 4.04699 0
M  V30 13792 H 1361.54 -0.046826 4.25274 0
M  V30 13793 N 1359.85 -1.54672 0.302354 0
M  V30 13794 C 1361.1 -1.99771 -0.305919 0
M  V30 13795 C 1361.42 -1.19225 -1.54306 0
M  V30 13796 O 1360.69 -0.288569 -1.93763 0
M  V30 13797 H 1359.27 -0.737934 -0.116026 0
M  V30 13798 H 1361.93 -1.90452 0.413997 0
M  V30 13799 H 1361.03 -3.06719 -0.577024 0
M  V30 13800 N 1361.33 -0.0301034 -1.57571 0
M  V30 13801 C 1362.58 0.649283 -1.92125 0
M  V30 13802 C 1362.91 1.71722 -0.90692 0
M  V30 13803 O 1362.18 1.94373 0.0702019 0
M  V30 13804 C 1362.47 1.26482 -3.37156 0
M  V30 13805 C 1362.32 0.206375 -4.49326 0
M  V30 13806 C 1363.64 2.18256 -3.82168 0
M  V30 13807 H 1360.76 0.234561 -0.698678 0
M  V30 13808 H 1363.4 -0.0875634 -1.89798 0
M  V30 13809 H 1361.55 1.89283 -3.3927 0
M  V30 13810 H 1363.22 -0.424268 -4.59345 0
M  V30 13811 H 1361.47 -0.468035 -4.31268 0
M  V30 13812 H 1362.14 0.676689 -5.47837 0
M  V30 13813 H 1364.61 1.65441 -3.81797 0
M  V30 13814 H 1363.49 2.58277 -4.84339 0
M  V30 13815 H 1363.75 3.07411 -3.17727 0
M  V30 13816 N 1362.81 1.55714 0.243056 0
M  V30 13817 C 1364.22 1.68126 0.811814 0
M  V30 13818 C 1364.57 0.628259 1.85869 0
M  V30 13819 O 1363.7 -0.224747 2.1523 0
M  V30 13820 C 1364.29 3.048 1.47928 0
M  V30 13821 C 1362.85 3.19138 1.99569 0
M  V30 13822 C 1362 2.64011 0.848149 0
M  V30 13823 H 1364.95 1.58689 0.0187918 0
M  V30 13824 H 1364.97 2.99459 2.34743 0
M  V30 13825 H 1364.48 3.81417 0.717106 0
M  V30 13826 H 1362.58 2.4735 2.78655 0
M  V30 13827 H 1362.69 4.26095 2.19043 0
M  V30 13828 H 1361.06 2.21934 1.2497 0
M  V30 13829 H 1361.84 3.43157 0.0989987 0
M  V30 13830 N 1364.29 -0.50888 1.49158 0
M  V30 13831 C 1365.2 -1.63782 1.67966 0
M  V30 13832 C 1366.21 -1.64667 0.562207 0
M  V30 13833 O 1367.39 -1.83232 0.835935 0
M  V30 13834 C 1364.45 -3.00179 1.73474 0
M  V30 13835 C 1363.51 -3.09983 2.97 0
M  V30 13836 C 1362.75 -4.39875 3.02235 0
M  V30 13837 O 1362.97 -5.28214 2.15282 0
M  V30 13838 O 1361.9 -4.54486 3.94621 0
M  V30 13839 H 1365.73 -1.50846 2.63589 0
M  V30 13840 H 1363.32 -0.684306 1.32807 0
M  V30 13841 H 1365.2 -3.8126 1.79495 0
M  V30 13842 H 1363.87 -3.13394 0.810287 0
M  V30 13843 H 1362.78 -2.28119 2.965 0
M  V30 13844 H 1364.11 -3.01693 3.88899 0
M  V30 13845 N 1365.76 -1.381 -0.759346 0
M  V30 13846 C 1367.01 -1.33727 -1.5153 0
M  V30 13847 C 1367.33 0.0739504 -1.9486 0
M  V30 13848 O 1366.6 1.02049 -1.67221 0
M  V30 13849 H 1365.18 -0.492037 -0.562058 0
M  V30 13850 H 1367.85 -1.72719 -0.902995 0
M  V30 13851 H 1366.94 -1.98439 -2.40891 0
M  V30 13852 N 1367.24 0.986894 -1.22875 0
M  V30 13853 C 1368.47 1.76266 -1.08342 0
M  V30 13854 C 1368.89 1.85226 0.365602 0
M  V30 13855 O 1368.24 1.32675 1.25314 0
M  V30 13856 C 1368.29 3.19282 -1.69533 0
M  V30 13857 O 1368.01 3.10796 -3.08768 0
M  V30 13858 C 1369.52 4.13281 -1.60355 0
M  V30 13859 H 1366.74 0.553374 -0.379497 0
M  V30 13860 H 1369.28 1.24033 -1.62592 0
M  V30 13861 H 1367.43 3.68563 -1.19332 0
M  V30 13862 H 1367.85 4.0078 -3.38343 0
M  V30 13863 H 1369.32 5.11359 -2.07884 0
M  V30 13864 H 1369.8 4.356 -0.561182 0
M  V30 13865 H 1370.41 3.699 -2.09891 0
M  V30 13866 N 1368.72 1.0394 1.18466 0
M  V30 13867 C 1369.95 0.761926 1.92897 0
M  V30 13868 C 1370.37 -0.674618 1.75586 0
M  V30 13869 O 1369.73 -1.46711 1.06515 0
M  V30 13870 C 1369.78 1.13152 3.42387 0
M  V30 13871 O 1368.88 0.256266 4.11603 0
M  V30 13872 H 1368.22 0.280527 0.601831 0
M  V30 13873 H 1370.75 1.3889 1.50235 0
M  V30 13874 H 1370.76 1.0929 3.9309 0
M  V30 13875 H 1369.44 2.17804 3.54308 0
M  V30 13876 H 1368.01 0.354392 3.71212 0
M  V30 13877 N 1370.2 -1.34667 0.818693 0
M  V30 13878 C 1371.43 -2.02348 0.417002 0
M  V30 13879 C 1371.84 -1.61813 -0.980464 0
M  V30 13880 O 1371.18 -0.817232 -1.64521 0
M  V30 13881 C 1371.24 -3.56861 0.434779 0
M  V30 13882 C 1370.91 -4.20704 1.78485 0
M  V30 13883 C 1371.9 -4.41524 2.74504 0
M  V30 13884 C 1369.59 -4.57566 2.07217 0
M  V30 13885 C 1371.58 -4.98324 3.97431 0
M  V30 13886 C 1369.27 -5.14078 3.30405 0
M  V30 13887 C 1370.27 -5.344 4.2533 0
M  V30 13888 O 1369.95 -5.89717 5.46342 0
M  V30 13889 H 1369.69 -0.655279 0.16609 0
M  V30 13890 H 1372.24 -1.73011 1.10708 0
M  V30 13891 H 1370.47 -3.8544 -0.311973 0
M  V30 13892 H 1372.16 -4.05864 0.0537258 0
M  V30 13893 H 1372.93 -4.13414 2.53601 0
M  V30 13894 H 1368.8 -4.41054 1.34135 0
M  V30 13895 H 1372.35 -5.14102 4.71534 0
M  V30 13896 H 1368.25 -5.41616 3.51174 0
M  V30 13897 H 1369.01 -6.08155 5.47804 0
M  V30 13898 N 1371.68 -0.573274 -1.46804 0
M  V30 13899 C 1373.09 -0.23423 -1.57872 0
M  V30 13900 C 1373.29 1.26342 -1.56971 0
M  V30 13901 O 1372.35 2.04459 -1.48165 0
M  V30 13902 C 1373.66 -0.875097 -2.87685 0
M  V30 13903 C 1375.21 -0.847812 -3.01299 0
M  V30 13904 C 1375.68 -1.46804 -4.33835 0
M  V30 13905 N 1377.18 -1.43196 -4.4051 0
M  V30 13906 C 1377.91 -1.88133 -5.41658 0
M  V30 13907 N 1377.41 -2.41001 -6.49531 0
M  V30 13908 N 1379.2 -1.79107 -5.32801 0
M  V30 13909 H 1371.35 -1.54612 -1.45633 0
M  V30 13910 H 1373.61 -0.645703 -0.694098 0
M  V30 13911 H 1373.32 -1.92826 -2.94127 0
M  V30 13912 H 1373.19 -0.377671 -3.75305 0
M  V30 13913 H 1375.58 0.196707 -2.94444 0
M  V30 13914 H 1375.66 -1.38316 -2.1518 0
M  V30 13915 H 1375.31 -2.51171 -4.41447 0
M  V30 13916 H 1375.24 -0.908 -5.18713 0
M  V30 13917 H 1377.73 -1.04541 -3.63152 0
M  V30 13918 H 1378.04 -2.73172 -7.22908 0
M  V30 13919 H 1376.38 -2.45021 -6.50377 0
M  V30 13920 H 1379.58 -1.37569 -4.47429 0
M  V30 13921 H 1379.75 -2.14445 -6.11488 0
M  V30 13922 N 1373.15 1.5451 -0.310553 0
M  V30 13923 C 1374.4 2.01334 0.289169 0
M  V30 13924 C 1374.76 1.195 1.5079 0
M  V30 13925 O 1374.05 0.265743 1.89748 0
M  V30 13926 C 1374.24 3.5072 0.68779 0
M  V30 13927 C 1374.07 4.47014 -0.490764 0
M  V30 13928 C 1372.84 4.95591 -0.98579 0
M  V30 13929 C 1375.04 4.96569 -1.3388 0
M  V30 13930 N 1373.02 5.7576 -2.13011 0
M  V30 13931 C 1374.39 5.74534 -2.33047 0
M  V30 13932 C 1376.45 4.78736 -1.36807 0
M  V30 13933 C 1375.15 6.36565 -3.3493 0
M  V30 13934 C 1377.18 5.41593 -2.37553 0
M  V30 13935 C 1376.54 6.19398 -3.35448 0
M  V30 13936 H 1372.64 0.77886 0.070013 0
M  V30 13937 H 1375.22 1.89602 -0.442639 0
M  V30 13938 H 1373.39 3.62723 1.38875 0
M  V30 13939 H 1375.12 3.84327 1.26787 0
M  V30 13940 H 1371.88 4.70287 -0.559195 0
M  V30 13941 H 1372.3 6.20526 -2.70696 0
M  V30 13942 H 1376.95 4.18156 -0.624923 0
M  V30 13943 H 1374.66 6.96273 -4.10158 0
M  V30 13944 H 1378.25 5.29718 -2.40603 0
M  V30 13945 H 1377.13 6.67173 -4.12128 0
M  V30 13946 N 1374.63 0.0384594 1.57553 0
M  V30 13947 C 1375.86 -0.647137 1.96203 0
M  V30 13948 C 1376.27 -1.65656 0.914042 0
M  V30 13949 O 1375.61 -1.83361 -0.111617 0
M  V30 13950 C 1375.68 -1.40193 3.31038 0
M  V30 13951 C 1375.34 -0.549782 4.53681 0
M  V30 13952 C 1376.34 0.178839 5.19592 0
M  V30 13953 C 1374.02 -0.48444 4.99958 0
M  V30 13954 C 1376.02 0.961376 6.30108 0
M  V30 13955 C 1373.7 0.301795 6.10354 0
M  V30 13956 C 1374.7 1.0234 6.75289 0
M  V30 13957 O 1374.39 1.79673 7.83564 0
M  V30 13958 H 1374.12 -0.182651 0.650857 0
M  V30 13959 H 1376.68 0.0973346 2.05169 0
M  V30 13960 H 1374.91 -2.19175 3.1859 0
M  V30 13961 H 1376.59 -1.97653 3.54525 0
M  V30 13962 H 1377.36 0.137749 4.84804 0
M  V30 13963 H 1373.24 -1.03568 4.49216 0
M  V30 13964 H 1376.78 1.52513 6.80724 0
M  V30 13965 H 1372.68 0.344569 6.4458 0
M  V30 13966 H 1373.45 1.71749 8.00278 0
M  V30 13967 N 1376.11 -1.55841 -0.234795 0
M  V30 13968 C 1377.53 -1.48536 -0.583885 0
M  V30 13969 C 1377.73 -0.731018 -1.87772 0
M  V30 13970 O 1376.78 -0.265287 -2.51103 0
M  V30 13971 C 1378.1 -2.93017 -0.675389 0
M  V30 13972 C 1379.64 -3.03459 -0.766906 0
M  V30 13973 C 1380.12 -4.49272 -0.889868 0
M  V30 13974 N 1381.61 -4.5326 -0.95443 0
M  V30 13975 C 1382.35 -5.63346 -1.06905 0
M  V30 13976 N 1381.84 -6.83215 -1.14845 0
M  V30 13977 N 1383.63 -5.51169 -1.10315 0
M  V30 13978 H 1375.79 -2.0332 0.614405 0
M  V30 13979 H 1378.05 -0.923581 0.213779 0
M  V30 13980 H 1377.75 -3.51099 0.205493 0
M  V30 13981 H 1377.63 -3.4418 -1.54337 0
M  V30 13982 H 1380.02 -2.4545 -1.63823 0
M  V30 13983 H 1380.1 -2.55487 0.126472 0
M  V30 13984 H 1379.74 -5.07895 -0.0230489 0
M  V30 13985 H 1379.67 -4.94937 -1.79847 0
M  V30 13986 H 1382.16 -3.6693 -0.903923 0
M  V30 13987 H 1382.47 -7.62863 -1.23532 0
M  V30 13988 H 1380.82 -6.85952 -1.11781 0
M  V30 13989 H 1384.01 -4.56453 -1.03769 0
M  V30 13990 H 1384.18 -6.36998 -1.18903 0
M  V30 13991 N 1377.59 0.500963 -1.49426 0
M  V30 13992 C 1378.87 1.26231 -1.49416 0
M  V30 13993 C 1379.25 2.0993 -0.221908 0
M  V30 13994 O 1378.59 2.14198 0.795712 0
M  V30 13995 C 1378.8 2.11899 -2.77308 0
M  V30 13996 C 1380.15 2.71086 -3.26799 0
M  V30 13997 O 1381.18 2.22166 -2.78425 0
M  V30 13998 O 1380.04 3.60141 -4.11049 0
M  V30 13999 H 1377.13 0.571224 -0.598024 0
M  V30 14000 H 1379.68 0.51523 -1.61689 0
M  V30 14001 H 1378.45 1.50027 -3.61397 0
M  V30 14002 H 1378.07 2.93799 -2.67896 0
M  V30 14003 N 1379.07 1.38501 0.752011 0
M  V30 14004 C 1380.32 1.34529 1.50819 0
M  V30 14005 C 1380.64 -0.0636155 1.94896 0
M  V30 14006 O 1379.91 -1.01161 1.6776 0
M  V30 14007 H 1378.49 0.49501 0.559441 0
M  V30 14008 H 1381.15 1.73196 0.893822 0
M  V30 14009 H 1380.24 1.99713 2.39835 0
M  V30 14010 N 1380.55 -0.980364 1.23396 0
M  V30 14011 C 1381.48 -2.07522 0.972991 0
M  V30 14012 C 1382.49 -1.62714 -0.0530191 0
M  V30 14013 O 1383.68 -1.77564 0.182513 0
M  V30 14014 C 1380.78 -3.35977 0.444126 0
M  V30 14015 C 1379.95 -4.09756 1.53031 0
M  V30 14016 C 1379.01 -5.16488 1.00631 0
M  V30 14017 O 1378.04 -5.43368 1.69529 0
M  V30 14018 N 1379.24 -5.80263 -0.165842 0
M  V30 14019 H 1382 -2.30487 1.91561 0
M  V30 14020 H 1379.57 -1.14706 1.14255 0
M  V30 14021 H 1381.56 -4.04624 0.078617 0
M  V30 14022 H 1380.13 -3.0998 -0.403912 0
M  V30 14023 H 1379.35 -3.35564 2.06858 0
M  V30 14024 H 1380.64 -4.55815 2.26076 0
M  V30 14025 H 1380.03 -5.60811 -0.742162 0
M  V30 14026 H 1378.59 -6.50084 -0.472614 0
M  V30 14027 N 1382.02 -1.04567 -1.17913 0
M  V30 14028 C 1383.43 -0.779118 -1.69666 0
M  V30 14029 C 1383.79 0.699448 -1.83309 0
M  V30 14030 O 1382.91 1.54407 -1.51616 0
M  V30 14031 C 1383.51 -1.40769 -3.08171 0
M  V30 14032 C 1382.06 -1.18933 -3.57116 0
M  V30 14033 C 1381.21 -1.49519 -2.33536 0
M  V30 14034 H 1384.16 -1.21144 -1.02518 0
M  V30 14035 H 1384.18 -0.813584 -3.717 0
M  V30 14036 H 1383.7 -2.4838 -2.9821 0
M  V30 14037 H 1381.8 -0.132184 -3.72365 0
M  V30 14038 H 1381.91 -1.88987 -4.40251 0
M  V30 14039 H 1380.27 -0.915056 -2.37695 0
M  V30 14040 H 1381.06 -2.5825 -2.26189 0
M  V30 14041 N 1383.5 1.34231 -0.825823 0
M  V30 14042 C 1384.43 2.31997 -0.264546 0
M  V30 14043 C 1385.41 1.58375 0.620592 0
M  V30 14044 O 1386.6 1.86341 0.546865 0
M  V30 14045 C 1383.73 3.42557 0.572025 0
M  V30 14046 C 1382.68 4.27454 -0.216219 0
M  V30 14047 C 1382.01 5.29509 0.743279 0
M  V30 14048 C 1383.31 5.02456 -1.42603 0
M  V30 14049 H 1385 2.79189 -1.08139 0
M  V30 14050 H 1382.55 1.34227 -0.521451 0
M  V30 14051 H 1384.5 4.09968 0.974889 0
M  V30 14052 H 1383.22 2.94021 1.42195 0
M  V30 14053 H 1381.88 3.61649 -0.600485 0
M  V30 14054 H 1381.53 4.77234 1.58924 0
M  V30 14055 H 1381.23 5.87188 0.220064 0
M  V30 14056 H 1382.76 5.99789 1.14394 0
M  V30 14057 H 1384.17 5.62706 -1.09702 0
M  V30 14058 H 1382.57 5.69723 -1.88509 0
M  V30 14059 H 1383.64 4.31983 -2.2027 0
M  V30 14060 N 1384.98 0.581051 1.46498 0
M  V30 14061 C 1385.91 -0.19094 2.28403 0
M  V30 14062 C 1386.92 -0.857039 1.38415 0
M  V30 14063 O 1388.11 -0.726881 1.6303 0
M  V30 14064 C 1385.21 -1.28972 3.134 0
M  V30 14065 C 1384.39 -0.715867 4.31502 0
M  V30 14066 C 1383.45 -1.70215 4.97909 0
M  V30 14067 O 1382.47 -1.23885 5.55555 0
M  V30 14068 N 1383.67 -3.0362 4.94768 0
M  V30 14069 H 1386.44 0.511754 2.95298 0
M  V30 14070 H 1384 0.41871 1.56392 0
M  V30 14071 H 1385.99 -1.94877 3.5469 0
M  V30 14072 H 1384.56 -1.8953 2.4859 0
M  V30 14073 H 1383.78 0.120591 3.94016 0
M  V30 14074 H 1385.07 -0.312226 5.07841 0
M  V30 14075 H 1384.47 -3.43885 4.49177 0
M  V30 14076 H 1383.02 -3.65018 5.40005 0
M  V30 14077 N 1386.46 -1.54343 0.318742 0
M  V30 14078 C 1387.37 -2.27856 -0.558442 0
M  V30 14079 C 1388.38 -1.32029 -1.13333 0
M  V30 14080 O 1389.56 -1.65037 -1.15433 0
M  V30 14081 C 1386.62 -3.01842 -1.70565 0
M  V30 14082 C 1385.69 -4.13245 -1.16305 0
M  V30 14083 C 1384.92 -4.83693 -2.25559 0
M  V30 14084 O 1385.14 -4.53621 -3.4581 0
M  V30 14085 O 1384.08 -5.70708 -1.91249 0
M  V30 14086 H 1387.9 -3.03676 0.0384247 0
M  V30 14087 H 1385.49 -1.4916 0.0845936 0
M  V30 14088 H 1387.37 -3.48189 -2.37365 0
M  V30 14089 H 1386.04 -2.28902 -2.28879 0
M  V30 14090 H 1384.95 -3.71258 -0.460274 0
M  V30 14091 H 1386.28 -4.88214 -0.625111 0
M  V30 14092 N 1387.94 -0.0468143 -1.5753 0
M  V30 14093 C 1389.16 0.641161 -1.97241 0
M  V30 14094 C 1389.59 1.6384 -0.92401 0
M  V30 14095 O 1388.94 1.80946 0.113229 0
M  V30 14096 C 1388.99 1.30832 -3.36029 0
M  V30 14097 O 1388.1 2.42394 -3.33645 0
M  V30 14098 H 1387.44 0.167035 -0.642647 0
M  V30 14099 H 1389.97 -0.113921 -2.04283 0
M  V30 14100 H 1389.98 1.66102 -3.72658 0
M  V30 14101 H 1388.65 0.57744 -4.11872 0
M  V30 14102 H 1387.23 2.09104 -3.08756 0
M  V30 14103 N 1389.41 1.55964 0.226527 0
M  V30 14104 C 1390.64 1.82823 0.968673 0
M  V30 14105 C 1391.06 0.625281 1.78145 0
M  V30 14106 O 1390.41 -0.40617 1.77923 0
M  V30 14107 C 1390.47 3.08143 1.89024 0
M  V30 14108 O 1390.19 4.23797 1.11032 0
M  V30 14109 C 1391.69 3.47954 2.74669 0
M  V30 14110 H 1388.91 0.607876 0.284126 0
M  V30 14111 H 1391.45 2.03048 0.243258 0
M  V30 14112 H 1389.61 2.89908 2.56967 0
M  V30 14113 H 1390.02 4.94957 1.73546 0
M  V30 14114 H 1391.49 4.38691 3.35044 0
M  V30 14115 H 1391.97 2.69476 3.46813 0
M  V30 14116 H 1392.58 3.6861 2.12147 0
M  V30 14117 N 1390.89 -0.493031 1.4969 0
M  V30 14118 C 1392.12 -1.27517 1.63567 0
M  V30 14119 C 1392.54 -1.85526 0.310105 0
M  V30 14120 O 1391.9 -1.66246 -0.723314 0
M  V30 14121 C 1391.95 -2.37551 2.71296 0
M  V30 14122 O 1391.05 -3.41617 2.31023 0
M  V30 14123 H 1390.39 -0.376116 0.547205 0
M  V30 14124 H 1392.92 -0.589328 1.95929 0
M  V30 14125 H 1392.93 -2.83196 2.93708 0
M  V30 14126 H 1391.61 -1.94697 3.67513 0
M  V30 14127 H 1390.19 -3.01836 2.18974 0
M  V30 14128 N 1392.37 -1.38898 -0.744656 0
M  V30 14129 C 1393.33 -1.36633 -1.84022 0
M  V30 14130 C 1394.33 -0.265187 -1.58598 0
M  V30 14131 O 1395.52 -0.522569 -1.66177 0
M  V30 14132 C 1392.66 -1.12938 -3.21649 0
M  V30 14133 H 1393.85 -2.34111 -1.87435 0
M  V30 14134 H 1391.4 -1.24322 -0.947302 0
M  V30 14135 H 1392.14 -0.161027 -3.239 0
M  V30 14136 H 1391.92 -1.9267 -3.41498 0
M  V30 14137 H 1393.41 -1.14071 -4.01718 0
M  V30 14138 N 1393.85 0.973806 -1.23914 0
M  V30 14139 C 1395.08 1.75107 -1.10206 0
M  V30 14140 C 1395.49 1.85604 0.345935 0
M  V30 14141 O 1394.85 1.33996 1.239 0
M  V30 14142 C 1394.9 3.17466 -1.72909 0
M  V30 14143 O 1394.62 3.07504 -3.12047 0
M  V30 14144 C 1396.12 4.11557 -1.6473 0
M  V30 14145 H 1393.34 0.549318 -0.385345 0
M  V30 14146 H 1395.89 1.22301 -1.63898 0
M  V30 14147 H 1394.04 3.67277 -1.23234 0
M  V30 14148 H 1394.45 3.97169 -3.42575 0
M  V30 14149 H 1395.93 5.09126 -2.13295 0
M  V30 14150 H 1396.41 4.3498 -0.607352 0
M  V30 14151 H 1397.01 3.67653 -2.13802 0
M  V30 14152 N 1395.33 1.05191 1.17357 0
M  V30 14153 C 1396.26 0.673931 2.23563 0
M  V30 14154 C 1397.24 -0.328284 1.66902 0
M  V30 14155 O 1398.42 -0.205878 1.93106 0
M  V30 14156 C 1395.55 0.0478801 3.47267 0
M  V30 14157 C 1394.51 0.974855 4.1675 0
M  V30 14158 C 1393.83 0.212684 5.34277 0
M  V30 14159 C 1395.13 2.299 4.68981 0
M  V30 14160 H 1396.83 1.56183 2.55436 0
M  V30 14161 H 1394.37 0.752408 1.2278 0
M  V30 14162 H 1396.33 -0.228343 4.20781 0
M  V30 14163 H 1395.05 -0.874963 3.14662 0
M  V30 14164 H 1393.71 1.23564 3.45148 0
M  V30 14165 H 1393.36 -0.712924 4.97922 0
M  V30 14166 H 1393.06 0.830351 5.81703 0
M  V30 14167 H 1394.58 -0.056255 6.10574 0
M  V30 14168 H 1395.99 2.08269 5.34132 0
M  V30 14169 H 1394.39 2.87064 5.26986 0
M  V30 14170 H 1395.46 2.93759 3.8579 0
M  V30 14171 N 1396.8 -1.33791 0.83293 0
M  V30 14172 C 1398.22 -1.50893 0.519955 0
M  V30 14173 C 1398.42 -1.7749 -0.953919 0
M  V30 14174 O 1397.48 -1.83168 -1.73798 0
M  V30 14175 C 1398.79 -2.66741 1.38815 0
M  V30 14176 C 1400.34 -2.80625 1.38631 0
M  V30 14177 C 1400.81 -3.99528 2.23922 0
M  V30 14178 N 1402.3 -4.06753 2.21599 0
M  V30 14179 C 1403.04 -4.97937 2.84335 0
M  V30 14180 N 1402.53 -5.94276 3.561 0
M  V30 14181 N 1404.33 -4.90887 2.73837 0
M  V30 14182 H 1396.48 -1.14788 1.7871 0
M  V30 14183 H 1398.74 -0.563822 0.762108 0
M  V30 14184 H 1398.45 -2.53748 2.43525 0
M  V30 14185 H 1398.32 -3.62001 1.05996 0
M  V30 14186 H 1400.71 -2.93053 0.346951 0
M  V30 14187 H 1400.79 -1.86144 1.75454 0
M  V30 14188 H 1400.43 -3.8786 3.27914 0
M  V30 14189 H 1400.36 -4.93242 1.84444 0
M  V30 14190 H 1402.85 -3.37802 1.69406 0
M  V30 14191 H 1403.17 -6.60504 4.01191 0
M  V30 14192 H 1401.51 -5.9437 3.60207 0
M  V30 14193 H 1404.7 -4.14586 2.17338 0
M  V30 14194 H 1404.88 -5.61752 3.23014 0
M  V30 14195 N 1398.28 -0.588812 -1.46187 0
M  V30 14196 C 1399.53 -0.076728 -2.02355 0
M  V30 14197 C 1399.86 1.28557 -1.45956 0
M  V30 14198 O 1399.11 1.85722 -0.616899 0
M  V30 14199 C 1399.41 0.0325249 -3.57385 0
M  V30 14200 C 1399.08 -1.26298 -4.32851 0
M  V30 14201 C 1397.74 -1.61789 -4.53186 0
M  V30 14202 C 1400.09 -2.12001 -4.76136 0
M  V30 14203 C 1397.42 -2.82771 -5.1406 0
M  V30 14204 C 1399.77 -3.32214 -5.38346 0
M  V30 14205 C 1398.44 -3.6798 -5.56908 0
M  V30 14206 H 1397.71 -0.0280768 -0.740468 0
M  V30 14207 H 1400.35 -0.766671 -1.75483 0
M  V30 14208 H 1398.66 0.805632 -3.83428 0
M  V30 14209 H 1400.35 0.444597 -3.98528 0
M  V30 14210 H 1396.94 -0.976692 -4.17323 0
M  V30 14211 H 1401.13 -1.85884 -4.60175 0
M  V30 14212 H 1396.38 -3.10611 -5.26622 0
M  V30 14213 H 1400.56 -3.98888 -5.70843 0
M  V30 14214 H 1398.19 -4.61815 -6.03846 0
M  V30 14215 N 1399.76 1.54172 -0.326923 0
M  V30 14216 C 1400.72 2.2311 0.524855 0
M  V30 14217 C 1401.72 1.22567 1.04087 0
M  V30 14218 O 1402.91 1.47123 0.932759 0
M  V30 14219 C 1400.05 2.93778 1.72937 0
M  V30 14220 H 1401.24 2.99799 -0.0778327 0
M  V30 14221 H 1398.79 1.56105 -0.0780484 0
M  V30 14222 H 1399.53 2.21234 2.3712 0
M  V30 14223 H 1399.31 3.67509 1.36674 0
M  V30 14224 H 1400.8 3.46292 2.33392 0
M  V30 14225 N 1401.24 0.0551678 1.57503 0
M  V30 14226 C 1402.2 -0.903065 2.10659 0
M  V30 14227 C 1403.2 -1.23728 1.02703 0
M  V30 14228 O 1404.39 -1.17331 1.2876 0
M  V30 14229 C 1401.52 -2.21171 2.59415 0
M  V30 14230 H 1402.72 -0.442197 2.96622 0
M  V30 14231 H 1400.27 -0.193297 1.551 0
M  V30 14232 H 1401 -2.71831 1.76858 0
M  V30 14233 H 1400.79 -1.98216 3.38309 0
M  V30 14234 H 1402.28 -2.89802 3.00674 0
M  V30 14235 N 1402.72 -1.56081 -0.218252 0
M  V30 14236 C 1403.97 -1.78445 -0.94022 0
M  V30 14237 C 1404.28 -0.624317 -1.85369 0
M  V30 14238 O 1405.48 -0.731669 -2.61455 0
M  V30 14239 C 1403.94 -3.16026 -1.72208 0
M  V30 14240 C 1403.55 -4.39774 -0.854584 0
M  V30 14241 C 1405.29 -3.47714 -2.43506 0
M  V30 14242 C 1403.2 -5.68379 -1.63398 0
M  V30 14243 H 1402.13 -0.665303 -0.354806 0
M  V30 14244 H 1404.78 -1.82471 -0.194021 0
M  V30 14245 H 1403.16 -3.06185 -2.5113 0
M  V30 14246 H 1404.34 -4.60679 -0.105659 0
M  V30 14247 H 1402.65 -4.15627 -0.253562 0
M  V30 14248 H 1405.25 -4.41026 -3.02325 0
M  V30 14249 H 1405.59 -2.70367 -3.16555 0
M  V30 14250 H 1406.12 -3.58899 -1.71571 0
M  V30 14251 H 1402.86 -6.48628 -0.946704 0
M  V30 14252 H 1402.38 -5.5153 -2.35743 0
M  V30 14253 H 1404.06 -6.08672 -2.1938 0
M  V30 14254 N 1404.2 0.485086 -1.49949 0
M  V30 14255 C 1405.42 1.26179 -1.63971 0
M  V30 14256 C 1405.84 1.86113 -0.317408 0
M  V30 14257 O 1405.2 1.68581 0.699038 0
M  V30 14258 C 1405.25 2.38062 -2.72046 0
M  V30 14259 O 1404.97 1.80588 -3.99149 0
M  V30 14260 C 1406.47 3.29174 -2.96916 0
M  V30 14261 H 1403.69 0.382122 -0.551565 0
M  V30 14262 H 1406.23 0.580607 -1.96085 0
M  V30 14263 H 1404.39 3.0198 -2.42666 0
M  V30 14264 H 1404.8 2.54159 -4.58807 0
M  V30 14265 H 1406.28 4.03922 -3.76233 0
M  V30 14266 H 1406.75 3.87123 -2.07443 0
M  V30 14267 H 1407.36 2.71006 -3.27774 0
M  V30 14268 N 1405.67 1.39291 0.737279 0
M  V30 14269 C 1406.6 1.40562 1.86452 0
M  V30 14270 C 1407.58 0.269283 1.67955 0
M  V30 14271 O 1408.77 0.474769 1.88307 0
M  V30 14272 C 1405.9 1.2461 3.24175 0
M  V30 14273 C 1404.85 2.35619 3.57306 0
M  V30 14274 C 1404.18 2.04758 4.93941 0
M  V30 14275 C 1405.48 3.77927 3.60512 0
M  V30 14276 H 1407.17 2.34896 1.85646 0
M  V30 14277 H 1404.72 1.13065 0.891756 0
M  V30 14278 H 1406.67 1.2412 4.02706 0
M  V30 14279 H 1405.4 0.267438 3.25503 0
M  V30 14280 H 1404.06 2.35322 2.81104 0
M  V30 14281 H 1403.7 1.05336 4.91847 0
M  V30 14282 H 1403.4 2.79117 5.17076 0
M  V30 14283 H 1404.93 2.05915 5.74832 0
M  V30 14284 H 1406.34 3.80166 4.29123 0
M  V30 14285 H 1404.74 4.51626 3.95164 0
M  V30 14286 H 1405.81 4.09068 2.60368 0
M  V30 14287 N 1407.15 -0.967221 1.24429 0
M  V30 14288 C 1408.38 -1.7452 1.11133 0
M  V30 14289 C 1408.79 -1.85785 -0.336087 0
M  V30 14290 O 1408.15 -1.34652 -1.23188 0
M  V30 14291 C 1408.2 -3.16544 1.74591 0
M  V30 14292 O 1407.92 -3.05845 3.13673 0
M  V30 14293 C 1409.42 -4.10677 1.6691 0
M  V30 14294 H 1406.64 -0.547267 0.388253 0
M  V30 14295 H 1409.19 -1.2143 1.64545 0
M  V30 14296 H 1407.34 -3.66618 1.2518 0
M  V30 14297 H 1407.76 -3.95346 3.44676 0
M  V30 14298 H 1409.23 -5.07987 2.15992 0
M  V30 14299 H 1409.71 -4.34652 0.630411 0
M  V30 14300 H 1410.31 -3.66514 2.15749 0
M  V30 14301 N 1408.63 -1.05812 -1.16797 0
M  V30 14302 C 1409.56 -0.622584 -2.20582 0
M  V30 14303 C 1410.57 0.316905 -1.59686 0
M  V30 14304 O 1411.76 0.108657 -1.78169 0
M  V30 14305 C 1408.86 0.108124 -3.38727 0
M  V30 14306 C 1408.04 -0.84363 -4.29187 0
M  V30 14307 C 1407.1 -0.15305 -5.25977 0
M  V30 14308 O 1406.12 -0.78915 -5.63703 0
M  V30 14309 N 1407.32 1.10721 -5.69843 0
M  V30 14310 H 1410.09 -1.51532 -2.5857 0
M  V30 14311 H 1407.65 -0.940815 -1.31758 0
M  V30 14312 H 1409.64 0.580395 -4.00517 0
M  V30 14313 H 1408.21 0.902599 -2.99286 0
M  V30 14314 H 1407.43 -1.49538 -3.64735 0
M  V30 14315 H 1408.72 -1.48946 -4.86511 0
M  V30 14316 H 1408.12 1.64423 -5.41278 0
M  V30 14317 H 1406.67 1.52344 -6.33746 0
M  V30 14318 N 1410.11 1.33347 -0.840014 0
M  V30 14319 C 1411.07 2.27492 -0.279264 0
M  V30 14320 C 1412.07 1.51004 0.552669 0
M  V30 14321 O 1413.26 1.70305 0.366295 0
M  V30 14322 C 1410.39 3.35462 0.606466 0
M  V30 14323 H 1411.59 2.78601 -1.11001 0
M  V30 14324 H 1409.14 1.4377 -0.613187 0
M  V30 14325 H 1409.87 2.89596 1.45961 0
M  V30 14326 H 1409.66 3.92098 0.0111889 0
M  V30 14327 H 1411.15 4.05645 0.992052 0
M  V30 14328 N 1411.59 0.596556 1.45873 0
M  V30 14329 C 1412.83 0.0872856 2.01911 0
M  V30 14330 C 1413.15 -1.28257 1.46885 0
M  V30 14331 O 1412.42 -1.84489 0.658837 0
M  V30 14332 H 1411 0.0292769 0.746426 0
M  V30 14333 H 1413.67 0.775464 1.78809 0
M  V30 14334 H 1412.76 0.0287213 3.12087 0
M  V30 14335 N 1413.06 -1.53996 0.335095 0
M  V30 14336 C 1414.03 -2.23385 -0.513015 0
M  V30 14337 C 1415.03 -1.23117 -1.03435 0
M  V30 14338 O 1416.22 -1.47616 -0.924944 0
M  V30 14339 C 1413.35 -2.94691 -1.71377 0
M  V30 14340 H 1414.54 -2.99753 0.0937306 0
M  V30 14341 H 1412.09 -1.56061 0.086326 0
M  V30 14342 H 1412.83 -2.22488 -2.35944 0
M  V30 14343 H 1412.61 -3.68228 -1.34723 0
M  V30 14344 H 1414.1 -3.47525 -2.31552 0
M  V30 14345 N 1414.54 -0.0635198 -1.57472 0
M  V30 14346 C 1415.77 0.615841 -1.97208 0
M  V30 14347 C 1416.18 1.64181 -0.940281 0
M  V30 14348 O 1415.52 1.83515 0.0824321 0
M  V30 14349 C 1415.58 1.34908 -3.33227 0
M  V30 14350 C 1415.25 0.477535 -4.54498 0
M  V30 14351 C 1416.25 -0.261479 -5.19242 0
M  V30 14352 C 1413.93 0.404839 -5.00666 0
M  V30 14353 C 1415.92 -1.0615 -6.28499 0
M  V30 14354 C 1413.61 -0.398859 -6.09797 0
M  V30 14355 C 1414.61 -1.1307 -6.73576 0
M  V30 14356 O 1414.3 -1.92116 -7.80607 0
M  V30 14357 H 1414.03 0.172273 -0.65368 0
M  V30 14358 H 1416.58 -0.129963 -2.04988 0
M  V30 14359 H 1414.81 2.14078 -3.22036 0
M  V30 14360 H 1416.5 1.91988 -3.57625 0
M  V30 14361 H 1417.27 -0.214859 -4.84524 0
M  V30 14362 H 1413.15 0.964087 -4.50806 0
M  V30 14363 H 1416.69 -1.63324 -6.78212 0
M  V30 14364 H 1412.59 -0.447073 -6.4395 0
M  V30 14365 H 1413.36 -1.84459 -7.97444 0
M  V30 14366 N 1416.02 1.56195 0.209972 0
M  V30 14367 C 1416.97 1.89755 1.26401 0
M  V30 14368 C 1417.95 0.761731 1.41727 0
M  V30 14369 O 1419.15 1.02435 1.44347 0
M  V30 14370 C 1416.27 2.22775 2.61201 0
M  V30 14371 C 1415.36 3.42777 2.49729 0
M  V30 14372 N 1415.75 4.61089 2.0792 0
M  V30 14373 C 1414.05 3.46621 2.8066 0
M  V30 14374 C 1414.75 5.43249 2.07979 0
M  V30 14375 N 1413.73 4.83263 2.48913 0
M  V30 14376 H 1417.53 2.78736 0.93184 0
M  V30 14377 H 1415.04 1.56915 0.418485 0
M  V30 14378 H 1417.04 2.44997 3.37316 0
M  V30 14379 H 1415.7 1.35112 2.95254 0
M  V30 14380 H 1416.71 4.86033 1.78865 0
M  V30 14381 H 1413.39 2.69334 3.19007 0
M  V30 14382 H 1414.78 6.47981 1.77681 0
M  V30 14383 N 1417.5 -0.477127 1.50204 0
M  V30 14384 C 1418.74 -1.23956 1.62525 0
M  V30 14385 C 1419.1 -1.89385 0.315789 0
M  V30 14386 O 1420.3 -2.66955 0.314378 0
M  V30 14387 C 1418.57 -2.25999 2.76874 0
M  V30 14388 S 1420.13 -3.11262 3.09292 0
M  V30 14389 H 1416.95 -0.420931 0.573008 0
M  V30 14390 H 1419.55 -0.537592 1.87963 0
M  V30 14391 H 1418.26 -1.76501 3.70507 0
M  V30 14392 H 1417.79 -3.00832 2.53503 0
M  V30 14393 H 1419.8 -4.27061 2.52652 0
M  V30 14394 N 1418.98 -1.3968 -0.729882 0
M  V30 14395 C 1419.91 -1.34713 -1.85432 0
M  V30 14396 C 1420.92 -0.254999 -1.60791 0
M  V30 14397 O 1422.11 -0.514324 -1.7093 0
M  V30 14398 C 1419.21 -1.07019 -3.21559 0
M  V30 14399 C 1418.38 -2.27609 -3.73515 0
M  V30 14400 C 1417.44 -1.96292 -4.88217 0
M  V30 14401 O 1416.47 -2.69025 -5.01612 0
M  V30 14402 N 1417.67 -0.932181 -5.72967 0
M  V30 14403 H 1420.44 -2.31616 -1.90195 0
M  V30 14404 H 1418 -1.33849 -0.910834 0
M  V30 14405 H 1419.99 -0.84079 -3.9587 0
M  V30 14406 H 1418.56 -0.188323 -3.12032 0
M  V30 14407 H 1417.78 -2.66468 -2.90497 0
M  V30 14408 H 1419.07 -3.08033 -4.04961 0
M  V30 14409 H 1418.46 -0.329507 -5.6474 0
M  V30 14410 H 1417.02 -0.762684 -6.47322 0
M  V30 14411 N 1420.45 0.960609 -1.2494 0
M  V30 14412 C 1421.42 2.03791 -1.04891 0
M  V30 14413 C 1422.42 1.608 -0.00375792 0
M  V30 14414 O 1423.61 1.72463 -0.24539 0
M  V30 14415 C 1420.74 3.35733 -0.591309 0
M  V30 14416 H 1421.93 2.2301 -2.00516 0
M  V30 14417 H 1419.49 1.13686 -1.07263 0
M  V30 14418 H 1420.22 3.22207 0.367816 0
M  V30 14419 H 1420.01 3.68283 -1.34574 0
M  V30 14420 H 1421.5 4.14921 -0.472283 0
M  V30 14421 N 1421.93 1.0643 1.16234 0
M  V30 14422 C 1422.86 0.634274 2.20249 0
M  V30 14423 C 1423.88 -0.308432 1.59852 0
M  V30 14424 O 1425.07 -0.0992067 1.78224 0
M  V30 14425 C 1422.17 -0.0901593 3.3878 0
M  V30 14426 C 1421.34 0.866379 4.28734 0
M  V30 14427 C 1420.4 0.180942 5.25889 0
M  V30 14428 O 1419.42 0.819034 5.63277 0
M  V30 14429 N 1420.63 -1.07698 5.70422 0
M  V30 14430 H 1423.39 1.52901 2.57762 0
M  V30 14431 H 1420.95 0.947789 1.31258 0
M  V30 14432 H 1422.94 -0.559147 4.00819 0
M  V30 14433 H 1421.51 -0.886715 2.9976 0
M  V30 14434 H 1420.73 1.51471 3.63937 0
M  V30 14435 H 1422.02 1.51524 4.85714 0
M  V30 14436 H 1421.42 -1.6155 5.42142 0
M  V30 14437 H 1419.98 -1.48981 6.34545 0
M  V30 14438 N 1423.41 -1.329 0.847073 0
M  V30 14439 C 1424.37 -2.27341 0.291324 0
M  V30 14440 C 1425.37 -1.51295 -0.544653 0
M  V30 14441 O 1426.56 -1.70497 -0.357258 0
M  V30 14442 C 1423.7 -3.35779 -0.588668 0
M  V30 14443 H 1424.89 -2.78009 1.12477 0
M  V30 14444 H 1422.44 -1.43442 0.620803 0
M  V30 14445 H 1423.18 -2.90366 -1.44423 0
M  V30 14446 H 1422.96 -3.92099 0.00960515 0
M  V30 14447 H 1424.45 -4.06166 -0.970526 0
M  V30 14448 N 1424.89 -0.604284 -1.45555 0
M  V30 14449 C 1426.3 -0.183613 -1.85795 0
M  V30 14450 C 1426.65 1.25869 -1.50504 0
M  V30 14451 O 1425.78 1.9539 -0.930148 0
M  V30 14452 C 1426.37 -0.326455 -3.37224 0
M  V30 14453 C 1424.93 0.0394987 -3.76379 0
M  V30 14454 C 1424.08 -0.65243 -2.69516 0
M  V30 14455 H 1427.03 -0.811173 -1.36403 0
M  V30 14456 H 1427.05 0.442258 -3.77921 0
M  V30 14457 H 1426.56 -1.37627 -3.62878 0
M  V30 14458 H 1424.66 1.08862 -3.56342 0
M  V30 14459 H 1424.77 -0.35185 -4.77806 0
M  V30 14460 H 1423.14 -0.0904148 -2.54539 0
M  V30 14461 H 1423.92 -1.70432 -2.98007 0
M  V30 14462 N 1426.37 1.53816 -0.343257 0
M  V30 14463 C 1427.61 2.00512 0.252845 0
M  V30 14464 C 1427.94 1.23274 1.51091 0
M  V30 14465 O 1427.21 0.339841 1.9293 0
M  V30 14466 H 1425.79 0.740751 0.0964202 0
M  V30 14467 H 1428.45 1.89288 -0.464347 0
M  V30 14468 H 1427.54 3.08142 0.495499 0
M  V30 14469 N 1427.84 0.0718701 1.57436 0
M  V30 14470 C 1429.07 -0.609701 1.98236 0
M  V30 14471 C 1429.49 -1.6235 0.949959 0
M  V30 14472 O 1428.85 -1.81103 -0.0844281 0
M  V30 14473 C 1428.9 -1.2547 3.38068 0
M  V30 14474 O 1428 -2.37055 3.37459 0
M  V30 14475 H 1427.35 -0.15679 0.645223 0
M  V30 14476 H 1429.88 0.146407 2.04076 0
M  V30 14477 H 1429.89 -1.60152 3.75254 0
M  V30 14478 H 1428.56 -0.511842 4.12738 0
M  V30 14479 H 1427.14 -2.04165 3.12043 0
M  V30 14480 N 1429.32 -1.56304 -0.201686 0
M  V30 14481 C 1430.29 -1.93171 -1.2336 0
M  V30 14482 C 1431.29 -0.812164 -1.38782 0
M  V30 14483 O 1432.48 -1.07967 -1.36707 0
M  V30 14484 C 1429.61 -2.19997 -2.60411 0
M  V30 14485 H 1430.8 -2.85483 -0.918654 0
M  V30 14486 H 1428.35 -1.49893 -0.442935 0
M  V30 14487 H 1429.09 -1.30301 -2.96972 0
M  V30 14488 H 1428.87 -3.01574 -2.5059 0
M  V30 14489 H 1430.36 -2.49547 -3.34838 0
M  V30 14490 N 1430.8 0.469154 -1.50455 0
M  V30 14491 C 1432.03 1.24432 -1.653 0
M  V30 14492 C 1432.44 1.85766 -0.33713 0
M  V30 14493 O 1431.8 1.69313 0.681118 0
M  V30 14494 C 1431.85 2.35163 -2.74555 0
M  V30 14495 O 1431.57 1.76344 -4.01042 0
M  V30 14496 C 1433.07 3.26006 -3.00391 0
M  V30 14497 H 1430.29 0.376251 -0.555587 0
M  V30 14498 H 1432.84 0.559777 -1.96689 0
M  V30 14499 H 1430.99 2.99389 -2.45855 0
M  V30 14500 H 1431.41 2.49278 -4.61477 0
M  V30 14501 H 1432.88 3.99909 -3.80496 0
M  V30 14502 H 1433.36 3.84901 -2.11537 0
M  V30 14503 H 1433.96 2.67515 -3.3063 0
M  V30 14504 N 1432.28 1.40065 0.722464 0
M  V30 14505 C 1433.51 1.41271 1.51163 0
M  V30 14506 C 1433.92 0.0105425 1.88797 0
M  V30 14507 O 1433.28 -0.963867 1.5497 0
M  V30 14508 C 1433.33 2.29713 2.79131 0
M  V30 14509 O 1433.05 3.6447 2.43091 0
M  V30 14510 C 1434.55 2.39437 3.73075 0
M  V30 14511 H 1431.77 0.482086 0.466727 0
M  V30 14512 H 1434.32 1.84033 0.891736 0
M  V30 14513 H 1432.47 1.9033 3.37421 0
M  V30 14514 H 1432.88 4.11371 3.25383 0
M  V30 14515 H 1434.36 3.05543 4.59726 0
M  V30 14516 H 1434.84 1.41731 4.15703 0
M  V30 14517 H 1435.44 2.79342 3.20699 0
M  V30 14518 N 1433.76 -0.95397 1.25448 0
M  V30 14519 C 1434.98 -1.73863 1.13077 0
M  V30 14520 C 1435.41 -1.85503 -0.311481 0
M  V30 14521 O 1434.77 -1.33596 -1.22564 0
M  V30 14522 C 1434.81 -3.13 1.79062 0
M  V30 14523 O 1433.92 -3.98258 1.07072 0
M  V30 14524 H 1433.26 -0.533921 0.394746 0
M  V30 14525 H 1435.79 -1.19571 1.66024 0
M  V30 14526 H 1435.8 -3.63456 1.85374 0
M  V30 14527 H 1434.47 -3.03844 2.83992 0
M  V30 14528 H 1433.05 -3.56722 1.08645 0
M  V30 14529 N 1435.24 -1.07045 -1.15668 0
M  V30 14530 C 1436.17 -0.709413 -2.22463 0
M  V30 14531 C 1437.15 0.30169 -1.67403 0
M  V30 14532 O 1438.33 0.175131 -1.93409 0
M  V30 14533 C 1435.46 -0.103121 -3.47147 0
M  V30 14534 C 1434.42 -1.04103 -4.15146 0
M  V30 14535 C 1433.74 -0.297656 -5.33871 0
M  V30 14536 C 1435.04 -2.37332 -4.65264 0
M  V30 14537 H 1436.74 -1.60227 -2.52918 0
M  V30 14538 H 1434.28 -0.771846 -1.21567 0
M  V30 14539 H 1436.23 0.161371 -4.21091 0
M  V30 14540 H 1434.96 0.824792 -3.16014 0
M  V30 14541 H 1433.62 -1.2904 -3.43139 0
M  V30 14542 H 1433.27 0.633618 -4.98993 0
M  V30 14543 H 1432.97 -0.922789 -5.80309 0
M  V30 14544 H 1434.49 -0.0408892 -6.10586 0
M  V30 14545 H 1435.9 -2.1674 -5.30751 0
M  V30 14546 H 1434.3 -2.95412 -5.22352 0
M  V30 14547 H 1435.37 -2.99859 -3.81068 0
M  V30 14548 N 1436.71 1.32449 -0.85411 0
M  V30 14549 C 1437.68 2.27183 -0.303377 0
M  V30 14550 C 1438.68 1.51582 0.536622 0
M  V30 14551 O 1439.87 1.70684 0.348211 0
M  V30 14552 C 1437 3.36086 0.570852 0
M  V30 14553 H 1438.19 2.77408 -1.1395 0
M  V30 14554 H 1435.74 1.43111 -0.628402 0
M  V30 14555 H 1436.48 2.91128 1.42881 0
M  V30 14556 H 1436.26 3.92088 -0.030399 0
M  V30 14557 H 1437.75 4.06675 0.948972 0
M  V30 14558 N 1438.19 0.611994 1.45232 0
M  V30 14559 C 1439.15 -0.0943825 2.29006 0
M  V30 14560 C 1440.15 -0.790863 1.40007 0
M  V30 14561 O 1441.34 -0.638356 1.62082 0
M  V30 14562 C 1438.48 -1.1439 3.21135 0
M  V30 14563 H 1439.67 0.6422 2.92943 0
M  V30 14564 H 1437.22 0.37124 1.51827 0
M  V30 14565 H 1437.96 -1.9111 2.62007 0
M  V30 14566 H 1437.74 -0.648638 3.86698 0
M  V30 14567 H 1439.23 -1.63848 3.84114 0
M  V30 14568 N 1439.67 -1.53632 0.351409 0
M  V30 14569 C 1441.08 -1.86241 -0.130834 0
M  V30 14570 C 1441.43 -1.27243 -1.49344 0
M  V30 14571 O 1440.56 -0.589006 -2.0823 0
M  V30 14572 C 1441.15 -3.37919 -0.244179 0
M  V30 14573 C 1439.71 -3.70377 -0.670662 0
M  V30 14574 C 1438.86 -2.76643 0.190813 0
M  V30 14575 H 1441.81 -1.48083 0.570724 0
M  V30 14576 H 1441.83 -3.65137 -1.07029 0
M  V30 14577 H 1441.34 -3.8083 0.747688 0
M  V30 14578 H 1439.44 -3.33015 -1.67127 0
M  V30 14579 H 1439.56 -4.76934 -0.455102 0
M  V30 14580 H 1437.92 -2.52446 -0.338092 0
M  V30 14581 H 1438.7 -3.22385 1.17996 0
M  V30 14582 N 1441.15 -0.0802183 -1.57396 0
M  V30 14583 C 1442.4 0.586573 -1.92982 0
M  V30 14584 C 1442.71 1.70256 -0.962918 0
M  V30 14585 O 1443.92 2.4295 -1.21193 0
M  V30 14586 C 1442.37 1.09475 -3.42846 0
M  V30 14587 C 1441.98 0.0093098 -4.47999 0
M  V30 14588 C 1443.72 1.73512 -3.87419 0
M  V30 14589 C 1441.63 0.532002 -5.89002 0
M  V30 14590 H 1440.56 0.222878 -0.720306 0
M  V30 14591 H 1443.21 -0.153816 -1.82854 0
M  V30 14592 H 1441.59 1.88836 -3.48076 0
M  V30 14593 H 1442.77 -0.765609 -4.54395 0
M  V30 14594 H 1441.08 -0.535345 -4.12944 0
M  V30 14595 H 1443.68 2.13665 -4.90154 0
M  V30 14596 H 1444.02 2.59845 -3.25248 0
M  V30 14597 H 1444.56 1.00758 -3.84828 0
M  V30 14598 H 1441.29 -0.294364 -6.54839 0
M  V30 14599 H 1440.81 1.27425 -5.86108 0
M  V30 14600 H 1442.49 1.00573 -6.39135 0
M  V30 14601 N 1442.63 1.56409 0.193394 0
M  V30 14602 C 1443.85 1.8519 0.933775 0
M  V30 14603 C 1444.28 0.663991 1.75991 0
M  V30 14604 O 1443.63 -0.387198 1.77117 0
M  V30 14605 C 1443.68 3.12212 1.80432 0
M  V30 14606 O 1442.79 2.92884 2.90332 0
M  V30 14607 H 1442.13 0.609754 0.262862 0
M  V30 14608 H 1444.66 2.03638 0.198195 0
M  V30 14609 H 1444.67 3.4305 2.20864 0
M  V30 14610 H 1443.34 3.98292 1.19733 0
M  V30 14611 H 1441.92 2.73349 2.53643 0
M  V30 14612 N 1444.1 -0.461169 1.50702 0
M  V30 14613 C 1445.03 -1.56576 1.73223 0
M  V30 14614 C 1446.01 -1.59855 0.581401 0
M  V30 14615 O 1447.2 -1.75964 0.821602 0
M  V30 14616 C 1444.33 -2.94835 1.83548 0
M  V30 14617 C 1443.28 -3.06421 2.98815 0
M  V30 14618 C 1442.61 -4.46425 2.94293 0
M  V30 14619 C 1443.91 -2.82714 4.3917 0
M  V30 14620 H 1445.6 -1.37982 2.65709 0
M  V30 14621 H 1443.15 -0.662362 1.27862 0
M  V30 14622 H 1445.1 -3.72047 1.97887 0
M  V30 14623 H 1443.83 -3.14608 0.876906 0
M  V30 14624 H 1442.49 -2.31644 2.84142 0
M  V30 14625 H 1442.13 -4.63131 1.96262 0
M  V30 14626 H 1441.83 -4.55111 3.71682 0
M  V30 14627 H 1443.36 -5.25644 3.10695 0
M  V30 14628 H 1444.77 -3.4967 4.54317 0
M  V30 14629 H 1443.17 -3.02835 5.18084 0
M  V30 14630 H 1444.24 -1.78492 4.50853 0
M  V30 14631 N 1445.58 -1.40446 -0.715026 0
M  V30 14632 C 1446.53 -1.37235 -1.82073 0
M  V30 14633 C 1447.52 -0.249808 -1.58949 0
M  V30 14634 O 1448.71 -0.488958 -1.70112 0
M  V30 14635 C 1445.84 -1.23786 -3.20206 0
M  V30 14636 C 1444.92 -2.40824 -3.49091 0
M  V30 14637 N 1445.31 -3.66305 -3.4879 0
M  V30 14638 C 1443.61 -2.34215 -3.79551 0
M  V30 14639 C 1444.31 -4.43817 -3.76034 0
M  V30 14640 N 1443.29 -3.73664 -3.94811 0
M  V30 14641 H 1447.09 -2.32195 -1.80174 0
M  V30 14642 H 1444.6 -1.34226 -0.914175 0
M  V30 14643 H 1446.6 -1.19568 -3.99386 0
M  V30 14644 H 1445.26 -0.297938 -3.2333 0
M  V30 14645 H 1446.27 -3.99458 -3.29626 0
M  V30 14646 H 1442.95 -1.48592 -3.90162 0
M  V30 14647 H 1444.34 -5.52674 -3.82101 0
M  V30 14648 N 1447.06 0.947303 -1.25952 0
M  V30 14649 C 1448.31 1.6953 -1.11299 0
M  V30 14650 C 1448.64 1.9113 0.343961 0
M  V30 14651 O 1447.91 1.48755 1.25309 0
M  V30 14652 C 1448.2 3.0738 -1.87588 0
M  V30 14653 C 1448.05 2.93145 -3.41154 0
M  V30 14654 C 1449.37 4.07396 -1.66483 0
M  V30 14655 H 1446.49 0.615281 -0.405707 0
M  V30 14656 H 1449.13 1.10064 -1.54874 0
M  V30 14657 H 1447.28 3.58143 -1.50553 0
M  V30 14658 H 1448.95 2.49651 -3.87907 0
M  V30 14659 H 1447.19 2.28902 -3.68492 0
M  V30 14660 H 1447.87 3.9089 -3.89755 0
M  V30 14661 H 1450.34 3.65572 -1.98738 0
M  V30 14662 H 1449.22 5.01876 -2.22287 0
M  V30 14663 H 1449.48 4.379 -0.607916 0
M  V30 14664 N 1448.54 1.07657 1.15099 0
M  V30 14665 C 1449.76 0.82291 1.90376 0
M  V30 14666 C 1450.19 -0.618415 1.77644 0
M  V30 14667 O 1449.55 -1.43248 1.11129 0
M  V30 14668 C 1449.59 1.23988 3.38614 0
M  V30 14669 O 1448.7 0.387085 4.10579 0
M  V30 14670 H 1448.04 0.299532 0.592602 0
M  V30 14671 H 1450.57 1.436 1.4574 0
M  V30 14672 H 1450.58 1.21741 3.89414 0
M  V30 14673 H 1449.25 2.28966 3.472 0
M  V30 14674 H 1447.83 0.472311 3.69897 0
M  V30 14675 N 1450.02 -1.31994 0.861122 0
M  V30 14676 C 1451.25 -2.00919 0.481167 0
M  V30 14677 C 1451.65 -1.64851 -0.928488 0
M  V30 14678 O 1451 -0.86916 -1.61837 0
M  V30 14679 C 1451.06 -3.55297 0.548091 0
M  V30 14680 C 1450.72 -4.14813 1.91779 0
M  V30 14681 C 1451.72 -4.32567 2.88412 0
M  V30 14682 C 1449.41 -4.50742 2.21669 0
M  V30 14683 C 1451.4 -4.85428 4.13084 0
M  V30 14684 C 1449.09 -5.03306 3.46593 0
M  V30 14685 C 1450.08 -5.20598 4.42116 0
M  V30 14686 O 1449.77 -5.72037 5.64827 0
M  V30 14687 H 1449.5 -0.649663 0.186853 0
M  V30 14688 H 1452.06 -1.69401 1.16157 0
M  V30 14689 H 1450.29 -3.86237 -0.18919 0
M  V30 14690 H 1451.98 -4.05488 0.182821 0
M  V30 14691 H 1452.74 -4.05137 2.66625 0
M  V30 14692 H 1448.62 -4.36563 1.48099 0
M  V30 14693 H 1452.17 -4.98841 4.87651 0
M  V30 14694 H 1448.06 -5.30169 3.68227 0
M  V30 14695 H 1448.83 -5.9042 5.66875 0
M  V30 14696 N 1451.49 -0.619688 -1.44906 0
M  V30 14697 C 1452.46 0.0822364 -2.29052 0
M  V30 14698 C 1453.46 0.783427 -1.40425 0
M  V30 14699 O 1454.65 0.629751 -1.62419 0
M  V30 14700 C 1451.78 1.12685 -3.21737 0
M  V30 14701 H 1452.97 -0.657726 -2.92599 0
M  V30 14702 H 1450.53 -0.379286 -1.51628 0
M  V30 14703 H 1451.26 1.89717 -2.63017 0
M  V30 14704 H 1451.05 0.628122 -3.87036 0
M  V30 14705 H 1452.54 1.61808 -3.84978 0
M  V30 14706 N 1452.97 1.53444 -0.359552 0
M  V30 14707 C 1454.38 1.86308 0.120955 0
M  V30 14708 C 1454.73 1.28033 1.48667 0
M  V30 14709 O 1453.86 0.600041 2.07915 0
M  V30 14710 C 1454.45 3.38044 0.226255 0
M  V30 14711 C 1453.01 3.70727 0.65101 0
M  V30 14712 C 1452.16 2.76538 -0.205482 0
M  V30 14713 H 1455.11 1.47778 -0.578569 0
M  V30 14714 H 1455.13 3.65699 1.05092 0
M  V30 14715 H 1454.64 3.80428 -0.767874 0
M  V30 14716 H 1452.75 3.33897 1.65359 0
M  V30 14717 H 1452.86 4.77168 0.429802 0
M  V30 14718 H 1451.22 2.52622 0.3247 0
M  V30 14719 H 1452.01 3.21754 -1.19704 0
M  V30 14720 N 1454.45 0.0885642 1.57351 0
M  V30 14721 C 1455.87 -0.268088 1.57332 0
M  V30 14722 C 1456.07 -1.68875 1.09924 0
M  V30 14723 O 1455.12 -2.40385 0.772729 0
M  V30 14724 C 1456.44 -0.0624654 3.00635 0
M  V30 14725 C 1457.98 -0.130717 3.12727 0
M  V30 14726 C 1458.46 0.0468305 4.57976 0
M  V30 14727 N 1459.95 -0.00822093 4.63199 0
M  V30 14728 C 1460.68 0.104497 5.73305 0
M  V30 14729 N 1460.18 0.271682 6.92267 0
M  V30 14730 N 1461.97 0.0462333 5.62081 0
M  V30 14731 H 1454.12 1.01686 1.86477 0
M  V30 14732 H 1456.39 0.397971 0.86042 0
M  V30 14733 H 1456.09 0.918505 3.39494 0
M  V30 14734 H 1455.97 -0.807602 3.68453 0
M  V30 14735 H 1458.35 -1.10219 2.73744 0
M  V30 14736 H 1458.44 0.645801 2.47514 0
M  V30 14737 H 1458.08 1.01514 4.97652 0
M  V30 14738 H 1458.01 -0.7493 5.21242 0
M  V30 14739 H 1460.5 -0.135164 3.77658 0
M  V30 14740 H 1460.81 0.349381 7.7201 0
M  V30 14741 H 1459.16 0.307265 6.9432 0
M  V30 14742 H 1462.35 -0.0831995 4.68026 0
M  V30 14743 H 1462.52 0.137529 6.47854 0
M  V30 14744 N 1455.93 -1.56509 -0.185096 0
M  V30 14745 C 1456.88 -1.91742 -1.23366 0
M  V30 14746 C 1457.86 -0.784182 -1.40497 0
M  V30 14747 O 1459.05 -1.04718 -1.42699 0
M  V30 14748 C 1456.18 -2.26903 -2.57624 0
M  V30 14749 C 1455.27 -3.46707 -2.44244 0
M  V30 14750 N 1455.66 -4.64338 -2.00558 0
M  V30 14751 C 1453.96 -3.51042 -2.7511 0
M  V30 14752 C 1454.66 -5.46489 -1.9931 0
M  V30 14753 N 1453.64 -4.87162 -2.41193 0
M  V30 14754 H 1457.44 -2.80184 -0.887378 0
M  V30 14755 H 1454.95 -1.57561 -0.393468 0
M  V30 14756 H 1456.95 -2.50332 -3.33376 0
M  V30 14757 H 1455.61 -1.39792 -2.93067 0
M  V30 14758 H 1456.62 -4.88817 -1.7111 0
M  V30 14759 H 1453.3 -2.74375 -3.14682 0
M  V30 14760 H 1454.69 -6.50726 -1.67349 0
M  V30 14761 N 1457.41 0.45317 -1.50944 0
M  V30 14762 C 1458.65 1.20568 -1.63068 0
M  V30 14763 C 1458.99 1.91229 -0.338375 0
M  V30 14764 O 1458.26 1.82916 0.661207 0
M  V30 14765 C 1458.54 2.23522 -2.8233 0
M  V30 14766 C 1458.4 1.57047 -4.21493 0
M  V30 14767 C 1459.72 3.24663 -2.97123 0
M  V30 14768 H 1456.83 0.436971 -0.593486 0
M  V30 14769 H 1459.48 0.497008 -1.83384 0
M  V30 14770 H 1457.63 2.83961 -2.65139 0
M  V30 14771 H 1459.3 1.00067 -4.50316 0
M  V30 14772 H 1457.54 0.873143 -4.24922 0
M  V30 14773 H 1458.21 2.31949 -5.00903 0
M  V30 14774 H 1460.69 2.74264 -3.12919 0
M  V30 14775 H 1459.56 3.9401 -3.82161 0
M  V30 14776 H 1459.83 3.89843 -2.08506 0
M  V30 14777 N 1458.88 1.40823 0.707568 0
M  V30 14778 C 1460.11 1.42866 1.49656 0
M  V30 14779 C 1460.53 0.0305663 1.88775 0
M  V30 14780 O 1459.88 -0.947376 1.55984 0
M  V30 14781 C 1459.94 2.32661 2.76679 0
M  V30 14782 O 1459.66 3.67028 2.39211 0
M  V30 14783 C 1461.16 2.4338 3.70514 0
M  V30 14784 H 1458.38 0.487009 0.461588 0
M  V30 14785 H 1460.92 1.84969 0.872167 0
M  V30 14786 H 1459.08 1.93898 3.35384 0
M  V30 14787 H 1459.49 4.14799 3.21002 0
M  V30 14788 H 1460.96 3.10401 4.56459 0
M  V30 14789 H 1461.44 1.46132 4.14176 0
M  V30 14790 H 1462.05 2.82728 3.17718 0
M  V30 14791 N 1460.36 -0.94061 1.26453 0
M  V30 14792 C 1461.29 -2.05667 1.10559 0
M  V30 14793 C 1462.27 -1.70097 0.0106258 0
M  V30 14794 O 1463.46 -1.93338 0.182756 0
M  V30 14795 C 1460.59 -3.3936 0.7384 0
M  V30 14796 C 1459.54 -3.88993 1.78517 0
M  V30 14797 C 1458.87 -5.19343 1.27228 0
M  V30 14798 C 1460.17 -4.13812 3.1868 0
M  V30 14799 H 1461.86 -2.19221 2.03918 0
M  V30 14800 H 1459.41 -1.05339 0.98182 0
M  V30 14801 H 1461.36 -4.16902 0.61409 0
M  V30 14802 H 1460.09 -3.25783 -0.230887 0
M  V30 14803 H 1458.74 -3.13633 1.89816 0
M  V30 14804 H 1458.39 -5.02147 0.292816 0
M  V30 14805 H 1458.09 -5.53521 1.97201 0
M  V30 14806 H 1459.62 -5.99468 1.16065 0
M  V30 14807 H 1461.03 -4.81966 3.10455 0
M  V30 14808 H 1459.43 -4.59273 3.86249 0
M  V30 14809 H 1460.5 -3.19571 3.64695 0
M  V30 14810 N 1461.84 -1.08266 -1.14527 0
M  V30 14811 C 1463.07 -0.83288 -1.89396 0
M  V30 14812 C 1463.48 0.614823 -1.78509 0
M  V30 14813 O 1462.84 1.42239 -1.14343 0
M  V30 14814 C 1462.89 -1.244 -3.39421 0
M  V30 14815 O 1462.61 -2.63491 -3.50006 0
M  V30 14816 C 1464.11 -1.02488 -4.3129 0
M  V30 14817 H 1461.33 -0.300474 -0.599964 0
M  V30 14818 H 1463.88 -1.44155 -1.4505 0
M  V30 14819 H 1462.03 -0.679466 -3.81395 0
M  V30 14820 H 1462.45 -2.80517 -4.43182 0
M  V30 14821 H 1463.92 -1.36194 -5.34935 0
M  V30 14822 H 1464.4 0.0381961 -4.39183 0
M  V30 14823 H 1465 -1.57477 -3.95071 0
M  V30 14824 N 1463.32 1.31536 -0.86811 0
M  V30 14825 C 1464.55 2.00952 -0.492529 0
M  V30 14826 C 1464.96 1.65174 0.914487 0
M  V30 14827 O 1464.32 0.880002 1.59882 0
M  V30 14828 C 1464.37 3.55829 -0.637798 0
M  V30 14829 O 1464.09 3.90326 -1.9894 0
M  V30 14830 C 1465.59 4.42519 -0.262986 0
M  V30 14831 H 1462.81 0.642913 -0.192105 0
M  V30 14832 H 1465.36 1.6781 -1.16876 0
M  V30 14833 H 1463.51 3.87399 -0.0091406 0
M  V30 14834 H 1463.93 4.85043 -1.99583 0
M  V30 14835 H 1465.4 5.50433 -0.415591 0
M  V30 14836 H 1465.88 4.31895 0.797705 0
M  V30 14837 H 1466.48 4.16363 -0.867268 0
M  V30 14838 N 1464.8 0.627364 1.44575 0
M  V30 14839 C 1465.73 -0.066735 2.33405 0
M  V30 14840 C 1466.71 -0.838666 1.47988 0
M  V30 14841 O 1467.89 -0.805296 1.76716 0
M  V30 14842 C 1465.02 -1.05148 3.31 0
M  V30 14843 C 1463.98 -0.391433 4.26206 0
M  V30 14844 C 1463.3 -1.48581 5.13642 0
M  V30 14845 C 1464.6 0.699942 5.17589 0
M  V30 14846 H 1466.3 0.675029 2.91691 0
M  V30 14847 H 1463.84 0.326066 1.4026 0
M  V30 14848 H 1465.8 -1.54576 3.92026 0
M  V30 14849 H 1464.52 -1.82408 2.70915 0
M  V30 14850 H 1463.18 0.0821694 3.66508 0
M  V30 14851 H 1462.83 -2.2492 4.49911 0
M  V30 14852 H 1462.53 -1.04957 5.7815 0
M  V30 14853 H 1464.05 -1.98198 5.77538 0
M  V30 14854 H 1465.47 0.288911 5.72572 0
M  V30 14855 H 1463.86 1.0591 5.9068 0
M  V30 14856 H 1464.93 1.5686 4.58828 0
M  V30 14857 N 1466.28 -1.53251 0.367684 0
M  V30 14858 C 1467.21 -2.22163 -0.521418 0
M  V30 14859 C 1468.19 -1.21433 -1.08133 0
M  V30 14860 O 1469.37 -1.50343 -1.13706 0
M  V30 14861 C 1466.5 -2.91799 -1.71962 0
M  V30 14862 C 1465.54 -4.0662 -1.28696 0
M  V30 14863 S 1466.38 -5.34733 -0.286505 0
M  V30 14864 C 1467.53 -6.07882 -1.49099 0
M  V30 14865 H 1467.77 -2.97231 0.0638317 0
M  V30 14866 H 1465.3 -1.53652 0.151795 0
M  V30 14867 H 1467.26 -3.32533 -2.40691 0
M  V30 14868 H 1465.92 -2.16451 -2.27613 0
M  V30 14869 H 1465.11 -4.54366 -2.181 0
M  V30 14870 H 1464.71 -3.67787 -0.67887 0
M  V30 14871 H 1467 -6.32741 -2.42167 0
M  V30 14872 H 1467.95 -7.00199 -1.05487 0
M  V30 14873 H 1468.36 -5.38357 -1.698 0
M  V30 14874 N 1467.75 -0.0969077 -1.57302 0
M  V30 14875 C 1469.03 0.608737 -1.85886 0
M  V30 14876 C 1469.41 1.86228 -0.994096 0
M  V30 14877 O 1468.76 2.28402 -0.0669975 0
M  V30 14878 C 1468.97 0.922385 -3.3659 0
M  V30 14879 C 1470.32 1.28505 -4.04687 0
M  V30 14880 O 1471.34 1.01334 -3.41482 0
M  V30 14881 O 1470.2 1.794 -5.16215 0
M  V30 14882 H 1467.29 0.304808 -0.768779 0
M  V30 14883 H 1469.84 -0.129742 -1.69203 0
M  V30 14884 H 1468.61 0.0331488 -3.91286 0
M  V30 14885 H 1468.23 1.71678 -3.58626 0
M  V30 14886 N 1469.23 1.56605 0.176793 0
M  V30 14887 C 1470.46 1.85812 0.910019 0
M  V30 14888 C 1470.87 0.68164 1.76066 0
M  V30 14889 O 1470.23 -0.34936 1.79125 0
M  V30 14890 C 1470.28 3.14001 1.79125 0
M  V30 14891 O 1470 4.27114 0.974931 0
M  V30 14892 C 1471.5 3.56516 2.6346 0
M  V30 14893 H 1468.72 0.616608 0.264643 0
M  V30 14894 H 1471.27 2.03719 0.178537 0
M  V30 14895 H 1469.42 2.97937 2.47613 0
M  V30 14896 H 1469.84 5.00227 1.57711 0
M  V30 14897 H 1471.31 4.49128 3.20918 0
M  V30 14898 H 1471.79 2.80373 3.38065 0
M  V30 14899 H 1472.39 3.75173 2.00313 0
M  V30 14900 N 1470.71 -0.445159 1.51182 0
M  V30 14901 C 1471.96 -1.19288 1.6314 0
M  V30 14902 C 1472.28 -1.91904 0.346109 0
M  V30 14903 O 1471.55 -1.8523 -0.637695 0
M  V30 14904 H 1470.13 -0.443319 0.601229 0
M  V30 14905 H 1472.79 -0.511136 1.88078 0
M  V30 14906 H 1471.89 -1.92672 2.45528 0
M  V30 14907 N 1472.19 -1.41197 -0.700089 0
M  V30 14908 C 1473.6 -1.3593 -1.27985 0
M  V30 14909 C 1473.95 -0.0402059 -1.96159 0
M  V30 14910 O 1473.07 0.861611 -1.98508 0
M  V30 14911 C 1473.67 -2.46203 -2.32743 0
M  V30 14912 C 1472.23 -2.44348 -2.86306 0
M  V30 14913 C 1471.38 -2.26283 -1.60285 0
M  V30 14914 H 1474.33 -1.50778 -0.495152 0
M  V30 14915 H 1474.35 -2.15001 -3.13934 0
M  V30 14916 H 1473.86 -3.42195 -1.83096 0
M  V30 14917 H 1471.96 -1.521 -3.40142 0
M  V30 14918 H 1472.07 -3.40497 -3.37044 0
M  V30 14919 H 1470.44 -1.74078 -1.85928 0
M  V30 14920 H 1471.22 -3.24295 -1.1264 0
M  V30 14921 N 1473.67 0.933891 -1.2695 0
M  V30 14922 C 1474.91 1.67759 -1.12701 0
M  V30 14923 C 1475.23 1.92207 0.328848 0
M  V30 14924 O 1474.5 1.52394 1.23097 0
M  V30 14925 H 1473.08 0.621729 -0.41408 0
M  V30 14926 H 1475.75 1.1217 -1.59386 0
M  V30 14927 H 1474.84 2.64834 -1.65135 0
M  V30 14928 N 1475.14 1.08871 1.13951 0
M  V30 14929 C 1476.56 0.817282 1.37086 0
M  V30 14930 C 1476.76 -0.571159 1.93236 0
M  V30 14931 O 1475.82 -1.32708 2.14813 0
M  V30 14932 C 1477.13 1.90386 2.32752 0
M  V30 14933 C 1478.68 1.93043 2.46381 0
M  V30 14934 C 1479.15 3.00828 3.4535 0
M  V30 14935 N 1480.64 3.0003 3.52897 0
M  V30 14936 C 1481.38 3.80073 4.29339 0
M  V30 14937 N 1480.87 4.70008 5.08984 0
M  V30 14938 N 1482.67 3.68355 4.24583 0
M  V30 14939 H 1474.82 1.98393 0.758537 0
M  V30 14940 H 1477.08 0.861229 0.396219 0
M  V30 14941 H 1476.79 2.90233 1.9864 0
M  V30 14942 H 1476.66 1.77722 3.32708 0
M  V30 14943 H 1479.05 0.938382 2.79783 0
M  V30 14944 H 1479.13 2.09785 1.4637 0
M  V30 14945 H 1478.77 4.00242 3.1268 0
M  V30 14946 H 1478.7 2.8133 4.45153 0
M  V30 14947 H 1481.19 2.3485 2.96064 0
M  V30 14948 H 1481.51 5.27678 5.64602 0
M  V30 14949 H 1479.85 4.74047 5.08236 0
M  V30 14950 H 1483.04 2.9746 3.61435 0
M  V30 14951 H 1483.22 4.30974 4.83906 0
M  V30 14952 N 1476.62 -1.31073 0.875073 0
M  V30 14953 C 1477.55 -2.30855 0.350468 0
M  V30 14954 C 1478.53 -1.60569 -0.561384 0
M  V30 14955 O 1479.72 -1.88242 -0.477329 0
M  V30 14956 C 1476.85 -3.44444 -0.444493 0
M  V30 14957 C 1475.8 -4.26357 0.374716 0
M  V30 14958 C 1475.13 -5.31903 -0.546243 0
M  V30 14959 C 1476.43 -4.96817 1.61153 0
M  V30 14960 H 1478.12 -2.74983 1.18427 0
M  V30 14961 H 1475.67 -1.32199 0.570909 0
M  V30 14962 H 1477.62 -4.13304 -0.82206 0
M  V30 14963 H 1476.34 -2.99096 -1.31185 0
M  V30 14964 H 1475 -3.59171 0.734295 0
M  V30 14965 H 1474.65 -4.82803 -1.41102 0
M  V30 14966 H 1474.35 -5.876 -0.00198173 0
M  V30 14967 H 1475.88 -6.03621 -0.920542 0
M  V30 14968 H 1477.29 -5.58247 1.30511 0
M  V30 14969 H 1475.69 -5.62334 2.09524 0
M  V30 14970 H 1476.76 -4.2351 2.36151 0
M  V30 14971 N 1478.1 -0.635022 -1.4424 0
M  V30 14972 C 1479.35 -0.140788 -2.01609 0
M  V30 14973 C 1479.67 1.24317 -1.50234 0
M  V30 14974 O 1478.94 1.82677 -0.707519 0
M  V30 14975 H 1477.52 -0.0490568 -0.745387 0
M  V30 14976 H 1480.18 -0.8226 -1.7669 0
M  V30 14977 H 1479.28 -0.111456 -3.11901 0
M  V30 14978 N 1479.58 1.53054 -0.375806 0
M  V30 14979 C 1480.51 2.28973 0.45754 0
M  V30 14980 C 1481.49 1.31812 1.07516 0
M  V30 14981 O 1482.67 1.60693 1.09048 0
M  V30 14982 C 1479.8 3.08657 1.59212 0
M  V30 14983 C 1478.76 4.1359 1.10123 0
M  V30 14984 C 1478.08 4.81417 2.32684 0
M  V30 14985 C 1479.38 5.21994 0.17872 0
M  V30 14986 H 1481.08 2.98883 -0.175872 0
M  V30 14987 H 1478.62 1.43743 -0.0860253 0
M  V30 14988 H 1480.58 3.6052 2.18182 0
M  V30 14989 H 1479.3 2.36456 2.25291 0
M  V30 14990 H 1477.96 3.62688 0.534151 0
M  V30 14991 H 1477.61 4.05778 2.97243 0
M  V30 14992 H 1477.31 5.52332 2.00506 0
M  V30 14993 H 1478.83 5.36079 2.92322 0
M  V30 14994 H 1480.25 5.69298 0.676204 0
M  V30 14995 H 1478.64 6.00077 -0.0526605 0
M  V30 14996 H 1479.71 4.78646 -0.776246 0
M  V30 14997 N 1481.06 0.105248 1.57248 0
M  V30 14998 C 1481.99 -0.846915 2.176 0
M  V30 14999 C 1482.97 -1.28706 1.11216 0
M  V30 15000 O 1484.15 -1.35213 1.39396 0
M  V30 15001 C 1481.28 -2.10228 2.76445 0
M  V30 15002 C 1480.24 -1.80041 3.8829 0
M  V30 15003 C 1479.56 -3.12491 4.33882 0
M  V30 15004 C 1480.86 -1.07943 5.11024 0
M  V30 15005 H 1482.56 -0.344052 2.97417 0
M  V30 15006 H 1480.1 -0.164045 1.43063 0
M  V30 15007 H 1482.06 -2.77284 3.17319 0
M  V30 15008 H 1480.78 -2.62815 1.93897 0
M  V30 15009 H 1479.44 -1.15379 3.4797 0
M  V30 15010 H 1479.09 -3.62985 3.48211 0
M  V30 15011 H 1478.79 -2.93072 5.09296 0
M  V30 15012 H 1480.31 -3.80688 4.77398 0
M  V30 15013 H 1481.72 -1.65127 5.49004 0
M  V30 15014 H 1480.12 -0.986674 5.91933 0
M  V30 15015 H 1481.19 -0.0638511 4.84858 0
M  V30 15016 N 1482.53 -1.56697 -0.168486 0
M  V30 15017 C 1483.46 -1.99659 -1.21073 0
M  V30 15018 C 1484.45 -0.872625 -1.46011 0
M  V30 15019 O 1485.63 -1.13891 -1.57297 0
M  V30 15020 C 1482.76 -2.35889 -2.54899 0
M  V30 15021 C 1481.71 -3.51272 -2.44524 0
M  V30 15022 C 1481.04 -3.73253 -3.82866 0
M  V30 15023 C 1482.34 -4.84631 -1.94756 0
M  V30 15024 H 1484.03 -2.86974 -0.853593 0
M  V30 15025 H 1481.58 -1.38065 -0.409165 0
M  V30 15026 H 1483.53 -2.64542 -3.28017 0
M  V30 15027 H 1482.26 -1.45486 -2.92406 0
M  V30 15028 H 1480.92 -3.22751 -1.7386 0
M  V30 15029 H 1480.56 -2.80136 -4.17772 0
M  V30 15030 H 1480.26 -4.5089 -3.76792 0
M  V30 15031 H 1481.79 -4.04309 -4.57566 0
M  V30 15032 H 1483.2 -5.12142 -2.5765 0
M  V30 15033 H 1481.6 -5.65925 -1.99623 0
M  V30 15034 H 1482.67 -4.76436 -0.902021 0
M  V30 15035 N 1484.01 0.437135 -1.51416 0
M  V30 15036 C 1485.25 1.19603 -1.65754 0
M  V30 15037 C 1485.62 1.88481 -0.365891 0
M  V30 15038 O 1486.82 2.66028 -0.385046 0
M  V30 15039 C 1485.09 2.18579 -2.82769 0
M  V30 15040 S 1486.65 3.02952 -3.17436 0
M  V30 15041 H 1483.47 0.405591 -0.583966 0
M  V30 15042 H 1486.07 0.487568 -1.89323 0
M  V30 15043 H 1484.77 1.66616 -3.75056 0
M  V30 15044 H 1484.3 2.94005 -2.6139 0
M  V30 15045 H 1486.32 4.20213 -2.63886 0
M  V30 15046 N 1485.49 1.41566 0.692592 0
M  V30 15047 C 1486.91 1.24101 1.00355 0
M  V30 15048 C 1487.11 0.132485 2.01064 0
M  V30 15049 O 1486.16 -0.502142 2.47457 0
M  V30 15050 C 1487.48 2.59142 1.52532 0
M  V30 15051 C 1489.02 2.66348 1.64401 0
M  V30 15052 C 1489.5 4.01713 2.19978 0
M  V30 15053 N 1490.99 4.03575 2.27335 0
M  V30 15054 C 1491.72 5.05118 2.71373 0
M  V30 15055 N 1491.22 6.1705 3.14994 0
M  V30 15056 N 1493.01 4.92479 2.70963 0
M  V30 15057 H 1485.16 2.12385 0.0254859 0
M  V30 15058 H 1487.43 0.945118 0.0738684 0
M  V30 15059 H 1487.13 3.41026 0.85989 0
M  V30 15060 H 1487.01 2.81833 2.50699 0
M  V30 15061 H 1489.39 1.84821 2.30055 0
M  V30 15062 H 1489.48 2.47464 0.647717 0
M  V30 15063 H 1489.12 4.8369 1.54939 0
M  V30 15064 H 1489.05 4.1794 3.20365 0
M  V30 15065 H 1491.54 3.2276 1.96556 0
M  V30 15066 H 1491.85 6.90399 3.47231 0
M  V30 15067 H 1490.2 6.20582 3.12895 0
M  V30 15068 H 1493.39 4.04117 2.36236 0
M  V30 15069 H 1493.56 5.71752 3.04965 0
M  V30 15070 N 1486.97 -0.927146 1.27443 0
M  V30 15071 C 1488.21 -1.67738 1.13982 0
M  V30 15072 C 1488.55 -1.91653 -0.313511 0
M  V30 15073 O 1487.82 -1.50729 -1.22926 0
M  V30 15074 C 1488.11 -3.04357 1.92454 0
M  V30 15075 C 1487.96 -2.8768 3.45775 0
M  V30 15076 C 1489.28 -4.04696 1.72944 0
M  V30 15077 H 1486.4 -0.608749 0.415444 0
M  V30 15078 H 1489.04 -1.07587 1.56605 0
M  V30 15079 H 1487.19 -3.55702 1.56232 0
M  V30 15080 H 1488.86 -2.43449 3.9183 0
M  V30 15081 H 1487.1 -2.23011 3.72087 0
M  V30 15082 H 1487.77 -3.8464 3.95924 0
M  V30 15083 H 1490.25 -3.62364 2.04528 0
M  V30 15084 H 1489.13 -4.98276 2.30243 0
M  V30 15085 H 1489.39 -4.36878 0.677505 0
M  V30 15086 N 1488.45 -1.09474 -1.13372 0
M  V30 15087 C 1489.72 -0.743485 -1.80919 0
M  V30 15088 C 1490.1 0.771414 -1.965 0
M  V30 15089 O 1489.45 1.694 -1.53349 0
M  V30 15090 C 1489.66 -1.48309 -3.1592 0
M  V30 15091 C 1491.01 -1.64921 -3.91263 0
M  V30 15092 O 1492.03 -1.44564 -3.25545 0
M  V30 15093 O 1490.89 -1.98595 -5.09139 0
M  V30 15094 H 1487.99 -0.26713 -0.782669 0
M  V30 15095 H 1490.53 -1.19697 -1.20294 0
M  V30 15096 H 1489.3 -2.51456 -2.99809 0
M  V30 15097 H 1488.93 -1.02181 -3.84246 0
M  V30 15098 N 1489.92 1.30607 -0.882012 0
M  V30 15099 C 1491.15 2.00954 -0.513048 0
M  V30 15100 C 1491.57 1.65697 0.890279 0
M  V30 15101 O 1490.93 0.872001 1.58952 0
M  V30 15102 C 1490.98 3.53907 -0.691525 0
M  V30 15103 O 1490.08 4.11555 0.263896 0
M  V30 15104 H 1489.43 0.632356 -0.202537 0
M  V30 15105 H 1491.96 1.66524 -1.18874 0
M  V30 15106 H 1491.97 4.0372 -0.589392 0
M  V30 15107 H 1490.64 3.78907 -1.71471 0
M  V30 15108 H 1489.22 3.7272 0.115707 0
M  V30 15109 N 1491.4 0.642663 1.43901 0
M  V30 15110 C 1492.68 0.0821715 1.95427 0
M  V30 15111 C 1493.06 -1.3951 1.58431 0
M  V30 15112 O 1492.41 -2.11531 0.864118 0
M  V30 15113 C 1492.62 0.317229 3.47555 0
M  V30 15114 C 1493.97 0.216547 4.24047 0
M  V30 15115 O 1494.99 0.249216 3.55327 0
M  V30 15116 O 1493.85 0.131269 5.46342 0
M  V30 15117 H 1490.94 -0.0156936 0.826851 0
M  V30 15118 H 1493.49 0.715168 1.53894 0
M  V30 15119 H 1492.26 1.34184 3.67574 0
M  V30 15120 H 1491.88 -0.349348 3.96062 0
M  V30 15121 N 1492.88 -1.52852 0.383918 0
M  V30 15122 C 1494.29 -1.86477 -0.0912997 0
M  V30 15123 C 1494.64 -1.30382 -1.46611 0
M  V30 15124 O 1493.77 -0.633042 -2.06934 0
M  V30 15125 C 1494.36 -3.38361 -0.172447 0
M  V30 15126 C 1492.92 -3.71716 -0.591948 0
M  V30 15127 C 1492.07 -2.76176 0.24945 0
M  V30 15128 H 1495.02 -1.46839 0.602006 0
M  V30 15129 H 1495.04 -3.67325 -0.992603 0
M  V30 15130 H 1494.55 -3.79158 0.8283 0
M  V30 15131 H 1492.65 -3.36486 -1.60026 0
M  V30 15132 H 1492.77 -4.77792 -0.353835 0
M  V30 15133 H 1491.13 -2.53106 -0.284469 0
M  V30 15134 H 1491.91 -3.19809 1.24808 0
M  V30 15135 N 1494.36 -0.113586 -1.5719 0
M  V30 15136 C 1495.77 0.412653 -1.82083 0
M  V30 15137 C 1496.12 1.66964 -1.03041 0
M  V30 15138 O 1495.25 2.14767 -0.265354 0
M  V30 15139 C 1495.84 0.755439 -3.3027 0
M  V30 15140 C 1494.4 1.22634 -3.55862 0
M  V30 15141 C 1493.55 0.232285 -2.76325 0
M  V30 15142 H 1496.5 -0.338792 -1.55042 0
M  V30 15143 H 1496.52 1.61335 -3.44603 0
M  V30 15144 H 1496.03 -0.1596 -3.87772 0
M  V30 15145 H 1494.13 2.15846 -3.03713 0
M  V30 15146 H 1494.25 1.1754 -4.64458 0
M  V30 15147 H 1492.61 0.718222 -2.44364 0
M  V30 15148 H 1493.39 -0.675756 -3.36583 0
M  V30 15149 N 1495.84 1.56784 0.160173 0
M  V30 15150 C 1496.8 1.96373 1.18195 0
M  V30 15151 C 1497.8 0.848674 1.3658 0
M  V30 15152 O 1498.99 1.11553 1.33796 0
M  V30 15153 C 1496.12 2.26824 2.54487 0
M  V30 15154 H 1497.32 2.87819 0.842641 0
M  V30 15155 H 1494.87 1.51014 0.403038 0
M  V30 15156 H 1495.6 1.38129 2.93413 0
M  V30 15157 H 1495.39 3.08112 2.42507 0
M  V30 15158 H 1496.88 2.58337 3.28104 0
M  V30 15159 N 1497.32 -0.429099 1.51646 0
M  V30 15160 C 1498.25 -1.53996 1.69758 0
M  V30 15161 C 1499.26 -1.52189 0.578138 0
M  V30 15162 O 1500.45 -1.56816 0.852709 0
M  V30 15163 C 1497.55 -2.9291 1.7046 0
M  V30 15164 C 1496.72 -3.19132 2.99122 0
M  V30 15165 C 1495.78 -4.37813 2.91901 0
M  V30 15166 O 1494.81 -4.36065 3.65836 0
M  V30 15167 N 1496.01 -5.41834 2.08317 0
M  V30 15168 H 1498.77 -1.38861 2.65589 0
M  V30 15169 H 1496.34 -0.618148 1.49635 0
M  V30 15170 H 1498.33 -3.7034 1.63187 0
M  V30 15171 H 1496.9 -3.01602 0.821877 0
M  V30 15172 H 1496.12 -2.29926 3.20199 0
M  V30 15173 H 1497.41 -3.33483 3.84274 0
M  V30 15174 H 1496.8 -5.46094 1.4764 0
M  V30 15175 H 1495.36 -6.18085 2.06917 0
M  V30 15176 N 1498.79 -1.41931 -0.685074 0
M  V30 15177 C 1499.72 -1.47385 -1.81107 0
M  V30 15178 C 1500.7 -0.331433 -1.6684 0
M  V30 15179 O 1501.89 -0.544331 -1.86415 0
M  V30 15180 C 1499.02 -1.36555 -3.19327 0
M  V30 15181 C 1497.97 -2.48718 -3.48315 0
M  V30 15182 C 1497.3 -2.2295 -4.86002 0
M  V30 15183 C 1498.6 -3.91047 -3.46237 0
M  V30 15184 H 1500.29 -2.41624 -1.768 0
M  V30 15185 H 1497.84 -1.16297 -0.849178 0
M  V30 15186 H 1499.79 -1.38981 -3.97822 0
M  V30 15187 H 1498.52 -0.388063 -3.24286 0
M  V30 15188 H 1497.18 -2.45592 -2.72176 0
M  V30 15189 H 1496.82 -1.23518 -4.87598 0
M  V30 15190 H 1496.52 -2.98116 -5.0636 0
M  V30 15191 H 1498.05 -2.27108 -5.66793 0
M  V30 15192 H 1499.46 -3.95831 -4.14718 0
M  V30 15193 H 1497.86 -4.65981 -3.7813 0
M  V30 15194 H 1498.93 -4.1845 -2.45006 0
M  V30 15195 N 1500.27 0.920374 -1.27933 0
M  V30 15196 C 1501.69 1.19761 -1.05496 0
M  V30 15197 C 1501.89 2.00435 0.206864 0
M  V30 15198 O 1500.94 2.35518 0.910356 0
M  V30 15199 C 1502.26 1.93863 -2.29864 0
M  V30 15200 C 1503.8 2.06773 -2.34976 0
M  V30 15201 C 1504.28 2.84282 -3.59093 0
M  V30 15202 N 1505.77 2.91847 -3.59694 0
M  V30 15203 C 1506.51 3.52303 -4.52404 0
M  V30 15204 N 1506 4.14092 -5.55427 0
M  V30 15205 N 1507.79 3.49778 -4.40013 0
M  V30 15206 H 1499.95 0.381596 -2.08944 0
M  V30 15207 H 1502.21 0.231451 -0.919312 0
M  V30 15208 H 1501.91 1.42008 -3.21756 0
M  V30 15209 H 1501.79 2.94446 -2.35757 0
M  V30 15210 H 1504.18 2.57812 -1.43586 0
M  V30 15211 H 1504.26 1.05388 -2.33082 0
M  V30 15212 H 1503.9 2.33925 -4.50823 0
M  V30 15213 H 1503.83 3.85968 -3.5824 0
M  V30 15214 H 1506.32 2.4794 -2.85191 0
M  V30 15215 H 1506.63 4.58183 -6.22325 0
M  V30 15216 H 1504.98 4.12616 -5.59261 0
M  V30 15217 H 1508.17 3.00712 -3.58733 0
M  V30 15218 H 1508.34 3.96603 -5.12455 0
M  V30 15219 N 1501.75 1.10074 1.1279 0
M  V30 15220 C 1502.68 0.768146 2.20503 0
M  V30 15221 C 1503.66 -0.257199 1.68144 0
M  V30 15222 O 1504.85 -0.12379 1.93805 0
M  V30 15223 C 1501.98 0.195125 3.46751 0
M  V30 15224 C 1500.93 1.15074 4.1224 0
M  V30 15225 C 1500.26 0.439098 5.32894 0
M  V30 15226 C 1501.56 2.49584 4.58808 0
M  V30 15227 H 1503.25 1.66876 2.48581 0
M  V30 15228 H 1500.8 0.803806 1.19478 0
M  V30 15229 H 1502.75 -0.0496695 4.21371 0
M  V30 15230 H 1501.47 -0.740717 3.1809 0
M  V30 15231 H 1500.13 1.38092 3.39597 0
M  V30 15232 H 1499.78 -0.501096 5.00498 0
M  V30 15233 H 1499.48 1.07632 5.77658 0
M  V30 15234 H 1501 0.202761 6.10263 0
M  V30 15235 H 1502.42 2.30736 5.24818 0
M  V30 15236 H 1500.81 3.09157 5.14336 0
M  V30 15237 H 1501.88 3.09857 3.72984 0
M  V30 15238 N 1503.23 -1.30138 0.888926 0
M  V30 15239 C 1504.16 -2.3047 0.374934 0
M  V30 15240 C 1505.14 -1.61156 -0.544322 0
M  V30 15241 O 1506.32 -1.88738 -0.457337 0
M  V30 15242 C 1503.45 -3.44896 -0.407935 0
M  V30 15243 C 1502.41 -4.25935 0.419916 0
M  V30 15244 C 1501.73 -5.32452 -0.489797 0
M  V30 15245 C 1503.03 -4.9508 1.66413 0
M  V30 15246 H 1504.73 -2.73711 1.21337 0
M  V30 15247 H 1502.27 -1.31586 0.584899 0
M  V30 15248 H 1504.23 -4.14153 -0.778177 0
M  V30 15249 H 1502.95 -3.0047 -1.28005 0
M  V30 15250 H 1501.61 -3.58372 0.772348 0
M  V30 15251 H 1501.26 -4.84273 -1.35974 0
M  V30 15252 H 1500.96 -5.87569 0.0603412 0
M  V30 15253 H 1502.48 -6.04563 -0.856468 0
M  V30 15254 H 1503.9 -5.56831 1.36425 0
M  V30 15255 H 1502.29 -5.6008 2.15477 0
M  V30 15256 H 1503.36 -4.20981 2.4063 0
M  V30 15257 N 1504.71 -0.650285 -1.43559 0
M  V30 15258 C 1505.66 0.0653687 -2.27906 0
M  V30 15259 C 1506.64 0.797628 -1.39738 0
M  V30 15260 O 1507.83 0.680579 -1.63393 0
M  V30 15261 C 1504.96 1.03311 -3.27386 0
M  V30 15262 C 1504.05 0.299481 -4.23041 0
M  V30 15263 N 1504.44 -0.68239 -5.01176 0
M  V30 15264 C 1502.74 0.54133 -4.42703 0
M  V30 15265 C 1503.44 -1.11758 -5.70863 0
M  V30 15266 N 1502.41 -0.452434 -5.41714 0
M  V30 15267 H 1506.21 -0.688114 -2.85731 0
M  V30 15268 H 1503.73 -0.477326 -1.55227 0
M  V30 15269 H 1505.73 1.56058 -3.86589 0
M  V30 15270 H 1504.39 1.78669 -2.71123 0
M  V30 15271 H 1505.4 -1.06099 -5.06915 0
M  V30 15272 H 1502.07 1.2763 -3.97513 0
M  V30 15273 H 1503.46 -1.92985 -6.43589 0
M  V30 15274 N 1506.18 1.52647 -0.392018 0
M  V30 15275 C 1507.43 2.01215 0.188926 0
M  V30 15276 C 1507.75 1.28019 1.47092 0
M  V30 15277 O 1507.02 0.401048 1.91751 0
M  V30 15278 H 1505.6 0.743444 0.0728049 0
M  V30 15279 H 1508.26 1.87715 -0.524332 0
M  V30 15280 H 1507.36 3.09562 0.397216 0
M  V30 15281 N 1507.66 0.121921 1.57128 0
M  V30 15282 C 1508.94 -0.579087 1.86831 0
M  V30 15283 C 1509.32 -1.84623 1.0236 0
M  V30 15284 O 1508.67 -2.28266 0.103326 0
M  V30 15285 C 1508.88 -0.86872 3.38015 0
M  V30 15286 C 1510.23 -1.22051 4.0668 0
M  V30 15287 O 1511.25 -0.958889 3.43051 0
M  V30 15288 O 1510.11 -1.71164 5.19004 0
M  V30 15289 H 1507.2 -0.292539 0.773531 0
M  V30 15290 H 1509.75 0.156644 1.68975 0
M  V30 15291 H 1508.52 0.0291056 3.91289 0
M  V30 15292 H 1508.14 -1.65951 3.61312 0
M  V30 15293 N 1509.14 -1.56867 -0.151857 0
M  V30 15294 C 1510.56 -1.51422 -0.504328 0
M  V30 15295 C 1510.76 -0.829524 -1.83633 0
M  V30 15296 O 1509.81 -0.398018 -2.49343 0
M  V30 15297 C 1511.13 -2.96185 -0.519117 0
M  V30 15298 C 1512.67 -3.07098 -0.60497 0
M  V30 15299 C 1513.15 -4.53357 -0.650468 0
M  V30 15300 N 1514.64 -4.57682 -0.712825 0
M  V30 15301 C 1515.37 -5.68221 -0.768931 0
M  V30 15302 N 1514.87 -6.88342 -0.784678 0
M  V30 15303 N 1516.66 -5.56241 -0.809441 0
M  V30 15304 H 1508.81 -1.99777 0.721316 0
M  V30 15305 H 1511.08 -0.910951 0.262436 0
M  V30 15306 H 1510.78 -3.49516 0.391315 0
M  V30 15307 H 1510.66 -3.51877 -1.35876 0
M  V30 15308 H 1513.04 -2.53789 -1.50582 0
M  V30 15309 H 1513.13 -2.54458 0.261722 0
M  V30 15310 H 1512.77 -5.07303 0.246207 0
M  V30 15311 H 1512.7 -5.03775 -1.53358 0
M  V30 15312 H 1515.19 -3.71206 -0.708151 0
M  V30 15313 H 1515.5 -7.68339 -0.829202 0
M  V30 15314 H 1513.85 -6.90913 -0.752634 0
M  V30 15315 H 1517.04 -4.61312 -0.794274 0
M  V30 15316 H 1517.21 -6.42405 -0.849701 0
M  V30 15317 N 1510.62 0.421051 -1.51871 0
M  V30 15318 C 1511.55 1.51928 -1.77313 0
M  V30 15319 C 1512.53 1.58258 -0.623579 0
M  V30 15320 O 1513.71 1.73724 -0.867967 0
M  V30 15321 C 1510.84 2.89865 -1.913 0
M  V30 15322 C 1509.8 2.98391 -3.06834 0
M  V30 15323 C 1509.12 4.38466 -3.06026 0
M  V30 15324 C 1510.42 2.7097 -4.46511 0
M  V30 15325 H 1512.12 1.30889 -2.69274 0
M  V30 15326 H 1509.66 0.628229 -1.29573 0
M  V30 15327 H 1511.62 3.66669 -2.07682 0
M  V30 15328 H 1510.34 3.12172 -0.960011 0
M  V30 15329 H 1509 2.24029 -2.90184 0
M  V30 15330 H 1508.65 4.57764 -2.08472 0
M  V30 15331 H 1508.35 4.45097 -3.83618 0
M  V30 15332 H 1509.87 5.17221 -3.24522 0
M  V30 15333 H 1511.29 3.37501 -4.63428 0
M  V30 15334 H 1509.68 2.88992 -5.25931 0
M  V30 15335 H 1510.75 1.66476 -4.55427 0
M  V30 15336 N 1512.1 1.42293 0.677538 0
M  V30 15337 C 1513.34 1.42827 1.43973 0
M  V30 15338 C 1513.68 0.0435041 1.94151 0
M  V30 15339 O 1512.95 -0.931794 1.70727 0
M  V30 15340 C 1513.23 2.45037 2.63873 0
M  V30 15341 C 1513.09 3.92694 2.19344 0
M  V30 15342 C 1514.41 2.4427 3.66087 0
M  V30 15343 H 1511.52 0.520097 0.522176 0
M  V30 15344 H 1514.17 1.73688 0.770219 0
M  V30 15345 H 1512.32 2.18851 3.20993 0
M  V30 15346 H 1513.99 4.2985 1.67412 0
M  V30 15347 H 1512.23 4.06692 1.50944 0
M  V30 15348 H 1512.9 4.59784 3.05455 0
M  V30 15349 H 1515.38 2.67551 3.18678 0
M  V30 15350 H 1514.25 3.17769 4.47564 0
M  V30 15351 H 1514.52 1.46769 4.17027 0
M  V30 15352 N 1513.57 -0.913576 1.28419 0
M  V30 15353 C 1514.54 -1.99757 1.12382 0
M  V30 15354 C 1515.54 -1.60675 0.063435 0
M  V30 15355 O 1516.73 -1.71433 0.30923 0
M  V30 15356 C 1513.86 -3.33307 0.715506 0
M  V30 15357 H 1515.05 -2.15414 2.08655 0
M  V30 15358 H 1512.61 -1.09626 1.11408 0
M  V30 15359 H 1513.34 -3.23351 -0.247977 0
M  V30 15360 H 1513.13 -3.63034 1.4815 0
M  V30 15361 H 1514.62 -4.12882 0.625953 0
M  V30 15362 N 1515.05 -1.1067 -1.12204 0
M  V30 15363 C 1516.28 -0.873095 -1.88127 0
M  V30 15364 C 1516.7 0.571099 -1.79221 0
M  V30 15365 O 1516.06 1.40251 -1.14888 0
M  V30 15366 C 1516.11 -1.32922 -3.35208 0
M  V30 15367 O 1515.21 -0.495807 -4.09409 0
M  V30 15368 H 1514.55 -0.315138 -0.584452 0
M  V30 15369 H 1517.08 -1.47413 -1.41882 0
M  V30 15370 H 1517.09 -1.32023 -3.86049 0
M  V30 15371 H 1515.77 -2.38091 -3.41007 0
M  V30 15372 H 1514.35 -0.570216 -3.68515 0
M  V30 15373 N 1516.53 1.29665 -0.895815 0
M  V30 15374 C 1517.76 1.99862 -0.535043 0
M  V30 15375 C 1518.17 1.67077 0.879245 0
M  V30 15376 O 1517.53 0.913717 1.57979 0
M  V30 15377 C 1517.58 3.54396 -0.713132 0
M  V30 15378 O 1517.3 3.86018 -2.07175 0
M  V30 15379 C 1518.8 4.41862 -0.356792 0
M  V30 15380 H 1516.02 0.638693 -0.205699 0
M  V30 15381 H 1518.57 1.65293 -1.20409 0
M  V30 15382 H 1516.72 3.87292 -0.0913116 0
M  V30 15383 H 1517.14 4.80701 -2.09827 0
M  V30 15384 H 1518.61 5.49428 -0.532252 0
M  V30 15385 H 1519.09 4.3349 0.705914 0
M  V30 15386 H 1519.69 4.1443 -0.95539 0
M  V30 15387 N 1518.01 0.657889 1.43212 0
M  V30 15388 C 1518.94 -0.0172114 2.33494 0
M  V30 15389 C 1519.92 -0.807087 1.49733 0
M  V30 15390 O 1521.1 -0.767631 1.78385 0
M  V30 15391 C 1518.23 -0.981029 3.33156 0
M  V30 15392 C 1517.19 -0.30094 4.26941 0
M  V30 15393 C 1516.51 -1.37653 5.16678 0
M  V30 15394 C 1517.81 0.809572 5.15988 0
M  V30 15395 H 1519.51 0.736749 2.90194 0
M  V30 15396 H 1517.05 0.355744 1.39537 0
M  V30 15397 H 1519.01 -1.46226 3.95216 0
M  V30 15398 H 1517.73 -1.76621 2.74723 0
M  V30 15399 H 1516.39 0.159893 3.66251 0
M  V30 15400 H 1516.04 -2.15326 4.54581 0
M  V30 15401 H 1515.74 -0.926704 5.80246 0
M  V30 15402 H 1517.26 -1.85903 5.81612 0
M  V30 15403 H 1518.68 0.410297 5.7183 0
M  V30 15404 H 1517.07 1.18415 5.88301 0
M  V30 15405 H 1518.14 1.66558 4.55397 0
M  V30 15406 N 1519.49 -1.52437 0.400108 0
M  V30 15407 C 1520.42 -2.24433 -0.465038 0
M  V30 15408 C 1521.43 -1.27067 -1.01773 0
M  V30 15409 O 1522.62 -1.53072 -0.918215 0
M  V30 15410 C 1519.72 -2.95555 -1.65832 0
M  V30 15411 C 1518.89 -4.19717 -1.2311 0
M  V30 15412 C 1517.95 -4.73743 -2.29028 0
M  V30 15413 O 1516.98 -5.36556 -1.8999 0
M  V30 15414 N 1518.18 -4.54534 -3.6108 0
M  V30 15415 H 1520.95 -2.99315 0.151839 0
M  V30 15416 H 1518.51 -1.603 0.227019 0
M  V30 15417 H 1520.5 -3.28595 -2.36235 0
M  V30 15418 H 1519.07 -2.23915 -2.18131 0
M  V30 15419 H 1518.29 -3.92593 -0.355537 0
M  V30 15420 H 1519.58 -5.00367 -0.922487 0
M  V30 15421 H 1518.97 -4.04419 -3.95552 0
M  V30 15422 H 1517.53 -4.92035 -4.27486 0
M  V30 15423 N 1520.96 -0.130252 -1.57061 0
M  V30 15424 C 1522.21 0.523969 -1.9519 0
M  V30 15425 C 1522.53 1.66493 -1.01514 0
M  V30 15426 O 1521.8 1.95762 -0.0735194 0
M  V30 15427 H 1520.38 0.196553 -0.720677 0
M  V30 15428 H 1523.05 -0.20183 -1.93852 0
M  V30 15429 H 1522.14 0.911156 -2.98504 0
M  V30 15430 N 1522.44 1.56945 0.143535 0
M  V30 15431 C 1523.69 1.8381 0.856831 0
M  V30 15432 C 1524.02 0.712375 1.80662 0
M  V30 15433 O 1523.3 -0.283743 1.92419 0
M  V30 15434 C 1523.58 3.21184 1.62828 0
M  V30 15435 C 1523.43 4.44324 0.699744 0
M  V30 15436 C 1524.75 3.5582 2.58999 0
M  V30 15437 H 1521.87 0.668611 0.310046 0
M  V30 15438 H 1524.51 1.89609 0.1219 0
M  V30 15439 H 1522.66 3.16372 2.2548 0
M  V30 15440 H 1524.34 4.61224 0.0839619 0
M  V30 15441 H 1522.58 4.33799 0.0095529 0
M  V30 15442 H 1523.25 5.37058 1.27564 0
M  V30 15443 H 1525.73 3.61264 2.06464 0
M  V30 15444 H 1524.6 4.52964 3.10024 0
M  V30 15445 H 1524.86 2.81956 3.40519 0
M  V30 15446 N 1523.92 -0.412991 1.52093 0
M  V30 15447 C 1525.17 -1.15801 1.65634 0
M  V30 15448 C 1525.49 -1.91127 0.386737 0
M  V30 15449 O 1524.76 -1.86541 -0.598262 0
M  V30 15450 H 1523.34 -0.430467 0.610498 0
M  V30 15451 H 1526 -0.471127 1.8912 0
M  V30 15452 H 1525.1 -1.87421 2.49559 0
M  V30 15453 N 1525.4 -1.4265 -0.669982 0
M  V30 15454 C 1526.65 -1.43093 -1.42719 0
M  V30 15455 C 1526.97 -0.0501228 -1.94936 0
M  V30 15456 O 1526.24 0.912077 -1.73372 0
M  V30 15457 H 1524.82 -0.526785 -0.529628 0
M  V30 15458 H 1527.48 -1.78113 -0.791324 0
M  V30 15459 H 1526.58 -2.13357 -2.27783 0
M  V30 15460 N 1526.88 0.906753 -1.28902 0
M  V30 15461 C 1528.29 1.47175 -1.14876 0
M  V30 15462 C 1528.64 1.94487 0.258693 0
M  V30 15463 O 1527.76 1.83088 1.15359 0
M  V30 15464 C 1528.36 2.67491 -2.07928 0
M  V30 15465 C 1526.92 3.20148 -1.97946 0
M  V30 15466 C 1526.07 1.92846 -1.99263 0
M  V30 15467 H 1529.02 0.718777 -1.4149 0
M  V30 15468 H 1529.04 3.42989 -1.64738 0
M  V30 15469 H 1528.55 2.33025 -3.10356 0
M  V30 15470 H 1526.65 3.59322 -0.985806 0
M  V30 15471 H 1526.76 3.84923 -2.85256 0
M  V30 15472 H 1525.13 2.10247 -1.43765 0
M  V30 15473 H 1525.91 1.60666 -3.03383 0
M  V30 15474 N 1528.36 1.11264 1.11616 0
M  V30 15475 C 1529.27 0.781961 2.21184 0
M  V30 15476 C 1530.28 -0.224149 1.7255 0
M  V30 15477 O 1531.46 -0.0607743 2.01308 0
M  V30 15478 C 1528.52 0.228031 3.45949 0
M  V30 15479 C 1527.58 1.29251 4.09381 0
M  V30 15480 C 1526.82 0.764921 5.2819 0
M  V30 15481 O 1527.04 -0.405671 5.68956 0
M  V30 15482 O 1525.97 1.52886 5.82159 0
M  V30 15483 H 1529.8 1.69678 2.51879 0
M  V30 15484 H 1527.38 0.888394 1.20116 0
M  V30 15485 H 1529.27 -0.0766085 4.2133 0
M  V30 15486 H 1527.94 -0.659519 3.1691 0
M  V30 15487 H 1526.85 1.65014 3.3574 0
M  V30 15488 H 1528.18 2.15339 4.42595 0
M  V30 15489 N 1529.83 -1.29188 0.902679 0
M  V30 15490 C 1531.08 -1.95052 0.529076 0
M  V30 15491 C 1531.4 -1.7149 -0.92824 0
M  V30 15492 O 1530.67 -1.04834 -1.65489 0
M  V30 15493 H 1529.25 -0.721725 0.192671 0
M  V30 15494 H 1531.91 -1.57384 1.14962 0
M  V30 15495 H 1531.01 -3.03819 0.714179 0
M  V30 15496 N 1531.31 -0.665475 -1.42861 0
M  V30 15497 C 1532.54 -0.190399 -2.06524 0
M  V30 15498 C 1532.96 1.13995 -1.49622 0
M  V30 15499 O 1532.32 1.70695 -0.610981 0
M  V30 15500 C 1532.37 -0.12594 -3.6038 0
M  V30 15501 O 1531.47 0.908299 -4.02273 0
M  V30 15502 H 1530.81 -0.100495 -0.656351 0
M  V30 15503 H 1533.34 -0.911858 -1.83156 0
M  V30 15504 H 1533.35 0.0533153 -4.07965 0
M  V30 15505 H 1532.03 -1.09703 -4.01171 0
M  V30 15506 H 1530.6 0.700841 -3.66255 0
M  V30 15507 N 1532.79 1.52222 -0.408187 0
M  V30 15508 C 1534.01 2.06703 0.169901 0
M  V30 15509 C 1534.44 1.27635 1.3817 0
M  V30 15510 O 1533.8 0.306343 1.78693 0
M  V30 15511 C 1533.85 3.57121 0.499663 0
M  V30 15512 O 1532.95 3.80483 1.5908 0
M  V30 15513 H 1532.29 0.663839 0.0146145 0
M  V30 15514 H 1534.82 1.96174 -0.581113 0
M  V30 15515 H 1534.83 4.00886 0.758567 0
M  V30 15516 H 1533.51 4.14103 -0.386182 0
M  V30 15517 H 1532.08 3.48599 1.32413 0
M  V30 15518 N 1534.27 0.138579 1.5699 0
M  V30 15519 C 1535.68 -0.383633 1.82716 0
M  V30 15520 C 1536.03 -1.65304 1.05684 0
M  V30 15521 O 1535.15 -2.14318 0.299488 0
M  V30 15522 C 1535.75 -0.7028 3.3143 0
M  V30 15523 C 1534.31 -1.16957 3.57768 0
M  V30 15524 C 1533.46 -0.188295 2.7666 0
M  V30 15525 H 1536.41 0.363415 1.54483 0
M  V30 15526 H 1536.43 -1.55832 3.47126 0
M  V30 15527 H 1535.94 0.221271 3.87469 0
M  V30 15528 H 1534.04 -2.10987 3.07108 0
M  V30 15529 H 1534.15 -1.10136 4.66269 0
M  V30 15530 H 1532.52 -0.679255 2.45475 0
M  V30 15531 H 1533.3 0.729218 3.35466 0
M  V30 15532 N 1535.75 -1.57019 -0.13521 0
M  V30 15533 C 1537.16 -1.51949 -0.48824 0
M  V30 15534 C 1537.36 -0.848955 -1.82743 0
M  V30 15535 O 1536.42 -0.424441 -2.48907 0
M  V30 15536 C 1537.73 -2.96719 -0.487673 0
M  V30 15537 C 1539.28 -3.07722 -0.572365 0
M  V30 15538 C 1539.75 -4.54022 -0.602347 0
M  V30 15539 N 1541.24 -4.58413 -0.664242 0
M  V30 15540 C 1541.98 -5.69005 -0.70862 0
M  V30 15541 N 1541.48 -6.89135 -0.711626 0
M  V30 15542 N 1543.27 -5.57069 -0.750399 0
M  V30 15543 H 1535.42 -1.99001 0.742465 0
M  V30 15544 H 1537.68 -0.908116 0.272083 0
M  V30 15545 H 1537.39 -3.49082 0.428363 0
M  V30 15546 H 1537.26 -3.53299 -1.32136 0
M  V30 15547 H 1539.65 -2.55372 -1.47882 0
M  V30 15548 H 1539.73 -2.54166 0.288696 0
M  V30 15549 H 1539.37 -5.07013 0.3 0
M  V30 15550 H 1539.3 -5.05373 -1.48006 0
M  V30 15551 H 1541.8 -3.71936 -0.668739 0
M  V30 15552 H 1542.11 -7.69175 -0.747663 0
M  V30 15553 H 1540.45 -6.91672 -0.679311 0
M  V30 15554 H 1543.64 -4.62129 -0.745301 0
M  V30 15555 H 1543.82 -6.4327 -0.781518 0
M  V30 15556 N 1537.22 0.404919 -1.52309 0
M  V30 15557 C 1538.15 1.50039 -1.78915 0
M  V30 15558 C 1539.14 1.57587 -0.640329 0
M  V30 15559 O 1540.32 1.72793 -0.886344 0
M  V30 15560 C 1537.45 2.87819 -1.94364 0
M  V30 15561 C 1536.4 2.9512 -3.09981 0
M  V30 15562 C 1535.73 4.35195 -3.10659 0
M  V30 15563 C 1537.03 2.66219 -4.4936 0
M  V30 15564 H 1538.72 1.28025 -2.70647 0
M  V30 15565 H 1536.27 0.61445 -1.30233 0
M  V30 15566 H 1538.22 3.64446 -2.11559 0
M  V30 15567 H 1536.95 3.11136 -0.993067 0
M  V30 15568 H 1535.61 2.20939 -2.92543 0
M  V30 15569 H 1535.25 4.55528 -2.13316 0
M  V30 15570 H 1534.95 4.41003 -3.88317 0
M  V30 15571 H 1536.48 5.1375 -3.29989 0
M  V30 15572 H 1537.89 3.32567 -4.66982 0
M  V30 15573 H 1536.29 2.83398 -5.28967 0
M  V30 15574 H 1537.36 1.61636 -4.57167 0
M  V30 15575 N 1538.7 1.43003 0.662408 0
M  V30 15576 C 1539.65 1.43898 1.76854 0
M  V30 15577 C 1540.64 0.308629 1.57912 0
M  V30 15578 O 1541.83 0.551757 1.6818 0
M  V30 15579 C 1538.96 1.35585 3.15391 0
M  V30 15580 C 1538.04 2.53614 3.39913 0
M  V30 15581 N 1538.43 3.78998 3.34954 0
M  V30 15582 C 1536.73 2.48141 3.70597 0
M  V30 15583 C 1537.43 4.57467 3.59303 0
M  V30 15584 N 1536.41 3.8806 3.80671 0
M  V30 15585 H 1540.21 2.38722 1.71432 0
M  V30 15586 H 1537.73 1.37526 0.863728 0
M  V30 15587 H 1539.72 1.34308 3.94673 0
M  V30 15588 H 1538.38 0.417735 3.22002 0
M  V30 15589 H 1539.39 4.11417 3.14574 0
M  V30 15590 H 1536.07 1.62971 3.84379 0
M  V30 15591 H 1537.46 5.66475 3.61326 0
M  V30 15592 N 1540.18 -0.899904 1.29381 0
M  V30 15593 C 1541.43 -1.65282 1.17515 0
M  V30 15594 C 1541.76 -1.92275 -0.272788 0
M  V30 15595 O 1541.03 -1.53303 -1.19701 0
M  V30 15596 C 1541.32 -3.00207 1.98867 0
M  V30 15597 C 1541.17 -2.80281 3.51799 0
M  V30 15598 C 1542.49 -4.00936 1.81489 0
M  V30 15599 H 1539.61 -0.5998 0.428263 0
M  V30 15600 H 1542.25 -1.04241 1.58852 0
M  V30 15601 H 1540.4 -3.52308 1.63741 0
M  V30 15602 H 1542.07 -2.35082 3.96905 0
M  V30 15603 H 1540.32 -2.15068 3.76733 0
M  V30 15604 H 1540.99 -3.76155 4.03994 0
M  V30 15605 H 1543.46 -3.57944 2.12169 0
M  V30 15606 H 1542.34 -4.9328 2.4076 0
M  V30 15607 H 1542.6 -4.35342 0.770021 0
M  V30 15608 N 1541.66 -1.11854 -1.11024 0
M  V30 15609 C 1542.62 -0.784033 -2.15373 0
M  V30 15610 C 1543.62 0.198686 -1.59568 0
M  V30 15611 O 1544.81 -0.0263428 -1.7418 0
M  V30 15612 C 1541.94 -0.163987 -3.40505 0
M  V30 15613 H 1543.14 -1.70849 -2.46477 0
M  V30 15614 H 1540.69 -0.920988 -1.26283 0
M  V30 15615 H 1541.42 0.770483 -3.15014 0
M  V30 15616 H 1541.21 -0.871447 -3.82293 0
M  V30 15617 H 1542.7 0.0537739 -4.17565 0
M  V30 15618 N 1543.14 1.28707 -0.909517 0
M  V30 15619 C 1544.38 1.95443 -0.541281 0
M  V30 15620 C 1544.72 1.71457 0.911934 0
M  V30 15621 O 1543.99 1.03312 1.64794 0
M  V30 15622 C 1544.27 3.50019 -0.846097 0
M  V30 15623 C 1544.13 3.83423 -2.35173 0
M  V30 15624 C 1545.45 4.3879 -0.339328 0
M  V30 15625 H 1542.56 0.709869 -0.198128 0
M  V30 15626 H 1545.21 1.52151 -1.13799 0
M  V30 15627 H 1543.36 3.87025 -0.338262 0
M  V30 15628 H 1545.03 3.5631 -2.92986 0
M  V30 15629 H 1543.27 3.30618 -2.80846 0
M  V30 15630 H 1543.94 4.91348 -2.51557 0
M  V30 15631 H 1546.42 4.08832 -0.774312 0
M  V30 15632 H 1545.29 5.45809 -0.581722 0
M  V30 15633 H 1545.56 4.35514 0.760244 0
M  V30 15634 N 1544.61 0.673042 1.42506 0
M  V30 15635 C 1545.58 0.00283156 2.292 0
M  V30 15636 C 1546.58 -0.73077 1.43235 0
M  V30 15637 O 1547.77 -0.569037 1.64644 0
M  V30 15638 C 1544.9 -1.00666 3.25698 0
M  V30 15639 H 1546.09 0.765869 2.89956 0
M  V30 15640 H 1543.65 0.435301 1.50116 0
M  V30 15641 H 1544.38 -1.79825 2.69877 0
M  V30 15642 H 1544.17 -0.484043 3.89101 0
M  V30 15643 H 1545.66 -1.47409 3.90718 0
M  V30 15644 N 1546.09 -1.52004 0.416254 0
M  V30 15645 C 1547.5 -1.86628 -0.0517247 0
M  V30 15646 C 1547.85 -1.33463 -1.43813 0
M  V30 15647 O 1546.98 -0.676793 -2.05544 0
M  V30 15648 C 1547.57 -3.38651 -0.100637 0
M  V30 15649 C 1546.13 -3.72888 -0.512969 0
M  V30 15650 C 1545.28 -2.75584 0.307975 0
M  V30 15651 H 1548.23 -1.45529 0.633018 0
M  V30 15652 H 1548.25 -3.69348 -0.914465 0
M  V30 15653 H 1547.76 -3.77316 0.908538 0
M  V30 15654 H 1545.87 -3.39804 -1.52852 0
M  V30 15655 H 1545.98 -4.78435 -0.252408 0
M  V30 15656 H 1544.34 -2.53653 -0.230717 0
M  V30 15657 H 1545.13 -3.1709 1.31563 0
M  V30 15658 N 1547.57 -0.146903 -1.56914 0
M  V30 15659 C 1548.52 0.809917 -2.18044 0
M  V30 15660 C 1549.51 1.25536 -1.13741 0
M  V30 15661 O 1550.72 1.22385 -1.31992 0
M  V30 15662 H 1547.09 0.279387 -0.698174 0
M  V30 15663 H 1549.06 0.270135 -2.97175 0
M  V30 15664 C 1547.81 2.03904 -2.81635 0
M  V30 15665 H 1547.14 1.70526 -3.61609 0
M  V30 15666 H 1548.58 2.68795 -3.2791 0
M  V30 15667 C 1547.04 2.84696 -1.80138 0
M  V30 15668 O 1547.57 3.81036 -1.27179 0
M  V30 15669 N 1545.77 2.49229 -1.49444 0
M  V30 15670 H 1545.32 1.70949 -1.92702 0
M  V30 15671 H 1545.28 3.03577 -0.817811 0
M  V30 15672 N 1549.05 1.57088 0.126881 0
M  V30 15673 C 1550.28 1.88614 0.850444 0
M  V30 15674 C 1550.69 0.737309 1.73808 0
M  V30 15675 O 1550.05 -0.292196 1.80146 0
M  V30 15676 C 1550.1 3.19541 1.69044 0
M  V30 15677 O 1549.82 4.3 0.838555 0
M  V30 15678 C 1551.32 3.64717 2.51985 0
M  V30 15679 H 1548.54 0.624715 0.244892 0
M  V30 15680 H 1551.09 2.04184 0.113634 0
M  V30 15681 H 1549.24 3.05664 2.38009 0
M  V30 15682 H 1549.65 5.04992 1.41717 0
M  V30 15683 H 1551.13 4.5911 3.06467 0
M  V30 15684 H 1551.61 2.90986 3.28974 0
M  V30 15685 H 1552.21 3.81356 1.88276 0
M  V30 15686 N 1550.53 -0.396836 1.52522 0
M  V30 15687 C 1551.46 -1.49088 1.79708 0
M  V30 15688 C 1552.44 -1.57246 0.648678 0
M  V30 15689 O 1553.62 -1.72321 0.895495 0
M  V30 15690 C 1550.75 -2.86785 1.95887 0
M  V30 15691 C 1549.71 -2.93472 3.11542 0
M  V30 15692 C 1549.03 -4.33542 3.12963 0
M  V30 15693 C 1550.33 -2.63832 4.50766 0
M  V30 15694 H 1552.03 -1.26588 2.71322 0
M  V30 15695 H 1549.57 -0.607535 1.30557 0
M  V30 15696 H 1551.53 -3.63319 2.13489 0
M  V30 15697 H 1550.25 -3.10605 1.00955 0
M  V30 15698 H 1548.91 -2.19384 2.93711 0
M  V30 15699 H 1548.56 -4.5439 2.15729 0
M  V30 15700 H 1548.26 -4.38938 3.9065 0
M  V30 15701 H 1549.78 -5.11993 3.32709 0
M  V30 15702 H 1551.19 -3.30086 4.68739 0
M  V30 15703 H 1549.59 -2.80589 5.30462 0
M  V30 15704 H 1550.66 -1.59209 4.58018 0
M  V30 15705 N 1552.01 -1.43353 -0.654814 0
M  V30 15706 C 1553.42 -1.26718 -0.970297 0
M  V30 15707 C 1553.62 -0.185747 -2.00642 0
M  V30 15708 O 1552.68 0.436357 -2.48701 0
M  V30 15709 C 1553.99 -2.63095 -1.45608 0
M  V30 15710 C 1555.54 -2.70613 -1.57281 0
M  V30 15711 C 1556.01 -4.07404 -2.0925 0
M  V30 15712 N 1557.5 -4.09461 -2.16555 0
M  V30 15713 C 1558.24 -5.12135 -2.57885 0
M  V30 15714 N 1557.74 -6.25185 -2.98523 0
M  V30 15715 N 1559.53 -4.9949 -2.57811 0
M  V30 15716 H 1551.68 -2.12378 0.0308331 0
M  V30 15717 H 1553.94 -0.946744 -0.0487843 0
M  V30 15718 H 1553.65 -3.43186 -0.769171 0
M  V30 15719 H 1553.52 -2.88381 -2.43138 0
M  V30 15720 H 1555.91 -1.90855 -2.25074 0
M  V30 15721 H 1555.99 -2.49094 -0.581879 0
M  V30 15722 H 1555.63 -4.87628 -1.4206 0
M  V30 15723 H 1555.56 -4.26287 -3.09172 0
M  V30 15724 H 1558.06 -3.27858 -1.87929 0
M  V30 15725 H 1558.37 -6.99362 -3.28804 0
M  V30 15726 H 1556.71 -6.28659 -2.96332 0
M  V30 15727 H 1559.9 -4.10238 -2.25438 0
M  V30 15728 H 1560.08 -5.79637 -2.89699 0
M  V30 15729 N 1553.48 0.89303 -1.29857 0
M  V30 15730 C 1554.41 2.01422 -1.18117 0
M  V30 15731 C 1555.39 1.6994 -0.0737487 0
M  V30 15732 O 1556.58 1.92527 -0.254387 0
M  V30 15733 C 1553.71 3.36385 -0.863842 0
M  V30 15734 C 1552.66 3.821 -1.92831 0
M  V30 15735 C 1551.99 5.14263 -1.46415 0
M  V30 15736 C 1553.29 4.01699 -3.33819 0
M  V30 15737 H 1554.98 2.11502 -2.11913 0
M  V30 15738 H 1552.53 1.01622 -1.02024 0
M  V30 15739 H 1554.48 4.14335 -0.768397 0
M  V30 15740 H 1553.21 3.26415 0.109816 0
M  V30 15741 H 1551.87 3.06372 -2.01325 0
M  V30 15742 H 1551.51 5.00714 -0.478983 0
M  V30 15743 H 1551.21 5.45821 -2.17609 0
M  V30 15744 H 1552.74 5.94747 -1.38234 0
M  V30 15745 H 1554.15 4.70111 -3.28129 0
M  V30 15746 H 1552.55 4.44621 -4.03029 0
M  V30 15747 H 1553.62 3.05816 -3.76304 0
M  V30 15748 N 1554.96 1.12442 1.10429 0
M  V30 15749 C 1555.87 0.805377 2.20343 0
M  V30 15750 C 1556.89 -0.205836 1.72778 0
M  V30 15751 O 1558.06 -0.0394195 2.01361 0
M  V30 15752 C 1555.13 0.264711 3.45688 0
M  V30 15753 C 1554.19 1.33586 4.07987 0
M  V30 15754 C 1553.42 0.8209 5.27349 0
M  V30 15755 O 1553.65 -0.345303 5.69354 0
M  V30 15756 O 1552.58 1.59052 5.80505 0
M  V30 15757 H 1556.41 1.7234 2.50065 0
M  V30 15758 H 1553.99 0.901084 1.19167 0
M  V30 15759 H 1555.87 -0.0319164 4.21388 0
M  V30 15760 H 1554.55 -0.625869 3.17592 0
M  V30 15761 H 1553.45 1.68566 3.33971 0
M  V30 15762 H 1554.79 2.20021 4.40286 0
M  V30 15763 N 1556.44 -1.28223 0.91633 0
M  V30 15764 C 1557.69 -1.94149 0.546705 0
M  V30 15765 C 1558 -1.72904 -0.914529 0
M  V30 15766 O 1559.21 -2.33075 -1.39243 0
M  V30 15767 C 1557.66 -3.47759 0.92691 0
M  V30 15768 C 1557.27 -3.77779 2.40805 0
M  V30 15769 C 1559.02 -4.19829 0.627994 0
M  V30 15770 C 1556.92 -5.2471 2.72825 0
M  V30 15771 H 1555.85 -0.726787 0.200739 0
M  V30 15772 H 1558.5 -1.45694 1.1156 0
M  V30 15773 H 1556.89 -3.9496 0.286779 0
M  V30 15774 H 1558.06 -3.41377 3.09513 0
M  V30 15775 H 1556.37 -3.18887 2.67769 0
M  V30 15776 H 1558.97 -5.27999 0.843862 0
M  V30 15777 H 1559.31 -4.14028 -0.434315 0
M  V30 15778 H 1559.85 -3.78413 1.22671 0
M  V30 15779 H 1556.59 -5.35591 3.77919 0
M  V30 15780 H 1556.11 -5.623 2.08756 0
M  V30 15781 H 1557.79 -5.92475 2.59965 0
M  V30 15782 N 1557.92 -0.68059 -1.42147 0
M  V30 15783 C 1558.87 0.0170117 -2.27994 0
M  V30 15784 C 1559.85 0.767809 -1.41398 0
M  V30 15785 O 1561.04 0.645767 -1.64799 0
M  V30 15786 C 1558.17 0.963439 -3.29504 0
M  V30 15787 C 1557.26 0.20968 -4.23581 0
M  V30 15788 N 1557.65 -0.788543 -4.99615 0
M  V30 15789 C 1555.95 0.447304 -4.43751 0
M  V30 15790 C 1556.65 -1.23842 -5.68364 0
M  V30 15791 N 1555.62 -0.567238 -5.40632 0
M  V30 15792 H 1559.43 -0.748567 -2.84207 0
M  V30 15793 H 1556.94 -0.510145 -1.54179 0
M  V30 15794 H 1558.94 1.47823 -3.89813 0
M  V30 15795 H 1557.6 1.72878 -2.74851 0
M  V30 15796 H 1558.61 -1.16828 -5.04551 0
M  V30 15797 H 1555.29 1.1917 -4.00131 0
M  V30 15798 H 1556.68 -2.06593 -6.39351 0
M  V30 15799 N 1559.4 1.51781 -0.424309 0
M  V30 15800 C 1560.64 2.0157 0.146203 0
M  V30 15801 C 1560.96 1.3111 1.44344 0
M  V30 15802 O 1560.23 0.441631 1.90857 0
M  V30 15803 H 1558.81 0.744821 0.057019 0
M  V30 15804 H 1561.48 1.8656 -0.564031 0
M  V30 15805 H 1560.57 3.10335 0.331464 0
M  V30 15806 N 1560.87 0.155222 1.56834 0
M  V30 15807 C 1561.84 -0.767266 2.15976 0
M  V30 15808 C 1562.84 -1.16946 1.10364 0
M  V30 15809 O 1564.03 -1.08905 1.35961 0
M  V30 15810 C 1561.16 -2.04226 2.72956 0
M  V30 15811 H 1562.35 -0.252662 2.98834 0
M  V30 15812 H 1559.9 -0.0942677 1.56015 0
M  V30 15813 H 1560.64 -2.60033 1.93787 0
M  V30 15814 H 1560.42 -1.76299 3.5023 0
M  V30 15815 H 1561.91 -2.70093 3.18495 0
M  V30 15816 N 1562.35 -1.57153 -0.118549 0
M  V30 15817 C 1563.28 -1.95577 -1.17579 0
M  V30 15818 C 1564.26 -0.825508 -1.40086 0
M  V30 15819 O 1565.45 -1.08372 -1.54233 0
M  V30 15820 C 1562.57 -2.25238 -2.52954 0
M  V30 15821 C 1561.62 -3.47789 -2.46871 0
M  V30 15822 S 1562.45 -5.00358 -1.90792 0
M  V30 15823 C 1563.61 -5.33172 -3.27839 0
M  V30 15824 H 1563.84 -2.84946 -0.84812 0
M  V30 15825 H 1561.37 -1.50934 -0.325323 0
M  V30 15826 H 1563.33 -2.43005 -3.30846 0
M  V30 15827 H 1561.99 -1.36482 -2.82898 0
M  V30 15828 H 1561.19 -3.6591 -3.46592 0
M  V30 15829 H 1560.79 -3.29411 -1.771 0
M  V30 15830 H 1563.08 -5.28381 -4.24051 0
M  V30 15831 H 1564.02 -6.34403 -3.14545 0
M  V30 15832 H 1564.43 -4.60647 -3.26289 0
M  V30 15833 N 1563.83 0.388742 -1.5273 0
M  V30 15834 C 1564.76 1.48133 -1.80496 0
M  V30 15835 C 1565.74 1.56899 -0.657008 0
M  V30 15836 O 1566.93 1.71844 -0.904621 0
M  V30 15837 C 1564.06 2.85742 -1.97405 0
M  V30 15838 C 1563.01 2.91815 -3.13094 0
M  V30 15839 C 1562.34 4.31876 -3.15258 0
M  V30 15840 C 1563.64 2.61438 -4.52159 0
M  V30 15841 H 1565.33 1.25147 -2.7199 0
M  V30 15842 H 1562.88 0.600603 -1.30877 0
M  V30 15843 H 1564.83 3.62182 -2.15412 0
M  V30 15844 H 1563.55 3.10065 -1.02601 0
M  V30 15845 H 1562.21 2.17824 -2.9487 0
M  V30 15846 H 1561.86 4.53239 -2.18135 0
M  V30 15847 H 1561.56 4.3686 -3.92972 0
M  V30 15848 H 1563.08 5.10221 -3.3542 0
M  V30 15849 H 1564.5 3.27596 -4.70483 0
M  V30 15850 H 1562.89 2.77771 -5.31943 0
M  V30 15851 H 1563.96 1.56778 -4.58856 0
M  V30 15852 N 1565.31 1.43698 0.647203 0
M  V30 15853 C 1566.22 1.51781 1.78884 0
M  V30 15854 C 1567.23 0.404498 1.69233 0
M  V30 15855 O 1568.41 0.659509 1.90296 0
M  V30 15856 C 1565.47 1.44408 3.15194 0
M  V30 15857 C 1564.54 2.6646 3.36597 0
M  V30 15858 C 1563.77 2.59429 4.66403 0
M  V30 15859 O 1563.99 1.64537 5.46154 0
M  V30 15860 O 1562.93 3.50027 4.89658 0
M  V30 15861 H 1566.75 2.48198 1.75019 0
M  V30 15862 H 1564.34 1.25766 0.806436 0
M  V30 15863 H 1566.22 1.42761 3.96481 0
M  V30 15864 H 1564.89 0.511292 3.19637 0
M  V30 15865 H 1563.8 2.73679 2.5505 0
M  V30 15866 H 1565.13 3.58732 3.37005 0
M  V30 15867 N 1566.79 -0.886131 1.30328 0
M  V30 15868 C 1568.06 -1.61912 1.09744 0
M  V30 15869 C 1568.44 -2.08116 -0.353663 0
M  V30 15870 O 1567.79 -1.84725 -1.34495 0
M  V30 15871 C 1568 -2.78954 2.09727 0
M  V30 15872 C 1569.35 -3.49313 2.41382 0
M  V30 15873 O 1570.37 -2.89141 2.08028 0
M  V30 15874 O 1569.23 -4.57823 2.98431 0
M  V30 15875 H 1566.33 -0.71158 0.421406 0
M  V30 15876 H 1568.87 -0.933009 1.4175 0
M  V30 15877 H 1567.64 -2.42109 3.07407 0
M  V30 15878 H 1567.27 -3.55263 1.78532 0
M  V30 15879 N 1568.26 -1.13026 -1.09832 0
M  V30 15880 C 1569.17 -0.817051 -2.19912 0
M  V30 15881 C 1570.19 0.19667 -1.72885 0
M  V30 15882 O 1571.37 0.0287402 -2.01379 0
M  V30 15883 C 1568.43 -0.28304 -3.45543 0
M  V30 15884 C 1567.49 -1.35748 -4.07273 0
M  V30 15885 C 1566.73 -0.848855 -5.26906 0
M  V30 15886 O 1566.95 0.315104 -5.69529 0
M  V30 15887 O 1565.88 -1.62128 -5.79653 0
M  V30 15888 H 1569.71 -1.73663 -2.49148 0
M  V30 15889 H 1567.29 -0.907391 -1.18688 0
M  V30 15890 H 1569.18 0.00956876 -4.21399 0
M  V30 15891 H 1567.85 0.609018 -3.17919 0
M  V30 15892 H 1566.76 -1.70334 -3.33072 0
M  V30 15893 H 1568.09 -2.22353 -4.39113 0
M  V30 15894 N 1569.74 1.27735 -0.923117 0
M  V30 15895 C 1570.99 1.94185 -0.56004 0
M  V30 15896 C 1571.31 1.72945 0.90084 0
M  V30 15897 O 1570.58 1.07453 1.63801 0
M  V30 15898 H 1569.16 0.718568 -0.204129 0
M  V30 15899 H 1571.82 1.55535 -1.17451 0
M  V30 15900 H 1570.92 3.02644 -0.762424 0
M  V30 15901 N 1571.22 0.688118 1.41784 0
M  V30 15902 C 1572.47 0.216263 2.01644 0
M  V30 15903 C 1572.8 -1.17861 1.54345 0
M  V30 15904 O 1572.07 -1.794 0.751392 0
M  V30 15905 C 1572.36 0.265663 3.59119 0
M  V30 15906 C 1572.21 1.69694 4.16562 0
M  V30 15907 C 1573.53 -0.378713 4.38468 0
M  V30 15908 H 1570.65 0.0800582 0.732639 0
M  V30 15909 H 1573.29 0.875428 1.68631 0
M  V30 15910 H 1571.44 -0.295588 3.87374 0
M  V30 15911 H 1573.11 2.31146 3.9921 0
M  V30 15912 H 1571.36 2.23345 3.71886 0
M  V30 15913 H 1572.03 1.68309 5.25715 0
M  V30 15914 H 1574.5 0.0991969 4.15982 0
M  V30 15915 H 1573.38 -0.31357 5.48004 0
M  V30 15916 H 1573.64 -1.45832 4.17355 0
M  V30 15917 N 1572.7 -1.51554 0.432352 0
M  V30 15918 C 1573.93 -2.06162 -0.134405 0
M  V30 15919 C 1574.34 -1.30027 -1.37439 0
M  V30 15920 O 1573.68 -0.351793 -1.803 0
M  V30 15921 C 1573.74 -3.55617 -0.526926 0
M  V30 15922 C 1573.41 -4.5297 0.605559 0
M  V30 15923 C 1574.4 -4.98502 1.47619 0
M  V30 15924 C 1572.09 -4.9613 0.784871 0
M  V30 15925 C 1574.08 -5.85861 2.51088 0
M  V30 15926 C 1571.77 -5.8328 1.82284 0
M  V30 15927 C 1572.77 -6.28043 2.68423 0
M  V30 15928 O 1572.45 -7.13464 3.70438 0
M  V30 15929 H 1572.19 -0.675863 -0.0135879 0
M  V30 15930 H 1574.74 -1.96172 0.608761 0
M  V30 15931 H 1572.97 -3.63374 -1.32272 0
M  V30 15932 H 1574.66 -3.92764 -1.02426 0
M  V30 15933 H 1575.43 -4.65857 1.34917 0
M  V30 15934 H 1571.3 -4.60833 0.123986 0
M  V30 15935 H 1574.85 -6.20722 3.18356 0
M  V30 15936 H 1570.75 -6.15339 1.95008 0
M  V30 15937 H 1571.51 -7.3163 3.6696 0
M  V30 15938 N 1574.18 -0.163538 -1.56749 0
M  V30 15939 C 1575.43 0.483453 -1.9582 0
M  V30 15940 C 1575.74 1.64913 -1.05181 0
M  V30 15941 O 1576.94 2.36184 -1.33901 0
M  V30 15942 C 1575.4 0.911471 -3.48167 0
M  V30 15943 C 1575.01 -0.228178 -4.47419 0
M  V30 15944 C 1576.75 1.52732 -3.96072 0
M  V30 15945 C 1574.66 0.219036 -5.90994 0
M  V30 15946 H 1573.59 0.184383 -0.731108 0
M  V30 15947 H 1576.24 -0.250527 -1.81782 0
M  V30 15948 H 1574.62 1.7012 -3.57596 0
M  V30 15949 H 1575.8 -1.0054 -4.49698 0
M  V30 15950 H 1574.11 -0.753485 -4.09526 0
M  V30 15951 H 1576.71 1.87383 -5.00791 0
M  V30 15952 H 1577.05 2.42239 -3.38565 0
M  V30 15953 H 1577.58 0.802176 -3.89628 0
M  V30 15954 H 1574.32 -0.641066 -6.52358 0
M  V30 15955 H 1573.84 0.96178 -5.92039 0
M  V30 15956 H 1575.52 0.665524 -6.43568 0
M  V30 15957 N 1575.65 1.57214 0.110213 0
M  V30 15958 C 1576.89 1.87133 0.822229 0
M  V30 15959 C 1577.26 0.752645 1.76633 0
M  V30 15960 O 1578.46 0.933837 2.52057 0
M  V30 15961 C 1576.73 3.22286 1.54487 0
M  V30 15962 S 1578.29 3.73861 2.29725 0
M  V30 15963 H 1575.11 0.65598 0.274248 0
M  V30 15964 H 1577.71 1.95336 0.0801112 0
M  V30 15965 H 1576.41 4.0164 0.84343 0
M  V30 15966 H 1575.94 3.17184 2.32719 0
M  V30 15967 H 1577.96 3.46066 3.55602 0
M  V30 15968 N 1577.13 -0.380637 1.52934 0
M  V30 15969 C 1578.04 -1.48957 1.81243 0
M  V30 15970 C 1579.06 -1.5931 0.69974 0
M  V30 15971 O 1580.23 -1.75488 0.988218 0
M  V30 15972 C 1577.3 -2.84397 1.9829 0
M  V30 15973 C 1576.36 -2.83697 3.22202 0
M  V30 15974 C 1575.59 -4.12677 3.38427 0
M  V30 15975 O 1575.82 -5.08068 2.59274 0
M  V30 15976 O 1574.75 -4.19407 4.31719 0
M  V30 15977 H 1578.58 -1.27964 2.75425 0
M  V30 15978 H 1576.16 -0.56929 1.38128 0
M  V30 15979 H 1578.04 -3.64676 2.11161 0
M  V30 15980 H 1576.72 -3.054 1.07298 0
M  V30 15981 H 1575.63 -2.0217 3.14767 0
M  V30 15982 H 1576.96 -2.67648 4.13068 0
M  V30 15983 N 1578.61 -1.44039 -0.639573 0
M  V30 15984 C 1579.57 -1.49907 -1.7338 0
M  V30 15985 C 1580.57 -0.382101 -1.56194 0
M  V30 15986 O 1581.76 -0.644396 -1.61843 0
M  V30 15987 C 1578.9 -1.36486 -3.12385 0
M  V30 15988 H 1580.09 -2.4737 -1.69553 0
M  V30 15989 H 1577.64 -1.31006 -0.852474 0
M  V30 15990 H 1578.38 -0.400845 -3.21813 0
M  V30 15991 H 1578.16 -2.17471 -3.26265 0
M  V30 15992 H 1579.65 -1.43555 -3.9215 0
M  V30 15993 N 1580.09 0.879207 -1.30796 0
M  V30 15994 C 1581.31 1.66975 -1.23021 0
M  V30 15995 C 1581.74 1.87004 0.202798 0
M  V30 15996 O 1581.1 1.40514 1.14566 0
M  V30 15997 C 1581.14 3.02028 -1.97007 0
M  V30 15998 O 1580.25 3.91338 -1.30109 0
M  V30 15999 H 1579.59 0.509998 -0.425204 0
M  V30 16000 H 1582.12 1.09688 -1.72713 0
M  V30 16001 H 1582.13 3.5203 -2.06249 0
M  V30 16002 H 1580.8 2.8677 -3.01224 0
M  V30 16003 H 1579.38 3.49781 -1.29258 0
M  V30 16004 N 1581.57 1.13606 1.09231 0
M  V30 16005 C 1582.52 0.810747 2.18013 0
M  V30 16006 C 1583.51 -0.207782 1.68121 0
M  V30 16007 O 1584.72 -0.0647274 1.79884 0
M  V30 16008 H 1581.09 0.244415 0.711172 0
M  V30 16009 H 1583.06 1.73632 2.42682 0
M  V30 16010 C 1581.81 0.295302 3.46444 0
M  V30 16011 H 1581.13 1.07037 3.85205 0
M  V30 16012 H 1582.57 0.106127 4.23867 0
M  V30 16013 C 1581.03 -0.979398 3.2235 0
M  V30 16014 O 1581.56 -2.05483 3.45166 0
M  V30 16015 N 1579.77 -0.911282 2.75942 0
M  V30 16016 H 1579.32 -0.035979 2.57575 0
M  V30 16017 H 1579.27 -1.76476 2.60199 0
M  V30 16018 N 1583.05 -1.27244 0.929878 0
M  V30 16019 C 1584.27 -1.98373 0.587845 0
M  V30 16020 C 1584.69 -1.69349 -0.834638 0
M  V30 16021 O 1584.05 -0.955281 -1.55501 0
M  V30 16022 C 1584.1 -3.52381 0.806843 0
M  V30 16023 O 1583.82 -3.8039 2.17337 0
M  V30 16024 C 1585.32 -4.40761 0.473818 0
M  V30 16025 H 1582.54 -0.633015 0.22256 0
M  V30 16026 H 1585.08 -1.62043 1.2475 0
M  V30 16027 H 1583.24 -3.86914 0.193963 0
M  V30 16028 H 1583.65 -4.74968 2.22498 0
M  V30 16029 H 1585.13 -5.47824 0.677736 0
M  V30 16030 H 1585.6 -4.35209 -0.590734 0
M  V30 16031 H 1586.21 -4.11751 1.06493 0
M  V30 16032 N 1584.52 -0.695628 -1.41417 0
M  V30 16033 C 1585.45 -0.0447013 -2.33457 0
M  V30 16034 C 1586.43 0.767104 -1.51821 0
M  V30 16035 O 1587.62 0.720066 -1.80357 0
M  V30 16036 C 1584.75 0.892353 -3.3564 0
M  V30 16037 C 1583.7 0.187638 -4.27588 0
M  V30 16038 C 1583.03 1.23906 -5.20146 0
M  V30 16039 C 1584.33 -0.946093 -5.1366 0
M  V30 16040 H 1586.02 -0.81343 -2.88138 0
M  V30 16041 H 1583.57 -0.392614 -1.38544 0
M  V30 16042 H 1585.52 1.35696 -3.98954 0
M  V30 16043 H 1584.25 1.69275 -2.79309 0
M  V30 16044 H 1582.91 -0.256942 -3.65698 0
M  V30 16045 H 1582.55 2.03198 -4.6013 0
M  V30 16046 H 1582.25 0.772536 -5.82499 0
M  V30 16047 H 1583.78 1.70417 -5.86336 0
M  V30 16048 H 1585.19 -0.561764 -5.70541 0
M  V30 16049 H 1583.59 -1.33971 -5.84954 0
M  V30 16050 H 1584.66 -1.78573 -4.50821 0
M  V30 16051 N 1586 1.51322 -0.440383 0
M  V30 16052 C 1587.25 2.01714 0.124815 0
M  V30 16053 C 1587.57 1.32634 1.42945 0
M  V30 16054 O 1586.84 0.461849 1.90378 0
M  V30 16055 H 1585.42 0.745384 0.049116 0
M  V30 16056 H 1588.08 1.85951 -0.583787 0
M  V30 16057 H 1587.18 3.10669 0.29853 0
M  V30 16058 N 1587.48 0.171848 1.5666 0
M  V30 16059 C 1588.41 -0.789671 2.15167 0
M  V30 16060 C 1589.42 -1.19335 1.10739 0
M  V30 16061 O 1590.61 -1.13311 1.37924 0
M  V30 16062 C 1587.71 -2.07448 2.6799 0
M  V30 16063 C 1586.89 -1.83429 3.9708 0
M  V30 16064 C 1585.95 -2.96134 4.34961 0
M  V30 16065 O 1584.97 -2.66746 5.02827 0
M  V30 16066 N 1586.17 -4.23932 3.96563 0
M  V30 16067 H 1588.94 -0.289484 2.98299 0
M  V30 16068 H 1586.5 -0.0109154 1.61896 0
M  V30 16069 H 1588.49 -2.81941 2.90329 0
M  V30 16070 H 1587.06 -2.48656 1.89444 0
M  V30 16071 H 1586.28 -0.928376 3.83112 0
M  V30 16072 H 1587.57 -1.64749 4.81389 0
M  V30 16073 H 1586.97 -4.50668 3.41928 0
M  V30 16074 H 1585.52 -4.95126 4.23903 0
M  V30 16075 N 1588.96 -1.5727 -0.101874 0
M  V30 16076 C 1589.92 -2.00625 -1.10826 0
M  V30 16077 C 1590.92 -0.89878 -1.33336 0
M  V30 16078 O 1592.11 -1.16442 -1.29564 0
M  V30 16079 C 1589.24 -2.36113 -2.45893 0
M  V30 16080 H 1590.44 -2.90748 -0.735238 0
M  V30 16081 H 1587.99 -1.52406 -0.346713 0
M  V30 16082 H 1588.72 -1.48923 -2.88084 0
M  V30 16083 H 1588.51 -3.169 -2.30904 0
M  V30 16084 H 1590 -2.70336 -3.1829 0
M  V30 16085 N 1590.44 0.372521 -1.53134 0
M  V30 16086 C 1591.66 1.14116 -1.73183 0
M  V30 16087 C 1592.09 1.82475 -0.456553 0
M  V30 16088 O 1591.44 1.71468 0.588919 0
M  V30 16089 C 1591.49 2.15241 -2.89316 0
M  V30 16090 O 1590.6 3.22178 -2.57439 0
M  V30 16091 H 1589.94 0.331442 -0.575362 0
M  V30 16092 H 1592.47 0.431769 -1.99992 0
M  V30 16093 H 1592.48 2.58961 -3.15283 0
M  V30 16094 H 1591.15 1.64877 -3.81822 0
M  V30 16095 H 1589.73 2.83481 -2.42267 0
M  V30 16096 N 1591.91 1.44376 0.631925 0
M  V30 16097 C 1592.88 1.50825 1.72582 0
M  V30 16098 C 1593.88 0.390379 1.55989 0
M  V30 16099 O 1595.07 0.65297 1.61499 0
M  V30 16100 C 1592.2 1.38141 3.11657 0
M  V30 16101 H 1593.39 2.48265 1.68239 0
M  V30 16102 H 1590.94 1.31456 0.845514 0
M  V30 16103 H 1591.68 0.417905 3.21596 0
M  V30 16104 H 1591.46 2.19198 3.25107 0
M  V30 16105 H 1592.95 1.45633 3.91383 0
M  V30 16106 N 1593.39 -0.872258 1.31261 0
M  V30 16107 C 1594.62 -1.6632 1.23905 0
M  V30 16108 C 1595.04 -1.87109 -0.192878 0
M  V30 16109 O 1594.4 -1.4112 -1.1382 0
M  V30 16110 C 1594.45 -3.00979 1.98606 0
M  V30 16111 O 1593.55 -3.90642 1.32183 0
M  V30 16112 H 1592.89 -0.507736 0.427902 0
M  V30 16113 H 1595.42 -1.0877 1.73292 0
M  V30 16114 H 1595.43 -3.50931 2.08113 0
M  V30 16115 H 1594.11 -2.85168 3.02741 0
M  V30 16116 H 1592.68 -3.4909 1.31112 0
M  V30 16117 N 1594.87 -1.14184 -1.08627 0
M  V30 16118 C 1595.83 -0.82954 -2.13662 0
M  V30 16119 C 1596.83 0.164794 -1.59953 0
M  V30 16120 O 1598.02 -0.0632831 -1.74085 0
M  V30 16121 C 1595.15 -0.236176 -3.40081 0
M  V30 16122 H 1596.35 -1.76038 -2.42797 0
M  V30 16123 H 1593.9 -0.947568 -1.24301 0
M  V30 16124 H 1594.64 0.70349 -3.16578 0
M  V30 16125 H 1594.42 -0.952341 -3.80359 0
M  V30 16126 H 1595.91 -0.03481 -4.17585 0
M  V30 16127 N 1596.35 1.26749 -0.936613 0
M  V30 16128 C 1597.63 1.89106 -0.49981 0
M  V30 16129 C 1598.01 1.84687 1.02244 0
M  V30 16130 O 1597.35 1.2981 1.88047 0
M  V30 16131 C 1597.56 3.32641 -1.05598 0
M  V30 16132 C 1598.91 4.09511 -1.12187 0
M  V30 16133 O 1599.94 3.41692 -1.00624 0
M  V30 16134 O 1598.79 5.30785 -1.30113 0
M  V30 16135 H 1595.89 0.810941 -0.162185 0
M  V30 16136 H 1598.43 1.34952 -1.02888 0
M  V30 16137 H 1597.21 3.30196 -2.09968 0
M  V30 16138 H 1596.83 3.94327 -0.509086 0
M  V30 16139 N 1597.83 0.703118 1.41046 0
M  V30 16140 C 1599.07 0.237287 2.01105 0
M  V30 16141 C 1599.4 -1.16552 1.55711 0
M  V30 16142 O 1598.66 -1.80233 0.762533 0
M  V30 16143 C 1598.96 0.251575 3.56513 0
M  V30 16144 C 1598.62 1.60295 4.21446 0
M  V30 16145 C 1597.28 1.9729 4.38897 0
M  V30 16146 C 1599.64 2.49167 4.57783 0
M  V30 16147 C 1596.96 3.22726 4.89964 0
M  V30 16148 C 1599.32 3.73943 5.10244 0
M  V30 16149 C 1597.98 4.11072 5.25905 0
M  V30 16150 H 1597.25 0.0868294 0.735895 0
M  V30 16151 H 1599.9 0.903695 1.68836 0
M  V30 16152 H 1598.2 -0.498393 3.88617 0
M  V30 16153 H 1599.9 -0.126501 4.008 0
M  V30 16154 H 1596.49 1.30523 4.08242 0
M  V30 16155 H 1600.67 2.21864 4.43948 0
M  V30 16156 H 1595.93 3.51477 5.00274 0
M  V30 16157 H 1600.1 4.42988 5.3734 0
M  V30 16158 H 1597.73 5.0834 5.65239 0
M  V30 16159 N 1599.3 -1.51086 0.448402 0
M  V30 16160 C 1600.58 -1.94817 -0.174819 0
M  V30 16161 C 1600.96 -1.38767 -1.59081 0
M  V30 16162 O 1600.31 -0.579257 -2.21036 0
M  V30 16163 C 1600.52 -3.48714 -0.14129 0
M  V30 16164 C 1601.87 -4.23225 -0.341414 0
M  V30 16165 O 1602.89 -3.55527 -0.218908 0
M  V30 16166 O 1601.75 -5.43346 -0.586331 0
M  V30 16167 H 1598.84 -0.817652 -0.12399 0
M  V30 16168 H 1601.39 -1.61944 0.507177 0
M  V30 16169 H 1600.16 -3.81996 0.848222 0
M  V30 16170 H 1599.79 -3.88061 -0.865722 0
M  V30 16171 N 1600.78 -0.180154 -1.56567 0
M  V30 16172 C 1601.75 0.732809 -2.17169 0
M  V30 16173 C 1602.75 1.15176 -1.1221 0
M  V30 16174 O 1603.94 1.06728 -1.37677 0
M  V30 16175 C 1601.07 1.99857 -2.7617 0
M  V30 16176 H 1602.26 0.205088 -2.99198 0
M  V30 16177 H 1599.81 0.0694351 -1.56146 0
M  V30 16178 H 1600.55 2.56917 -1.97899 0
M  V30 16179 H 1600.33 1.70705 -3.5299 0
M  V30 16180 H 1601.82 2.64992 -3.22752 0
M  V30 16181 N 1602.26 1.57322 0.0935319 0
M  V30 16182 C 1603.19 1.98861 1.13961 0
M  V30 16183 C 1604.21 0.891385 1.36228 0
M  V30 16184 O 1605.39 1.16949 1.34853 0
M  V30 16185 C 1602.49 2.29369 2.49485 0
M  V30 16186 C 1601.67 3.6066 2.47473 0
M  V30 16187 C 1600.73 3.79087 3.64937 0
M  V30 16188 O 1599.75 4.50923 3.47357 0
M  V30 16189 N 1600.95 3.19784 4.84478 0
M  V30 16190 H 1603.72 2.89208 0.786048 0
M  V30 16191 H 1601.28 1.59416 0.282491 0
M  V30 16192 H 1603.27 2.38889 3.26671 0
M  V30 16193 H 1601.84 1.45021 2.76925 0
M  V30 16194 H 1601.06 3.62095 1.55823 0
M  V30 16195 H 1602.35 4.46908 2.43209 0
M  V30 16196 H 1601.75 2.61436 5.01665 0
M  V30 16197 H 1600.31 3.34786 5.59251 0
M  V30 16198 N 1603.74 -0.364395 1.53329 0
M  V30 16199 C 1604.7 -1.42927 1.79178 0
M  V30 16200 C 1605.7 -1.4653 0.662235 0
M  V30 16201 O 1606.89 -1.4727 0.930442 0
M  V30 16202 C 1604.02 -2.82035 1.91492 0
M  V30 16203 H 1605.22 -1.21281 2.74283 0
M  V30 16204 H 1602.77 -0.597596 1.44425 0
M  V30 16205 H 1603.5 -3.08993 0.984579 0
M  V30 16206 H 1603.29 -2.80818 2.73649 0
M  V30 16207 H 1604.78 -3.59148 2.13078 0
M  V30 16208 N 1605.22 -1.44709 -0.62426 0
M  V30 16209 C 1606.46 -1.48072 -1.38573 0
M  V30 16210 C 1606.8 -0.115532 -1.93856 0
M  V30 16211 O 1606.07 0.867787 -1.74068 0
M  V30 16212 C 1606.35 -2.54662 -2.54596 0
M  V30 16213 C 1606.21 -4.00564 -2.04618 0
M  V30 16214 C 1607.53 -2.57689 -3.56769 0
M  V30 16215 H 1604.64 -0.539119 -0.502513 0
M  V30 16216 H 1607.29 -1.76427 -0.705225 0
M  V30 16217 H 1605.44 -2.30614 -3.12649 0
M  V30 16218 H 1607.11 -4.35767 -1.51343 0
M  V30 16219 H 1605.35 -4.12014 -1.35746 0
M  V30 16220 H 1606.02 -4.70804 -2.8818 0
M  V30 16221 H 1608.5 -2.79194 -3.08529 0
M  V30 16222 H 1607.37 -3.34161 -4.35462 0
M  V30 16223 H 1607.64 -1.62146 -4.11292 0
M  V30 16224 N 1606.69 0.865285 -1.31722 0
M  V30 16225 C 1607.64 1.99433 -1.19704 0
M  V30 16226 C 1608.64 1.69079 -0.104255 0
M  V30 16227 O 1609.84 1.78017 -0.266466 0
M  V30 16228 H 1606.22 0.654244 -0.370768 0
M  V30 16229 H 1608.19 2.06699 -2.15216 0
M  V30 16230 C 1606.94 3.35142 -0.926027 0
M  V30 16231 H 1606.26 3.59022 -1.75906 0
M  V30 16232 H 1607.7 4.14722 -0.88214 0
M  V30 16233 C 1606.16 3.34848 0.37124 0
M  V30 16234 O 1606.69 3.77012 1.38654 0
M  V30 16235 N 1604.9 2.87979 0.389441 0
M  V30 16236 H 1604.44 2.53861 -0.437293 0
M  V30 16237 H 1604.4 2.88165 1.25731 0
M  V30 16238 N 1608.17 1.14759 1.0802 0
M  V30 16239 C 1609.42 0.919609 1.80751 0
M  V30 16240 C 1609.75 -0.552268 1.86182 0
M  V30 16241 O 1609.03 -1.40922 1.34057 0
M  V30 16242 C 1609.31 1.52611 3.26162 0
M  V30 16243 C 1609.16 3.06811 3.28918 0
M  V30 16244 C 1610.48 1.20625 4.23246 0
M  V30 16245 H 1607.6 0.33551 0.656203 0
M  V30 16246 H 1610.24 1.41816 1.26444 0
M  V30 16247 H 1608.39 1.10213 3.72539 0
M  V30 16248 H 1610.06 3.58068 2.90835 0
M  V30 16249 H 1608.31 3.41055 2.68075 0
M  V30 16250 H 1608.98 3.44357 4.31419 0
M  V30 16251 H 1611.45 1.57287 3.85227 0
M  V30 16252 H 1610.33 1.65689 5.23296 0
M  V30 16253 H 1610.59 0.122177 4.41931 0
M  V30 16254 N 1609.65 -1.26251 0.943322 0
M  V30 16255 C 1610.58 -2.25468 0.411904 0
M  V30 16256 C 1611.6 -1.55988 -0.466005 0
M  V30 16257 O 1612.78 -1.76352 -0.276106 0
M  V30 16258 C 1609.88 -3.362 -0.426909 0
M  V30 16259 C 1609.06 -4.35228 0.435346 0
M  V30 16260 C 1608.12 -5.25078 -0.343388 0
M  V30 16261 O 1607.14 -5.68632 0.254322 0
M  V30 16262 N 1608.34 -5.5687 -1.63939 0
M  V30 16263 H 1611.11 -2.71701 1.26486 0
M  V30 16264 H 1608.67 -1.40039 0.812438 0
M  V30 16265 H 1610.66 -3.93263 -0.955316 0
M  V30 16266 H 1609.23 -2.89446 -1.18067 0
M  V30 16267 H 1608.45 -3.77206 1.14495 0
M  V30 16268 H 1609.74 -4.98384 1.02427 0
M  V30 16269 H 1609.14 -5.2337 -2.14709 0
M  V30 16270 H 1607.7 -6.16566 -2.11399 0
M  V30 16271 N 1611.13 -0.710588 -1.40671 0
M  V30 16272 C 1612.38 -0.248316 -2.01274 0
M  V30 16273 C 1612.71 1.1539 -1.56201 0
M  V30 16274 O 1611.98 1.78182 -0.779838 0
M  V30 16275 C 1612.27 -0.322762 -3.58651 0
M  V30 16276 C 1612.12 -1.763 -4.1381 0
M  V30 16277 C 1613.44 0.308908 -4.39015 0
M  V30 16278 H 1610.56 -0.0917037 -0.731272 0
M  V30 16279 H 1613.2 -0.902145 -1.67216 0
M  V30 16280 H 1611.35 0.233923 -3.87795 0
M  V30 16281 H 1613.02 -2.37468 -3.95483 0
M  V30 16282 H 1611.26 -2.29233 -3.68286 0
M  V30 16283 H 1611.94 -1.76652 -5.22971 0
M  V30 16284 H 1614.41 -0.165363 -4.15771 0
M  V30 16285 H 1613.29 0.226347 -5.48433 0
M  V30 16286 H 1613.55 1.39174 -4.19622 0
M  V30 16287 N 1612.61 1.50847 -0.456408 0
M  V30 16288 C 1613.85 2.03174 0.0959527 0
M  V30 16289 C 1614.21 1.33328 1.38713 0
M  V30 16290 O 1613.5 0.44539 1.86351 0
M  V30 16291 C 1613.7 3.55678 0.350374 0
M  V30 16292 C 1613.52 4.40301 -0.914596 0
M  V30 16293 C 1612.29 4.83939 -1.45367 0
M  V30 16294 C 1614.49 4.81547 -1.80601 0
M  V30 16295 N 1612.47 5.52836 -2.66919 0
M  V30 16296 C 1613.85 5.49705 -2.86747 0
M  V30 16297 C 1615.9 4.63517 -1.81815 0
M  V30 16298 C 1614.6 6.01743 -3.94078 0
M  V30 16299 C 1616.63 5.16485 -2.88093 0
M  V30 16300 C 1615.99 5.84605 -3.92958 0
M  V30 16301 H 1612.09 0.781987 -0.00454189 0
M  V30 16302 H 1614.67 1.8452 -0.62134 0
M  V30 16303 H 1612.85 3.74309 1.0367 0
M  V30 16304 H 1614.58 3.94662 0.895777 0
M  V30 16305 H 1611.33 4.62816 -1.0049 0
M  V30 16306 H 1611.76 5.919 -3.28608 0
M  V30 16307 H 1616.4 4.10296 -1.02064 0
M  V30 16308 H 1614.12 6.54009 -4.74655 0
M  V30 16309 H 1617.7 5.04374 -2.89997 0
M  V30 16310 H 1616.58 6.24854 -4.73843 0
M  V30 16311 N 1614.09 0.188454 1.56469 0
M  V30 16312 C 1615.5 -0.325309 1.83844 0
M  V30 16313 C 1615.85 -1.61858 1.1089 0
M  V30 16314 O 1614.97 -2.13256 0.36752 0
M  V30 16315 C 1615.57 -0.597002 3.33499 0
M  V30 16316 C 1614.13 -1.05515 3.61308 0
M  V30 16317 C 1613.27 -0.100182 2.77119 0
M  V30 16318 H 1616.22 0.412378 1.53249 0
M  V30 16319 H 1616.25 -1.44709 3.51908 0
M  V30 16320 H 1615.76 0.344429 3.86569 0
M  V30 16321 H 1613.86 -2.01109 3.13665 0
M  V30 16322 H 1613.97 -0.952461 4.69537 0
M  V30 16323 H 1612.34 -0.600815 2.47512 0
M  V30 16324 H 1613.12 0.835574 3.32976 0
M  V30 16325 N 1615.56 -1.5737 -0.0851874 0
M  V30 16326 C 1616.81 -1.86219 -0.7853 0
M  V30 16327 C 1617.13 -0.77857 -1.78783 0
M  V30 16328 O 1616.4 0.194176 -1.94935 0
M  V30 16329 H 1614.98 -0.687134 -0.293013 0
M  V30 16330 H 1617.64 -1.94793 -0.0644597 0
M  V30 16331 H 1616.74 -2.83286 -1.30978 0
M  V30 16332 N 1617.04 0.356258 -1.53521 0
M  V30 16333 C 1618 1.41975 -1.79933 0
M  V30 16334 C 1619 1.46177 -0.669997 0
M  V30 16335 O 1620.19 1.46774 -0.938239 0
M  V30 16336 C 1617.33 2.81015 -1.92985 0
M  V30 16337 H 1618.52 1.19824 -2.74922 0
M  V30 16338 H 1616.07 0.589928 -1.4474 0
M  V30 16339 H 1616.81 3.08466 -1.00095 0
M  V30 16340 H 1616.59 2.79363 -2.75135 0
M  V30 16341 H 1618.08 3.58013 -2.1498 0
M  V30 16342 N 1618.52 1.45038 0.616577 0
M  V30 16343 C 1619.75 1.52094 1.40267 0
M  V30 16344 C 1620.16 0.150558 1.88199 0
M  V30 16345 O 1619.52 -0.846258 1.61693 0
M  V30 16346 C 1619.57 2.49786 2.61322 0
M  V30 16347 O 1619.29 3.81498 2.15385 0
M  V30 16348 C 1620.79 2.66451 3.54286 0
M  V30 16349 H 1618.01 0.515378 0.429681 0
M  V30 16350 H 1620.56 1.90141 0.752768 0
M  V30 16351 H 1618.71 2.14835 3.22373 0
M  V30 16352 H 1619.13 4.34374 2.93972 0
M  V30 16353 H 1620.6 3.38802 4.35795 0
M  V30 16354 H 1621.08 1.72177 4.04044 0
M  V30 16355 H 1621.68 3.02362 2.99095 0
M  V30 16356 N 1620 -0.858287 1.32179 0
M  V30 16357 C 1621.24 -1.6146 1.22713 0
M  V30 16358 C 1621.58 -1.93045 -0.211479 0
M  V30 16359 O 1620.85 -1.57034 -1.14764 0
M  V30 16360 C 1621.13 -2.93728 2.08317 0
M  V30 16361 C 1620.99 -2.68947 3.60538 0
M  V30 16362 C 1622.31 -3.94959 1.94153 0
M  V30 16363 H 1619.43 -0.585872 0.447128 0
M  V30 16364 H 1622.07 -0.99134 1.62088 0
M  V30 16365 H 1620.22 -3.4692 1.74867 0
M  V30 16366 H 1621.89 -2.22336 4.04183 0
M  V30 16367 H 1620.13 -2.02974 3.83385 0
M  V30 16368 H 1620.8 -3.63112 4.15756 0
M  V30 16369 H 1623.28 -3.51013 2.23449 0
M  V30 16370 H 1622.16 -4.85371 2.56332 0
M  V30 16371 H 1622.42 -4.32672 0.908132 0
M  V30 16372 N 1621.48 -1.1533 -1.07409 0
M  V30 16373 C 1622.89 -0.895817 -1.32088 0
M  V30 16374 C 1623.09 0.457526 -1.96237 0
M  V30 16375 O 1622.15 1.19958 -2.22185 0
M  V30 16376 C 1623.46 -2.03632 -2.21256 0
M  V30 16377 C 1625.01 -2.07079 -2.34707 0
M  V30 16378 C 1625.48 -3.20451 -3.27223 0
M  V30 16379 N 1626.97 -3.20095 -3.34804 0
M  V30 16380 C 1627.71 -4.04458 -4.0645 0
M  V30 16381 N 1627.21 -4.98883 -4.80715 0
M  V30 16382 N 1629 -3.92483 -4.02385 0
M  V30 16383 H 1621.15 -2.02478 -0.641578 0
M  V30 16384 H 1623.41 -0.882864 -0.345332 0
M  V30 16385 H 1623.12 -3.0132 -1.81381 0
M  V30 16386 H 1622.99 -1.96817 -3.21781 0
M  V30 16387 H 1625.38 -1.09991 -2.73836 0
M  V30 16388 H 1625.46 -2.17962 -1.3389 0
M  V30 16389 H 1625.1 -4.17791 -2.88813 0
M  V30 16390 H 1625.03 -3.06805 -4.27993 0
M  V30 16391 H 1627.53 -2.51712 -2.81868 0
M  V30 16392 H 1627.84 -5.59698 -5.32877 0
M  V30 16393 H 1626.18 -5.02872 -4.79734 0
M  V30 16394 H 1629.37 -3.18026 -3.43478 0
M  V30 16395 H 1629.55 -4.58454 -4.57956 0
M  V30 16396 N 1622.95 1.25748 -0.950004 0
M  V30 16397 C 1623.86 2.29783 -0.472971 0
M  V30 16398 C 1624.88 1.6788 0.457403 0
M  V30 16399 O 1626.06 1.98598 0.334779 0
M  V30 16400 C 1623.12 3.45826 0.245955 0
M  V30 16401 C 1622.18 4.23184 -0.722063 0
M  V30 16402 C 1621.41 5.33687 -0.0373517 0
M  V30 16403 O 1621.64 5.58105 1.1779 0
M  V30 16404 O 1620.57 5.97572 -0.72054 0
M  V30 16405 H 1624.4 2.72668 -1.33737 0
M  V30 16406 H 1621.98 1.31111 -0.71626 0
M  V30 16407 H 1623.86 4.16348 0.650563 0
M  V30 16408 H 1622.54 3.04953 1.0856 0
M  V30 16409 H 1621.45 3.55109 -1.17679 0
M  V30 16410 H 1622.78 4.67829 -1.52959 0
M  V30 16411 N 1624.43 0.718038 1.40292 0
M  V30 16412 C 1625.68 0.258092 2.00445 0
M  V30 16413 C 1626 -1.15347 1.57226 0
M  V30 16414 O 1625.27 -1.78241 0.812822 0
M  V30 16415 H 1623.85 0.0924316 0.741259 0
M  V30 16416 H 1626.51 0.924216 1.71593 0
M  V30 16417 H 1625.61 0.293113 3.10721 0
M  V30 16418 N 1625.91 -1.50602 0.464402 0
M  V30 16419 C 1626.84 -2.26203 -0.36943 0
M  V30 16420 C 1627.86 -1.31269 -0.962924 0
M  V30 16421 O 1629.04 -1.56829 -0.852465 0
M  V30 16422 C 1626.14 -3.02323 -1.53147 0
M  V30 16423 C 1625.32 -4.24561 -1.05198 0
M  V30 16424 C 1624.38 -4.83031 -2.08729 0
M  V30 16425 O 1623.4 -5.44131 -1.67062 0
M  V30 16426 N 1624.6 -4.6944 -3.41477 0
M  V30 16427 H 1627.37 -2.98402 0.278652 0
M  V30 16428 H 1624.93 -1.59193 0.294803 0
M  V30 16429 H 1626.92 -3.38319 -2.22086 0
M  V30 16430 H 1625.49 -2.32965 -2.08438 0
M  V30 16431 H 1624.71 -3.93748 -0.188705 0
M  V30 16432 H 1626 -5.0383 -0.709434 0
M  V30 16433 H 1625.4 -4.20832 -3.78044 0
M  V30 16434 H 1623.96 -5.09724 -4.06233 0
M  V30 16435 N 1627.39 -0.19675 -1.56367 0
M  V30 16436 C 1628.32 0.718607 -2.22167 0
M  V30 16437 C 1629.3 1.22002 -1.1853 0
M  V30 16438 O 1630.48 1.26856 -1.47042 0
M  V30 16439 C 1627.61 1.93753 -2.88231 0
M  V30 16440 C 1626.57 1.57096 -3.98127 0
M  V30 16441 C 1625.89 2.86663 -4.51363 0
M  V30 16442 C 1627.19 0.779649 -5.16448 0
M  V30 16443 H 1628.89 0.170064 -2.98917 0
M  V30 16444 H 1626.43 0.0803568 -1.43776 0
M  V30 16445 H 1628.39 2.58312 -3.32946 0
M  V30 16446 H 1627.11 2.51063 -2.0889 0
M  V30 16447 H 1625.77 0.948947 -3.54105 0
M  V30 16448 H 1625.42 3.42066 -3.68782 0
M  V30 16449 H 1625.12 2.6288 -5.25517 0
M  V30 16450 H 1626.64 3.52207 -4.98781 0
M  V30 16451 H 1628.06 1.32838 -5.57698 0
M  V30 16452 H 1626.45 0.639882 -5.96679 0
M  V30 16453 H 1627.52 -0.218944 -4.84405 0
M  V30 16454 N 1628.87 1.57413 0.0768405 0
M  V30 16455 C 1630.11 1.87279 0.778099 0
M  V30 16456 C 1630.45 0.788359 1.77478 0
M  V30 16457 O 1629.72 -0.201876 1.9345 0
M  V30 16458 C 1630 3.27801 1.49059 0
M  V30 16459 C 1629.86 4.46892 0.510661 0
M  V30 16460 C 1631.18 3.66485 2.43674 0
M  V30 16461 H 1628.29 0.681159 0.281409 0
M  V30 16462 H 1630.94 1.89955 0.0413711 0
M  V30 16463 H 1629.09 3.2565 2.11859 0
M  V30 16464 H 1630.76 4.61165 -0.111734 0
M  V30 16465 H 1629 4.33449 -0.174445 0
M  V30 16466 H 1629.67 5.41985 1.04671 0
M  V30 16467 H 1632.15 3.69696 1.90955 0
M  V30 16468 H 1631.02 4.65706 2.90533 0
M  V30 16469 H 1631.29 2.96145 3.28254 0
M  V30 16470 N 1630.34 -0.348112 1.53707 0
M  V30 16471 C 1631.29 -1.44755 1.82068 0
M  V30 16472 C 1632.29 -1.54672 0.690865 0
M  V30 16473 O 1633.49 -1.5735 0.874123 0
M  V30 16474 H 1629.87 -0.482562 0.576747 0
M  V30 16475 H 1631.84 -1.18047 2.74058 0
M  V30 16476 C 1630.59 -2.81345 2.04305 0
M  V30 16477 H 1629.91 -2.74479 2.90691 0
M  V30 16478 H 1631.35 -3.57405 2.28117 0
M  V30 16479 C 1629.81 -3.26586 0.827224 0
M  V30 16480 O 1630.34 -4.01693 0.0244098 0
M  V30 16481 N 1628.55 -2.83335 0.645731 0
M  V30 16482 H 1628.09 -2.22379 1.3002 0
M  V30 16483 H 1628.05 -3.1396 -0.166313 0
M  V30 16484 N 1631.82 -1.45363 -0.608876 0
M  V30 16485 C 1632.75 -1.56778 -1.7304 0
M  V30 16486 C 1633.73 -0.419405 -1.64848 0
M  V30 16487 O 1634.92 -0.64238 -1.83268 0
M  V30 16488 C 1632.05 -1.5329 -3.1164 0
M  V30 16489 C 1631 -2.66832 -3.34641 0
M  V30 16490 C 1630.33 -2.48398 -4.735 0
M  V30 16491 C 1631.63 -4.0885 -3.25021 0
M  V30 16492 H 1633.32 -2.50656 -1.63743 0
M  V30 16493 H 1630.87 -1.20635 -0.786338 0
M  V30 16494 H 1632.82 -1.59873 -3.89895 0
M  V30 16495 H 1631.55 -0.559414 -3.21773 0
M  V30 16496 H 1630.2 -2.59675 -2.58775 0
M  V30 16497 H 1629.85 -1.49191 -4.80366 0
M  V30 16498 H 1629.55 -3.24537 -4.89846 0
M  V30 16499 H 1631.08 -2.56833 -5.53958 0
M  V30 16500 H 1632.49 -4.17257 -3.93153 0
M  V30 16501 H 1630.89 -4.85369 -3.52897 0
M  V30 16502 H 1631.96 -4.30849 -2.2248 0
M  V30 16503 N 1633.3 0.851265 -1.32632 0
M  V30 16504 C 1634.53 1.63805 -1.26394 0
M  V30 16505 C 1634.94 1.88056 0.167454 0
M  V30 16506 O 1634.3 1.45196 1.10564 0
M  V30 16507 C 1634.35 2.9954 -2.02381 0
M  V30 16508 O 1634.07 2.76361 -3.39935 0
M  V30 16509 C 1635.57 3.93982 -2.03207 0
M  V30 16510 H 1632.79 0.510088 -0.435948 0
M  V30 16511 H 1635.34 1.06123 -1.74809 0
M  V30 16512 H 1633.49 3.53859 -1.5768 0
M  V30 16513 H 1633.91 3.62708 -3.78871 0
M  V30 16514 H 1635.38 4.86478 -2.60851 0
M  V30 16515 H 1635.86 4.27211 -1.01918 0
M  V30 16516 H 1636.46 3.45601 -2.47871 0
M  V30 16517 N 1634.78 1.15898 1.06796 0
M  V30 16518 C 1636.02 0.947946 1.81089 0
M  V30 16519 C 1636.38 -0.51537 1.84954 0
M  V30 16520 O 1637.58 -0.844928 2.55175 0
M  V30 16521 C 1635.85 1.55214 3.21937 0
M  V30 16522 S 1637.41 1.48502 4.12907 0
M  V30 16523 H 1634.23 0.341025 0.623877 0
M  V30 16524 H 1636.83 1.4755 1.28254 0
M  V30 16525 H 1635.54 2.60996 3.16716 0
M  V30 16526 H 1635.07 1.02369 3.79848 0
M  V30 16527 H 1637.08 0.481773 4.93856 0
M  V30 16528 N 1636.26 -1.25243 0.956659 0
M  V30 16529 C 1637.19 -2.28159 0.496574 0
M  V30 16530 C 1638.17 -1.63814 -0.458132 0
M  V30 16531 O 1639.35 -1.90897 -0.356648 0
M  V30 16532 C 1636.48 -3.46573 -0.22454 0
M  V30 16533 C 1635.44 -4.2311 0.645104 0
M  V30 16534 C 1634.76 -5.343 -0.206867 0
M  V30 16535 C 1636.06 -4.85562 1.92422 0
M  V30 16536 H 1637.76 -2.66895 1.35675 0
M  V30 16537 H 1635.3 -1.28301 0.653827 0
M  V30 16538 H 1637.26 -4.17695 -0.55755 0
M  V30 16539 H 1635.98 -3.06833 -1.11898 0
M  V30 16540 H 1634.64 -3.53774 0.961228 0
M  V30 16541 H 1634.29 -4.908 -1.10112 0
M  V30 16542 H 1633.99 -5.86423 0.371714 0
M  V30 16543 H 1635.51 -6.08253 -0.534798 0
M  V30 16544 H 1636.92 -5.48817 1.65749 0
M  V30 16545 H 1635.32 -5.47871 2.44862 0
M  V30 16546 H 1636.39 -4.07634 2.62607 0
M  V30 16547 N 1637.73 -0.725468 -1.3991 0
M  V30 16548 C 1638.98 -0.26965 -2.00999 0
M  V30 16549 C 1639.31 1.13727 -1.57416 0
M  V30 16550 O 1638.59 1.77345 -0.798693 0
M  V30 16551 C 1638.87 -0.360784 -3.58288 0
M  V30 16552 C 1638.72 -1.80679 -4.11916 0
M  V30 16553 C 1640.04 0.262328 -4.39317 0
M  V30 16554 H 1637.16 -0.0994547 -0.730259 0
M  V30 16555 H 1639.8 -0.91983 -1.6625 0
M  V30 16556 H 1637.95 0.192779 -3.88021 0
M  V30 16557 H 1639.63 -2.4165 -3.92942 0
M  V30 16558 H 1637.87 -2.33127 -3.65834 0
M  V30 16559 H 1638.54 -1.82189 -5.21068 0
M  V30 16560 H 1641.02 -0.209452 -4.15573 0
M  V30 16561 H 1639.89 0.168166 -5.48642 0
M  V30 16562 H 1640.15 1.34716 -4.21075 0
M  V30 16563 N 1639.21 1.50354 -0.472382 0
M  V30 16564 C 1640.46 2.03264 0.0743981 0
M  V30 16565 C 1640.81 1.34792 1.37291 0
M  V30 16566 O 1640.11 0.46513 1.85869 0
M  V30 16567 C 1640.3 3.5603 0.31263 0
M  V30 16568 C 1640.13 4.39306 -0.961245 0
M  V30 16569 C 1638.9 4.8237 -1.50492 0
M  V30 16570 C 1641.1 4.79605 -1.85698 0
M  V30 16571 N 1639.08 5.49974 -2.72768 0
M  V30 16572 C 1640.45 5.46633 -2.92562 0
M  V30 16573 C 1642.51 4.61562 -1.86721 0
M  V30 16574 C 1641.21 5.9753 -4.00438 0
M  V30 16575 C 1643.23 5.134 -2.93554 0
M  V30 16576 C 1642.6 5.80404 -3.99137 0
M  V30 16577 H 1638.7 0.781895 -0.0128356 0
M  V30 16578 H 1641.28 1.8385 -0.640876 0
M  V30 16579 H 1639.45 3.75387 0.996945 0
M  V30 16580 H 1641.18 3.9559 0.853868 0
M  V30 16581 H 1637.94 4.61724 -1.05393 0
M  V30 16582 H 1638.36 5.88381 -3.34868 0
M  V30 16583 H 1643 4.0919 -1.0641 0
M  V30 16584 H 1640.72 6.48938 -4.81565 0
M  V30 16585 H 1644.31 5.0127 -2.95331 0
M  V30 16586 H 1643.19 6.19793 -4.80443 0
M  V30 16587 N 1640.69 0.205039 1.56261 0
M  V30 16588 C 1641.92 -0.43642 2.02245 0
M  V30 16589 C 1642.33 -1.54504 1.08508 0
M  V30 16590 O 1641.69 -1.82269 0.0916991 0
M  V30 16591 C 1641.74 -0.983483 3.47865 0
M  V30 16592 O 1641.46 0.0809166 4.38025 0
M  V30 16593 C 1642.96 -1.69983 4.09415 0
M  V30 16594 H 1640.18 -0.108577 0.662157 0
M  V30 16595 H 1642.73 0.316659 2.02033 0
M  V30 16596 H 1640.88 -1.6869 3.48744 0
M  V30 16597 H 1641.3 -0.327751 5.23475 0
M  V30 16598 H 1642.77 -2.03481 5.13127 0
M  V30 16599 H 1643.25 -2.60711 3.5345 0
M  V30 16600 H 1643.85 -1.04202 4.12337 0
M  V30 16601 N 1642.17 -1.57451 -0.0684915 0
M  V30 16602 C 1643.4 -1.9164 -0.779855 0
M  V30 16603 C 1643.81 -0.801309 -1.70952 0
M  V30 16604 O 1643.17 0.225134 -1.81106 0
M  V30 16605 C 1643.22 -3.25594 -1.57068 0
M  V30 16606 O 1642.94 -4.32816 -0.678385 0
M  V30 16607 C 1644.44 -3.73818 -2.38275 0
M  V30 16608 H 1641.66 -0.633374 -0.221537 0
M  V30 16609 H 1644.21 -2.04465 -0.0377746 0
M  V30 16610 H 1642.36 -3.14287 -2.26501 0
M  V30 16611 H 1642.78 -5.09903 -1.22877 0
M  V30 16612 H 1644.25 -4.70168 -2.89216 0
M  V30 16613 H 1644.73 -3.02995 -3.17947 0
M  V30 16614 H 1645.33 -3.88081 -1.73992 0
M  V30 16615 N 1643.65 0.339955 -1.5389 0
M  V30 16616 C 1644.6 1.41838 -1.78511 0
M  V30 16617 C 1645.58 1.47604 -0.640447 0
M  V30 16618 O 1646.77 1.52414 -0.899951 0
M  V30 16619 C 1643.9 2.78929 -2.00134 0
M  V30 16620 C 1642.99 2.7754 -3.20675 0
M  V30 16621 N 1643.38 2.45779 -4.42071 0
M  V30 16622 C 1641.68 3.08684 -3.21917 0
M  V30 16623 C 1642.38 2.52714 -5.23938 0
M  V30 16624 N 1641.35 2.88484 -4.60736 0
M  V30 16625 H 1645.16 1.16185 -2.6996 0
M  V30 16626 H 1642.67 0.548339 -1.52863 0
M  V30 16627 H 1644.67 3.56637 -2.15907 0
M  V30 16628 H 1643.33 3.05525 -1.09929 0
M  V30 16629 H 1644.34 2.18913 -4.69358 0
M  V30 16630 H 1641.02 3.40429 -2.41691 0
M  V30 16631 H 1642.41 2.31287 -6.30838 0
M  V30 16632 N 1645.13 1.45684 0.601159 0
M  V30 16633 C 1646.54 1.44423 1.18317 0
M  V30 16634 C 1646.89 0.17524 1.95416 0
M  V30 16635 O 1646.01 -0.722816 2.03971 0
M  V30 16636 C 1646.61 2.61651 2.1523 0
M  V30 16637 C 1645.17 2.6349 2.68793 0
M  V30 16638 C 1644.31 2.36787 1.44317 0
M  V30 16639 H 1647.26 1.53831 0.390108 0
M  V30 16640 H 1647.29 2.36117 2.98377 0
M  V30 16641 H 1646.8 3.53995 1.59088 0
M  V30 16642 H 1644.9 1.7517 3.28856 0
M  V30 16643 H 1645.01 3.62906 3.12787 0
M  V30 16644 H 1643.38 1.86472 1.73494 0
M  V30 16645 H 1644.16 3.31284 0.900327 0
M  V30 16646 N 1646.6 -0.84422 1.33082 0
M  V30 16647 C 1647.57 -1.93519 1.22813 0
M  V30 16648 C 1648.57 -1.60113 0.148516 0
M  V30 16649 O 1649.76 -1.69553 0.399668 0
M  V30 16650 C 1646.89 -3.29045 0.891179 0
M  V30 16651 H 1648.08 -2.04051 2.1978 0
M  V30 16652 H 1645.63 -1.03567 1.17063 0
M  V30 16653 H 1646.37 -3.2421 -0.0762276 0
M  V30 16654 H 1646.15 -3.54671 1.67186 0
M  V30 16655 H 1647.64 -4.08984 0.843932 0
M  V30 16656 N 1648.08 -1.16463 -1.0618 0
M  V30 16657 C 1649.01 -0.829995 -2.13644 0
M  V30 16658 C 1650.03 0.16326 -1.61979 0
M  V30 16659 O 1651.22 -0.0616575 -1.78393 0
M  V30 16660 C 1648.32 -0.215222 -3.38216 0
M  V30 16661 C 1647.49 -1.24886 -4.19192 0
M  V30 16662 C 1646.55 -0.653683 -5.22124 0
M  V30 16663 O 1645.57 -1.32285 -5.53615 0
M  V30 16664 N 1646.78 0.559031 -5.77802 0
M  V30 16665 H 1649.54 -1.75487 -2.42949 0
M  V30 16666 H 1647.1 -1.06212 -1.22191 0
M  V30 16667 H 1649.09 0.196005 -4.04225 0
M  V30 16668 H 1647.66 0.613229 -3.06526 0
M  V30 16669 H 1646.88 -1.83622 -3.48822 0
M  V30 16670 H 1648.17 -1.94639 -4.70099 0
M  V30 16671 H 1647.57 1.12083 -5.54485 0
M  V30 16672 H 1646.13 0.912453 -6.45382 0
M  V30 16673 N 1649.56 1.24734 -0.963288 0
M  V30 16674 C 1650.49 2.27892 -0.508667 0
M  V30 16675 C 1651.47 1.64055 0.449438 0
M  V30 16676 O 1652.66 1.91083 0.346519 0
M  V30 16677 C 1649.79 3.46688 0.206157 0
M  V30 16678 C 1648.74 4.22762 -0.667534 0
M  V30 16679 C 1648.07 5.34402 0.178529 0
M  V30 16680 C 1649.37 4.84535 -1.94995 0
M  V30 16681 H 1651.06 2.66171 -1.37088 0
M  V30 16682 H 1648.61 1.27952 -0.660622 0
M  V30 16683 H 1650.56 4.17985 0.535391 0
M  V30 16684 H 1649.28 3.07422 1.10269 0
M  V30 16685 H 1647.94 3.53259 -0.979976 0
M  V30 16686 H 1647.59 4.91377 1.07508 0
M  V30 16687 H 1647.29 5.86218 -0.402808 0
M  V30 16688 H 1648.81 6.08529 0.502533 0
M  V30 16689 H 1650.23 5.4793 -1.68658 0
M  V30 16690 H 1648.62 5.46564 -2.47765 0
M  V30 16691 H 1649.69 4.06236 -2.64765 0
M  V30 16692 N 1651.04 0.732878 1.39523 0
M  V30 16693 C 1652.27 0.29007 2.04857 0
M  V30 16694 C 1652.68 -1.07435 1.55252 0
M  V30 16695 O 1652.04 -1.67847 0.716497 0
M  V30 16696 C 1652.09 0.280464 3.6041 0
M  V30 16697 O 1651.81 1.59102 4.08189 0
M  V30 16698 C 1653.31 -0.178772 4.42939 0
M  V30 16699 H 1650.53 0.12716 0.658841 0
M  V30 16700 H 1653.07 0.995933 1.7861 0
M  V30 16701 H 1651.23 -0.376494 3.85566 0
M  V30 16702 H 1651.64 1.50314 5.025 0
M  V30 16703 H 1653.12 -0.134335 5.51837 0
M  V30 16704 H 1653.59 -1.22362 4.21811 0
M  V30 16705 H 1654.2 0.448543 4.22928 0
M  V30 16706 N 1652.52 -1.50101 0.480349 0
M  V30 16707 C 1653.75 -2.06486 -0.0687482 0
M  V30 16708 C 1654.15 -1.34334 -1.33233 0
M  V30 16709 O 1653.5 -0.408976 -1.7909 0
M  V30 16710 C 1653.56 -3.57114 -0.413522 0
M  V30 16711 C 1653.22 -4.50814 0.749361 0
M  V30 16712 C 1654.22 -4.93554 1.63404 0
M  V30 16713 C 1651.9 -4.93382 0.942313 0
M  V30 16714 C 1653.9 -5.77577 2.696 0
M  V30 16715 C 1651.59 -5.77186 2.00748 0
M  V30 16716 C 1652.58 -6.19185 2.88268 0
M  V30 16717 O 1652.27 -7.01317 3.92949 0
M  V30 16718 H 1652 -0.675954 0.00792111 0
M  V30 16719 H 1654.56 -1.94135 0.670863 0
M  V30 16720 H 1652.79 -3.67399 -1.20645 0
M  V30 16721 H 1654.48 -3.95824 -0.89879 0
M  V30 16722 H 1655.24 -4.61329 1.4967 0
M  V30 16723 H 1651.12 -4.60206 0.270534 0
M  V30 16724 H 1654.67 -6.10279 3.37942 0
M  V30 16725 H 1650.56 -6.08824 2.14486 0
M  V30 16726 H 1651.33 -7.19585 3.9005 0
M  V30 16727 N 1653.99 -0.213323 -1.5615 0
M  V30 16728 C 1655.22 0.425688 -2.02473 0
M  V30 16729 C 1655.64 1.53926 -1.09326 0
M  V30 16730 O 1654.99 1.82218 -0.101364 0
M  V30 16731 C 1655.04 0.965021 -3.48381 0
M  V30 16732 O 1654.77 -0.104145 -4.37976 0
M  V30 16733 C 1656.27 1.6781 -4.10311 0
M  V30 16734 H 1653.49 0.105064 -0.662724 0
M  V30 16735 H 1656.03 -0.327369 -2.01863 0
M  V30 16736 H 1654.19 1.66838 -3.49634 0
M  V30 16737 H 1654.6 0.299985 -5.23641 0
M  V30 16738 H 1656.07 2.00757 -5.14199 0
M  V30 16739 H 1656.55 2.58833 -3.54827 0
M  V30 16740 H 1657.16 1.02014 -4.12884 0
M  V30 16741 N 1655.47 1.57485 0.0601405 0
M  V30 16742 C 1656.72 1.88953 0.752883 0
M  V30 16743 C 1657.07 0.808397 1.74593 0
M  V30 16744 O 1656.37 -0.186272 1.90692 0
M  V30 16745 C 1656.56 3.24839 1.49045 0
M  V30 16746 C 1656.39 4.46069 0.570341 0
M  V30 16747 C 1655.16 5.04892 0.202922 0
M  V30 16748 C 1657.36 5.14115 -0.137973 0
M  V30 16749 N 1655.34 6.09643 -0.721689 0
M  V30 16750 C 1656.71 6.13146 -0.919347 0
M  V30 16751 C 1658.77 4.97464 -0.208213 0
M  V30 16752 C 1657.47 6.97323 -1.76445 0
M  V30 16753 C 1659.49 5.82178 -1.04033 0
M  V30 16754 C 1658.86 6.80756 -1.80972 0
M  V30 16755 H 1654.96 0.74077 0.250566 0
M  V30 16756 H 1657.54 1.94695 0.0139588 0
M  V30 16757 H 1655.71 3.20084 2.20002 0
M  V30 16758 H 1657.44 3.43919 2.13312 0
M  V30 16759 H 1654.2 4.70297 0.558349 0
M  V30 16760 H 1654.62 6.6668 -1.17758 0
M  V30 16761 H 1659.26 4.21158 0.372298 0
M  V30 16762 H 1656.98 7.72996 -2.35589 0
M  V30 16763 H 1660.57 5.71349 -1.09781 0
M  V30 16764 H 1659.45 7.45169 -2.44323 0
M  V30 16765 N 1656.95 -0.331789 1.54068 0
M  V30 16766 C 1658.18 -1.08886 1.75577 0
M  V30 16767 C 1658.59 -1.82462 0.50043 0
M  V30 16768 O 1657.93 -1.7564 -0.53816 0
M  V30 16769 C 1657.99 -2.13858 2.88972 0
M  V30 16770 C 1657.66 -1.59754 4.28168 0
M  V30 16771 C 1658.65 -1.04365 5.09317 0
M  V30 16772 C 1656.34 -1.64245 4.74688 0
M  V30 16773 C 1658.33 -0.541856 6.35093 0
M  V30 16774 C 1656.02 -1.13679 6.00433 0
M  V30 16775 C 1657.02 -0.587426 6.80469 0
M  V30 16776 O 1656.71 -0.0893367 8.0385 0
M  V30 16777 H 1656.44 -0.330075 0.589938 0
M  V30 16778 H 1658.99 -0.386127 2.01738 0
M  V30 16779 H 1657.22 -2.87724 2.58363 0
M  V30 16780 H 1658.91 -2.75223 2.98341 0
M  V30 16781 H 1659.68 -1.00208 4.74535 0
M  V30 16782 H 1655.56 -2.05945 4.12441 0
M  V30 16783 H 1659.1 -0.1124 6.97509 0
M  V30 16784 H 1655 -1.1754 6.34708 0
M  V30 16785 H 1655.77 -0.205529 8.18242 0
M  V30 16786 N 1658.43 -1.46001 -0.593424 0
M  V30 16787 C 1659.36 -1.51774 -1.71748 0
M  V30 16788 C 1660.37 -0.407093 -1.57628 0
M  V30 16789 O 1661.56 -0.674903 -1.65249 0
M  V30 16790 C 1658.66 -1.3718 -3.09895 0
M  V30 16791 C 1657.84 -2.62173 -3.5012 0
M  V30 16792 C 1656.89 -2.41933 -4.67285 0
M  V30 16793 O 1655.92 -3.15611 -4.73686 0
M  V30 16794 N 1657.12 -1.47405 -5.61473 0
M  V30 16795 H 1659.89 -2.48689 -1.67253 0
M  V30 16796 H 1657.45 -1.41921 -0.779111 0
M  V30 16797 H 1659.44 -1.21428 -3.86054 0
M  V30 16798 H 1658.01 -0.484876 -3.08817 0
M  V30 16799 H 1657.23 -2.92943 -2.63777 0
M  V30 16800 H 1658.52 -3.45229 -3.73758 0
M  V30 16801 H 1657.92 -0.866282 -5.59028 0
M  V30 16802 H 1656.47 -1.3762 -6.37106 0
M  V30 16803 N 1659.91 0.83715 -1.33527 0
M  V30 16804 C 1661.18 1.57727 -1.15678 0
M  V30 16805 C 1661.56 2.09286 0.276178 0
M  V30 16806 O 1660.91 1.89589 1.27547 0
M  V30 16807 C 1661.12 2.70978 -2.19936 0
M  V30 16808 C 1662.47 3.40114 -2.5418 0
M  V30 16809 O 1663.49 2.81221 -2.18616 0
M  V30 16810 O 1662.35 4.46431 -3.15217 0
M  V30 16811 H 1659.45 0.69545 -0.447525 0
M  V30 16812 H 1661.99 0.879756 -1.45115 0
M  V30 16813 H 1660.76 2.30532 -3.16181 0
M  V30 16814 H 1660.39 3.48393 -1.91594 0
M  V30 16815 N 1661.38 1.17024 1.05561 0
M  V30 16816 C 1662.63 0.954436 1.78143 0
M  V30 16817 C 1662.95 -0.518525 1.8798 0
M  V30 16818 O 1662.22 -1.37654 1.39385 0
M  V30 16819 H 1660.8 0.350141 0.659856 0
M  V30 16820 H 1663.47 1.4743 1.27477 0
M  V30 16821 H 1662.56 1.37955 2.79955 0
M  V30 16822 N 1662.86 -1.24221 0.969889 0
M  V30 16823 C 1663.79 -2.24544 0.459636 0
M  V30 16824 C 1664.81 -1.56941 -0.432813 0
M  V30 16825 O 1666 -1.76898 -0.238637 0
M  V30 16826 C 1663.1 -3.3703 -0.3555 0
M  V30 16827 C 1662.27 -4.34207 0.527566 0
M  V30 16828 C 1661.33 -5.25689 -0.231934 0
M  V30 16829 O 1660.35 -5.67964 0.37488 0
M  V30 16830 N 1661.56 -5.60222 -1.5209 0
M  V30 16831 H 1664.32 -2.68957 1.3222 0
M  V30 16832 H 1661.88 -1.38285 0.84196 0
M  V30 16833 H 1663.87 -3.95201 -0.871685 0
M  V30 16834 H 1662.44 -2.91885 -1.11901 0
M  V30 16835 H 1661.66 -3.74693 1.2247 0
M  V30 16836 H 1662.95 -4.96099 1.12975 0
M  V30 16837 H 1662.35 -5.27807 -2.03559 0
M  V30 16838 H 1660.91 -6.20911 -1.98273 0
M  V30 16839 N 1664.34 -0.740267 -1.39132 0
M  V30 16840 C 1665.27 -0.064087 -2.2911 0
M  V30 16841 C 1666.29 0.697897 -1.47082 0
M  V30 16842 O 1667.47 0.541189 -1.70098 0
M  V30 16843 C 1664.57 0.933426 -3.25792 0
M  V30 16844 C 1663.75 0.231867 -4.36785 0
M  V30 16845 C 1662.81 1.13823 -5.13742 0
M  V30 16846 O 1661.83 0.613741 -5.65881 0
M  V30 16847 N 1663.03 2.46751 -5.25447 0
M  V30 16848 H 1665.8 -0.836774 -2.87781 0
M  V30 16849 H 1663.36 -0.589928 -1.5077 0
M  V30 16850 H 1665.35 1.5425 -3.74151 0
M  V30 16851 H 1663.92 1.60728 -2.68114 0
M  V30 16852 H 1663.14 -0.557747 -3.90234 0
M  V30 16853 H 1664.43 -0.254115 -5.08165 0
M  V30 16854 H 1663.83 2.91834 -4.84613 0
M  V30 16855 H 1662.39 3.02741 -5.77227 0
M  V30 16856 N 1665.82 1.49844 -0.488302 0
M  V30 16857 C 1667.23 1.58954 -0.14348 0
M  V30 16858 C 1667.43 1.49482 1.3512 0
M  V30 16859 O 1666.49 1.36218 2.12605 0
M  V30 16860 C 1667.8 2.92222 -0.708991 0
M  V30 16861 C 1669.35 3.05658 -0.673957 0
M  V30 16862 C 1669.83 4.41526 -1.21731 0
M  V30 16863 N 1671.32 4.47985 -1.17746 0
M  V30 16864 C 1672.05 5.51539 -1.5682 0
M  V30 16865 N 1671.55 6.62261 -2.03426 0
M  V30 16866 N 1673.34 5.4218 -1.48315 0
M  V30 16867 H 1665.49 1.54244 -1.46022 0
M  V30 16868 H 1667.76 0.72992 -0.604914 0
M  V30 16869 H 1667.46 3.04683 -1.75674 0
M  V30 16870 H 1667.34 3.76851 -0.162226 0
M  V30 16871 H 1669.72 2.92835 0.364925 0
M  V30 16872 H 1669.8 2.22744 -1.25772 0
M  V30 16873 H 1669.45 4.551 -2.25491 0
M  V30 16874 H 1669.38 5.2306 -0.609598 0
M  V30 16875 H 1671.87 3.68541 -0.835828 0
M  V30 16876 H 1672.18 7.3736 -2.31345 0
M  V30 16877 H 1670.53 6.63335 -2.07392 0
M  V30 16878 H 1673.72 4.54569 -1.11733 0
M  V30 16879 H 1673.89 6.2276 -1.79092 0
M  V30 16880 N 1667.3 0.221601 1.56034 0
M  V30 16881 C 1668.23 -0.683171 2.23282 0
M  V30 16882 C 1669.21 -1.20101 1.20456 0
M  V30 16883 O 1670.39 -1.245 1.49041 0
M  V30 16884 C 1667.52 -1.89143 2.91277 0
M  V30 16885 C 1666.48 -1.50742 4.00576 0
M  V30 16886 C 1665.8 -2.79446 4.55867 0
M  V30 16887 C 1667.1 -0.697388 5.17623 0
M  V30 16888 H 1668.8 -0.122488 2.99149 0
M  V30 16889 H 1666.34 -0.0574732 1.43885 0
M  V30 16890 H 1668.3 -2.52982 3.37013 0
M  V30 16891 H 1667.02 -2.47708 2.12858 0
M  V30 16892 H 1665.68 -0.892492 3.5557 0
M  V30 16893 H 1665.33 -3.36155 3.74177 0
M  V30 16894 H 1665.03 -2.54486 5.29633 0
M  V30 16895 H 1666.55 -3.44228 5.04321 0
M  V30 16896 H 1667.96 -1.23948 5.59741 0
M  V30 16897 H 1666.36 -0.544875 5.97621 0
M  V30 16898 H 1667.43 0.295981 4.83996 0
M  V30 16899 N 1668.77 -1.57515 -0.0517878 0
M  V30 16900 C 1670.05 -1.79321 -0.781233 0
M  V30 16901 C 1670.43 -0.814142 -1.94769 0
M  V30 16902 O 1669.78 0.14858 -2.28016 0
M  V30 16903 C 1669.99 -3.26398 -1.23553 0
M  V30 16904 C 1671.34 -3.90773 -1.66077 0
M  V30 16905 O 1672.36 -3.3041 -1.33069 0
M  V30 16906 O 1671.22 -4.97008 -2.27257 0
M  V30 16907 H 1668.31 -0.736627 -0.375912 0
M  V30 16908 H 1670.86 -1.69673 -0.0303173 0
M  V30 16909 H 1669.63 -3.89232 -0.401806 0
M  V30 16910 H 1669.26 -3.40848 -2.04716 0
M  V30 16911 N 1670.25 0.323614 -1.54242 0
M  V30 16912 C 1671.22 1.38126 -1.82904 0
M  V30 16913 C 1672.22 1.44723 -0.700853 0
M  V30 16914 O 1673.41 1.44751 -0.969161 0
M  V30 16915 C 1670.54 2.76858 -1.98903 0
M  V30 16916 H 1671.73 1.13966 -2.77402 0
M  V30 16917 H 1669.28 0.559094 -1.45958 0
M  V30 16918 H 1670.02 3.06274 -1.06616 0
M  V30 16919 H 1669.8 2.73464 -2.80998 0
M  V30 16920 H 1671.29 3.53372 -2.22526 0
M  V30 16921 N 1671.73 1.46313 0.585673 0
M  V30 16922 C 1672.68 1.5307 1.68978 0
M  V30 16923 C 1673.67 0.391901 1.56054 0
M  V30 16924 O 1674.86 0.64013 1.65019 0
M  V30 16925 C 1671.99 1.52113 3.07761 0
M  V30 16926 C 1671.07 2.71276 3.25991 0
M  V30 16927 N 1671.46 3.9622 3.14393 0
M  V30 16928 C 1669.76 2.67436 3.56923 0
M  V30 16929 C 1670.46 4.7587 3.34549 0
M  V30 16930 N 1669.44 4.07693 3.59565 0
M  V30 16931 H 1673.24 2.47474 1.58537 0
M  V30 16932 H 1670.75 1.41911 0.789614 0
M  V30 16933 H 1672.75 1.5504 3.86999 0
M  V30 16934 H 1671.41 0.587834 3.19335 0
M  V30 16935 H 1672.42 4.27513 2.92323 0
M  V30 16936 H 1669.1 1.83116 3.75199 0
M  V30 16937 H 1670.49 5.84831 3.3079 0
M  V30 16938 N 1673.21 -0.830057 1.33969 0
M  V30 16939 C 1674.43 -1.62294 1.29133 0
M  V30 16940 C 1674.86 -1.87627 -0.133253 0
M  V30 16941 O 1674.22 -1.44669 -1.09272 0
M  V30 16942 C 1674.27 -2.94508 2.0808 0
M  V30 16943 O 1673.37 -3.86239 1.44544 0
M  V30 16944 H 1672.71 -0.493865 0.443839 0
M  V30 16945 H 1675.24 -1.03202 1.76665 0
M  V30 16946 H 1675.25 -3.44133 2.19173 0
M  V30 16947 H 1673.93 -2.75392 3.1166 0
M  V30 16948 H 1672.5 -3.44743 1.42151 0
M  V30 16949 N 1674.69 -1.17582 -1.04939 0
M  V30 16950 C 1675.94 -0.960189 -1.77379 0
M  V30 16951 C 1676.25 0.512001 -1.8878 0
M  V30 16952 O 1677.46 0.845912 -2.57986 0
M  V30 16953 C 1675.91 -1.66882 -3.18871 0
M  V30 16954 C 1675.52 -3.17972 -3.15591 0
M  V30 16955 C 1677.26 -1.53567 -3.95749 0
M  V30 16956 C 1675.17 -3.81513 -4.51887 0
M  V30 16957 H 1674.1 -0.35562 -0.664869 0
M  V30 16958 H 1676.75 -1.40863 -1.17601 0
M  V30 16959 H 1675.13 -1.14813 -3.78991 0
M  V30 16960 H 1676.31 -3.76995 -2.64974 0
M  V30 16961 H 1674.62 -3.31328 -2.52212 0
M  V30 16962 H 1677.22 -1.98408 -4.96526 0
M  V30 16963 H 1677.56 -0.486603 -4.13446 0
M  V30 16964 H 1678.1 -2.02868 -3.42183 0
M  V30 16965 H 1674.83 -4.86428 -4.39395 0
M  V30 16966 H 1674.35 -3.27276 -5.02643 0
M  V30 16967 H 1676.03 -3.83867 -5.20822 0
M  V30 16968 N 1676.17 1.23705 -0.976463 0
M  V30 16969 C 1677.58 1.73848 -0.680723 0
M  V30 16970 C 1677.93 1.79005 0.803228 0
M  V30 16971 O 1677.05 1.42529 1.62832 0
M  V30 16972 C 1677.65 3.15724 -1.22898 0
M  V30 16973 C 1676.21 3.63338 -0.982963 0
M  V30 16974 C 1675.35 2.41712 -1.35906 0
M  V30 16975 H 1678.3 1.09284 -1.15077 0
M  V30 16976 H 1678.33 3.75748 -0.599487 0
M  V30 16977 H 1677.84 3.11938 -2.30903 0
M  V30 16978 H 1675.94 3.72512 0.0811766 0
M  V30 16979 H 1676.05 4.50347 -1.63477 0
M  V30 16980 H 1674.42 2.42543 -0.777498 0
M  V30 16981 H 1675.2 2.40601 -2.4488 0
M  V30 16982 N 1677.64 0.747635 1.38738 0
M  V30 16983 C 1678.57 0.131317 2.3313 0
M  V30 16984 C 1679.55 -0.710229 1.54563 0
M  V30 16985 O 1680.74 -0.652631 1.82905 0
M  V30 16986 C 1677.87 -0.767168 3.38721 0
M  V30 16987 C 1676.82 -0.0288124 4.2799 0
M  V30 16988 C 1676.15 -1.04515 5.24386 0
M  V30 16989 C 1677.45 1.13608 5.09795 0
M  V30 16990 H 1679.14 0.91981 2.84921 0
M  V30 16991 H 1676.69 0.443764 1.36992 0
M  V30 16992 H 1678.64 -1.20796 4.03716 0
M  V30 16993 H 1677.37 -1.58792 2.85399 0
M  V30 16994 H 1676.03 0.392491 3.64493 0
M  V30 16995 H 1675.67 -1.8598 4.67355 0
M  V30 16996 H 1675.37 -0.555813 5.84965 0
M  V30 16997 H 1676.9 -1.48538 5.92257 0
M  V30 16998 H 1678.31 0.773129 5.68063 0
M  V30 16999 H 1676.71 1.55589 5.79579 0
M  V30 17000 H 1677.78 1.95182 4.43883 0
M  V30 17001 N 1679.12 -1.49583 0.496242 0
M  V30 17002 C 1680.53 -1.8664 0.0472756 0
M  V30 17003 C 1680.88 -1.40898 -1.36536 0
M  V30 17004 O 1680.01 -0.784796 -2.01668 0
M  V30 17005 C 1680.6 -3.38708 0.079016 0
M  V30 17006 C 1679.16 -3.75083 -0.314587 0
M  V30 17007 C 1678.31 -2.73565 0.453624 0
M  V30 17008 H 1681.26 -1.41969 0.709269 0
M  V30 17009 H 1681.28 -3.73676 -0.717396 0
M  V30 17010 H 1680.79 -3.71969 1.10727 0
M  V30 17011 H 1678.89 -3.47429 -1.34625 0
M  V30 17012 H 1679.01 -4.791 0.00155427 0
M  V30 17013 H 1677.37 -2.54519 -0.095937 0
M  V30 17014 H 1678.15 -3.0967 1.48186 0
M  V30 17015 N 1680.6 -0.229873 -1.55915 0
M  V30 17016 C 1681.55 0.693198 -2.2203 0
M  V30 17017 C 1682.54 1.1933 -1.20236 0
M  V30 17018 O 1683.75 1.15217 -1.38294 0
M  V30 17019 H 1680.12 0.241986 -0.712002 0
M  V30 17020 H 1682.09 0.112229 -2.98189 0
M  V30 17021 C 1680.84 1.88688 -2.92048 0
M  V30 17022 H 1680.17 1.51119 -3.70139 0
M  V30 17023 H 1681.61 2.51036 -3.41697 0
M  V30 17024 C 1680.06 2.74747 -1.94976 0
M  V30 17025 O 1680.59 3.73759 -1.47198 0
M  V30 17026 N 1678.8 2.40956 -1.62445 0
M  V30 17027 H 1678.35 1.60494 -2.01493 0
M  V30 17028 H 1678.31 2.98816 -0.977581 0
M  V30 17029 N 1682.08 1.5754 0.0434337 0
M  V30 17030 C 1683.32 1.88887 0.7382 0
M  V30 17031 C 1683.66 0.825827 1.75766 0
M  V30 17032 O 1682.93 -0.160797 1.93834 0
M  V30 17033 C 1683.21 3.30889 1.42072 0
M  V30 17034 C 1683.07 4.47874 0.415754 0
M  V30 17035 C 1684.39 3.71571 2.35846 0
M  V30 17036 H 1681.51 0.686975 0.266897 0
M  V30 17037 H 1684.15 1.9 0.00106957 0
M  V30 17038 H 1682.3 3.30071 2.04903 0
M  V30 17039 H 1683.97 4.60824 -0.209529 0
M  V30 17040 H 1682.21 4.32982 -0.266346 0
M  V30 17041 H 1682.88 5.44084 0.931509 0
M  V30 17042 H 1685.36 3.73663 1.83071 0
M  V30 17043 H 1684.24 4.71763 2.80589 0
M  V30 17044 H 1684.5 3.03041 3.21898 0
M  V30 17045 N 1683.56 -0.31543 1.54411 0
M  V30 17046 C 1684.78 -1.07173 1.76979 0
M  V30 17047 C 1685.2 -1.81432 0.522285 0
M  V30 17048 O 1684.56 -1.75306 -0.507348 0
M  V30 17049 C 1684.61 -2.06352 2.96818 0
M  V30 17050 O 1684.33 -1.35108 4.16746 0
M  V30 17051 C 1685.83 -2.94136 3.31661 0
M  V30 17052 H 1683.05 -0.318455 0.590616 0
M  V30 17053 H 1685.59 -0.359085 2.01323 0
M  V30 17054 H 1683.75 -2.7314 2.74724 0
M  V30 17055 H 1684.16 -2.01593 4.84211 0
M  V30 17056 H 1685.64 -3.59606 4.18793 0
M  V30 17057 H 1686.11 -3.6167 2.49182 0
M  V30 17058 H 1686.72 -2.32899 3.55863 0
M  V30 17059 N 1685.03 -1.46622 -0.577906 0
M  V30 17060 C 1686.28 -1.52406 -1.33792 0
M  V30 17061 C 1686.61 -0.177147 -1.9339 0
M  V30 17062 O 1685.89 0.81197 -1.76741 0
M  V30 17063 C 1686.17 -2.62633 -2.46366 0
M  V30 17064 C 1686.02 -4.06871 -1.91771 0
M  V30 17065 C 1687.34 -2.68909 -3.4839 0
M  V30 17066 H 1684.46 -0.554833 -0.485107 0
M  V30 17067 H 1687.1 -1.78582 -0.648739 0
M  V30 17068 H 1685.25 -2.40444 -3.05154 0
M  V30 17069 H 1686.93 -4.40361 -1.37403 0
M  V30 17070 H 1685.17 -4.16124 -1.2257 0
M  V30 17071 H 1685.84 -4.79734 -2.73056 0
M  V30 17072 H 1688.32 -2.88868 -2.9949 0
M  V30 17073 H 1687.19 -3.47846 -4.24611 0
M  V30 17074 H 1687.45 -1.75148 -4.05925 0
M  V30 17075 N 1686.51 0.822941 -1.34408 0
M  V30 17076 C 1687.93 1.11606 -1.14089 0
M  V30 17077 C 1688.13 2.01418 0.0576164 0
M  V30 17078 O 1687.18 2.41622 0.733146 0
M  V30 17079 C 1688.5 1.76279 -2.43611 0
M  V30 17080 C 1690.05 1.88773 -2.49667 0
M  V30 17081 C 1690.52 2.56862 -3.79191 0
M  V30 17082 N 1692.01 2.64362 -3.80351 0
M  V30 17083 C 1692.75 3.17775 -4.77291 0
M  V30 17084 N 1692.24 3.71751 -5.84613 0
M  V30 17085 N 1694.04 3.16175 -4.64747 0
M  V30 17086 H 1686.19 0.225555 -2.11199 0
M  V30 17087 H 1688.45 0.162621 -0.933948 0
M  V30 17088 H 1688.16 1.17749 -3.31403 0
M  V30 17089 H 1688.03 2.76147 -2.56949 0
M  V30 17090 H 1690.42 2.46451 -1.62314 0
M  V30 17091 H 1690.5 0.878079 -2.40257 0
M  V30 17092 H 1690.14 1.99839 -4.66933 0
M  V30 17093 H 1690.07 3.58332 -3.85883 0
M  V30 17094 H 1692.56 2.26102 -3.02797 0
M  V30 17095 H 1692.88 4.10759 -6.54597 0
M  V30 17096 H 1691.22 3.69995 -5.88327 0
M  V30 17097 H 1694.41 2.73274 -3.80051 0
M  V30 17098 H 1694.58 3.57498 -5.40462 0
M  V30 17099 N 1687.99 1.18137 1.04314 0
M  V30 17100 C 1689.27 0.884901 1.74439 0
M  V30 17101 C 1689.65 -0.612825 2.02009 0
M  V30 17102 O 1689 -1.56679 1.66325 0
M  V30 17103 C 1689.21 1.72944 3.03136 0
M  V30 17104 C 1690.55 1.95491 3.7692 0
M  V30 17105 O 1691.58 1.69976 3.13028 0
M  V30 17106 O 1690.44 2.38426 4.91747 0
M  V30 17107 H 1687.53 0.328481 0.758966 0
M  V30 17108 H 1690.08 1.28878 1.10402 0
M  V30 17109 H 1688.85 2.74485 2.78879 0
M  V30 17110 H 1688.47 1.32392 3.74911 0
M  V30 17111 N 1689.47 -1.23186 0.98301 0
M  V30 17112 C 1690.43 -2.22979 0.530366 0
M  V30 17113 C 1691.43 -1.56211 -0.381421 0
M  V30 17114 O 1692.62 -1.73321 -0.17475 0
M  V30 17115 C 1689.75 -3.40124 -0.229882 0
M  V30 17116 H 1690.95 -2.64539 1.41277 0
M  V30 17117 H 1688.5 -1.36064 0.769172 0
M  V30 17118 H 1689.23 -3.04024 -1.12871 0
M  V30 17119 H 1689.02 -3.89794 0.424653 0
M  V30 17120 H 1690.51 -4.14158 -0.535078 0
M  V30 17121 N 1690.95 -0.754982 -1.38339 0
M  V30 17122 C 1692.17 -0.322624 -2.04369 0
M  V30 17123 C 1692.59 1.04951 -1.56942 0
M  V30 17124 O 1691.95 1.66686 -0.743109 0
M  V30 17125 C 1692 -0.337767 -3.59919 0
M  V30 17126 O 1691.72 -1.65576 -4.05606 0
M  V30 17127 C 1693.22 0.108281 -4.43168 0
M  V30 17128 H 1690.44 -0.137626 -0.656734 0
M  V30 17129 H 1692.98 -1.02422 -1.77003 0
M  V30 17130 H 1691.14 0.315106 -3.86116 0
M  V30 17131 H 1691.55 -1.5829 -5.00045 0
M  V30 17132 H 1693.03 0.0465256 -5.5198 0
M  V30 17133 H 1693.5 1.15636 -4.23704 0
M  V30 17134 H 1694.11 -0.51577 -4.22161 0
M  V30 17135 N 1692.42 1.49318 -0.504168 0
M  V30 17136 C 1693.65 2.07365 0.038102 0
M  V30 17137 C 1694.07 1.36164 1.29773 0
M  V30 17138 O 1693.43 0.419365 1.76383 0
M  V30 17139 C 1693.48 3.59576 0.271535 0
M  V30 17140 O 1692.58 3.8983 1.34561 0
M  V30 17141 H 1691.93 0.663425 -0.0276328 0
M  V30 17142 H 1694.46 1.92081 -0.704696 0
M  V30 17143 H 1694.47 4.04899 0.502083 0
M  V30 17144 H 1693.14 4.10809 -0.648754 0
M  V30 17145 H 1691.72 3.56314 1.09976 0
M  V30 17146 N 1693.9 0.238138 1.5579 0
M  V30 17147 C 1695.13 -0.392852 2.02831 0
M  V30 17148 C 1695.54 -1.52714 1.11692 0
M  V30 17149 O 1694.88 -1.83294 0.122034 0
M  V30 17150 C 1694.95 -0.970383 3.46156 0
M  V30 17151 C 1694.61 0.0305457 4.5699 0
M  V30 17152 C 1695.61 0.836938 5.13119 0
M  V30 17153 C 1693.29 0.154102 5.02064 0
M  V30 17154 C 1695.29 1.75343 6.12808 0
M  V30 17155 C 1692.97 1.07411 6.01586 0
M  V30 17156 C 1693.97 1.8723 6.56836 0
M  V30 17157 O 1693.66 2.77681 7.54419 0
M  V30 17158 H 1693.39 -0.0985571 0.668777 0
M  V30 17159 H 1695.94 0.356979 2.02274 0
M  V30 17160 H 1694.17 -1.76961 3.43834 0
M  V30 17161 H 1695.86 -1.51053 3.76747 0
M  V30 17162 H 1696.63 0.752021 4.79134 0
M  V30 17163 H 1692.51 -0.457094 4.58728 0
M  V30 17164 H 1696.05 2.37687 6.55859 0
M  V30 17165 H 1691.95 1.15998 6.34992 0
M  V30 17166 H 1692.72 2.71943 7.72003 0
M  V30 17167 N 1695.38 -1.57561 -0.0350783 0
M  V30 17168 C 1696.8 -1.54746 -0.390618 0
M  V30 17169 C 1697 -0.963454 -1.76974 0
M  V30 17170 O 1696.05 -0.581878 -2.45704 0
M  V30 17171 C 1697.37 -2.9922 -0.297984 0
M  V30 17172 C 1698.91 -3.10739 -0.375506 0
M  V30 17173 C 1699.39 -4.56933 -0.312387 0
M  V30 17174 N 1700.88 -4.61709 -0.371364 0
M  V30 17175 C 1701.61 -5.72359 -0.34532 0
M  V30 17176 N 1701.11 -6.92266 -0.271921 0
M  V30 17177 N 1702.9 -5.60713 -0.394605 0
M  V30 17178 H 1695.05 -1.93876 0.867519 0
M  V30 17179 H 1697.32 -0.888974 0.329285 0
M  V30 17180 H 1697.02 -3.45651 0.649499 0
M  V30 17181 H 1696.9 -3.60987 -1.094 0
M  V30 17182 H 1699.28 -2.6426 -1.31342 0
M  V30 17183 H 1699.37 -2.51815 0.449752 0
M  V30 17184 H 1699.01 -5.04079 0.621834 0
M  V30 17185 H 1698.94 -5.13762 -1.15567 0
M  V30 17186 H 1701.43 -3.75436 -0.430848 0
M  V30 17187 H 1701.74 -7.72373 -0.256983 0
M  V30 17188 H 1700.09 -6.94592 -0.238058 0
M  V30 17189 H 1703.28 -4.65933 -0.449896 0
M  V30 17190 H 1703.45 -6.46938 -0.37084 0
M  V30 17191 N 1696.86 0.307236 -1.54576 0
M  V30 17192 C 1698.1 1.05125 -1.75294 0
M  V30 17193 C 1698.46 1.84702 -0.524313 0
M  V30 17194 O 1699.66 2.61807 -0.609121 0
M  V30 17195 C 1697.93 1.93827 -3.00276 0
M  V30 17196 S 1699.49 2.74959 -3.41969 0
M  V30 17197 H 1696.31 0.35464 -0.61624 0
M  V30 17198 H 1698.91 0.325362 -1.92774 0
M  V30 17199 H 1697.62 1.3423 -3.87828 0
M  V30 17200 H 1697.15 2.70794 -2.85366 0
M  V30 17201 H 1699.16 3.96336 -2.9855 0
M  V30 17202 N 1698.34 1.46926 0.570122 0
M  V30 17203 C 1699.58 1.52585 1.32523 0
M  V30 17204 C 1699.91 0.184291 1.94127 0
M  V30 17205 O 1699.18 -0.790478 1.79244 0
M  V30 17206 H 1697.76 0.562019 0.492081 0
M  V30 17207 H 1700.42 1.83141 0.666746 0
M  V30 17208 H 1699.51 2.28541 2.12545 0
M  V30 17209 N 1699.82 -0.815801 1.34842 0
M  V30 17210 C 1701.06 -1.57474 1.27788 0
M  V30 17211 C 1701.39 -1.9362 -0.149956 0
M  V30 17212 O 1700.67 -1.60605 -1.0971 0
M  V30 17213 C 1700.95 -2.86952 2.17556 0
M  V30 17214 C 1700.81 -2.5734 3.68912 0
M  V30 17215 C 1702.12 -3.88582 2.0662 0
M  V30 17216 H 1699.24 -0.57135 0.465541 0
M  V30 17217 H 1701.89 -0.939271 1.6516 0
M  V30 17218 H 1700.04 -3.41182 1.85815 0
M  V30 17219 H 1701.71 -2.09365 4.11052 0
M  V30 17220 H 1699.95 -1.90674 3.89648 0
M  V30 17221 H 1700.62 -3.49702 4.27098 0
M  V30 17222 H 1703.1 -3.43726 2.34503 0
M  V30 17223 H 1701.97 -4.7697 2.71644 0
M  V30 17224 H 1702.23 -4.29564 1.04532 0
M  V30 17225 N 1701.29 -1.18689 -1.03686 0
M  V30 17226 C 1702.54 -0.982656 -1.76602 0
M  V30 17227 C 1702.86 0.488553 -1.88781 0
M  V30 17228 O 1702.13 1.35419 -1.41558 0
M  V30 17229 H 1700.71 -0.360595 -0.654202 0
M  V30 17230 H 1703.37 -1.49439 -1.25115 0
M  V30 17231 H 1702.47 -1.42392 -2.77725 0
M  V30 17232 N 1702.77 1.22662 -0.989529 0
M  V30 17233 C 1704.18 1.73116 -0.699124 0
M  V30 17234 C 1704.53 1.79847 0.784197 0
M  V30 17235 O 1703.66 1.44248 1.61311 0
M  V30 17236 C 1704.25 3.14403 -1.2624 0
M  V30 17237 C 1702.81 3.62275 -1.02144 0
M  V30 17238 C 1701.96 2.40257 -1.38463 0
M  V30 17239 H 1704.91 1.08057 -1.1623 0
M  V30 17240 H 1704.93 3.75091 -0.639307 0
M  V30 17241 H 1704.44 3.09472 -2.34198 0
M  V30 17242 H 1702.54 3.72577 0.0416622 0
M  V30 17243 H 1702.66 4.48587 -1.68245 0
M  V30 17244 H 1701.02 2.41705 -0.803179 0
M  V30 17245 H 1701.8 2.3799 -2.47418 0
M  V30 17246 N 1704.25 0.762308 1.37937 0
M  V30 17247 C 1705.66 0.388966 1.82603 0
M  V30 17248 C 1706.01 -1.08362 1.63561 0
M  V30 17249 O 1705.14 -1.83842 1.14154 0
M  V30 17250 C 1705.73 0.699218 3.31506 0
M  V30 17251 C 1704.29 0.379048 3.74487 0
M  V30 17252 C 1703.44 0.947924 2.60595 0
M  V30 17253 H 1706.39 0.957743 1.26542 0
M  V30 17254 H 1706.41 -0.019502 3.80495 0
M  V30 17255 H 1705.92 1.77105 3.45334 0
M  V30 17256 H 1704.02 -0.685844 3.66233 0
M  V30 17257 H 1704.14 0.880697 4.70936 0
M  V30 17258 H 1702.5 0.372746 2.51958 0
M  V30 17259 H 1703.28 2.02496 2.77219 0
M  V30 17260 N 1705.73 -1.49049 0.51208 0
M  V30 17261 C 1706.98 -2.0208 -0.0284326 0
M  V30 17262 C 1707.3 -1.39303 -1.36454 0
M  V30 17263 O 1706.57 -0.552155 -1.87958 0
M  V30 17264 H 1705.15 -0.746878 -0.0134968 0
M  V30 17265 H 1707.81 -1.82954 0.671842 0
M  V30 17266 H 1706.9 -3.11739 -0.149966 0
M  V30 17267 N 1707.21 -0.246397 -1.55662 0
M  V30 17268 C 1708.62 0.108465 -1.59231 0
M  V30 17269 C 1708.82 1.56961 -1.26354 0
M  V30 17270 O 1707.88 2.31393 -1.01062 0
M  V30 17271 C 1709.19 -0.240265 -2.99739 0
M  V30 17272 C 1710.74 -0.184523 -3.12456 0
M  V30 17273 C 1711.21 -0.507279 -4.55182 0
M  V30 17274 N 1712.7 -0.457761 -4.60933 0
M  V30 17275 C 1713.44 -0.680664 -5.69346 0
M  V30 17276 N 1712.94 -0.966667 -6.86023 0
M  V30 17277 N 1714.73 -0.611405 -5.58765 0
M  V30 17278 H 1706.88 -1.19928 -1.75303 0
M  V30 17279 H 1709.14 -0.482503 -0.816024 0
M  V30 17280 H 1708.85 -1.25535 -3.28533 0
M  V30 17281 H 1708.72 0.432872 -3.74708 0
M  V30 17282 H 1711.11 0.821232 -2.83443 0
M  V30 17283 H 1711.19 -0.891504 -2.39762 0
M  V30 17284 H 1710.83 -1.51059 -4.84916 0
M  V30 17285 H 1710.76 0.221174 -5.26135 0
M  V30 17286 H 1713.26 -0.245414 -3.77102 0
M  V30 17287 H 1713.57 -1.12419 -7.6458 0
M  V30 17288 H 1711.91 -1.00413 -6.87708 0
M  V30 17289 H 1715.1 -0.388018 -4.66489 0
M  V30 17290 H 1715.28 -0.788519 -6.43185 0
M  V30 17291 N 1708.68 1.57577 0.026722 0
M  V30 17292 C 1709.65 2.05684 1.01127 0
M  V30 17293 C 1710.65 0.961373 1.28896 0
M  V30 17294 O 1711.84 1.22491 1.23861 0
M  V30 17295 C 1708.97 2.47576 2.34348 0
M  V30 17296 H 1710.16 2.93925 0.595681 0
M  V30 17297 H 1707.71 1.53887 0.273603 0
M  V30 17298 H 1708.45 1.62498 2.80651 0
M  V30 17299 H 1708.23 3.27556 2.15521 0
M  V30 17300 H 1709.72 2.85214 3.05029 0
M  V30 17301 N 1710.16 -0.299034 1.54737 0
M  V30 17302 C 1711.57 -0.871897 1.6509 0
M  V30 17303 C 1711.92 -1.88013 0.560843 0
M  V30 17304 O 1711.05 -2.1428 -0.302194 0
M  V30 17305 C 1711.64 -1.5882 2.99269 0
M  V30 17306 C 1710.2 -2.10944 3.11736 0
M  V30 17307 C 1709.35 -0.942776 2.60782 0
M  V30 17308 H 1712.3 -0.0759883 1.58518 0
M  V30 17309 H 1712.32 -2.45387 2.90802 0
M  V30 17310 H 1711.83 -0.854144 3.78584 0
M  V30 17311 H 1709.93 -2.87391 2.37144 0
M  V30 17312 H 1710.05 -2.34262 4.17921 0
M  V30 17313 H 1708.41 -1.3289 2.17284 0
M  V30 17314 H 1709.19 -0.222646 3.42577 0
M  V30 17315 N 1711.64 -1.47227 -0.562322 0
M  V30 17316 C 1713.06 -1.32632 -0.887745 0
M  V30 17317 C 1713.26 -0.312972 -1.99055 0
M  V30 17318 O 1712.31 0.277309 -2.50973 0
M  V30 17319 C 1713.62 -2.71822 -1.28581 0
M  V30 17320 C 1715.17 -2.80068 -1.39753 0
M  V30 17321 C 1715.65 -4.19887 -1.82917 0
M  V30 17322 N 1717.14 -4.22404 -1.90077 0
M  V30 17323 C 1717.87 -5.27499 -2.24793 0
M  V30 17324 N 1717.37 -6.42904 -2.58159 0
M  V30 17325 N 1719.16 -5.14874 -2.25523 0
M  V30 17326 H 1711.31 -2.11752 0.165835 0
M  V30 17327 H 1713.58 -0.94793 0.0115238 0
M  V30 17328 H 1713.28 -3.47383 -0.549361 0
M  V30 17329 H 1713.16 -3.0326 -2.24306 0
M  V30 17330 H 1715.54 -2.04783 -2.1248 0
M  V30 17331 H 1715.62 -2.5229 -0.422286 0
M  V30 17332 H 1715.27 -4.95676 -1.10761 0
M  V30 17333 H 1715.2 -4.45086 -2.81436 0
M  V30 17334 H 1717.69 -3.39146 -1.66698 0
M  V30 17335 H 1718 -7.18857 -2.83662 0
M  V30 17336 H 1716.35 -6.46232 -2.55751 0
M  V30 17337 H 1719.54 -4.23745 -1.98892 0
M  V30 17338 H 1719.71 -5.96887 -2.5225 0
M  V30 17339 N 1713.12 0.808639 -1.35273 0
M  V30 17340 C 1714.05 1.93502 -1.30687 0
M  V30 17341 C 1715.03 1.69127 -0.181675 0
M  V30 17342 O 1716.21 1.90519 -0.376312 0
M  V30 17343 C 1713.34 3.30211 -1.07602 0
M  V30 17344 C 1712.3 3.69063 -2.16741 0
M  V30 17345 C 1711.62 5.03911 -1.78824 0
M  V30 17346 C 1712.92 3.79656 -3.5869 0
M  V30 17347 H 1714.62 1.97597 -2.24935 0
M  V30 17348 H 1712.16 0.949284 -1.0828 0
M  V30 17349 H 1714.12 4.0861 -1.03034 0
M  V30 17350 H 1712.84 3.26453 -0.0979944 0
M  V30 17351 H 1711.5 2.92948 -2.20402 0
M  V30 17352 H 1711.15 4.96655 -0.796449 0
M  V30 17353 H 1710.85 5.30877 -2.51881 0
M  V30 17354 H 1712.37 5.84752 -1.75777 0
M  V30 17355 H 1713.79 4.48292 -3.57362 0
M  V30 17356 H 1712.18 4.1809 -4.30489 0
M  V30 17357 H 1713.25 2.81265 -3.94991 0
M  V30 17358 N 1714.6 1.19237 1.03055 0
M  V30 17359 C 1715.82 1.01983 1.80594 0
M  V30 17360 C 1716.25 -0.426875 1.83192 0
M  V30 17361 O 1715.6 -1.30678 1.2567 0
M  V30 17362 C 1715.65 1.59139 3.23585 0
M  V30 17363 O 1714.76 0.819576 4.04174 0
M  V30 17364 H 1714.1 0.360585 0.557561 0
M  V30 17365 H 1716.63 1.58222 1.29719 0
M  V30 17366 H 1716.64 1.62283 3.74337 0
M  V30 17367 H 1715.31 2.64436 3.21009 0
M  V30 17368 H 1713.89 0.861253 3.62818 0
M  V30 17369 N 1716.07 -1.22136 0.99602 0
M  V30 17370 C 1717.49 -1.43072 0.707285 0
M  V30 17371 C 1717.69 -1.88163 -0.720906 0
M  V30 17372 O 1716.75 -2.03747 -1.49142 0
M  V30 17373 C 1718.06 -2.46963 1.71551 0
M  V30 17374 C 1719.61 -2.60758 1.73131 0
M  V30 17375 C 1720.08 -3.67873 2.72825 0
M  V30 17376 N 1721.57 -3.75334 2.71438 0
M  V30 17377 C 1722.31 -4.57817 3.45241 0
M  V30 17378 N 1721.8 -5.44268 4.28654 0
M  V30 17379 N 1723.6 -4.52157 3.33932 0
M  V30 17380 H 1715.75 -0.911751 1.91836 0
M  V30 17381 H 1718.01 -0.462523 0.827512 0
M  V30 17382 H 1717.72 -2.20784 2.73765 0
M  V30 17383 H 1717.59 -3.45618 1.51089 0
M  V30 17384 H 1719.98 -2.86279 0.716132 0
M  V30 17385 H 1720.06 -1.62367 1.97663 0
M  V30 17386 H 1719.7 -3.43098 3.74494 0
M  V30 17387 H 1719.63 -4.6584 2.45562 0
M  V30 17388 H 1722.12 -3.13566 2.10915 0
M  V30 17389 H 1722.44 -6.04236 4.81786 0
M  V30 17390 H 1720.78 -5.43839 4.3274 0
M  V30 17391 H 1723.97 -3.83645 2.68206 0
M  V30 17392 H 1724.15 -5.16207 3.91707 0
M  V30 17393 N 1717.55 -0.769612 -1.37531 0
M  V30 17394 C 1718.96 -0.398644 -1.82394 0
M  V30 17395 C 1719.31 1.07493 -1.64133 0
M  V30 17396 O 1718.44 1.83234 -1.15127 0
M  V30 17397 C 1719.03 -0.716789 -3.31131 0
M  V30 17398 C 1717.59 -0.398903 -3.7428 0
M  V30 17399 C 1716.74 -0.96173 -2.60089 0
M  V30 17400 H 1719.69 -0.964441 -1.26033 0
M  V30 17401 H 1719.71 -0.00067688 -3.805 0
M  V30 17402 H 1719.22 -1.78933 -3.4439 0
M  V30 17403 H 1717.33 0.666412 -3.66592 0
M  V30 17404 H 1717.44 -0.90566 -4.70462 0
M  V30 17405 H 1715.8 -0.386103 -2.51757 0
M  V30 17406 H 1716.59 -2.03963 -2.76141 0
M  V30 17407 N 1719.03 1.48775 -0.519977 0
M  V30 17408 C 1720.28 2.0169 0.0196973 0
M  V30 17409 C 1720.59 1.40319 1.36272 0
M  V30 17410 O 1721.8 1.84673 1.99018 0
M  V30 17411 C 1720.25 3.59798 0.085525 0
M  V30 17412 C 1719.86 4.3015 -1.25199 0
M  V30 17413 C 1721.61 4.20594 0.574557 0
M  V30 17414 C 1719.51 5.80165 -1.14729 0
M  V30 17415 H 1718.44 0.753918 0.011133 0
M  V30 17416 H 1721.09 1.71133 -0.662254 0
M  V30 17417 H 1719.48 3.87154 0.832339 0
M  V30 17418 H 1720.65 4.14477 -2.01359 0
M  V30 17419 H 1718.97 3.81183 -1.67596 0
M  V30 17420 H 1721.56 5.30477 0.670698 0
M  V30 17421 H 1721.91 3.85235 1.57797 0
M  V30 17422 H 1722.44 3.9763 -0.116277 0
M  V30 17423 H 1719.18 6.20081 -2.12555 0
M  V30 17424 H 1718.7 5.98279 -0.426902 0
M  V30 17425 H 1720.38 6.41605 -0.83382 0
M  V30 17426 N 1720.51 0.254649 1.55529 0
M  V30 17427 C 1721.74 -0.371856 2.03531 0
M  V30 17428 C 1722.15 -1.50974 1.13368 0
M  V30 17429 O 1721.51 -1.81885 0.14964 0
M  V30 17430 C 1721.56 -0.872314 3.50818 0
M  V30 17431 O 1721.28 0.22023 4.37546 0
M  V30 17432 C 1722.78 -1.56872 4.14616 0
M  V30 17433 H 1720 -0.0874565 0.665276 0
M  V30 17434 H 1722.55 0.380774 2.00924 0
M  V30 17435 H 1720.7 -1.5751 3.53934 0
M  V30 17436 H 1721.11 -0.161046 5.24253 0
M  V30 17437 H 1722.59 -1.87053 5.19341 0
M  V30 17438 H 1723.07 -2.49334 3.61565 0
M  V30 17439 H 1723.67 -0.910314 4.15444 0
M  V30 17440 N 1721.99 -1.57589 -0.0183649 0
M  V30 17441 C 1722.92 -2.1029 -1.01492 0
M  V30 17442 C 1723.9 -1.00782 -1.37029 0
M  V30 17443 O 1725.08 -1.28365 -1.45726 0
M  V30 17444 C 1722.21 -2.59111 -2.31255 0
M  V30 17445 C 1721.17 -3.72979 -2.0993 0
M  V30 17446 C 1720.49 -4.08046 -3.45547 0
M  V30 17447 C 1721.79 -5.00988 -1.47677 0
M  V30 17448 H 1723.49 -2.93804 -0.57618 0
M  V30 17449 H 1721.03 -1.41336 -0.275708 0
M  V30 17450 H 1722.99 -2.94602 -3.0131 0
M  V30 17451 H 1721.71 -1.72694 -2.77208 0
M  V30 17452 H 1720.37 -3.37853 -1.42306 0
M  V30 17453 H 1720.02 -3.1868 -3.89169 0
M  V30 17454 H 1719.72 -4.8475 -3.32101 0
M  V30 17455 H 1721.24 -4.46081 -4.16947 0
M  V30 17456 H 1722.65 -5.34368 -2.07663 0
M  V30 17457 H 1721.05 -5.82375 -1.44774 0
M  V30 17458 H 1722.12 -4.82865 -0.443804 0
M  V30 17459 N 1723.46 0.290824 -1.54893 0
M  V30 17460 C 1724.74 1.04495 -1.65348 0
M  V30 17461 C 1725.12 2.04888 -0.508348 0
M  V30 17462 O 1724.47 2.23102 0.493749 0
M  V30 17463 C 1724.68 1.71772 -3.03801 0
M  V30 17464 C 1726.03 2.23595 -3.60958 0
M  V30 17465 O 1727.05 1.81788 -3.06319 0
M  V30 17466 O 1725.91 3.00225 -4.56648 0
M  V30 17467 H 1723 0.483605 -0.670862 0
M  V30 17468 H 1725.55 0.288101 -1.67237 0
M  V30 17469 H 1724.32 0.989296 -3.78588 0
M  V30 17470 H 1723.95 2.54188 -3.05735 0
M  V30 17471 N 1724.94 1.47523 0.554506 0
M  V30 17472 C 1726.19 1.54515 1.3135 0
M  V30 17473 C 1726.52 0.207892 1.93084 0
M  V30 17474 O 1725.8 -0.783749 1.7801 0
M  V30 17475 C 1726.08 2.66519 2.42156 0
M  V30 17476 C 1725.93 4.0987 1.85274 0
M  V30 17477 C 1727.25 2.74418 3.44068 0
M  V30 17478 H 1724.37 0.562481 0.476219 0
M  V30 17479 H 1727.01 1.79591 0.620246 0
M  V30 17480 H 1725.16 2.45268 3.0129 0
M  V30 17481 H 1726.83 4.42492 1.3038 0
M  V30 17482 H 1725.08 4.18021 1.15934 0
M  V30 17483 H 1725.75 4.84017 2.65389 0
M  V30 17484 H 1728.22 2.93596 2.94857 0
M  V30 17485 H 1727.1 3.54557 4.19023 0
M  V30 17486 H 1727.36 1.81584 4.03088 0
M  V30 17487 N 1726.42 -0.801453 1.357 0
M  V30 17488 C 1727.35 -1.92807 1.31711 0
M  V30 17489 C 1728.33 -1.69028 0.190642 0
M  V30 17490 O 1729.52 -1.90317 0.38641 0
M  V30 17491 C 1726.65 -3.29635 1.09352 0
M  V30 17492 C 1725.6 -3.67908 2.18695 0
M  V30 17493 C 1724.93 -5.02955 1.81494 0
M  V30 17494 C 1726.23 -3.77749 3.60698 0
M  V30 17495 H 1727.92 -1.96401 2.2598 0
M  V30 17496 H 1725.47 -0.943528 1.08782 0
M  V30 17497 H 1727.42 -4.08058 1.052 0
M  V30 17498 H 1726.14 -3.26396 0.115306 0
M  V30 17499 H 1724.8 -2.91775 2.21952 0
M  V30 17500 H 1724.45 -4.96225 0.822776 0
M  V30 17501 H 1724.15 -5.29533 2.54692 0
M  V30 17502 H 1725.67 -5.83811 1.78876 0
M  V30 17503 H 1727.09 -4.4639 3.59734 0
M  V30 17504 H 1725.49 -4.15801 4.327 0
M  V30 17505 H 1726.56 -2.79167 3.96477 0
M  V30 17506 N 1727.9 -1.19782 -1.02421 0
M  V30 17507 C 1729.13 -1.02721 -1.79254 0
M  V30 17508 C 1729.54 0.426969 -1.84319 0
M  V30 17509 O 1728.88 1.30832 -1.28953 0
M  V30 17510 C 1728.94 -1.52594 -3.25508 0
M  V30 17511 C 1728.61 -3.00778 -3.44066 0
M  V30 17512 C 1729.6 -3.98502 -3.33905 0
M  V30 17513 C 1727.29 -3.39572 -3.7013 0
M  V30 17514 C 1729.28 -5.33012 -3.49539 0
M  V30 17515 C 1726.97 -4.7424 -3.85408 0
M  V30 17516 C 1727.97 -5.70769 -3.75116 0
M  V30 17517 O 1727.65 -7.02997 -3.89937 0
M  V30 17518 H 1727.39 -0.362151 -0.570808 0
M  V30 17519 H 1729.94 -1.5914 -1.2986 0
M  V30 17520 H 1728.17 -0.90555 -3.75948 0
M  V30 17521 H 1729.86 -1.31671 -3.8395 0
M  V30 17522 H 1730.63 -3.69875 -3.13715 0
M  V30 17523 H 1726.5 -2.64986 -3.77231 0
M  V30 17524 H 1730.05 -6.0834 -3.41421 0
M  V30 17525 H 1725.95 -5.02561 -4.05096 0
M  V30 17526 H 1726.71 -7.10136 -4.07 0
M  V30 17527 N 1729.38 1.21606 -1.00248 0
M  V30 17528 C 1730.34 2.22107 -0.565772 0
M  V30 17529 C 1731.34 1.56798 0.356521 0
M  V30 17530 O 1732.53 1.73577 0.147154 0
M  V30 17531 C 1729.66 3.40447 0.175742 0
M  V30 17532 H 1730.86 2.62258 -1.45468 0
M  V30 17533 H 1728.41 1.34823 -0.790721 0
M  V30 17534 H 1729.14 3.05781 1.0802 0
M  V30 17535 H 1728.93 3.89069 -0.486612 0
M  V30 17536 H 1730.42 4.14957 0.469122 0
M  V30 17537 N 1730.86 0.776895 1.37121 0
M  V30 17538 C 1732.27 0.408311 1.8218 0
M  V30 17539 C 1732.62 -1.06621 1.64701 0
M  V30 17540 O 1731.74 -1.82621 1.16097 0
M  V30 17541 C 1732.34 0.734339 3.30746 0
M  V30 17542 C 1730.9 0.418746 3.74063 0
M  V30 17543 C 1730.04 0.97551 2.59575 0
M  V30 17544 H 1732.99 0.971111 1.25519 0
M  V30 17545 H 1733.02 0.0208557 3.80494 0
M  V30 17546 H 1732.53 1.80757 3.43436 0
M  V30 17547 H 1730.63 -0.646961 3.6694 0
M  V30 17548 H 1730.74 0.930597 4.69975 0
M  V30 17549 H 1729.11 0.399449 2.51548 0
M  V30 17550 H 1729.89 2.05425 2.75056 0
M  V30 17551 N 1732.33 -1.48497 0.527859 0
M  V30 17552 C 1733.75 -1.58517 0.185573 0
M  V30 17553 C 1733.95 -1.53012 -1.31109 0
M  V30 17554 O 1733.01 -1.41807 -2.08919 0
M  V30 17555 C 1734.32 -2.9024 0.786219 0
M  V30 17556 C 1735.87 -3.03764 0.75476 0
M  V30 17557 C 1736.34 -4.38144 1.33394 0
M  V30 17558 N 1737.83 -4.44705 1.29582 0
M  V30 17559 C 1738.57 -5.47187 1.71388 0
M  V30 17560 N 1738.06 -6.56635 2.20913 0
M  V30 17561 N 1739.86 -5.38057 1.62638 0
M  V30 17562 H 1732.01 -1.50319 1.5006 0
M  V30 17563 H 1734.27 -0.713625 0.624054 0
M  V30 17564 H 1733.98 -2.99918 1.8369 0
M  V30 17565 H 1733.85 -3.76288 0.262084 0
M  V30 17566 H 1736.24 -2.937 -0.287157 0
M  V30 17567 H 1736.32 -2.19331 1.31634 0
M  V30 17568 H 1735.96 -4.48962 2.37478 0
M  V30 17569 H 1735.89 -5.2126 0.748063 0
M  V30 17570 H 1738.38 -3.66195 0.933246 0
M  V30 17571 H 1738.7 -7.30967 2.50813 0
M  V30 17572 H 1737.04 -6.57604 2.24906 0
M  V30 17573 H 1740.23 -4.51447 1.23746 0
M  V30 17574 H 1740.41 -6.17793 1.9554 0
M  V30 17575 N 1733.81 -0.262893 -1.55392 0
M  V30 17576 C 1734.76 0.645946 -2.23451 0
M  V30 17577 C 1735.75 1.16753 -1.2274 0
M  V30 17578 O 1736.96 1.12257 -1.40706 0
M  V30 17579 H 1733.33 0.226829 -0.716975 0
M  V30 17580 H 1735.31 0.0489539 -2.9836 0
M  V30 17581 C 1734.05 1.82451 -2.95985 0
M  V30 17582 H 1733.38 1.43233 -3.73262 0
M  V30 17583 H 1734.82 2.43731 -3.46945 0
M  V30 17584 C 1733.28 2.7055 -2.0076 0
M  V30 17585 O 1733.81 3.70552 -1.55093 0
M  V30 17586 N 1732.01 2.37457 -1.67519 0
M  V30 17587 H 1731.56 1.56184 -2.04852 0
M  V30 17588 H 1731.52 2.96675 -1.04074 0
M  V30 17589 N 1735.29 1.57597 0.0100073 0
M  V30 17590 C 1736.22 2.10825 1.00375 0
M  V30 17591 C 1737.2 1.01507 1.36493 0
M  V30 17592 O 1738.39 1.29136 1.45043 0
M  V30 17593 C 1735.52 2.60334 2.29878 0
M  V30 17594 C 1734.47 3.74087 2.07949 0
M  V30 17595 C 1733.8 4.09873 3.43378 0
M  V30 17596 C 1735.1 5.01764 1.45018 0
M  V30 17597 H 1736.79 2.94105 0.560591 0
M  V30 17598 H 1734.34 1.4148 0.268208 0
M  V30 17599 H 1736.29 2.96196 2.99743 0
M  V30 17600 H 1735.01 1.74162 2.76288 0
M  V30 17601 H 1733.67 3.38603 1.40512 0
M  V30 17602 H 1733.32 3.20739 3.87473 0
M  V30 17603 H 1733.02 4.86505 3.29525 0
M  V30 17604 H 1734.54 4.48285 4.14575 0
M  V30 17605 H 1735.96 5.35462 2.04826 0
M  V30 17606 H 1734.35 5.83135 1.41683 0
M  V30 17607 H 1735.42 4.83093 0.41819 0
M  V30 17608 N 1736.77 -0.282606 1.55045 0
M  V30 17609 C 1738.18 -0.629284 1.4667 0
M  V30 17610 C 1738.38 -1.89931 0.672932 0
M  V30 17611 O 1737.44 -2.518 0.187946 0
M  V30 17612 C 1738.75 -0.765174 2.90802 0
M  V30 17613 C 1740.3 -0.859859 3.00958 0
M  V30 17614 C 1740.78 -1.0276 4.46323 0
M  V30 17615 N 1742.27 -1.09336 4.50111 0
M  V30 17616 C 1743 -1.24178 5.59792 0
M  V30 17617 N 1742.5 -1.358 6.7936 0
M  V30 17618 N 1744.29 -1.27212 5.47516 0
M  V30 17619 H 1736.44 0.551592 2.05113 0
M  V30 17620 H 1738.7 0.185277 0.929718 0
M  V30 17621 H 1738.41 0.0974312 3.51565 0
M  V30 17622 H 1738.28 -1.64848 3.39271 0
M  V30 17623 H 1740.67 -1.71294 2.40297 0
M  V30 17624 H 1740.75 0.0478484 2.55755 0
M  V30 17625 H 1740.4 -0.179219 5.07584 0
M  V30 17626 H 1740.33 -1.94981 4.89173 0
M  V30 17627 H 1742.82 -1.01633 3.63977 0
M  V30 17628 H 1743.13 -1.46932 7.58703 0
M  V30 17629 H 1741.48 -1.32822 6.8219 0
M  V30 17630 H 1744.67 -1.17756 4.53046 0
M  V30 17631 H 1744.84 -1.38435 6.3304 0
M  V30 17632 N 1738.25 -1.47815 -0.546675 0
M  V30 17633 C 1739.18 -1.63976 -1.66235 0
M  V30 17634 C 1740.16 -0.488945 -1.62921 0
M  V30 17635 O 1741.34 -0.719532 -1.80378 0
M  V30 17636 C 1738.47 -1.6637 -3.04858 0
M  V30 17637 C 1737.43 -2.80785 -3.23023 0
M  V30 17638 C 1736.75 -2.68257 -4.62539 0
M  V30 17639 C 1738.05 -4.22267 -3.07388 0
M  V30 17640 H 1739.75 -2.57375 -1.52965 0
M  V30 17641 H 1737.29 -1.23861 -0.734465 0
M  V30 17642 H 1739.24 -1.76266 -3.82764 0
M  V30 17643 H 1737.97 -0.695386 -3.19111 0
M  V30 17644 H 1736.63 -2.70417 -2.47529 0
M  V30 17645 H 1736.28 -1.69431 -4.73606 0
M  V30 17646 H 1735.98 -3.45022 -4.75641 0
M  V30 17647 H 1737.5 -2.80097 -5.42566 0
M  V30 17648 H 1738.91 -4.33557 -3.75102 0
M  V30 17649 H 1737.31 -4.999 -3.31994 0
M  V30 17650 H 1738.38 -4.39897 -2.04006 0
M  V30 17651 N 1739.72 0.794246 -1.36123 0
M  V30 17652 C 1740.95 1.58297 -1.33228 0
M  V30 17653 C 1741.37 1.88597 0.0875426 0
M  V30 17654 O 1740.72 1.49754 1.04307 0
M  V30 17655 C 1740.77 2.90687 -2.14904 0
M  V30 17656 O 1740.5 2.61695 -3.51351 0
M  V30 17657 C 1742 3.85009 -2.19734 0
M  V30 17658 H 1739.22 0.491139 -0.457191 0
M  V30 17659 H 1741.76 0.986129 -1.79153 0
M  V30 17660 H 1739.92 3.46852 -1.72546 0
M  V30 17661 H 1740.33 3.46313 -3.93913 0
M  V30 17662 H 1741.8 4.74976 -2.8125 0
M  V30 17663 H 1742.28 4.22504 -1.19946 0
M  V30 17664 H 1742.89 3.34777 -2.62307 0
M  V30 17665 N 1741.2 1.20323 1.01785 0
M  V30 17666 C 1742.43 1.03671 1.78706 0
M  V30 17667 C 1742.84 -0.417188 1.84543 0
M  V30 17668 O 1742.18 -1.30146 1.29645 0
M  V30 17669 C 1742.24 1.54318 3.24694 0
M  V30 17670 C 1741.91 3.02598 3.42466 0
M  V30 17671 C 1742.91 4.00267 3.31787 0
M  V30 17672 C 1740.59 3.41531 3.68323 0
M  V30 17673 C 1742.58 5.34858 3.46707 0
M  V30 17674 C 1740.27 4.76278 3.82887 0
M  V30 17675 C 1741.27 5.7275 3.72083 0
M  V30 17676 O 1740.96 7.05055 3.86203 0
M  V30 17677 H 1740.69 0.365174 0.56888 0
M  V30 17678 H 1743.24 1.59826 1.29014 0
M  V30 17679 H 1741.47 0.925474 3.75462 0
M  V30 17680 H 1743.16 1.33705 3.83246 0
M  V30 17681 H 1743.93 3.71534 3.11749 0
M  V30 17682 H 1739.81 2.66983 3.75821 0
M  V30 17683 H 1743.35 6.10142 3.3819 0
M  V30 17684 H 1739.25 5.04702 4.02425 0
M  V30 17685 H 1740.02 7.12284 4.03228 0
M  V30 17686 N 1742.68 -1.21073 1.00892 0
M  V30 17687 C 1743.61 -2.25847 0.592897 0
M  V30 17688 C 1744.59 -1.6561 -0.38824 0
M  V30 17689 O 1745.78 -1.92238 -0.275361 0
M  V30 17690 C 1742.91 -3.47214 -0.0773439 0
M  V30 17691 C 1741.86 -4.19994 0.82398 0
M  V30 17692 C 1741.19 -5.34696 0.0199341 0
M  V30 17693 C 1742.49 -4.76964 2.12844 0
M  V30 17694 H 1744.18 -2.609 1.46873 0
M  V30 17695 H 1741.73 -1.25412 0.707656 0
M  V30 17696 H 1743.68 -4.19684 -0.379889 0
M  V30 17697 H 1742.4 -3.11303 -0.987833 0
M  V30 17698 H 1741.06 -3.49379 1.11041 0
M  V30 17699 H 1740.71 -4.95028 -0.891966 0
M  V30 17700 H 1740.41 -5.84319 0.620102 0
M  V30 17701 H 1741.93 -6.09974 -0.276336 0
M  V30 17702 H 1743.35 -5.41293 1.88878 0
M  V30 17703 H 1741.74 -5.36992 2.67879 0
M  V30 17704 H 1742.81 -3.96129 2.79659 0
M  V30 17705 N 1744.16 -0.784156 -1.36707 0
M  V30 17706 C 1745.09 -0.193081 -2.327 0
M  V30 17707 C 1746.07 0.668999 -1.56392 0
M  V30 17708 O 1747.25 0.603908 -1.84571 0
M  V30 17709 C 1744.38 0.677092 -3.40636 0
M  V30 17710 C 1743.34 -0.0846718 -4.27916 0
M  V30 17711 C 1742.66 0.905754 -5.26973 0
M  V30 17712 C 1743.96 -1.27085 -5.06603 0
M  V30 17713 H 1745.66 -0.995029 -2.82382 0
M  V30 17714 H 1743.2 -0.479929 -1.35767 0
M  V30 17715 H 1745.16 1.1005 -4.06776 0
M  V30 17716 H 1743.88 1.51169 -2.89509 0
M  V30 17717 H 1742.54 -0.488992 -3.63324 0
M  V30 17718 H 1742.19 1.73524 -4.72121 0
M  V30 17719 H 1741.89 0.400524 -5.86233 0
M  V30 17720 H 1743.41 1.32784 -5.95987 0
M  V30 17721 H 1744.83 -0.923469 -5.65814 0
M  V30 17722 H 1743.22 -1.70901 -5.7525 0
M  V30 17723 H 1744.29 -2.06882 -4.38552 0
M  V30 17724 N 1745.64 1.48215 -0.535727 0
M  V30 17725 C 1746.55 2.33494 0.227577 0
M  V30 17726 C 1747.56 1.4685 0.933327 0
M  V30 17727 O 1748.74 1.7982 0.907008 0
M  V30 17728 C 1745.8 3.23092 1.25747 0
M  V30 17729 C 1744.86 4.25613 0.561454 0
M  V30 17730 C 1744.1 5.1093 1.54228 0
M  V30 17731 O 1744.32 4.98325 2.77539 0
M  V30 17732 O 1743.25 5.92158 1.07852 0
M  V30 17733 H 1747.08 3.0002 -0.471375 0
M  V30 17734 H 1744.67 1.46427 -0.296579 0
M  V30 17735 H 1746.55 3.78498 1.8525 0
M  V30 17736 H 1745.22 2.5922 1.93872 0
M  V30 17737 H 1744.13 3.74026 -0.0742194 0
M  V30 17738 H 1745.46 4.92138 -0.0779649 0
M  V30 17739 N 1747.11 0.27113 1.5525 0
M  V30 17740 C 1748.34 -0.353138 2.04371 0
M  V30 17741 C 1748.76 -1.48978 1.14835 0
M  V30 17742 O 1748.12 -1.8071 0.146138 0
M  V30 17743 C 1748.17 -0.815425 3.51259 0
M  V30 17744 O 1747.27 -1.92302 3.6482 0
M  V30 17745 H 1746.62 -0.0736207 0.659906 0
M  V30 17746 H 1749.15 0.404266 2.00566 0
M  V30 17747 H 1749.16 -1.11224 3.92547 0
M  V30 17748 H 1747.83 0.0162079 4.15897 0
M  V30 17749 H 1746.41 -1.62904 3.35435 0
M  V30 17750 N 1748.59 -1.576 -0.00164943 0
M  V30 17751 C 1749.54 -2.04799 -1.00207 0
M  V30 17752 C 1750.53 -0.9424 -1.30413 0
M  V30 17753 O 1751.72 -1.20618 -1.29539 0
M  V30 17754 C 1748.85 -2.55349 -2.29459 0
M  V30 17755 C 1747.93 -3.72782 -2.02224 0
M  V30 17756 N 1748.32 -4.84528 -1.45142 0
M  V30 17757 C 1746.62 -3.80681 -2.32375 0
M  V30 17758 C 1747.32 -5.65975 -1.34339 0
M  V30 17759 N 1746.3 -5.11927 -1.82844 0
M  V30 17760 H 1750.1 -2.88608 -0.555191 0
M  V30 17761 H 1747.62 -1.6107 -0.20738 0
M  V30 17762 H 1749.61 -2.87438 -3.01969 0
M  V30 17763 H 1748.27 -1.72957 -2.74802 0
M  V30 17764 H 1749.28 -5.05412 -1.13045 0
M  V30 17765 H 1745.96 -3.09141 -2.80603 0
M  V30 17766 H 1747.35 -6.65782 -0.904622 0
M  V30 17767 N 1750.07 0.274379 -1.55193 0
M  V30 17768 C 1751.32 1.00418 -1.75387 0
M  V30 17769 C 1751.64 1.86868 -0.557244 0
M  V30 17770 O 1750.91 1.9117 0.427883 0
M  V30 17771 H 1749.49 0.373753 -0.646775 0
M  V30 17772 H 1752.15 0.298942 -1.92594 0
M  V30 17773 H 1751.25 1.64191 -2.6542 0
M  V30 17774 N 1751.55 1.48103 0.538828 0
M  V30 17775 C 1752.8 1.55362 1.29256 0
M  V30 17776 C 1753.12 0.225427 1.93693 0
M  V30 17777 O 1752.39 -0.75228 1.8088 0
M  V30 17778 H 1750.97 0.57233 0.480049 0
M  V30 17779 H 1753.63 1.84514 0.627749 0
M  V30 17780 H 1752.73 2.32998 2.07649 0
M  V30 17781 N 1753.03 -0.787016 1.36542 0
M  V30 17782 C 1753.96 -1.90844 1.26931 0
M  V30 17783 C 1754.97 -1.61707 0.188293 0
M  V30 17784 O 1756.16 -1.7291 0.443205 0
M  V30 17785 C 1753.26 -3.25709 0.936305 0
M  V30 17786 C 1752.43 -3.82607 2.11969 0
M  V30 17787 C 1751.49 -4.95916 1.75937 0
M  V30 17788 O 1750.52 -5.12307 2.48053 0
M  V30 17789 N 1751.72 -5.76331 0.694461 0
M  V30 17790 H 1754.49 -1.9961 2.23553 0
M  V30 17791 H 1752.05 -0.965401 1.29968 0
M  V30 17792 H 1754.04 -3.99008 0.676378 0
M  V30 17793 H 1752.61 -3.12544 0.0591364 0
M  V30 17794 H 1751.83 -3.01267 2.54227 0
M  V30 17795 H 1753.12 -4.17352 2.91024 0
M  V30 17796 H 1752.51 -5.65619 0.0957046 0
M  V30 17797 H 1751.07 -6.49923 0.494363 0
M  V30 17798 N 1754.5 -1.20861 -1.01145 0
M  V30 17799 C 1755.43 -0.986058 -2.11658 0
M  V30 17800 C 1756.42 0.0867558 -1.69879 0
M  V30 17801 O 1757.6 -0.0717892 -1.94067 0
M  V30 17802 C 1754.73 -0.542938 -3.4303 0
M  V30 17803 C 1753.68 -1.55958 -3.98574 0
M  V30 17804 C 1753.01 -0.972917 -5.25774 0
M  V30 17805 C 1754.31 -2.94471 -4.31375 0
M  V30 17806 H 1756 -1.91035 -2.30534 0
M  V30 17807 H 1753.55 -0.919914 -1.10786 0
M  V30 17808 H 1755.5 -0.374446 -4.19733 0
M  V30 17809 H 1754.23 0.416988 -3.23927 0
M  V30 17810 H 1752.89 -1.71552 -3.23984 0
M  V30 17811 H 1752.53 -0.00490446 -5.03 0
M  V30 17812 H 1752.23 -1.65194 -5.63901 0
M  V30 17813 H 1753.76 -0.815607 -6.05128 0
M  V30 17814 H 1755.17 -2.82358 -4.98946 0
M  V30 17815 H 1753.57 -3.59327 -4.80629 0
M  V30 17816 H 1754.64 -3.45804 -3.39923 0
M  V30 17817 N 1755.98 1.20536 -1.01532 0
M  V30 17818 C 1756.95 2.21495 -0.589298 0
M  V30 17819 C 1757.95 1.57167 0.339871 0
M  V30 17820 O 1759.14 1.73724 0.128736 0
M  V30 17821 C 1756.27 3.40614 0.139623 0
M  V30 17822 H 1757.46 2.607 -1.48241 0
M  V30 17823 H 1755.01 1.33977 -0.804977 0
M  V30 17824 H 1755.75 3.0691 1.04771 0
M  V30 17825 H 1755.53 3.88531 -0.52785 0
M  V30 17826 H 1757.02 4.15431 0.425083 0
M  V30 17827 N 1757.46 0.791395 1.36289 0
M  V30 17828 C 1758.39 0.205419 2.32595 0
M  V30 17829 C 1759.37 -0.660696 1.56744 0
M  V30 17830 O 1760.56 -0.594111 1.84889 0
M  V30 17831 C 1757.69 -0.659018 3.4099 0
M  V30 17832 C 1756.64 0.107364 4.27865 0
M  V30 17833 C 1755.97 -0.877795 5.27446 0
M  V30 17834 C 1757.27 1.29769 5.05922 0
M  V30 17835 H 1758.96 1.00999 2.8185 0
M  V30 17836 H 1756.51 0.487122 1.35511 0
M  V30 17837 H 1758.46 -1.07891 4.07354 0
M  V30 17838 H 1757.18 -1.49632 2.90307 0
M  V30 17839 H 1755.84 0.508253 3.6306 0
M  V30 17840 H 1755.49 -1.71018 4.73035 0
M  V30 17841 H 1755.19 -0.369429 5.86438 0
M  V30 17842 H 1756.71 -1.29621 5.96683 0
M  V30 17843 H 1758.13 0.953463 5.65316 0
M  V30 17844 H 1756.53 1.73949 5.74336 0
M  V30 17845 H 1757.6 2.09205 4.37449 0
M  V30 17846 N 1758.94 -1.47929 0.54358 0
M  V30 17847 C 1760.19 -2.02795 0.014488 0
M  V30 17848 C 1760.52 -1.41848 -1.32638 0
M  V30 17849 O 1759.79 -0.569099 -1.85988 0
M  V30 17850 C 1760.08 -3.5998 -0.093097 0
M  V30 17851 C 1759.93 -4.31384 1.2739 0
M  V30 17852 C 1761.25 -4.32521 -0.813251 0
M  V30 17853 H 1758.37 -0.736969 0.00673905 0
M  V30 17854 H 1761.01 -1.76507 0.703238 0
M  V30 17855 H 1759.16 -3.82508 -0.679685 0
M  V30 17856 H 1760.83 -4.20235 1.90264 0
M  V30 17857 H 1759.07 -3.9227 1.85221 0
M  V30 17858 H 1759.75 -5.39856 1.15148 0
M  V30 17859 H 1762.22 -4.14903 -0.315334 0
M  V30 17860 H 1761.1 -5.42161 -0.857456 0
M  V30 17861 H 1761.36 -4.00768 -1.86649 0
M  V30 17862 N 1760.42 -0.27936 -1.55104 0
M  V30 17863 C 1761.35 0.599831 -2.25664 0
M  V30 17864 C 1762.33 1.15548 -1.24831 0
M  V30 17865 O 1763.51 1.18883 -1.53559 0
M  V30 17866 C 1760.64 1.78202 -2.98096 0
M  V30 17867 C 1759.6 1.35771 -4.05894 0
M  V30 17868 C 1758.92 2.62334 -4.65924 0
M  V30 17869 C 1760.22 0.504795 -5.19855 0
M  V30 17870 H 1761.92 0.0113761 -2.99398 0
M  V30 17871 H 1759.46 0.00403149 -1.43999 0
M  V30 17872 H 1761.42 2.403 -3.4617 0
M  V30 17873 H 1760.14 2.39637 -2.21905 0
M  V30 17874 H 1758.8 0.75991 -3.58638 0
M  V30 17875 H 1758.45 3.22036 -3.86396 0
M  V30 17876 H 1758.15 2.34654 -5.38713 0
M  V30 17877 H 1759.67 3.25273 -5.16749 0
M  V30 17878 H 1761.09 1.03089 -5.63955 0
M  V30 17879 H 1759.48 0.322696 -5.99232 0
M  V30 17880 H 1760.55 -0.475409 -4.82564 0
M  V30 17881 N 1761.9 1.57599 -0.0067085 0
M  V30 17882 C 1763.14 1.92717 0.681153 0
M  V30 17883 C 1763.5 0.881593 1.70564 0
M  V30 17884 O 1764.7 1.11823 2.44436 0
M  V30 17885 C 1762.97 3.32858 1.30155 0
M  V30 17886 S 1764.53 3.89871 2.0136 0
M  V30 17887 H 1761.35 0.674515 0.224833 0
M  V30 17888 H 1763.95 1.95392 -0.0650048 0
M  V30 17889 H 1762.65 4.0679 0.54318 0
M  V30 17890 H 1762.19 3.33573 2.0855 0
M  V30 17891 H 1764.2 3.7149 3.28952 0
M  V30 17892 N 1763.37 -0.266145 1.55336 0
M  V30 17893 C 1764.6 -1.01489 1.80299 0
M  V30 17894 C 1765.02 -1.79679 0.579742 0
M  V30 17895 O 1764.37 -1.76831 -0.451319 0
M  V30 17896 C 1764.42 -1.96805 3.03233 0
M  V30 17897 O 1764.15 -1.21782 4.20834 0
M  V30 17898 C 1765.65 -2.83436 3.40851 0
M  V30 17899 H 1762.87 -0.299504 0.600449 0
M  V30 17900 H 1765.41 -0.294854 2.02363 0
M  V30 17901 H 1763.57 -2.64262 2.83275 0
M  V30 17902 H 1763.98 -1.86086 4.9038 0
M  V30 17903 H 1765.45 -3.461 4.30022 0
M  V30 17904 H 1765.93 -3.53559 2.60562 0
M  V30 17905 H 1766.54 -2.2146 3.63092 0
M  V30 17906 N 1764.85 -1.48386 -0.530967 0
M  V30 17907 C 1766.1 -1.56585 -1.28875 0
M  V30 17908 C 1766.43 -0.238583 -1.92729 0
M  V30 17909 O 1765.71 0.75533 -1.79235 0
M  V30 17910 C 1765.99 -2.70338 -2.37886 0
M  V30 17911 C 1765.84 -4.12766 -1.78729 0
M  V30 17912 C 1767.16 -2.79857 -3.39659 0
M  V30 17913 H 1764.28 -0.569986 -0.46721 0
M  V30 17914 H 1766.92 -1.80555 -0.591596 0
M  V30 17915 H 1765.07 -2.50031 -2.9735 0
M  V30 17916 H 1766.74 -4.4451 -1.23324 0
M  V30 17917 H 1764.99 -4.19813 -1.09269 0
M  V30 17918 H 1765.66 -4.88178 -2.57655 0
M  V30 17919 H 1768.13 -2.9825 -2.90149 0
M  V30 17920 H 1767.01 -3.61179 -4.13329 0
M  V30 17921 H 1767.27 -1.87974 -4.00148 0
M  V30 17922 N 1766.33 0.779763 -1.36958 0
M  V30 17923 C 1767.61 1.52679 -1.22264 0
M  V30 17924 C 1767.99 2.10269 0.187164 0
M  V30 17925 O 1767.33 1.94828 1.19391 0
M  V30 17926 C 1767.54 2.61406 -2.31231 0
M  V30 17927 C 1768.89 3.29027 -2.68377 0
M  V30 17928 O 1769.92 2.71696 -2.30347 0
M  V30 17929 O 1768.78 4.3266 -3.33868 0
M  V30 17930 H 1765.87 0.675843 -0.476619 0
M  V30 17931 H 1768.42 0.817416 -1.48716 0
M  V30 17932 H 1767.19 2.16915 -3.25674 0
M  V30 17933 H 1766.81 3.39953 -2.06199 0
M  V30 17934 N 1767.81 1.21396 1.00503 0
M  V30 17935 C 1769.03 1.05791 1.7839 0
M  V30 17936 C 1769.46 -0.387921 1.84056 0
M  V30 17937 O 1768.82 -1.27983 1.28413 0
M  V30 17938 C 1768.86 1.65967 3.20137 0
M  V30 17939 O 1767.97 0.905123 4.02345 0
M  V30 17940 H 1767.31 0.372331 0.549787 0
M  V30 17941 H 1769.84 1.60938 1.26334 0
M  V30 17942 H 1769.85 1.70186 3.70811 0
M  V30 17943 H 1768.52 2.71185 3.15327 0
M  V30 17944 H 1767.1 0.938019 3.60909 0
M  V30 17945 N 1769.29 -1.19996 1.0217 0
M  V30 17946 C 1770.7 -1.4154 0.737473 0
M  V30 17947 C 1770.9 -1.89649 -0.680832 0
M  V30 17948 O 1769.96 -2.06865 -1.44787 0
M  V30 17949 C 1771.27 -2.43269 1.76751 0
M  V30 17950 C 1772.82 -2.57027 1.78623 0
M  V30 17951 C 1773.29 -3.62003 2.80567 0
M  V30 17952 N 1774.78 -3.69492 2.79339 0
M  V30 17953 C 1775.52 -4.50391 3.54874 0
M  V30 17954 N 1775.02 -5.35053 4.40103 0
M  V30 17955 N 1776.81 -4.44972 3.43448 0
M  V30 17956 H 1768.96 -0.870855 1.93726 0
M  V30 17957 H 1771.22 -0.444866 0.837137 0
M  V30 17958 H 1770.93 -2.14927 2.78387 0
M  V30 17959 H 1770.8 -3.42336 1.58386 0
M  V30 17960 H 1773.19 -2.84695 0.776695 0
M  V30 17961 H 1773.27 -1.58138 2.01062 0
M  V30 17962 H 1772.91 -3.35078 3.81687 0
M  V30 17963 H 1772.84 -4.60526 2.55388 0
M  V30 17964 H 1775.34 -3.09021 2.17518 0
M  V30 17965 H 1775.65 -5.93881 4.94495 0
M  V30 17966 H 1773.99 -5.34538 4.44178 0
M  V30 17967 H 1777.18 -3.77869 2.76283 0
M  V30 17968 H 1777.36 -5.07782 4.02569 0
M  V30 17969 N 1770.76 -0.798611 -1.35867 0
M  V30 17970 C 1772.17 -0.437243 -1.81508 0
M  V30 17971 C 1772.53 1.03987 -1.66376 0
M  V30 17972 O 1771.65 1.80751 -1.18988 0
M  V30 17973 C 1772.25 -0.786865 -3.29536 0
M  V30 17974 C 1770.8 -0.478204 -3.7335 0
M  V30 17975 C 1769.95 -1.01668 -2.5799 0
M  V30 17976 H 1772.9 -0.990957 -1.23959 0
M  V30 17977 H 1772.92 -0.0813864 -3.80413 0
M  V30 17978 H 1772.44 -1.86198 -3.40517 0
M  V30 17979 H 1770.54 0.588503 -3.67923 0
M  V30 17980 H 1770.65 -1.00525 -4.68435 0
M  V30 17981 H 1769.01 -0.439417 -2.50881 0
M  V30 17982 H 1769.8 -2.09775 -2.71753 0
M  V30 17983 N 1772.24 1.47639 -0.551417 0
M  V30 17984 C 1773.65 1.86336 -0.116513 0
M  V30 17985 C 1774 1.45869 1.31213 0
M  V30 17986 O 1773.13 0.859103 1.98616 0
M  V30 17987 C 1773.72 3.38181 -0.204671 0
M  V30 17988 C 1772.28 3.75992 0.175161 0
M  V30 17989 C 1771.43 2.71692 -0.554843 0
M  V30 17990 H 1774.38 1.39238 -0.761471 0
M  V30 17991 H 1774.4 3.76081 0.578214 0
M  V30 17992 H 1773.91 3.67604 -1.24456 0
M  V30 17993 H 1772.01 3.52186 1.21638 0
M  V30 17994 H 1772.13 4.78764 -0.179368 0
M  V30 17995 H 1770.49 2.547 0.00140775 0
M  V30 17996 H 1771.27 3.03957 -1.59578 0
M  V30 17997 N 1773.72 0.287581 1.54954 0
M  V30 17998 C 1774.68 -0.581465 2.21702 0
M  V30 17999 C 1775.68 -1.07172 1.19878 0
M  V30 18000 O 1776.87 -0.969899 1.44702 0
M  V30 18001 C 1774.01 -1.80358 2.89282 0
M  V30 18002 H 1775.2 0.00151035 2.999 0
M  V30 18003 H 1772.75 0.0382953 1.56253 0
M  V30 18004 H 1773.49 -2.42674 2.15128 0
M  V30 18005 H 1773.27 -1.45983 3.63911 0
M  V30 18006 H 1774.76 -2.42129 3.4024 0
M  V30 18007 N 1775.2 -1.57593 0.0150662 0
M  V30 18008 C 1776.13 -2.06239 -0.999912 0
M  V30 18009 C 1777.14 -0.983112 -1.29764 0
M  V30 18010 O 1778.33 -1.25961 -1.26476 0
M  V30 18011 C 1775.43 -2.46011 -2.33092 0
M  V30 18012 C 1774.61 -3.76851 -2.2204 0
M  V30 18013 C 1773.66 -4.03326 -3.37956 0
M  V30 18014 O 1772.69 -4.73781 -3.15469 0
M  V30 18015 N 1773.89 -3.52399 -4.61298 0
M  V30 18016 H 1776.66 -2.93936 -0.584952 0
M  V30 18017 H 1774.22 -1.60984 -0.172001 0
M  V30 18018 H 1776.21 -2.60825 -3.09439 0
M  V30 18019 H 1774.78 -1.63753 -2.66277 0
M  V30 18020 H 1774 -3.71969 -1.30509 0
M  V30 18021 H 1775.29 -4.626 -2.11845 0
M  V30 18022 H 1774.69 -2.95374 -4.82463 0
M  V30 18023 H 1773.24 -3.72516 -5.3486 0
M  V30 18024 N 1776.68 0.257904 -1.55475 0
M  V30 18025 C 1777.61 1.32303 -1.92401 0
M  V30 18026 C 1778.59 1.50767 -0.787617 0
M  V30 18027 O 1779.77 1.63559 -1.047 0
M  V30 18028 C 1776.9 2.67984 -2.20912 0
M  V30 18029 C 1775.86 2.64231 -3.36699 0
M  V30 18030 C 1775.18 4.03604 -3.50725 0
M  V30 18031 C 1776.48 2.22177 -4.72689 0
M  V30 18032 H 1778.18 1.01646 -2.81618 0
M  V30 18033 H 1775.72 0.487523 -1.35496 0
M  V30 18034 H 1777.68 3.42622 -2.45332 0
M  V30 18035 H 1776.4 3.00254 -1.2851 0
M  V30 18036 H 1775.06 1.92049 -3.1227 0
M  V30 18037 H 1774.71 4.33122 -2.55763 0
M  V30 18038 H 1774.41 4.01983 -4.28583 0
M  V30 18039 H 1775.93 4.79959 -3.77455 0
M  V30 18040 H 1777.34 2.86543 -4.96554 0
M  V30 18041 H 1775.74 2.3169 -5.5357 0
M  V30 18042 H 1776.81 1.17326 -4.70492 0
M  V30 18043 N 1778.15 1.48666 0.52309 0
M  V30 18044 C 1779.12 1.63211 1.60919 0
M  V30 18045 C 1780.12 0.505012 1.52664 0
M  V30 18046 O 1781.31 0.770967 1.56211 0
M  V30 18047 C 1778.44 1.60878 3.00551 0
M  V30 18048 H 1779.63 2.60061 1.4936 0
M  V30 18049 H 1777.19 1.37366 0.745674 0
M  V30 18050 H 1777.92 0.655306 3.1761 0
M  V30 18051 H 1777.71 2.4271 3.07952 0
M  V30 18052 H 1779.2 1.74263 3.79502 0
M  V30 18053 N 1779.63 -0.772489 1.37369 0
M  V30 18054 C 1780.56 -1.89969 1.35772 0
M  V30 18055 C 1781.54 -1.68586 0.226452 0
M  V30 18056 O 1782.73 -1.89454 0.426692 0
M  V30 18057 C 1779.86 -3.27242 1.16319 0
M  V30 18058 C 1778.81 -3.63187 2.2645 0
M  V30 18059 C 1778.14 -4.98992 1.92121 0
M  V30 18060 C 1779.44 -3.70013 3.6863 0
M  V30 18061 H 1781.13 -1.91564 2.30095 0
M  V30 18062 H 1778.68 -0.920241 1.10759 0
M  V30 18063 H 1780.63 -4.05734 1.13832 0
M  V30 18064 H 1779.36 -3.26078 0.184513 0
M  V30 18065 H 1778.01 -2.87001 2.28091 0
M  V30 18066 H 1777.66 -4.94368 0.927848 0
M  V30 18067 H 1777.36 -5.24012 2.65867 0
M  V30 18068 H 1778.89 -5.79886 1.91219 0
M  V30 18069 H 1780.3 -4.38659 3.69122 0
M  V30 18070 H 1778.7 -4.06529 4.41423 0
M  V30 18071 H 1779.77 -2.70694 4.02309 0
M  V30 18072 N 1781.11 -1.21927 -0.998575 0
M  V30 18073 C 1782.34 -1.06735 -1.77827 0
M  V30 18074 C 1782.76 0.378154 -1.8426 0
M  V30 18075 O 1782.12 1.27301 -1.2909 0
M  V30 18076 C 1782.17 -1.67662 -3.19252 0
M  V30 18077 O 1781.27 -0.926448 -4.01859 0
M  V30 18078 H 1780.61 -0.375241 -0.547805 0
M  V30 18079 H 1783.14 -1.61605 -1.25478 0
M  V30 18080 H 1783.15 -1.72151 -3.69903 0
M  V30 18081 H 1781.83 -2.72854 -3.13885 0
M  V30 18082 H 1780.4 -0.957145 -3.60407 0
M  V30 18083 N 1782.59 1.19452 -1.02805 0
M  V30 18084 C 1783.54 2.20533 -0.578732 0
M  V30 18085 C 1784.52 1.56539 0.372081 0
M  V30 18086 O 1785.71 1.75943 0.193185 0
M  V30 18087 C 1782.84 3.43229 0.0698982 0
M  V30 18088 C 1781.93 4.14368 -0.903306 0
M  V30 18089 N 1782.32 4.61709 -2.0654 0
M  V30 18090 C 1780.62 4.40042 -0.726572 0
M  V30 18091 C 1781.32 5.1633 -2.67914 0
M  V30 18092 N 1780.3 5.0708 -1.95884 0
M  V30 18093 H 1784.1 2.54813 -1.46451 0
M  V30 18094 H 1781.61 1.35517 -0.894927 0
M  V30 18095 H 1783.61 4.14885 0.409411 0
M  V30 18096 H 1782.27 3.1045 0.951368 0
M  V30 18097 H 1783.28 4.5656 -2.44485 0
M  V30 18098 H 1779.96 4.17366 0.105875 0
M  V30 18099 H 1781.35 5.63254 -3.66326 0
M  V30 18100 N 1784.07 0.805805 1.35442 0
M  V30 18101 C 1785.03 0.221278 2.28129 0
M  V30 18102 C 1786.03 -0.590919 1.49549 0
M  V30 18103 O 1787.22 -0.409518 1.69318 0
M  V30 18104 C 1784.35 -0.691643 3.3381 0
M  V30 18105 H 1785.54 1.03875 2.81336 0
M  V30 18106 H 1783.1 0.5764 1.45284 0
M  V30 18107 H 1783.83 -1.53283 2.85788 0
M  V30 18108 H 1783.62 -0.110972 3.91943 0
M  V30 18109 H 1785.11 -1.09497 4.02989 0
M  V30 18110 N 1785.54 -1.47344 0.559239 0
M  V30 18111 C 1786.79 -2.02068 0.035872 0
M  V30 18112 C 1787.11 -1.43573 -1.31953 0
M  V30 18113 O 1786.38 -0.611672 -1.86106 0
M  V30 18114 H 1784.96 -0.746929 0.0102713 0
M  V30 18115 H 1787.63 -1.80724 0.729707 0
M  V30 18116 H 1786.72 -3.12059 -0.0507123 0
M  V30 18117 N 1787.02 -0.295795 -1.54799 0
M  V30 18118 C 1788.44 0.0577516 -1.59495 0
M  V30 18119 C 1788.64 1.52862 -1.31284 0
M  V30 18120 O 1787.69 2.28061 -1.08372 0
M  V30 18121 C 1789.01 -0.335503 -2.98822 0
M  V30 18122 C 1790.56 -0.283835 -3.1171 0
M  V30 18123 C 1791.03 -0.651835 -4.53338 0
M  V30 18124 N 1792.52 -0.604171 -4.59243 0
M  V30 18125 C 1793.26 -0.861453 -5.66892 0
M  V30 18126 N 1792.75 -1.18443 -6.826 0
M  V30 18127 N 1794.55 -0.788863 -5.56537 0
M  V30 18128 H 1786.7 -1.25444 -1.71399 0
M  V30 18129 H 1788.96 -0.50822 -0.80026 0
M  V30 18130 H 1788.67 -1.35923 -3.24373 0
M  V30 18131 H 1788.54 0.313443 -3.75895 0
M  V30 18132 H 1790.93 0.730641 -2.85912 0
M  V30 18133 H 1791.01 -0.967331 -2.36804 0
M  V30 18134 H 1790.65 -1.66409 -4.79865 0
M  V30 18135 H 1790.58 0.053676 -5.26573 0
M  V30 18136 H 1793.07 -0.365262 -3.76131 0
M  V30 18137 H 1793.39 -1.36686 -7.60616 0
M  V30 18138 H 1791.73 -1.22242 -6.84165 0
M  V30 18139 H 1794.92 -0.536231 -4.65018 0
M  V30 18140 H 1795.09 -0.992744 -6.4035 0
M  V30 18141 N 1788.5 1.57583 -0.0234236 0
M  V30 18142 C 1789.43 2.12907 0.958804 0
M  V30 18143 C 1790.41 1.0438 1.34309 0
M  V30 18144 O 1791.6 1.32184 1.42271 0
M  V30 18145 C 1788.73 2.65151 2.24304 0
M  V30 18146 C 1787.68 3.78414 1.99967 0
M  V30 18147 C 1787.01 4.17064 3.34607 0
M  V30 18148 C 1788.31 5.04727 1.34342 0
M  V30 18149 H 1790 2.95228 0.498081 0
M  V30 18150 H 1787.55 1.42017 0.238138 0
M  V30 18151 H 1789.5 3.02487 2.93393 0
M  V30 18152 H 1788.22 1.79983 2.72532 0
M  V30 18153 H 1786.88 3.41507 1.33298 0
M  V30 18154 H 1786.53 3.28886 3.80583 0
M  V30 18155 H 1786.23 4.93385 3.19132 0
M  V30 18156 H 1787.76 4.56978 4.04973 0
M  V30 18157 H 1789.17 5.39686 1.93422 0
M  V30 18158 H 1787.57 5.86009 1.29282 0
M  V30 18159 H 1788.64 4.83872 0.315625 0
M  V30 18160 N 1789.98 -0.249655 1.5561 0
M  V30 18161 C 1790.91 -1.31281 1.931 0
M  V30 18162 C 1791.89 -1.50347 0.795601 0
M  V30 18163 O 1793.08 -1.63001 1.05566 0
M  V30 18164 C 1790.21 -2.66808 2.2233 0
M  V30 18165 C 1789.16 -2.62441 3.38096 0
M  V30 18166 C 1788.49 -4.01738 3.52861 0
M  V30 18167 C 1789.79 -2.19667 4.7386 0
M  V30 18168 H 1791.48 -1.00151 2.82153 0
M  V30 18169 H 1789.03 -0.480331 1.35753 0
M  V30 18170 H 1790.98 -3.41316 2.47146 0
M  V30 18171 H 1789.7 -2.99569 1.30101 0
M  V30 18172 H 1788.36 -1.90391 3.13284 0
M  V30 18173 H 1788.01 -4.31759 2.58056 0
M  V30 18174 H 1787.71 -3.99705 4.30708 0
M  V30 18175 H 1789.23 -4.7795 3.79995 0
M  V30 18176 H 1790.65 -2.83906 4.98067 0
M  V30 18177 H 1789.04 -2.28751 5.54791 0
M  V30 18178 H 1790.11 -1.14829 4.71108 0
M  V30 18179 N 1791.46 -1.48941 -0.515198 0
M  V30 18180 C 1792.42 -1.64062 -1.60051 0
M  V30 18181 C 1793.42 -0.513101 -1.52394 0
M  V30 18182 O 1794.61 -0.77924 -1.558 0
M  V30 18183 C 1791.74 -1.6247 -2.99694 0
M  V30 18184 H 1792.94 -2.60849 -1.47978 0
M  V30 18185 H 1790.49 -1.37759 -0.738378 0
M  V30 18186 H 1791.22 -0.672141 -3.17258 0
M  V30 18187 H 1791.01 -2.4434 -3.0666 0
M  V30 18188 H 1792.5 -1.76273 -3.78573 0
M  V30 18189 N 1792.94 0.765193 -1.37777 0
M  V30 18190 C 1794.16 1.55948 -1.3673 0
M  V30 18191 C 1794.59 1.8805 0.0435817 0
M  V30 18192 O 1793.94 1.49718 1.02246 0
M  V30 18193 C 1793.99 2.84245 -2.21895 0
M  V30 18194 O 1793.1 3.78903 -1.62807 0
M  V30 18195 H 1792.44 0.472127 -0.466897 0
M  V30 18196 H 1794.97 0.946556 -1.81388 0
M  V30 18197 H 1794.98 3.33284 -2.35342 0
M  V30 18198 H 1793.65 2.60209 -3.24444 0
M  V30 18199 H 1792.23 3.37568 -1.58437 0
M  V30 18200 N 1794.41 1.22455 0.992094 0
M  V30 18201 C 1795.64 1.07677 1.77258 0
M  V30 18202 C 1796.06 -0.368377 1.84458 0
M  V30 18203 O 1795.42 -1.26614 1.29763 0
M  V30 18204 C 1795.47 1.69353 3.18358 0
M  V30 18205 O 1794.57 0.947746 4.01362 0
M  V30 18206 H 1793.91 0.378141 0.545807 0
M  V30 18207 H 1796.44 1.62269 1.2462 0
M  V30 18208 H 1796.45 1.7411 3.68985 0
M  V30 18209 H 1795.13 2.74515 3.12433 0
M  V30 18210 H 1793.71 0.976245 3.59894 0
M  V30 18211 N 1795.89 -1.18905 1.03437 0
M  V30 18212 C 1797.12 -1.92678 0.753853 0
M  V30 18213 C 1797.53 -1.75814 -0.688111 0
M  V30 18214 O 1796.89 -1.08363 -1.46846 0
M  V30 18215 C 1796.94 -3.44275 1.10258 0
M  V30 18216 O 1796.66 -3.60602 2.48793 0
M  V30 18217 C 1798.16 -4.35159 0.84566 0
M  V30 18218 H 1795.38 -0.611875 0.275408 0
M  V30 18219 H 1797.93 -1.50887 1.38034 0
M  V30 18220 H 1796.08 -3.83878 0.521177 0
M  V30 18221 H 1796.5 -4.54403 2.61951 0
M  V30 18222 H 1797.97 -5.40109 1.13958 0
M  V30 18223 H 1798.45 -4.3865 -0.219767 0
M  V30 18224 H 1799.05 -4.01245 1.41006 0
M  V30 18225 N 1797.37 -0.812977 -1.35013 0
M  V30 18226 C 1798.33 -0.233373 -2.28009 0
M  V30 18227 C 1799.33 0.58298 -1.4986 0
M  V30 18228 O 1800.52 0.400533 -1.69533 0
M  V30 18229 C 1797.65 0.673931 -3.34172 0
M  V30 18230 H 1798.85 -1.05366 -2.80781 0
M  V30 18231 H 1796.4 -0.584097 -1.44976 0
M  V30 18232 H 1797.14 1.51766 -2.86597 0
M  V30 18233 H 1796.92 0.0901848 -3.91996 0
M  V30 18234 H 1798.41 1.07358 -4.03564 0
M  V30 18235 N 1798.85 1.47045 -0.567045 0
M  V30 18236 C 1799.81 2.28607 0.164758 0
M  V30 18237 C 1800.81 1.37509 0.833542 0
M  V30 18238 O 1802 1.60043 0.687895 0
M  V30 18239 C 1799.13 3.17466 1.24211 0
M  V30 18240 H 1800.33 2.9478 -0.551814 0
M  V30 18241 H 1797.88 1.52897 -0.324376 0
M  V30 18242 H 1798.61 2.56006 1.99076 0
M  V30 18243 H 1798.4 3.8452 0.767243 0
M  V30 18244 H 1799.89 3.78894 1.75582 0
M  V30 18245 N 1800.33 0.304 1.5464 0
M  V30 18246 C 1801.55 -0.309709 2.05075 0
M  V30 18247 C 1801.98 -1.46509 1.1797 0
M  V30 18248 O 1801.33 -1.80359 0.184437 0
M  V30 18249 C 1801.38 -0.740734 3.5291 0
M  V30 18250 O 1800.49 -1.8452 3.68817 0
M  V30 18251 H 1799.83 -0.0596065 0.661319 0
M  V30 18252 H 1802.36 0.446718 1.99664 0
M  V30 18253 H 1802.37 -1.02873 3.94818 0
M  V30 18254 H 1801.04 0.104422 4.15769 0
M  V30 18255 H 1799.62 -1.55753 3.38815 0
M  V30 18256 N 1801.8 -1.57568 0.0317802 0
M  V30 18257 C 1803.05 -1.92194 -0.647238 0
M  V30 18258 C 1803.38 -0.908747 -1.71626 0
M  V30 18259 O 1802.66 0.0681334 -1.94381 0
M  V30 18260 C 1802.94 -3.3729 -1.26124 0
M  V30 18261 C 1802.79 -4.49348 -0.201594 0
M  V30 18262 C 1804.11 -3.824 -2.17849 0
M  V30 18263 H 1801.23 -0.698927 -0.233817 0
M  V30 18264 H 1803.87 -1.89789 0.0895831 0
M  V30 18265 H 1802.02 -3.39471 -1.88922 0
M  V30 18266 H 1803.7 -4.59299 0.429155 0
M  V30 18267 H 1801.94 -4.31218 0.472624 0
M  V30 18268 H 1802.61 -5.47908 -0.670859 0
M  V30 18269 H 1805.09 -3.81972 -1.65034 0
M  V30 18270 H 1803.96 -4.84614 -2.57761 0
M  V30 18271 H 1804.22 -3.18054 -3.07073 0
M  V30 18272 N 1803.28 0.241399 -1.5574 0
M  V30 18273 C 1804.69 0.810024 -1.68213 0
M  V30 18274 C 1805.04 1.85802 -0.630237 0
M  V30 18275 O 1804.17 2.15254 0.222457 0
M  V30 18276 C 1804.76 1.47603 -3.04957 0
M  V30 18277 C 1803.32 1.99229 -3.1935 0
M  V30 18278 C 1802.47 0.845339 -2.64101 0
M  V30 18279 H 1805.42 0.0171031 -1.58691 0
M  V30 18280 H 1805.44 2.34425 -2.99709 0
M  V30 18281 H 1804.95 0.713047 -3.81493 0
M  V30 18282 H 1803.06 2.78391 -2.47647 0
M  V30 18283 H 1803.17 2.1859 -4.26328 0
M  V30 18284 H 1801.53 1.24734 -2.22067 0
M  V30 18285 H 1802.32 0.0953468 -3.43168 0
M  V30 18286 N 1804.76 1.49212 0.507292 0
M  V30 18287 C 1805.71 1.65894 1.6304 0
M  V30 18288 C 1806.7 0.524951 1.61061 0
M  V30 18289 O 1807.91 0.704392 1.65645 0
M  V30 18290 H 1804.28 0.522994 0.540353 0
M  V30 18291 H 1806.25 2.60176 1.4612 0
M  V30 18292 C 1805 1.73692 3.01208 0
M  V30 18293 H 1804.33 2.60323 3.03434 0
M  V30 18294 H 1805.77 1.89402 3.79346 0
M  V30 18295 C 1804.23 0.480378 3.33458 0
M  V30 18296 O 1804.76 -0.396732 3.99736 0
M  V30 18297 N 1802.96 0.345216 2.88542 0
M  V30 18298 H 1802.51 1.05997 2.34782 0
M  V30 18299 H 1802.47 -0.494453 3.10488 0
M  V30 18300 N 1806.24 -0.757876 1.38181 0
M  V30 18301 C 1807.47 -1.54709 1.37378 0
M  V30 18302 C 1807.88 -1.88763 -0.0375087 0
M  V30 18303 O 1807.24 -1.52467 -1.00299 0
M  V30 18304 C 1807.29 -2.84887 2.22535 0
M  V30 18305 O 1807.01 -2.52287 3.58166 0
M  V30 18306 C 1808.51 -3.79048 2.29865 0
M  V30 18307 H 1805.73 -0.478845 0.470052 0
M  V30 18308 H 1808.28 -0.938283 1.81704 0
M  V30 18309 H 1806.43 -3.42156 1.81682 0
M  V30 18310 H 1806.84 -3.35747 4.02957 0
M  V30 18311 H 1808.32 -4.67353 2.93744 0
M  V30 18312 H 1808.8 -4.19175 1.31106 0
M  V30 18313 H 1809.4 -3.27704 2.7109 0
M  V30 18314 N 1807.72 -1.22979 -0.985586 0
M  V30 18315 C 1808.65 -1.03073 -2.09519 0
M  V30 18316 C 1809.63 0.0507025 -1.70024 0
M  V30 18317 O 1810.81 -0.112938 -1.93871 0
M  V30 18318 C 1807.94 -0.615578 -3.41801 0
M  V30 18319 C 1806.9 -1.64377 -3.95176 0
M  V30 18320 C 1806.22 -1.08422 -5.23592 0
M  V30 18321 C 1807.52 -3.03555 -4.25032 0
M  V30 18322 H 1809.22 -1.95882 -2.2643 0
M  V30 18323 H 1806.76 -0.943206 -1.0881 0
M  V30 18324 H 1808.72 -0.463394 -4.18844 0
M  V30 18325 H 1807.44 0.348185 -3.24739 0
M  V30 18326 H 1806.1 -1.78386 -3.20272 0
M  V30 18327 H 1805.75 -0.111597 -5.02876 0
M  V30 18328 H 1805.45 -1.77118 -5.6027 0
M  V30 18329 H 1806.97 -0.94378 -6.03262 0
M  V30 18330 H 1808.38 -2.92878 -4.92844 0
M  V30 18331 H 1806.78 -3.69441 -4.72899 0
M  V30 18332 H 1807.85 -3.52937 -3.32511 0
M  V30 18333 N 1809.19 1.18355 -1.04066 0
M  V30 18334 C 1810.61 1.40349 -0.759898 0
M  V30 18335 C 1810.81 1.90709 0.650574 0
M  V30 18336 O 1809.87 2.09142 1.41477 0
M  V30 18337 C 1811.18 2.40426 -1.80599 0
M  V30 18338 C 1812.73 2.54153 -1.8269 0
M  V30 18339 C 1813.2 3.57494 -2.8629 0
M  V30 18340 N 1814.69 3.65001 -2.85181 0
M  V30 18341 C 1815.43 4.44688 -3.61995 0
M  V30 18342 N 1814.92 5.27984 -4.48559 0
M  V30 18343 N 1816.72 4.39451 -3.50484 0
M  V30 18344 H 1808.87 0.839924 -1.95087 0
M  V30 18345 H 1811.13 0.431492 -0.844108 0
M  V30 18346 H 1810.84 2.10471 -2.81771 0
M  V30 18347 H 1810.71 3.39773 -1.63812 0
M  V30 18348 H 1813.1 2.83424 -0.821889 0
M  V30 18349 H 1813.18 1.54919 -2.03553 0
M  V30 18350 H 1812.82 3.28963 -3.8697 0
M  V30 18351 H 1812.75 4.56405 -2.62682 0
M  V30 18352 H 1815.24 3.05522 -2.22407 0
M  V30 18353 H 1815.56 5.85939 -5.0388 0
M  V30 18354 H 1813.9 5.27404 -4.52626 0
M  V30 18355 H 1817.09 3.73426 -2.8226 0
M  V30 18356 H 1817.27 5.01313 -4.10596 0
M  V30 18357 N 1810.67 0.820125 1.3458 0
M  V30 18358 C 1811.6 0.254709 2.32107 0
M  V30 18359 C 1812.58 -0.6273 1.58111 0
M  V30 18360 O 1813.77 -0.554759 1.86108 0
M  V30 18361 C 1810.9 -0.586541 3.42311 0
M  V30 18362 C 1809.85 0.198096 4.27541 0
M  V30 18363 C 1809.18 -0.765718 5.29189 0
M  V30 18364 C 1810.48 1.40472 5.03056 0
M  V30 18365 H 1812.17 1.06955 2.79644 0
M  V30 18366 H 1809.72 0.515756 1.34447 0
M  V30 18367 H 1811.67 -0.992259 4.09551 0
M  V30 18368 H 1810.4 -1.4344 2.93415 0
M  V30 18369 H 1809.05 0.585149 3.619 0
M  V30 18370 H 1808.7 -1.60946 4.76556 0
M  V30 18371 H 1808.4 -0.244954 5.87089 0
M  V30 18372 H 1809.93 -1.16935 5.99298 0
M  V30 18373 H 1811.34 1.07316 5.63166 0
M  V30 18374 H 1809.74 1.86092 5.70517 0
M  V30 18375 H 1810.81 2.18437 4.32913 0
M  V30 18376 N 1812.15 -1.46743 0.574835 0
M  V30 18377 C 1813.06 -2.34015 -0.16559 0
M  V30 18378 C 1814.08 -1.49273 -0.894064 0
M  V30 18379 O 1815.25 -1.82162 -0.859013 0
M  V30 18380 C 1812.32 -3.26313 -1.17136 0
M  V30 18381 C 1811.38 -4.26952 -0.448413 0
M  V30 18382 C 1810.61 -5.1484 -1.40627 0
M  V30 18383 O 1810.83 -5.05508 -2.6423 0
M  V30 18384 O 1809.77 -5.9481 -0.921143 0
M  V30 18385 H 1813.59 -2.98664 0.550754 0
M  V30 18386 H 1811.18 -1.45589 0.335297 0
M  V30 18387 H 1813.06 -3.83276 -1.75149 0
M  V30 18388 H 1811.74 -2.64269 -1.86931 0
M  V30 18389 H 1810.64 -3.73698 0.17336 0
M  V30 18390 H 1811.98 -4.91759 0.208419 0
M  V30 18391 N 1813.63 -0.312197 -1.54477 0
M  V30 18392 C 1814.56 0.551829 -2.26886 0
M  V30 18393 C 1815.54 1.12874 -1.27254 0
M  V30 18394 O 1816.72 1.15599 -1.56046 0
M  V30 18395 C 1813.85 1.71839 -3.01809 0
M  V30 18396 C 1812.81 1.27131 -4.08683 0
M  V30 18397 C 1812.13 2.52392 -4.71384 0
M  V30 18398 C 1813.43 0.394413 -5.20809 0
M  V30 18399 H 1815.13 -0.0521331 -2.99355 0
M  V30 18400 H 1812.67 -0.0265138 -1.43976 0
M  V30 18401 H 1814.63 2.32903 -3.5119 0
M  V30 18402 H 1813.35 2.34876 -2.26938 0
M  V30 18403 H 1812.01 0.683666 -3.60169 0
M  V30 18404 H 1811.66 3.13768 -3.93139 0
M  V30 18405 H 1811.36 2.23174 -5.43569 0
M  V30 18406 H 1812.88 3.14239 -5.23533 0
M  V30 18407 H 1814.3 0.911031 -5.66015 0
M  V30 18408 H 1812.69 0.195517 -5.99781 0
M  V30 18409 H 1813.76 -0.577661 -4.81447 0
M  V30 18410 N 1815.11 1.57549 -0.040136 0
M  V30 18411 C 1816.52 1.56434 0.316341 0
M  V30 18412 C 1816.72 1.04679 1.72176 0
M  V30 18413 O 1815.78 0.698444 2.42648 0
M  V30 18414 C 1817.09 3.00301 0.154883 0
M  V30 18415 C 1818.64 3.12177 0.226821 0
M  V30 18416 C 1819.11 4.57903 0.0940219 0
M  V30 18417 N 1820.61 4.62955 0.150654 0
M  V30 18418 C 1821.34 5.73355 0.0718466 0
M  V30 18419 N 1820.84 6.92775 -0.0586777 0
M  V30 18420 N 1822.63 5.61957 0.126632 0
M  V30 18421 H 1814.78 1.89516 -0.959032 0
M  V30 18422 H 1817.04 0.872251 -0.371324 0
M  V30 18423 H 1816.75 3.42158 -0.813674 0
M  V30 18424 H 1816.62 3.65795 0.920521 0
M  V30 18425 H 1819.01 2.70225 1.18584 0
M  V30 18426 H 1819.09 2.49383 -0.569384 0
M  V30 18427 H 1818.74 5.00538 -0.861629 0
M  V30 18428 H 1818.67 5.18691 0.909231 0
M  V30 18429 H 1821.16 3.77064 0.251232 0
M  V30 18430 H 1821.47 7.72719 -0.111818 0
M  V30 18431 H 1819.81 6.94937 -0.0936119 0
M  V30 18432 H 1823.01 4.67549 0.227081 0
M  V30 18433 H 1823.18 6.47971 0.0617551 0
M  V30 18434 N 1816.58 -0.233136 1.55866 0
M  V30 18435 C 1817.83 -0.957324 1.77988 0
M  V30 18436 C 1818.15 -1.85325 0.606593 0
M  V30 18437 O 1817.42 -1.92237 -0.377047 0
M  V30 18438 H 1816 -0.356474 0.656457 0
M  V30 18439 H 1818.67 -0.247774 1.93319 0
M  V30 18440 H 1817.76 -1.57096 2.6968 0
M  V30 18441 N 1818.06 -1.49479 -0.499372 0
M  V30 18442 C 1819.47 -1.52231 -1.08087 0
M  V30 18443 C 1819.83 -0.309442 -1.93744 0
M  V30 18444 O 1818.95 0.580587 -2.08466 0
M  V30 18445 C 1819.55 -2.75857 -1.96694 0
M  V30 18446 C 1818.1 -2.81381 -2.50003 0
M  V30 18447 C 1817.25 -2.46166 -1.27662 0
M  V30 18448 H 1820.2 -1.56153 -0.283211 0
M  V30 18449 H 1820.22 -2.56111 -2.81403 0
M  V30 18450 H 1819.74 -3.64114 -1.34324 0
M  V30 18451 H 1817.84 -1.97408 -3.16008 0
M  V30 18452 H 1817.95 -3.83591 -2.87045 0
M  V30 18453 H 1816.31 -1.97981 -1.60236 0
M  V30 18454 H 1817.1 -3.36699 -0.669974 0
M  V30 18455 N 1819.54 0.750537 -1.38581 0
M  V30 18456 C 1820.47 1.87411 -1.31946 0
M  V30 18457 C 1821.49 1.61151 -0.231101 0
M  V30 18458 O 1822.68 1.71674 -0.488893 0
M  V30 18459 C 1819.78 3.23112 -1.02233 0
M  V30 18460 C 1818.95 3.76852 -2.22039 0
M  V30 18461 C 1818.01 4.91077 -1.89023 0
M  V30 18462 O 1817.03 5.0555 -2.61549 0
M  V30 18463 N 1818.24 5.74287 -0.847021 0
M  V30 18464 H 1821 1.93613 -2.28767 0
M  V30 18465 H 1818.56 0.930603 -1.32482 0
M  V30 18466 H 1820.55 3.97074 -0.78193 0
M  V30 18467 H 1819.12 3.12277 -0.141981 0
M  V30 18468 H 1818.34 2.94421 -2.62126 0
M  V30 18469 H 1819.63 4.09489 -3.01987 0
M  V30 18470 H 1819.03 5.65166 -0.245635 0
M  V30 18471 H 1817.59 6.48383 -0.666505 0
M  V30 18472 N 1821.02 1.235 0.979051 0
M  V30 18473 C 1822.43 1.06263 1.53509 0
M  V30 18474 C 1822.78 -0.369594 1.92687 0
M  V30 18475 O 1821.91 -1.25649 1.76185 0
M  V30 18476 C 1822.5 1.92276 2.78954 0
M  V30 18477 C 1821.06 1.79296 3.30953 0
M  V30 18478 C 1820.21 1.87898 2.03935 0
M  V30 18479 H 1823.16 1.37143 0.798588 0
M  V30 18480 H 1823.18 1.44835 3.51857 0
M  V30 18481 H 1822.69 2.96509 2.50408 0
M  V30 18482 H 1820.79 0.778512 3.64376 0
M  V30 18483 H 1820.91 2.62755 4.0062 0
M  V30 18484 H 1819.27 1.31494 2.18131 0
M  V30 18485 H 1820.05 2.93689 1.77769 0
M  V30 18486 N 1822.5 -1.17802 1.04693 0
M  V30 18487 C 1823.91 -1.39944 0.76733 0
M  V30 18488 C 1824.11 -1.91051 -0.640451 0
M  V30 18489 O 1823.17 -2.09889 -1.40366 0
M  V30 18490 C 1824.48 -2.39465 1.81871 0
M  V30 18491 C 1826.03 -2.5318 1.84035 0
M  V30 18492 C 1826.51 -3.55971 2.88182 0
M  V30 18493 N 1828 -3.63484 2.87113 0
M  V30 18494 C 1828.73 -4.42762 3.64348 0
M  V30 18495 N 1828.23 -5.25597 4.51353 0
M  V30 18496 N 1830.02 -4.37586 3.52809 0
M  V30 18497 H 1822.17 -0.829567 1.9553 0
M  V30 18498 H 1824.43 -0.427009 0.846385 0
M  V30 18499 H 1824.14 -2.08974 2.82883 0
M  V30 18500 H 1824.01 -3.38899 1.65612 0
M  V30 18501 H 1826.4 -2.82984 0.836908 0
M  V30 18502 H 1826.48 -1.53837 2.04371 0
M  V30 18503 H 1826.13 -3.26906 3.88709 0
M  V30 18504 H 1826.06 -4.55006 2.65099 0
M  V30 18505 H 1828.55 -3.04338 2.24024 0
M  V30 18506 H 1828.86 -5.83258 5.06981 0
M  V30 18507 H 1827.21 -5.24996 4.55417 0
M  V30 18508 H 1830.4 -3.71924 2.84236 0
M  V30 18509 H 1830.57 -4.99128 4.13249 0
M  V30 18510 N 1823.98 -0.827251 -1.34143 0
M  V30 18511 C 1825.25 -0.339793 -1.92626 0
M  V30 18512 C 1825.63 1.17342 -1.75482 0
M  V30 18513 O 1824.98 1.98251 -1.13616 0
M  V30 18514 C 1825.19 -0.773891 -3.40312 0
M  V30 18515 C 1826.54 -0.77521 -4.17463 0
M  V30 18516 O 1827.56 -0.716748 -3.48914 0
M  V30 18517 O 1826.42 -0.852347 -5.39812 0
M  V30 18518 H 1823.52 -0.0937486 -0.821669 0
M  V30 18519 H 1826.06 -0.91233 -1.4309 0
M  V30 18520 H 1824.83 -1.81597 -3.46609 0
M  V30 18521 H 1824.46 -0.177287 -3.97205 0
M  V30 18522 N 1825.45 1.46436 -0.582609 0
M  V30 18523 C 1826.36 2.34099 0.153178 0
M  V30 18524 C 1827.38 1.49745 0.886135 0
M  V30 18525 O 1828.56 1.82615 0.849341 0
M  V30 18526 C 1825.62 3.26929 1.15404 0
M  V30 18527 C 1824.68 4.27183 0.425764 0
M  V30 18528 C 1823.91 5.15578 1.37895 0
M  V30 18529 O 1824.14 5.06903 2.61545 0
M  V30 18530 O 1823.07 5.9529 0.889585 0
M  V30 18531 H 1826.9 2.98368 -0.566585 0
M  V30 18532 H 1824.48 1.45409 -0.343013 0
M  V30 18533 H 1826.36 3.842 1.73114 0
M  V30 18534 H 1825.04 2.65257 1.85527 0
M  V30 18535 H 1823.95 3.73601 -0.193175 0
M  V30 18536 H 1825.28 4.91641 -0.234496 0
M  V30 18537 N 1826.93 0.320385 1.54309 0
M  V30 18538 C 1828.18 -0.282584 2.00115 0
M  V30 18539 C 1828.5 -1.52904 1.21018 0
M  V30 18540 O 1827.77 -1.93413 0.311163 0
M  V30 18541 H 1826.35 -0.107406 0.739238 0
M  V30 18542 H 1829.01 0.436196 1.89956 0
M  V30 18543 H 1828.11 -0.541189 3.07372 0
M  V30 18544 N 1828.41 -1.57525 0.0484906 0
M  V30 18545 C 1829.66 -1.92585 -0.62589 0
M  V30 18546 C 1829.98 -0.926621 -1.71009 0
M  V30 18547 O 1829.24 0.0614997 -1.95603 0
M  V30 18548 C 1829.54 -3.34335 -1.26313 0
M  V30 18549 C 1829.2 -4.49851 -0.307397 0
M  V30 18550 C 1827.87 -4.8118 -0.0443996 0
M  V30 18551 C 1830.22 -5.20039 0.347762 0
M  V30 18552 C 1827.55 -5.80044 0.881238 0
M  V30 18553 C 1829.9 -6.19893 1.26157 0
M  V30 18554 C 1828.56 -6.49651 1.53327 0
M  V30 18555 H 1827.83 -0.704717 -0.229029 0
M  V30 18556 H 1830.48 -1.91158 0.114397 0
M  V30 18557 H 1828.78 -3.32115 -2.07862 0
M  V30 18558 H 1830.48 -3.58741 -1.79182 0
M  V30 18559 H 1827.07 -4.25402 -0.522561 0
M  V30 18560 H 1831.26 -4.9605 0.157663 0
M  V30 18561 H 1826.51 -6.01437 1.09924 0
M  V30 18562 H 1830.69 -6.73391 1.77532 0
M  V30 18563 H 1828.31 -7.26073 2.25216 0
M  V30 18564 N 1829.89 0.224867 -1.55988 0
M  V30 18565 C 1831.12 0.965325 -1.82661 0
M  V30 18566 C 1831.53 1.78581 -0.624935 0
M  V30 18567 O 1830.87 1.7893 0.415886 0
M  V30 18568 C 1830.93 1.93444 -3.03018 0
M  V30 18569 C 1830.59 1.29879 -4.38156 0
M  V30 18570 C 1831.59 0.69031 -5.15297 0
M  V30 18571 C 1829.28 1.31155 -4.84875 0
M  V30 18572 C 1831.27 0.103067 -6.37317 0
M  V30 18573 C 1828.96 0.720461 -6.06838 0
M  V30 18574 C 1829.96 0.11727 -6.82899 0
M  V30 18575 O 1829.64 -0.464631 -8.02556 0
M  V30 18576 H 1829.38 0.288651 -0.611275 0
M  V30 18577 H 1831.93 0.246237 -2.03919 0
M  V30 18578 H 1830.16 2.69243 -2.7757 0
M  V30 18579 H 1831.85 2.54017 -3.16592 0
M  V30 18580 H 1832.61 0.672801 -4.80311 0
M  V30 18581 H 1828.49 1.77044 -4.25648 0
M  V30 18582 H 1832.04 -0.368366 -6.96627 0
M  V30 18583 H 1827.93 0.735372 -6.41298 0
M  V30 18584 H 1828.7 -0.358628 -8.17714 0
M  V30 18585 N 1831.37 1.49742 0.491438 0
M  V30 18586 C 1832.59 1.63703 1.27343 0
M  V30 18587 C 1833.02 0.312079 1.85493 0
M  V30 18588 O 1832.37 -0.721545 1.66323 0
M  V30 18589 C 1832.42 2.71549 2.37262 0
M  V30 18590 O 1831.53 2.31387 3.41371 0
M  V30 18591 H 1830.87 0.547605 0.375533 0
M  V30 18592 H 1833.4 1.95991 0.587243 0
M  V30 18593 H 1833.41 2.94009 2.82883 0
M  V30 18594 H 1832.08 3.6772 1.94306 0
M  V30 18595 H 1830.66 2.19295 3.01603 0
M  V30 18596 N 1832.84 -0.743177 1.38977 0
M  V30 18597 C 1834.08 -1.51529 1.3718 0
M  V30 18598 C 1834.45 -1.91968 -0.0350605 0
M  V30 18599 O 1835.65 -2.6821 -0.177981 0
M  V30 18600 C 1833.92 -2.72723 2.30991 0
M  V30 18601 S 1835.48 -3.6247 2.47308 0
M  V30 18602 H 1832.3 -0.518415 0.486587 0
M  V30 18603 H 1834.9 -0.871522 1.74999 0
M  V30 18604 H 1833.6 -2.41141 3.32083 0
M  V30 18605 H 1833.13 -3.42036 1.94358 0
M  V30 18606 H 1835.15 -4.65991 1.7049 0
M  V30 18607 N 1834.32 -1.24018 -0.972487 0
M  V30 18608 C 1835.55 -1.10483 -1.75523 0
M  V30 18609 C 1835.97 0.338985 -1.8502 0
M  V30 18610 O 1835.33 1.24534 -1.31761 0
M  V30 18611 C 1835.38 -1.74396 -3.15624 0
M  V30 18612 O 1834.48 -1.01148 -3.99804 0
M  V30 18613 H 1833.82 -0.386777 -0.539722 0
M  V30 18614 H 1836.35 -1.64231 -1.22022 0
M  V30 18615 H 1836.36 -1.79958 -3.66168 0
M  V30 18616 H 1835.04 -2.7945 -3.08026 0
M  V30 18617 H 1833.62 -1.03338 -3.58296 0
M  V30 18618 N 1835.8 1.17245 -1.05316 0
M  V30 18619 C 1836.76 2.19508 -0.659467 0
M  V30 18620 C 1837.76 1.58169 0.289697 0
M  V30 18621 O 1838.95 1.74045 0.0734019 0
M  V30 18622 C 1836.09 3.40886 0.0311886 0
M  V30 18623 H 1837.28 2.55852 -1.5646 0
M  V30 18624 H 1834.83 1.31348 -0.847193 0
M  V30 18625 H 1835.57 3.10088 0.949535 0
M  V30 18626 H 1835.35 3.86655 -0.651191 0
M  V30 18627 H 1836.84 4.16573 0.292702 0
M  V30 18628 N 1837.28 0.834353 1.33702 0
M  V30 18629 C 1838.69 0.52156 1.50837 0
M  V30 18630 C 1838.89 -0.95203 1.77591 0
M  V30 18631 O 1837.95 -1.73603 1.83353 0
M  V30 18632 C 1839.26 1.39099 2.66593 0
M  V30 18633 C 1840.81 1.3893 2.80477 0
M  V30 18634 C 1841.29 2.24347 3.9929 0
M  V30 18635 N 1842.78 2.22032 4.06517 0
M  V30 18636 C 1843.51 2.84865 4.97634 0
M  V30 18637 N 1843.01 3.56732 5.93897 0
M  V30 18638 N 1844.8 2.74359 4.90595 0
M  V30 18639 H 1836.95 1.78832 1.14598 0
M  V30 18640 H 1839.22 0.762708 0.563011 0
M  V30 18641 H 1838.92 2.43795 2.53489 0
M  V30 18642 H 1838.8 1.06381 3.61888 0
M  V30 18643 H 1841.18 0.350069 2.93016 0
M  V30 18644 H 1841.26 1.75652 1.85957 0
M  V30 18645 H 1840.91 3.28326 3.8751 0
M  V30 18646 H 1840.84 1.84969 4.93046 0
M  V30 18647 H 1843.33 1.69765 3.37621 0
M  V30 18648 H 1843.64 4.01893 6.60077 0
M  V30 18649 H 1841.99 3.6084 5.93986 0
M  V30 18650 H 1845.18 2.17779 4.14355 0
M  V30 18651 H 1845.35 3.23612 5.61408 0
M  V30 18652 N 1838.76 -1.46125 0.590367 0
M  V30 18653 C 1839.98 -2.07234 0.0828625 0
M  V30 18654 C 1840.41 -1.43498 -1.21614 0
M  V30 18655 O 1839.76 -0.521488 -1.73638 0
M  V30 18656 C 1839.81 -3.60548 -0.0614302 0
M  V30 18657 O 1838.92 -3.97012 -1.11603 0
M  V30 18658 H 1838.26 -0.660685 0.0662654 0
M  V30 18659 H 1840.79 -1.87646 0.815486 0
M  V30 18660 H 1840.8 -4.07137 -0.265161 0
M  V30 18661 H 1839.47 -4.06328 0.887164 0
M  V30 18662 H 1838.05 -3.6212 -0.890146 0
M  V30 18663 N 1840.23 -0.328564 -1.54137 0
M  V30 18664 C 1841.65 0.158467 -1.86026 0
M  V30 18665 C 1842 1.51216 -1.25012 0
M  V30 18666 O 1841.12 2.09081 -0.558029 0
M  V30 18667 C 1841.72 0.294317 -3.37519 0
M  V30 18668 C 1840.28 0.72557 -3.69341 0
M  V30 18669 C 1839.42 -0.149724 -2.76895 0
M  V30 18670 H 1842.37 -0.548678 -1.48913 0
M  V30 18671 H 1842.39 1.12438 -3.63508 0
M  V30 18672 H 1841.91 -0.691071 -3.81898 0
M  V30 18673 H 1840.01 1.72052 -3.30498 0
M  V30 18674 H 1840.12 0.525853 -4.76205 0
M  V30 18675 H 1838.48 0.375531 -2.51916 0
M  V30 18676 H 1839.27 -1.13197 -3.24101 0
M  V30 18677 N 1841.71 1.57497 -0.0568439 0
M  V30 18678 C 1842.64 2.14892 0.913427 0
M  V30 18679 C 1843.62 1.07205 1.32065 0
M  V30 18680 O 1844.81 1.35172 1.39435 0
M  V30 18681 C 1841.94 2.69849 2.18629 0
M  V30 18682 C 1840.89 3.8257 1.91896 0
M  V30 18683 C 1840.22 4.24068 3.25685 0
M  V30 18684 C 1841.52 5.07463 1.23606 0
M  V30 18685 H 1843.21 2.96218 0.435347 0
M  V30 18686 H 1840.76 1.4249 0.20796 0
M  V30 18687 H 1842.71 3.08643 2.86911 0
M  V30 18688 H 1841.44 1.85723 2.68653 0
M  V30 18689 H 1840.09 3.44258 1.26024 0
M  V30 18690 H 1839.74 3.36884 3.73521 0
M  V30 18691 H 1839.44 5.00043 3.08594 0
M  V30 18692 H 1840.97 4.65466 3.95189 0
M  V30 18693 H 1842.38 5.43667 1.81931 0
M  V30 18694 H 1840.78 5.88619 1.16823 0
M  V30 18695 H 1841.85 4.84432 0.212918 0
M  V30 18696 N 1843.19 -0.216591 1.56105 0
M  V30 18697 C 1844.44 -0.938392 1.78993 0
M  V30 18698 C 1844.76 -1.84671 0.626215 0
M  V30 18699 O 1844.03 -1.92626 -0.356636 0
M  V30 18700 H 1842.61 -0.349491 0.660201 0
M  V30 18701 H 1845.27 -0.227256 1.93571 0
M  V30 18702 H 1844.37 -1.54227 2.71331 0
M  V30 18703 N 1844.67 -1.5 -0.48349 0
M  V30 18704 C 1845.6 -1.64096 -1.60016 0
M  V30 18705 C 1846.61 -0.522896 -1.54174 0
M  V30 18706 O 1847.8 -0.795621 -1.59788 0
M  V30 18707 C 1844.9 -1.5979 -2.98865 0
M  V30 18708 C 1844.08 -2.87422 -3.29708 0
M  V30 18709 C 1843.13 -2.75928 -4.48051 0
M  V30 18710 O 1842.16 -3.49878 -4.4897 0
M  V30 18711 N 1843.36 -1.88648 -5.48992 0
M  V30 18712 H 1846.13 -2.60411 -1.48345 0
M  V30 18713 H 1843.69 -1.47309 -0.671691 0
M  V30 18714 H 1845.68 -1.4973 -3.75983 0
M  V30 18715 H 1844.25 -0.712613 -3.04369 0
M  V30 18716 H 1843.47 -3.11702 -2.4132 0
M  V30 18717 H 1844.76 -3.72002 -3.4712 0
M  V30 18718 H 1844.16 -1.27857 -5.51062 0
M  V30 18719 H 1842.71 -1.845 -6.25142 0
M  V30 18720 N 1846.15 0.735796 -1.39369 0
M  V30 18721 C 1847.11 1.83148 -1.37802 0
M  V30 18722 C 1848.11 1.58426 -0.27528 0
M  V30 18723 O 1849.3 1.65841 -0.53314 0
M  V30 18724 C 1846.43 3.20923 -1.14984 0
M  V30 18725 H 1847.62 1.85941 -2.353 0
M  V30 18726 H 1845.18 0.939367 -1.24922 0
M  V30 18727 H 1845.91 3.23791 -0.181648 0
M  V30 18728 H 1845.7 3.40264 -1.94841 0
M  V30 18729 H 1847.19 4.00984 -1.16626 0
M  V30 18730 N 1847.63 1.24532 0.965897 0
M  V30 18731 C 1848.57 1.03699 2.08205 0
M  V30 18732 C 1849.57 -0.0286308 1.69376 0
M  V30 18733 O 1850.77 0.126073 1.79558 0
M  V30 18734 H 1847.15 0.318331 0.6813 0
M  V30 18735 H 1849.12 1.98348 2.22937 0
M  V30 18736 C 1847.87 0.660411 3.41371 0
M  V30 18737 H 1847.19 1.47216 3.71709 0
M  V30 18738 H 1848.63 0.554264 4.20362 0
M  V30 18739 C 1847.09 -0.632633 3.30907 0
M  V30 18740 O 1847.62 -1.67786 3.6498 0
M  V30 18741 N 1845.83 -0.61403 2.84039 0
M  V30 18742 H 1845.37 0.236909 2.56508 0
M  V30 18743 H 1845.33 -1.47938 2.7742 0
M  V30 18744 N 1849.1 -1.16685 1.05936 0
M  V30 18745 C 1850.33 -1.91035 0.794553 0
M  V30 18746 C 1850.75 -1.77234 -0.650663 0
M  V30 18747 O 1850.1 -1.11454 -1.44514 0
M  V30 18748 C 1850.15 -3.41859 1.17536 0
M  V30 18749 O 1849.88 -3.55243 2.56386 0
M  V30 18750 C 1851.38 -4.33267 0.937774 0
M  V30 18751 H 1848.6 -0.605896 0.288325 0
M  V30 18752 H 1851.14 -1.47925 1.41203 0
M  V30 18753 H 1849.3 -3.82686 0.602486 0
M  V30 18754 H 1849.71 -4.48744 2.71531 0
M  V30 18755 H 1851.18 -5.3757 1.25389 0
M  V30 18756 H 1851.66 -4.39017 -0.126673 0
M  V30 18757 H 1852.27 -3.98163 1.49486 0
M  V30 18758 N 1850.58 -0.841432 -1.33258 0
M  V30 18759 C 1851.81 -0.45101 -2.02437 0
M  V30 18760 C 1852.23 0.940811 -1.62881 0
M  V30 18761 O 1851.59 1.61559 -0.82271 0
M  V30 18762 C 1851.64 -0.58237 -3.55866 0
M  V30 18763 O 1850.74 0.390326 -4.10549 0
M  V30 18764 H 1850.08 -0.182996 -0.638285 0
M  V30 18765 H 1852.61 -1.13697 -1.701 0
M  V30 18766 H 1852.62 -0.464967 -4.05342 0
M  V30 18767 H 1851.3 -1.59739 -3.84 0
M  V30 18768 H 1849.87 0.230266 -3.72188 0
M  V30 18769 N 1852.06 1.4581 -0.598108 0
M  V30 18770 C 1852.99 2.33223 0.113747 0
M  V30 18771 C 1853.97 1.46268 0.868312 0
M  V30 18772 O 1855.16 1.75058 0.840737 0
M  V30 18773 C 1852.29 3.28815 1.11795 0
M  V30 18774 C 1851.24 4.25331 0.477223 0
M  V30 18775 C 1850.57 5.10544 1.589 0
M  V30 18776 C 1851.87 5.18894 -0.595518 0
M  V30 18777 H 1853.56 2.92992 -0.616123 0
M  V30 18778 H 1851.11 1.40888 -0.297741 0
M  V30 18779 H 1853.06 3.88832 1.62443 0
M  V30 18780 H 1851.78 2.67185 1.87829 0
M  V30 18781 H 1850.44 3.66599 -0.00831044 0
M  V30 18782 H 1850.09 4.45288 2.33939 0
M  V30 18783 H 1849.79 5.75918 1.16584 0
M  V30 18784 H 1851.31 5.73427 2.09794 0
M  V30 18785 H 1852.73 5.73037 -0.173494 0
M  V30 18786 H 1851.12 5.92694 -0.939873 0
M  V30 18787 H 1852.19 4.61895 -1.47584 0
M  V30 18788 N 1853.54 0.336733 1.53961 0
M  V30 18789 C 1854.45 -0.531812 2.28493 0
M  V30 18790 C 1855.46 -1.11784 1.33343 0
M  V30 18791 O 1856.64 -1.13499 1.66373 0
M  V30 18792 C 1853.7 -1.67031 3.03812 0
M  V30 18793 C 1852.77 -1.11475 4.14574 0
M  V30 18794 C 1852 -2.19898 4.86292 0
M  V30 18795 O 1852.22 -3.40492 4.57625 0
M  V30 18796 O 1851.16 -1.84576 5.72901 0
M  V30 18797 H 1854.98 0.0738624 3.0361 0
M  V30 18798 H 1852.57 0.101996 1.49051 0
M  V30 18799 H 1854.45 -2.33286 3.50936 0
M  V30 18800 H 1853.12 -2.26192 2.31558 0
M  V30 18801 H 1852.03 -0.416915 3.7177 0
M  V30 18802 H 1853.36 -0.568092 4.88911 0
M  V30 18803 N 1855.02 -1.57465 0.0651956 0
M  V30 18804 C 1855.95 -2.15374 -0.902018 0
M  V30 18805 C 1856.93 -1.07904 -1.31494 0
M  V30 18806 O 1858.11 -1.35909 -1.38717 0
M  V30 18807 C 1855.24 -2.71005 -2.17195 0
M  V30 18808 C 1854.2 -3.83583 -1.89864 0
M  V30 18809 C 1853.52 -4.25789 -3.23432 0
M  V30 18810 C 1854.82 -5.08112 -1.20913 0
M  V30 18811 H 1856.52 -2.96445 -0.419631 0
M  V30 18812 H 1854.06 -1.42599 -0.200401 0
M  V30 18813 H 1856.01 -3.1016 -2.8527 0
M  V30 18814 H 1854.74 -1.87146 -2.67664 0
M  V30 18815 H 1853.4 -3.44921 -1.24197 0
M  V30 18816 H 1853.05 -3.38861 -3.71729 0
M  V30 18817 H 1852.75 -5.01673 -3.05938 0
M  V30 18818 H 1854.27 -4.67555 -3.92715 0
M  V30 18819 H 1855.68 -5.44624 -1.79046 0
M  V30 18820 H 1854.08 -5.8923 -1.137 0
M  V30 18821 H 1855.15 -4.84538 -0.187224 0
M  V30 18822 N 1856.49 0.20831 -1.56217 0
M  V30 18823 C 1857.91 0.55859 -1.49506 0
M  V30 18824 C 1858.11 1.86504 -0.762784 0
M  V30 18825 O 1857.17 2.50616 -0.307868 0
M  V30 18826 C 1858.48 0.625557 -2.94121 0
M  V30 18827 C 1860.03 0.715289 -3.04717 0
M  V30 18828 C 1860.5 0.813485 -4.50718 0
M  V30 18829 N 1861.99 0.87736 -4.54815 0
M  V30 18830 C 1862.73 0.973279 -5.65079 0
M  V30 18831 N 1862.22 1.03232 -6.85066 0
M  V30 18832 N 1864.02 1.00944 -5.52962 0
M  V30 18833 H 1856.17 -0.648826 -2.02247 0
M  V30 18834 H 1858.43 -0.229425 -0.91982 0
M  V30 18835 H 1858.14 -0.265056 -3.507 0
M  V30 18836 H 1858.01 1.48473 -3.4675 0
M  V30 18837 H 1860.4 1.59634 -2.48196 0
M  V30 18838 H 1860.48 -0.169818 -2.55236 0
M  V30 18839 H 1860.12 -0.0631602 -5.07861 0
M  V30 18840 H 1860.05 1.7142 -4.97918 0
M  V30 18841 H 1862.54 0.841513 -3.68411 0
M  V30 18842 H 1862.86 1.10566 -7.6485 0
M  V30 18843 H 1861.2 1.00122 -6.8775 0
M  V30 18844 H 1864.39 0.960065 -4.58149 0
M  V30 18845 H 1864.57 1.08074 -6.38924 0
M  V30 18846 N 1857.97 1.50255 0.475528 0
M  V30 18847 C 1858.9 1.71721 1.58222 0
M  V30 18848 C 1859.88 0.56612 1.60403 0
M  V30 18849 O 1861.07 0.804774 1.7674 0
M  V30 18850 C 1858.2 1.80726 2.96573 0
M  V30 18851 C 1857.15 2.95877 3.09258 0
M  V30 18852 C 1856.48 2.9002 4.49213 0
M  V30 18853 C 1857.78 4.36452 2.86891 0
M  V30 18854 H 1859.47 2.6438 1.40511 0
M  V30 18855 H 1857.02 1.27224 0.674533 0
M  V30 18856 H 1858.97 1.94328 3.73918 0
M  V30 18857 H 1857.69 0.846846 3.1543 0
M  V30 18858 H 1856.35 2.81918 2.34345 0
M  V30 18859 H 1856 1.91834 4.64982 0
M  V30 18860 H 1855.7 3.67322 4.58637 0
M  V30 18861 H 1857.23 3.05665 5.28584 0
M  V30 18862 H 1858.64 4.5096 3.53989 0
M  V30 18863 H 1857.04 5.15171 3.07765 0
M  V30 18864 H 1858.11 4.49129 1.82786 0
M  V30 18865 N 1859.45 -0.728395 1.39758 0
M  V30 18866 C 1860.36 -1.87279 1.41293 0
M  V30 18867 C 1861.38 -1.71271 0.306965 0
M  V30 18868 O 1862.55 -1.93759 0.549502 0
M  V30 18869 C 1859.62 -3.22943 1.2613 0
M  V30 18870 C 1858.68 -3.51297 2.46756 0
M  V30 18871 C 1857.91 -4.80489 2.32307 0
M  V30 18872 O 1858.13 -5.54676 1.33005 0
M  V30 18873 O 1857.07 -5.08891 3.21425 0
M  V30 18874 H 1860.89 -1.88939 2.37773 0
M  V30 18875 H 1858.48 -0.877103 1.20943 0
M  V30 18876 H 1860.36 -4.04003 1.19832 0
M  V30 18877 H 1859.04 -3.22039 0.327492 0
M  V30 18878 H 1857.94 -2.70298 2.58631 0
M  V30 18879 H 1859.28 -3.56986 3.38853 0
M  V30 18880 N 1860.93 -1.25042 -0.959279 0
M  V30 18881 C 1862.18 -1.09298 -1.69995 0
M  V30 18882 C 1862.5 0.367507 -1.91506 0
M  V30 18883 O 1861.77 1.26142 -1.49883 0
M  V30 18884 H 1860.35 -0.401469 -0.629945 0
M  V30 18885 H 1863.01 -1.57094 -1.15358 0
M  V30 18886 H 1862.1 -1.59766 -2.68107 0
M  V30 18887 N 1862.41 1.16121 -1.06553 0
M  V30 18888 C 1863.65 1.86991 -0.784989 0
M  V30 18889 C 1863.99 1.81645 0.686919 0
M  V30 18890 O 1863.26 1.23394 1.50347 0
M  V30 18891 C 1863.54 3.36448 -1.28355 0
M  V30 18892 C 1863.4 3.5047 -2.81941 0
M  V30 18893 C 1864.72 4.30933 -0.893561 0
M  V30 18894 H 1861.83 0.678978 -0.286633 0
M  V30 18895 H 1864.48 1.36475 -1.32192 0
M  V30 18896 H 1862.63 3.796 -0.826796 0
M  V30 18897 H 1864.3 3.16237 -3.35845 0
M  V30 18898 H 1862.54 2.92294 -3.20541 0
M  V30 18899 H 1863.21 4.55443 -3.11891 0
M  V30 18900 H 1865.69 3.95696 -1.287 0
M  V30 18901 H 1864.56 5.3401 -1.26984 0
M  V30 18902 H 1864.83 4.41642 0.201274 0
M  V30 18903 N 1863.88 0.848487 1.3281 0
M  V30 18904 C 1865.3 0.537529 1.50276 0
M  V30 18905 C 1865.5 -0.93314 1.78591 0
M  V30 18906 O 1864.56 -1.71649 1.85184 0
M  V30 18907 C 1865.87 1.41919 2.65103 0
M  V30 18908 C 1867.42 1.41897 2.78988 0
M  V30 18909 C 1867.89 2.2857 3.96888 0
M  V30 18910 N 1869.38 2.26331 4.04139 0
M  V30 18911 C 1870.12 2.90127 4.94585 0
M  V30 18912 N 1869.61 3.63011 5.9008 0
M  V30 18913 N 1871.41 2.79547 4.87658 0
M  V30 18914 H 1863.56 1.80038 1.12695 0
M  V30 18915 H 1865.82 0.768636 0.554889 0
M  V30 18916 H 1865.53 2.4647 2.50889 0
M  V30 18917 H 1865.4 1.10213 3.60739 0
M  V30 18918 H 1867.79 0.381128 2.92628 0
M  V30 18919 H 1867.87 1.77614 1.84084 0
M  V30 18920 H 1867.51 3.32418 3.84006 0
M  V30 18921 H 1867.44 1.90188 4.91056 0
M  V30 18922 H 1869.93 1.73337 3.35802 0
M  V30 18923 H 1870.25 4.08872 6.55777 0
M  V30 18924 H 1868.59 3.67119 5.90126 0
M  V30 18925 H 1871.78 2.22162 4.12021 0
M  V30 18926 H 1871.96 3.29548 5.57944 0
M  V30 18927 N 1865.36 -1.4549 0.605832 0
M  V30 18928 C 1866.61 -2.02551 0.100487 0
M  V30 18929 C 1866.94 -1.47346 -1.26502 0
M  V30 18930 O 1866.22 -0.647471 -1.83407 0
M  V30 18931 C 1866.5 -3.60051 0.0596664 0
M  V30 18932 C 1866.35 -4.25592 1.45572 0
M  V30 18933 C 1867.67 -4.35581 -0.629073 0
M  V30 18934 H 1864.79 -0.73602 0.0379904 0
M  V30 18935 H 1867.43 -1.73365 0.777468 0
M  V30 18936 H 1865.58 -3.85047 -0.516838 0
M  V30 18937 H 1867.25 -4.11787 2.07916 0
M  V30 18938 H 1865.5 -3.84061 2.01692 0
M  V30 18939 H 1866.17 -5.34487 1.37941 0
M  V30 18940 H 1868.64 -4.15868 -0.139076 0
M  V30 18941 H 1867.52 -5.4531 -0.626735 0
M  V30 18942 H 1867.78 -4.08323 -1.69483 0
M  V30 18943 N 1866.84 -0.344893 -1.5378 0
M  V30 18944 C 1868.09 0.252216 -2.00117 0
M  V30 18945 C 1868.4 1.51548 -1.23663 0
M  V30 18946 O 1869.61 2.18991 -1.60484 0
M  V30 18947 C 1868.06 0.499983 -3.5641 0
M  V30 18948 C 1867.67 -0.747455 -4.41721 0
M  V30 18949 C 1869.42 1.05588 -4.11159 0
M  V30 18950 C 1867.32 -0.470414 -5.89526 0
M  V30 18951 H 1866.25 0.0980234 -0.747601 0
M  V30 18952 H 1868.9 -0.460431 -1.7763 0
M  V30 18953 H 1867.29 1.27337 -3.74969 0
M  V30 18954 H 1868.46 -1.52204 -4.34937 0
M  V30 18955 H 1866.78 -1.22508 -3.97971 0
M  V30 18956 H 1869.37 1.27813 -5.19199 0
M  V30 18957 H 1869.72 2.01181 -3.64461 0
M  V30 18958 H 1870.25 0.343167 -3.96317 0
M  V30 18959 H 1866.99 -1.3961 -6.4046 0
M  V30 18960 H 1866.51 0.266065 -5.9921 0
M  V30 18961 H 1868.19 -0.0881607 -6.4694 0
M  V30 18962 N 1868.32 1.57428 -0.0735454 0
M  V30 18963 C 1869.25 2.15849 0.890584 0
M  V30 18964 C 1870.23 1.086 1.3092 0
M  V30 18965 O 1871.41 1.36643 1.37994 0
M  V30 18966 C 1868.54 2.72153 2.15755 0
M  V30 18967 C 1867.5 3.84584 1.87827 0
M  V30 18968 C 1866.82 4.27498 3.21169 0
M  V30 18969 C 1868.12 5.08746 1.18217 0
M  V30 18970 H 1869.82 2.96663 0.403904 0
M  V30 18971 H 1867.36 1.42703 0.192836 0
M  V30 18972 H 1869.32 3.11668 2.83621 0
M  V30 18973 H 1868.04 1.88562 2.66668 0
M  V30 18974 H 1866.7 3.45575 1.22366 0
M  V30 18975 H 1866.35 3.40827 3.69927 0
M  V30 18976 H 1866.05 5.03288 3.03273 0
M  V30 18977 H 1867.57 4.69631 3.9023 0
M  V30 18978 H 1868.99 5.45566 1.76155 0
M  V30 18979 H 1867.38 5.89825 1.10573 0
M  V30 18980 H 1868.45 4.84631 0.161525 0
M  V30 18981 N 1869.8 -0.200022 1.56326 0
M  V30 18982 C 1870.76 -1.23155 1.93302 0
M  V30 18983 C 1871.76 -1.38696 0.81364 0
M  V30 18984 O 1872.95 -1.36592 1.08112 0
M  V30 18985 C 1870.08 -2.60177 2.20274 0
M  V30 18986 H 1871.27 -0.915616 2.85581 0
M  V30 18987 H 1868.83 -0.44134 1.4994 0
M  V30 18988 H 1869.56 -2.96833 1.30617 0
M  V30 18989 H 1869.35 -2.50269 3.01841 0
M  V30 18990 H 1870.84 -3.34572 2.49903 0
M  V30 18991 N 1871.27 -1.50505 -0.467553 0
M  V30 18992 C 1872.69 -1.54489 -1.04833 0
M  V30 18993 C 1873.04 -0.350468 -1.93044 0
M  V30 18994 O 1872.16 0.536238 -2.09651 0
M  V30 18995 C 1872.76 -2.79967 -1.90799 0
M  V30 18996 C 1871.32 -2.86621 -2.43979 0
M  V30 18997 C 1870.46 -2.48819 -1.22412 0
M  V30 18998 H 1873.41 -1.56718 -0.250025 0
M  V30 18999 H 1873.43 -2.62022 -2.75907 0
M  V30 19000 H 1872.95 -3.66881 -1.2657 0
M  V30 19001 H 1871.05 -2.04066 -3.11749 0
M  V30 19002 H 1871.16 -3.89594 -2.78843 0
M  V30 19003 H 1869.52 -2.01335 -1.56001 0
M  V30 19004 H 1870.31 -3.38044 -0.598405 0
M  V30 19005 N 1872.75 0.720973 -1.40142 0
M  V30 19006 C 1873.66 1.86527 -1.42284 0
M  V30 19007 C 1874.68 1.71106 -0.316044 0
M  V30 19008 O 1875.85 1.93465 -0.55977 0
M  V30 19009 C 1872.92 3.2227 -1.27841 0
M  V30 19010 C 1871.98 3.49984 -2.48616 0
M  V30 19011 C 1871.21 4.7925 -2.34852 0
M  V30 19012 O 1871.44 5.53963 -1.35945 0
M  V30 19013 O 1870.37 5.07179 -3.24119 0
M  V30 19014 H 1874.2 1.87675 -2.38771 0
M  V30 19015 H 1871.78 0.870677 -1.21407 0
M  V30 19016 H 1873.66 4.03362 -1.21973 0
M  V30 19017 H 1872.34 3.21861 -0.344566 0
M  V30 19018 H 1871.25 2.68922 -2.60061 0
M  V30 19019 H 1872.58 3.55184 -3.40742 0
M  V30 19020 N 1874.23 1.25549 0.952634 0
M  V30 19021 C 1875.19 1.06186 2.03119 0
M  V30 19022 C 1876.19 0.0139966 1.60794 0
M  V30 19023 O 1877.38 0.256367 1.72303 0
M  V30 19024 C 1874.52 0.612674 3.35349 0
M  V30 19025 H 1875.71 2.01932 2.21729 0
M  V30 19026 H 1873.26 1.07984 1.13 0
M  V30 19027 H 1874 -0.347292 3.22435 0
M  V30 19028 H 1873.78 1.36917 3.67418 0
M  V30 19029 H 1875.27 0.498693 4.14612 0
M  V30 19030 N 1875.71 -1.15554 1.07168 0
M  V30 19031 C 1876.67 -2.18431 0.694305 0
M  V30 19032 C 1877.67 -1.5861 -0.264497 0
M  V30 19033 O 1878.86 -1.7414 -0.0457035 0
M  V30 19034 C 1875.99 -3.40892 0.0230473 0
M  V30 19035 H 1877.19 -2.53331 1.60511 0
M  V30 19036 H 1874.74 -1.29984 0.867982 0
M  V30 19037 H 1875.47 -3.11559 -0.900083 0
M  V30 19038 H 1875.26 -3.8557 0.712622 0
M  V30 19039 H 1876.75 -4.16986 -0.226392 0
M  V30 19040 N 1877.19 -0.855519 -1.32358 0
M  V30 19041 C 1878.43 -0.460002 -1.97514 0
M  V30 19042 C 1878.77 0.982052 -1.67539 0
M  V30 19043 O 1878.04 1.68925 -0.964091 0
M  V30 19044 C 1878.32 -0.70064 -3.53218 0
M  V30 19045 C 1878.18 -2.19118 -3.9282 0
M  V30 19046 C 1879.5 -0.157597 -4.39818 0
M  V30 19047 H 1876.62 -0.168606 -0.717455 0
M  V30 19048 H 1879.26 -1.0741 -1.56726 0
M  V30 19049 H 1877.41 -0.177937 -3.88092 0
M  V30 19050 H 1879.08 -2.78002 -3.6812 0
M  V30 19051 H 1877.32 -2.66934 -3.41948 0
M  V30 19052 H 1877.99 -2.31024 -5.0133 0
M  V30 19053 H 1880.47 -0.604597 -4.11684 0
M  V30 19054 H 1879.35 -0.355532 -5.47747 0
M  V30 19055 H 1879.61 0.939679 -4.31998 0
M  V30 19056 N 1878.67 1.45167 -0.61354 0
M  V30 19057 C 1880.08 1.85674 -0.19544 0
M  V30 19058 C 1880.43 1.51303 1.24908 0
M  V30 19059 O 1879.55 0.94257 1.94794 0
M  V30 19060 C 1880.15 3.37009 -0.347921 0
M  V30 19061 C 1878.71 3.76397 0.0155323 0
M  V30 19062 C 1877.85 2.69095 -0.669578 0
M  V30 19063 H 1880.8 1.35883 -0.819842 0
M  V30 19064 H 1880.83 3.78195 0.418185 0
M  V30 19065 H 1880.34 3.61994 -1.39935 0
M  V30 19066 H 1878.44 3.57028 1.06591 0
M  V30 19067 H 1878.55 4.77573 -0.382267 0
M  V30 19068 H 1876.92 2.54477 -0.10662 0
M  V30 19069 H 1877.7 2.96915 -1.72326 0
M  V30 19070 N 1880.14 0.353044 1.53595 0
M  V30 19071 C 1881.05 -0.507548 2.29044 0
M  V30 19072 C 1882.07 -1.10364 1.34521 0
M  V30 19073 O 1883.25 -1.11728 1.67567 0
M  V30 19074 C 1880.31 -1.63799 3.05566 0
M  V30 19075 C 1879.37 -1.07071 4.15733 0
M  V30 19076 C 1878.6 -2.14728 4.88597 0
M  V30 19077 O 1878.83 -3.35619 4.61211 0
M  V30 19078 O 1877.76 -1.78489 5.74826 0
M  V30 19079 H 1881.59 0.10606 3.03515 0
M  V30 19080 H 1879.17 0.117799 1.48935 0
M  V30 19081 H 1881.05 -2.2955 3.5339 0
M  V30 19082 H 1879.73 -2.23723 2.33944 0
M  V30 19083 H 1878.64 -0.37746 3.72191 0
M  V30 19084 H 1879.97 -0.516205 4.89486 0
M  V30 19085 N 1881.62 -1.57387 0.0818932 0
M  V30 19086 C 1882.87 -1.93486 -0.583744 0
M  V30 19087 C 1883.19 -0.963466 -1.69536 0
M  V30 19088 O 1882.46 -0.0132866 -1.95895 0
M  V30 19089 H 1881.04 -0.714292 -0.218622 0
M  V30 19090 H 1883.7 -1.94381 0.142124 0
M  V30 19091 H 1882.8 -2.9556 -1.00252 0
M  V30 19092 N 1883.1 0.191729 -1.56429 0
M  V30 19093 C 1884.06 1.22128 -1.93952 0
M  V30 19094 C 1885.06 1.38262 -0.820984 0
M  V30 19095 O 1886.25 1.36017 -1.08835 0
M  V30 19096 C 1883.38 2.59005 -2.21651 0
M  V30 19097 H 1884.58 0.900458 -2.86063 0
M  V30 19098 H 1882.13 0.433382 -1.50172 0
M  V30 19099 H 1882.87 2.96136 -1.32189 0
M  V30 19100 H 1882.65 2.48665 -3.03164 0
M  V30 19101 H 1884.14 3.33242 -2.51674 0
M  V30 19102 N 1884.58 1.50751 0.459565 0
M  V30 19103 C 1885.99 1.55043 1.04012 0
M  V30 19104 C 1886.34 0.360701 1.92856 0
M  V30 19105 O 1885.46 -0.525112 2.09932 0
M  V30 19106 C 1886.06 2.80975 1.89311 0
M  V30 19107 C 1884.62 2.87911 2.42455 0
M  V30 19108 C 1883.77 2.49464 1.2109 0
M  V30 19109 H 1886.72 1.56849 0.24171 0
M  V30 19110 H 1886.74 2.63482 2.74514 0
M  V30 19111 H 1886.25 3.67547 1.24623 0
M  V30 19112 H 1884.35 2.05717 3.10663 0
M  V30 19113 H 1884.46 3.91067 2.76773 0
M  V30 19114 H 1882.83 2.0216 1.54931 0
M  V30 19115 H 1883.61 3.38357 0.580469 0
M  V30 19116 N 1886.06 -0.713531 1.40522 0
M  V30 19117 C 1887.3 -1.46899 1.38216 0
M  V30 19118 C 1887.62 -1.95596 -0.011831 0
M  V30 19119 O 1888.82 -2.71043 -0.157513 0
M  V30 19120 C 1887.28 -2.65544 2.42929 0
M  V30 19121 C 1886.89 -2.23707 3.88148 0
M  V30 19122 C 1888.63 -3.4327 2.49732 0
M  V30 19123 C 1886.54 -3.39203 4.84453 0
M  V30 19124 H 1885.47 -0.551718 0.513929 0
M  V30 19125 H 1888.12 -0.776357 1.66268 0
M  V30 19126 H 1886.5 -3.36987 2.0798 0
M  V30 19127 H 1887.68 -1.5967 4.32252 0
M  V30 19128 H 1885.99 -1.59021 3.84839 0
M  V30 19129 H 1888.59 -4.29215 3.18871 0
M  V30 19130 H 1888.93 -3.87225 1.52848 0
M  V30 19131 H 1889.46 -2.78871 2.83683 0
M  V30 19132 H 1886.2 -3.00278 5.82678 0
M  V30 19133 H 1885.72 -4.02149 4.45012 0
M  V30 19134 H 1887.4 -4.0524 5.04371 0
M  V30 19135 N 1887.53 -1.26053 -0.945962 0
M  V30 19136 C 1888.76 -1.14079 -1.72608 0
M  V30 19137 C 1889.18 0.304506 -1.86328 0
M  V30 19138 O 1888.53 1.20885 -1.36723 0
M  V30 19139 C 1888.58 -1.79938 -3.13535 0
M  V30 19140 O 1888.31 -3.18819 -3.00476 0
M  V30 19141 C 1889.81 -1.73856 -4.07785 0
M  V30 19142 H 1887.03 -0.397486 -0.540598 0
M  V30 19143 H 1889.57 -1.66582 -1.1862 0
M  V30 19144 H 1887.73 -1.31385 -3.6444 0
M  V30 19145 H 1888.14 -3.51337 -3.89439 0
M  V30 19146 H 1889.61 -2.24584 -5.04248 0
M  V30 19147 H 1890.09 -0.704095 -4.33519 0
M  V30 19148 H 1890.7 -2.21939 -3.62799 0
M  V30 19149 N 1889.01 1.14984 -1.07779 0
M  V30 19150 C 1890.26 1.86148 -0.804777 0
M  V30 19151 C 1890.59 1.82364 0.667615 0
M  V30 19152 O 1889.87 1.24982 1.4903 0
M  V30 19153 C 1890.15 3.35067 -1.31916 0
M  V30 19154 C 1890 3.4746 -2.85642 0
M  V30 19155 C 1891.32 4.29961 -0.939217 0
M  V30 19156 H 1888.44 0.675899 -0.293818 0
M  V30 19157 H 1891.08 1.35065 -1.33632 0
M  V30 19158 H 1889.23 3.78702 -0.867011 0
M  V30 19159 H 1890.9 3.12658 -3.3918 0
M  V30 19160 H 1889.15 2.88878 -3.23623 0
M  V30 19161 H 1889.82 4.52109 -3.16704 0
M  V30 19162 H 1892.29 3.94309 -1.3289 0
M  V30 19163 H 1891.17 5.32633 -1.32641 0
M  V30 19164 H 1891.43 4.4183 0.15442 0
M  V30 19165 N 1890.49 0.862526 1.31902 0
M  V30 19166 C 1891.72 0.484006 2.01159 0
M  V30 19167 C 1892.13 -0.92148 1.64785 0
M  V30 19168 O 1891.49 -1.60254 0.873216 0
M  V30 19169 C 1891.54 0.622709 3.56096 0
M  V30 19170 O 1891.26 1.97284 3.91166 0
M  V30 19171 C 1892.76 0.244225 4.42627 0
M  V30 19172 H 1889.98 0.189378 0.643721 0
M  V30 19173 H 1892.53 1.16164 1.68304 0
M  V30 19174 H 1890.68 -0.00728166 3.87399 0
M  V30 19175 H 1891.1 1.97525 4.85885 0
M  V30 19176 H 1892.57 0.392254 5.50605 0
M  V30 19177 H 1893.05 -0.816006 4.31553 0
M  V30 19178 H 1893.65 0.84961 4.16727 0
M  V30 19179 N 1891.97 -1.4484 0.62123 0
M  V30 19180 C 1893.21 -2.04018 0.124967 0
M  V30 19181 C 1893.57 -1.47734 -1.22633 0
M  V30 19182 O 1894.77 -1.98351 -1.81412 0
M  V30 19183 C 1893.04 -3.57258 0.10069 0
M  V30 19184 S 1894.6 -4.37539 -0.332394 0
M  V30 19185 H 1891.42 -0.708773 0.0562358 0
M  V30 19186 H 1894.02 -1.77361 0.822397 0
M  V30 19187 H 1892.73 -3.95731 1.08745 0
M  V30 19188 H 1892.26 -3.88511 -0.618303 0
M  V30 19189 H 1894.27 -4.7041 -1.57888 0
M  V30 19190 N 1893.45 -0.361184 -1.53405 0
M  V30 19191 C 1894.41 0.475026 -2.24223 0
M  V30 19192 C 1895.41 1.01331 -1.24855 0
M  V30 19193 O 1896.6 0.899756 -1.49164 0
M  V30 19194 C 1893.73 1.6635 -2.97557 0
M  V30 19195 H 1894.92 -0.144595 -2.99551 0
M  V30 19196 H 1892.48 -0.112802 -1.55892 0
M  V30 19197 H 1893.21 2.32133 -2.26461 0
M  V30 19198 H 1893 1.28454 -3.70462 0
M  V30 19199 H 1894.49 2.2562 -3.51405 0
M  V30 19200 N 1894.92 1.57341 -0.0902386 0
M  V30 19201 C 1896.2 1.85627 0.616611 0
M  V30 19202 C 1896.58 0.986193 1.86648 0
M  V30 19203 O 1895.93 0.0573148 2.28428 0
M  V30 19204 C 1896.14 3.36196 0.936645 0
M  V30 19205 C 1897.49 4.04139 1.30219 0
M  V30 19206 O 1898.51 3.41049 1.02781 0
M  V30 19207 O 1897.37 5.1545 1.81586 0
M  V30 19208 H 1894.46 0.76748 0.308065 0
M  V30 19209 H 1897.01 1.69257 -0.122568 0
M  V30 19210 H 1895.78 3.91268 0.0497354 0
M  V30 19211 H 1895.41 3.57895 1.73197 0
M  V30 19212 N 1896.4 -0.183431 1.56529 0
M  V30 19213 C 1897.81 -0.747035 1.71103 0
M  V30 19214 C 1898.16 -1.83335 0.698762 0
M  V30 19215 O 1897.29 -2.15931 -0.142414 0
M  V30 19216 C 1897.88 -1.36183 3.10225 0
M  V30 19217 C 1896.44 -1.87239 3.26525 0
M  V30 19218 C 1895.59 -0.746737 2.67056 0
M  V30 19219 H 1898.54 0.0418058 1.58645 0
M  V30 19220 H 1898.56 -2.2314 3.08203 0
M  V30 19221 H 1898.07 -0.570966 3.83877 0
M  V30 19222 H 1896.18 -2.69008 2.57809 0
M  V30 19223 H 1896.29 -2.02616 4.34147 0
M  V30 19224 H 1894.65 -1.16406 2.26543 0
M  V30 19225 H 1895.44 0.0320833 3.43285 0
M  V30 19226 N 1897.88 -1.50992 -0.451564 0
M  V30 19227 C 1898.84 -1.70703 -1.52949 0
M  V30 19228 C 1899.84 -0.577275 -1.50081 0
M  V30 19229 O 1901.03 -0.844619 -1.52354 0
M  V30 19230 C 1898.17 -1.75035 -2.92533 0
M  V30 19231 H 1899.36 -2.66891 -1.36782 0
M  V30 19232 H 1896.91 -1.40767 -0.679285 0
M  V30 19233 H 1897.65 -0.806096 -3.14122 0
M  V30 19234 H 1897.43 -2.57126 -2.96021 0
M  V30 19235 H 1898.92 -1.92171 -3.70756 0
M  V30 19236 N 1899.36 0.706069 -1.40899 0
M  V30 19237 C 1900.32 1.80184 -1.41656 0
M  V30 19238 C 1901.32 1.57807 -0.308823 0
M  V30 19239 O 1902.51 1.64673 -0.568197 0
M  V30 19240 C 1899.64 3.18412 -1.21765 0
M  V30 19241 H 1900.84 1.80908 -2.39191 0
M  V30 19242 H 1898.39 0.912658 -1.26887 0
M  V30 19243 H 1899.12 3.23333 -0.250288 0
M  V30 19244 H 1898.91 3.36054 -2.02015 0
M  V30 19245 H 1900.4 3.9842 -1.25106 0
M  V30 19246 N 1900.84 1.26553 0.939264 0
M  V30 19247 C 1901.79 1.04944 2.02412 0
M  V30 19248 C 1902.77 -0.0188072 1.60889 0
M  V30 19249 O 1903.96 0.198373 1.75885 0
M  V30 19250 C 1901.09 0.686442 3.36367 0
M  V30 19251 C 1900.18 1.79224 3.84369 0
M  V30 19252 N 1900.57 3.02998 4.05001 0
M  V30 19253 C 1898.87 1.67628 4.133 0
M  V30 19254 C 1899.57 3.7488 4.44792 0
M  V30 19255 N 1898.54 3.02578 4.51605 0
M  V30 19256 H 1902.35 1.98891 2.16379 0
M  V30 19257 H 1899.86 1.17098 1.12525 0
M  V30 19258 H 1901.86 0.512782 4.13734 0
M  V30 19259 H 1900.52 -0.245528 3.2377 0
M  V30 19260 H 1901.53 3.38883 3.91636 0
M  V30 19261 H 1898.2 0.814344 4.09481 0
M  V30 19262 H 1899.59 4.812 4.68931 0
M  V30 19263 N 1902.31 -1.14411 1.08387 0
M  V30 19264 C 1903.28 -2.17682 0.717433 0
M  V30 19265 C 1904.28 -1.58881 -0.24766 0
M  V30 19266 O 1905.47 -1.74179 -0.027231 0
M  V30 19267 C 1902.6 -3.40849 0.0592022 0
M  V30 19268 H 1903.79 -2.51614 1.63188 0
M  V30 19269 H 1901.35 -1.29056 0.88172 0
M  V30 19270 H 1902.08 -3.12496 -0.866987 0
M  V30 19271 H 1901.87 -3.84792 0.753477 0
M  V30 19272 H 1903.36 -4.17203 -0.182152 0
M  V30 19273 N 1903.79 -0.869509 -1.31443 0
M  V30 19274 C 1905.2 -0.532842 -1.78935 0
M  V30 19275 C 1905.55 0.95022 -1.71654 0
M  V30 19276 O 1904.68 1.74189 -1.28402 0
M  V30 19277 C 1905.27 -0.960439 -3.24902 0
M  V30 19278 C 1903.83 -0.675436 -3.7029 0
M  V30 19279 C 1902.98 -1.15201 -2.52238 0
M  V30 19280 H 1905.93 -1.05527 -1.18531 0
M  V30 19281 H 1905.95 -0.282921 -3.79447 0
M  V30 19282 H 1905.46 -2.03986 -3.30168 0
M  V30 19283 H 1903.57 0.392647 -3.70525 0
M  V30 19284 H 1903.68 -1.25214 -4.62448 0
M  V30 19285 H 1902.04 -0.571786 -2.48199 0
M  V30 19286 H 1902.83 -2.23885 -2.60251 0
M  V30 19287 N 1905.27 1.44508 -0.628902 0
M  V30 19288 C 1906.5 2.06429 -0.13951 0
M  V30 19289 C 1906.91 1.46981 1.18499 0
M  V30 19290 O 1906.27 0.591856 1.72636 0
M  V30 19291 C 1906.32 3.61496 -0.016195 0
M  V30 19292 O 1906.04 4.18729 -1.28831 0
M  V30 19293 C 1907.54 4.40447 0.502154 0
M  V30 19294 H 1904.76 0.666375 -0.0786479 0
M  V30 19295 H 1907.31 1.85414 -0.862674 0
M  V30 19296 H 1905.46 3.81781 0.657398 0
M  V30 19297 H 1905.88 5.12145 -1.13171 0
M  V30 19298 H 1907.35 5.49377 0.537458 0
M  V30 19299 H 1907.83 4.11735 1.52876 0
M  V30 19300 H 1908.43 4.25076 -0.138113 0
M  V30 19301 N 1906.75 0.369315 1.53212 0
M  V30 19302 C 1907.68 -0.467242 2.28777 0
M  V30 19303 C 1908.66 -1.08073 1.31355 0
M  V30 19304 O 1909.85 -1.09728 1.60229 0
M  V30 19305 C 1906.98 -1.60519 3.07979 0
M  V30 19306 C 1905.93 -1.11876 4.1312 0
M  V30 19307 C 1905.26 -2.34723 4.80426 0
M  V30 19308 C 1906.56 -0.200846 5.21914 0
M  V30 19309 H 1908.25 0.163201 2.98955 0
M  V30 19310 H 1905.8 0.0799312 1.43778 0
M  V30 19311 H 1907.75 -2.19708 3.59592 0
M  V30 19312 H 1906.47 -2.26292 2.35499 0
M  V30 19313 H 1905.13 -0.549521 3.62458 0
M  V30 19314 H 1904.78 -2.98961 4.04514 0
M  V30 19315 H 1904.48 -2.02846 5.51477 0
M  V30 19316 H 1906 -2.94592 5.34835 0
M  V30 19317 H 1907.42 -0.700331 5.69006 0
M  V30 19318 H 1905.81 0.0272222 6.00094 0
M  V30 19319 H 1906.88 0.755948 4.78971 0
M  V30 19320 N 1908.23 -1.57291 0.0985816 0
M  V30 19321 C 1909.46 -1.98531 -0.57176 0
M  V30 19322 C 1909.87 -0.976619 -1.62046 0
M  V30 19323 O 1909.21 0.041533 -1.83653 0
M  V30 19324 C 1909.27 -3.36149 -1.27452 0
M  V30 19325 C 1908.93 -4.55449 -0.376176 0
M  V30 19326 C 1909.93 -5.18531 0.377078 0
M  V30 19327 C 1907.62 -5.01443 -0.293213 0
M  V30 19328 C 1909.61 -6.25978 1.20124 0
M  V30 19329 C 1907.3 -6.08757 0.534594 0
M  V30 19330 C 1908.3 -6.7089 1.28047 0
M  V30 19331 O 1907.98 -7.76133 2.09457 0
M  V30 19332 H 1907.72 -0.657356 -0.15767 0
M  V30 19333 H 1910.27 -2.04648 0.175593 0
M  V30 19334 H 1908.5 -3.26725 -2.06852 0
M  V30 19335 H 1910.19 -3.61813 -1.83974 0
M  V30 19336 H 1910.95 -4.83925 0.322736 0
M  V30 19337 H 1906.83 -4.52842 -0.863429 0
M  V30 19338 H 1910.38 -6.74405 1.7839 0
M  V30 19339 H 1906.27 -6.42794 0.590404 0
M  V30 19340 H 1907.04 -7.93137 2.02177 0
M  V30 19341 N 1909.71 0.175127 -1.56624 0
M  V30 19342 C 1910.93 0.908041 -1.85909 0
M  V30 19343 C 1911.35 1.75993 -0.683514 0
M  V30 19344 O 1910.71 1.79162 0.347453 0
M  V30 19345 C 1910.76 1.78791 -3.14191 0
M  V30 19346 O 1910.48 0.970386 -4.27218 0
M  V30 19347 C 1911.98 2.63081 -3.56796 0
M  V30 19348 H 1909.2 0.263986 -0.616889 0
M  V30 19349 H 1911.74 0.176369 -2.03738 0
M  V30 19350 H 1909.9 2.47296 -2.982 0
M  V30 19351 H 1910.31 1.57179 -5.00395 0
M  V30 19352 H 1911.79 3.2044 -4.49469 0
M  V30 19353 H 1912.26 3.37766 -2.80732 0
M  V30 19354 H 1912.87 1.99914 -3.75386 0
M  V30 19355 N 1911.18 1.5123 0.44355 0
M  V30 19356 C 1912.43 1.64796 1.19222 0
M  V30 19357 C 1912.78 0.356753 1.89064 0
M  V30 19358 O 1912.08 -0.64708 1.80343 0
M  V30 19359 C 1912.27 2.78511 2.23978 0
M  V30 19360 C 1912.1 4.18565 1.64418 0
M  V30 19361 C 1910.87 4.8459 1.43181 0
M  V30 19362 C 1913.07 5.01871 1.12383 0
M  V30 19363 N 1911.05 6.08776 0.791531 0
M  V30 19364 C 1912.42 6.17007 0.608446 0
M  V30 19365 C 1914.48 4.87445 1.015 0
M  V30 19366 C 1913.18 7.193 -0.00507306 0
M  V30 19367 C 1915.21 5.89939 0.415381 0
M  V30 19368 C 1914.57 7.04343 -0.0894936 0
M  V30 19369 H 1910.67 0.656973 0.424159 0
M  V30 19370 H 1913.25 1.88439 0.489793 0
M  V30 19371 H 1911.42 2.56543 2.91616 0
M  V30 19372 H 1913.15 2.8129 2.9096 0
M  V30 19373 H 1909.91 4.42351 1.69182 0
M  V30 19374 H 1910.33 6.75232 0.489009 0
M  V30 19375 H 1914.97 3.99256 1.39121 0
M  V30 19376 H 1912.69 8.07142 -0.393432 0
M  V30 19377 H 1916.28 5.80845 0.333158 0
M  V30 19378 H 1915.16 7.82296 -0.546186 0
M  V30 19379 N 1912.66 -0.698586 1.41271 0
M  V30 19380 C 1913.89 -1.48528 1.43608 0
M  V30 19381 C 1914.3 -1.8916 0.0388929 0
M  V30 19382 O 1913.64 -1.5714 -0.951457 0
M  V30 19383 C 1913.7 -2.78049 2.27879 0
M  V30 19384 C 1913.37 -2.59638 3.76081 0
M  V30 19385 C 1914.37 -2.25782 4.68315 0
M  V30 19386 C 1912.05 -2.75373 4.2009 0
M  V30 19387 C 1914.04 -2.07894 6.02544 0
M  V30 19388 C 1911.73 -2.57102 5.54384 0
M  V30 19389 C 1912.73 -2.23413 6.45427 0
M  V30 19390 O 1912.42 -2.05298 7.77244 0
M  V30 19391 H 1912.15 -0.464356 0.491273 0
M  V30 19392 H 1914.7 -0.867883 1.86164 0
M  V30 19393 H 1912.93 -3.42183 1.80132 0
M  V30 19394 H 1914.62 -3.39841 2.21953 0
M  V30 19395 H 1915.39 -2.13243 4.35606 0
M  V30 19396 H 1911.27 -3.00579 3.49533 0
M  V30 19397 H 1914.81 -1.81522 6.73569 0
M  V30 19398 H 1910.71 -2.6923 5.86673 0
M  V30 19399 H 1911.48 -2.20085 7.88356 0
M  V30 19400 N 1914.14 -1.27049 -0.93254 0
M  V30 19401 C 1915.09 -1.06016 -2.01853 0
M  V30 19402 C 1916.07 0.0102746 -1.60897 0
M  V30 19403 O 1917.27 -0.207698 -1.75777 0
M  V30 19404 C 1914.39 -0.704271 -3.35998 0
M  V30 19405 C 1913.48 -1.8126 -3.83413 0
M  V30 19406 N 1913.87 -3.05142 -4.03388 0
M  V30 19407 C 1912.17 -1.69817 -4.12405 0
M  V30 19408 C 1912.87 -3.77233 -4.42798 0
M  V30 19409 N 1911.85 -3.04969 -4.49994 0
M  V30 19410 H 1915.65 -2.00035 -2.15321 0
M  V30 19411 H 1913.16 -1.17693 -1.11902 0
M  V30 19412 H 1915.16 -0.534716 -4.13457 0
M  V30 19413 H 1913.82 0.228354 -3.23896 0
M  V30 19414 H 1914.83 -3.40955 -3.89833 0
M  V30 19415 H 1911.51 -0.836049 -4.09043 0
M  V30 19416 H 1912.9 -4.8368 -4.66372 0
M  V30 19417 N 1915.62 1.13835 -1.08993 0
M  V30 19418 C 1916.57 2.21179 -0.719905 0
M  V30 19419 C 1917.56 1.67118 0.277123 0
M  V30 19420 O 1918.77 1.79462 0.139054 0
M  V30 19421 H 1915.14 0.72067 -0.214799 0
M  V30 19422 H 1917.11 2.49654 -1.63448 0
M  V30 19423 C 1915.86 3.47368 -0.151794 0
M  V30 19424 H 1915.18 3.89302 -0.910172 0
M  V30 19425 H 1916.62 4.23943 0.0692336 0
M  V30 19426 C 1915.08 3.18024 1.11185 0
M  V30 19427 O 1915.61 3.36374 2.1958 0
M  V30 19428 N 1913.82 2.71938 1.0246 0
M  V30 19429 H 1913.37 2.57206 0.142456 0
M  V30 19430 H 1913.32 2.52679 1.87084 0
M  V30 19431 N 1917.1 0.876467 1.3098 0
M  V30 19432 C 1918.34 0.489671 1.96078 0
M  V30 19433 C 1918.66 -0.962603 1.69585 0
M  V30 19434 O 1917.93 -1.67568 1.01478 0
M  V30 19435 H 1916.51 0.178091 0.72546 0
M  V30 19436 H 1919.18 1.11768 1.59668 0
M  V30 19437 H 1918.27 0.652822 3.05196 0
M  V30 19438 N 1918.57 -1.44173 0.636557 0
M  V30 19439 C 1919.99 -1.56704 0.302646 0
M  V30 19440 C 1920.19 -1.62316 -1.19398 0
M  V30 19441 O 1919.25 -1.56914 -1.97824 0
M  V30 19442 C 1920.56 -2.83608 0.999346 0
M  V30 19443 C 1922.11 -2.97328 0.978005 0
M  V30 19444 C 1922.58 -4.27042 1.65527 0
M  V30 19445 N 1924.07 -4.33868 1.62212 0
M  V30 19446 C 1924.81 -5.32966 2.11505 0
M  V30 19447 N 1924.3 -6.38439 2.69012 0
M  V30 19448 N 1926.1 -5.24511 2.02102 0
M  V30 19449 H 1918.25 -1.38773 1.60797 0
M  V30 19450 H 1920.51 -0.665369 0.675269 0
M  V30 19451 H 1920.22 -2.85466 2.05432 0
M  V30 19452 H 1920.09 -3.73308 0.540484 0
M  V30 19453 H 1922.48 -2.9502 -0.0685065 0
M  V30 19454 H 1922.56 -2.08963 1.47541 0
M  V30 19455 H 1922.2 -4.30109 2.70126 0
M  V30 19456 H 1922.13 -5.14275 1.13266 0
M  V30 19457 H 1924.62 -3.58264 1.20231 0
M  V30 19458 H 1924.94 -7.10348 3.04344 0
M  V30 19459 H 1923.28 -6.39109 2.73066 0
M  V30 19460 H 1926.47 -4.41024 1.56892 0
M  V30 19461 H 1926.65 -6.01586 2.40828 0
M  V30 19462 N 1920.05 -0.377435 -1.53014 0
M  V30 19463 C 1921.3 0.201362 -2.02401 0
M  V30 19464 C 1921.65 1.45452 -1.25942 0
M  V30 19465 O 1920.95 1.88413 -0.347988 0
M  V30 19466 C 1921.14 0.534659 -3.53378 0
M  V30 19467 C 1920.97 -0.684647 -4.44458 0
M  V30 19468 C 1919.74 -1.20032 -4.90836 0
M  V30 19469 C 1921.94 -1.55343 -4.90279 0
M  V30 19470 N 1919.92 -2.37842 -5.65955 0
M  V30 19471 C 1921.29 -2.57806 -5.63858 0
M  V30 19472 C 1923.34 -1.57492 -4.72335 0
M  V30 19473 C 1922.05 -3.62288 -6.21401 0
M  V30 19474 C 1924.07 -2.60875 -5.30753 0
M  V30 19475 C 1923.44 -3.6206 -6.04228 0
M  V30 19476 H 1919.53 0.0360846 -0.781167 0
M  V30 19477 H 1922.12 -0.524652 -1.87498 0
M  V30 19478 H 1920.29 1.22974 -3.68418 0
M  V30 19479 H 1922.02 1.09958 -3.89476 0
M  V30 19480 H 1918.78 -0.763131 -4.67411 0
M  V30 19481 H 1919.2 -2.97418 -6.0817 0
M  V30 19482 H 1923.84 -0.806132 -4.15044 0
M  V30 19483 H 1921.56 -4.40042 -6.77782 0
M  V30 19484 H 1925.15 -2.63406 -5.18757 0
M  V30 19485 H 1924.03 -4.40745 -6.48624 0
M  V30 19486 N 1921.53 1.57237 -0.106922 0
M  V30 19487 C 1922.46 2.1769 0.844599 0
M  V30 19488 C 1923.44 1.11352 1.28587 0
M  V30 19489 O 1924.63 1.39539 1.35065 0
M  V30 19490 C 1921.76 2.76668 2.09933 0
M  V30 19491 C 1920.71 3.88482 1.79627 0
M  V30 19492 C 1920.04 4.34214 3.12029 0
M  V30 19493 C 1921.34 5.11139 1.07399 0
M  V30 19494 H 1923.03 2.97453 0.340887 0
M  V30 19495 H 1920.58 1.4308 0.162523 0
M  V30 19496 H 1922.53 3.17614 2.76946 0
M  V30 19497 H 1921.25 1.94176 2.62608 0
M  V30 19498 H 1919.91 3.48093 1.15008 0
M  V30 19499 H 1919.56 3.48597 3.62614 0
M  V30 19500 H 1919.26 5.09608 2.9253 0
M  V30 19501 H 1920.78 4.77803 3.8018 0
M  V30 19502 H 1922.2 5.4918 1.64543 0
M  V30 19503 H 1920.6 5.92038 0.980375 0
M  V30 19504 H 1921.67 4.84864 0.0586914 0
M  V30 19505 N 1923.01 -0.166818 1.56715 0
M  V30 19506 C 1923.94 -1.23113 1.93328 0
M  V30 19507 C 1924.95 -1.40238 0.826866 0
M  V30 19508 O 1926.14 -1.40161 1.10531 0
M  V30 19509 C 1923.24 -2.59914 2.17481 0
M  V30 19510 C 1922.42 -2.64028 3.48723 0
M  V30 19511 C 1921.47 -3.82224 3.61651 0
M  V30 19512 O 1920.5 -3.68014 4.34229 0
M  V30 19513 N 1921.7 -4.98868 2.96835 0
M  V30 19514 H 1924.47 -0.920103 2.85227 0
M  V30 19515 H 1922.03 -0.356548 1.57925 0
M  V30 19516 H 1924.02 -3.37459 2.2339 0
M  V30 19517 H 1922.59 -2.83389 1.31945 0
M  V30 19518 H 1921.81 -1.72544 3.54432 0
M  V30 19519 H 1923.1 -2.63792 4.35076 0
M  V30 19520 H 1922.5 -5.13314 2.3775 0
M  V30 19521 H 1921.05 -5.74259 3.08333 0
M  V30 19522 N 1924.49 -1.51463 -0.435524 0
M  V30 19523 C 1925.4 -1.75755 -1.55394 0
M  V30 19524 C 1926.41 -0.641853 -1.61729 0
M  V30 19525 O 1927.59 -0.924311 -1.78937 0
M  V30 19526 C 1924.65 -1.87908 -2.91361 0
M  V30 19527 C 1923.71 -3.11766 -2.95128 0
M  V30 19528 C 1922.95 -3.2333 -4.2461 0
M  V30 19529 O 1923.17 -2.40789 -5.17085 0
M  V30 19530 O 1922.1 -4.16319 -4.34698 0
M  V30 19531 H 1925.93 -2.70633 -1.3781 0
M  V30 19532 H 1923.52 -1.35986 -0.618717 0
M  V30 19533 H 1925.4 -1.97877 -3.72052 0
M  V30 19534 H 1924.07 -0.962179 -3.09069 0
M  V30 19535 H 1922.98 -3.07274 -2.13386 0
M  V30 19536 H 1924.31 -4.03151 -2.82365 0
M  V30 19537 N 1925.96 0.691085 -1.4164 0
M  V30 19538 C 1927.21 1.44828 -1.40959 0
M  V30 19539 C 1927.53 1.94988 -0.0211789 0
M  V30 19540 O 1926.8 1.71999 0.937714 0
M  V30 19541 H 1925.38 0.53739 -0.518865 0
M  V30 19542 H 1928.05 0.817677 -1.76918 0
M  V30 19543 H 1927.14 2.30926 -2.09952 0
M  V30 19544 N 1927.44 1.27542 0.925789 0
M  V30 19545 C 1928.85 1.12679 1.48864 0
M  V30 19546 C 1929.2 -0.287536 1.94082 0
M  V30 19547 O 1928.33 -1.18064 1.81356 0
M  V30 19548 C 1928.92 2.03934 2.70548 0
M  V30 19549 C 1927.48 1.93171 3.23051 0
M  V30 19550 C 1926.63 1.96378 1.95783 0
M  V30 19551 H 1929.58 1.40407 0.739703 0
M  V30 19552 H 1929.6 1.59628 3.45397 0
M  V30 19553 H 1929.11 3.06863 2.37607 0
M  V30 19554 H 1927.22 0.932356 3.60746 0
M  V30 19555 H 1927.33 2.7951 3.89115 0
M  V30 19556 H 1925.69 1.40628 2.12358 0
M  V30 19557 H 1926.48 3.00964 1.65153 0
M  V30 19558 N 1928.92 -1.13255 1.09595 0
M  V30 19559 C 1929.88 -2.16909 0.740481 0
M  V30 19560 C 1930.88 -1.59135 -0.230794 0
M  V30 19561 O 1932.07 -1.74198 -0.00875551 0
M  V30 19562 C 1929.21 -3.40767 0.0953504 0
M  V30 19563 H 1930.4 -2.49869 1.65848 0
M  V30 19564 H 1927.95 -1.28113 0.895358 0
M  V30 19565 H 1928.69 -3.13398 -0.833794 0
M  V30 19566 H 1928.47 -3.83972 0.794247 0
M  V30 19567 H 1929.96 -4.17372 -0.137892 0
M  V30 19568 N 1930.4 -0.883401 -1.30514 0
M  V30 19569 C 1931.36 -0.353908 -2.26451 0
M  V30 19570 C 1932.36 0.502723 -1.52739 0
M  V30 19571 O 1933.55 0.310104 -1.71418 0
M  V30 19572 C 1930.68 0.495846 -3.37275 0
M  V30 19573 H 1931.88 -1.20101 -2.74801 0
M  V30 19574 H 1929.43 -0.660124 -1.41676 0
M  V30 19575 H 1930.16 1.3636 -2.94239 0
M  V30 19576 H 1929.95 -0.117731 -3.91923 0
M  V30 19577 H 1931.44 0.858149 -4.08688 0
M  V30 19578 N 1931.88 1.43833 -0.644194 0
M  V30 19579 C 1933.1 2.06784 -0.159719 0
M  V30 19580 C 1933.53 1.47913 1.16204 0
M  V30 19581 O 1932.88 0.585574 1.71583 0
M  V30 19582 C 1932.93 3.60527 -0.0724271 0
M  V30 19583 O 1932.04 4.0088 0.967917 0
M  V30 19584 H 1931.38 0.657771 -0.0907406 0
M  V30 19585 H 1933.91 1.8449 -0.884568 0
M  V30 19586 H 1933.92 4.07841 0.113872 0
M  V30 19587 H 1932.59 4.02755 -1.03736 0
M  V30 19588 H 1931.17 3.65174 0.755135 0
M  V30 19589 N 1933.35 0.385544 1.52811 0
M  V30 19590 C 1934.28 -0.442951 2.2926 0
M  V30 19591 C 1935.27 -1.06674 1.32494 0
M  V30 19592 O 1936.45 -1.08022 1.61384 0
M  V30 19593 C 1933.58 -1.57243 3.09664 0
M  V30 19594 C 1932.53 -1.07488 4.14283 0
M  V30 19595 C 1931.86 -2.29614 4.82889 0
M  V30 19596 C 1933.16 -0.145479 5.22097 0
M  V30 19597 H 1934.85 0.1949 2.98765 0
M  V30 19598 H 1932.4 0.0951762 1.43685 0
M  V30 19599 H 1934.35 -2.15882 3.61902 0
M  V30 19600 H 1933.08 -2.23781 2.37885 0
M  V30 19601 H 1931.74 -0.511047 3.6302 0
M  V30 19602 H 1931.38 -2.94653 4.07662 0
M  V30 19603 H 1931.08 -1.96985 5.53598 0
M  V30 19604 H 1932.61 -2.88902 5.37929 0
M  V30 19605 H 1934.02 -0.639941 5.69717 0
M  V30 19606 H 1932.42 0.0908687 6.00031 0
M  V30 19607 H 1933.49 0.806707 4.78142 0
M  V30 19608 N 1934.83 -1.57178 0.115259 0
M  V30 19609 C 1936.06 -1.99842 -0.554802 0
M  V30 19610 C 1936.48 -0.994368 -1.59668 0
M  V30 19611 O 1935.84 0.0344531 -1.81267 0
M  V30 19612 C 1935.89 -3.41399 -1.16099 0
M  V30 19613 O 1934.99 -3.43868 -2.27659 0
M  V30 19614 H 1934.33 -0.649301 -0.138937 0
M  V30 19615 H 1936.86 -2.03594 0.202629 0
M  V30 19616 H 1936.87 -3.79527 -1.49743 0
M  V30 19617 H 1935.55 -4.13993 -0.397827 0
M  V30 19618 H 1934.13 -3.17555 -1.95482 0
M  V30 19619 N 1936.31 0.158505 -1.56801 0
M  V30 19620 C 1937.56 0.873038 -1.82714 0
M  V30 19621 C 1937.89 1.81683 -0.694361 0
M  V30 19622 O 1937.14 1.93108 0.31748 0
M  V30 19623 C 1937.44 1.69067 -3.14883 0
M  V30 19624 C 1937.11 0.894671 -4.41935 0
M  V30 19625 C 1935.77 0.675029 -4.76442 0
M  V30 19626 C 1938.12 0.337213 -5.20108 0
M  V30 19627 C 1935.45 -0.112965 -5.86591 0
M  V30 19628 C 1937.8 -0.43776 -6.31084 0
M  V30 19629 C 1936.46 -0.668085 -6.64148 0
M  V30 19630 H 1935.73 0.319467 -0.668597 0
M  V30 19631 H 1938.38 0.137273 -1.91007 0
M  V30 19632 H 1936.69 2.4962 -3.01988 0
M  V30 19633 H 1938.38 2.24679 -3.32145 0
M  V30 19634 H 1934.97 1.07592 -4.14876 0
M  V30 19635 H 1939.16 0.494212 -4.93833 0
M  V30 19636 H 1934.41 -0.301026 -6.10658 0
M  V30 19637 H 1938.59 -0.876909 -6.90857 0
M  V30 19638 H 1936.21 -1.28055 -7.49337 0
M  V30 19639 N 1937.79 1.51692 0.427485 0
M  V30 19640 C 1938.72 1.76668 1.52679 0
M  V30 19641 C 1939.7 0.616865 1.58521 0
M  V30 19642 O 1940.89 0.860595 1.7409 0
M  V30 19643 C 1938.02 1.9007 2.90673 0
M  V30 19644 C 1936.97 3.05566 2.99689 0
M  V30 19645 C 1936.3 3.04165 4.39759 0
M  V30 19646 C 1937.6 4.45359 2.72861 0
M  V30 19647 H 1939.29 2.68717 1.32029 0
M  V30 19648 H 1936.84 1.29306 0.633716 0
M  V30 19649 H 1938.79 2.06125 3.67546 0
M  V30 19650 H 1937.51 0.946769 3.12576 0
M  V30 19651 H 1936.17 2.89231 2.25257 0
M  V30 19652 H 1935.82 2.0653 4.58644 0
M  V30 19653 H 1935.52 3.81727 4.46719 0
M  V30 19654 H 1937.04 3.22326 5.18592 0
M  V30 19655 H 1938.46 4.61993 3.39463 0
M  V30 19656 H 1936.85 5.24701 2.91219 0
M  V30 19657 H 1937.92 4.54717 1.68405 0
M  V30 19658 N 1939.27 -0.683564 1.42004 0
M  V30 19659 C 1940.51 -1.44577 1.42216 0
M  V30 19660 C 1940.85 -1.94168 0.0352735 0
M  V30 19661 O 1940.12 -1.70331 -0.939023 0
M  V30 19662 C 1940.4 -2.64909 2.43916 0
M  V30 19663 C 1940.26 -2.21006 3.9176 0
M  V30 19664 C 1941.58 -3.6712 2.42716 0
M  V30 19665 H 1938.7 -0.524376 0.517879 0
M  V30 19666 H 1941.34 -0.777575 1.7336 0
M  V30 19667 H 1939.49 -3.21918 2.17489 0
M  V30 19668 H 1941.16 -1.69233 4.29136 0
M  V30 19669 H 1939.4 -1.52667 4.06048 0
M  V30 19670 H 1940.07 -3.07401 4.58485 0
M  V30 19671 H 1942.55 -3.1981 2.66197 0
M  V30 19672 H 1941.43 -4.48907 3.15869 0
M  V30 19673 H 1941.69 -4.17645 1.45 0
M  V30 19674 N 1940.75 -1.28031 -0.919012 0
M  V30 19675 C 1941.71 -1.11534 -2.00232 0
M  V30 19676 C 1942.71 -0.0566233 -1.607 0
M  V30 19677 O 1943.9 -0.30196 -1.71563 0
M  V30 19678 C 1941.03 -0.701371 -3.33607 0
M  V30 19679 H 1942.22 -2.0774 -2.16297 0
M  V30 19680 H 1939.78 -1.10942 -1.10098 0
M  V30 19681 H 1940.51 0.261682 -3.23243 0
M  V30 19682 H 1940.3 -1.4661 -3.63659 0
M  V30 19683 H 1941.79 -0.608444 -4.13144 0
M  V30 19684 N 1942.22 1.12672 -1.10194 0
M  V30 19685 C 1943.45 1.87955 -0.864907 0
M  V30 19686 C 1943.87 1.79527 0.584436 0
M  V30 19687 O 1943.22 1.1674 1.40278 0
M  V30 19688 C 1943.27 3.37261 -1.30143 0
M  V30 19689 O 1943 3.45483 -2.69394 0
M  V30 19690 C 1944.5 4.29488 -1.09793 0
M  V30 19691 H 1941.72 0.594777 -0.310614 0
M  V30 19692 H 1944.26 1.42583 -1.46596 0
M  V30 19693 H 1942.42 3.80187 -0.744103 0
M  V30 19694 H 1942.83 4.38357 -2.87999 0
M  V30 19695 H 1944.3 5.32546 -1.45254 0
M  V30 19696 H 1944.78 4.39185 -0.0363527 0
M  V30 19697 H 1945.39 3.92341 -1.6416 0
M  V30 19698 N 1943.7 0.89031 1.30043 0
M  V30 19699 C 1945.12 0.585066 1.4849 0
M  V30 19700 C 1945.32 -0.87585 1.81469 0
M  V30 19701 O 1944.37 -1.6567 1.90551 0
M  V30 19702 C 1945.69 1.50281 2.60454 0
M  V30 19703 C 1947.23 1.50701 2.74332 0
M  V30 19704 C 1947.71 2.41081 3.89415 0
M  V30 19705 N 1949.2 2.39074 3.96734 0
M  V30 19706 C 1949.94 3.05715 4.85104 0
M  V30 19707 N 1949.43 3.81601 5.78232 0
M  V30 19708 N 1951.22 2.9492 4.78517 0
M  V30 19709 H 1943.38 1.83532 1.0691 0
M  V30 19710 H 1945.64 0.785901 0.530155 0
M  V30 19711 H 1945.34 2.54327 2.42921 0
M  V30 19712 H 1945.22 1.21634 3.5705 0
M  V30 19713 H 1947.61 0.474032 2.91268 0
M  V30 19714 H 1947.69 1.83381 1.7834 0
M  V30 19715 H 1947.33 3.44466 3.73236 0
M  V30 19716 H 1947.26 2.05714 4.84757 0
M  V30 19717 H 1949.75 1.83932 3.30117 0
M  V30 19718 H 1950.06 4.29528 6.42437 0
M  V30 19719 H 1948.41 3.85708 5.78147 0
M  V30 19720 H 1951.6 2.35158 4.04745 0
M  V30 19721 H 1951.77 3.47132 5.47178 0
M  V30 19722 N 1945.18 -1.43489 0.651812 0
M  V30 19723 C 1946.14 -2.29179 -0.0311937 0
M  V30 19724 C 1947.14 -1.42135 -0.751953 0
M  V30 19725 O 1948.33 -1.63781 -0.593416 0
M  V30 19726 C 1945.46 -3.24168 -1.0549 0
M  V30 19727 H 1946.66 -2.91061 0.722741 0
M  V30 19728 H 1944.21 -1.50746 0.412968 0
M  V30 19729 H 1944.95 -2.67177 -1.83812 0
M  V30 19730 H 1944.73 -3.88339 -0.541752 0
M  V30 19731 H 1946.22 -3.88487 -1.53193 0
M  V30 19732 N 1946.66 -0.393643 -1.52605 0
M  V30 19733 C 1947.61 0.456438 -2.23385 0
M  V30 19734 C 1948.59 1.02612 -1.23934 0
M  V30 19735 O 1949.78 0.951501 -1.4925 0
M  V30 19736 C 1946.91 1.58088 -3.04734 0
M  V30 19737 C 1946 1.02273 -4.11584 0
M  V30 19738 N 1946.39 0.189903 -5.05443 0
M  V30 19739 C 1944.69 1.2948 -4.26792 0
M  V30 19740 C 1945.39 -0.118927 -5.81578 0
M  V30 19741 N 1944.36 0.486165 -5.41422 0
M  V30 19742 H 1948.17 -0.186343 -2.93309 0
M  V30 19743 H 1945.68 -0.203191 -1.61124 0
M  V30 19744 H 1947.68 2.20233 -3.53982 0
M  V30 19745 H 1946.34 2.22644 -2.36346 0
M  V30 19746 H 1947.35 -0.173185 -5.1761 0
M  V30 19747 H 1944.03 1.94108 -3.69633 0
M  V30 19748 H 1945.42 -0.79398 -6.67192 0
M  V30 19749 N 1948.14 1.57115 -0.123593 0
M  V30 19750 C 1949.1 2.14386 0.810624 0
M  V30 19751 C 1950.1 1.07985 1.19146 0
M  V30 19752 O 1951.29 1.33739 1.11622 0
M  V30 19753 C 1948.42 2.68785 2.09683 0
M  V30 19754 H 1949.61 2.98264 0.312818 0
M  V30 19755 H 1947.17 1.55794 0.125682 0
M  V30 19756 H 1947.9 1.88509 2.63884 0
M  V30 19757 H 1947.69 3.46607 1.8332 0
M  V30 19758 H 1949.18 3.12989 2.76455 0
M  V30 19759 N 1949.61 -0.150187 1.56883 0
M  V30 19760 C 1950.86 -0.86163 1.82812 0
M  V30 19761 C 1951.18 -1.81849 0.703977 0
M  V30 19762 O 1950.45 -1.93966 -0.274616 0
M  V30 19763 H 1949.03 -0.321175 0.67443 0
M  V30 19764 H 1951.69 -0.144952 1.9436 0
M  V30 19765 H 1950.79 -1.4258 2.77628 0
M  V30 19766 N 1951.09 -1.51916 -0.419434 0
M  V30 19767 C 1952.06 -1.73908 -1.49293 0
M  V30 19768 C 1953.06 -0.60898 -1.48822 0
M  V30 19769 O 1954.25 -0.876745 -1.50528 0
M  V30 19770 C 1951.38 -1.812 -2.88755 0
M  V30 19771 H 1952.57 -2.69732 -1.3109 0
M  V30 19772 H 1950.12 -1.42176 -0.649274 0
M  V30 19773 H 1950.86 -0.872544 -3.12341 0
M  V30 19774 H 1950.64 -2.63348 -2.905 0
M  V30 19775 H 1952.13 -1.99992 -3.66596 0
M  V30 19776 N 1952.57 0.676023 -1.42365 0
M  V30 19777 C 1953.8 1.46224 -1.45952 0
M  V30 19778 C 1954.21 1.89074 -0.0689817 0
M  V30 19779 O 1953.55 1.58634 0.926337 0
M  V30 19780 C 1953.61 2.74388 -2.32274 0
M  V30 19781 C 1953.28 2.53622 -3.80164 0
M  V30 19782 C 1954.27 2.18303 -4.71847 0
M  V30 19783 C 1951.96 2.68654 -4.24417 0
M  V30 19784 C 1953.95 1.98282 -6.05775 0
M  V30 19785 C 1951.64 2.48249 -5.58404 0
M  V30 19786 C 1952.64 2.13116 -6.48899 0
M  V30 19787 O 1952.33 1.92907 -7.80412 0
M  V30 19788 H 1952.06 0.456481 -0.498599 0
M  V30 19789 H 1954.61 0.838156 -1.87521 0
M  V30 19790 H 1952.84 3.39274 -1.85553 0
M  V30 19791 H 1954.53 3.36267 -2.27332 0
M  V30 19792 H 1955.3 2.06286 -4.38943 0
M  V30 19793 H 1951.18 2.9498 -3.54271 0
M  V30 19794 H 1954.72 1.70783 -6.76372 0
M  V30 19795 H 1950.62 2.59862 -5.90882 0
M  V30 19796 H 1951.39 2.07515 -7.91757 0
M  V30 19797 N 1954.05 1.28517 0.912209 0
M  V30 19798 C 1955.27 1.18732 1.70052 0
M  V30 19799 C 1955.7 -0.250323 1.86427 0
M  V30 19800 O 1955.06 -1.18105 1.37553 0
M  V30 19801 C 1955.1 1.89256 3.06944 0
M  V30 19802 O 1954.21 1.20108 3.94522 0
M  V30 19803 H 1953.55 0.412087 0.520654 0
M  V30 19804 H 1956.08 1.69866 1.14048 0
M  V30 19805 H 1956.09 1.97223 3.57165 0
M  V30 19806 H 1954.76 2.93829 2.94343 0
M  V30 19807 H 1953.34 1.20315 3.52957 0
M  V30 19808 N 1955.53 -1.12086 1.1079 0
M  V30 19809 C 1956.77 -1.85314 0.862439 0
M  V30 19810 C 1957.13 -1.82348 -0.601087 0
M  V30 19811 O 1958.33 -2.50956 -0.963043 0
M  V30 19812 C 1956.6 -3.28827 1.40027 0
M  V30 19813 S 1958.16 -4.19385 1.29079 0
M  V30 19814 H 1954.98 -0.639107 0.311551 0
M  V30 19815 H 1957.58 -1.34998 1.41407 0
M  V30 19816 H 1956.29 -3.28547 2.45938 0
M  V30 19817 H 1955.82 -3.84209 0.845382 0
M  V30 19818 H 1957.83 -4.95565 0.250873 0
M  V30 19819 N 1957 -0.897194 -1.29569 0
M  V30 19820 C 1957.94 -0.330353 -2.26807 0
M  V30 19821 C 1958.95 0.521937 -1.54207 0
M  V30 19822 O 1960.14 0.339502 -1.75242 0
M  V30 19823 C 1957.24 0.547835 -3.34443 0
M  V30 19824 C 1956.41 -0.278159 -4.36515 0
M  V30 19825 C 1955.47 0.532461 -5.23499 0
M  V30 19826 O 1954.5 -0.0491596 -5.69179 0
M  V30 19827 N 1955.7 1.83908 -5.50598 0
M  V30 19828 H 1958.46 -1.16608 -2.76084 0
M  V30 19829 H 1956.02 -0.761424 -1.42877 0
M  V30 19830 H 1958.02 1.09647 -3.89563 0
M  V30 19831 H 1956.59 1.28425 -2.85001 0
M  V30 19832 H 1955.81 -1.00822 -3.81089 0
M  V30 19833 H 1957.09 -0.843929 -5.01752 0
M  V30 19834 H 1956.49 2.33437 -5.1529 0
M  V30 19835 H 1955.05 2.33489 -6.08544 0
M  V30 19836 N 1958.48 1.43142 -0.659413 0
M  V30 19837 C 1959.45 2.29192 0.0190393 0
M  V30 19838 C 1960.45 1.42532 0.744404 0
M  V30 19839 O 1961.64 1.64093 0.584722 0
M  V30 19840 C 1958.77 3.24723 1.03769 0
M  V30 19841 H 1959.96 2.90674 -0.738166 0
M  V30 19842 H 1957.51 1.50525 -0.420956 0
M  V30 19843 H 1958.25 2.68149 1.82392 0
M  V30 19844 H 1958.03 3.88621 0.52115 0
M  V30 19845 H 1959.52 3.89294 1.5113 0
M  V30 19846 N 1959.96 0.40173 1.52394 0
M  V30 19847 C 1960.89 -0.46265 2.24482 0
M  V30 19848 C 1961.91 -1.01638 1.27175 0
M  V30 19849 O 1963.09 -0.916585 1.5317 0
M  V30 19850 C 1960.19 -1.65517 2.95732 0
M  V30 19851 C 1959.37 -1.22664 4.19848 0
M  V30 19852 C 1958.43 -2.28524 4.73987 0
M  V30 19853 O 1957.45 -1.89419 5.36758 0
M  V30 19854 N 1958.65 -3.60596 4.54918 0
M  V30 19855 H 1961.42 0.155024 2.99299 0
M  V30 19856 H 1958.98 0.228724 1.60276 0
M  V30 19857 H 1960.97 -2.35886 3.28847 0
M  V30 19858 H 1959.54 -2.17892 2.24147 0
M  V30 19859 H 1958.76 -0.351359 3.92631 0
M  V30 19860 H 1960.05 -0.917162 5.00465 0
M  V30 19861 H 1959.45 -3.95122 4.0484 0
M  V30 19862 H 1958.01 -4.26962 4.9249 0
M  V30 19863 N 1961.44 -1.57047 0.131923 0
M  V30 19864 C 1962.72 -1.87196 -0.567179 0
M  V30 19865 C 1963.1 -1.03533 -1.83968 0
M  V30 19866 O 1962.44 -0.117858 -2.28196 0
M  V30 19867 C 1962.65 -3.38561 -0.847179 0
M  V30 19868 C 1964 -4.07449 -1.19459 0
M  V30 19869 O 1965.03 -3.43654 -0.937026 0
M  V30 19870 O 1963.88 -5.20083 -1.67856 0
M  V30 19871 H 1960.98 -0.775378 -0.287608 0
M  V30 19872 H 1963.52 -1.68872 0.167401 0
M  V30 19873 H 1962.3 -3.91263 0.05402 0
M  V30 19874 H 1961.92 -3.62361 -1.63647 0
M  V30 19875 N 1962.92 0.141865 -1.5696 0
M  V30 19876 C 1963.88 1.15896 -1.97739 0
M  V30 19877 C 1964.88 1.3558 -0.864556 0
M  V30 19878 O 1966.07 1.32485 -1.13107 0
M  V30 19879 C 1963.2 2.51822 -2.29779 0
M  V30 19880 H 1964.39 0.808993 -2.88782 0
M  V30 19881 H 1961.95 0.385387 -1.51474 0
M  V30 19882 H 1962.68 2.91781 -1.41543 0
M  V30 19883 H 1962.47 2.38894 -3.10921 0
M  V30 19884 H 1963.96 3.25066 -2.62148 0
M  V30 19885 N 1964.39 1.52136 0.411372 0
M  V30 19886 C 1965.33 1.71544 1.52005 0
M  V30 19887 C 1966.34 0.595859 1.51504 0
M  V30 19888 O 1967.53 0.870952 1.5581 0
M  V30 19889 C 1964.63 1.73867 2.90901 0
M  V30 19890 C 1963.8 3.02826 3.15619 0
M  V30 19891 C 1962.86 2.96991 4.34376 0
M  V30 19892 O 1961.89 3.70901 4.31765 0
M  V30 19893 N 1963.09 2.14626 5.39366 0
M  V30 19894 H 1965.85 2.67192 1.35752 0
M  V30 19895 H 1963.41 1.50346 0.600643 0
M  V30 19896 H 1965.41 1.67498 3.68411 0
M  V30 19897 H 1963.98 0.85702 3.00623 0
M  V30 19898 H 1963.2 3.22861 2.26174 0
M  V30 19899 H 1964.48 3.8814 3.28976 0
M  V30 19900 H 1963.88 1.54003 5.44334 0
M  V30 19901 H 1962.44 2.14116 6.15628 0
M  V30 19902 N 1965.87 -0.668464 1.42721 0
M  V30 19903 C 1967.12 -1.42567 1.43245 0
M  V30 19904 C 1967.44 -1.9493 0.0521972 0
M  V30 19905 O 1966.71 -1.73469 -0.910231 0
M  V30 19906 H 1965.29 -0.529068 0.527349 0
M  V30 19907 H 1967.95 -0.789428 1.78197 0
M  V30 19908 H 1967.05 -2.27556 2.13599 0
M  V30 19909 N 1967.35 -1.28999 -0.905381 0
M  V30 19910 C 1968.58 -1.19512 -1.68892 0
M  V30 19911 C 1968.99 0.245073 -1.87203 0
M  V30 19912 O 1968.35 1.16474 -1.405 0
M  V30 19913 C 1968.4 -1.89822 -3.07652 0
M  V30 19914 O 1968.12 -3.28217 -2.90181 0
M  V30 19915 C 1969.62 -1.86742 -4.02048 0
M  V30 19916 H 1966.84 -0.414483 -0.527678 0
M  V30 19917 H 1969.39 -1.70271 -1.1326 0
M  V30 19918 H 1967.54 -1.42913 -3.60076 0
M  V30 19919 H 1967.96 -3.63549 -3.78064 0
M  V30 19920 H 1969.43 -2.40512 -4.96848 0
M  V30 19921 H 1969.91 -0.841659 -4.3106 0
M  V30 19922 H 1970.51 -2.33369 -3.55555 0
M  V30 19923 N 1968.83 1.11497 -1.11383 0
M  V30 19924 C 1970.25 1.35232 -0.847616 0
M  V30 19925 C 1970.45 1.9446 0.527973 0
M  V30 19926 O 1969.5 2.17716 1.2789 0
M  V30 19927 C 1970.81 2.28454 -1.95523 0
M  V30 19928 C 1972.36 2.4202 -1.98483 0
M  V30 19929 C 1972.84 3.38563 -3.08446 0
M  V30 19930 N 1974.33 3.46126 -3.07817 0
M  V30 19931 C 1975.06 4.20766 -3.89542 0
M  V30 19932 N 1974.56 4.98388 -4.81229 0
M  V30 19933 N 1976.35 4.16272 -3.77722 0
M  V30 19934 H 1968.5 0.714156 -2.00034 0
M  V30 19935 H 1970.77 0.376936 -0.869841 0
M  V30 19936 H 1970.47 1.92126 -2.94586 0
M  V30 19937 H 1970.35 3.28667 -1.85089 0
M  V30 19938 H 1972.73 2.77623 -1.00047 0
M  V30 19939 H 1972.81 1.4166 -2.12993 0
M  V30 19940 H 1972.46 3.03687 -4.07107 0
M  V30 19941 H 1972.39 4.38776 -2.91176 0
M  V30 19942 H 1974.88 2.90759 -2.41387 0
M  V30 19943 H 1975.19 5.52708 -5.40124 0
M  V30 19944 H 1973.54 4.97551 -4.85251 0
M  V30 19945 H 1976.73 3.54719 -3.05437 0
M  V30 19946 H 1976.9 4.74186 -4.41647 0
M  V30 19947 N 1970.31 0.904053 1.29092 0
M  V30 19948 C 1971.53 0.547082 2.00054 0
M  V30 19949 C 1971.96 -0.862026 1.67185 0
M  V30 19950 O 1971.32 -1.57449 0.898855 0
M  V30 19951 C 1971.36 0.751495 3.52682 0
M  V30 19952 O 1970.47 -0.194004 4.11943 0
M  V30 19953 H 1969.81 0.213241 0.628828 0
M  V30 19954 H 1972.34 1.21683 1.64482 0
M  V30 19955 H 1972.35 0.657831 4.02662 0
M  V30 19956 H 1971.02 1.77878 3.75942 0
M  V30 19957 H 1969.6 -0.0524281 3.72863 0
M  V30 19958 N 1971.79 -1.4279 0.666995 0
M  V30 19959 C 1973.01 -2.06504 0.192596 0
M  V30 19960 C 1973.44 -1.49743 -1.13836 0
M  V30 19961 O 1972.79 -0.612797 -1.7063 0
M  V30 19962 C 1972.84 -3.60366 0.129775 0
M  V30 19963 O 1971.95 -4.0237 -0.904018 0
M  V30 19964 H 1971.29 -0.656244 0.101194 0
M  V30 19965 H 1973.82 -1.83059 0.913807 0
M  V30 19966 H 1973.83 -4.07971 -0.0489739 0
M  V30 19967 H 1972.5 -4.01054 1.1013 0
M  V30 19968 H 1971.08 -3.66329 -0.696943 0
M  V30 19969 N 1973.26 -0.409806 -1.52179 0
M  V30 19970 C 1974.68 -0.0607174 -1.59484 0
M  V30 19971 C 1974.88 1.42703 -1.42261 0
M  V30 19972 O 1973.94 2.19394 -1.24991 0
M  V30 19973 C 1975.25 -0.556238 -2.95511 0
M  V30 19974 C 1976.8 -0.514272 -3.08746 0
M  V30 19975 C 1977.27 -0.986314 -4.47254 0
M  V30 19976 N 1978.76 -0.943162 -4.53496 0
M  V30 19977 C 1979.5 -1.27959 -5.5894 0
M  V30 19978 N 1978.99 -1.6875 -6.71934 0
M  V30 19979 N 1980.79 -1.19951 -5.49152 0
M  V30 19980 H 1972.94 -1.37813 -1.61621 0
M  V30 19981 H 1975.2 -0.566181 -0.760357 0
M  V30 19982 H 1974.91 -1.5961 -3.13397 0
M  V30 19983 H 1974.78 0.033749 -3.77185 0
M  V30 19984 H 1977.17 0.516546 -2.90544 0
M  V30 19985 H 1977.25 -1.14032 -2.28977 0
M  V30 19986 H 1976.89 -2.01546 -4.66199 0
M  V30 19987 H 1976.82 -0.337071 -5.2552 0
M  V30 19988 H 1979.31 -0.64326 -3.72385 0
M  V30 19989 H 1979.63 -1.9273 -7.48381 0
M  V30 19990 H 1977.97 -1.72654 -6.73213 0
M  V30 19991 H 1981.16 -0.879693 -4.5976 0
M  V30 19992 H 1981.34 -1.465 -6.31222 0
M  V30 19993 N 1974.74 1.56975 -0.14025 0
M  V30 19994 C 1976.15 1.82757 0.381688 0
M  V30 19995 C 1976.5 1.0586 1.65191 0
M  V30 19996 O 1975.63 0.301768 2.14286 0
M  V30 19997 C 1976.22 3.31505 0.699272 0
M  V30 19998 C 1974.78 3.57892 1.16576 0
M  V30 19999 C 1973.93 2.7668 0.185351 0
M  V30 20000 H 1976.88 1.54444 -0.365058 0
M  V30 20001 H 1976.9 3.47292 1.55462 0
M  V30 20002 H 1976.41 3.87445 -0.225394 0
M  V30 20003 H 1974.51 3.07332 2.1066 0
M  V30 20004 H 1974.63 4.66386 1.0964 0
M  V30 20005 H 1972.99 2.45548 0.676642 0
M  V30 20006 H 1973.77 3.35388 -0.732787 0
M  V30 20007 N 1976.22 -0.133539 1.57033 0
M  V30 20008 C 1977.18 -1.14845 1.98351 0
M  V30 20009 C 1978.18 -1.3512 0.871734 0
M  V30 20010 O 1979.37 -1.31884 1.13808 0
M  V30 20011 C 1976.5 -2.506 2.31111 0
M  V30 20012 H 1977.7 -0.793667 2.89207 0
M  V30 20013 H 1975.25 -0.377348 1.51677 0
M  V30 20014 H 1975.99 -2.91026 1.43089 0
M  V30 20015 H 1975.77 -2.37242 3.12184 0
M  V30 20016 H 1977.26 -3.23672 2.63868 0
M  V30 20017 N 1977.7 -1.52352 -0.403298 0
M  V30 20018 C 1978.66 -1.75482 -1.4744 0
M  V30 20019 C 1979.66 -0.62473 -1.48168 0
M  V30 20020 O 1980.85 -0.892662 -1.4959 0
M  V30 20021 C 1977.98 -1.84253 -2.86817 0
M  V30 20022 H 1979.18 -2.71107 -1.28222 0
M  V30 20023 H 1976.73 -1.42857 -0.634157 0
M  V30 20024 H 1977.46 -0.905623 -3.11398 0
M  V30 20025 H 1977.25 -2.66414 -2.87691 0
M  V30 20026 H 1978.74 -2.03869 -3.64454 0
M  V30 20027 N 1979.18 0.660885 -1.43074 0
M  V30 20028 C 1980.11 1.78579 -1.50438 0
M  V30 20029 C 1981.09 1.66253 -0.359703 0
M  V30 20030 O 1982.27 1.85465 -0.575893 0
M  V30 20031 C 1979.4 3.16963 -1.41956 0
M  V30 20032 C 1978.36 3.44043 -2.54594 0
M  V30 20033 C 1977.68 4.82147 -2.31166 0
M  V30 20034 C 1978.98 3.3955 -3.96867 0
M  V30 20035 H 1980.68 1.72673 -2.4459 0
M  V30 20036 H 1978.22 0.829317 -1.17721 0
M  V30 20037 H 1980.17 3.95406 -1.45713 0
M  V30 20038 H 1978.9 3.23581 -0.443048 0
M  V30 20039 H 1977.56 2.67969 -2.50177 0
M  V30 20040 H 1977.21 4.85432 -1.31776 0
M  V30 20041 H 1976.91 5.01228 -3.06667 0
M  V30 20042 H 1978.43 5.62857 -2.36695 0
M  V30 20043 H 1979.84 4.0794 -4.02813 0
M  V30 20044 H 1978.24 3.70166 -4.72332 0
M  V30 20045 H 1979.31 2.37868 -4.22548 0
M  V30 20046 N 1980.65 1.29477 0.898527 0
M  V30 20047 C 1981.59 1.10513 2.00797 0
M  V30 20048 C 1982.6 0.0522996 1.62716 0
M  V30 20049 O 1983.79 0.296941 1.76013 0
M  V30 20050 C 1980.89 0.660433 3.32403 0
M  V30 20051 C 1980.06 1.79205 3.99004 0
M  V30 20052 C 1979.12 1.33816 5.089 0
M  V30 20053 O 1978.15 2.04308 5.31269 0
M  V30 20054 N 1979.35 0.209692 5.80121 0
M  V30 20055 H 1982.11 2.06063 2.17619 0
M  V30 20056 H 1979.67 1.21432 1.07078 0
M  V30 20057 H 1981.67 0.340075 4.03269 0
M  V30 20058 H 1980.24 -0.20264 3.11943 0
M  V30 20059 H 1979.46 2.28123 3.21487 0
M  V30 20060 H 1980.74 2.55075 4.40244 0
M  V30 20061 H 1980.14 -0.377998 5.64436 0
M  V30 20062 H 1978.7 -0.0512922 6.5178 0
M  V30 20063 N 1982.13 -1.10905 1.11972 0
M  V30 20064 C 1983.38 -1.83033 0.873311 0
M  V30 20065 C 1983.71 -1.84716 -0.599472 0
M  V30 20066 O 1982.99 -1.30427 -1.44288 0
M  V30 20067 C 1983.27 -3.29941 1.44261 0
M  V30 20068 C 1983.12 -3.36619 2.98341 0
M  V30 20069 C 1984.44 -4.26179 1.09815 0
M  V30 20070 H 1981.56 -0.664529 0.318701 0
M  V30 20071 H 1984.2 -1.30012 1.38553 0
M  V30 20072 H 1982.35 -3.75223 1.00697 0
M  V30 20073 H 1984.02 -2.99854 3.5055 0
M  V30 20074 H 1982.27 -2.76668 3.34122 0
M  V30 20075 H 1982.94 -4.40043 3.33266 0
M  V30 20076 H 1985.41 -3.89105 1.47433 0
M  V30 20077 H 1984.29 -5.27343 1.52318 0
M  V30 20078 H 1984.55 -4.42099 0.00966838 0
M  V30 20079 N 1983.61 -0.910886 -1.2861 0
M  V30 20080 C 1984.54 -0.413998 -2.29801 0
M  V30 20081 C 1985.52 0.51689 -1.62056 0
M  V30 20082 O 1986.71 0.425236 -1.89487 0
M  V30 20083 C 1983.84 0.349336 -3.45539 0
M  V30 20084 C 1982.79 -0.49215 -4.25161 0
M  V30 20085 C 1982.12 0.399352 -5.33207 0
M  V30 20086 C 1983.42 -1.74792 -4.92184 0
M  V30 20087 H 1985.11 -1.25965 -2.71612 0
M  V30 20088 H 1982.66 -0.607149 -1.30575 0
M  V30 20089 H 1984.61 0.70777 -4.15414 0
M  V30 20090 H 1983.33 1.22887 -3.02599 0
M  V30 20091 H 1981.99 -0.833064 -3.57009 0
M  V30 20092 H 1981.64 1.27734 -4.86511 0
M  V30 20093 H 1981.34 -0.160062 -5.87382 0
M  V30 20094 H 1982.86 0.753731 -6.0593 0
M  V30 20095 H 1984.28 -1.45856 -5.54436 0
M  V30 20096 H 1982.68 -2.24952 -5.56342 0
M  V30 20097 H 1983.75 -2.4774 -4.16837 0
M  V30 20098 N 1985.09 1.42434 -0.674558 0
M  V30 20099 C 1986.32 2.05582 -0.204816 0
M  V30 20100 C 1986.73 1.50768 1.14305 0
M  V30 20101 O 1986.07 0.642132 1.72111 0
M  V30 20102 C 1986.13 3.59446 -0.0621889 0
M  V30 20103 C 1985.8 4.36952 -1.33873 0
M  V30 20104 C 1986.79 4.67621 -2.27215 0
M  V30 20105 C 1984.48 4.76595 -1.58626 0
M  V30 20106 C 1986.47 5.36868 -3.43586 0
M  V30 20107 C 1984.16 5.45583 -2.75287 0
M  V30 20108 C 1985.16 5.75644 -3.6759 0
M  V30 20109 O 1984.84 6.43217 -4.8221 0
M  V30 20110 H 1984.58 0.668974 -0.0972083 0
M  V30 20111 H 1987.13 1.83563 -0.92161 0
M  V30 20112 H 1985.36 3.80123 0.710183 0
M  V30 20113 H 1987.05 4.04232 0.367648 0
M  V30 20114 H 1987.82 4.37494 -2.09341 0
M  V30 20115 H 1983.69 4.5259 -0.876522 0
M  V30 20116 H 1987.24 5.6025 -4.15651 0
M  V30 20117 H 1983.14 5.75127 -2.93086 0
M  V30 20118 H 1983.9 6.61708 -4.81752 0
M  V30 20119 N 1986.57 0.417871 1.51959 0
M  V30 20120 C 1987.53 -0.391479 2.25832 0
M  V30 20121 C 1988.53 -0.96627 1.2853 0
M  V30 20122 O 1989.72 -0.843774 1.52401 0
M  V30 20123 C 1986.85 -1.55192 3.03526 0
M  V30 20124 H 1988.04 0.255672 2.98808 0
M  V30 20125 H 1985.6 0.170583 1.55366 0
M  V30 20126 H 1986.33 -2.23569 2.3492 0
M  V30 20127 H 1986.12 -1.14616 3.74974 0
M  V30 20128 H 1987.61 -2.12422 3.59537 0
M  V30 20129 N 1988.04 -1.56898 0.148573 0
M  V30 20130 C 1989.46 -1.82957 -0.371991 0
M  V30 20131 C 1989.81 -1.06735 -1.64627 0
M  V30 20132 O 1988.93 -0.313128 -2.14123 0
M  V30 20133 C 1989.53 -3.31871 -0.681682 0
M  V30 20134 C 1988.09 -3.58506 -1.14676 0
M  V30 20135 C 1987.23 -2.76774 -0.170675 0
M  V30 20136 H 1990.18 -1.54248 0.373244 0
M  V30 20137 H 1990.2 -3.48112 -1.53618 0
M  V30 20138 H 1989.72 -3.8732 0.245938 0
M  V30 20139 H 1987.82 -3.08445 -2.09027 0
M  V30 20140 H 1987.93 -4.66961 -1.07165 0
M  V30 20141 H 1986.29 -2.45903 -0.663611 0
M  V30 20142 H 1987.08 -3.34995 0.750563 0
M  V30 20143 N 1989.52 0.125209 -1.57102 0
M  V30 20144 C 1990.45 1.17944 -1.96524 0
M  V30 20145 C 1991.47 1.37997 -0.863757 0
M  V30 20146 O 1992.66 1.37182 -1.14208 0
M  V30 20147 C 1989.76 2.54056 -2.24296 0
M  V30 20148 C 1988.93 2.5469 -3.55601 0
M  V30 20149 C 1987.99 3.72501 -3.71658 0
M  V30 20150 O 1987.01 3.56372 -4.43833 0
M  V30 20151 N 1988.22 4.90822 -3.09958 0
M  V30 20152 H 1990.98 0.844157 -2.87566 0
M  V30 20153 H 1988.54 0.314552 -1.58815 0
M  V30 20154 H 1990.53 3.31418 -2.32259 0
M  V30 20155 H 1989.1 2.79791 -1.39412 0
M  V30 20156 H 1988.32 1.63087 -3.58882 0
M  V30 20157 H 1989.61 2.52164 -4.41917 0
M  V30 20158 H 1989.01 5.0683 -2.51276 0
M  V30 20159 H 1987.57 5.65882 -3.23451 0
M  V30 20160 N 1991 1.52564 0.395213 0
M  V30 20161 C 1992.28 1.5788 1.1547 0
M  V30 20162 C 1992.66 0.36821 2.07864 0
M  V30 20163 O 1992.01 -0.643933 2.19239 0
M  V30 20164 C 1992.22 2.91451 1.91982 0
M  V30 20165 C 1993.56 3.44961 2.47562 0
M  V30 20166 O 1994.59 2.93284 2.02146 0
M  V30 20167 O 1993.45 4.35233 3.30506 0
M  V30 20168 H 1990.54 0.636516 0.527993 0
M  V30 20169 H 1993.09 1.64897 0.400867 0
M  V30 20170 H 1991.86 3.71006 1.2438 0
M  V30 20171 H 1991.48 2.8779 2.7434 0
M  V30 20172 N 1992.48 -0.653289 1.43422 0
M  V30 20173 C 1993.44 -1.74802 1.48246 0
M  V30 20174 C 1994.44 -1.56552 0.367179 0
M  V30 20175 O 1995.63 -1.62451 0.628923 0
M  V30 20176 C 1992.76 -3.13673 1.33499 0
M  V30 20177 H 1993.96 -1.71906 2.4574 0
M  V30 20178 H 1991.51 -0.864936 1.30187 0
M  V30 20179 H 1992.24 -3.22181 0.370118 0
M  V30 20180 H 1992.03 -3.28325 2.14348 0
M  V30 20181 H 1993.52 -3.93502 1.39806 0
M  V30 20182 N 1993.96 -1.29952 -0.891648 0
M  V30 20183 C 1995.2 -1.18565 -1.6453 0
M  V30 20184 C 1995.54 0.260539 -1.92444 0
M  V30 20185 O 1994.81 1.18723 -1.54062 0
M  V30 20186 C 1995.09 -2.00774 -2.98934 0
M  V30 20187 C 1994.95 -3.53577 -2.78035 0
M  V30 20188 C 1996.27 -1.84038 -3.99772 0
M  V30 20189 H 1993.38 -0.432073 -0.597061 0
M  V30 20190 H 1996.03 -1.59512 -1.03227 0
M  V30 20191 H 1994.18 -1.65981 -3.51258 0
M  V30 20192 H 1995.85 -3.98394 -2.3255 0
M  V30 20193 H 1994.09 -3.78095 -2.12665 0
M  V30 20194 H 1994.76 -4.06381 -3.73575 0
M  V30 20195 H 1997.24 -2.14444 -3.56585 0
M  V30 20196 H 1996.11 -2.43896 -4.91737 0
M  V30 20197 H 1996.38 -0.797726 -4.34843 0
M  V30 20198 N 1995.44 1.1031 -1.12559 0
M  V30 20199 C 1996.37 2.18738 -0.817073 0
M  V30 20200 C 1997.35 1.68675 0.219681 0
M  V30 20201 O 1998.53 1.94033 0.0805889 0
M  V30 20202 C 1995.66 3.46231 -0.272317 0
M  V30 20203 C 1994.62 4.09575 -1.24228 0
M  V30 20204 C 1993.94 5.31784 -0.557693 0
M  V30 20205 C 1995.24 4.53135 -2.59743 0
M  V30 20206 H 1996.94 2.44802 -1.72372 0
M  V30 20207 H 1994.48 1.17658 -0.830221 0
M  V30 20208 H 1996.43 4.21377 -0.0442049 0
M  V30 20209 H 1995.16 3.19661 0.669677 0
M  V30 20210 H 1993.82 3.36437 -1.45622 0
M  V30 20211 H 1993.47 5.0149 0.389484 0
M  V30 20212 H 1993.17 5.75117 -1.20473 0
M  V30 20213 H 1994.69 6.0966 -0.338649 0
M  V30 20214 H 1996.1 5.19548 -2.42369 0
M  V30 20215 H 1994.5 5.07322 -3.20537 0
M  V30 20216 H 1995.57 3.65989 -3.18088 0
M  V30 20217 N 1996.91 0.917694 1.28125 0
M  V30 20218 C 1998.14 0.56827 1.99463 0
M  V30 20219 C 1998.56 -0.844246 1.6809 0
M  V30 20220 O 1997.92 -1.56487 0.915504 0
M  V30 20221 C 1997.97 0.788859 3.51866 0
M  V30 20222 O 1997.07 -0.150301 4.12126 0
M  V30 20223 H 1996.41 0.219899 0.626531 0
M  V30 20224 H 1998.94 1.23421 1.63182 0
M  V30 20225 H 1998.95 0.700502 4.01942 0
M  V30 20226 H 1997.63 1.81855 3.74034 0
M  V30 20227 H 1996.21 -0.012878 3.72898 0
M  V30 20228 N 1998.39 -1.42074 0.682102 0
M  V30 20229 C 1999.62 -2.06288 0.214488 0
M  V30 20230 C 2000.04 -1.50942 -1.12241 0
M  V30 20231 O 1999.4 -0.63086 -1.6997 0
M  V30 20232 C 1999.45 -3.60208 0.167989 0
M  V30 20233 O 1998.55 -4.03306 -0.86129 0
M  V30 20234 H 1997.89 -0.655134 0.108148 0
M  V30 20235 H 2000.42 -1.8208 0.933171 0
M  V30 20236 H 2000.43 -4.08 -0.00570039 0
M  V30 20237 H 1999.11 -3.99863 1.14378 0
M  V30 20238 H 1997.68 -3.67048 -0.65805 0
M  V30 20239 N 1999.87 -0.425924 -1.51735 0
M  V30 20240 C 2001.12 0.144343 -2.01985 0
M  V30 20241 C 2001.44 1.43704 -1.31071 0
M  V30 20242 O 2000.7 1.91341 -0.410741 0
M  V30 20243 C 2001 0.421964 -3.549 0
M  V30 20244 C 2000.66 -0.78354 -4.4404 0
M  V30 20245 C 1999.33 -1.11416 -4.68124 0
M  V30 20246 C 2001.68 -1.58827 -4.9641 0
M  V30 20247 C 1999.01 -2.25041 -5.41824 0
M  V30 20248 C 2001.36 -2.71542 -5.71356 0
M  V30 20249 C 2000.02 -3.05071 -5.93707 0
M  V30 20250 H 1999.29 0.0528187 -0.739115 0
M  V30 20251 H 2001.94 -0.570784 -1.82796 0
M  V30 20252 H 2000.24 1.21885 -3.72359 0
M  V30 20253 H 2001.94 0.876435 -3.91305 0
M  V30 20254 H 1998.53 -0.515891 -4.25484 0
M  V30 20255 H 2002.72 -1.34606 -4.77698 0
M  V30 20256 H 1997.97 -2.51346 -5.57347 0
M  V30 20257 H 2002.15 -3.34275 -6.10928 0
M  V30 20258 H 1999.77 -3.93229 -6.50596 0
M  V30 20259 N 2001.35 1.56817 -0.156891 0
M  V30 20260 C 2002.76 1.58349 0.199431 0
M  V30 20261 C 2002.96 1.17163 1.63937 0
M  V30 20262 O 2002.02 0.87651 2.36799 0
M  V30 20263 C 2003.33 3.00622 -0.0682996 0
M  V30 20264 C 2004.88 3.13 -0.00536951 0
M  V30 20265 C 2005.36 4.57339 -0.245899 0
M  V30 20266 N 2006.85 4.62797 -0.19317 0
M  V30 20267 C 2007.58 5.72308 -0.353652 0
M  V30 20268 N 2007.08 6.90431 -0.5724 0
M  V30 20269 N 2008.87 5.61349 -0.290563 0
M  V30 20270 H 2001.02 1.8188 -1.09697 0
M  V30 20271 H 2003.28 0.842304 -0.435002 0
M  V30 20272 H 2002.99 3.3518 -1.06524 0
M  V30 20273 H 2002.86 3.71616 0.646647 0
M  V30 20274 H 2005.25 2.78277 0.98213 0
M  V30 20275 H 2005.33 2.44472 -0.752801 0
M  V30 20276 H 2004.98 4.92768 -1.23054 0
M  V30 20277 H 2004.91 5.24007 0.521974 0
M  V30 20278 H 2007.4 3.77889 -0.0291566 0
M  V30 20279 H 2007.71 7.69761 -0.684694 0
M  V30 20280 H 2006.06 6.92328 -0.608841 0
M  V30 20281 H 2009.25 4.67945 -0.120361 0
M  V30 20282 H 2009.42 6.46644 -0.419064 0
M  V30 20283 N 2002.83 -0.116876 1.57166 0
M  V30 20284 C 2004.1 -0.854715 1.75937 0
M  V30 20285 C 2004.48 -1.97969 0.732908 0
M  V30 20286 O 2003.83 -2.27207 -0.242738 0
M  V30 20287 C 2004.04 -1.36944 3.2101 0
M  V30 20288 C 2005.39 -1.82093 3.83572 0
M  V30 20289 O 2006.41 -1.46618 3.24625 0
M  V30 20290 O 2005.27 -2.47614 4.87186 0
M  V30 20291 H 2002.37 -0.40605 0.720453 0
M  V30 20292 H 2004.91 -0.100451 1.69402 0
M  V30 20293 H 2003.68 -0.56241 3.87237 0
M  V30 20294 H 2003.31 -2.18635 3.32091 0
M  V30 20295 N 2004.3 -1.52772 -0.387116 0
M  V30 20296 C 2005.53 -1.72086 -1.15763 0
M  V30 20297 C 2005.95 -0.43912 -1.82903 0
M  V30 20298 O 2005.31 0.605254 -1.70899 0
M  V30 20299 C 2005.36 -2.87248 -2.17992 0
M  V30 20300 O 2004.46 -2.54353 -3.2462 0
M  V30 20301 H 2003.8 -0.572174 -0.336918 0
M  V30 20302 H 2006.33 -1.99571 -0.450833 0
M  V30 20303 H 2006.34 -3.12798 -2.61957 0
M  V30 20304 H 2005.02 -3.80232 -1.68513 0
M  V30 20305 H 2003.6 -2.39551 -2.8578 0
M  V30 20306 N 2005.78 0.645673 -1.43767 0
M  V30 20307 C 2007.2 0.962209 -1.27333 0
M  V30 20308 C 2007.4 2.0052 -0.198519 0
M  V30 20309 O 2006.45 2.48974 0.420512 0
M  V30 20310 C 2007.77 1.4393 -2.64016 0
M  V30 20311 C 2009.31 1.55555 -2.71609 0
M  V30 20312 C 2009.79 2.06652 -4.08728 0
M  V30 20313 N 2011.28 2.13944 -4.10831 0
M  V30 20314 C 2012.02 2.54619 -5.13767 0
M  V30 20315 N 2011.51 2.94536 -6.27073 0
M  V30 20316 N 2013.3 2.54625 -5.01121 0
M  V30 20317 H 2005.46 -0.0443554 -2.12354 0
M  V30 20318 H 2007.72 0.042755 -0.947035 0
M  V30 20319 H 2007.42 0.747304 -3.43669 0
M  V30 20320 H 2007.3 2.41297 -2.89923 0
M  V30 20321 H 2009.69 2.23854 -1.92285 0
M  V30 20322 H 2009.77 0.566006 -2.49459 0
M  V30 20323 H 2009.41 1.38952 -4.88523 0
M  V30 20324 H 2009.34 3.06451 -4.28247 0
M  V30 20325 H 2011.83 1.85838 -3.29048 0
M  V30 20326 H 2012.14 3.24345 -7.01442 0
M  V30 20327 H 2010.49 2.92323 -6.30533 0
M  V30 20328 H 2013.68 2.22822 -4.11665 0
M  V30 20329 H 2013.85 2.86002 -5.81469 0
M  V30 20330 N 2007.26 1.30423 0.884744 0
M  V30 20331 C 2008.22 1.16804 1.97204 0
M  V30 20332 C 2009.22 0.0992103 1.60494 0
M  V30 20333 O 2010.41 0.34734 1.70702 0
M  V30 20334 C 2007.54 0.789574 3.3163 0
M  V30 20335 H 2008.74 2.13401 2.10713 0
M  V30 20336 H 2006.29 1.13823 1.07117 0
M  V30 20337 H 2007.03 -0.175888 3.23823 0
M  V30 20338 H 2006.81 1.562 3.59644 0
M  V30 20339 H 2008.3 0.717768 4.11385 0
M  V30 20340 N 2008.74 -1.09711 1.13142 0
M  V30 20341 C 2010.15 -1.33866 0.869023 0
M  V30 20342 C 2010.35 -1.95275 -0.49697 0
M  V30 20343 O 2009.41 -2.19723 -1.2441 0
M  V30 20344 C 2010.72 -2.25314 1.99133 0
M  V30 20345 C 2012.27 -2.38831 2.02308 0
M  V30 20346 C 2012.75 -3.33613 3.13793 0
M  V30 20347 N 2014.24 -3.41185 3.13284 0
M  V30 20348 C 2014.97 -4.14516 3.96187 0
M  V30 20349 N 2014.47 -4.90669 4.89097 0
M  V30 20350 N 2016.26 -4.1021 3.84297 0
M  V30 20351 H 2008.41 -0.682242 2.01145 0
M  V30 20352 H 2010.67 -0.36305 0.875728 0
M  V30 20353 H 2010.38 -1.87415 2.97605 0
M  V30 20354 H 2010.25 -3.25681 1.90294 0
M  V30 20355 H 2012.64 -2.75996 1.04451 0
M  V30 20356 H 2012.72 -1.38254 2.1522 0
M  V30 20357 H 2012.37 -2.97172 4.11887 0
M  V30 20358 H 2012.3 -4.34088 2.9812 0
M  V30 20359 H 2014.79 -2.86882 2.45982 0
M  V30 20360 H 2015.1 -5.44045 5.48849 0
M  V30 20361 H 2013.45 -4.89768 4.93105 0
M  V30 20362 H 2016.64 -3.49815 3.11042 0
M  V30 20363 H 2016.81 -4.671 4.49135 0
M  V30 20364 N 2010.22 -0.924476 -1.27637 0
M  V30 20365 C 2011.44 -0.57884 -1.99159 0
M  V30 20366 C 2011.87 0.83532 -1.68535 0
M  V30 20367 O 2011.22 1.55999 -0.92379 0
M  V30 20368 C 2011.27 -0.807508 -3.51442 0
M  V30 20369 O 2010.38 0.128443 -4.122 0
M  V30 20370 H 2009.72 -0.223218 -0.625356 0
M  V30 20371 H 2012.25 -1.24285 -1.62525 0
M  V30 20372 H 2012.26 -0.721808 -4.01564 0
M  V30 20373 H 2010.93 -1.83836 -3.73064 0
M  V30 20374 H 2009.51 -0.00689785 -3.72899 0
M  V30 20375 N 2011.69 1.41711 -0.689627 0
M  V30 20376 C 2012.63 2.2818 0.0298794 0
M  V30 20377 C 2013.61 1.41901 0.793909 0
M  V30 20378 O 2014.79 1.71333 0.785962 0
M  V30 20379 C 2011.92 3.22025 1.04965 0
M  V30 20380 C 2010.96 4.24808 0.379483 0
M  V30 20381 S 2011.8 5.28323 -0.873793 0
M  V30 20382 C 2012.95 6.25733 0.144532 0
M  V30 20383 H 2013.18 2.88856 -0.703531 0
M  V30 20384 H 2010.72 1.4676 -0.479687 0
M  V30 20385 H 2012.68 3.76626 1.63288 0
M  V30 20386 H 2011.34 2.60457 1.7556 0
M  V30 20387 H 2010.53 4.90717 1.14947 0
M  V30 20388 H 2010.13 3.73772 -0.130522 0
M  V30 20389 H 2012.42 6.70084 0.999673 0
M  V30 20390 H 2013.37 7.06468 -0.480474 0
M  V30 20391 H 2013.77 5.62311 0.496647 0
M  V30 20392 N 2013.17 0.433965 1.51507 0
M  V30 20393 C 2014.14 -0.367505 2.26234 0
M  V30 20394 C 2015.14 -0.952583 1.29547 0
M  V30 20395 O 2016.33 -0.827563 1.53287 0
M  V30 20396 C 2013.46 -1.51964 3.05155 0
M  V30 20397 H 2014.65 0.28735 2.9852 0
M  V30 20398 H 2012.2 0.187052 1.55177 0
M  V30 20399 H 2012.94 -2.21064 2.37278 0
M  V30 20400 H 2012.72 -1.10632 3.76169 0
M  V30 20401 H 2014.21 -2.08597 3.61769 0
M  V30 20402 N 2014.65 -1.56732 0.165206 0
M  V30 20403 C 2015.9 -1.96988 -0.482024 0
M  V30 20404 C 2016.23 -1.05093 -1.63307 0
M  V30 20405 O 2015.5 -0.0968503 -1.94259 0
M  V30 20406 C 2015.79 -3.46766 -0.970842 0
M  V30 20407 C 2015.64 -4.4944 0.179956 0
M  V30 20408 C 2016.96 -3.99487 -1.84657 0
M  V30 20409 H 2014.08 -0.716228 -0.173741 0
M  V30 20410 H 2016.72 -1.88347 0.250108 0
M  V30 20411 H 2014.87 -3.54261 -1.59472 0
M  V30 20412 H 2016.54 -4.5401 0.81687 0
M  V30 20413 H 2014.79 -4.25661 0.836383 0
M  V30 20414 H 2015.46 -5.51623 -0.20409 0
M  V30 20415 H 2017.93 -3.94585 -1.32068 0
M  V30 20416 H 2016.81 -5.04715 -2.15763 0
M  V30 20417 H 2017.07 -3.42935 -2.79013 0
M  V30 20418 N 2016.13 0.10854 -1.57226 0
M  V30 20419 C 2017.38 0.813095 -1.84585 0
M  V30 20420 C 2017.69 1.80548 -0.752453 0
M  V30 20421 O 2018.9 2.55697 -0.912763 0
M  V30 20422 C 2017.35 1.4968 -3.27298 0
M  V30 20423 C 2016.96 0.544871 -4.44674 0
M  V30 20424 C 2018.7 2.18587 -3.63895 0
M  V30 20425 C 2016.61 1.2324 -5.78417 0
M  V30 20426 H 2015.54 0.3074 -0.688492 0
M  V30 20427 H 2018.19 0.065908 -1.83382 0
M  V30 20428 H 2016.57 2.29098 -3.23002 0
M  V30 20429 H 2017.75 -0.216842 -4.6029 0
M  V30 20430 H 2016.06 -0.0377882 -4.16383 0
M  V30 20431 H 2018.66 2.70735 -4.61093 0
M  V30 20432 H 2019 2.96868 -2.91848 0
M  V30 20433 H 2019.54 1.46046 -3.70021 0
M  V30 20434 H 2016.28 0.490673 -6.53661 0
M  V30 20435 H 2015.8 1.96587 -5.66669 0
M  V30 20436 H 2017.47 1.76267 -6.22526 0
M  V30 20437 N 2017.61 1.52975 0.379009 0
M  V30 20438 C 2018.54 1.74729 1.48332 0
M  V30 20439 C 2019.55 0.627862 1.50206 0
M  V30 20440 O 2020.74 0.903805 1.53927 0
M  V30 20441 C 2017.84 1.79998 2.87148 0
M  V30 20442 C 2017.01 3.09452 3.09125 0
M  V30 20443 C 2016.07 3.06138 4.27979 0
M  V30 20444 O 2015.1 3.79976 4.23801 0
M  V30 20445 N 2016.3 2.26019 5.34692 0
M  V30 20446 H 2019.07 2.70011 1.30054 0
M  V30 20447 H 2016.63 1.51586 0.568617 0
M  V30 20448 H 2018.62 1.75275 3.64775 0
M  V30 20449 H 2017.19 0.920593 2.98737 0
M  V30 20450 H 2016.41 3.27586 2.19274 0
M  V30 20451 H 2017.7 3.9503 3.20669 0
M  V30 20452 H 2017.09 1.65515 5.40945 0
M  V30 20453 H 2015.65 2.27126 6.10948 0
M  V30 20454 N 2019.08 -0.63804 1.44107 0
M  V30 20455 C 2020.32 -1.40936 1.48042 0
M  V30 20456 C 2020.69 -1.91699 0.107433 0
M  V30 20457 O 2021.89 -2.68791 0.021461 0
M  V30 20458 C 2020.16 -2.54837 2.50585 0
M  V30 20459 S 2021.72 -3.43126 2.73514 0
M  V30 20460 H 2018.54 -0.480893 0.523701 0
M  V30 20461 H 2021.14 -0.739311 1.80982 0
M  V30 20462 H 2019.84 -2.15843 3.49056 0
M  V30 20463 H 2019.37 -3.26677 2.19194 0
M  V30 20464 H 2021.39 -4.52061 2.04586 0
M  V30 20465 N 2020.56 -1.3089 -0.877815 0
M  V30 20466 C 2021.79 -1.23068 -1.66319 0
M  V30 20467 C 2022.21 0.205309 -1.8768 0
M  V30 20468 O 2021.56 1.13467 -1.42939 0
M  V30 20469 C 2021.61 -1.96305 -3.03557 0
M  V30 20470 O 2021.33 -3.34298 -2.83154 0
M  V30 20471 C 2022.84 -1.95228 -3.97996 0
M  V30 20472 H 2020.06 -0.425583 -0.518768 0
M  V30 20473 H 2022.6 -1.72636 -1.09623 0
M  V30 20474 H 2020.75 -1.50518 -3.56964 0
M  V30 20475 H 2021.17 -3.71486 -3.70268 0
M  V30 20476 H 2022.64 -2.50997 -4.91635 0
M  V30 20477 H 2023.12 -0.932904 -4.29178 0
M  V30 20478 H 2023.73 -2.40858 -3.50525 0
M  V30 20479 N 2022.04 1.0911 -1.13723 0
M  V30 20480 C 2023.29 1.81621 -0.902319 0
M  V30 20481 C 2023.62 1.85646 0.570009 0
M  V30 20482 O 2022.89 1.32706 1.42195 0
M  V30 20483 C 2023.18 3.27604 -1.49492 0
M  V30 20484 C 2023.03 3.3183 -3.03659 0
M  V30 20485 C 2024.35 4.24378 -1.16581 0
M  V30 20486 H 2021.47 0.659374 -0.329233 0
M  V30 20487 H 2024.11 1.27792 -1.40603 0
M  V30 20488 H 2022.26 3.73574 -1.06653 0
M  V30 20489 H 2023.93 2.94239 -3.55276 0
M  V30 20490 H 2022.18 2.71317 -3.38481 0
M  V30 20491 H 2022.85 4.34686 -3.40224 0
M  V30 20492 H 2025.32 3.8671 -1.53604 0
M  V30 20493 H 2024.2 5.24853 -1.60688 0
M  V30 20494 H 2024.46 4.42028 -0.0800013 0
M  V30 20495 N 2023.52 0.931232 1.27145 0
M  V30 20496 C 2024.8 0.491789 1.89317 0
M  V30 20497 C 2025.18 -1.03026 1.84252 0
M  V30 20498 O 2024.52 -1.88596 1.29011 0
M  V30 20499 C 2024.73 1.04187 3.33086 0
M  V30 20500 C 2026.08 1.1045 4.09983 0
M  V30 20501 O 2027.11 0.991747 3.42115 0
M  V30 20502 O 2025.96 1.27861 5.31332 0
M  V30 20503 H 2023.06 0.158746 0.811621 0
M  V30 20504 H 2025.6 1.02315 1.35387 0
M  V30 20505 H 2024.38 2.08566 3.31083 0
M  V30 20506 H 2024 0.492365 3.9454 0
M  V30 20507 N 2025 -1.41343 0.697132 0
M  V30 20508 C 2026.22 -2.06049 0.236356 0
M  V30 20509 C 2026.65 -1.52124 -1.10634 0
M  V30 20510 O 2026.01 -0.648852 -1.69291 0
M  V30 20511 C 2026.05 -3.6001 0.206185 0
M  V30 20512 O 2025.16 -4.04197 -0.818466 0
M  V30 20513 H 2024.5 -0.65395 0.115091 0
M  V30 20514 H 2027.03 -1.8108 0.952431 0
M  V30 20515 H 2027.04 -4.07983 0.0375737 0
M  V30 20516 H 2025.71 -3.98628 1.18612 0
M  V30 20517 H 2024.29 -3.67725 -0.619082 0
M  V30 20518 N 2026.48 -0.441993 -1.51275 0
M  V30 20519 C 2027.39 0.373145 -2.31613 0
M  V30 20520 C 2028.4 1.02333 -1.40726 0
M  V30 20521 O 2029.58 1.01768 -1.73796 0
M  V30 20522 C 2026.64 1.45705 -3.14597 0
M  V30 20523 C 2025.7 0.826508 -4.21269 0
M  V30 20524 C 2024.94 1.85876 -5.00286 0
M  V30 20525 O 2025.16 3.08159 -4.79994 0
M  V30 20526 O 2024.09 1.44671 -5.84255 0
M  V30 20527 H 2027.92 -0.282837 -3.0238 0
M  V30 20528 H 2025.5 -0.204432 -1.47995 0
M  V30 20529 H 2027.39 2.08556 -3.66172 0
M  V30 20530 H 2026.06 2.09703 -2.46589 0
M  V30 20531 H 2024.97 0.15982 -3.73758 0
M  V30 20532 H 2026.3 0.229942 -4.91663 0
M  V30 20533 N 2027.95 1.56642 -0.173515 0
M  V30 20534 C 2029.36 1.83525 0.342837 0
M  V30 20535 C 2029.72 1.0934 1.62908 0
M  V30 20536 O 2028.84 0.347154 2.13597 0
M  V30 20537 C 2029.44 3.32914 0.628798 0
M  V30 20538 C 2027.99 3.60285 1.08958 0
M  V30 20539 C 2027.14 2.77011 0.126621 0
M  V30 20540 H 2030.09 1.53635 -0.397736 0
M  V30 20541 H 2030.11 3.50511 1.48061 0
M  V30 20542 H 2029.63 3.8688 -0.307526 0
M  V30 20543 H 2027.73 3.11732 2.04093 0
M  V30 20544 H 2027.84 4.68607 0.997222 0
M  V30 20545 H 2026.2 2.46928 0.624406 0
M  V30 20546 H 2026.99 3.33758 -0.803763 0
M  V30 20547 N 2029.43 -0.1002 1.57281 0
M  V30 20548 C 2030.84 -0.655287 1.74822 0
M  V30 20549 C 2031.19 -1.79373 0.794961 0
M  V30 20550 O 2030.32 -2.16382 -0.0277532 0
M  V30 20551 C 2030.91 -1.19548 3.17008 0
M  V30 20552 C 2029.47 -1.69668 3.35991 0
M  V30 20553 C 2028.62 -0.604127 2.70639 0
M  V30 20554 H 2031.57 0.125841 1.582 0
M  V30 20555 H 2031.59 -2.06489 3.19598 0
M  V30 20556 H 2031.1 -0.366679 3.86364 0
M  V30 20557 H 2029.2 -2.54964 2.71706 0
M  V30 20558 H 2029.32 -1.79318 4.44277 0
M  V30 20559 H 2027.68 -1.04234 2.32395 0
M  V30 20560 H 2028.46 0.214006 3.42632 0
M  V30 20561 N 2030.91 -1.53174 -0.370891 0
M  V30 20562 C 2031.87 -1.7857 -1.43685 0
M  V30 20563 C 2032.87 -0.656018 -1.4681 0
M  V30 20564 O 2034.06 -0.924191 -1.47663 0
M  V30 20565 C 2031.19 -1.90295 -2.82844 0
M  V30 20566 H 2032.39 -2.73766 -1.22442 0
M  V30 20567 H 2029.94 -1.4417 -0.603713 0
M  V30 20568 H 2030.68 -0.971472 -3.09407 0
M  V30 20569 H 2030.46 -2.72456 -2.81975 0
M  V30 20570 H 2031.95 -2.11554 -3.60048 0
M  V30 20571 N 2032.39 0.630389 -1.44443 0
M  V30 20572 C 2033.3 1.77101 -1.53859 0
M  V30 20573 C 2034.31 1.68749 -0.424221 0
M  V30 20574 O 2035.49 1.89513 -0.681673 0
M  V30 20575 C 2032.55 3.13487 -1.48077 0
M  V30 20576 C 2031.62 3.33464 -2.7037 0
M  V30 20577 C 2030.85 4.63344 -2.64855 0
M  V30 20578 O 2031.07 5.44196 -1.70899 0
M  V30 20579 O 2030.01 4.85539 -3.55718 0
M  V30 20580 H 2033.83 1.7211 -2.50223 0
M  V30 20581 H 2031.42 0.791704 -1.26698 0
M  V30 20582 H 2033.3 3.94788 -1.47378 0
M  V30 20583 H 2031.97 3.19018 -0.54856 0
M  V30 20584 H 2030.88 2.51839 -2.76637 0
M  V30 20585 H 2032.21 3.32795 -3.6264 0
M  V30 20586 N 2033.87 1.31354 0.870861 0
M  V30 20587 C 2034.8 1.21518 1.99388 0
M  V30 20588 C 2035.78 0.102582 1.6979 0
M  V30 20589 O 2036.96 0.287028 1.92067 0
M  V30 20590 C 2034.09 0.920813 3.34871 0
M  V30 20591 C 2033.05 1.99289 3.78772 0
M  V30 20592 C 2032.37 1.55123 5.11704 0
M  V30 20593 C 2033.67 3.40589 3.95975 0
M  V30 20594 H 2035.37 2.15473 2.07875 0
M  V30 20595 H 2032.91 1.03734 0.998761 0
M  V30 20596 H 2034.86 0.838612 4.12971 0
M  V30 20597 H 2033.59 -0.0543971 3.26555 0
M  V30 20598 H 2032.25 2.06496 3.0291 0
M  V30 20599 H 2031.9 0.563901 4.99829 0
M  V30 20600 H 2031.6 2.26842 5.42048 0
M  V30 20601 H 2033.12 1.48308 5.92315 0
M  V30 20602 H 2034.53 3.36061 4.64474 0
M  V30 20603 H 2032.93 4.10517 4.37716 0
M  V30 20604 H 2034 3.8144 2.99385 0
M  V30 20605 N 2035.34 -1.08505 1.143 0
M  V30 20606 C 2036.31 -2.13573 0.831813 0
M  V30 20607 C 2037.31 -1.59971 -0.163092 0
M  V30 20608 O 2038.5 -1.74078 0.0651356 0
M  V30 20609 C 2035.63 -3.40056 0.239795 0
M  V30 20610 H 2036.82 -2.4261 1.76297 0
M  V30 20611 H 2034.37 -1.24201 0.94889 0
M  V30 20612 H 2035.11 -3.16652 -0.700121 0
M  V30 20613 H 2034.89 -3.80257 0.956388 0
M  V30 20614 H 2036.38 -4.17582 0.0392538 0
M  V30 20615 N 2036.82 -0.937962 -1.26649 0
M  V30 20616 C 2037.75 -0.462649 -2.28871 0
M  V30 20617 C 2038.73 0.4824 -1.63116 0
M  V30 20618 O 2039.92 0.384947 -1.90347 0
M  V30 20619 C 2037.05 0.275964 -3.46202 0
M  V30 20620 C 2036 -0.582222 -4.24021 0
M  V30 20621 C 2035.33 0.286161 -5.33934 0
M  V30 20622 C 2036.63 -1.85193 -4.88365 0
M  V30 20623 H 2038.32 -1.31698 -2.68879 0
M  V30 20624 H 2035.87 -0.634709 -1.29257 0
M  V30 20625 H 2037.82 0.619496 -4.16822 0
M  V30 20626 H 2036.54 1.1644 -3.05138 0
M  V30 20627 H 2035.2 -0.908604 -3.55162 0
M  V30 20628 H 2034.85 1.17386 -4.89111 0
M  V30 20629 H 2034.55 -0.284618 -5.8691 0
M  V30 20630 H 2036.08 0.625035 -6.07393 0
M  V30 20631 H 2037.49 -1.57584 -5.51217 0
M  V30 20632 H 2035.89 -2.36702 -5.51445 0
M  V30 20633 H 2036.96 -2.56526 -4.11488 0
M  V30 20634 N 2038.3 1.40971 -0.704618 0
M  V30 20635 C 2039.52 2.05921 -0.24728 0
M  V30 20636 C 2039.95 1.52708 1.09826 0
M  V30 20637 O 2039.31 0.657821 1.68945 0
M  V30 20638 C 2039.36 3.59896 -0.225274 0
M  V30 20639 O 2038.46 4.04625 0.797019 0
M  V30 20640 H 2037.8 0.65333 -0.118557 0
M  V30 20641 H 2040.33 1.80572 -0.962021 0
M  V30 20642 H 2040.34 4.07957 -0.0592095 0
M  V30 20643 H 2039.02 3.97993 -1.20725 0
M  V30 20644 H 2037.59 3.68048 0.599572 0
M  V30 20645 N 2039.78 0.45001 1.51039 0
M  V30 20646 C 2040.73 -0.373216 2.24925 0
M  V30 20647 C 2041.71 -0.979411 1.27657 0
M  V30 20648 O 2042.9 -0.895452 1.52678 0
M  V30 20649 C 2040.03 -1.46669 3.10392 0
M  V30 20650 C 2039.12 -0.869269 4.15096 0
M  V30 20651 N 2039.51 -0.00218012 5.058 0
M  V30 20652 C 2037.81 -1.1355 4.31303 0
M  V30 20653 C 2038.51 0.334694 5.80736 0
M  V30 20654 N 2037.49 -0.284884 5.42853 0
M  V30 20655 H 2041.29 0.295074 2.92415 0
M  V30 20656 H 2038.8 0.262851 1.60259 0
M  V30 20657 H 2040.8 -2.06943 3.61912 0
M  V30 20658 H 2039.46 -2.13719 2.44447 0
M  V30 20659 H 2040.47 0.365173 5.16611 0
M  V30 20660 H 2037.15 -1.80255 3.76582 0
M  V30 20661 H 2038.54 1.04106 6.63786 0
M  V30 20662 N 2041.26 -1.56548 0.18182 0
M  V30 20663 C 2042.53 -1.88906 -0.507337 0
M  V30 20664 C 2042.91 -1.09334 -1.80581 0
M  V30 20665 O 2042.26 -0.190397 -2.27705 0
M  V30 20666 C 2042.47 -3.41085 -0.73904 0
M  V30 20667 C 2043.82 -4.11043 -1.06435 0
M  V30 20668 O 2044.84 -3.46461 -0.82722 0
M  V30 20669 O 2043.7 -5.2516 -1.51225 0
M  V30 20670 H 2040.8 -0.784135 -0.262794 0
M  V30 20671 H 2043.34 -1.68254 0.221041 0
M  V30 20672 H 2042.11 -3.90893 0.17847 0
M  V30 20673 H 2041.74 -3.67384 -1.52036 0
M  V30 20674 N 2042.73 0.0918577 -1.57332 0
M  V30 20675 C 2043.98 0.793187 -1.85884 0
M  V30 20676 C 2044.3 1.79111 -0.770985 0
M  V30 20677 O 2043.57 1.94851 0.202438 0
M  V30 20678 H 2042.15 0.295923 -0.685885 0
M  V30 20679 H 2044.82 0.0727166 -1.94764 0
M  V30 20680 H 2043.91 1.32178 -2.82728 0
M  V30 20681 N 2044.21 1.53368 0.362763 0
M  V30 20682 C 2045.16 1.80005 1.44454 0
M  V30 20683 C 2046.13 0.644581 1.53083 0
M  V30 20684 O 2047.31 0.887051 1.68926 0
M  V30 20685 C 2044.45 1.99822 2.81363 0
M  V30 20686 C 2043.57 3.27539 2.81678 0
M  V30 20687 C 2042.7 3.37528 4.10181 0
M  V30 20688 C 2041.74 4.59266 4.04649 0
M  V30 20689 N 2040.88 4.66393 5.24806 0
M  V30 20690 H 2045.72 2.72311 1.2104 0
M  V30 20691 H 2043.26 1.34893 0.586708 0
M  V30 20692 H 2045.21 2.09299 3.60901 0
M  V30 20693 H 2043.84 1.10849 3.0317 0
M  V30 20694 H 2042.9 3.27001 1.94356 0
M  V30 20695 H 2044.21 4.17156 2.73464 0
M  V30 20696 H 2043.36 3.46331 4.98136 0
M  V30 20697 H 2042.1 2.45932 4.21152 0
M  V30 20698 H 2041.11 4.5056 3.15081 0
M  V30 20699 H 2042.33 5.52206 3.95278 0
M  V30 20700 H 2040.28 3.77699 5.36358 0
M  V30 20701 H 2040.19 5.49919 5.18773 0
M  V30 20702 H 2041.46 4.79484 6.14586 0
M  V30 20703 N 2045.69 -0.62272 1.44776 0
M  V30 20704 C 2046.94 -1.38415 1.4822 0
M  V30 20705 C 2047.27 -1.93844 0.117595 0
M  V30 20706 O 2046.54 -1.7416 -0.865935 0
M  V30 20707 C 2046.83 -2.54325 2.54933 0
M  V30 20708 C 2046.68 -2.04192 4.00782 0
M  V30 20709 C 2048 -3.56495 2.58069 0
M  V30 20710 H 2045.12 -0.501939 0.539654 0
M  V30 20711 H 2047.76 -0.703347 1.76502 0
M  V30 20712 H 2045.91 -3.12403 2.30947 0
M  V30 20713 H 2047.58 -1.50879 4.35928 0
M  V30 20714 H 2045.83 -1.35308 4.12158 0
M  V30 20715 H 2046.5 -2.87679 4.7111 0
M  V30 20716 H 2048.97 -3.08232 2.79522 0
M  V30 20717 H 2047.85 -4.35106 3.34625 0
M  V30 20718 H 2048.11 -4.11119 1.62583 0
M  V30 20719 N 2047.17 -1.31814 -0.863883 0
M  V30 20720 C 2048.1 -1.22574 -1.98741 0
M  V30 20721 C 2049.08 -0.111585 -1.69734 0
M  V30 20722 O 2050.26 -0.29721 -1.91912 0
M  V30 20723 C 2047.39 -0.938559 -3.34378 0
M  V30 20724 C 2046.35 -2.01295 -3.7771 0
M  V30 20725 C 2045.67 -1.57834 -5.10874 0
M  V30 20726 C 2046.97 -3.42684 -3.94164 0
M  V30 20727 H 2048.67 -2.16572 -2.06729 0
M  V30 20728 H 2046.21 -1.04262 -0.993246 0
M  V30 20729 H 2048.17 -0.860501 -4.12521 0
M  V30 20730 H 2046.89 0.0370783 -3.26579 0
M  V30 20731 H 2045.55 -2.081 -3.01811 0
M  V30 20732 H 2045.2 -0.5904 -4.99523 0
M  V30 20733 H 2044.9 -2.29713 -5.40838 0
M  V30 20734 H 2046.42 -1.51448 -5.9152 0
M  V30 20735 H 2047.84 -3.38519 -4.62685 0
M  V30 20736 H 2046.23 -4.12833 -4.35533 0
M  V30 20737 H 2047.3 -3.83023 -2.97358 0
M  V30 20738 N 2048.65 1.07897 -1.14873 0
M  V30 20739 C 2049.61 2.13129 -0.843128 0
M  V30 20740 C 2050.61 1.60055 0.154606 0
M  V30 20741 O 2051.8 1.74041 -0.0743665 0
M  V30 20742 C 2048.93 3.39924 -0.257826 0
M  V30 20743 H 2050.12 2.41671 -1.77581 0
M  V30 20744 H 2047.68 1.23696 -0.955463 0
M  V30 20745 H 2048.41 3.17019 0.683318 0
M  V30 20746 H 2048.2 3.79745 -0.97654 0
M  V30 20747 H 2049.69 4.17555 -0.0613986 0
M  V30 20748 N 2050.12 0.944665 1.2615 0
M  V30 20749 C 2051.35 0.610956 1.97674 0
M  V30 20750 C 2051.77 -0.814818 1.70312 0
M  V30 20751 O 2051.12 -1.54376 0.973364 0
M  V30 20752 C 2051.18 0.847912 3.51415 0
M  V30 20753 O 2050.9 2.21761 3.77827 0
M  V30 20754 C 2052.4 0.525225 4.40178 0
M  V30 20755 H 2049.62 0.229933 0.630374 0
M  V30 20756 H 2052.16 1.26632 1.60576 0
M  V30 20757 H 2050.32 0.239105 3.86661 0
M  V30 20758 H 2050.73 2.28026 4.72339 0
M  V30 20759 H 2052.2 0.741624 5.46995 0
M  V30 20760 H 2052.68 -0.539903 4.35869 0
M  V30 20761 H 2053.29 1.11291 4.10481 0
M  V30 20762 N 2051.6 -1.40596 0.712085 0
M  V30 20763 C 2052.83 -2.05787 0.258197 0
M  V30 20764 C 2053.25 -1.53289 -1.09015 0
M  V30 20765 O 2052.61 -0.666771 -1.68594 0
M  V30 20766 C 2052.66 -3.59771 0.244357 0
M  V30 20767 O 2051.76 -4.05042 -0.77555 0
M  V30 20768 H 2051.1 -0.652692 0.12202 0
M  V30 20769 H 2053.63 -1.80059 0.971583 0
M  V30 20770 H 2053.64 -4.0792 0.0808437 0
M  V30 20771 H 2052.32 -3.97347 1.22834 0
M  V30 20772 H 2050.9 -3.68361 -0.580045 0
M  V30 20773 N 2053.08 -0.458013 -1.50798 0
M  V30 20774 C 2054.31 0.10185 -2.0715 0
M  V30 20775 C 2054.73 1.33899 -1.32109 0
M  V30 20776 O 2054.09 1.77589 -0.364928 0
M  V30 20777 C 2054.14 0.381979 -3.58571 0
M  V30 20778 O 2053.24 1.46484 -3.85508 0
M  V30 20779 H 2052.58 -0.00721903 -0.663961 0
M  V30 20780 H 2055.11 -0.645297 -1.94157 0
M  V30 20781 H 2055.12 0.626354 -4.03163 0
M  V30 20782 H 2053.8 -0.522121 -4.1261 0
M  V30 20783 H 2052.37 1.20881 -3.52764 0
M  V30 20784 N 2054.56 1.56449 -0.190119 0
M  V30 20785 C 2055.81 1.97048 0.449068 0
M  V30 20786 C 2056.13 1.07797 1.62496 0
M  V30 20787 O 2055.4 0.148203 1.95339 0
M  V30 20788 H 2053.98 0.727656 0.168896 0
M  V30 20789 H 2056.64 1.9294 -0.275691 0
M  V30 20790 H 2055.74 3.01764 0.79653 0
M  V30 20791 N 2056.04 -0.0835127 1.57379 0
M  V30 20792 C 2057.28 -0.786031 1.86948 0
M  V30 20793 C 2057.62 -1.77811 0.780828 0
M  V30 20794 O 2056.89 -1.93362 -0.210075 0
M  V30 20795 C 2057.17 -1.50447 3.27166 0
M  V30 20796 C 2057.03 -0.529601 4.46671 0
M  V30 20797 C 2058.35 -2.45226 3.65448 0
M  V30 20798 H 2055.47 -0.284294 0.67996 0
M  V30 20799 H 2058.11 -0.0494231 1.89936 0
M  V30 20800 H 2056.26 -2.13237 3.24749 0
M  V30 20801 H 2057.93 0.0921842 4.61208 0
M  V30 20802 H 2056.17 0.156069 4.33519 0
M  V30 20803 H 2056.84 -1.06967 5.41537 0
M  V30 20804 H 2059.32 -1.92521 3.68883 0
M  V30 20805 H 2058.2 -2.92505 4.6447 0
M  V30 20806 H 2058.46 -3.29506 2.94751 0
M  V30 20807 N 2057.52 -1.53558 -0.354624 0
M  V30 20808 C 2058.47 -1.77149 -1.43535 0
M  V30 20809 C 2059.45 -0.626333 -1.48209 0
M  V30 20810 O 2060.64 -0.885366 -1.53265 0
M  V30 20811 C 2057.77 -1.97463 -2.80826 0
M  V30 20812 C 2056.86 -3.18012 -2.80587 0
M  V30 20813 N 2057.25 -4.39705 -2.49986 0
M  V30 20814 C 2055.55 -3.18957 -3.11741 0
M  V30 20815 C 2056.25 -5.21502 -2.57702 0
M  V30 20816 N 2055.22 -4.57963 -2.92867 0
M  V30 20817 H 2059.02 -2.68839 -1.18755 0
M  V30 20818 H 2056.54 -1.52332 -0.562901 0
M  V30 20819 H 2058.54 -2.12494 -3.58681 0
M  V30 20820 H 2057.2 -1.07008 -3.06561 0
M  V30 20821 H 2058.21 -4.67248 -2.23382 0
M  V30 20822 H 2054.88 -2.38432 -3.42719 0
M  V30 20823 H 2056.27 -6.28602 -2.37296 0
M  V30 20824 N 2058.99 0.615033 -1.45104 0
M  V30 20825 C 2060.22 1.40596 -1.52471 0
M  V30 20826 C 2060.64 1.87454 -0.155745 0
M  V30 20827 O 2060 1.59701 0.858209 0
M  V30 20828 C 2060.05 2.59156 -2.5074 0
M  V30 20829 O 2059.15 3.59538 -2.02006 0
M  V30 20830 H 2058.49 0.420045 -0.514255 0
M  V30 20831 H 2061.02 0.749208 -1.90389 0
M  V30 20832 H 2061.03 3.06496 -2.69303 0
M  V30 20833 H 2059.71 2.24399 -3.50169 0
M  V30 20834 H 2058.29 3.18897 -1.93284 0
M  V30 20835 N 2060.47 1.3227 0.85688 0
M  V30 20836 C 2061.4 1.23626 1.98088 0
M  V30 20837 C 2062.38 0.120585 1.69672 0
M  V30 20838 O 2063.57 0.307383 1.91752 0
M  V30 20839 C 2060.7 0.956279 3.33875 0
M  V30 20840 C 2059.65 2.03295 3.76637 0
M  V30 20841 C 2058.98 1.60541 5.1003 0
M  V30 20842 C 2060.28 3.4477 3.92341 0
M  V30 20843 H 2061.97 2.17665 2.05578 0
M  V30 20844 H 2059.52 1.04788 0.987703 0
M  V30 20845 H 2061.47 0.882366 4.12059 0
M  V30 20846 H 2060.19 -0.0197585 3.26594 0
M  V30 20847 H 2058.85 2.09698 3.00703 0
M  V30 20848 H 2058.5 0.616883 4.99203 0
M  V30 20849 H 2058.2 2.32578 5.39612 0
M  V30 20850 H 2059.73 1.54582 5.90709 0
M  V30 20851 H 2061.14 3.40968 4.60884 0
M  V30 20852 H 2059.54 4.15137 4.33338 0
M  V30 20853 H 2060.61 3.84594 2.95322 0
M  V30 20854 N 2061.95 -1.07287 1.15444 0
M  V30 20855 C 2062.91 -2.12679 0.854419 0
M  V30 20856 C 2063.91 -1.60135 -0.146116 0
M  V30 20857 O 2065.1 -1.73999 0.0835953 0
M  V30 20858 C 2062.23 -3.39782 0.275849 0
M  V30 20859 H 2063.43 -2.40726 1.7886 0
M  V30 20860 H 2060.98 -1.23187 0.96201 0
M  V30 20861 H 2061.72 -3.17377 -0.666496 0
M  V30 20862 H 2061.5 -3.79222 0.996665 0
M  V30 20863 H 2062.99 -4.17516 0.0835417 0
M  V30 20864 N 2063.43 -0.951342 -1.25647 0
M  V30 20865 C 2064.65 -0.620954 -1.97886 0
M  V30 20866 C 2065.08 0.799383 -1.70269 0
M  V30 20867 O 2064.44 1.54005 -0.956672 0
M  V30 20868 C 2064.48 -0.881873 -3.4965 0
M  V30 20869 O 2063.59 0.0409801 -4.1238 0
M  V30 20870 H 2062.93 -0.236433 -0.62048 0
M  V30 20871 H 2065.46 -1.27704 -1.59852 0
M  V30 20872 H 2065.47 -0.806823 -3.99943 0
M  V30 20873 H 2064.14 -1.91708 -3.69081 0
M  V30 20874 H 2062.72 -0.0859938 -3.72801 0
M  V30 20875 N 2064.91 1.40216 -0.719531 0
M  V30 20876 C 2066.15 2.00418 -0.260225 0
M  V30 20877 C 2066.47 1.57349 1.15179 0
M  V30 20878 O 2065.74 0.814718 1.78155 0
M  V30 20879 H 2064.32 0.741161 -0.0932204 0
M  V30 20880 H 2066.99 1.71495 -0.926041 0
M  V30 20881 H 2066.08 3.10689 -0.29642 0
M  V30 20882 N 2066.38 0.466004 1.50553 0
M  V30 20883 C 2067.61 -0.0885768 2.0671 0
M  V30 20884 C 2068.03 -1.33958 1.33044 0
M  V30 20885 O 2067.38 -1.78102 0.398219 0
M  V30 20886 C 2067.43 -0.381842 3.59478 0
M  V30 20887 O 2067.16 0.81954 4.30366 0
M  V30 20888 C 2068.66 -0.98395 4.32242 0
M  V30 20889 H 2065.88 0.00481473 0.670983 0
M  V30 20890 H 2068.42 0.653327 1.93783 0
M  V30 20891 H 2066.58 -1.07367 3.72224 0
M  V30 20892 H 2066.99 0.56106 5.21491 0
M  V30 20893 H 2068.46 -1.13895 5.40122 0
M  V30 20894 H 2068.94 -1.97271 3.92404 0
M  V30 20895 H 2069.55 -0.330654 4.24013 0
M  V30 20896 N 2067.86 -1.56346 0.198413 0
M  V30 20897 C 2069.11 -1.97283 -0.438612 0
M  V30 20898 C 2069.43 -1.08657 -1.61922 0
M  V30 20899 O 2068.7 -0.158561 -1.95257 0
M  V30 20900 H 2067.28 -0.728541 -0.165035 0
M  V30 20901 H 2069.94 -1.92791 0.285919 0
M  V30 20902 H 2069.04 -3.02183 -0.780516 0
M  V30 20903 N 2069.34 0.0751653 -1.57421 0
M  V30 20904 C 2070.29 1.09651 -1.99901 0
M  V30 20905 C 2071.27 1.34668 -0.880538 0
M  V30 20906 O 2072.47 1.35025 -1.14444 0
M  V30 20907 C 2069.6 2.41121 -2.44367 0
M  V30 20908 C 2068.68 2.19394 -3.62942 0
M  V30 20909 N 2069.07 1.67586 -4.7723 0
M  V30 20910 C 2067.37 2.4988 -3.69426 0
M  V30 20911 C 2068.07 1.60595 -5.59092 0
M  V30 20912 N 2067.05 2.06526 -5.0284 0
M  V30 20913 H 2070.85 0.689217 -2.85704 0
M  V30 20914 H 2068.36 0.282291 -1.59928 0
M  V30 20915 H 2070.36 3.15048 -2.73039 0
M  V30 20916 H 2069.02 2.82571 -1.5995 0
M  V30 20917 H 2070.03 1.36498 -4.99588 0
M  V30 20918 H 2066.71 2.94719 -2.95714 0
M  V30 20919 H 2068.1 1.21421 -6.60838 0
M  V30 20920 N 2070.82 1.53744 0.346476 0
M  V30 20921 C 2072.06 1.71103 1.08866 0
M  V30 20922 C 2072.4 0.47131 1.88394 0
M  V30 20923 O 2071.67 -0.531638 1.87093 0
M  V30 20924 C 2071.96 2.97273 2.03225 0
M  V30 20925 C 2071.81 4.31446 1.27179 0
M  V30 20926 C 2073.13 3.19105 3.03084 0
M  V30 20927 H 2070.25 0.622598 0.394387 0
M  V30 20928 H 2072.89 1.86412 0.367514 0
M  V30 20929 H 2071.04 2.84352 2.64719 0
M  V30 20930 H 2072.71 4.56212 0.683225 0
M  V30 20931 H 2070.95 4.29989 0.573773 0
M  V30 20932 H 2071.62 5.15901 1.96343 0
M  V30 20933 H 2074.1 3.31337 2.51704 0
M  V30 20934 H 2072.98 4.08786 3.66313 0
M  V30 20935 H 2073.24 2.35265 3.74303 0
M  V30 20936 N 2072.3 -0.607329 1.45428 0
M  V30 20937 C 2073.23 -1.73188 1.50129 0
M  V30 20938 C 2074.24 -1.58009 0.392034 0
M  V30 20939 O 2075.43 -1.65886 0.659103 0
M  V30 20940 C 2072.53 -3.1119 1.34217 0
M  V30 20941 C 2071.7 -3.52606 2.58821 0
M  V30 20942 C 2070.76 -4.69572 2.37463 0
M  V30 20943 O 2069.79 -4.76676 3.11076 0
M  V30 20944 N 2070.99 -5.62854 1.42041 0
M  V30 20945 H 2073.76 -1.69619 2.47082 0
M  V30 20946 H 2071.32 -0.792618 1.41171 0
M  V30 20947 H 2073.31 -3.87195 1.17739 0
M  V30 20948 H 2071.88 -3.09265 0.455386 0
M  V30 20949 H 2071.1 -2.6656 2.90412 0
M  V30 20950 H 2072.39 -3.77035 3.41646 0
M  V30 20951 H 2071.78 -5.59829 0.812899 0
M  V30 20952 H 2070.34 -6.3839 1.31534 0
M  V30 20953 N 2073.77 -1.32722 -0.849853 0
M  V30 20954 C 2075.02 -1.23739 -1.60675 0
M  V30 20955 C 2075.35 0.199183 -1.93176 0
M  V30 20956 O 2074.63 1.13761 -1.57761 0
M  V30 20957 C 2074.91 -2.10183 -2.92395 0
M  V30 20958 C 2074.76 -3.62243 -2.66646 0
M  V30 20959 C 2076.08 -1.96664 -3.93715 0
M  V30 20960 H 2073.2 -0.45085 -0.583013 0
M  V30 20961 H 2075.84 -1.62716 -0.980999 0
M  V30 20962 H 2073.99 -1.77072 -3.458 0
M  V30 20963 H 2075.67 -4.05591 -2.19758 0
M  V30 20964 H 2073.91 -3.8467 -2.00529 0
M  V30 20965 H 2074.58 -4.1806 -3.60458 0
M  V30 20966 H 2077.06 -2.25679 -3.49583 0
M  V30 20967 H 2075.93 -2.59417 -4.83729 0
M  V30 20968 H 2076.19 -0.935664 -4.32085 0
M  V30 20969 N 2075.25 1.06673 -1.16011 0
M  V30 20970 C 2076.22 2.12223 -0.865686 0
M  V30 20971 C 2077.22 1.6021 0.137621 0
M  V30 20972 O 2078.41 1.73953 -0.0928217 0
M  V30 20973 C 2075.54 3.39631 -0.293865 0
M  V30 20974 H 2076.73 2.39774 -1.80134 0
M  V30 20975 H 2074.28 1.22675 -0.968529 0
M  V30 20976 H 2075.02 3.17726 0.649656 0
M  V30 20977 H 2074.8 3.78688 -1.01676 0
M  V30 20978 H 2076.29 4.17466 -0.105682 0
M  V30 20979 N 2076.73 0.957992 1.25141 0
M  V30 20980 C 2078.15 0.662955 1.45179 0
M  V30 20981 C 2078.35 -0.778426 1.85857 0
M  V30 20982 O 2077.4 -1.55337 1.99065 0
M  V30 20983 C 2078.72 1.63876 2.52121 0
M  V30 20984 C 2080.26 1.65031 2.65958 0
M  V30 20985 C 2080.74 2.61384 3.76089 0
M  V30 20986 N 2082.23 2.59768 3.83503 0
M  V30 20987 C 2082.96 3.30999 4.68217 0
M  V30 20988 N 2082.46 4.11715 5.57192 0
M  V30 20989 N 2084.25 3.1987 4.62211 0
M  V30 20990 H 2076.4 1.88941 0.97031 0
M  V30 20991 H 2078.67 0.812898 0.487751 0
M  V30 20992 H 2078.37 2.66846 2.29098 0
M  V30 20993 H 2078.25 1.4039 3.50101 0
M  V30 20994 H 2080.63 0.627761 2.88346 0
M  V30 20995 H 2080.72 1.92576 1.68369 0
M  V30 20996 H 2080.36 3.63767 3.54452 0
M  V30 20997 H 2080.29 2.31121 4.73171 0
M  V30 20998 H 2082.78 2.01172 3.19903 0
M  V30 20999 H 2083.09 4.62978 6.18766 0
M  V30 21000 H 2081.44 4.15812 5.56889 0
M  V30 21001 H 2084.63 2.56282 3.91711 0
M  V30 21002 H 2084.8 3.75649 5.28008 0
M  V30 21003 N 2078.21 -1.39832 0.726957 0
M  V30 21004 C 2079.16 -2.32492 0.0707517 0
M  V30 21005 C 2080.15 -1.5264 -0.734661 0
M  V30 21006 O 2081.36 -1.68361 -0.63675 0
M  V30 21007 H 2077.73 -0.751989 0.00407767 0
M  V30 21008 H 2079.7 -2.85473 0.868774 0
M  V30 21009 C 2078.45 -3.37686 -0.828442 0
M  V30 21010 H 2077.77 -3.99205 -0.218093 0
M  V30 21011 H 2079.21 -4.0499 -1.25534 0
M  V30 21012 C 2077.67 -2.74083 -1.95909 0
M  V30 21013 O 2078.2 -2.61299 -3.051 0
M  V30 21014 N 2076.41 -2.32292 -1.7461 0
M  V30 21015 H 2075.96 -2.4289 -0.858037 0
M  V30 21016 H 2075.91 -1.90075 -2.50437 0
M  V30 21017 N 2079.69 -0.473982 -1.50304 0
M  V30 21018 C 2080.65 0.307394 -2.27129 0
M  V30 21019 C 2081.65 0.917901 -1.32027 0
M  V30 21020 O 2082.84 0.78663 -1.55428 0
M  V30 21021 C 2079.97 1.4382 -3.09077 0
M  V30 21022 H 2081.16 -0.366396 -2.97653 0
M  V30 21023 H 2078.72 -0.228128 -1.54626 0
M  V30 21024 H 2079.45 2.14696 -2.43056 0
M  V30 21025 H 2079.24 1.0062 -3.7897 0
M  V30 21026 H 2080.73 1.98932 -3.67173 0
M  V30 21027 N 2081.16 1.56239 -0.206702 0
M  V30 21028 C 2082.09 2.2262 0.704446 0
M  V30 21029 C 2083.08 1.19305 1.21245 0
M  V30 21030 O 2084.26 1.47846 1.25917 0
M  V30 21031 C 2081.39 2.89459 1.91913 0
M  V30 21032 C 2080.34 3.99119 1.54558 0
M  V30 21033 C 2079.67 4.53179 2.83783 0
M  V30 21034 C 2080.97 5.16934 0.746749 0
M  V30 21035 H 2082.66 2.99019 0.151028 0
M  V30 21036 H 2080.21 1.43824 0.0712004 0
M  V30 21037 H 2082.16 3.34584 2.56186 0
M  V30 21038 H 2080.89 2.10484 2.49728 0
M  V30 21039 H 2079.55 3.54702 0.926381 0
M  V30 21040 H 2079.19 3.70952 3.39711 0
M  V30 21041 H 2078.89 5.2718 2.59528 0
M  V30 21042 H 2080.42 5.01013 3.49024 0
M  V30 21043 H 2081.83 5.58532 1.29284 0
M  V30 21044 H 2080.23 5.97074 0.601876 0
M  V30 21045 H 2081.3 4.84256 -0.249783 0
M  V30 21046 N 2082.64 -0.0668159 1.57458 0
M  V30 21047 C 2084.06 -0.421716 1.53928 0
M  V30 21048 C 2084.26 -1.78879 0.927602 0
M  V30 21049 O 2083.31 -2.46826 0.532256 0
M  V30 21050 C 2084.63 -0.358209 2.98559 0
M  V30 21051 C 2086.18 -0.438036 3.0992 0
M  V30 21052 C 2086.65 -0.404384 4.56211 0
M  V30 21053 N 2088.14 -0.464311 4.60867 0
M  V30 21054 C 2088.88 -0.460566 5.71547 0
M  V30 21055 N 2088.37 -0.41134 6.91578 0
M  V30 21056 N 2090.17 -0.507495 5.59804 0
M  V30 21057 H 2082.32 0.828281 1.95584 0
M  V30 21058 H 2084.58 0.311307 0.895428 0
M  V30 21059 H 2084.29 0.579727 3.46889 0
M  V30 21060 H 2084.16 -1.16651 3.58709 0
M  V30 21061 H 2086.55 -1.3664 2.6156 0
M  V30 21062 H 2086.63 0.398926 2.5267 0
M  V30 21063 H 2086.27 0.520148 5.0523 0
M  V30 21064 H 2086.2 -1.25895 5.1133 0
M  V30 21065 H 2088.69 -0.506402 3.74492 0
M  V30 21066 H 2089.01 -0.412545 7.71698 0
M  V30 21067 H 2087.35 -0.377953 6.93972 0
M  V30 21068 H 2090.54 -0.543679 4.64932 0
M  V30 21069 H 2090.71 -0.501107 6.4606 0
M  V30 21070 N 2084.12 -1.53926 -0.338317 0
M  V30 21071 C 2085.05 -1.85269 -1.42119 0
M  V30 21072 C 2086.03 -0.708238 -1.54654 0
M  V30 21073 O 2087.22 -0.960631 -1.68777 0
M  V30 21074 C 2084.35 -2.06693 -2.79097 0
M  V30 21075 C 2083.3 -3.22519 -2.81364 0
M  V30 21076 C 2082.63 -3.29286 -4.21277 0
M  V30 21077 C 2083.93 -4.6051 -2.46431 0
M  V30 21078 H 2085.62 -2.75957 -1.16137 0
M  V30 21079 H 2083.17 -1.32781 -0.557249 0
M  V30 21080 H 2085.12 -2.27204 -3.54903 0
M  V30 21081 H 2083.84 -1.1274 -3.06524 0
M  V30 21082 H 2082.5 -3.01872 -2.08011 0
M  V30 21083 H 2082.15 -2.32919 -4.45823 0
M  V30 21084 H 2081.85 -4.07123 -4.23704 0
M  V30 21085 H 2083.38 -3.52014 -4.98918 0
M  V30 21086 H 2084.79 -4.80999 -3.1195 0
M  V30 21087 H 2083.19 -5.40788 -2.60132 0
M  V30 21088 H 2084.26 -4.63762 -1.41607 0
M  V30 21089 N 2085.6 0.599608 -1.45748 0
M  V30 21090 C 2086.53 1.72389 -1.51045 0
M  V30 21091 C 2087.54 1.57799 -0.400408 0
M  V30 21092 O 2088.73 1.65534 -0.667891 0
M  V30 21093 C 2085.83 3.10473 -1.35865 0
M  V30 21094 C 2085.01 3.51228 -2.60687 0
M  V30 21095 C 2084.07 4.68306 -2.39949 0
M  V30 21096 O 2083.09 4.7502 -3.136 0
M  V30 21097 N 2084.29 5.62093 -1.45024 0
M  V30 21098 H 2087.06 1.68306 -2.47978 0
M  V30 21099 H 2084.62 0.78512 -1.41589 0
M  V30 21100 H 2086.61 3.86565 -1.1979 0
M  V30 21101 H 2085.18 3.09019 -0.471781 0
M  V30 21102 H 2084.4 2.65016 -2.91822 0
M  V30 21103 H 2085.69 3.75218 -3.43641 0
M  V30 21104 H 2085.09 5.5939 -0.842577 0
M  V30 21105 H 2083.64 6.37684 -1.34918 0
M  V30 21106 N 2087.08 1.33171 0.842803 0
M  V30 21107 C 2088.32 1.24589 1.60017 0
M  V30 21108 C 2088.66 -0.188935 1.93279 0
M  V30 21109 O 2087.93 -1.12923 1.58362 0
M  V30 21110 C 2088.21 2.11731 2.91277 0
M  V30 21111 C 2088.07 3.63652 2.64721 0
M  V30 21112 C 2089.39 1.98749 3.92666 0
M  V30 21113 H 2086.51 0.453935 0.580613 0
M  V30 21114 H 2089.15 1.63234 0.972356 0
M  V30 21115 H 2087.3 1.78904 3.44856 0
M  V30 21116 H 2088.97 4.06751 2.17604 0
M  V30 21117 H 2087.21 3.85728 1.98486 0
M  V30 21118 H 2087.88 4.19966 3.58236 0
M  V30 21119 H 2090.36 2.2753 3.48381 0
M  V30 21120 H 2089.24 2.61979 4.82347 0
M  V30 21121 H 2089.5 0.958565 4.31583 0
M  V30 21122 N 2088.56 -1.06056 1.16576 0
M  V30 21123 C 2089.49 -2.13555 0.832268 0
M  V30 21124 C 2090.5 -1.61997 -0.161536 0
M  V30 21125 O 2091.69 -1.78387 0.0635559 0
M  V30 21126 C 2088.79 -3.38193 0.218821 0
M  V30 21127 C 2087.96 -4.19059 1.25332 0
M  V30 21128 C 2087.02 -5.22054 0.659239 0
M  V30 21129 O 2086.05 -5.53474 1.32874 0
M  V30 21130 N 2087.25 -5.77861 -0.552882 0
M  V30 21131 H 2090.01 -2.42762 1.75745 0
M  V30 21132 H 2087.58 -1.22078 1.06342 0
M  V30 21133 H 2089.57 -4.04246 -0.191703 0
M  V30 21134 H 2088.14 -3.06591 -0.609967 0
M  V30 21135 H 2087.36 -3.48626 1.83993 0
M  V30 21136 H 2088.65 -4.69892 1.95139 0
M  V30 21137 H 2088.04 -5.54604 -1.11493 0
M  V30 21138 H 2086.6 -6.45478 -0.905585 0
M  V30 21139 N 2090.03 -0.964615 -1.24631 0
M  V30 21140 C 2091.31 -0.54181 -1.87946 0
M  V30 21141 C 2091.69 0.981047 -1.86919 0
M  V30 21142 O 2091.04 1.85109 -1.33966 0
M  V30 21143 C 2091.25 -1.12982 -3.30206 0
M  V30 21144 C 2092.6 -1.21281 -4.0691 0
M  V30 21145 O 2093.62 -1.0821 -3.39366 0
M  V30 21146 O 2092.48 -1.41904 -5.27755 0
M  V30 21147 H 2089.57 -0.180209 -0.807127 0
M  V30 21148 H 2092.12 -1.05869 -1.32627 0
M  V30 21149 H 2090.89 -2.17271 -3.25436 0
M  V30 21150 H 2090.51 -0.596798 -3.93096 0
M  V30 21151 N 2091.51 1.39445 -0.734362 0
M  V30 21152 C 2092.76 2.00824 -0.282443 0
M  V30 21153 C 2093.09 1.58137 1.12722 0
M  V30 21154 O 2092.37 0.809969 1.76833 0
M  V30 21155 C 2092.65 3.58051 -0.38359 0
M  V30 21156 C 2092.5 4.10758 -1.83298 0
M  V30 21157 C 2093.82 4.39476 0.234349 0
M  V30 21158 H 2090.94 0.729611 -0.104103 0
M  V30 21159 H 2093.58 1.65661 -0.930397 0
M  V30 21160 H 2091.73 3.88136 0.168068 0
M  V30 21161 H 2093.4 3.91395 -2.44147 0
M  V30 21162 H 2091.65 3.64342 -2.35451 0
M  V30 21163 H 2092.32 5.19897 -1.85503 0
M  V30 21164 H 2094.79 4.15431 -0.235909 0
M  V30 21165 H 2093.67 5.48738 0.133228 0
M  V30 21166 H 2093.93 4.21924 1.32032 0
M  V30 21167 N 2092.99 0.481946 1.5005 0
M  V30 21168 C 2094.4 0.0294639 1.86677 0
M  V30 21169 C 2094.75 -1.37874 1.39589 0
M  V30 21170 O 2093.88 -2.02407 0.765517 0
M  V30 21171 C 2094.47 0.0466921 3.38768 0
M  V30 21172 C 2093.03 -0.350364 3.74766 0
M  V30 21173 C 2092.18 0.427499 2.73985 0
M  V30 21174 H 2095.13 0.69569 1.42639 0
M  V30 21175 H 2095.15 -0.75302 3.72974 0
M  V30 21176 H 2094.66 1.07172 3.73009 0
M  V30 21177 H 2092.76 -1.37934 3.46128 0
M  V30 21178 H 2092.88 -0.0441626 4.7908 0
M  V30 21179 H 2091.24 -0.120219 2.54416 0
M  V30 21180 H 2092.02 1.45225 3.1107 0
M  V30 21181 N 2094.47 -1.56127 0.214985 0
M  V30 21182 C 2095.43 -2.18748 -0.684252 0
M  V30 21183 C 2096.43 -1.14748 -1.12648 0
M  V30 21184 O 2097.62 -1.4002 -1.03634 0
M  V30 21185 C 2094.75 -2.80553 -1.93656 0
M  V30 21186 H 2095.95 -2.99581 -0.13839 0
M  V30 21187 H 2093.5 -1.56262 -0.0346358 0
M  V30 21188 H 2094.23 -2.03573 -2.52445 0
M  V30 21189 H 2094.02 -3.56705 -1.628 0
M  V30 21190 H 2095.51 -3.28575 -2.57737 0
M  V30 21191 N 2095.95 0.0584645 -1.57492 0
M  V30 21192 C 2097.19 0.75358 -1.87525 0
M  V30 21193 C 2097.51 1.77436 -0.808803 0
M  V30 21194 O 2096.78 1.95237 0.161061 0
M  V30 21195 H 2095.36 0.281308 -0.692008 0
M  V30 21196 H 2098.03 0.0313879 -1.94875 0
M  V30 21197 H 2097.12 1.26151 -2.85469 0
M  V30 21198 N 2097.42 1.54103 0.330149 0
M  V30 21199 C 2098.7 1.62635 1.0867 0
M  V30 21200 C 2099.08 0.456041 2.06115 0
M  V30 21201 O 2098.43 -0.550367 2.21773 0
M  V30 21202 C 2098.64 2.99332 1.79448 0
M  V30 21203 C 2099.99 3.55151 2.32708 0
M  V30 21204 O 2101.01 3.01594 1.89525 0
M  V30 21205 O 2099.87 4.4886 3.11749 0
M  V30 21206 H 2096.96 0.658337 0.500521 0
M  V30 21207 H 2099.51 1.66449 0.330568 0
M  V30 21208 H 2098.28 3.75947 1.08532 0
M  V30 21209 H 2097.9 2.99167 2.61887 0
M  V30 21210 N 2098.9 -0.59187 1.46064 0
M  V30 21211 C 2100.18 -1.35177 1.41374 0
M  V30 21212 C 2100.56 -2.10898 0.09244 0
M  V30 21213 O 2099.91 -2.08901 -0.925879 0
M  V30 21214 C 2100.12 -2.28545 2.63758 0
M  V30 21215 C 2101.47 -2.90662 3.09517 0
M  V30 21216 O 2102.49 -2.38861 2.64242 0
M  V30 21217 O 2101.35 -3.84728 3.88133 0
M  V30 21218 H 2098.44 -0.606905 0.561778 0
M  V30 21219 H 2100.99 -0.61365 1.58216 0
M  V30 21220 H 2099.76 -1.71959 3.51491 0
M  V30 21221 H 2099.38 -3.09711 2.49328 0
M  V30 21222 N 2100.38 -1.33616 -0.835729 0
M  V30 21223 C 2101.61 -1.28297 -1.62319 0
M  V30 21224 C 2102.02 0.145496 -1.88239 0
M  V30 21225 O 2101.38 1.08862 -1.46476 0
M  V30 21226 C 2101.43 -2.05863 -2.97158 0
M  V30 21227 O 2101.15 -3.43137 -2.72375 0
M  V30 21228 C 2102.65 -2.07791 -3.91584 0
M  V30 21229 H 2099.87 -0.441872 -0.504966 0
M  V30 21230 H 2102.42 -1.76036 -1.04075 0
M  V30 21231 H 2100.57 -1.61799 -3.51994 0
M  V30 21232 H 2100.99 -3.83078 -3.58262 0
M  V30 21233 H 2102.46 -2.66511 -4.834 0
M  V30 21234 H 2102.94 -1.06897 -4.25993 0
M  V30 21235 H 2103.54 -2.51888 -3.42684 0
M  V30 21236 N 2101.86 1.05436 -1.17136 0
M  V30 21237 C 2103.09 1.8181 -0.981263 0
M  V30 21238 C 2103.5 1.83173 0.473739 0
M  V30 21239 O 2102.84 1.25581 1.34071 0
M  V30 21240 C 2102.9 3.29286 -1.44261 0
M  V30 21241 C 2102.57 3.5161 -2.91924 0
M  V30 21242 C 2103.56 3.43938 -3.89875 0
M  V30 21243 C 2101.25 3.78652 -3.30043 0
M  V30 21244 C 2103.24 3.6299 -5.23944 0
M  V30 21245 C 2100.93 3.97352 -4.64278 0
M  V30 21246 C 2101.93 3.8952 -5.61038 0
M  V30 21247 O 2101.61 4.07702 -6.92845 0
M  V30 21248 H 2101.35 0.57984 -0.347507 0
M  V30 21249 H 2103.9 1.33868 -1.55784 0
M  V30 21250 H 2102.13 3.78131 -0.80958 0
M  V30 21251 H 2103.82 3.87177 -1.21857 0
M  V30 21252 H 2104.59 3.23027 -3.61772 0
M  V30 21253 H 2100.46 3.83853 -2.553 0
M  V30 21254 H 2104.01 3.56793 -5.99454 0
M  V30 21255 H 2099.91 4.17755 -4.92088 0
M  V30 21256 H 2100.67 4.24941 -6.99548 0
M  V30 21257 N 2103.34 0.971211 1.24118 0
M  V30 21258 C 2104.58 0.635963 1.9257 0
M  V30 21259 C 2104.92 -0.827222 1.75701 0
M  V30 21260 O 2104.19 -1.59559 1.11226 0
M  V30 21261 C 2104.47 1.01581 3.45476 0
M  V30 21262 C 2104.33 2.53595 3.71497 0
M  V30 21263 C 2105.65 0.552941 4.36613 0
M  V30 21264 H 2102.76 0.232516 0.699361 0
M  V30 21265 H 2105.41 1.21085 1.46419 0
M  V30 21266 H 2103.56 0.526628 3.84914 0
M  V30 21267 H 2105.23 3.10016 3.41596 0
M  V30 21268 H 2103.47 2.96637 3.16526 0
M  V30 21269 H 2104.14 2.75222 4.78494 0
M  V30 21270 H 2106.62 0.972795 4.04569 0
M  V30 21271 H 2105.49 0.847244 5.42322 0
M  V30 21272 H 2105.76 -0.54692 4.38704 0
M  V30 21273 N 2104.81 -1.39054 0.741747 0
M  V30 21274 C 2106.05 -2.02225 0.297424 0
M  V30 21275 C 2106.42 -1.57595 -1.09671 0
M  V30 21276 O 2107.62 -2.13012 -1.63949 0
M  V30 21277 C 2105.89 -3.55119 0.403106 0
M  V30 21278 S 2107.45 -4.38782 0.0396187 0
M  V30 21279 H 2104.27 -0.701457 0.116102 0
M  V30 21280 H 2106.87 -1.69753 0.969753 0
M  V30 21281 H 2105.57 -3.85091 1.41892 0
M  V30 21282 H 2105.1 -3.92353 -0.286813 0
M  V30 21283 H 2107.12 -4.82099 -1.17452 0
M  V30 21284 N 2106.29 -0.489897 -1.49792 0
M  V30 21285 C 2107.52 0.0556798 -2.06825 0
M  V30 21286 C 2107.94 1.31825 -1.35158 0
M  V30 21287 O 2107.29 1.77446 -0.426503 0
M  V30 21288 C 2107.34 0.324604 -3.6004 0
M  V30 21289 O 2107.06 -0.887904 -4.29008 0
M  V30 21290 C 2108.57 0.91506 -4.33753 0
M  V30 21291 H 2105.79 -0.0154889 -0.670821 0
M  V30 21292 H 2108.33 -0.684073 -1.92719 0
M  V30 21293 H 2106.48 1.01432 -3.73885 0
M  V30 21294 H 2106.9 -0.643954 -5.20532 0
M  V30 21295 H 2108.37 1.05288 -5.41866 0
M  V30 21296 H 2108.85 1.91003 -3.95493 0
M  V30 21297 H 2109.46 0.263155 -4.24485 0
M  V30 21298 N 2107.77 1.56011 -0.223262 0
M  V30 21299 C 2108.73 2.19108 0.672641 0
M  V30 21300 C 2109.73 1.15344 1.12038 0
M  V30 21301 O 2110.92 1.40567 1.0289 0
M  V30 21302 C 2108.06 2.81576 1.92165 0
M  V30 21303 H 2109.25 2.9965 0.1225 0
M  V30 21304 H 2106.8 1.56278 0.0263484 0
M  V30 21305 H 2107.54 2.04909 2.51362 0
M  V30 21306 H 2107.32 3.57564 1.60906 0
M  V30 21307 H 2108.81 3.29937 2.55991 0
M  V30 21308 N 2109.25 -0.0501116 1.5752 0
M  V30 21309 C 2110.18 -1.08434 2.01928 0
M  V30 21310 C 2111.19 -1.33718 0.928613 0
M  V30 21311 O 2112.38 -1.31576 1.20623 0
M  V30 21312 C 2109.48 -2.43065 2.36162 0
M  V30 21313 C 2108.66 -2.37433 3.67347 0
M  V30 21314 C 2107.71 -3.54345 3.89007 0
M  V30 21315 O 2106.74 -3.3479 4.60331 0
M  V30 21316 N 2107.94 -4.75475 3.33022 0
M  V30 21317 H 2110.71 -0.705995 2.91266 0
M  V30 21318 H 2108.27 -0.238421 1.60135 0
M  V30 21319 H 2110.26 -3.19959 2.47807 0
M  V30 21320 H 2108.83 -2.72821 1.52603 0
M  V30 21321 H 2108.05 -1.45778 3.66254 0
M  V30 21322 H 2109.34 -2.30792 4.53445 0
M  V30 21323 H 2108.74 -4.94264 2.75171 0
M  V30 21324 H 2107.29 -5.49806 3.50081 0
M  V30 21325 N 2110.73 -1.54276 -0.321972 0
M  V30 21326 C 2111.67 -1.84499 -1.41644 0
M  V30 21327 C 2112.67 -0.717018 -1.53477 0
M  V30 21328 O 2113.87 -0.900704 -1.55844 0
M  V30 21329 H 2110.25 -0.584855 -0.472704 0
M  V30 21330 H 2112.22 -2.76022 -1.13378 0
M  V30 21331 C 2110.97 -2.09051 -2.77836 0
M  V30 21332 H 2110.29 -2.95308 -2.69505 0
M  V30 21333 H 2111.73 -2.3415 -3.53482 0
M  V30 21334 C 2110.19 -0.882537 -3.25135 0
M  V30 21335 O 2110.72 -0.0925862 -4.01593 0
M  V30 21336 N 2108.93 -0.693729 -2.82198 0
M  V30 21337 H 2108.47 -1.33776 -2.2014 0
M  V30 21338 H 2108.43 0.113 -3.14197 0
M  V30 21339 N 2112.2 0.584116 -1.46376 0
M  V30 21340 C 2113.13 1.70354 -1.59693 0
M  V30 21341 C 2114.12 1.64113 -0.447325 0
M  V30 21342 O 2115.3 1.82151 -0.673394 0
M  V30 21343 C 2112.43 3.08993 -1.58558 0
M  V30 21344 C 2111.38 3.30064 -2.72473 0
M  V30 21345 C 2110.71 4.69216 -2.56399 0
M  V30 21346 C 2112.01 3.18035 -4.14308 0
M  V30 21347 H 2113.7 1.59465 -2.53399 0
M  V30 21348 H 2111.25 0.765749 -1.21952 0
M  V30 21349 H 2113.2 3.87126 -1.66468 0
M  V30 21350 H 2111.93 3.20778 -0.613949 0
M  V30 21351 H 2110.59 2.5433 -2.64029 0
M  V30 21352 H 2110.23 4.77764 -1.57323 0
M  V30 21353 H 2109.93 4.84267 -3.32805 0
M  V30 21354 H 2111.46 5.49519 -2.66198 0
M  V30 21355 H 2112.87 3.86014 -4.2387 0
M  V30 21356 H 2111.27 3.44608 -4.91289 0
M  V30 21357 H 2112.34 2.15135 -4.34563 0
M  V30 21358 N 2113.68 1.34058 0.828631 0
M  V30 21359 C 2114.61 1.278 1.95421 0
M  V30 21360 C 2115.59 0.156548 1.69378 0
M  V30 21361 O 2116.78 0.347987 1.91057 0
M  V30 21362 C 2113.91 1.02688 3.31772 0
M  V30 21363 C 2112.86 2.11238 3.7224 0
M  V30 21364 C 2112.19 1.71324 5.0651 0
M  V30 21365 C 2113.49 3.53014 3.84939 0
M  V30 21366 H 2115.18 2.21977 2.00914 0
M  V30 21367 H 2112.73 1.06859 0.965253 0
M  V30 21368 H 2114.68 0.969571 4.10094 0
M  V30 21369 H 2113.41 0.0495214 3.26562 0
M  V30 21370 H 2112.07 2.16029 2.96188 0
M  V30 21371 H 2111.71 0.722632 4.97782 0
M  V30 21372 H 2111.41 2.43972 5.34557 0
M  V30 21373 H 2112.94 1.67077 5.87297 0
M  V30 21374 H 2114.35 3.50667 4.53547 0
M  V30 21375 H 2112.75 4.24235 4.24434 0
M  V30 21376 H 2113.82 3.90772 2.87098 0
M  V30 21377 N 2115.16 -1.04814 1.17694 0
M  V30 21378 C 2116.41 -1.77532 0.96576 0
M  V30 21379 C 2116.73 -1.88306 -0.506545 0
M  V30 21380 O 2116 -1.40259 -1.36763 0
M  V30 21381 H 2114.58 -0.657613 0.354336 0
M  V30 21382 H 2117.24 -1.26536 1.48239 0
M  V30 21383 H 2116.34 -2.79071 1.39735 0
M  V30 21384 N 2116.64 -0.977779 -1.23601 0
M  V30 21385 C 2117.86 -0.662789 -1.96524 0
M  V30 21386 C 2118.29 0.763086 -1.71926 0
M  V30 21387 O 2117.65 1.51941 -0.989123 0
M  V30 21388 C 2117.7 -0.95584 -3.47701 0
M  V30 21389 O 2116.8 -0.046501 -4.12374 0
M  V30 21390 H 2116.14 -0.249541 -0.615325 0
M  V30 21391 H 2118.67 -1.31066 -1.57108 0
M  V30 21392 H 2118.68 -0.891475 -3.98142 0
M  V30 21393 H 2117.36 -1.99494 -3.64932 0
M  V30 21394 H 2115.93 -0.165051 -3.72535 0
M  V30 21395 N 2118.12 1.38658 -0.749111 0
M  V30 21396 C 2119.37 1.99455 -0.300085 0
M  V30 21397 C 2119.68 1.60136 1.1232 0
M  V30 21398 O 2120.89 2.13871 1.67247 0
M  V30 21399 C 2119.34 3.56609 -0.485575 0
M  V30 21400 C 2118.95 4.04883 -1.91766 0
M  V30 21401 C 2120.69 4.24384 -0.0990364 0
M  V30 21402 C 2118.6 5.54661 -2.05195 0
M  V30 21403 H 2117.53 0.74616 -0.108449 0
M  V30 21404 H 2120.18 1.5848 -0.925012 0
M  V30 21405 H 2118.56 3.95451 0.208468 0
M  V30 21406 H 2119.74 3.77342 -2.6448 0
M  V30 21407 H 2118.05 3.49817 -2.2587 0
M  V30 21408 H 2120.65 5.34403 -0.178195 0
M  V30 21409 H 2120.99 4.05369 0.947724 0
M  V30 21410 H 2121.53 3.90766 -0.744765 0
M  V30 21411 H 2118.26 5.78575 -3.08109 0
M  V30 21412 H 2117.78 5.8396 -1.36935 0
M  V30 21413 H 2119.46 6.20291 -1.83977 0
M  V30 21414 N 2119.6 0.497834 1.49531 0
M  V30 21415 C 2120.82 -0.0468921 2.07347 0
M  V30 21416 C 2121.25 -1.30349 1.35612 0
M  V30 21417 O 2120.6 -1.76559 0.411884 0
M  V30 21418 C 2120.65 -0.286776 3.59458 0
M  V30 21419 O 2119.76 -1.36212 3.89256 0
M  V30 21420 H 2119.1 0.0248202 0.663536 0
M  V30 21421 H 2121.63 0.696547 1.92378 0
M  V30 21422 H 2121.64 -0.519243 4.04682 0
M  V30 21423 H 2120.31 0.631334 4.1108 0
M  V30 21424 H 2118.89 -1.11485 3.55845 0
M  V30 21425 N 2121.07 -1.5589 0.231532 0
M  V30 21426 C 2122.3 -2.02956 -0.40203 0
M  V30 21427 C 2122.72 -1.11115 -1.5264 0
M  V30 21428 O 2122.07 -0.122623 -1.82088 0
M  V30 21429 C 2122.12 -3.49484 -0.924297 0
M  V30 21430 O 2121.85 -4.37825 0.155252 0
M  V30 21431 C 2123.35 -4.12241 -1.6301 0
M  V30 21432 H 2120.57 -0.663905 -0.097323 0
M  V30 21433 H 2123.11 -2.01467 0.350905 0
M  V30 21434 H 2121.27 -3.51557 -1.62747 0
M  V30 21435 H 2121.68 -5.23956 -0.238854 0
M  V30 21436 H 2123.15 -5.16507 -1.94742 0
M  V30 21437 H 2123.63 -3.57824 -2.54674 0
M  V30 21438 H 2124.24 -4.14046 -0.971887 0
M  V30 21439 N 2122.55 0.0417572 -1.57545 0
M  V30 21440 C 2123.8 0.734075 -1.87868 0
M  V30 21441 C 2124.11 1.77194 -0.828352 0
M  V30 21442 O 2125.32 2.51595 -1.02039 0
M  V30 21443 C 2123.78 1.35664 -3.33352 0
M  V30 21444 C 2123.38 0.355779 -4.46585 0
M  V30 21445 C 2125.13 2.02957 -3.72839 0
M  V30 21446 C 2123.03 0.985962 -5.83123 0
M  V30 21447 H 2121.96 0.277922 -0.70091 0
M  V30 21448 H 2124.62 -0.0119297 -1.83496 0
M  V30 21449 H 2123 2.15192 -3.32428 0
M  V30 21450 H 2124.17 -0.411871 -4.58956 0
M  V30 21451 H 2122.49 -0.214356 -4.15848 0
M  V30 21452 H 2125.08 2.50935 -4.72161 0
M  V30 21453 H 2125.43 2.84222 -3.04176 0
M  V30 21454 H 2125.96 1.3022 -3.75882 0
M  V30 21455 H 2122.7 0.212992 -6.55154 0
M  V30 21456 H 2122.22 1.72375 -5.74497 0
M  V30 21457 H 2123.9 1.49705 -6.29442 0
M  V30 21458 N 2124.03 1.54445 0.313786 0
M  V30 21459 C 2125.28 1.72775 1.04849 0
M  V30 21460 C 2125.6 0.509507 1.88226 0
M  V30 21461 O 2124.87 -0.476396 1.90019 0
M  V30 21462 H 2123.45 0.637053 0.390092 0
M  V30 21463 H 2126.11 1.91771 0.347859 0
M  V30 21464 H 2125.21 2.61155 1.70893 0
M  V30 21465 N 2125.51 -0.576345 1.46683 0
M  V30 21466 C 2126.92 -0.900361 1.31779 0
M  V30 21467 C 2127.12 -1.99344 0.293964 0
M  V30 21468 O 2126.18 -2.50697 -0.301245 0
M  V30 21469 C 2127.49 -1.31169 2.70583 0
M  V30 21470 C 2129.04 -1.42419 2.78722 0
M  V30 21471 C 2129.52 -1.86916 4.18123 0
M  V30 21472 N 2131.01 -1.94099 4.20571 0
M  V30 21473 C 2131.74 -2.29817 5.2533 0
M  V30 21474 N 2131.24 -2.64282 6.40411 0
M  V30 21475 N 2133.03 -2.30426 5.12699 0
M  V30 21476 H 2125.18 0.145622 2.119 0
M  V30 21477 H 2127.44 0.00247797 0.947997 0
M  V30 21478 H 2127.15 -0.582484 3.46843 0
M  V30 21479 H 2127.02 -2.2719 3.01106 0
M  V30 21480 H 2129.41 -2.14425 2.02746 0
M  V30 21481 H 2129.49 -0.446341 2.51876 0
M  V30 21482 H 2129.14 -1.15486 4.94596 0
M  V30 21483 H 2129.07 -2.8567 4.4238 0
M  V30 21484 H 2131.56 -1.69927 3.3754 0
M  V30 21485 H 2131.87 -2.90509 7.16118 0
M  V30 21486 H 2130.22 -2.61906 6.43762 0
M  V30 21487 H 2133.41 -2.02927 4.21827 0
M  V30 21488 H 2133.58 -2.57934 5.94453 0
M  V30 21489 N 2126.99 -1.34495 -0.82151 0
M  V30 21490 C 2127.92 -1.28835 -1.94741 0
M  V30 21491 C 2128.9 -0.165528 -1.69293 0
M  V30 21492 O 2130.08 -0.358115 -1.9087 0
M  V30 21493 C 2127.21 -1.04446 -3.31222 0
M  V30 21494 C 2126.17 -2.13209 -3.71114 0
M  V30 21495 C 2125.49 -1.74007 -5.05594 0
M  V30 21496 C 2126.79 -3.55051 -3.83062 0
M  V30 21497 H 2128.49 -2.23039 -1.99734 0
M  V30 21498 H 2126.03 -1.07369 -0.959573 0
M  V30 21499 H 2127.98 -0.991306 -4.09574 0
M  V30 21500 H 2126.71 -0.0668391 -3.26532 0
M  V30 21501 H 2125.37 -2.17597 -2.95038 0
M  V30 21502 H 2125.02 -0.749021 -4.97392 0
M  V30 21503 H 2124.72 -2.46803 -5.33256 0
M  V30 21504 H 2126.24 -1.7019 -5.86402 0
M  V30 21505 H 2127.65 -3.53068 -4.51681 0
M  V30 21506 H 2126.05 -4.2648 -4.22179 0
M  V30 21507 H 2127.12 -3.92289 -2.85021 0
M  V30 21508 N 2128.46 1.04188 -1.18248 0
M  V30 21509 C 2129.4 2.12204 -0.866138 0
M  V30 21510 C 2130.41 1.62233 0.135743 0
M  V30 21511 O 2131.6 1.78263 -0.0919276 0
M  V30 21512 C 2128.7 3.37802 -0.272597 0
M  V30 21513 C 2127.87 4.17012 -1.31983 0
M  V30 21514 C 2126.93 5.20939 -0.74221 0
M  V30 21515 O 2125.96 5.5129 -1.41662 0
M  V30 21516 N 2127.16 5.78668 0.460879 0
M  V30 21517 H 2129.92 2.39936 -1.79585 0
M  V30 21518 H 2127.48 1.20371 -1.0827 0
M  V30 21519 H 2129.48 4.045 0.127367 0
M  V30 21520 H 2128.05 3.07523 0.561114 0
M  V30 21521 H 2127.27 3.45655 -1.89516 0
M  V30 21522 H 2128.55 4.66728 -2.0259 0
M  V30 21523 H 2127.95 5.56308 1.02655 0
M  V30 21524 H 2126.51 6.46837 0.80278 0
M  V30 21525 N 2129.94 0.98432 1.23081 0
M  V30 21526 C 2131.19 0.656352 1.91885 0
M  V30 21527 C 2131.52 -0.808541 1.76568 0
M  V30 21528 O 2130.8 -1.5837 1.12912 0
M  V30 21529 C 2131.08 1.05239 3.44379 0
M  V30 21530 C 2130.93 2.57521 3.68786 0
M  V30 21531 C 2132.25 0.599218 4.36002 0
M  V30 21532 H 2129.37 0.23992 0.696855 0
M  V30 21533 H 2132.01 1.22631 1.45127 0
M  V30 21534 H 2130.16 0.567423 3.84334 0
M  V30 21535 H 2131.83 3.13622 3.38288 0
M  V30 21536 H 2130.08 2.99978 3.13362 0
M  V30 21537 H 2130.75 2.80282 4.75548 0
M  V30 21538 H 2133.22 1.01565 4.03514 0
M  V30 21539 H 2132.1 0.904717 5.41393 0
M  V30 21540 H 2132.36 -0.500359 4.39259 0
M  V30 21541 N 2131.42 -1.38259 0.756453 0
M  V30 21542 C 2132.33 -2.34224 0.132796 0
M  V30 21543 C 2133.35 -1.59415 -0.697351 0
M  V30 21544 O 2134.52 -1.91592 -0.620838 0
M  V30 21545 C 2131.59 -3.38542 -0.747682 0
M  V30 21546 C 2130.65 -4.2919 0.097166 0
M  V30 21547 C 2129.88 -5.28526 -0.741383 0
M  V30 21548 O 2130.1 -5.34959 -1.97926 0
M  V30 21549 O 2129.04 -6.01691 -0.158669 0
M  V30 21550 H 2132.86 -2.89257 0.925409 0
M  V30 21551 H 2130.45 -1.40155 0.517388 0
M  V30 21552 H 2132.33 -4.02409 -1.25081 0
M  V30 21553 H 2131.01 -2.8586 -1.51874 0
M  V30 21554 H 2129.91 -3.68475 0.646311 0
M  V30 21555 H 2131.25 -4.85135 0.830947 0
M  V30 21556 N 2132.9 -0.505757 -1.49264 0
M  V30 21557 C 2134.15 0.0369987 -2.02066 0
M  V30 21558 C 2134.47 1.37044 -1.38723 0
M  V30 21559 O 2133.74 1.8819 -0.544182 0
M  V30 21560 H 2132.32 0.0166628 -0.746814 0
M  V30 21561 H 2134.98 -0.66408 -1.83238 0
M  V30 21562 H 2134.08 0.163179 -3.11673 0
M  V30 21563 N 2134.38 1.55765 -0.239796 0
M  V30 21564 C 2135.34 2.19809 0.649364 0
M  V30 21565 C 2136.34 1.16526 1.10808 0
M  V30 21566 O 2137.53 1.41651 1.01394 0
M  V30 21567 C 2134.66 2.83599 1.89168 0
M  V30 21568 H 2135.85 2.99763 0.0907114 0
M  V30 21569 H 2133.41 1.56297 0.00977153 0
M  V30 21570 H 2134.14 2.07564 2.49174 0
M  V30 21571 H 2133.93 3.5925 1.57104 0
M  V30 21572 H 2135.42 3.32634 2.52477 0
M  V30 21573 N 2135.85 -0.0334016 1.57565 0
M  V30 21574 C 2137.27 -0.388971 1.54788 0
M  V30 21575 C 2137.47 -1.76871 0.965337 0
M  V30 21576 O 2136.53 -2.45642 0.584492 0
M  V30 21577 C 2137.84 -0.2948 2.99251 0
M  V30 21578 C 2139.39 -0.372199 3.10779 0
M  V30 21579 C 2139.86 -0.307524 4.56966 0
M  V30 21580 N 2141.35 -0.36645 4.61748 0
M  V30 21581 C 2142.09 -0.339229 5.72396 0
M  V30 21582 N 2141.58 -0.264554 6.92295 0
M  V30 21583 N 2143.38 -0.388638 5.60755 0
M  V30 21584 H 2135.53 0.869581 1.93783 0
M  V30 21585 H 2137.79 0.330231 0.888623 0
M  V30 21586 H 2137.5 0.653177 3.45581 0
M  V30 21587 H 2137.37 -1.09016 3.61103 0
M  V30 21588 H 2139.76 -1.31061 2.64399 0
M  V30 21589 H 2139.84 0.452431 2.51767 0
M  V30 21590 H 2139.48 0.627198 5.04013 0
M  V30 21591 H 2139.41 -1.1502 5.13885 0
M  V30 21592 H 2141.9 -0.426853 3.75482 0
M  V30 21593 H 2142.22 -0.248764 7.724 0
M  V30 21594 H 2140.56 -0.230666 6.94617 0
M  V30 21595 H 2143.75 -0.444937 4.65981 0
M  V30 21596 H 2143.93 -0.363955 6.46977 0
M  V30 21597 N 2137.33 -1.54609 -0.305591 0
M  V30 21598 C 2138.58 -1.73929 -1.04291 0
M  V30 21599 C 2138.91 -0.521093 -1.87078 0
M  V30 21600 O 2138.19 0.481847 -1.88437 0
M  V30 21601 C 2138.47 -3.02557 -1.95272 0
M  V30 21602 C 2138.32 -4.34666 -1.15695 0
M  V30 21603 C 2139.64 -3.27028 -2.94517 0
M  V30 21604 H 2136.76 -0.632835 -0.377741 0
M  V30 21605 H 2139.4 -1.87321 -0.317961 0
M  V30 21606 H 2137.55 -2.91271 -2.57087 0
M  V30 21607 H 2139.22 -4.57863 -0.562028 0
M  V30 21608 H 2137.47 -4.31359 -0.459568 0
M  V30 21609 H 2138.14 -5.20925 -1.82595 0
M  V30 21610 H 2140.61 -3.37894 -2.42831 0
M  V30 21611 H 2139.49 -4.18355 -3.55346 0
M  V30 21612 H 2139.75 -2.45106 -3.67934 0
M  V30 21613 N 2138.81 0.568558 -1.46987 0
M  V30 21614 C 2140.06 1.32819 -1.53255 0
M  V30 21615 C 2140.39 1.93274 -0.189458 0
M  V30 21616 O 2139.66 1.77254 0.800699 0
M  V30 21617 C 2139.95 2.44688 -2.64196 0
M  V30 21618 C 2139.8 1.89176 -4.08084 0
M  V30 21619 C 2141.12 3.46671 -2.71122 0
M  V30 21620 H 2138.24 0.481565 -0.557911 0
M  V30 21621 H 2140.88 0.637355 -1.78991 0
M  V30 21622 H 2139.03 3.03617 -2.42382 0
M  V30 21623 H 2140.7 1.34596 -4.41227 0
M  V30 21624 H 2138.95 1.19918 -4.16896 0
M  V30 21625 H 2139.62 2.69995 -4.81463 0
M  V30 21626 H 2142.09 2.97645 -2.90769 0
M  V30 21627 H 2140.97 4.22387 -3.50543 0
M  V30 21628 H 2141.23 4.04802 -1.7773 0
M  V30 21629 N 2140.29 1.34929 0.814366 0
M  V30 21630 C 2141.25 1.27093 1.90736 0
M  V30 21631 C 2142.25 0.184145 1.59742 0
M  V30 21632 O 2143.44 0.437337 1.68621 0
M  V30 21633 C 2140.57 0.964254 3.26979 0
M  V30 21634 H 2141.77 2.24271 1.99105 0
M  V30 21635 H 2139.32 1.19341 1.00933 0
M  V30 21636 H 2140.05 -0.0039895 3.243 0
M  V30 21637 H 2139.84 1.75045 3.50859 0
M  V30 21638 H 2141.33 0.934826 4.07002 0
M  V30 21639 N 2141.77 -1.0356 1.18799 0
M  V30 21640 C 2142.68 -2.15173 0.934763 0
M  V30 21641 C 2143.69 -1.73695 -0.102902 0
M  V30 21642 O 2144.87 -2.0124 0.0801886 0
M  V30 21643 C 2141.93 -3.43507 0.469463 0
M  V30 21644 C 2140.99 -3.99337 1.57571 0
M  V30 21645 C 2140.23 -5.21546 1.13251 0
M  V30 21646 O 2140.45 -5.704 -0.0066957 0
M  V30 21647 O 2139.38 -5.70039 1.93233 0
M  V30 21648 H 2143.21 -2.39393 1.86881 0
M  V30 21649 H 2140.8 -1.13608 0.970239 0
M  V30 21650 H 2142.68 -4.20834 0.218298 0
M  V30 21651 H 2141.35 -3.20747 -0.436226 0
M  V30 21652 H 2140.26 -3.23375 1.88095 0
M  V30 21653 H 2141.59 -4.26448 2.45771 0
M  V30 21654 N 2143.25 -0.990834 -1.22557 0
M  V30 21655 C 2144.66 -0.700966 -1.73042 0
M  V30 21656 C 2145.01 0.782283 -1.7993 0
M  V30 21657 O 2144.13 1.61158 -1.4442 0
M  V30 21658 C 2144.73 -1.26574 -3.14268 0
M  V30 21659 C 2143.29 -1.0253 -3.62167 0
M  V30 21660 C 2142.43 -1.38718 -2.4011 0
M  V30 21661 H 2145.38 -1.16344 -1.07934 0
M  V30 21662 H 2145.41 -0.643298 -3.75023 0
M  V30 21663 H 2144.92 -2.34527 -3.09222 0
M  V30 21664 H 2143.02 0.0376973 -3.72581 0
M  V30 21665 H 2143.13 -1.68722 -4.48408 0
M  V30 21666 H 2141.5 -0.805751 -2.41619 0
M  V30 21667 H 2142.28 -2.47671 -2.37727 0
M  V30 21668 N 2144.72 1.37856 -0.763775 0
M  V30 21669 C 2145.97 1.99488 -0.323855 0
M  V30 21670 C 2146.29 1.60934 1.10115 0
M  V30 21671 O 2145.56 0.870985 1.75473 0
M  V30 21672 H 2144.14 0.73782 -0.116753 0
M  V30 21673 H 2146.8 1.68462 -0.980132 0
M  V30 21674 H 2145.9 3.09589 -0.395113 0
M  V30 21675 N 2146.2 0.513665 1.48994 0
M  V30 21676 C 2147.13 -0.247058 2.32189 0
M  V30 21677 C 2148.11 -0.950613 1.41058 0
M  V30 21678 O 2149.3 -0.939562 1.69958 0
M  V30 21679 C 2146.43 -1.30433 3.21876 0
M  V30 21680 C 2145.38 -0.719902 4.21902 0
M  V30 21681 C 2144.71 -1.87863 5.00611 0
M  V30 21682 C 2146.01 0.297524 5.21452 0
M  V30 21683 H 2147.7 0.447403 2.96038 0
M  V30 21684 H 2145.25 0.216608 1.42362 0
M  V30 21685 H 2147.2 -1.84434 3.78896 0
M  V30 21686 H 2145.92 -2.02815 2.55995 0
M  V30 21687 H 2144.58 -0.201546 3.66046 0
M  V30 21688 H 2144.23 -2.59044 4.31167 0
M  V30 21689 H 2143.93 -1.49359 5.68301 0
M  V30 21690 H 2145.46 -2.42273 5.60478 0
M  V30 21691 H 2146.87 -0.1548 5.73091 0
M  V30 21692 H 2145.27 0.599071 5.97102 0
M  V30 21693 H 2146.34 1.20903 4.69585 0
M  V30 21694 N 2147.68 -1.55636 0.248053 0
M  V30 21695 C 2148.96 -1.90888 -0.426759 0
M  V30 21696 C 2149.34 -1.16894 -1.75781 0
M  V30 21697 O 2148.68 -0.286804 -2.26693 0
M  V30 21698 C 2148.89 -3.43913 -0.593709 0
M  V30 21699 C 2150.24 -4.15188 -0.889059 0
M  V30 21700 O 2151.27 -3.49658 -0.67953 0
M  V30 21701 O 2150.13 -5.31102 -1.28815 0
M  V30 21702 H 2147.22 -0.794576 -0.2293 0
M  V30 21703 H 2149.77 -1.67165 0.292205 0
M  V30 21704 H 2148.54 -3.89784 0.3441 0
M  V30 21705 H 2148.16 -3.73502 -1.36317 0
M  V30 21706 N 2149.16 0.0250451 -1.5758 0
M  V30 21707 C 2150.4 0.716105 -1.89736 0
M  V30 21708 C 2150.74 1.7479 -0.846284 0
M  V30 21709 O 2150.01 1.94009 0.138165 0
M  V30 21710 C 2150.29 1.38201 -3.32524 0
M  V30 21711 C 2150.15 0.363457 -4.48329 0
M  V30 21712 C 2151.47 2.31493 -3.74298 0
M  V30 21713 H 2148.59 0.258862 -0.690043 0
M  V30 21714 H 2151.23 -0.0211043 -1.89988 0
M  V30 21715 H 2149.38 2.01037 -3.3244 0
M  V30 21716 H 2151.05 -0.263295 -4.60548 0
M  V30 21717 H 2149.29 -0.316859 -4.32641 0
M  V30 21718 H 2149.96 0.867948 -5.45134 0
M  V30 21719 H 2152.44 1.78697 -3.75774 0
M  V30 21720 H 2151.32 2.75065 -4.75006 0
M  V30 21721 H 2151.58 3.1834 -3.06777 0
M  V30 21722 N 2150.64 1.54769 0.297388 0
M  V30 21723 C 2152.05 1.65183 0.87014 0
M  V30 21724 C 2152.4 0.562844 1.87953 0
M  V30 21725 O 2151.52 -0.299913 2.14312 0
M  V30 21726 C 2152.12 2.99437 1.58501 0
M  V30 21727 C 2150.68 3.1196 2.10612 0
M  V30 21728 C 2149.82 2.60882 0.94 0
M  V30 21729 H 2152.77 1.58526 0.0743014 0
M  V30 21730 H 2152.8 2.91063 2.45077 0
M  V30 21731 H 2152.31 3.78675 0.850115 0
M  V30 21732 H 2150.41 2.3745 2.87138 0
M  V30 21733 H 2150.52 4.1817 2.33817 0
M  V30 21734 H 2148.89 2.17426 1.32658 0
M  V30 21735 H 2149.67 3.42601 0.219 0
M  V30 21736 N 2152.11 -0.560755 1.47286 0
M  V30 21737 C 2153.02 -1.69558 1.62133 0
M  V30 21738 C 2154.04 -1.66533 0.50425 0
M  V30 21739 O 2155.22 -1.86045 0.771315 0
M  V30 21740 C 2152.28 -3.06065 1.62865 0
M  V30 21741 C 2151.34 -3.20185 2.85972 0
M  V30 21742 C 2150.57 -4.5018 2.8666 0
M  V30 21743 O 2150.8 -5.35423 1.96669 0
M  V30 21744 O 2149.73 -4.68015 3.78478 0
M  V30 21745 H 2153.56 -1.59976 2.5815 0
M  V30 21746 H 2151.14 -0.730353 1.30331 0
M  V30 21747 H 2153.02 -3.87307 1.66046 0
M  V30 21748 H 2151.7 -3.16037 0.700143 0
M  V30 21749 H 2150.61 -2.38353 2.88337 0
M  V30 21750 H 2151.94 -3.15114 3.78106 0
M  V30 21751 N 2153.59 -1.35359 -0.807199 0
M  V30 21752 C 2154.84 -1.28344 -1.56116 0
M  V30 21753 C 2155.16 0.142081 -1.94482 0
M  V30 21754 O 2154.43 1.07837 -1.63548 0
M  V30 21755 H 2153.01 -0.47207 -0.578929 0
M  V30 21756 H 2155.67 -1.69454 -0.962872 0
M  V30 21757 H 2154.77 -1.89889 -2.47686 0
M  V30 21758 N 2155.07 1.02928 -1.19346 0
M  V30 21759 C 2156.03 2.09361 -0.932765 0
M  V30 21760 C 2157.03 1.60567 0.086582 0
M  V30 21761 O 2158.22 1.73569 -0.148116 0
M  V30 21762 C 2155.35 3.38524 -0.401767 0
M  V30 21763 H 2156.55 2.33922 -1.87671 0
M  V30 21764 H 2154.1 1.19532 -1.00707 0
M  V30 21765 H 2154.84 3.19632 0.548245 0
M  V30 21766 H 2154.62 3.75261 -1.13672 0
M  V30 21767 H 2156.11 4.16919 -0.238443 0
M  V30 21768 N 2156.55 0.997319 1.2203 0
M  V30 21769 C 2157.51 0.556352 2.22345 0
M  V30 21770 C 2158.51 -0.363165 1.56645 0
M  V30 21771 O 2159.7 -0.154511 1.73513 0
M  V30 21772 C 2156.83 -0.190172 3.40369 0
M  V30 21773 H 2158.03 1.44355 2.62872 0
M  V30 21774 H 2155.58 0.784999 1.35157 0
M  V30 21775 H 2156.31 -1.09315 3.05321 0
M  V30 21776 H 2156.1 0.470115 3.89272 0
M  V30 21777 H 2157.59 -0.486708 4.14754 0
M  V30 21778 N 2158.03 -1.37449 0.771075 0
M  V30 21779 C 2158.96 -2.32874 0.170867 0
M  V30 21780 C 2159.94 -1.55746 -0.683892 0
M  V30 21781 O 2161.12 -1.83987 -0.621492 0
M  V30 21782 C 2158.25 -3.39974 -0.709566 0
M  V30 21783 C 2157.21 -4.27978 0.0438353 0
M  V30 21784 C 2156.53 -5.26084 -0.955998 0
M  V30 21785 C 2157.83 -5.07793 1.22245 0
M  V30 21786 H 2159.53 -2.83319 0.968038 0
M  V30 21787 H 2157.07 -1.36219 0.466952 0
M  V30 21788 H 2159.03 -4.05708 -1.13926 0
M  V30 21789 H 2157.75 -2.88053 -1.53925 0
M  V30 21790 H 2156.41 -3.63774 0.454301 0
M  V30 21791 H 2156.06 -4.70444 -1.78021 0
M  V30 21792 H 2155.76 -5.85824 -0.456445 0
M  V30 21793 H 2157.28 -5.94693 -1.38465 0
M  V30 21794 H 2158.69 -5.66669 0.869436 0
M  V30 21795 H 2157.09 -5.76855 1.65404 0
M  V30 21796 H 2158.16 -4.40506 2.02688 0
M  V30 21797 N 2159.5 -0.52156 -1.4872 0
M  V30 21798 C 2160.45 0.259278 -2.3115 0
M  V30 21799 C 2161.45 0.943463 -1.40695 0
M  V30 21800 O 2162.65 0.868807 -1.57644 0
M  V30 21801 H 2159.03 0.10248 -0.744984 0
M  V30 21802 H 2161 -0.455653 -2.94901 0
M  V30 21803 C 2159.75 1.29841 -3.22547 0
M  V30 21804 H 2159.07 0.781352 -3.9209 0
M  V30 21805 H 2160.51 1.81634 -3.83125 0
M  V30 21806 C 2158.97 2.32757 -2.43569 0
M  V30 21807 O 2159.5 3.39036 -2.15448 0
M  V30 21808 N 2157.71 2.05753 -2.05217 0
M  V30 21809 H 2157.25 1.19343 -2.28287 0
M  V30 21810 H 2157.21 2.74836 -1.52685 0
M  V30 21811 N 2160.98 1.55502 -0.256304 0
M  V30 21812 C 2161.91 2.24749 0.633265 0
M  V30 21813 C 2162.89 1.23102 1.17388 0
M  V30 21814 O 2164.08 1.51778 1.2115 0
M  V30 21815 C 2161.21 2.95418 1.82607 0
M  V30 21816 C 2160.16 4.03834 1.41782 0
M  V30 21817 C 2159.49 4.61978 2.69222 0
M  V30 21818 C 2160.79 5.19048 0.581913 0
M  V30 21819 H 2162.48 2.99348 0.0558207 0
M  V30 21820 H 2160.03 1.43978 0.0254079 0
M  V30 21821 H 2161.98 3.42565 2.45412 0
M  V30 21822 H 2160.71 2.18323 2.42905 0
M  V30 21823 H 2159.36 3.5747 0.813066 0
M  V30 21824 H 2159.01 3.81572 3.27737 0
M  V30 21825 H 2158.71 5.3517 2.42625 0
M  V30 21826 H 2160.24 5.11864 3.32908 0
M  V30 21827 H 2161.65 5.62363 1.11449 0
M  V30 21828 H 2160.05 5.98687 0.411617 0
M  V30 21829 H 2161.12 4.83216 -0.403719 0
M  V30 21830 N 2162.46 -0.0166879 1.57591 0
M  V30 21831 C 2163.69 -0.720103 1.94497 0
M  V30 21832 C 2164.11 -1.6743 0.857254 0
M  V30 21833 O 2163.47 -1.80343 -0.186035 0
M  V30 21834 C 2163.52 -1.44264 3.30485 0
M  V30 21835 O 2162.62 -2.55638 3.23609 0
M  V30 21836 H 2161.96 -0.19279 0.635396 0
M  V30 21837 H 2164.49 0.0315297 2.04576 0
M  V30 21838 H 2164.5 -1.80981 3.65664 0
M  V30 21839 H 2163.18 -0.742902 4.09211 0
M  V30 21840 H 2161.75 -2.21373 3.00081 0
M  V30 21841 N 2163.94 -1.54924 -0.289176 0
M  V30 21842 C 2165.18 -1.76509 -1.03072 0
M  V30 21843 C 2165.54 -0.545833 -1.84078 0
M  V30 21844 O 2166.74 -0.639633 -2.61079 0
M  V30 21845 C 2165.01 -3.02518 -1.9031 0
M  V30 21846 S 2166.57 -3.45155 -2.70949 0
M  V30 21847 H 2163.39 -0.620336 -0.347424 0
M  V30 21848 H 2165.99 -1.9314 -0.302842 0
M  V30 21849 H 2164.7 -3.89368 -1.29695 0
M  V30 21850 H 2164.23 -2.88507 -2.67446 0
M  V30 21851 H 2166.24 -3.03155 -3.92825 0
M  V30 21852 N 2165.42 0.552936 -1.47582 0
M  V30 21853 C 2166.83 0.879282 -1.33195 0
M  V30 21854 C 2167.03 1.98851 -0.32564 0
M  V30 21855 O 2166.09 2.51144 0.261323 0
M  V30 21856 C 2167.4 1.26848 -2.72635 0
M  V30 21857 C 2168.95 1.37967 -2.80952 0
M  V30 21858 C 2169.42 1.8024 -4.21043 0
M  V30 21859 N 2170.92 1.87383 -4.23606 0
M  V30 21860 C 2171.65 2.2143 -5.2892 0
M  V30 21861 N 2171.15 2.54061 -6.44535 0
M  V30 21862 N 2172.94 2.2224 -5.163 0
M  V30 21863 H 2165.09 -0.179315 -2.11642 0
M  V30 21864 H 2167.35 -0.0175595 -0.947837 0
M  V30 21865 H 2167.06 0.52723 -3.47726 0
M  V30 21866 H 2166.93 2.22371 -3.04682 0
M  V30 21867 H 2169.32 2.11172 -2.06132 0
M  V30 21868 H 2169.4 0.406213 -2.52554 0
M  V30 21869 H 2169.05 1.07603 -4.96371 0
M  V30 21870 H 2168.98 2.78596 -4.46869 0
M  V30 21871 H 2171.47 1.64536 -3.40201 0
M  V30 21872 H 2171.78 2.79079 -7.20649 0
M  V30 21873 H 2170.12 2.51631 -6.47848 0
M  V30 21874 H 2173.32 1.9619 -4.25002 0
M  V30 21875 H 2173.49 2.48444 -5.98481 0
M  V30 21876 N 2166.89 1.35785 0.800009 0
M  V30 21877 C 2167.82 1.31917 1.92666 0
M  V30 21878 C 2168.81 0.19244 1.69008 0
M  V30 21879 O 2169.99 0.388435 1.90276 0
M  V30 21880 C 2167.12 1.09703 3.29519 0
M  V30 21881 C 2166.07 2.19086 3.67675 0
M  V30 21882 C 2165.4 1.82029 5.02762 0
M  V30 21883 C 2166.7 3.611 3.77365 0
M  V30 21884 H 2168.39 2.26189 1.96161 0
M  V30 21885 H 2165.94 1.08882 0.94237 0
M  V30 21886 H 2167.89 1.05634 4.07945 0
M  V30 21887 H 2166.62 0.118779 3.26384 0
M  V30 21888 H 2165.28 2.22263 2.91539 0
M  V30 21889 H 2164.92 0.828056 4.96137 0
M  V30 21890 H 2164.62 2.55256 5.29262 0
M  V30 21891 H 2166.15 1.79497 5.83621 0
M  V30 21892 H 2167.56 3.60209 4.46007 0
M  V30 21893 H 2165.96 4.33143 4.1534 0
M  V30 21894 H 2167.03 3.96774 2.78744 0
M  V30 21895 N 2168.37 -1.02294 1.19891 0
M  V30 21896 C 2169.3 -2.12589 0.965816 0
M  V30 21897 C 2170.28 -1.69788 -0.102962 0
M  V30 21898 O 2171.47 -1.94127 0.0532676 0
M  V30 21899 C 2168.6 -3.43532 0.510181 0
M  V30 21900 C 2167.55 -4.00044 1.52147 0
M  V30 21901 C 2166.88 -5.26679 0.922703 0
M  V30 21902 C 2168.18 -4.34165 2.90341 0
M  V30 21903 H 2169.87 -2.32347 1.88826 0
M  V30 21904 H 2167.42 -1.11659 0.9093 0
M  V30 21905 H 2169.37 -4.20071 0.334377 0
M  V30 21906 H 2168.1 -3.23514 -0.447879 0
M  V30 21907 H 2166.75 -3.25606 1.68453 0
M  V30 21908 H 2166.4 -5.02982 -0.0430931 0
M  V30 21909 H 2166.1 -5.65452 1.59806 0
M  V30 21910 H 2167.63 -6.05879 0.757827 0
M  V30 21911 H 2169.04 -5.01617 2.77584 0
M  V30 21912 H 2167.44 -4.84036 3.54724 0
M  V30 21913 H 2168.51 -3.43207 3.42545 0
M  V30 21914 N 2169.85 -1.00378 -1.21499 0
M  V30 21915 C 2171.1 -0.684425 -1.90158 0
M  V30 21916 C 2171.42 0.787132 -1.78407 0
M  V30 21917 O 2170.69 1.5651 -1.17819 0
M  V30 21918 H 2169.27 -0.250163 -0.703866 0
M  V30 21919 H 2171.93 -1.27262 -1.47615 0
M  V30 21920 H 2171.03 -0.956513 -2.97081 0
M  V30 21921 N 2171.33 1.37038 -0.778354 0
M  V30 21922 C 2172.58 1.99134 -0.344995 0
M  V30 21923 C 2172.9 1.62093 1.08402 0
M  V30 21924 O 2172.17 0.889547 1.74539 0
M  V30 21925 H 2170.75 0.73654 -0.124572 0
M  V30 21926 H 2173.41 1.67413 -0.997945 0
M  V30 21927 H 2172.51 3.09152 -0.427927 0
M  V30 21928 N 2172.81 0.529439 1.48441 0
M  V30 21929 C 2174.22 0.0888387 1.86489 0
M  V30 21930 C 2174.57 -1.33364 1.43905 0
M  V30 21931 O 2173.69 -1.9987 0.829524 0
M  V30 21932 C 2174.29 0.154445 3.38448 0
M  V30 21933 C 2172.85 -0.230958 3.75691 0
M  V30 21934 C 2172 0.514449 2.72486 0
M  V30 21935 H 2174.95 0.740717 1.40353 0
M  V30 21936 H 2174.97 -0.63398 3.75181 0
M  V30 21937 H 2174.48 1.18985 3.69411 0
M  V30 21938 H 2172.58 -1.26853 3.50341 0
M  V30 21939 H 2172.69 0.108275 4.78978 0
M  V30 21940 H 2171.06 -0.039218 2.5467 0
M  V30 21941 H 2171.84 1.55048 3.06293 0
M  V30 21942 N 2174.29 -1.55364 0.264547 0
M  V30 21943 C 2175.53 -1.98966 -0.354543 0
M  V30 21944 C 2175.85 -1.15427 -1.57168 0
M  V30 21945 O 2175.12 -0.241233 -1.94409 0
M  V30 21946 H 2173.7 -0.734885 -0.133986 0
M  V30 21947 H 2176.37 -1.91405 0.367431 0
M  V30 21948 H 2175.46 -3.05221 -0.651647 0
M  V30 21949 N 2175.76 0.00833021 -1.57598 0
M  V30 21950 C 2177.17 0.552246 -1.78346 0
M  V30 21951 C 2177.53 1.74433 -0.898189 0
M  V30 21952 O 2176.65 2.16176 -0.098451 0
M  V30 21953 C 2177.25 1.00862 -3.23438 0
M  V30 21954 C 2175.8 1.4979 -3.45311 0
M  V30 21955 C 2174.95 0.445309 -2.73701 0
M  V30 21956 H 2177.9 -0.217862 -1.57197 0
M  V30 21957 H 2177.92 1.87504 -3.31093 0
M  V30 21958 H 2177.44 0.140794 -3.87845 0
M  V30 21959 H 2175.54 2.38689 -2.86109 0
M  V30 21960 H 2175.65 1.53111 -4.53976 0
M  V30 21961 H 2174.01 0.90507 -2.38077 0
M  V30 21962 H 2174.8 -0.413406 -3.40802 0
M  V30 21963 N 2177.24 1.55075 0.280956 0
M  V30 21964 C 2178.49 1.75566 1.01511 0
M  V30 21965 C 2178.82 0.55079 1.86226 0
M  V30 21966 O 2178.1 -0.451807 1.8918 0
M  V30 21967 C 2178.38 3.05625 1.90434 0
M  V30 21968 C 2178.23 4.36452 1.08766 0
M  V30 21969 C 2179.55 3.31672 2.89277 0
M  V30 21970 H 2176.67 0.638765 0.367626 0
M  V30 21971 H 2179.31 1.87803 0.28812 0
M  V30 21972 H 2177.46 2.95324 2.5242 0
M  V30 21973 H 2179.13 4.587 0.489115 0
M  V30 21974 H 2177.38 4.32035 0.390884 0
M  V30 21975 H 2178.05 5.23764 1.74285 0
M  V30 21976 H 2180.52 3.41715 2.37424 0
M  V30 21977 H 2179.4 4.23955 3.48645 0
M  V30 21978 H 2179.66 2.50928 3.63988 0
M  V30 21979 N 2178.72 -0.545102 1.47873 0
M  V30 21980 C 2179.97 -1.29914 1.54812 0
M  V30 21981 C 2180.29 -1.93786 0.217214 0
M  V30 21982 O 2179.56 -1.80559 -0.759941 0
M  V30 21983 H 2178.14 -0.482471 0.57029 0
M  V30 21984 H 2180.8 -0.635565 1.84246 0
M  V30 21985 H 2179.9 -2.08635 2.32116 0
M  V30 21986 N 2180.2 -1.36208 -0.792797 0
M  V30 21987 C 2181.15 -1.30313 -1.92669 0
M  V30 21988 C 2182.14 -0.195525 -1.68268 0
M  V30 21989 O 2183.35 -0.362331 -1.76316 0
M  V30 21990 H 2179.72 -0.4056 -0.63324 0
M  V30 21991 H 2181.69 -2.26078 -1.9476 0
M  V30 21992 C 2180.44 -1.10589 -3.29644 0
M  V30 21993 H 2179.76 -1.95061 -3.48986 0
M  V30 21994 H 2181.2 -1.10509 -4.09345 0
M  V30 21995 C 2179.66 0.189643 -3.36366 0
M  V30 21996 O 2180.19 1.18066 -3.83958 0
M  V30 21997 N 2178.4 0.23316 -2.89663 0
M  V30 21998 H 2177.95 -0.573917 -2.51125 0
M  V30 21999 H 2177.9 1.09966 -2.94542 0
M  V30 22000 N 2181.68 1.01656 -1.20431 0
M  V30 22001 C 2182.9 1.79392 -1.04084 0
M  V30 22002 C 2183.33 1.83678 0.405466 0
M  V30 22003 O 2182.68 1.27186 1.29203 0
M  V30 22004 C 2182.73 3.21706 -1.62904 0
M  V30 22005 O 2181.84 4.0319 -0.866689 0
M  V30 22006 H 2181.18 0.553315 -0.367068 0
M  V30 22007 H 2183.71 1.27864 -1.59725 0
M  V30 22008 H 2183.72 3.72418 -1.6664 0
M  V30 22009 H 2182.39 3.17901 -2.68164 0
M  V30 22010 H 2180.97 3.61788 -0.903537 0
M  V30 22011 N 2183.15 1.01021 1.20965 0
M  V30 22012 C 2184.38 0.71488 1.94157 0
M  V30 22013 C 2184.8 -0.723393 1.74392 0
M  V30 22014 O 2184.15 -1.48999 1.05383 0
M  V30 22015 C 2184.2 1.033 3.46427 0
M  V30 22016 O 2183.93 2.41477 3.65541 0
M  V30 22017 C 2185.43 0.757815 4.36775 0
M  V30 22018 H 2182.65 0.263024 0.6173 0
M  V30 22019 H 2185.19 1.34966 1.53637 0
M  V30 22020 H 2183.35 0.443729 3.8485 0
M  V30 22021 H 2183.76 2.52743 4.59588 0
M  V30 22022 H 2185.23 1.03053 5.42295 0
M  V30 22023 H 2185.71 -0.308099 4.38118 0
M  V30 22024 H 2186.32 1.32894 4.04004 0
M  V30 22025 N 2184.63 -1.36623 0.78561 0
M  V30 22026 C 2185.88 -1.99342 0.356255 0
M  V30 22027 C 2186.21 -1.62355 -1.07103 0
M  V30 22028 O 2185.46 -0.868184 -1.75388 0
M  V30 22029 C 2185.76 -3.54391 0.462776 0
M  V30 22030 C 2185.43 -4.11186 1.85031 0
M  V30 22031 C 2184.09 -4.2641 2.22997 0
M  V30 22032 C 2186.44 -4.42184 2.75904 0
M  V30 22033 C 2183.77 -4.69941 3.51244 0
M  V30 22034 C 2186.12 -4.87145 4.03575 0
M  V30 22035 C 2184.78 -5.00575 4.41567 0
M  V30 22036 H 2184.05 -0.729443 0.130363 0
M  V30 22037 H 2186.7 -1.63173 1.00233 0
M  V30 22038 H 2185.01 -3.9089 -0.266811 0
M  V30 22039 H 2186.7 -4.00845 0.111658 0
M  V30 22040 H 2183.29 -3.99774 1.54528 0
M  V30 22041 H 2187.48 -4.29994 2.47827 0
M  V30 22042 H 2182.73 -4.78526 3.80556 0
M  V30 22043 H 2186.91 -5.10094 4.74106 0
M  V30 22044 H 2184.53 -5.34064 5.40999 0
M  V30 22045 N 2186.11 -0.537304 -1.48158 0
M  V30 22046 C 2187.07 0.210784 -2.28229 0
M  V30 22047 C 2188.07 0.861078 -1.35802 0
M  V30 22048 O 2189.26 0.72 -1.58624 0
M  V30 22049 C 2186.39 1.30581 -3.14899 0
M  V30 22050 H 2187.59 -0.492311 -2.95832 0
M  V30 22051 H 2185.14 -0.293505 -1.53519 0
M  V30 22052 H 2185.88 2.04194 -2.51943 0
M  V30 22053 H 2185.66 0.844559 -3.82896 0
M  V30 22054 H 2187.15 1.8318 -3.7528 0
M  V30 22055 N 2187.59 1.55221 -0.272782 0
M  V30 22056 C 2188.83 2.00569 0.338179 0
M  V30 22057 C 2189.19 1.15787 1.53659 0
M  V30 22058 O 2188.48 0.219393 1.9034 0
M  V30 22059 C 2188.68 3.48938 0.773111 0
M  V30 22060 C 2188.51 4.48078 -0.381611 0
M  V30 22061 C 2187.28 4.97847 -0.864644 0
M  V30 22062 C 2189.47 4.99686 -1.21731 0
M  V30 22063 N 2187.46 5.80783 -1.98908 0
M  V30 22064 C 2188.83 5.80046 -2.18968 0
M  V30 22065 C 2190.88 4.8193 -1.25092 0
M  V30 22066 C 2189.58 6.44543 -3.19307 0
M  V30 22067 C 2191.61 5.47224 -2.24275 0
M  V30 22068 C 2190.97 6.27394 -3.20244 0
M  V30 22069 H 2187.07 0.776921 0.0889851 0
M  V30 22070 H 2189.66 1.90625 -0.396271 0
M  V30 22071 H 2187.83 3.59229 1.47679 0
M  V30 22072 H 2189.56 3.81121 1.36121 0
M  V30 22073 H 2186.31 4.71511 -0.444346 0
M  V30 22074 H 2186.74 6.26943 -2.55484 0
M  V30 22075 H 2191.38 4.19556 -0.522767 0
M  V30 22076 H 2189.1 7.06068 -3.93057 0
M  V30 22077 H 2192.68 5.35428 -2.27614 0
M  V30 22078 H 2191.56 6.77025 -3.95736 0
M  V30 22079 N 2189.07 2.77022e-05 1.576 0
M  V30 22080 C 2190.31 -0.684815 1.90569 0
M  V30 22081 C 2190.64 -1.73777 0.873597 0
M  V30 22082 O 2189.9 -1.95322 -0.12162 0
M  V30 22083 C 2190.2 -1.36534 3.30292 0
M  V30 22084 C 2189.86 -0.445583 4.48693 0
M  V30 22085 C 2188.52 -0.192344 4.80815 0
M  V30 22086 C 2190.88 0.187683 5.20862 0
M  V30 22087 C 2188.2 0.702454 5.8248 0
M  V30 22088 C 2190.56 1.07036 6.23479 0
M  V30 22089 C 2189.22 1.33277 6.54059 0
M  V30 22090 H 2188.49 -0.250591 0.697341 0
M  V30 22091 H 2191.14 0.0555609 1.91419 0
M  V30 22092 H 2189.44 -2.17977 3.25566 0
M  V30 22093 H 2191.14 -1.90129 3.53061 0
M  V30 22094 H 2187.73 -0.653128 4.23594 0
M  V30 22095 H 2191.91 0.00505024 4.963 0
M  V30 22096 H 2187.17 0.913771 6.04533 0
M  V30 22097 H 2191.34 1.56741 6.78532 0
M  V30 22098 H 2188.97 2.02782 7.32655 0
M  V30 22099 N 2190.54 -1.55222 -0.272728 0
M  V30 22100 C 2191.79 -1.77025 -1.00169 0
M  V30 22101 C 2192.15 -0.564665 -1.83927 0
M  V30 22102 O 2191.44 0.442642 -1.86417 0
M  V30 22103 C 2191.63 -3.01679 -1.91637 0
M  V30 22104 C 2191.46 -4.34245 -1.1688 0
M  V30 22105 C 2190.23 -4.97501 -0.884376 0
M  V30 22106 C 2192.43 -5.11252 -0.5591 0
M  V30 22107 N 2190.41 -6.13801 -0.110042 0
M  V30 22108 C 2191.78 -6.19947 0.0810559 0
M  V30 22109 C 2193.84 -4.95705 -0.466971 0
M  V30 22110 C 2192.54 -7.14787 0.804461 0
M  V30 22111 C 2194.57 -5.90901 0.242843 0
M  V30 22112 C 2193.93 -6.98985 0.871736 0
M  V30 22113 H 2190.03 -0.700043 -0.348516 0
M  V30 22114 H 2192.61 -1.92715 -0.277331 0
M  V30 22115 H 2190.78 -2.87364 -2.61298 0
M  V30 22116 H 2192.51 -3.11885 -2.57896 0
M  V30 22117 H 2189.27 -4.58413 -1.18971 0
M  V30 22118 H 2189.69 -6.76483 0.264463 0
M  V30 22119 H 2194.34 -4.12244 -0.938867 0
M  V30 22120 H 2192.05 -7.97769 1.28804 0
M  V30 22121 H 2195.64 -5.8095 0.314449 0
M  V30 22122 H 2194.52 -7.71379 1.41223 0
M  V30 22123 N 2192.02 0.537252 -1.4816 0
M  V30 22124 C 2192.97 1.66349 -1.62575 0
M  V30 22125 C 2193.96 1.62086 -0.492394 0
M  V30 22126 O 2195.17 1.67031 -0.670876 0
M  V30 22127 H 2191.55 0.55078 -0.512001 0
M  V30 22128 H 2193.52 1.51332 -2.57179 0
M  V30 22129 C 2192.27 3.04646 -1.67589 0
M  V30 22130 H 2191.59 3.08617 -2.54156 0
M  V30 22131 H 2193.03 3.83085 -1.8172 0
M  V30 22132 C 2191.49 3.34358 -0.413097 0
M  V30 22133 O 2192.02 3.98856 0.477189 0
M  V30 22134 N 2190.22 2.89179 -0.287012 0
M  V30 22135 H 2189.77 2.3687 -1.01245 0
M  V30 22136 H 2189.73 3.09428 0.556909 0
M  V30 22137 N 2193.5 1.36626 0.785562 0
M  V30 22138 C 2194.78 1.21615 1.53196 0
M  V30 22139 C 2195.16 -0.196076 2.10187 0
M  V30 22140 O 2194.51 -1.20216 1.94321 0
M  V30 22141 C 2194.72 2.30121 2.62384 0
M  V30 22142 C 2196.06 2.6698 3.30162 0
M  V30 22143 O 2197.09 2.29193 2.7267 0
M  V30 22144 O 2195.95 3.32031 4.34071 0
M  V30 22145 H 2193.04 0.47375 0.677857 0
M  V30 22146 H 2195.59 1.48368 0.823713 0
M  V30 22147 H 2194.36 3.24752 2.18293 0
M  V30 22148 H 2193.98 2.04756 3.40824 0
M  V30 22149 N 2194.98 -1.01016 1.20969 0
M  V30 22150 C 2196.39 -1.27051 0.965927 0
M  V30 22151 C 2196.59 -1.98424 -0.35075 0
M  V30 22152 O 2195.65 -2.28346 -1.07769 0
M  V30 22153 C 2196.96 -2.09922 2.15298 0
M  V30 22154 C 2198.51 -2.23167 2.19467 0
M  V30 22155 C 2198.99 -3.09418 3.37675 0
M  V30 22156 N 2200.48 -3.17006 3.3773 0
M  V30 22157 C 2201.21 -3.83986 4.25843 0
M  V30 22158 N 2200.71 -4.53037 5.24146 0
M  V30 22159 N 2202.5 -3.80574 4.13666 0
M  V30 22160 H 2194.65 -0.531158 2.05651 0
M  V30 22161 H 2196.92 -0.29709 0.900245 0
M  V30 22162 H 2196.62 -1.64823 3.10687 0
M  V30 22163 H 2196.5 -3.10668 2.13928 0
M  V30 22164 H 2198.88 -2.67488 1.24636 0
M  V30 22165 H 2198.96 -1.21908 2.24882 0
M  V30 22166 H 2198.61 -2.65801 4.32796 0
M  V30 22167 H 2198.54 -4.10778 3.29498 0
M  V30 22168 H 2201.03 -2.67845 2.66585 0
M  V30 22169 H 2201.34 -5.01834 5.87693 0
M  V30 22170 H 2199.69 -4.51841 5.28076 0
M  V30 22171 H 2202.88 -3.25779 3.36133 0
M  V30 22172 H 2203.05 -4.32497 4.82546 0
M  V30 22173 N 2196.46 -1.01661 -1.20428 0
M  V30 22174 C 2197.87 -0.731467 -1.41851 0
M  V30 22175 C 2198.07 0.688865 -1.89359 0
M  V30 22176 O 2197.13 1.45662 -2.06249 0
M  V30 22177 C 2198.44 -1.75718 -2.44016 0
M  V30 22178 C 2199.99 -1.77532 -2.57782 0
M  V30 22179 C 2200.46 -2.7903 -3.63189 0
M  V30 22180 N 2201.96 -2.7777 -3.70673 0
M  V30 22181 C 2202.69 -3.52962 -4.51891 0
M  V30 22182 N 2202.19 -4.3783 -5.36914 0
M  V30 22183 N 2203.98 -3.41559 -4.46424 0
M  V30 22184 H 2196.13 -1.93355 -0.879059 0
M  V30 22185 H 2198.39 -0.835244 -0.448411 0
M  V30 22186 H 2198.1 -2.77473 -2.16105 0
M  V30 22187 H 2197.97 -1.56933 -3.43004 0
M  V30 22188 H 2200.36 -0.764619 -2.85022 0
M  V30 22189 H 2200.44 -2.0039 -1.58989 0
M  V30 22190 H 2200.09 -3.80264 -3.36693 0
M  V30 22191 H 2200.02 -2.53433 -4.61605 0
M  V30 22192 H 2202.51 -2.16206 -3.09941 0
M  V30 22193 H 2202.82 -4.91973 -5.95972 0
M  V30 22194 H 2201.16 -4.41908 -5.36416 0
M  V30 22195 H 2204.36 -2.74679 -3.79037 0
M  V30 22196 H 2204.53 -4.00413 -5.09484 0
M  V30 22197 N 2197.93 1.36205 -0.792844 0
M  V30 22198 C 2198.86 2.32573 -0.207894 0
M  V30 22199 C 2199.85 1.56815 0.659028 0
M  V30 22200 O 2201.03 1.84952 0.592143 0
M  V30 22201 C 2198.16 3.4106 0.655389 0
M  V30 22202 C 2197.11 4.27854 -0.111917 0
M  V30 22203 C 2196.44 5.27539 0.872181 0
M  V30 22204 C 2197.74 5.05784 -1.30308 0
M  V30 22205 H 2199.43 2.81743 -1.01299 0
M  V30 22206 H 2196.98 1.35459 -0.488564 0
M  V30 22207 H 2198.93 4.07469 1.07457 0
M  V30 22208 H 2197.66 2.90466 1.49323 0
M  V30 22209 H 2196.32 3.63005 -0.512116 0
M  V30 22210 H 2195.96 4.73217 1.70514 0
M  V30 22211 H 2195.66 5.86477 0.363188 0
M  V30 22212 H 2197.19 5.96821 1.28986 0
M  V30 22213 H 2198.6 5.65214 -0.959478 0
M  V30 22214 H 2197 5.7415 -1.7456 0
M  V30 22215 H 2198.07 4.37226 -2.0967 0
M  V30 22216 N 2199.41 0.545154 1.47871 0
M  V30 22217 C 2200.36 -0.229416 2.26843 0
M  V30 22218 C 2201.35 -0.896243 1.33627 0
M  V30 22219 O 2202.54 -0.796542 1.58064 0
M  V30 22220 C 2199.67 -1.26633 3.19091 0
M  V30 22221 C 2198.75 -0.603524 4.19784 0
M  V30 22222 N 2199.14 0.319494 5.0479 0
M  V30 22223 C 2197.44 -0.858912 4.37651 0
M  V30 22224 C 2198.14 0.703343 5.77432 0
M  V30 22225 N 2197.12 0.0609265 5.43566 0
M  V30 22226 H 2200.92 0.480442 2.89946 0
M  V30 22227 H 2198.44 0.364237 1.58263 0
M  V30 22228 H 2200.43 -1.83508 3.7434 0
M  V30 22229 H 2199.09 -1.9774 2.57544 0
M  V30 22230 H 2200.1 0.69298 5.13243 0
M  V30 22231 H 2196.78 -1.55941 3.87284 0
M  V30 22232 H 2198.17 1.46109 6.55821 0
M  V30 22233 N 2200.89 -1.55074 0.28101 0
M  V30 22234 C 2201.85 -2.21453 -0.590858 0
M  V30 22235 C 2202.85 -1.19423 -1.07679 0
M  V30 22236 O 2204.04 -1.44289 -0.976025 0
M  V30 22237 C 2201.18 -2.88515 -1.81582 0
M  V30 22238 H 2202.37 -2.99898 -0.0112027 0
M  V30 22239 H 2199.92 -1.56268 0.0316713 0
M  V30 22240 H 2200.66 -2.14097 -2.43584 0
M  V30 22241 H 2200.44 -3.63289 -1.47524 0
M  V30 22242 H 2201.93 -3.39211 -2.43569 0
M  V30 22243 N 2202.37 -0.00838561 -1.57598 0
M  V30 22244 C 2203.28 0.99645 -2.12387 0
M  V30 22245 C 2204.3 1.37125 -1.0711 0
M  V30 22246 O 2205.47 1.45688 -1.39058 0
M  V30 22247 C 2202.54 2.26694 -2.62318 0
M  V30 22248 C 2201.6 1.95449 -3.82228 0
M  V30 22249 C 2200.83 3.16441 -4.29768 0
M  V30 22250 O 2201.05 4.2841 -3.76592 0
M  V30 22251 O 2199.99 2.99949 -5.21837 0
M  V30 22252 H 2203.81 0.560673 -2.9848 0
M  V30 22253 H 2201.4 0.210961 -1.47903 0
M  V30 22254 H 2203.28 3.01317 -2.94594 0
M  V30 22255 H 2201.96 2.69494 -1.79318 0
M  V30 22256 H 2200.86 1.18275 -3.54911 0
M  V30 22257 H 2202.2 1.57481 -4.66327 0
M  V30 22258 N 2203.85 1.55365 0.264492 0
M  V30 22259 C 2205.26 1.66992 0.834906 0
M  V30 22260 C 2205.61 0.602585 1.86717 0
M  V30 22261 O 2204.73 -0.254387 2.149 0
M  V30 22262 C 2205.33 3.02732 1.52114 0
M  V30 22263 C 2203.89 3.16358 2.03948 0
M  V30 22264 C 2203.04 2.62817 0.884452 0
M  V30 22265 H 2205.99 1.58648 0.040659 0
M  V30 22266 H 2206.01 2.96196 2.38848 0
M  V30 22267 H 2205.52 3.80393 0.769601 0
M  V30 22268 H 2203.62 2.43487 2.82037 0
M  V30 22269 H 2203.73 4.23036 2.24894 0
M  V30 22270 H 2202.1 2.20191 1.28016 0
M  V30 22271 H 2202.88 3.42988 0.14628 0
M  V30 22272 N 2205.33 -0.529387 1.48443 0
M  V30 22273 C 2206.57 -1.28709 1.56722 0
M  V30 22274 C 2206.9 -1.92703 0.240634 0
M  V30 22275 O 2206.18 -1.79315 -0.753422 0
M  V30 22276 C 2206.46 -2.37598 2.70591 0
M  V30 22277 C 2206.32 -1.7829 4.12956 0
M  V30 22278 C 2207.63 -3.39361 2.80218 0
M  V30 22279 H 2204.75 -0.466603 0.570483 0
M  V30 22280 H 2207.4 -0.589675 1.80618 0
M  V30 22281 H 2205.55 -2.97084 2.50347 0
M  V30 22282 H 2207.22 -1.2285 4.44641 0
M  V30 22283 H 2205.46 -1.08822 4.19929 0
M  V30 22284 H 2206.13 -2.57135 4.88452 0
M  V30 22285 H 2208.61 -2.89831 2.98558 0
M  V30 22286 H 2207.48 -4.12945 3.61618 0
M  V30 22287 H 2207.74 -3.99947 1.884 0
M  V30 22288 N 2206.8 -1.37041 -0.778305 0
M  V30 22289 C 2208.21 -1.28525 -1.35419 0
M  V30 22290 C 2208.57 0.0700557 -1.96075 0
M  V30 22291 O 2207.69 0.971767 -1.93354 0
M  V30 22292 C 2208.29 -2.32739 -2.46207 0
M  V30 22293 C 2206.84 -2.27878 -2.99581 0
M  V30 22294 C 2205.99 -2.16921 -1.72744 0
M  V30 22295 H 2208.94 -1.47758 -0.579074 0
M  V30 22296 H 2208.96 -1.97026 -3.25517 0
M  V30 22297 H 2208.48 -3.31369 -2.0203 0
M  V30 22298 H 2206.58 -1.32751 -3.48149 0
M  V30 22299 H 2206.69 -3.21025 -3.5564 0
M  V30 22300 H 2205.05 -1.63358 -1.95413 0
M  V30 22301 H 2205.84 -3.17455 -1.30681 0
M  V30 22302 N 2208.28 1.00373 -1.21503 0
M  V30 22303 C 2209.51 1.77742 -1.05903 0
M  V30 22304 C 2209.92 1.84705 0.391093 0
M  V30 22305 O 2209.28 1.30935 1.27131 0
M  V30 22306 C 2209.33 3.21588 -1.65116 0
M  V30 22307 O 2209.05 3.15022 -3.04455 0
M  V30 22308 C 2210.55 4.15451 -1.54645 0
M  V30 22309 H 2207.77 0.558551 -0.371835 0
M  V30 22310 H 2210.32 1.26262 -1.60867 0
M  V30 22311 H 2208.47 3.70173 -1.14241 0
M  V30 22312 H 2208.89 4.05404 -3.32788 0
M  V30 22313 H 2210.36 5.14176 -2.00817 0
M  V30 22314 H 2210.84 4.36332 -0.501099 0
M  V30 22315 H 2211.44 3.72757 -2.04773 0
M  V30 22316 N 2209.76 1.02298 1.19887 0
M  V30 22317 C 2210.69 0.619214 2.2514 0
M  V30 22318 C 2211.67 -0.368886 1.66052 0
M  V30 22319 O 2212.86 -0.252907 1.92546 0
M  V30 22320 C 2209.99 -0.0368173 3.4728 0
M  V30 22321 C 2208.94 0.872939 4.19003 0
M  V30 22322 C 2208.27 0.0823342 5.34637 0
M  V30 22323 C 2209.57 2.18395 4.74448 0
M  V30 22324 H 2211.26 1.49907 2.59168 0
M  V30 22325 H 2208.81 0.722244 1.24578 0
M  V30 22326 H 2210.76 -0.330884 4.20099 0
M  V30 22327 H 2209.48 -0.951435 3.12434 0
M  V30 22328 H 2208.14 1.15111 3.48059 0
M  V30 22329 H 2207.79 -0.834133 4.96036 0
M  V30 22330 H 2207.49 0.688252 5.83555 0
M  V30 22331 H 2209.01 -0.20513 6.10255 0
M  V30 22332 H 2210.43 1.95182 5.39052 0
M  V30 22333 H 2208.82 2.74128 5.33829 0
M  V30 22334 H 2209.89 2.84263 3.92839 0
M  V30 22335 N 2211.24 -1.35782 0.800057 0
M  V30 22336 C 2212.2 -2.28221 0.211605 0
M  V30 22337 C 2213.2 -1.49297 -0.597254 0
M  V30 22338 O 2214.39 -1.69143 -0.416692 0
M  V30 22339 C 2211.52 -3.33514 -0.705787 0
M  V30 22340 H 2212.72 -2.81774 1.02682 0
M  V30 22341 H 2210.27 -1.45527 0.570236 0
M  V30 22342 H 2211 -2.85136 -1.54493 0
M  V30 22343 H 2210.79 -3.91892 -0.127586 0
M  V30 22344 H 2212.28 -4.02521 -1.11204 0
M  V30 22345 N 2212.72 -0.552988 -1.4758 0
M  V30 22346 C 2213.96 -0.0273599 -2.02482 0
M  V30 22347 C 2214.29 1.32078 -1.42778 0
M  V30 22348 O 2213.55 1.87172 -0.571426 0
M  V30 22349 C 2213.84 0.119666 -3.572 0
M  V30 22350 C 2213.51 -1.15705 -4.35802 0
M  V30 22351 C 2212.17 -1.50689 -4.56997 0
M  V30 22352 C 2214.52 -2.00327 -4.81164 0
M  V30 22353 C 2211.85 -2.70151 -5.20803 0
M  V30 22354 C 2214.2 -3.18988 -5.46287 0
M  V30 22355 C 2212.87 -3.5429 -5.65716 0
M  V30 22356 H 2212.14 -0.0100117 -0.740932 0
M  V30 22357 H 2214.79 -0.723651 -1.77301 0
M  V30 22358 H 2213.09 0.898893 -3.81349 0
M  V30 22359 H 2214.79 0.541648 -3.97325 0
M  V30 22360 H 2211.38 -0.874635 -4.19581 0
M  V30 22361 H 2215.56 -1.74607 -4.64571 0
M  V30 22362 H 2210.82 -2.97677 -5.3404 0
M  V30 22363 H 2214.99 -3.84849 -5.804 0
M  V30 22364 H 2212.62 -4.46953 -6.14929 0
M  V30 22365 N 2214.19 1.54923 -0.28923 0
M  V30 22366 C 2215.42 2.04309 0.326427 0
M  V30 22367 C 2215.84 1.16703 1.48411 0
M  V30 22368 O 2215.19 0.190119 1.81507 0
M  V30 22369 C 2215.24 3.52674 0.793952 0
M  V30 22370 O 2214.97 4.36947 -0.317641 0
M  V30 22371 C 2216.47 4.18007 1.47598 0
M  V30 22372 H 2213.69 0.667059 0.0726155 0
M  V30 22373 H 2216.23 2.00026 -0.425436 0
M  V30 22374 H 2214.39 3.57355 1.49587 0
M  V30 22375 H 2214.8 5.24481 0.0442264 0
M  V30 22376 H 2216.27 5.23379 1.75438 0
M  V30 22377 H 2216.75 3.67029 2.41218 0
M  V30 22378 H 2217.36 4.17368 0.817547 0
M  V30 22379 N 2215.67 0.0167433 1.57591 0
M  V30 22380 C 2216.62 -0.9781 2.05954 0
M  V30 22381 C 2217.61 -1.29305 0.957555 0
M  V30 22382 O 2218.8 -1.28123 1.22121 0
M  V30 22383 C 2215.93 -2.26464 2.5801 0
M  V30 22384 C 2215.01 -1.9786 3.75116 0
M  V30 22385 N 2215.4 -1.39477 4.86189 0
M  V30 22386 C 2213.7 -2.27917 3.83367 0
M  V30 22387 C 2214.4 -1.27725 5.67504 0
M  V30 22388 N 2213.38 -1.76857 5.14026 0
M  V30 22389 H 2217.18 -0.521471 2.89237 0
M  V30 22390 H 2214.69 -0.188568 1.61302 0
M  V30 22391 H 2216.69 -2.98594 2.90942 0
M  V30 22392 H 2215.35 -2.72764 1.76153 0
M  V30 22393 H 2216.36 -1.07139 5.06697 0
M  V30 22394 H 2213.04 -2.76976 3.12394 0
M  V30 22395 H 2214.43 -0.826861 6.66793 0
M  V30 22396 N 2217.15 -1.55503 -0.256249 0
M  V30 22397 C 2218.4 -1.77159 -0.987048 0
M  V30 22398 C 2218.73 -0.580347 -1.85326 0
M  V30 22399 O 2218 0.421653 -1.89875 0
M  V30 22400 C 2218.29 -3.08616 -1.85548 0
M  V30 22401 C 2218.14 -4.38127 -1.01808 0
M  V30 22402 C 2219.46 -3.36233 -2.83964 0
M  V30 22403 H 2216.58 -0.644533 -0.357417 0
M  V30 22404 H 2219.22 -1.88237 -0.258206 0
M  V30 22405 H 2217.37 -2.99302 -2.4769 0
M  V30 22406 H 2219.04 -4.5942 -0.416078 0
M  V30 22407 H 2217.29 -4.32603 -0.322102 0
M  V30 22408 H 2217.96 -5.26471 -1.6593 0
M  V30 22409 H 2220.43 -3.45449 -2.31958 0
M  V30 22410 H 2219.31 -4.29448 -3.41856 0
M  V30 22411 H 2219.57 -2.56687 -3.5995 0
M  V30 22412 N 2218.63 0.521507 -1.48721 0
M  V30 22413 C 2219.59 1.60745 -1.63382 0
M  V30 22414 C 2220.59 1.5261 -0.506637 0
M  V30 22415 O 2221.78 1.56128 -0.772629 0
M  V30 22416 C 2218.91 3.0038 -1.61198 0
M  V30 22417 H 2220.11 1.49083 -2.6022 0
M  V30 22418 H 2217.66 0.744211 -1.37445 0
M  V30 22419 H 2218.39 3.1754 -0.658686 0
M  V30 22420 H 2218.18 3.07693 -2.43038 0
M  V30 22421 H 2219.67 3.79317 -1.74667 0
M  V30 22422 N 2220.11 1.37452 0.771027 0
M  V30 22423 C 2221.52 1.18267 1.07169 0
M  V30 22424 C 2221.72 0.0193224 2.01491 0
M  V30 22425 O 2220.78 -0.640366 2.44245 0
M  V30 22426 C 2222.09 2.50163 1.66849 0
M  V30 22427 C 2223.64 2.56692 1.79104 0
M  V30 22428 C 2224.11 3.88721 2.42198 0
M  V30 22429 N 2225.61 3.90167 2.49648 0
M  V30 22430 C 2226.34 4.89075 2.99321 0
M  V30 22431 N 2225.84 5.9838 3.49161 0
M  V30 22432 N 2227.63 4.76479 2.98202 0
M  V30 22433 H 2219.78 2.11906 0.144759 0
M  V30 22434 H 2222.04 0.939475 0.126847 0
M  V30 22435 H 2221.75 3.35657 1.05011 0
M  V30 22436 H 2221.62 2.67304 2.66136 0
M  V30 22437 H 2224.01 1.71605 2.40074 0
M  V30 22438 H 2224.09 2.43434 0.785714 0
M  V30 22439 H 2223.74 4.74222 1.81867 0
M  V30 22440 H 2223.67 3.99282 3.43338 0
M  V30 22441 H 2226.16 3.11208 2.14378 0
M  V30 22442 H 2226.47 6.69802 3.85468 0
M  V30 22443 H 2224.81 6.02024 3.47264 0
M  V30 22444 H 2228.01 3.90207 2.58565 0
M  V30 22445 H 2228.18 5.53717 3.36603 0
M  V30 22446 N 2221.58 -0.997276 1.22033 0
M  V30 22447 C 2222.55 -2.06815 0.987945 0
M  V30 22448 C 2223.55 -1.6074 -0.0439802 0
M  V30 22449 O 2224.74 -1.73115 0.194083 0
M  V30 22450 C 2221.87 -3.3734 0.49138 0
M  V30 22451 H 2223.06 -2.28864 1.93807 0
M  V30 22452 H 2220.62 -1.1682 1.0384 0
M  V30 22453 H 2221.35 -3.20973 -0.463307 0
M  V30 22454 H 2221.14 -3.72115 1.23582 0
M  V30 22455 H 2222.63 -4.1614 0.348897 0
M  V30 22456 N 2223.06 -1.02932 -1.19343 0
M  V30 22457 C 2223.99 -0.568609 -2.22035 0
M  V30 22458 C 2225.01 0.355751 -1.58866 0
M  V30 22459 O 2226.2 0.152072 -1.77851 0
M  V30 22460 C 2223.3 0.190693 -3.38363 0
M  V30 22461 C 2222.47 -0.738719 -4.31117 0
M  V30 22462 C 2221.53 -0.0247422 -5.26194 0
M  V30 22463 O 2220.55 -0.651454 -5.6546 0
M  V30 22464 N 2221.76 1.24584 -5.66974 0
M  V30 22465 H 2224.52 -1.45181 -2.62188 0
M  V30 22466 H 2222.08 -0.908405 -1.34013 0
M  V30 22467 H 2224.07 0.677891 -3.98982 0
M  V30 22468 H 2222.64 0.975314 -2.96996 0
M  V30 22469 H 2221.86 -1.406 -3.68273 0
M  V30 22470 H 2223.15 -1.37037 -4.89998 0
M  V30 22471 H 2222.55 1.77573 -5.37107 0
M  V30 22472 H 2221.11 1.67753 -6.29843 0
M  V30 22473 N 2224.54 1.35356 -0.807246 0
M  V30 22474 C 2225.5 2.28106 -0.223706 0
M  V30 22475 C 2226.5 1.49611 0.589328 0
M  V30 22476 O 2227.69 1.69362 0.407716 0
M  V30 22477 C 2224.83 3.33883 0.688091 0
M  V30 22478 H 2226.02 2.81225 -1.04174 0
M  V30 22479 H 2223.57 1.45222 -0.577946 0
M  V30 22480 H 2224.31 2.85951 1.52979 0
M  V30 22481 H 2224.09 3.91955 0.106801 0
M  V30 22482 H 2225.58 4.03105 1.09068 0
M  V30 22483 N 2226.02 0.560807 1.47284 0
M  V30 22484 C 2227.27 0.0380223 2.02064 0
M  V30 22485 C 2227.59 -1.31801 1.43714 0
M  V30 22486 O 2226.86 -1.86041 0.613652 0
M  V30 22487 H 2225.44 0.0110662 0.746918 0
M  V30 22488 H 2228.1 0.73163 1.80647 0
M  V30 22489 H 2227.2 -0.0473914 3.12064 0
M  V30 22490 N 2227.5 -1.54768 0.297442 0
M  V30 22491 C 2228.43 -2.19555 -0.622149 0
M  V30 22492 C 2229.41 -1.16378 -1.13556 0
M  V30 22493 O 2230.59 -1.45004 -1.20442 0
M  V30 22494 C 2227.72 -2.83657 -1.85085 0
M  V30 22495 C 2226.76 -4.0033 -1.47099 0
M  V30 22496 S 2227.6 -5.32871 -0.529967 0
M  V30 22497 C 2228.75 -6.00453 -1.76654 0
M  V30 22498 H 2228.99 -2.97213 -0.0717284 0
M  V30 22499 H 2226.52 -1.54184 0.0815949 0
M  V30 22500 H 2228.48 -3.21215 -2.55599 0
M  V30 22501 H 2227.14 -2.05851 -2.37243 0
M  V30 22502 H 2226.33 -4.43951 -2.38586 0
M  V30 22503 H 2225.93 -3.6431 -0.845821 0
M  V30 22504 H 2228.23 -6.21044 -2.70759 0
M  V30 22505 H 2229.17 -6.94662 -1.37296 0
M  V30 22506 H 2229.58 -5.30057 -1.94164 0
M  V30 22507 N 2228.97 -0.0251005 -1.5758 0
M  V30 22508 C 2230.2 0.663748 -1.95647 0
M  V30 22509 C 2230.61 1.66425 -0.899965 0
M  V30 22510 O 2229.96 1.83259 0.127159 0
M  V30 22511 C 2230.02 1.42994 -3.29838 0
M  V30 22512 C 2229.68 0.588225 -4.53199 0
M  V30 22513 C 2230.68 -0.134781 -5.19725 0
M  V30 22514 C 2228.36 0.526809 -4.9953 0
M  V30 22515 C 2230.36 -0.907921 -6.30901 0
M  V30 22516 C 2228.04 -0.250037 -6.10588 0
M  V30 22517 C 2229.04 -0.966113 -6.76133 0
M  V30 22518 O 2228.73 -1.73023 -7.85059 0
M  V30 22519 H 2228.46 0.188163 -0.649285 0
M  V30 22520 H 2231.02 -0.0799366 -2.05244 0
M  V30 22521 H 2229.25 2.21868 -3.1672 0
M  V30 22522 H 2230.94 2.00652 -3.52837 0
M  V30 22523 H 2231.7 -0.0966414 -4.84904 0
M  V30 22524 H 2227.58 1.07373 -4.48321 0
M  V30 22525 H 2231.12 -1.46736 -6.81993 0
M  V30 22526 H 2227.02 -0.289909 -6.44849 0
M  V30 22527 H 2227.79 -1.64958 -8.01705 0
M  V30 22528 N 2230.45 1.55637 0.247999 0
M  V30 22529 C 2231.4 1.86616 1.3099 0
M  V30 22530 C 2232.39 0.726943 1.43542 0
M  V30 22531 O 2233.58 0.988844 1.46802 0
M  V30 22532 C 2230.71 2.16339 2.66556 0
M  V30 22533 C 2229.79 3.36586 2.58013 0
M  V30 22534 N 2230.18 4.55882 2.19102 0
M  V30 22535 C 2228.48 3.39674 2.89029 0
M  V30 22536 C 2229.18 5.38016 2.21164 0
M  V30 22537 N 2228.16 4.7705 2.60623 0
M  V30 22538 H 2231.96 2.76381 0.999535 0
M  V30 22539 H 2229.48 1.55848 0.456625 0
M  V30 22540 H 2231.47 2.36698 3.4319 0
M  V30 22541 H 2230.13 1.27872 2.98461 0
M  V30 22542 H 2231.14 4.81526 1.90664 0
M  V30 22543 H 2227.82 2.61474 3.2548 0
M  V30 22544 H 2229.21 6.43455 1.93429 0
M  V30 22545 N 2231.93 -0.513613 1.48996 0
M  V30 22546 C 2233.17 -1.27882 1.59454 0
M  V30 22547 C 2233.54 -1.90099 0.269513 0
M  V30 22548 O 2234.74 -2.67642 0.249186 0
M  V30 22549 C 2233.01 -2.32683 2.71281 0
M  V30 22550 S 2234.57 -3.18711 3.0161 0
M  V30 22551 H 2231.38 -0.434779 0.562573 0
M  V30 22552 H 2233.99 -0.583268 1.86596 0
M  V30 22553 H 2232.69 -1.85484 3.66093 0
M  V30 22554 H 2232.22 -3.06924 2.46091 0
M  V30 22555 H 2234.24 -4.33095 2.42163 0
M  V30 22556 N 2233.41 -1.37859 -0.763727 0
M  V30 22557 C 2234.34 -1.36978 -1.89101 0
M  V30 22558 C 2235.32 -0.237182 -1.68438 0
M  V30 22559 O 2236.51 -0.438747 -1.89179 0
M  V30 22560 C 2233.64 -1.18401 -3.26494 0
M  V30 22561 C 2232.59 -2.28758 -3.61737 0
M  V30 22562 C 2231.92 -1.95295 -4.97759 0
M  V30 22563 C 2233.22 -3.70978 -3.67658 0
M  V30 22564 H 2234.91 -2.3131 -1.90095 0
M  V30 22565 H 2232.46 -1.11343 -0.91317 0
M  V30 22566 H 2234.41 -1.16413 -4.05001 0
M  V30 22567 H 2233.13 -0.205272 -3.25954 0
M  V30 22568 H 2231.79 -2.29914 -2.85543 0
M  V30 22569 H 2231.44 -0.959307 -4.93767 0
M  V30 22570 H 2231.14 -2.69198 -5.22308 0
M  V30 22571 H 2232.66 -1.94908 -5.78656 0
M  V30 22572 H 2234.08 -3.71907 -4.363 0
M  V30 22573 H 2232.47 -4.44002 -4.0371 0
M  V30 22574 H 2233.54 -4.04025 -2.68127 0
M  V30 22575 N 2234.89 0.990791 -1.22561 0
M  V30 22576 C 2235.85 2.06288 -0.998899 0
M  V30 22577 C 2236.85 1.60761 0.0354551 0
M  V30 22578 O 2238.04 1.7301 -0.203261 0
M  V30 22579 C 2235.17 3.37075 -0.509263 0
M  V30 22580 H 2236.37 2.27833 -1.95018 0
M  V30 22581 H 2233.92 1.16267 -1.04459 0
M  V30 22582 H 2234.65 3.21215 0.446279 0
M  V30 22583 H 2234.44 3.71455 -1.25554 0
M  V30 22584 H 2235.93 4.15949 -0.370961 0
M  V30 22585 N 2236.37 1.03564 1.18795 0
M  V30 22586 C 2237.28 0.632544 2.25912 0
M  V30 22587 C 2238.29 -0.338852 1.70669 0
M  V30 22588 O 2239.47 -0.195041 2.00453 0
M  V30 22589 C 2236.53 -0.00344848 3.467 0
M  V30 22590 C 2235.59 1.01631 4.17097 0
M  V30 22591 C 2234.83 0.410571 5.32118 0
M  V30 22592 O 2235.05 -0.784626 5.64978 0
M  V30 22593 O 2233.98 1.13677 5.91068 0
M  V30 22594 H 2237.81 1.52483 2.62646 0
M  V30 22595 H 2235.39 0.806217 1.2578 0
M  V30 22596 H 2237.28 -0.357736 4.19879 0
M  V30 22597 H 2235.95 -0.869631 3.118 0
M  V30 22598 H 2234.86 1.4223 3.46008 0
M  V30 22599 H 2236.19 1.85309 4.55984 0
M  V30 22600 N 2237.84 -1.34926 0.814413 0
M  V30 22601 C 2238.77 -2.32213 0.244868 0
M  V30 22602 C 2239.75 -1.57843 -0.633996 0
M  V30 22603 O 2240.94 -1.85871 -0.562644 0
M  V30 22604 C 2238.07 -3.4206 -0.601046 0
M  V30 22605 C 2237.02 -4.27621 0.179971 0
M  V30 22606 C 2236.35 -5.2886 -0.788144 0
M  V30 22607 C 2237.65 -5.03647 1.38338 0
M  V30 22608 H 2239.34 -2.80095 1.05768 0
M  V30 22609 H 2236.89 -1.34664 0.510052 0
M  V30 22610 H 2238.84 -4.09127 -1.00961 0
M  V30 22611 H 2237.57 -2.92805 -1.44683 0
M  V30 22612 H 2236.23 -3.62145 0.569803 0
M  V30 22613 H 2235.87 -4.75869 -1.62964 0
M  V30 22614 H 2235.57 -5.8698 -0.269839 0
M  V30 22615 H 2237.1 -5.98797 -1.19475 0
M  V30 22616 H 2238.51 -5.63616 1.04928 0
M  V30 22617 H 2236.91 -5.71301 1.83672 0
M  V30 22618 H 2237.98 -4.33835 2.166 0
M  V30 22619 N 2239.32 -0.56861 -1.46985 0
M  V30 22620 C 2240.73 -0.138252 -1.86187 0
M  V30 22621 C 2241.08 1.29501 -1.4739 0
M  V30 22622 O 2240.21 1.976 -0.882224 0
M  V30 22623 C 2240.8 -0.244124 -3.37919 0
M  V30 22624 C 2239.36 0.131269 -3.76171 0
M  V30 22625 C 2238.51 -0.586513 -2.71026 0
M  V30 22626 H 2241.46 -0.777669 -1.3834 0
M  V30 22627 H 2241.48 0.534285 -3.7673 0
M  V30 22628 H 2240.99 -1.28738 -3.66126 0
M  V30 22629 H 2239.09 1.17519 -3.53582 0
M  V30 22630 H 2239.21 -0.23523 -4.78522 0
M  V30 22631 H 2237.57 -0.028317 -2.54684 0
M  V30 22632 H 2238.35 -1.63114 -3.02074 0
M  V30 22633 N 2240.8 1.54608 -0.305646 0
M  V30 22634 C 2242.03 2.04643 0.304739 0
M  V30 22635 C 2242.44 1.18271 1.47165 0
M  V30 22636 O 2241.8 0.209359 1.81295 0
M  V30 22637 C 2241.85 3.53496 0.756502 0
M  V30 22638 O 2241.57 4.36585 -0.363967 0
M  V30 22639 C 2243.07 4.19549 1.43156 0
M  V30 22640 H 2240.29 0.667792 0.0655364 0
M  V30 22641 H 2242.84 1.99563 -0.446627 0
M  V30 22642 H 2240.99 3.58921 1.45788 0
M  V30 22643 H 2241.41 5.24499 -0.0114043 0
M  V30 22644 H 2242.88 5.2521 1.69877 0
M  V30 22645 H 2243.36 3.69567 2.37312 0
M  V30 22646 H 2243.96 4.18212 0.773233 0
M  V30 22647 N 2242.28 0.033457 1.57564 0
M  V30 22648 C 2243.53 -0.642966 1.91599 0
M  V30 22649 C 2243.85 -1.72418 0.910877 0
M  V30 22650 O 2243.12 -1.95844 -0.0469587 0
M  V30 22651 H 2241.7 -0.240483 0.707232 0
M  V30 22652 H 2244.36 0.0822831 1.94726 0
M  V30 22653 H 2243.45 -1.09293 2.92338 0
M  V30 22654 N 2243.76 -1.55766 -0.239741 0
M  V30 22655 C 2244.72 -1.90105 -1.28034 0
M  V30 22656 C 2245.72 -0.77808 -1.40722 0
M  V30 22657 O 2246.91 -1.04601 -1.39299 0
M  V30 22658 C 2244.04 -2.13581 -2.65699 0
M  V30 22659 H 2245.23 -2.83158 -0.987998 0
M  V30 22660 H 2242.79 -1.48768 -0.479356 0
M  V30 22661 H 2243.52 -1.2302 -3.00061 0
M  V30 22662 H 2243.31 -2.95374 -2.5787 0
M  V30 22663 H 2244.8 -2.41307 -3.40823 0
M  V30 22664 N 2245.23 0.505704 -1.49266 0
M  V30 22665 C 2246.2 1.59003 -1.65078 0
M  V30 22666 C 2247.2 1.52064 -0.522794 0
M  V30 22667 O 2248.39 1.553 -0.789145 0
M  V30 22668 C 2245.52 2.98653 -1.64375 0
M  V30 22669 H 2246.71 1.46314 -2.61786 0
M  V30 22670 H 2244.26 0.729592 -1.38227 0
M  V30 22671 H 2245 3.16824 -0.692328 0
M  V30 22672 H 2244.78 3.05098 -2.46287 0
M  V30 22673 H 2246.27 3.77443 -1.7868 0
M  V30 22674 N 2246.71 1.38262 0.756405 0
M  V30 22675 C 2247.68 1.35068 1.85173 0
M  V30 22676 C 2248.68 0.251731 1.58817 0
M  V30 22677 O 2249.87 0.508462 1.66614 0
M  V30 22678 C 2247 1.10207 3.22595 0
M  V30 22679 H 2248.19 2.32514 1.89413 0
M  V30 22680 H 2245.74 1.23514 0.957808 0
M  V30 22681 H 2246.48 0.133561 3.24025 0
M  V30 22682 H 2246.26 1.89768 3.43119 0
M  V30 22683 H 2247.75 1.10661 4.02671 0
M  V30 22684 N 2248.19 -0.984277 1.23084 0
M  V30 22685 C 2249.42 -1.76569 1.08803 0
M  V30 22686 C 2249.84 -1.84688 -0.356625 0
M  V30 22687 O 2249.2 -1.30567 -1.25785 0
M  V30 22688 C 2249.25 -3.17273 1.71376 0
M  V30 22689 O 2248.35 -4.0075 0.973283 0
M  V30 22690 H 2247.69 -0.543388 0.381609 0
M  V30 22691 H 2250.22 -1.23584 1.63059 0
M  V30 22692 H 2250.23 -3.67869 1.76456 0
M  V30 22693 H 2248.91 -3.10679 2.76498 0
M  V30 22694 H 2247.48 -3.59265 0.999141 0
M  V30 22695 N 2249.67 -1.04192 -1.18244 0
M  V30 22696 C 2250.63 -0.638491 -2.20127 0
M  V30 22697 C 2251.63 0.304777 -1.57885 0
M  V30 22698 O 2252.82 0.0900063 -1.73967 0
M  V30 22699 C 2249.95 0.0637152 -3.4084 0
M  V30 22700 H 2251.15 -1.54012 -2.57333 0
M  V30 22701 H 2248.7 -0.834621 -1.32151 0
M  V30 22702 H 2249.43 0.979081 -3.09167 0
M  V30 22703 H 2249.22 -0.614266 -3.87259 0
M  V30 22704 H 2250.71 0.332439 -4.16275 0
M  V30 22705 N 2251.15 1.34492 -0.821557 0
M  V30 22706 C 2252.56 1.80739 -0.467988 0
M  V30 22707 C 2252.91 1.68117 1.01148 0
M  V30 22708 O 2252.03 1.22039 1.78705 0
M  V30 22709 C 2252.63 3.28153 -0.842684 0
M  V30 22710 C 2251.19 3.72484 -0.541504 0
M  V30 22711 C 2250.33 2.56227 -1.06033 0
M  V30 22712 H 2253.29 1.22259 -1.01185 0
M  V30 22713 H 2253.31 3.8022 -0.145943 0
M  V30 22714 H 2252.82 3.37308 -1.91951 0
M  V30 22715 H 2250.92 3.68869 0.52597 0
M  V30 22716 H 2251.03 4.66662 -1.08461 0
M  V30 22717 H 2249.4 2.50099 -0.481936 0
M  V30 22718 H 2250.18 2.68153 -2.14357 0
M  V30 22719 N 2252.62 0.576397 1.46681 0
M  V30 22720 C 2253.87 0.0596577 2.02712 0
M  V30 22721 C 2254.2 -1.29445 1.44767 0
M  V30 22722 O 2253.48 -1.84674 0.610387 0
M  V30 22723 C 2253.76 -0.012887 3.60098 0
M  V30 22724 C 2253.61 1.36967 4.28439 0
M  V30 22725 C 2254.93 -0.716704 4.34225 0
M  V30 22726 H 2252.05 0.0231537 0.736636 0
M  V30 22727 H 2254.69 0.742381 1.74896 0
M  V30 22728 H 2252.84 -0.594311 3.83927 0
M  V30 22729 H 2254.52 1.99578 4.15892 0
M  V30 22730 H 2252.76 1.93913 3.88046 0
M  V30 22731 H 2253.43 1.27145 5.37158 0
M  V30 22732 H 2255.91 -0.222834 4.15503 0
M  V30 22733 H 2254.78 -0.736475 5.43937 0
M  V30 22734 H 2255.04 -1.77675 4.04826 0
M  V30 22735 N 2254.1 -1.54444 0.313841 0
M  V30 22736 C 2255.04 -2.20203 -0.598827 0
M  V30 22737 C 2256.01 -1.17575 -1.12316 0
M  V30 22738 O 2257.2 -1.46273 -1.18897 0
M  V30 22739 C 2254.32 -2.85604 -1.82066 0
M  V30 22740 C 2253.37 -4.01868 -1.42844 0
M  V30 22741 S 2254.2 -5.33403 -0.473419 0
M  V30 22742 C 2255.36 -6.02293 -1.70276 0
M  V30 22743 H 2255.59 -2.97273 -0.0402009 0
M  V30 22744 H 2253.13 -1.54089 0.0979436 0
M  V30 22745 H 2255.08 -3.23908 -2.52178 0
M  V30 22746 H 2253.74 -2.08355 -2.35047 0
M  V30 22747 H 2252.94 -4.46457 -2.33864 0
M  V30 22748 H 2252.54 -3.65187 -0.807133 0
M  V30 22749 H 2254.83 -6.23881 -2.64157 0
M  V30 22750 H 2255.77 -6.96079 -1.2992 0
M  V30 22751 H 2256.18 -5.32087 -1.88531 0
M  V30 22752 N 2255.58 -0.0418125 -1.57545 0
M  V30 22753 C 2256.51 0.933891 -2.14011 0
M  V30 22754 C 2257.49 1.33082 -1.0594 0
M  V30 22755 O 2258.68 1.40719 -1.33835 0
M  V30 22756 C 2255.81 2.21194 -2.67751 0
M  V30 22757 C 2254.76 1.95538 -3.80722 0
M  V30 22758 C 2254.09 3.29717 -4.20941 0
M  V30 22759 C 2255.39 1.28443 -5.06261 0
M  V30 22760 H 2257.08 0.463593 -2.95789 0
M  V30 22761 H 2254.63 0.221548 -1.42286 0
M  V30 22762 H 2256.58 2.89843 -3.05891 0
M  V30 22763 H 2255.3 2.70413 -1.83151 0
M  V30 22764 H 2253.96 1.29304 -3.4304 0
M  V30 22765 H 2253.61 3.76719 -3.33305 0
M  V30 22766 H 2253.31 3.13352 -4.97076 0
M  V30 22767 H 2254.83 3.99612 -4.61673 0
M  V30 22768 H 2256.25 1.87111 -5.41906 0
M  V30 22769 H 2254.65 1.22434 -5.87477 0
M  V30 22770 H 2255.72 0.259134 -4.84207 0
M  V30 22771 N 2257.06 1.55891 0.231477 0
M  V30 22772 C 2258.47 1.4866 0.580722 0
M  V30 22773 C 2258.67 0.735013 1.87616 0
M  V30 22774 O 2257.73 0.27063 2.51045 0
M  V30 22775 C 2259.04 2.9316 0.669151 0
M  V30 22776 C 2260.59 3.03622 0.760445 0
M  V30 22777 C 2261.07 4.4946 0.880304 0
M  V30 22778 N 2262.56 4.53462 0.944781 0
M  V30 22779 C 2263.29 5.63572 1.05706 0
M  V30 22780 N 2262.79 6.83458 1.13391 0
M  V30 22781 N 2264.58 5.51402 1.09142 0
M  V30 22782 H 2256.73 2.03188 -0.618731 0
M  V30 22783 H 2259 0.923124 -0.215744 0
M  V30 22784 H 2258.7 3.51055 -0.212966 0
M  V30 22785 H 2258.58 3.44508 1.53604 0
M  V30 22786 H 2260.96 2.45798 1.63301 0
M  V30 22787 H 2261.04 2.5546 -0.131909 0
M  V30 22788 H 2260.69 5.07899 0.0122391 0
M  V30 22789 H 2260.62 4.95319 1.78793 0
M  V30 22790 H 2263.11 3.67122 0.896111 0
M  V30 22791 H 2263.42 7.63124 1.21908 0
M  V30 22792 H 2261.77 6.86188 1.10321 0
M  V30 22793 H 2264.96 4.56673 1.02797 0
M  V30 22794 H 2265.13 6.37249 1.17547 0
M  V30 22795 N 2258.54 -0.497781 1.49532 0
M  V30 22796 C 2259.78 -1.25355 1.59417 0
M  V30 22797 C 2260.12 -1.9215 0.281455 0
M  V30 22798 O 2259.39 -1.80873 -0.715217 0
M  V30 22799 C 2259.67 -2.31805 2.7557 0
M  V30 22800 C 2259.53 -1.69491 4.16645 0
M  V30 22801 C 2260.85 -3.33341 2.87353 0
M  V30 22802 H 2257.96 -0.454398 0.580252 0
M  V30 22803 H 2260.61 -0.55123 1.81828 0
M  V30 22804 H 2258.76 -2.91707 2.56592 0
M  V30 22805 H 2260.43 -1.13391 4.47147 0
M  V30 22806 H 2258.67 -0.998904 4.22143 0
M  V30 22807 H 2259.34 -2.46717 4.93796 0
M  V30 22808 H 2261.82 -2.83433 3.04639 0
M  V30 22809 H 2260.69 -4.05181 3.70296 0
M  V30 22810 H 2260.96 -3.95861 1.96841 0
M  V30 22811 N 2260.01 -1.38661 -0.749062 0
M  V30 22812 C 2260.94 -1.38976 -1.87637 0
M  V30 22813 C 2261.93 -0.255034 -1.68177 0
M  V30 22814 O 2263.11 -0.458787 -1.88703 0
M  V30 22815 C 2260.24 -1.21857 -3.2522 0
M  V30 22816 C 2259.19 -2.32581 -3.59291 0
M  V30 22817 C 2258.52 -2.00563 -4.9566 0
M  V30 22818 C 2259.82 -3.74857 -3.63703 0
M  V30 22819 H 2261.51 -2.33313 -1.87631 0
M  V30 22820 H 2259.06 -1.12305 -0.90131 0
M  V30 22821 H 2261.01 -1.20702 -4.03744 0
M  V30 22822 H 2259.74 -0.239832 -3.25718 0
M  V30 22823 H 2258.4 -2.3293 -2.83089 0
M  V30 22824 H 2258.04 -1.01162 -4.92722 0
M  V30 22825 H 2257.74 -2.74723 -5.19424 0
M  V30 22826 H 2259.27 -2.01034 -5.76557 0
M  V30 22827 H 2260.68 -3.76514 -4.32331 0
M  V30 22828 H 2259.08 -4.48259 -3.98978 0
M  V30 22829 H 2260.15 -4.06846 -2.63826 0
M  V30 22830 N 2261.49 0.977736 -1.23605 0
M  V30 22831 C 2262.72 1.75201 -1.0949 0
M  V30 22832 C 2263.13 1.85815 0.356289 0
M  V30 22833 O 2262.47 1.33853 1.25813 0
M  V30 22834 C 2262.54 3.19445 -1.6491 0
M  V30 22835 C 2262.2 3.32333 -3.13694 0
M  V30 22836 C 2263.2 3.18448 -4.10959 0
M  V30 22837 C 2260.88 3.56896 -3.53456 0
M  V30 22838 C 2262.88 3.28934 -5.45968 0
M  V30 22839 C 2260.56 3.67022 -4.88609 0
M  V30 22840 C 2261.56 3.53052 -5.84674 0
M  V30 22841 O 2261.25 3.62814 -7.17371 0
M  V30 22842 H 2260.98 0.556566 -0.38368 0
M  V30 22843 H 2263.54 1.2369 -1.63982 0
M  V30 22844 H 2261.77 3.72216 -1.04842 0
M  V30 22845 H 2263.45 3.78643 -1.46233 0
M  V30 22846 H 2264.22 2.99366 -3.81583 0
M  V30 22847 H 2260.1 3.6684 -2.79195 0
M  V30 22848 H 2263.64 3.17947 -6.20931 0
M  V30 22849 H 2259.54 3.85614 -5.1766 0
M  V30 22850 H 2260.31 3.79592 -7.25157 0
M  V30 22851 N 2262.97 1.04818 1.1769 0
M  V30 22852 C 2264.38 0.782728 1.695 0
M  V30 22853 C 2264.73 -0.695545 1.83457 0
M  V30 22854 O 2263.86 -1.54084 1.51945 0
M  V30 22855 C 2264.45 1.41424 3.07871 0
M  V30 22856 C 2263.01 1.19693 3.56862 0
M  V30 22857 C 2262.16 1.50016 2.33218 0
M  V30 22858 H 2265.11 1.21362 1.0226 0
M  V30 22859 H 2265.13 0.821494 3.71526 0
M  V30 22860 H 2264.64 2.49014 2.97681 0
M  V30 22861 H 2262.74 0.140109 3.72336 0
M  V30 22862 H 2262.86 1.89924 4.39847 0
M  V30 22863 H 2261.22 0.920113 2.375 0
M  V30 22864 H 2262 2.58731 2.25639 0
M  V30 22865 N 2264.45 -1.34055 0.828678 0
M  V30 22866 C 2265.86 -1.80489 0.477566 0
M  V30 22867 C 2266.21 -1.68651 -1.00256 0
M  V30 22868 O 2265.34 -1.22985 -1.78055 0
M  V30 22869 C 2265.93 -3.27701 0.860075 0
M  V30 22870 C 2264.49 -3.72192 0.56125 0
M  V30 22871 C 2263.64 -2.55661 1.0739 0
M  V30 22872 H 2266.59 -1.2172 1.01832 0
M  V30 22873 H 2266.61 -3.80137 0.166105 0
M  V30 22874 H 2266.12 -3.36285 1.93737 0
M  V30 22875 H 2264.22 -3.69143 -0.5064 0
M  V30 22876 H 2264.34 -4.6608 1.10934 0
M  V30 22877 H 2262.7 -2.4984 0.495193 0
M  V30 22878 H 2263.48 -2.67012 2.15776 0
M  V30 22879 N 2265.93 -0.584167 -1.46374 0
M  V30 22880 C 2266.87 0.148246 -2.30323 0
M  V30 22881 C 2267.84 0.882688 -1.40705 0
M  V30 22882 O 2269.03 0.873069 -1.69653 0
M  V30 22883 C 2266.17 1.15501 -3.25198 0
M  V30 22884 C 2265.28 0.423867 -4.29916 0
M  V30 22885 C 2264.42 1.41829 -5.11916 0
M  V30 22886 C 2263.46 0.673629 -6.08382 0
M  V30 22887 N 2262.59 1.61618 -6.83245 0
M  V30 22888 H 2267.43 -0.573695 -2.92426 0
M  V30 22889 H 2264.97 -0.294728 -1.44117 0
M  V30 22890 H 2266.93 1.7516 -3.78649 0
M  V30 22891 H 2265.56 1.84465 -2.64901 0
M  V30 22892 H 2264.61 -0.287781 -3.7931 0
M  V30 22893 H 2265.92 -0.158215 -4.98549 0
M  V30 22894 H 2265.08 2.08763 -5.69652 0
M  V30 22895 H 2263.82 2.0343 -4.43247 0
M  V30 22896 H 2262.82 -0.00948147 -5.49799 0
M  V30 22897 H 2264.05 0.0629888 -6.79071 0
M  V30 22898 H 2261.99 2.22027 -6.17284 0
M  V30 22899 H 2261.91 1.08694 -7.48145 0
M  V30 22900 H 2263.18 2.27583 -7.45538 0
M  V30 22901 N 2267.41 1.54275 -0.322027 0
M  V30 22902 C 2268.63 2.04955 0.283016 0
M  V30 22903 C 2269.05 1.19825 1.45902 0
M  V30 22904 O 2268.41 0.228576 1.81063 0
M  V30 22905 C 2268.46 3.54278 0.718966 0
M  V30 22906 O 2268.18 4.36175 -0.410252 0
M  V30 22907 C 2269.68 4.21044 1.38698 0
M  V30 22908 H 2266.9 0.668449 0.0584499 0
M  V30 22909 H 2269.44 1.99078 -0.467769 0
M  V30 22910 H 2267.6 3.60448 1.41973 0
M  V30 22911 H 2268.01 5.24457 -0.0670338 0
M  V30 22912 H 2269.49 5.26982 1.64297 0
M  V30 22913 H 2269.96 3.72063 2.33379 0
M  V30 22914 H 2270.57 4.19008 0.728833 0
M  V30 22915 N 2268.88 0.0501669 1.5752 0
M  V30 22916 C 2270.29 -0.485673 1.80272 0
M  V30 22917 C 2270.65 -1.7098 0.96231 0
M  V30 22918 O 2269.77 -2.15662 0.178615 0
M  V30 22919 C 2270.37 -0.887881 3.26959 0
M  V30 22920 C 2268.92 -1.36871 3.50633 0
M  V30 22921 C 2268.07 -0.34342 2.75165 0
M  V30 22922 H 2271.02 0.276055 1.56281 0
M  V30 22923 H 2271.04 -1.75087 3.37824 0
M  V30 22924 H 2270.56 0.00324912 3.881 0
M  V30 22925 H 2268.66 -2.27906 2.9477 0
M  V30 22926 H 2268.77 -1.36156 4.59346 0
M  V30 22927 H 2267.13 -0.816086 2.41272 0
M  V30 22928 H 2267.92 0.539608 3.39033 0
M  V30 22929 N 2270.36 -1.56011 -0.223207 0
M  V30 22930 C 2271.59 -1.83029 -0.96478 0
M  V30 22931 C 2272 -0.629072 -1.78012 0
M  V30 22932 O 2271.36 0.402382 -1.78009 0
M  V30 22933 C 2271.41 -3.08545 -1.88368 0
M  V30 22934 O 2271.13 -4.24032 -1.1013 0
M  V30 22935 C 2272.63 -3.48537 -2.73928 0
M  V30 22936 H 2269.85 -0.60848 -0.282831 0
M  V30 22937 H 2272.4 -2.03099 -0.238936 0
M  V30 22938 H 2270.55 -2.90455 -2.56349 0
M  V30 22939 H 2270.97 -4.95325 -1.72492 0
M  V30 22940 H 2272.44 -4.39403 -3.3411 0
M  V30 22941 H 2272.92 -2.70213 -3.46239 0
M  V30 22942 H 2273.52 -3.69061 -2.11362 0
M  V30 22943 N 2271.84 0.489844 -1.49794 0
M  V30 22944 C 2272.77 1.60821 -1.61901 0
M  V30 22945 C 2273.75 1.55729 -0.467678 0
M  V30 22946 O 2274.93 1.75624 -0.684713 0
M  V30 22947 C 2272.06 2.99363 -1.58428 0
M  V30 22948 C 2271.11 3.22677 -2.78894 0
M  V30 22949 S 2271.94 3.04594 -4.40435 0
M  V30 22950 C 2273.1 4.45512 -4.39624 0
M  V30 22951 H 2273.33 1.50308 -2.56505 0
M  V30 22952 H 2270.86 0.675824 -1.38824 0
M  V30 22953 H 2272.82 3.79245 -1.57109 0
M  V30 22954 H 2271.48 3.07281 -0.65092 0
M  V30 22955 H 2270.67 4.23843 -2.72715 0
M  V30 22956 H 2270.28 2.50536 -2.77683 0
M  V30 22957 H 2272.57 5.37807 -4.12031 0
M  V30 22958 H 2273.51 4.56739 -5.41105 0
M  V30 22959 H 2273.92 4.26714 -3.69561 0
M  V30 22960 N 2273.32 1.39056 0.741698 0
M  V30 22961 C 2274.25 1.31625 1.86414 0
M  V30 22962 C 2275.23 0.191104 1.61473 0
M  V30 22963 O 2276.41 0.370431 1.84824 0
M  V30 22964 C 2273.54 1.04227 3.22265 0
M  V30 22965 C 2272.59 2.18841 3.66075 0
M  V30 22966 S 2273.42 3.81073 3.76223 0
M  V30 22967 C 2274.57 3.55886 5.14874 0
M  V30 22968 H 2274.81 2.26621 1.92433 0
M  V30 22969 H 2272.34 1.25032 0.905885 0
M  V30 22970 H 2274.3 0.891035 4.00713 0
M  V30 22971 H 2272.96 0.109293 3.1391 0
M  V30 22972 H 2272.15 1.95246 4.64645 0
M  V30 22973 H 2271.75 2.30133 2.94813 0
M  V30 22974 H 2274.05 3.12737 6.01001 0
M  V30 22975 H 2274.99 4.53893 5.43495 0
M  V30 22976 H 2275.4 2.90134 4.84234 0
M  V30 22977 N 2274.8 -0.971167 1.24121 0
M  V30 22978 C 2276.04 -1.71623 1.08044 0
M  V30 22979 C 2276.37 -1.90438 -0.380373 0
M  V30 22980 O 2275.65 -1.46336 -1.28125 0
M  V30 22981 C 2275.93 -3.10904 1.81688 0
M  V30 22982 C 2275.79 -2.99602 3.35498 0
M  V30 22983 C 2277.1 -4.10499 1.58679 0
M  V30 22984 H 2274.22 -0.622912 0.393891 0
M  V30 22985 H 2276.87 -1.13 1.52745 0
M  V30 22986 H 2275.02 -3.6095 1.43691 0
M  V30 22987 H 2276.69 -2.57009 3.83072 0
M  V30 22988 H 2274.93 -2.35893 3.64056 0
M  V30 22989 H 2275.6 -3.98257 3.82224 0
M  V30 22990 H 2278.08 -3.69298 1.91725 0
M  V30 22991 H 2276.95 -5.06027 2.12669 0
M  V30 22992 H 2277.21 -4.38981 0.524238 0
M  V30 22993 N 2276.27 -1.05441 -1.17133 0
M  V30 22994 C 2277.52 -0.765975 -1.87454 0
M  V30 22995 C 2277.85 0.707121 -1.81191 0
M  V30 22996 O 2277.1 1.53307 -1.21636 0
M  V30 22997 C 2277.4 -1.19497 -3.36831 0
M  V30 22998 C 2277.07 -2.6707 -3.63297 0
M  V30 22999 C 2275.73 -3.07382 -3.70229 0
M  V30 23000 C 2278.08 -3.6242 -3.74568 0
M  V30 23001 C 2275.41 -4.41903 -3.85926 0
M  V30 23002 C 2277.76 -4.96677 -3.91784 0
M  V30 23003 C 2276.43 -5.3664 -3.96956 0
M  V30 23004 H 2275.7 -0.28029 -0.685943 0
M  V30 23005 H 2278.34 -1.32194 -1.38553 0
M  V30 23006 H 2276.65 -0.558037 -3.87806 0
M  V30 23007 H 2278.35 -0.948961 -3.8961 0
M  V30 23008 H 2274.94 -2.34853 -3.58528 0
M  V30 23009 H 2279.12 -3.32413 -3.68531 0
M  V30 23010 H 2274.38 -4.72363 -3.88179 0
M  V30 23011 H 2278.55 -5.70451 -3.99448 0
M  V30 23012 H 2276.18 -6.40881 -4.08871 0
M  V30 23013 N 2277.75 1.33613 -0.835776 0
M  V30 23014 C 2279 1.98175 -0.430631 0
M  V30 23015 C 2279.33 1.66063 1.00682 0
M  V30 23016 O 2278.61 0.938907 1.70337 0
M  V30 23017 C 2278.89 3.54219 -0.648127 0
M  V30 23018 C 2278.74 3.96029 -2.13262 0
M  V30 23019 C 2280.06 4.40003 -0.0922887 0
M  V30 23020 H 2277.18 0.719879 -0.157936 0
M  V30 23021 H 2279.82 1.58303 -1.05072 0
M  V30 23022 H 2277.97 3.88314 -0.120305 0
M  V30 23023 H 2279.64 3.72207 -2.72507 0
M  V30 23024 H 2277.89 3.45873 -2.61829 0
M  V30 23025 H 2278.56 5.04704 -2.23556 0
M  V30 23026 H 2281.03 4.12536 -0.543416 0
M  V30 23027 H 2279.91 5.48215 -0.274179 0
M  V30 23028 H 2280.17 4.30556 1.00371 0
M  V30 23029 N 2279.23 0.591922 1.46062 0
M  V30 23030 C 2280.14 -0.138269 2.34192 0
M  V30 23031 C 2281.16 -0.876582 1.50306 0
M  V30 23032 O 2282.33 -0.837696 1.83152 0
M  V30 23033 C 2279.4 -1.1332 3.27658 0
M  V30 23034 C 2278.46 -0.398555 4.27446 0
M  V30 23035 C 2277.69 -1.34609 5.16446 0
M  V30 23036 O 2277.91 -2.58312 5.08558 0
M  V30 23037 O 2276.85 -0.851663 5.95844 0
M  V30 23038 H 2280.67 0.585572 2.98001 0
M  V30 23039 H 2278.26 0.352265 1.45188 0
M  V30 23040 H 2280.14 -1.70664 3.85294 0
M  V30 23041 H 2278.82 -1.83835 2.66433 0
M  V30 23042 H 2277.72 0.21696 3.7347 0
M  V30 23043 H 2279.06 0.265795 4.91482 0
M  V30 23044 N 2280.71 -1.54102 0.330204 0
M  V30 23045 C 2282.12 -1.86043 -0.156487 0
M  V30 23046 C 2282.47 -1.25173 -1.51083 0
M  V30 23047 O 2281.6 -0.560254 -2.09022 0
M  V30 23048 C 2282.19 -3.3755 -0.290725 0
M  V30 23049 C 2280.75 -3.69418 -0.72164 0
M  V30 23050 C 2279.9 -2.76879 0.152671 0
M  V30 23051 H 2282.85 -1.48855 0.550263 0
M  V30 23052 H 2282.87 -3.63627 -1.12051 0
M  V30 23053 H 2282.38 -3.81824 0.695135 0
M  V30 23054 H 2280.48 -3.30681 -1.71701 0
M  V30 23055 H 2280.59 -4.76261 -0.520785 0
M  V30 23056 H 2278.96 -2.51956 -0.37285 0
M  V30 23057 H 2279.74 -3.2398 1.13542 0
M  V30 23058 N 2282.19 -0.0585199 -1.57491 0
M  V30 23059 C 2283.1 0.928376 -2.15449 0
M  V30 23060 C 2284.11 1.33648 -1.11419 0
M  V30 23061 O 2285.29 1.4119 -1.43622 0
M  V30 23062 C 2282.35 2.18234 -2.69397 0
M  V30 23063 C 2281.41 1.8319 -3.88253 0
M  V30 23064 C 2280.65 3.02608 -4.39618 0
M  V30 23065 O 2280.87 4.16212 -3.90031 0
M  V30 23066 O 2279.8 2.83195 -5.31116 0
M  V30 23067 H 2283.63 0.46543 -3.00112 0
M  V30 23068 H 2281.22 0.1638 -1.48499 0
M  V30 23069 H 2283.1 2.91792 -3.04032 0
M  V30 23070 H 2281.77 2.63652 -1.87801 0
M  V30 23071 H 2280.68 1.06924 -3.58494 0
M  V30 23072 H 2282.01 1.42565 -4.71101 0
M  V30 23073 N 2283.66 1.56128 0.21493 0
M  V30 23074 C 2284.91 1.79093 0.936487 0
M  V30 23075 C 2285.23 0.62818 1.84605 0
M  V30 23076 O 2284.5 -0.354586 1.92664 0
M  V30 23077 H 2283.08 0.660572 0.348788 0
M  V30 23078 H 2285.75 1.93595 0.225196 0
M  V30 23079 H 2284.84 2.71495 1.53938 0
M  V30 23080 N 2285.14 -0.481893 1.50052 0
M  V30 23081 C 2286.39 -1.23231 1.60183 0
M  V30 23082 C 2286.71 -1.92691 0.29921 0
M  V30 23083 O 2285.98 -1.8362 -0.682675 0
M  V30 23084 H 2284.56 -0.457849 0.59024 0
M  V30 23085 H 2287.22 -0.556848 1.86776 0
M  V30 23086 H 2286.32 -1.98602 2.40756 0
M  V30 23087 N 2286.62 -1.39448 -0.734313 0
M  V30 23088 C 2287.55 -1.40959 -1.86153 0
M  V30 23089 C 2288.53 -0.272857 -1.67897 0
M  V30 23090 O 2289.72 -0.478776 -1.88206 0
M  V30 23091 C 2286.85 -1.25299 -3.23909 0
M  V30 23092 C 2285.8 -2.36379 -3.56804 0
M  V30 23093 C 2285.13 -2.05809 -4.93504 0
M  V30 23094 C 2286.43 -3.78693 -3.59707 0
M  V30 23095 H 2288.12 -2.3529 -1.85146 0
M  V30 23096 H 2285.67 -1.13255 -0.889347 0
M  V30 23097 H 2287.62 -1.24977 -4.02441 0
M  V30 23098 H 2286.34 -0.274366 -3.25446 0
M  V30 23099 H 2285 -2.35919 -2.80602 0
M  V30 23100 H 2284.65 -1.06383 -4.91622 0
M  V30 23101 H 2284.35 -2.80217 -5.16481 0
M  V30 23102 H 2285.87 -2.07138 -5.74392 0
M  V30 23103 H 2287.29 -3.81078 -4.28313 0
M  V30 23104 H 2285.69 -4.52466 -3.94201 0
M  V30 23105 H 2286.76 -4.09621 -2.59496 0
M  V30 23106 N 2288.1 0.964571 -1.24635 0
M  V30 23107 C 2289.51 1.23379 -1.01242 0
M  V30 23108 C 2289.71 1.99589 0.276865 0
M  V30 23109 O 2288.77 2.32189 0.9922 0
M  V30 23110 C 2290.08 2.01787 -2.22941 0
M  V30 23111 C 2291.63 2.14868 -2.27598 0
M  V30 23112 C 2292.11 2.96672 -3.48927 0
M  V30 23113 N 2293.6 3.04253 -3.49262 0
M  V30 23114 C 2294.33 3.67916 -4.39801 0
M  V30 23115 N 2293.83 4.33272 -5.40599 0
M  V30 23116 N 2295.62 3.64959 -4.27506 0
M  V30 23117 H 2287.77 0.454466 -2.07481 0
M  V30 23118 H 2290.04 0.263474 -0.910651 0
M  V30 23119 H 2289.74 1.53178 -3.1659 0
M  V30 23120 H 2289.62 3.02514 -2.25311 0
M  V30 23121 H 2292 2.62678 -1.34478 0
M  V30 23122 H 2292.08 1.13478 -2.29252 0
M  V30 23123 H 2291.73 2.49555 -4.42363 0
M  V30 23124 H 2291.66 3.98266 -3.44517 0
M  V30 23125 H 2294.15 2.57767 -2.76342 0
M  V30 23126 H 2294.46 4.79676 -6.05913 0
M  V30 23127 H 2292.81 4.31931 -5.44482 0
M  V30 23128 H 2296 3.13079 -3.47993 0
M  V30 23129 H 2296.17 4.1429 -4.98265 0
M  V30 23130 N 2289.58 1.0606 1.16572 0
M  V30 23131 C 2290.82 0.774373 1.86676 0
M  V30 23132 C 2291.15 -0.701115 1.8196 0
M  V30 23133 O 2290.42 -1.5071 1.25153 0
M  V30 23134 H 2289 0.283461 0.691129 0
M  V30 23135 H 2291.66 1.3416 1.41375 0
M  V30 23136 H 2290.75 1.09716 2.92179 0
M  V30 23137 N 2291.06 -1.33168 0.84285 0
M  V30 23138 C 2292.3 -1.96914 0.436773 0
M  V30 23139 C 2292.62 -1.67493 -1.01022 0
M  V30 23140 O 2293.82 -2.24884 -1.52116 0
M  V30 23141 C 2292.28 -3.52417 0.730082 0
M  V30 23142 C 2291.89 -3.9071 2.19202 0
M  V30 23143 C 2293.63 -4.22694 0.391151 0
M  V30 23144 C 2291.54 -5.39208 2.42917 0
M  V30 23145 H 2290.47 -0.736917 0.159593 0
M  V30 23146 H 2293.12 -1.51731 1.03199 0
M  V30 23147 H 2291.5 -3.95948 0.0644451 0
M  V30 23148 H 2292.68 -3.58226 2.89846 0
M  V30 23149 H 2290.99 -3.33426 2.49431 0
M  V30 23150 H 2293.59 -5.31906 0.54591 0
M  V30 23151 H 2293.93 -4.10935 -0.666222 0
M  V30 23152 H 2294.46 -3.84707 1.01219 0
M  V30 23153 H 2291.2 -5.55976 3.47234 0
M  V30 23154 H 2290.72 -5.73139 1.76837 0
M  V30 23155 H 2292.4 -6.06144 2.2627 0
M  V30 23156 N 2292.53 -0.599659 -1.45746 0
M  V30 23157 C 2293.46 0.111265 -2.33235 0
M  V30 23158 C 2294.44 0.866755 -1.4636 0
M  V30 23159 O 2295.63 0.838873 -1.75147 0
M  V30 23160 C 2292.76 1.11445 -3.28934 0
M  V30 23161 C 2291.71 0.472697 -4.25382 0
M  V30 23162 C 2291.04 1.58356 -5.10713 0
M  V30 23163 C 2292.34 -0.60104 -5.1883 0
M  V30 23164 H 2294.03 -0.619241 -2.92926 0
M  V30 23165 H 2291.58 -0.29924 -1.40857 0
M  V30 23166 H 2293.53 1.62029 -3.89004 0
M  V30 23167 H 2292.26 1.87545 -2.67384 0
M  V30 23168 H 2290.92 -0.0122117 -3.66598 0
M  V30 23169 H 2290.56 2.33465 -4.45537 0
M  V30 23170 H 2290.26 1.15971 -5.76042 0
M  V30 23171 H 2291.79 2.09183 -5.7365 0
M  V30 23172 H 2293.2 -0.179592 -5.73019 0
M  V30 23173 H 2291.6 -0.94618 -5.92594 0
M  V30 23174 H 2292.67 -1.48076 -4.61738 0
M  V30 23175 N 2294.01 1.53925 -0.338371 0
M  V30 23176 C 2295.29 1.93051 0.31474 0
M  V30 23177 C 2295.67 1.26944 1.68667 0
M  V30 23178 O 2295.02 0.418484 2.24635 0
M  V30 23179 C 2295.23 3.46789 0.392188 0
M  V30 23180 C 2296.57 4.19665 0.645481 0
M  V30 23181 O 2297.6 3.53025 0.474513 0
M  V30 23182 O 2296.46 5.37708 0.976314 0
M  V30 23183 H 2293.55 0.806593 0.182584 0
M  V30 23184 H 2296.1 1.65177 -0.38917 0
M  V30 23185 H 2294.87 3.87115 -0.57077 0
M  V30 23186 H 2294.49 3.80814 1.14309 0
M  V30 23187 N 2295.49 0.0668712 1.57458 0
M  V30 23188 C 2296.73 -0.607082 1.95177 0
M  V30 23189 C 2297.09 -1.67073 0.946068 0
M  V30 23190 O 2298.29 -2.39989 1.21074 0
M  V30 23191 C 2296.57 -1.17352 3.37584 0
M  V30 23192 S 2298.12 -1.86329 3.97274 0
M  V30 23193 H 2294.94 -0.198918 0.682607 0
M  V30 23194 H 2297.54 0.139554 1.95001 0
M  V30 23195 H 2296.25 -0.387481 4.08567 0
M  V30 23196 H 2295.78 -1.95663 3.41291 0
M  V30 23197 H 2297.79 -3.1453 3.83778 0
M  V30 23198 N 2296.97 -1.56239 -0.206647 0
M  V30 23199 C 2298.38 -1.49565 -0.556998 0
M  V30 23200 C 2298.58 -0.764768 -1.86423 0
M  V30 23201 O 2297.64 -0.310535 -2.50583 0
M  V30 23202 C 2298.95 -2.94188 -0.622427 0
M  V30 23203 C 2300.5 -3.04793 -0.712046 0
M  V30 23204 C 2300.98 -4.50804 -0.808688 0
M  V30 23205 N 2302.47 -4.54908 -0.87252 0
M  V30 23206 C 2303.2 -5.65183 -0.967266 0
M  V30 23207 N 2302.7 -6.85175 -1.02503 0
M  V30 23208 N 2304.49 -5.53069 -1.00356 0
M  V30 23209 H 2296.64 -2.02178 0.650978 0
M  V30 23210 H 2298.9 -0.919575 0.230403 0
M  V30 23211 H 2298.61 -3.50671 0.268788 0
M  V30 23212 H 2298.48 -3.46908 -1.48104 0
M  V30 23213 H 2300.87 -2.48365 -1.5937 0
M  V30 23214 H 2300.95 -2.55217 0.172534 0
M  V30 23215 H 2300.6 -5.07854 0.0685647 0
M  V30 23216 H 2300.53 -4.98101 -1.7089 0
M  V30 23217 H 2303.02 -3.68501 -0.837592 0
M  V30 23218 H 2303.33 -7.64967 -1.09752 0
M  V30 23219 H 2301.68 -6.87856 -0.993905 0
M  V30 23220 H 2304.87 -4.58251 -0.955189 0
M  V30 23221 H 2305.04 -6.39039 -1.07394 0
M  V30 23222 N 2298.45 0.473929 -1.50305 0
M  V30 23223 C 2299.69 1.22803 -1.61391 0
M  V30 23224 C 2300.02 1.91678 -0.311989 0
M  V30 23225 O 2299.3 1.81988 0.686352 0
M  V30 23226 C 2299.58 2.27391 -2.79223 0
M  V30 23227 C 2299.44 1.62841 -4.19289 0
M  V30 23228 C 2300.75 3.28727 -2.9262 0
M  V30 23229 H 2297.87 0.445109 -0.587407 0
M  V30 23230 H 2300.52 0.522233 -1.82682 0
M  V30 23231 H 2298.67 2.87588 -2.612 0
M  V30 23232 H 2300.34 1.06263 -4.48894 0
M  V30 23233 H 2298.58 0.931618 -4.23678 0
M  V30 23234 H 2299.25 2.3883 -4.97659 0
M  V30 23235 H 2301.73 2.78551 -3.0911 0
M  V30 23236 H 2300.6 3.99239 -3.76695 0
M  V30 23237 H 2300.86 3.9268 -2.03114 0
M  V30 23238 N 2299.92 1.39835 0.726907 0
M  V30 23239 C 2301.2 1.28004 1.479 0
M  V30 23240 C 2301.58 -0.106752 2.1083 0
M  V30 23241 O 2300.93 -1.11866 1.99244 0
M  V30 23242 C 2301.14 2.41042 2.52388 0
M  V30 23243 C 2302.49 2.80743 3.18541 0
M  V30 23244 O 2303.51 2.40552 2.62704 0
M  V30 23245 O 2302.37 3.50142 4.19598 0
M  V30 23246 H 2299.46 0.502074 0.657154 0
M  V30 23247 H 2302.01 1.51728 0.760044 0
M  V30 23248 H 2300.78 3.33718 2.04323 0
M  V30 23249 H 2300.4 2.19027 3.31833 0
M  V30 23250 N 2301.4 -0.957948 1.25144 0
M  V30 23251 C 2302.63 -1.74221 1.12524 0
M  V30 23252 C 2303.05 -1.85403 -0.317369 0
M  V30 23253 O 2302.41 -1.33206 -1.22988 0
M  V30 23254 C 2302.46 -3.13567 1.78068 0
M  V30 23255 O 2301.56 -3.98596 1.05807 0
M  V30 23256 H 2300.9 -0.535171 0.393049 0
M  V30 23257 H 2303.43 -1.20097 1.65644 0
M  V30 23258 H 2303.44 -3.64043 1.84219 0
M  V30 23259 H 2302.12 -3.04744 2.83026 0
M  V30 23260 H 2300.69 -3.57065 1.07512 0
M  V30 23261 N 2302.88 -1.06677 -1.16008 0
M  V30 23262 C 2303.79 -0.692218 -2.24155 0
M  V30 23263 C 2304.81 0.293483 -1.71507 0
M  V30 23264 O 2305.98 0.141826 -2.009 0
M  V30 23265 C 2303.05 -0.0884741 -3.46587 0
M  V30 23266 C 2302.11 -1.12654 -4.14255 0
M  V30 23267 C 2301.34 -0.551509 -5.30843 0
M  V30 23268 O 2301.56 0.634556 -5.66859 0
M  V30 23269 O 2300.5 -1.29308 -5.87846 0
M  V30 23270 H 2304.32 -1.59392 -2.58511 0
M  V30 23271 H 2301.91 -0.839282 -1.23598 0
M  V30 23272 H 2303.79 0.246287 -4.2068 0
M  V30 23273 H 2302.47 0.786657 -3.13996 0
M  V30 23274 H 2301.37 -1.51354 -3.42115 0
M  V30 23275 H 2302.71 -1.97333 -4.50911 0
M  V30 23276 N 2304.36 1.32719 -0.8499 0
M  V30 23277 C 2305.77 1.79706 -0.50622 0
M  V30 23278 C 2306.12 1.70225 0.975597 0
M  V30 23279 O 2305.24 1.25802 1.76076 0
M  V30 23280 C 2305.84 3.26292 -0.912101 0
M  V30 23281 C 2304.4 3.71252 -0.620392 0
M  V30 23282 C 2303.55 2.5392 -1.11444 0
M  V30 23283 H 2306.5 1.20085 -1.03756 0
M  V30 23284 H 2306.52 3.79825 -0.22656 0
M  V30 23285 H 2306.03 3.3316 -1.99063 0
M  V30 23286 H 2304.13 3.69902 0.447609 0
M  V30 23287 H 2304.24 4.64256 -1.18335 0
M  V30 23288 H 2302.61 2.4902 -0.534878 0
M  V30 23289 H 2303.39 2.63546 -2.19997 0
M  V30 23290 N 2305.84 0.60738 1.45426 0
M  V30 23291 C 2306.77 -0.0988942 2.3329 0
M  V30 23292 C 2307.75 -0.858981 1.46818 0
M  V30 23293 O 2308.93 -0.829573 1.7559 0
M  V30 23294 C 2306.06 -1.09699 3.2952 0
M  V30 23295 C 2305.02 -0.450131 4.25626 0
M  V30 23296 C 2304.34 -1.55646 5.11545 0
M  V30 23297 C 2305.64 0.628546 5.18504 0
M  V30 23298 H 2307.34 0.634767 2.92594 0
M  V30 23299 H 2304.88 0.306706 1.40696 0
M  V30 23300 H 2306.84 -1.59964 3.89858 0
M  V30 23301 H 2305.56 -1.86124 2.68375 0
M  V30 23302 H 2304.22 0.0316531 3.66586 0
M  V30 23303 H 2303.87 -2.31099 4.46769 0
M  V30 23304 H 2303.57 -1.12915 5.76649 0
M  V30 23305 H 2305.09 -2.06138 5.74752 0
M  V30 23306 H 2306.5 0.209978 5.72915 0
M  V30 23307 H 2304.9 0.977593 5.92084 0
M  V30 23308 H 2305.97 1.50522 4.60946 0
M  V30 23309 N 2307.31 -1.53743 0.34653 0
M  V30 23310 C 2308.28 -2.2376 -0.4964 0
M  V30 23311 C 2309.28 -1.23882 -1.02517 0
M  V30 23312 O 2310.47 -1.48299 -0.913948 0
M  V30 23313 C 2307.6 -2.95956 -1.69182 0
M  V30 23314 H 2308.79 -2.99676 0.116004 0
M  V30 23315 H 2306.35 -1.55993 0.0979213 0
M  V30 23316 H 2307.08 -2.24236 -2.34284 0
M  V30 23317 H 2306.87 -3.69219 -1.31983 0
M  V30 23318 H 2308.36 -3.49236 -2.28963 0
M  V30 23319 N 2308.79 -0.0752207 -1.5742 0
M  V30 23320 C 2310.02 0.60548 -1.98365 0
M  V30 23321 C 2310.44 1.62147 -0.953412 0
M  V30 23322 O 2309.8 1.81121 0.0805734 0
M  V30 23323 C 2309.85 1.2475 -3.38334 0
M  V30 23324 O 2308.95 2.36336 -3.37963 0
M  V30 23325 H 2308.29 0.155417 -0.645555 0
M  V30 23326 H 2310.82 -0.15075 -2.04044 0
M  V30 23327 H 2310.83 1.59353 -3.75594 0
M  V30 23328 H 2309.51 0.503056 -4.12846 0
M  V30 23329 H 2308.09 2.03501 -3.12477 0
M  V30 23330 N 2310.27 1.56347 0.198358 0
M  V30 23331 C 2311.2 1.97312 1.24861 0
M  V30 23332 C 2312.18 0.844602 1.4765 0
M  V30 23333 O 2313.37 1.10868 1.59442 0
M  V30 23334 C 2310.5 2.30982 2.59354 0
M  V30 23335 C 2309.45 3.46541 2.51183 0
M  V30 23336 C 2308.78 3.65878 3.8992 0
M  V30 23337 C 2310.08 4.80826 2.03969 0
M  V30 23338 H 2311.77 2.85293 0.908202 0
M  V30 23339 H 2309.32 1.37259 0.435438 0
M  V30 23340 H 2311.27 2.58234 3.33006 0
M  V30 23341 H 2309.99 1.3988 2.95129 0
M  V30 23342 H 2308.65 3.19374 1.79988 0
M  V30 23343 H 2308.3 2.72112 4.23041 0
M  V30 23344 H 2308 4.43617 3.85328 0
M  V30 23345 H 2309.52 3.95503 4.65198 0
M  V30 23346 H 2310.94 5.07132 2.67377 0
M  V30 23347 H 2309.34 5.62012 2.10387 0
M  V30 23348 H 2310.41 4.74628 0.992778 0
M  V30 23349 N 2311.75 -0.465951 1.50554 0
M  V30 23350 C 2312.98 -1.2408 1.65565 0
M  V30 23351 C 2313.39 -1.85693 0.341083 0
M  V30 23352 O 2312.75 -1.69458 -0.677513 0
M  V30 23353 C 2312.8 -2.34578 2.75055 0
M  V30 23354 O 2312.52 -1.7549 4.01416 0
M  V30 23355 C 2314.02 -3.25366 3.01084 0
M  V30 23356 H 2311.24 -0.375067 0.556386 0
M  V30 23357 H 2313.79 -0.55559 1.96808 0
M  V30 23358 H 2311.94 -2.98866 2.46492 0
M  V30 23359 H 2312.35 -2.48295 4.62006 0
M  V30 23360 H 2313.83 -3.99098 3.81346 0
M  V30 23361 H 2314.31 -3.8445 2.12356 0
M  V30 23362 H 2314.91 -2.6681 3.31198 0
M  V30 23363 N 2313.23 -1.40218 -0.719481 0
M  V30 23364 C 2314.16 -1.42925 -1.84647 0
M  V30 23365 C 2315.14 -0.290649 -1.67598 0
M  V30 23366 O 2316.32 -0.49871 -1.87687 0
M  V30 23367 C 2313.45 -1.28728 -3.22562 0
M  V30 23368 C 2312.41 -2.4015 -3.54277 0
M  V30 23369 C 2311.73 -2.11032 -4.91294 0
M  V30 23370 C 2313.03 -3.82487 -3.5567 0
M  V30 23371 H 2314.73 -2.37241 -1.8264 0
M  V30 23372 H 2312.27 -1.14192 -0.877285 0
M  V30 23373 H 2314.23 -1.29239 -4.01093 0
M  V30 23374 H 2312.95 -0.308868 -3.25136 0
M  V30 23375 H 2311.61 -2.38882 -2.78084 0
M  V30 23376 H 2311.26 -1.11591 -4.90466 0
M  V30 23377 H 2310.96 -2.85679 -5.1348 0
M  V30 23378 H 2312.48 -2.13219 -5.72163 0
M  V30 23379 H 2313.89 -3.856 -4.24247 0
M  V30 23380 H 2312.29 -4.56621 -3.8938 0
M  V30 23381 H 2313.36 -4.12351 -2.55137 0
M  V30 23382 N 2314.7 0.951297 -1.25651 0
M  V30 23383 C 2315.65 2.03405 -1.03008 0
M  V30 23384 C 2316.64 1.60864 0.0341587 0
M  V30 23385 O 2317.83 1.76066 -0.18158 0
M  V30 23386 C 2314.96 3.37007 -0.654314 0
M  V30 23387 C 2314.05 3.86062 -1.75548 0
M  V30 23388 N 2314.44 4.07874 -2.9912 0
M  V30 23389 C 2312.73 4.14881 -1.63676 0
M  V30 23390 C 2313.44 4.48349 -3.70618 0
M  V30 23391 N 2312.41 4.54472 -2.98255 0
M  V30 23392 H 2316.21 2.18267 -1.96817 0
M  V30 23393 H 2313.73 1.13637 -1.16019 0
M  V30 23394 H 2315.72 4.14205 -0.473279 0
M  V30 23395 H 2314.38 3.23521 0.276411 0
M  V30 23396 H 2315.4 3.94852 -3.35131 0
M  V30 23397 H 2312.07 4.10239 -0.775234 0
M  V30 23398 H 2313.46 4.73501 -4.76704 0
M  V30 23399 N 2316.18 1.07291 1.1544 0
M  V30 23400 C 2317.11 0.714146 2.22311 0
M  V30 23401 C 2318.09 -0.298126 1.67467 0
M  V30 23402 O 2319.28 -0.171014 1.93446 0
M  V30 23403 C 2316.41 0.110509 3.47124 0
M  V30 23404 C 2315.36 1.04987 4.14924 0
M  V30 23405 C 2314.69 0.309018 5.33806 0
M  V30 23406 C 2315.99 2.38322 4.64758 0
M  V30 23407 H 2317.68 1.60765 2.52577 0
M  V30 23408 H 2315.23 0.774431 1.21402 0
M  V30 23409 H 2317.18 -0.152408 4.21124 0
M  V30 23410 H 2315.91 -0.818065 3.16189 0
M  V30 23411 H 2314.56 1.2977 3.42864 0
M  V30 23412 H 2314.21 -0.622997 4.99127 0
M  V30 23413 H 2313.91 0.935138 5.80111 0
M  V30 23414 H 2315.44 0.0538844 6.10576 0
M  V30 23415 H 2316.85 2.17869 5.30289 0
M  V30 23416 H 2315.25 2.96523 5.21722 0
M  V30 23417 H 2316.32 3.00669 3.80429 0
M  V30 23418 N 2317.66 -1.32267 0.856927 0
M  V30 23419 C 2318.91 -1.96783 0.460509 0
M  V30 23420 C 2319.23 -1.68137 -0.987672 0
M  V30 23421 O 2318.5 -0.989795 -1.69056 0
M  V30 23422 H 2317.08 -0.728024 0.167302 0
M  V30 23423 H 2319.74 -1.6131 1.09385 0
M  V30 23424 H 2318.84 -3.06132 0.607443 0
M  V30 23425 N 2319.14 -0.615084 -1.45102 0
M  V30 23426 C 2320.36 -0.118025 -2.07064 0
M  V30 23427 C 2320.79 1.1916 -1.45542 0
M  V30 23428 O 2320.15 1.72728 -0.550885 0
M  V30 23429 C 2320.19 0.000225002 -3.606 0
M  V30 23430 O 2319.3 1.04849 -3.98849 0
M  V30 23431 H 2318.64 -0.0774697 -0.659465 0
M  V30 23432 H 2321.17 -0.847218 -1.86235 0
M  V30 23433 H 2321.18 0.196019 -4.07529 0
M  V30 23434 H 2319.85 -0.956003 -4.04763 0
M  V30 23435 H 2318.43 0.828555 -3.63579 0
M  V30 23436 N 2320.62 1.53557 -0.354678 0
M  V30 23437 C 2322.03 1.596 -0.00318231 0
M  V30 23438 C 2322.23 1.37024 1.47738 0
M  V30 23439 O 2321.29 1.17 2.23757 0
M  V30 23440 C 2322.6 2.97324 -0.449342 0
M  V30 23441 C 2324.15 3.104 -0.402632 0
M  V30 23442 C 2324.63 4.50519 -0.824434 0
M  V30 23443 N 2326.12 4.56601 -0.779059 0
M  V30 23444 C 2326.85 5.6319 -1.07725 0
M  V30 23445 N 2326.35 6.77581 -1.44417 0
M  V30 23446 N 2328.14 5.5312 -1.00076 0
M  V30 23447 H 2320.29 1.66485 -1.31896 0
M  V30 23448 H 2322.55 0.780274 -0.538402 0
M  V30 23449 H 2322.26 3.18947 -1.48208 0
M  V30 23450 H 2322.13 3.76818 0.169706 0
M  V30 23451 H 2324.52 2.88493 0.620954 0
M  V30 23452 H 2324.6 2.32939 -1.05703 0
M  V30 23453 H 2324.25 4.73162 -1.84608 0
M  V30 23454 H 2324.18 5.26394 -0.147397 0
M  V30 23455 H 2326.67 3.74462 -0.508594 0
M  V30 23456 H 2326.98 7.54843 -1.65625 0
M  V30 23457 H 2325.33 6.78999 -1.48272 0
M  V30 23458 H 2328.52 4.62632 -0.713374 0
M  V30 23459 H 2328.69 6.36093 -1.23649 0
M  V30 23460 N 2322.1 0.083568 1.57378 0
M  V30 23461 C 2323.03 -0.876822 2.16412 0
M  V30 23462 C 2324.01 -1.30226 1.09431 0
M  V30 23463 O 2325.19 -1.37121 1.37519 0
M  V30 23464 C 2322.32 -2.14017 2.73521 0
M  V30 23465 C 2321.28 -1.85375 3.85772 0
M  V30 23466 C 2320.6 -3.1844 4.29534 0
M  V30 23467 C 2321.9 -1.14975 5.09488 0
M  V30 23468 H 2323.6 -0.385006 2.96914 0
M  V30 23469 H 2321.14 -0.183745 1.42823 0
M  V30 23470 H 2323.09 -2.81631 3.13468 0
M  V30 23471 H 2321.82 -2.65462 1.90257 0
M  V30 23472 H 2320.48 -1.20163 3.46347 0
M  V30 23473 H 2320.13 -3.67749 3.43176 0
M  V30 23474 H 2319.83 -3.00063 5.05209 0
M  V30 23475 H 2321.35 -3.87231 4.72106 0
M  V30 23476 H 2322.76 -1.72677 5.46677 0
M  V30 23477 H 2321.16 -1.06816 5.90517 0
M  V30 23478 H 2322.23 -0.130663 4.84724 0
M  V30 23479 N 2323.57 -1.5645 -0.190064 0
M  V30 23480 C 2324.82 -1.81186 -0.911021 0
M  V30 23481 C 2325.15 -0.658428 -1.82697 0
M  V30 23482 O 2324.43 0.340741 -1.91492 0
M  V30 23483 C 2324.71 -3.16208 -1.72291 0
M  V30 23484 C 2324.56 -4.42051 -0.831341 0
M  V30 23485 C 2325.88 -3.47974 -2.69448 0
M  V30 23486 H 2323 -0.659112 -0.329758 0
M  V30 23487 H 2325.64 -1.89163 -0.178135 0
M  V30 23488 H 2323.79 -3.09539 -2.34773 0
M  V30 23489 H 2325.47 -4.60771 -0.220848 0
M  V30 23490 H 2323.71 -4.33579 -0.13833 0
M  V30 23491 H 2324.38 -5.33034 -1.43451 0
M  V30 23492 H 2326.86 -3.54976 -2.17097 0
M  V30 23493 H 2325.73 -4.43561 -3.23334 0
M  V30 23494 H 2325.99 -2.71723 -3.48739 0
M  V30 23495 N 2325.05 0.45796 -1.50799 0
M  V30 23496 C 2326.01 1.53671 -1.70053 0
M  V30 23497 C 2327.01 1.50324 -0.570908 0
M  V30 23498 O 2328.2 1.52711 -0.838153 0
M  V30 23499 C 2325.34 2.93273 -1.73793 0
M  V30 23500 H 2326.53 1.37912 -2.66309 0
M  V30 23501 H 2324.08 0.685246 -1.40478 0
M  V30 23502 H 2324.82 3.14461 -0.792773 0
M  V30 23503 H 2324.6 2.97108 -2.55869 0
M  V30 23504 H 2326.09 3.71567 -1.90598 0
M  V30 23505 N 2326.53 1.40598 0.712035 0
M  V30 23506 C 2327.75 1.42584 1.50614 0
M  V30 23507 C 2328.18 0.0282432 1.88079 0
M  V30 23508 O 2327.54 -0.964552 1.53512 0
M  V30 23509 C 2327.59 2.32585 2.75566 0
M  V30 23510 O 2326.69 1.77154 3.72411 0
M  V30 23511 H 2326.03 0.484581 0.453957 0
M  V30 23512 H 2328.56 1.84869 0.876616 0
M  V30 23513 H 2328.57 2.47894 3.24056 0
M  V30 23514 H 2327.25 3.34142 2.47633 0
M  V30 23515 H 2325.82 1.7121 3.31273 0
M  V30 23516 N 2328.01 -0.94462 1.26153 0
M  V30 23517 C 2329.23 -1.73018 1.14366 0
M  V30 23518 C 2329.66 -1.85729 -0.297687 0
M  V30 23519 O 2329.02 -1.34503 -1.21568 0
M  V30 23520 C 2329.06 -3.11661 1.81384 0
M  V30 23521 O 2328.17 -3.97451 1.10029 0
M  V30 23522 H 2327.51 -0.530973 0.398703 0
M  V30 23523 H 2330.04 -1.18334 1.66908 0
M  V30 23524 H 2330.05 -3.62069 1.8807 0
M  V30 23525 H 2328.72 -3.01725 2.86243 0
M  V30 23526 H 2327.3 -3.55905 1.11293 0
M  V30 23527 N 2329.49 -1.07901 -1.1487 0
M  V30 23528 C 2330.42 -0.66227 -2.19423 0
M  V30 23529 C 2331.43 0.288051 -1.60231 0
M  V30 23530 O 2332.62 0.0765027 -1.78336 0
M  V30 23531 C 2329.72 0.04701 -3.38867 0
M  V30 23532 C 2328.89 -0.920906 -4.27596 0
M  V30 23533 C 2327.95 -0.247897 -5.25616 0
M  V30 23534 O 2326.98 -0.890698 -5.62188 0
M  V30 23535 N 2328.18 1.00425 -5.71747 0
M  V30 23536 H 2330.94 -1.56171 -2.55794 0
M  V30 23537 H 2328.51 -0.964427 -1.3004 0
M  V30 23538 H 2330.5 0.508059 -4.01498 0
M  V30 23539 H 2329.07 0.84847 -3.00865 0
M  V30 23540 H 2328.29 -1.56093 -3.61979 0
M  V30 23541 H 2329.58 -1.57697 -4.83745 0
M  V30 23542 H 2328.97 1.54633 -5.44155 0
M  V30 23543 H 2327.53 1.40888 -6.36391 0
M  V30 23544 N 2330.96 1.31811 -0.863929 0
M  V30 23545 C 2332.37 1.79159 -0.525252 0
M  V30 23546 C 2332.73 1.7125 0.957488 0
M  V30 23547 O 2331.85 1.27662 1.74732 0
M  V30 23548 C 2332.45 3.25306 -0.946657 0
M  V30 23549 C 2331 3.70573 -0.659733 0
M  V30 23550 C 2330.15 2.52724 -1.14131 0
M  V30 23551 H 2333.1 1.18978 -1.05024 0
M  V30 23552 H 2333.12 3.79563 -0.266833 0
M  V30 23553 H 2332.64 3.3103 -2.02585 0
M  V30 23554 H 2330.74 3.70356 0.40835 0
M  V30 23555 H 2330.85 4.62975 -1.23253 0
M  V30 23556 H 2329.21 2.48439 -0.561259 0
M  V30 23557 H 2330 2.61198 -2.2278 0
M  V30 23558 N 2332.44 0.62277 1.44773 0
M  V30 23559 C 2333.37 -0.125445 2.28856 0
M  V30 23560 C 2334.39 -0.817044 1.40813 0
M  V30 23561 O 2335.58 -0.679889 1.65045 0
M  V30 23562 C 2332.68 -1.19944 3.16965 0
M  V30 23563 C 2331.85 -0.591988 4.33375 0
M  V30 23564 C 2330.91 -1.55884 5.0258 0
M  V30 23565 O 2329.93 -1.07923 5.58875 0
M  V30 23566 N 2331.14 -2.89325 5.03261 0
M  V30 23567 H 2333.9 0.596119 2.93712 0
M  V30 23568 H 2331.46 0.46333 1.55129 0
M  V30 23569 H 2333.45 -1.84638 3.60126 0
M  V30 23570 H 2332.02 -1.82333 2.53916 0
M  V30 23571 H 2331.24 0.233391 3.93508 0
M  V30 23572 H 2332.53 -0.166649 5.08527 0
M  V30 23573 H 2331.93 -3.30879 4.58842 0
M  V30 23574 H 2330.49 -3.49402 5.50238 0
M  V30 23575 N 2333.92 -1.53367 0.362817 0
M  V30 23576 C 2335.17 -2.00818 -0.22729 0
M  V30 23577 C 2335.49 -1.25188 -1.49509 0
M  V30 23578 O 2334.76 -0.364382 -1.92481 0
M  V30 23579 H 2333.34 -0.741919 -0.0869792 0
M  V30 23580 H 2336 -1.88681 0.488414 0
M  V30 23581 H 2335.1 -3.08748 -0.456219 0
M  V30 23582 N 2335.4 -0.091913 -1.57332 0
M  V30 23583 C 2336.36 0.853653 -2.1271 0
M  V30 23584 C 2337.36 1.21298 -1.05563 0
M  V30 23585 O 2338.55 1.14294 -1.31463 0
M  V30 23586 C 2335.68 2.15056 -2.64506 0
M  V30 23587 H 2336.88 0.372848 -2.97573 0
M  V30 23588 H 2334.43 0.157045 -1.55509 0
M  V30 23589 H 2335.16 2.67629 -1.83154 0
M  V30 23590 H 2334.95 1.90266 -3.42843 0
M  V30 23591 H 2336.44 2.82705 -3.07356 0
M  V30 23592 N 2336.88 1.56548 0.181765 0
M  V30 23593 C 2338.29 1.71183 0.745214 0
M  V30 23594 C 2338.64 0.700712 1.83261 0
M  V30 23595 O 2337.76 -0.140116 2.15946 0
M  V30 23596 C 2338.36 3.1037 1.35853 0
M  V30 23597 C 2336.92 3.26724 1.86892 0
M  V30 23598 C 2336.06 2.67136 0.743895 0
M  V30 23599 H 2339.02 1.5864 -0.043494 0
M  V30 23600 H 2339.04 3.0844 2.22812 0
M  V30 23601 H 2338.55 3.83938 0.566881 0
M  V30 23602 H 2336.65 2.58095 2.68734 0
M  V30 23603 H 2336.76 4.34362 2.02154 0
M  V30 23604 H 2335.13 2.26667 1.16165 0
M  V30 23605 H 2335.91 3.43281 -0.0357364 0
M  V30 23606 N 2338.35 -0.449957 1.5104 0
M  V30 23607 C 2339.32 -1.52767 1.70865 0
M  V30 23608 C 2340.32 -1.50019 0.578872 0
M  V30 23609 O 2341.51 -1.52264 0.84624 0
M  V30 23610 C 2338.64 -2.92347 1.75346 0
M  V30 23611 H 2339.83 -1.36498 2.67036 0
M  V30 23612 H 2337.39 -0.677787 1.40839 0
M  V30 23613 H 2338.12 -3.14036 0.809438 0
M  V30 23614 H 2337.91 -2.95747 2.57441 0
M  V30 23615 H 2339.4 -3.70551 1.92566 0
M  V30 23616 N 2339.83 -1.40974 -0.704569 0
M  V30 23617 C 2340.74 -1.44452 -1.84854 0
M  V30 23618 C 2341.76 -0.335991 -1.70725 0
M  V30 23619 O 2342.93 -0.58231 -1.92798 0
M  V30 23620 C 2340 -1.31593 -3.20756 0
M  V30 23621 C 2339.06 -2.52683 -3.47058 0
M  V30 23622 C 2338.29 -2.40429 -4.76476 0
M  V30 23623 O 2338.52 -1.424 -5.52339 0
M  V30 23624 O 2337.45 -3.30016 -5.03362 0
M  V30 23625 H 2341.28 -2.40945 -1.84876 0
M  V30 23626 H 2338.86 -1.22415 -0.856449 0
M  V30 23627 H 2340.74 -1.26672 -4.01911 0
M  V30 23628 H 2339.42 -0.382105 -3.21437 0
M  V30 23629 H 2338.33 -2.63182 -2.65869 0
M  V30 23630 H 2339.66 -3.44864 -3.51184 0
M  V30 23631 N 2341.31 0.937917 -1.26653 0
M  V30 23632 C 2342.72 1.49932 -1.11253 0
M  V30 23633 C 2343.07 1.93798 0.306043 0
M  V30 23634 O 2342.2 1.80221 1.19789 0
M  V30 23635 C 2342.79 2.72482 -2.01343 0
M  V30 23636 C 2341.35 3.24879 -1.9008 0
M  V30 23637 C 2340.5 1.97648 -1.94501 0
M  V30 23638 H 2343.45 0.753067 -1.39695 0
M  V30 23639 H 2343.47 3.46905 -1.56325 0
M  V30 23640 H 2342.98 2.40524 -3.04581 0
M  V30 23641 H 2341.08 3.6162 -0.89789 0
M  V30 23642 H 2341.2 3.91765 -2.75785 0
M  V30 23643 H 2339.56 2.1369 -1.38595 0
M  V30 23644 H 2340.34 1.68017 -2.99375 0
M  V30 23645 N 2342.79 1.08509 1.14296 0
M  V30 23646 C 2343.74 0.685607 2.17448 0
M  V30 23647 C 2344.72 -0.295288 1.58167 0
M  V30 23648 O 2345.91 -0.107141 1.76675 0
M  V30 23649 C 2343.04 0.0975921 3.43161 0
M  V30 23650 C 2342.13 1.10434 4.09469 0
M  V30 23651 N 2342.52 2.28813 4.51085 0
M  V30 23652 C 2340.82 0.940335 4.35974 0
M  V30 23653 C 2341.52 2.92779 5.02649 0
M  V30 23654 N 2340.5 2.20383 4.96923 0
M  V30 23655 H 2344.3 1.58705 2.47366 0
M  V30 23656 H 2341.81 0.959959 1.30991 0
M  V30 23657 H 2343.81 -0.206567 4.16388 0
M  V30 23658 H 2342.47 -0.798816 3.14721 0
M  V30 23659 H 2343.48 2.66463 4.44092 0
M  V30 23660 H 2340.16 0.0978175 4.17385 0
M  V30 23661 H 2341.55 3.93362 5.44716 0
M  V30 23662 N 2344.27 -1.31351 0.870907 0
M  V30 23663 C 2345.52 -1.95943 0.478443 0
M  V30 23664 C 2345.83 -1.69598 -0.974463 0
M  V30 23665 O 2347.03 -2.2806 -1.47312 0
M  V30 23666 C 2345.49 -3.50789 0.804671 0
M  V30 23667 C 2345.1 -3.85973 2.2744 0
M  V30 23668 C 2346.84 -4.21769 0.480722 0
M  V30 23669 C 2344.75 -5.33934 2.54299 0
M  V30 23670 H 2343.68 -0.733366 0.175188 0
M  V30 23671 H 2346.33 -1.49508 1.06394 0
M  V30 23672 H 2344.71 -3.95722 0.148417 0
M  V30 23673 H 2345.89 -3.51997 2.9738 0
M  V30 23674 H 2344.2 -3.2806 2.56448 0
M  V30 23675 H 2346.8 -5.30628 0.658612 0
M  V30 23676 H 2347.14 -4.12255 -0.578907 0
M  V30 23677 H 2347.67 -3.82474 1.09356 0
M  V30 23678 H 2344.41 -5.48485 3.58949 0
M  V30 23679 H 2343.93 -5.69259 1.88955 0
M  V30 23680 H 2345.61 -6.01208 2.39077 0
M  V30 23681 N 2345.74 -0.630439 -1.44441 0
M  V30 23682 C 2346.69 0.0967703 -2.27795 0
M  V30 23683 C 2347.68 0.81681 -1.38625 0
M  V30 23684 O 2348.87 0.703031 -1.62439 0
M  V30 23685 C 2346 1.07813 -3.25931 0
M  V30 23686 C 2345.09 0.357752 -4.22588 0
M  V30 23687 N 2345.48 -0.613258 -5.02069 0
M  V30 23688 C 2343.77 0.602287 -4.41915 0
M  V30 23689 C 2344.48 -1.03881 -5.72349 0
M  V30 23690 N 2343.45 -0.377737 -5.42286 0
M  V30 23691 H 2347.25 -0.648672 -2.86652 0
M  V30 23692 H 2344.77 -0.455889 -1.5587 0
M  V30 23693 H 2346.76 1.61371 -3.84402 0
M  V30 23694 H 2345.42 1.82388 -2.68635 0
M  V30 23695 H 2346.44 -0.991036 -5.0833 0
M  V30 23696 H 2343.11 1.33096 -3.95717 0
M  V30 23697 H 2344.5 -1.84097 -6.46187 0
M  V30 23698 N 2347.22 1.53172 -0.370945 0
M  V30 23699 C 2348.47 2.01632 0.217388 0
M  V30 23700 C 2348.8 1.25759 1.47981 0
M  V30 23701 O 2348.08 0.352798 1.91274 0
M  V30 23702 C 2348.36 3.56557 0.503919 0
M  V30 23703 C 2348.21 4.43117 -0.772508 0
M  V30 23704 C 2349.53 4.20392 1.30226 0
M  V30 23705 H 2346.65 0.73291 0.0775357 0
M  V30 23706 H 2349.29 1.83387 -0.496895 0
M  V30 23707 H 2347.44 3.72233 1.11241 0
M  V30 23708 H 2349.11 4.39227 -1.40987 0
M  V30 23709 H 2347.36 4.10869 -1.39174 0
M  V30 23710 H 2348.03 5.49479 -0.526911 0
M  V30 23711 H 2350.5 4.08581 0.787474 0
M  V30 23712 H 2349.38 5.28808 1.47149 0
M  V30 23713 H 2349.64 3.76809 2.31231 0
M  V30 23714 N 2348.7 0.100255 1.57281 0
M  V30 23715 C 2349.63 -0.853819 2.1733 0
M  V30 23716 C 2350.61 -1.29058 1.10806 0
M  V30 23717 O 2351.8 -1.35655 1.38966 0
M  V30 23718 C 2348.93 -2.11104 2.75776 0
M  V30 23719 C 2347.88 -1.81273 3.87717 0
M  V30 23720 C 2347.21 -3.13867 4.32888 0
M  V30 23721 C 2348.51 -1.09565 5.10679 0
M  V30 23722 H 2350.2 -0.353493 2.97306 0
M  V30 23723 H 2347.75 -0.168587 1.4301 0
M  V30 23724 H 2349.7 -2.7829 3.16437 0
M  V30 23725 H 2348.42 -2.63429 1.93061 0
M  V30 23726 H 2347.08 -1.16483 3.47602 0
M  V30 23727 H 2346.73 -3.64089 3.47057 0
M  V30 23728 H 2346.43 -2.94687 5.08363 0
M  V30 23729 H 2347.95 -3.82202 4.76187 0
M  V30 23730 H 2349.37 -1.66869 5.48477 0
M  V30 23731 H 2347.77 -1.00546 5.91617 0
M  V30 23732 H 2348.84 -0.0792447 4.84835 0
M  V30 23733 N 2350.18 -1.56643 -0.17346 0
M  V30 23734 C 2351.14 -1.95364 -1.19856 0
M  V30 23735 C 2352.14 -0.837064 -1.37295 0
M  V30 23736 O 2353.33 -1.10415 -1.34737 0
M  V30 23737 C 2350.46 -2.24658 -2.56401 0
M  V30 23738 H 2351.66 -2.87094 -0.867012 0
M  V30 23739 H 2349.21 -1.50667 -0.415827 0
M  V30 23740 H 2349.95 -1.35636 -2.94573 0
M  V30 23741 H 2349.73 -3.06045 -2.4511 0
M  V30 23742 H 2351.22 -2.55546 -3.30282 0
M  V30 23743 N 2351.66 0.44194 -1.51277 0
M  V30 23744 C 2352.88 1.21892 -1.67801 0
M  V30 23745 C 2353.31 1.84367 -0.372896 0
M  V30 23746 O 2352.67 1.68606 0.666471 0
M  V30 23747 C 2352.71 2.28206 -2.79203 0
M  V30 23748 O 2351.82 3.33579 -2.42485 0
M  V30 23749 H 2351.16 0.357326 -0.559655 0
M  V30 23750 H 2353.69 0.522487 -1.97816 0
M  V30 23751 H 2353.7 2.73064 -3.03151 0
M  V30 23752 H 2352.37 1.82111 -3.7391 0
M  V30 23753 H 2350.95 2.9423 -2.29092 0
M  V30 23754 N 2353.14 1.41345 0.697083 0
M  V30 23755 C 2354.55 1.36202 1.27695 0
M  V30 23756 C 2354.9 0.0443808 1.9615 0
M  V30 23757 O 2354.02 -0.857384 1.9869 0
M  V30 23758 C 2354.62 2.46698 2.32219 0
M  V30 23759 C 2353.18 2.44957 2.85785 0
M  V30 23760 C 2352.32 2.26623 1.59804 0
M  V30 23761 H 2355.27 1.50883 0.491942 0
M  V30 23762 H 2355.3 2.15669 3.13476 0
M  V30 23763 H 2354.81 3.42584 1.82367 0
M  V30 23764 H 2352.91 1.52823 3.39817 0
M  V30 23765 H 2353.02 3.41213 3.36319 0
M  V30 23766 H 2351.39 1.74473 1.85557 0
M  V30 23767 H 2352.17 3.24534 1.1195 0
M  V30 23768 N 2354.61 -0.931187 1.27148 0
M  V30 23769 C 2355.56 -2.05266 1.09402 0
M  V30 23770 C 2356.56 -1.6939 0.0180889 0
M  V30 23771 O 2357.76 -1.79142 0.175542 0
M  V30 23772 H 2354.14 -0.672262 0.336998 0
M  V30 23773 H 2356.11 -2.17382 2.0442 0
M  V30 23774 C 2354.86 -3.3942 0.754299 0
M  V30 23775 H 2354.18 -3.67508 1.57411 0
M  V30 23776 H 2355.62 -4.18673 0.669977 0
M  V30 23777 C 2354.08 -3.32526 -0.541138 0
M  V30 23778 O 2354.61 -3.69469 -1.57657 0
M  V30 23779 N 2352.81 -2.85624 -0.535467 0
M  V30 23780 H 2352.36 -2.55757 0.307556 0
M  V30 23781 H 2352.32 -2.81394 -1.40231 0
M  V30 23782 N 2356.09 -1.09114 -1.13719 0
M  V30 23783 C 2357.05 -0.73128 -2.17221 0
M  V30 23784 C 2358.05 0.237538 -1.59036 0
M  V30 23785 O 2359.24 0.0161398 -1.74193 0
M  V30 23786 C 2356.38 -0.0809042 -3.40804 0
M  V30 23787 H 2357.57 -1.64787 -2.5057 0
M  V30 23788 H 2355.12 -0.889919 -1.28492 0
M  V30 23789 H 2355.86 0.847072 -3.13042 0
M  V30 23790 H 2355.64 -0.777963 -3.84305 0
M  V30 23791 H 2357.13 0.155584 -4.1731 0
M  V30 23792 N 2357.57 1.30887 -0.877861 0
M  V30 23793 C 2358.5 2.3078 -0.355381 0
M  V30 23794 C 2359.48 1.60688 0.557965 0
M  V30 23795 O 2360.67 1.88344 0.473322 0
M  V30 23796 C 2357.8 3.44538 0.437161 0
M  V30 23797 C 2356.75 4.26276 -0.38379 0
M  V30 23798 C 2356.08 5.32018 0.534921 0
M  V30 23799 C 2357.38 4.96473 -1.6221 0
M  V30 23800 H 2359.07 2.7473 -1.19012 0
M  V30 23801 H 2356.62 1.32077 -0.573722 0
M  V30 23802 H 2358.57 4.13478 0.813261 0
M  V30 23803 H 2357.29 2.99374 1.30548 0
M  V30 23804 H 2355.95 3.59014 -0.741938 0
M  V30 23805 H 2355.6 4.83103 1.40074 0
M  V30 23806 H 2355.3 5.87599 -0.0105244 0
M  V30 23807 H 2356.82 6.03816 0.907693 0
M  V30 23808 H 2358.24 5.57968 -1.31699 0
M  V30 23809 H 2356.63 5.61887 -2.10721 0
M  V30 23810 H 2357.7 4.23006 -2.37052 0
M  V30 23811 N 2359.05 0.638091 1.44105 0
M  V30 23812 C 2360.46 0.304314 1.56672 0
M  V30 23813 C 2360.66 -1.19225 1.62442 0
M  V30 23814 O 2359.72 -1.97657 1.57124 0
M  V30 23815 C 2361.03 1.00236 2.83502 0
M  V30 23816 C 2362.58 0.981168 2.97224 0
M  V30 23817 C 2363.06 1.65982 4.26865 0
M  V30 23818 N 2364.55 1.62674 4.33695 0
M  V30 23819 C 2365.28 2.12072 5.32741 0
M  V30 23820 N 2364.78 2.69692 6.38152 0
M  V30 23821 N 2366.57 2.0266 5.24295 0
M  V30 23822 H 2358.72 1.60945 1.38602 0
M  V30 23823 H 2360.98 0.675977 0.66465 0
M  V30 23824 H 2360.69 2.05735 2.85247 0
M  V30 23825 H 2360.56 0.544456 3.7325 0
M  V30 23826 H 2362.95 -0.065367 2.95028 0
M  V30 23827 H 2363.03 1.47763 2.08806 0
M  V30 23828 H 2362.68 2.70584 4.29822 0
M  V30 23829 H 2362.61 1.13813 5.14154 0
M  V30 23830 H 2365.1 1.20612 3.58136 0
M  V30 23831 H 2365.41 3.05099 7.10024 0
M  V30 23832 H 2363.76 2.73746 6.38818 0
M  V30 23833 H 2366.95 1.57361 4.40857 0
M  V30 23834 H 2367.12 2.41468 6.0133 0
M  V30 23835 N 2360.53 -1.52973 0.379063 0
M  V30 23836 C 2361.77 -2.01744 -0.206692 0
M  V30 23837 C 2362.1 -1.26542 -1.47312 0
M  V30 23838 O 2361.38 -0.362937 -1.91084 0
M  V30 23839 C 2361.66 -3.56819 -0.485003 0
M  V30 23840 C 2361.52 -4.42701 0.795997 0
M  V30 23841 C 2362.83 -4.21076 -1.27995 0
M  V30 23842 H 2359.95 -0.733311 -0.0736478 0
M  V30 23843 H 2362.6 -1.83121 0.506613 0
M  V30 23844 H 2360.75 -3.72818 -1.09266 0
M  V30 23845 H 2362.42 -4.38473 1.43315 0
M  V30 23846 H 2360.66 -4.10125 1.41351 0
M  V30 23847 H 2361.33 -5.49192 0.556044 0
M  V30 23848 H 2363.81 -4.08992 -0.765795 0
M  V30 23849 H 2362.68 -5.29581 -1.44343 0
M  V30 23850 H 2362.94 -3.7803 -2.29229 0
M  V30 23851 N 2362 -0.108595 -1.57225 0
M  V30 23852 C 2363.28 0.594906 -1.86334 0
M  V30 23853 C 2363.66 1.85484 -1.00791 0
M  V30 23854 O 2363.01 2.28346 -0.0839694 0
M  V30 23855 C 2363.22 0.897346 -3.37267 0
M  V30 23856 C 2364.57 1.25494 -4.05631 0
M  V30 23857 O 2365.59 0.987938 -3.42225 0
M  V30 23858 O 2364.45 1.75558 -5.17534 0
M  V30 23859 H 2361.54 0.299087 -0.771023 0
M  V30 23860 H 2364.09 -0.142313 -1.69102 0
M  V30 23861 H 2362.86 0.00406928 -3.913 0
M  V30 23862 H 2362.48 1.69008 -3.59892 0
M  V30 23863 N 2363.48 1.56732 0.16515 0
M  V30 23864 C 2364.73 1.81534 0.879111 0
M  V30 23865 C 2365.04 0.686874 1.83143 0
M  V30 23866 O 2366.25 0.819989 2.58821 0
M  V30 23867 C 2364.71 3.21689 1.61382 0
M  V30 23868 C 2364.31 4.42421 0.704826 0
M  V30 23869 C 2366.06 3.55778 2.31564 0
M  V30 23870 C 2363.96 5.73598 1.44012 0
M  V30 23871 H 2362.89 0.676963 0.332021 0
M  V30 23872 H 2365.55 1.83025 0.131976 0
M  V30 23873 H 2363.93 3.14533 2.40593 0
M  V30 23874 H 2365.1 4.60772 -0.0507625 0
M  V30 23875 H 2363.42 4.16248 0.112346 0
M  V30 23876 H 2366.01 4.51033 2.87182 0
M  V30 23877 H 2366.36 2.80956 3.07196 0
M  V30 23878 H 2366.89 3.64515 1.5929 0
M  V30 23879 H 2363.63 6.51467 0.726005 0
M  V30 23880 H 2363.15 5.59213 2.16888 0
M  V30 23881 H 2364.83 6.15767 1.98595 0
M  V30 23882 N 2364.96 -0.433911 1.51509 0
M  V30 23883 C 2365.87 -1.55207 1.7592 0
M  V30 23884 C 2366.89 -1.61661 0.643574 0
M  V30 23885 O 2368.06 -1.78839 0.926214 0
M  V30 23886 C 2365.13 -2.91161 1.88218 0
M  V30 23887 C 2364.19 -2.94796 3.12079 0
M  V30 23888 C 2363.42 -4.24266 3.23782 0
M  V30 23889 O 2363.64 -5.16829 2.41339 0
M  V30 23890 O 2362.58 -4.34255 4.16781 0
M  V30 23891 H 2366.4 -1.37522 2.70779 0
M  V30 23892 H 2363.99 -0.617269 1.36052 0
M  V30 23893 H 2365.87 -3.71841 1.98273 0
M  V30 23894 H 2364.55 -3.08967 0.965467 0
M  V30 23895 H 2363.45 -2.13059 3.07501 0
M  V30 23896 H 2364.79 -2.81936 4.03451 0
M  V30 23897 N 2366.44 -1.41713 -0.689577 0
M  V30 23898 C 2367.4 -1.43749 -1.78518 0
M  V30 23899 C 2368.4 -0.327218 -1.57435 0
M  V30 23900 O 2369.59 -0.587377 -1.63999 0
M  V30 23901 C 2366.72 -1.25473 -3.16969 0
M  V30 23902 H 2367.92 -2.41286 -1.78104 0
M  V30 23903 H 2365.47 -1.27943 -0.897787 0
M  V30 23904 H 2366.2 -0.288005 -3.23019 0
M  V30 23905 H 2365.99 -2.05923 -3.33674 0
M  V30 23906 H 2367.48 -1.29747 -3.96933 0
M  V30 23907 N 2367.92 0.924431 -1.2764 0
M  V30 23908 C 2368.85 2.04242 -1.1317 0
M  V30 23909 C 2369.83 1.70069 -0.0322859 0
M  V30 23910 O 2371.01 1.9309 -0.207362 0
M  V30 23911 C 2368.14 3.38392 -0.781556 0
M  V30 23912 C 2367.1 3.86688 -1.83456 0
M  V30 23913 C 2366.42 5.17681 -1.33831 0
M  V30 23914 C 2367.72 4.0972 -3.23924 0
M  V30 23915 H 2369.42 2.16607 -2.06693 0
M  V30 23916 H 2366.96 1.0408 -0.995155 0
M  V30 23917 H 2368.92 4.16086 -0.66713 0
M  V30 23918 H 2367.64 3.2605 0.189381 0
M  V30 23919 H 2366.3 3.1119 -1.93794 0
M  V30 23920 H 2365.95 5.01733 -0.356738 0
M  V30 23921 H 2365.65 5.50965 -2.04234 0
M  V30 23922 H 2367.17 5.97941 -1.23689 0
M  V30 23923 H 2368.58 4.77973 -3.16567 0
M  V30 23924 H 2366.98 4.54317 -3.92067 0
M  V30 23925 H 2368.05 3.14901 -3.68735 0
M  V30 23926 N 2369.39 1.09715 1.13139 0
M  V30 23927 C 2370.81 0.827447 1.36475 0
M  V30 23928 C 2371.01 -0.556783 1.93655 0
M  V30 23929 O 2370.07 -1.31108 2.15794 0
M  V30 23930 C 2371.38 1.9211 2.31331 0
M  V30 23931 C 2372.93 1.94868 2.4494 0
M  V30 23932 C 2373.4 3.03386 3.43105 0
M  V30 23933 N 2374.89 3.02645 3.50657 0
M  V30 23934 C 2375.63 3.83253 4.26503 0
M  V30 23935 N 2375.12 4.73777 5.05477 0
M  V30 23936 N 2376.92 3.71501 4.21834 0
M  V30 23937 H 2369.07 1.98952 0.743772 0
M  V30 23938 H 2371.33 0.864149 0.389807 0
M  V30 23939 H 2371.04 2.91701 1.96478 0
M  V30 23940 H 2370.91 1.8019 3.31378 0
M  V30 23941 H 2373.3 0.959148 2.79078 0
M  V30 23942 H 2373.38 2.10867 1.44807 0
M  V30 23943 H 2373.02 4.02554 3.09697 0
M  V30 23944 H 2372.95 2.8463 4.4305 0
M  V30 23945 H 2375.44 2.37044 2.9431 0
M  V30 23946 H 2375.76 5.31859 5.60665 0
M  V30 23947 H 2374.1 4.77811 5.04699 0
M  V30 23948 H 2377.29 3.00137 3.59215 0
M  V30 23949 H 2377.47 4.34559 4.8069 0
M  V30 23950 N 2370.87 -1.30419 0.88479 0
M  V30 23951 C 2372.28 -1.78301 0.553688 0
M  V30 23952 C 2372.63 -1.72752 -0.930122 0
M  V30 23953 O 2371.76 -1.30426 -1.72679 0
M  V30 23954 C 2372.35 -3.23759 0.998291 0
M  V30 23955 C 2370.91 -3.69477 0.718605 0
M  V30 23956 C 2370.06 -2.50876 1.18137 0
M  V30 23957 H 2373.01 -1.17292 1.06903 0
M  V30 23958 H 2373.03 -3.79091 0.327184 0
M  V30 23959 H 2372.54 -3.27765 2.07826 0
M  V30 23960 H 2370.65 -3.70958 -0.349378 0
M  V30 23961 H 2370.76 -4.60955 1.30603 0
M  V30 23962 H 2369.12 -2.47515 0.600713 0
M  V30 23963 H 2369.91 -2.5762 2.26907 0
M  V30 23964 N 2372.35 -0.645724 -1.43764 0
M  V30 23965 C 2373.58 -0.16192 -2.06767 0
M  V30 23966 C 2374 1.16047 -1.48037 0
M  V30 23967 O 2373.36 1.71521 -0.587399 0
M  V30 23968 C 2373.41 -0.0762636 -3.60519 0
M  V30 23969 O 2372.51 0.96365 -4.00983 0
M  V30 23970 H 2371.85 -0.0914405 -0.657674 0
M  V30 23971 H 2374.38 -0.886531 -1.84396 0
M  V30 23972 H 2374.39 0.109532 -4.07853 0
M  V30 23973 H 2373.07 -1.04164 -4.02644 0
M  V30 23974 H 2371.64 0.751248 -3.65254 0
M  V30 23975 N 2373.83 1.5277 -0.38717 0
M  V30 23976 C 2375.11 1.93955 0.253163 0
M  V30 23977 C 2375.49 1.32246 1.64543 0
M  V30 23978 O 2374.83 0.489738 2.2319 0
M  V30 23979 C 2375.04 3.47862 0.281661 0
M  V30 23980 C 2376.39 4.21506 0.511641 0
M  V30 23981 O 2377.42 3.54356 0.361961 0
M  V30 23982 O 2376.27 5.40542 0.804752 0
M  V30 23983 H 2373.37 0.811993 0.15683 0
M  V30 23984 H 2375.91 1.63856 -0.441523 0
M  V30 23985 H 2374.69 3.85103 -0.693639 0
M  V30 23986 H 2374.31 3.84258 1.02136 0
M  V30 23987 N 2375.31 0.116931 1.57166 0
M  V30 23988 C 2376.24 -0.864469 2.12272 0
M  V30 23989 C 2377.25 -1.23136 1.06496 0
M  V30 23990 O 2378.44 -1.18067 1.33875 0
M  V30 23991 C 2375.54 -2.16698 2.60567 0
M  V30 23992 C 2374.71 -1.97209 3.90419 0
M  V30 23993 C 2373.77 -3.1117 4.24334 0
M  V30 23994 O 2372.8 -2.84175 4.93187 0
M  V30 23995 N 2374 -4.37547 3.81488 0
M  V30 23996 H 2376.77 -0.393674 2.97103 0
M  V30 23997 H 2374.33 -0.0675521 1.61759 0
M  V30 23998 H 2376.32 -2.91927 2.80287 0
M  V30 23999 H 2374.89 -2.55132 1.80628 0
M  V30 24000 H 2374.11 -1.06185 3.79629 0
M  V30 24001 H 2375.4 -1.81491 4.7533 0
M  V30 24002 H 2374.79 -4.62355 3.25951 0
M  V30 24003 H 2373.35 -5.09654 4.0632 0
M  V30 24004 N 2376.78 -1.56818 -0.156836 0
M  V30 24005 C 2378.03 -1.82445 -0.869372 0
M  V30 24006 C 2378.35 -0.696262 -1.82146 0
M  V30 24007 O 2377.62 0.282836 -1.93847 0
M  V30 24008 H 2376.2 -0.673062 -0.324031 0
M  V30 24009 H 2378.87 -1.94297 -0.15319 0
M  V30 24010 H 2377.96 -2.77021 -1.43756 0
M  V30 24011 N 2378.26 0.425871 -1.51737 0
M  V30 24012 C 2379.17 1.54272 -1.76741 0
M  V30 24013 C 2380.19 1.61317 -0.652138 0
M  V30 24014 O 2381.36 1.78345 -0.935686 0
M  V30 24015 C 2378.43 2.90159 -1.8976 0
M  V30 24016 C 2377.49 2.93137 -3.13638 0
M  V30 24017 C 2376.72 4.22542 -3.26027 0
M  V30 24018 O 2376.95 5.15541 -2.44076 0
M  V30 24019 O 2375.88 4.32038 -4.19078 0
M  V30 24020 H 2379.71 1.36084 -2.71505 0
M  V30 24021 H 2377.29 0.610045 -1.36377 0
M  V30 24022 H 2379.17 3.70784 -2.00242 0
M  V30 24023 H 2377.85 3.0845 -0.981839 0
M  V30 24024 H 2376.76 2.11425 -3.08626 0
M  V30 24025 H 2378.09 2.79792 -4.04941 0
M  V30 24026 N 2379.74 1.42077 0.682052 0
M  V30 24027 C 2380.97 1.45331 1.46842 0
M  V30 24028 C 2381.38 0.060966 1.89102 0
M  V30 24029 O 2380.72 -0.933054 1.5824 0
M  V30 24030 C 2380.78 2.31109 2.75371 0
M  V30 24031 C 2380.45 3.79086 2.55231 0
M  V30 24032 C 2381.44 4.70918 2.20301 0
M  V30 24033 C 2379.13 4.23275 2.70451 0
M  V30 24034 C 2381.12 6.04929 2.00848 0
M  V30 24035 C 2378.81 5.57347 2.50614 0
M  V30 24036 C 2379.81 6.4799 2.15865 0
M  V30 24037 O 2379.5 7.79587 1.96213 0
M  V30 24038 H 2379.23 0.496659 0.458591 0
M  V30 24039 H 2381.78 1.87164 0.846098 0
M  V30 24040 H 2380.01 1.84113 3.40058 0
M  V30 24041 H 2381.7 2.25904 3.37227 0
M  V30 24042 H 2382.47 4.38065 2.08145 0
M  V30 24043 H 2378.35 3.53017 2.96479 0
M  V30 24044 H 2381.89 6.75642 1.73648 0
M  V30 24045 H 2377.79 5.89775 2.62365 0
M  V30 24046 H 2378.56 7.90871 2.10869 0
M  V30 24047 N 2381.22 -0.917649 1.28129 0
M  V30 24048 C 2382.47 -1.66095 1.14435 0
M  V30 24049 C 2382.78 -1.93172 -0.307213 0
M  V30 24050 O 2383.99 -2.65552 -0.565212 0
M  V30 24051 C 2382.44 -2.99199 2.0002 0
M  V30 24052 C 2382.05 -2.79783 3.49893 0
M  V30 24053 C 2383.8 -3.7706 1.95002 0
M  V30 24054 C 2381.7 -4.08503 4.27643 0
M  V30 24055 H 2380.63 -0.623032 0.424673 0
M  V30 24056 H 2383.28 -1.01865 1.52629 0
M  V30 24057 H 2381.67 -3.64542 1.54678 0
M  V30 24058 H 2382.84 -2.23145 4.03166 0
M  V30 24059 H 2381.15 -2.15339 3.56396 0
M  V30 24060 H 2383.75 -4.72465 2.50362 0
M  V30 24061 H 2384.09 -4.05873 0.92589 0
M  V30 24062 H 2384.63 -3.1853 2.38293 0
M  V30 24063 H 2381.37 -3.84865 5.30621 0
M  V30 24064 H 2380.89 -4.64768 3.79145 0
M  V30 24065 H 2382.57 -4.76791 4.37355 0
M  V30 24066 N 2382.7 -1.10314 -1.12555 0
M  V30 24067 C 2383.94 -0.854575 -1.85678 0
M  V30 24068 C 2384.3 0.608811 -1.82092 0
M  V30 24069 O 2385.5 0.973673 -2.50546 0
M  V30 24070 C 2383.77 -1.38632 -3.29418 0
M  V30 24071 S 2385.33 -1.273 -4.19929 0
M  V30 24072 H 2382.15 -0.308839 -0.640421 0
M  V30 24073 H 2384.75 -1.40833 -1.35596 0
M  V30 24074 H 2383.46 -2.44543 -3.29586 0
M  V30 24075 H 2382.99 -0.829087 -3.84564 0
M  V30 24076 H 2385 -0.229863 -4.95667 0
M  V30 24077 N 2384.18 1.29948 -0.891694 0
M  V30 24078 C 2385.4 2.00567 -0.527967 0
M  V30 24079 C 2385.83 1.66355 0.87794 0
M  V30 24080 O 2385.18 0.88379 1.583 0
M  V30 24081 C 2385.23 3.53383 -0.717807 0
M  V30 24082 O 2384.34 4.1174 0.233304 0
M  V30 24083 H 2383.68 0.630834 -0.207231 0
M  V30 24084 H 2386.21 1.65636 -1.20108 0
M  V30 24085 H 2386.22 4.03271 -0.619378 0
M  V30 24086 H 2384.89 3.77622 -1.74282 0
M  V30 24087 H 2383.47 3.72796 0.0880051 0
M  V30 24088 N 2385.65 0.653339 1.4342 0
M  V30 24089 C 2386.62 -0.0287548 2.29182 0
M  V30 24090 C 2387.62 -0.75044 1.42215 0
M  V30 24091 O 2388.81 -0.591672 1.63844 0
M  V30 24092 C 2385.94 -1.05145 3.2428 0
M  V30 24093 H 2387.13 0.725838 2.90984 0
M  V30 24094 H 2384.68 0.414572 1.50702 0
M  V30 24095 H 2385.42 -1.83527 2.67373 0
M  V30 24096 H 2385.2 -0.537619 3.88397 0
M  V30 24097 H 2386.69 -1.52779 3.88649 0
M  V30 24098 N 2387.13 -1.52563 0.395266 0
M  V30 24099 C 2388.36 -2.06551 -0.18742 0
M  V30 24100 C 2388.78 -1.26459 -1.39247 0
M  V30 24101 O 2388.14 -0.291182 -1.78946 0
M  V30 24102 C 2388.19 -3.56685 -0.529922 0
M  V30 24103 O 2387.29 -3.79121 -1.623 0
M  V30 24104 H 2386.63 -0.663691 -0.020242 0
M  V30 24105 H 2389.16 -1.9666 0.564461 0
M  V30 24106 H 2389.17 -4.00229 -0.792528 0
M  V30 24107 H 2387.85 -4.14416 0.35106 0
M  V30 24108 H 2386.42 -3.47464 -1.35364 0
M  V30 24109 N 2388.61 -0.125265 -1.57101 0
M  V30 24110 C 2389.56 0.839889 -2.16907 0
M  V30 24111 C 2390.55 1.27092 -1.12 0
M  V30 24112 O 2391.76 1.24193 -1.30293 0
M  V30 24113 H 2388.13 0.288982 -0.694257 0
M  V30 24114 H 2390.1 0.311063 -2.96774 0
M  V30 24115 C 2388.85 2.07766 -2.78799 0
M  V30 24116 H 2388.18 1.75494 -3.59224 0
M  V30 24117 H 2389.62 2.73289 -3.24175 0
M  V30 24118 C 2388.07 2.87152 -1.76198 0
M  V30 24119 O 2388.6 3.82752 -1.21916 0
M  V30 24120 N 2386.81 2.51264 -1.45995 0
M  V30 24121 H 2386.36 1.73589 -1.90328 0
M  V30 24122 H 2386.32 3.04676 -0.775897 0
M  V30 24123 N 2390.09 1.56899 0.148518 0
M  V30 24124 C 2391.33 1.83537 0.862662 0
M  V30 24125 C 2391.67 0.706635 1.80888 0
M  V30 24126 O 2390.94 -0.289851 1.92328 0
M  V30 24127 C 2391.22 3.20665 1.63847 0
M  V30 24128 C 2391.08 4.44099 0.713847 0
M  V30 24129 C 2392.4 3.54996 2.60127 0
M  V30 24130 H 2389.52 0.667623 0.312167 0
M  V30 24131 H 2392.16 1.89569 0.12792 0
M  V30 24132 H 2390.31 3.15654 2.26483 0
M  V30 24133 H 2391.98 4.61195 0.0986049 0
M  V30 24134 H 2390.22 4.33794 0.0233256 0
M  V30 24135 H 2390.89 5.3665 1.29268 0
M  V30 24136 H 2393.37 3.60607 2.0761 0
M  V30 24137 H 2392.25 4.51977 3.1146 0
M  V30 24138 H 2392.51 2.80874 3.41412 0
M  V30 24139 N 2391.57 -0.417818 1.51961 0
M  V30 24140 C 2392.5 -1.51551 1.77636 0
M  V30 24141 C 2393.48 -1.58125 0.626946 0
M  V30 24142 O 2394.66 -1.73539 0.871662 0
M  V30 24143 C 2391.79 -2.89457 1.91917 0
M  V30 24144 C 2390.75 -2.97737 3.07468 0
M  V30 24145 C 2390.07 -4.37813 3.06959 0
M  V30 24146 C 2391.37 -2.70019 4.47087 0
M  V30 24147 H 2393.07 -1.30315 2.69552 0
M  V30 24148 H 2390.61 -0.625469 1.29707 0
M  V30 24149 H 2392.56 -3.66226 2.08461 0
M  V30 24150 H 2391.29 -3.11967 0.966653 0
M  V30 24151 H 2389.95 -2.23411 2.9066 0
M  V30 24152 H 2389.6 -4.5732 2.09446 0
M  V30 24153 H 2389.3 -4.4428 3.84564 0
M  V30 24154 H 2390.82 -5.16529 3.25622 0
M  V30 24155 H 2392.23 -3.36514 4.64145 0
M  V30 24156 H 2390.63 -2.87872 5.26545 0
M  V30 24157 H 2391.7 -1.65506 4.5578 0
M  V30 24158 N 2393.04 -1.42436 -0.674508 0
M  V30 24159 C 2394.29 -1.42639 -1.43173 0
M  V30 24160 C 2394.61 -0.0439335 -1.94951 0
M  V30 24161 O 2393.88 0.917577 -1.73082 0
M  V30 24162 H 2392.46 -0.525101 -0.531298 0
M  V30 24163 H 2395.12 -1.7786 -0.796975 0
M  V30 24164 H 2394.22 -2.12633 -2.2846 0
M  V30 24165 N 2394.52 0.910841 -1.28614 0
M  V30 24166 C 2395.75 1.69925 -1.18913 0
M  V30 24167 C 2396.17 1.86453 0.248339 0
M  V30 24168 O 2395.53 1.37679 1.17959 0
M  V30 24169 C 2395.58 3.06742 -1.89583 0
M  V30 24170 O 2394.68 3.94394 -1.20528 0
M  V30 24171 H 2394.02 0.520215 -0.412641 0
M  V30 24172 H 2396.55 1.13867 -1.69987 0
M  V30 24173 H 2396.56 3.56955 -1.97603 0
M  V30 24174 H 2395.24 2.9403 -2.94142 0
M  V30 24175 H 2393.81 3.52829 -1.2069 0
M  V30 24176 N 2396 1.10909 1.11969 0
M  V30 24177 C 2396.96 0.765745 2.1603 0
M  V30 24178 C 2397.96 -0.212207 1.59394 0
M  V30 24179 O 2399.15 0.0115747 1.74196 0
M  V30 24180 C 2396.29 0.135113 3.40632 0
M  V30 24181 H 2397.48 1.68753 2.47916 0
M  V30 24182 H 2395.03 0.910249 1.2706 0
M  V30 24183 H 2395.77 -0.797162 3.1435 0
M  V30 24184 H 2395.55 0.839004 3.83018 0
M  V30 24185 H 2397.04 -0.0891735 4.17505 0
M  V30 24186 N 2397.48 -1.29474 0.898573 0
M  V30 24187 C 2398.7 -2.00285 0.538596 0
M  V30 24188 C 2399.13 -1.66818 -0.869106 0
M  V30 24189 O 2398.49 -0.892172 -1.57829 0
M  V30 24190 C 2398.53 -3.52998 0.736537 0
M  V30 24191 O 2397.64 -4.11857 -0.211465 0
M  V30 24192 H 2396.98 -0.629726 0.210574 0
M  V30 24193 H 2399.51 -1.64996 1.20985 0
M  V30 24194 H 2399.52 -4.02937 0.640756 0
M  V30 24195 H 2398.19 -3.76693 1.76283 0
M  V30 24196 H 2396.77 -3.72838 -0.0682336 0
M  V30 24197 N 2398.96 -0.660936 -1.43071 0
M  V30 24198 C 2400.18 -0.185458 -2.06067 0
M  V30 24199 C 2400.6 1.15195 -1.49584 0
M  V30 24200 O 2399.96 1.71275 -0.630164 0
M  V30 24201 C 2400.01 -0.0967158 -3.61371 0
M  V30 24202 O 2399.73 -1.38126 -4.15756 0
M  V30 24203 C 2401.23 0.403918 -4.41456 0
M  V30 24204 H 2398.45 -0.0934721 -0.664458 0
M  V30 24205 H 2400.99 -0.903762 -1.83446 0
M  V30 24206 H 2399.15 0.572191 -3.83151 0
M  V30 24207 H 2399.56 -1.24551 -5.09497 0
M  V30 24208 H 2401.04 0.414948 -5.50438 0
M  V30 24209 H 2401.51 1.43666 -4.15038 0
M  V30 24210 H 2402.12 -0.232766 -4.24663 0
M  V30 24211 N 2400.43 1.52351 -0.403352 0
M  V30 24212 C 2401.66 2.06648 0.176463 0
M  V30 24213 C 2402.08 1.27196 1.38574 0
M  V30 24214 O 2401.44 0.300668 1.78789 0
M  V30 24215 C 2401.49 3.56961 0.510999 0
M  V30 24216 O 2400.59 3.79976 1.60287 0
M  V30 24217 H 2399.94 0.663789 0.016722 0
M  V30 24218 H 2402.47 1.96357 -0.574882 0
M  V30 24219 H 2402.48 4.00643 0.771291 0
M  V30 24220 H 2401.15 4.14224 -0.373033 0
M  V30 24221 H 2399.73 3.48177 1.3352 0
M  V30 24222 N 2401.91 0.133594 1.57033 0
M  V30 24223 C 2403.14 -0.52816 2.00045 0
M  V30 24224 C 2403.56 -1.5929 1.01352 0
M  V30 24225 O 2402.91 -1.82498 0.00851577 0
M  V30 24226 C 2402.96 -1.14104 3.4302 0
M  V30 24227 O 2402.68 -0.118843 4.37939 0
M  V30 24228 C 2404.19 -1.8847 4.01241 0
M  V30 24229 H 2401.41 -0.138649 0.656519 0
M  V30 24230 H 2403.95 0.224232 2.03267 0
M  V30 24231 H 2402.1 -1.84412 3.40692 0
M  V30 24232 H 2402.52 -0.566038 5.21437 0
M  V30 24233 H 2403.99 -2.2666 5.03318 0
M  V30 24234 H 2404.47 -2.76552 3.41198 0
M  V30 24235 H 2405.08 -1.22891 4.07158 0
M  V30 24236 N 2403.39 -1.56975 -0.140195 0
M  V30 24237 C 2404.62 -1.87613 -0.865148 0
M  V30 24238 C 2405.03 -0.720581 -1.74941 0
M  V30 24239 O 2404.37 0.31853 -1.80917 0
M  V30 24240 C 2404.43 -3.13034 -1.76776 0
M  V30 24241 C 2404.1 -4.44537 -1.05998 0
M  V30 24242 C 2405.09 -5.18275 -0.410676 0
M  V30 24243 C 2402.78 -4.91257 -1.04746 0
M  V30 24244 C 2404.77 -6.36942 0.241684 0
M  V30 24245 C 2402.46 -6.09846 -0.391287 0
M  V30 24246 C 2403.46 -6.82534 0.252149 0
M  V30 24247 O 2403.15 -7.9887 0.897897 0
M  V30 24248 H 2402.88 -0.625988 -0.255177 0
M  V30 24249 H 2405.43 -2.04952 -0.135617 0
M  V30 24250 H 2403.66 -2.91722 -2.53841 0
M  V30 24251 H 2405.35 -3.29863 -2.36527 0
M  V30 24252 H 2406.12 -4.83246 -0.41211 0
M  V30 24253 H 2402 -4.34599 -1.5377 0
M  V30 24254 H 2405.54 -6.93616 0.744497 0
M  V30 24255 H 2401.44 -6.44336 -0.387543 0
M  V30 24256 H 2402.21 -8.14579 0.800245 0
M  V30 24257 N 2404.87 0.409753 -1.5218 0
M  V30 24258 C 2406.12 1.15676 -1.66208 0
M  V30 24259 C 2406.44 1.90515 -0.391707 0
M  V30 24260 O 2405.7 1.85441 0.625297 0
M  V30 24261 C 2406 2.17718 -2.83432 0
M  V30 24262 C 2405.66 1.59691 -4.21675 0
M  V30 24263 C 2404.33 1.43591 -4.59277 0
M  V30 24264 C 2406.68 1.17308 -5.07827 0
M  V30 24265 C 2404.01 0.836226 -5.8071 0
M  V30 24266 C 2406.36 0.58758 -6.29865 0
M  V30 24267 C 2405.02 0.413701 -6.66217 0
M  V30 24268 H 2404.29 0.42329 -0.6082 0
M  V30 24269 H 2406.94 0.444064 -1.8628 0
M  V30 24270 H 2405.24 2.95131 -2.57692 0
M  V30 24271 H 2406.94 2.75389 -2.91482 0
M  V30 24272 H 2403.53 1.73206 -3.92043 0
M  V30 24273 H 2407.71 1.28556 -4.79361 0
M  V30 24274 H 2402.97 0.689519 -6.07499 0
M  V30 24275 H 2407.14 0.250772 -6.95948 0
M  V30 24276 H 2404.77 -0.0530807 -7.60181 0
M  V30 24277 N 2406.35 1.42792 0.666944 0
M  V30 24278 C 2407.59 1.43397 1.42414 0
M  V30 24279 C 2407.92 0.0542716 1.94924 0
M  V30 24280 O 2407.19 -0.908385 1.73566 0
M  V30 24281 H 2405.77 0.527911 0.528506 0
M  V30 24282 H 2408.43 1.78281 0.787531 0
M  V30 24283 H 2407.52 2.13841 2.27329 0
M  V30 24284 N 2407.82 -0.904008 1.29095 0
M  V30 24285 C 2409.07 -1.65654 1.16989 0
M  V30 24286 C 2409.4 -1.92187 -0.278891 0
M  V30 24287 O 2408.68 -1.52922 -1.20188 0
M  V30 24288 C 2408.96 -3.00836 1.97913 0
M  V30 24289 C 2408.81 -2.81396 3.50908 0
M  V30 24290 C 2410.13 -4.0151 1.80215 0
M  V30 24291 H 2407.25 -0.601157 0.426356 0
M  V30 24292 H 2409.89 -1.04744 1.5852 0
M  V30 24293 H 2408.04 -3.52826 1.62622 0
M  V30 24294 H 2409.72 -2.36341 3.96157 0
M  V30 24295 H 2407.96 -2.16263 3.76049 0
M  V30 24296 H 2408.63 -3.77436 4.02798 0
M  V30 24297 H 2411.11 -3.58615 2.11031 0
M  V30 24298 H 2409.98 -4.94042 2.39193 0
M  V30 24299 H 2410.24 -4.35585 0.756196 0
M  V30 24300 N 2409.3 -1.11501 -1.11379 0
M  V30 24301 C 2410.72 -0.849054 -1.35142 0
M  V30 24302 C 2410.92 0.525904 -1.94516 0
M  V30 24303 O 2409.97 1.27659 -2.17852 0
M  V30 24304 C 2411.29 -1.95766 -2.28246 0
M  V30 24305 C 2412.84 -1.9874 -2.41808 0
M  V30 24306 C 2413.31 -3.08806 -3.38235 0
M  V30 24307 N 2414.8 -3.08185 -3.45798 0
M  V30 24308 C 2415.54 -3.8999 -4.20352 0
M  V30 24309 N 2415.03 -4.81759 -4.97876 0
M  V30 24310 N 2416.83 -3.78165 -4.1587 0
M  V30 24311 H 2408.98 -2.0011 -0.712027 0
M  V30 24312 H 2411.24 -0.870242 -0.37601 0
M  V30 24313 H 2410.95 -2.9479 -1.91812 0
M  V30 24314 H 2410.82 -1.85439 -3.2847 0
M  V30 24315 H 2413.21 -1.00343 -2.77516 0
M  V30 24316 H 2413.29 -2.13144 -1.41434 0
M  V30 24317 H 2412.93 -4.0743 -3.03254 0
M  V30 24318 H 2412.86 -2.91643 -4.38466 0
M  V30 24319 H 2415.35 -2.41696 -2.90502 0
M  V30 24320 H 2415.67 -5.40712 -5.52133 0
M  V30 24321 H 2414.01 -4.8578 -4.97034 0
M  V30 24322 H 2417.2 -3.05814 -3.54394 0
M  V30 24323 H 2417.37 -4.42151 -4.73716 0
M  V30 24324 N 2410.78 1.28995 -0.905426 0
M  V30 24325 C 2411.74 2.25818 -0.392292 0
M  V30 24326 C 2412.74 1.53571 0.476726 0
M  V30 24327 O 2413.93 1.71919 0.280964 0
M  V30 24328 C 2411.07 3.38068 0.438528 0
M  V30 24329 H 2412.26 2.72723 -1.24748 0
M  V30 24330 H 2409.81 1.40535 -0.684076 0
M  V30 24331 H 2410.55 2.96511 1.31347 0
M  V30 24332 H 2410.33 3.91667 -0.184235 0
M  V30 24333 H 2411.82 4.10085 0.788658 0
M  V30 24334 N 2412.26 0.668514 1.42719 0
M  V30 24335 C 2413.19 0.000141219 2.335 0
M  V30 24336 C 2414.17 -0.795938 1.50329 0
M  V30 24337 O 2415.36 -0.754353 1.7895 0
M  V30 24338 C 2412.49 -0.956243 3.33876 0
M  V30 24339 C 2411.44 -0.269203 4.27153 0
M  V30 24340 C 2410.77 -1.33809 5.17686 0
M  V30 24341 C 2412.07 0.847896 5.15372 0
M  V30 24342 H 2413.76 0.758295 2.89638 0
M  V30 24343 H 2411.31 0.366104 1.39268 0
M  V30 24344 H 2413.26 -1.43285 3.96292 0
M  V30 24345 H 2411.98 -1.74574 2.76028 0
M  V30 24346 H 2410.64 0.187106 3.66122 0
M  V30 24347 H 2410.29 -2.11942 4.56168 0
M  V30 24348 H 2409.99 -0.883557 5.80919 0
M  V30 24349 H 2411.51 -1.81576 5.82977 0
M  V30 24350 H 2412.93 0.452782 5.71509 0
M  V30 24351 H 2411.32 1.22784 5.87405 0
M  V30 24352 H 2412.39 1.69937 4.54147 0
M  V30 24353 N 2413.74 -1.52135 0.411426 0
M  V30 24354 C 2414.69 -2.23902 -0.430337 0
M  V30 24355 C 2415.67 -1.25123 -1.01158 0
M  V30 24356 O 2416.86 -1.5035 -0.934018 0
M  V30 24357 C 2413.99 -3.06558 -1.54521 0
M  V30 24358 C 2413.08 -4.12749 -0.974627 0
M  V30 24359 N 2413.47 -5.05631 -0.130903 0
M  V30 24360 C 2411.77 -4.28274 -1.2449 0
M  V30 24361 C 2412.47 -5.814 0.186791 0
M  V30 24362 N 2411.44 -5.41952 -0.422945 0
M  V30 24363 H 2415.25 -2.93071 0.220561 0
M  V30 24364 H 2412.76 -1.60876 0.221981 0
M  V30 24365 H 2414.76 -3.56528 -2.16087 0
M  V30 24366 H 2413.42 -2.38929 -2.19871 0
M  V30 24367 H 2414.43 -5.17373 0.233581 0
M  V30 24368 H 2411.11 -3.71873 -1.89781 0
M  V30 24369 H 2412.5 -6.6622 0.87179 0
M  V30 24370 N 2415.22 -0.14192 -1.5696 0
M  V30 24371 C 2416.63 0.214532 -1.58152 0
M  V30 24372 C 2416.83 1.65047 -1.15593 0
M  V30 24373 O 2415.89 2.37624 -0.853874 0
M  V30 24374 C 2417.2 -0.0396105 -3.00674 0
M  V30 24375 C 2418.75 0.0244978 -3.1299 0
M  V30 24376 C 2419.22 -0.202247 -4.57553 0
M  V30 24377 N 2420.71 -0.149 -4.6296 0
M  V30 24378 C 2421.45 -0.299025 -5.7262 0
M  V30 24379 N 2420.95 -0.506491 -6.90946 0
M  V30 24380 N 2422.74 -0.236985 -5.616 0
M  V30 24381 H 2414.89 -1.07956 -1.82919 0
M  V30 24382 H 2417.15 -0.426945 -0.846417 0
M  V30 24383 H 2416.86 -1.0332 -3.36181 0
M  V30 24384 H 2416.73 0.682078 -3.70982 0
M  V30 24385 H 2419.12 1.00864 -2.77327 0
M  V30 24386 H 2419.2 -0.729439 -2.45179 0
M  V30 24387 H 2418.84 -1.18346 -4.9392 0
M  V30 24388 H 2418.77 0.571952 -5.23485 0
M  V30 24389 H 2421.27 0.00690373 -3.77899 0
M  V30 24390 H 2421.58 -0.611211 -7.70379 0
M  V30 24391 H 2419.92 -0.54275 -6.92877 0
M  V30 24392 H 2423.11 -0.0757031 -4.68039 0
M  V30 24393 H 2423.29 -0.357341 -6.47014 0
M  V30 24394 N 2416.69 1.57047 0.131868 0
M  V30 24395 C 2417.62 2.0243 1.1638 0
M  V30 24396 C 2418.6 0.906465 1.43935 0
M  V30 24397 O 2419.79 1.17531 1.54596 0
M  V30 24398 C 2416.92 2.41774 2.49324 0
M  V30 24399 C 2415.87 3.56883 2.36259 0
M  V30 24400 C 2415.2 3.82087 3.74051 0
M  V30 24401 C 2416.5 4.89045 1.83392 0
M  V30 24402 H 2418.19 2.88888 0.786383 0
M  V30 24403 H 2415.74 1.38982 0.37683 0
M  V30 24404 H 2417.69 2.72126 3.21754 0
M  V30 24405 H 2416.42 1.52271 2.88931 0
M  V30 24406 H 2415.08 3.26721 1.6628 0
M  V30 24407 H 2414.72 2.8981 4.1112 0
M  V30 24408 H 2414.42 4.59561 3.66166 0
M  V30 24409 H 2415.95 4.14878 4.48005 0
M  V30 24410 H 2417.36 5.18016 2.45627 0
M  V30 24411 H 2415.76 5.70429 1.8636 0
M  V30 24412 H 2416.83 4.78412 0.790578 0
M  V30 24413 N 2418.17 -0.401677 1.52395 0
M  V30 24414 C 2419.12 -1.48914 1.72651 0
M  V30 24415 C 2420.11 -1.50065 0.580462 0
M  V30 24416 O 2421.3 -1.55915 0.837817 0
M  V30 24417 C 2418.43 -2.86765 1.88734 0
M  V30 24418 C 2417.51 -2.90234 3.09233 0
M  V30 24419 N 2417.9 -2.63389 4.3181 0
M  V30 24420 C 2416.2 -3.21402 3.09219 0
M  V30 24421 C 2416.9 -2.73616 5.13331 0
M  V30 24422 N 2415.88 -3.06811 4.4874 0
M  V30 24423 H 2419.68 -1.26966 2.6506 0
M  V30 24424 H 2417.19 -0.609478 1.50529 0
M  V30 24425 H 2419.19 -3.65045 2.01364 0
M  V30 24426 H 2417.85 -3.09706 0.975306 0
M  V30 24427 H 2418.86 -2.37645 4.60158 0
M  V30 24428 H 2415.54 -3.49889 2.2778 0
M  V30 24429 H 2416.93 -2.56514 6.21008 0
M  V30 24430 N 2419.65 -1.43144 -0.659362 0
M  V30 24431 C 2420.58 -1.43787 -1.78488 0
M  V30 24432 C 2421.59 -0.334815 -1.5932 0
M  V30 24433 O 2422.78 -0.598872 -1.68154 0
M  V30 24434 C 2419.88 -1.22911 -3.15826 0
M  V30 24435 C 2419.06 -2.45941 -3.61707 0
M  V30 24436 C 2418.12 -2.2038 -4.77828 0
M  V30 24437 O 2417.14 -2.9369 -4.87581 0
M  V30 24438 N 2418.34 -1.21657 -5.67609 0
M  V30 24439 H 2421.11 -2.40807 -1.78416 0
M  V30 24440 H 2418.67 -1.38222 -0.842996 0
M  V30 24441 H 2420.66 -1.03704 -3.91188 0
M  V30 24442 H 2419.23 -0.343597 -3.10706 0
M  V30 24443 H 2418.45 -2.80614 -2.76856 0
M  V30 24444 H 2419.74 -3.27832 -3.89106 0
M  V30 24445 H 2419.14 -0.610548 -5.62396 0
M  V30 24446 H 2417.69 -1.08434 -6.42717 0
M  V30 24447 N 2421.13 0.897149 -1.29572 0
M  V30 24448 C 2422.37 1.64787 -1.17692 0
M  V30 24449 C 2422.7 1.92602 0.271036 0
M  V30 24450 O 2421.96 1.5366 1.2119 0
M  V30 24451 C 2422.26 3.00278 -1.93825 0
M  V30 24452 C 2421.92 2.92062 -3.43527 0
M  V30 24453 C 2420.58 2.89528 -3.84353 0
M  V30 24454 C 2422.94 2.81081 -4.38911 0
M  V30 24455 C 2420.26 2.73837 -5.18874 0
M  V30 24456 C 2422.62 2.66929 -5.73526 0
M  V30 24457 C 2421.28 2.62763 -6.13606 0
M  V30 24458 H 2420.55 0.603 -0.430665 0
M  V30 24459 H 2423.2 1.04402 -1.60538 0
M  V30 24460 H 2421.5 3.64545 -1.43577 0
M  V30 24461 H 2423.2 3.57302 -1.82034 0
M  V30 24462 H 2419.79 2.94837 -3.11077 0
M  V30 24463 H 2423.97 2.82114 -4.0832 0
M  V30 24464 H 2419.23 2.69018 -5.49035 0
M  V30 24465 H 2423.4 2.57404 -6.47083 0
M  V30 24466 H 2421.03 2.50362 -7.1779 0
M  V30 24467 N 2422.61 1.1209 1.10786 0
M  V30 24468 C 2423.54 0.743251 2.16814 0
M  V30 24469 C 2424.55 -0.228383 1.6119 0
M  V30 24470 O 2425.74 -0.0102617 1.78497 0
M  V30 24471 C 2422.84 0.0787909 3.38808 0
M  V30 24472 C 2422.01 1.07897 4.23883 0
M  V30 24473 C 2421.07 0.442805 5.24334 0
M  V30 24474 O 2420.1 1.09874 5.58495 0
M  V30 24475 N 2421.3 -0.791356 5.75081 0
M  V30 24476 H 2424.06 1.65557 2.49822 0
M  V30 24477 H 2421.63 1.01203 1.26371 0
M  V30 24478 H 2423.62 -0.358696 4.03107 0
M  V30 24479 H 2422.19 -0.736221 3.03807 0
M  V30 24480 H 2421.41 1.6942 3.55936 0
M  V30 24481 H 2422.7 1.75542 4.77559 0
M  V30 24482 H 2422.09 -1.3433 5.4952 0
M  V30 24483 H 2420.65 -1.17172 6.41182 0
M  V30 24484 N 2424.08 -1.28513 0.912254 0
M  V30 24485 C 2425.02 -2.26406 0.3568 0
M  V30 24486 C 2426.03 -1.54805 -0.503905 0
M  V30 24487 O 2427.22 -1.75626 -0.319028 0
M  V30 24488 C 2424.32 -3.35059 -0.508767 0
M  V30 24489 C 2423.49 -4.3616 0.329083 0
M  V30 24490 C 2422.55 -5.24085 -0.47133 0
M  V30 24491 O 2421.58 -5.69083 0.115582 0
M  V30 24492 N 2422.78 -5.52707 -1.77469 0
M  V30 24493 H 2425.54 -2.74705 1.19822 0
M  V30 24494 H 2423.1 -1.41979 0.778047 0
M  V30 24495 H 2425.1 -3.90816 -1.05093 0
M  V30 24496 H 2423.67 -2.86481 -1.2509 0
M  V30 24497 H 2422.89 -3.79886 1.05262 0
M  V30 24498 H 2424.17 -5.00733 0.902428 0
M  V30 24499 H 2423.57 -5.17979 -2.27408 0
M  V30 24500 H 2422.13 -6.11228 -2.26372 0
M  V30 24501 N 2425.56 -0.676073 -1.42362 0
M  V30 24502 C 2426.49 -0.0125243 -2.33497 0
M  V30 24503 C 2427.47 0.787954 -1.50749 0
M  V30 24504 O 2428.66 0.744852 -1.79348 0
M  V30 24505 C 2425.79 0.938523 -3.34379 0
M  V30 24506 C 2424.74 0.246547 -4.27289 0
M  V30 24507 C 2424.07 1.31062 -5.18389 0
M  V30 24508 C 2425.37 -0.875215 -5.14915 0
M  V30 24509 H 2427.06 -0.773644 -2.89232 0
M  V30 24510 H 2424.61 -0.373484 -1.39072 0
M  V30 24511 H 2426.56 1.41181 -3.97046 0
M  V30 24512 H 2425.29 1.73108 -2.7695 0
M  V30 24513 H 2423.94 -0.20652 -3.66018 0
M  V30 24514 H 2423.59 2.0952 -4.57286 0
M  V30 24515 H 2423.29 0.852737 -5.8138 0
M  V30 24516 H 2424.82 1.78481 -5.83932 0
M  V30 24517 H 2426.23 -0.483084 -5.71261 0
M  V30 24518 H 2424.63 -1.25897 -5.86745 0
M  V30 24519 H 2425.7 -1.72343 -4.53239 0
M  V30 24520 N 2427.04 1.51915 -0.419488 0
M  V30 24521 C 2427.97 2.3019 0.391772 0
M  V30 24522 C 2428.95 1.34837 1.03696 0
M  V30 24523 O 2430.14 1.6375 1.04401 0
M  V30 24524 C 2427.27 3.1309 1.50306 0
M  V30 24525 C 2426.22 4.16575 0.982327 0
M  V30 24526 C 2425.55 4.87884 2.18801 0
M  V30 24527 C 2426.85 5.22292 0.0291438 0
M  V30 24528 H 2428.54 2.98257 -0.261402 0
M  V30 24529 H 2426.09 1.43437 -0.127159 0
M  V30 24530 H 2428.04 3.66621 2.07767 0
M  V30 24531 H 2426.76 2.42811 2.18427 0
M  V30 24532 H 2425.42 3.64069 0.430055 0
M  V30 24533 H 2425.07 4.14124 2.855 0
M  V30 24534 H 2424.77 5.57848 1.84605 0
M  V30 24535 H 2426.29 5.44231 2.76848 0
M  V30 24536 H 2427.71 5.71001 0.512875 0
M  V30 24537 H 2426.11 5.9968 -0.224505 0
M  V30 24538 H 2427.18 4.76227 -0.913015 0
M  V30 24539 N 2428.52 0.150242 1.56882 0
M  V30 24540 C 2429.76 -0.494393 1.973 0
M  V30 24541 C 2430.12 -1.62264 1.03383 0
M  V30 24542 O 2429.41 -1.91474 0.0694833 0
M  V30 24543 C 2429.61 -1.04431 3.41802 0
M  V30 24544 C 2429.44 0.0291242 4.49691 0
M  V30 24545 C 2428.21 0.471649 5.03094 0
M  V30 24546 C 2430.4 0.821792 5.07692 0
M  V30 24547 N 2428.39 1.52759 5.9459 0
M  V30 24548 C 2429.76 1.72816 5.95428 0
M  V30 24549 C 2431.81 0.86922 4.90254 0
M  V30 24550 C 2430.51 2.67789 6.67594 0
M  V30 24551 C 2432.54 1.8068 5.63124 0
M  V30 24552 C 2431.9 2.70068 6.50571 0
M  V30 24553 H 2428 -0.149625 0.767552 0
M  V30 24554 H 2430.59 0.245594 1.93145 0
M  V30 24555 H 2428.76 -1.7539 3.46544 0
M  V30 24556 H 2430.49 -1.65583 3.69275 0
M  V30 24557 H 2427.24 0.0732933 4.73543 0
M  V30 24558 H 2427.67 2.05542 6.45044 0
M  V30 24559 H 2432.31 0.192208 4.22363 0
M  V30 24560 H 2430.03 3.36489 7.34712 0
M  V30 24561 H 2433.61 1.84934 5.51626 0
M  V30 24562 H 2432.49 3.41436 7.05968 0
M  V30 24563 N 2430 -1.57115 -0.123538 0
M  V30 24564 C 2431.24 -1.84887 -0.833354 0
M  V30 24565 C 2431.58 -0.735324 -1.7974 0
M  V30 24566 O 2430.85 0.259216 -1.92765 0
M  V30 24567 C 2431.13 -3.23231 -1.58725 0
M  V30 24568 C 2430.99 -4.45179 -0.643104 0
M  V30 24569 C 2432.31 -3.59089 -2.54447 0
M  V30 24570 H 2429.42 -0.672505 -0.301507 0
M  V30 24571 H 2432.07 -1.89748 -0.0977447 0
M  V30 24572 H 2430.22 -3.19218 -2.21433 0
M  V30 24573 H 2431.89 -4.61293 -0.0252204 0
M  V30 24574 H 2430.13 -4.33776 0.0456901 0
M  V30 24575 H 2430.8 -5.38639 -1.20714 0
M  V30 24576 H 2433.28 -3.63864 -2.01846 0
M  V30 24577 H 2432.15 -4.56875 -3.0423 0
M  V30 24578 H 2432.42 -2.8627 -3.36901 0
M  V30 24579 N 2431.47 0.393589 -1.52606 0
M  V30 24580 C 2432.4 1.48705 -1.80025 0
M  V30 24581 C 2433.39 1.57107 -0.652023 0
M  V30 24582 O 2434.57 1.7213 -0.899161 0
M  V30 24583 C 2431.7 2.86367 -1.96497 0
M  V30 24584 C 2430.65 2.92808 -3.12166 0
M  V30 24585 C 2429.98 4.32874 -3.13885 0
M  V30 24586 C 2431.28 2.62872 -4.51326 0
M  V30 24587 H 2432.97 1.2601 -2.71591 0
M  V30 24588 H 2430.52 0.604755 -1.30686 0
M  V30 24589 H 2432.47 3.62864 -2.14261 0
M  V30 24590 H 2431.2 3.1039 -1.01616 0
M  V30 24591 H 2429.86 2.18759 -2.94177 0
M  V30 24592 H 2429.5 4.5393 -2.16695 0
M  V30 24593 H 2429.2 4.38105 -3.91583 0
M  V30 24594 H 2430.73 5.11284 -3.33798 0
M  V30 24595 H 2432.14 3.29088 -4.6944 0
M  V30 24596 H 2430.54 2.79459 -5.31058 0
M  V30 24597 H 2431.61 1.58234 -4.58356 0
M  V30 24598 N 2432.95 1.43492 0.651762 0
M  V30 24599 C 2434.2 1.44899 1.40885 0
M  V30 24600 C 2434.52 0.0749429 1.94856 0
M  V30 24601 O 2433.79 -0.889925 1.7452 0
M  V30 24602 H 2432.37 0.533487 0.522877 0
M  V30 24603 H 2435.03 1.79106 0.768578 0
M  V30 24604 H 2434.13 2.1624 2.25048 0
M  V30 24605 N 2434.43 -0.890264 1.30046 0
M  V30 24606 C 2435.36 -2.0117 1.18545 0
M  V30 24607 C 2436.34 -1.69924 0.0773655 0
M  V30 24608 O 2437.53 -1.92472 0.258484 0
M  V30 24609 C 2434.66 -3.36201 0.871 0
M  V30 24610 C 2433.61 -3.81688 1.93644 0
M  V30 24611 C 2432.94 -5.1395 1.47509 0
M  V30 24612 C 2434.24 -4.00988 3.34673 0
M  V30 24613 H 2435.93 -2.1105 2.12363 0
M  V30 24614 H 2433.48 -1.01405 1.0224 0
M  V30 24615 H 2435.43 -4.14171 0.777214 0
M  V30 24616 H 2434.15 -3.26438 -0.102868 0
M  V30 24617 H 2432.81 -3.05943 2.01977 0
M  V30 24618 H 2432.46 -5.00611 0.489639 0
M  V30 24619 H 2432.16 -5.45356 2.1877 0
M  V30 24620 H 2433.68 -5.94451 1.39499 0
M  V30 24621 H 2435.1 -4.69412 3.29128 0
M  V30 24622 H 2433.5 -4.43762 4.03974 0
M  V30 24623 H 2434.57 -3.05014 3.76954 0
M  V30 24624 N 2435.91 -1.12676 -1.1019 0
M  V30 24625 C 2436.84 -0.8194 -2.18651 0
M  V30 24626 C 2437.82 0.217886 -1.68699 0
M  V30 24627 O 2439 0.078524 -1.94041 0
M  V30 24628 C 2436.13 -0.276001 -3.46202 0
M  V30 24629 C 2435.09 -1.24664 -4.09442 0
M  V30 24630 C 2434.41 -0.563352 -5.31724 0
M  V30 24631 C 2435.71 -2.60225 -4.52858 0
M  V30 24632 H 2437.41 -1.72632 -2.44619 0
M  V30 24633 H 2434.95 -0.831472 -1.17569 0
M  V30 24634 H 2436.91 -0.048689 -4.21372 0
M  V30 24635 H 2435.63 0.666275 -3.19732 0
M  V30 24636 H 2434.29 -1.4598 -3.36282 0
M  V30 24637 H 2433.94 0.384147 -5.01531 0
M  V30 24638 H 2433.64 -1.21085 -5.74989 0
M  V30 24639 H 2435.16 -0.345137 -6.09624 0
M  V30 24640 H 2436.58 -2.42922 -5.1929 0
M  V30 24641 H 2434.97 -3.21077 -5.06981 0
M  V30 24642 H 2436.04 -3.18478 -3.6565 0
M  V30 24643 N 2437.39 1.28028 -0.919057 0
M  V30 24644 C 2438.63 1.95035 -0.555791 0
M  V30 24645 C 2438.97 1.7213 0.899167 0
M  V30 24646 O 2438.24 1.04533 1.64021 0
M  V30 24647 C 2438.52 3.4938 -0.872085 0
M  V30 24648 C 2438.38 3.81665 -2.38016 0
M  V30 24649 C 2439.7 4.38526 -0.371927 0
M  V30 24650 H 2436.81 0.708377 -0.203398 0
M  V30 24651 H 2439.46 1.51301 -1.14927 0
M  V30 24652 H 2437.61 3.86763 -0.367014 0
M  V30 24653 H 2439.28 3.54123 -2.95626 0
M  V30 24654 H 2437.52 3.28522 -2.83295 0
M  V30 24655 H 2438.19 4.89465 -2.55201 0
M  V30 24656 H 2440.67 4.08245 -0.804673 0
M  V30 24657 H 2439.54 5.45361 -0.622268 0
M  V30 24658 H 2439.81 4.36067 0.727857 0
M  V30 24659 N 2438.86 0.683613 1.42002 0
M  V30 24660 C 2440.11 0.209136 2.01015 0
M  V30 24661 C 2440.43 -1.19147 1.54367 0
M  V30 24662 O 2439.7 -1.80171 0.769115 0
M  V30 24663 H 2438.28 0.0743281 0.743293 0
M  V30 24664 H 2440.95 0.882097 1.73796 0
M  V30 24665 H 2440.04 0.217255 3.11343 0
M  V30 24666 N 2440.34 -1.5169 0.427538 0
M  V30 24667 C 2441.27 -2.30394 -0.379559 0
M  V30 24668 C 2442.25 -1.35385 -1.0298 0
M  V30 24669 O 2443.44 -1.64302 -1.03531 0
M  V30 24670 C 2440.57 -3.13883 -1.48644 0
M  V30 24671 C 2439.52 -4.1709 -0.960221 0
M  V30 24672 C 2438.85 -4.89037 -2.1621 0
M  V30 24673 C 2440.15 -5.223 -0.00144499 0
M  V30 24674 H 2441.84 -2.98114 0.277216 0
M  V30 24675 H 2439.39 -1.43368 0.134764 0
M  V30 24676 H 2441.34 -3.67718 -2.0582 0
M  V30 24677 H 2440.07 -2.43966 -2.17136 0
M  V30 24678 H 2438.73 -3.64292 -0.410742 0
M  V30 24679 H 2438.37 -4.15633 -2.83299 0
M  V30 24680 H 2438.07 -5.58819 -1.81644 0
M  V30 24681 H 2439.6 -5.45692 -2.73958 0
M  V30 24682 H 2441.01 -5.71265 -0.482586 0
M  V30 24683 H 2439.41 -5.99552 0.256305 0
M  V30 24684 H 2440.48 -4.75736 0.938258 0
M  V30 24685 N 2441.82 -0.15856 -1.568 0
M  V30 24686 C 2442.75 0.77257 -2.20349 0
M  V30 24687 C 2443.73 1.24857 -1.1552 0
M  V30 24688 O 2444.92 1.30404 -1.43905 0
M  V30 24689 C 2442.05 2.00724 -2.83421 0
M  V30 24690 C 2441 1.66758 -3.94177 0
M  V30 24691 C 2440.33 2.97584 -4.44238 0
M  V30 24692 C 2441.63 0.905357 -5.14393 0
M  V30 24693 H 2443.32 0.242906 -2.98413 0
M  V30 24694 H 2440.87 0.115393 -1.43537 0
M  V30 24695 H 2442.82 2.66354 -3.26548 0
M  V30 24696 H 2441.54 2.56082 -2.02705 0
M  V30 24697 H 2440.2 1.03502 -3.51686 0
M  V30 24698 H 2439.85 3.50957 -3.60331 0
M  V30 24699 H 2439.55 2.75617 -5.1895 0
M  V30 24700 H 2441.08 3.64266 -4.90044 0
M  V30 24701 H 2442.49 1.46398 -5.54293 0
M  V30 24702 H 2440.89 0.785195 -5.94941 0
M  V30 24703 H 2441.96 -0.100753 -4.84795 0
M  V30 24704 N 2443.3 1.57178 0.115204 0
M  V30 24705 C 2444.23 2.03653 1.14227 0
M  V30 24706 C 2445.21 0.921681 1.42965 0
M  V30 24707 O 2446.4 1.19164 1.53341 0
M  V30 24708 C 2443.53 2.44405 2.46746 0
M  V30 24709 C 2442.48 3.59369 2.32461 0
M  V30 24710 C 2441.81 3.86033 3.69977 0
M  V30 24711 C 2443.11 4.90962 1.78194 0
M  V30 24712 H 2444.8 2.89706 0.755698 0
M  V30 24713 H 2442.35 1.39374 0.362068 0
M  V30 24714 H 2444.3 2.75523 3.1885 0
M  V30 24715 H 2443.02 1.55327 2.873 0
M  V30 24716 H 2441.68 3.28466 1.62805 0
M  V30 24717 H 2441.33 2.94154 4.08023 0
M  V30 24718 H 2441.03 4.63419 3.61271 0
M  V30 24719 H 2442.55 4.19606 4.4358 0
M  V30 24720 H 2443.97 5.20592 2.40119 0
M  V30 24721 H 2442.36 5.72374 1.803 0
M  V30 24722 H 2443.43 4.79223 0.739792 0
M  V30 24723 N 2444.78 -0.38549 1.52813 0
M  V30 24724 C 2445.71 -1.47749 1.80811 0
M  V30 24725 C 2446.69 -1.56759 0.660346 0
M  V30 24726 O 2447.87 -1.71651 0.908277 0
M  V30 24727 C 2445 -2.85321 1.98013 0
M  V30 24728 C 2443.96 -2.91148 3.13714 0
M  V30 24729 C 2443.28 -4.31204 3.16176 0
M  V30 24730 C 2444.58 -2.60475 4.52714 0
M  V30 24731 H 2446.28 -1.24568 2.72256 0
M  V30 24732 H 2443.82 -0.597816 1.31004 0
M  V30 24733 H 2445.78 -3.61722 2.16183 0
M  V30 24734 H 2444.5 -3.09846 1.03261 0
M  V30 24735 H 2443.16 -2.17195 2.95333 0
M  V30 24736 H 2442.81 -4.52774 2.191 0
M  V30 24737 H 2442.51 -4.36022 3.93901 0
M  V30 24738 H 2444.03 -5.09506 3.36505 0
M  V30 24739 H 2445.45 -3.26593 4.71179 0
M  V30 24740 H 2443.84 -2.76639 5.32533 0
M  V30 24741 H 2444.91 -1.55801 4.59188 0
M  V30 24742 N 2446.26 -1.43835 -0.644143 0
M  V30 24743 C 2447.19 -1.52512 -1.76812 0
M  V30 24744 C 2448.17 -0.379081 -1.65822 0
M  V30 24745 O 2449.35 -0.597498 -1.8478 0
M  V30 24746 C 2446.48 -1.45645 -3.15285 0
M  V30 24747 C 2445.44 -2.58592 -3.41049 0
M  V30 24748 C 2444.76 -2.36778 -4.79417 0
M  V30 24749 C 2446.06 -4.00803 -3.34895 0
M  V30 24750 H 2447.76 -2.46588 -1.69807 0
M  V30 24751 H 2445.3 -1.18681 -0.815521 0
M  V30 24752 H 2447.25 -1.50318 -3.93678 0
M  V30 24753 H 2445.98 -0.480781 -3.23042 0
M  V30 24754 H 2444.64 -2.53287 -2.65031 0
M  V30 24755 H 2444.29 -1.37433 -4.83861 0
M  V30 24756 H 2443.99 -3.12496 -4.97614 0
M  V30 24757 H 2445.51 -2.43248 -5.60056 0
M  V30 24758 H 2446.92 -4.07546 -4.03211 0
M  V30 24759 H 2445.32 -4.76619 -3.64628 0
M  V30 24760 H 2446.39 -4.25295 -2.32921 0
M  V30 24761 N 2447.73 0.883355 -1.30517 0
M  V30 24762 C 2448.66 2.00538 -1.1961 0
M  V30 24763 C 2449.64 1.69881 -0.0863759 0
M  V30 24764 O 2450.83 1.92332 -0.268687 0
M  V30 24765 C 2447.96 3.35734 -0.888817 0
M  V30 24766 C 2446.91 3.80656 -1.95665 0
M  V30 24767 C 2446.24 5.13161 -1.50233 0
M  V30 24768 C 2447.54 3.99207 -3.36795 0
M  V30 24769 H 2449.23 2.09921 -2.13479 0
M  V30 24770 H 2446.78 1.00861 -1.02776 0
M  V30 24771 H 2448.73 4.13753 -0.799167 0
M  V30 24772 H 2447.46 3.26488 0.0855552 0
M  V30 24773 H 2446.12 3.04867 -2.03597 0
M  V30 24774 H 2445.76 5.00344 -0.51618 0
M  V30 24775 H 2445.46 5.44188 -2.21659 0
M  V30 24776 H 2446.99 5.93703 -1.4265 0
M  V30 24777 H 2448.4 4.6766 -3.31613 0
M  V30 24778 H 2446.8 4.41614 -4.06322 0
M  V30 24779 H 2447.87 3.03011 -3.78566 0
M  V30 24780 N 2449.21 1.13259 1.09591 0
M  V30 24781 C 2450.46 0.891524 1.81373 0
M  V30 24782 C 2450.78 -0.583976 1.8605 0
M  V30 24783 O 2450.05 -1.42446 1.34484 0
M  V30 24784 H 2448.63 0.32684 0.671703 0
M  V30 24785 H 2451.29 1.4288 1.32557 0
M  V30 24786 H 2450.39 1.28076 2.8461 0
M  V30 24787 N 2450.69 -1.27539 0.925834 0
M  V30 24788 C 2451.62 -2.29302 0.440788 0
M  V30 24789 C 2452.6 -1.62649 -0.497942 0
M  V30 24790 O 2453.79 -1.89971 -0.403093 0
M  V30 24791 C 2450.92 -3.45923 -0.308987 0
M  V30 24792 C 2449.87 -4.24558 0.541735 0
M  V30 24793 C 2449.2 -5.33636 -0.337097 0
M  V30 24794 C 2450.5 -4.9011 1.80524 0
M  V30 24795 H 2452.19 -2.70124 1.29126 0
M  V30 24796 H 2449.74 -1.29857 0.622346 0
M  V30 24797 H 2451.69 -4.16211 -0.659242 0
M  V30 24798 H 2450.41 -3.04013 -1.19347 0
M  V30 24799 H 2449.07 -3.56013 0.874672 0
M  V30 24800 H 2448.72 -4.87969 -1.22048 0
M  V30 24801 H 2448.42 -5.87155 0.228601 0
M  V30 24802 H 2449.94 -6.06768 -0.682965 0
M  V30 24803 H 2451.36 -5.52696 1.52317 0
M  V30 24804 H 2449.75 -5.53679 2.3143 0
M  V30 24805 H 2450.82 -4.13917 2.52588 0
M  V30 24806 N 2452.17 -0.691135 -1.41637 0
M  V30 24807 C 2453.42 -0.219793 -2.00901 0
M  V30 24808 C 2453.74 1.18326 -1.54996 0
M  V30 24809 O 2453.01 1.7976 -0.778659 0
M  V30 24810 H 2451.59 -0.0782689 -0.742888 0
M  V30 24811 H 2454.25 -0.891301 -1.73326 0
M  V30 24812 H 2453.34 -0.233763 -3.11223 0
M  V30 24813 N 2453.65 1.51461 -0.435577 0
M  V30 24814 C 2454.61 2.26273 0.365097 0
M  V30 24815 C 2455.61 1.29649 0.951204 0
M  V30 24816 O 2456.8 1.53375 0.825931 0
M  V30 24817 C 2453.93 3.05317 1.51639 0
M  V30 24818 H 2455.12 2.98489 -0.290526 0
M  V30 24819 H 2452.68 1.55157 -0.188703 0
M  V30 24820 H 2453.41 2.37514 2.20812 0
M  V30 24821 H 2453.2 3.76286 1.10232 0
M  V30 24822 H 2454.69 3.61991 2.08212 0
M  V30 24823 N 2455.12 0.166873 1.56714 0
M  V30 24824 C 2456.36 -0.481728 1.98642 0
M  V30 24825 C 2456.73 -1.60719 1.05041 0
M  V30 24826 O 2457.93 -2.31803 1.36091 0
M  V30 24827 C 2456.2 -0.956457 3.44364 0
M  V30 24828 S 2457.76 -1.60687 4.0832 0
M  V30 24829 H 2454.58 -0.155104 0.693876 0
M  V30 24830 H 2457.18 0.263285 1.93719 0
M  V30 24831 H 2455.88 -0.126863 4.10204 0
M  V30 24832 H 2455.41 -1.73562 3.53044 0
M  V30 24833 H 2457.43 -2.89486 4.03004 0
M  V30 24834 N 2456.6 -1.57237 -0.106866 0
M  V30 24835 C 2457.83 -1.89406 -0.825157 0
M  V30 24836 C 2458.24 -0.757526 -1.73373 0
M  V30 24837 O 2457.58 0.280083 -1.81552 0
M  V30 24838 C 2457.65 -3.16713 -1.70097 0
M  V30 24839 C 2457.31 -4.46686 -0.965444 0
M  V30 24840 C 2458.31 -5.1903 -0.30065 0
M  V30 24841 C 2455.99 -4.93368 -0.943018 0
M  V30 24842 C 2457.99 -6.36286 0.376734 0
M  V30 24843 C 2455.67 -6.10539 -0.261842 0
M  V30 24844 C 2456.67 -6.81846 0.396867 0
M  V30 24845 O 2456.36 -7.96786 1.06715 0
M  V30 24846 H 2456.09 -0.63126 -0.241841 0
M  V30 24847 H 2458.64 -2.05193 -0.092113 0
M  V30 24848 H 2456.87 -2.97041 -2.47596 0
M  V30 24849 H 2458.56 -3.34806 -2.29477 0
M  V30 24850 H 2459.33 -4.84011 -0.309514 0
M  V30 24851 H 2455.21 -4.37762 -1.44517 0
M  V30 24852 H 2458.75 -6.91881 0.891455 0
M  V30 24853 H 2454.65 -6.45013 -0.250783 0
M  V30 24854 H 2455.42 -8.12698 0.97285 0
M  V30 24855 N 2458.08 0.377381 -1.53015 0
M  V30 24856 C 2459.31 1.14216 -1.72517 0
M  V30 24857 C 2459.72 1.83389 -0.448768 0
M  V30 24858 O 2459.08 1.7312 0.577562 0
M  V30 24859 C 2459.13 2.18143 -2.88264 0
M  V30 24860 O 2458.85 1.51788 -4.10965 0
M  V30 24861 C 2460.35 3.07259 -3.19542 0
M  V30 24862 H 2457.57 0.34199 -0.577307 0
M  V30 24863 H 2460.12 0.4399 -1.99713 0
M  V30 24864 H 2458.27 2.83986 -2.63497 0
M  V30 24865 H 2458.69 2.20937 -4.75697 0
M  V30 24866 H 2460.16 3.76186 -4.03966 0
M  V30 24867 H 2460.64 3.71415 -2.34409 0
M  V30 24868 H 2461.24 2.47047 -3.46191 0
M  V30 24869 N 2459.56 1.44175 0.636506 0
M  V30 24870 C 2460.8 1.47887 1.39646 0
M  V30 24871 C 2461.16 0.10778 1.92098 0
M  V30 24872 O 2460.45 -0.876178 1.70393 0
M  V30 24873 C 2460.65 2.47009 2.58305 0
M  V30 24874 C 2460.48 3.93621 2.17469 0
M  V30 24875 C 2459.25 4.61847 2.05002 0
M  V30 24876 C 2461.44 4.82987 1.76714 0
M  V30 24877 N 2459.43 5.93307 1.57672 0
M  V30 24878 C 2460.8 6.0385 1.4059 0
M  V30 24879 C 2462.85 4.70099 1.64046 0
M  V30 24880 C 2461.55 7.13254 0.930662 0
M  V30 24881 C 2463.58 5.79523 1.17927 0
M  V30 24882 C 2462.94 6.99523 0.827502 0
M  V30 24883 H 2459.04 0.596214 0.506016 0
M  V30 24884 H 2461.63 1.80466 0.730759 0
M  V30 24885 H 2459.8 2.16429 3.22511 0
M  V30 24886 H 2461.53 2.41051 3.25079 0
M  V30 24887 H 2458.28 4.16585 2.25287 0
M  V30 24888 H 2458.71 6.63133 1.36322 0
M  V30 24889 H 2463.35 3.77766 1.89876 0
M  V30 24890 H 2461.07 8.05401 0.659871 0
M  V30 24891 H 2464.65 5.71576 1.08591 0
M  V30 24892 H 2463.53 7.82753 0.476094 0
M  V30 24893 N 2461.04 -0.876421 1.30983 0
M  V30 24894 C 2462.45 -1.16111 1.095 0
M  V30 24895 C 2462.65 -2.01022 -0.138714 0
M  V30 24896 O 2461.71 -2.38472 -0.829893 0
M  V30 24897 C 2463.02 -1.8595 2.36312 0
M  V30 24898 C 2464.57 -1.98678 2.41859 0
M  V30 24899 C 2465.04 -2.7193 3.68535 0
M  V30 24900 N 2466.54 -2.7947 3.69392 0
M  V30 24901 C 2467.27 -3.36745 4.64101 0
M  V30 24902 N 2466.77 -3.95002 5.69162 0
M  V30 24903 N 2468.56 -3.34642 4.51632 0
M  V30 24904 H 2460.71 -0.310457 2.10119 0
M  V30 24905 H 2462.97 -0.200115 0.926638 0
M  V30 24906 H 2462.68 -1.31005 3.2639 0
M  V30 24907 H 2462.55 -2.86274 2.45615 0
M  V30 24908 H 2464.94 -2.5279 1.52254 0
M  V30 24909 H 2465.02 -0.974158 2.36524 0
M  V30 24910 H 2464.67 -2.18488 4.58503 0
M  V30 24911 H 2464.6 -3.73587 3.71134 0
M  V30 24912 H 2467.09 -2.38118 2.93442 0
M  V30 24913 H 2467.4 -4.36797 6.37517 0
M  V30 24914 H 2465.74 -3.93396 5.72944 0
M  V30 24915 H 2468.94 -2.88363 3.68733 0
M  V30 24916 H 2469.11 -3.78981 5.25621 0
M  V30 24917 N 2462.51 -1.13839 -1.08989 0
M  V30 24918 C 2463.93 -0.877529 -1.3331 0
M  V30 24919 C 2464.13 0.484526 -1.95588 0
M  V30 24920 O 2463.19 1.23009 -2.20511 0
M  V30 24921 C 2464.5 -2.00564 -2.24042 0
M  V30 24922 C 2466.05 -2.03825 -2.37538 0
M  V30 24923 C 2466.52 -3.15911 -3.31608 0
M  V30 24924 N 2468.01 -3.15451 -3.39183 0
M  V30 24925 C 2468.75 -3.98818 -4.11985 0
M  V30 24926 N 2468.24 -4.92211 -4.87545 0
M  V30 24927 N 2470.04 -3.86901 -4.07755 0
M  V30 24928 H 2462.19 -2.01575 -0.66942 0
M  V30 24929 H 2464.45 -0.878021 -0.357466 0
M  V30 24930 H 2464.16 -2.98792 -1.85516 0
M  V30 24931 H 2464.03 -1.92364 -3.24462 0
M  V30 24932 H 2466.42 -1.06207 -2.75326 0
M  V30 24933 H 2466.5 -2.16096 -1.36881 0
M  V30 24934 H 2466.14 -4.13771 -2.94543 0
M  V30 24935 H 2466.07 -3.00878 -4.32181 0
M  V30 24936 H 2468.56 -2.47804 -2.8531 0
M  V30 24937 H 2468.88 -5.52302 -5.40539 0
M  V30 24938 H 2467.22 -4.96214 -4.86618 0
M  V30 24939 H 2470.41 -3.13263 -3.47828 0
M  V30 24940 H 2470.59 -4.521 -4.6423 0
M  V30 24941 N 2463.99 1.27046 -0.932584 0
M  V30 24942 C 2465.41 1.46486 -0.63357 0
M  V30 24943 C 2465.61 1.84251 0.815714 0
M  V30 24944 O 2464.66 1.95895 1.59316 0
M  V30 24945 C 2465.98 2.55372 -1.58763 0
M  V30 24946 C 2467.53 2.69229 -1.59639 0
M  V30 24947 C 2468 3.81278 -2.53753 0
M  V30 24948 N 2469.49 3.88659 -2.51989 0
M  V30 24949 C 2470.23 4.74791 -3.21499 0
M  V30 24950 N 2469.72 5.65374 -4.00405 0
M  V30 24951 N 2471.52 4.68562 -3.10493 0
M  V30 24952 H 2463.67 1.00818 -1.86948 0
M  V30 24953 H 2465.93 0.50403 -0.802906 0
M  V30 24954 H 2465.64 2.34428 -2.62177 0
M  V30 24955 H 2465.51 3.52858 -1.33307 0
M  V30 24956 H 2467.9 2.89552 -0.569539 0
M  V30 24957 H 2467.98 1.72214 -1.89145 0
M  V30 24958 H 2467.62 3.61709 -3.56551 0
M  V30 24959 H 2467.55 4.77731 -2.21541 0
M  V30 24960 H 2470.04 3.23891 -1.94686 0
M  V30 24961 H 2470.36 6.27968 -4.50417 0
M  V30 24962 H 2468.7 5.65154 -4.04508 0
M  V30 24963 H 2471.89 3.96795 -2.48338 0
M  V30 24964 H 2472.06 5.35469 -3.64934 0
M  V30 24965 N 2465.47 0.698636 1.41269 0
M  V30 24966 C 2466.89 0.37049 1.5524 0
M  V30 24967 C 2467.09 -1.12228 1.67353 0
M  V30 24968 O 2466.14 -1.90815 1.65366 0
M  V30 24969 C 2467.46 1.1217 2.78995 0
M  V30 24970 C 2469 1.10635 2.92795 0
M  V30 24971 C 2469.48 1.83937 4.19441 0
M  V30 24972 N 2470.97 1.80922 4.26405 0
M  V30 24973 C 2471.7 2.34476 5.23267 0
M  V30 24974 N 2471.2 2.96515 6.26139 0
M  V30 24975 N 2472.99 2.24715 5.15228 0
M  V30 24976 H 2465.14 1.66678 1.31651 0
M  V30 24977 H 2467.41 0.703559 0.635381 0
M  V30 24978 H 2467.11 2.17648 2.76265 0
M  V30 24979 H 2466.99 0.702274 3.70605 0
M  V30 24980 H 2469.37 0.0598232 2.95039 0
M  V30 24981 H 2469.46 1.56486 2.0235 0
M  V30 24982 H 2469.1 2.88571 4.17959 0
M  V30 24983 H 2469.03 1.35518 5.08864 0
M  V30 24984 H 2471.52 1.35693 3.52698 0
M  V30 24985 H 2471.83 3.34939 6.96445 0
M  V30 24986 H 2470.18 3.00594 6.26633 0
M  V30 24987 H 2473.37 1.75918 4.33786 0
M  V30 24988 H 2473.54 2.66755 5.90547 0
M  V30 24989 N 2466.95 -1.51228 0.443603 0
M  V30 24990 C 2468.19 -2.02439 -0.120939 0
M  V30 24991 C 2468.53 -1.32676 -1.41812 0
M  V30 24992 O 2467.8 -0.443655 -1.89373 0
M  V30 24993 C 2468.09 -3.58555 -0.333228 0
M  V30 24994 C 2467.94 -4.38926 0.983045 0
M  V30 24995 C 2469.26 -4.26126 -1.10021 0
M  V30 24996 H 2466.38 -0.735775 -0.0424793 0
M  V30 24997 H 2469.02 -1.80808 0.583826 0
M  V30 24998 H 2467.17 -3.77117 -0.933548 0
M  V30 24999 H 2468.84 -4.32 1.61783 0
M  V30 25000 H 2467.08 -4.03761 1.58618 0
M  V30 25001 H 2467.75 -5.4634 0.788475 0
M  V30 25002 H 2470.23 -4.11872 -0.591638 0
M  V30 25003 H 2469.11 -5.35227 -1.21751 0
M  V30 25004 H 2469.37 -3.87412 -2.12989 0
M  V30 25005 N 2468.43 -0.175182 -1.56623 0
M  V30 25006 C 2469.67 0.471186 -1.98895 0
M  V30 25007 C 2470.03 1.60159 -1.05891 0
M  V30 25008 O 2471.23 2.31078 -1.37319 0
M  V30 25009 C 2469.5 0.938181 -3.44867 0
M  V30 25010 S 2471.06 1.58519 -4.09166 0
M  V30 25011 H 2467.88 0.151422 -0.694689 0
M  V30 25012 H 2470.48 -0.273554 -1.93577 0
M  V30 25013 H 2469.19 0.105108 -4.10265 0
M  V30 25014 H 2468.72 1.71687 -3.53959 0
M  V30 25015 H 2470.73 2.87345 -4.04533 0
M  V30 25016 N 2469.91 1.57292 0.0985263 0
M  V30 25017 C 2470.85 2.01816 1.11977 0
M  V30 25018 C 2471.82 0.893865 1.39997 0
M  V30 25019 O 2473.01 1.15961 1.51518 0
M  V30 25020 C 2470.15 2.44471 2.43573 0
M  V30 25021 C 2469.26 3.70406 2.22313 0
M  V30 25022 C 2468.4 4.01955 3.47283 0
M  V30 25023 C 2467.43 5.2101 3.2127 0
M  V30 25024 N 2466.57 5.48328 4.38498 0
M  V30 25025 H 2471.41 2.88842 0.733098 0
M  V30 25026 H 2468.95 1.42864 0.350457 0
M  V30 25027 H 2470.91 2.67245 3.20368 0
M  V30 25028 H 2469.54 1.6046 2.80094 0
M  V30 25029 H 2468.59 3.55129 1.36337 0
M  V30 25030 H 2469.9 4.57349 1.99081 0
M  V30 25031 H 2469.05 4.25487 4.32488 0
M  V30 25032 H 2467.79 3.13528 3.73566 0
M  V30 25033 H 2466.8 4.97302 2.34459 0
M  V30 25034 H 2468.02 6.11033 2.96337 0
M  V30 25035 H 2465.97 4.62859 4.64863 0
M  V30 25036 H 2465.89 6.29635 4.18444 0
M  V30 25037 H 2467.15 5.76394 5.24777 0
M  V30 25038 N 2471.38 -0.369261 1.53213 0
M  V30 25039 C 2472.32 -1.47216 1.7567 0
M  V30 25040 C 2473.33 -1.49803 0.637413 0
M  V30 25041 O 2474.52 -1.53349 0.913588 0
M  V30 25042 C 2471.62 -2.85996 1.81823 0
M  V30 25043 C 2470.79 -3.07148 3.11414 0
M  V30 25044 C 2469.85 -4.26021 3.08857 0
M  V30 25045 O 2468.88 -4.21373 3.82666 0
M  V30 25046 N 2470.08 -5.33242 2.29419 0
M  V30 25047 H 2472.84 -1.28332 2.70834 0
M  V30 25048 H 2470.4 -0.558954 1.51945 0
M  V30 25049 H 2472.4 -3.63651 1.77594 0
M  V30 25050 H 2470.97 -2.98145 0.939597 0
M  V30 25051 H 2470.19 -2.17184 3.28975 0
M  V30 25052 H 2471.47 -3.18147 3.97064 0
M  V30 25053 H 2470.87 -5.3988 1.68956 0
M  V30 25054 H 2469.43 -6.09489 2.31012 0
M  V30 25055 N 2472.86 -1.4451 -0.628851 0
M  V30 25056 C 2474.09 -1.51122 -1.42045 0
M  V30 25057 C 2474.51 -0.13785 -1.87594 0
M  V30 25058 O 2473.87 0.873409 -1.58875 0
M  V30 25059 C 2473.92 -2.48256 -2.61537 0
M  V30 25060 O 2473.02 -1.98566 -3.61449 0
M  V30 25061 H 2472.36 -0.510224 -0.424933 0
M  V30 25062 H 2474.89 -1.89666 -0.767341 0
M  V30 25063 H 2474.9 -2.66366 -3.09052 0
M  V30 25064 H 2473.58 -3.48011 -2.2773 0
M  V30 25065 H 2472.15 -1.90232 -3.20727 0
M  V30 25066 N 2474.34 0.869463 -1.31446 0
M  V30 25067 C 2475.27 1.9799 -1.13469 0
M  V30 25068 C 2476.25 1.62555 -0.0380577 0
M  V30 25069 O 2477.43 1.87493 -0.194577 0
M  V30 25070 C 2474.56 3.30654 -0.73388 0
M  V30 25071 C 2473.61 3.85072 -1.83362 0
M  V30 25072 S 2474.44 4.10466 -3.43916 0
M  V30 25073 C 2475.6 5.46126 -3.05773 0
M  V30 25074 H 2475.83 2.12936 -2.07474 0
M  V30 25075 H 2473.36 1.0197 -1.15937 0
M  V30 25076 H 2475.32 4.07327 -0.509378 0
M  V30 25077 H 2473.98 3.13542 0.187068 0
M  V30 25078 H 2473.17 4.80979 -1.50582 0
M  V30 25079 H 2472.78 3.15192 -2.01321 0
M  V30 25080 H 2475.07 6.27802 -2.54697 0
M  V30 25081 H 2476.01 5.83857 -4.00646 0
M  V30 25082 H 2476.42 5.09425 -2.43201 0
M  V30 25083 N 2475.82 1.14415 1.08383 0
M  V30 25084 C 2477.07 0.910711 1.80417 0
M  V30 25085 C 2477.39 -0.56421 1.86659 0
M  V30 25086 O 2476.66 -1.41012 1.35987 0
M  V30 25087 H 2475.24 0.333946 0.668198 0
M  V30 25088 H 2477.9 1.44278 1.31034 0
M  V30 25089 H 2476.99 1.31087 2.83236 0
M  V30 25090 N 2477.3 -1.26549 0.939309 0
M  V30 25091 C 2478.21 -2.30176 0.453473 0
M  V30 25092 C 2479.22 -1.67487 -0.47162 0
M  V30 25093 O 2480.4 -1.98307 -0.351605 0
M  V30 25094 C 2477.46 -3.45606 -0.275265 0
M  V30 25095 C 2476.52 -4.23781 0.686159 0
M  V30 25096 C 2475.76 -5.33699 -0.00789613 0
M  V30 25097 O 2475.98 -5.57087 -1.22518 0
M  V30 25098 O 2474.91 -5.98161 0.669851 0
M  V30 25099 H 2478.74 -2.73792 1.31421 0
M  V30 25100 H 2476.32 -1.31713 0.705119 0
M  V30 25101 H 2478.21 -4.15781 -0.685838 0
M  V30 25102 H 2476.88 -3.04022 -1.11142 0
M  V30 25103 H 2475.79 -3.56094 1.14664 0
M  V30 25104 H 2477.12 -4.69109 1.48987 0
M  V30 25105 N 2478.77 -0.706118 -1.40896 0
M  V30 25106 C 2479.72 -0.0362302 -2.32572 0
M  V30 25107 C 2480.72 0.75724 -1.51533 0
M  V30 25108 O 2481.92 0.661674 -1.67397 0
M  V30 25109 H 2478.3 0.00708613 -0.751967 0
M  V30 25110 H 2480.27 -0.826299 -2.86731 0
M  V30 25111 C 2479.02 0.878481 -3.36419 0
M  V30 25112 H 2478.34 0.277331 -3.98837 0
M  V30 25113 H 2479.78 1.31533 -4.03082 0
M  V30 25114 C 2478.24 1.99956 -2.71144 0
M  V30 25115 O 2478.77 3.08945 -2.56741 0
M  V30 25116 N 2476.97 1.78039 -2.29674 0
M  V30 25117 H 2476.52 0.893999 -2.41589 0
M  V30 25118 H 2476.48 2.53231 -1.86336 0
M  V30 25119 N 2480.25 1.50991 -0.451617 0
M  V30 25120 C 2481.48 2.07105 0.11063 0
M  V30 25121 C 2481.9 1.3154 1.34458 0
M  V30 25122 O 2481.26 0.357396 1.77742 0
M  V30 25123 C 2481.31 3.58406 0.397175 0
M  V30 25124 O 2480.41 3.84883 1.48117 0
M  V30 25125 H 2479.75 0.663985 -0.00440438 0
M  V30 25126 H 2482.28 1.94429 -0.637061 0
M  V30 25127 H 2482.29 4.02894 0.643439 0
M  V30 25128 H 2480.97 4.12827 -0.504626 0
M  V30 25129 H 2479.54 3.52248 1.22375 0
M  V30 25130 N 2481.73 0.183486 1.56528 0
M  V30 25131 C 2482.98 -0.459002 1.97537 0
M  V30 25132 C 2483.31 -1.62069 1.06992 0
M  V30 25133 O 2482.58 -1.94132 0.119515 0
M  V30 25134 C 2482.87 -0.930307 3.47875 0
M  V30 25135 C 2482.72 0.232396 4.49199 0
M  V30 25136 C 2484.04 -1.79982 4.01615 0
M  V30 25137 H 2481.16 -0.165371 0.718207 0
M  V30 25138 H 2483.8 0.272072 1.88042 0
M  V30 25139 H 2481.95 -1.55327 3.56098 0
M  V30 25140 H 2483.62 0.869799 4.53026 0
M  V30 25141 H 2481.86 0.886002 4.24656 0
M  V30 25142 H 2482.54 -0.139699 5.51823 0
M  V30 25143 H 2485.01 -1.27454 3.96099 0
M  V30 25144 H 2483.89 -2.09858 5.07199 0
M  V30 25145 H 2484.15 -2.74992 3.46167 0
M  V30 25146 N 2483.21 -1.57342 -0.0901833 0
M  V30 25147 C 2484.12 -2.0574 -1.12731 0
M  V30 25148 C 2485.13 -0.983256 -1.43555 0
M  V30 25149 O 2486.31 -1.29675 -1.54099 0
M  V30 25150 C 2483.37 -2.47628 -2.42655 0
M  V30 25151 C 2482.44 -3.69258 -2.18969 0
M  V30 25152 C 2481.67 -4.09139 -3.42697 0
M  V30 25153 O 2481.89 -3.49065 -4.51121 0
M  V30 25154 O 2480.83 -5.02059 -3.31994 0
M  V30 25155 H 2484.65 -2.94389 -0.746228 0
M  V30 25156 H 2482.24 -1.46294 -0.303038 0
M  V30 25157 H 2484.12 -2.75175 -3.1915 0
M  V30 25158 H 2482.79 -1.62114 -2.8018 0
M  V30 25159 H 2481.7 -3.4682 -1.40238 0
M  V30 25160 H 2483.03 -4.55566 -1.86334 0
M  V30 25161 N 2484.69 0.36113 -1.53407 0
M  V30 25162 C 2485.62 1.46521 -1.74948 0
M  V30 25163 C 2486.6 1.51205 -0.597977 0
M  V30 25164 O 2487.78 1.6919 -0.831092 0
M  V30 25165 C 2484.91 2.84859 -1.83229 0
M  V30 25166 C 2483.95 2.97879 -3.05238 0
M  V30 25167 S 2484.79 2.66171 -4.64665 0
M  V30 25168 C 2485.94 4.06651 -4.758 0
M  V30 25169 H 2486.18 1.28028 -2.68321 0
M  V30 25170 H 2483.71 0.555739 -1.44052 0
M  V30 25171 H 2485.67 3.64566 -1.88685 0
M  V30 25172 H 2484.33 3.00659 -0.909001 0
M  V30 25173 H 2483.52 3.99205 -3.07655 0
M  V30 25174 H 2483.12 2.26101 -2.97917 0
M  V30 25175 H 2485.42 5.00952 -4.56128 0
M  V30 25176 H 2486.36 4.09237 -5.77867 0
M  V30 25177 H 2486.77 3.93858 -4.04396 0
M  V30 25178 N 2486.16 1.44842 0.621179 0
M  V30 25179 C 2487.13 1.52103 1.71457 0
M  V30 25180 C 2488.13 0.40196 1.55695 0
M  V30 25181 O 2489.32 0.664953 1.61009 0
M  V30 25182 C 2486.45 1.40453 3.10622 0
M  V30 25183 H 2487.64 2.49509 1.66389 0
M  V30 25184 H 2485.2 1.32081 0.835721 0
M  V30 25185 H 2485.93 0.441793 3.21277 0
M  V30 25186 H 2485.72 2.21608 3.23469 0
M  V30 25187 H 2487.21 1.48537 3.9029 0
M  V30 25188 N 2487.64 -0.862479 1.31905 0
M  V30 25189 C 2488.89 -1.61609 1.22019 0
M  V30 25190 C 2489.22 -1.93253 -0.219876 0
M  V30 25191 O 2488.47 -1.56819 -1.17073 0
M  V30 25192 C 2488.77 -2.95033 2.01718 0
M  V30 25193 C 2488.44 -2.82851 3.5115 0
M  V30 25194 C 2487.1 -2.79236 3.91894 0
M  V30 25195 C 2489.45 -2.69346 4.46209 0
M  V30 25196 C 2486.78 -2.59983 5.25952 0
M  V30 25197 C 2489.13 -2.51629 5.80401 0
M  V30 25198 C 2487.8 -2.46402 6.20357 0
M  V30 25199 H 2487.07 -0.59137 0.446501 0
M  V30 25200 H 2489.71 -1.00109 1.6325 0
M  V30 25201 H 2488.02 -3.6061 1.53191 0
M  V30 25202 H 2489.71 -3.5235 1.91444 0
M  V30 25203 H 2486.3 -2.86486 3.18785 0
M  V30 25204 H 2490.49 -2.71189 4.15656 0
M  V30 25205 H 2485.74 -2.54366 5.55975 0
M  V30 25206 H 2489.92 -2.40158 6.5368 0
M  V30 25207 H 2487.55 -2.31243 7.24176 0
M  V30 25208 N 2489.12 -1.14988 -1.07775 0
M  V30 25209 C 2490.05 -0.800474 -2.14767 0
M  V30 25210 C 2491.07 0.185566 -1.61739 0
M  V30 25211 O 2492.25 -0.0370672 -1.78462 0
M  V30 25212 C 2489.35 -0.168592 -3.3848 0
M  V30 25213 C 2488.53 -1.19098 -4.20874 0
M  V30 25214 C 2487.59 -0.581667 -5.22975 0
M  V30 25215 O 2486.61 -1.24643 -5.55385 0
M  V30 25216 N 2487.81 0.638605 -5.76977 0
M  V30 25217 H 2490.58 -1.72122 -2.45345 0
M  V30 25218 H 2488.14 -1.04518 -1.23643 0
M  V30 25219 H 2490.13 0.251693 -4.03917 0
M  V30 25220 H 2488.7 0.655414 -3.05652 0
M  V30 25221 H 2487.92 -1.78797 -3.51319 0
M  V30 25222 H 2489.21 -1.88142 -4.72737 0
M  V30 25223 H 2488.61 1.19714 -5.52888 0
M  V30 25224 H 2487.17 1.00131 -6.44063 0
M  V30 25225 N 2490.6 1.26049 -0.946007 0
M  V30 25226 C 2491.55 2.26207 -0.45813 0
M  V30 25227 C 2492.52 1.58868 0.484788 0
M  V30 25228 O 2493.7 1.86561 0.399936 0
M  V30 25229 C 2490.84 3.44073 0.266071 0
M  V30 25230 C 2489.95 4.26074 -0.71308 0
M  V30 25231 C 2489.09 5.3119 0.032808 0
M  V30 25232 C 2488.13 6.04873 -0.937846 0
M  V30 25233 N 2487.26 7.01745 -0.223397 0
M  V30 25234 H 2492.1 2.67311 -1.31715 0
M  V30 25235 H 2489.64 1.31427 -0.660713 0
M  V30 25236 H 2491.6 4.11244 0.702441 0
M  V30 25237 H 2490.23 3.03869 1.0892 0
M  V30 25238 H 2489.28 3.58646 -1.26795 0
M  V30 25239 H 2490.59 4.77133 -1.45414 0
M  V30 25240 H 2489.75 6.04396 0.528229 0
M  V30 25241 H 2488.49 4.80982 0.806717 0
M  V30 25242 H 2487.49 5.30489 -1.44435 0
M  V30 25243 H 2488.72 6.5717 -1.71184 0
M  V30 25244 H 2486.66 6.5384 0.531931 0
M  V30 25245 H 2486.58 7.50579 -0.903701 0
M  V30 25246 H 2487.85 7.79097 0.250771 0
M  V30 25247 N 2492.08 0.71358 1.4052 0
M  V30 25248 C 2492.99 0.0607079 2.34521 0
M  V30 25249 C 2494 -0.746043 1.57195 0
M  V30 25250 O 2495.18 -0.67946 1.89592 0
M  V30 25251 C 2492.24 -0.851432 3.36083 0
M  V30 25252 C 2491.3 -0.0348584 4.29286 0
M  V30 25253 C 2490.54 -0.903557 5.25996 0
M  V30 25254 O 2490.76 -2.14282 5.2862 0
M  V30 25255 O 2489.69 -0.343618 6.00918 0
M  V30 25256 H 2493.52 0.836023 2.91966 0
M  V30 25257 H 2491.11 0.474045 1.4168 0
M  V30 25258 H 2492.99 -1.37397 3.98372 0
M  V30 25259 H 2491.66 -1.60593 2.81055 0
M  V30 25260 H 2490.57 0.532698 3.70288 0
M  V30 25261 H 2491.9 0.681372 4.87461 0
M  V30 25262 N 2493.55 -1.50749 0.459618 0
M  V30 25263 C 2494.78 -2.06671 -0.0973386 0
M  V30 25264 C 2495.2 -1.32475 -1.34521 0
M  V30 25265 O 2494.55 -0.390665 -1.7827 0
M  V30 25266 C 2494.61 -3.59313 -0.397077 0
M  V30 25267 O 2494.33 -4.3071 0.801289 0
M  V30 25268 C 2495.83 -4.31821 -1.00226 0
M  V30 25269 H 2493.05 -0.670997 0.00197033 0
M  V30 25270 H 2495.59 -1.94058 0.645106 0
M  V30 25271 H 2493.75 -3.71766 -1.08944 0
M  V30 25272 H 2494.16 -5.21724 0.538949 0
M  V30 25273 H 2495.63 -5.39634 -1.16184 0
M  V30 25274 H 2496.11 -3.91564 -1.98933 0
M  V30 25275 H 2496.72 -4.23869 -0.348625 0
M  V30 25276 N 2495.03 -0.191784 -1.56429 0
M  V30 25277 C 2496.26 0.453551 -2.01868 0
M  V30 25278 C 2496.68 1.55418 -1.07194 0
M  V30 25279 O 2496.03 1.82341 -0.0762429 0
M  V30 25280 C 2496.08 1.01294 -3.47018 0
M  V30 25281 O 2495.8 -0.0437775 -4.38078 0
M  V30 25282 C 2497.31 1.73448 -4.07959 0
M  V30 25283 H 2494.53 0.114187 -0.661213 0
M  V30 25284 H 2497.07 -0.299519 -2.02295 0
M  V30 25285 H 2495.22 1.71641 -3.47301 0
M  V30 25286 H 2495.64 0.37212 -5.23178 0
M  V30 25287 H 2497.11 2.07824 -5.11384 0
M  V30 25288 H 2497.59 2.63698 -3.51227 0
M  V30 25289 H 2498.2 1.07694 -4.11439 0
M  V30 25290 N 2496.51 1.57387 0.0818378 0
M  V30 25291 C 2497.44 1.99702 1.1248 0
M  V30 25292 C 2498.46 0.901484 1.35562 0
M  V30 25293 O 2499.64 1.17948 1.3398 0
M  V30 25294 C 2496.74 2.31217 2.47774 0
M  V30 25295 C 2495.92 3.62489 2.44786 0
M  V30 25296 C 2494.98 3.81789 3.6211 0
M  V30 25297 O 2494 4.53492 3.43997 0
M  V30 25298 N 2495.2 3.23375 4.82088 0
M  V30 25299 H 2497.97 2.89784 0.764534 0
M  V30 25300 H 2495.53 1.59622 0.270636 0
M  V30 25301 H 2497.52 2.4131 3.24887 0
M  V30 25302 H 2496.09 1.47075 2.7584 0
M  V30 25303 H 2495.31 3.63243 1.53128 0
M  V30 25304 H 2496.6 4.48703 2.39881 0
M  V30 25305 H 2496 2.65157 4.99708 0
M  V30 25306 H 2494.56 3.38933 5.56747 0
M  V30 25307 N 2497.99 -0.35299 1.53596 0
M  V30 25308 C 2498.92 -1.4388 1.83904 0
M  V30 25309 C 2499.9 -1.55323 0.693448 0
M  V30 25310 O 2501.08 -1.69686 0.944482 0
M  V30 25311 C 2498.21 -2.81057 2.04021 0
M  V30 25312 C 2497.17 -2.84428 3.19819 0
M  V30 25313 C 2496.49 -4.244 3.25252 0
M  V30 25314 C 2497.79 -2.50814 4.58137 0
M  V30 25315 H 2499.49 -1.18765 2.74837 0
M  V30 25316 H 2497.03 -0.569894 1.32243 0
M  V30 25317 H 2498.99 -3.57055 2.23807 0
M  V30 25318 H 2497.71 -3.07586 1.0981 0
M  V30 25319 H 2496.37 -2.10882 2.99874 0
M  V30 25320 H 2496.02 -4.48025 2.28654 0
M  V30 25321 H 2495.72 -4.27569 4.03061 0
M  V30 25322 H 2497.24 -5.02254 3.47237 0
M  V30 25323 H 2498.66 -3.16526 4.78001 0
M  V30 25324 H 2497.05 -2.65281 5.38281 0
M  V30 25325 H 2498.12 -1.46026 4.6239 0
M  V30 25326 N 2499.47 -1.45169 -0.613489 0
M  V30 25327 C 2500.72 -1.48153 -1.36871 0
M  V30 25328 C 2501.03 -0.125017 -1.952 0
M  V30 25329 O 2502.24 -0.0324653 -2.71481 0
M  V30 25330 C 2500.69 -2.60909 -2.47901 0
M  V30 25331 C 2500.3 -4.02846 -1.96009 0
M  V30 25332 C 2502.04 -2.73132 -3.2496 0
M  V30 25333 C 2499.95 -5.06994 -3.04485 0
M  V30 25334 H 2498.88 -0.551262 -0.514418 0
M  V30 25335 H 2501.53 -1.71291 -0.658152 0
M  V30 25336 H 2499.91 -2.31042 -3.21614 0
M  V30 25337 H 2501.09 -4.42362 -1.29044 0
M  V30 25338 H 2499.4 -3.9502 -1.31712 0
M  V30 25339 H 2502 -3.48113 -4.05859 0
M  V30 25340 H 2502.34 -1.7956 -3.75585 0
M  V30 25341 H 2502.88 -3.02495 -2.58344 0
M  V30 25342 H 2499.61 -6.02255 -2.58784 0
M  V30 25343 H 2499.13 -4.72053 -3.70036 0
M  V30 25344 H 2500.81 -5.31481 -3.68967 0
M  V30 25345 N 2500.95 0.855472 -1.32361 0
M  V30 25346 C 2502.22 1.59307 -1.13494 0
M  V30 25347 C 2502.6 2.08885 0.304993 0
M  V30 25348 O 2501.95 1.87814 1.30147 0
M  V30 25349 C 2502.16 2.73984 -2.16181 0
M  V30 25350 C 2503.51 3.43585 -2.49469 0
M  V30 25351 O 2504.53 2.84207 -2.1472 0
M  V30 25352 O 2503.39 4.50733 -3.09034 0
M  V30 25353 H 2500.49 0.701551 -0.437899 0
M  V30 25354 H 2503.03 0.899671 -1.43889 0
M  V30 25355 H 2501.8 2.34868 -3.12974 0
M  V30 25356 H 2501.43 3.51 -1.86775 0
M  V30 25357 N 2502.42 1.15558 1.07164 0
M  V30 25358 C 2503.83 0.940721 1.61268 0
M  V30 25359 C 2504.19 -0.517518 1.89252 0
M  V30 25360 O 2503.31 -1.389 1.65939 0
M  V30 25361 C 2503.91 1.70125 2.9299 0
M  V30 25362 C 2502.46 1.53162 3.43829 0
M  V30 25363 C 2501.61 1.71562 2.17857 0
M  V30 25364 H 2504.56 1.30556 0.902267 0
M  V30 25365 H 2504.58 1.17187 3.62005 0
M  V30 25366 H 2504.1 2.76253 2.72591 0
M  V30 25367 H 2502.2 0.494359 3.69306 0
M  V30 25368 H 2502.31 2.30983 4.19743 0
M  V30 25369 H 2500.67 1.14229 2.27648 0
M  V30 25370 H 2501.46 2.7906 1.99951 0
M  V30 25371 N 2503.9 -1.25546 0.952678 0
M  V30 25372 C 2505.18 -1.88455 0.523851 0
M  V30 25373 C 2505.56 -1.85974 -0.998838 0
M  V30 25374 O 2504.91 -1.32194 -1.86379 0
M  V30 25375 C 2505.12 -3.31269 1.09826 0
M  V30 25376 C 2506.46 -4.08049 1.17392 0
M  V30 25377 O 2507.49 -3.40383 1.04967 0
M  V30 25378 O 2506.35 -5.29085 1.36861 0
M  V30 25379 H 2503.44 -0.80881 0.172499 0
M  V30 25380 H 2505.99 -1.33631 1.04598 0
M  V30 25381 H 2504.76 -3.27495 2.14156 0
M  V30 25382 H 2504.38 -3.93647 0.55926 0
M  V30 25383 N 2505.38 -0.721022 -1.40139 0
M  V30 25384 C 2506.34 -0.0806236 -2.29058 0
M  V30 25385 C 2507.34 0.681733 -1.45633 0
M  V30 25386 O 2508.53 0.512827 -1.6648 0
M  V30 25387 C 2505.66 0.895535 -3.28927 0
M  V30 25388 H 2506.86 -0.863843 -2.87189 0
M  V30 25389 H 2504.41 -0.486001 -1.48552 0
M  V30 25390 H 2505.15 1.70561 -2.75825 0
M  V30 25391 H 2504.93 0.351698 -3.9052 0
M  V30 25392 H 2506.42 1.34062 -3.95496 0
M  V30 25393 N 2506.86 1.50503 -0.467606 0
M  V30 25394 C 2507.82 2.26997 0.317019 0
M  V30 25395 C 2508.82 1.31637 0.92349 0
M  V30 25396 O 2510.01 1.55093 0.793212 0
M  V30 25397 C 2507.14 3.08465 1.45129 0
M  V30 25398 H 2508.34 2.97806 -0.353775 0
M  V30 25399 H 2505.89 1.54722 -0.221572 0
M  V30 25400 H 2506.62 2.42144 2.15724 0
M  V30 25401 H 2506.41 3.7854 1.02225 0
M  V30 25402 H 2507.9 3.66326 2.00487 0
M  V30 25403 N 2508.34 0.200077 1.56325 0
M  V30 25404 C 2509.56 -0.442839 2.02105 0
M  V30 25405 C 2509.98 -1.54848 1.08017 0
M  V30 25406 O 2509.34 -1.82298 0.0859117 0
M  V30 25407 C 2509.39 -0.994522 3.47551 0
M  V30 25408 O 2509.11 0.0670092 4.38049 0
M  V30 25409 C 2510.61 -1.71282 4.08873 0
M  V30 25410 H 2507.83 -0.110679 0.661809 0
M  V30 25411 H 2510.37 0.310243 2.02133 0
M  V30 25412 H 2508.53 -1.69797 3.48207 0
M  V30 25413 H 2508.94 -0.34437 5.23368 0
M  V30 25414 H 2510.42 -2.05109 5.12479 0
M  V30 25415 H 2510.89 -2.61831 3.5262 0
M  V30 25416 H 2511.5 -1.05511 4.12004 0
M  V30 25417 N 2509.81 -1.57429 -0.0734901 0
M  V30 25418 C 2511.05 -1.89001 -0.778329 0
M  V30 25419 C 2511.42 -0.793665 -1.74828 0
M  V30 25420 O 2512.62 -0.992411 -2.49809 0
M  V30 25421 C 2510.89 -3.25804 -1.46923 0
M  V30 25422 S 2512.45 -3.79121 -2.20937 0
M  V30 25423 H 2509.27 -0.662202 -0.258863 0
M  V30 25424 H 2511.87 -1.9547 -0.0344994 0
M  V30 25425 H 2510.57 -4.03499 -0.749461 0
M  V30 25426 H 2510.1 -3.22529 -2.25252 0
M  V30 25427 H 2512.12 -3.54271 -3.47429 0
M  V30 25428 N 2511.29 0.344839 -1.53781 0
M  V30 25429 C 2512.2 1.44687 -1.8467 0
M  V30 25430 C 2513.22 1.57633 -0.736732 0
M  V30 25431 O 2514.39 1.73134 -1.02891 0
M  V30 25432 C 2511.46 2.79692 -2.04874 0
M  V30 25433 C 2510.52 2.761 -3.28736 0
M  V30 25434 C 2509.75 4.04666 -3.47967 0
M  V30 25435 O 2509.98 5.01879 -2.71061 0
M  V30 25436 O 2508.91 4.09216 -4.4139 0
M  V30 25437 H 2512.74 1.21501 -2.78337 0
M  V30 25438 H 2510.32 0.536897 -1.39419 0
M  V30 25439 H 2512.2 3.59649 -2.19615 0
M  V30 25440 H 2510.88 3.02812 -1.14396 0
M  V30 25441 H 2509.78 1.94769 -3.19399 0
M  V30 25442 H 2511.12 2.57934 -4.19203 0
M  V30 25443 N 2512.77 1.45492 0.605781 0
M  V30 25444 C 2514 1.53133 1.39133 0
M  V30 25445 C 2514.41 0.16454 1.88082 0
M  V30 25446 O 2513.77 -0.834219 1.62318 0
M  V30 25447 C 2513.82 2.51721 2.59459 0
M  V30 25448 O 2513.54 3.83088 2.12544 0
M  V30 25449 C 2515.04 2.69076 3.52296 0
M  V30 25450 H 2512.26 0.518557 0.42584 0
M  V30 25451 H 2514.81 1.90695 0.738617 0
M  V30 25452 H 2512.96 2.17225 3.20768 0
M  V30 25453 H 2513.38 4.36546 2.90736 0
M  V30 25454 H 2514.85 3.42031 4.33265 0
M  V30 25455 H 2515.33 1.75174 4.02754 0
M  V30 25456 H 2515.93 3.04576 2.96839 0
M  V30 25457 N 2514.25 -0.848441 1.32813 0
M  V30 25458 C 2515.47 -1.64058 1.26885 0
M  V30 25459 C 2515.9 -1.87426 -0.159097 0
M  V30 25460 O 2515.26 -1.4315 -1.11256 0
M  V30 25461 C 2515.3 -2.97347 2.04002 0
M  V30 25462 O 2514.41 -3.88195 1.39207 0
M  V30 25463 H 2513.75 -0.499935 0.436991 0
M  V30 25464 H 2516.28 -1.05627 1.75226 0
M  V30 25465 H 2516.29 -3.47121 2.14409 0
M  V30 25466 H 2514.96 -2.79661 3.07835 0
M  V30 25467 H 2513.54 -3.46669 1.37387 0
M  V30 25468 N 2515.73 -1.16125 -1.06549 0
M  V30 25469 C 2516.95 -0.96527 -1.83003 0
M  V30 25470 C 2517.37 0.48651 -1.82424 0
M  V30 25471 O 2516.73 1.33761 -1.24155 0
M  V30 25472 C 2516.78 -1.48189 -3.29731 0
M  V30 25473 O 2516.5 -2.8768 -3.30411 0
M  V30 25474 C 2518 -1.32855 -4.22924 0
M  V30 25475 H 2515.22 -0.342319 -0.577112 0
M  V30 25476 H 2517.76 -1.54091 -1.34447 0
M  V30 25477 H 2515.92 -0.948583 -3.75607 0
M  V30 25478 H 2516.33 -3.11279 -4.22144 0
M  V30 25479 H 2517.81 -1.73837 -5.23913 0
M  V30 25480 H 2518.28 -0.273769 -4.38346 0
M  V30 25481 H 2518.89 -1.85134 -3.82891 0
M  V30 25482 N 2517.2 1.25039 -0.959323 0
M  V30 25483 C 2518.44 1.9463 -0.624377 0
M  V30 25484 C 2518.81 1.73419 0.824 0
M  V30 25485 O 2520.01 2.36972 1.26876 0
M  V30 25486 C 2518.28 3.43734 -0.978865 0
M  V30 25487 S 2519.84 4.32217 -0.757203 0
M  V30 25488 H 2516.66 0.672997 -0.229338 0
M  V30 25489 H 2519.26 1.51593 -1.2345 0
M  V30 25490 H 2517.96 3.56676 -2.03004 0
M  V30 25491 H 2517.49 3.91757 -0.359186 0
M  V30 25492 H 2519.51 4.94821 0.369672 0
M  V30 25493 N 2518.68 0.728444 1.39755 0
M  V30 25494 C 2519.65 0.09277 2.29012 0
M  V30 25495 C 2520.65 -0.674 1.45993 0
M  V30 25496 O 2521.84 -0.50399 1.6675 0
M  V30 25497 C 2518.97 -0.878079 3.29397 0
M  V30 25498 H 2520.16 0.879061 2.86727 0
M  V30 25499 H 2517.71 0.493873 1.48292 0
M  V30 25500 H 2518.45 -1.69096 2.76725 0
M  V30 25501 H 2518.23 -0.330983 3.90701 0
M  V30 25502 H 2519.72 -1.31963 3.96201 0
M  V30 25503 N 2520.16 -1.50253 0.475581 0
M  V30 25504 C 2521.57 -1.86688 0.0215502 0
M  V30 25505 C 2521.92 -1.39003 -1.38465 0
M  V30 25506 O 2521.05 -0.75693 -2.0273 0
M  V30 25507 C 2521.64 -3.38785 0.032331 0
M  V30 25508 C 2520.2 -3.74614 -0.366248 0
M  V30 25509 C 2519.35 -2.74164 0.415881 0
M  V30 25510 H 2522.3 -1.42932 0.689637 0
M  V30 25511 H 2522.32 -3.72652 -0.768824 0
M  V30 25512 H 2521.83 -3.7346 1.0559 0
M  V30 25513 H 2519.93 -3.45541 -1.394 0
M  V30 25514 H 2520.05 -4.79057 -0.0644708 0
M  V30 25515 H 2518.41 -2.54363 -0.131003 0
M  V30 25516 H 2519.19 -3.11683 1.43905 0
M  V30 25517 N 2521.64 -0.208365 -1.56217 0
M  V30 25518 C 2523.05 0.301871 -1.84243 0
M  V30 25519 C 2523.4 1.60432 -1.12942 0
M  V30 25520 O 2522.53 2.12771 -0.394647 0
M  V30 25521 C 2523.12 0.554484 -3.34232 0
M  V30 25522 C 2521.68 1.00906 -3.62622 0
M  V30 25523 C 2520.83 0.0648843 -2.77224 0
M  V30 25524 H 2523.78 -0.43186 -1.52711 0
M  V30 25525 H 2523.8 1.40216 -3.53723 0
M  V30 25526 H 2523.31 -0.393629 -3.86099 0
M  V30 25527 H 2521.41 1.97099 -3.16201 0
M  V30 25528 H 2521.52 0.892591 -4.70712 0
M  V30 25529 H 2519.89 0.569247 -2.48257 0
M  V30 25530 H 2520.67 -0.87791 -3.31885 0
M  V30 25531 N 2523.12 1.57465 0.0651402 0
M  V30 25532 C 2524.05 2.07184 1.0769 0
M  V30 25533 C 2525.03 0.966697 1.39961 0
M  V30 25534 O 2526.21 1.23982 1.49472 0
M  V30 25535 C 2523.34 2.52131 2.38845 0
M  V30 25536 C 2522.3 3.66582 2.2091 0
M  V30 25537 C 2521.62 3.97608 3.57508 0
M  V30 25538 C 2522.92 4.96383 1.62485 0
M  V30 25539 H 2524.62 2.91964 0.663148 0
M  V30 25540 H 2522.16 1.40455 0.317544 0
M  V30 25541 H 2524.12 2.85528 3.09923 0
M  V30 25542 H 2522.84 1.64389 2.82213 0
M  V30 25543 H 2521.5 3.33479 1.52273 0
M  V30 25544 H 2521.15 3.06986 3.98458 0
M  V30 25545 H 2520.85 4.74678 3.46345 0
M  V30 25546 H 2522.37 4.33506 4.30006 0
M  V30 25547 H 2523.78 5.27967 2.23435 0
M  V30 25548 H 2522.18 5.7782 1.61999 0
M  V30 25549 H 2523.25 4.81334 0.586956 0
M  V30 25550 N 2524.59 -0.336679 1.53962 0
M  V30 25551 C 2525.84 -1.07402 1.71199 0
M  V30 25552 C 2526.16 -1.88962 0.481509 0
M  V30 25553 O 2525.43 -1.89291 -0.504552 0
M  V30 25554 H 2524.01 -0.399506 0.631192 0
M  V30 25555 H 2526.68 -0.37629 1.91233 0
M  V30 25556 H 2525.77 -1.74751 2.5859 0
M  V30 25557 O 2526.11 -1.54119 -0.48265 0
M  V30 25558 H 2526.8 -1.56801 -1.13724 0
M  V30 END ATOM
M  V30 BEGIN BOND
M  V30 END BOND
M  V30 END CTAB
M  END
$$$$
