drugbank_target|O43174 Cytochrome P450 26A1 (DB00755; DB13083)
 OpenBabel12092120333D

  0  0  0     0  0            999 V3000
M  V30 BEGIN CTAB
M  V30 COUNTS 7975 8065 0 0 0
M  V30 BEGIN ATOM
M  V30 1 H -0.908 1.98254 -0.117106 0
M  V30 2 N 0 1.576 0 0
M  V30 3 C 0.933 2.03868 1.02534 0
M  V30 4 C 1.911 0.928543 1.3348 0
M  V30 5 O 3.095 1.19667 1.45644 0
M  V30 6 C 0.222 2.43627 2.35294 0
M  V30 7 C -0.732 3.65373 2.2001 0
M  V30 8 S 0.101 5.13292 1.52614 0
M  V30 9 C 1.257 5.56322 2.86805 0
M  V30 10 H 1.49 2.90518 0.631377 0
M  V30 11 H -0.977 1.52953 0.210867 0
M  V30 12 H 0.981 2.67203 3.11629 0
M  V30 13 H -0.358 1.57376 2.7183 0
M  V30 14 H -1.165 3.90944 3.18086 0
M  V30 15 H -1.563 3.418 1.51819 0
M  V30 16 H 0.729 5.58782 3.83104 0
M  V30 17 H 1.672 6.56266 2.65933 0
M  V30 18 H 2.08 4.83886 2.90714 0
M  V30 19 N 1.4781 -0.272755 1.55222 0
M  V30 20 C 2.7261 -1.00234 1.75492 0
M  V30 21 C 3.0471 -1.8681 0.5592 0
M  V30 22 O 2.3171 -1.91215 -0.425882 0
M  V30 23 H 0.8971 -0.373076 0.647166 0
M  V30 24 H 3.5591 -0.296926 1.92625 0
M  V30 25 H 2.6551 -1.63913 2.65592 0
M  V30 26 N 2.9562 -1.48159 -0.537278 0
M  V30 27 C 3.8862 -1.65029 -1.6519 0
M  V30 28 C 4.8672 -0.499281 -1.62607 0
M  V30 29 O 6.0522 -0.730972 -1.79918 0
M  V30 30 C 3.1822 -1.68303 -3.03795 0
M  V30 31 C 2.1362 -2.8283 -3.21234 0
M  V30 32 C 1.4622 -2.71189 -4.60826 0
M  V30 33 C 2.7622 -4.24211 -3.04701 0
M  V30 34 H 4.4562 -2.58341 -1.51328 0
M  V30 35 H 2.0022 -1.24325 -0.726585 0
M  V30 36 H 3.9552 -1.78693 -3.81637 0
M  V30 37 H 2.6792 -0.715635 -3.18663 0
M  V30 38 H 1.3382 -2.71983 -2.45807 0
M  V30 39 H 0.9862 -1.72435 -4.7252 0
M  V30 40 H 0.6862 -3.48035 -4.7344 0
M  V30 41 H 2.2102 -2.83537 -5.40777 0
M  V30 42 H 3.6242 -4.3593 -3.72341 0
M  V30 43 H 2.0212 -5.01998 -3.28813 0
M  V30 44 H 3.0912 -4.41184 -2.01209 0
M  V30 45 N 4.4343 0.785586 -1.36625 0
M  V30 46 C 5.8453 1.36101 -1.27803 0
M  V30 47 C 6.1963 1.96035 0.0804875 0
M  V30 48 O 5.3213 1.92834 0.982042 0
M  V30 49 C 5.9163 2.47442 -2.31426 0
M  V30 50 C 4.4753 3.00789 -2.26281 0
M  V30 51 C 3.6223 1.73896 -2.15999 0
M  V30 52 H 6.5733 0.586928 -1.47448 0
M  V30 53 H 6.5943 3.2656 -1.95291 0
M  V30 54 H 6.1063 2.03791 -3.30289 0
M  V30 55 H 4.2073 3.48851 -1.30896 0
M  V30 56 H 4.3203 3.57343 -3.19128 0
M  V30 57 H 2.6843 1.9628 -1.62316 0
M  V30 58 H 3.4673 1.32368 -3.16755 0
M  V30 59 N 5.9124 1.20967 1.01018 0
M  V30 60 C 6.8754 0.965918 2.07853 0
M  V30 61 C 7.8754 -0.0610545 1.60684 0
M  V30 62 O 9.0654 0.175681 1.73312 0
M  V30 63 C 6.1974 0.455513 3.37843 0
M  V30 64 H 7.3904 1.91365 2.3091 0
M  V30 65 H 4.9434 1.02594 1.17916 0
M  V30 66 H 5.6784 -0.497381 3.20463 0
M  V30 67 H 5.4634 1.19622 3.73407 0
M  V30 68 H 6.9534 0.304667 4.16487 0
M  V30 69 N 7.3905 -1.2043 1.01659 0
M  V30 70 C 8.3205 -2.25466 0.607226 0
M  V30 71 C 9.3015 -1.65853 -0.377716 0
M  V30 72 O 10.4865 -1.92409 -0.263149 0
M  V30 73 C 7.6165 -3.47256 -0.0552949 0
M  V30 74 C 6.5705 -4.19462 0.850632 0
M  V30 75 C 5.8965 -5.34673 0.0538859 0
M  V30 76 C 7.1965 -4.75603 2.15868 0
M  V30 77 H 8.8905 -2.59962 1.48526 0
M  V30 78 H 6.4365 -1.2496 0.715605 0
M  V30 79 H 8.3895 -4.19917 -0.353233 0
M  V30 80 H 7.1135 -3.11924 -0.968045 0
M  V30 81 H 5.7725 -3.48667 1.13257 0
M  V30 82 H 5.4205 -4.95585 -0.860514 0
M  V30 83 H 5.1205 -5.83913 0.657192 0
M  V30 84 H 6.6445 -6.10138 -0.237598 0
M  V30 85 H 8.0585 -5.40083 1.92311 0
M  V30 86 H 6.4555 -5.3528 2.71284 0
M  V30 87 H 7.5255 -3.94346 2.82169 0
M  V30 88 N 8.8686 -0.792821 -1.36206 0
M  V30 89 C 9.7986 -0.207853 -2.32573 0
M  V30 90 C 10.7796 0.659055 -1.56813 0
M  V30 91 O 11.9646 0.592176 -1.84951 0
M  V30 92 C 9.0946 0.655449 -3.41059 0
M  V30 93 C 8.0486 -0.111842 -4.27854 0
M  V30 94 C 7.3746 0.872274 -5.27537 0
M  V30 95 C 8.6746 -1.30299 -5.05786 0
M  V30 96 H 10.3686 -1.01294 -2.81744 0
M  V30 97 H 7.9146 -0.48854 -1.3546 0
M  V30 98 H 9.8676 1.07464 -4.07467 0
M  V30 99 H 8.5916 1.49328 -2.90463 0
M  V30 100 H 7.2506 -0.512053 -3.63006 0
M  V30 101 H 6.8986 1.70523 -4.73214 0
M  V30 102 H 6.5986 0.363291 -5.86476 0
M  V30 103 H 8.1226 1.28996 -5.96818 0
M  V30 104 H 9.5366 -0.959379 -5.65216 0
M  V30 105 H 7.9336 -1.7455 -5.74154 0
M  V30 106 H 9.0036 -2.09663 -4.37229 0
M  V30 107 N 10.3467 1.47872 -0.545128 0
M  V30 108 C 11.3097 2.28337 0.198717 0
M  V30 109 C 12.3097 1.36255 0.853888 0
M  V30 110 O 13.4997 1.59003 0.711606 0
M  V30 111 C 10.6317 3.15585 1.28915 0
M  V30 112 H 11.8247 2.95567 -0.507941 0
M  V30 113 H 9.3777 1.53362 -0.301616 0
M  V30 114 H 10.1127 2.53019 2.02859 0
M  V30 115 H 9.8977 3.83337 0.824309 0
M  V30 116 H 11.3877 3.76243 1.81194 0
M  V30 117 N 11.8248 0.280983 1.55075 0
M  V30 118 C 13.0498 -0.340154 2.04592 0
M  V30 119 C 13.4748 -1.48246 1.15779 0
M  V30 120 O 12.8328 -1.80614 0.15761 0
M  V30 121 C 12.8808 -0.793104 3.5177 0
M  V30 122 O 11.9848 -1.89981 3.66034 0
M  V30 123 H 11.3258 -0.0694289 0.66036 0
M  V30 124 H 13.8558 0.416993 2.00306 0
M  V30 125 H 13.8658 -1.08729 3.93245 0
M  V30 126 H 12.5408 0.0426163 4.15878 0
M  V30 127 H 11.1178 -1.60771 3.36463 0
M  V30 128 N 13.3029 -1.57598 0.00835791 0
M  V30 129 C 14.2659 -2.07884 -0.965242 0
M  V30 130 C 15.2659 -0.989825 -1.26725 0
M  V30 131 O 16.4559 -1.25218 -1.21104 0
M  V30 132 C 13.5879 -2.52731 -2.28779 0
M  V30 133 H 14.7809 -2.95178 -0.530112 0
M  V30 134 H 12.3339 -1.54458 -0.239283 0
M  V30 135 H 13.0689 -1.68705 -2.76964 0
M  V30 136 H 12.8539 -3.32272 -2.08177 0
M  V30 137 H 14.3439 -2.91933 -2.98605 0
M  V30 138 N 14.781 0.264519 -1.55364 0
M  V30 139 C 15.711 1.33121 -1.91836 0
M  V30 140 C 16.692 1.51101 -0.781192 0
M  V30 141 O 17.877 1.64003 -1.04003 0
M  V30 142 C 15.007 2.68921 -2.19769 0
M  V30 143 C 13.961 2.65661 -3.35571 0
M  V30 144 C 13.287 4.05093 -3.49004 0
M  V30 145 C 14.587 2.24187 -4.71739 0
M  V30 146 H 16.281 1.02844 -2.81182 0
M  V30 147 H 13.827 0.493286 -1.35287 0
M  V30 148 H 15.78 3.43663 -2.43872 0
M  V30 149 H 14.504 3.00799 -1.27231 0
M  V30 150 H 13.163 1.93377 -3.1145 0
M  V30 151 H 12.811 4.34206 -2.53917 0
M  V30 152 H 12.511 4.03804 -4.26868 0
M  V30 153 H 14.035 4.81561 -3.75408 0
M  V30 154 H 15.449 2.88654 -4.9533 0
M  V30 155 H 13.846 2.34044 -5.52579 0
M  V30 156 H 14.916 1.19327 -4.69988 0
M  V30 157 N 16.2591 1.48442 0.529413 0
M  V30 158 C 17.4991 1.58086 1.29569 0
M  V30 159 C 17.8631 0.249302 1.90375 0
M  V30 160 O 19.0641 0.220738 2.67892 0
M  V30 161 C 17.3351 2.68793 2.35552 0
M  V30 162 S 18.8941 2.98207 3.21898 0
M  V30 163 H 15.7121 0.557922 0.440732 0
M  V30 164 H 18.3141 1.85966 0.603059 0
M  V30 165 H 17.0181 3.64102 1.89363 0
M  V30 166 H 16.5491 2.42817 3.09522 0
M  V30 167 H 18.5641 2.37548 4.35644 0
M  V30 168 N 17.7372 -0.778329 1.37039 0
M  V30 169 C 18.9652 -1.56734 1.35063 0
M  V30 170 C 19.3802 -1.88686 -0.0655597 0
M  V30 171 O 18.7372 -1.5096 -1.02554 0
M  V30 172 C 18.7882 -2.88163 2.18276 0
M  V30 173 O 18.5092 -2.57583 3.54376 0
M  V30 174 C 20.0102 -3.82422 2.24206 0
M  V30 175 H 17.2302 -0.485778 0.462883 0
M  V30 176 H 19.7742 -0.965185 1.8029 0
M  V30 177 H 17.9292 -3.44818 1.76576 0
M  V30 178 H 18.3432 -3.41699 3.97922 0
M  V30 179 H 19.8172 -4.71667 2.86765 0
M  V30 180 H 20.2942 -4.21078 1.24861 0
M  V30 181 H 20.9002 -3.31697 2.6619 0
M  V30 182 N 19.2153 -1.21501 -1.00376 0
M  V30 183 C 20.4623 -1.03299 -1.74171 0
M  V30 184 C 20.7903 0.433326 -1.89612 0
M  V30 185 O 20.0453 1.33779 -1.42834 0
M  V30 186 C 20.3443 -1.67673 -3.15627 0
M  V30 187 C 20.0103 -3.17533 -3.2013 0
M  V30 188 C 18.6723 -3.58427 -3.21067 0
M  V30 189 C 21.0243 -4.13504 -3.17275 0
M  V30 190 C 18.3523 -4.93794 -3.16835 0
M  V30 191 C 20.7043 -5.48834 -3.14585 0
M  V30 192 C 19.3683 -5.89123 -3.13831 0
M  V30 193 H 18.6383 -0.377999 -0.637336 0
M  V30 194 H 21.2853 -1.51111 -1.17634 0
M  V30 195 H 19.5903 -1.12158 -3.75404 0
M  V30 196 H 21.2873 -1.51091 -3.71446 0
M  V30 197 H 17.8773 -2.84965 -3.20145 0
M  V30 198 H 22.0613 -3.82936 -3.15711 0
M  V30 199 H 17.3173 -5.24255 -3.1459 0
M  V30 200 H 21.4913 -6.22934 -3.1133 0
M  V30 201 H 19.1183 -6.93984 -3.10307 0
M  V30 202 N 20.6934 1.19889 -1.02296 0
M  V30 203 C 21.9394 1.89701 -0.717033 0
M  V30 204 C 22.2724 1.7905 0.751989 0
M  V30 205 O 21.5474 1.17891 1.547 0
M  V30 206 C 21.8304 3.40858 -1.16136 0
M  V30 207 C 21.6834 3.60411 -2.69117 0
M  V30 208 C 23.0024 4.33876 -0.737549 0
M  V30 209 H 20.1214 0.688874 -0.261957 0
M  V30 210 H 22.7634 1.41154 -1.27183 0
M  V30 211 H 20.9134 3.82335 -0.689342 0
M  V30 212 H 22.5854 3.28145 -3.2422 0
M  V30 213 H 20.8284 3.03665 -3.0979 0
M  V30 214 H 21.4994 4.66396 -2.95261 0
M  V30 215 H 23.9754 4.00081 -1.14344 0
M  V30 216 H 22.8514 5.38242 -1.0764 0
M  V30 217 H 23.1124 4.40628 0.360436 0
M  V30 218 N 22.1715 0.800033 1.35784 0
M  V30 219 C 23.1015 0.220184 2.3246 0
M  V30 220 C 24.0825 -0.65073 1.57161 0
M  V30 221 O 25.2675 -0.582359 1.85263 0
M  V30 222 C 22.3975 -0.637353 3.41402 0
M  V30 223 C 21.3515 0.134531 4.27789 0
M  V30 224 C 20.6775 -0.844285 5.27992 0
M  V30 225 C 21.9775 1.32979 5.05088 0
M  V30 226 H 23.6715 1.02787 2.81203 0
M  V30 227 H 21.2175 0.495717 1.35199 0
M  V30 228 H 23.1705 -1.05302 4.08031 0
M  V30 229 H 21.8945 -1.47785 2.91251 0
M  V30 230 H 20.5535 0.531296 3.6273 0
M  V30 231 H 20.2015 -1.68011 4.74111 0
M  V30 232 H 19.9015 -0.332184 5.8666 0
M  V30 233 H 21.4255 -1.2583 5.97494 0
M  V30 234 H 22.8395 0.98934 5.64699 0
M  V30 235 H 21.2365 1.77593 5.7322 0
M  V30 236 H 22.3065 2.11978 4.36111 0
M  V30 237 N 23.6496 -1.47581 0.552962 0
M  V30 238 C 25.0606 -1.86324 0.118463 0
M  V30 239 C 25.4116 -1.46006 -1.3106 0
M  V30 240 O 24.5366 -0.861182 -1.98526 0
M  V30 241 C 25.1316 -3.3816 0.20821 0
M  V30 242 C 23.6906 -3.7601 -0.171226 0
M  V30 243 C 22.8376 -2.71634 0.557686 0
M  V30 244 H 25.7886 -1.39159 0.762928 0
M  V30 245 H 25.8096 -3.76141 -0.574278 0
M  V30 246 H 25.3216 -3.67473 1.24841 0
M  V30 247 H 23.4226 -3.52313 -1.21269 0
M  V30 248 H 23.5356 -4.78745 0.184379 0
M  V30 249 H 21.8996 -2.547 0.00125792 0
M  V30 250 H 22.6826 -3.0379 1.59896 0
M  V30 251 N 25.1277 -0.289203 -1.54924 0
M  V30 252 C 26.0577 0.58549 -2.2604 0
M  V30 253 C 27.0387 1.14753 -1.25562 0
M  V30 254 O 28.2237 1.17906 -1.54311 0
M  V30 255 C 25.3537 1.76305 -2.99222 0
M  V30 256 C 24.3077 1.33191 -4.06748 0
M  V30 257 C 23.6337 2.5937 -4.6758 0
M  V30 258 C 24.9337 0.471775 -5.20165 0
M  V30 259 H 26.6277 -0.00763532 -2.99399 0
M  V30 260 H 24.1737 -0.00511229 -1.43999 0
M  V30 261 H 26.1267 2.38097 -3.47689 0
M  V30 262 H 24.8507 2.38223 -2.23422 0
M  V30 263 H 23.5097 0.737121 -3.59113 0
M  V30 264 H 23.1577 3.19576 -3.88433 0
M  V30 265 H 22.8577 2.31228 -5.40192 0
M  V30 266 H 24.3817 3.21985 -5.18804 0
M  V30 267 H 25.7957 0.995056 -5.64599 0
M  V30 268 H 24.1927 0.284639 -5.99425 0
M  V30 269 H 25.2627 -0.506041 -4.82252 0
M  V30 270 N 26.6058 1.57591 -0.0167156 0
M  V30 271 C 27.5358 2.12496 0.967858 0
M  V30 272 C 28.5168 1.03807 1.34752 0
M  V30 273 O 29.7018 1.31577 1.42833 0
M  V30 274 C 26.8318 2.64194 2.25431 0
M  V30 275 C 25.7858 3.77559 2.01576 0
M  V30 276 C 25.1118 4.15636 3.36379 0
M  V30 277 C 26.4118 5.04151 1.36489 0
M  V30 278 H 28.1058 2.95013 0.510643 0
M  V30 279 H 25.6518 1.41915 0.244181 0
M  V30 280 H 27.6048 3.01236 2.94678 0
M  V30 281 H 26.3288 1.78821 2.73296 0
M  V30 282 H 24.9878 3.40937 1.34751 0
M  V30 283 H 24.6358 3.27263 3.81979 0
M  V30 284 H 24.3358 4.92022 3.21229 0
M  V30 285 H 25.8598 4.5525 4.06915 0
M  V30 286 H 27.2738 5.38857 1.95718 0
M  V30 287 H 25.6708 5.85453 1.31776 0
M  V30 288 H 26.7408 4.83733 0.336219 0
M  V30 289 N 28.0839 -0.256276 1.55502 0
M  V30 290 C 29.0139 -1.32102 1.92539 0
M  V30 291 C 29.9949 -1.50684 0.789194 0
M  V30 292 O 31.1799 -1.63449 1.04872 0
M  V30 293 C 28.3099 -2.67752 2.21192 0
M  V30 294 C 27.2639 -2.63878 3.36975 0
M  V30 295 C 26.5899 -4.03236 3.51147 0
M  V30 296 C 27.8899 -2.21682 4.72921 0
M  V30 297 H 29.5839 -1.01351 2.81724 0
M  V30 298 H 27.1299 -0.486105 1.35547 0
M  V30 299 H 29.0829 -3.42365 2.45691 0
M  V30 300 H 27.8069 -3.0012 1.28824 0
M  V30 301 H 26.4659 -1.91722 3.12471 0
M  V30 302 H 26.1139 -4.32854 2.56216 0
M  V30 303 H 25.8139 -4.01535 4.29003 0
M  V30 304 H 27.3379 -4.79563 3.77957 0
M  V30 305 H 28.7519 -2.86023 4.96854 0
M  V30 306 H 27.1489 -2.3111 5.53812 0
M  V30 307 H 28.2189 -1.16833 4.70615 0
M  V30 308 N 29.562 -1.4872 -0.521534 0
M  V30 309 C 30.809 -1.57168 -1.27689 0
M  V30 310 C 31.137 -0.249275 -1.92896 0
M  V30 311 O 30.392 0.761162 -1.80291 0
M  V30 312 C 30.691 -2.66497 -2.38148 0
M  V30 313 C 30.357 -4.08664 -1.90538 0
M  V30 314 C 29.019 -4.47357 -1.77271 0
M  V30 315 C 31.371 -4.97724 -1.54663 0
M  V30 316 C 28.699 -5.72905 -1.26478 0
M  V30 317 C 31.051 -6.2377 -1.05329 0
M  V30 318 C 29.715 -6.61311 -0.906861 0
M  V30 319 H 28.985 -0.575117 -0.467249 0
M  V30 320 H 31.632 -1.82472 -0.581051 0
M  V30 321 H 29.937 -2.35085 -3.13437 0
M  V30 322 H 31.634 -2.70246 -2.96257 0
M  V30 323 H 28.224 -3.78111 -2.01816 0
M  V30 324 H 32.408 -4.68501 -1.63768 0
M  V30 325 H 27.664 -6.00709 -1.13835 0
M  V30 326 H 31.838 -6.9217 -0.76644 0
M  V30 327 H 29.465 -7.5848 -0.511083 0
M  V30 328 N 31.0401 0.771051 -1.3745 0
M  V30 329 C 31.9701 1.89827 -1.3597 0
M  V30 330 C 32.9511 1.68562 -0.228216 0
M  V30 331 O 34.1361 1.8941 -0.428675 0
M  V30 332 C 31.2661 3.2712 -1.16662 0
M  V30 333 C 30.2201 3.6295 -2.2683 0
M  V30 334 C 29.5461 4.98791 -1.92644 0
M  V30 335 C 30.8461 3.69627 -3.69017 0
M  V30 336 H 32.5401 1.91323 -2.30295 0
M  V30 337 H 30.0861 0.919082 -1.10855 0
M  V30 338 H 32.0391 4.05615 -1.14256 0
M  V30 339 H 30.7631 3.26059 -0.187926 0
M  V30 340 H 29.4221 2.86763 -2.28392 0
M  V30 341 H 29.0701 4.94271 -0.933021 0
M  V30 342 H 28.7701 5.23733 -2.66416 0
M  V30 343 H 30.2941 5.79685 -1.91826 0
M  V30 344 H 31.7081 4.38273 -3.69581 0
M  V30 345 H 30.1051 4.06067 -4.41848 0
M  V30 346 H 31.1751 2.70273 -4.02592 0
M  V30 347 N 32.5182 1.22032 0.997298 0
M  V30 348 C 33.4812 0.987909 2.06816 0
M  V30 349 C 34.4812 -0.0440084 1.6074 0
M  V30 350 O 35.6712 0.194053 1.73116 0
M  V30 351 C 32.8032 0.49132 3.37341 0
M  V30 352 H 33.9962 1.93803 2.28868 0
M  V30 353 H 31.5492 1.03838 1.16822 0
M  V30 354 H 32.2842 -0.463364 3.20973 0
M  V30 355 H 32.0692 1.23575 3.72118 0
M  V30 356 H 33.5592 0.348824 4.16141 0
M  V30 357 N 33.9963 -1.19345 1.0293 0
M  V30 358 C 34.9593 -2.20793 0.615069 0
M  V30 359 C 35.9593 -1.57553 -0.321533 0
M  V30 360 O 37.1493 -1.73862 -0.108483 0
M  V30 361 C 34.2813 -3.40754 -0.0999222 0
M  V30 362 H 35.4743 -2.58955 1.51269 0
M  V30 363 H 33.0273 -1.3303 0.820534 0
M  V30 364 H 33.7623 -3.0811 -1.01187 0
M  V30 365 H 33.5473 -3.87889 0.57309 0
M  V30 366 H 35.0373 -4.15898 -0.376645 0
M  V30 367 N 35.4744 -0.807222 -1.35358 0
M  V30 368 C 36.7234 -0.384376 -1.98004 0
M  V30 369 C 37.0364 1.0543 -1.64754 0
M  V30 370 O 38.2424 1.58029 -2.20769 0
M  V30 371 C 36.6984 -0.636326 -3.5423 0
M  V30 372 C 36.3064 -2.08759 -3.96388 0
M  V30 373 C 38.0504 -0.278869 -4.23583 0
M  V30 374 C 35.9574 -2.28525 -5.45463 0
M  V30 375 H 34.8874 -0.139986 -0.740891 0
M  V30 376 H 37.5384 -0.991369 -1.54415 0
M  V30 377 H 35.9204 0.0406256 -3.95979 0
M  V30 378 H 37.0944 -2.8024 -3.6579 0
M  V30 379 H 35.4094 -2.40497 -3.39926 0
M  V30 380 H 38.0064 -0.404599 -5.33167 0
M  V30 381 H 38.3494 0.775012 -4.09022 0
M  V30 382 H 38.8824 -0.909764 -3.87257 0
M  V30 383 H 35.6214 -3.32361 -5.64992 0
M  V30 384 H 35.1414 -1.61569 -5.77629 0
M  V30 385 H 36.8204 -2.10109 -6.11934 0
M  V30 386 N 36.9525 1.47285 -0.560781 0
M  V30 387 C 37.8995 2.30058 0.18491 0
M  V30 388 C 38.8695 1.39281 0.904986 0
M  V30 389 O 40.0545 1.68241 0.899979 0
M  V30 390 C 37.1945 3.23317 1.20666 0
M  V30 391 C 36.3075 4.29186 0.492285 0
M  V30 392 C 35.4425 5.09592 1.49964 0
M  V30 393 C 34.4815 6.07232 0.770439 0
M  V30 394 N 33.6185 6.80584 1.72479 0
M  V30 395 H 38.4585 2.93302 -0.527048 0
M  V30 396 H 35.9955 1.44568 -0.271738 0
M  V30 397 H 37.9535 3.75811 1.81168 0
M  V30 398 H 36.5835 2.61929 1.88661 0
M  V30 399 H 35.6355 3.7972 -0.227333 0
M  V30 400 H 36.9475 4.98738 -0.0787929 0
M  V30 401 H 36.1015 5.66254 2.17809 0
M  V30 402 H 34.8405 4.3995 2.10464 0
M  V30 403 H 33.8455 5.49745 0.0780846 0
M  V30 404 H 35.0705 6.78884 0.171134 0
M  V30 405 H 33.0165 6.1367 2.3183 0
M  V30 406 H 32.9335 7.46319 1.20596 0
M  V30 407 H 34.2015 7.41818 2.39428 0
M  V30 408 N 38.4306 0.297415 1.54768 0
M  V30 409 C 39.3606 -0.573494 2.26348 0
M  V30 410 C 40.3416 -1.14085 1.26169 0
M  V30 411 O 41.5266 -1.17086 1.54934 0
M  V30 412 C 38.6566 -1.74716 3.00153 0
M  V30 413 C 37.6106 -1.31032 4.07449 0
M  V30 414 C 36.9366 -2.56887 4.68949 0
M  V30 415 C 38.2366 -0.444183 5.20408 0
M  V30 416 H 39.9306 0.0235131 2.99391 0
M  V30 417 H 37.4766 0.0127488 1.43994 0
M  V30 418 H 39.4296 -2.3625 3.48947 0
M  V30 419 H 38.1536 -2.37035 2.24682 0
M  V30 420 H 36.8126 -0.718066 3.59499 0
M  V30 421 H 36.4606 -3.17512 3.90122 0
M  V30 422 H 36.1606 -2.2836 5.41411 0
M  V30 423 H 37.6846 -3.19229 5.20505 0
M  V30 424 H 39.0986 -0.9651 5.65118 0
M  V30 425 H 37.4956 -0.252846 5.99567 0
M  V30 426 H 38.5656 0.531609 4.81977 0
M  V30 427 N 39.9087 -1.5758 0.0250728 0
M  V30 428 C 41.1547 -1.92746 -0.649648 0
M  V30 429 C 41.5097 -0.901588 -1.69968 0
M  V30 430 O 40.8027 0.0829251 -1.9142 0
M  V30 431 C 40.9967 -3.32421 -1.31268 0
M  V30 432 C 40.8257 -4.48499 -0.328394 0
M  V30 433 C 39.5957 -5.05251 0.070284 0
M  V30 434 C 41.7937 -5.12618 0.415665 0
M  V30 435 N 39.7757 -6.04851 1.05016 0
M  V30 436 C 41.1467 -6.0728 1.24943 0
M  V30 437 C 43.2017 -4.95612 0.476803 0
M  V30 438 C 41.9047 -6.86766 2.1388 0
M  V30 439 C 43.9307 -5.75703 1.3535 0
M  V30 440 C 43.2927 -6.69978 2.17504 0
M  V30 441 H 39.3917 -0.753231 -0.210159 0
M  V30 442 H 41.9757 -1.94486 0.0912999 0
M  V30 443 H 40.1467 -3.31508 -2.02379 0
M  V30 444 H 41.8787 -3.54946 -1.94411 0
M  V30 445 H 38.6337 -4.72628 -0.303323 0
M  V30 446 H 39.0577 -6.5934 1.53622 0
M  V30 447 H 43.6997 -4.22554 -0.144105 0
M  V30 448 H 41.4177 -7.59132 2.77027 0
M  V30 449 H 45.0037 -5.64579 1.40504 0
M  V30 450 H 43.8837 -7.30873 2.84244 0
M  V30 451 N 41.3868 0.248026 -1.55636 0
M  V30 452 C 42.6638 0.998988 -1.68165 0
M  V30 453 C 43.0438 2.03409 -0.564621 0
M  V30 454 O 42.3918 2.24378 0.432076 0
M  V30 455 C 42.6018 1.63334 -3.0842 0
M  V30 456 C 43.9498 2.13562 -3.66983 0
M  V30 457 O 44.9738 1.73277 -3.11213 0
M  V30 458 O 43.8328 2.87526 -4.64749 0
M  V30 459 H 40.9268 0.464933 -0.683935 0
M  V30 460 H 43.4728 0.241902 -1.67967 0
M  V30 461 H 42.2448 0.884583 -3.8117 0
M  V30 462 H 41.8678 2.45666 -3.12624 0
M  V30 463 N 42.8649 1.48995 0.513639 0
M  V30 464 C 43.7949 1.67636 1.62544 0
M  V30 465 C 44.7759 0.525087 1.61793 0
M  V30 466 O 45.9609 0.759502 1.78732 0
M  V30 467 C 43.0909 1.73114 3.01079 0
M  V30 468 C 42.0449 2.87905 3.16693 0
M  V30 469 C 41.3709 2.78486 4.56453 0
M  V30 470 C 42.6709 4.29005 2.97913 0
M  V30 471 H 44.3649 2.60716 1.47198 0
M  V30 472 H 41.9109 1.25465 0.706714 0
M  V30 473 H 43.8639 1.84742 3.78746 0
M  V30 474 H 42.5879 0.766241 3.17484 0
M  V30 475 H 41.2469 2.75859 2.41448 0
M  V30 476 H 40.8949 1.7993 4.69717 0
M  V30 477 H 40.5949 3.55523 4.67843 0
M  V30 478 H 42.1189 2.92104 5.36197 0
M  V30 479 H 43.5329 4.41798 3.65359 0
M  V30 480 H 41.9299 5.07166 3.20785 0
M  V30 481 H 42.9999 4.44329 1.94165 0
M  V30 482 N 44.343 -0.763751 1.37857 0
M  V30 483 C 45.573 -1.55067 1.3652 0
M  V30 484 C 45.981 -1.89135 -0.0494227 0
M  V30 485 O 45.324 -1.52529 -1.02375 0
M  V30 486 C 45.386 -2.8838 2.14656 0
M  V30 487 C 45.05 -2.76905 3.63555 0
M  V30 488 C 46.047 -2.4739 4.57268 0
M  V30 489 C 43.732 -2.94676 4.06781 0
M  V30 490 C 45.726 -2.35786 5.92186 0
M  V30 491 C 43.413 -2.82692 5.41782 0
M  V30 492 C 44.411 -2.53289 6.34298 0
M  V30 493 O 44.099 -2.41345 7.66817 0
M  V30 494 H 43.831 -0.486776 0.469069 0
M  V30 495 H 46.385 -0.953812 1.81911 0
M  V30 496 H 44.615 -3.50217 1.63967 0
M  V30 497 H 46.304 -3.49828 2.05852 0
M  V30 498 H 47.07 -2.33339 4.2518 0
M  V30 499 H 42.949 -3.16563 3.35126 0
M  V30 500 H 46.493 -2.12757 6.64365 0
M  V30 501 H 42.39 -2.96314 5.7347 0
M  V30 502 H 43.158 -2.56634 7.77226 0
M  V30 503 N 45.8211 -1.22559 -0.990812 0
M  V30 504 C 47.0611 -1.06302 -1.74583 0
M  V30 505 C 47.4251 0.394737 -1.87898 0
M  V30 506 O 48.6261 0.678214 -2.60103 0
M  V30 507 C 46.8971 -1.75699 -3.11231 0
M  V30 508 S 48.4561 -1.74882 -4.02445 0
M  V30 509 H 45.2741 -0.380639 -0.600529 0
M  V30 510 H 47.8761 -1.55532 -1.18449 0
M  V30 511 H 46.5801 -2.80923 -2.99183 0
M  V30 512 H 46.1111 -1.26708 -3.72436 0
M  V30 513 H 48.1261 -0.799997 -4.89709 0
M  V30 514 N 47.2992 1.18797 -1.03562 0
M  V30 515 C 48.5452 1.8893 -0.737113 0
M  V30 516 C 48.8782 1.79837 0.732956 0
M  V30 517 O 48.1532 1.19525 1.5344 0
M  V30 518 C 48.4362 3.39607 -1.19745 0
M  V30 519 C 48.2892 3.57537 -2.72924 0
M  V30 520 C 49.6082 4.33069 -0.783526 0
M  V30 521 H 46.7272 0.686057 -0.269249 0
M  V30 522 H 49.3692 1.39797 -1.28673 0
M  V30 523 H 47.5192 3.81583 -0.729855 0
M  V30 524 H 49.1912 3.24688 -3.27682 0
M  V30 525 H 47.4342 3.00363 -3.12993 0
M  V30 526 H 48.1052 4.63238 -3.00191 0
M  V30 527 H 50.5812 3.98846 -1.18581 0
M  V30 528 H 49.4572 5.3707 -1.13343 0
M  V30 529 H 49.7182 4.40986 0.313681 0
M  V30 530 N 48.7773 0.814389 1.34928 0
M  V30 531 C 50.0023 0.410097 2.03305 0
M  V30 532 C 50.4273 -0.973464 1.60951 0
M  V30 533 O 49.7853 -1.63185 0.789964 0
M  V30 534 C 49.8333 0.51049 3.56968 0
M  V30 535 O 48.9373 -0.473035 4.09678 0
M  V30 536 H 48.2783 0.170088 0.641846 0
M  V30 537 H 50.8083 1.10244 1.72358 0
M  V30 538 H 50.8183 0.383135 4.06197 0
M  V30 539 H 49.4933 1.51963 3.87144 0
M  V30 540 H 48.0703 -0.305272 3.71648 0
M  V30 541 N 50.2554 -1.46986 0.568584 0
M  V30 542 C 51.5034 -2.02041 0.0487022 0
M  V30 543 C 51.8244 -1.44408 -1.31039 0
M  V30 544 O 51.0944 -0.623477 -1.85714 0
M  V30 545 H 49.6744 -0.746849 0.015014 0
M  V30 546 H 52.3364 -1.80257 0.741168 0
M  V30 547 H 51.4324 -3.12085 -0.0308961 0
M  V30 548 N 51.7335 -0.305618 -1.54608 0
M  V30 549 C 53.1495 0.0476228 -1.59529 0
M  V30 550 C 53.3495 1.52025 -1.32252 0
M  V30 551 O 52.4055 2.27368 -1.09818 0
M  V30 552 C 53.7185 -0.354471 -2.98603 0
M  V30 553 C 55.2665 -0.303622 -3.11524 0
M  V30 554 C 55.7415 -0.680608 -4.52915 0
M  V30 555 N 57.2325 -0.63332 -4.5885 0
M  V30 556 C 57.9675 -0.897432 -5.66334 0
M  V30 557 N 57.4635 -1.22775 -6.81834 0
M  V30 558 N 59.2565 -0.824186 -5.56025 0
M  V30 559 H 51.4075 -1.2653 -1.70599 0
M  V30 560 H 53.6705 -0.513291 -0.797017 0
M  V30 561 H 53.3765 -1.3798 -3.23503 0
M  V30 562 H 53.2505 0.289568 -3.76087 0
M  V30 563 H 55.6375 0.712472 -2.8637 0
M  V30 564 H 55.7185 -0.982348 -2.36185 0
M  V30 565 H 55.3625 -1.69453 -4.78799 0
M  V30 566 H 55.2925 0.0202385 -5.26596 0
M  V30 567 H 57.7835 -0.389138 -3.75891 0
M  V30 568 H 58.0965 -1.41513 -7.59733 0
M  V30 569 H 56.4415 -1.26583 -6.83375 0
M  V30 570 H 59.6325 -0.565748 -4.64669 0
M  V30 571 H 59.8055 -1.03338 -6.39707 0
M  V30 572 N 53.2116 1.57565 -0.0334293 0
M  V30 573 C 54.4886 1.83282 0.683163 0
M  V30 574 C 54.8686 0.91823 1.90084 0
M  V30 575 O 54.2166 -0.025113 2.28486 0
M  V30 576 C 54.4266 3.32599 1.0573 0
M  V30 577 C 55.7746 3.99179 1.44711 0
M  V30 578 O 56.7986 3.3712 1.15015 0
M  V30 579 O 55.6576 5.08565 2.0006 0
M  V30 580 H 52.7516 0.755869 0.335546 0
M  V30 581 H 55.2976 1.69589 -0.0614402 0
M  V30 582 H 54.0696 3.90834 0.190828 0
M  V30 583 H 53.6926 3.51415 1.85993 0
M  V30 584 N 54.6897 -0.239769 1.55765 0
M  V30 585 C 56.1057 -0.588624 1.48349 0
M  V30 586 C 56.3057 -1.88005 0.72502 0
M  V30 587 O 55.3617 -2.51186 0.257269 0
M  V30 588 C 56.6747 -0.68474 2.928 0
M  V30 589 C 58.2227 -0.77659 3.03213 0
M  V30 590 C 58.6977 -0.904207 4.48986 0
M  V30 591 N 60.1887 -0.968896 4.52953 0
M  V30 592 C 60.9237 -1.08703 5.63002 0
M  V30 593 N 60.4197 -1.17026 6.82845 0
M  V30 594 N 62.2127 -1.12074 5.50814 0
M  V30 595 H 54.3637 0.607911 2.03515 0
M  V30 596 H 56.6267 0.21083 0.924259 0
M  V30 597 H 56.3327 0.194284 3.51163 0
M  V30 598 H 56.2067 -1.55435 3.43686 0
M  V30 599 H 58.5937 -1.64606 2.44926 0
M  V30 600 H 58.6747 0.118315 2.55526 0
M  V30 601 H 58.3187 -0.0392633 5.07885 0
M  V30 602 H 58.2487 -1.81426 4.9436 0
M  V30 603 H 60.7397 -0.915633 3.6664 0
M  V30 604 H 61.0527 -1.25966 7.62465 0
M  V30 605 H 59.3977 -1.13971 6.85591 0
M  V30 606 H 62.5887 -1.05226 4.5612 0
M  V30 607 H 62.7617 -1.20936 6.36615 0
M  V30 608 N 56.1678 -1.49265 -0.50573 0
M  V30 609 C 57.3928 -1.62478 -1.28902 0
M  V30 610 C 57.8178 -0.294332 -1.85783 0
M  V30 611 O 57.1758 0.737412 -1.65626 0
M  V30 612 C 57.2238 -2.69268 -2.39848 0
M  V30 613 O 56.3278 -2.28113 -3.43567 0
M  V30 614 H 55.6688 -0.54399 -0.380751 0
M  V30 615 H 58.1988 -1.95421 -0.605952 0
M  V30 616 H 58.2088 -2.91291 -2.85681 0
M  V30 617 H 56.8838 -3.65846 -1.97812 0
M  V30 618 H 55.4608 -2.16401 -3.03685 0
M  V30 619 N 57.6459 0.756429 -1.3826 0
M  V30 620 C 58.8859 1.52833 -1.35725 0
M  V30 621 C 59.2499 1.91926 0.0534106 0
M  V30 622 O 60.4509 2.68028 0.203613 0
M  V30 623 C 58.7219 2.74919 -2.28373 0
M  V30 624 S 60.2809 3.64817 -2.43832 0
M  V30 625 H 57.0989 0.523043 -0.481608 0
M  V30 626 H 59.7009 0.888212 -1.74158 0
M  V30 627 H 58.4049 2.44304 -3.29763 0
M  V30 628 H 57.9359 3.43878 -1.91079 0
M  V30 629 H 59.9509 4.676 -1.66027 0
M  V30 630 N 59.124 1.23083 0.984299 0
M  V30 631 C 60.087 1.00979 2.05757 0
M  V30 632 C 61.087 -0.0269573 1.60777 0
M  V30 633 O 62.277 0.212403 1.729 0
M  V30 634 C 59.409 0.527072 3.36801 0
M  V30 635 H 60.602 1.9622 2.26799 0
M  V30 636 H 58.155 1.05072 1.15714 0
M  V30 637 H 58.89 -0.429294 3.21446 0
M  V30 638 H 58.675 1.27515 3.70786 0
M  V30 639 H 60.165 0.392942 4.15747 0
M  V30 640 N 60.6021 -1.18246 1.0419 0
M  V30 641 C 61.5321 -2.24127 0.654914 0
M  V30 642 C 62.5131 -1.66617 -0.342451 0
M  V30 643 O 63.6981 -1.92924 -0.222277 0
M  V30 644 C 60.8281 -3.47295 0.0183757 0
M  V30 645 C 59.7821 -4.17563 0.939414 0
M  V30 646 C 59.1081 -5.34438 0.167286 0
M  V30 647 C 60.4081 -4.70917 2.25908 0
M  V30 648 H 62.1021 -2.56753 1.54007 0
M  V30 649 H 59.6481 -1.23414 0.74195 0
M  V30 650 H 61.6011 -4.20572 -0.264082 0
M  V30 651 H 60.3251 -3.13907 -0.901664 0
M  V30 652 H 58.9841 -3.46186 1.20628 0
M  V30 653 H 58.6321 -4.97298 -0.7552 0
M  V30 654 H 58.3321 -5.82388 0.780901 0
M  V30 655 H 59.8561 -6.10504 -0.108125 0
M  V30 656 H 61.2701 -5.35882 2.03724 0
M  V30 657 H 59.6671 -5.29406 2.82577 0
M  V30 658 H 60.7371 -3.88272 2.9047 0
M  V30 659 N 62.0802 -0.821533 -1.34494 0
M  V30 660 C 63.4912 -0.467956 -1.8074 0
M  V30 661 C 63.8422 1.01151 -1.68116 0
M  V30 662 O 62.9672 1.78707 -1.22036 0
M  V30 663 C 63.5622 -0.842627 -3.28154 0
M  V30 664 C 62.1212 -0.541439 -3.72485 0
M  V30 665 C 61.2682 -1.06028 -2.56229 0
M  V30 666 H 64.2192 -1.01183 -1.22261 0
M  V30 667 H 64.2402 -0.145876 -3.8022 0
M  V30 668 H 63.7522 -1.91945 -3.37311 0
M  V30 669 H 61.8532 0.526034 -3.68868 0
M  V30 670 H 61.9662 -1.08453 -4.66663 0
M  V30 671 H 60.3302 -0.481892 -2.501 0
M  V30 672 H 61.1132 -2.14352 -2.68157 0
M  V30 673 N 63.5583 1.46682 -0.576371 0
M  V30 674 C 64.4883 2.33028 0.148397 0
M  V30 675 C 65.4693 1.44961 0.889956 0
M  V30 676 O 66.6543 1.73789 0.866662 0
M  V30 677 C 63.7843 3.27117 1.1667 0
M  V30 678 C 62.7383 4.24575 0.540386 0
M  V30 679 C 62.0643 5.08126 1.6647 0
M  V30 680 C 63.3643 5.19722 -0.518331 0
M  V30 681 H 65.0583 2.93875 -0.572509 0
M  V30 682 H 62.6043 1.41315 -0.276768 0
M  V30 683 H 64.5573 3.86374 1.68204 0
M  V30 684 H 63.2813 2.64364 1.9178 0
M  V30 685 H 61.9403 3.66571 0.0461769 0
M  V30 686 H 61.5883 4.41762 2.40531 0
M  V30 687 H 61.2883 5.74122 1.25131 0
M  V30 688 H 62.8123 5.70246 2.18293 0
M  V30 689 H 64.2263 5.73232 -0.0883058 0
M  V30 690 H 62.6233 5.94026 -0.851679 0
M  V30 691 H 63.6933 4.64037 -1.40703 0
M  V30 692 N 65.0364 0.313813 1.54444 0
M  V30 693 C 66.4474 -0.176243 1.85866 0
M  V30 694 C 66.7984 -1.52405 1.23561 0
M  V30 695 O 65.9234 -2.09605 0.538016 0
M  V30 696 C 66.5184 -0.32657 3.37222 0
M  V30 697 C 65.0774 -0.760846 3.6863 0
M  V30 698 C 64.2244 0.123247 2.77026 0
M  V30 699 H 67.1754 0.534418 1.49431 0
M  V30 700 H 67.1964 -1.15908 3.62416 0
M  V30 701 H 66.7084 0.654531 3.82541 0
M  V30 702 H 64.8094 -1.75204 3.28838 0
M  V30 703 H 64.9224 -0.571353 4.75681 0
M  V30 704 H 63.2864 -0.399597 2.51546 0
M  V30 705 H 64.0694 1.10094 3.25168 0
M  V30 706 N 66.5145 -1.57545 0.0417849 0
M  V30 707 C 67.9255 -1.80011 -0.495259 0
M  V30 708 C 68.2765 -0.953199 -1.71489 0
M  V30 709 O 67.4015 -0.167138 -2.15754 0
M  V30 710 C 67.9965 -3.26482 -0.905265 0
M  V30 711 C 66.5555 -3.499 -1.38734 0
M  V30 712 C 65.7025 -2.74979 -0.358056 0
M  V30 713 H 68.6535 -1.56425 0.267736 0
M  V30 714 H 68.6745 -3.36887 -1.76882 0
M  V30 715 H 68.1865 -3.88096 -0.017401 0
M  V30 716 H 66.2875 -2.93553 -2.29471 0
M  V30 717 H 66.4005 -4.58615 -1.38598 0
M  V30 718 H 64.7645 -2.40834 -0.828912 0
M  V30 719 H 65.5475 -3.39315 0.521561 0
M  V30 720 N 67.9926 0.231505 -1.5589 0
M  V30 721 C 69.2406 0.955461 -1.78088 0
M  V30 722 C 69.5616 1.85262 -0.608533 0
M  V30 723 O 68.8316 1.92277 0.375035 0
M  V30 724 H 67.4116 0.355787 -0.656829 0
M  V30 725 H 70.0736 0.245751 -1.93344 0
M  V30 726 H 69.1696 1.56814 -2.69844 0
M  V30 727 N 69.4707 1.49531 0.497807 0
M  V30 728 C 70.6987 1.62893 1.27567 0
M  V30 729 C 71.1137 0.301585 1.86376 0
M  V30 730 O 70.4707 -0.713335 1.67982 0
M  V30 731 C 70.5217 2.70013 2.40364 0
M  V30 732 O 70.2427 3.976 1.83972 0
M  V30 733 C 71.7437 2.94109 3.31685 0
M  V30 734 H 68.9637 0.548298 0.386794 0
M  V30 735 H 71.5077 1.95584 0.597245 0
M  V30 736 H 69.6627 2.40092 3.04031 0
M  V30 737 H 70.0767 4.56631 2.58047 0
M  V30 738 H 71.5507 3.72788 4.07104 0
M  V30 739 H 72.0277 2.04147 3.88871 0
M  V30 740 H 72.6337 3.2546 2.73781 0
M  V30 741 N 70.9488 -0.749086 1.3866 0
M  V30 742 C 71.8818 -1.87111 1.30631 0
M  V30 743 C 72.8598 -1.61572 0.18251 0
M  V30 744 O 74.0438 -1.85019 0.360592 0
M  V30 745 C 71.1708 -3.22815 1.02511 0
M  V30 746 C 70.2168 -3.67234 2.1689 0
M  V30 747 S 71.0498 -3.78245 3.79066 0
M  V30 748 C 72.2058 -5.16761 3.53142 0
M  V30 749 H 72.4388 -1.93636 2.25594 0
M  V30 750 H 69.9718 -0.912525 1.24549 0
M  V30 751 H 71.9298 -4.01181 0.869701 0
M  V30 752 H 70.5908 -3.13964 0.0925884 0
M  V30 753 H 69.7838 -4.65677 1.92771 0
M  V30 754 H 69.3858 -2.96034 2.28561 0
M  V30 755 H 71.6778 -6.02656 3.09534 0
M  V30 756 H 72.6208 -5.45902 4.50995 0
M  V30 757 H 73.0288 -4.85771 2.87554 0
M  V30 758 N 72.4269 -1.23603 -0.977757 0
M  V30 759 C 73.6749 -1.06759 -1.71601 0
M  V30 760 C 73.9959 0.395929 -1.90938 0
M  V30 761 O 73.2659 1.28356 -1.47992 0
M  V30 762 H 71.8459 -0.392062 -0.635843 0
M  V30 763 H 74.5079 -1.55362 -1.1768 0
M  V30 764 H 73.6039 -1.55763 -2.70452 0
M  V30 765 N 73.905 1.17692 -1.04816 0
M  V30 766 C 75.152 1.87859 -0.75599 0
M  V30 767 C 75.48 1.80812 0.716752 0
M  V30 768 O 74.735 1.20819 1.53952 0
M  V30 769 C 75.034 3.37462 -1.17703 0
M  V30 770 C 74.7 3.64713 -2.65133 0
M  V30 771 C 73.362 3.71859 -3.05408 0
M  V30 772 C 75.714 3.76492 -3.60421 0
M  V30 773 C 73.042 3.88271 -4.39843 0
M  V30 774 C 75.394 3.94421 -4.94585 0
M  V30 775 C 74.058 3.99806 -5.3452 0
M  V30 776 H 73.328 0.687425 -0.276636 0
M  V30 777 H 75.975 1.39255 -1.31455 0
M  V30 778 H 74.28 3.88097 -0.537395 0
M  V30 779 H 75.977 3.90109 -0.928218 0
M  V30 780 H 72.567 3.59772 -2.32942 0
M  V30 781 H 76.751 3.70295 -3.30447 0
M  V30 782 H 72.007 3.90687 -4.70291 0
M  V30 783 H 76.181 4.02477 -5.68318 0
M  V30 784 H 73.808 4.12276 -6.38696 0
M  V30 785 N 75.3831 0.828654 1.34056 0
M  V30 786 C 76.7941 0.477534 1.8049 0
M  V30 787 C 77.1451 -1.00258 1.6865 0
M  V30 788 O 76.2701 -1.78057 1.22982 0
M  V30 789 C 76.8651 0.860018 3.27703 0
M  V30 790 C 75.4241 0.561185 3.72193 0
M  V30 791 C 74.5711 1.07385 2.55663 0
M  V30 792 H 77.5221 1.0183 1.21722 0
M  V30 793 H 77.5431 0.166038 3.80138 0
M  V30 794 H 77.0551 1.93731 3.36288 0
M  V30 795 H 75.1561 -0.506465 3.69142 0
M  V30 796 H 75.2691 1.10926 4.66082 0
M  V30 797 H 73.6331 0.495149 2.49841 0
M  V30 798 H 74.4161 2.15771 2.67016 0
M  V30 799 N 76.8612 -1.46375 0.584142 0
M  V30 800 C 78.1082 -2.02378 0.0702675 0
M  V30 801 C 78.4362 -1.45545 -1.29023 0
M  V30 802 O 77.6912 -0.610967 -1.85918 0
M  V30 803 C 77.9902 -3.57373 -0.0439342 0
M  V30 804 C 77.6562 -4.33252 1.24915 0
M  V30 805 C 76.3182 -4.53701 1.60341 0
M  V30 806 C 78.6702 -4.7681 2.1048 0
M  V30 807 C 75.9982 -5.1496 2.81128 0
M  V30 808 C 78.3502 -5.39404 3.30494 0
M  V30 809 C 77.0142 -5.5808 3.66201 0
M  V30 810 H 76.2842 -0.740554 0.0257127 0
M  V30 811 H 78.9312 -1.75727 0.761065 0
M  V30 812 H 77.2362 -3.83169 -0.817869 0
M  V30 813 H 78.9332 -3.98384 -0.457318 0
M  V30 814 H 75.5232 -4.17633 0.963364 0
M  V30 815 H 79.7072 -4.60766 1.84414 0
M  V30 816 H 74.9632 -5.27611 3.08928 0
M  V30 817 H 79.1372 -5.72114 3.97063 0
M  V30 818 H 76.7642 -6.05318 4.59885 0
M  V30 819 N 78.3393 -0.321999 -1.54275 0
M  V30 820 C 79.5863 0.281044 -2.0054 0
M  V30 821 C 79.9143 1.52265 -1.21019 0
M  V30 822 O 79.1693 1.93687 -0.279982 0
M  V30 823 C 79.4683 0.661769 -3.5122 0
M  V30 824 C 79.1343 -0.480482 -4.48333 0
M  V30 825 C 77.7963 -0.794005 -4.74604 0
M  V30 826 C 80.1483 -1.24783 -5.06042 0
M  V30 827 C 77.4763 -1.87763 -5.55844 0
M  V30 828 C 79.8283 -2.32153 -5.88462 0
M  V30 829 C 78.4923 -2.64089 -6.13036 0
M  V30 830 H 77.7623 0.102841 -0.733829 0
M  V30 831 H 80.4093 -0.445453 -1.86247 0
M  V30 832 H 78.7143 1.46867 -3.63232 0
M  V30 833 H 80.4113 1.13989 -3.84457 0
M  V30 834 H 77.0013 -0.226039 -4.28004 0
M  V30 835 H 81.1853 -1.01887 -4.85729 0
M  V30 836 H 76.4413 -2.12954 -5.73115 0
M  V30 837 H 80.6153 -2.92057 -6.32199 0
M  V30 838 H 78.2423 -3.48185 -6.75775 0
M  V30 839 N 79.8174 1.5752 -0.0501392 0
M  V30 840 C 81.0654 1.9227 0.622642 0
M  V30 841 C 81.3864 0.929083 1.71444 0
M  V30 842 O 80.6564 -0.0262186 1.95882 0
M  V30 843 H 79.2364 0.709739 0.232981 0
M  V30 844 H 81.8984 1.94628 -0.102898 0
M  V30 845 H 80.9944 2.93479 1.06191 0
M  V30 846 N 81.2955 -0.223234 1.56011 0
M  V30 847 C 82.2055 -1.29766 1.95443 0
M  V30 848 C 83.2215 -1.51373 0.858028 0
M  V30 849 O 84.3975 -1.64536 1.16146 0
M  V30 850 C 81.4625 -2.62772 2.26167 0
M  V30 851 C 80.5235 -2.49482 3.49367 0
M  V30 852 C 79.7565 -3.76145 3.78616 0
M  V30 853 O 79.9795 -4.79087 3.09568 0
M  V30 854 O 78.9135 -3.73358 4.72109 0
M  V30 855 H 82.7395 -0.99309 2.87004 0
M  V30 856 H 80.3245 -0.425958 1.43199 0
M  V30 857 H 82.2065 -3.41327 2.47131 0
M  V30 858 H 80.8815 -2.92913 1.37781 0
M  V30 859 H 79.7885 -1.69133 3.33684 0
M  V30 860 H 81.1215 -2.2428 4.38131 0
M  V30 861 N 82.7736 -1.49793 -0.48987 0
M  V30 862 C 84.0016 -1.63568 -1.26701 0
M  V30 863 C 84.4166 -0.311465 -1.86213 0
M  V30 864 O 83.7736 0.704416 -1.68357 0
M  V30 865 C 83.8246 -2.71284 -2.38929 0
M  V30 866 O 83.5456 -3.9857 -1.81861 0
M  V30 867 C 85.0466 -2.95864 -3.3012 0
M  V30 868 H 82.2666 -0.550342 -0.383881 0
M  V30 869 H 84.8106 -1.95898 -0.586864 0
M  V30 870 H 82.9656 -2.417 -3.02753 0
M  V30 871 H 83.3796 -4.57993 -2.55622 0
M  V30 872 H 84.8536 -3.74941 -4.05121 0
M  V30 873 H 85.3306 -2.06206 -3.87783 0
M  V30 874 H 85.9366 -3.26907 -2.72051 0
M  V30 875 N 84.2517 0.741722 -1.39055 0
M  V30 876 C 85.1817 1.869 -1.39966 0
M  V30 877 C 86.1627 1.6804 -0.26392 0
M  V30 878 O 87.3477 1.88458 -0.468755 0
M  V30 879 C 84.4777 3.24572 -1.23574 0
M  V30 880 C 83.4317 3.58056 -2.34477 0
M  V30 881 C 82.7577 4.94593 -2.0318 0
M  V30 882 C 84.0577 3.61716 -3.76774 0
M  V30 883 H 85.7517 1.86395 -2.34302 0
M  V30 884 H 83.2977 0.895361 -1.1278 0
M  V30 885 H 85.2507 4.031 -1.22834 0
M  V30 886 H 83.9747 3.25587 -0.257045 0
M  V30 887 H 82.6337 2.81854 -2.34423 0
M  V30 888 H 82.2817 4.92181 -1.03765 0
M  V30 889 H 81.9817 5.17964 -2.77465 0
M  V30 890 H 83.5057 5.75486 -2.04079 0
M  V30 891 H 84.9197 4.30335 -3.78794 0
M  V30 892 H 83.3167 3.96603 -4.50362 0
M  V30 893 H 84.3867 2.61672 -4.08235 0
M  V30 894 N 85.7298 1.2412 0.971189 0
M  V30 895 C 86.6618 0.988349 2.06795 0
M  V30 896 C 87.6748 -0.0409541 1.62748 0
M  V30 897 O 88.8638 0.195673 1.77424 0
M  V30 898 C 85.9638 0.469023 3.35639 0
M  V30 899 C 85.1368 1.56065 4.08611 0
M  V30 900 C 84.1958 1.04458 5.15728 0
M  V30 901 O 83.2218 1.73553 5.42096 0
M  V30 902 N 84.4238 -0.122817 5.8037 0
M  V30 903 H 87.1888 1.93265 2.29061 0
M  V30 904 H 84.7498 1.15102 1.13856 0
M  V30 905 H 86.7418 0.108613 4.04554 0
M  V30 906 H 85.3118 -0.380919 3.1027 0
M  V30 907 H 84.5318 2.09341 3.34021 0
M  V30 908 H 85.8198 2.29449 4.54126 0
M  V30 909 H 85.2178 -0.700563 5.61345 0
M  V30 910 H 83.7748 -0.424404 6.50417 0
M  V30 911 N 87.2079 -1.17134 1.05439 0
M  V30 912 C 88.1409 -2.2012 0.601855 0
M  V30 913 C 89.1189 -1.58314 -0.370854 0
M  V30 914 O 90.3029 -1.8638 -0.281882 0
M  V30 915 C 87.4299 -3.38491 -0.118868 0
M  V30 916 C 86.4759 -4.18752 0.809242 0
M  V30 917 S 87.3089 -4.83602 2.29977 0
M  V30 918 C 88.4649 -6.0536 1.59029 0
M  V30 919 H 88.6979 -2.58165 1.47438 0
M  V30 920 H 86.2309 -1.27788 0.866573 0
M  V30 921 H 88.1889 -4.07084 -0.528495 0
M  V30 922 H 86.8499 -2.98829 -0.967465 0
M  V30 923 H 86.0429 -5.03373 0.251379 0
M  V30 924 H 85.6449 -3.5561 1.15835 0
M  V30 925 H 87.9369 -6.71615 0.891017 0
M  V30 926 H 88.8799 -6.65679 2.41407 0
M  V30 927 H 89.2879 -5.54138 1.07663 0
M  V30 928 N 88.686 -0.835752 -1.33615 0
M  V30 929 C 89.932 -0.430596 -1.98176 0
M  V30 930 C 90.265 1.00684 -1.66061 0
M  V30 931 O 89.54 1.70339 -0.938877 0
M  V30 932 C 89.823 -0.648065 -3.5422 0
M  V30 933 C 89.676 -2.13255 -3.96033 0
M  V30 934 C 90.995 -0.0922113 -4.40003 0
M  V30 935 H 88.114 -0.157924 -0.719881 0
M  V30 936 H 90.756 -1.05069 -1.58305 0
M  V30 937 H 88.906 -0.120237 -3.88314 0
M  V30 938 H 90.578 -2.725 -3.72211 0
M  V30 939 H 88.821 -2.61823 -3.45878 0
M  V30 940 H 89.492 -2.23547 -5.04708 0
M  V30 941 H 91.968 -0.543343 -4.12537 0
M  V30 942 H 90.844 -0.274083 -5.48215 0
M  V30 943 H 91.105 1.00378 -4.30554 0
M  V30 944 N 90.1641 1.46063 -0.591896 0
M  V30 945 C 91.0941 2.33172 0.123673 0
M  V30 946 C 92.0751 1.45897 0.87453 0
M  V30 947 O 93.2601 1.74698 0.848181 0
M  V30 948 C 90.3901 3.28336 1.13194 0
M  V30 949 C 89.3441 4.25124 0.495324 0
M  V30 950 C 88.6701 5.09863 1.61071 0
M  V30 951 C 89.9701 5.19143 -0.573425 0
M  V30 952 H 91.6641 2.93252 -0.603646 0
M  V30 953 H 89.2101 1.41014 -0.291741 0
M  V30 954 H 91.1631 3.88137 1.64097 0
M  V30 955 H 89.8871 2.66383 1.88965 0
M  V30 956 H 88.5461 3.66599 0.00729452 0
M  V30 957 H 88.1941 4.44288 2.35832 0
M  V30 958 H 87.8941 5.75417 1.19035 0
M  V30 959 H 89.4181 5.72529 2.12233 0
M  V30 960 H 90.8321 5.73106 -0.1491 0
M  V30 961 H 89.2291 5.93089 -0.914636 0
M  V30 962 H 90.2991 4.62519 -1.45617 0
M  V30 963 N 91.6422 0.330177 1.54103 0
M  V30 964 C 92.5742 -0.566902 2.22079 0
M  V30 965 C 93.5872 -1.07462 1.22294 0
M  V30 966 O 94.7762 -0.987065 1.48726 0
M  V30 967 C 91.8762 -1.79138 2.87685 0
M  V30 968 C 91.0492 -1.42123 4.13666 0
M  V30 969 C 90.1082 -2.50394 4.62806 0
M  V30 970 O 89.1342 -2.14261 5.27334 0
M  V30 971 N 90.3362 -3.81433 4.37595 0
M  V30 972 H 93.1012 0.0151844 2.99696 0
M  V30 973 H 90.6622 0.153681 1.61169 0
M  V30 974 H 92.6542 -2.50975 3.1748 0
M  V30 975 H 91.2242 -2.28115 2.13734 0
M  V30 976 H 90.4442 -0.534201 3.90564 0
M  V30 977 H 91.7322 -1.14971 4.9564 0
M  V30 978 H 91.1302 -4.13584 3.8596 0
M  V30 979 H 89.6872 -4.4948 4.72029 0
M  V30 980 N 93.1203 -1.57491 0.0584922 0
M  V30 981 C 94.5363 -1.56792 -0.298091 0
M  V30 982 C 94.7363 -1.06679 -1.70944 0
M  V30 983 O 93.7923 -0.726672 -2.41818 0
M  V30 984 C 95.1053 -3.00461 -0.119879 0
M  V30 985 C 96.6533 -3.1242 -0.190428 0
M  V30 986 C 97.1283 -4.57982 -0.0406567 0
M  V30 987 N 98.6193 -4.63099 -0.0966958 0
M  V30 988 C 99.3543 -5.734 -0.00502943 0
M  V30 989 N 98.8503 -6.9266 0.139402 0
M  V30 990 N 100.643 -5.62067 -0.0611391 0
M  V30 991 H 92.7943 -1.88386 0.98105 0
M  V30 992 H 95.0573 -0.867865 0.381463 0
M  V30 993 H 94.7633 -3.41187 0.85349 0
M  V30 994 H 94.6373 -3.66843 -0.877833 0
M  V30 995 H 97.0243 -2.71589 -1.15427 0
M  V30 996 H 97.1053 -2.48702 0.598405 0
M  V30 997 H 96.7493 -4.995 0.919897 0
M  V30 998 H 96.6793 -5.19715 -0.848727 0
M  V30 999 H 99.1703 -3.77331 -0.207277 0
M  V30 1000 H 99.4833 -7.72536 0.201855 0
M  V30 1001 H 97.8283 -6.94781 0.174586 0
M  V30 1002 H 101.019 -4.67782 -0.172583 0
M  V30 1003 H 101.192 -6.47999 0.0137562 0
M  V30 1004 N 94.5984 0.214957 -1.56127 0
M  V30 1005 C 96.0144 0.564948 -1.49267 0
M  V30 1006 C 96.2144 1.86827 -0.754838 0
M  V30 1007 O 95.2704 2.50745 -0.297198 0
M  V30 1008 C 96.5834 0.638071 -2.93852 0
M  V30 1009 C 98.1314 0.728253 -3.0441 0
M  V30 1010 C 98.6064 0.832663 -4.50367 0
M  V30 1011 N 100.097 0.896712 -4.54437 0
M  V30 1012 C 100.832 0.997324 -5.6466 0
M  V30 1013 N 100.328 1.06147 -6.8462 0
M  V30 1014 N 102.121 1.03297 -5.52527 0
M  V30 1015 H 94.2724 -0.640211 -2.02522 0
M  V30 1016 H 96.5354 -0.225507 -0.920788 0
M  V30 1017 H 96.2414 -0.250126 -3.50809 0
M  V30 1018 H 96.1154 1.49947 -3.46115 0
M  V30 1019 H 98.5024 1.60689 -2.47514 0
M  V30 1020 H 98.5834 -0.158952 -2.55306 0
M  V30 1021 H 98.2274 -0.0415417 -5.07883 0
M  V30 1022 H 98.1574 1.73538 -4.97184 0
M  V30 1023 H 100.648 0.857188 -3.6805 0
M  V30 1024 H 100.961 1.1382 -7.64372 0
M  V30 1025 H 99.3064 1.03049 -6.87318 0
M  V30 1026 H 102.497 0.979558 -4.57736 0
M  V30 1027 H 102.67 1.10793 -6.38458 0
M  V30 1028 N 96.0765 1.50051 0.48192 0
M  V30 1029 C 97.0235 1.68122 1.58125 0
M  V30 1030 C 97.9935 0.522545 1.57666 0
M  V30 1031 O 99.1785 0.751844 1.75362 0
M  V30 1032 C 96.3185 1.77142 2.96167 0
M  V30 1033 C 95.4315 3.0444 3.06497 0
M  V30 1034 C 94.5665 3.04321 4.35387 0
M  V30 1035 C 93.6055 4.26118 4.3942 0
M  V30 1036 N 92.7425 4.238 5.59766 0
M  V30 1037 H 97.5825 2.6198 1.42022 0
M  V30 1038 H 95.1195 1.29877 0.690687 0
M  V30 1039 H 97.0775 1.80352 3.76203 0
M  V30 1040 H 95.7075 0.867329 3.1093 0
M  V30 1041 H 94.7595 3.10752 2.19402 0
M  V30 1042 H 96.0715 3.94426 3.05336 0
M  V30 1043 H 95.2255 3.062 5.23762 0
M  V30 1044 H 93.9645 2.12147 4.39141 0
M  V30 1045 H 92.9695 4.24463 3.49444 0
M  V30 1046 H 94.1945 5.19507 4.37366 0
M  V30 1047 H 92.1405 3.34474 5.64326 0
M  V30 1048 H 92.0575 5.07542 5.60301 0
M  V30 1049 H 93.3255 4.2981 6.50295 0
M  V30 1050 N 97.5546 -0.734337 1.39446 0
M  V30 1051 C 98.8016 -1.49391 1.36706 0
M  V30 1052 C 99.1296 -1.94465 -0.0367813 0
M  V30 1053 O 98.3846 -1.67154 -1.01774 0
M  V30 1054 C 98.6836 -2.74711 2.28623 0
M  V30 1055 C 98.3496 -2.48501 3.76242 0
M  V30 1056 C 97.0116 -2.41062 4.16464 0
M  V30 1057 C 99.3636 -2.26098 4.69606 0
M  V30 1058 C 96.6916 -2.09262 5.48112 0
M  V30 1059 C 99.0436 -1.95814 6.01531 0
M  V30 1060 C 97.7076 -1.86845 6.40816 0
M  V30 1061 H 96.9776 -0.546661 0.500243 0
M  V30 1062 H 99.6246 -0.842788 1.71957 0
M  V30 1063 H 97.9296 -3.44569 1.86492 0
M  V30 1064 H 99.6266 -3.32741 2.23796 0
M  V30 1065 H 96.2166 -2.55169 3.44364 0
M  V30 1066 H 100.401 -2.30812 4.39363 0
M  V30 1067 H 95.6566 -2.00841 5.77471 0
M  V30 1068 H 99.8306 -1.77488 6.73403 0
M  V30 1069 H 97.4576 -1.6197 7.42745 0
M  V30 1070 N 99.0327 -1.24633 -0.964593 0
M  V30 1071 C 99.9627 -1.06611 -2.07741 0
M  V30 1072 C 100.944 0.0218666 -1.70086 0
M  V30 1073 O 102.129 -0.145793 -1.93652 0
M  V30 1074 C 99.2587 -0.673444 -3.40708 0
M  V30 1075 C 98.2127 -1.71054 -3.92332 0
M  V30 1076 C 97.5387 -1.17285 -5.21678 0
M  V30 1077 C 98.8387 -3.10718 -4.19824 0
M  V30 1078 H 100.533 -1.99693 -2.23076 0
M  V30 1079 H 98.0787 -0.96152 -1.07195 0
M  V30 1080 H 100.032 -0.534345 -4.17998 0
M  V30 1081 H 98.7557 0.293073 -3.25282 0
M  V30 1082 H 97.4147 -1.83791 -3.17201 0
M  V30 1083 H 97.0627 -0.196847 -5.02615 0
M  V30 1084 H 96.7627 -1.86592 -5.57187 0
M  V30 1085 H 98.2867 -1.04593 -6.01575 0
M  V30 1086 H 99.7007 -3.01192 -4.87808 0
M  V30 1087 H 98.0977 -3.77406 -4.66567 0
M  V30 1088 H 99.1677 -3.58524 -3.26479 0
M  V30 1089 N 100.511 1.16574 -1.06058 0
M  V30 1090 C 101.443 2.2045 -0.627239 0
M  V30 1091 C 102.456 1.59752 0.313534 0
M  V30 1092 O 103.645 1.78192 0.104896 0
M  V30 1093 C 100.745 3.3875 0.100974 0
M  V30 1094 C 99.9178 4.29008 -0.852687 0
M  V30 1095 C 98.9768 5.25944 -0.164152 0
M  V30 1096 O 98.0028 5.63535 -0.801047 0
M  V30 1097 N 99.2048 5.70075 1.09518 0
M  V30 1098 H 101.97 2.58249 -1.52077 0
M  V30 1099 H 99.5308 1.3156 -0.943594 0
M  V30 1100 H 101.523 4.00638 0.57194 0
M  V30 1101 H 100.093 2.99476 0.89628 0
M  V30 1102 H 99.3128 3.64419 -1.50308 0
M  V30 1103 H 100.601 4.86195 -1.49972 0
M  V30 1104 H 99.9988 5.41624 1.6328 0
M  V30 1105 H 98.5558 6.34067 1.51006 0
M  V30 1106 N 101.989 0.842826 1.3317 0
M  V30 1107 C 102.922 0.223862 2.27099 0
M  V30 1108 C 103.9 -0.631311 1.49844 0
M  V30 1109 O 105.084 -0.590708 1.79005 0
M  V30 1110 C 102.211 -0.685313 3.31694 0
M  V30 1111 C 101.257 0.094919 4.26394 0
M  V30 1112 S 102.09 1.45546 5.15341 0
M  V30 1113 C 103.246 0.551685 6.23464 0
M  V30 1114 H 103.479 1.02015 2.79249 0
M  V30 1115 H 101.012 0.639797 1.4052 0
M  V30 1116 H 102.97 -1.20426 3.92438 0
M  V30 1117 H 101.631 -1.4553 2.78352 0
M  V30 1118 H 100.824 -0.597059 5.00451 0
M  V30 1119 H 100.426 0.545054 3.70007 0
M  V30 1120 H 102.718 -0.248877 6.77043 0
M  V30 1121 H 103.661 1.26253 6.96754 0
M  V30 1122 H 104.069 0.131275 5.64347 0
M  V30 1123 N 103.467 -1.45747 0.599634 0
M  V30 1124 C 104.414 -2.30467 -0.123849 0
M  V30 1125 C 105.384 -1.41632 -0.86774 0
M  V30 1126 O 106.569 -1.70568 -0.855056 0
M  V30 1127 C 103.709 -3.26402 -1.12051 0
M  V30 1128 C 102.822 -4.3034 -0.37832 0
M  V30 1129 C 101.957 -5.13389 -1.364 0
M  V30 1130 C 100.996 -6.09061 -0.609171 0
M  V30 1131 N 100.133 -6.84918 -1.54374 0
M  V30 1132 H 104.973 -2.91802 0.604627 0
M  V30 1133 H 102.51 -1.43797 0.309972 0
M  V30 1134 H 104.468 -3.80482 -1.7114 0
M  V30 1135 H 103.098 -2.66839 -1.8165 0
M  V30 1136 H 102.15 -3.78984 0.327929 0
M  V30 1137 H 103.462 -4.98354 0.210997 0
M  V30 1138 H 102.616 -5.7183 -2.02719 0
M  V30 1139 H 101.355 -4.45376 -1.98725 0
M  V30 1140 H 100.36 -5.49758 0.0676979 0
M  V30 1141 H 101.585 -6.79099 0.00891991 0
M  V30 1142 H 99.531 -6.19601 -2.15478 0
M  V30 1143 H 99.448 -7.49254 -1.00766 0
M  V30 1144 H 100.716 -7.47906 -2.19676 0
M  V30 1145 N 104.945 -0.338344 -1.53925 0
M  V30 1146 C 106.361 0.0137736 -1.59594 0
M  V30 1147 C 106.561 1.49186 -1.35447 0
M  V30 1148 O 105.617 2.24987 -1.14616 0
M  V30 1149 C 106.93 -0.41773 -2.97784 0
M  V30 1150 C 108.478 -0.369633 -3.1081 0
M  V30 1151 C 108.953 -0.776524 -4.51369 0
M  V30 1152 N 110.444 -0.730506 -4.57403 0
M  V30 1153 C 111.179 -1.01736 -5.64303 0
M  V30 1154 N 110.675 -1.3721 -6.79077 0
M  V30 1155 N 112.468 -0.941942 -5.54151 0
M  V30 1156 H 104.619 -1.3012 -1.67876 0
M  V30 1157 H 106.882 -0.530082 -0.78595 0
M  V30 1158 H 106.588 -1.44811 -3.20504 0
M  V30 1159 H 106.462 0.209729 -3.76616 0
M  V30 1160 H 108.849 0.651568 -2.87817 0
M  V30 1161 H 108.93 -1.03223 -2.34049 0
M  V30 1162 H 108.574 -1.79571 -4.75096 0
M  V30 1163 H 108.504 -0.0914649 -5.26521 0
M  V30 1164 H 110.995 -0.468783 -3.74981 0
M  V30 1165 H 111.308 -1.57597 -7.5656 0
M  V30 1166 H 109.653 -1.4105 -6.80536 0
M  V30 1167 H 112.844 -0.664184 -4.63364 0
M  V30 1168 H 113.017 -1.16884 -6.37371 0
M  V30 1169 N 106.423 1.57458 -0.0668435 0
M  V30 1170 C 107.839 1.56947 0.289772 0
M  V30 1171 C 108.039 1.07584 1.70376 0
M  V30 1172 O 107.095 0.739486 2.41429 0
M  V30 1173 C 108.408 3.0052 0.103943 0
M  V30 1174 C 109.956 3.12517 0.173857 0
M  V30 1175 C 110.431 4.57997 0.0163682 0
M  V30 1176 N 111.922 4.63144 0.0721352 0
M  V30 1177 C 112.657 5.73394 -0.0253794 0
M  V30 1178 N 112.153 6.92576 -0.176133 0
M  V30 1179 N 113.946 5.62091 0.0313305 0
M  V30 1180 H 106.097 1.87863 -0.991027 0
M  V30 1181 H 108.36 0.86583 -0.38606 0
M  V30 1182 H 108.066 3.40729 -0.871572 0
M  V30 1183 H 107.94 3.67304 0.858366 0
M  V30 1184 H 110.327 2.72197 1.13985 0
M  V30 1185 H 110.408 2.48381 -0.611586 0
M  V30 1186 H 110.052 4.99005 -0.946374 0
M  V30 1187 H 109.982 5.20158 0.821153 0
M  V30 1188 H 112.473 3.77436 0.187263 0
M  V30 1189 H 112.786 7.72418 -0.242821 0
M  V30 1190 H 111.131 6.94678 -0.211429 0
M  V30 1191 H 114.322 4.67867 0.147773 0
M  V30 1192 H 114.495 6.47982 -0.048121 0
M  V30 1193 N 107.901 -0.206675 1.56239 0
M  V30 1194 C 108.848 -1.25617 1.93621 0
M  V30 1195 C 109.818 -1.45824 0.795274 0
M  V30 1196 O 111.003 -1.59148 1.05245 0
M  V30 1197 C 108.143 -2.59839 2.27107 0
M  V30 1198 C 107.256 -2.47308 3.54207 0
M  V30 1199 C 106.391 -3.74155 3.7707 0
M  V30 1200 C 105.43 -3.56407 4.97635 0
M  V30 1201 N 104.567 -4.75238 5.1681 0
M  V30 1202 H 109.407 -0.930383 2.83104 0
M  V30 1203 H 106.944 -0.448065 1.4011 0
M  V30 1204 H 108.902 -3.38021 2.44535 0
M  V30 1205 H 107.532 -2.90485 1.40778 0
M  V30 1206 H 106.584 -1.60483 3.4489 0
M  V30 1207 H 107.896 -2.30122 4.42544 0
M  V30 1208 H 107.05 -4.60778 3.94675 0
M  V30 1209 H 105.789 -3.94282 2.87042 0
M  V30 1210 H 104.794 -2.68168 4.79964 0
M  V30 1211 H 106.019 -3.37736 5.89161 0
M  V30 1212 H 103.965 -4.95651 4.29728 0
M  V30 1213 H 103.882 -4.60835 5.99306 0
M  V30 1214 H 105.15 -5.63246 5.38864 0
M  V30 1215 N 109.379 -1.50304 -0.473955 0
M  V30 1216 C 110.609 -1.64663 -1.24778 0
M  V30 1217 C 111.017 -0.328174 -1.86332 0
M  V30 1218 O 110.36 0.699536 -1.69859 0
M  V30 1219 C 110.422 -2.6778 -2.39863 0
M  V30 1220 C 110.086 -4.11413 -1.98969 0
M  V30 1221 C 111.083 -4.97372 -1.51385 0
M  V30 1222 C 108.768 -4.57312 -2.07777 0
M  V30 1223 C 110.762 -6.27277 -1.13148 0
M  V30 1224 C 108.449 -5.87223 -1.69152 0
M  V30 1225 C 109.447 -6.72031 -1.21915 0
M  V30 1226 O 109.135 -7.99518 -0.838237 0
M  V30 1227 H 108.867 -0.556602 -0.383627 0
M  V30 1228 H 111.421 -1.9726 -0.572491 0
M  V30 1229 H 109.651 -2.30419 -3.10554 0
M  V30 1230 H 111.34 -2.71388 -3.01833 0
M  V30 1231 H 112.106 -4.63128 -1.44004 0
M  V30 1232 H 107.985 -3.91449 -2.43493 0
M  V30 1233 H 111.529 -6.93425 -0.762077 0
M  V30 1234 H 107.426 -6.20989 -1.76191 0
M  V30 1235 H 108.194 -8.12764 -0.967339 0
M  V30 1236 N 110.857 0.726932 -1.39834 0
M  V30 1237 C 112.105 1.4837 -1.37225 0
M  V30 1238 C 112.426 1.94979 0.0284857 0
M  V30 1239 O 111.696 1.69555 0.981213 0
M  V30 1240 H 110.276 0.55043 -0.505011 0
M  V30 1241 H 112.938 0.862468 -1.74778 0
M  V30 1242 H 112.034 2.36198 -2.04003 0
M  V30 1243 N 112.336 1.25143 0.95797 0
M  V30 1244 C 113.583 1.09692 1.70217 0
M  V30 1245 C 113.911 -0.362654 1.91089 0
M  V30 1246 O 113.166 -1.28386 1.47701 0
M  V30 1247 C 113.465 1.79272 3.09187 0
M  V30 1248 C 113.131 3.29196 3.08125 0
M  V30 1249 C 111.793 3.70096 3.07543 0
M  V30 1250 C 114.145 4.24995 3.0171 0
M  V30 1251 C 111.473 5.05213 2.9829 0
M  V30 1252 C 113.825 5.60132 2.93999 0
M  V30 1253 C 112.489 6.00365 2.9175 0
M  V30 1254 H 111.759 0.401393 0.622868 0
M  V30 1255 H 114.406 1.55372 1.11945 0
M  V30 1256 H 112.711 1.26014 3.70982 0
M  V30 1257 H 114.408 1.64773 3.65583 0
M  V30 1258 H 110.998 2.96651 3.09348 0
M  V30 1259 H 115.182 3.9439 3.01281 0
M  V30 1260 H 110.438 5.35569 2.94916 0
M  V30 1261 H 114.612 6.3406 2.87996 0
M  V30 1262 H 112.239 7.05023 2.84336 0
M  V30 1263 N 113.814 -1.1601 1.06675 0
M  V30 1264 C 115.063 -1.85973 0.780818 0
M  V30 1265 C 115.376 -1.82819 -0.695444 0
M  V30 1266 O 116.582 -2.484 -1.09589 0
M  V30 1267 C 115.038 -3.33757 1.34665 0
M  V30 1268 C 114.646 -3.45374 2.85343 0
M  V30 1269 C 116.39 -4.0895 1.13843 0
M  V30 1270 C 114.297 -4.87266 3.35151 0
M  V30 1271 H 113.227 -0.696661 0.288407 0
M  V30 1272 H 115.878 -1.30903 1.28595 0
M  V30 1273 H 114.26 -3.88456 0.769274 0
M  V30 1274 H 115.434 -3.00816 3.49065 0
M  V30 1275 H 113.749 -2.83619 3.04876 0
M  V30 1276 H 116.346 -5.13654 1.4854 0
M  V30 1277 H 116.689 -4.16229 0.0770282 0
M  V30 1278 H 117.222 -3.605 1.68179 0
M  V30 1279 H 113.961 -4.85168 4.40786 0
M  V30 1280 H 113.481 -5.32433 2.76179 0
M  V30 1281 H 115.16 -5.56097 3.30704 0
M  V30 1282 N 115.292 -0.849877 -1.32721 0
M  V30 1283 C 116.522 -0.46408 -2.0132 0
M  V30 1284 C 116.93 0.94246 -1.64056 0
M  V30 1285 O 116.273 1.6257 -0.855379 0
M  V30 1286 C 116.335 -0.517887 -3.5575 0
M  V30 1287 C 115.999 -1.88248 -4.16427 0
M  V30 1288 C 116.996 -2.84726 -4.35002 0
M  V30 1289 C 114.681 -2.17832 -4.52609 0
M  V30 1290 C 116.675 -4.08945 -4.8892 0
M  V30 1291 C 114.362 -3.42304 -5.06232 0
M  V30 1292 C 115.36 -4.37677 -5.24335 0
M  V30 1293 O 115.048 -5.59946 -5.76815 0
M  V30 1294 H 114.78 -0.181327 -0.651227 0
M  V30 1295 H 117.334 -1.14713 -1.70382 0
M  V30 1296 H 115.564 0.221997 -3.86062 0
M  V30 1297 H 117.253 -0.148366 -4.05629 0
M  V30 1298 H 118.019 -2.63174 -4.07388 0
M  V30 1299 H 113.898 -1.44385 -4.37806 0
M  V30 1300 H 117.442 -4.83396 -5.02966 0
M  V30 1301 H 113.339 -3.63709 -5.33278 0
M  V30 1302 H 114.107 -5.61838 -5.95214 0
M  V30 1303 N 116.77 1.45427 -0.607355 0
M  V30 1304 C 117.717 2.3053 0.111625 0
M  V30 1305 C 118.687 1.4209 0.860216 0
M  V30 1306 O 119.872 1.71019 0.845998 0
M  V30 1307 C 117.012 3.26992 1.10319 0
M  V30 1308 C 116.125 4.30535 0.355493 0
M  V30 1309 C 115.26 5.14105 1.33676 0
M  V30 1310 C 114.299 6.09376 0.576862 0
M  V30 1311 N 113.436 6.85727 1.5074 0
M  V30 1312 H 118.276 2.91477 -0.620093 0
M  V30 1313 H 115.813 1.43631 -0.317594 0
M  V30 1314 H 117.771 3.81385 1.6912 0
M  V30 1315 H 116.401 2.67799 1.80232 0
M  V30 1316 H 115.453 3.78805 -0.348023 0
M  V30 1317 H 116.765 4.98235 -0.237423 0
M  V30 1318 H 115.919 5.72897 1.99684 0
M  V30 1319 H 114.658 4.46423 1.9636 0
M  V30 1320 H 113.663 5.49715 -0.0968519 0
M  V30 1321 H 114.888 6.79085 -0.0449341 0
M  V30 1322 H 112.834 6.20735 2.12189 0
M  V30 1323 H 112.751 7.49778 0.967913 0
M  V30 1324 H 114.019 7.4906 2.15706 0
M  V30 1325 N 118.248 0.346503 1.53744 0
M  V30 1326 C 119.476 -0.25041 2.05379 0
M  V30 1327 C 119.891 -1.43979 1.22129 0
M  V30 1328 O 119.248 -1.80677 0.257321 0
M  V30 1329 C 119.299 -0.662575 3.55376 0
M  V30 1330 O 119.02 0.479515 4.35468 0
M  V30 1331 C 120.521 -1.31989 4.23195 0
M  V30 1332 H 117.741 -0.0478198 0.669294 0
M  V30 1333 H 120.285 0.499346 1.9831 0
M  V30 1334 H 118.44 -1.36227 3.62658 0
M  V30 1335 H 118.854 0.15037 5.24284 0
M  V30 1336 H 120.328 -1.55902 5.29527 0
M  V30 1337 H 120.805 -2.27436 3.75725 0
M  V30 1338 H 121.411 -0.662154 4.20114 0
M  V30 1339 N 119.726 -1.57421 0.075193 0
M  V30 1340 C 120.676 -2.09441 -0.901025 0
M  V30 1341 C 121.66 -1.00486 -1.25663 0
M  V30 1342 O 122.852 -1.2679 -1.23504 0
M  V30 1343 C 119.981 -2.66233 -2.16737 0
M  V30 1344 C 119.067 -3.82198 -1.83808 0
M  V30 1345 N 119.458 -4.91028 -1.21345 0
M  V30 1346 C 117.756 -3.91558 -2.13538 0
M  V30 1347 C 118.457 -5.71852 -1.06585 0
M  V30 1348 N 117.433 -5.20233 -1.57667 0
M  V30 1349 H 121.235 -2.90972 -0.413815 0
M  V30 1350 H 118.749 -1.6189 -0.128601 0
M  V30 1351 H 120.746 -3.01819 -2.87595 0
M  V30 1352 H 119.406 -1.8615 -2.66042 0
M  V30 1353 H 120.417 -5.10323 -0.88268 0
M  V30 1354 H 117.094 -3.22454 -2.65197 0
M  V30 1355 H 118.484 -6.69401 -0.578933 0
M  V30 1356 N 121.204 0.198386 -1.56346 0
M  V30 1357 C 122.134 1.24865 -1.9731 0
M  V30 1358 C 123.115 1.47651 -0.844576 0
M  V30 1359 O 124.3 1.59444 -1.10866 0
M  V30 1360 C 121.43 2.59358 -2.30977 0
M  V30 1361 C 120.384 2.5119 -3.46537 0
M  V30 1362 C 119.71 3.89926 -3.65871 0
M  V30 1363 C 121.01 2.03977 -4.80823 0
M  V30 1364 H 122.704 0.908252 -2.85291 0
M  V30 1365 H 120.25 0.435462 -1.37258 0
M  V30 1366 H 122.203 3.33011 -2.58228 0
M  V30 1367 H 120.927 2.95132 -1.39874 0
M  V30 1368 H 119.586 1.79993 -3.19371 0
M  V30 1369 H 119.234 4.23046 -2.72105 0
M  V30 1370 H 118.934 3.85336 -4.4361 0
M  V30 1371 H 120.458 4.65205 -3.95495 0
M  V30 1372 H 121.872 2.67386 -5.07127 0
M  V30 1373 H 120.269 2.10397 -5.62008 0
M  V30 1374 H 121.339 0.992861 -4.74626 0
M  V30 1375 N 122.682 1.50554 0.465978 0
M  V30 1376 C 123.929 1.61798 1.21768 0
M  V30 1377 C 124.257 0.320696 1.91838 0
M  V30 1378 O 123.512 -0.693724 1.82992 0
M  V30 1379 C 123.811 2.75152 2.28093 0
M  V30 1380 C 123.477 4.15454 1.75239 0
M  V30 1381 C 122.139 4.53628 1.60546 0
M  V30 1382 C 124.491 5.03121 1.36083 0
M  V30 1383 C 121.819 5.77204 1.05128 0
M  V30 1384 C 124.171 6.27249 0.821056 0
M  V30 1385 C 122.835 6.64221 0.660795 0
M  V30 1386 H 122.105 0.592063 0.445582 0
M  V30 1387 H 124.752 1.84503 0.512927 0
M  V30 1388 H 123.057 2.46556 3.04496 0
M  V30 1389 H 124.754 2.81055 2.86023 0
M  V30 1390 H 121.344 3.85341 1.87644 0
M  V30 1391 H 125.528 4.74257 1.46267 0
M  V30 1392 H 120.784 6.0452 0.91462 0
M  V30 1393 H 124.958 6.94537 0.509018 0
M  V30 1394 H 122.585 7.59854 0.229226 0
M  V30 1395 N 124.16 -0.719506 1.40217 0
M  V30 1396 C 125.408 -1.47641 1.3801 0
M  V30 1397 C 125.729 -1.94992 -0.018145 0
M  V30 1398 O 124.999 -1.70073 -0.972207 0
M  V30 1399 H 123.579 -0.547744 0.507923 0
M  V30 1400 H 126.241 -0.853187 1.75233 0
M  V30 1401 H 125.337 -2.35112 2.05253 0
M  V30 1402 N 125.638 -1.25649 -0.95132 0
M  V30 1403 C 127.054 -1.02542 -1.223 0
M  V30 1404 C 127.254 0.255715 -1.99871 0
M  V30 1405 O 126.31 0.967558 -2.33226 0
M  V30 1406 C 127.623 -2.25065 -1.99415 0
M  V30 1407 C 129.171 -2.29861 -2.12446 0
M  V30 1408 C 129.646 -3.52048 -2.92961 0
M  V30 1409 N 131.137 -3.52465 -3.00538 0
M  V30 1410 C 131.872 -4.43672 -3.63239 0
M  V30 1411 N 131.368 -5.45157 -4.27523 0
M  V30 1412 N 133.161 -4.31346 -3.60412 0
M  V30 1413 H 125.312 -2.07951 -0.432471 0
M  V30 1414 H 127.575 -0.91339 -0.253816 0
M  V30 1415 H 127.281 -3.18194 -1.49817 0
M  V30 1416 H 127.155 -2.28502 -3.00111 0
M  V30 1417 H 129.542 -1.37252 -2.61239 0
M  V30 1418 H 129.623 -2.3044 -1.11044 0
M  V30 1419 H 129.267 -4.44981 -2.44856 0
M  V30 1420 H 129.197 -3.48715 -3.94596 0
M  V30 1421 H 131.688 -2.79056 -2.54826 0
M  V30 1422 H 132.001 -6.10958 -4.73234 0
M  V30 1423 H 130.346 -5.49025 -4.26141 0
M  V30 1424 H 133.537 -3.51288 -3.09377 0
M  V30 1425 H 133.71 -5.02624 -4.0899 0
M  V30 1426 N 127.117 1.15442 -1.07289 0
M  V30 1427 C 128.528 1.67803 -0.818475 0
M  V30 1428 C 128.879 1.8489 0.656507 0
M  V30 1429 O 128.004 1.55176 1.50829 0
M  V30 1430 C 128.599 3.04805 -1.47917 0
M  V30 1431 C 127.158 3.54245 -1.27229 0
M  V30 1432 C 126.305 2.29986 -1.54925 0
M  V30 1433 H 129.256 0.996646 -1.23502 0
M  V30 1434 H 129.277 3.69702 -0.90005 0
M  V30 1435 H 128.789 2.92336 -2.55267 0
M  V30 1436 H 126.89 3.71956 -0.21899 0
M  V30 1437 H 127.003 4.35723 -1.99203 0
M  V30 1438 H 125.367 2.35496 -0.970242 0
M  V30 1439 H 126.15 2.20105 -2.63455 0
M  V30 1440 N 128.595 0.856903 1.32268 0
M  V30 1441 C 129.823 0.475439 2.01363 0
M  V30 1442 C 130.238 -0.928486 1.64392 0
M  V30 1443 O 129.595 -1.60624 0.866387 0
M  V30 1444 C 129.646 0.607545 3.56358 0
M  V30 1445 O 129.367 1.95617 3.92002 0
M  V30 1446 C 130.868 0.225382 4.42727 0
M  V30 1447 H 128.088 0.186636 0.644521 0
M  V30 1448 H 130.632 1.15446 1.68797 0
M  V30 1449 H 128.787 -0.0237719 3.87393 0
M  V30 1450 H 129.201 1.95455 4.86721 0
M  V30 1451 H 130.675 0.368813 5.50767 0
M  V30 1452 H 131.152 -0.834369 4.31202 0
M  V30 1453 H 131.758 0.831864 4.17085 0
M  V30 1454 N 130.073 -1.45103 0.615059 0
M  V30 1455 C 131.319 -2.02483 0.113347 0
M  V30 1456 C 131.652 -1.48146 -1.25564 0
M  V30 1457 O 130.927 -0.659104 -1.82992 0
M  V30 1458 C 131.21 -3.60005 0.0825278 0
M  V30 1459 C 131.063 -4.2466 1.48271 0
M  V30 1460 C 132.382 -4.35972 -0.601401 0
M  V30 1461 H 129.501 -0.735764 0.0426632 0
M  V30 1462 H 132.143 -1.72868 0.788461 0
M  V30 1463 H 130.293 -3.85367 -0.492378 0
M  V30 1464 H 131.965 -4.10458 2.10527 0
M  V30 1465 H 130.208 -3.82772 2.04127 0
M  V30 1466 H 130.879 -5.336 1.41332 0
M  V30 1467 H 133.355 -4.15947 -0.112666 0
M  V30 1468 H 132.231 -5.45697 -0.592097 0
M  V30 1469 H 132.492 -4.09391 -1.66887 0
M  V30 1470 N 131.551 -0.354651 -1.53558 0
M  V30 1471 C 132.967 -0.00315426 -1.596 0
M  V30 1472 C 133.167 1.47741 -1.37021 0
M  V30 1473 O 132.223 2.23759 -1.16996 0
M  V30 1474 C 133.536 -0.44929 -2.97325 0
M  V30 1475 C 135.084 -0.402578 -3.104 0
M  V30 1476 C 135.559 -0.824355 -4.5052 0
M  V30 1477 N 137.05 -0.778979 -4.56603 0
M  V30 1478 C 137.785 -1.07715 -5.63192 0
M  V30 1479 N 137.281 -1.44405 -6.77583 0
M  V30 1480 N 139.074 -1.00066 -5.53121 0
M  V30 1481 H 131.225 -1.31893 -1.66487 0
M  V30 1482 H 133.488 -0.538388 -0.780284 0
M  V30 1483 H 133.194 -1.48202 -3.1895 0
M  V30 1484 H 133.068 0.169772 -3.76818 0
M  V30 1485 H 135.455 0.621004 -2.88492 0
M  V30 1486 H 135.536 -1.05699 -2.32941 0
M  V30 1487 H 135.18 -1.846 -4.73165 0
M  V30 1488 H 135.11 -0.147304 -5.26394 0
M  V30 1489 H 137.601 -0.508528 -3.74463 0
M  V30 1490 H 137.914 -1.65612 -7.54846 0
M  V30 1491 H 136.259 -1.4826 -6.79002 0
M  V30 1492 H 139.45 -0.713293 -4.62633 0
M  V30 1493 H 139.623 -1.23638 -6.36096 0
M  V30 1494 N 133.029 1.57378 -0.0835403 0
M  V30 1495 C 134.275 1.94217 0.583733 0
M  V30 1496 C 134.608 0.964653 1.68547 0
M  V30 1497 O 133.883 -0.00422258 1.945 0
M  V30 1498 C 134.166 3.41253 1.14972 0
M  V30 1499 C 134.019 4.49768 0.0538277 0
M  V30 1500 C 135.338 3.89352 2.05166 0
M  V30 1501 H 132.457 0.706233 0.210724 0
M  V30 1502 H 135.099 1.89392 -0.1519 0
M  V30 1503 H 133.249 3.45496 1.77665 0
M  V30 1504 H 134.921 4.57641 -0.579851 0
M  V30 1505 H 133.164 4.29432 -0.614068 0
M  V30 1506 H 133.835 5.49817 0.490452 0
M  V30 1507 H 136.311 3.87189 1.52393 0
M  V30 1508 H 135.187 4.92822 2.41698 0
M  V30 1509 H 135.448 3.27973 2.96456 0
M  V30 1510 N 134.507 -0.190092 1.56449 0
M  V30 1511 C 135.44 -1.26375 1.90012 0
M  V30 1512 C 136.418 -1.43705 0.760765 0
M  V30 1513 O 137.602 -1.59014 1.01226 0
M  V30 1514 C 134.729 -2.62962 2.13468 0
M  V30 1515 C 133.775 -2.62474 3.36169 0
M  V30 1516 S 134.608 -2.13412 4.91137 0
M  V30 1517 C 135.764 -3.51812 5.17667 0
M  V30 1518 H 135.997 -0.977181 2.80782 0
M  V30 1519 H 133.53 -0.393814 1.49293 0
M  V30 1520 H 135.488 -3.41583 2.27664 0
M  V30 1521 H 134.149 -2.88828 1.23439 0
M  V30 1522 H 133.342 -3.62918 3.49723 0
M  V30 1523 H 132.944 -1.91937 3.20992 0
M  V30 1524 H 135.236 -4.47706 5.08494 0
M  V30 1525 H 136.179 -3.43148 6.19399 0
M  V30 1526 H 136.587 -3.46956 4.45288 0
M  V30 1527 N 135.985 -1.50799 -0.457987 0
M  V30 1528 C 137.233 -1.62121 -1.2067 0
M  V30 1529 C 137.554 -0.329793 -1.92191 0
M  V30 1530 O 136.824 0.653409 -1.84682 0
M  V30 1531 H 135.404 -0.597441 -0.448411 0
M  V30 1532 H 138.066 -1.87637 -0.527096 0
M  V30 1533 H 137.162 -2.43882 -1.94751 0
M  V30 1534 N 137.463 0.71206 -1.40597 0
M  V30 1535 C 138.426 1.80785 -1.40888 0
M  V30 1536 C 139.426 1.57937 -0.302103 0
M  V30 1537 O 140.616 1.64913 -0.561182 0
M  V30 1538 C 137.748 3.18927 -1.20409 0
M  V30 1539 H 138.941 1.81924 -2.38419 0
M  V30 1540 H 136.494 0.91805 -1.26497 0
M  V30 1541 H 137.229 3.23436 -0.236522 0
M  V30 1542 H 137.014 3.36911 -2.00582 0
M  V30 1543 H 138.504 3.98949 -1.23408 0
M  V30 1544 N 138.941 1.26152 0.944643 0
M  V30 1545 C 140.218 1.02247 1.66748 0
M  V30 1546 C 140.598 -0.448202 2.06287 0
M  V30 1547 O 139.946 -1.42779 1.78399 0
M  V30 1548 C 140.156 1.96788 2.88228 0
M  V30 1549 C 141.504 2.25201 3.59958 0
M  V30 1550 O 142.528 1.94626 2.98327 0
M  V30 1551 O 141.387 2.77242 4.70956 0
M  V30 1552 H 138.481 0.388517 0.730057 0
M  V30 1553 H 141.027 1.37348 0.99668 0
M  V30 1554 H 139.799 2.96047 2.55875 0
M  V30 1555 H 139.422 1.62145 3.63035 0
M  V30 1556 N 140.419 -1.14872 1.07899 0
M  V30 1557 C 141.367 -2.21857 0.698727 0
M  V30 1558 C 142.361 -1.66845 -0.293086 0
M  V30 1559 O 143.567 -1.79321 -0.156204 0
M  V30 1560 H 139.942 -0.722691 0.207899 0
M  V30 1561 H 141.913 -2.51205 1.61054 0
M  V30 1562 C 140.662 -3.47498 0.11858 0
M  V30 1563 H 139.985 -3.90154 0.872914 0
M  V30 1564 H 141.425 -4.23858 -0.109759 0
M  V30 1565 C 139.884 -3.16947 -1.1422 0
M  V30 1566 O 140.414 -3.3426 -2.22785 0
M  V30 1567 N 138.62 -2.70946 -1.05055 0
M  V30 1568 H 138.167 -2.57058 -0.167038 0
M  V30 1569 H 138.125 -2.50879 -1.89491 0
M  V30 1570 N 141.898 -0.863906 -1.31812 0
M  V30 1571 C 143.144 -0.472535 -1.97218 0
M  V30 1572 C 143.477 0.971394 -1.68159 0
M  V30 1573 O 142.752 1.68309 -0.974798 0
M  V30 1574 C 143.035 -0.723054 -3.52766 0
M  V30 1575 C 142.888 -2.21608 -3.91421 0
M  V30 1576 C 144.207 -0.185522 -4.39709 0
M  V30 1577 H 141.326 -0.173158 -0.71637 0
M  V30 1578 H 143.968 -1.08403 -1.56041 0
M  V30 1579 H 142.118 -0.202577 -3.87971 0
M  V30 1580 H 143.79 -2.80334 -3.66347 0
M  V30 1581 H 142.033 -2.691 -3.40246 0
M  V30 1582 H 142.704 -2.34203 -4.99853 0
M  V30 1583 H 145.18 -0.630726 -4.11292 0
M  V30 1584 H 144.056 -0.390306 -5.47511 0
M  V30 1585 H 144.317 0.912229 -4.32586 0
M  V30 1586 N 143.376 1.44774 -0.622745 0
M  V30 1587 C 144.792 1.56986 -0.287652 0
M  V30 1588 C 144.992 1.61167 1.20944 0
M  V30 1589 O 144.048 1.55015 1.99315 0
M  V30 1590 C 145.361 2.84551 -0.972188 0
M  V30 1591 C 146.909 2.9825 -0.949536 0
M  V30 1592 C 147.384 4.28605 -1.61437 0
M  V30 1593 N 148.875 4.35399 -1.58057 0
M  V30 1594 C 149.61 5.34964 -2.064 0
M  V30 1595 N 149.106 6.40981 -2.62897 0
M  V30 1596 N 150.899 5.26419 -1.97078 0
M  V30 1597 H 143.05 1.40304 -1.59463 0
M  V30 1598 H 145.313 0.671794 -0.668878 0
M  V30 1599 H 145.019 2.87417 -2.02693 0
M  V30 1600 H 144.893 3.73807 -0.504771 0
M  V30 1601 H 147.28 2.94941 0.0967067 0
M  V30 1602 H 147.361 2.10364 -1.45536 0
M  V30 1603 H 147.005 4.32672 -2.66002 0
M  V30 1604 H 146.935 5.15334 -1.08344 0
M  V30 1605 H 149.426 3.59397 -1.16801 0
M  V30 1606 H 149.739 7.13225 -2.97539 0
M  V30 1607 H 148.084 6.4169 -2.66943 0
M  V30 1608 H 151.275 4.42504 -1.52669 0
M  V30 1609 H 151.448 6.03861 -2.35066 0
M  V30 1610 N 144.854 0.36279 1.53368 0
M  V30 1611 C 146.27 0.0116182 1.59596 0
M  V30 1612 C 146.47 -1.47012 1.37803 0
M  V30 1613 O 145.526 -2.23136 1.18181 0
M  V30 1614 C 146.839 0.465052 2.97082 0
M  V30 1615 C 148.387 0.419033 3.10182 0
M  V30 1616 C 148.862 0.848235 4.50077 0
M  V30 1617 N 150.353 0.803183 4.56183 0
M  V30 1618 C 151.088 1.107 5.62613 0
M  V30 1619 N 150.584 1.47996 6.76808 0
M  V30 1620 N 152.377 1.02998 5.52583 0
M  V30 1621 H 144.528 1.32775 1.65785 0
M  V30 1622 H 146.791 0.542518 0.777417 0
M  V30 1623 H 146.497 1.49892 3.18159 0
M  V30 1624 H 146.371 -0.149786 3.76902 0
M  V30 1625 H 148.758 -0.605696 2.88817 0
M  V30 1626 H 148.839 1.06933 2.32377 0
M  V30 1627 H 148.483 1.87107 4.7218 0
M  V30 1628 H 148.413 0.175218 5.26308 0
M  V30 1629 H 150.904 0.52838 3.74188 0
M  V30 1630 H 151.217 1.69613 7.53957 0
M  V30 1631 H 149.562 1.51859 6.78206 0
M  V30 1632 H 152.753 0.737817 4.62249 0
M  V30 1633 H 152.926 1.2701 6.35431 0
M  V30 1634 N 146.332 -1.57332 0.0918853 0
M  V30 1635 C 147.581 -1.93412 -0.572249 0
M  V30 1636 C 147.894 -0.975515 -1.69538 0
M  V30 1637 O 149.1 -1.22991 -2.42045 0
M  V30 1638 C 147.556 -3.43648 -1.0693 0
M  V30 1639 C 147.164 -4.47994 0.0239049 0
M  V30 1640 C 148.908 -3.88695 -1.70635 0
M  V30 1641 C 146.815 -5.89381 -0.488319 0
M  V30 1642 H 145.745 -0.721939 -0.217532 0
M  V30 1643 H 148.396 -1.82735 0.167369 0
M  V30 1644 H 146.778 -3.49466 -1.8625 0
M  V30 1645 H 147.952 -4.53815 0.799277 0
M  V30 1646 H 146.267 -4.12536 0.565946 0
M  V30 1647 H 148.864 -4.91725 -2.10025 0
M  V30 1648 H 149.207 -3.27166 -2.57426 0
M  V30 1649 H 149.74 -3.85564 -0.979023 0
M  V30 1650 H 146.479 -6.54602 0.342906 0
M  V30 1651 H 145.999 -5.87037 -1.23077 0
M  V30 1652 H 147.678 -6.39863 -0.958317 0
M  V30 1653 N 147.81 0.181792 -1.56548 0
M  V30 1654 C 148.74 1.22765 -1.98623 0
M  V30 1655 C 149.721 1.46747 -0.860189 0
M  V30 1656 O 150.906 1.58259 -1.12551 0
M  V30 1657 C 148.036 2.56894 -2.33715 0
M  V30 1658 C 146.99 2.475 -3.49182 0
M  V30 1659 C 146.316 3.86023 -3.69986 0
M  V30 1660 C 147.616 1.98866 -4.82959 0
M  V30 1661 H 149.31 0.877942 -2.86239 0
M  V30 1662 H 146.856 0.42088 -1.37712 0
M  V30 1663 H 148.809 3.30253 -2.61746 0
M  V30 1664 H 147.533 2.93632 -1.42997 0
M  V30 1665 H 146.192 1.76596 -3.21262 0
M  V30 1666 H 145.84 4.20136 -2.76576 0
M  V30 1667 H 145.54 3.80609 -4.47672 0
M  V30 1668 H 147.064 4.60984 -4.00407 0
M  V30 1669 H 148.478 2.61992 -5.09934 0
M  V30 1670 H 146.875 2.04424 -5.64208 0
M  V30 1671 H 147.945 0.942465 -4.75653 0
M  V30 1672 N 149.288 1.51039 0.449983 0
M  V30 1673 C 150.218 1.74379 1.55288 0
M  V30 1674 C 151.199 0.593236 1.5942 0
M  V30 1675 O 152.384 0.834625 1.7535 0
M  V30 1676 C 149.514 1.85728 2.93466 0
M  V30 1677 C 148.468 3.01078 3.04197 0
M  V30 1678 C 147.794 2.97595 4.44231 0
M  V30 1679 C 149.094 4.41254 2.7945 0
M  V30 1680 H 150.788 2.66725 1.36008 0
M  V30 1681 H 148.334 1.2835 0.652864 0
M  V30 1682 H 150.287 2.0064 3.70569 0
M  V30 1683 H 149.011 0.900207 3.13949 0
M  V30 1684 H 147.67 2.85851 2.29531 0
M  V30 1685 H 147.318 1.99691 4.61663 0
M  V30 1686 H 147.018 3.75046 4.52343 0
M  V30 1687 H 148.542 3.14583 5.23326 0
M  V30 1688 H 149.956 4.56897 3.46292 0
M  V30 1689 H 148.353 5.20315 2.98985 0
M  V30 1690 H 149.423 4.52164 1.75144 0
M  V30 1691 N 150.766 -0.704594 1.40972 0
M  V30 1692 C 152.014 -1.46169 1.39568 0
M  V30 1693 C 152.335 -1.95 0.00253745 0
M  V30 1694 O 151.605 -1.71095 -0.954114 0
M  V30 1695 H 150.185 -0.542326 0.513704 0
M  V30 1696 H 152.847 -0.834553 1.76128 0
M  V30 1697 H 151.943 -2.32922 2.07735 0
M  V30 1698 N 152.244 -1.26651 -0.937939 0
M  V30 1699 C 153.154 -1.10276 -2.07066 0
M  V30 1700 C 154.17 -0.0354197 -1.73964 0
M  V30 1701 O 155.346 -0.239816 -1.99967 0
M  V30 1702 C 152.411 -0.740887 -3.38691 0
M  V30 1703 C 151.472 -1.88799 -3.85556 0
M  V30 1704 C 150.705 -1.54329 -5.10899 0
M  V30 1705 O 150.928 -0.446494 -5.6865 0
M  V30 1706 O 149.862 -2.37911 -5.52885 0
M  V30 1707 H 153.688 -2.05309 -2.23789 0
M  V30 1708 H 151.273 -1.05743 -1.0554 0
M  V30 1709 H 153.155 -0.55195 -4.1777 0
M  V30 1710 H 151.83 0.180022 -3.23199 0
M  V30 1711 H 150.737 -2.13191 -3.07409 0
M  V30 1712 H 152.07 -2.78874 -4.05574 0
M  V30 1713 N 153.722 1.14298 -1.08507 0
M  V30 1714 C 154.672 2.17449 -0.685569 0
M  V30 1715 C 155.656 1.58167 0.295315 0
M  V30 1716 O 156.848 1.76675 0.107172 0
M  V30 1717 C 153.977 3.43161 -0.0975318 0
M  V30 1718 C 153.063 4.09471 -1.10426 0
M  V30 1719 N 153.454 4.51089 -2.28806 0
M  V30 1720 C 151.752 4.35976 -0.940258 0
M  V30 1721 C 152.453 5.02654 -2.9277 0
M  V30 1722 N 151.429 4.96927 -2.20374 0
M  V30 1723 H 155.231 2.47369 -1.587 0
M  V30 1724 H 152.745 1.30992 -0.959936 0
M  V30 1725 H 154.742 4.16388 0.20664 0
M  V30 1726 H 153.402 3.14719 0.798872 0
M  V30 1727 H 154.413 4.44097 -2.66455 0
M  V30 1728 H 151.09 4.17386 -0.0977441 0
M  V30 1729 H 152.48 5.44723 -3.93352 0
M  V30 1730 N 155.201 0.870884 1.31352 0
M  V30 1731 C 156.617 0.562932 1.49343 0
M  V30 1732 C 156.817 -0.902725 1.80148 0
M  V30 1733 O 155.873 -1.68484 1.88067 0
M  V30 1734 C 157.186 1.46393 2.62659 0
M  V30 1735 C 158.734 1.46607 2.76542 0
M  V30 1736 C 159.209 2.35266 3.92955 0
M  V30 1737 N 160.7 2.33151 4.00243 0
M  V30 1738 C 161.435 2.98471 4.89594 0
M  V30 1739 N 160.931 3.72964 5.8384 0
M  V30 1740 N 162.724 2.87775 4.82848 0
M  V30 1741 H 154.875 1.81923 1.09626 0
M  V30 1742 H 157.138 0.777934 0.541777 0
M  V30 1743 H 156.844 2.50689 2.46674 0
M  V30 1744 H 156.718 1.16314 3.58819 0
M  V30 1745 H 159.105 0.43069 2.9194 0
M  V30 1746 H 159.186 1.8071 1.81046 0
M  V30 1747 H 158.83 3.38881 3.78315 0
M  V30 1748 H 158.76 1.98487 4.87761 0
M  V30 1749 H 161.251 1.79006 3.32814 0
M  V30 1750 H 161.564 4.19932 6.4875 0
M  V30 1751 H 159.909 3.77073 5.83816 0
M  V30 1752 H 163.1 2.29116 4.08195 0
M  V30 1753 H 163.273 3.38961 5.52277 0
M  V30 1754 N 156.679 -1.44442 0.630414 0
M  V30 1755 C 157.609 -2.33418 -0.0618083 0
M  V30 1756 C 158.59 -1.48165 -0.835541 0
M  V30 1757 O 159.775 -1.76886 -0.801564 0
M  V30 1758 C 156.905 -3.31222 -1.04449 0
M  V30 1759 C 155.859 -4.26288 -0.382436 0
M  V30 1760 C 155.185 -5.13954 -1.47497 0
M  V30 1761 C 156.485 -5.1744 0.710865 0
M  V30 1762 H 158.179 -2.91548 0.681184 0
M  V30 1763 H 155.725 -1.40191 0.329026 0
M  V30 1764 H 157.678 -3.92351 -1.53748 0
M  V30 1765 H 156.402 -2.71299 -1.81836 0
M  V30 1766 H 155.061 -3.6649 0.0899054 0
M  V30 1767 H 154.709 -4.50385 -2.2397 0
M  V30 1768 H 154.409 -5.7837 -1.03737 0
M  V30 1769 H 155.933 -5.77955 -1.96979 0
M  V30 1770 H 157.347 -5.72509 0.300996 0
M  V30 1771 H 155.744 -5.90455 1.07156 0
M  V30 1772 H 156.814 -4.58496 1.57829 0
M  V30 1773 N 158.157 -0.370918 -1.53173 0
M  V30 1774 C 159.403 0.217423 -2.01631 0
M  V30 1775 C 159.736 1.47983 -1.25756 0
M  V30 1776 O 159.011 1.91274 -0.352764 0
M  V30 1777 C 159.294 0.503982 -3.56556 0
M  V30 1778 C 159.147 -0.77243 -4.43118 0
M  V30 1779 C 160.466 1.30234 -4.20389 0
M  V30 1780 H 157.585 0.0775486 -0.732909 0
M  V30 1781 H 160.227 -0.496863 -1.83388 0
M  V30 1782 H 158.377 1.11248 -3.72231 0
M  V30 1783 H 160.049 -1.4098 -4.39229 0
M  V30 1784 H 158.292 -1.39167 -4.10871 0
M  V30 1785 H 158.963 -0.526815 -5.4948 0
M  V30 1786 H 161.439 0.787546 -4.08579 0
M  V30 1787 H 160.315 1.47158 -5.28806 0
M  V30 1788 H 160.576 2.31237 -3.76805 0
M  V30 1789 N 159.635 1.57281 -0.100228 0
M  V30 1790 C 160.86 1.99302 0.573881 0
M  V30 1791 C 161.285 0.979059 1.60611 0
M  V30 1792 O 160.643 -0.0517803 1.81226 0
M  V30 1793 C 160.691 3.40274 1.19358 0
M  V30 1794 O 159.795 3.41676 2.30935 0
M  V30 1795 H 159.136 0.647944 0.145138 0
M  V30 1796 H 161.666 2.03779 -0.183156 0
M  V30 1797 H 161.676 3.78078 1.53365 0
M  V30 1798 H 160.351 4.13594 0.437385 0
M  V30 1799 H 158.928 3.15672 1.98509 0
M  V30 1800 N 161.113 -0.173488 1.56642 0
M  V30 1801 C 162.359 -0.891784 1.8214 0
M  V30 1802 C 162.692 -1.8199 0.677736 0
M  V30 1803 O 161.967 -1.91842 -0.320446 0
M  V30 1804 C 162.25 -1.68933 3.18015 0
M  V30 1805 C 162.103 -0.784487 4.42906 0
M  V30 1806 C 163.422 -2.65748 3.50808 0
M  V30 1807 H 160.541 -0.322761 0.662567 0
M  V30 1808 H 163.183 -0.158095 1.89341 0
M  V30 1809 H 161.333 -2.31482 3.12007 0
M  V30 1810 H 163.005 -0.172046 4.60979 0
M  V30 1811 H 161.248 -0.0924117 4.33702 0
M  V30 1812 H 161.919 -1.37799 5.34524 0
M  V30 1813 H 164.395 -2.13327 3.57255 0
M  V30 1814 H 163.271 -3.18619 4.4696 0
M  V30 1815 H 163.532 -3.45842 2.75401 0
M  V30 1816 N 162.591 -1.51276 -0.441967 0
M  V30 1817 C 163.541 -1.6864 -1.53442 0
M  V30 1818 C 164.525 -0.540444 -1.51552 0
M  V30 1819 O 165.717 -0.796157 -1.58083 0
M  V30 1820 C 162.846 -1.8106 -2.91672 0
M  V30 1821 C 161.932 -3.01424 -2.98336 0
M  V30 1822 N 162.323 -4.2467 -2.74752 0
M  V30 1823 C 160.621 -3.00584 -3.29493 0
M  V30 1824 C 161.322 -5.05891 -2.87139 0
M  V30 1825 N 160.298 -4.40442 -3.18609 0
M  V30 1826 H 164.1 -2.61598 -1.33954 0
M  V30 1827 H 161.614 -1.4886 -0.6492 0
M  V30 1828 H 163.611 -1.91609 -3.70259 0
M  V30 1829 H 162.271 -0.892795 -3.12185 0
M  V30 1830 H 163.282 -4.53691 -2.49769 0
M  V30 1831 H 159.959 -2.18417 -3.55809 0
M  V30 1832 H 161.349 -6.13983 -2.72899 0
M  V30 1833 N 164.069 0.697108 -1.41344 0
M  V30 1834 C 165.315 1.45796 -1.41828 0
M  V30 1835 C 165.67 1.92382 -0.0261743 0
M  V30 1836 O 164.963 1.66522 0.947688 0
M  V30 1837 C 165.157 2.68553 -2.35826 0
M  V30 1838 C 164.986 2.33975 -3.84039 0
M  V30 1839 C 163.756 2.24414 -4.52732 0
M  V30 1840 C 165.954 1.97048 -4.75054 0
M  V30 1841 N 163.936 1.82705 -5.86082 0
M  V30 1842 C 165.307 1.66086 -5.9734 0
M  V30 1843 C 167.362 1.83845 -4.62715 0
M  V30 1844 C 166.065 1.23246 -7.08663 0
M  V30 1845 C 168.091 1.4241 -5.73998 0
M  V30 1846 C 167.453 1.12357 -6.95381 0
M  V30 1847 H 163.552 0.530859 -0.574206 0
M  V30 1848 H 166.136 0.806674 -1.77203 0
M  V30 1849 H 164.307 3.31404 -2.02549 0
M  V30 1850 H 166.039 3.35015 -2.2704 0
M  V30 1851 H 162.794 2.4276 -4.0665 0
M  V30 1852 H 163.218 1.64337 -6.56751 0
M  V30 1853 H 167.86 2.05734 -3.69369 0
M  V30 1854 H 165.578 1.00102 -8.01876 0
M  V30 1855 H 169.164 1.32746 -5.66454 0
M  V30 1856 H 168.044 0.807795 -7.80028 0
M  V30 1857 N 165.547 1.27147 0.931209 0
M  V30 1858 C 166.958 1.12044 1.49342 0
M  V30 1859 C 167.309 -0.295795 1.93957 0
M  V30 1860 O 166.434 -1.18835 1.80852 0
M  V30 1861 C 167.029 2.02781 2.71414 0
M  V30 1862 C 165.588 1.91794 3.2387 0
M  V30 1863 C 164.735 1.95543 1.96617 0
M  V30 1864 H 167.686 1.40091 0.745672 0
M  V30 1865 H 167.707 1.58156 3.46074 0
M  V30 1866 H 167.219 3.05848 2.38911 0
M  V30 1867 H 165.32 0.916992 3.6114 0
M  V30 1868 H 165.433 2.77852 3.90302 0
M  V30 1869 H 163.797 1.39722 2.12955 0
M  V30 1870 H 164.58 3.00259 1.66432 0
M  V30 1871 N 167.025 -1.13721 1.09112 0
M  V30 1872 C 167.988 -2.17222 0.731241 0
M  V30 1873 C 168.988 -1.59035 -0.237566 0
M  V30 1874 O 170.178 -1.74192 -0.0161704 0
M  V30 1875 C 167.31 -3.40804 0.0808443 0
M  V30 1876 H 168.503 -2.50573 1.64783 0
M  V30 1877 H 166.056 -1.28493 0.889897 0
M  V30 1878 H 166.791 -3.1304 -0.847127 0
M  V30 1879 H 166.576 -3.84306 0.777896 0
M  V30 1880 H 168.066 -4.1731 -0.155657 0
M  V30 1881 N 168.503 -0.877838 -1.30888 0
M  V30 1882 C 169.728 -0.506629 -2.01117 0
M  V30 1883 C 170.153 0.895564 -1.65412 0
M  V30 1884 O 169.511 1.5923 -0.866922 0
M  V30 1885 C 169.559 -0.680223 -3.54126 0
M  V30 1886 O 168.663 0.277033 -4.11468 0
M  V30 1887 H 168.004 -0.200518 -0.633 0
M  V30 1888 H 170.534 -1.18342 -1.66902 0
M  V30 1889 H 170.544 -0.5765 -4.03907 0
M  V30 1890 H 169.219 -1.70261 -3.79452 0
M  V30 1891 H 167.796 0.127606 -3.72682 0
M  V30 1892 N 169.982 1.44106 -0.638065 0
M  V30 1893 C 171.228 2.02277 -0.145546 0
M  V30 1894 C 171.561 1.50125 1.23191 0
M  V30 1895 O 170.836 0.688133 1.8192 0
M  V30 1896 C 171.119 3.59829 -0.139791 0
M  V30 1897 C 170.972 4.22247 -1.55008 0
M  V30 1898 C 172.291 4.36873 0.531966 0
M  V30 1899 H 169.41 0.734992 -0.0543632 0
M  V30 1900 H 172.052 1.71592 -0.815863 0
M  V30 1901 H 170.202 3.86102 0.431007 0
M  V30 1902 H 171.874 4.07057 -2.1703 0
M  V30 1903 H 170.117 3.79476 -2.10191 0
M  V30 1904 H 170.788 5.31284 -1.49804 0
M  V30 1905 H 173.264 4.16074 0.0464781 0
M  V30 1906 H 172.14 5.4657 0.505206 0
M  V30 1907 H 172.401 4.11995 1.60352 0
M  V30 1908 N 171.46 0.379036 1.52974 0
M  V30 1909 C 172.876 0.0285448 1.59574 0
M  V30 1910 C 173.076 -1.45542 1.39355 0
M  V30 1911 O 172.132 -2.2187 1.20541 0
M  V30 1912 C 173.445 0.496535 2.96572 0
M  V30 1913 C 174.993 0.451909 3.0972 0
M  V30 1914 C 175.468 0.895924 4.49152 0
M  V30 1915 N 176.959 0.851522 4.55306 0
M  V30 1916 C 177.694 1.16661 5.61407 0
M  V30 1917 N 177.19 1.55166 6.752 0
M  V30 1918 N 178.983 1.08853 5.51459 0
M  V30 1919 H 171.134 1.34525 1.64367 0
M  V30 1920 H 173.397 0.550733 0.771619 0
M  V30 1921 H 173.103 1.53258 3.16552 0
M  V30 1922 H 172.977 -0.109802 3.7704 0
M  V30 1923 H 175.364 -0.575029 2.89443 0
M  V30 1924 H 175.445 1.09392 2.3123 0
M  V30 1925 H 175.089 1.92104 4.70168 0
M  V30 1926 H 175.019 0.23103 5.26093 0
M  V30 1927 H 177.51 0.568038 3.73606 0
M  V30 1928 H 177.823 1.776 7.52116 0
M  V30 1929 H 176.168 1.59044 6.76557 0
M  V30 1930 H 179.359 0.786803 4.6144 0
M  V30 1931 H 179.532 1.33742 6.34048 0
M  V30 1932 N 172.938 -1.57226 0.108567 0
M  V30 1933 C 174.166 -1.99179 -0.559954 0
M  V30 1934 C 174.581 -0.988022 -1.60884 0
M  V30 1935 O 173.938 0.0205512 -1.82488 0
M  V30 1936 C 173.989 -3.41159 -1.19552 0
M  V30 1937 O 173.71 -4.37694 -0.188577 0
M  V30 1938 C 175.211 -3.98188 -1.94837 0
M  V30 1939 H 172.431 -0.654228 -0.149088 0
M  V30 1940 H 174.975 -2.03598 0.19183 0
M  V30 1941 H 173.13 -3.37711 -1.89815 0
M  V30 1942 H 173.544 -5.20469 -0.649014 0
M  V30 1943 H 175.018 -4.99644 -2.34648 0
M  V30 1944 H 175.495 -3.3675 -2.81951 0
M  V30 1945 H 176.101 -4.0515 -1.2936 0
M  V30 1946 N 174.416 0.165178 -1.56732 0
M  V30 1947 C 175.665 0.879143 -1.81532 0
M  V30 1948 C 175.978 1.83144 -0.686842 0
M  V30 1949 O 177.184 2.58823 -0.819944 0
M  V30 1950 C 175.64 1.61388 -3.21686 0
M  V30 1951 C 175.248 0.704904 -4.4242 0
M  V30 1952 C 176.992 2.3157 -3.55774 0
M  V30 1953 C 174.899 1.44022 -5.73595 0
M  V30 1954 H 173.829 0.332033 -0.676957 0
M  V30 1955 H 176.48 0.132008 -1.83025 0
M  V30 1956 H 174.862 2.40599 -3.14529 0
M  V30 1957 H 176.036 -0.0506815 -4.60772 0
M  V30 1958 H 174.351 0.112419 -4.16248 0
M  V30 1959 H 176.948 2.8719 -4.51028 0
M  V30 1960 H 177.291 3.07201 -2.8095 0
M  V30 1961 H 177.824 1.59297 -3.64513 0
M  V30 1962 H 174.563 0.72612 -6.51466 0
M  V30 1963 H 174.083 2.16898 -5.5921 0
M  V30 1964 H 175.762 1.98606 -6.15764 0
M  V30 1965 N 175.894 1.51508 0.433938 0
M  V30 1966 C 176.824 1.76016 1.53429 0
M  V30 1967 C 177.805 0.610112 1.58782 0
M  V30 1968 O 178.99 0.853177 1.74455 0
M  V30 1969 C 176.12 1.88831 2.9148 0
M  V30 1970 C 175.074 3.04288 3.00987 0
M  V30 1971 C 174.4 3.0229 4.4105 0
M  V30 1972 C 175.7 4.44193 2.74754 0
M  V30 1973 H 177.394 2.68152 1.33171 0
M  V30 1974 H 174.94 1.29035 0.639214 0
M  V30 1975 H 176.893 2.04559 3.6842 0
M  V30 1976 H 175.617 0.933455 3.12976 0
M  V30 1977 H 174.276 2.8827 2.26486 0
M  V30 1978 H 173.924 2.04576 4.59519 0
M  V30 1979 H 173.624 3.79822 4.4834 0
M  V30 1980 H 175.148 3.20116 5.1996 0
M  V30 1981 H 176.562 4.60544 3.41426 0
M  V30 1982 H 174.959 5.23457 2.9345 0
M  V30 1983 H 176.029 4.53996 1.70339 0
M  V30 1984 N 177.372 -0.689602 1.41712 0
M  V30 1985 C 178.62 -1.4468 1.4111 0
M  V30 1986 C 178.941 -1.94986 0.0232196 0
M  V30 1987 O 178.211 -1.72097 -0.935913 0
M  V30 1988 H 176.791 -0.536847 0.519427 0
M  V30 1989 H 179.453 -0.815825 1.77004 0
M  V30 1990 H 178.549 -2.30706 2.10193 0
M  V30 1991 N 178.85 -1.27639 -0.924453 0
M  V30 1992 C 180.075 -1.17101 -1.71179 0
M  V30 1993 C 180.5 0.268134 -1.86179 0
M  V30 1994 O 179.858 1.19415 -1.36418 0
M  V30 1995 C 179.906 -1.86313 -3.08739 0
M  V30 1996 O 179.01 -1.16331 -3.95652 0
M  V30 1997 H 178.351 -0.407091 -0.524569 0
M  V30 1998 H 180.881 -1.68767 -1.15666 0
M  V30 1999 H 180.891 -1.938 -3.59034 0
M  V30 2000 H 179.566 -2.91001 -2.97138 0
M  V30 2001 H 178.143 -1.16935 -3.54091 0
M  V30 2002 N 180.328 1.1314 -1.09713 0
M  V30 2003 C 181.576 1.84119 -0.833338 0
M  V30 2004 C 181.897 1.84097 0.642904 0
M  V30 2005 O 181.167 1.29881 1.46655 0
M  V30 2006 H 179.747 0.681766 -0.305293 0
M  V30 2007 H 182.409 1.37038 -1.38588 0
M  V30 2008 H 181.505 2.88543 -1.18951 0
M  V30 2009 N 181.806 0.884767 1.30421 0
M  V30 2010 C 183.046 0.509806 1.9794 0
M  V30 2011 C 183.41 -0.923736 1.68319 0
M  V30 2012 O 184.611 -1.40481 2.29169 0
M  V30 2013 C 182.882 0.776732 3.48858 0
M  V30 2014 S 184.441 0.503843 4.35898 0
M  V30 2015 H 181.259 0.189699 0.685227 0
M  V30 2016 H 183.861 1.14399 1.58535 0
M  V30 2017 H 182.565 1.81857 3.67908 0
M  V30 2018 H 182.096 0.1301 3.93185 0
M  V30 2019 H 184.111 -0.657625 4.91823 0
M  V30 2020 N 183.284 -1.43765 0.645699 0
M  V30 2021 C 184.214 -2.33471 -0.0370477 0
M  V30 2022 C 185.195 -1.49042 -0.819779 0
M  V30 2023 O 186.38 -1.77726 -0.782758 0
M  V30 2024 C 183.51 -3.32311 -1.0093 0
M  V30 2025 C 182.464 -4.2667 -0.337201 0
M  V30 2026 C 181.79 -5.1549 -1.42037 0
M  V30 2027 C 183.09 -5.16657 0.765706 0
M  V30 2028 H 184.784 -2.90809 0.712069 0
M  V30 2029 H 182.33 -1.39834 0.343876 0
M  V30 2030 H 184.283 -3.9396 -1.49578 0
M  V30 2031 H 183.007 -2.73213 -1.78948 0
M  V30 2032 H 181.666 -3.66374 0.128771 0
M  V30 2033 H 181.314 -4.52735 -2.1918 0
M  V30 2034 H 181.014 -5.79438 -0.975966 0
M  V30 2035 H 182.538 -5.80012 -1.90838 0
M  V30 2036 H 183.952 -5.72158 0.361702 0
M  V30 2037 H 182.349 -5.89286 1.13413 0
M  V30 2038 H 183.419 -4.56796 1.62683 0
M  V30 2039 N 184.763 -0.387143 -1.52771 0
M  V30 2040 C 185.988 0.198407 -2.06449 0
M  V30 2041 C 186.413 1.39918 -1.25716 0
M  V30 2042 O 185.771 1.79099 -0.281657 0
M  V30 2043 C 185.819 0.548893 -3.56398 0
M  V30 2044 O 184.923 1.64315 -3.78252 0
M  V30 2045 H 184.264 0.0237731 -0.663574 0
M  V30 2046 H 186.794 -0.553989 -1.96957 0
M  V30 2047 H 186.804 0.813812 -3.99801 0
M  V30 2048 H 185.479 -0.329005 -4.14597 0
M  V30 2049 H 184.056 1.37211 -3.46738 0
M  V30 2050 N 186.241 1.57166 -0.116904 0
M  V30 2051 C 187.189 2.16457 0.851418 0
M  V30 2052 C 188.183 1.11323 1.27686 0
M  V30 2053 O 189.389 1.2963 1.24884 0
M  V30 2054 H 185.764 0.69271 0.292672 0
M  V30 2055 H 187.735 2.96605 0.32685 0
M  V30 2056 C 186.484 2.77689 2.09246 0
M  V30 2057 H 185.807 3.58285 1.77402 0
M  V30 2058 H 187.247 3.22716 2.7501 0
M  V30 2059 C 185.706 1.74667 2.88085 0
M  V30 2060 O 186.236 1.19877 3.83396 0
M  V30 2061 N 184.442 1.44656 2.52038 0
M  V30 2062 H 183.989 1.89402 1.74599 0
M  V30 2063 H 183.947 0.759675 3.05084 0
M  V30 2064 N 187.719 -0.156864 1.56817 0
M  V30 2065 C 188.649 -1.19589 2.00551 0
M  V30 2066 C 189.63 -1.4536 0.883426 0
M  V30 2067 O 190.815 -1.56449 1.15054 0
M  V30 2068 C 187.945 -2.53143 2.37773 0
M  V30 2069 C 186.899 -2.41913 3.53075 0
M  V30 2070 C 186.225 -3.80088 3.76081 0
M  V30 2071 C 187.525 -1.91157 4.86062 0
M  V30 2072 H 189.219 -0.832293 2.87599 0
M  V30 2073 H 186.765 -0.398918 1.38364 0
M  V30 2074 H 188.718 -3.26047 2.66967 0
M  V30 2075 H 187.442 -2.91319 1.4765 0
M  V30 2076 H 186.101 -1.71462 3.24031 0
M  V30 2077 H 185.749 -4.15683 2.83225 0
M  V30 2078 H 185.449 -3.73439 4.53671 0
M  V30 2079 H 186.973 -4.54556 4.0769 0
M  V30 2080 H 188.387 -2.53846 5.14038 0
M  V30 2081 H 186.784 -1.95422 5.67389 0
M  V30 2082 H 187.854 -0.866673 4.77092 0
M  V30 2083 N 189.197 -1.51736 -0.425897 0
M  V30 2084 C 190.147 -1.70258 -1.51645 0
M  V30 2085 C 191.131 -0.556488 -1.5097 0
M  V30 2086 O 192.323 -0.812879 -1.5723 0
M  V30 2087 C 189.452 -1.84143 -2.89735 0
M  V30 2088 C 188.538 -3.04572 -2.95122 0
M  V30 2089 N 188.929 -4.2756 -2.70233 0
M  V30 2090 C 187.227 -3.04061 -3.26286 0
M  V30 2091 C 187.928 -5.08908 -2.81757 0
M  V30 2092 N 186.904 -4.43797 -3.13919 0
M  V30 2093 H 190.706 -2.63004 -1.31172 0
M  V30 2094 H 188.22 -1.4954 -0.633375 0
M  V30 2095 H 190.217 -1.95525 -3.68206 0
M  V30 2096 H 188.877 -0.925857 -3.1122 0
M  V30 2097 H 189.888 -4.56315 -2.44943 0
M  V30 2098 H 186.565 -2.22179 -3.53473 0
M  V30 2099 H 187.955 -6.16843 -2.66372 0
M  V30 2100 N 190.675 0.682077 -1.42076 0
M  V30 2101 C 191.952 1.43755 -1.32642 0
M  V30 2102 C 192.332 2.11063 0.0396611 0
M  V30 2103 O 191.68 2.02701 1.05474 0
M  V30 2104 C 191.89 2.44596 -2.48946 0
M  V30 2105 C 193.238 3.09454 -2.9073 0
M  V30 2106 O 194.262 2.54922 -2.48783 0
M  V30 2107 O 193.121 4.08253 -3.63307 0
M  V30 2108 H 190.215 0.640857 -0.522715 0
M  V30 2109 H 192.761 0.711415 -1.54068 0
M  V30 2110 H 191.533 1.93609 -3.40046 0
M  V30 2111 H 191.156 3.24701 -2.29467 0
M  V30 2112 N 192.153 1.28127 0.917671 0
M  V30 2113 C 193.378 1.18007 1.70555 0
M  V30 2114 C 193.803 -0.258257 1.86319 0
M  V30 2115 O 193.161 -1.1869 1.37049 0
M  V30 2116 C 193.209 1.87948 3.07746 0
M  V30 2117 O 192.313 1.18427 3.9503 0
M  V30 2118 H 191.654 0.409867 0.522403 0
M  V30 2119 H 194.184 1.69379 1.1477 0
M  V30 2120 H 194.194 1.95701 3.58001 0
M  V30 2121 H 192.869 2.92573 2.95591 0
M  V30 2122 H 191.446 1.18811 3.53466 0
M  V30 2123 N 193.631 -1.12557 1.10312 0
M  V30 2124 C 194.856 -1.88405 0.867085 0
M  V30 2125 C 195.281 -1.79038 -0.576817 0
M  V30 2126 O 194.639 -1.14439 -1.40618 0
M  V30 2127 C 194.687 -3.3563 1.31851 0
M  V30 2128 O 193.791 -4.09565 0.482734 0
M  V30 2129 H 193.132 -0.585455 0.313271 0
M  V30 2130 H 195.662 -1.42352 1.4696 0
M  V30 2131 H 195.672 -3.86469 1.3079 0
M  V30 2132 H 194.347 -3.41765 2.37001 0
M  V30 2133 H 192.924 -3.68695 0.558448 0
M  V30 2134 N 195.109 -0.891671 -1.2995 0
M  V30 2135 C 196.059 -0.334811 -2.25528 0
M  V30 2136 C 197.043 0.540553 -1.51548 0
M  V30 2137 O 198.235 0.383882 -1.72787 0
M  V30 2138 C 195.364 0.44374 -3.4042 0
M  V30 2139 C 194.45 -0.44609 -4.21747 0
M  V30 2140 N 194.841 -1.54963 -4.81477 0
M  V30 2141 C 193.139 -0.242415 -4.45341 0
M  V30 2142 C 193.84 -2.10015 -5.42465 0
M  V30 2143 N 192.816 -1.39423 -5.25416 0
M  V30 2144 H 196.618 -1.17792 -2.69262 0
M  V30 2145 H 194.132 -0.741822 -1.44467 0
M  V30 2146 H 196.129 0.859362 -4.07947 0
M  V30 2147 H 194.789 1.28421 -2.98225 0
M  V30 2148 H 195.8 -1.93244 -4.80497 0
M  V30 2149 H 192.477 0.560342 -4.13723 0
M  V30 2150 H 193.867 -3.02724 -5.9984 0
M  V30 2151 N 196.587 1.43421 -0.653314 0
M  V30 2152 C 197.534 2.30768 0.0382271 0
M  V30 2153 C 198.504 1.44755 0.814576 0
M  V30 2154 O 199.689 1.73624 0.791162 0
M  V30 2155 C 196.829 3.30336 0.998599 0
M  V30 2156 C 195.942 4.31448 0.218342 0
M  V30 2157 C 195.077 5.18098 1.17252 0
M  V30 2158 C 194.116 6.10902 0.382702 0
M  V30 2159 N 193.253 6.90176 1.28848 0
M  V30 2160 H 198.093 2.89357 -0.712511 0
M  V30 2161 H 195.63 1.42548 -0.363128 0
M  V30 2162 H 197.588 3.86572 1.56901 0
M  V30 2163 H 196.218 2.73397 1.71621 0
M  V30 2164 H 195.27 3.77506 -0.46836 0
M  V30 2165 H 196.582 4.97227 -0.395812 0
M  V30 2166 H 195.736 5.7896 1.81356 0
M  V30 2167 H 194.475 4.52444 1.82058 0
M  V30 2168 H 193.48 5.49128 -0.27169 0
M  V30 2169 H 194.705 6.78598 -0.260957 0
M  V30 2170 H 192.651 6.27171 1.92334 0
M  V30 2171 H 192.568 7.52478 0.728887 0
M  V30 2172 H 193.836 7.55543 1.91766 0
M  V30 2173 N 198.065 0.39524 1.52563 0
M  V30 2174 C 198.997 -0.472201 2.24283 0
M  V30 2175 C 200.01 -1.02178 1.26742 0
M  V30 2176 O 201.199 -0.923097 1.52778 0
M  V30 2177 C 198.299 -1.66775 2.95024 0
M  V30 2178 C 197.472 -1.2445 4.19322 0
M  V30 2179 C 196.531 -2.30539 4.7301 0
M  V30 2180 O 195.557 -1.91702 5.35947 0
M  V30 2181 N 196.759 -3.6253 4.53379 0
M  V30 2182 H 199.524 0.142282 2.99362 0
M  V30 2183 H 197.085 0.2219 1.60372 0
M  V30 2184 H 199.077 -2.37283 3.27839 0
M  V30 2185 H 197.647 -2.18845 2.23217 0
M  V30 2186 H 196.867 -0.368069 3.92478 0
M  V30 2187 H 198.155 -0.938457 5.0007 0
M  V30 2188 H 197.553 -3.96841 4.03154 0
M  V30 2189 H 196.11 -4.29055 4.90668 0
M  V30 2190 N 199.544 -1.57102 0.125237 0
M  V30 2191 C 200.96 -1.57915 -0.231322 0
M  V30 2192 C 201.16 -1.13833 -1.66266 0
M  V30 2193 O 200.216 -0.828581 -2.38518 0
M  V30 2194 C 201.529 -3.00699 0.00766489 0
M  V30 2195 C 203.077 -3.12947 -0.0577483 0
M  V30 2196 C 203.552 -4.57742 0.153626 0
M  V30 2197 N 205.043 -4.63092 0.0998073 0
M  V30 2198 C 205.778 -5.72905 0.238174 0
M  V30 2199 N 205.274 -6.91445 0.433057 0
M  V30 2200 N 207.067 -5.6182 0.177308 0
M  V30 2201 H 199.218 -1.84055 1.06007 0
M  V30 2202 H 201.481 -0.850905 0.417929 0
M  V30 2203 H 201.187 -3.3726 0.997431 0
M  V30 2204 H 201.061 -3.70236 -0.721452 0
M  V30 2205 H 203.448 -2.7624 -1.03804 0
M  V30 2206 H 203.529 -2.4594 0.70335 0
M  V30 2207 H 203.173 -4.95149 1.13092 0
M  V30 2208 H 203.103 -5.22848 -0.627534 0
M  V30 2209 H 205.594 -3.77871 -0.047051 0
M  V30 2210 H 205.907 -7.70985 0.529332 0
M  V30 2211 H 204.252 -6.93415 0.469109 0
M  V30 2212 H 207.443 -4.68093 0.0259748 0
M  V30 2213 H 207.616 -6.47357 0.288582 0
M  V30 2214 N 201.022 0.148545 -1.56898 0
M  V30 2215 C 201.969 1.18345 -1.98149 0
M  V30 2216 C 202.939 1.42772 -0.848848 0
M  V30 2217 O 204.124 1.55132 -1.11079 0
M  V30 2218 C 201.264 2.51231 -2.36594 0
M  V30 2219 C 200.377 2.33991 -3.63142 0
M  V30 2220 C 199.512 3.59902 -3.90697 0
M  V30 2221 C 198.551 3.37692 -5.1052 0
M  V30 2222 N 197.688 4.5573 -5.34092 0
M  V30 2223 H 202.528 0.82467 -2.86362 0
M  V30 2224 H 200.065 0.395756 -1.41676 0
M  V30 2225 H 202.023 3.28713 -2.56912 0
M  V30 2226 H 200.653 2.85059 -1.51463 0
M  V30 2227 H 199.705 1.47572 -3.50609 0
M  V30 2228 H 201.017 2.13539 -4.5078 0
M  V30 2229 H 200.171 4.45813 -4.11505 0
M  V30 2230 H 198.91 3.83357 -3.01477 0
M  V30 2231 H 197.915 2.5017 -4.89587 0
M  V30 2232 H 199.14 3.15637 -6.0129 0
M  V30 2233 H 197.086 4.79361 -4.47827 0
M  V30 2234 H 197.003 4.38274 -6.15996 0
M  V30 2235 H 198.271 5.42858 -5.59397 0
M  V30 2236 N 202.5 1.5196 0.417844 0
M  V30 2237 C 203.447 1.74678 1.50852 0
M  V30 2238 C 204.417 0.588947 1.55308 0
M  V30 2239 O 205.602 0.825544 1.72016 0
M  V30 2240 C 202.742 1.89544 2.88387 0
M  V30 2241 C 201.855 3.17166 2.93309 0
M  V30 2242 C 200.99 3.22513 4.22088 0
M  V30 2243 C 200.029 4.44372 4.20951 0
M  V30 2244 N 199.166 4.47161 5.41287 0
M  V30 2245 H 204.006 2.67768 1.30783 0
M  V30 2246 H 201.543 1.32689 0.63498 0
M  V30 2247 H 203.501 1.96146 3.68216 0
M  V30 2248 H 202.131 0.998424 3.06971 0
M  V30 2249 H 201.183 3.19778 2.06024 0
M  V30 2250 H 202.495 4.07021 2.88332 0
M  V30 2251 H 201.649 3.28139 5.10303 0
M  V30 2252 H 200.388 2.30581 4.29748 0
M  V30 2253 H 199.393 4.38902 3.31127 0
M  V30 2254 H 200.618 5.3759 4.14938 0
M  V30 2255 H 198.564 3.58108 5.49632 0
M  V30 2256 H 198.481 5.3085 5.3827 0
M  V30 2257 H 199.749 4.57005 6.3148 0
M  V30 2258 N 203.978 -0.674533 1.42435 0
M  V30 2259 C 205.224 -1.43671 1.43131 0
M  V30 2260 C 205.557 -1.94142 0.0476021 0
M  V30 2261 O 204.832 -1.70924 -0.928188 0
M  V30 2262 C 205.115 -2.63355 2.45594 0
M  V30 2263 C 204.968 -2.18514 3.93156 0
M  V30 2264 C 206.287 -3.65571 2.45043 0
M  V30 2265 H 203.406 -0.521077 0.521198 0
M  V30 2266 H 206.048 -0.766551 1.7385 0
M  V30 2267 H 204.198 -3.2053 2.19528 0
M  V30 2268 H 205.87 -1.66504 4.30202 0
M  V30 2269 H 204.113 -1.50086 4.07009 0
M  V30 2270 H 204.784 -3.04484 4.60428 0
M  V30 2271 H 207.26 -3.18113 2.68223 0
M  V30 2272 H 206.136 -4.46893 3.18713 0
M  V30 2273 H 206.397 -4.16716 1.47649 0
M  V30 2274 N 205.456 -1.28612 -0.910864 0
M  V30 2275 C 206.705 -1.15311 -1.65488 0
M  V30 2276 C 207.018 0.296999 -1.93332 0
M  V30 2277 O 208.224 0.551168 -2.65847 0
M  V30 2278 C 206.68 -2.01599 -2.98137 0
M  V30 2279 C 206.288 -3.51367 -2.7793 0
M  V30 2280 C 208.032 -1.96993 -3.76024 0
M  V30 2281 C 205.939 -4.29797 -4.06237 0
M  V30 2282 H 204.869 -0.42796 -0.620779 0
M  V30 2283 H 207.52 -1.53166 -1.01057 0
M  V30 2284 H 205.902 -1.56603 -3.63719 0
M  V30 2285 H 207.076 -4.0434 -2.21011 0
M  V30 2286 H 205.391 -3.57529 -2.13452 0
M  V30 2287 H 207.988 -2.52856 -4.71135 0
M  V30 2288 H 208.331 -0.94733 -4.05378 0
M  V30 2289 H 208.864 -2.39973 -3.17266 0
M  V30 2290 H 205.603 -5.32648 -3.82055 0
M  V30 2291 H 205.123 -3.81596 -4.62757 0
M  V30 2292 H 206.802 -4.39869 -4.74473 0
M  V30 2293 N 206.934 1.1197 -1.10907 0
M  V30 2294 C 207.867 2.16998 -0.706192 0
M  V30 2295 C 208.845 1.59903 0.294897 0
M  V30 2296 O 210.029 1.87513 0.192636 0
M  V30 2297 C 207.156 3.38673 -0.0427664 0
M  V30 2298 C 206.202 4.14414 -1.00811 0
M  V30 2299 S 207.035 4.72079 -2.52789 0
M  V30 2300 C 208.191 5.97083 -1.87731 0
M  V30 2301 H 208.424 2.50837 -1.59587 0
M  V30 2302 H 205.957 1.23508 -0.926555 0
M  V30 2303 H 207.915 4.09142 0.333668 0
M  V30 2304 H 206.576 3.03105 0.823788 0
M  V30 2305 H 205.769 5.016 -0.491259 0
M  V30 2306 H 205.371 3.49678 -1.3267 0
M  V30 2307 H 207.663 6.66599 -1.21044 0
M  V30 2308 H 208.606 6.53403 -2.72892 0
M  V30 2309 H 209.014 5.4837 -1.33979 0
M  V30 2310 N 208.412 0.89855 1.29475 0
M  V30 2311 C 209.828 0.594483 1.48115 0
M  V30 2312 C 210.028 -0.86431 1.82022 0
M  V30 2313 O 209.084 -1.64457 1.91599 0
M  V30 2314 C 210.397 1.51932 2.59494 0
M  V30 2315 C 211.945 1.5244 2.7337 0
M  V30 2316 C 212.42 2.43548 3.87877 0
M  V30 2317 N 213.911 2.41589 3.95208 0
M  V30 2318 C 214.646 3.08789 4.83153 0
M  V30 2319 N 214.142 3.85265 5.75798 0
M  V30 2320 N 215.935 2.97952 4.76635 0
M  V30 2321 H 208.086 1.84207 1.05742 0
M  V30 2322 H 210.349 0.789251 0.525154 0
M  V30 2323 H 210.055 2.55865 2.41301 0
M  V30 2324 H 209.929 1.23899 3.56271 0
M  V30 2325 H 212.316 0.492518 2.90961 0
M  V30 2326 H 212.397 1.8451 1.77172 0
M  V30 2327 H 212.041 3.46829 3.71041 0
M  V30 2328 H 211.971 2.08788 4.83441 0
M  V30 2329 H 214.462 1.86025 3.28943 0
M  V30 2330 H 214.775 4.33598 6.39697 0
M  V30 2331 H 213.12 3.89371 5.75687 0
M  V30 2332 H 216.311 2.37723 4.03244 0
M  V30 2333 H 216.484 3.50599 5.44962 0
M  V30 2334 N 209.89 -1.43072 0.660911 0
M  V30 2335 C 210.853 -2.29194 -0.0166406 0
M  V30 2336 C 211.853 -1.42609 -0.742912 0
M  V30 2337 O 213.043 -1.64155 -0.583004 0
M  V30 2338 C 210.175 -3.24831 -1.0343 0
M  V30 2339 H 211.368 -2.90596 0.741208 0
M  V30 2340 H 208.921 -1.5048 0.422532 0
M  V30 2341 H 209.656 -2.68339 -1.82111 0
M  V30 2342 H 209.441 -3.88676 -0.517082 0
M  V30 2343 H 210.931 -3.89451 -1.50723 0
M  V30 2344 N 211.368 -0.403325 -1.52352 0
M  V30 2345 C 212.615 0.174347 -2.01748 0
M  V30 2346 C 212.943 1.45636 -1.2892 0
M  V30 2347 O 212.198 1.9193 -0.382258 0
M  V30 2348 C 212.497 0.474665 -3.54234 0
M  V30 2349 C 212.163 -0.717458 -4.45155 0
M  V30 2350 C 210.825 -1.04447 -4.69728 0
M  V30 2351 C 213.177 -1.51432 -4.98716 0
M  V30 2352 C 210.505 -2.16963 -5.45109 0
M  V30 2353 C 212.857 -2.6302 -5.75329 0
M  V30 2354 C 211.521 -2.96213 -5.98175 0
M  V30 2355 H 210.791 0.0637981 -0.738248 0
M  V30 2356 H 213.438 -0.543553 -1.83624 0
M  V30 2357 H 211.743 1.27406 -3.70506 0
M  V30 2358 H 213.44 0.934496 -3.89959 0
M  V30 2359 H 210.03 -0.452596 -4.26204 0
M  V30 2360 H 214.214 -1.27491 -4.79645 0
M  V30 2361 H 209.47 -2.43034 -5.61021 0
M  V30 2362 H 213.644 -3.25158 -6.15829 0
M  V30 2363 H 211.271 -3.83516 -6.56368 0
M  V30 2364 N 212.846 1.57033 -0.133567 0
M  V30 2365 C 214.071 2.00475 0.531477 0
M  V30 2366 C 214.496 1.01291 1.58499 0
M  V30 2367 O 213.854 -0.0133279 1.81295 0
M  V30 2368 C 213.902 3.42729 1.12113 0
M  V30 2369 O 213.006 3.46498 2.23636 0
M  V30 2370 H 212.347 0.650876 0.131362 0
M  V30 2371 H 214.877 2.03344 -0.22634 0
M  V30 2372 H 214.887 3.81246 1.4531 0
M  V30 2373 H 213.562 4.14428 0.349557 0
M  V30 2374 H 212.139 3.19811 1.91769 0
M  V30 2375 N 214.325 -0.140222 1.56975 0
M  V30 2376 C 215.741 -0.493088 1.51792 0
M  V30 2377 C 215.941 -1.83013 0.843116 0
M  V30 2378 O 214.997 -2.49041 0.416493 0
M  V30 2379 C 216.31 -0.497144 2.96562 0
M  V30 2380 C 217.858 -0.582186 3.07538 0
M  V30 2381 C 218.333 -0.616838 4.53827 0
M  V30 2382 N 219.824 -0.678873 4.58198 0
M  V30 2383 C 220.559 -0.726782 5.68775 0
M  V30 2384 N 220.055 -0.733623 6.88905 0
M  V30 2385 N 221.848 -0.768179 5.56826 0
M  V30 2386 H 213.999 0.736108 1.99237 0
M  V30 2387 H 216.262 0.269182 0.90898 0
M  V30 2388 H 215.968 0.417217 3.49217 0
M  V30 2389 H 215.842 -1.33263 3.52875 0
M  V30 2390 H 218.229 -1.48697 2.54899 0
M  V30 2391 H 218.31 0.280581 2.54257 0
M  V30 2392 H 217.954 0.283812 5.07106 0
M  V30 2393 H 217.884 -1.49619 5.04898 0
M  V30 2394 H 220.375 -0.68061 3.7172 0
M  V30 2395 H 220.688 -0.772215 7.68932 0
M  V30 2396 H 219.033 -0.701389 6.91452 0
M  V30 2397 H 222.224 -0.760051 4.61888 0
M  V30 2398 H 222.397 -0.80205 6.43017 0
M  V30 2399 N 215.803 -1.52179 -0.40978 0
M  V30 2400 C 216.713 -1.78364 -1.52392 0
M  V30 2401 C 217.729 -0.669183 -1.60617 0
M  V30 2402 O 218.905 -0.954518 -1.77344 0
M  V30 2403 C 215.97 -1.92822 -2.88133 0
M  V30 2404 C 215.031 -3.16725 -2.898 0
M  V30 2405 C 214.264 -3.30483 -4.19067 0
M  V30 2406 O 214.487 -2.49522 -5.12928 0
M  V30 2407 O 213.421 -4.2363 -4.27576 0
M  V30 2408 H 217.247 -2.72931 -1.33201 0
M  V30 2409 H 214.832 -1.37016 -0.59557 0
M  V30 2410 H 216.714 -2.04157 -3.68643 0
M  V30 2411 H 215.389 -1.01444 -3.07393 0
M  V30 2412 H 214.296 -3.10848 -2.08146 0
M  V30 2413 H 215.629 -4.07881 -2.75489 0
M  V30 2414 N 217.281 0.66697 -1.42791 0
M  V30 2415 C 218.244 1.76211 -1.46568 0
M  V30 2416 C 219.244 1.56896 -0.352196 0
M  V30 2417 O 220.434 1.63044 -0.613364 0
M  V30 2418 C 217.566 3.14935 -1.30494 0
M  V30 2419 H 218.759 1.74247 -2.44086 0
M  V30 2420 H 216.312 0.877342 -1.29354 0
M  V30 2421 H 217.047 3.2252 -0.339301 0
M  V30 2422 H 216.832 3.30359 -2.11199 0
M  V30 2423 H 218.322 3.94821 -1.36038 0
M  V30 2424 N 218.759 1.29093 0.90403 0
M  V30 2425 C 219.689 1.16401 2.02418 0
M  V30 2426 C 220.67 0.0593085 1.69997 0
M  V30 2427 O 221.855 0.238021 1.92736 0
M  V30 2428 C 218.985 0.835233 3.37107 0
M  V30 2429 C 217.939 1.89578 3.83724 0
M  V30 2430 C 217.265 1.42041 5.15489 0
M  V30 2431 C 218.565 3.30394 4.04521 0
M  V30 2432 H 220.259 2.10109 2.13295 0
M  V30 2433 H 217.805 1.01157 1.02486 0
M  V30 2434 H 219.758 0.733169 4.14973 0
M  V30 2435 H 218.482 -0.137543 3.2631 0
M  V30 2436 H 217.141 1.98715 3.08071 0
M  V30 2437 H 216.789 0.436426 5.01103 0
M  V30 2438 H 216.489 2.12964 5.4765 0
M  V30 2439 H 218.013 1.33176 5.959 0
M  V30 2440 H 219.427 3.24123 4.72882 0
M  V30 2441 H 217.824 3.99237 4.48029 0
M  V30 2442 H 218.894 3.73692 3.09002 0
M  V30 2443 N 220.237 -1.11381 1.11499 0
M  V30 2444 C 221.147 -2.21019 0.786628 0
M  V30 2445 C 222.163 -1.72597 -0.220507 0
M  V30 2446 O 223.339 -2.01321 -0.0565251 0
M  V30 2447 C 220.404 -3.459 0.235333 0
M  V30 2448 C 219.465 -4.09107 1.30115 0
M  V30 2449 C 218.698 -5.28027 0.776068 0
M  V30 2450 O 218.921 -5.6904 -0.393661 0
M  V30 2451 O 217.855 -5.81835 1.54114 0
M  V30 2452 H 221.681 -2.51521 1.70209 0
M  V30 2453 H 219.266 -1.19928 0.890928 0
M  V30 2454 H 221.148 -4.21346 -0.067715 0
M  V30 2455 H 219.823 -3.17049 -0.652828 0
M  V30 2456 H 218.73 -3.35391 1.65722 0
M  V30 2457 H 220.063 -4.42139 2.16273 0
M  V30 2458 N 221.715 -0.905404 -1.28997 0
M  V30 2459 C 222.955 -0.541232 -1.97104 0
M  V30 2460 C 223.319 0.896841 -1.69767 0
M  V30 2461 O 224.52 1.36817 -2.31375 0
M  V30 2462 C 222.791 -0.832134 -3.47578 0
M  V30 2463 S 224.35 -0.573127 -4.35041 0
M  V30 2464 H 221.168 -0.200576 -0.682122 0
M  V30 2465 H 223.77 -1.16906 -1.56694 0
M  V30 2466 H 222.474 -1.87687 -3.64968 0
M  V30 2467 H 222.005 -0.192636 -3.92928 0
M  V30 2468 H 224.02 0.579297 -4.92807 0
M  V30 2469 N 223.193 1.4272 -0.668489 0
M  V30 2470 C 224.423 2.05668 -0.196063 0
M  V30 2471 C 224.831 1.5028 1.14946 0
M  V30 2472 O 224.174 0.6348 1.72383 0
M  V30 2473 C 224.236 3.59469 -0.0468879 0
M  V30 2474 C 223.9 4.37518 -1.32012 0
M  V30 2475 C 224.897 4.68584 -2.25222 0
M  V30 2476 C 222.582 4.77266 -1.56596 0
M  V30 2477 C 224.576 5.38326 -3.41297 0
M  V30 2478 C 222.263 5.4675 -2.72962 0
M  V30 2479 C 223.261 5.77204 -3.65137 0
M  V30 2480 O 222.949 6.45264 -4.79468 0
M  V30 2481 H 222.681 0.669382 -0.0943599 0
M  V30 2482 H 225.235 1.83954 -0.913788 0
M  V30 2483 H 223.465 3.79817 0.726357 0
M  V30 2484 H 225.154 4.04071 0.384852 0
M  V30 2485 H 225.92 4.38382 -2.07477 0
M  V30 2486 H 221.799 4.52959 -0.857249 0
M  V30 2487 H 225.343 5.62014 -4.13263 0
M  V30 2488 H 221.24 5.76369 -2.90635 0
M  V30 2489 H 222.008 6.63753 -4.78931 0
M  V30 2490 N 224.671 0.411399 1.52136 0
M  V30 2491 C 225.917 -0.163888 2.02137 0
M  V30 2492 C 226.25 -1.44597 1.29636 0
M  V30 2493 O 225.525 -1.90272 0.403353 0
M  V30 2494 C 225.808 -0.40927 3.57767 0
M  V30 2495 C 225.661 0.889643 4.40914 0
M  V30 2496 C 226.98 -1.19042 4.23694 0
M  V30 2497 H 224.099 -0.0580896 0.734707 0
M  V30 2498 H 226.741 0.54531 1.82007 0
M  V30 2499 H 224.891 -1.0134 3.7505 0
M  V30 2500 H 226.563 1.52575 4.35337 0
M  V30 2501 H 224.806 1.50011 4.07037 0
M  V30 2502 H 225.477 0.672314 5.4789 0
M  V30 2503 H 227.953 -0.678942 4.10524 0
M  V30 2504 H 226.829 -1.33086 5.32522 0
M  V30 2505 H 227.09 -2.21166 3.82803 0
M  V30 2506 N 226.149 -1.5696 0.141893 0
M  V30 2507 C 227.56 -1.82797 -0.379776 0
M  V30 2508 C 227.911 -1.06033 -1.6508 0
M  V30 2509 O 227.036 -0.304011 -2.14254 0
M  V30 2510 C 227.631 -3.31578 -0.695802 0
M  V30 2511 C 226.19 -3.58014 -1.16201 0
M  V30 2512 C 225.337 -2.76699 -0.182455 0
M  V30 2513 H 228.288 -1.54406 0.366675 0
M  V30 2514 H 228.309 -3.47454 -1.55099 0
M  V30 2515 H 227.821 -3.87421 0.229449 0
M  V30 2516 H 225.922 -3.07553 -2.10338 0
M  V30 2517 H 226.035 -4.66501 -1.09151 0
M  V30 2518 H 224.399 -2.45618 -0.674072 0
M  V30 2519 H 225.182 -3.35311 0.736297 0
M  V30 2520 N 227.627 0.131896 -1.57047 0
M  V30 2521 C 228.873 0.843179 -1.84441 0
M  V30 2522 C 229.206 1.80129 -0.725749 0
M  V30 2523 O 228.481 1.92624 0.269469 0
M  V30 2524 C 228.764 1.60442 -3.22382 0
M  V30 2525 C 228.617 0.666782 -4.4483 0
M  V30 2526 C 229.936 2.56354 -3.5773 0
M  V30 2527 H 227.055 0.305081 -0.670891 0
M  V30 2528 H 229.697 0.107839 -1.89694 0
M  V30 2529 H 227.847 2.23128 -3.18035 0
M  V30 2530 H 229.519 0.0497646 -4.61273 0
M  V30 2531 H 227.762 -0.022609 -4.33794 0
M  V30 2532 H 228.433 1.23579 -5.37989 0
M  V30 2533 H 230.909 2.0378 -3.62785 0
M  V30 2534 H 229.785 3.06657 -4.5525 0
M  V30 2535 H 230.046 3.38419 -2.84473 0
M  V30 2536 N 229.106 1.52395 0.401703 0
M  V30 2537 C 230.355 1.66044 1.14509 0
M  V30 2538 C 230.668 0.400216 1.91462 0
M  V30 2539 O 231.874 0.416632 2.68284 0
M  V30 2540 C 230.33 2.93388 2.0845 0
M  V30 2541 C 229.938 4.26545 1.36978 0
M  V30 2542 C 231.682 3.16402 2.83001 0
M  V30 2543 C 229.589 5.45007 2.29611 0
M  V30 2544 H 228.519 0.618562 0.431158 0
M  V30 2545 H 231.17 1.78886 0.40892 0
M  V30 2546 H 229.552 2.74263 2.8565 0
M  V30 2547 H 230.726 4.56179 0.650916 0
M  V30 2548 H 229.041 4.09692 0.74438 0
M  V30 2549 H 231.638 4.02085 3.52465 0
M  V30 2550 H 231.981 2.30943 3.46368 0
M  V30 2551 H 232.514 3.36034 2.12898 0
M  V30 2552 H 229.253 6.32835 1.70879 0
M  V30 2553 H 228.773 5.19702 2.9945 0
M  V30 2554 H 230.452 5.7838 2.89974 0
M  V30 2555 N 230.584 -0.659388 1.43143 0
M  V30 2556 C 231.812 -1.44723 1.47861 0
M  V30 2557 C 232.227 -1.88563 0.0945886 0
M  V30 2558 O 231.584 -1.59108 -0.893915 0
M  V30 2559 C 231.635 -2.68627 2.41913 0
M  V30 2560 O 231.356 -2.26623 3.74932 0
M  V30 2561 C 232.857 -3.62045 2.55809 0
M  V30 2562 H 230.077 -0.444801 0.502387 0
M  V30 2563 H 232.621 -0.808916 1.87821 0
M  V30 2564 H 230.776 -3.28613 2.05164 0
M  V30 2565 H 231.19 -3.06745 4.2545 0
M  V30 2566 H 232.664 -4.45666 3.25708 0
M  V30 2567 H 233.141 -4.08981 1.60099 0
M  V30 2568 H 233.747 -3.07944 2.93344 0
M  V30 2569 N 232.062 -1.29571 -0.897171 0
M  V30 2570 C 232.972 -1.16808 -2.03453 0
M  V30 2571 C 233.988 -0.0907471 -1.73763 0
M  V30 2572 O 235.164 -0.303312 -1.99103 0
M  V30 2573 C 232.229 -0.848264 -3.36163 0
M  V30 2574 C 231.29 -2.0097 -3.79354 0
M  V30 2575 C 230.523 -1.70505 -5.05731 0
M  V30 2576 O 230.746 -0.62718 -5.66941 0
M  V30 2577 O 229.68 -2.5538 -5.45036 0
M  V30 2578 H 233.506 -2.12325 -2.17144 0
M  V30 2579 H 231.091 -1.09047 -1.02123 0
M  V30 2580 H 232.973 -0.684581 -4.15802 0
M  V30 2581 H 231.648 0.0771071 -3.23608 0
M  V30 2582 H 230.555 -2.22863 -3.00471 0
M  V30 2583 H 231.888 -2.91636 -3.96496 0
M  V30 2584 N 233.54 1.10788 -1.12088 0
M  V30 2585 C 234.45 2.20599 -0.798338 0
M  V30 2586 C 235.466 1.72712 0.21135 0
M  V30 2587 O 236.642 2.01348 0.0458477 0
M  V30 2588 C 233.707 3.45771 -0.253674 0
M  V30 2589 C 232.768 4.08411 -1.32283 0
M  V30 2590 C 232.001 5.27608 -0.80406 0
M  V30 2591 O 232.224 5.69241 0.363478 0
M  V30 2592 O 231.158 5.8101 -1.57198 0
M  V30 2593 H 234.984 2.50614 -1.7154 0
M  V30 2594 H 232.569 1.19454 -0.897275 0
M  V30 2595 H 234.451 4.21376 0.0453691 0
M  V30 2596 H 233.126 3.1739 0.636005 0
M  V30 2597 H 232.033 3.34507 -1.67499 0
M  V30 2598 H 233.366 4.40986 -2.18614 0
M  V30 2599 N 235.018 0.912232 1.28515 0
M  V30 2600 C 236.264 0.545405 1.95328 0
M  V30 2601 C 236.597 -0.908313 1.71649 0
M  V30 2602 O 235.872 -1.64575 1.03659 0
M  V30 2603 C 236.155 0.853483 3.4984 0
M  V30 2604 C 236.008 2.35982 3.82926 0
M  V30 2605 C 237.327 0.348589 4.38717 0
M  V30 2606 H 234.446 0.199626 0.709449 0
M  V30 2607 H 237.088 1.1412 1.5191 0
M  V30 2608 H 235.238 0.34643 3.86952 0
M  V30 2609 H 236.91 2.93738 3.55691 0
M  V30 2610 H 235.153 2.81543 3.30024 0
M  V30 2611 H 235.824 2.52593 4.90816 0
M  V30 2612 H 238.3 0.78294 4.08668 0
M  V30 2613 H 237.176 0.593242 5.45685 0
M  V30 2614 H 237.437 -0.751049 4.35674 0
M  V30 2615 N 236.496 -1.42363 0.676048 0
M  V30 2616 C 237.744 -2.01123 0.198437 0
M  V30 2617 C 238.065 -1.53731 -1.19966 0
M  V30 2618 O 237.335 -0.759518 -1.80577 0
M  V30 2619 H 235.915 -0.743678 0.0703721 0
M  V30 2620 H 238.577 -1.74263 0.872837 0
M  V30 2621 H 237.673 -3.11454 0.200686 0
M  V30 2622 N 237.974 -0.419461 -1.51915 0
M  V30 2623 C 239.199 0.154572 -2.06823 0
M  V30 2624 C 239.624 1.3722 -1.28656 0
M  V30 2625 O 238.982 1.78461 -0.319583 0
M  V30 2626 C 239.03 0.473172 -3.57482 0
M  V30 2627 O 238.134 1.56255 -3.81652 0
M  V30 2628 H 237.475 0.0096924 -0.663929 0
M  V30 2629 H 240.005 -0.595642 -1.95738 0
M  V30 2630 H 240.015 0.728825 -4.01438 0
M  V30 2631 H 238.69 -0.416873 -4.13805 0
M  V30 2632 H 237.267 1.29825 -3.49571 0
M  V30 2633 N 239.452 1.56882 -0.150215 0
M  V30 2634 C 240.677 2.01027 0.510184 0
M  V30 2635 C 241.102 1.02966 1.57415 0
M  V30 2636 O 240.46 0.00590158 1.81299 0
M  V30 2637 C 240.508 3.43899 1.08472 0
M  V30 2638 O 239.612 3.4885 2.19948 0
M  V30 2639 H 238.953 0.652233 0.124451 0
M  V30 2640 H 241.483 2.03093 -0.247894 0
M  V30 2641 H 241.493 3.82766 1.41259 0
M  V30 2642 H 240.168 4.14776 0.305582 0
M  V30 2643 H 238.745 3.21827 1.88366 0
M  V30 2644 N 240.93 -0.123565 1.57115 0
M  V30 2645 C 241.86 -1.15309 2.03042 0
M  V30 2646 C 242.841 -1.43454 0.914061 0
M  V30 2647 O 244.026 -1.53973 1.18347 0
M  V30 2648 C 241.156 -2.48043 2.43089 0
M  V30 2649 C 240.11 -2.3437 3.58127 0
M  V30 2650 C 239.436 -3.72026 3.84059 0
M  V30 2651 C 240.736 -1.80804 4.90007 0
M  V30 2652 H 242.43 -0.771102 2.893 0
M  V30 2653 H 239.976 -0.369479 1.39179 0
M  V30 2654 H 241.929 -3.20311 2.73823 0
M  V30 2655 H 240.653 -2.88122 1.53796 0
M  V30 2656 H 239.312 -1.64551 3.27595 0
M  V30 2657 H 238.96 -4.09582 2.91979 0
M  V30 2658 H 238.66 -3.63732 4.6149 0
M  V30 2659 H 240.184 -4.45806 4.1724 0
M  V30 2660 H 241.598 -2.42886 5.19307 0
M  V30 2661 H 239.995 -1.83343 5.71407 0
M  V30 2662 H 241.065 -0.76528 4.78823 0
M  V30 2663 N 242.408 -1.52605 -0.393616 0
M  V30 2664 C 243.318 -1.79971 -1.50492 0
M  V30 2665 C 244.334 -0.686181 -1.59899 0
M  V30 2666 O 245.51 -0.973274 -1.76322 0
M  V30 2667 C 242.575 -1.95867 -2.86072 0
M  V30 2668 C 241.636 -3.19781 -2.86424 0
M  V30 2669 C 240.869 -3.34909 -4.15538 0
M  V30 2670 O 241.092 -2.54948 -5.10253 0
M  V30 2671 O 240.026 -4.28141 -4.23059 0
M  V30 2672 H 243.852 -2.74328 -1.30299 0
M  V30 2673 H 241.437 -1.3764 -0.581005 0
M  V30 2674 H 243.319 -2.08056 -3.66457 0
M  V30 2675 H 241.994 -1.04699 -3.063 0
M  V30 2676 H 240.901 -3.13038 -2.04837 0
M  V30 2677 H 242.234 -4.1078 -2.71147 0
M  V30 2678 N 243.887 0.651787 -1.4349 0
M  V30 2679 C 244.819 1.77725 -1.44729 0
M  V30 2680 C 245.832 1.59141 -0.343231 0
M  V30 2681 O 247.021 1.67835 -0.607751 0
M  V30 2682 C 244.121 3.15172 -1.24579 0
M  V30 2683 C 243.294 3.60402 -2.47849 0
M  V30 2684 C 242.353 4.76656 -2.22902 0
M  V30 2685 O 241.379 4.86022 -2.96263 0
M  V30 2686 N 242.581 5.66958 -1.24656 0
M  V30 2687 H 245.346 1.77141 -2.41746 0
M  V30 2688 H 242.907 0.835678 -1.38665 0
M  V30 2689 H 244.899 3.90634 -1.0577 0
M  V30 2690 H 243.469 3.1052 -0.360015 0
M  V30 2691 H 242.689 2.75369 -2.82073 0
M  V30 2692 H 243.977 3.87368 -3.29884 0
M  V30 2693 H 243.375 5.62065 -0.640265 0
M  V30 2694 H 241.932 6.42135 -1.1183 0
M  V30 2695 N 245.365 1.30045 0.890287 0
M  V30 2696 C 246.611 1.19747 1.64415 0
M  V30 2697 C 246.966 -0.246591 1.90813 0
M  V30 2698 O 246.259 -1.174 1.51419 0
M  V30 2699 C 246.453 1.95409 2.99249 0
M  V30 2700 C 246.282 3.47025 2.86013 0
M  V30 2701 C 245.052 4.1638 2.86279 0
M  V30 2702 C 247.25 4.42353 2.62351 0
M  V30 2703 N 245.232 5.54293 2.63879 0
M  V30 2704 C 246.603 5.67792 2.49022 0
M  V30 2705 C 248.658 4.32009 2.47533 0
M  V30 2706 C 247.361 6.8406 2.22383 0
M  V30 2707 C 249.387 5.48038 2.22279 0
M  V30 2708 C 248.749 6.72455 2.09722 0
M  V30 2709 H 244.848 0.493223 0.60684 0
M  V30 2710 H 247.432 1.6399 1.04954 0
M  V30 2711 H 245.603 1.53565 3.56752 0
M  V30 2712 H 247.335 1.77298 3.63796 0
M  V30 2713 H 244.09 3.68164 2.97913 0
M  V30 2714 H 244.514 6.26852 2.55706 0
M  V30 2715 H 249.156 3.36503 2.55979 0
M  V30 2716 H 246.874 7.79612 2.12675 0
M  V30 2717 H 250.46 5.41939 2.11643 0
M  V30 2718 H 249.34 7.60722 1.90453 0
M  V30 2719 N 246.843 -1.10192 1.12674 0
M  V30 2720 C 247.773 -2.18652 0.819362 0
M  V30 2721 C 248.754 -1.68698 -0.217915 0
M  V30 2722 O 249.939 -1.94041 -0.0785581 0
M  V30 2723 C 247.069 -3.46202 0.27594 0
M  V30 2724 C 246.023 -4.09444 1.24656 0
M  V30 2725 C 245.349 -5.31725 0.563258 0
M  V30 2726 C 246.649 -4.52863 2.60217 0
M  V30 2727 H 248.343 -2.44622 1.72628 0
M  V30 2728 H 245.889 -1.17571 0.831451 0
M  V30 2729 H 247.842 -4.21372 0.0486149 0
M  V30 2730 H 246.566 -3.1973 -0.666331 0
M  V30 2731 H 245.225 -3.36284 1.45974 0
M  V30 2732 H 244.873 -5.0153 -0.384235 0
M  V30 2733 H 244.573 -5.74991 1.21075 0
M  V30 2734 H 246.097 -6.09624 0.34503 0
M  V30 2735 H 247.511 -5.19294 2.42913 0
M  V30 2736 H 245.908 -5.06986 3.21068 0
M  V30 2737 H 246.978 -3.65656 3.18471 0
M  V30 2738 N 248.321 -0.919034 -1.28029 0
M  V30 2739 C 249.546 -0.570357 -1.99403 0
M  V30 2740 C 249.971 0.842486 -1.68178 0
M  V30 2741 O 249.329 1.56391 -0.917141 0
M  V30 2742 C 249.377 -0.792541 -3.51783 0
M  V30 2743 O 248.481 0.145988 -4.12142 0
M  V30 2744 H 247.822 -0.220555 -0.6263 0
M  V30 2745 H 250.352 -1.23592 -1.63053 0
M  V30 2746 H 250.362 -0.704708 -4.01868 0
M  V30 2747 H 249.037 -1.82247 -3.73844 0
M  V30 2748 H 247.614 0.00897528 -3.72899 0
M  V30 2749 N 249.799 1.42003 -0.683588 0
M  V30 2750 C 251.039 2.03282 -0.213513 0
M  V30 2751 C 251.403 1.52924 1.16097 0
M  V30 2752 O 252.604 2.06048 1.7262 0
M  V30 2753 C 250.875 3.56483 -0.255856 0
M  V30 2754 S 252.434 4.3857 0.14193 0
M  V30 2755 H 249.252 0.705659 -0.0869853 0
M  V30 2756 H 251.854 1.73619 -0.8987 0
M  V30 2757 H 250.558 3.90631 -1.25841 0
M  V30 2758 H 250.089 3.90831 0.448875 0
M  V30 2759 H 252.104 4.76828 1.37295 0
M  V30 2760 N 251.277 0.427512 1.51691 0
M  V30 2761 C 252.525 -0.141948 2.01601 0
M  V30 2762 C 252.846 -1.44067 1.31414 0
M  V30 2763 O 252.116 -1.90763 0.445658 0
M  V30 2764 H 250.696 -0.0554468 0.744939 0
M  V30 2765 H 253.358 0.567968 1.86441 0
M  V30 2766 H 252.454 -0.324913 3.10404 0
M  V30 2767 N 252.755 -1.56801 0.158532 0
M  V30 2768 C 253.665 -2.20916 -0.789518 0
M  V30 2769 C 254.681 -1.1969 -1.26294 0
M  V30 2770 O 255.857 -1.52308 -1.31773 0
M  V30 2771 C 252.922 -2.82727 -2.00665 0
M  V30 2772 C 251.983 -3.99114 -1.58134 0
M  V30 2773 C 251.216 -4.57968 -2.74045 0
M  V30 2774 O 251.439 -4.15704 -3.90572 0
M  V30 2775 O 250.373 -5.48047 -2.48855 0
M  V30 2776 H 254.199 -3.02464 -0.273681 0
M  V30 2777 H 251.784 -1.4924 -0.0690548 0
M  V30 2778 H 253.666 -3.21968 -2.71872 0
M  V30 2779 H 252.341 -2.04184 -2.51179 0
M  V30 2780 H 251.248 -3.64567 -0.839155 0
M  V30 2781 H 252.581 -4.79212 -1.12325 0
M  V30 2782 N 254.233 0.115231 -1.57178 0
M  V30 2783 C 255.649 0.468877 -1.52557 0
M  V30 2784 C 255.849 1.81649 -0.872125 0
M  V30 2785 O 254.905 2.48347 -0.45606 0
M  V30 2786 C 256.218 0.4499 -2.97315 0
M  V30 2787 C 257.766 0.533185 -3.08425 0
M  V30 2788 C 258.241 0.54456 -4.54751 0
M  V30 2789 N 259.732 0.605892 -4.5922 0
M  V30 2790 C 260.467 0.636203 -5.6986 0
M  V30 2791 N 259.963 0.623931 -6.89985 0
M  V30 2792 N 261.756 0.679496 -5.57978 0
M  V30 2793 H 253.907 -0.767712 -1.9804 0
M  V30 2794 H 256.17 -0.283609 -0.904583 0
M  V30 2795 H 255.876 -0.472721 -3.48509 0
M  V30 2796 H 255.75 1.27632 -3.5495 0
M  V30 2797 H 258.137 1.44623 -2.57232 0
M  V30 2798 H 258.218 -0.320995 -2.53778 0
M  V30 2799 H 257.862 -0.364452 -5.06591 0
M  V30 2800 H 257.792 1.41568 -5.07214 0
M  V30 2801 H 260.283 0.621386 -3.72756 0
M  V30 2802 H 260.596 0.649787 -7.70063 0
M  V30 2803 H 258.941 0.591296 -6.9248 0
M  V30 2804 H 262.132 0.686472 -4.63039 0
M  V30 2805 H 262.305 0.69965 -6.44212 0
M  V30 2806 N 255.711 1.52812 0.385517 0
M  V30 2807 C 256.959 1.67694 1.12797 0
M  V30 2808 C 257.28 0.421115 1.90399 0
M  V30 2809 O 256.55 -0.564551 1.87589 0
M  V30 2810 H 255.13 0.618155 0.419396 0
M  V30 2811 H 257.792 1.89938 0.436972 0
M  V30 2812 H 256.888 2.52896 1.82894 0
M  V30 2813 N 257.189 -0.644168 1.43834 0
M  V30 2814 C 258.119 -1.76814 1.52509 0
M  V30 2815 C 259.1 -1.65823 0.379052 0
M  V30 2816 O 260.285 -1.84781 0.597466 0
M  V30 2817 C 257.415 -3.15288 1.4564 0
M  V30 2818 C 256.369 -3.41053 2.58586 0
M  V30 2819 C 255.695 -4.79421 2.36769 0
M  V30 2820 C 256.995 -3.34902 4.00797 0
M  V30 2821 H 258.689 -1.69812 2.46586 0
M  V30 2822 H 256.235 -0.815542 1.1868 0
M  V30 2823 H 258.188 -3.93681 1.50311 0
M  V30 2824 H 256.912 -3.23043 0.480725 0
M  V30 2825 H 255.571 -2.65035 2.53282 0
M  V30 2826 H 255.219 -4.83863 1.37424 0
M  V30 2827 H 254.919 -4.9762 3.12487 0
M  V30 2828 H 256.443 -5.6006 2.43238 0
M  V30 2829 H 257.857 -4.03218 4.07539 0
M  V30 2830 H 256.254 -3.64637 4.76613 0
M  V30 2831 H 257.324 -2.32928 4.25291 0
M  V30 2832 N 258.668 -1.30515 -0.883378 0
M  V30 2833 C 259.598 -1.19607 -2.00541 0
M  V30 2834 C 260.579 -0.086346 -1.69881 0
M  V30 2835 O 261.764 -0.268654 -1.92333 0
M  V30 2836 C 258.894 -0.888758 -3.35736 0
M  V30 2837 C 257.848 -1.95659 -3.8066 0
M  V30 2838 C 257.174 -1.50224 -5.13164 0
M  V30 2839 C 258.474 -3.36788 -3.99213 0
M  V30 2840 H 260.168 -2.13476 -2.09925 0
M  V30 2841 H 257.714 -1.02775 -1.00863 0
M  V30 2842 H 259.667 -0.799094 -4.13754 0
M  V30 2843 H 258.391 0.0856125 -3.26488 0
M  V30 2844 H 257.05 -2.03591 -3.04871 0
M  V30 2845 H 256.698 -0.516092 -5.00345 0
M  V30 2846 H 256.398 -2.2165 -5.44192 0
M  V30 2847 H 257.922 -1.42639 -5.93706 0
M  V30 2848 H 259.336 -3.31605 -4.67665 0
M  V30 2849 H 257.733 -4.06314 -4.41621 0
M  V30 2850 H 258.803 -3.78561 -3.03017 0
M  V30 2851 N 260.146 1.09593 -1.13257 0
M  V30 2852 C 261.392 1.82003 -0.89458 0
M  V30 2853 C 261.725 1.85402 0.577906 0
M  V30 2854 O 261 1.32099 1.42759 0
M  V30 2855 C 261.283 3.28237 -1.48096 0
M  V30 2856 C 261.136 3.3312 -3.02244 0
M  V30 2857 C 262.455 4.24871 -1.14774 0
M  V30 2858 H 259.574 0.66077 -0.326424 0
M  V30 2859 H 262.216 1.28389 -1.40058 0
M  V30 2860 H 260.366 3.74024 -1.05062 0
M  V30 2861 H 262.038 2.95748 -3.54021 0
M  V30 2862 H 260.281 2.72756 -3.37323 0
M  V30 2863 H 260.952 4.3613 -3.38371 0
M  V30 2864 H 263.428 3.87361 -1.51957 0
M  V30 2865 H 262.304 5.25532 -1.58452 0
M  V30 2866 H 262.565 4.42058 -0.0611849 0
M  V30 2867 N 261.624 0.925811 1.2754 0
M  V30 2868 C 262.854 0.580666 1.98272 0
M  V30 2869 C 263.262 -0.845207 1.69272 0
M  V30 2870 O 262.605 -1.57306 0.948707 0
M  V30 2871 C 262.667 0.724418 3.52126 0
M  V30 2872 C 262.331 2.12206 4.04744 0
M  V30 2873 C 263.328 3.09604 4.17662 0
M  V30 2874 C 261.013 2.4385 4.39138 0
M  V30 2875 C 263.007 4.36755 4.64246 0
M  V30 2876 C 260.694 3.71237 4.85414 0
M  V30 2877 C 261.692 4.67503 4.97926 0
M  V30 2878 O 261.38 5.92624 5.43187 0
M  V30 2879 H 261.112 0.218987 0.639547 0
M  V30 2880 H 263.666 1.24452 1.63404 0
M  V30 2881 H 261.896 0.0034663 3.867 0
M  V30 2882 H 263.585 0.384607 4.04074 0
M  V30 2883 H 264.351 2.86478 3.91351 0
M  V30 2884 H 260.23 1.69665 4.28643 0
M  V30 2885 H 263.774 5.11898 4.73927 0
M  V30 2886 H 259.671 3.94182 5.11166 0
M  V30 2887 H 260.439 5.95585 5.61445 0
M  V30 2888 N 263.102 -1.41638 0.69111 0
M  V30 2889 C 264.513 -1.84346 0.295517 0
M  V30 2890 C 264.864 -1.57833 -1.16547 0
M  V30 2891 O 263.989 -1.04648 -1.89414 0
M  V30 2892 C 264.584 -3.34636 0.529575 0
M  V30 2893 C 263.143 -3.7593 0.187944 0
M  V30 2894 C 262.29 -2.65082 0.814052 0
M  V30 2895 H 265.241 -1.31253 0.892092 0
M  V30 2896 H 265.262 -3.79903 -0.213148 0
M  V30 2897 H 264.774 -3.53901 1.59297 0
M  V30 2898 H 262.875 -3.62268 -0.871367 0
M  V30 2899 H 262.988 -4.74808 0.63985 0
M  V30 2900 H 261.352 -2.53528 0.244017 0
M  V30 2901 H 262.135 -2.87167 1.88123 0
M  V30 2902 N 264.58 -0.43555 -1.51462 0
M  V30 2903 C 265.49 0.383001 -2.31453 0
M  V30 2904 C 266.506 1.02931 -1.4029 0
M  V30 2905 O 267.682 1.02507 -1.73362 0
M  V30 2906 C 264.747 1.47043 -3.13973 0
M  V30 2907 C 263.808 0.844433 -4.20913 0
M  V30 2908 C 263.041 1.88004 -4.9949 0
M  V30 2909 O 263.264 3.10199 -4.78678 0
M  V30 2910 O 262.198 1.47157 -5.83634 0
M  V30 2911 H 266.024 -0.269964 -3.02498 0
M  V30 2912 H 263.609 -0.19813 -1.4808 0
M  V30 2913 H 265.491 2.10113 -3.65281 0
M  V30 2914 H 264.166 2.10751 -2.45695 0
M  V30 2915 H 263.073 0.175729 -3.73687 0
M  V30 2916 H 264.406 0.250869 -4.9156 0
M  V30 2917 N 266.058 1.56714 -0.166846 0
M  V30 2918 C 267.304 1.97039 0.479962 0
M  V30 2919 C 267.637 1.05264 1.63197 0
M  V30 2920 O 266.912 0.0988833 1.94248 0
M  V30 2921 C 267.195 3.46867 0.967212 0
M  V30 2922 C 267.048 4.49421 -0.18466 0
M  V30 2923 C 268.367 3.9968 1.84238 0
M  V30 2924 H 265.486 0.71641 0.172992 0
M  V30 2925 H 268.128 1.8832 -0.252079 0
M  V30 2926 H 266.278 3.54428 1.59101 0
M  V30 2927 H 267.95 4.53924 -0.821621 0
M  V30 2928 H 266.193 4.25573 -0.840837 0
M  V30 2929 H 266.864 5.51644 0.198317 0
M  V30 2930 H 269.34 3.94723 1.31655 0
M  V30 2931 H 268.216 5.04941 2.15234 0
M  V30 2932 H 268.477 3.43226 2.78654 0
M  V30 2933 N 267.536 -0.106894 1.57237 0
M  V30 2934 C 268.483 -1.13049 2.01217 0
M  V30 2935 C 269.453 -1.40471 0.886403 0
M  V30 2936 O 270.638 -1.52133 1.15153 0
M  V30 2937 C 267.778 -2.4487 2.43172 0
M  V30 2938 C 266.891 -2.24281 3.69218 0
M  V30 2939 C 266.026 -3.49417 4.00101 0
M  V30 2940 C 265.065 -3.24038 5.19294 0
M  V30 2941 N 264.202 -4.41409 5.45988 0
M  V30 2942 H 269.042 -0.748456 2.88448 0
M  V30 2943 H 266.579 -0.358054 1.42676 0
M  V30 2944 H 268.537 -3.21786 2.65537 0
M  V30 2945 H 267.167 -2.80944 1.58967 0
M  V30 2946 H 266.219 -1.38224 3.54398 0
M  V30 2947 H 267.531 -2.01512 4.56283 0
M  V30 2948 H 266.685 -4.34746 4.2318 0
M  V30 2949 H 265.424 -3.75229 3.11535 0
M  V30 2950 H 264.429 -2.37102 4.96047 0
M  V30 2951 H 265.654 -2.99584 6.09447 0
M  V30 2952 H 263.6 -4.67319 4.60379 0
M  V30 2953 H 263.517 -4.21788 6.274 0
M  V30 2954 H 264.785 -5.27836 5.73593 0
M  V30 2955 N 269.014 -1.53014 -0.377408 0
M  V30 2956 C 270.43 -1.42523 -0.718281 0
M  V30 2957 C 270.63 -0.55487 -1.9371 0
M  V30 2958 O 269.686 -0.0327593 -2.52479 0
M  V30 2959 C 270.999 -2.85546 -0.942539 0
M  V30 2960 C 272.547 -2.95101 -1.04329 0
M  V30 2961 C 273.022 -4.3916 -1.3001 0
M  V30 2962 N 274.513 -4.42536 -1.36806 0
M  V30 2963 C 275.248 -5.51097 -1.58364 0
M  V30 2964 N 274.744 -6.69724 -1.77317 0
M  V30 2965 N 276.537 -5.38657 -1.60638 0
M  V30 2966 H 268.688 -2.08116 0.424426 0
M  V30 2967 H 270.951 -0.939352 0.127759 0
M  V30 2968 H 270.657 -3.51499 -0.118929 0
M  V30 2969 H 270.531 -3.28493 -1.85397 0
M  V30 2970 H 272.918 -2.29309 -1.85745 0
M  V30 2971 H 272.999 -2.55566 -0.109505 0
M  V30 2972 H 272.643 -5.05521 -0.490991 0
M  V30 2973 H 272.573 -4.76258 -2.24691 0
M  V30 2974 H 275.064 -3.57039 -1.23821 0
M  V30 2975 H 275.377 -7.48233 -1.93306 0
M  V30 2976 H 273.722 -6.72732 -1.74518 0
M  V30 2977 H 276.913 -4.44948 -1.45391 0
M  V30 2978 H 277.086 -6.2333 -1.77098 0
M  V30 2979 N 270.492 0.636531 -1.44174 0
M  V30 2980 C 271.422 1.76003 -1.53444 0
M  V30 2981 C 272.403 1.65619 -0.387841 0
M  V30 2982 O 273.588 1.84461 -0.607257 0
M  V30 2983 C 270.718 3.14511 -1.4731 0
M  V30 2984 C 269.672 3.39677 -2.60391 0
M  V30 2985 C 268.998 4.78159 -2.39308 0
M  V30 2986 C 270.298 3.32772 -4.02567 0
M  V30 2987 H 271.992 1.68501 -2.47483 0
M  V30 2988 H 269.538 0.809237 -1.19111 0
M  V30 2989 H 271.491 3.92878 -1.52397 0
M  V30 2990 H 270.215 3.22783 -0.49785 0
M  V30 2991 H 268.874 2.63688 -2.54684 0
M  V30 2992 H 268.522 4.83128 -1.39988 0
M  V30 2993 H 268.222 4.95956 -3.15122 0
M  V30 2994 H 269.746 5.58762 -2.46205 0
M  V30 2995 H 271.16 4.01051 -4.09672 0
M  V30 2996 H 269.557 3.62104 -4.7854 0
M  V30 2997 H 270.627 2.30669 -4.2652 0
M  V30 2998 N 271.97 1.30982 0.876444 0
M  V30 2999 C 272.903 1.12414 1.98591 0
M  V30 3000 C 273.881 0.0294078 1.62573 0
M  V30 3001 O 275.065 0.184598 1.87594 0
M  V30 3002 C 272.192 0.716276 3.3104 0
M  V30 3003 C 271.238 1.81311 3.86042 0
M  V30 3004 S 272.071 3.41727 4.1229 0
M  V30 3005 C 273.227 3.02863 5.47745 0
M  V30 3006 H 273.46 2.06338 2.14037 0
M  V30 3007 H 270.993 1.15393 1.02586 0
M  V30 3008 H 272.951 0.487697 4.07593 0
M  V30 3009 H 271.612 -0.203749 3.13438 0
M  V30 3010 H 270.805 1.48021 4.81774 0
M  V30 3011 H 270.407 1.99641 3.16259 0
M  V30 3012 H 272.699 2.51353 6.29148 0
M  V30 3013 H 273.642 3.97533 5.8598 0
M  V30 3014 H 274.05 2.40487 5.10711 0
M  V30 3015 N 273.449 -1.08991 1.13837 0
M  V30 3016 C 274.696 -1.81258 0.902882 0
M  V30 3017 C 275.024 -1.85936 -0.570803 0
M  V30 3018 O 274.279 -1.3267 -1.43865 0
M  V30 3019 C 274.578 -3.27042 1.44147 0
M  V30 3020 C 274.244 -3.4249 2.93276 0
M  V30 3021 C 272.906 -3.46414 3.33992 0
M  V30 3022 C 275.258 -3.4666 3.892 0
M  V30 3023 C 272.586 -3.52091 4.69307 0
M  V30 3024 C 274.938 -3.53872 5.24364 0
M  V30 3025 C 273.602 -3.56066 5.646 0
M  V30 3026 H 272.872 -0.663268 0.330388 0
M  V30 3027 H 275.519 -1.28368 1.42105 0
M  V30 3028 H 273.824 -3.82599 0.844097 0
M  V30 3029 H 275.521 -3.81499 1.23528 0
M  V30 3030 H 272.111 -3.40124 2.60794 0
M  V30 3031 H 276.295 -3.42865 3.58828 0
M  V30 3032 H 271.551 -3.52079 4.9985 0
M  V30 3033 H 275.725 -3.56043 5.98503 0
M  V30 3034 H 273.352 -3.60218 6.69438 0
M  V30 3035 N 274.927 -0.932562 -1.27047 0
M  V30 3036 C 276.343 -0.633544 -1.46487 0
M  V30 3037 C 276.543 0.815746 -1.84249 0
M  V30 3038 O 275.599 1.59319 -1.95892 0
M  V30 3039 C 276.912 -1.58758 -2.55375 0
M  V30 3040 C 278.46 -1.59634 -2.69232 0
M  V30 3041 C 278.935 -2.53747 -3.81283 0
M  V30 3042 N 280.426 -2.51982 -3.88664 0
M  V30 3043 C 281.161 -3.21491 -4.74796 0
M  V30 3044 N 280.657 -4.00395 -5.65381 0
M  V30 3045 N 282.45 -3.10485 -4.68568 0
M  V30 3046 H 274.601 -1.86946 -1.00821 0
M  V30 3047 H 276.864 -0.802897 -0.504044 0
M  V30 3048 H 276.57 -2.62172 -2.34432 0
M  V30 3049 H 276.444 -1.33301 -3.52861 0
M  V30 3050 H 278.831 -0.569488 -2.89553 0
M  V30 3051 H 278.912 -1.89142 -1.72218 0
M  V30 3052 H 278.556 -3.56545 -3.61715 0
M  V30 3053 H 278.486 -2.21532 -4.77735 0
M  V30 3054 H 280.977 -1.94681 -3.23895 0
M  V30 3055 H 281.29 -4.50406 -6.27976 0
M  V30 3056 H 279.635 -4.04498 -5.65161 0
M  V30 3057 H 282.826 -2.48331 -3.96799 0
M  V30 3058 H 282.999 -3.64925 -5.35475 0
M  V30 3059 N 276.405 1.4127 -0.698611 0
M  V30 3060 C 277.654 2.00408 -0.227949 0
M  V30 3061 C 277.967 1.55981 1.18023 0
M  V30 3062 O 279.173 2.07699 1.74852 0
M  V30 3063 C 277.629 3.58129 -0.356636 0
M  V30 3064 C 277.237 4.11536 -1.77037 0
M  V30 3065 C 278.981 4.24466 0.0540969 0
M  V30 3066 C 276.888 5.61701 -1.85055 0
M  V30 3067 H 275.818 0.749586 -0.0814657 0
M  V30 3068 H 278.469 1.61713 -0.867249 0
M  V30 3069 H 276.851 3.94442 0.350965 0
M  V30 3070 H 278.025 3.86636 -2.50698 0
M  V30 3071 H 276.34 3.57736 -2.13105 0
M  V30 3072 H 278.937 5.34698 0.0146723 0
M  V30 3073 H 279.28 4.01687 1.09332 0
M  V30 3074 H 279.813 3.93198 -0.603337 0
M  V30 3075 H 276.552 5.89312 -2.8704 0
M  V30 3076 H 276.072 5.88519 -1.15783 0
M  V30 3077 H 277.751 6.26524 -1.61484 0
M  V30 3078 N 277.883 0.443576 1.51229 0
M  V30 3079 C 278.846 -0.353132 2.26463 0
M  V30 3080 C 279.846 -0.944338 1.3015 0
M  V30 3081 O 281.036 -0.817813 1.5381 0
M  V30 3082 C 278.168 -1.50023 3.06114 0
M  V30 3083 H 279.361 0.3063 2.98332 0
M  V30 3084 H 276.914 0.196902 1.55055 0
M  V30 3085 H 277.649 -2.19553 2.38677 0
M  V30 3086 H 277.434 -1.08241 3.76864 0
M  V30 3087 H 278.924 -2.06296 3.63087 0
M  V30 3088 N 279.361 -1.56624 0.175154 0
M  V30 3089 C 280.294 -2.14 -0.792412 0
M  V30 3090 C 281.272 -1.07114 -1.22333 0
M  V30 3091 O 282.456 -1.35112 -1.31442 0
M  V30 3092 C 279.583 -2.68268 -2.0676 0
M  V30 3093 C 278.629 -3.87562 -1.7804 0
M  V30 3094 S 279.462 -5.27074 -0.946222 0
M  V30 3095 C 280.618 -5.8475 -2.23199 0
M  V30 3096 H 280.851 -2.95736 -0.304588 0
M  V30 3097 H 278.384 -1.54349 -0.0395705 0
M  V30 3098 H 280.342 -3.00182 -2.80002 0
M  V30 3099 H 279.003 -1.86612 -2.52656 0
M  V30 3100 H 278.196 -4.23874 -2.72666 0
M  V30 3101 H 277.798 -3.56555 -1.12891 0
M  V30 3102 H 280.09 -5.97898 -3.18629 0
M  V30 3103 H 281.033 -6.81756 -1.91349 0
M  V30 3104 H 281.441 -5.13198 -2.35134 0
M  V30 3105 N 280.839 0.0985539 -1.57292 0
M  V30 3106 C 282.255 0.45267 -1.53046 0
M  V30 3107 C 282.455 1.80713 -0.891342 0
M  V30 3108 O 281.511 2.4785 -0.482375 0
M  V30 3109 C 282.824 0.418341 -2.97776 0
M  V30 3110 C 284.372 0.500443 -3.08973 0
M  V30 3111 C 284.847 0.496297 -4.55303 0
M  V30 3112 N 286.338 0.557151 -4.59837 0
M  V30 3113 C 287.073 0.575726 -5.70502 0
M  V30 3114 N 286.569 0.550714 -6.90608 0
M  V30 3115 N 288.362 0.620277 -5.58667 0
M  V30 3116 H 280.513 -0.788673 -1.97215 0
M  V30 3117 H 282.776 -0.293188 -0.901524 0
M  V30 3118 H 282.482 -0.509659 -3.47988 0
M  V30 3119 H 282.356 1.2386 -3.56284 0
M  V30 3120 H 284.743 1.41886 -2.58751 0
M  V30 3121 H 284.824 -0.347894 -2.53423 0
M  V30 3122 H 284.468 -0.418162 -5.06176 0
M  V30 3123 H 284.398 1.3618 -5.08687 0
M  V30 3124 H 286.889 0.581816 -3.73394 0
M  V30 3125 H 287.202 0.568075 -7.70709 0
M  V30 3126 H 285.547 0.517816 -6.93068 0
M  V30 3127 H 288.738 0.637322 -4.63741 0
M  V30 3128 H 288.911 0.631283 -6.44918 0
M  V30 3129 N 282.317 1.53212 0.369288 0
M  V30 3130 C 283.566 1.68436 1.10961 0
M  V30 3131 C 283.879 0.440738 1.9057 0
M  V30 3132 O 285.085 0.473446 2.6734 0
M  V30 3133 C 283.541 2.97744 2.0218 0
M  V30 3134 C 283.149 4.29355 1.279 0
M  V30 3135 C 284.893 3.22334 2.76226 0
M  V30 3136 C 282.8 5.49755 2.17999 0
M  V30 3137 H 281.73 0.627568 0.41794 0
M  V30 3138 H 284.381 1.79713 0.370884 0
M  V30 3139 H 282.763 2.8026 2.79768 0
M  V30 3140 H 283.937 4.57458 0.554007 0
M  V30 3141 H 282.252 4.11179 0.657311 0
M  V30 3142 H 284.849 4.09471 3.43857 0
M  V30 3143 H 285.192 2.38238 3.41392 0
M  V30 3144 H 285.725 3.40475 2.05723 0
M  V30 3145 H 282.464 6.36318 1.57417 0
M  V30 3146 H 281.984 5.25937 2.88359 0
M  V30 3147 H 283.663 5.84401 2.77641 0
M  V30 3148 N 283.795 -0.628877 1.44509 0
M  V30 3149 C 284.725 -1.75187 1.54376 0
M  V30 3150 C 285.706 -1.65411 0.396618 0
M  V30 3151 O 286.891 -1.84137 0.617031 0
M  V30 3152 C 284.021 -3.13725 1.48976 0
M  V30 3153 C 282.975 -3.38291 2.62189 0
M  V30 3154 C 282.301 -4.76883 2.41841 0
M  V30 3155 C 283.601 -3.30632 4.04326 0
M  V30 3156 H 285.295 -1.67187 2.48373 0
M  V30 3157 H 282.841 -0.802909 1.19538 0
M  V30 3158 H 284.794 -3.92064 1.54478 0
M  V30 3159 H 283.518 -3.22515 0.514961 0
M  V30 3160 H 282.177 -2.62334 2.56079 0
M  V30 3161 H 281.825 -4.82378 1.42548 0
M  V30 3162 H 281.525 -4.94278 3.17747 0
M  V30 3163 H 283.049 -5.57449 2.49165 0
M  V30 3164 H 284.463 -3.98873 4.11793 0
M  V30 3165 H 282.86 -3.59561 4.80454 0
M  V30 3166 H 283.93 -2.28404 4.27738 0
M  V30 3167 N 285.273 -1.31445 -0.869486 0
M  V30 3168 C 286.203 -1.21727 -1.99261 0
M  V30 3169 C 287.184 -0.104359 -1.6978 0
M  V30 3170 O 288.369 -0.289038 -1.92037 0
M  V30 3171 C 285.499 -0.924317 -3.34774 0
M  V30 3172 C 284.453 -1.99685 -3.78563 0
M  V30 3173 C 283.779 -1.55658 -5.11541 0
M  V30 3174 C 285.079 -3.41003 -3.95619 0
M  V30 3175 H 286.773 -2.1569 -2.07649 0
M  V30 3176 H 284.319 -1.03839 -0.997675 0
M  V30 3177 H 286.272 -0.842934 -4.12883 0
M  V30 3178 H 284.996 0.0509793 -3.2656 0
M  V30 3179 H 283.655 -2.06813 -3.02694 0
M  V30 3180 H 283.303 -0.569132 -4.9977 0
M  V30 3181 H 283.003 -2.27409 -5.41811 0
M  V30 3182 H 284.527 -1.48928 -5.92159 0
M  V30 3183 H 285.941 -3.36547 -4.64122 0
M  V30 3184 H 284.338 -4.10975 -4.37286 0
M  V30 3185 H 285.408 -3.81754 -2.98985 0
M  V30 3186 N 286.751 1.08385 -1.14413 0
M  V30 3187 C 287.999 1.80419 -0.910679 0
M  V30 3188 C 288.32 1.86658 0.564243 0
M  V30 3189 O 287.59 1.35985 1.41014 0
M  V30 3190 H 286.17 0.668204 -0.333934 0
M  V30 3191 H 288.832 1.31037 -1.44275 0
M  V30 3192 H 287.928 2.83238 -1.31082 0
M  V30 3193 N 288.23 0.939286 1.26551 0
M  V30 3194 C 289.47 0.5933 1.956 0
M  V30 3195 C 289.834 -0.851515 1.72085 0
M  V30 3196 O 291.035 -1.30634 2.34921 0
M  V30 3197 C 289.306 0.923996 3.45249 0
M  V30 3198 S 290.865 0.688269 4.33369 0
M  V30 3199 H 287.683 0.218591 0.676564 0
M  V30 3200 H 290.285 1.2102 1.5354 0
M  V30 3201 H 288.989 1.97297 3.59864 0
M  V30 3202 H 288.52 0.296746 3.92279 0
M  V30 3203 H 290.535 -0.448434 4.9417 0
M  V30 3204 N 289.708 -1.40897 0.706093 0
M  V30 3205 C 290.618 -2.3455 0.0482286 0
M  V30 3206 C 291.634 -1.56796 -0.754396 0
M  V30 3207 O 292.81 -1.89228 -0.689538 0
M  V30 3208 C 289.875 -3.35625 -0.869303 0
M  V30 3209 C 288.936 -4.29261 -0.0576994 0
M  V30 3210 C 288.169 -5.25508 -0.931531 0
M  V30 3211 O 288.392 -5.27472 -2.17092 0
M  V30 3212 O 287.326 -6.00727 -0.375587 0
M  V30 3213 H 291.152 -2.92407 0.820476 0
M  V30 3214 H 288.737 -1.4193 0.4665 0
M  V30 3215 H 290.619 -3.97635 -1.39514 0
M  V30 3216 H 289.294 -2.80196 -1.62086 0
M  V30 3217 H 288.201 -3.70566 0.512988 0
M  V30 3218 H 289.534 -4.87817 0.655426 0
M  V30 3219 N 291.186 -0.45159 -1.50991 0
M  V30 3220 C 292.597 0.00818571 -1.86698 0
M  V30 3221 C 292.948 1.40661 -1.3678 0
M  V30 3222 O 292.073 2.0391 -0.724546 0
M  V30 3223 C 292.668 0.0216303 -3.38793 0
M  V30 3224 C 291.227 0.425865 -3.73983 0
M  V30 3225 C 290.374 -0.372163 -2.74791 0
M  V30 3226 H 293.325 -0.666785 -1.44013 0
M  V30 3227 H 293.346 0.828078 -3.7138 0
M  V30 3228 H 292.858 -0.996288 -3.75094 0
M  V30 3229 H 290.959 1.44886 -3.43277 0
M  V30 3230 H 291.072 0.140761 -4.78893 0
M  V30 3231 H 289.436 0.171498 -2.54122 0
M  V30 3232 H 290.219 -1.38922 -3.13935 0
M  V30 3233 N 292.664 1.56529 -0.183458 0
M  V30 3234 C 293.596 2.15747 0.773697 0
M  V30 3235 C 294.609 1.1162 1.1851 0
M  V30 3236 O 295.798 1.3876 1.12285 0
M  V30 3237 C 292.898 2.6952 2.05456 0
M  V30 3238 C 292.071 3.98429 1.8048 0
M  V30 3239 C 291.13 4.37145 2.92901 0
M  V30 3240 O 290.156 5.04791 2.6301 0
M  V30 3241 N 291.358 3.99695 4.2098 0
M  V30 3242 H 294.123 2.98505 0.26736 0
M  V30 3243 H 291.684 1.619 -0.0010878 0
M  V30 3244 H 293.676 2.92412 2.79781 0
M  V30 3245 H 292.246 1.91282 2.47245 0
M  V30 3246 H 291.466 3.8379 0.899947 0
M  V30 3247 H 292.754 4.82597 1.61175 0
M  V30 3248 H 292.152 3.4526 4.48121 0
M  V30 3249 H 290.709 4.27562 4.9197 0
M  V30 3250 N 294.142 -0.090211 1.57342 0
M  V30 3251 C 295.072 -1.10976 2.05443 0
M  V30 3252 C 296.053 -1.41482 0.944284 0
M  V30 3253 O 297.238 -1.51428 1.21586 0
M  V30 3254 C 294.368 -2.42831 2.48295 0
M  V30 3255 C 293.322 -2.26721 3.63018 0
M  V30 3256 C 292.648 -3.63796 3.91863 0
M  V30 3257 C 293.948 -1.7037 4.93732 0
M  V30 3258 H 295.642 -0.709564 2.9087 0
M  V30 3259 H 293.188 -0.339874 1.39932 0
M  V30 3260 H 295.141 -3.14431 2.80555 0
M  V30 3261 H 293.865 -2.84795 1.59873 0
M  V30 3262 H 292.524 -1.57565 3.31012 0
M  V30 3263 H 292.172 -4.03297 3.00601 0
M  V30 3264 H 291.872 -3.53861 4.69101 0
M  V30 3265 H 293.396 -4.36855 4.26603 0
M  V30 3266 H 294.81 -2.31816 5.24342 0
M  V30 3267 H 293.207 -1.71181 5.75167 0
M  V30 3268 H 294.277 -0.663542 4.80339 0
M  V30 3269 N 295.62 -1.53406 -0.361157 0
M  V30 3270 C 296.583 -1.79479 -1.42548 0
M  V30 3271 C 297.583 -0.665327 -1.4639 0
M  V30 3272 O 298.773 -0.933549 -1.47073 0
M  V30 3273 C 295.905 -1.92087 -2.8163 0
M  V30 3274 H 297.098 -2.74538 -1.20701 0
M  V30 3275 H 294.651 -1.4455 -0.594546 0
M  V30 3276 H 295.386 -0.991099 -3.08784 0
M  V30 3277 H 295.171 -2.74241 -2.80239 0
M  V30 3278 H 296.661 -2.13836 -3.58697 0
M  V30 3279 N 297.098 0.621204 -1.44841 0
M  V30 3280 C 298.346 1.37783 -1.47852 0
M  V30 3281 C 298.667 1.94653 -0.116224 0
M  V30 3282 O 297.937 1.76367 0.852737 0
M  V30 3283 H 296.517 0.511453 -0.544449 0
M  V30 3284 H 299.179 0.730446 -1.80694 0
M  V30 3285 H 298.275 2.20414 -2.20961 0
M  V30 3286 N 298.576 1.31904 0.862503 0
M  V30 3287 C 299.853 1.12644 1.59908 0
M  V30 3288 C 300.233 -0.316104 2.0872 0
M  V30 3289 O 299.581 -1.31145 1.87118 0
M  V30 3290 C 299.791 2.1472 2.7513 0
M  V30 3291 C 301.139 2.47637 3.44907 0
M  V30 3292 O 302.163 2.13205 2.85346 0
M  V30 3293 O 301.022 3.06632 4.52371 0
M  V30 3294 H 298.116 0.43416 0.703871 0
M  V30 3295 H 300.662 1.43408 0.907314 0
M  V30 3296 H 299.434 3.1172 2.3653 0
M  V30 3297 H 299.057 1.84905 3.51989 0
M  V30 3298 N 300.054 -1.07777 1.14986 0
M  V30 3299 C 301.302 -1.79934 0.920235 0
M  V30 3300 C 301.623 -1.86955 -0.554336 0
M  V30 3301 O 300.893 -1.36731 -1.40291 0
M  V30 3302 H 299.473 -0.666424 0.337473 0
M  V30 3303 H 302.135 -1.3027 1.44968 0
M  V30 3304 H 301.231 -2.82539 1.32583 0
M  V30 3305 N 301.532 -0.945985 -1.26051 0
M  V30 3306 C 302.809 -0.513816 -1.88731 0
M  V30 3307 C 303.189 1.00872 -1.8544 0
M  V30 3308 O 302.537 1.8708 -1.312 0
M  V30 3309 C 302.747 -1.08062 -3.31849 0
M  V30 3310 C 304.095 -1.1522 -4.08668 0
M  V30 3311 O 305.119 -1.03155 -3.40936 0
M  V30 3312 O 303.978 -1.34044 -5.29806 0
M  V30 3313 H 301.072 -0.168193 -0.809716 0
M  V30 3314 H 303.618 -1.03886 -1.34186 0
M  V30 3315 H 302.39 -2.1241 -3.2863 0
M  V30 3316 H 302.013 -0.538307 -3.93939 0
M  V30 3317 N 303.011 1.40521 -0.713556 0
M  V30 3318 C 304.236 2.05759 -0.26035 0
M  V30 3319 C 304.661 1.53403 1.08854 0
M  V30 3320 O 304.019 0.668535 1.68524 0
M  V30 3321 C 304.067 3.59745 -0.248122 0
M  V30 3322 O 303.171 4.05123 0.77131 0
M  V30 3323 H 302.512 0.652564 -0.122703 0
M  V30 3324 H 305.042 1.79958 -0.973467 0
M  V30 3325 H 305.052 4.07911 -0.0851129 0
M  V30 3326 H 303.727 3.97218 -1.2325 0
M  V30 3327 H 302.304 3.68422 0.57619 0
M  V30 3328 N 304.489 0.459591 1.5075 0
M  V30 3329 C 305.399 -0.34613 2.32033 0
M  V30 3330 C 306.415 -1.00686 1.41909 0
M  V30 3331 O 307.591 -0.997361 1.7497 0
M  V30 3332 C 304.656 -1.42029 3.16273 0
M  V30 3333 C 303.717 -0.777362 4.22203 0
M  V30 3334 C 302.95 -1.80034 5.02418 0
M  V30 3335 O 303.173 -3.02544 4.83553 0
M  V30 3336 O 302.107 -1.37853 5.85901 0
M  V30 3337 H 305.933 0.318054 3.0203 0
M  V30 3338 H 303.518 0.221663 1.47746 0
M  V30 3339 H 305.4 -2.04275 3.68578 0
M  V30 3340 H 304.075 -2.06815 2.49016 0
M  V30 3341 H 302.982 -0.116256 3.73919 0
M  V30 3342 H 304.315 -0.172634 4.91897 0
M  V30 3343 N 305.967 -1.56429 0.191757 0
M  V30 3344 C 306.899 -2.16154 -0.762245 0
M  V30 3345 C 307.912 -1.12247 -1.17917 0
M  V30 3346 O 309.101 -1.39353 -1.11548 0
M  V30 3347 C 306.201 -2.70606 -2.04024 0
M  V30 3348 C 305.374 -3.99381 -1.78364 0
M  V30 3349 C 304.433 -4.38692 -2.90578 0
M  V30 3350 O 303.459 -5.06179 -2.6033 0
M  V30 3351 N 304.661 -4.01922 -4.18854 0
M  V30 3352 H 307.426 -2.98643 -0.251526 0
M  V30 3353 H 304.987 -1.61897 0.00967373 0
M  V30 3354 H 306.979 -2.93891 -2.78227 0
M  V30 3355 H 305.549 -1.9259 -2.46227 0
M  V30 3356 H 304.769 -3.84262 -0.879581 0
M  V30 3357 H 306.057 -4.83445 -1.58614 0
M  V30 3358 H 305.455 -3.47631 -4.46283 0
M  V30 3359 H 304.012 -4.30165 -4.89695 0
M  V30 3360 N 307.445 0.0818655 -1.57387 0
M  V30 3361 C 308.377 1.12484 -1.997 0
M  V30 3362 C 309.39 1.35564 -0.90146 0
M  V30 3363 O 310.579 1.33982 -1.17945 0
M  V30 3364 C 307.679 2.47778 -2.31213 0
M  V30 3365 C 306.852 2.44793 -3.62485 0
M  V30 3366 C 305.911 3.62117 -3.81782 0
M  V30 3367 O 304.937 3.44005 -4.53486 0
M  V30 3368 N 306.139 4.82094 -3.23367 0
M  V30 3369 H 308.904 0.764585 -2.89783 0
M  V30 3370 H 306.465 0.270664 -1.59621 0
M  V30 3371 H 308.457 3.24891 -2.41304 0
M  V30 3372 H 307.027 2.75843 -1.4707 0
M  V30 3373 H 306.247 1.53134 -3.6324 0
M  V30 3374 H 307.535 2.39889 -4.48699 0
M  V30 3375 H 306.933 4.99713 -2.65148 0
M  V30 3376 H 305.49 5.56753 -3.38923 0
M  V30 3377 N 308.923 1.53595 0.353017 0
M  V30 3378 C 309.853 1.83902 1.43883 0
M  V30 3379 C 310.834 0.693421 1.55324 0
M  V30 3380 O 312.019 0.944452 1.69687 0
M  V30 3381 C 309.149 2.04016 2.8106 0
M  V30 3382 C 308.103 3.19814 2.84434 0
M  V30 3383 C 307.429 3.25244 4.24406 0
M  V30 3384 C 308.729 4.58133 2.50822 0
M  V30 3385 H 310.423 2.74835 1.1877 0
M  V30 3386 H 307.969 1.32242 0.569917 0
M  V30 3387 H 309.922 2.238 3.57059 0
M  V30 3388 H 308.646 1.09804 3.07588 0
M  V30 3389 H 307.305 2.9987 2.10887 0
M  V30 3390 H 306.953 2.28646 4.48029 0
M  V30 3391 H 306.653 4.03054 4.27576 0
M  V30 3392 H 308.177 3.47228 5.0226 0
M  V30 3393 H 309.591 4.77995 3.16534 0
M  V30 3394 H 307.988 5.38276 2.6529 0
M  V30 3395 H 309.058 4.62387 1.46034 0
M  V30 3396 N 310.401 -0.613514 1.45168 0
M  V30 3397 C 311.647 -1.37471 1.49096 0
M  V30 3398 C 311.98 -1.93765 0.129901 0
M  V30 3399 O 311.255 -1.74707 -0.854858 0
M  V30 3400 C 311.538 -2.52701 2.56542 0
M  V30 3401 C 311.391 -2.01643 4.0207 0
M  V30 3402 C 312.71 -3.54849 2.60327 0
M  V30 3403 H 309.829 -0.498502 0.54283 0
M  V30 3404 H 312.471 -0.692125 1.76945 0
M  V30 3405 H 310.621 -3.10931 2.32926 0
M  V30 3406 H 312.293 -1.48108 4.36877 0
M  V30 3407 H 310.536 -1.32688 4.13009 0
M  V30 3408 H 311.207 -2.84681 4.72928 0
M  V30 3409 H 313.683 -3.0645 2.81474 0
M  V30 3410 H 312.559 -4.32973 3.37381 0
M  V30 3411 H 312.82 -4.10079 1.6519 0
M  V30 3412 N 311.879 -1.3236 -0.855495 0
M  V30 3413 C 312.789 -1.23221 -1.99634 0
M  V30 3414 C 313.805 -0.145983 -1.73387 0
M  V30 3415 O 314.981 -0.366502 -1.98037 0
M  V30 3416 C 312.046 -0.954782 -3.33294 0
M  V30 3417 C 311.107 -2.12937 -3.72769 0
M  V30 3418 C 310.34 -1.86508 -5.00051 0
M  V30 3419 O 310.563 -0.807231 -5.64659 0
M  V30 3420 O 309.497 -2.72591 -5.36636 0
M  V30 3421 H 313.323 -2.19126 -2.1028 0
M  V30 3422 H 310.908 -1.12241 -0.986018 0
M  V30 3423 H 312.79 -0.816519 -4.13414 0
M  V30 3424 H 311.465 -0.0258854 -3.2369 0
M  V30 3425 H 310.372 -2.3231 -2.93228 0
M  V30 3426 H 311.705 -3.04102 -3.87018 0
M  V30 3427 N 313.357 1.07166 -1.15556 0
M  V30 3428 C 314.32 2.12589 -0.856644 0
M  V30 3429 C 315.32 1.6015 0.14444 0
M  V30 3430 O 316.51 1.7399 -0.0854163 0
M  V30 3431 C 313.642 3.39753 -0.279405 0
M  V30 3432 H 314.835 2.40539 -1.79112 0
M  V30 3433 H 312.388 1.23086 -0.963298 0
M  V30 3434 H 313.123 3.17447 0.663174 0
M  V30 3435 H 312.908 3.79117 -1.00063 0
M  V30 3436 H 314.398 4.17507 -0.0879113 0
M  V30 3437 N 314.835 0.952656 1.25548 0
M  V30 3438 C 316.082 0.606373 1.93208 0
M  V30 3439 C 316.41 -0.85631 1.74636 0
M  V30 3440 O 315.665 -1.62951 1.08376 0
M  V30 3441 C 315.964 0.908818 3.45652 0
M  V30 3442 C 315.63 2.35722 3.84378 0
M  V30 3443 C 314.292 2.75312 3.9466 0
M  V30 3444 C 316.644 3.29793 4.03591 0
M  V30 3445 C 313.972 4.08047 4.21562 0
M  V30 3446 C 316.324 4.62138 4.31985 0
M  V30 3447 C 314.988 5.01528 4.40484 0
M  V30 3448 H 314.258 0.221888 0.706998 0
M  V30 3449 H 316.905 1.20132 1.49133 0
M  V30 3450 H 315.21 0.231456 3.91116 0
M  V30 3451 H 316.907 0.619498 3.96186 0
M  V30 3452 H 313.497 2.04017 3.76928 0
M  V30 3453 H 317.681 3.00397 3.95064 0
M  V30 3454 H 312.937 4.38212 4.26357 0
M  V30 3455 H 317.111 5.35012 4.45797 0
M  V30 3456 H 314.738 6.04406 4.61083 0
M  V30 3457 N 316.313 -1.40141 0.720998 0
M  V30 3458 C 317.223 -2.34486 0.0731031 0
M  V30 3459 C 318.239 -1.57587 -0.737723 0
M  V30 3460 O 319.415 -1.89949 -0.669429 0
M  V30 3461 C 316.48 -3.36528 -0.833656 0
M  V30 3462 C 315.541 -4.29298 -0.0121673 0
M  V30 3463 C 314.774 -5.26466 -0.875742 0
M  V30 3464 O 314.997 -5.29745 -2.11485 0
M  V30 3465 O 313.931 -6.01092 -0.31185 0
M  V30 3466 H 317.757 -2.9152 0.851444 0
M  V30 3467 H 315.342 -1.41427 0.481527 0
M  V30 3468 H 317.224 -3.99093 -1.35289 0
M  V30 3469 H 315.899 -2.81899 -1.59105 0
M  V30 3470 H 314.806 -3.70001 0.552262 0
M  V30 3471 H 316.139 -4.87094 0.707129 0
M  V30 3472 N 317.792 -0.46758 -1.50504 0
M  V30 3473 C 318.702 0.33382 -2.32213 0
M  V30 3474 C 319.718 0.999323 -1.42441 0
M  V30 3475 O 320.894 0.988068 -1.75497 0
M  V30 3476 C 317.959 1.4035 -3.17022 0
M  V30 3477 C 317.02 0.754961 -4.2261 0
M  V30 3478 C 316.253 1.77367 -5.03365 0
M  V30 3479 O 316.476 2.99976 -4.8515 0
M  V30 3480 O 315.41 1.34744 -5.86624 0
M  V30 3481 H 319.236 -0.334067 -3.01857 0
M  V30 3482 H 316.821 -0.229496 -1.47627 0
M  V30 3483 H 318.703 2.02318 -3.69656 0
M  V30 3484 H 317.378 2.05492 -2.5011 0
M  V30 3485 H 316.285 0.0964244 -3.73976 0
M  V30 3486 H 317.618 0.146545 -4.91982 0
M  V30 3487 N 319.27 1.56325 -0.20005 0
M  V30 3488 C 320.203 2.15234 0.758267 0
M  V30 3489 C 321.181 1.09046 1.20614 0
M  V30 3490 O 322.365 1.37186 1.29276 0
M  V30 3491 C 319.492 2.71524 2.02466 0
M  V30 3492 C 318.538 3.90345 1.71852 0
M  V30 3493 S 319.371 5.28513 0.862249 0
M  V30 3494 C 320.527 5.88227 2.13868 0
M  V30 3495 H 320.76 2.96183 0.2575 0
M  V30 3496 H 318.293 1.54393 0.0150099 0
M  V30 3497 H 320.251 3.04598 2.75191 0
M  V30 3498 H 318.912 1.90607 2.49655 0
M  V30 3499 H 318.105 4.28158 2.65888 0
M  V30 3500 H 317.707 3.58306 1.07205 0
M  V30 3501 H 319.999 6.02891 3.09076 0
M  V30 3502 H 320.942 6.84714 1.80479 0
M  V30 3503 H 321.35 5.16874 2.2694 0
M  V30 3504 N 320.748 -0.0735177 1.57428 0
M  V30 3505 C 321.976 -0.785969 1.9139 0
M  V30 3506 C 322.391 -1.71207 0.795847 0
M  V30 3507 O 321.748 -1.81033 -0.230915 0
M  V30 3508 C 321.799 -1.58107 3.25091 0
M  V30 3509 O 321.52 -0.6922 4.32597 0
M  V30 3510 C 323.021 -2.39467 3.73055 0
M  V30 3511 H 320.241 -0.223558 0.632663 0
M  V30 3512 H 322.785 -0.044302 2.04452 0
M  V30 3513 H 320.94 -2.27503 3.13562 0
M  V30 3514 H 321.354 -1.24504 5.09508 0
M  V30 3515 H 322.828 -2.90716 4.69242 0
M  V30 3516 H 323.305 -3.18913 3.01979 0
M  V30 3517 H 323.911 -1.7523 3.87523 0
M  V30 3518 N 322.226 -1.5378 -0.344866 0
M  V30 3519 C 323.642 -1.44015 -0.687888 0
M  V30 3520 C 323.842 -0.595834 -1.92489 0
M  V30 3521 O 322.898 -0.0863064 -2.52352 0
M  V30 3522 C 324.211 -2.87481 -0.881758 0
M  V30 3523 C 325.759 -2.97247 -0.980459 0
M  V30 3524 C 326.234 -4.41819 -1.20665 0
M  V30 3525 N 327.725 -4.45339 -1.27389 0
M  V30 3526 C 328.46 -5.54333 -1.46639 0
M  V30 3527 N 327.956 -6.73335 -1.63071 0
M  V30 3528 N 329.749 -5.41944 -1.49176 0
M  V30 3529 H 321.9 -2.07169 0.468475 0
M  V30 3530 H 324.163 -0.93643 0.147655 0
M  V30 3531 H 323.869 -3.51672 -0.0443444 0
M  V30 3532 H 323.743 -3.32352 -1.78388 0
M  V30 3533 H 326.13 -2.33197 -1.8084 0
M  V30 3534 H 326.211 -2.5574 -0.0552713 0
M  V30 3535 H 325.855 -5.06449 -0.383652 0
M  V30 3536 H 325.785 -4.80917 -2.14539 0
M  V30 3537 H 328.276 -3.59585 -1.1622 0
M  V30 3538 H 328.589 -7.52165 -1.77391 0
M  V30 3539 H 326.934 -6.76282 -1.60209 0
M  V30 3540 H 330.125 -4.47932 -1.3592 0
M  V30 3541 H 330.298 -6.26946 -1.63837 0
M  V30 3542 N 323.704 0.605807 -1.45491 0
M  V30 3543 C 324.652 1.73754 -1.54636 0
M  V30 3544 C 325.646 1.64207 -0.416219 0
M  V30 3545 O 326.852 1.69979 -0.592199 0
M  V30 3546 H 323.227 0.574073 -0.485741 0
M  V30 3547 H 325.198 1.63169 -2.49837 0
M  V30 3548 C 323.947 3.12135 -1.53189 0
M  V30 3549 H 323.27 3.20141 -2.39478 0
M  V30 3550 H 324.71 3.91147 -1.63645 0
M  V30 3551 C 323.169 3.35921 -0.256616 0
M  V30 3552 O 323.699 3.96194 0.662798 0
M  V30 3553 N 321.905 2.90204 -0.151751 0
M  V30 3554 H 321.452 2.41336 -0.90081 0
M  V30 3555 H 321.41 3.06492 0.700699 0
M  V30 3556 N 325.182 1.32811 0.848464 0
M  V30 3557 C 326.112 1.24882 1.97299 0
M  V30 3558 C 327.093 0.131357 1.69592 0
M  V30 3559 O 328.278 0.319553 1.91553 0
M  V30 3560 C 325.408 0.97746 3.33261 0
M  V30 3561 C 324.362 2.05682 3.75338 0
M  V30 3562 C 323.688 1.63777 5.09 0
M  V30 3563 C 324.988 3.47254 3.90144 0
M  V30 3564 H 326.682 2.18966 2.04191 0
M  V30 3565 H 324.228 1.05413 0.981029 0
M  V30 3566 H 326.181 0.908513 4.1149 0
M  V30 3567 H 324.905 0.000980011 3.266 0
M  V30 3568 H 323.564 2.11603 2.99366 0
M  V30 3569 H 323.212 0.648569 4.98801 0
M  V30 3570 H 322.912 2.36 5.38124 0
M  V30 3571 H 324.436 1.5833 5.89715 0
M  V30 3572 H 325.85 3.43888 4.58709 0
M  V30 3573 H 324.247 4.1788 4.30693 0
M  V30 3574 H 325.317 3.86462 2.92874 0
M  V30 3575 N 326.66 -1.06551 1.16123 0
M  V30 3576 C 327.907 -1.79302 0.941126 0
M  V30 3577 C 328.235 -1.87105 -0.531235 0
M  V30 3578 O 327.49 -1.35692 -1.41018 0
M  V30 3579 C 327.789 -3.23911 1.51052 0
M  V30 3580 C 327.455 -3.36193 3.00475 0
M  V30 3581 C 326.117 -3.39252 3.41265 0
M  V30 3582 C 328.469 -3.38326 3.96465 0
M  V30 3583 C 325.797 -3.42057 4.76669 0
M  V30 3584 C 328.149 -3.4267 5.31752 0
M  V30 3585 C 326.813 -3.4401 5.72026 0
M  V30 3586 H 326.083 -0.656111 0.344382 0
M  V30 3587 H 328.73 -1.25325 1.44796 0
M  V30 3588 H 327.035 -3.80723 0.925063 0
M  V30 3589 H 328.732 -3.78793 1.31593 0
M  V30 3590 H 325.322 -3.34516 2.6795 0
M  V30 3591 H 329.506 -3.35176 3.6602 0
M  V30 3592 H 324.762 -3.41398 5.07206 0
M  V30 3593 H 328.936 -3.43268 6.05921 0
M  V30 3594 H 326.563 -3.45937 6.76928 0
M  V30 3595 N 328.138 -0.959301 -1.25041 0
M  V30 3596 C 329.363 -0.633507 -1.97488 0
M  V30 3597 C 329.788 0.788555 -1.70773 0
M  V30 3598 O 329.146 1.53394 -0.966431 0
M  V30 3599 C 329.194 -0.904057 -3.49083 0
M  V30 3600 O 328.298 0.0147939 -4.12397 0
M  V30 3601 H 327.639 -0.240368 -0.618966 0
M  V30 3602 H 330.169 -1.28717 -1.59038 0
M  V30 3603 H 330.179 -0.832203 -3.99423 0
M  V30 3604 H 328.854 -1.94048 -3.67856 0
M  V30 3605 H 327.431 -0.109664 -3.72739 0
M  V30 3606 N 329.616 1.39756 -0.72842 0
M  V30 3607 C 330.546 2.33289 -0.0991354 0
M  V30 3608 C 331.527 1.53568 0.731489 0
M  V30 3609 O 332.712 1.81987 0.677807 0
M  V30 3610 C 329.842 3.3763 0.813834 0
M  V30 3611 C 328.796 4.2791 0.0878663 0
M  V30 3612 C 328.122 5.22894 1.11741 0
M  V30 3613 C 329.422 5.11314 -1.06563 0
M  V30 3614 H 331.116 2.86163 -0.880408 0
M  V30 3615 H 328.662 1.37591 -0.424819 0
M  V30 3616 H 330.615 4.0201 1.26355 0
M  V30 3617 H 329.339 2.83181 1.62715 0
M  V30 3618 H 327.998 3.65 -0.342159 0
M  V30 3619 H 327.646 4.64744 1.92412 0
M  V30 3620 H 327.346 5.84143 0.636477 0
M  V30 3621 H 328.87 5.90151 1.56697 0
M  V30 3622 H 330.284 5.69076 -0.694671 0
M  V30 3623 H 328.681 5.81671 -1.47577 0
M  V30 3624 H 329.751 4.46534 -1.89038 0
M  V30 3625 N 331.094 0.475555 1.50254 0
M  V30 3626 C 332.505 0.0215174 1.86688 0
M  V30 3627 C 332.856 -1.38467 1.39001 0
M  V30 3628 O 331.981 -2.02732 0.756894 0
M  V30 3629 C 332.576 0.0322715 3.38785 0
M  V30 3630 C 331.135 -0.366314 3.74613 0
M  V30 3631 C 330.282 0.415832 2.74164 0
M  V30 3632 H 333.233 0.689612 1.42934 0
M  V30 3633 H 333.254 -0.76889 3.7265 0
M  V30 3634 H 332.766 1.05584 3.73462 0
M  V30 3635 H 330.867 -1.39406 3.45538 0
M  V30 3636 H 330.98 -0.064555 4.79057 0
M  V30 3637 H 329.344 -0.131048 2.54363 0
M  V30 3638 H 330.127 1.43899 3.11686 0
M  V30 3639 N 332.573 -1.56217 0.208337 0
M  V30 3640 C 333.822 -1.97124 -0.427204 0
M  V30 3641 C 334.135 -1.09859 -1.61835 0
M  V30 3642 O 335.341 -1.40606 -2.32255 0
M  V30 3643 C 333.797 -3.50633 -0.811442 0
M  V30 3644 C 333.405 -4.46582 0.35615 0
M  V30 3645 C 335.149 -4.00282 -1.41332 0
M  V30 3646 C 333.056 -5.91379 -0.0497852 0
M  V30 3647 H 331.986 -0.736086 -0.163381 0
M  V30 3648 H 334.637 -1.8099 0.302456 0
M  V30 3649 H 333.019 -3.62319 -1.59815 0
M  V30 3650 H 334.193 -4.46636 1.1337 0
M  V30 3651 H 332.508 -4.07202 0.870396 0
M  V30 3652 H 335.105 -5.0595 -1.72972 0
M  V30 3653 H 335.448 -3.45359 -2.32449 0
M  V30 3654 H 335.981 -3.91764 -0.690323 0
M  V30 3655 H 332.72 -6.50255 0.827529 0
M  V30 3656 H 332.24 -5.94549 -0.791926 0
M  V30 3657 H 333.919 -6.45209 -0.481042 0
M  V30 3658 N 334.051 0.0651679 -1.57465 0
M  V30 3659 C 335.328 0.79644 -1.78651 0
M  V30 3660 C 335.708 1.95454 -0.797566 0
M  V30 3661 O 335.056 2.27882 0.167946 0
M  V30 3662 C 335.266 1.26322 -3.25337 0
M  V30 3663 C 336.614 1.6939 -3.89348 0
M  V30 3664 O 337.638 1.35872 -3.29268 0
M  V30 3665 O 336.497 2.31471 -4.95059 0
M  V30 3666 H 333.591 0.382157 -0.733407 0
M  V30 3667 H 336.137 0.0447311 -1.69641 0
M  V30 3668 H 334.909 0.434859 -3.88876 0
M  V30 3669 H 334.532 2.07604 -3.39096 0
M  V30 3670 N 335.529 1.53961 0.336706 0
M  V30 3671 C 336.775 1.7179 1.07777 0
M  V30 3672 C 337.108 0.483263 1.88091 0
M  V30 3673 O 336.383 -0.519747 1.87427 0
M  V30 3674 C 336.666 2.98558 2.01334 0
M  V30 3675 C 336.519 4.32245 1.24437 0
M  V30 3676 C 337.838 3.21023 3.01052 0
M  V30 3677 H 334.957 0.625089 0.390426 0
M  V30 3678 H 337.599 1.86641 0.35567 0
M  V30 3679 H 335.749 2.86028 2.62908 0
M  V30 3680 H 337.421 4.56637 0.654243 0
M  V30 3681 H 335.664 4.30344 0.546458 0
M  V30 3682 H 336.335 5.17137 1.93063 0
M  V30 3683 H 338.811 3.32929 2.49595 0
M  V30 3684 H 337.687 4.11104 3.6371 0
M  V30 3685 H 337.948 2.37637 3.72802 0
M  V30 3686 N 337.007 -0.598083 1.45811 0
M  V30 3687 C 338.418 -1.18011 1.44673 0
M  V30 3688 C 338.769 -1.95378 0.179364 0
M  V30 3689 O 337.894 -2.04124 -0.718509 0
M  V30 3690 C 338.489 -2.14677 2.62105 0
M  V30 3691 C 337.048 -2.68236 2.64057 0
M  V30 3692 C 336.195 -1.43816 2.37091 0
M  V30 3693 H 339.146 -0.38686 1.53913 0
M  V30 3694 H 339.167 -2.97878 2.36746 0
M  V30 3695 H 338.679 -1.5834 3.5433 0
M  V30 3696 H 336.78 -3.28486 1.75864 0
M  V30 3697 H 336.893 -3.12021 3.63566 0
M  V30 3698 H 335.257 -1.731 1.86838 0
M  V30 3699 H 336.04 -0.893333 3.31473 0
M  V30 3700 N 338.485 -1.33259 -0.841409 0
M  V30 3701 C 339.732 -1.24572 -1.5965 0
M  V30 3702 C 340.06 0.189137 -1.93578 0
M  V30 3703 O 339.315 1.14566 -1.5866 0
M  V30 3704 C 339.614 -2.06381 -2.9179 0
M  V30 3705 C 339.28 -3.556 -2.77235 0
M  V30 3706 C 337.942 -3.96282 -2.72973 0
M  V30 3707 C 340.294 -4.50433 -2.62221 0
M  V30 3708 C 337.622 -5.30017 -2.51592 0
M  V30 3709 C 339.974 -5.84327 -2.42374 0
M  V30 3710 C 338.638 -6.24194 -2.36512 0
M  V30 3711 H 337.908 -0.455842 -0.5842 0
M  V30 3712 H 340.555 -1.6482 -0.975016 0
M  V30 3713 H 338.86 -1.58903 -3.5813 0
M  V30 3714 H 340.557 -1.97019 -3.49263 0
M  V30 3715 H 337.147 -3.23298 -2.81384 0
M  V30 3716 H 341.331 -4.19914 -2.64549 0
M  V30 3717 H 336.587 -5.59947 -2.45499 0
M  V30 3718 H 340.761 -6.57414 -2.29739 0
M  V30 3719 H 338.388 -7.27759 -2.19706 0
M  V30 3720 N 339.963 1.05934 -1.16686 0
M  V30 3721 C 341.188 1.83029 -0.975455 0
M  V30 3722 C 341.613 1.82096 0.471452 0
M  V30 3723 O 340.971 1.22443 1.33706 0
M  V30 3724 C 341.019 3.27372 -1.51195 0
M  V30 3725 O 340.123 4.06054 -0.720701 0
M  V30 3726 H 339.464 0.566194 -0.346872 0
M  V30 3727 H 341.994 1.33541 -1.55009 0
M  V30 3728 H 342.004 3.78186 -1.53099 0
M  V30 3729 H 340.679 3.27366 -2.56523 0
M  V30 3730 H 339.256 3.64812 -0.772458 0
M  V30 3731 N 341.441 0.965919 1.2453 0
M  V30 3732 C 342.689 0.625593 1.92174 0
M  V30 3733 C 343.01 -0.841652 1.75901 0
M  V30 3734 O 342.28 -1.60061 1.12948 0
M  V30 3735 H 340.86 0.228388 0.71123 0
M  V30 3736 H 343.522 1.2266 1.51461 0
M  V30 3737 H 342.618 0.864653 2.99884 0
M  V30 3738 N 342.919 -1.39368 0.735821 0
M  V30 3739 C 343.849 -2.33234 0.111506 0
M  V30 3740 C 344.83 -1.53954 -0.723334 0
M  V30 3741 O 346.015 -1.82344 -0.668147 0
M  V30 3742 C 343.145 -3.38057 -0.795917 0
M  V30 3743 C 342.099 -4.2795 -0.065172 0
M  V30 3744 C 341.425 -5.23479 -1.08967 0
M  V30 3745 C 342.725 -5.10741 1.09273 0
M  V30 3746 H 344.419 -2.85692 0.895571 0
M  V30 3747 H 341.965 -1.37364 0.432109 0
M  V30 3748 H 343.918 -4.02675 -1.24221 0
M  V30 3749 H 342.642 -2.8404 -1.61211 0
M  V30 3750 H 341.301 -3.64813 0.361511 0
M  V30 3751 H 340.949 -4.65758 -1.89944 0
M  V30 3752 H 340.649 -5.84472 -0.605489 0
M  V30 3753 H 342.173 -5.90974 -1.53565 0
M  V30 3754 H 343.587 -5.68699 0.724841 0
M  V30 3755 H 341.984 -5.8088 1.50659 0
M  V30 3756 H 343.054 -4.45525 1.91404 0
M  V30 3757 N 344.397 -0.483516 -1.5 0
M  V30 3758 C 345.627 0.0643896 -2.065 0
M  V30 3759 C 346.035 1.32949 -1.34615 0
M  V30 3760 O 345.378 1.79003 -0.412756 0
M  V30 3761 C 345.44 0.405983 -3.572 0
M  V30 3762 C 345.104 -0.758875 -4.50655 0
M  V30 3763 C 346.101 -1.64445 -4.93208 0
M  V30 3764 C 343.786 -0.952725 -4.93182 0
M  V30 3765 C 345.78 -2.70818 -5.77006 0
M  V30 3766 C 343.467 -2.01966 -5.76761 0
M  V30 3767 C 344.465 -2.89574 -6.18576 0
M  V30 3768 O 344.153 -3.94429 -7.00486 0
M  V30 3769 H 343.885 -0.00934786 -0.675935 0
M  V30 3770 H 346.439 -0.674959 -1.93993 0
M  V30 3771 H 344.669 1.19869 -3.67652 0
M  V30 3772 H 346.358 0.890433 -3.96013 0
M  V30 3773 H 347.124 -1.50643 -4.61012 0
M  V30 3774 H 343.003 -0.280247 -4.60147 0
M  V30 3775 H 346.547 -3.3923 -6.09565 0
M  V30 3776 H 342.444 -2.1577 -6.0837 0
M  V30 3777 H 343.212 -3.91568 -7.1876 0
M  V30 3778 N 345.875 1.56104 -0.216619 0
M  V30 3779 C 347.291 1.58995 0.13886 0
M  V30 3780 C 347.491 1.23333 1.59346 0
M  V30 3781 O 346.547 0.966234 2.33281 0
M  V30 3782 C 347.86 3.00143 -0.182968 0
M  V30 3783 C 349.408 3.12751 -0.124807 0
M  V30 3784 C 349.883 4.56068 -0.420241 0
M  V30 3785 N 351.374 4.61723 -0.369634 0
M  V30 3786 C 352.109 5.70542 -0.571789 0
M  V30 3787 N 351.605 6.87744 -0.835453 0
M  V30 3788 N 353.398 5.59831 -0.504563 0
M  V30 3789 H 345.549 1.77562 -1.16557 0
M  V30 3790 H 347.812 0.825091 -0.466828 0
M  V30 3791 H 347.518 3.30871 -1.19237 0
M  V30 3792 H 347.392 3.73813 0.504367 0
M  V30 3793 H 349.779 2.81822 0.875223 0
M  V30 3794 H 349.86 2.41421 -0.845544 0
M  V30 3795 H 349.504 4.87713 -1.41769 0
M  V30 3796 H 349.434 5.25617 0.321631 0
M  V30 3797 H 351.925 3.77502 -0.173338 0
M  V30 3798 H 352.238 7.66587 -0.977938 0
M  V30 3799 H 350.583 6.895 -0.872592 0
M  V30 3800 H 353.774 4.67145 -0.298842 0
M  V30 3801 H 353.947 6.44573 -0.665519 0
M  V30 3802 N 347.353 -0.0568162 1.57498 0
M  V30 3803 C 348.601 -0.751617 1.87604 0
M  V30 3804 C 348.922 -1.77351 0.81066 0
M  V30 3805 O 348.192 -1.95254 -0.159018 0
M  V30 3806 H 346.772 -0.280583 0.692302 0
M  V30 3807 H 349.434 -0.0293483 1.94878 0
M  V30 3808 H 348.53 -1.25852 2.856 0
M  V30 3809 N 348.832 -1.54138 -0.328536 0
M  V30 3810 C 349.765 -1.78014 -1.4278 0
M  V30 3811 C 350.743 -0.629889 -1.49904 0
M  V30 3812 O 351.927 -0.866763 -1.6739 0
M  V30 3813 C 349.054 -1.89225 -2.80912 0
M  V30 3814 C 348.1 -3.11483 -2.91343 0
M  V30 3815 S 348.933 -4.70201 -2.56263 0
M  V30 3816 C 350.089 -4.84312 -3.96476 0
M  V30 3817 H 350.322 -2.70974 -1.22313 0
M  V30 3818 H 347.855 -1.45197 -0.525084 0
M  V30 3819 H 349.813 -1.9637 -3.60485 0
M  V30 3820 H 348.474 -0.972518 -2.98665 0
M  V30 3821 H 347.667 -3.16046 -3.92595 0
M  V30 3822 H 347.269 -3.02642 -2.19736 0
M  V30 3823 H 349.561 -4.66643 -4.91173 0
M  V30 3824 H 350.504 -5.86411 -3.96898 0
M  V30 3825 H 350.912 -4.12652 -3.85199 0
M  V30 3826 N 350.31 0.590341 -1.46126 0
M  V30 3827 C 351.257 1.69994 -1.56111 0
M  V30 3828 C 352.227 1.61065 -0.405867 0
M  V30 3829 O 353.412 1.8039 -0.621613 0
M  V30 3830 C 350.552 3.08326 -1.55013 0
M  V30 3831 C 349.665 3.27936 -2.81215 0
M  V30 3832 C 348.8 4.56473 -2.71673 0
M  V30 3833 C 347.839 4.694 -3.92849 0
M  V30 3834 N 346.976 5.89254 -3.81738 0
M  V30 3835 H 351.816 1.60797 -2.50895 0
M  V30 3836 H 349.353 0.783799 -1.24479 0
M  V30 3837 H 351.311 3.88383 -1.52362 0
M  V30 3838 H 349.941 3.16439 -0.637667 0
M  V30 3839 H 348.993 2.41536 -2.93879 0
M  V30 3840 H 350.305 3.33357 -3.71045 0
M  V30 3841 H 349.459 5.44748 -2.67085 0
M  V30 3842 H 348.198 4.53477 -1.7947 0
M  V30 3843 H 347.203 3.79544 -3.97777 0
M  V30 3844 H 348.428 4.7418 -4.86138 0
M  V30 3845 H 346.374 5.87271 -2.92317 0
M  V30 3846 H 346.291 5.95911 -4.65217 0
M  V30 3847 H 347.559 6.79981 -3.81112 0
M  V30 3848 N 351.788 1.33704 0.83433 0
M  V30 3849 C 352.751 1.24244 1.92603 0
M  V30 3850 C 353.751 0.160383 1.59998 0
M  V30 3851 O 354.941 0.412228 1.69252 0
M  V30 3852 C 352.073 0.91555 3.28376 0
M  V30 3853 H 353.266 2.21287 2.02416 0
M  V30 3854 H 350.819 1.17827 1.02696 0
M  V30 3855 H 351.554 -0.0521886 3.24258 0
M  V30 3856 H 351.339 1.69811 3.53422 0
M  V30 3857 H 352.829 0.874231 4.08347 0
M  V30 3858 N 353.266 -1.05314 1.17247 0
M  V30 3859 C 354.682 -1.30452 0.919473 0
M  V30 3860 C 354.882 -1.9703 -0.42209 0
M  V30 3861 O 353.938 -2.24311 -1.15935 0
M  V30 3862 C 355.251 -2.17551 2.07586 0
M  V30 3863 C 356.799 -2.30937 2.11275 0
M  V30 3864 C 357.274 -3.21396 3.26296 0
M  V30 3865 N 358.765 -3.28981 3.26076 0
M  V30 3866 C 359.5 -3.99095 4.11716 0
M  V30 3867 N 358.996 -4.71648 5.07465 0
M  V30 3868 N 360.789 -3.95247 3.9967 0
M  V30 3869 H 352.94 -0.604988 2.03602 0
M  V30 3870 H 355.203 -0.329368 0.888944 0
M  V30 3871 H 354.909 -1.75921 3.0454 0
M  V30 3872 H 354.783 -3.18182 2.02584 0
M  V30 3873 H 357.17 -2.71809 1.14907 0
M  V30 3874 H 357.251 -1.2994 2.20339 0
M  V30 3875 H 356.895 -2.81238 4.22927 0
M  V30 3876 H 356.825 -4.22395 3.14467 0
M  V30 3877 H 359.316 -2.77286 2.5675 0
M  V30 3878 H 359.629 -5.22705 5.6921 0
M  V30 3879 H 357.974 -4.70594 5.11435 0
M  V30 3880 H 361.165 -3.37691 3.24164 0
M  V30 3881 H 361.338 -4.4962 4.66632 0
M  V30 3882 N 354.744 -0.972509 -1.24016 0
M  V30 3883 C 355.692 -0.498562 -2.27194 0
M  V30 3884 C 356.686 0.440372 -1.63576 0
M  V30 3885 O 357.892 0.315133 -1.7722 0
M  V30 3886 H 354.267 -0.142775 -0.738322 0
M  V30 3887 H 356.238 -1.38065 -2.64539 0
M  V30 3888 C 354.987 0.191072 -3.47175 0
M  V30 3889 H 354.31 -0.522318 -3.96373 0
M  V30 3890 H 355.75 0.486445 -4.212 0
M  V30 3891 C 354.209 1.41967 -3.05527 0
M  V30 3892 O 354.739 2.51642 -3.13112 0
M  V30 3893 N 352.945 1.28746 -2.60524 0
M  V30 3894 H 352.492 0.395089 -2.54552 0
M  V30 3895 H 352.45 2.11061 -2.33025 0
M  V30 3896 N 356.222 1.38976 -0.743202 0
M  V30 3897 C 357.152 2.33171 -0.123873 0
M  V30 3898 C 358.133 1.54336 0.71516 0
M  V30 3899 O 359.318 1.82696 0.658467 0
M  V30 3900 C 356.448 3.38474 0.777978 0
M  V30 3901 C 355.402 4.27979 0.0424758 0
M  V30 3902 C 354.728 5.2405 1.06189 0
M  V30 3903 C 356.028 5.10155 -1.1198 0
M  V30 3904 H 357.722 2.85213 -0.910709 0
M  V30 3905 H 355.268 1.37133 -0.439388 0
M  V30 3906 H 357.221 4.03328 1.22084 0
M  V30 3907 H 355.945 2.84891 1.59702 0
M  V30 3908 H 354.604 3.64616 -0.380853 0
M  V30 3909 H 354.252 4.66758 1.87472 0
M  V30 3910 H 353.952 5.84785 0.574485 0
M  V30 3911 H 355.476 5.9178 1.50428 0
M  V30 3912 H 356.89 5.68307 -0.75499 0
M  V30 3913 H 355.287 5.80073 -1.53738 0
M  V30 3914 H 356.357 4.44504 -1.93764 0
M  V30 3915 N 357.7 0.491464 1.49741 0
M  V30 3916 C 358.949 -0.0582189 2.01616 0
M  V30 3917 C 359.262 -1.38927 1.3769 0
M  V30 3918 O 360.468 -2.02509 1.80838 0
M  V30 3919 C 358.924 -0.154235 3.59569 0
M  V30 3920 C 358.532 1.1696 4.32463 0
M  V30 3921 C 360.276 -0.65479 4.1942 0
M  V30 3922 C 358.183 1.03627 5.8225 0
M  V30 3923 H 357.113 -0.0255317 0.753568 0
M  V30 3924 H 359.764 0.629445 1.72367 0
M  V30 3925 H 358.146 -0.906138 3.85493 0
M  V30 3926 H 359.32 1.93405 4.18248 0
M  V30 3927 H 357.635 1.60285 3.84315 0
M  V30 3928 H 360.232 -0.771903 5.29099 0
M  V30 3929 H 360.575 -1.65127 3.8215 0
M  V30 3930 H 361.108 0.040304 3.9778 0
M  V30 3931 H 357.847 2.00672 6.24028 0
M  V30 3932 H 357.367 0.312546 5.98985 0
M  V30 3933 H 359.046 0.711114 6.4308 0
M  V30 3934 N 359.178 -1.55987 0.224894 0
M  V30 3935 C 360.128 -2.17076 -0.697296 0
M  V30 3936 C 361.112 -1.12006 -1.15514 0
M  V30 3937 O 362.304 -1.37985 -1.10857 0
M  V30 3938 C 359.433 -2.85679 -1.90374 0
M  V30 3939 C 358.519 -3.97977 -1.46543 0
M  V30 3940 N 358.91 -5.00359 -0.739909 0
M  V30 3941 C 357.208 -4.10128 -1.75245 0
M  V30 3942 C 357.909 -5.79407 -0.515939 0
M  V30 3943 N 356.885 -5.32892 -1.07364 0
M  V30 3944 H 360.687 -2.93592 -0.134594 0
M  V30 3945 H 358.201 -1.62379 0.0262885 0
M  V30 3946 H 360.198 -3.27857 -2.57518 0
M  V30 3947 H 358.858 -2.1066 -2.47088 0
M  V30 3948 H 359.869 -5.16412 -0.392253 0
M  V30 3949 H 356.546 -3.46263 -2.33255 0
M  V30 3950 H 357.936 -6.71872 0.0617349 0
M  V30 3951 N 360.656 0.0484629 -1.57525 0
M  V30 3952 C 361.619 1.03956 -2.04269 0
M  V30 3953 C 362.619 1.30211 -0.943496 0
M  V30 3954 O 363.809 1.25539 -1.20771 0
M  V30 3955 C 360.941 2.37742 -2.44319 0
M  V30 3956 H 362.134 0.636182 -2.93075 0
M  V30 3957 H 359.687 0.294811 -1.53494 0
M  V30 3958 H 360.422 2.82866 -1.5861 0
M  V30 3959 H 360.207 2.20021 -3.24551 0
M  V30 3960 H 361.697 3.08936 -2.80978 0
M  V30 3961 N 362.134 1.5431 0.320358 0
M  V30 3962 C 363.55 1.45091 0.664889 0
M  V30 3963 C 363.75 0.626382 1.91517 0
M  V30 3964 O 362.806 0.126443 2.52183 0
M  V30 3965 C 364.119 2.88848 0.83591 0
M  V30 3966 C 365.667 2.9877 0.933046 0
M  V30 3967 C 366.142 4.43683 1.13621 0
M  V30 3968 N 367.633 4.47309 1.20287 0
M  V30 3969 C 368.368 5.56595 1.37801 0
M  V30 3970 N 367.864 6.75844 1.52338 0
M  V30 3971 N 369.657 5.44248 1.40535 0
M  V30 3972 H 361.808 2.06398 -0.501374 0
M  V30 3973 H 364.071 0.933963 -0.162534 0
M  V30 3974 H 363.777 3.51698 -0.0116092 0
M  V30 3975 H 363.651 3.35148 1.73078 0
M  V30 3976 H 366.038 2.36045 1.77107 0
M  V30 3977 H 366.119 2.55796 0.0145782 0
M  V30 3978 H 365.763 5.06995 0.303032 0
M  V30 3979 H 365.693 4.84269 2.0686 0
M  V30 3980 H 368.184 3.61388 1.10485 0
M  V30 3981 H 368.497 7.54892 1.65403 0
M  V30 3982 H 366.842 6.78746 1.4943 0
M  V30 3983 H 370.033 4.50038 1.28777 0
M  V30 3984 H 370.206 6.29473 1.53842 0
M  V30 3985 N 363.613 -0.582584 1.46437 0
M  V30 3986 C 364.862 -1.337 1.5102 0
M  V30 3987 C 365.175 -1.94891 0.166359 0
M  V30 3988 O 366.381 -2.71351 0.0899954 0
M  V30 3989 C 364.837 -2.42315 2.66104 0
M  V30 3990 C 364.445 -1.87427 4.06909 0
M  V30 3991 C 366.189 -3.19099 2.79958 0
M  V30 3992 C 364.096 -2.93672 5.13333 0
M  V30 3993 H 363.026 -0.502619 0.562041 0
M  V30 3994 H 365.677 -0.621701 1.72647 0
M  V30 3995 H 364.059 -3.16645 2.37807 0
M  V30 3996 H 365.233 -1.19639 4.44998 0
M  V30 3997 H 363.548 -1.2331 3.97723 0
M  V30 3998 H 366.145 -3.9839 3.56636 0
M  V30 3999 H 366.488 -3.71695 1.87479 0
M  V30 4000 H 367.021 -2.51875 3.07902 0
M  V30 4001 H 363.76 -2.45962 6.07604 0
M  V30 4002 H 363.28 -3.59948 4.79789 0
M  V30 4003 H 364.959 -3.5762 5.39182 0
M  V30 4004 N 365.091 -1.34144 -0.827227 0
M  V30 4005 C 366.001 -1.27428 -1.96975 0
M  V30 4006 C 367.017 -0.182728 -1.73038 0
M  V30 4007 O 368.193 -0.408426 -1.97215 0
M  V30 4008 C 365.258 -1.02526 -3.31194 0
M  V30 4009 C 364.319 -2.20796 -3.68168 0
M  V30 4010 C 363.552 -1.97073 -4.95982 0
M  V30 4011 O 363.775 -0.926822 -5.6282 0
M  V30 4012 O 362.709 -2.83912 -5.30733 0
M  V30 4013 H 366.535 -2.23537 -2.05584 0
M  V30 4014 H 364.12 -1.14307 -0.961989 0
M  V30 4015 H 366.002 -0.904026 -4.11589 0
M  V30 4016 H 364.677 -0.0945389 -3.23562 0
M  V30 4017 H 363.584 -2.38477 -2.88235 0
M  V30 4018 H 364.917 -3.12243 -3.8048 0
M  V30 4019 N 366.569 1.04691 -1.17803 0
M  V30 4020 C 367.501 2.12571 -0.857097 0
M  V30 4021 C 368.514 1.62174 0.142647 0
M  V30 4022 O 369.703 1.78301 -0.0843387 0
M  V30 4023 C 366.803 3.37915 -0.258216 0
M  V30 4024 C 365.976 4.1757 -1.30207 0
M  V30 4025 C 365.035 5.2125 -0.720029 0
M  V30 4026 O 364.061 5.51888 -1.39314 0
M  V30 4027 N 365.263 5.78466 0.485507 0
M  V30 4028 H 368.028 2.40698 -1.78562 0
M  V30 4029 H 365.589 1.20831 -1.07757 0
M  V30 4030 H 367.581 4.04442 0.144584 0
M  V30 4031 H 366.151 3.07281 0.574199 0
M  V30 4032 H 365.371 3.46458 -1.88043 0
M  V30 4033 H 366.659 4.67586 -2.00601 0
M  V30 4034 H 366.057 5.55866 1.05022 0
M  V30 4035 H 364.614 6.4649 0.830307 0
M  V30 4036 N 368.047 0.979072 1.23499 0
M  V30 4037 C 368.995 0.510604 2.26926 0
M  V30 4038 C 369.989 -0.431691 1.63807 0
M  V30 4039 O 371.195 -0.30573 1.77385 0
M  V30 4040 H 367.57 0.146688 0.737554 0
M  V30 4041 H 369.541 1.39466 2.63803 0
M  V30 4042 C 368.29 -0.172658 3.47271 0
M  V30 4043 H 367.613 0.543331 3.96091 0
M  V30 4044 H 369.053 -0.464101 4.21452 0
M  V30 4045 C 367.512 -1.40345 3.06276 0
M  V30 4046 O 368.042 -2.49978 3.14442 0
M  V30 4047 N 366.248 -1.27362 2.61203 0
M  V30 4048 H 365.795 -0.381584 2.54758 0
M  V30 4049 H 365.753 -2.09822 2.34141 0
M  V30 4050 N 369.525 -1.3858 0.750561 0
M  V30 4051 C 370.774 -1.99424 0.302172 0
M  V30 4052 C 371.087 -1.60254 -1.12152 0
M  V30 4053 O 372.293 -2.14046 -1.67023 0
M  V30 4054 C 370.749 -3.56558 0.489307 0
M  V30 4055 C 370.357 -4.04682 1.92189 0
M  V30 4056 C 372.101 -4.24374 0.103478 0
M  V30 4057 C 370.008 -5.54446 2.05775 0
M  V30 4058 H 368.938 -0.746046 0.10923 0
M  V30 4059 H 371.589 -1.58383 0.92667 0
M  V30 4060 H 369.971 -3.95472 -0.204329 0
M  V30 4061 H 371.145 -3.77065 2.64875 0
M  V30 4062 H 369.46 -3.4958 2.26236 0
M  V30 4063 H 372.057 -5.34384 0.183787 0
M  V30 4064 H 372.4 -4.05468 -0.943481 0
M  V30 4065 H 372.933 -3.90688 0.748854 0
M  V30 4066 H 369.672 -5.78252 3.08714 0
M  V30 4067 H 369.192 -5.83816 1.37546 0
M  V30 4068 H 370.871 -6.20099 1.84626 0
M  V30 4069 N 371.003 -0.499398 -1.49478 0
M  V30 4070 C 372.419 -0.155261 -1.58843 0
M  V30 4071 C 372.619 1.34008 -1.50479 0
M  V30 4072 O 371.675 2.11589 -1.37791 0
M  V30 4073 C 372.988 -0.730636 -2.91689 0
M  V30 4074 C 374.536 -0.696599 -3.0515 0
M  V30 4075 C 375.011 -1.25001 -4.40612 0
M  V30 4076 N 376.502 -1.21064 -4.47099 0
M  V30 4077 C 377.237 -1.60905 -5.50361 0
M  V30 4078 N 376.733 -2.08331 -6.60735 0
M  V30 4079 N 378.526 -1.52331 -5.41065 0
M  V30 4080 H 370.677 -1.47162 -1.53158 0
M  V30 4081 H 372.94 -0.610309 -0.725415 0
M  V30 4082 H 372.646 -1.77928 -3.03372 0
M  V30 4083 H 372.52 -0.190161 -3.7672 0
M  V30 4084 H 374.907 0.343204 -2.93097 0
M  V30 4085 H 374.988 -1.2742 -2.21806 0
M  V30 4086 H 374.632 -2.28859 -4.53416 0
M  V30 4087 H 374.562 -0.64836 -5.22593 0
M  V30 4088 H 377.053 -0.863128 -3.67911 0
M  V30 4089 H 377.366 -2.36805 -7.35624 0
M  V30 4090 H 375.711 -2.12304 -6.6178 0
M  V30 4091 H 378.902 -1.151 -4.53729 0
M  V30 4092 H 379.075 -1.83704 -6.21415 0
M  V30 4093 N 372.481 1.55866 -0.233164 0
M  V30 4094 C 373.444 2.1953 0.658715 0
M  V30 4095 C 374.444 1.16053 1.11303 0
M  V30 4096 O 375.634 1.41218 1.01996 0
M  V30 4097 C 372.766 2.82791 1.90373 0
M  V30 4098 H 373.959 2.99721 0.10347 0
M  V30 4099 H 371.512 1.56291 0.0164245 0
M  V30 4100 H 372.247 2.06501 2.50056 0
M  V30 4101 H 372.032 3.58578 1.58632 0
M  V30 4102 H 373.522 3.31556 2.53891 0
M  V30 4103 N 373.959 -0.0401083 1.57549 0
M  V30 4104 C 374.906 -1.04413 2.05831 0
M  V30 4105 C 375.876 -1.36585 0.945184 0
M  V30 4106 O 377.061 -1.47112 1.21502 0
M  V30 4107 C 374.201 -2.34336 2.53339 0
M  V30 4108 C 373.314 -2.08419 3.78398 0
M  V30 4109 C 372.449 -3.32133 4.14561 0
M  V30 4110 C 371.488 -3.01721 5.3257 0
M  V30 4111 N 370.625 -4.17855 5.64218 0
M  V30 4112 H 375.465 -0.625442 2.91363 0
M  V30 4113 H 373.002 -0.297218 1.44066 0
M  V30 4114 H 374.96 -3.10234 2.78946 0
M  V30 4115 H 373.59 -2.73948 1.7074 0
M  V30 4116 H 372.642 -1.23069 3.59942 0
M  V30 4117 H 373.954 -1.81978 4.64419 0
M  V30 4118 H 373.108 -4.16406 4.41238 0
M  V30 4119 H 371.847 -3.61678 3.2717 0
M  V30 4120 H 370.852 -2.15849 5.05657 0
M  V30 4121 H 372.077 -2.73466 6.21605 0
M  V30 4122 H 370.023 -4.47372 4.79786 0
M  V30 4123 H 369.94 -3.94798 6.44725 0
M  V30 4124 H 371.208 -5.03033 5.95465 0
M  V30 4125 N 375.437 -1.54477 -0.31217 0
M  V30 4126 C 376.686 -1.72438 -1.04633 0
M  V30 4127 C 376.999 -0.511163 -1.88803 0
M  V30 4128 O 378.205 -0.572341 -2.65399 0
M  V30 4129 C 376.661 -3.05043 -1.9099 0
M  V30 4130 C 376.269 -4.33806 -1.11877 0
M  V30 4131 C 378.013 -3.32364 -2.64073 0
M  V30 4132 C 375.92 -5.57467 -1.97445 0
M  V30 4133 H 374.85 -0.642647 -0.394361 0
M  V30 4134 H 377.501 -1.80966 -0.303929 0
M  V30 4135 H 375.883 -2.90451 -2.69173 0
M  V30 4136 H 377.057 -4.59199 -0.383843 0
M  V30 4137 H 375.372 -4.13336 -0.504252 0
M  V30 4138 H 377.969 -4.21951 -3.28423 0
M  V30 4139 H 378.312 -2.50745 -3.32314 0
M  V30 4140 H 378.845 -3.47875 -1.92944 0
M  V30 4141 H 375.584 -6.41722 -1.33692 0
M  V30 4142 H 375.104 -5.36277 -2.6864 0
M  V30 4143 H 376.783 -5.94303 -2.5576 0
M  V30 4144 N 376.915 0.57481 -1.46744 0
M  V30 4145 C 378.155 1.34369 -1.54027 0
M  V30 4146 C 378.519 1.91051 -0.190642 0
M  V30 4147 O 379.72 2.68444 -0.138255 0
M  V30 4148 C 377.991 2.43706 -2.61423 0
M  V30 4149 S 379.55 3.30915 -2.88167 0
M  V30 4150 H 376.368 0.45768 -0.544105 0
M  V30 4151 H 378.97 0.659959 -1.84024 0
M  V30 4152 H 377.674 2.0047 -3.58106 0
M  V30 4153 H 377.205 3.16842 -2.33184 0
M  V30 4154 H 379.22 4.42742 -2.24039 0
M  V30 4155 N 378.394 1.34581 0.820102 0
M  V30 4156 C 379.642 1.26845 1.57336 0
M  V30 4157 C 379.963 -0.160667 1.94337 0
M  V30 4158 O 379.233 -1.09396 1.6251 0
M  V30 4159 H 377.813 0.466514 0.583415 0
M  V30 4160 H 380.475 1.68526 0.979027 0
M  V30 4161 H 379.571 1.87513 2.4949 0
M  V30 4162 N 379.872 -1.04064 1.18357 0
M  V30 4163 C 380.802 -2.14001 0.934113 0
M  V30 4164 C 381.783 -1.69616 -0.128186 0
M  V30 4165 O 382.968 -1.94185 0.0244093 0
M  V30 4166 C 380.098 -3.44253 0.459066 0
M  V30 4167 C 379.052 -4.02261 1.46185 0
M  V30 4168 C 378.378 -5.27992 0.844322 0
M  V30 4169 C 379.678 -4.38432 2.83856 0
M  V30 4170 H 381.372 -2.35127 1.85352 0
M  V30 4171 H 378.918 -1.12998 0.892604 0
M  V30 4172 H 380.871 -4.20522 0.271907 0
M  V30 4173 H 379.595 -3.22813 -0.495912 0
M  V30 4174 H 378.254 -3.28074 1.63595 0
M  V30 4175 H 377.902 -5.02862 -0.117845 0
M  V30 4176 H 377.602 -5.67765 1.51384 0
M  V30 4177 H 379.126 -6.06938 0.667693 0
M  V30 4178 H 380.54 -5.05688 2.70098 0
M  V30 4179 H 378.937 -4.89254 3.47491 0
M  V30 4180 H 380.007 -3.4826 3.37406 0
M  V30 4181 N 381.35 -0.985608 -1.22978 0
M  V30 4182 C 382.766 -0.695104 -1.43668 0
M  V30 4183 C 382.966 0.736866 -1.87543 0
M  V30 4184 O 382.022 1.50868 -2.02473 0
M  V30 4185 C 383.335 -1.69447 -2.48412 0
M  V30 4186 C 384.883 -1.70909 -2.62219 0
M  V30 4187 C 385.358 -2.6969 -3.70178 0
M  V30 4188 N 386.849 -2.6824 -3.77626 0
M  V30 4189 C 387.584 -3.41339 -4.60733 0
M  V30 4190 N 387.08 -4.24015 -5.4789 0
M  V30 4191 N 388.873 -3.30079 -4.54977 0
M  V30 4192 H 381.024 -1.91054 -0.928016 0
M  V30 4193 H 383.287 -0.823553 -0.469536 0
M  V30 4194 H 382.993 -2.7188 -2.23102 0
M  V30 4195 H 382.867 -1.48147 -3.46889 0
M  V30 4196 H 385.254 -0.691785 -2.86877 0
M  V30 4197 H 385.335 -1.96276 -1.6404 0
M  V30 4198 H 384.979 -3.71566 -3.46268 0
M  V30 4199 H 384.909 -2.41595 -4.67909 0
M  V30 4200 H 387.4 -2.08243 -3.15346 0
M  V30 4201 H 387.713 -4.76636 -6.08308 0
M  V30 4202 H 386.058 -4.28104 -5.47496 0
M  V30 4203 H 389.249 -2.64937 -3.85909 0
M  V30 4204 H 389.422 -3.87308 -5.19516 0
M  V30 4205 N 382.828 1.3818 -0.7579 0
M  V30 4206 C 383.791 2.28764 -0.141286 0
M  V30 4207 C 384.791 1.47388 0.642907 0
M  V30 4208 O 385.981 1.67781 0.468536 0
M  V30 4209 C 383.113 3.31184 0.808069 0
M  V30 4210 H 384.306 2.848 -0.939633 0
M  V30 4211 H 381.859 1.47212 -0.525191 0
M  V30 4212 H 382.594 2.80247 1.63193 0
M  V30 4213 H 382.379 3.91314 0.248104 0
M  V30 4214 H 383.869 3.98909 1.23536 0
M  V30 4215 N 384.306 0.507319 1.49211 0
M  V30 4216 C 385.531 -0.033725 2.07373 0
M  V30 4217 C 385.956 -1.29485 1.36437 0
M  V30 4218 O 385.314 -1.76294 0.423087 0
M  V30 4219 C 385.362 -0.263945 3.59633 0
M  V30 4220 O 384.466 -1.33737 3.90113 0
M  V30 4221 H 383.807 0.0290331 0.663365 0
M  V30 4222 H 386.337 0.708749 1.91932 0
M  V30 4223 H 386.347 -0.493536 4.05004 0
M  V30 4224 H 385.022 0.657424 4.10671 0
M  V30 4225 H 383.599 -1.09224 3.56545 0
M  V30 4226 N 385.784 -1.5574 0.241426 0
M  V30 4227 C 386.694 -2.2479 -0.671305 0
M  V30 4228 C 387.71 -1.26217 -1.19772 0
M  V30 4229 O 388.886 -1.59079 -1.23514 0
M  V30 4230 C 385.951 -2.92966 -1.85396 0
M  V30 4231 C 385.012 -4.06935 -1.36756 0
M  V30 4232 C 384.245 -4.71851 -2.49384 0
M  V30 4233 O 384.468 -4.35823 -3.67987 0
M  V30 4234 O 383.402 -5.60467 -2.19454 0
M  V30 4235 H 387.228 -3.0349 -0.112966 0
M  V30 4236 H 384.813 -1.49397 0.0101513 0
M  V30 4237 H 386.695 -3.35927 -2.54423 0
M  V30 4238 H 385.37 -2.17211 -2.40002 0
M  V30 4239 H 384.277 -3.68503 -0.644726 0
M  V30 4240 H 385.61 -4.84492 -0.867647 0
M  V30 4241 N 387.262 0.0317525 -1.57568 0
M  V30 4242 C 388.225 1.01783 -2.0536 0
M  V30 4243 C 389.225 1.29203 -0.957253 0
M  V30 4244 O 390.415 1.24251 -1.22095 0
M  V30 4245 C 387.547 2.35137 -2.46827 0
M  V30 4246 H 388.74 0.605062 -2.93733 0
M  V30 4247 H 386.293 0.278514 -1.53799 0
M  V30 4248 H 387.028 2.81168 -1.61602 0
M  V30 4249 H 386.813 2.16566 -3.26866 0
M  V30 4250 H 388.303 3.05938 -2.84239 0
M  V30 4251 N 388.74 1.54641 0.303973 0
M  V30 4252 C 389.988 1.73437 1.0375 0
M  V30 4253 C 390.309 0.521449 1.87899 0
M  V30 4254 O 389.579 -0.46432 1.90318 0
M  V30 4255 H 388.159 0.639518 0.386039 0
M  V30 4256 H 390.821 1.91988 0.335675 0
M  V30 4257 H 389.917 2.62235 1.69231 0
M  V30 4258 N 390.218 -0.567019 1.47046 0
M  V30 4259 C 391.15 -1.68985 1.54844 0
M  V30 4260 C 392.163 -1.56869 0.435431 0
M  V30 4261 O 393.352 -1.64006 0.70457 0
M  V30 4262 C 390.452 -3.07373 1.42742 0
M  V30 4263 C 389.625 -3.45339 2.6844 0
M  V30 4264 C 388.684 -4.62849 2.50314 0
M  V30 4265 O 387.71 -4.67922 3.24095 0
M  V30 4266 N 388.912 -5.58726 1.57499 0
M  V30 4267 H 391.677 -1.62745 2.51663 0
M  V30 4268 H 389.238 -0.753411 1.43302 0
M  V30 4269 H 391.23 -3.83803 1.28365 0
M  V30 4270 H 389.8 -3.07893 0.540445 0
M  V30 4271 H 389.02 -2.58455 2.97648 0
M  V30 4272 H 390.308 -3.67476 3.51907 0
M  V30 4273 H 389.706 -5.57376 0.966876 0
M  V30 4274 H 388.263 -6.34523 1.49078 0
M  V30 4275 N 391.696 -1.35014 -0.812953 0
M  V30 4276 C 392.944 -1.27678 -1.56661 0
M  V30 4277 C 393.265 0.150359 -1.94419 0
M  V30 4278 O 392.535 1.08532 -1.63088 0
M  V30 4279 H 391.115 -0.469602 -0.580933 0
M  V30 4280 H 393.777 -1.69043 -0.970076 0
M  V30 4281 H 392.873 -1.88833 -2.48492 0
M  V30 4282 N 393.175 1.03435 -1.18907 0
M  V30 4283 C 394.415 1.78302 -0.999391 0
M  V30 4284 C 394.779 1.86353 0.462219 0
M  V30 4285 O 395.98 2.57489 0.771543 0
M  V30 4286 C 394.251 3.17362 -1.64365 0
M  V30 4287 S 395.81 4.08488 -1.6026 0
M  V30 4288 H 392.628 0.613861 -0.358742 0
M  V30 4289 H 395.23 1.23979 -1.51161 0
M  V30 4290 H 393.934 3.09116 -2.69955 0
M  V30 4291 H 393.465 3.76762 -1.13199 0
M  V30 4292 H 395.48 4.92274 -0.622932 0
M  V30 4293 N 394.653 0.992116 1.22453 0
M  V30 4294 C 395.6 0.541731 2.24352 0
M  V30 4295 C 396.57 -0.425519 1.60557 0
M  V30 4296 O 397.755 -0.330453 1.87917 0
M  V30 4297 C 394.895 -0.138248 3.44823 0
M  V30 4298 C 394.008 0.870649 4.23136 0
M  V30 4299 C 393.143 0.164269 5.30946 0
M  V30 4300 C 392.182 1.16159 6.00977 0
M  V30 4301 N 391.319 0.483568 7.00433 0
M  V30 4302 H 396.159 1.41541 2.62241 0
M  V30 4303 H 393.696 0.709013 1.28885 0
M  V30 4304 H 395.654 -0.5494 4.13567 0
M  V30 4305 H 394.284 -0.975721 3.077 0
M  V30 4306 H 393.336 1.40013 3.53696 0
M  V30 4307 H 394.648 1.63014 4.7141 0
M  V30 4308 H 393.802 -0.303653 6.0594 0
M  V30 4309 H 392.541 -0.627733 4.83643 0
M  V30 4310 H 391.546 1.64015 5.24766 0
M  V30 4311 H 392.771 1.95445 6.50368 0
M  V30 4312 H 390.717 -0.289012 6.55363 0
M  V30 4313 H 390.634 1.18152 7.4671 0
M  V30 4314 H 391.902 0.0384219 7.79491 0
M  V30 4315 N 396.131 -1.37776 0.765217 0
M  V30 4316 C 397.408 -1.93975 0.251596 0
M  V30 4317 C 397.788 -1.69949 -1.25222 0
M  V30 4318 O 397.136 -1.04457 -2.03226 0
M  V30 4319 C 397.346 -3.43487 0.617895 0
M  V30 4320 C 398.694 -4.20564 0.584029 0
M  V30 4321 O 399.718 -3.5182 0.556888 0
M  V30 4322 O 398.577 -5.43138 0.605291 0
M  V30 4323 H 395.671 -0.82509 0.0561806 0
M  V30 4324 H 398.217 -1.47101 0.846128 0
M  V30 4325 H 396.989 -3.5453 1.65602 0
M  V30 4326 H 396.612 -3.976 -0.00403411 0
M  V30 4327 N 397.609 -0.515225 -1.4894 0
M  V30 4328 C 398.572 0.244681 -2.2789 0
M  V30 4329 C 399.572 0.881166 -1.34507 0
M  V30 4330 O 400.762 0.743497 -1.57537 0
M  V30 4331 C 397.894 1.35247 -3.12923 0
M  V30 4332 H 399.087 -0.448289 -2.96531 0
M  V30 4333 H 396.64 -0.270656 -1.53939 0
M  V30 4334 H 397.375 2.07916 -2.48881 0
M  V30 4335 H 397.16 0.901374 -3.81599 0
M  V30 4336 H 398.65 1.88737 -3.72516 0
M  V30 4337 N 399.087 1.5561 -0.249682 0
M  V30 4338 C 400.017 2.24477 0.642826 0
M  V30 4339 C 400.998 1.22601 1.17911 0
M  V30 4340 O 402.183 1.5126 1.21795 0
M  V30 4341 C 399.313 2.94638 1.83863 0
M  V30 4342 C 398.267 4.03227 1.435 0
M  V30 4343 C 397.593 4.60828 2.71186 0
M  V30 4344 C 398.893 5.18796 0.604002 0
M  V30 4345 H 400.587 2.99321 0.0685625 0
M  V30 4346 H 398.133 1.43965 0.0315363 0
M  V30 4347 H 400.086 3.41517 2.46868 0
M  V30 4348 H 398.81 2.17287 2.43832 0
M  V30 4349 H 397.469 3.57121 0.828275 0
M  V30 4350 H 397.117 3.80174 3.29358 0
M  V30 4351 H 396.817 5.34132 2.44901 0
M  V30 4352 H 398.341 5.10442 3.35084 0
M  V30 4353 H 399.755 5.61883 1.13842 0
M  V30 4354 H 398.152 5.98506 0.437097 0
M  V30 4355 H 399.222 4.83384 -0.383147 0
M  V30 4356 N 400.565 -0.0233959 1.57583 0
M  V30 4357 C 401.497 -1.04994 2.03737 0
M  V30 4358 C 402.51 -1.32125 0.951152 0
M  V30 4359 O 403.699 -1.29512 1.22837 0
M  V30 4360 C 400.799 -2.39026 2.40249 0
M  V30 4361 C 399.972 -2.31171 3.7132 0
M  V30 4362 C 399.031 -3.47698 3.94959 0
M  V30 4363 O 398.057 -3.26937 4.65941 0
M  V30 4364 N 399.259 -4.6976 3.41037 0
M  V30 4365 H 402.024 -0.656507 2.92421 0
M  V30 4366 H 399.585 -0.211235 1.60516 0
M  V30 4367 H 401.577 -3.15712 2.53196 0
M  V30 4368 H 400.147 -2.70194 1.57207 0
M  V30 4369 H 399.367 -1.39547 3.68674 0
M  V30 4370 H 400.655 -2.23071 4.57293 0
M  V30 4371 H 400.053 -4.89528 2.83512 0
M  V30 4372 H 398.61 -5.43791 3.59353 0
M  V30 4373 N 402.043 -1.548 -0.295768 0
M  V30 4374 C 402.973 -1.89115 -1.36959 0
M  V30 4375 C 403.954 -0.75059 -1.52644 0
M  V30 4376 O 405.139 -1.00678 -1.66065 0
M  V30 4377 C 402.269 -2.14307 -2.73295 0
M  V30 4378 C 401.223 -3.30151 -2.72368 0
M  V30 4379 C 400.549 -3.40772 -4.12042 0
M  V30 4380 C 401.849 -4.67126 -2.33646 0
M  V30 4381 H 403.543 -2.79053 -1.08488 0
M  V30 4382 H 401.089 -1.34266 -0.520443 0
M  V30 4383 H 403.042 -2.36898 -3.48507 0
M  V30 4384 H 401.766 -1.21145 -3.03301 0
M  V30 4385 H 400.425 -3.0749 -1.99613 0
M  V30 4386 H 400.073 -2.45117 -4.39234 0
M  V30 4387 H 399.773 -4.18645 -4.12322 0
M  V30 4388 H 401.297 -3.6563 -4.89027 0
M  V30 4389 H 402.711 -4.89414 -2.98575 0
M  V30 4390 H 401.108 -5.47751 -2.45129 0
M  V30 4391 H 402.178 -4.67489 -1.28772 0
M  V30 4392 N 403.521 0.559213 -1.47345 0
M  V30 4393 C 404.451 1.67622 -1.62558 0
M  V30 4394 C 405.432 1.63331 -0.475087 0
M  V30 4395 O 406.617 1.80983 -0.704182 0
M  V30 4396 C 403.747 3.0626 -1.63774 0
M  V30 4397 C 402.701 3.25397 -2.7803 0
M  V30 4398 C 402.027 4.64801 -2.64318 0
M  V30 4399 C 403.327 3.10965 -4.19641 0
M  V30 4400 H 405.021 1.55146 -2.56067 0
M  V30 4401 H 402.567 0.744961 -1.23233 0
M  V30 4402 H 404.52 3.84247 -1.73008 0
M  V30 4403 H 403.244 3.1969 -0.66825 0
M  V30 4404 H 401.903 2.49817 -2.68304 0
M  V30 4405 H 401.551 4.75028 -1.65401 0
M  V30 4406 H 401.251 4.78555 -3.40968 0
M  V30 4407 H 402.775 5.44926 -2.75478 0
M  V30 4408 H 404.189 3.78772 -4.30354 0
M  V30 4409 H 402.586 3.36229 -4.97062 0
M  V30 4410 H 403.656 2.07736 -4.38148 0
M  V30 4411 N 404.999 1.35443 0.805782 0
M  V30 4412 C 406.248 1.28097 1.55801 0
M  V30 4413 C 406.561 -0.142428 1.95081 0
M  V30 4414 O 407.767 -0.33817 2.69386 0
M  V30 4415 C 406.223 2.24653 2.81174 0
M  V30 4416 C 405.831 3.72342 2.49129 0
M  V30 4417 C 407.575 2.2625 3.59181 0
M  V30 4418 C 405.482 4.60719 3.70799 0
M  V30 4419 H 404.412 0.475937 0.584808 0
M  V30 4420 H 407.063 1.60712 0.885661 0
M  V30 4421 H 405.445 1.85011 3.50124 0
M  V30 4422 H 406.619 4.20624 1.88181 0
M  V30 4423 H 404.934 3.73361 1.84366 0
M  V30 4424 H 407.531 2.89495 4.49552 0
M  V30 4425 H 407.874 1.26647 3.96568 0
M  V30 4426 H 408.407 2.64426 2.97193 0
M  V30 4427 H 405.146 5.61324 3.3852 0
M  V30 4428 H 404.666 4.17163 4.3097 0
M  V30 4429 H 406.345 4.76182 4.38018 0
M  V30 4430 N 406.477 -1.02803 1.19454 0
M  V30 4431 C 407.387 -2.14575 0.948408 0
M  V30 4432 C 408.403 -1.73757 -0.091871 0
M  V30 4433 O 409.579 -2.01185 0.0929654 0
M  V30 4434 C 406.644 -3.43202 0.491265 0
M  V30 4435 C 405.705 -3.98328 1.60103 0
M  V30 4436 C 404.938 -5.20816 1.16561 0
M  V30 4437 O 405.161 -5.70392 0.0295238 0
M  V30 4438 O 404.095 -5.68801 1.96849 0
M  V30 4439 H 407.921 -2.38202 1.88397 0
M  V30 4440 H 405.506 -1.12989 0.977433 0
M  V30 4441 H 407.388 -4.20687 0.245015 0
M  V30 4442 H 406.063 -3.21018 -0.415851 0
M  V30 4443 H 404.97 -3.22174 1.90144 0
M  V30 4444 H 406.303 -4.24879 2.48473 0
M  V30 4445 N 407.956 -0.998596 -1.21925 0
M  V30 4446 C 408.906 -0.524743 -2.21879 0
M  V30 4447 C 409.89 0.41017 -1.55584 0
M  V30 4448 O 411.082 0.236063 -1.75419 0
M  V30 4449 C 408.211 0.153636 -3.42956 0
M  V30 4450 C 407.297 -0.801918 -4.16449 0
M  V30 4451 N 407.688 -1.95211 -4.66611 0
M  V30 4452 C 405.986 -0.618972 -4.41684 0
M  V30 4453 C 406.687 -2.55234 -5.22715 0
M  V30 4454 N 405.663 -1.83451 -5.1171 0
M  V30 4455 H 409.465 -1.40189 -2.58311 0
M  V30 4456 H 406.979 -0.86159 -1.3766 0
M  V30 4457 H 408.976 0.510534 -4.13762 0
M  V30 4458 H 407.636 1.02684 -3.08036 0
M  V30 4459 H 408.647 -2.33271 -4.62391 0
M  V30 4460 H 405.324 0.207694 -4.16983 0
M  V30 4461 H 406.714 -3.52471 -5.72026 0
M  V30 4462 N 409.434 1.37368 -0.772513 0
M  V30 4463 C 410.659 2.0447 -0.347386 0
M  V30 4464 C 411.084 1.57882 1.0225 0
M  V30 4465 O 410.442 0.73941 1.65537 0
M  V30 4466 C 410.49 3.58369 -0.400479 0
M  V30 4467 O 409.594 4.0803 0.598789 0
M  V30 4468 H 408.935 0.646773 -0.15027 0
M  V30 4469 H 411.465 1.75667 -1.04892 0
M  V30 4470 H 411.475 4.07183 -0.258045 0
M  V30 4471 H 410.15 3.91633 -1.39986 0
M  V30 4472 H 408.727 3.70534 0.419411 0
M  V30 4473 N 410.912 0.523116 1.48665 0
M  V30 4474 C 412.158 -0.00540031 2.03399 0
M  V30 4475 C 412.513 -1.3264 1.39372 0
M  V30 4476 O 411.806 -1.84184 0.527916 0
M  V30 4477 C 412 -0.191671 3.56886 0
M  V30 4478 C 411.829 1.10972 4.35793 0
M  V30 4479 C 410.599 1.66769 4.76987 0
M  V30 4480 C 412.797 2.01861 4.73029 0
M  V30 4481 N 410.779 2.91268 5.40404 0
M  V30 4482 C 412.15 3.10937 5.36394 0
M  V30 4483 C 414.205 2.02271 4.54962 0
M  V30 4484 C 412.908 4.20478 5.83601 0
M  V30 4485 C 414.934 3.10802 5.03146 0
M  V30 4486 C 414.296 4.18597 5.6653 0
M  V30 4487 H 410.395 0.0393531 0.781009 0
M  V30 4488 H 412.979 0.702876 1.8157 0
M  V30 4489 H 411.15 -0.869025 3.78553 0
M  V30 4490 H 412.882 -0.719177 3.98259 0
M  V30 4491 H 409.637 1.20996 4.57883 0
M  V30 4492 H 410.061 3.54635 5.76683 0
M  V30 4493 H 414.703 1.2023 4.05345 0
M  V30 4494 H 412.421 5.03303 6.32228 0
M  V30 4495 H 416.007 3.12166 4.90962 0
M  V30 4496 H 414.887 5.01193 6.03138 0
M  V30 4497 N 412.39 -1.55475 0.257931 0
M  V30 4498 C 413.3 -2.2549 -0.647425 0
M  V30 4499 C 414.316 -1.2748 -1.18427 0
M  V30 4500 O 415.492 -1.6038 -1.2182 0
M  V30 4501 C 412.557 -2.94916 -1.82278 0
M  V30 4502 C 411.618 -4.08363 -1.32432 0
M  V30 4503 C 410.851 -4.74469 -2.44366 0
M  V30 4504 O 411.074 -4.39701 -3.63344 0
M  V30 4505 O 410.008 -5.62763 -2.13497 0
M  V30 4506 H 413.834 -3.03593 -0.0807707 0
M  V30 4507 H 411.419 -1.49377 0.0259962 0
M  V30 4508 H 413.301 -3.38606 -2.50846 0
M  V30 4509 H 411.976 -2.19744 -2.37685 0
M  V30 4510 H 410.883 -3.69166 -0.605605 0
M  V30 4511 H 412.216 -4.85385 -0.816211 0
M  V30 4512 N 413.868 0.0150385 -1.57593 0
M  V30 4513 C 415.284 0.370907 -1.5523 0
M  V30 4514 C 415.484 1.75735 -0.985882 0
M  V30 4515 O 414.54 2.44944 -0.613077 0
M  V30 4516 C 415.853 0.259908 -2.99575 0
M  V30 4517 C 417.401 0.335959 -3.11192 0
M  V30 4518 C 417.876 0.254253 -4.57294 0
M  V30 4519 N 419.367 0.312618 -4.62144 0
M  V30 4520 C 420.102 0.272505 -5.72752 0
M  V30 4521 N 419.598 0.183864 -6.92556 0
M  V30 4522 N 421.391 0.323267 -5.6117 0
M  V30 4523 H 413.542 -0.892104 -1.92757 0
M  V30 4524 H 415.805 -0.340563 -0.884715 0
M  V30 4525 H 415.511 -0.693403 -3.44797 0
M  V30 4526 H 415.385 1.048 -3.62349 0
M  V30 4527 H 417.772 1.27971 -2.65909 0
M  V30 4528 H 417.853 -0.481739 -2.51223 0
M  V30 4529 H 417.497 -0.685887 -5.03247 0
M  V30 4530 H 417.427 1.09024 -5.15191 0
M  V30 4531 H 419.918 0.38307 -3.75953 0
M  V30 4532 H 420.231 0.15874 -7.72637 0
M  V30 4533 H 418.576 0.149708 -6.94839 0
M  V30 4534 H 421.767 0.390607 -4.66467 0
M  V30 4535 H 421.94 0.288539 -6.47357 0
M  V30 4536 N 415.346 1.54954 0.287554 0
M  V30 4537 C 416.594 1.74528 1.01904 0
M  V30 4538 C 416.915 0.541349 1.87335 0
M  V30 4539 O 416.185 -0.444108 1.908 0
M  V30 4540 H 414.765 0.643576 0.379235 0
M  V30 4541 H 417.427 1.92333 0.315294 0
M  V30 4542 H 416.523 2.64015 1.6644 0
M  V30 4543 N 416.824 -0.551391 1.4764 0
M  V30 4544 C 417.734 -1.68525 1.63207 0
M  V30 4545 C 418.75 -1.6621 0.514815 0
M  V30 4546 O 419.926 -1.85551 0.783113 0
M  V30 4547 C 416.991 -3.05025 1.64805 0
M  V30 4548 C 416.052 -3.18362 2.88 0
M  V30 4549 C 415.285 -4.4835 2.89513 0
M  V30 4550 O 415.508 -5.34163 2.00065 0
M  V30 4551 O 414.442 -4.65602 3.81443 0
M  V30 4552 H 418.268 -1.58333 2.59161 0
M  V30 4553 H 415.853 -0.722063 1.30792 0
M  V30 4554 H 417.735 -3.86245 1.68502 0
M  V30 4555 H 416.41 -3.15587 0.720197 0
M  V30 4556 H 415.317 -2.36518 2.89845 0
M  V30 4557 H 416.65 -3.12707 3.80099 0
M  V30 4558 N 418.302 -1.35869 -0.798587 0
M  V30 4559 C 419.718 -1.16082 -1.09532 0
M  V30 4560 C 419.918 0.0213124 -2.01489 0
M  V30 4561 O 418.974 0.689488 -2.42904 0
M  V30 4562 C 420.287 -2.46748 -1.7186 0
M  V30 4563 C 421.835 -2.53028 -1.84244 0
M  V30 4564 C 422.31 -3.83758 -2.49988 0
M  V30 4565 N 423.801 -3.85053 -2.57465 0
M  V30 4566 C 424.536 -4.8294 -3.09122 0
M  V30 4567 N 424.032 -5.91217 -3.61157 0
M  V30 4568 N 425.825 -4.70369 -3.0775 0
M  V30 4569 H 417.976 -2.11571 -0.187461 0
M  V30 4570 H 420.239 -0.936726 -0.145765 0
M  V30 4571 H 419.945 -3.33471 -1.11759 0
M  V30 4572 H 419.819 -2.61883 -2.71472 0
M  V30 4573 H 422.206 -1.66729 -2.43486 0
M  V30 4574 H 422.287 -2.418 -0.834643 0
M  V30 4575 H 421.931 -4.70459 -1.91393 0
M  V30 4576 H 421.861 -3.92278 -3.5132 0
M  V30 4577 H 424.352 -3.06822 -2.20609 0
M  V30 4578 H 424.665 -6.61892 -3.98896 0
M  V30 4579 H 423.01 -5.94899 -3.59333 0
M  V30 4580 H 426.201 -3.84914 -2.66381 0
M  V30 4581 H 426.374 -5.46816 -3.47701 0
M  V30 4582 N 419.78 1.02168 -1.19998 0
M  V30 4583 C 420.71 2.12488 -0.96804 0
M  V30 4584 C 421.691 1.69799 0.101185 0
M  V30 4585 O 422.876 1.94121 -0.0552993 0
M  V30 4586 C 420.006 3.43479 -0.513776 0
M  V30 4587 C 418.96 3.99884 -1.52566 0
M  V30 4588 C 418.286 5.26582 -0.928214 0
M  V30 4589 C 419.586 4.33861 -2.90795 0
M  V30 4590 H 421.28 2.32149 -1.89069 0
M  V30 4591 H 418.826 1.11564 -0.910468 0
M  V30 4592 H 420.779 4.20036 -0.338774 0
M  V30 4593 H 419.503 3.23561 0.444493 0
M  V30 4594 H 418.162 3.25429 -1.68794 0
M  V30 4595 H 417.81 5.02986 0.0378289 0
M  V30 4596 H 417.51 5.65284 -1.60397 0
M  V30 4597 H 419.034 6.05799 -0.764167 0
M  V30 4598 H 420.448 5.01327 -2.78109 0
M  V30 4599 H 418.845 4.83664 -3.55231 0
M  V30 4600 H 419.915 3.42848 -3.42904 0
M  V30 4601 N 421.258 1.00505 1.21394 0
M  V30 4602 C 422.535 0.603277 1.86064 0
M  V30 4603 C 422.915 -0.919095 1.90042 0
M  V30 4604 O 422.263 -1.80607 1.39977 0
M  V30 4605 C 422.473 1.23772 3.26315 0
M  V30 4606 C 423.821 1.34586 4.02705 0
M  V30 4607 O 424.845 1.19304 3.35626 0
M  V30 4608 O 423.704 1.59169 5.22807 0
M  V30 4609 H 420.798 0.206634 0.800769 0
M  V30 4610 H 423.344 1.1017 1.29076 0
M  V30 4611 H 422.116 2.27848 3.18121 0
M  V30 4612 H 421.739 0.725648 3.90922 0
M  V30 4613 N 422.737 -1.36956 0.779787 0
M  V30 4614 C 423.67 -2.27896 0.117681 0
M  V30 4615 C 424.648 -1.46736 -0.700523 0
M  V30 4616 O 425.832 -1.76055 -0.673568 0
M  V30 4617 C 422.959 -3.28136 -0.839296 0
M  V30 4618 C 422.005 -4.26373 -0.10409 0
M  V30 4619 S 422.838 -5.2157 1.21348 0
M  V30 4620 C 423.994 -6.25359 0.260249 0
M  V30 4621 H 424.227 -2.83704 0.888778 0
M  V30 4622 H 421.76 -1.43352 0.57355 0
M  V30 4623 H 423.718 -3.86394 -1.38601 0
M  V30 4624 H 422.379 -2.7126 -1.58356 0
M  V30 4625 H 421.572 -4.97121 -0.82986 0
M  V30 4626 H 421.174 -3.72147 0.371858 0
M  V30 4627 H 423.466 -6.75145 -0.564435 0
M  V30 4628 H 424.409 -7.01885 0.936135 0
M  V30 4629 H 424.817 -5.64345 -0.132127 0
M  V30 4630 N 424.215 -0.530993 -1.48385 0
M  V30 4631 C 425.147 0.268353 -2.27624 0
M  V30 4632 C 426.16 0.903525 -1.35426 0
M  V30 4633 O 427.349 0.781796 -1.60469 0
M  V30 4634 C 424.449 1.39535 -3.08842 0
M  V30 4635 C 423.622 0.861913 -4.28824 0
M  V30 4636 C 422.681 1.87016 -4.91845 0
M  V30 4637 O 421.707 1.4267 -5.5103 0
M  V30 4638 N 422.909 3.20238 -4.84178 0
M  V30 4639 H 425.674 -0.41123 -2.96865 0
M  V30 4640 H 423.235 -0.365387 -1.57723 0
M  V30 4641 H 425.227 2.06803 -3.47871 0
M  V30 4642 H 423.797 1.97859 -2.42014 0
M  V30 4643 H 423.017 0.0132126 -3.94198 0
M  V30 4644 H 424.305 0.484415 -5.06489 0
M  V30 4645 H 423.703 3.58932 -4.37246 0
M  V30 4646 H 422.26 3.83136 -5.27305 0
M  V30 4647 N 425.693 1.55336 -0.266172 0
M  V30 4648 C 426.656 2.20878 0.612001 0
M  V30 4649 C 427.656 1.18388 1.08816 0
M  V30 4650 O 428.846 1.4335 0.989774 0
M  V30 4651 C 425.978 2.86765 1.84332 0
M  V30 4652 H 427.171 2.99873 0.0398718 0
M  V30 4653 H 424.724 1.56291 -0.0167309 0
M  V30 4654 H 425.459 2.11759 2.45619 0
M  V30 4655 H 425.244 3.61862 1.5099 0
M  V30 4656 H 426.734 3.36867 2.46801 0
M  V30 4657 N 427.171 -0.0066808 1.57599 0
M  V30 4658 C 428.101 -0.999296 2.11036 0
M  V30 4659 C 429.082 -1.36278 1.01795 0
M  V30 4660 O 430.267 -1.4477 1.29442 0
M  V30 4661 C 427.397 -2.29328 2.60818 0
M  V30 4662 C 426.351 -2.07159 3.74525 0
M  V30 4663 C 425.677 -3.42512 4.10596 0
M  V30 4664 C 426.977 -1.43959 5.02069 0
M  V30 4665 H 428.671 -0.554382 2.94223 0
M  V30 4666 H 426.217 -0.265221 1.41536 0
M  V30 4667 H 428.17 -2.99117 2.96828 0
M  V30 4668 H 426.894 -2.7592 1.74745 0
M  V30 4669 H 425.553 -1.39797 3.38899 0
M  V30 4670 H 425.201 -3.86795 3.21556 0
M  V30 4671 H 424.901 -3.28498 4.87199 0
M  V30 4672 H 426.425 -4.13628 4.4916 0
M  V30 4673 H 427.839 -2.03696 5.35893 0
M  V30 4674 H 426.236 -1.40452 5.83432 0
M  V30 4675 H 427.306 -0.407992 4.83181 0
M  V30 4676 N 428.649 -1.55105 -0.279332 0
M  V30 4677 C 429.596 -1.8755 -1.34513 0
M  V30 4678 C 430.566 -0.726384 -1.49375 0
M  V30 4679 O 431.751 -0.977063 -1.63884 0
M  V30 4680 C 428.891 -2.14738 -2.70151 0
M  V30 4681 C 428.004 -3.42285 -2.63562 0
M  V30 4682 C 427.139 -3.59206 -3.91337 0
M  V30 4683 C 426.178 -4.80467 -3.79233 0
M  V30 4684 N 425.315 -4.94079 -4.98829 0
M  V30 4685 H 430.155 -2.78456 -1.06143 0
M  V30 4686 H 427.692 -1.37867 -0.512936 0
M  V30 4687 H 429.65 -2.28501 -3.49061 0
M  V30 4688 H 428.28 -1.27075 -2.96735 0
M  V30 4689 H 427.332 -3.37029 -1.76397 0
M  V30 4690 H 428.644 -4.31328 -2.50515 0
M  V30 4691 H 427.798 -3.72751 -4.78687 0
M  V30 4692 H 426.537 -2.68337 -4.07243 0
M  V30 4693 H 425.542 -4.66932 -2.90266 0
M  V30 4694 H 426.767 -5.72765 -3.64852 0
M  V30 4695 H 424.713 -4.06139 -5.15158 0
M  V30 4696 H 424.63 -5.77156 -4.8829 0
M  V30 4697 H 425.898 -5.12003 -5.8777 0
M  V30 4698 N 430.127 0.543554 -1.4793 0
M  V30 4699 C 431.059 1.665 -1.57513 0
M  V30 4700 C 432.072 1.56156 -0.460333 0
M  V30 4701 O 433.261 1.62865 -0.730573 0
M  V30 4702 C 430.361 3.05063 -1.47614 0
M  V30 4703 C 429.534 3.41024 -2.739 0
M  V30 4704 C 428.593 4.58809 -2.57645 0
M  V30 4705 O 427.619 4.62707 -3.31498 0
M  V30 4706 N 428.821 5.56149 -1.66368 0
M  V30 4707 H 431.586 1.5872 -2.5422 0
M  V30 4708 H 429.147 0.730517 -1.44482 0
M  V30 4709 H 431.139 3.81712 -1.34455 0
M  V30 4710 H 429.709 3.06994 -0.589359 0
M  V30 4711 H 428.929 2.53687 -3.01723 0
M  V30 4712 H 430.217 3.61831 -3.57709 0
M  V30 4713 H 429.615 5.55767 -1.05543 0
M  V30 4714 H 428.172 6.32071 -1.59154 0
M  V30 4715 N 431.605 1.3629 0.791371 0
M  V30 4716 C 432.83 1.33726 1.58531 0
M  V30 4717 C 433.255 -0.0794933 1.87932 0
M  V30 4718 O 432.613 -1.05087 1.47738 0
M  V30 4719 C 432.661 2.16425 2.88431 0
M  V30 4720 O 431.765 1.5554 3.81944 0
M  V30 4721 H 431.106 0.457793 0.480959 0
M  V30 4722 H 433.636 1.79547 0.981031 0
M  V30 4723 H 433.646 2.28933 3.37718 0
M  V30 4724 H 432.321 3.19415 2.66359 0
M  V30 4725 H 430.898 1.51961 3.40532 0
M  V30 4726 N 433.083 -1.0153 1.20538 0
M  V30 4727 C 434.308 -1.79283 1.04271 0
M  V30 4728 C 434.733 -1.8372 -0.403544 0
M  V30 4729 O 434.091 -1.27321 -1.2907 0
M  V30 4730 C 434.139 -3.21535 1.63241 0
M  V30 4731 O 433.243 -4.03099 0.870908 0
M  V30 4732 H 432.584 -0.55293 0.367647 0
M  V30 4733 H 435.114 -1.27696 1.59859 0
M  V30 4734 H 435.124 -3.72243 1.6703 0
M  V30 4735 H 433.799 -3.1762 2.68497 0
M  V30 4736 H 432.376 -3.61693 0.907323 0
M  V30 4737 N 434.561 -1.01147 -1.20859 0
M  V30 4738 C 435.789 -0.716911 -1.94082 0
M  V30 4739 C 436.204 0.721568 -1.74467 0
M  V30 4740 O 435.561 1.48889 -1.05539 0
M  V30 4741 C 435.612 -1.03662 -3.46318 0
M  V30 4742 O 435.333 -2.4186 -3.65288 0
M  V30 4743 C 436.834 -0.762386 -4.36695 0
M  V30 4744 H 434.054 -0.26367 -0.617024 0
M  V30 4745 H 436.598 -1.35127 -1.53496 0
M  V30 4746 H 434.753 -0.447757 -3.84804 0
M  V30 4747 H 435.167 -2.53224 -4.59323 0
M  V30 4748 H 436.641 -1.03621 -5.42187 0
M  V30 4749 H 437.118 0.303514 -4.3815 0
M  V30 4750 H 437.724 -1.33316 -4.03865 0
M  V30 4751 N 436.039 1.36541 -0.78704 0
M  V30 4752 C 436.949 2.3387 -0.184896 0
M  V30 4753 C 437.965 1.60927 0.661697 0
M  V30 4754 O 439.141 1.92927 0.57804 0
M  V30 4755 C 436.206 3.40122 0.672145 0
M  V30 4756 C 435.267 4.28867 -0.19267 0
M  V30 4757 C 434.5 5.30045 0.623561 0
M  V30 4758 O 434.723 5.39232 1.8597 0
M  V30 4759 O 433.657 6.01895 0.0247068 0
M  V30 4760 H 437.483 2.87126 -0.989562 0
M  V30 4761 H 435.068 1.38969 -0.548455 0
M  V30 4762 H 436.95 4.05093 1.16094 0
M  V30 4763 H 435.625 2.89169 1.45474 0
M  V30 4764 H 434.532 3.66945 -0.728166 0
M  V30 4765 H 435.865 4.83165 -0.938722 0
M  V30 4766 N 437.518 0.538854 1.48102 0
M  V30 4767 C 438.448 -0.207654 2.32575 0
M  V30 4768 C 439.429 -0.926559 1.4265 0
M  V30 4769 O 440.614 -0.91061 1.71527 0
M  V30 4770 C 437.744 -1.24957 3.24042 0
M  V30 4771 C 436.698 -0.648263 4.23062 0
M  V30 4772 C 436.024 -1.79348 5.03725 0
M  V30 4773 C 437.324 0.385897 5.20872 0
M  V30 4774 H 439.018 0.497534 2.95237 0
M  V30 4775 H 436.564 0.240715 1.41974 0
M  V30 4776 H 438.517 -1.77983 3.81969 0
M  V30 4777 H 437.241 -1.98446 2.59397 0
M  V30 4778 H 435.9 -0.139452 3.66335 0
M  V30 4779 H 435.548 -2.51696 4.35498 0
M  V30 4780 H 435.248 -1.39702 5.70751 0
M  V30 4781 H 436.772 -2.32735 5.64506 0
M  V30 4782 H 438.186 -0.057607 5.73271 0
M  V30 4783 H 436.583 0.700227 5.96001 0
M  V30 4784 H 437.653 1.28848 4.67468 0
M  V30 4785 N 438.996 -1.55193 0.274407 0
M  V30 4786 C 439.926 -2.25471 -0.607032 0
M  V30 4787 C 440.907 -1.24461 -1.15946 0
M  V30 4788 O 442.092 -1.53179 -1.19373 0
M  V30 4789 C 439.222 -2.97526 -1.79153 0
M  V30 4790 C 438.176 -4.05459 -1.37067 0
M  V30 4791 C 437.502 -4.65084 -2.6382 0
M  V30 4792 C 438.802 -5.19691 -0.521389 0
M  V30 4793 H 440.496 -2.99393 -0.0209343 0
M  V30 4794 H 438.042 -1.43997 -0.00862866 0
M  V30 4795 H 439.995 -3.45402 -2.41404 0
M  V30 4796 H 438.719 -2.21138 -2.40344 0
M  V30 4797 H 437.378 -3.58393 -0.771355 0
M  V30 4798 H 437.026 -3.85365 -3.23268 0
M  V30 4799 H 436.726 -5.37961 -2.36372 0
M  V30 4800 H 438.25 -5.15708 -3.26921 0
M  V30 4801 H 439.664 -5.63623 -1.04889 0
M  V30 4802 H 438.061 -5.99126 -0.341825 0
M  V30 4803 H 439.131 -4.82713 0.46 0
M  V30 4804 N 440.474 -0.00167713 -1.576 0
M  V30 4805 C 441.721 0.68282 -1.90641 0
M  V30 4806 C 442.049 1.73686 -0.875415 0
M  V30 4807 O 441.304 1.95334 0.119575 0
M  V30 4808 C 441.603 1.36189 -3.30435 0
M  V30 4809 C 441.269 0.440887 -4.48739 0
M  V30 4810 C 439.931 0.187312 -4.80835 0
M  V30 4811 C 442.283 -0.193134 -5.20842 0
M  V30 4812 C 439.611 -0.70855 -5.82406 0
M  V30 4813 C 441.963 -1.07688 -6.23367 0
M  V30 4814 C 440.627 -1.33962 -6.53919 0
M  V30 4815 H 439.897 0.249862 -0.697603 0
M  V30 4816 H 442.544 -0.0575642 -1.91413 0
M  V30 4817 H 440.849 2.17636 -3.25794 0
M  V30 4818 H 442.546 1.89759 -3.5326 0
M  V30 4819 H 439.136 0.648694 -4.23663 0
M  V30 4820 H 443.32 -0.0102445 -4.96299 0
M  V30 4821 H 438.576 -0.920097 -6.04437 0
M  V30 4822 H 442.75 -1.57451 -6.78367 0
M  V30 4823 H 440.377 -2.03549 -7.32442 0
M  V30 4824 N 441.952 1.55251 0.271103 0
M  V30 4825 C 443.2 1.75599 1.00047 0
M  V30 4826 C 443.521 0.561188 1.8675 0
M  V30 4827 O 442.791 -0.423846 1.9126 0
M  V30 4828 H 441.371 0.647562 0.372387 0
M  V30 4829 H 444.033 1.92656 0.294876 0
M  V30 4830 H 443.129 2.65766 1.6363 0
M  V30 4831 N 443.43 -0.535701 1.48216 0
M  V30 4832 C 444.678 -1.28928 1.55634 0
M  V30 4833 C 444.999 -1.93645 0.229514 0
M  V30 4834 O 444.269 -1.81038 -0.74846 0
M  V30 4835 H 442.849 -0.47884 0.573342 0
M  V30 4836 H 445.511 -0.623853 1.84646 0
M  V30 4837 H 444.607 -2.07157 2.33436 0
M  V30 4838 N 444.908 -1.36708 -0.784132 0
M  V30 4839 C 445.858 -1.2799 -1.88686 0
M  V30 4840 C 446.842 -0.170282 -1.59996 0
M  V30 4841 O 448.034 -0.403571 -1.72338 0
M  V30 4842 C 445.163 -1.07674 -3.25977 0
M  V30 4843 C 444.249 -2.23127 -3.60659 0
M  V30 4844 N 444.64 -3.48467 -3.66612 0
M  V30 4845 C 442.938 -2.15009 -3.90752 0
M  V30 4846 C 443.639 -4.24525 -3.97685 0
M  V30 4847 N 442.615 -3.53524 -4.12943 0
M  V30 4848 H 446.417 -2.22927 -1.91522 0
M  V30 4849 H 443.931 -1.29503 -0.979933 0
M  V30 4850 H 445.928 -0.995151 -4.04849 0
M  V30 4851 H 444.588 -0.13643 -3.24413 0
M  V30 4852 H 445.599 -3.82534 -3.49125 0
M  V30 4853 H 442.276 -1.28963 -3.97083 0
M  V30 4854 H 443.666 -5.32944 -4.0917 0
M  V30 4855 N 446.386 1.0089 -1.21074 0
M  V30 4856 C 447.296 2.13039 -0.982425 0
M  V30 4857 C 448.312 1.73881 0.0642161 0
M  V30 4858 O 449.488 2.01012 -0.12496 0
M  V30 4859 C 446.553 3.42377 -0.545803 0
M  V30 4860 C 445.614 3.95731 -1.6642 0
M  V30 4861 C 444.847 5.18896 -1.24832 0
M  V30 4862 O 445.07 5.70273 -0.120265 0
M  V30 4863 O 444.004 5.65597 -2.05873 0
M  V30 4864 H 447.83 2.35175 -1.92163 0
M  V30 4865 H 445.415 1.1142 -0.995285 0
M  V30 4866 H 447.297 4.20244 -0.311912 0
M  V30 4867 H 445.972 3.21639 0.364727 0
M  V30 4868 H 444.879 3.19108 -1.95246 0
M  V30 4869 H 446.212 4.20872 -2.55201 0
M  V30 4870 N 447.864 1.01787 1.20321 0
M  V30 4871 C 449.092 0.727194 1.937 0
M  V30 4872 C 449.507 -0.712305 1.74848 0
M  V30 4873 O 448.864 -1.48327 1.06327 0
M  V30 4874 C 448.915 1.05497 3.45764 0
M  V30 4875 O 448.636 2.43794 3.64 0
M  V30 4876 C 450.137 0.785534 4.36285 0
M  V30 4877 H 447.357 0.266939 0.615617 0
M  V30 4878 H 449.901 1.35939 1.52777 0
M  V30 4879 H 448.056 0.468158 3.84561 0
M  V30 4880 H 448.47 2.55656 4.57974 0
M  V30 4881 H 449.944 1.06495 5.4163 0
M  V30 4882 H 450.421 -0.280273 4.38305 0
M  V30 4883 H 451.027 1.35456 4.03152 0
M  V30 4884 N 449.342 -1.36122 0.79427 0
M  V30 4885 C 450.57 -2.03362 0.380989 0
M  V30 4886 C 450.985 -1.59881 -1.00416 0
M  V30 4887 O 450.342 -0.790515 -1.6449 0
M  V30 4888 C 450.393 -3.58804 0.440649 0
M  V30 4889 O 450.114 -4.007 1.77118 0
M  V30 4890 C 451.615 -4.43296 0.0186117 0
M  V30 4891 H 448.835 -0.652526 0.156367 0
M  V30 4892 H 451.379 -1.73998 1.07447 0
M  V30 4893 H 449.534 -3.8686 -0.204458 0
M  V30 4894 H 449.948 -4.95309 1.72538 0
M  V30 4895 H 451.422 -5.51887 0.111488 0
M  V30 4896 H 451.899 -4.2684 -1.03461 0
M  V30 4897 H 452.505 -4.20512 0.636395 0
M  V30 4898 N 450.82 -0.546701 -1.47814 0
M  V30 4899 C 451.783 0.196287 -2.28358 0
M  V30 4900 C 452.783 0.852437 -1.36346 0
M  V30 4901 O 453.973 0.709913 -1.59078 0
M  V30 4902 C 451.105 1.28579 -3.15722 0
M  V30 4903 H 452.298 -0.511086 -2.95513 0
M  V30 4904 H 449.851 -0.303248 -1.5333 0
M  V30 4905 H 450.586 2.0259 -2.53235 0
M  V30 4906 H 450.371 0.820229 -3.83425 0
M  V30 4907 H 451.861 1.80793 -3.76435 0
M  V30 4908 N 452.299 1.55045 -0.282633 0
M  V30 4909 C 453.524 2.04628 0.337977 0
M  V30 4910 C 453.949 1.15937 1.48123 0
M  V30 4911 O 453.307 0.159532 1.80597 0
M  V30 4912 C 453.355 3.51854 0.78936 0
M  V30 4913 O 452.459 3.66236 1.89592 0
M  V30 4914 H 451.8 0.660434 0.0687261 0
M  V30 4915 H 454.33 2.00261 -0.419124 0
M  V30 4916 H 454.34 3.93361 1.08311 0
M  V30 4917 H 453.015 4.15873 -0.0470419 0
M  V30 4918 H 451.592 3.36633 1.60413 0
M  V30 4919 N 453.777 0.010035 1.57597 0
M  V30 4920 C 454.74 -0.963029 2.07986 0
M  V30 4921 C 455.74 -1.26619 0.991173 0
M  V30 4922 O 456.93 -1.2097 1.25347 0
M  V30 4923 C 454.062 -2.2851 2.52974 0
M  V30 4924 H 455.255 -0.526971 2.95234 0
M  V30 4925 H 452.808 -0.237639 1.54483 0
M  V30 4926 H 453.543 -2.76784 1.69 0
M  V30 4927 H 453.328 -2.07824 3.32493 0
M  V30 4928 H 454.818 -2.98294 2.9225 0
M  V30 4929 N 455.255 -1.55392 -0.262866 0
M  V30 4930 C 456.218 -1.88181 -1.30846 0
M  V30 4931 C 457.218 -0.757079 -1.41862 0
M  V30 4932 O 458.408 -1.02519 -1.40838 0
M  V30 4933 C 455.54 -2.09609 -2.68844 0
M  V30 4934 H 456.733 -2.81659 -1.02997 0
M  V30 4935 H 454.286 -1.48039 -0.501414 0
M  V30 4936 H 455.021 -1.18547 -3.01856 0
M  V30 4937 H 454.806 -2.91508 -2.62231 0
M  V30 4938 H 456.296 -2.36215 -3.44372 0
M  V30 4939 N 456.733 0.527833 -1.48498 0
M  V30 4940 C 457.961 1.30823 -1.6029 0
M  V30 4941 C 458.376 1.86945 -0.263974 0
M  V30 4942 O 457.733 1.6651 0.747034 0
M  V30 4943 C 457.784 2.45756 -2.65116 0
M  V30 4944 O 457.505 1.91946 -3.93813 0
M  V30 4945 C 459.006 3.37543 -2.87367 0
M  V30 4946 H 456.226 0.397763 -0.540394 0
M  V30 4947 H 458.77 0.636529 -1.94341 0
M  V30 4948 H 456.925 3.08806 -2.33917 0
M  V30 4949 H 457.339 2.67195 -4.51339 0
M  V30 4950 H 458.813 4.14532 -3.6451 0
M  V30 4951 H 459.29 3.92905 -1.9627 0
M  V30 4952 H 459.896 2.80283 -3.19878 0
M  V30 4953 N 458.211 1.37122 0.776871 0
M  V30 4954 C 459.436 1.354 1.57104 0
M  V30 4955 C 459.861 -0.0595562 1.88006 0
M  V30 4956 O 459.219 -1.03514 1.48844 0
M  V30 4957 C 459.267 2.19472 2.8612 0
M  V30 4958 O 458.371 1.59582 3.80273 0
M  V30 4959 H 457.712 0.462869 0.476076 0
M  V30 4960 H 460.242 1.80577 0.961932 0
M  V30 4961 H 460.252 2.32502 3.35271 0
M  V30 4962 H 458.927 3.22222 2.62956 0
M  V30 4963 H 457.504 1.55564 3.38902 0
M  V30 4964 N 459.689 -1.00246 1.21608 0
M  V30 4965 C 460.619 -2.10921 1.00172 0
M  V30 4966 C 461.6 -1.69938 -0.0741587 0
M  V30 4967 O 462.785 -1.94009 0.0861753 0
M  V30 4968 C 459.915 -3.42618 0.568355 0
M  V30 4969 C 458.869 -3.97407 1.58909 0
M  V30 4970 C 458.195 -5.25038 1.01187 0
M  V30 4971 C 459.495 -4.2918 2.97661 0
M  V30 4972 H 461.189 -2.29112 1.92739 0
M  V30 4973 H 458.735 -1.10101 0.928102 0
M  V30 4974 H 460.688 -4.19444 0.405555 0
M  V30 4975 H 459.412 -3.24227 -0.392961 0
M  V30 4976 H 458.071 -3.22703 1.73949 0
M  V30 4977 H 457.719 -5.02982 0.0421965 0
M  V30 4978 H 457.419 -5.62661 1.6937 0
M  V30 4979 H 458.943 -6.04507 0.860448 0
M  V30 4980 H 460.357 -4.96839 2.86049 0
M  V30 4981 H 458.754 -4.77952 3.6288 0
M  V30 4982 H 459.824 -3.3735 3.48315 0
M  V30 4983 N 461.167 -1.02423 -1.1978 0
M  V30 4984 C 462.416 -0.713265 -1.88667 0
M  V30 4985 C 462.729 0.7609 -1.80193 0
M  V30 4986 O 463.935 1.18473 -2.44288 0
M  V30 4987 C 462.391 -1.22545 -3.38394 0
M  V30 4988 C 461.999 -2.72706 -3.55437 0
M  V30 4989 C 463.743 -0.990257 -4.12788 0
M  V30 4990 C 461.65 -3.17367 -4.99031 0
M  V30 4991 H 460.58 -0.263105 -0.706606 0
M  V30 4992 H 463.231 -1.23792 -1.35454 0
M  V30 4993 H 461.613 -0.628732 -3.90977 0
M  V30 4994 H 462.787 -3.37993 -3.13205 0
M  V30 4995 H 461.102 -2.94453 -2.94425 0
M  V30 4996 H 463.699 -1.29926 -5.18675 0
M  V30 4997 H 464.042 0.0730761 -4.16236 0
M  V30 4998 H 464.575 -1.55074 -3.66329 0
M  V30 4999 H 461.314 -4.23009 -5.00743 0
M  V30 5000 H 460.834 -2.56805 -5.42044 0
M  V30 5001 H 462.513 -3.10441 -5.67658 0
M  V30 5002 N 462.645 1.35699 -0.801477 0
M  V30 5003 C 463.873 2.03157 -0.391768 0
M  V30 5004 C 464.288 1.60412 0.995668 0
M  V30 5005 O 463.645 0.799228 1.64069 0
M  V30 5006 C 463.696 3.58566 -0.459671 0
M  V30 5007 O 463.417 3.99756 -1.7924 0
M  V30 5008 C 464.918 4.4328 -0.0421205 0
M  V30 5009 H 462.138 0.651688 -0.159825 0
M  V30 5010 H 464.682 1.73426 -1.08368 0
M  V30 5011 H 462.837 3.86963 0.183939 0
M  V30 5012 H 463.251 4.94387 -1.75162 0
M  V30 5013 H 464.725 5.51821 -0.140754 0
M  V30 5014 H 465.202 4.27383 1.01196 0
M  V30 5015 H 465.808 4.20168 -0.658687 0
M  V30 5016 N 464.123 0.554532 1.47522 0
M  V30 5017 C 465.353 0.0342074 2.06572 0
M  V30 5018 C 465.761 -1.26375 1.40805 0
M  V30 5019 O 465.104 -1.7683 0.49769 0
M  V30 5020 C 465.166 -0.235096 3.5873 0
M  V30 5021 C 464.83 0.973024 4.46521 0
M  V30 5022 C 465.827 1.8779 4.848 0
M  V30 5023 C 463.512 1.18694 4.88075 0
M  V30 5024 C 465.506 2.98039 5.63428 0
M  V30 5025 C 463.193 2.29254 5.66468 0
M  V30 5026 C 464.191 3.18757 6.04055 0
M  V30 5027 O 463.879 4.27401 6.8087 0
M  V30 5028 H 463.611 0.041587 0.67472 0
M  V30 5029 H 466.165 0.766748 1.90552 0
M  V30 5030 H 464.395 -1.02191 3.72953 0
M  V30 5031 H 466.084 -0.700477 3.9981 0
M  V30 5032 H 466.85 1.72467 4.53299 0
M  V30 5033 H 462.729 0.49947 4.58286 0
M  V30 5034 H 466.273 3.67926 5.92685 0
M  V30 5035 H 462.17 2.4455 5.97382 0
M  V30 5036 H 462.938 4.25415 6.9926 0
M  V30 5037 N 465.601 -1.54893 0.290851 0
M  V30 5038 C 466.531 -2.26103 -0.583084 0
M  V30 5039 C 467.512 -1.25684 -1.14619 0
M  V30 5040 O 468.697 -1.54436 -1.17741 0
M  V30 5041 C 465.827 -2.99409 -1.75987 0
M  V30 5042 C 464.781 -4.0689 -1.32758 0
M  V30 5043 C 464.107 -4.67856 -2.58872 0
M  V30 5044 C 465.407 -5.20215 -0.46624 0
M  V30 5045 H 467.101 -2.99398 0.0108214 0
M  V30 5046 H 464.647 -1.43998 0.00664468 0
M  V30 5047 H 466.6 -3.47943 -2.37727 0
M  V30 5048 H 465.324 -2.23675 -2.37985 0
M  V30 5049 H 463.983 -3.59191 -0.733299 0
M  V30 5050 H 463.631 -3.88772 -3.19163 0
M  V30 5051 H 463.331 -5.40438 -2.30653 0
M  V30 5052 H 464.855 -5.19147 -3.21433 0
M  V30 5053 H 466.269 -5.64704 -0.989047 0
M  V30 5054 H 464.666 -5.99455 -0.27826 0
M  V30 5055 H 465.736 -4.82198 0.511173 0
M  V30 5056 N 467.08 -0.0183926 -1.57589 0
M  V30 5057 C 468.328 0.661253 -1.90976 0
M  V30 5058 C 468.649 1.73281 -0.894353 0
M  V30 5059 O 467.919 1.9579 0.0656788 0
M  V30 5060 H 466.499 0.247233 -0.704901 0
M  V30 5061 H 469.161 -0.0636639 -1.94796 0
M  V30 5062 H 468.257 1.12083 -2.9128 0
M  V30 5063 N 468.558 1.5553 0.254621 0
M  V30 5064 C 469.488 1.9268 1.31897 0
M  V30 5065 C 470.469 0.790797 1.506 0
M  V30 5066 O 471.654 1.05045 1.63337 0
M  V30 5067 C 468.784 2.21477 2.67517 0
M  V30 5068 C 467.738 3.37256 2.63519 0
M  V30 5069 C 467.064 3.51576 4.02862 0
M  V30 5070 C 468.364 4.73157 2.21179 0
M  V30 5071 H 470.058 2.81832 1.01051 0
M  V30 5072 H 467.604 1.35599 0.484662 0
M  V30 5073 H 469.557 2.46055 3.42104 0
M  V30 5074 H 468.281 1.29144 2.99982 0
M  V30 5075 H 466.94 3.12675 1.9139 0
M  V30 5076 H 466.588 2.56676 4.32581 0
M  V30 5077 H 466.288 4.2943 4.01078 0
M  V30 5078 H 467.812 3.78467 4.79161 0
M  V30 5079 H 469.226 4.97158 2.85494 0
M  V30 5080 H 467.623 5.54058 2.30521 0
M  V30 5081 H 468.693 4.70739 1.16332 0
M  V30 5082 N 470.036 -0.519951 1.48776 0
M  V30 5083 C 471.266 -1.29783 1.60748 0
M  V30 5084 C 471.674 -1.87253 0.27072 0
M  V30 5085 O 471.017 -1.67628 -0.751438 0
M  V30 5086 C 471.079 -2.47984 2.60277 0
M  V30 5087 C 470.743 -2.11526 4.051 0
M  V30 5088 C 471.74 -1.66608 4.92481 0
M  V30 5089 C 469.425 -2.21742 4.50706 0
M  V30 5090 C 471.419 -1.32384 6.23501 0
M  V30 5091 C 469.106 -1.87129 5.81744 0
M  V30 5092 C 470.104 -1.42523 6.67964 0
M  V30 5093 O 469.792 -1.0837 7.96562 0
M  V30 5094 H 469.524 -0.400562 0.544542 0
M  V30 5095 H 472.078 -0.632879 1.95407 0
M  V30 5096 H 470.308 -3.17493 2.2076 0
M  V30 5097 H 471.997 -3.10036 2.61978 0
M  V30 5098 H 472.763 -1.58178 4.58481 0
M  V30 5099 H 468.642 -2.55415 3.83776 0
M  V30 5100 H 472.186 -0.974949 6.90754 0
M  V30 5101 H 468.083 -1.95204 6.15277 0
M  V30 5102 H 468.851 -1.21681 8.09405 0
M  V30 5103 N 471.514 -1.37532 -0.769588 0
M  V30 5104 C 472.925 -1.29382 -1.346 0
M  V30 5105 C 473.276 0.0576039 -1.96115 0
M  V30 5106 O 472.401 0.95947 -1.93967 0
M  V30 5107 C 472.996 -2.34298 -2.44724 0
M  V30 5108 C 471.555 -2.29776 -2.98128 0
M  V30 5109 C 470.702 -2.18013 -1.71364 0
M  V30 5110 H 473.653 -1.48123 -0.56968 0
M  V30 5111 H 473.674 -1.99089 -3.24259 0
M  V30 5112 H 473.186 -3.32645 -1.99922 0
M  V30 5113 H 471.287 -1.34959 -3.47299 0
M  V30 5114 H 471.4 -3.23276 -3.53595 0
M  V30 5115 H 469.764 -1.64595 -1.94372 0
M  V30 5116 H 470.547 -3.18278 -1.28662 0
M  V30 5117 N 472.992 0.995999 -1.22138 0
M  V30 5118 C 473.942 2.06988 -0.956042 0
M  V30 5119 C 474.926 1.60636 0.0921576 0
M  V30 5120 O 476.118 1.76607 -0.117958 0
M  V30 5121 C 473.247 3.39148 -0.532335 0
M  V30 5122 C 472.333 3.92142 -1.61509 0
M  V30 5123 N 472.724 4.18397 -2.84214 0
M  V30 5124 C 471.022 4.20514 -1.48606 0
M  V30 5125 C 471.723 4.61425 -3.54206 0
M  V30 5126 N 470.699 4.64934 -2.81669 0
M  V30 5127 H 474.501 2.25223 -1.88816 0
M  V30 5128 H 472.015 1.17748 -1.11845 0
M  V30 5129 H 474.012 4.15642 -0.323574 0
M  V30 5130 H 472.672 3.22314 0.392921 0
M  V30 5131 H 473.683 4.06682 -3.20671 0
M  V30 5132 H 470.36 4.12769 -0.626762 0
M  V30 5133 H 471.75 4.90387 -4.59315 0
M  V30 5134 N 474.47 1.03057 1.19235 0
M  V30 5135 C 475.716 0.729098 1.89241 0
M  V30 5136 C 476.049 -0.740573 1.79525 0
M  V30 5137 O 475.324 -1.53946 1.18874 0
M  V30 5138 C 475.607 1.18304 3.40112 0
M  V30 5139 C 475.46 2.71406 3.5869 0
M  V30 5140 C 476.779 0.765161 4.33397 0
M  V30 5141 H 473.898 0.266338 0.687192 0
M  V30 5142 H 476.54 1.28079 1.40341 0
M  V30 5143 H 474.69 0.713672 3.81889 0
M  V30 5144 H 476.362 3.26303 3.26074 0
M  V30 5145 H 474.605 3.11717 3.01687 0
M  V30 5146 H 475.276 2.98225 4.64506 0
M  V30 5147 H 477.752 1.16889 3.99345 0
M  V30 5148 H 476.628 1.11065 5.37546 0
M  V30 5149 H 476.889 -0.332372 4.40849 0
M  V30 5150 N 475.948 -1.35272 0.808662 0
M  V30 5151 C 476.878 -2.32315 0.234981 0
M  V30 5152 C 477.859 -1.57572 -0.64071 0
M  V30 5153 O 479.044 -1.8563 -0.570551 0
M  V30 5154 C 476.174 -3.41801 -0.615601 0
M  V30 5155 C 475.128 -4.27694 0.161767 0
M  V30 5156 C 474.454 -5.28519 -0.810649 0
M  V30 5157 C 475.754 -5.04231 1.36193 0
M  V30 5158 H 477.448 -2.80543 1.04575 0
M  V30 5159 H 474.994 -1.3488 0.504315 0
M  V30 5160 H 476.947 -4.08693 -1.02702 0
M  V30 5161 H 475.671 -2.92186 -1.45928 0
M  V30 5162 H 474.33 -3.62384 0.554382 0
M  V30 5163 H 473.978 -4.75171 -1.64988 0
M  V30 5164 H 473.678 -5.8686 -0.294822 0
M  V30 5165 H 475.202 -5.98283 -1.22023 0
M  V30 5166 H 476.616 -5.64058 1.02528 0
M  V30 5167 H 475.013 -5.72077 1.81239 0
M  V30 5168 H 476.083 -4.34753 2.14751 0
M  V30 5169 N 477.426 -0.562348 -1.47226 0
M  V30 5170 C 478.358 0.220011 -2.28142 0
M  V30 5171 C 479.371 0.874596 -1.37312 0
M  V30 5172 O 480.56 0.747583 -1.62091 0
M  V30 5173 C 477.66 1.32953 -3.11732 0
M  V30 5174 C 476.833 0.770759 -4.30556 0
M  V30 5175 C 475.892 1.76541 -4.95701 0
M  V30 5176 O 474.918 1.3095 -5.53932 0
M  V30 5177 N 476.12 3.09896 -4.90861 0
M  V30 5178 H 478.885 -0.474107 -2.95926 0
M  V30 5179 H 476.446 -0.398761 -1.56912 0
M  V30 5180 H 478.438 1.99378 -3.5218 0
M  V30 5181 H 477.008 1.92681 -2.46156 0
M  V30 5182 H 476.228 -0.0704056 -3.94137 0
M  V30 5183 H 477.516 0.376872 -5.07402 0
M  V30 5184 H 476.914 3.49577 -4.44761 0
M  V30 5185 H 475.471 3.71865 -5.35313 0
M  V30 5186 N 478.904 1.54736 -0.299062 0
M  V30 5187 C 479.851 2.23448 0.577899 0
M  V30 5188 C 480.821 1.21637 1.13109 0
M  V30 5189 O 482.006 1.50252 1.17597 0
M  V30 5190 C 479.146 2.9774 1.74484 0
M  V30 5191 C 478.259 4.1432 1.22323 0
M  V30 5192 C 477.394 4.76199 2.35388 0
M  V30 5193 C 476.433 5.84927 1.80351 0
M  V30 5194 N 475.57 6.4077 2.86982 0
M  V30 5195 H 480.41 2.97996 -0.0146545 0
M  V30 5196 H 477.947 1.47088 -0.0190013 0
M  V30 5197 H 479.905 3.39045 2.43114 0
M  V30 5198 H 478.535 2.25572 2.30905 0
M  V30 5199 H 477.587 3.7797 0.429249 0
M  V30 5200 H 478.899 4.92659 0.780309 0
M  V30 5201 H 478.053 5.20346 3.11969 0
M  V30 5202 H 476.792 3.97188 2.83006 0
M  V30 5203 H 475.797 5.40207 1.02259 0
M  V30 5204 H 477.022 6.65821 1.3364 0
M  V30 5205 H 474.968 5.64643 3.33938 0
M  V30 5206 H 474.885 7.1445 2.4718 0
M  V30 5207 H 476.153 6.89574 3.63466 0
M  V30 5208 N 480.382 0.0267497 1.57577 0
M  V30 5209 C 481.628 -0.653371 1.91987 0
M  V30 5210 C 481.961 -1.71915 0.903263 0
M  V30 5211 O 481.236 -1.94358 -0.0743387 0
M  V30 5212 C 481.519 -1.272 3.36886 0
M  V30 5213 C 481.372 -0.215938 4.49281 0
M  V30 5214 C 482.691 -2.19069 3.81703 0
M  V30 5215 H 479.81 -0.236047 0.698177 0
M  V30 5216 H 482.452 0.0835236 1.89816 0
M  V30 5217 H 480.602 -1.90005 3.38866 0
M  V30 5218 H 482.274 0.41449 4.59434 0
M  V30 5219 H 480.517 0.458855 4.31366 0
M  V30 5220 H 481.188 -0.688347 5.47691 0
M  V30 5221 H 483.664 -1.66253 3.81444 0
M  V30 5222 H 482.54 -2.59307 4.83788 0
M  V30 5223 H 482.801 -3.08087 3.17072 0
M  V30 5224 N 481.861 -1.55662 -0.24637 0
M  V30 5225 C 483.277 -1.48098 -0.594907 0
M  V30 5226 C 483.477 -0.717044 -1.8831 0
M  V30 5227 O 482.533 -0.246618 -2.51293 0
M  V30 5228 C 483.846 -2.92507 -0.697146 0
M  V30 5229 C 485.394 -3.02881 -0.789436 0
M  V30 5230 C 485.869 -4.48598 -0.923232 0
M  V30 5231 N 487.36 -4.52538 -0.988088 0
M  V30 5232 C 488.095 -5.62536 -1.11089 0
M  V30 5233 N 487.591 -6.82342 -1.19919 0
M  V30 5234 N 489.384 -5.50334 -1.14408 0
M  V30 5235 H 481.535 -2.0377 0.599278 0
M  V30 5236 H 483.798 -0.925145 0.20691 0
M  V30 5237 H 483.504 -3.51242 0.179396 0
M  V30 5238 H 483.378 -3.43024 -1.5689 0
M  V30 5239 H 485.765 -2.44226 -1.65643 0
M  V30 5240 H 485.846 -2.55574 0.107482 0
M  V30 5241 H 485.49 -5.07864 -0.0607927 0
M  V30 5242 H 485.42 -4.93587 -1.8352 0
M  V30 5243 H 487.911 -3.66248 -0.931167 0
M  V30 5244 H 488.224 -7.61924 -1.29197 0
M  V30 5245 H 486.569 -6.85102 -1.16876 0
M  V30 5246 H 489.76 -4.5567 -1.07158 0
M  V30 5247 H 489.933 -6.36096 -1.23634 0
M  V30 5248 N 483.339 0.512053 -1.4905 0
M  V30 5249 C 484.249 1.64139 -1.67617 0
M  V30 5250 C 485.265 1.64786 -0.558701 0
M  V30 5251 O 486.441 1.8341 -0.832034 0
M  V30 5252 C 483.506 3.00548 -1.72835 0
M  V30 5253 C 482.567 3.10615 -2.96339 0
M  V30 5254 C 481.8 4.40517 -3.01298 0
M  V30 5255 O 482.023 5.28671 -2.14157 0
M  V30 5256 O 480.957 4.55325 -3.93653 0
M  V30 5257 H 484.783 1.51407 -2.63267 0
M  V30 5258 H 482.368 0.687131 -1.32661 0
M  V30 5259 H 484.25 3.81641 -1.78683 0
M  V30 5260 H 482.925 3.13566 -0.803616 0
M  V30 5261 H 481.832 2.2875 -2.96014 0
M  V30 5262 H 483.165 3.0252 -3.88256 0
M  V30 5263 N 484.817 1.37938 0.762283 0
M  V30 5264 C 485.727 1.36681 1.90671 0
M  V30 5265 C 486.743 0.265078 1.71969 0
M  V30 5266 O 487.919 0.502055 1.95042 0
M  V30 5267 C 484.984 1.18211 3.25925 0
M  V30 5268 C 484.045 2.3811 3.57214 0
M  V30 5269 C 483.278 2.20512 4.86014 0
M  V30 5270 O 483.501 1.19429 5.57757 0
M  V30 5271 O 482.435 3.08911 5.16583 0
M  V30 5272 H 486.261 2.33091 1.94685 0
M  V30 5273 H 483.846 1.18767 0.906356 0
M  V30 5274 H 485.728 1.09937 4.06807 0
M  V30 5275 H 484.403 0.248807 3.22742 0
M  V30 5276 H 483.31 2.51958 2.76529 0
M  V30 5277 H 484.643 3.30041 3.65149 0
M  V30 5278 N 486.295 -0.989507 1.22664 0
M  V30 5279 C 487.225 -2.09847 1.02404 0
M  V30 5280 C 488.206 -1.70007 -0.0561303 0
M  V30 5281 O 489.391 -1.93906 0.106748 0
M  V30 5282 C 486.521 -3.41996 0.604663 0
M  V30 5283 C 485.475 -3.95699 1.63115 0
M  V30 5284 C 484.801 -5.23936 1.0675 0
M  V30 5285 C 486.101 -4.25999 3.02196 0
M  V30 5286 H 487.795 -2.27054 1.95158 0
M  V30 5287 H 485.341 -1.09111 0.939727 0
M  V30 5288 H 487.294 -4.1899 0.45002 0
M  V30 5289 H 486.018 -3.24626 -0.35855 0
M  V30 5290 H 484.677 -3.2084 1.77362 0
M  V30 5291 H 484.325 -5.02909 0.0955422 0
M  V30 5292 H 484.025 -5.60833 1.75328 0
M  V30 5293 H 485.549 -6.0356 0.924516 0
M  V30 5294 H 486.963 -4.93777 2.91303 0
M  V30 5295 H 485.36 -4.74076 3.67929 0
M  V30 5296 H 486.43 -3.33636 3.51873 0
M  V30 5297 N 487.773 -1.03688 -1.18687 0
M  V30 5298 C 488.72 -0.624624 -2.22187 0
M  V30 5299 C 489.69 0.365636 -1.62026 0
M  V30 5300 O 490.875 0.260481 -1.89014 0
M  V30 5301 C 488.015 0.0101738 -3.45099 0
M  V30 5302 C 487.128 -1.02709 -4.19613 0
M  V30 5303 C 486.263 -0.361213 -5.2997 0
M  V30 5304 C 485.302 -1.38384 -5.96252 0
M  V30 5305 N 484.439 -0.743196 -6.98155 0
M  V30 5306 H 489.279 -1.51176 -2.56807 0
M  V30 5307 H 486.816 -0.75636 -1.26165 0
M  V30 5308 H 488.774 0.395528 -4.15321 0
M  V30 5309 H 487.404 0.860848 -3.1111 0
M  V30 5310 H 486.456 -1.53043 -3.48256 0
M  V30 5311 H 487.768 -1.80398 -4.65036 0
M  V30 5312 H 486.922 0.0785537 -6.06649 0
M  V30 5313 H 485.661 0.447799 -4.8564 0
M  V30 5314 H 484.666 -1.83378 -5.18317 0
M  V30 5315 H 485.891 -2.19448 -6.42666 0
M  V30 5316 H 483.837 0.0455789 -6.55984 0
M  V30 5317 H 483.754 -1.45784 -7.41811 0
M  V30 5318 H 485.022 -0.327698 -7.78811 0
M  V30 5319 N 489.251 1.34841 -0.815825 0
M  V30 5320 C 490.476 2.03261 -0.41226 0
M  V30 5321 C 490.901 1.61055 0.971751 0
M  V30 5322 O 490.259 0.7917 1.63101 0
M  V30 5323 C 490.307 3.56914 -0.514289 0
M  V30 5324 O 489.411 4.09728 0.468675 0
M  V30 5325 H 488.752 0.641664 -0.170771 0
M  V30 5326 H 491.282 1.72241 -1.10427 0
M  V30 5327 H 491.292 4.06156 -0.387457 0
M  V30 5328 H 489.967 3.86982 -1.52375 0
M  V30 5329 H 488.544 3.71681 0.301316 0
M  V30 5330 N 490.729 0.570148 1.46925 0
M  V30 5331 C 491.676 -0.170257 2.30171 0
M  V30 5332 C 492.646 -0.896099 1.39855 0
M  V30 5333 O 493.831 -0.889248 1.68811 0
M  V30 5334 C 490.971 -1.18605 3.24079 0
M  V30 5335 C 490.084 -0.464947 4.29491 0
M  V30 5336 C 489.219 -1.46716 5.10537 0
M  V30 5337 C 488.258 -0.731758 6.0771 0
M  V30 5338 N 487.395 -1.68142 6.81669 0
M  V30 5339 H 492.235 0.545713 2.92961 0
M  V30 5340 H 489.772 0.280938 1.44392 0
M  V30 5341 H 491.73 -1.78771 3.76957 0
M  V30 5342 H 490.36 -1.86989 2.63125 0
M  V30 5343 H 489.412 0.251506 3.79568 0
M  V30 5344 H 490.724 0.110548 4.98677 0
M  V30 5345 H 489.878 -2.14199 5.6763 0
M  V30 5346 H 488.617 -2.07658 4.41282 0
M  V30 5347 H 487.622 -0.0430787 5.49783 0
M  V30 5348 H 488.847 -0.127904 6.7898 0
M  V30 5349 H 486.793 -2.27918 6.15134 0
M  V30 5350 H 486.71 -1.15841 7.47072 0
M  V30 5351 H 487.978 -2.347 7.43328 0
M  V30 5352 N 492.207 -1.54576 0.307264 0
M  V30 5353 C 493.455 -1.99867 -0.299574 0
M  V30 5354 C 493.776 -1.19714 -1.53927 0
M  V30 5355 O 493.046 -0.29472 -1.9367 0
M  V30 5356 H 491.626 -0.738299 -0.113683 0
M  V30 5357 H 494.288 -1.9032 0.420042 0
M  V30 5358 H 493.384 -3.06901 -0.567283 0
M  V30 5359 N 493.685 -0.035106 -1.57561 0
M  V30 5360 C 494.615 0.942993 -2.13612 0
M  V30 5361 C 495.596 1.33531 -1.05373 0
M  V30 5362 O 496.781 1.41287 -1.33235 0
M  V30 5363 C 493.911 2.22332 -2.66807 0
M  V30 5364 C 492.865 1.97156 -3.79886 0
M  V30 5365 C 492.191 3.31506 -4.19533 0
M  V30 5366 C 493.491 1.30596 -5.05709 0
M  V30 5367 H 495.185 0.476179 -2.95589 0
M  V30 5368 H 492.731 0.227602 -1.4219 0
M  V30 5369 H 494.684 2.91142 -3.04654 0
M  V30 5370 H 493.408 2.7119 -1.81999 0
M  V30 5371 H 492.067 1.30763 -3.42486 0
M  V30 5372 H 491.715 3.78134 -3.31698 0
M  V30 5373 H 491.415 3.15465 -4.95738 0
M  V30 5374 H 492.939 4.01574 -4.59968 0
M  V30 5375 H 494.353 1.89416 -5.41105 0
M  V30 5376 H 492.75 1.24934 -5.86951 0
M  V30 5377 H 493.82 0.279742 -4.84092 0
M  V30 5378 N 495.163 1.55791 0.238111 0
M  V30 5379 C 496.093 1.94068 1.29846 0
M  V30 5380 C 497.074 0.806726 1.49753 0
M  V30 5381 O 498.259 1.06772 1.62214 0
M  V30 5382 C 495.389 2.24302 2.65153 0
M  V30 5383 C 494.343 3.40032 2.59927 0
M  V30 5384 C 493.669 3.55829 3.99111 0
M  V30 5385 C 494.969 4.75476 2.16148 0
M  V30 5386 H 496.663 2.82887 0.980563 0
M  V30 5387 H 494.209 1.36105 0.470253 0
M  V30 5388 H 496.162 2.4967 3.39475 0
M  V30 5389 H 494.886 1.32318 2.98596 0
M  V30 5390 H 493.545 3.14687 1.88063 0
M  V30 5391 H 493.193 2.6125 4.29834 0
M  V30 5392 H 492.893 4.3366 3.96501 0
M  V30 5393 H 494.417 3.83528 4.7512 0
M  V30 5394 H 495.831 5.00158 2.80205 0
M  V30 5395 H 494.228 5.56472 2.24631 0
M  V30 5396 H 495.298 4.71946 1.11333 0
M  V30 5397 N 496.642 -0.504142 1.49319 0
M  V30 5398 C 497.882 -1.26867 1.60263 0
M  V30 5399 C 498.246 -1.89924 0.281578 0
M  V30 5400 O 499.447 -2.67479 0.266176 0
M  V30 5401 C 497.718 -2.30956 2.72753 0
M  V30 5402 S 499.277 -3.1679 3.03628 0
M  V30 5403 H 496.095 -0.431198 0.565322 0
M  V30 5404 H 498.697 -0.571407 1.86963 0
M  V30 5405 H 497.401 -1.83156 3.67263 0
M  V30 5406 H 496.932 -3.05356 2.48035 0
M  V30 5407 H 498.947 -4.31549 2.44908 0
M  V30 5408 N 498.12 -1.38341 -0.754957 0
M  V30 5409 C 499.067 -1.3546 -1.86867 0
M  V30 5410 C 500.037 -0.217369 -1.64672 0
M  V30 5411 O 501.222 -0.409383 -1.86356 0
M  V30 5412 C 498.362 -1.18413 -3.24149 0
M  V30 5413 C 497.475 -2.41511 -3.58185 0
M  V30 5414 C 496.61 -2.17205 -4.84763 0
M  V30 5415 C 495.649 -3.36081 -5.11582 0
M  V30 5416 N 494.786 -3.11219 -6.29354 0
M  V30 5417 H 499.626 -2.30672 -1.88664 0
M  V30 5418 H 497.163 -1.14607 -0.922154 0
M  V30 5419 H 499.121 -1.06545 -4.03366 0
M  V30 5420 H 497.751 -0.268397 -3.21682 0
M  V30 5421 H 496.803 -2.64056 -2.73822 0
M  V30 5422 H 498.115 -3.30115 -3.73932 0
M  V30 5423 H 497.269 -2.02465 -5.7192 0
M  V30 5424 H 496.008 -1.25964 -4.71152 0
M  V30 5425 H 495.013 -3.51341 -4.22894 0
M  V30 5426 H 496.238 -4.28196 -5.27091 0
M  V30 5427 H 494.184 -2.22624 -6.17069 0
M  V30 5428 H 494.101 -3.93373 -6.45596 0
M  V30 5429 H 495.369 -3.00132 -7.19403 0
M  V30 5430 N 499.598 0.982988 -1.23187 0
M  V30 5431 C 500.823 1.76455 -1.08988 0
M  V30 5432 C 501.248 1.84726 0.354691 0
M  V30 5433 O 500.606 1.30699 1.25649 0
M  V30 5434 C 500.654 3.17094 -1.71708 0
M  V30 5435 O 499.758 4.00648 -0.977477 0
M  V30 5436 H 499.099 0.542988 -0.382177 0
M  V30 5437 H 501.629 1.23413 -1.63188 0
M  V30 5438 H 501.639 3.67684 -1.76841 0
M  V30 5439 H 500.314 3.10389 -2.76823 0
M  V30 5440 H 498.891 3.59161 -1.0029 0
M  V30 5441 N 501.076 1.04316 1.18135 0
M  V30 5442 C 502.024 0.630175 2.23901 0
M  V30 5443 C 503.018 -0.344254 1.65865 0
M  V30 5444 O 504.224 -0.211273 1.78756 0
M  V30 5445 H 500.599 0.185578 0.728742 0
M  V30 5446 H 502.57 1.53253 2.56039 0
M  V30 5447 C 501.319 0.011666 3.47698 0
M  V30 5448 H 500.642 0.752526 3.92654 0
M  V30 5449 H 502.082 -0.240046 4.2332 0
M  V30 5450 C 500.541 -1.23913 3.13285 0
M  V30 5451 O 501.071 -2.32959 3.27251 0
M  V30 5452 N 499.277 -1.13338 2.67587 0
M  V30 5453 H 498.824 -0.246006 2.56423 0
M  V30 5454 H 498.782 -1.97116 2.44934 0
M  V30 5455 N 502.554 -1.34406 0.822964 0
M  V30 5456 C 503.486 -2.28305 0.202375 0
M  V30 5457 C 504.499 -1.5103 -0.60777 0
M  V30 5458 O 505.688 -1.73057 -0.437444 0
M  V30 5459 C 502.788 -3.30836 -0.734911 0
M  V30 5460 C 501.961 -4.37388 0.0324177 0
M  V30 5461 C 501.02 -5.1968 -0.825803 0
M  V30 5462 O 500.046 -5.68556 -0.270771 0
M  V30 5463 N 501.248 -5.39393 -2.14558 0
M  V30 5464 H 504.013 -2.82201 1.00909 0
M  V30 5465 H 501.574 -1.4693 0.67993 0
M  V30 5466 H 503.566 -3.82786 -1.31365 0
M  V30 5467 H 502.136 -2.77334 -1.44238 0
M  V30 5468 H 501.356 -3.86152 0.792469 0
M  V30 5469 H 502.644 -5.05702 0.560633 0
M  V30 5470 H 502.042 -5.01357 -2.62025 0
M  V30 5471 H 500.599 -5.94461 -2.67318 0
M  V30 5472 N 504.032 -0.577932 -1.46621 0
M  V30 5473 C 505.309 0.00495287 -1.95599 0
M  V30 5474 C 505.689 1.46428 -1.5206 0
M  V30 5475 O 505.037 2.1517 -0.769046 0
M  V30 5476 C 505.247 -0.162114 -3.48623 0
M  V30 5477 C 506.595 -0.0274623 -4.24591 0
M  V30 5478 O 507.619 -0.0907067 -3.56084 0
M  V30 5479 O 506.478 0.1122 -5.46385 0
M  V30 5480 H 503.572 0.0525057 -0.825332 0
M  V30 5481 H 506.118 -0.645914 -1.56927 0
M  V30 5482 H 504.89 -1.17679 -3.73185 0
M  V30 5483 H 504.513 0.525407 -3.94113 0
M  V30 5484 N 505.51 1.54411 -0.315457 0
M  V30 5485 C 506.458 2.25514 0.569771 0
M  V30 5486 C 507.452 1.2663 1.12522 0
M  V30 5487 O 508.658 1.44434 1.07419 0
M  V30 5488 H 505.033 0.724257 0.202376 0
M  V30 5489 H 507.004 2.98354 -0.0522895 0
M  V30 5490 C 505.753 3.02004 1.72305 0
M  V30 5491 H 505.076 3.77906 1.30488 0
M  V30 5492 H 506.516 3.55014 2.31821 0
M  V30 5493 C 504.975 2.09822 2.63583 0
M  V30 5494 O 505.505 1.67574 3.65078 0
M  V30 5495 N 503.711 1.75478 2.31637 0
M  V30 5496 H 503.258 2.10032 1.49145 0
M  V30 5497 H 503.216 1.14079 2.92973 0
M  V30 5498 N 506.988 0.0434614 1.5754 0
M  V30 5499 C 507.935 -0.93356 2.11077 0
M  V30 5500 C 508.905 -1.31383 1.01626 0
M  V30 5501 O 510.09 -1.40465 1.29129 0
M  V30 5502 C 507.23 -2.20578 2.65404 0
M  V30 5503 C 506.343 -1.88068 3.88914 0
M  V30 5504 C 505.478 -3.09691 4.31584 0
M  V30 5505 C 504.517 -2.73067 5.47815 0
M  V30 5506 N 503.654 -3.87359 5.85574 0
M  V30 5507 H 508.494 -0.470118 2.94268 0
M  V30 5508 H 506.031 -0.220434 1.45439 0
M  V30 5509 H 507.989 -2.95011 2.94999 0
M  V30 5510 H 506.619 -2.64513 1.85021 0
M  V30 5511 H 505.671 -1.03816 3.6596 0
M  V30 5512 H 506.983 -1.57104 4.73413 0
M  V30 5513 H 506.137 -3.92431 4.62691 0
M  V30 5514 H 504.876 -3.43827 3.45882 0
M  V30 5515 H 503.881 -1.88742 5.16388 0
M  V30 5516 H 505.106 -2.40131 6.35227 0
M  V30 5517 H 503.052 -4.21311 5.02825 0
M  V30 5518 H 502.969 -3.60068 6.64746 0
M  V30 5519 H 504.237 -4.70761 6.21292 0
M  V30 5520 N 508.466 -1.55915 -0.229846 0
M  V30 5521 C 509.396 -1.94754 -1.28815 0
M  V30 5522 C 510.377 -0.814657 -1.49323 0
M  V30 5523 O 511.562 -1.07631 -1.61645 0
M  V30 5524 C 508.692 -2.25705 -2.63959 0
M  V30 5525 C 507.646 -3.41406 -2.5812 0
M  V30 5526 C 506.972 -3.57941 -3.97218 0
M  V30 5527 C 508.272 -4.76616 -2.13623 0
M  V30 5528 H 509.966 -2.83404 -0.965547 0
M  V30 5529 H 507.512 -1.36353 -0.463028 0
M  V30 5530 H 509.465 -2.51467 -3.38146 0
M  V30 5531 H 508.189 -1.339 -2.9789 0
M  V30 5532 H 506.848 -3.1568 -1.86391 0
M  V30 5533 H 506.496 -2.63526 -4.28443 0
M  V30 5534 H 506.196 -4.35757 -3.94195 0
M  V30 5535 H 507.72 -3.86042 -4.73079 0
M  V30 5536 H 509.134 -5.01637 -2.77549 0
M  V30 5537 H 507.531 -5.57655 -2.21677 0
M  V30 5538 H 508.601 -4.7253 -1.08829 0
M  V30 5539 N 509.944 0.496216 -1.49584 0
M  V30 5540 C 511.221 1.25755 -1.49816 0
M  V30 5541 C 511.601 2.09859 -0.228572 0
M  V30 5542 O 510.949 2.14449 0.788908 0
M  V30 5543 C 511.159 2.11017 -2.7798 0
M  V30 5544 C 512.507 2.70047 -3.27658 0
M  V30 5545 O 513.531 2.21281 -2.79129 0
M  V30 5546 O 512.39 3.58834 -4.1219 0
M  V30 5547 H 509.484 0.569322 -0.599834 0
M  V30 5548 H 512.03 0.510094 -1.61852 0
M  V30 5549 H 510.802 1.48879 -3.61871 0
M  V30 5550 H 510.425 2.92947 -2.68827 0
M  V30 5551 N 511.423 1.38739 0.74761 0
M  V30 5552 C 512.356 1.3083 1.86972 0
M  V30 5553 C 513.334 0.184229 1.61553 0
M  V30 5554 O 514.518 0.36256 1.8498 0
M  V30 5555 C 511.645 1.02854 3.22705 0
M  V30 5556 C 510.691 2.17281 3.67003 0
M  V30 5557 S 511.524 3.79468 3.77842 0
M  V30 5558 C 512.68 3.53692 5.16385 0
M  V30 5559 H 512.913 2.258 1.93395 0
M  V30 5560 H 510.446 1.24646 0.911199 0
M  V30 5561 H 512.404 0.87397 4.01089 0
M  V30 5562 H 511.065 0.0959295 3.13953 0
M  V30 5563 H 510.258 1.93267 4.65472 0
M  V30 5564 H 509.86 2.28876 2.9579 0
M  V30 5565 H 512.152 3.10176 6.02327 0
M  V30 5566 H 513.095 4.51576 5.45422 0
M  V30 5567 H 513.503 2.8807 4.85464 0
M  V30 5568 N 512.901 -0.976442 1.23707 0
M  V30 5569 C 513.811 -2.10359 1.03856 0
M  V30 5570 C 514.827 -1.73991 -0.0180919 0
M  V30 5571 O 516.003 -2.0061 0.178211 0
M  V30 5572 C 513.068 -3.40809 0.636387 0
M  V30 5573 C 512.129 -3.91179 1.76854 0
M  V30 5574 C 511.362 -5.15404 1.38546 0
M  V30 5575 O 511.585 -5.69754 0.27142 0
M  V30 5576 O 510.519 -5.5994 2.20797 0
M  V30 5577 H 514.345 -2.29997 1.98331 0
M  V30 5578 H 511.93 -1.08742 1.02448 0
M  V30 5579 H 513.812 -4.19269 0.423223 0
M  V30 5580 H 512.487 -3.22493 -0.279322 0
M  V30 5581 H 511.394 -3.13819 2.03638 0
M  V30 5582 H 512.727 -4.13958 2.6627 0
M  V30 5583 N 514.379 -1.04941 -1.1758 0
M  V30 5584 C 515.628 -0.753124 -1.87112 0
M  V30 5585 C 515.941 0.722507 -1.81767 0
M  V30 5586 O 517.147 1.13265 -2.46746 0
M  V30 5587 C 515.603 -1.29695 -3.35719 0
M  V30 5588 C 515.211 -2.80184 -3.49572 0
M  V30 5589 C 516.955 -1.07759 -4.10595 0
M  V30 5590 C 514.862 -3.2788 -4.92187 0
M  V30 5591 H 513.792 -0.278034 -0.700866 0
M  V30 5592 H 516.443 -1.26637 -1.32798 0
M  V30 5593 H 514.825 -0.711522 -3.89555 0
M  V30 5594 H 515.999 -3.44561 -3.05965 0
M  V30 5595 H 514.314 -3.00632 -2.88113 0
M  V30 5596 H 516.911 -1.40899 -5.15802 0
M  V30 5597 H 517.254 -0.0152302 -4.16297 0
M  V30 5598 H 517.787 -1.62809 -3.62957 0
M  V30 5599 H 514.526 -4.33535 -4.91658 0
M  V30 5600 H 514.046 -2.68245 -5.36475 0
M  V30 5601 H 515.725 -3.22412 -5.60945 0
M  V30 5602 N 515.857 1.33968 -0.830081 0
M  V30 5603 C 516.787 2.31911 -0.271911 0
M  V30 5604 C 517.768 1.58571 0.61556 0
M  V30 5605 O 518.953 1.86514 0.540946 0
M  V30 5606 C 516.083 3.42737 0.561146 0
M  V30 5607 C 515.037 4.27383 -0.229789 0
M  V30 5608 C 514.363 5.29742 0.726463 0
M  V30 5609 C 515.663 5.02 -1.44197 0
M  V30 5610 H 517.357 2.78844 -1.09025 0
M  V30 5611 H 514.903 1.34061 -0.52571 0
M  V30 5612 H 516.856 4.10276 0.961867 0
M  V30 5613 H 515.58 2.94471 1.41261 0
M  V30 5614 H 514.239 3.61456 -0.611964 0
M  V30 5615 H 513.887 4.77736 1.57408 0
M  V30 5616 H 513.587 5.87255 0.20142 0
M  V30 5617 H 515.111 6.00149 1.12489 0
M  V30 5618 H 516.525 5.62355 -1.11488 0
M  V30 5619 H 514.922 5.69122 -1.90317 0
M  V30 5620 H 515.992 4.31281 -2.2164 0
M  V30 5621 N 517.335 0.585699 1.46312 0
M  V30 5622 C 518.245 -0.148236 2.34131 0
M  V30 5623 C 519.261 -0.882972 1.49932 0
M  V30 5624 O 520.437 -0.845484 1.82794 0
M  V30 5625 C 517.502 -1.14714 3.27172 0
M  V30 5626 C 516.563 -0.416746 4.27272 0
M  V30 5627 C 515.796 -1.36806 5.15868 0
M  V30 5628 O 516.019 -2.60475 5.07454 0
M  V30 5629 O 514.953 -0.877018 5.95476 0
M  V30 5630 H 518.779 0.572882 2.98248 0
M  V30 5631 H 516.364 0.346082 1.45336 0
M  V30 5632 H 518.246 -1.72303 3.84564 0
M  V30 5633 H 516.921 -1.84967 2.65648 0
M  V30 5634 H 515.828 0.201061 3.73559 0
M  V30 5635 H 517.161 0.244872 4.9159 0
M  V30 5636 N 518.813 -1.54241 0.323641 0
M  V30 5637 C 519.745 -2.21836 -0.576311 0
M  V30 5638 C 520.758 -1.21837 -1.07979 0
M  V30 5639 O 521.947 -1.48306 -0.99336 0
M  V30 5640 C 519.047 -2.86923 -1.80356 0
M  V30 5641 C 518.22 -4.1306 -1.43875 0
M  V30 5642 C 517.279 -4.6174 -2.52353 0
M  V30 5643 O 516.305 -5.26421 -2.16494 0
M  V30 5644 N 517.507 -4.35974 -3.83284 0
M  V30 5645 H 520.272 -2.997 0.00247987 0
M  V30 5646 H 517.833 -1.61233 0.146848 0
M  V30 5647 H 519.825 -3.16414 -2.52318 0
M  V30 5648 H 518.395 -2.12765 -2.29019 0
M  V30 5649 H 517.615 -3.90334 -0.550752 0
M  V30 5650 H 518.903 -4.95148 -1.17071 0
M  V30 5651 H 518.301 -3.84203 -4.15216 0
M  V30 5652 H 516.858 -4.70119 -4.51477 0
M  V30 5653 N 520.291 -0.0518155 -1.57515 0
M  V30 5654 C 521.221 0.920283 -2.146 0
M  V30 5655 C 522.202 1.32406 -1.06783 0
M  V30 5656 O 523.387 1.39866 -1.34726 0
M  V30 5657 C 520.517 2.1949 -2.6915 0
M  V30 5658 C 519.471 1.93116 -3.81956 0
M  V30 5659 C 518.797 3.27037 -4.23026 0
M  V30 5660 C 520.097 1.25225 -5.07066 0
M  V30 5661 H 521.791 0.444801 -2.96077 0
M  V30 5662 H 519.337 0.212508 -1.42423 0
M  V30 5663 H 521.29 2.87894 -3.07725 0
M  V30 5664 H 520.014 2.69244 -1.84865 0
M  V30 5665 H 518.673 1.27123 -3.43854 0
M  V30 5666 H 518.321 3.74595 -3.3569 0
M  V30 5667 H 518.021 3.10189 -4.99056 0
M  V30 5668 H 519.545 3.96673 -4.64202 0
M  V30 5669 H 520.959 1.83666 -5.43083 0
M  V30 5670 H 519.356 1.18702 -5.88243 0
M  V30 5671 H 520.426 0.228382 -4.84362 0
M  V30 5672 N 521.769 1.56035 0.221574 0
M  V30 5673 C 522.716 1.92413 1.27459 0
M  V30 5674 C 523.686 0.781323 1.46576 0
M  V30 5675 O 524.871 1.03721 1.60145 0
M  V30 5676 C 522.011 2.24617 2.61995 0
M  V30 5677 C 521.124 3.51831 2.50677 0
M  V30 5678 C 520.259 3.73482 3.77736 0
M  V30 5679 C 519.298 4.94211 3.6114 0
M  V30 5680 N 518.435 5.12252 4.80148 0
M  V30 5681 H 523.275 2.82203 0.957355 0
M  V30 5682 H 520.812 1.39676 0.461415 0
M  V30 5683 H 522.77 2.41298 3.40339 0
M  V30 5684 H 521.4 1.38 2.91815 0
M  V30 5685 H 520.452 3.43343 1.63767 0
M  V30 5686 H 521.764 4.40328 2.34334 0
M  V30 5687 H 520.918 3.9026 4.64523 0
M  V30 5688 H 519.657 2.83266 3.97003 0
M  V30 5689 H 518.662 4.77384 2.72736 0
M  V30 5690 H 519.887 5.85912 3.43343 0
M  V30 5691 H 517.833 4.24978 4.99729 0
M  V30 5692 H 517.75 5.94881 4.66532 0
M  V30 5693 H 519.018 5.33465 5.68362 0
M  V30 5694 N 523.247 -0.488276 1.49845 0
M  V30 5695 C 524.477 -1.26344 1.63465 0
M  V30 5696 C 524.885 -1.86637 0.310379 0
M  V30 5697 O 524.228 -1.69184 -0.715712 0
M  V30 5698 C 524.29 -2.42407 2.65479 0
M  V30 5699 C 523.954 -2.02886 4.09495 0
M  V30 5700 C 524.951 -1.56124 4.95904 0
M  V30 5701 C 522.636 -2.12131 4.55308 0
M  V30 5702 C 524.63 -1.19129 6.26169 0
M  V30 5703 C 522.317 -1.74747 5.85582 0
M  V30 5704 C 523.315 -1.28322 6.70837 0
M  V30 5705 O 523.003 -0.914491 7.98682 0
M  V30 5706 H 522.735 -0.388921 0.552916 0
M  V30 5707 H 525.289 -0.591288 1.96705 0
M  V30 5708 H 523.519 -3.12739 2.27445 0
M  V30 5709 H 525.208 -3.04409 2.68495 0
M  V30 5710 H 525.974 -1.48417 4.61733 0
M  V30 5711 H 521.853 -2.47217 3.89107 0
M  V30 5712 H 525.397 -0.828211 6.92666 0
M  V30 5713 H 521.294 -1.82109 6.19279 0
M  V30 5714 H 522.062 -1.04485 8.11804 0
M  V30 5715 N 524.725 -1.39134 -0.740242 0
M  V30 5716 C 525.974 -1.35384 -1.49512 0
M  V30 5717 C 526.287 0.04919 -1.95538 0
M  V30 5718 O 527.493 0.209257 -2.70692 0
M  V30 5719 C 525.949 -2.37812 -2.70136 0
M  V30 5720 C 525.557 -3.83804 -2.31081 0
M  V30 5721 C 527.301 -2.4313 -3.47977 0
M  V30 5722 C 525.208 -4.77886 -3.48395 0
M  V30 5723 H 524.138 -0.503297 -0.561434 0
M  V30 5724 H 526.789 -1.64754 -0.807974 0
M  V30 5725 H 525.171 -2.01505 -3.40899 0
M  V30 5726 H 526.345 -4.29123 -1.67898 0
M  V30 5727 H 524.66 -3.81732 -1.66343 0
M  V30 5728 H 527.257 -3.10614 -4.35228 0
M  V30 5729 H 527.6 -1.45423 -3.90074 0
M  V30 5730 H 528.133 -2.78304 -2.84239 0
M  V30 5731 H 524.872 -5.76836 -3.11353 0
M  V30 5732 H 524.392 -4.3725 -4.10576 0
M  V30 5733 H 526.071 -4.96538 -4.148 0
M  V30 5734 N 526.204 0.969867 -1.24223 0
M  V30 5735 C 527.452 1.70918 -1.0785 0
M  V30 5736 C 527.773 1.91186 0.383763 0
M  V30 5737 O 527.043 1.48806 1.27411 0
M  V30 5738 H 525.623 0.633334 -0.396103 0
M  V30 5739 H 528.285 1.16689 -1.56108 0
M  V30 5740 H 527.381 2.69455 -1.57482 0
M  V30 5741 N 527.682 1.05563 1.17022 0
M  V30 5742 C 528.922 0.777033 1.89054 0
M  V30 5743 C 529.286 -0.683617 1.79418 0
M  V30 5744 O 530.487 -1.07648 2.46303 0
M  V30 5745 C 528.758 1.24886 3.34871 0
M  V30 5746 S 530.317 1.0982 4.24835 0
M  V30 5747 H 527.135 0.282082 0.652649 0
M  V30 5748 H 529.737 1.35103 1.41306 0
M  V30 5749 H 528.441 2.30699 3.3942 0
M  V30 5750 H 527.972 0.669292 3.87665 0
M  V30 5751 H 529.987 0.02462 4.96194 0
M  V30 5752 N 529.16 -1.33526 0.837174 0
M  V30 5753 C 530.406 -1.9813 0.432704 0
M  V30 5754 C 530.739 -1.66168 -1.00508 0
M  V30 5755 O 530.014 -0.94069 -1.70239 0
M  V30 5756 C 530.297 -3.54151 0.651834 0
M  V30 5757 C 530.15 -3.95806 2.13676 0
M  V30 5758 C 531.469 -4.39993 0.0968937 0
M  V30 5759 H 528.588 -0.719713 0.15869 0
M  V30 5760 H 531.23 -1.58193 1.05237 0
M  V30 5761 H 529.38 -3.88301 0.124369 0
M  V30 5762 H 531.052 -3.71921 2.72896 0
M  V30 5763 H 529.295 -3.45599 2.62191 0
M  V30 5764 H 529.966 -5.0447 2.24084 0
M  V30 5765 H 532.442 -4.12479 0.547733 0
M  V30 5766 H 531.318 -5.48186 0.279917 0
M  V30 5767 H 531.579 -4.3066 -0.9992 0
M  V30 5768 N 530.638 -0.59345 -1.46 0
M  V30 5769 C 531.887 -0.0808084 -2.01538 0
M  V30 5770 C 532.2 1.29112 -1.46934 0
M  V30 5771 O 533.406 1.8957 -1.94359 0
M  V30 5772 C 531.862 -0.0938311 -3.59778 0
M  V30 5773 C 531.47 -1.46474 -4.23379 0
M  V30 5774 C 533.214 0.364306 -4.22934 0
M  V30 5775 C 531.121 -1.4349 -5.73729 0
M  V30 5776 H 530.051 -0.0264407 -0.753536 0
M  V30 5777 H 532.702 -0.746689 -1.67621 0
M  V30 5778 H 531.084 0.638427 -3.9082 0
M  V30 5779 H 532.258 -2.21758 -4.03931 0
M  V30 5780 H 530.573 -1.86379 -3.7236 0
M  V30 5781 H 533.17 0.405584 -5.3316 0
M  V30 5782 H 533.513 1.38409 -3.92618 0
M  V30 5783 H 534.046 -0.31423 -3.96557 0
M  V30 5784 H 530.785 -2.43184 -6.08722 0
M  V30 5785 H 530.305 -0.724431 -5.95409 0
M  V30 5786 H 531.984 -1.15243 -6.36654 0
M  V30 5787 N 532.116 1.54067 -0.331816 0
M  V30 5788 C 533.063 2.24623 0.530372 0
M  V30 5789 C 534.033 1.24009 1.10503 0
M  V30 5790 O 535.218 1.52712 1.14384 0
M  V30 5791 C 532.358 3.01374 1.68129 0
M  V30 5792 C 531.471 4.16821 1.13507 0
M  V30 5793 C 530.606 4.81085 2.25234 0
M  V30 5794 C 529.645 5.88621 1.67903 0
M  V30 5795 N 528.782 6.46713 2.73326 0
M  V30 5796 H 533.622 2.97898 -0.0778607 0
M  V30 5797 H 531.159 1.47014 -0.0501965 0
M  V30 5798 H 533.117 3.44125 2.35868 0
M  V30 5799 H 531.747 2.30419 2.26069 0
M  V30 5800 H 530.799 3.78796 0.348979 0
M  V30 5801 H 532.111 4.94203 0.675633 0
M  V30 5802 H 531.265 5.26846 3.00862 0
M  V30 5803 H 530.004 4.03102 2.74518 0
M  V30 5804 H 529.009 5.42254 0.907773 0
M  V30 5805 H 530.234 6.68506 1.19487 0
M  V30 5806 H 528.18 5.71599 3.21886 0
M  V30 5807 H 528.097 7.19532 2.3197 0
M  V30 5808 H 529.365 6.97129 3.48758 0
M  V30 5809 N 533.594 0.0601682 1.57485 0
M  V30 5810 C 534.504 -0.926121 2.15546 0
M  V30 5811 C 535.52 -1.33532 1.11558 0
M  V30 5812 O 536.696 -1.4104 1.4377 0
M  V30 5813 C 533.761 -2.17952 2.69625 0
M  V30 5814 C 532.822 -1.82783 3.88444 0
M  V30 5815 C 532.055 -3.02148 4.39935 0
M  V30 5816 O 532.278 -4.15803 3.90466 0
M  V30 5817 O 531.212 -2.82639 5.31412 0
M  V30 5818 H 535.038 -0.462289 3.00161 0
M  V30 5819 H 532.623 -0.162246 1.48516 0
M  V30 5820 H 534.505 -2.91474 3.04337 0
M  V30 5821 H 533.18 -2.63456 1.88077 0
M  V30 5822 H 532.087 -1.06549 3.58606 0
M  V30 5823 H 533.42 -1.42072 4.7125 0
M  V30 5824 N 535.072 -1.5615 -0.213296 0
M  V30 5825 C 536.3 -1.83638 -0.953139 0
M  V30 5826 C 536.715 -0.640362 -1.77609 0
M  V30 5827 O 536.072 0.391071 -1.78261 0
M  V30 5828 C 536.123 -3.09735 -1.86405 0
M  V30 5829 O 535.844 -4.24723 -1.07435 0
M  V30 5830 C 537.345 -3.5027 -2.71709 0
M  V30 5831 H 534.565 -0.610263 -0.278962 0
M  V30 5832 H 537.109 -2.03247 -0.226035 0
M  V30 5833 H 535.264 -2.92077 -2.545 0
M  V30 5834 H 535.678 -4.9641 -1.69343 0
M  V30 5835 H 537.152 -4.41515 -3.31313 0
M  V30 5836 H 537.629 -2.72406 -3.44516 0
M  V30 5837 H 538.235 -3.70396 -2.09015 0
M  V30 5838 N 536.55 0.480323 -1.50102 0
M  V30 5839 C 537.48 1.58769 -1.71215 0
M  V30 5840 C 538.461 1.60583 -0.560997 0
M  V30 5841 O 539.646 1.76996 -0.799127 0
M  V30 5842 C 536.776 2.97148 -1.79778 0
M  V30 5843 C 535.73 3.10201 -2.94888 0
M  V30 5844 C 535.056 4.50137 -2.88584 0
M  V30 5845 C 536.356 2.88283 -4.35534 0
M  V30 5846 H 538.05 1.41354 -2.6393 0
M  V30 5847 H 535.596 0.678591 -1.27008 0
M  V30 5848 H 537.549 3.74536 -1.93133 0
M  V30 5849 H 536.273 3.15699 -0.836772 0
M  V30 5850 H 534.932 2.35244 -2.81169 0
M  V30 5851 H 534.58 4.65593 -1.90349 0
M  V30 5852 H 534.28 4.59808 -3.65856 0
M  V30 5853 H 535.804 5.29558 -3.03976 0
M  V30 5854 H 537.218 3.55427 -4.49827 0
M  V30 5855 H 535.615 3.09408 -5.14186 0
M  V30 5856 H 536.685 1.84219 -4.48544 0
M  V30 5857 N 538.028 1.39524 0.732853 0
M  V30 5858 C 539.444 1.21176 1.03868 0
M  V30 5859 C 539.644 0.0748448 2.01361 0
M  V30 5860 O 538.7 -0.57281 2.45917 0
M  V30 5861 C 540.013 2.54667 1.59892 0
M  V30 5862 C 541.561 2.6153 1.71962 0
M  V30 5863 C 542.036 3.95248 2.31394 0
M  V30 5864 N 543.527 3.96899 2.38801 0
M  V30 5865 C 544.262 4.97138 2.85729 0
M  V30 5866 N 543.758 6.07775 3.32537 0
M  V30 5867 N 545.551 4.84516 2.84957 0
M  V30 5868 H 537.702 2.12225 0.086304 0
M  V30 5869 H 539.965 0.942614 0.100907 0
M  V30 5870 H 539.671 3.38423 0.95721 0
M  V30 5871 H 539.545 2.74538 2.58668 0
M  V30 5872 H 541.932 1.78156 2.35254 0
M  V30 5873 H 542.013 2.45507 0.718327 0
M  V30 5874 H 541.657 4.79054 1.68729 0
M  V30 5875 H 541.587 4.08593 3.32204 0
M  V30 5876 H 544.078 3.16998 2.05719 0
M  V30 5877 H 544.391 6.8017 3.66862 0
M  V30 5878 H 542.736 6.11366 3.30541 0
M  V30 5879 H 545.927 3.97185 2.47713 0
M  V30 5880 H 546.1 5.62783 3.21215 0
M  V30 5881 N 539.506 -0.963266 1.24736 0
M  V30 5882 C 540.436 -2.07628 1.06832 0
M  V30 5883 C 541.417 -1.70088 -0.0200566 0
M  V30 5884 O 542.602 -1.93636 0.147854 0
M  V30 5885 C 539.732 -3.40636 0.677069 0
M  V30 5886 C 538.686 -3.9215 1.71471 0
M  V30 5887 C 538.012 -5.21553 1.1784 0
M  V30 5888 C 539.312 -4.19493 3.11164 0
M  V30 5889 H 541.006 -2.22864 1.9993 0
M  V30 5890 H 538.552 -1.07093 0.96266 0
M  V30 5891 H 540.505 -4.17941 0.538792 0
M  V30 5892 H 539.229 -3.25313 -0.289612 0
M  V30 5893 H 537.888 -3.17005 1.84128 0
M  V30 5894 H 537.536 -5.02593 0.202195 0
M  V30 5895 H 537.236 -5.56988 1.87185 0
M  V30 5896 H 538.76 -6.01463 1.05233 0
M  V30 5897 H 540.174 -4.87487 3.01711 0
M  V30 5898 H 538.571 -4.66165 3.77902 0
M  V30 5899 H 539.641 -3.26097 3.58871 0
M  V30 5900 N 540.985 -1.06182 -1.16461 0
M  V30 5901 C 541.933 -0.665716 -2.2287 0
M  V30 5902 C 542.927 0.317822 -1.66392 0
M  V30 5903 O 544.133 0.182807 -1.79069 0
M  V30 5904 H 540.508 -0.197148 -0.725697 0
M  V30 5905 H 542.479 -1.57307 -2.53569 0
M  V30 5906 C 541.228 -0.0669803 -3.47635 0
M  V30 5907 H 540.551 -0.814899 -3.91407 0
M  V30 5908 H 541.991 0.172669 -4.23648 0
M  V30 5909 C 540.45 1.18913 -3.15216 0
M  V30 5910 O 540.98 2.27723 -3.30916 0
M  V30 5911 N 539.186 1.09066 -2.69357 0
M  V30 5912 H 538.733 0.20518 -2.56782 0
M  V30 5913 H 538.691 1.93195 -2.48039 0
M  V30 5914 N 542.463 1.3308 -0.844243 0
M  V30 5915 C 543.874 1.7992 -0.498566 0
M  V30 5916 C 544.225 1.69808 0.982834 0
M  V30 5917 O 543.35 1.25051 1.7661 0
M  V30 5918 C 543.945 3.26677 -0.898204 0
M  V30 5919 C 542.504 3.71513 -0.604583 0
M  V30 5920 C 541.651 2.54393 -1.10362 0
M  V30 5921 H 544.602 1.20526 -1.03244 0
M  V30 5922 H 544.623 3.79918 -0.21039 0
M  V30 5923 H 544.135 3.34004 -1.97643 0
M  V30 5924 H 542.236 3.69708 0.46335 0
M  V30 5925 H 542.349 4.64755 -1.16358 0
M  V30 5926 H 540.713 2.49246 -0.524273 0
M  V30 5927 H 541.496 2.6448 -2.18873 0
M  V30 5928 N 543.941 0.601185 1.45683 0
M  V30 5929 C 545.352 0.179659 1.85834 0
M  V30 5930 C 545.703 -1.26189 1.50236 0
M  V30 5931 O 544.828 -1.95587 0.925987 0
M  V30 5932 C 545.423 0.319277 3.37292 0
M  V30 5933 C 543.982 -0.0475092 3.7637 0
M  V30 5934 C 543.129 0.646692 2.69654 0
M  V30 5935 H 546.08 0.808268 1.36575 0
M  V30 5936 H 546.101 -0.4503 3.77826 0
M  V30 5937 H 545.613 1.36855 3.6317 0
M  V30 5938 H 543.714 -1.0962 3.5611 0
M  V30 5939 H 543.827 0.34168 4.7788 0
M  V30 5940 H 542.191 0.0849971 2.54558 0
M  V30 5941 H 542.974 1.69797 2.98369 0
M  V30 5942 N 545.419 -1.53889 0.339982 0
M  V30 5943 C 546.665 -2.01152 -0.258003 0
M  V30 5944 C 546.998 -1.22749 -1.50487 0
M  V30 5945 O 546.273 -0.314156 -1.91946 0
M  V30 5946 C 546.556 -3.55468 -0.575717 0
M  V30 5947 C 546.409 -4.44584 0.682996 0
M  V30 5948 C 547.728 -4.1768 -1.38677 0
M  V30 5949 H 544.847 -0.731198 -0.0922992 0
M  V30 5950 H 547.489 -1.84352 0.459814 0
M  V30 5951 H 545.639 -3.69914 -1.18725 0
M  V30 5952 H 547.311 -4.41981 1.32102 0
M  V30 5953 H 545.554 -4.13592 1.3086 0
M  V30 5954 H 546.225 -5.5043 0.416001 0
M  V30 5955 H 548.701 -4.0691 -0.869705 0
M  V30 5956 H 547.577 -5.25734 -1.57783 0
M  V30 5957 H 547.838 -3.72069 -2.38782 0
M  V30 5958 N 546.897 -0.0685191 -1.57451 0
M  V30 5959 C 548.308 0.464634 -1.80826 0
M  V30 5960 C 548.659 1.69847 -0.982169 0
M  V30 5961 O 547.784 2.15439 -0.203734 0
M  V30 5962 C 548.379 0.849721 -3.27971 0
M  V30 5963 C 546.938 1.32776 -3.52204 0
M  V30 5964 C 546.085 0.311332 -2.75547 0
M  V30 5965 H 549.036 -0.294248 -1.55948 0
M  V30 5966 H 549.057 1.71138 -3.39841 0
M  V30 5967 H 548.569 -0.0484736 -3.8807 0
M  V30 5968 H 546.67 2.24456 -2.97406 0
M  V30 5969 H 546.783 1.30794 -4.60901 0
M  V30 5970 H 545.147 0.787915 -2.42206 0
M  V30 5971 H 545.93 -0.579078 -3.38381 0
M  V30 5972 N 548.375 1.56261 0.205012 0
M  V30 5973 C 549.623 1.79684 0.925096 0
M  V30 5974 C 549.944 0.63989 1.84202 0
M  V30 5975 O 549.214 -0.342345 1.92885 0
M  V30 5976 H 547.794 0.662774 0.344587 0
M  V30 5977 H 550.456 1.93734 0.212899 0
M  V30 5978 H 549.552 2.72467 1.52211 0
M  V30 5979 N 549.853 -0.472356 1.50355 0
M  V30 5980 C 551.101 -1.22211 1.60962 0
M  V30 5981 C 551.422 -1.92497 0.311439 0
M  V30 5982 O 550.692 -1.8405 -0.671002 0
M  V30 5983 H 549.272 -0.454092 0.593135 0
M  V30 5984 H 551.934 -0.544977 1.87126 0
M  V30 5985 H 551.03 -1.9707 2.42012 0
M  V30 5986 N 551.331 -1.39911 -0.725443 0
M  V30 5987 C 552.578 -1.37654 -1.48518 0
M  V30 5988 C 552.906 0.0243982 -1.94485 0
M  V30 5989 O 552.161 1.00708 -1.67799 0
M  V30 5990 C 552.46 -2.30368 -2.7325 0
M  V30 5991 C 552.126 -3.77817 -2.461 0
M  V30 5992 C 550.788 -4.17991 -2.38405 0
M  V30 5993 C 553.14 -4.71036 -2.23103 0
M  V30 5994 C 550.468 -5.49433 -2.05768 0
M  V30 5995 C 552.82 -6.02766 -1.9198 0
M  V30 5996 C 551.484 -6.41993 -1.82761 0
M  V30 5997 H 550.754 -0.503713 -0.543465 0
M  V30 5998 H 553.401 -1.7249 -0.831822 0
M  V30 5999 H 551.706 -1.88683 -3.43375 0
M  V30 6000 H 553.403 -2.2591 -3.31309 0
M  V30 6001 H 549.993 -3.45982 -2.52972 0
M  V30 6002 H 554.177 -4.40823 -2.2801 0
M  V30 6003 H 549.433 -5.78738 -1.9716 0
M  V30 6004 H 553.607 -6.74519 -1.73197 0
M  V30 6005 H 551.234 -7.43761 -1.57237 0
M  V30 6006 N 552.809 0.956637 -1.25245 0
M  V30 6007 C 554.225 1.22733 -1.02023 0
M  V30 6008 C 554.425 1.99761 0.264186 0
M  V30 6009 O 553.481 2.32814 0.977436 0
M  V30 6010 C 554.794 2.00367 -2.24217 0
M  V30 6011 C 556.342 2.13418 -2.28958 0
M  V30 6012 C 556.817 2.9445 -3.50803 0
M  V30 6013 N 558.308 3.02029 -3.51187 0
M  V30 6014 C 559.043 3.65116 -4.42129 0
M  V30 6015 N 558.539 4.2983 -5.43339 0
M  V30 6016 N 560.332 3.62237 -4.29815 0
M  V30 6017 H 552.483 0.441282 -2.07765 0
M  V30 6018 H 554.746 0.257686 -0.912306 0
M  V30 6019 H 554.452 1.51165 -3.17556 0
M  V30 6020 H 554.326 3.01077 -2.27228 0
M  V30 6021 H 556.713 2.61819 -1.36143 0
M  V30 6022 H 556.794 1.1202 -2.29968 0
M  V30 6023 H 556.438 2.46741 -4.43939 0
M  V30 6024 H 556.368 3.9607 -3.47039 0
M  V30 6025 H 558.859 2.56007 -2.77973 0
M  V30 6026 H 559.172 4.75819 -6.08947 0
M  V30 6027 H 557.517 4.28465 -5.47214 0
M  V30 6028 H 560.708 3.10863 -3.49974 0
M  V30 6029 H 560.881 4.11117 -5.00886 0
M  V30 6030 N 554.287 1.06798 1.15896 0
M  V30 6031 C 555.533 0.788934 1.86825 0
M  V30 6032 C 555.866 -0.683084 1.8179 0
M  V30 6033 O 555.141 -1.50086 1.23711 0
M  V30 6034 C 555.424 1.29065 3.36176 0
M  V30 6035 C 555.277 2.8268 3.49874 0
M  V30 6036 C 556.596 0.902655 4.30744 0
M  V30 6037 H 553.715 0.288066 0.678371 0
M  V30 6038 H 556.357 1.32479 1.36195 0
M  V30 6039 H 554.507 0.834806 3.79425 0
M  V30 6040 H 556.179 3.36511 3.15528 0
M  V30 6041 H 554.422 3.21157 2.91617 0
M  V30 6042 H 555.093 3.12852 4.54783 0
M  V30 6043 H 557.569 1.29535 3.95424 0
M  V30 6044 H 556.445 1.28111 5.3374 0
M  V30 6045 H 556.706 -0.191951 4.41683 0
M  V30 6046 N 555.766 -1.3263 0.851289 0
M  V30 6047 C 556.729 -2.27247 0.298541 0
M  V30 6048 C 557.729 -1.51467 -0.539847 0
M  V30 6049 O 558.919 -1.7061 -0.351843 0
M  V30 6050 C 556.051 -3.35964 -0.578004 0
M  V30 6051 H 557.244 -2.7765 1.13359 0
M  V30 6052 H 554.797 -1.43245 0.625354 0
M  V30 6053 H 555.532 -2.90823 -1.435 0
M  V30 6054 H 555.317 -3.92094 0.0220539 0
M  V30 6055 H 556.807 -4.06472 -0.957626 0
M  V30 6056 N 557.244 -0.608902 -1.45362 0
M  V30 6057 C 558.174 0.0964526 -2.33301 0
M  V30 6058 C 559.155 0.857444 -1.46908 0
M  V30 6059 O 560.34 0.827735 -1.75676 0
M  V30 6060 C 557.47 1.09354 -3.29635 0
M  V30 6061 C 556.424 0.445676 -4.25673 0
M  V30 6062 C 555.75 1.5511 -5.11708 0
M  V30 6063 C 557.05 -0.633972 -5.18438 0
M  V30 6064 H 558.744 -0.637829 -2.92527 0
M  V30 6065 H 556.29 -0.308178 -1.40664 0
M  V30 6066 H 558.243 1.59556 -3.90025 0
M  V30 6067 H 556.967 1.85843 -2.6857 0
M  V30 6068 H 555.626 -0.0354897 -3.66583 0
M  V30 6069 H 555.274 2.30631 -4.4701 0
M  V30 6070 H 554.974 1.12311 -5.76767 0
M  V30 6071 H 556.498 2.05537 -5.74967 0
M  V30 6072 H 557.912 -0.215974 -5.72893 0
M  V30 6073 H 556.309 -0.983789 -5.91981 0
M  V30 6074 H 557.379 -1.51005 -4.60788 0
M  V30 6075 N 558.722 1.53707 -0.348139 0
M  V30 6076 C 559.669 2.25173 0.506518 0
M  V30 6077 C 560.639 1.25174 1.09182 0
M  V30 6078 O 561.824 1.53917 1.12757 0
M  V30 6079 C 558.964 3.03141 1.64923 0
M  V30 6080 C 558.077 4.18002 1.0908 0
M  V30 6081 C 557.212 4.83447 2.20119 0
M  V30 6082 C 556.251 5.90369 1.61651 0
M  V30 6083 N 555.388 6.49575 2.66451 0
M  V30 6084 H 560.228 2.97799 -0.109452 0
M  V30 6085 H 557.765 1.46953 -0.0657866 0
M  V30 6086 H 559.723 3.46607 2.32205 0
M  V30 6087 H 558.353 2.32803 2.23612 0
M  V30 6088 H 557.405 3.79145 0.308783 0
M  V30 6089 H 558.717 4.94892 0.623178 0
M  V30 6090 H 557.871 5.30008 2.95257 0
M  V30 6091 H 556.61 4.05991 2.70227 0
M  V30 6092 H 555.615 5.43186 0.850209 0
M  V30 6093 H 556.84 6.69735 1.1239 0
M  V30 6094 H 554.786 5.74981 3.15805 0
M  V30 6095 H 554.703 7.21952 2.24325 0
M  V30 6096 H 555.971 7.00789 3.41344 0
M  V30 6097 N 560.2 0.0768682 1.57412 0
M  V30 6098 C 561.428 -0.59997 1.9801 0
M  V30 6099 C 561.843 -1.62842 0.955408 0
M  V30 6100 O 561.2 -1.8241 -0.057314 0
M  V30 6101 C 561.251 -1.26401 3.38681 0
M  V30 6102 O 560.972 -0.276723 4.37225 0
M  V30 6103 C 562.473 -2.0282 3.94182 0
M  V30 6104 H 559.693 -0.162239 0.651091 0
M  V30 6105 H 562.237 0.150771 2.03943 0
M  V30 6106 H 560.392 -1.96581 3.33819 0
M  V30 6107 H 560.806 -0.753744 5.19056 0
M  V30 6108 H 562.28 -2.44667 4.94815 0
M  V30 6109 H 562.757 -2.88678 3.31001 0
M  V30 6110 H 563.363 -1.37496 4.02461 0
M  V30 6111 N 561.678 -1.56367 -0.196722 0
M  V30 6112 C 562.925 -1.80529 -0.917366 0
M  V30 6113 C 563.253 -0.649817 -1.83324 0
M  V30 6114 O 562.508 0.36451 -1.92275 0
M  V30 6115 C 562.807 -3.10663 -1.767 0
M  V30 6116 C 562.473 -4.3962 -1.00225 0
M  V30 6117 C 561.135 -4.74653 -0.791095 0
M  V30 6118 C 563.487 -5.1913 -0.464035 0
M  V30 6119 C 560.815 -5.86692 -0.0302155 0
M  V30 6120 C 563.167 -6.31964 0.283625 0
M  V30 6121 C 561.831 -6.65581 0.505813 0
M  V30 6122 H 561.101 -0.660602 -0.335688 0
M  V30 6123 H 563.748 -1.90615 -0.183844 0
M  V30 6124 H 562.053 -2.95807 -2.56915 0
M  V30 6125 H 563.75 -3.26563 -2.32718 0
M  V30 6126 H 560.34 -4.12127 -1.17684 0
M  V30 6127 H 564.524 -4.9248 -0.614575 0
M  V30 6128 H 559.78 -6.11211 0.151917 0
M  V30 6129 H 563.954 -6.92791 0.708057 0
M  V30 6130 H 561.581 -7.52239 1.0973 0
M  V30 6131 N 563.156 0.464375 -1.50603 0
M  V30 6132 C 564.066 1.58723 -1.72754 0
M  V30 6133 C 565.082 1.62925 -0.610844 0
M  V30 6134 O 566.258 1.8067 -0.889963 0
M  V30 6135 C 563.323 2.94897 -1.82309 0
M  V30 6136 C 562.384 3.0103 -3.06071 0
M  V30 6137 C 561.617 4.30708 -3.1516 0
M  V30 6138 O 561.84 5.2159 -2.30868 0
M  V30 6139 O 560.774 4.42571 -4.0794 0
M  V30 6140 H 564.6 1.42954 -2.67951 0
M  V30 6141 H 562.185 0.644579 -1.3478 0
M  V30 6142 H 564.067 3.75764 -1.90735 0
M  V30 6143 H 562.742 3.10851 -0.902967 0
M  V30 6144 H 561.649 2.19217 -3.03142 0
M  V30 6145 H 562.982 2.90014 -3.97684 0
M  V30 6146 N 564.634 1.40294 0.718013 0
M  V30 6147 C 565.564 1.43118 1.84498 0
M  V30 6148 C 566.545 0.292403 1.67568 0
M  V30 6149 O 567.73 0.500675 1.87635 0
M  V30 6150 C 564.86 1.29065 3.22427 0
M  V30 6151 C 563.814 2.40521 3.54025 0
M  V30 6152 C 563.14 2.11546 4.91073 0
M  V30 6153 C 564.44 3.82859 3.55269 0
M  V30 6154 H 566.134 2.37432 1.82391 0
M  V30 6155 H 563.68 1.14283 0.87609 0
M  V30 6156 H 565.633 1.29658 4.00957 0
M  V30 6157 H 564.357 0.312271 3.25104 0
M  V30 6158 H 563.016 2.39173 2.77834 0
M  V30 6159 H 562.664 1.12104 4.90348 0
M  V30 6160 H 562.364 2.86216 5.1318 0
M  V30 6161 H 563.888 2.13817 5.71939 0
M  V30 6162 H 565.302 3.86044 4.23843 0
M  V30 6163 H 563.699 4.57029 3.88902 0
M  V30 6164 H 564.769 4.12617 2.54706 0
M  V30 6165 N 566.112 -0.949982 1.2575 0
M  V30 6166 C 567.06 -2.06869 1.06339 0
M  V30 6167 C 568.054 -1.69399 -0.00708901 0
M  V30 6168 O 569.26 -1.79383 0.148897 0
M  V30 6169 H 565.635 -0.677197 0.326969 0
M  V30 6170 H 567.606 -2.20396 2.01167 0
M  V30 6171 C 566.355 -3.40503 0.703769 0
M  V30 6172 H 565.678 -3.69807 1.51931 0
M  V30 6173 H 567.118 -4.19623 0.607677 0
M  V30 6174 C 565.577 -3.31685 -0.5905 0
M  V30 6175 O 566.107 -3.67085 -1.63131 0
M  V30 6176 N 564.313 -2.84797 -0.577859 0
M  V30 6177 H 563.86 -2.56186 0.26951 0
M  V30 6178 H 563.818 -2.79279 -1.44398 0
M  V30 6179 N 567.59 -1.07411 -1.15328 0
M  V30 6180 C 568.838 -0.796073 -1.85761 0
M  V30 6181 C 569.159 0.679864 -1.82764 0
M  V30 6182 O 568.429 1.49242 -1.269 0
M  V30 6183 H 567.009 -0.291495 -0.687779 0
M  V30 6184 H 569.671 -1.35799 -1.39802 0
M  V30 6185 H 568.767 -1.13114 -2.90881 0
M  V30 6186 N 569.068 1.32177 -0.85831 0
M  V30 6187 C 570.298 2.01021 -0.476889 0
M  V30 6188 C 570.706 1.64653 0.931995 0
M  V30 6189 O 570.049 0.865713 1.62022 0
M  V30 6190 C 570.111 3.55413 -0.540528 0
M  V30 6191 C 569.775 4.1522 -1.90895 0
M  V30 6192 C 570.772 4.3318 -2.87491 0
M  V30 6193 C 568.457 4.51212 -2.20709 0
M  V30 6194 C 570.451 4.86306 -4.1205 0
M  V30 6195 C 568.138 5.04042 -3.45521 0
M  V30 6196 C 569.136 5.21538 -4.41007 0
M  V30 6197 O 568.824 5.73238 -5.63608 0
M  V30 6198 H 568.556 0.650059 -0.18547 0
M  V30 6199 H 571.11 1.69648 -1.15796 0
M  V30 6200 H 569.34 3.86196 0.19741 0
M  V30 6201 H 571.029 4.05526 -0.174191 0
M  V30 6202 H 571.795 4.05704 -2.65762 0
M  V30 6203 H 567.674 4.36878 -1.4717 0
M  V30 6204 H 571.218 4.99877 -4.86589 0
M  V30 6205 H 567.115 5.30952 -3.67098 0
M  V30 6206 H 567.883 5.91625 -5.65617 0
M  V30 6207 N 570.547 0.616602 1.45037 0
M  V30 6208 C 571.479 -0.135186 2.28801 0
M  V30 6209 C 572.492 -0.82303 1.40464 0
M  V30 6210 O 573.681 -0.686909 1.64754 0
M  V30 6211 C 570.781 -1.21292 3.16451 0
M  V30 6212 C 569.954 -0.61043 4.3312 0
M  V30 6213 C 569.013 -1.58022 5.01912 0
M  V30 6214 O 568.039 -1.10301 5.58411 0
M  V30 6215 N 569.241 -2.91464 5.02025 0
M  V30 6216 H 572.006 0.583612 2.93963 0
M  V30 6217 H 569.567 0.456723 1.55324 0
M  V30 6218 H 571.559 -1.86169 3.59337 0
M  V30 6219 H 570.129 -1.83412 2.53138 0
M  V30 6220 H 569.349 0.216638 3.93604 0
M  V30 6221 H 570.637 -0.188293 5.08451 0
M  V30 6222 H 570.035 -3.32829 4.57429 0
M  V30 6223 H 568.592 -3.51741 5.48745 0
M  V30 6224 N 572.025 -1.5352 0.356285 0
M  V30 6225 C 573.274 -2.00298 -0.237373 0
M  V30 6226 C 573.587 -1.24784 -1.50627 0
M  V30 6227 O 574.793 -1.62103 -2.17795 0
M  V30 6228 C 573.249 -3.56771 -0.473545 0
M  V30 6229 C 572.857 -4.41154 0.780183 0
M  V30 6230 C 574.601 -4.1193 -1.02537 0
M  V30 6231 C 572.508 -5.89161 0.514108 0
M  V30 6232 H 571.438 -0.748307 -0.092478 0
M  V30 6233 H 574.089 -1.77283 0.473588 0
M  V30 6234 H 572.471 -3.75902 -1.24553 0
M  V30 6235 H 573.645 -4.33797 1.55425 0
M  V30 6236 H 571.96 -3.97052 1.25455 0
M  V30 6237 H 574.557 -5.20133 -1.2396 0
M  V30 6238 H 574.9 -3.65943 -1.98473 0
M  V30 6239 H 575.433 -3.96561 -0.313775 0
M  V30 6240 H 572.172 -6.39408 1.44355 0
M  V30 6241 H 571.692 -5.9939 -0.221632 0
M  V30 6242 H 573.371 -6.46857 0.136122 0
M  V30 6243 N 573.503 -0.0852151 -1.57369 0
M  V30 6244 C 574.914 0.445428 -1.81309 0
M  V30 6245 C 575.265 1.68795 -1.00013 0
M  V30 6246 O 574.39 2.15211 -0.226573 0
M  V30 6247 C 574.985 0.814887 -3.28854 0
M  V30 6248 C 573.544 1.29032 -3.53592 0
M  V30 6249 C 572.691 0.282089 -2.75861 0
M  V30 6250 H 575.642 -0.310771 -1.55627 0
M  V30 6251 H 575.663 1.67524 -3.41637 0
M  V30 6252 H 575.175 -0.0896309 -3.87996 0
M  V30 6253 H 573.276 2.21289 -2.9977 0
M  V30 6254 H 573.389 1.25898 -4.62262 0
M  V30 6255 H 571.753 0.762182 -2.43029 0
M  V30 6256 H 572.536 -0.614936 -3.37748 0
M  V30 6257 N 574.981 1.5647 0.188427 0
M  V30 6258 C 575.928 1.95073 1.23349 0
M  V30 6259 C 576.898 0.812238 1.44886 0
M  V30 6260 O 578.083 1.07095 1.57909 0
M  V30 6261 C 575.223 2.30124 2.57171 0
M  V30 6262 C 574.336 3.57069 2.43157 0
M  V30 6263 C 573.471 3.81411 3.69729 0
M  V30 6264 C 572.51 5.0176 3.50575 0
M  V30 6265 N 571.647 5.22321 4.69175 0
M  V30 6266 H 576.487 2.84171 0.89728 0
M  V30 6267 H 574.024 1.40623 0.431683 0
M  V30 6268 H 575.982 2.48463 3.35145 0
M  V30 6269 H 574.612 1.44159 2.88822 0
M  V30 6270 H 573.664 3.4674 1.56447 0
M  V30 6271 H 574.976 4.452 2.24942 0
M  V30 6272 H 574.13 4.00026 4.56141 0
M  V30 6273 H 572.869 2.91624 3.90905 0
M  V30 6274 H 571.874 4.83061 2.62549 0
M  V30 6275 H 573.099 5.93063 3.30837 0
M  V30 6276 H 571.045 4.35483 4.90602 0
M  V30 6277 H 570.962 6.04643 4.53809 0
M  V30 6278 H 572.23 5.45401 5.56919 0
M  V30 6279 N 576.459 -0.456382 1.50847 0
M  V30 6280 C 577.707 -1.20497 1.62249 0
M  V30 6281 C 578.028 -1.92156 0.331839 0
M  V30 6282 O 577.298 -1.84751 -0.651443 0
M  V30 6283 H 575.878 -0.447775 0.597918 0
M  V30 6284 H 578.54 -0.525099 1.87693 0
M  V30 6285 H 577.636 -1.94492 2.44089 0
M  V30 6286 N 577.937 -1.40673 -0.710563 0
M  V30 6287 C 579.183 -1.4043 -1.47142 0
M  V30 6288 C 579.538 -0.00781557 -1.92398 0
M  V30 6289 O 578.831 0.963535 -1.6561 0
M  V30 6290 C 579.025 -2.33253 -2.70791 0
M  V30 6291 C 578.854 -3.81789 -2.37629 0
M  V30 6292 C 577.624 -4.5057 -2.28724 0
M  V30 6293 C 579.822 -4.73152 -2.01572 0
M  V30 6294 N 577.804 -5.84312 -1.88289 0
M  V30 6295 C 579.175 -5.95728 -1.71778 0
M  V30 6296 C 581.23 -4.6094 -1.88252 0
M  V30 6297 C 579.933 -7.07454 -1.30003 0
M  V30 6298 C 581.959 -5.72613 -1.47881 0
M  V30 6299 C 581.321 -6.94278 -1.18987 0
M  V30 6300 H 577.42 -0.569115 -0.536314 0
M  V30 6301 H 580.004 -1.76425 -0.823547 0
M  V30 6302 H 578.175 -1.99378 -3.33321 0
M  V30 6303 H 579.907 -2.23833 -3.37166 0
M  V30 6304 H 576.662 -4.04315 -2.46629 0
M  V30 6305 H 577.086 -6.55153 -1.70596 0
M  V30 6306 H 581.728 -3.67389 -2.09249 0
M  V30 6307 H 579.446 -8.00884 -1.07749 0
M  V30 6308 H 583.032 -5.65161 -1.38145 0
M  V30 6309 H 581.912 -7.79222 -0.88219 0
M  V30 6310 N 579.415 0.9433 -1.26252 0
M  V30 6311 C 580.363 2.06302 -1.07434 0
M  V30 6312 C 581.357 1.694 -0.00189471 0
M  V30 6313 O 582.563 1.79302 -0.158408 0
M  V30 6314 H 578.938 0.675453 -0.330556 0
M  V30 6315 H 580.909 2.19326 -2.02333 0
M  V30 6316 C 579.658 3.40125 -0.721817 0
M  V30 6317 H 578.981 3.68996 -1.5389 0
M  V30 6318 H 580.421 4.19295 -0.629922 0
M  V30 6319 C 578.88 3.31993 0.572902 0
M  V30 6320 O 579.41 3.67945 1.61182 0
M  V30 6321 N 577.616 2.85099 0.562748 0
M  V30 6322 H 577.163 2.5604 -0.283092 0
M  V30 6323 H 577.121 2.80041 1.42915 0
M  V30 6324 N 580.893 1.08022 1.14757 0
M  V30 6325 C 582.139 0.808705 1.85978 0
M  V30 6326 C 582.472 -0.663764 1.82504 0
M  V30 6327 O 581.747 -1.48765 1.25296 0
M  V30 6328 C 582.03 1.32623 3.34788 0
M  V30 6329 C 581.883 2.86375 3.46856 0
M  V30 6330 C 583.202 0.948291 4.29762 0
M  V30 6331 H 580.321 0.295244 0.675278 0
M  V30 6332 H 582.963 1.33917 1.34783 0
M  V30 6333 H 581.113 0.875002 3.78518 0
M  V30 6334 H 582.785 3.39839 3.11941 0
M  V30 6335 H 581.028 3.24232 2.88194 0
M  V30 6336 H 581.699 3.17658 4.51439 0
M  V30 6337 H 584.175 1.33722 3.94028 0
M  V30 6338 H 583.051 1.33765 5.32352 0
M  V30 6339 H 583.312 -0.145094 4.41862 0
M  V30 6340 N 582.371 -1.3172 0.865308 0
M  V30 6341 C 583.62 -1.96145 0.470098 0
M  V30 6342 C 583.933 -1.69182 -0.981674 0
M  V30 6343 O 585.139 -2.27431 -1.48281 0
M  V30 6344 C 583.595 -3.51129 0.789732 0
M  V30 6345 C 583.203 -3.86938 2.25795 0
M  V30 6346 C 584.947 -4.2197 0.462765 0
M  V30 6347 C 582.854 -5.35012 2.52024 0
M  V30 6348 H 581.784 -0.734105 0.172065 0
M  V30 6349 H 584.435 -1.49959 1.05757 0
M  V30 6350 H 582.817 -3.95781 0.131571 0
M  V30 6351 H 583.991 -3.5326 2.95879 0
M  V30 6352 H 582.306 -3.29149 2.55049 0
M  V30 6353 H 584.903 -5.30904 0.636019 0
M  V30 6354 H 585.246 -4.12005 -0.59645 0
M  V30 6355 H 585.779 -3.82936 1.07727 0
M  V30 6356 H 582.518 -5.50008 3.56611 0
M  V30 6357 H 582.038 -5.70058 1.8653 0
M  V30 6358 H 583.717 -6.0222 2.36515 0
M  V30 6359 N 583.85 -0.624285 -1.44708 0
M  V30 6360 C 585.08 -0.132726 -2.06173 0
M  V30 6361 C 585.488 1.19513 -1.46674 0
M  V30 6362 O 584.831 1.74254 -0.581491 0
M  V30 6363 C 584.893 0.0636732 -3.59444 0
M  V30 6364 C 584.557 -1.18496 -4.4137 0
M  V30 6365 C 585.553 -2.10706 -4.75288 0
M  V30 6366 C 583.239 -1.41846 -4.81856 0
M  V30 6367 C 585.233 -3.24582 -5.48567 0
M  V30 6368 C 582.92 -2.5602 -5.54885 0
M  V30 6369 C 583.918 -3.47215 -5.88159 0
M  V30 6370 O 583.606 -4.59399 -6.59703 0
M  V30 6371 H 583.338 -0.0737313 -0.671967 0
M  V30 6372 H 585.892 -0.856789 -1.86677 0
M  V30 6373 H 584.122 0.842809 -3.77404 0
M  V30 6374 H 585.811 0.508924 -4.02697 0
M  V30 6375 H 586.577 -1.93898 -4.44554 0
M  V30 6376 H 582.456 -0.717556 -4.55381 0
M  V30 6377 H 586 -3.95785 -5.74456 0
M  V30 6378 H 581.897 -2.72774 -5.85034 0
M  V30 6379 H 582.665 -4.58293 -6.78166 0
M  V30 6380 N 585.328 1.53329 -0.364422 0
M  V30 6381 C 586.553 2.06132 0.229033 0
M  V30 6382 C 586.978 1.23625 1.41769 0
M  V30 6383 O 586.336 0.255038 1.79497 0
M  V30 6384 C 586.384 3.55544 0.60174 0
M  V30 6385 O 585.488 3.75771 1.69912 0
M  V30 6386 H 584.829 0.663148 0.0336213 0
M  V30 6387 H 587.359 1.97758 -0.524689 0
M  V30 6388 H 587.369 3.98549 0.873073 0
M  V30 6389 H 586.044 4.15039 -0.267421 0
M  V30 6390 H 584.621 3.44663 1.42343 0
M  V30 6391 N 586.806 0.0935595 1.57322 0
M  V30 6392 C 588.055 -0.570191 1.93473 0
M  V30 6393 C 588.368 -1.69434 0.977318 0
M  V30 6394 O 589.574 -2.41914 1.23248 0
M  V30 6395 C 588.03 -1.06564 3.43762 0
M  V30 6396 C 587.638 0.0286723 4.47991 0
M  V30 6397 C 589.382 -1.70221 3.88877 0
M  V30 6398 C 587.289 -0.482046 5.89432 0
M  V30 6399 H 586.219 -0.216764 0.72217 0
M  V30 6400 H 588.87 0.169313 1.82717 0
M  V30 6401 H 587.252 -1.85878 3.49664 0
M  V30 6402 H 588.426 0.804106 4.5373 0
M  V30 6403 H 586.741 0.570336 4.12476 0
M  V30 6404 H 589.338 -2.09502 4.91948 0
M  V30 6405 H 589.681 -2.57078 3.27439 0
M  V30 6406 H 590.214 -0.974919 3.85668 0
M  V30 6407 H 586.953 0.349871 6.54566 0
M  V30 6408 H 586.473 -1.22452 5.87167 0
M  V30 6409 H 588.152 -0.951508 6.39965 0
M  V30 6410 N 588.284 -1.56567 -0.180126 0
M  V30 6411 C 589.524 -1.83285 -0.904761 0
M  V30 6412 C 589.888 -0.673226 -1.7981 0
M  V30 6413 O 591.089 -0.820645 -2.55967 0
M  V30 6414 C 589.36 -3.15086 -1.68688 0
M  V30 6415 S 590.919 -3.63258 -2.46149 0
M  V30 6416 H 587.737 -0.643114 -0.303193 0
M  V30 6417 H 590.339 -1.94785 -0.167034 0
M  V30 6418 H 589.043 -3.97484 -1.02148 0
M  V30 6419 H 588.574 -3.06504 -2.46615 0
M  V30 6420 H 590.589 -3.29884 -3.70663 0
M  V30 6421 N 589.762 0.448376 -1.51087 0
M  V30 6422 C 591.039 1.20926 -1.53741 0
M  V30 6423 C 591.419 2.09025 -0.295222 0
M  V30 6424 O 590.767 2.16851 0.720283 0
M  V30 6425 C 590.977 2.02067 -2.84552 0
M  V30 6426 C 592.325 2.59486 -3.36084 0
M  V30 6427 O 593.349 2.12289 -2.86028 0
M  V30 6428 O 592.208 3.45539 -4.23397 0
M  V30 6429 H 589.302 0.549951 -0.617643 0
M  V30 6430 H 591.848 0.458344 -1.63393 0
M  V30 6431 H 590.62 1.37291 -3.66425 0
M  V30 6432 H 590.243 2.84246 -2.78011 0
M  V30 6433 N 591.24 1.41047 0.703093 0
M  V30 6434 C 592.468 1.4334 1.49202 0
M  V30 6435 C 592.883 0.0365596 1.88765 0
M  V30 6436 O 592.24 -0.942419 1.56284 0
M  V30 6437 C 592.291 2.33538 2.75939 0
M  V30 6438 O 592.012 3.67786 2.38045 0
M  V30 6439 C 593.513 2.44555 3.6974 0
M  V30 6440 H 590.733 0.488472 0.460039 0
M  V30 6441 H 593.277 1.85245 0.86629 0
M  V30 6442 H 591.432 1.94962 3.34766 0
M  V30 6443 H 591.846 4.15816 3.19683 0
M  V30 6444 H 593.32 3.11849 4.55471 0
M  V30 6445 H 593.797 1.47447 4.1371 0
M  V30 6446 H 594.403 2.83735 3.16819 0
M  V30 6447 N 592.718 -0.936591 1.26751 0
M  V30 6448 C 593.668 -2.0219 1.05371 0
M  V30 6449 C 594.652 -1.60893 -0.0154112 0
M  V30 6450 O 595.844 -1.75843 0.202085 0
M  V30 6451 C 592.973 -3.36222 0.693541 0
M  V30 6452 C 592.059 -3.8399 1.80035 0
M  V30 6453 N 592.45 -4.0436 3.03852 0
M  V30 6454 C 590.748 -4.12945 1.685 0
M  V30 6455 C 591.449 -4.44 3.75818 0
M  V30 6456 N 590.425 -4.50966 3.03531 0
M  V30 6457 H 594.227 -2.15958 1.99347 0
M  V30 6458 H 591.741 -1.12277 1.17335 0
M  V30 6459 H 593.738 -4.13625 0.521513 0
M  V30 6460 H 592.398 -3.23821 -0.238693 0
M  V30 6461 H 593.409 -3.9092 3.39709 0
M  V30 6462 H 590.086 -4.09308 0.822986 0
M  V30 6463 H 591.476 -4.67914 4.82189 0
M  V30 6464 N 594.196 -1.08629 -1.14182 0
M  V30 6465 C 595.473 -0.73002 -1.81466 0
M  V30 6466 C 595.853 0.785996 -1.95922 0
M  V30 6467 O 595.201 1.70535 -1.52086 0
M  V30 6468 C 595.411 -1.45957 -3.17014 0
M  V30 6469 C 596.759 -1.62008 -3.92477 0
M  V30 6470 O 597.783 -1.42141 -3.26611 0
M  V30 6471 O 596.642 -1.94806 -5.106 0
M  V30 6472 H 593.736 -0.261307 -0.784632 0
M  V30 6473 H 596.282 -1.188 -1.2118 0
M  V30 6474 H 595.054 -2.49221 -3.01669 0
M  V30 6475 H 594.677 -0.993222 -3.84995 0
M  V30 6476 N 595.674 1.31259 -0.872281 0
M  V30 6477 C 596.92 1.96913 -0.485083 0
M  V30 6478 C 597.253 1.68774 0.960667 0
M  V30 6479 O 596.528 0.985495 1.67685 0
M  V30 6480 C 596.811 3.52299 -0.745502 0
M  V30 6481 C 596.664 3.90002 -2.24095 0
M  V30 6482 C 597.983 4.39582 -0.213516 0
M  V30 6483 H 595.102 0.715252 -0.177716 0
M  V30 6484 H 597.744 1.55347 -1.09395 0
M  V30 6485 H 595.894 3.87835 -0.227276 0
M  V30 6486 H 597.566 3.64555 -2.82661 0
M  V30 6487 H 595.809 3.38526 -2.71261 0
M  V30 6488 H 596.48 4.98352 -2.37381 0
M  V30 6489 H 598.956 4.10882 -0.656902 0
M  V30 6490 H 597.832 5.47251 -0.42516 0
M  V30 6491 H 598.093 4.33158 0.884666 0
M  V30 6492 N 597.152 0.631951 1.44375 0
M  V30 6493 C 598.115 -0.0628142 2.29114 0
M  V30 6494 C 599.115 -0.771494 1.41084 0
M  V30 6495 O 600.305 -0.615959 1.62947 0
M  V30 6496 C 597.437 -1.09953 3.22681 0
M  V30 6497 H 598.63 0.682509 2.92031 0
M  V30 6498 H 596.183 0.392128 1.51301 0
M  V30 6499 H 596.918 -1.87481 2.64616 0
M  V30 6500 H 596.703 -0.595286 3.87555 0
M  V30 6501 H 598.193 -1.58538 3.86336 0
M  V30 6502 N 598.631 -1.53133 0.372548 0
M  V30 6503 C 599.541 -2.29671 -0.478379 0
M  V30 6504 C 600.557 -1.35913 -1.08644 0
M  V30 6505 O 601.733 -1.68975 -1.09588 0
M  V30 6506 C 598.798 -3.07625 -1.599 0
M  V30 6507 C 597.859 -4.17061 -1.01776 0
M  V30 6508 C 597.092 -4.91289 -2.08497 0
M  V30 6509 O 597.315 -4.65442 -3.29727 0
M  V30 6510 O 596.249 -5.7705 -1.71164 0
M  V30 6511 H 600.075 -3.03355 0.144649 0
M  V30 6512 H 597.66 -1.48773 0.136729 0
M  V30 6513 H 599.542 -3.56281 -2.25038 0
M  V30 6514 H 598.217 -2.3677 -2.2073 0
M  V30 6515 H 597.124 -3.72641 -0.330098 0
M  V30 6516 H 598.457 -4.90102 -0.453915 0
M  V30 6517 N 600.109 -0.101901 -1.5727 0
M  V30 6518 C 601.358 0.559922 -1.93772 0
M  V30 6519 C 601.671 1.68913 -0.98629 0
M  V30 6520 O 602.877 2.41256 -1.24529 0
M  V30 6521 C 601.333 1.04739 -3.44322 0
M  V30 6522 C 600.941 -0.05243 -4.47969 0
M  V30 6523 C 602.685 1.68157 -3.89774 0
M  V30 6524 C 600.592 0.450781 -5.8968 0
M  V30 6525 H 599.522 0.212931 -0.723309 0
M  V30 6526 H 602.173 -0.179001 -1.82625 0
M  V30 6527 H 600.555 1.84021 -3.50645 0
M  V30 6528 H 601.729 -0.828157 -4.53297 0
M  V30 6529 H 600.044 -0.592202 -4.12167 0
M  V30 6530 H 602.641 2.0689 -4.93052 0
M  V30 6531 H 602.984 2.55338 -3.28798 0
M  V30 6532 H 603.517 0.954453 -3.8618 0
M  V30 6533 H 600.256 -0.38458 -6.54371 0
M  V30 6534 H 599.776 1.19336 -5.87809 0
M  V30 6535 H 601.455 0.917555 -6.40461 0
M  V30 6536 N 601.587 1.56661 0.17182 0
M  V30 6537 C 602.834 1.81965 0.888529 0
M  V30 6538 C 603.162 0.6789 1.82267 0
M  V30 6539 O 602.417 -0.333875 1.92831 0
M  V30 6540 C 602.716 3.13435 1.71736 0
M  V30 6541 C 602.382 4.41159 0.932184 0
M  V30 6542 C 601.044 4.75851 0.715481 0
M  V30 6543 C 603.396 5.19803 0.381387 0
M  V30 6544 C 600.724 5.86666 -0.063126 0
M  V30 6545 C 603.076 6.31433 -0.384129 0
M  V30 6546 C 601.74 6.64692 -0.611637 0
M  V30 6547 H 601.01 0.665859 0.325136 0
M  V30 6548 H 603.657 1.90884 0.153495 0
M  V30 6549 H 601.962 2.99857 2.52177 0
M  V30 6550 H 603.659 3.30224 2.27493 0
M  V30 6551 H 600.249 4.13947 1.11112 0
M  V30 6552 H 604.433 4.93396 0.536148 0
M  V30 6553 H 599.689 6.10892 -0.249136 0
M  V30 6554 H 603.863 6.91577 -0.818185 0
M  V30 6555 H 601.49 7.50398 -1.21684 0
M  V30 6556 N 603.065 -0.440357 1.51323 0
M  V30 6557 C 604.293 -1.21255 1.67645 0
M  V30 6558 C 604.708 -1.85088 0.37252 0
M  V30 6559 O 604.065 -1.70582 -0.648683 0
M  V30 6560 C 604.116 -2.29881 2.78993 0
M  V30 6561 O 603.837 -1.68659 4.04334 0
M  V30 6562 C 605.338 -3.20214 3.06558 0
M  V30 6563 H 602.558 -0.36558 0.562666 0
M  V30 6564 H 605.102 -0.52214 1.97722 0
M  V30 6565 H 603.257 -2.94643 2.51524 0
M  V30 6566 H 603.671 -2.40426 4.6615 0
M  V30 6567 H 605.145 -3.92575 3.88058 0
M  V30 6568 H 605.622 -3.80794 2.18844 0
M  V30 6569 H 606.228 -2.61156 3.35675 0
M  V30 6570 N 604.543 -1.41418 -0.695603 0
M  V30 6571 C 605.491 -1.43467 -1.83084 0
M  V30 6572 C 606.485 -0.312719 -1.66489 0
M  V30 6573 O 607.691 -0.484744 -1.7335 0
M  V30 6574 H 604.066 -0.448891 -0.603325 0
M  V30 6575 H 606.037 -2.39144 -1.78473 0
M  V30 6576 C 604.786 -1.3337 -3.21104 0
M  V30 6577 H 604.109 -2.18989 -3.3449 0
M  V30 6578 H 605.549 -1.38865 -4.00615 0
M  V30 6579 C 604.008 -0.0460484 -3.36869 0
M  V30 6580 O 604.538 0.909258 -3.91274 0
M  V30 6581 N 602.744 0.0300222 -2.90584 0
M  V30 6582 H 602.291 -0.748129 -2.46497 0
M  V30 6583 H 602.249 0.890991 -3.01511 0
M  V30 6584 N 606.021 0.929856 -1.27246 0
M  V30 6585 C 606.968 2.03017 -1.09785 0
M  V30 6586 C 607.938 1.661 0.000456744 0
M  V30 6587 O 609.123 1.90116 -0.161462 0
M  V30 6588 C 606.263 3.36878 -0.748816 0
M  V30 6589 C 605.376 3.86763 -1.92453 0
M  V30 6590 C 604.511 5.09061 -1.51758 0
M  V30 6591 C 603.55 5.51237 -2.66091 0
M  V30 6592 N 602.687 6.64732 -2.25999 0
M  V30 6593 H 607.527 2.17285 -2.03939 0
M  V30 6594 H 605.064 1.06448 -1.01524 0
M  V30 6595 H 607.022 4.13855 -0.527283 0
M  V30 6596 H 605.652 3.22424 0.155771 0
M  V30 6597 H 604.704 3.06086 -2.25867 0
M  V30 6598 H 606.016 4.13994 -2.78227 0
M  V30 6599 H 605.17 5.93532 -1.25716 0
M  V30 6600 H 603.909 4.83602 -0.630896 0
M  V30 6601 H 602.914 4.65316 -2.92849 0
M  V30 6602 H 604.139 5.78692 -3.55377 0
M  V30 6603 H 602.085 6.40935 -1.3978 0
M  V30 6604 H 602.002 6.91607 -3.05313 0
M  V30 6605 H 603.27 7.52549 -2.03199 0
M  V30 6606 N 607.499 1.09233 1.13605 0
M  V30 6607 C 608.409 0.741939 2.22559 0
M  V30 6608 C 609.425 -0.255236 1.72118 0
M  V30 6609 O 610.601 -0.0970747 2.01166 0
M  V30 6610 C 607.666 0.165595 3.46304 0
M  V30 6611 C 606.727 1.21846 4.11645 0
M  V30 6612 C 605.96 0.669526 5.29484 0
M  V30 6613 O 606.183 -0.508228 5.68131 0
M  V30 6614 O 605.117 1.42361 5.84822 0
M  V30 6615 H 608.943 1.65107 2.54899 0
M  V30 6616 H 606.528 0.866584 1.21699 0
M  V30 6617 H 608.41 -0.152592 4.21124 0
M  V30 6618 H 607.085 -0.716573 3.15669 0
M  V30 6619 H 605.992 1.58931 3.38662 0
M  V30 6620 H 607.325 2.07321 4.46407 0
M  V30 6621 N 608.977 -1.30795 0.87923 0
M  V30 6622 C 609.887 -2.32041 0.345565 0
M  V30 6623 C 610.903 -1.65103 -0.549265 0
M  V30 6624 O 612.079 -1.9645 -0.443763 0
M  V30 6625 C 609.144 -3.43944 -0.436245 0
M  V30 6626 C 608.205 -4.26521 0.48765 0
M  V30 6627 C 607.438 -5.33081 -0.256943 0
M  V30 6628 O 607.661 -5.50762 -1.48381 0
M  V30 6629 O 606.595 -6.00635 0.389985 0
M  V30 6630 H 610.421 -2.79627 1.18501 0
M  V30 6631 H 608.006 -1.3486 0.642885 0
M  V30 6632 H 609.888 -4.12128 -0.879119 0
M  V30 6633 H 608.563 -2.98504 -1.25208 0
M  V30 6634 H 607.47 -3.61057 0.979216 0
M  V30 6635 H 608.803 -4.75551 1.26933 0
M  V30 6636 N 610.455 -0.639598 -1.44038 0
M  V30 6637 C 611.702 -0.14748 -2.01962 0
M  V30 6638 C 612.03 1.23372 -1.50365 0
M  V30 6639 O 611.285 1.8345 -0.681501 0
M  V30 6640 C 611.584 -0.0925348 -3.5728 0
M  V30 6641 C 611.25 -1.41365 -4.28167 0
M  V30 6642 C 609.912 -1.77545 -4.47248 0
M  V30 6643 C 612.264 -2.2853 -4.68427 0
M  V30 6644 C 609.592 -3.00583 -5.03852 0
M  V30 6645 C 611.944 -3.50846 -5.26393 0
M  V30 6646 C 610.608 -3.8724 -5.43692 0
M  V30 6647 H 609.878 -0.0539666 -0.739032 0
M  V30 6648 H 612.525 -0.827599 -1.72694 0
M  V30 6649 H 610.83 0.670987 -3.86012 0
M  V30 6650 H 612.527 0.304891 -3.99839 0
M  V30 6651 H 609.117 -1.1221 -4.13651 0
M  V30 6652 H 613.301 -2.0187 -4.5339 0
M  V30 6653 H 608.557 -3.28846 -5.15432 0
M  V30 6654 H 612.731 -4.18616 -5.56537 0
M  V30 6655 H 610.358 -4.8266 -5.87319 0
M  V30 6656 N 611.933 1.52934 -0.380664 0
M  V30 6657 C 612.881 2.27727 0.47361 0
M  V30 6658 C 613.875 1.31288 1.0705 0
M  V30 6659 O 615.081 1.4886 1.01197 0
M  V30 6660 H 611.456 0.732189 0.171475 0
M  V30 6661 H 613.427 2.97864 -0.178785 0
M  V30 6662 C 612.176 3.0904 1.59341 0
M  V30 6663 H 611.499 3.831 1.14343 0
M  V30 6664 H 612.939 3.64527 2.16555 0
M  V30 6665 C 611.398 2.20813 2.54447 0
M  V30 6666 O 611.928 1.82907 3.57642 0
M  V30 6667 N 610.134 1.85145 2.23986 0
M  V30 6668 H 609.681 2.16169 1.40103 0
M  V30 6669 H 609.639 1.26402 2.87871 0
M  V30 6670 N 613.412 0.11024 1.57214 0
M  V30 6671 C 614.823 -0.416527 1.81994 0
M  V30 6672 C 615.174 -1.67183 1.02686 0
M  V30 6673 O 614.299 -2.14823 0.260782 0
M  V30 6674 C 614.894 -0.762466 3.30109 0
M  V30 6675 C 613.453 -1.23391 3.556 0
M  V30 6676 C 612.6 -0.238166 2.76275 0
M  V30 6677 H 615.551 0.335491 1.55113 0
M  V30 6678 H 615.572 -1.62068 3.44259 0
M  V30 6679 H 615.084 0.151346 3.87805 0
M  V30 6680 H 613.185 -2.16492 3.03253 0
M  V30 6681 H 613.298 -1.18528 4.64207 0
M  V30 6682 H 611.662 -0.723421 2.4421 0
M  V30 6683 H 612.445 0.668591 3.36727 0
M  V30 6684 N 614.89 -1.56749 -0.16351 0
M  V30 6685 C 616.167 -1.73321 -0.906599 0
M  V30 6686 C 616.547 -0.673779 -2.00059 0
M  V30 6687 O 615.895 0.310121 -2.26386 0
M  V30 6688 C 616.105 -3.168 -1.46419 0
M  V30 6689 C 617.453 -3.77993 -1.93407 0
M  V30 6690 O 618.477 -3.20127 -1.56196 0
M  V30 6691 O 617.336 -4.79615 -2.61976 0
M  V30 6692 H 614.43 -0.708073 -0.427272 0
M  V30 6693 H 616.976 -1.69029 -0.150727 0
M  V30 6694 H 615.748 -3.85396 -0.677189 0
M  V30 6695 H 615.371 -3.2545 -2.28403 0
M  V30 6696 N 616.368 0.432326 -1.51554 0
M  V30 6697 C 617.784 0.769195 -1.39841 0
M  V30 6698 C 617.984 1.95584 -0.484675 0
M  V30 6699 O 617.04 2.52433 0.0582829 0
M  V30 6700 C 618.353 1.04487 -2.81963 0
M  V30 6701 C 619.901 1.149 -2.91148 0
M  V30 6702 C 620.376 1.45758 -4.34187 0
M  V30 6703 N 621.867 1.52671 -4.37317 0
M  V30 6704 C 622.602 1.78129 -5.4503 0
M  V30 6705 N 622.098 2.01345 -6.62897 0
M  V30 6706 N 623.891 1.79953 -5.32516 0
M  V30 6707 H 616.042 -0.349122 -2.09511 0
M  V30 6708 H 618.305 -0.0938113 -0.943347 0
M  V30 6709 H 618.011 0.24557 -3.50842 0
M  V30 6710 H 617.885 1.97119 -3.21596 0
M  V30 6711 H 620.272 1.93891 -2.22464 0
M  V30 6712 H 620.353 0.201568 -2.55005 0
M  V30 6713 H 619.997 0.672917 -5.03423 0
M  V30 6714 H 619.927 2.41715 -4.67848 0
M  V30 6715 H 622.418 1.36612 -3.52343 0
M  V30 6716 H 622.731 2.20155 -7.40778 0
M  V30 6717 H 621.076 1.98657 -6.66003 0
M  V30 6718 H 624.267 1.61337 -4.39418 0
M  V30 6719 H 624.44 1.99455 -6.1654 0
M  V30 6720 N 617.846 1.41785 0.688094 0
M  V30 6721 C 619.093 1.41544 1.44816 0
M  V30 6722 C 619.421 0.0271746 1.94481 0
M  V30 6723 O 618.676 -0.962235 1.7041 0
M  V30 6724 C 618.975 2.37532 2.67046 0
M  V30 6725 C 618.641 3.84209 2.35996 0
M  V30 6726 C 617.303 4.24165 2.27239 0
M  V30 6727 C 619.655 4.76785 2.10536 0
M  V30 6728 C 616.983 5.54695 1.91128 0
M  V30 6729 C 619.335 6.07644 1.75931 0
M  V30 6730 C 617.999 6.46613 1.65675 0
M  V30 6731 H 617.269 0.517945 0.529919 0
M  V30 6732 H 619.916 1.74635 0.785797 0
M  V30 6733 H 618.221 1.9772 3.38251 0
M  V30 6734 H 619.918 2.34615 3.25203 0
M  V30 6735 H 616.508 3.52567 2.4371 0
M  V30 6736 H 620.692 4.46714 2.16242 0
M  V30 6737 H 615.948 5.83762 1.81746 0
M  V30 6738 H 620.122 6.78874 1.55252 0
M  V30 6739 H 617.749 7.47668 1.37463 0
M  V30 6740 N 619.324 -0.923095 1.27737 0
M  V30 6741 C 620.257 -2.02515 1.05181 0
M  V30 6742 C 621.235 -1.62574 -0.0292204 0
M  V30 6743 O 622.419 -1.88137 0.116848 0
M  V30 6744 C 619.546 -3.33407 0.596468 0
M  V30 6745 C 618.592 -3.92328 1.67276 0
M  V30 6746 S 619.425 -4.24342 3.26641 0
M  V30 6747 C 620.581 -5.58308 2.82919 0
M  V30 6748 H 620.814 -2.21336 1.98488 0
M  V30 6749 H 618.347 -1.06679 1.1162 0
M  V30 6750 H 620.305 -4.09086 0.34044 0
M  V30 6751 H 618.966 -3.125 -0.316614 0
M  V30 6752 H 618.159 -4.86797 1.30556 0
M  V30 6753 H 617.761 -3.2325 1.8811 0
M  V30 6754 H 620.053 -6.37801 2.28509 0
M  V30 6755 H 620.996 -5.99931 3.7615 0
M  V30 6756 H 621.404 -5.19049 2.21919 0
M  V30 6757 N 620.802 -1.09834 -1.13024 0
M  V30 6758 C 621.732 -0.763451 -2.20666 0
M  V30 6759 C 622.713 0.260778 -1.68089 0
M  V30 6760 O 623.898 0.127915 -1.93778 0
M  V30 6761 C 621.028 -0.187744 -3.46792 0
M  V30 6762 C 619.982 -1.14196 -4.12484 0
M  V30 6763 C 619.308 -0.427755 -5.32986 0
M  V30 6764 C 620.608 -2.48607 -4.59338 0
M  V30 6765 H 622.302 -1.66347 -2.48936 0
M  V30 6766 H 619.848 -0.801261 -1.19649 0
M  V30 6767 H 621.801 0.0586375 -4.21359 0
M  V30 6768 H 620.525 0.747485 -3.17931 0
M  V30 6769 H 619.184 -1.37369 -3.3989 0
M  V30 6770 H 618.832 0.511747 -5.0039 0
M  V30 6771 H 618.532 -1.06403 -5.77886 0
M  V30 6772 H 620.056 -0.189772 -6.10305 0
M  V30 6773 H 621.47 -2.29618 -5.25308 0
M  V30 6774 H 619.867 -3.08062 -5.14993 0
M  V30 6775 H 620.937 -3.09062 -3.73642 0
M  V30 6776 N 622.28 1.30327 -0.886154 0
M  V30 6777 C 623.691 1.78243 -0.555554 0
M  V30 6778 C 624.042 1.72849 0.928314 0
M  V30 6779 O 623.167 1.30607 1.72542 0
M  V30 6780 C 623.762 3.23654 -1.00168 0
M  V30 6781 C 622.321 3.69401 -0.722471 0
M  V30 6782 C 621.468 2.50753 -1.18399 0
M  V30 6783 H 624.419 1.1718 -1.07026 0
M  V30 6784 H 624.44 3.79056 -0.331152 0
M  V30 6785 H 623.952 3.27548 -2.08169 0
M  V30 6786 H 622.053 3.70995 0.345496 0
M  V30 6787 H 622.166 4.60818 -1.31085 0
M  V30 6788 H 620.53 2.47452 -0.603303 0
M  V30 6789 H 621.313 2.57383 -2.27176 0
M  V30 6790 N 623.758 0.647228 1.43697 0
M  V30 6791 C 624.708 -0.0702191 2.27892 0
M  V30 6792 C 625.692 -0.800601 1.39568 0
M  V30 6793 O 626.884 -0.684055 1.63247 0
M  V30 6794 C 624.013 -1.04008 3.27165 0
M  V30 6795 C 623.099 -0.308484 4.22977 0
M  V30 6796 N 623.49 0.671721 5.0132 0
M  V30 6797 C 621.788 -0.550751 4.42586 0
M  V30 6798 C 622.489 1.10543 5.711 0
M  V30 6799 N 621.465 0.440903 5.41809 0
M  V30 6800 H 625.267 0.682031 2.85877 0
M  V30 6801 H 622.781 0.474022 1.55328 0
M  V30 6802 H 624.778 -1.56881 3.86256 0
M  V30 6803 H 623.438 -1.79246 2.70742 0
M  V30 6804 H 624.449 1.0502 5.0714 0
M  V30 6805 H 621.126 -1.28476 3.97241 0
M  V30 6806 H 622.516 1.91614 6.43998 0
M  V30 6807 N 625.236 -1.5273 0.388769 0
M  V30 6808 C 626.647 -1.86505 -0.0853788 0
M  V30 6809 C 626.998 -1.30847 -1.46197 0
M  V30 6810 O 626.123 -0.639609 -2.06732 0
M  V30 6811 C 626.718 -3.38414 -0.161703 0
M  V30 6812 C 625.277 -3.71902 -0.580144 0
M  V30 6813 C 624.424 -2.76095 0.258218 0
M  V30 6814 H 627.375 -1.46647 0.606665 0
M  V30 6815 H 627.396 -3.67638 -0.980936 0
M  V30 6816 H 626.908 -3.78893 0.840333 0
M  V30 6817 H 625.009 -3.36992 -1.58957 0
M  V30 6818 H 625.122 -4.77902 -0.338663 0
M  V30 6819 H 623.486 -2.53195 -0.276432 0
M  V30 6820 H 624.269 -3.19411 1.25822 0
M  V30 6821 N 626.714 -0.118576 -1.57153 0
M  V30 6822 C 627.624 0.845484 -2.18835 0
M  V30 6823 C 628.64 1.29299 -1.16438 0
M  V30 6824 O 629.816 1.35607 -1.48905 0
M  V30 6825 C 626.881 2.07795 -2.77529 0
M  V30 6826 C 625.942 1.6824 -3.9496 0
M  V30 6827 C 625.175 2.85612 -4.50845 0
M  V30 6828 O 625.398 4.01025 -4.05629 0
M  V30 6829 O 624.332 2.62721 -5.41536 0
M  V30 6830 H 628.158 0.350568 -3.0167 0
M  V30 6831 H 625.743 0.107013 -1.49016 0
M  V30 6832 H 627.625 2.79978 -3.14945 0
M  V30 6833 H 626.3 2.56294 -1.97725 0
M  V30 6834 H 625.207 0.931663 -3.62313 0
M  V30 6835 H 626.54 1.24484 -4.76198 0
M  V30 6836 N 628.193 1.56834 0.155195 0
M  V30 6837 C 629.47 1.73799 0.897395 0
M  V30 6838 C 629.85 0.684379 1.99698 0
M  V30 6839 O 629.198 -0.298111 2.26547 0
M  V30 6840 C 629.408 3.17572 1.44737 0
M  V30 6841 C 630.756 3.79014 1.91399 0
M  V30 6842 O 631.78 3.20951 1.54496 0
M  V30 6843 O 630.639 4.80998 2.59429 0
M  V30 6844 H 627.733 0.710329 0.423511 0
M  V30 6845 H 630.279 1.69107 0.141761 0
M  V30 6846 H 629.051 3.85749 0.656741 0
M  V30 6847 H 628.674 3.26657 2.26674 0
M  V30 6848 N 629.671 -0.424282 1.51781 0
M  V30 6849 C 630.634 -1.49848 1.73431 0
M  V30 6850 C 631.634 -1.49016 0.604225 0
M  V30 6851 O 632.824 -1.50808 0.871935 0
M  V30 6852 C 629.956 -2.89332 1.80277 0
M  V30 6853 H 631.149 -1.3195 2.69312 0
M  V30 6854 H 628.702 -0.653809 1.41968 0
M  V30 6855 H 629.437 -3.12618 0.862568 0
M  V30 6856 H 629.222 -2.9134 2.62419 0
M  V30 6857 H 630.712 -3.67233 1.98821 0
M  V30 6858 N 631.149 -1.42148 -0.680565 0
M  V30 6859 C 632.374 -1.45901 -1.47403 0
M  V30 6860 C 632.799 -0.0700985 -1.87969 0
M  V30 6861 O 632.157 0.930145 -1.55621 0
M  V30 6862 C 632.205 -2.38661 -2.70321 0
M  V30 6863 O 631.309 -1.85399 -3.68376 0
M  V30 6864 H 630.65 -0.494565 -0.443059 0
M  V30 6865 H 633.18 -1.86774 -0.835251 0
M  V30 6866 H 633.19 -2.55046 -3.18458 0
M  V30 6867 H 631.865 -3.39571 -2.40134 0
M  V30 6868 H 630.442 -1.78541 -3.2738 0
M  V30 6869 N 632.627 0.916307 -1.28225 0
M  V30 6870 C 634.043 1.19425 -1.05876 0
M  V30 6871 C 634.243 2.005 0.2005 0
M  V30 6872 O 633.299 2.35806 0.902873 0
M  V30 6873 C 634.612 1.93133 -2.30478 0
M  V30 6874 C 636.16 2.06026 -2.35632 0
M  V30 6875 C 636.635 2.83141 -3.59994 0
M  V30 6876 N 638.126 2.90704 -3.60618 0
M  V30 6877 C 638.861 3.50865 -4.53521 0
M  V30 6878 N 638.357 4.12327 -5.56739 0
M  V30 6879 N 640.15 3.48379 -4.41122 0
M  V30 6880 H 632.301 0.37496 -2.09064 0
M  V30 6881 H 634.564 0.228531 -0.920042 0
M  V30 6882 H 634.27 1.40985 -3.22205 0
M  V30 6883 H 634.144 2.93696 -2.36691 0
M  V30 6884 H 636.531 2.57355 -1.44404 0
M  V30 6885 H 636.612 1.04647 -2.33415 0
M  V30 6886 H 636.256 2.32492 -4.51564 0
M  V30 6887 H 636.186 3.84829 -3.59464 0
M  V30 6888 H 638.677 2.47034 -2.85977 0
M  V30 6889 H 638.99 4.56205 -6.23776 0
M  V30 6890 H 637.335 4.10839 -5.60568 0
M  V30 6891 H 640.526 2.99572 -3.59686 0
M  V30 6892 H 640.699 3.94974 -5.13712 0
M  V30 6893 N 634.105 1.10431 1.1244 0
M  V30 6894 C 635.352 0.846717 1.83948 0
M  V30 6895 C 635.68 -0.627709 1.84093 0
M  V30 6896 O 634.935 -1.47876 1.28184 0
M  V30 6897 C 635.234 1.34022 3.3132 0
M  V30 6898 C 634.9 2.82606 3.51347 0
M  V30 6899 C 633.562 3.23182 3.56521 0
M  V30 6900 C 635.914 3.78356 3.58464 0
M  V30 6901 C 633.242 4.58258 3.66356 0
M  V30 6902 C 635.594 5.13234 3.69829 0
M  V30 6903 C 634.258 5.53384 3.73259 0
M  V30 6904 H 633.528 0.309836 0.673114 0
M  V30 6905 H 636.175 1.38091 1.32677 0
M  V30 6906 H 634.48 0.726047 3.85014 0
M  V30 6907 H 636.177 1.11739 3.85118 0
M  V30 6908 H 632.767 2.50212 3.47983 0
M  V30 6909 H 636.951 3.48115 3.53737 0
M  V30 6910 H 632.207 4.88787 3.67284 0
M  V30 6911 H 636.381 5.87272 3.74279 0
M  V30 6912 H 634.008 6.58045 3.80633 0
M  V30 6913 N 635.583 -1.29855 0.893053 0
M  V30 6914 C 636.808 -2.00512 0.530066 0
M  V30 6915 C 637.233 -1.66446 -0.876199 0
M  V30 6916 O 636.591 -0.885446 -1.58207 0
M  V30 6917 C 636.639 -3.53308 0.721505 0
M  V30 6918 O 635.743 -4.11764 -0.228994 0
M  V30 6919 H 635.084 -0.630617 0.207891 0
M  V30 6920 H 637.614 -1.6551 1.20282 0
M  V30 6921 H 637.624 -4.03206 0.623599 0
M  V30 6922 H 636.299 -3.77439 1.74678 0
M  V30 6923 H 634.876 -3.72805 -0.0841034 0
M  V30 6924 N 637.061 -0.65484 -1.43351 0
M  V30 6925 C 638.308 -0.168892 -2.01794 0
M  V30 6926 C 638.636 1.2177 -1.51665 0
M  V30 6927 O 637.891 1.82717 -0.70092 0
M  V30 6928 C 638.19 -0.130424 -3.57162 0
M  V30 6929 C 637.856 -1.45898 -4.26643 0
M  V30 6930 C 636.518 -1.82279 -4.4534 0
M  V30 6931 C 638.87 -2.33485 -4.65976 0
M  V30 6932 C 636.198 -3.0591 -5.00635 0
M  V30 6933 C 638.55 -3.5641 -5.22642 0
M  V30 6934 C 637.214 -3.92985 -5.39555 0
M  V30 6935 H 636.484 -0.061802 -0.738418 0
M  V30 6936 H 639.131 -0.845869 -1.71806 0
M  V30 6937 H 637.436 0.630008 -3.86702 0
M  V30 6938 H 639.133 0.262465 -4.0014 0
M  V30 6939 H 635.723 -1.16591 -4.12437 0
M  V30 6940 H 639.907 -2.06668 -4.51223 0
M  V30 6941 H 635.163 -3.34295 -5.11915 0
M  V30 6942 H 639.337 -4.24495 -5.52066 0
M  V30 6943 H 636.964 -4.88862 -5.82167 0
M  V30 6944 N 638.539 1.52521 -0.396863 0
M  V30 6945 C 639.788 2.00857 0.184184 0
M  V30 6946 C 640.101 1.28733 1.47265 0
M  V30 6947 O 641.307 1.67821 2.13421 0
M  V30 6948 C 639.763 3.57901 0.378787 0
M  V30 6949 C 639.371 4.38931 -0.896873 0
M  V30 6950 C 641.115 4.14504 0.915789 0
M  V30 6951 C 639.022 5.87591 -0.670133 0
M  V30 6952 H 637.952 0.750496 0.0726055 0
M  V30 6953 H 640.603 1.75965 -0.520425 0
M  V30 6954 H 638.985 3.79072 1.14543 0
M  V30 6955 H 640.159 4.29524 -1.66872 0
M  V30 6956 H 638.474 3.93586 -1.35938 0
M  V30 6957 H 641.071 5.23236 1.10126 0
M  V30 6958 H 641.414 3.71076 1.88701 0
M  V30 6959 H 641.947 3.97253 0.208523 0
M  V30 6960 H 638.686 6.35355 -1.61257 0
M  V30 6961 H 638.206 5.99767 0.0626368 0
M  V30 6962 H 639.885 6.46268 -0.307577 0
M  V30 6963 N 640.017 0.126909 1.57088 0
M  V30 6964 C 641.428 -0.397201 1.82426 0
M  V30 6965 C 641.779 -1.66084 1.04453 0
M  V30 6966 O 640.904 -2.14534 0.283552 0
M  V30 6967 C 641.499 -0.727411 3.30899 0
M  V30 6968 C 640.058 -1.19612 3.56889 0
M  V30 6969 C 639.205 -0.20885 2.76512 0
M  V30 6970 H 642.156 0.351924 1.54749 0
M  V30 6971 H 642.177 -1.58407 3.45959 0
M  V30 6972 H 641.689 0.19247 3.87622 0
M  V30 6973 H 639.79 -2.13263 3.05532 0
M  V30 6974 H 639.903 -1.13598 4.65438 0
M  V30 6975 H 638.267 -0.697479 2.44964 0
M  V30 6976 H 639.05 0.704267 3.35998 0
M  V30 6977 N 641.495 -1.56914 -0.146875 0
M  V30 6978 C 642.742 -1.83356 -0.859467 0
M  V30 6979 C 643.07 -0.707811 -1.81164 0
M  V30 6980 O 642.325 0.303155 -1.93338 0
M  V30 6981 C 642.624 -3.16128 -1.66727 0
M  V30 6982 C 642.29 -4.42586 -0.861881 0
M  V30 6983 C 640.952 -4.76929 -0.639687 0
M  V30 6984 C 643.304 -5.20344 -0.298643 0
M  V30 6985 C 640.632 -5.86491 0.156451 0
M  V30 6986 C 642.984 -6.30742 0.484536 0
M  V30 6987 C 641.648 -6.63635 0.717306 0
M  V30 6988 H 640.918 -0.670947 -0.314501 0
M  V30 6989 H 643.565 -1.91104 -0.123108 0
M  V30 6990 H 641.87 -3.03831 -2.47374 0
M  V30 6991 H 643.567 -3.33802 -2.2221 0
M  V30 6992 H 640.157 -4.15662 -1.04513 0
M  V30 6993 H 644.341 -4.94186 -0.457585 0
M  V30 6994 H 639.597 -6.10419 0.346292 0
M  V30 6995 H 643.771 -6.90188 0.928105 0
M  V30 6996 H 641.398 -7.48367 1.33607 0
M  V30 6997 N 642.974 0.416227 -1.52004 0
M  V30 6998 C 644.222 1.16153 -1.65387 0
M  V30 6999 C 644.543 1.91208 -0.382669 0
M  V30 7000 O 643.813 1.86413 0.602231 0
M  V30 7001 H 642.393 0.431765 -0.60958 0
M  V30 7002 H 645.055 0.475151 -1.89019 0
M  V30 7003 H 644.151 1.87952 -2.4916 0
M  V30 7004 N 644.452 1.42507 0.673017 0
M  V30 7005 C 645.7 1.42789 1.43023 0
M  V30 7006 C 646.021 0.0459738 1.94946 0
M  V30 7007 O 645.291 -0.915765 1.73178 0
M  V30 7008 H 643.871 0.525657 0.530748 0
M  V30 7009 H 646.533 1.77944 0.795113 0
M  V30 7010 H 645.629 2.12872 2.28237 0
M  V30 7011 N 645.93 -0.909495 1.28709 0
M  V30 7012 C 647.178 -1.65577 1.15882 0
M  V30 7013 C 647.499 -1.928 -0.292108 0
M  V30 7014 O 646.769 -1.54716 -1.20166 0
M  V30 7015 H 645.349 -0.613714 0.425869 0
M  V30 7016 H 648.011 -1.09108 1.61498 0
M  V30 7017 H 647.107 -2.61634 1.70159 0
M  V30 7018 N 647.408 -1.11026 -1.11852 0
M  V30 7019 C 648.338 -0.786812 -2.19844 0
M  V30 7020 C 649.319 0.242935 -1.68356 0
M  V30 7021 O 650.504 0.107355 -1.93903 0
M  V30 7022 C 647.634 -0.224516 -3.46574 0
M  V30 7023 C 646.588 -1.18564 -4.1125 0
M  V30 7024 C 645.914 -0.484261 -5.32503 0
M  V30 7025 C 647.214 -2.53465 -4.56676 0
M  V30 7026 H 648.908 -1.68978 -2.47158 0
M  V30 7027 H 646.454 -0.813906 -1.18792 0
M  V30 7028 H 648.407 0.0139435 -4.21398 0
M  V30 7029 H 647.131 0.713722 -3.18706 0
M  V30 7030 H 645.79 -1.40966 -3.38414 0
M  V30 7031 H 645.438 0.458646 -5.00905 0
M  V30 7032 H 645.138 -1.12526 -5.76725 0
M  V30 7033 H 646.662 -0.254492 -6.10069 0
M  V30 7034 H 648.076 -2.35177 -5.22843 0
M  V30 7035 H 646.473 -3.13507 -5.11697 0
M  V30 7036 H 647.543 -3.13008 -3.70343 0
M  V30 7037 N 648.886 1.2938 -0.899927 0
M  V30 7038 C 650.302 1.48052 -0.596059 0
M  V30 7039 C 650.502 1.82114 0.862372 0
M  V30 7040 O 649.558 1.91774 1.64253 0
M  V30 7041 C 650.871 2.59332 -1.52208 0
M  V30 7042 C 652.419 2.73208 -1.5273 0
M  V30 7043 C 652.894 3.87617 -2.43961 0
M  V30 7044 N 654.385 3.9495 -2.42009 0
M  V30 7045 C 655.12 4.82824 -3.09303 0
M  V30 7046 N 654.616 5.75387 -3.85877 0
M  V30 7047 N 656.409 4.76317 -2.98459 0
M  V30 7048 H 648.56 1.05546 -1.8432 0
M  V30 7049 H 650.823 0.524314 -0.78981 0
M  V30 7050 H 650.529 2.41029 -2.56121 0
M  V30 7051 H 650.403 3.56139 -1.24278 0
M  V30 7052 H 652.79 2.90908 -0.495614 0
M  V30 7053 H 652.871 1.76975 -1.84698 0
M  V30 7054 H 652.515 3.70672 -3.47224 0
M  V30 7055 H 652.445 4.83218 -2.09303 0
M  V30 7056 H 654.936 3.28744 -1.86375 0
M  V30 7057 H 655.249 6.39235 -4.34279 0
M  V30 7058 H 653.594 5.75272 -3.89984 0
M  V30 7059 H 656.785 4.0299 -2.38152 0
M  V30 7060 H 656.958 5.44589 -3.51179 0
M  V30 7061 N 650.364 0.662433 1.43002 0
M  V30 7062 C 651.589 0.186003 2.06564 0
M  V30 7063 C 652.014 -1.14314 1.49379 0
M  V30 7064 O 651.372 -1.70824 0.607346 0
M  V30 7065 C 651.42 0.118269 3.60406 0
M  V30 7066 O 650.524 -0.916859 4.02079 0
M  V30 7067 H 649.865 0.0990981 0.656563 0
M  V30 7068 H 652.395 0.907958 1.8335 0
M  V30 7069 H 652.405 -0.0619981 4.07953 0
M  V30 7070 H 651.08 1.08849 4.01403 0
M  V30 7071 H 649.657 -0.708635 3.66105 0
M  V30 7072 N 651.842 -1.52309 0.404946 0
M  V30 7073 C 653.082 -2.03677 -0.171779 0
M  V30 7074 C 653.446 -1.28419 -1.42733 0
M  V30 7075 O 654.647 -1.69991 -2.08222 0
M  V30 7076 C 652.918 -3.54951 -0.417701 0
M  V30 7077 S 654.477 -4.28114 -0.962472 0
M  V30 7078 H 651.295 -0.709445 -0.0469912 0
M  V30 7079 H 653.897 -1.874 0.556901 0
M  V30 7080 H 652.601 -4.07306 0.50295 0
M  V30 7081 H 652.132 -3.75462 -1.17437 0
M  V30 7082 H 654.147 -4.42589 -2.24342 0
M  V30 7083 N 653.32 -0.135238 -1.57019 0
M  V30 7084 C 654.566 0.519563 -1.96032 0
M  V30 7085 C 654.899 1.65284 -1.01955 0
M  V30 7086 O 654.174 1.94408 -0.059727 0
M  V30 7087 C 654.457 1.0369 -3.44848 0
M  V30 7088 C 654.31 -0.0940754 -4.49702 0
M  V30 7089 C 655.629 1.92254 -3.95887 0
M  V30 7090 H 652.748 0.18739 -0.712779 0
M  V30 7091 H 655.39 -0.214086 -1.8879 0
M  V30 7092 H 653.54 1.66209 -3.5115 0
M  V30 7093 H 655.212 -0.73 -4.55487 0
M  V30 7094 H 653.455 -0.754924 -4.27181 0
M  V30 7095 H 654.126 0.309419 -5.51132 0
M  V30 7096 H 656.602 1.39581 -3.9199 0
M  V30 7097 H 655.478 2.25364 -5.00502 0
M  V30 7098 H 655.739 2.85513 -3.37543 0
M  V30 7099 N 654.798 1.5699 0.138552 0
M  V30 7100 C 656.046 1.83446 0.848053 0
M  V30 7101 C 656.367 0.71744 1.81322 0
M  V30 7102 O 655.637 -0.260228 1.94164 0
M  V30 7103 H 654.217 0.676792 0.316166 0
M  V30 7104 H 656.879 1.94462 0.130538 0
M  V30 7105 H 655.975 2.78677 1.40518 0
M  V30 7106 N 656.276 -0.40816 1.52223 0
M  V30 7107 C 657.223 -1.49737 1.75635 0
M  V30 7108 C 658.193 -1.5493 0.598824 0
M  V30 7109 O 659.378 -1.71487 0.83648 0
M  V30 7110 C 656.518 -2.87174 1.91376 0
M  V30 7111 C 655.631 -2.91283 3.19027 0
M  V30 7112 C 654.766 -4.20026 3.25195 0
M  V30 7113 C 653.805 -4.18113 4.47044 0
M  V30 7114 N 652.942 -5.38429 4.50598 0
M  V30 7115 H 657.782 -1.29075 2.68596 0
M  V30 7116 H 655.319 -0.626518 1.33091 0
M  V30 7117 H 657.277 -3.66959 1.98486 0
M  V30 7118 H 655.907 -3.06329 1.01795 0
M  V30 7119 H 654.959 -2.03984 3.21084 0
M  V30 7120 H 656.271 -2.85734 4.08849 0
M  V30 7121 H 655.425 -5.08204 3.31382 0
M  V30 7122 H 654.164 -4.28271 2.33313 0
M  V30 7123 H 653.169 -3.28325 4.41002 0
M  V30 7124 H 654.394 -4.11507 5.40221 0
M  V30 7125 H 652.34 -5.4734 3.616 0
M  V30 7126 H 652.257 -5.34879 5.34266 0
M  V30 7127 H 653.525 -6.28557 4.61016 0
M  V30 7128 N 657.755 -1.42862 -0.66545 0
M  V30 7129 C 658.665 -1.49491 -1.80803 0
M  V30 7130 C 659.681 -0.382914 -1.69734 0
M  V30 7131 O 660.857 -0.635223 -1.9112 0
M  V30 7132 C 657.922 -1.40383 -3.17007 0
M  V30 7133 C 656.983 -2.62152 -3.39963 0
M  V30 7134 C 656.216 -2.53469 -4.69669 0
M  V30 7135 O 656.439 -1.57568 -5.48205 0
M  V30 7136 O 655.373 -3.43763 -4.94075 0
M  V30 7137 H 659.199 -2.45949 -1.78165 0
M  V30 7138 H 656.784 -1.24728 -0.822387 0
M  V30 7139 H 658.666 -1.377 -3.98267 0
M  V30 7140 H 657.341 -0.470546 -3.20262 0
M  V30 7141 H 656.248 -2.70409 -2.58515 0
M  V30 7142 H 657.581 -3.54411 -3.41546 0
M  V30 7143 N 659.233 0.902656 -1.29189 0
M  V30 7144 C 660.48 1.65287 -1.16989 0
M  V30 7145 C 660.808 1.92485 0.279232 0
M  V30 7146 O 660.063 1.53143 1.21843 0
M  V30 7147 C 660.362 3.011 -1.92545 0
M  V30 7148 C 660.028 2.93521 -3.42281 0
M  V30 7149 C 658.69 2.91161 -3.83117 0
M  V30 7150 C 661.042 2.82947 -4.3771 0
M  V30 7151 C 658.37 2.76043 -5.17704 0
M  V30 7152 C 660.722 2.69368 -5.72384 0
M  V30 7153 C 659.386 2.65373 -6.12482 0
M  V30 7154 H 658.656 0.604828 -0.428094 0
M  V30 7155 H 661.303 1.05084 -1.60092 0
M  V30 7156 H 659.608 3.65153 -1.42024 0
M  V30 7157 H 661.305 3.58073 -1.80512 0
M  V30 7158 H 657.895 2.96158 -3.09819 0
M  V30 7159 H 662.079 2.83849 -4.07116 0
M  V30 7160 H 657.335 2.71352 -5.47885 0
M  V30 7161 H 661.509 2.60156 -6.45981 0
M  V30 7162 H 659.136 2.53415 -7.16718 0
M  V30 7163 N 660.711 1.11618 1.11262 0
M  V30 7164 C 661.674 0.779447 2.15539 0
M  V30 7165 C 662.674 -0.202081 1.59525 0
M  V30 7166 O 663.864 0.0226356 1.74185 0
M  V30 7167 C 660.996 0.15674 3.40539 0
M  V30 7168 H 662.189 1.70324 2.4684 0
M  V30 7169 H 659.742 0.918298 1.26479 0
M  V30 7170 H 660.477 -0.777186 3.1485 0
M  V30 7171 H 660.262 0.863308 3.82478 0
M  V30 7172 H 661.752 -0.062661 4.17553 0
M  V30 7173 N 662.189 -1.289 0.906776 0
M  V30 7174 C 663.136 -2.2751 0.388313 0
M  V30 7175 C 664.106 -1.57301 -0.533439 0
M  V30 7176 O 665.291 -1.85243 -0.457148 0
M  V30 7177 C 662.431 -3.43091 -0.37181 0
M  V30 7178 C 661.544 -4.28066 0.581647 0
M  V30 7179 C 660.679 -5.30837 -0.19623 0
M  V30 7180 C 659.718 -6.07472 0.751294 0
M  V30 7181 N 658.855 -7.021 0.00737727 0
M  V30 7182 H 663.695 -2.71237 1.23428 0
M  V30 7183 H 661.232 -1.33397 0.619962 0
M  V30 7184 H 663.19 -4.08888 -0.828641 0
M  V30 7185 H 661.82 -3.00374 -1.18218 0
M  V30 7186 H 660.872 -3.62378 1.157 0
M  V30 7187 H 662.184 -4.81382 1.30665 0
M  V30 7188 H 661.338 -6.02485 -0.71394 0
M  V30 7189 H 660.077 -4.78272 -0.954324 0
M  V30 7190 H 659.082 -5.34682 1.28044 0
M  V30 7191 H 660.307 -6.62126 1.50883 0
M  V30 7192 H 658.253 -6.51894 -0.732854 0
M  V30 7193 H 658.17 -7.53004 0.672334 0
M  V30 7194 H 659.438 -7.77956 -0.490365 0
M  V30 7195 N 663.667 -0.670007 -1.42649 0
M  V30 7196 C 664.916 -0.187526 -2.00826 0
M  V30 7197 C 665.229 1.21142 -1.53571 0
M  V30 7198 O 666.435 1.79001 -2.04134 0
M  V30 7199 C 664.891 -0.284409 -3.58774 0
M  V30 7200 C 664.499 -1.6871 -4.15019 0
M  V30 7201 C 666.243 0.139605 -4.2427 0
M  V30 7202 C 664.15 -1.73701 -5.65316 0
M  V30 7203 H 663.08 -0.0663468 -0.751075 0
M  V30 7204 H 665.731 -0.834492 -1.63427 0
M  V30 7205 H 664.113 0.430364 -3.93655 0
M  V30 7206 H 665.287 -2.42857 -3.91608 0
M  V30 7207 H 663.602 -2.05855 -3.61957 0
M  V30 7208 H 666.199 0.122398 -5.3456 0
M  V30 7209 H 666.542 1.17403 -3.99402 0
M  V30 7210 H 667.075 -0.523995 -3.94334 0
M  V30 7211 H 663.814 -2.75109 -5.94975 0
M  V30 7212 H 663.334 -1.03903 -5.90732 0
M  V30 7213 H 665.013 -1.48829 -6.2965 0
M  V30 7214 N 665.145 1.52092 -0.413018 0
M  V30 7215 C 666.075 2.30021 0.401567 0
M  V30 7216 C 667.056 1.34395 1.04269 0
M  V30 7217 O 668.241 1.63304 1.05097 0
M  V30 7218 C 665.371 3.12447 1.51638 0
M  V30 7219 C 664.325 4.16153 1.00005 0
M  V30 7220 C 663.651 4.86948 2.20875 0
M  V30 7221 C 664.951 5.22275 0.0513757 0
M  V30 7222 H 666.645 2.98365 -0.248704 0
M  V30 7223 H 664.191 1.4349 -0.121052 0
M  V30 7224 H 666.144 3.65733 2.09326 0
M  V30 7225 H 664.868 2.41879 2.19458 0
M  V30 7226 H 663.527 3.63882 0.445549 0
M  V30 7227 H 663.175 4.12905 2.8726 0
M  V30 7228 H 662.875 5.57057 1.86978 0
M  V30 7229 H 664.399 5.43048 2.79162 0
M  V30 7230 H 665.813 5.70778 0.537176 0
M  V30 7231 H 664.21 5.9977 -0.198977 0
M  V30 7232 H 665.28 4.76611 -0.892736 0
M  V30 7233 N 666.623 0.143563 1.56945 0
M  V30 7234 C 667.553 -0.7936 2.196 0
M  V30 7235 C 668.534 -1.25955 1.14321 0
M  V30 7236 O 669.719 -1.31773 1.42651 0
M  V30 7237 C 666.849 -2.03424 2.81489 0
M  V30 7238 C 665.803 -1.70519 3.92565 0
M  V30 7239 C 665.129 -3.01817 4.41373 0
M  V30 7240 C 666.429 -0.95449 5.13504 0
M  V30 7241 H 668.123 -0.271423 2.98167 0
M  V30 7242 H 665.669 -0.12911 1.4342 0
M  V30 7243 H 667.622 -2.69463 3.23987 0
M  V30 7244 H 666.346 -2.58008 2.00248 0
M  V30 7245 H 665.005 -1.06859 3.5068 0
M  V30 7246 H 664.653 -3.54386 3.56959 0
M  V30 7247 H 664.353 -2.80565 5.16292 0
M  V30 7248 H 665.877 -3.68934 4.86539 0
M  V30 7249 H 667.291 -1.5169 5.52868 0
M  V30 7250 H 665.688 -0.842035 5.94163 0
M  V30 7251 H 666.758 0.0544033 4.84869 0
M  V30 7252 N 668.101 -1.57061 -0.130224 0
M  V30 7253 C 669.048 -1.99517 -1.16024 0
M  V30 7254 C 670.018 -0.865452 -1.41771 0
M  V30 7255 O 671.203 -1.12882 -1.53826 0
M  V30 7256 C 668.343 -2.3951 -2.48453 0
M  V30 7257 C 667.456 -3.65848 -2.29737 0
M  V30 7258 C 666.591 -3.9487 -3.55318 0
M  V30 7259 C 665.63 -5.14426 -3.31711 0
M  V30 7260 N 664.767 -5.39375 -4.49466 0
M  V30 7261 H 669.607 -2.87305 -0.791194 0
M  V30 7262 H 667.144 -1.42129 -0.379195 0
M  V30 7263 H 669.102 -2.60731 -3.25692 0
M  V30 7264 H 667.732 -1.54779 -2.83272 0
M  V30 7265 H 666.784 -3.52307 -1.4347 0
M  V30 7266 H 668.096 -4.53241 -2.08263 0
M  V30 7267 H 667.25 -4.16679 -4.4098 0
M  V30 7268 H 665.989 -3.05931 -3.79813 0
M  V30 7269 H 664.994 -4.92473 -2.44439 0
M  V30 7270 H 666.219 -6.04933 -3.08598 0
M  V30 7271 H 664.165 -4.53391 -4.74102 0
M  V30 7272 H 664.082 -6.21069 -4.31055 0
M  V30 7273 H 665.35 -5.65694 -5.36293 0
M  V30 7274 N 669.579 0.400081 -1.52437 0
M  V30 7275 C 670.828 1.14332 -1.66166 0
M  V30 7276 C 671.141 1.91419 -0.402253 0
M  V30 7277 O 672.347 2.6824 -0.419487 0
M  V30 7278 C 670.803 2.08137 -2.9361 0
M  V30 7279 C 670.411 1.36524 -4.26691 0
M  V30 7280 C 672.155 2.82664 -3.16703 0
M  V30 7281 C 670.062 2.29031 -5.45251 0
M  V30 7282 H 668.992 0.430499 -0.61902 0
M  V30 7283 H 671.643 0.407017 -1.78929 0
M  V30 7284 H 670.025 2.85358 -2.74567 0
M  V30 7285 H 671.199 0.646061 -4.56249 0
M  V30 7286 H 669.514 0.74002 -4.09771 0
M  V30 7287 H 672.111 3.52037 -4.0246 0
M  V30 7288 H 672.454 3.46122 -2.31312 0
M  V30 7289 H 672.987 2.12541 -3.36261 0
M  V30 7290 H 669.726 1.70206 -6.33017 0
M  V30 7291 H 669.246 2.98896 -5.2002 0
M  V30 7292 H 670.925 2.89359 -5.78689 0
M  V30 7293 N 671.057 1.43213 0.657864 0
M  V30 7294 C 672.304 1.44584 1.41781 0
M  V30 7295 C 672.632 0.0684208 1.9438 0
M  V30 7296 O 671.887 -0.925872 1.72413 0
M  V30 7297 C 672.186 2.43143 2.61947 0
M  V30 7298 C 671.852 3.89128 2.27794 0
M  V30 7299 C 670.514 4.28889 2.18191 0
M  V30 7300 C 672.866 4.81144 2.00375 0
M  V30 7301 C 670.194 5.58625 1.79319 0
M  V30 7302 C 672.546 6.11239 1.63003 0
M  V30 7303 C 671.21 6.49981 1.51922 0
M  V30 7304 H 670.48 0.529069 0.518813 0
M  V30 7305 H 673.127 1.76263 0.748577 0
M  V30 7306 H 671.432 2.04851 3.33981 0
M  V30 7307 H 673.129 2.4146 3.20153 0
M  V30 7308 H 669.719 3.57657 2.36176 0
M  V30 7309 H 673.903 4.512 2.06718 0
M  V30 7310 H 669.159 5.87486 1.69323 0
M  V30 7311 H 673.333 6.82014 1.40817 0
M  V30 7312 H 670.96 7.50416 1.21572 0
M  V30 7313 N 672.536 -0.895792 1.29666 0
M  V30 7314 C 673.764 -1.68001 1.20761 0
M  V30 7315 C 674.179 -1.87379 -0.231187 0
M  V30 7316 O 673.536 -1.41359 -1.15429 0
M  V30 7317 C 673.587 -3.06236 1.92098 0
M  V30 7318 O 673.308 -2.8774 3.30359 0
M  V30 7319 C 674.809 -4.00652 1.89717 0
M  V30 7320 H 672.029 -0.524591 0.418384 0
M  V30 7321 H 674.573 -1.11995 1.71106 0
M  V30 7322 H 672.728 -3.59007 1.45578 0
M  V30 7323 H 673.142 -3.75359 3.66342 0
M  V30 7324 H 674.616 -4.95051 2.44189 0
M  V30 7325 H 675.093 -4.30424 0.873595 0
M  V30 7326 H 675.699 -3.53815 2.35998 0
M  V30 7327 N 674.014 -1.12206 -1.10668 0
M  V30 7328 C 675.26 -0.877172 -1.82848 0
M  V30 7329 C 675.593 0.595571 -1.84842 0
M  V30 7330 O 674.868 1.44013 -1.30731 0
M  V30 7331 C 675.151 -1.44957 -3.29635 0
M  V30 7332 C 675.004 -2.99051 -3.35989 0
M  V30 7333 C 676.323 -1.10714 -4.25946 0
M  V30 7334 H 673.442 -0.320103 -0.663854 0
M  V30 7335 H 676.084 -1.38827 -1.2972 0
M  V30 7336 H 674.234 -1.01488 -3.7501 0
M  V30 7337 H 675.906 -3.51182 -2.99113 0
M  V30 7338 H 674.149 -3.34705 -2.75962 0
M  V30 7339 H 674.82 -3.34194 -4.39339 0
M  V30 7340 H 677.296 -1.48254 -3.88793 0
M  V30 7341 H 676.172 -1.5343 -5.2702 0
M  V30 7342 H 676.433 -0.019 -4.42096 0
M  V30 7343 N 675.492 1.28418 -0.913599 0
M  V30 7344 C 676.402 2.31043 -0.406965 0
M  V30 7345 C 677.418 1.66501 0.505298 0
M  V30 7346 O 678.594 1.97558 0.391522 0
M  V30 7347 C 675.659 3.4498 0.344901 0
M  V30 7348 C 674.72 4.25078 -0.600563 0
M  V30 7349 C 673.953 5.33575 0.115516 0
M  V30 7350 O 674.176 5.54503 1.33727 0
M  V30 7351 O 673.11 5.9939 -0.549095 0
M  V30 7352 H 676.936 2.76387 -1.25873 0
M  V30 7353 H 674.521 1.33109 -0.678415 0
M  V30 7354 H 676.403 4.14314 0.769542 0
M  V30 7355 H 675.078 3.01719 1.1725 0
M  V30 7356 H 673.985 3.58334 -1.0746 0
M  V30 7357 H 675.318 4.72018 -1.39497 0
M  V30 7358 N 676.97 0.677563 1.42291 0
M  V30 7359 C 677.9 0.014968 2.33495 0
M  V30 7360 C 678.881 -0.786376 1.50831 0
M  V30 7361 O 680.066 -0.742975 1.79426 0
M  V30 7362 C 677.196 -0.935023 3.34477 0
M  V30 7363 C 676.15 -0.242074 4.27315 0
M  V30 7364 C 675.476 -1.30519 5.18526 0
M  V30 7365 C 676.776 0.880604 5.14823 0
M  V30 7366 H 678.47 0.776671 2.89151 0
M  V30 7367 H 676.016 0.37494 1.39033 0
M  V30 7368 H 677.969 -1.40766 3.97194 0
M  V30 7369 H 676.693 -1.72818 2.77131 0
M  V30 7370 H 675.352 0.210351 3.65996 0
M  V30 7371 H 675 -2.09041 4.57505 0
M  V30 7372 H 674.7 -0.846652 5.81468 0
M  V30 7373 H 676.224 -1.7787 5.84119 0
M  V30 7374 H 677.638 0.489062 5.7121 0
M  V30 7375 H 676.035 1.26511 5.86613 0
M  V30 7376 H 677.105 1.72818 4.53059 0
M  V30 7377 N 678.448 -1.51871 0.421078 0
M  V30 7378 C 679.411 -2.25914 -0.386712 0
M  V30 7379 C 680.411 -1.28733 -0.963555 0
M  V30 7380 O 681.601 -1.52579 -0.840556 0
M  V30 7381 C 678.733 -3.03853 -1.54551 0
M  V30 7382 H 679.926 -2.98754 0.261978 0
M  V30 7383 H 677.479 -1.5533 0.173862 0
M  V30 7384 H 678.214 -2.35392 -2.23072 0
M  V30 7385 H 677.999 -3.75215 -1.13824 0
M  V30 7386 H 679.489 -3.59984 -2.11663 0
M  V30 7387 N 679.926 -0.151884 -1.56866 0
M  V30 7388 C 681.342 0.204486 -1.58285 0
M  V30 7389 C 681.542 1.6431 -1.16639 0
M  V30 7390 O 680.598 2.37077 -0.868946 0
M  V30 7391 C 681.911 -0.0587019 -3.00643 0
M  V30 7392 C 683.459 0.00462303 -3.13 0
M  V30 7393 C 683.934 -0.231297 -4.57416 0
M  V30 7394 N 685.425 -0.178394 -4.62856 0
M  V30 7395 C 686.16 -0.335379 -5.72418 0
M  V30 7396 N 685.656 -0.550355 -6.90611 0
M  V30 7397 N 687.449 -0.272641 -5.61438 0
M  V30 7398 H 679.6 -1.09116 -1.82229 0
M  V30 7399 H 681.863 -0.432311 -0.843689 0
M  V30 7400 H 681.569 -1.05453 -3.35518 0
M  V30 7401 H 681.443 0.658508 -3.71407 0
M  V30 7402 H 683.83 0.991009 -2.77962 0
M  V30 7403 H 683.911 -0.744992 -2.44711 0
M  V30 7404 H 683.555 -1.2148 -4.93158 0
M  V30 7405 H 683.485 0.5387 -5.23837 0
M  V30 7406 H 685.976 -0.0170923 -3.77896 0
M  V30 7407 H 686.289 -0.660116 -7.69976 0
M  V30 7408 H 684.634 -0.586736 -6.92519 0
M  V30 7409 H 687.825 -0.105421 -4.67981 0
M  V30 7410 H 687.998 -0.398418 -6.46774 0
M  V30 7411 N 681.404 1.57128 0.121893 0
M  V30 7412 C 682.354 1.96556 1.15541 0
M  V30 7413 C 683.338 0.840147 1.37224 0
M  V30 7414 O 684.53 1.10382 1.38365 0
M  V30 7415 C 681.659 2.37097 2.48274 0
M  V30 7416 C 680.745 3.56265 2.30078 0
M  V30 7417 N 681.136 4.72041 1.81688 0
M  V30 7418 C 679.434 3.61841 2.60744 0
M  V30 7419 C 680.135 5.54075 1.77132 0
M  V30 7420 N 679.111 4.96483 2.21371 0
M  V30 7421 H 682.913 2.83531 0.77378 0
M  V30 7422 H 680.427 1.59019 0.329672 0
M  V30 7423 H 682.424 2.6356 3.2302 0
M  V30 7424 H 681.084 1.51486 2.87197 0
M  V30 7425 H 682.095 4.95313 1.51278 0
M  V30 7426 H 678.772 2.8683 3.03373 0
M  V30 7427 H 680.162 6.56939 1.40998 0
M  V30 7428 N 682.882 -0.391992 1.52647 0
M  V30 7429 C 684.122 -1.1463 1.69232 0
M  V30 7430 C 684.486 -1.87312 0.421684 0
M  V30 7431 O 685.687 -2.64768 0.463852 0
M  V30 7432 C 683.958 -2.10088 2.89133 0
M  V30 7433 S 685.517 -2.93395 3.2629 0
M  V30 7434 H 682.335 -0.388076 0.59575 0
M  V30 7435 H 684.937 -0.431149 1.90687 0
M  V30 7436 H 683.641 -1.55408 3.79837 0
M  V30 7437 H 683.172 -2.86116 2.70003 0
M  V30 7438 H 685.187 -4.12193 2.76244 0
M  V30 7439 N 684.36 -1.4356 -0.65026 0
M  V30 7440 C 685.637 -1.35811 -1.40765 0
M  V30 7441 C 686.017 -0.00736379 -2.11099 0
M  V30 7442 O 685.365 1.00932 -2.05 0
M  V30 7443 C 685.575 -2.54332 -2.3899 0
M  V30 7444 C 686.923 -2.97551 -3.02901 0
M  V30 7445 O 687.947 -2.544 -2.49317 0
M  V30 7446 O 686.806 -3.72311 -4.00059 0
M  V30 7447 H 683.9 -0.536861 -0.629054 0
M  V30 7448 H 686.446 -1.55615 -0.676919 0
M  V30 7449 H 685.218 -3.44274 -1.85986 0
M  V30 7450 H 684.841 -2.36643 -3.19509 0
M  V30 7451 N 685.838 0.888903 -1.30139 0
M  V30 7452 C 687.084 1.64288 -1.19922 0
M  V30 7453 C 687.439 1.90839 0.244561 0
M  V30 7454 O 686.732 1.51544 1.17239 0
M  V30 7455 C 686.926 2.99041 -1.95728 0
M  V30 7456 C 686.755 2.85644 -3.47329 0
M  V30 7457 C 685.525 2.85836 -4.16685 0
M  V30 7458 C 687.723 2.6188 -4.42632 0
M  V30 7459 N 685.705 2.63289 -5.54574 0
M  V30 7460 C 687.076 2.48418 -5.68057 0
M  V30 7461 C 689.131 2.47073 -4.32272 0
M  V30 7462 C 687.834 2.21655 -6.84296 0
M  V30 7463 C 689.86 2.21695 -5.48275 0
M  V30 7464 C 689.222 2.09007 -6.72678 0
M  V30 7465 H 685.321 0.606315 -0.493868 0
M  V30 7466 H 687.905 1.0478 -1.64102 0
M  V30 7467 H 686.076 3.56589 -1.53945 0
M  V30 7468 H 687.808 3.63607 -1.77685 0
M  V30 7469 H 684.563 2.97521 -3.68481 0
M  V30 7470 H 684.987 2.55039 -6.27124 0
M  V30 7471 H 689.629 2.55621 -3.36776 0
M  V30 7472 H 687.347 2.11845 -7.79838 0
M  V30 7473 H 690.933 2.11067 -5.42164 0
M  V30 7474 H 689.813 1.89643 -7.60924 0
M  V30 7475 N 687.317 1.12792 1.10072 0
M  V30 7476 C 688.249 0.757003 2.16338 0
M  V30 7477 C 689.262 -0.218144 1.61332 0
M  V30 7478 O 690.451 0.0010727 1.785 0
M  V30 7479 C 687.551 0.100303 3.38752 0
M  V30 7480 C 686.724 1.10586 4.2319 0
M  V30 7481 C 685.783 0.47609 5.24042 0
M  V30 7482 O 684.809 1.13418 5.57786 0
M  V30 7483 N 686.011 -0.754823 5.75572 0
M  V30 7484 H 688.776 1.6714 2.48766 0
M  V30 7485 H 686.337 1.02003 1.25726 0
M  V30 7486 H 688.329 -0.333092 4.03327 0
M  V30 7487 H 686.899 -0.716915 3.04268 0
M  V30 7488 H 686.119 1.71677 3.54853 0
M  V30 7489 H 687.407 1.78571 4.76435 0
M  V30 7490 H 686.805 -1.30838 5.50362 0
M  V30 7491 H 685.362 -1.13098 6.41913 0
M  V30 7492 N 688.795 -1.27931 0.920396 0
M  V30 7493 C 689.725 -2.29487 0.431024 0
M  V30 7494 C 690.706 -1.62435 -0.504861 0
M  V30 7495 O 691.891 -1.89797 -0.411176 0
M  V30 7496 C 689.021 -3.45788 -0.323709 0
M  V30 7497 C 687.975 -4.24784 0.523658 0
M  V30 7498 C 687.301 -5.33488 -0.359809 0
M  V30 7499 C 688.601 -4.90874 1.78437 0
M  V30 7500 H 690.295 -2.70671 1.27975 0
M  V30 7501 H 687.841 -1.30121 0.616813 0
M  V30 7502 H 689.794 -4.15927 -0.676952 0
M  V30 7503 H 688.518 -3.03502 -1.2064 0
M  V30 7504 H 687.177 -3.56382 0.85951 0
M  V30 7505 H 686.825 -4.87445 -1.24124 0
M  V30 7506 H 686.525 -5.87247 0.203605 0
M  V30 7507 H 688.049 -6.06472 -0.708787 0
M  V30 7508 H 689.463 -5.53339 1.49963 0
M  V30 7509 H 687.86 -5.54659 2.29071 0
M  V30 7510 H 688.93 -4.14988 2.50824 0
M  V30 7511 N 690.273 -0.685099 -1.4193 0
M  V30 7512 C 691.203 -0.0273506 -2.33484 0
M  V30 7513 C 692.184 0.778366 -1.51246 0
M  V30 7514 O 693.369 0.733449 -1.79817 0
M  V30 7515 C 690.499 0.917272 -3.34968 0
M  V30 7516 C 689.453 0.21941 -4.27437 0
M  V30 7517 C 688.779 1.27768 -5.1921 0
M  V30 7518 C 690.079 -0.907894 -5.14349 0
M  V30 7519 H 691.773 -0.791994 -2.88735 0
M  V30 7520 H 689.319 -0.382308 -1.38832 0
M  V30 7521 H 691.272 1.38657 -3.97935 0
M  V30 7522 H 689.996 1.71346 -2.78043 0
M  V30 7523 H 688.655 -0.229757 -3.65879 0
M  V30 7524 H 688.303 2.06612 -4.58607 0
M  V30 7525 H 688.003 0.815803 -5.81909 0
M  V30 7526 H 689.527 1.7477 -5.85054 0
M  V30 7527 H 690.941 -0.519348 -5.70943 0
M  V30 7528 H 689.338 -1.2962 -5.85934 0
M  V30 7529 H 690.408 -1.75218 -4.52136 0
M  V30 7530 N 691.751 1.51645 -0.429126 0
M  V30 7531 C 692.699 2.29119 0.400921 0
M  V30 7532 C 693.693 1.34628 1.02819 0
M  V30 7533 O 694.899 1.52004 0.964098 0
M  V30 7534 H 691.274 0.737273 0.148095 0
M  V30 7535 H 693.245 2.97144 -0.273457 0
M  V30 7536 C 691.994 3.13953 1.49429 0
M  V30 7537 H 691.317 3.86544 1.02097 0
M  V30 7538 H 692.757 3.71232 2.04849 0
M  V30 7539 C 691.216 2.28796 2.47293 0
M  V30 7540 O 691.746 1.94193 3.51642 0
M  V30 7541 N 689.952 1.92177 2.17982 0
M  V30 7542 H 689.499 2.20517 1.33154 0
M  V30 7543 H 689.457 1.35497 2.83704 0
M  V30 7544 N 693.229 0.160201 1.56784 0
M  V30 7545 C 694.477 -0.486625 1.96154 0
M  V30 7546 C 694.798 -1.64525 1.04673 0
M  V30 7547 O 694.068 -1.95586 0.110864 0
M  V30 7548 H 692.648 -0.182764 0.724297 0
M  V30 7549 H 695.31 0.238787 1.93432 0
M  V30 7550 H 694.406 -0.854025 3.00188 0
M  V30 7551 N 694.707 -1.5719 -0.113559 0
M  V30 7552 C 696.118 -1.74259 -0.670116 0
M  V30 7553 C 696.469 -0.779694 -1.80042 0
M  V30 7554 O 695.594 0.0461353 -2.16351 0
M  V30 7555 C 696.189 -3.15981 -1.22236 0
M  V30 7556 C 694.748 -3.34537 -1.72516 0
M  V30 7557 C 693.895 -2.70116 -0.627098 0
M  V30 7558 H 696.846 -1.58301 0.112396 0
M  V30 7559 H 696.867 -3.17832 -2.09197 0
M  V30 7560 H 696.379 -3.86038 -0.39949 0
M  V30 7561 H 694.48 -2.6953 -2.57263 0
M  V30 7562 H 694.593 -4.42737 -1.83086 0
M  V30 7563 H 692.957 -2.31501 -1.06204 0
M  V30 7564 H 693.74 -3.42802 0.184889 0
M  V30 7565 N 696.185 0.383891 -1.52853 0
M  V30 7566 C 697.596 0.961591 -1.60032 0
M  V30 7567 C 697.947 1.90819 -0.456333 0
M  V30 7568 O 697.072 2.12288 0.419873 0
M  V30 7569 C 697.667 1.75078 -2.90057 0
M  V30 7570 C 696.226 2.2781 -2.99632 0
M  V30 7571 C 695.373 1.08512 -2.55187 0
M  V30 7572 H 698.324 0.163269 -1.57858 0
M  V30 7573 H 698.345 2.61046 -2.7683 0
M  V30 7574 H 697.857 1.06157 -3.73299 0
M  V30 7575 H 695.958 3.00028 -2.20939 0
M  V30 7576 H 696.071 2.56947 -4.0437 0
M  V30 7577 H 694.435 1.44667 -2.09627 0
M  V30 7578 H 695.218 0.41118 -3.40829 0
M  V30 7579 N 697.663 1.43903 0.642637 0
M  V30 7580 C 698.891 1.4954 1.42988 0
M  V30 7581 C 699.306 0.116588 1.8844 0
M  V30 7582 O 698.663 -0.875285 1.60141 0
M  V30 7583 C 698.714 2.45031 2.65785 0
M  V30 7584 O 698.435 3.77551 2.22232 0
M  V30 7585 C 699.936 2.60017 3.59035 0
M  V30 7586 H 697.156 0.507544 0.438907 0
M  V30 7587 H 699.7 1.88752 0.786942 0
M  V30 7588 H 697.855 2.08985 3.26196 0
M  V30 7589 H 698.269 4.29001 3.01759 0
M  V30 7590 H 699.743 3.30887 4.41835 0
M  V30 7591 H 700.22 1.64861 4.07084 0
M  V30 7592 H 700.826 2.96918 3.045 0
M  V30 7593 N 699.141 -0.881989 1.30609 0
M  V30 7594 C 700.074 -1.99066 1.11571 0
M  V30 7595 C 701.052 -1.62584 0.022516 0
M  V30 7596 O 702.236 -1.87671 0.176644 0
M  V30 7597 C 699.363 -3.3134 0.702237 0
M  V30 7598 C 698.409 -3.86807 1.79673 0
M  V30 7599 S 699.242 -4.13735 3.39976 0
M  V30 7600 C 700.398 -5.49024 3.00538 0
M  V30 7601 H 700.631 -2.1491 2.05429 0
M  V30 7602 H 698.164 -1.03074 1.14957 0
M  V30 7603 H 700.122 -4.07796 0.470415 0
M  V30 7604 H 698.783 -3.13349 -0.217034 0
M  V30 7605 H 697.976 -4.82397 1.45977 0
M  V30 7606 H 697.578 -3.17102 1.98298 0
M  V30 7607 H 699.87 -6.30208 2.48684 0
M  V30 7608 H 700.813 -5.8766 3.95046 0
M  V30 7609 H 701.221 -5.11726 2.3832 0
M  V30 7610 N 700.619 -1.13374 -1.09472 0
M  V30 7611 C 701.566 -0.810682 -2.16094 0
M  V30 7612 C 702.536 0.227003 -1.64541 0
M  V30 7613 O 703.721 0.0993538 -1.90541 0
M  V30 7614 C 700.861 -0.282336 -3.43943 0
M  V30 7615 C 699.974 -1.37902 -4.09398 0
M  V30 7616 C 699.109 -0.809066 -5.25002 0
M  V30 7617 C 698.148 -1.88419 -5.82379 0
M  V30 7618 N 697.285 -1.33221 -6.89345 0
M  V30 7619 H 702.125 -1.72397 -2.43071 0
M  V30 7620 H 699.662 -0.860564 -1.19301 0
M  V30 7621 H 701.62 0.0421189 -4.17179 0
M  V30 7622 H 700.25 0.594083 -3.17286 0
M  V30 7623 H 699.302 -1.82008 -3.34032 0
M  V30 7624 H 700.614 -2.19161 -4.48074 0
M  V30 7625 H 699.768 -0.435867 -6.05132 0
M  V30 7626 H 698.507 0.0346058 -4.87688 0
M  V30 7627 H 697.512 -2.26646 -5.00911 0
M  V30 7628 H 698.737 -2.73125 -6.21755 0
M  V30 7629 H 696.683 -0.510535 -6.5401 0
M  V30 7630 H 696.6 -2.08129 -7.26786 0
M  V30 7631 H 697.868 -0.986565 -7.73232 0
M  V30 7632 N 702.098 1.27442 -0.927168 0
M  V30 7633 C 703.326 1.98498 -0.583622 0
M  V30 7634 C 703.741 1.69171 0.838241 0
M  V30 7635 O 703.098 0.951969 1.55704 0
M  V30 7636 C 703.149 3.52552 -0.799341 0
M  V30 7637 O 702.87 3.80851 -2.16527 0
M  V30 7638 C 704.371 4.4086 -0.464436 0
M  V30 7639 H 701.591 0.633487 -0.221213 0
M  V30 7640 H 704.135 1.62308 -1.24404 0
M  V30 7641 H 702.29 3.86955 -0.185728 0
M  V30 7642 H 702.704 4.75441 -2.21487 0
M  V30 7643 H 704.178 5.47967 -0.666075 0
M  V30 7644 H 704.655 4.35082 0.599995 0
M  V30 7645 H 705.261 4.11977 -1.05617 0
M  V30 7646 N 703.576 0.692616 1.41565 0
M  V30 7647 C 704.801 0.229776 2.06123 0
M  V30 7648 C 705.226 -1.11119 1.5177 0
M  V30 7649 O 704.584 -1.69498 0.643444 0
M  V30 7650 C 704.632 0.19469 3.60074 0
M  V30 7651 O 703.736 -0.831366 4.03933 0
M  V30 7652 H 703.077 0.113002 0.654314 0
M  V30 7653 H 705.607 0.946645 1.81383 0
M  V30 7654 H 705.617 0.0245487 4.07993 0
M  V30 7655 H 704.292 1.17339 3.99004 0
M  V30 7656 H 702.869 -0.630819 3.67526 0
M  V30 7657 N 705.054 -1.51416 0.437162 0
M  V30 7658 C 706.465 -1.86682 -0.0260005 0
M  V30 7659 C 706.816 -1.35432 -1.4196 0
M  V30 7660 O 705.941 -0.705055 -2.04592 0
M  V30 7661 C 706.536 -3.38757 -0.0539577 0
M  V30 7662 C 705.095 -3.7356 -0.461532 0
M  V30 7663 C 704.242 -2.75134 0.345924 0
M  V30 7664 H 707.193 -1.44642 0.653013 0
M  V30 7665 H 707.214 -3.70573 -0.863478 0
M  V30 7666 H 706.726 -3.76028 0.96045 0
M  V30 7667 H 704.827 -3.41878 -1.48155 0
M  V30 7668 H 704.94 -4.78737 -0.186451 0
M  V30 7669 H 703.304 -2.53947 -0.195739 0
M  V30 7670 H 704.087 -3.15247 1.35921 0
M  V30 7671 N 706.532 -0.168513 -1.56696 0
M  V30 7672 C 707.76 0.483503 -2.01171 0
M  V30 7673 C 708.175 1.56994 -1.04872 0
M  V30 7674 O 707.532 1.82434 -0.0491337 0
M  V30 7675 C 707.583 1.0644 -3.45475 0
M  V30 7676 O 707.304 0.0213375 -4.38095 0
M  V30 7677 C 708.805 1.79493 -4.05336 0
M  V30 7678 H 706.025 0.124002 -0.659443 0
M  V30 7679 H 708.569 -0.269419 -2.02717 0
M  V30 7680 H 706.724 1.76784 -3.44712 0
M  V30 7681 H 707.138 0.449837 -5.22567 0
M  V30 7682 H 708.612 2.15401 -5.08238 0
M  V30 7683 H 709.089 2.68889 -3.47269 0
M  V30 7684 H 709.695 1.13798 -4.09793 0
M  V30 7685 N 708.01 1.57248 0.105221 0
M  V30 7686 C 709.256 1.85845 0.811753 0
M  V30 7687 C 709.589 0.756219 1.78871 0
M  V30 7688 O 708.864 -0.236736 1.93054 0
M  V30 7689 C 709.147 3.25059 1.54947 0
M  V30 7690 C 709 4.45898 0.591185 0
M  V30 7691 C 710.319 3.6203 2.50245 0
M  V30 7692 H 707.438 0.675973 0.293649 0
M  V30 7693 H 710.08 1.89849 0.0756269 0
M  V30 7694 H 708.23 3.21776 2.17698 0
M  V30 7695 H 709.902 4.61291 -0.0285352 0
M  V30 7696 H 708.145 4.33693 -0.0962343 0
M  V30 7697 H 708.816 5.40009 1.1443 0
M  V30 7698 H 711.292 3.66192 1.97593 0
M  V30 7699 H 710.168 4.60389 2.98886 0
M  V30 7700 H 710.429 2.90176 3.33542 0
M  V30 7701 N 709.488 -0.375779 1.53054 0
M  V30 7702 C 710.718 -1.1387 1.72386 0
M  V30 7703 C 711.126 -1.8382 0.447966 0
M  V30 7704 O 710.469 -1.74027 -0.588244 0
M  V30 7705 C 710.531 -2.22047 2.82728 0
M  V30 7706 C 710.195 -1.71951 4.23417 0
M  V30 7707 C 711.192 -1.18909 5.06119 0
M  V30 7708 C 708.877 -1.77773 4.69789 0
M  V30 7709 C 710.871 -0.723529 6.3328 0
M  V30 7710 C 708.558 -1.30829 5.96931 0
M  V30 7711 C 709.556 -0.782077 6.78508 0
M  V30 7712 O 709.244 -0.319529 8.03265 0
M  V30 7713 H 708.976 -0.346835 0.580242 0
M  V30 7714 H 711.53 -0.443748 2.00549 0
M  V30 7715 H 709.76 -2.95006 2.50017 0
M  V30 7716 H 711.449 -2.83654 2.90336 0
M  V30 7717 H 712.215 -1.13758 4.7147 0
M  V30 7718 H 708.094 -2.17673 4.06373 0
M  V30 7719 H 711.638 -0.312126 6.96901 0
M  V30 7720 H 707.535 -1.3567 6.31081 0
M  V30 7721 H 708.303 -0.439796 8.17318 0
M  V30 7722 N 710.966 -1.44241 -0.634997 0
M  V30 7723 C 712.377 -1.41622 -1.21655 0
M  V30 7724 C 712.728 -0.129584 -1.95772 0
M  V30 7725 O 711.853 0.770225 -2.02229 0
M  V30 7726 C 712.448 -2.56557 -2.21278 0
M  V30 7727 C 711.007 -2.57145 -2.7487 0
M  V30 7728 C 710.154 -2.33354 -1.49804 0
M  V30 7729 H 713.105 -1.52878 -0.425905 0
M  V30 7730 H 713.126 -2.29089 -3.03807 0
M  V30 7731 H 712.638 -3.50186 -1.67306 0
M  V30 7732 H 710.739 -1.67447 -3.32855 0
M  V30 7733 H 710.852 -3.55507 -3.21172 0
M  V30 7734 H 709.216 -1.82372 -1.77799 0
M  V30 7735 H 709.999 -3.29092 -0.977402 0
M  V30 7736 N 712.444 0.87505 -1.31075 0
M  V30 7737 C 713.69 1.63009 -1.20647 0
M  V30 7738 C 714.023 1.9276 0.236045 0
M  V30 7739 O 713.298 1.55559 1.16754 0
M  V30 7740 C 713.581 2.96357 -2.0456 0
M  V30 7741 C 713.434 2.73516 -3.57084 0
M  V30 7742 C 714.753 3.974 -1.89107 0
M  V30 7743 H 711.872 0.591518 -0.439631 0
M  V30 7744 H 714.514 1.0119 -1.60812 0
M  V30 7745 H 712.664 3.49119 -1.70435 0
M  V30 7746 H 714.336 2.27465 -4.01319 0
M  V30 7747 H 712.579 2.0784 -3.80769 0
M  V30 7748 H 713.25 3.68377 -4.11099 0
M  V30 7749 H 715.726 3.5383 -2.18961 0
M  V30 7750 H 714.602 4.88596 -2.5013 0
M  V30 7751 H 714.863 4.33794 -0.85296 0
M  V30 7752 N 713.922 1.13953 1.08869 0
M  V30 7753 C 715.199 0.815768 1.77777 0
M  V30 7754 C 715.579 -0.691624 1.99449 0
M  V30 7755 O 714.927 -1.63085 1.60049 0
M  V30 7756 C 715.137 1.60916 3.09689 0
M  V30 7757 C 716.485 1.80549 3.84301 0
M  V30 7758 O 717.509 1.57562 3.19457 0
M  V30 7759 O 716.368 2.18946 5.00724 0
M  V30 7760 H 713.462 0.298445 0.771271 0
M  V30 7761 H 716.008 1.24446 1.15374 0
M  V30 7762 H 714.78 2.6333 2.89435 0
M  V30 7763 H 714.403 1.17578 3.79817 0
M  V30 7764 N 715.4 -1.26948 0.933913 0
M  V30 7765 C 716.348 -2.2862 0.428463 0
M  V30 7766 C 717.342 -1.62144 -0.490464 0
M  V30 7767 O 718.548 -1.76167 -0.36948 0
M  V30 7768 H 714.923 -0.742363 0.120003 0
M  V30 7769 H 716.894 -2.68659 1.29865 0
M  V30 7770 C 715.643 -3.46423 -0.29774 0
M  V30 7771 H 714.966 -3.97792 0.400183 0
M  V30 7772 H 716.406 -4.19505 -0.615736 0
M  V30 7773 C 714.865 -3.01017 -1.51295 0
M  V30 7774 O 715.395 -3.05226 -2.61151 0
M  V30 7775 N 713.601 -2.56442 -1.36696 0
M  V30 7776 H 713.148 -2.53217 -0.473178 0
M  V30 7777 H 713.106 -2.26424 -2.18127 0
M  V30 7778 N 716.879 -0.700114 -1.41195 0
M  V30 7779 C 717.809 -0.0521132 -2.33442 0
M  V30 7780 C 718.79 0.76228 -1.52063 0
M  V30 7781 O 719.975 0.714336 -1.80585 0
M  V30 7782 C 717.105 0.881693 -3.35922 0
M  V30 7783 C 716.059 0.174062 -4.27646 0
M  V30 7784 C 715.385 1.22254 -5.20536 0
M  V30 7785 C 716.685 -0.962396 -5.13357 0
M  V30 7786 H 718.379 -0.822574 -2.87879 0
M  V30 7787 H 715.925 -0.397011 -1.38419 0
M  V30 7788 H 717.878 1.34429 -3.99383 0
M  V30 7789 H 716.602 1.68387 -2.79845 0
M  V30 7790 H 715.261 -0.268551 -3.65615 0
M  V30 7791 H 714.909 2.01736 -4.60773 0
M  V30 7792 H 714.609 0.754038 -5.82742 0
M  V30 7793 H 716.133 1.68555 -5.86874 0
M  V30 7794 H 717.547 -0.579875 -5.7036 0
M  V30 7795 H 715.944 -1.35828 -5.84526 0
M  V30 7796 H 717.014 -1.80003 -4.50252 0
M  V30 7797 N 718.357 1.51182 -0.445186 0
M  V30 7798 C 719.768 1.86693 0.0160999 0
M  V30 7799 C 720.119 1.36183 1.4124 0
M  V30 7800 O 719.244 0.715895 2.04215 0
M  V30 7801 C 719.839 3.38781 0.0359918 0
M  V30 7802 C 718.398 3.73799 0.441715 0
M  V30 7803 C 717.545 2.74947 -0.360511 0
M  V30 7804 H 720.496 1.44294 -0.660674 0
M  V30 7805 H 720.517 3.71026 0.843813 0
M  V30 7806 H 720.029 3.75513 -0.980378 0
M  V30 7807 H 718.13 3.42659 1.4634 0
M  V30 7808 H 718.243 4.78829 0.16106 0
M  V30 7809 H 716.607 2.54047 0.182269 0
M  V30 7810 H 717.39 3.14521 -1.3759 0
M  V30 7811 N 719.835 0.176821 1.56605 0
M  V30 7812 C 720.798 -0.737429 2.17013 0
M  V30 7813 C 721.798 -1.15414 1.11965 0
M  V30 7814 O 722.988 -1.0702 1.37449 0
M  V30 7815 C 720.12 -2.00445 2.75744 0
M  V30 7816 H 721.313 -0.211455 2.99154 0
M  V30 7817 H 718.866 -0.0727582 1.56131 0
M  V30 7818 H 719.601 -2.57338 1.97352 0
M  V30 7819 H 719.386 -1.71456 3.52626 0
M  V30 7820 H 720.876 -2.65679 3.22187 0
M  V30 7821 N 721.313 -1.57302 -0.09688 0
M  V30 7822 C 722.729 -1.53094 -0.451041 0
M  V30 7823 C 722.929 -0.893265 -1.80618 0
M  V30 7824 O 721.985 -0.485013 -2.47798 0
M  V30 7825 C 723.298 -2.9782 -0.415172 0
M  V30 7826 C 724.846 -3.09026 -0.497155 0
M  V30 7827 C 725.321 -4.55356 -0.491452 0
M  V30 7828 N 726.812 -4.59896 -0.552258 0
M  V30 7829 C 727.547 -5.70563 -0.569654 0
M  V30 7830 N 727.043 -6.90666 -0.543365 0
M  V30 7831 N 728.836 -5.58733 -0.614331 0
M  V30 7832 H 720.987 -1.97131 0.790771 0
M  V30 7833 H 723.25 -0.901211 0.294147 0
M  V30 7834 H 722.956 -3.47933 0.513362 0
M  V30 7835 H 722.83 -3.56416 -1.23481 0
M  V30 7836 H 725.217 -2.58902 -1.41611 0
M  V30 7837 H 725.298 -2.53386 0.35059 0
M  V30 7838 H 724.942 -5.06131 0.423549 0
M  V30 7839 H 724.872 -5.08832 -1.35639 0
M  V30 7840 H 727.363 -3.73456 -0.577842 0
M  V30 7841 H 727.676 -7.70769 -0.559873 0
M  V30 7842 H 726.021 -6.93123 -0.510441 0
M  V30 7843 H 729.212 -4.63809 -0.632387 0
M  V30 7844 H 729.385 -6.44984 -0.62442 0
M  V30 7845 N 722.791 0.367657 -1.53252 0
M  V30 7846 C 724.038 1.11052 -1.69333 0
M  V30 7847 C 724.366 1.89363 -0.444064 0
M  V30 7848 O 723.621 1.87094 0.573953 0
M  V30 7849 C 723.92 2.09825 -2.89324 0
M  V30 7850 C 723.586 1.4801 -4.25915 0
M  V30 7851 C 722.248 1.30879 -4.6306 0
M  V30 7852 C 724.6 1.03268 -5.10867 0
M  V30 7853 C 721.928 0.675868 -5.82794 0
M  V30 7854 C 724.28 0.41377 -6.31245 0
M  V30 7855 C 722.944 0.229939 -6.67104 0
M  V30 7856 H 722.214 0.406367 -0.619634 0
M  V30 7857 H 724.861 0.392558 -1.87433 0
M  V30 7858 H 723.166 2.87917 -2.65728 0
M  V30 7859 H 724.863 2.67252 -2.98961 0
M  V30 7860 H 721.453 1.62336 -3.96667 0
M  V30 7861 H 725.637 1.15297 -4.82722 0
M  V30 7862 H 720.893 0.521833 -6.09169 0
M  V30 7863 H 725.067 0.0588768 -6.96375 0
M  V30 7864 H 722.694 -0.262562 -7.59746 0
M  V30 7865 N 724.269 1.44576 0.627338 0
M  V30 7866 C 725.497 1.51048 1.41394 0
M  V30 7867 C 725.912 0.136568 1.88305 0
M  V30 7868 O 725.269 -0.858251 1.6106 0
M  V30 7869 C 725.32 2.47837 2.63172 0
M  V30 7870 O 725.041 3.79887 2.18215 0
M  V30 7871 C 726.542 2.63811 3.56257 0
M  V30 7872 H 723.762 0.512171 0.4335 0
M  V30 7873 H 726.306 1.89576 0.766878 0
M  V30 7874 H 724.461 2.12433 3.23961 0
M  V30 7875 H 724.875 4.32177 2.97192 0
M  V30 7876 H 726.349 3.35554 4.38301 0
M  V30 7877 H 726.826 1.69169 4.05313 0
M  V30 7878 H 727.432 3.0013 3.01333 0
M  V30 7879 N 725.747 -0.868086 1.31537 0
M  V30 7880 C 726.697 -1.96321 1.1594 0
M  V30 7881 C 727.681 -1.60748 0.0698962 0
M  V30 7882 O 728.873 -1.74524 0.295011 0
M  V30 7883 C 726.002 -3.32073 0.870789 0
M  V30 7884 C 725.088 -3.73907 2.00136 0
M  V30 7885 N 725.479 -3.87685 3.24859 0
M  V30 7886 C 723.777 -4.03433 1.90152 0
M  V30 7887 C 724.478 -4.23454 3.98825 0
M  V30 7888 N 723.454 -4.34242 3.27009 0
M  V30 7889 H 727.256 -2.05088 2.10514 0
M  V30 7890 H 724.77 -1.059 1.23122 0
M  V30 7891 H 726.767 -4.10279 0.740034 0
M  V30 7892 H 725.427 -3.24631 -0.0667068 0
M  V30 7893 H 726.438 -3.72363 3.59953 0
M  V30 7894 H 723.115 -4.0437 1.03879 0
M  V30 7895 H 724.505 -4.41696 5.06314 0
M  V30 7896 N 727.225 -1.14528 -1.08264 0
M  V30 7897 C 728.472 -0.914405 -1.80679 0
M  V30 7898 C 728.8 0.558952 -1.86295 0
M  V30 7899 O 728.055 1.43017 -1.33584 0
M  V30 7900 C 728.354 -1.46226 -3.26117 0
M  V30 7901 C 728.02 -2.95451 -3.40616 0
M  V30 7902 C 726.682 -3.36191 -3.4428 0
M  V30 7903 C 729.034 -3.91399 -3.44175 0
M  V30 7904 C 726.362 -4.71539 -3.49096 0
M  V30 7905 C 728.714 -5.26606 -3.50526 0
M  V30 7906 C 727.378 -5.66856 -3.52464 0
M  V30 7907 H 726.648 -0.334604 -0.661151 0
M  V30 7908 H 729.295 -1.4292 -1.27461 0
M  V30 7909 H 727.6 -0.868442 -3.82054 0
M  V30 7910 H 729.297 -1.25955 -3.80705 0
M  V30 7911 H 725.887 -2.62955 -3.38456 0
M  V30 7912 H 730.071 -3.61004 -3.40573 0
M  V30 7913 H 725.327 -5.02082 -3.4889 0
M  V30 7914 H 729.501 -6.00758 -3.52225 0
M  V30 7915 H 727.128 -6.71718 -3.55948 0
M  V30 7916 N 728.703 1.26451 -0.940633 0
M  V30 7917 C 729.653 2.24086 -0.420669 0
M  V30 7918 C 730.637 1.53501 0.482301 0
M  V30 7919 O 731.829 1.74127 0.317636 0
M  V30 7920 C 728.958 3.41866 0.313452 0
M  V30 7921 C 728.044 4.19737 -0.606779 0
M  V30 7922 N 728.435 4.7521 -1.73232 0
M  V30 7923 C 726.733 4.44091 -0.41226 0
M  V30 7924 C 727.434 5.34052 -2.30572 0
M  V30 7925 N 726.41 5.1971 -1.59381 0
M  V30 7926 H 730.212 2.64569 -1.27986 0
M  V30 7927 H 727.726 1.4153 -0.796436 0
M  V30 7928 H 729.723 4.1093 0.702991 0
M  V30 7929 H 728.383 3.0291 1.16942 0
M  V30 7930 H 729.394 4.72769 -2.11447 0
M  V30 7931 H 726.071 4.1556 0.401984 0
M  V30 7932 H 727.461 5.87845 -3.25404 0
M  V30 7933 N 730.181 0.707592 1.40822 0
M  V30 7934 C 731.429 0.243189 2.00632 0
M  V30 7935 C 731.75 -1.16512 1.56365 0
M  V30 7936 O 731.02 -1.78841 0.799553 0
M  V30 7937 H 729.6 0.0869203 0.741926 0
M  V30 7938 H 732.262 0.911438 1.72275 0
M  V30 7939 H 731.358 0.270014 3.1093 0
M  V30 7940 N 731.66 -1.50943 0.453197 0
M  V30 7941 C 732.57 -2.31884 -0.355963 0
M  V30 7942 C 733.586 -1.41481 -1.01287 0
M  V30 7943 O 734.762 -1.74546 -1.00477 0
M  V30 7944 C 731.827 -3.15668 -1.43369 0
M  V30 7945 C 730.888 -4.2187 -0.795253 0
M  V30 7946 C 730.121 -5.0165 -1.82162 0
M  V30 7947 O 730.344 -4.82266 -3.04592 0
M  V30 7948 O 729.278 -5.85311 -1.40336 0
M  V30 7949 H 733.104 -3.02162 0.305248 0
M  V30 7950 H 730.689 -1.47839 0.215398 0
M  V30 7951 H 732.571 -3.67709 -2.05836 0
M  V30 7952 H 731.246 -2.48137 -2.07869 0
M  V30 7953 H 730.153 -3.73867 -0.132106 0
M  V30 7954 H 731.486 -4.9182 -0.193484 0
M  V30 7955 N 733.138 -0.185124 -1.56509 0
M  V30 7956 C 734.387 0.456421 -1.96468 0
M  V30 7957 C 734.7 1.63448 -1.07444 0
M  V30 7958 O 735.906 2.34316 -1.37143 0
M  V30 7959 C 734.362 0.863404 -3.4939 0
M  V30 7960 C 733.97 -0.289815 -4.47062 0
M  V30 7961 C 735.714 1.47259 -3.98139 0
M  V30 7962 C 733.621 0.137571 -5.9124 0
M  V30 7963 H 732.551 0.17429 -0.733579 0
M  V30 7964 H 735.202 -0.275554 -1.81419 0
M  V30 7965 H 733.584 1.65176 -3.59907 0
M  V30 7966 H 734.758 -1.06728 -4.4827 0
M  V30 7967 H 733.073 -0.809851 -4.08449 0
M  V30 7968 H 735.67 1.80463 -5.03326 0
M  V30 7969 H 736.013 2.3755 -3.41871 0
M  V30 7970 H 736.546 0.748405 -3.90696 0
M  V30 7971 H 733.285 -0.730907 -6.51412 0
M  V30 7972 H 732.805 0.8801 -5.93308 0
M  V30 7973 H 734.484 0.576771 -6.44424 0
M  V30 7974 O 734.655 1.6143 -0.0476879 0
M  V30 7975 H 735.346 1.85363 0.562176 0
M  V30 END ATOM
M  V30 BEGIN BOND
M  V30 END BOND
M  V30 END CTAB
M  END
$$$$
