drugbank_target|P35080 Profilin-2 (DB02078; DB02580)
 OpenBabel12092120503D

  0  0  0     0  0            999 V3000
M  V30 BEGIN CTAB
M  V30 COUNTS 2081 2099 0 0 0
M  V30 BEGIN ATOM
M  V30 1 H -0.908 1.98254 -0.117106 0
M  V30 2 N 0 1.576 0 0
M  V30 3 C 0.933 2.03868 1.02534 0
M  V30 4 C 1.911 0.928543 1.3348 0
M  V30 5 O 3.095 1.19667 1.45644 0
M  V30 6 C 0.222 2.43627 2.35294 0
M  V30 7 C -0.732 3.65373 2.2001 0
M  V30 8 S 0.101 5.13292 1.52614 0
M  V30 9 C 1.257 5.56322 2.86805 0
M  V30 10 H 1.49 2.90518 0.631377 0
M  V30 11 H -0.977 1.52953 0.210867 0
M  V30 12 H 0.981 2.67203 3.11629 0
M  V30 13 H -0.358 1.57376 2.7183 0
M  V30 14 H -1.165 3.90944 3.18086 0
M  V30 15 H -1.563 3.418 1.51819 0
M  V30 16 H 0.729 5.58782 3.83104 0
M  V30 17 H 1.672 6.56266 2.65933 0
M  V30 18 H 2.08 4.83886 2.90714 0
M  V30 19 N 1.4781 -0.272755 1.55222 0
M  V30 20 C 2.4411 -1.32041 1.87344 0
M  V30 21 C 3.4411 -1.42342 0.74803 0
M  V30 22 O 4.6311 -1.41488 1.0162 0
M  V30 23 C 1.7631 -2.70173 2.07893 0
M  V30 24 H 2.9561 -1.04789 2.80997 0
M  V30 25 H 0.5091 -0.51083 1.47717 0
M  V30 26 H 1.2441 -3.02605 1.16622 0
M  V30 27 H 1.0291 -2.64082 2.89833 0
M  V30 28 H 2.5191 -3.45869 2.34017 0
M  V30 29 N 2.9562 -1.48159 -0.537278 0
M  V30 30 C 4.2042 -1.55497 -1.29094 0
M  V30 31 C 4.5252 -0.227454 -1.93669 0
M  V30 32 O 3.7952 0.750386 -1.80959 0
M  V30 33 H 2.3752 -0.572832 -0.47945 0
M  V30 34 H 5.0372 -1.84579 -0.625818 0
M  V30 35 H 4.1332 -2.33216 -2.07405 0
M  V30 36 N 4.4343 0.785586 -1.36625 0
M  V30 37 C 5.6803 1.5452 -1.32269 0
M  V30 38 C 6.0353 1.92159 0.0962266 0
M  V30 39 O 5.3283 1.60158 1.05167 0
M  V30 40 C 5.5223 2.83007 -2.1827 0
M  V30 41 C 5.3513 2.57925 -3.68382 0
M  V30 42 C 4.1213 2.52752 -4.37544 0
M  V30 43 C 6.3193 2.26861 -4.61561 0
M  V30 44 N 4.3013 2.19608 -5.73276 0
M  V30 45 C 5.6723 2.03738 -5.85569 0
M  V30 46 C 7.7273 2.129 -4.50087 0
M  V30 47 C 6.4303 1.68065 -6.9939 0
M  V30 48 C 8.4563 1.78626 -5.63779 0
M  V30 49 C 7.8183 1.56353 -6.86828 0
M  V30 50 H 3.9173 0.566301 -0.539283 0
M  V30 51 H 6.5013 0.917736 -1.71714 0
M  V30 52 H 4.6723 3.43614 -1.81063 0
M  V30 53 H 6.4043 3.48775 -2.05275 0
M  V30 54 H 3.1593 2.6813 -3.90389 0
M  V30 55 H 3.5833 2.05771 -6.44971 0
M  V30 56 H 8.2253 2.28808 -3.55537 0
M  V30 57 H 5.9433 1.50895 -7.93887 0
M  V30 58 H 9.5293 1.68502 -5.56865 0
M  V30 59 H 8.4093 1.30223 -7.73312 0
M  V30 60 N 5.9124 1.20967 1.01018 0
M  V30 61 C 6.8444 0.922059 2.09835 0
M  V30 62 C 7.8574 -0.0927106 1.62536 0
M  V30 63 O 9.0464 0.139127 1.77957 0
M  V30 64 C 6.1464 0.362004 3.36961 0
M  V30 65 C 5.3194 1.42986 4.13369 0
M  V30 66 C 4.3784 0.879976 5.1879 0
M  V30 67 O 3.4044 1.56219 5.47343 0
M  V30 68 N 4.6064 -0.307396 5.79686 0
M  V30 69 H 7.3714 1.8588 2.35093 0
M  V30 70 H 4.9324 1.11422 1.1746 0
M  V30 71 H 6.9244 -0.0201474 4.04695 0
M  V30 72 H 5.4944 -0.479437 3.08902 0
M  V30 73 H 4.7144 1.98608 3.40512 0
M  V30 74 H 6.0024 2.14885 4.61196 0
M  V30 75 H 5.4004 -0.878796 5.58832 0
M  V30 76 H 3.9574 -0.631115 6.48737 0
M  V30 77 N 7.3905 -1.2043 1.01659 0
M  V30 78 C 8.6155 -1.94318 0.724942 0
M  V30 79 C 9.0405 -1.74266 -0.708034 0
M  V30 80 O 8.3985 -1.03694 -1.48719 0
M  V30 81 C 8.4465 -3.44486 1.06591 0
M  V30 82 O 7.5505 -4.12017 0.177599 0
M  V30 83 H 6.8915 -0.60708 0.26898 0
M  V30 84 H 9.4215 -1.52861 1.35995 0
M  V30 85 H 9.4315 -3.95106 1.01762 0
M  V30 86 H 8.1065 -3.58404 2.10997 0
M  V30 87 H 6.6835 -3.71821 0.283421 0
M  V30 88 N 8.8686 -0.792821 -1.36206 0
M  V30 89 C 10.0986 -0.378275 -2.03107 0
M  V30 90 C 10.5066 1.01119 -1.59911 0
M  V30 91 O 9.8496 1.66052 -0.785658 0
M  V30 92 C 9.9116 -0.366535 -3.57627 0
M  V30 93 C 9.5756 -1.70416 -4.24037 0
M  V30 94 C 10.5726 -2.6602 -4.46687 0
M  V30 95 C 8.2576 -1.98439 -4.6144 0
M  V30 96 C 10.2516 -3.8784 -5.05825 0
M  V30 97 C 7.9386 -3.20525 -5.20295 0
M  V30 98 C 8.9366 -4.15044 -5.42427 0
M  V30 99 O 8.6246 -5.34978 -6.00045 0
M  V30 100 H 8.3566 -0.153543 -0.658332 0
M  V30 101 H 10.9106 -1.07383 -1.75094 0
M  V30 102 H 9.1406 0.385539 -3.84773 0
M  V30 103 H 10.8296 0.0238088 -4.05893 0
M  V30 104 H 11.5956 -2.45658 -4.18183 0
M  V30 105 H 7.4746 -1.25686 -4.43536 0
M  V30 106 H 11.0186 -4.61628 -5.23015 0
M  V30 107 H 6.9156 -3.40764 -5.48225 0
M  V30 108 H 7.6836 -5.36088 -6.18508 0
M  V30 109 N 10.3467 1.47872 -0.545128 0
M  V30 110 C 11.5927 2.02793 -0.0166104 0
M  V30 111 C 11.9257 1.41987 1.32489 0
M  V30 112 O 11.2007 0.571045 1.85928 0
M  V30 113 C 11.4837 3.59989 0.0893294 0
M  V30 114 C 11.3367 4.3125 -1.27841 0
M  V30 115 C 12.6557 4.32606 0.808724 0
M  V30 116 H 9.7747 0.736962 -0.00751035 0
M  V30 117 H 12.4167 1.76433 -0.705085 0
M  V30 118 H 10.5667 3.82579 0.675681 0
M  V30 119 H 12.2387 4.20035 -1.90704 0
M  V30 120 H 10.4817 3.92076 -1.85632 0
M  V30 121 H 11.1527 5.39736 -1.15713 0
M  V30 122 H 13.6287 4.14936 0.310992 0
M  V30 123 H 12.5047 5.42251 0.851782 0
M  V30 124 H 12.7657 4.00963 1.86229 0
M  V30 125 N 11.8248 0.280983 1.55075 0
M  V30 126 C 13.1018 -0.386207 1.91749 0
M  V30 127 C 13.4818 -1.73264 1.20594 0
M  V30 128 O 12.8298 -2.26034 0.334784 0
M  V30 129 C 13.0398 -0.520687 3.45094 0
M  V30 130 C 14.3878 -0.800865 4.16979 0
M  V30 131 O 15.4118 -0.605271 3.5102 0
M  V30 132 O 14.2708 -1.1753 5.33712 0
M  V30 133 H 11.3648 -0.212408 0.799257 0
M  V30 134 H 13.9108 0.327568 1.66509 0
M  V30 135 H 12.6828 0.426633 3.88967 0
M  V30 136 H 12.3058 -1.2837 3.76307 0
M  V30 137 N 13.3029 -1.57598 0.00835791 0
M  V30 138 C 14.2509 -2.10078 -0.998508 0
M  V30 139 C 15.2449 -1.02262 -1.35051 0
M  V30 140 O 16.4509 -1.20719 -1.33518 0
M  V30 141 H 12.8259 -0.670903 -0.339696 0
M  V30 142 H 14.7969 -2.93648 -0.530398 0
M  V30 143 C 13.5459 -2.62615 -2.27879 0
M  V30 144 H 12.8689 -3.45213 -2.01662 0
M  V30 145 H 14.3089 -3.03004 -2.96588 0
M  V30 146 C 12.7679 -1.54407 -2.99433 0
M  V30 147 O 13.2979 -0.931812 -3.90743 0
M  V30 148 N 11.5039 -1.2695 -2.61404 0
M  V30 149 H 11.0509 -1.76924 -1.87232 0
M  V30 150 H 11.0089 -0.547704 -3.09593 0
M  V30 151 N 14.781 0.264519 -1.55364 0
M  V30 152 C 15.711 1.33121 -1.91836 0
M  V30 153 C 16.692 1.51101 -0.781192 0
M  V30 154 O 17.877 1.64003 -1.04003 0
M  V30 155 C 15.007 2.68921 -2.19769 0
M  V30 156 C 13.961 2.65661 -3.35571 0
M  V30 157 C 13.287 4.05093 -3.49004 0
M  V30 158 C 14.587 2.24187 -4.71739 0
M  V30 159 H 16.281 1.02844 -2.81182 0
M  V30 160 H 13.827 0.493286 -1.35287 0
M  V30 161 H 15.78 3.43663 -2.43872 0
M  V30 162 H 14.504 3.00799 -1.27231 0
M  V30 163 H 13.163 1.93377 -3.1145 0
M  V30 164 H 12.811 4.34206 -2.53917 0
M  V30 165 H 12.511 4.03804 -4.26868 0
M  V30 166 H 14.035 4.81561 -3.75408 0
M  V30 167 H 15.449 2.88654 -4.9533 0
M  V30 168 H 13.846 2.34044 -5.52579 0
M  V30 169 H 14.916 1.19327 -4.69988 0
M  V30 170 N 16.2591 1.48442 0.529413 0
M  V30 171 C 17.1921 1.57577 1.65059 0
M  V30 172 C 18.1701 0.426198 1.56915 0
M  V30 173 O 19.3541 0.637877 1.77379 0
M  V30 174 C 16.4811 1.5043 3.03461 0
M  V30 175 C 15.5271 2.70235 3.29962 0
M  V30 176 S 16.3601 4.32198 3.16172 0
M  V30 177 C 17.5161 4.2765 4.57019 0
M  V30 178 H 17.7491 2.52427 1.5706 0
M  V30 179 H 15.2821 1.36982 0.712417 0
M  V30 180 H 17.2401 1.46992 3.8328 0
M  V30 181 H 15.9011 0.569167 3.089 0
M  V30 182 H 15.0941 2.61374 4.30929 0
M  V30 183 H 14.6961 2.70938 2.57815 0
M  V30 184 H 16.9881 3.97618 5.48549 0
M  V30 185 H 17.9311 5.28797 4.70934 0
M  V30 186 H 18.3391 3.5811 4.36368 0
M  V30 187 N 17.7372 -0.778329 1.37039 0
M  V30 188 C 18.9772 -1.54973 1.33276 0
M  V30 189 C 19.3412 -1.91816 -0.0839376 0
M  V30 190 O 20.5422 -2.6767 -0.246228 0
M  V30 191 C 18.8132 -2.78517 2.23971 0
M  V30 192 S 20.3722 -3.6865 2.37997 0
M  V30 193 H 17.1902 -0.530639 0.473226 0
M  V30 194 H 19.7922 -0.915806 1.72723 0
M  V30 195 H 18.4962 -2.4952 3.25835 0
M  V30 196 H 18.0272 -3.46875 1.85584 0
M  V30 197 H 20.0422 -4.70182 1.58567 0
M  V30 198 N 19.2153 -1.21501 -1.00376 0
M  V30 199 C 20.4923 -0.941745 -1.71437 0
M  V30 200 C 20.8723 0.546114 -2.03914 0
M  V30 201 O 20.2203 1.51128 -1.71384 0
M  V30 202 C 20.4303 -1.82812 -2.97289 0
M  V30 203 C 21.7783 -2.07771 -3.70292 0
M  V30 204 O 22.8023 -1.80171 -3.07273 0
M  V30 205 O 21.6613 -2.54456 -4.83647 0
M  V30 206 H 18.7553 -0.353243 -0.747762 0
M  V30 207 H 21.3013 -1.32436 -1.06108 0
M  V30 208 H 20.0733 -2.83501 -2.69709 0
M  V30 209 H 19.6963 -1.4464 -3.70358 0
M  V30 210 N 20.6934 1.19889 -1.02296 0
M  V30 211 C 21.9414 1.89046 -0.714558 0
M  V30 212 C 22.2624 1.79636 0.758681 0
M  V30 213 O 21.5324 1.20292 1.54618 0
M  V30 214 H 20.1124 0.699802 -0.261317 0
M  V30 215 H 22.7744 1.45574 -1.29592 0
M  V30 216 H 21.8704 2.95524 -1.0036 0
M  V30 217 N 22.1715 0.800033 1.35784 0
M  V30 218 C 23.4115 0.382891 2.00782 0
M  V30 219 C 23.7755 -1.02891 1.62103 0
M  V30 220 O 24.9765 -1.54771 2.19771 0
M  V30 221 C 23.2475 0.553299 3.53091 0
M  V30 222 S 24.8065 0.225608 4.3822 0
M  V30 223 H 21.6245 0.145737 0.695904 0
M  V30 224 H 24.2265 1.04085 1.65489 0
M  V30 225 H 22.9305 1.58091 3.78729 0
M  V30 226 H 22.4615 -0.120214 3.93216 0
M  V30 227 H 24.4765 -0.969074 4.86645 0
M  V30 228 N 23.6496 -1.47581 0.552962 0
M  V30 229 C 24.8896 -2.04379 0.0296245 0
M  V30 230 C 25.2536 -1.4185 -1.29393 0
M  V30 231 O 26.4546 -1.89669 -1.90471 0
M  V30 232 C 24.7256 -3.57339 -0.0661371 0
M  V30 233 S 26.2846 -4.35511 -0.536213 0
M  V30 234 H 23.1026 -0.710625 0.0230991 0
M  V30 235 H 25.7046 -1.81005 0.738734 0
M  V30 236 H 24.4086 -4.00374 0.901596 0
M  V30 237 H 23.9396 -3.85202 -0.798931 0
M  V30 238 H 25.9546 -4.6253 -1.79668 0
M  V30 239 N 25.1277 -0.289203 -1.54924 0
M  V30 240 C 26.0597 0.625583 -2.20497 0
M  V30 241 C 27.0727 1.10667 -1.19402 0
M  V30 242 O 28.2617 1.02615 -1.46056 0
M  V30 243 C 25.3617 1.86702 -2.82835 0
M  V30 244 C 24.5347 1.5304 -4.09753 0
M  V30 245 C 23.5937 2.62576 -4.56005 0
M  V30 246 O 22.6197 2.28167 -5.21468 0
M  V30 247 N 23.8217 3.92901 -4.27328 0
M  V30 248 H 26.5867 0.0642801 -2.99631 0
M  V30 249 H 24.1477 -0.110896 -1.6152 0
M  V30 250 H 26.1397 2.59304 -3.10715 0
M  V30 251 H 24.7097 2.33702 -2.07611 0
M  V30 252 H 23.9297 0.637564 -3.8901 0
M  V30 253 H 25.2177 1.28072 -4.92418 0
M  V30 254 H 24.6157 4.23671 -3.74859 0
M  V30 255 H 23.1727 4.61837 -4.59946 0
M  V30 256 N 26.6058 1.57591 -0.0167156 0
M  V30 257 C 27.5158 2.1291 0.98521 0
M  V30 258 C 28.5318 1.07834 1.36557 0
M  V30 259 O 29.7078 1.39826 1.44951 0
M  V30 260 C 26.7728 2.63512 2.25305 0
M  V30 261 C 25.8338 3.83256 1.93426 0
M  V30 262 C 25.0668 4.31435 3.14165 0
M  V30 263 O 25.2898 3.78851 4.26413 0
M  V30 264 O 24.2238 5.23416 2.97186 0
M  V30 265 H 28.0498 2.98772 0.544888 0
M  V30 266 H 25.6348 1.48012 0.203141 0
M  V30 267 H 27.5168 2.96183 2.99756 0
M  V30 268 H 26.1918 1.8074 2.68542 0
M  V30 269 H 25.0988 3.55531 1.16398 0
M  V30 270 H 26.4318 4.67153 1.55013 0
M  V30 271 N 28.0839 -0.256276 1.55502 0
M  V30 272 C 29.0469 -1.30047 1.88734 0
M  V30 273 C 30.0469 -1.4154 0.763086 0
M  V30 274 O 31.2369 -1.40403 1.03115 0
M  V30 275 C 28.3689 -2.67953 2.10747 0
M  V30 276 H 29.5619 -1.01802 2.82093 0
M  V30 277 H 27.1149 -0.495134 1.4825 0
M  V30 278 H 27.8499 -3.01351 1.19825 0
M  V30 279 H 27.6349 -2.60993 2.92617 0
M  V30 280 H 29.1249 -3.43368 2.37673 0
M  V30 281 N 29.562 -1.4872 -0.521534 0
M  V30 282 C 30.525 -1.63379 -1.60748 0
M  V30 283 C 31.525 -0.50661 -1.52611 0
M  V30 284 O 32.715 -0.772601 -1.5613 0
M  V30 285 C 29.847 -1.61192 -3.00383 0
M  V30 286 H 31.04 -2.60217 -1.49087 0
M  V30 287 H 28.593 -1.37444 -0.744235 0
M  V30 288 H 29.328 -0.65863 -3.17541 0
M  V30 289 H 29.113 -2.43032 -3.07698 0
M  V30 290 H 30.603 -1.7466 -3.7932 0
M  V30 291 N 31.0401 0.771051 -1.3745 0
M  V30 292 C 32.2891 1.52491 -1.3202 0
M  V30 293 C 32.6021 1.9538 0.0927347 0
M  V30 294 O 33.8081 2.70159 0.269503 0
M  V30 295 C 32.2641 2.75366 -2.31736 0
M  V30 296 C 31.8721 2.39573 -3.78562 0
M  V30 297 C 33.6161 3.53307 -2.35318 0
M  V30 298 C 31.5231 3.58954 -4.70007 0
M  V30 299 H 30.4531 0.572506 -0.490666 0
M  V30 300 H 33.1041 0.844474 -1.62914 0
M  V30 301 H 31.4861 3.45303 -1.93861 0
M  V30 302 H 32.6601 1.77415 -4.25277 0
M  V30 303 H 30.9751 1.74805 -3.77932 0
M  V30 304 H 33.5721 4.42039 -3.00842 0
M  V30 305 H 33.9151 3.93217 -1.36698 0
M  V30 306 H 34.4481 2.90367 -2.71904 0
M  V30 307 H 31.1871 3.24125 -5.69757 0
M  V30 308 H 30.7071 4.20214 -4.27996 0
M  V30 309 H 32.3861 4.25758 -4.87175 0
M  V30 310 N 32.5182 1.22032 0.997298 0
M  V30 311 C 33.7642 1.04376 1.73878 0
M  V30 312 C 34.0972 -0.420716 1.89588 0
M  V30 313 O 33.3722 -1.31202 1.43583 0
M  V30 314 C 33.6552 1.75047 3.14691 0
M  V30 315 C 33.5082 3.29062 3.06656 0
M  V30 316 C 34.8272 1.49928 4.13775 0
M  V30 317 H 31.9462 0.380578 0.631133 0
M  V30 318 H 34.5882 1.50312 1.16217 0
M  V30 319 H 32.7382 1.35996 3.63919 0
M  V30 320 H 34.4102 3.7753 2.65083 0
M  V30 321 H 32.6532 3.58967 2.43568 0
M  V30 322 H 33.3242 3.73683 4.06282 0
M  V30 323 H 35.8002 1.83842 3.73285 0
M  V30 324 H 34.6762 2.01878 5.10428 0
M  V30 325 H 34.9372 0.430929 4.39995 0
M  V30 326 N 33.9963 -1.19345 1.0293 0
M  V30 327 C 35.2443 -1.88665 0.724574 0
M  V30 328 C 35.5653 -1.80036 -0.749144 0
M  V30 329 O 34.8353 -1.2111 -1.53978 0
M  V30 330 H 33.4153 -0.698406 0.265025 0
M  V30 331 H 36.0773 -1.44885 1.30362 0
M  V30 332 H 35.1733 -2.94987 1.01926 0
M  V30 333 N 35.4744 -0.807222 -1.35358 0
M  V30 334 C 36.7044 -0.399796 -2.02695 0
M  V30 335 C 37.1124 0.994176 -1.60974 0
M  V30 336 O 36.4554 1.65209 -0.803226 0
M  V30 337 C 36.5174 -0.404445 -3.57218 0
M  V30 338 C 36.1814 -1.74904 -4.22206 0
M  V30 339 C 37.1784 -2.70743 -4.4384 0
M  V30 340 C 34.8634 -2.03322 -4.5931 0
M  V30 341 C 36.8574 -3.93183 -5.01683 0
M  V30 342 C 34.5444 -3.26026 -5.16866 0
M  V30 343 C 35.5424 -4.20774 -5.37994 0
M  V30 344 O 35.2304 -5.41312 -5.94337 0
M  V30 345 H 34.9624 -0.160517 -0.656666 0
M  V30 346 H 37.5164 -1.09235 -1.73945 0
M  V30 347 H 35.7464 0.344707 -3.85161 0
M  V30 348 H 37.4354 -0.0192429 -4.05895 0
M  V30 349 H 38.2014 -2.5008 -4.15554 0
M  V30 350 H 34.0804 -1.30384 -4.42178 0
M  V30 351 H 37.6244 -4.6715 -5.1809 0
M  V30 352 H 33.5214 -3.46559 -5.44579 0
M  V30 353 H 34.2894 -5.42618 -6.12787 0
M  V30 354 N 36.9525 1.47285 -0.560781 0
M  V30 355 C 38.1925 2.0436 -0.0404627 0
M  V30 356 C 38.5565 1.42534 1.28639 0
M  V30 357 O 39.7575 1.90677 1.89462 0
M  V30 358 C 38.0285 3.57369 0.0471856 0
M  V30 359 S 39.5875 4.3579 0.513109 0
M  V30 360 H 36.4055 0.710492 -0.0268674 0
M  V30 361 H 39.0075 1.80611 -0.748323 0
M  V30 362 H 37.7115 3.9989 -0.922817 0
M  V30 363 H 37.2425 3.8562 0.778491 0
M  V30 364 H 39.2575 4.63476 1.77212 0
M  V30 365 N 38.4306 0.297415 1.54768 0
M  V30 366 C 39.7076 -0.365847 1.92148 0
M  V30 367 C 40.0876 -1.71975 1.22424 0
M  V30 368 O 39.4356 -2.25666 0.358739 0
M  V30 369 C 39.6456 -0.484056 3.45627 0
M  V30 370 C 40.9936 -0.756594 4.17805 0
M  V30 371 O 42.0176 -0.568007 3.51642 0
M  V30 372 O 40.8766 -1.11863 5.34929 0
M  V30 373 H 37.9706 -0.203919 0.801465 0
M  V30 374 H 40.5166 0.34521 1.66152 0
M  V30 375 H 39.2886 0.467865 3.88493 0
M  V30 376 H 38.9116 -1.24372 3.77647 0
M  V30 377 N 39.9087 -1.5758 0.0250728 0
M  V30 378 C 40.8717 -2.08896 -0.943139 0
M  V30 379 C 41.8717 -1.00321 -1.25668 0
M  V30 380 O 43.0617 -1.26495 -1.19769 0
M  V30 381 C 40.1937 -2.55143 -2.26086 0
M  V30 382 H 41.3867 -2.95723 -0.498775 0
M  V30 383 H 38.9397 -1.54703 -0.222888 0
M  V30 384 H 39.6747 -1.71633 -2.75159 0
M  V30 385 H 39.4597 -3.34461 -2.04641 0
M  V30 386 H 40.9497 -2.95083 -2.95492 0
M  V30 387 N 41.3868 0.248026 -1.55636 0
M  V30 388 C 42.3338 1.30707 -1.90222 0
M  V30 389 C 43.3038 1.47881 -0.756332 0
M  V30 390 O 44.4888 1.61883 -1.00988 0
M  V30 391 C 41.6288 2.65769 -2.20138 0
M  V30 392 C 40.7418 2.56612 -3.47526 0
M  V30 393 C 39.8768 3.8402 -3.67017 0
M  V30 394 C 38.9158 3.69476 -4.8801 0
M  V30 395 N 38.0528 4.88774 -5.04029 0
M  V30 396 H 42.8928 1.00512 -2.80538 0
M  V30 397 H 40.4298 0.485055 -1.38873 0
M  V30 398 H 42.3878 3.44386 -2.35487 0
M  V30 399 H 41.0178 2.94115 -1.33027 0
M  V30 400 H 40.0698 1.69571 -3.40514 0
M  V30 401 H 41.3818 2.41774 -4.36287 0
M  V30 402 H 40.5358 4.7108 -3.8232 0
M  V30 403 H 39.2748 4.01754 -2.76487 0
M  V30 404 H 38.2798 2.80799 -4.72686 0
M  V30 405 H 39.5048 3.53238 -5.8 0
M  V30 406 H 37.4508 5.0687 -4.16435 0
M  V30 407 H 37.3678 4.76562 -5.86877 0
M  V30 408 H 38.6358 5.77335 -5.23741 0
M  V30 409 N 42.8649 1.48995 0.513639 0
M  V30 410 C 44.0949 1.61297 1.291 0
M  V30 411 C 44.5029 0.278656 1.87137 0
M  V30 412 O 43.8459 -0.744325 1.67945 0
M  V30 413 C 43.9079 2.61326 2.46879 0
M  V30 414 C 43.5719 4.05993 2.09807 0
M  V30 415 C 44.5689 4.93183 1.64519 0
M  V30 416 C 42.2539 4.51642 2.19829 0
M  V30 417 C 44.2479 6.24056 1.2974 0
M  V30 418 C 41.9349 5.82532 1.84662 0
M  V30 419 C 42.9329 6.68562 1.3969 0
M  V30 420 O 42.6209 7.97014 1.04992 0
M  V30 421 H 42.3529 0.546236 0.39825 0
M  V30 422 H 44.9069 1.95673 0.62459 0
M  V30 423 H 43.1369 2.22104 3.16554 0
M  V30 424 H 44.8259 2.6329 3.08923 0
M  V30 425 H 45.5919 4.59147 1.56233 0
M  V30 426 H 41.4709 3.84855 2.53786 0
M  V30 427 H 45.0149 6.91161 0.945659 0
M  V30 428 H 40.9119 6.16099 1.92594 0
M  V30 429 H 41.6799 8.09913 1.18249 0
M  V30 430 N 44.343 -0.763751 1.37857 0
M  V30 431 C 45.589 -1.52483 1.33704 0
M  V30 432 C 45.922 -1.94051 -0.0759612 0
M  V30 433 O 45.197 -1.64675 -1.03501 0
M  V30 434 C 45.48 -2.78441 2.28348 0
M  V30 435 C 45.333 -2.43075 3.78463 0
M  V30 436 C 46.652 -3.80415 2.21298 0
M  V30 437 H 43.771 -0.553169 0.487005 0
M  V30 438 H 46.413 -0.875562 1.68624 0
M  V30 439 H 44.563 -3.33842 1.987 0
M  V30 440 H 46.235 -1.93527 4.18742 0
M  V30 441 H 44.478 -1.75666 3.96641 0
M  V30 442 H 45.149 -3.33149 4.40132 0
M  V30 443 H 47.625 -3.34527 2.47449 0
M  V30 444 H 46.501 -4.66257 2.89647 0
M  V30 445 H 46.762 -4.25262 1.20849 0
M  V30 446 N 45.8211 -1.22559 -0.990812 0
M  V30 447 C 47.0671 -1.06303 -1.73411 0
M  V30 448 C 47.4221 0.397442 -1.8825 0
M  V30 449 O 46.7151 1.29062 -1.41611 0
M  V30 450 C 46.9091 -1.71011 -3.13831 0
M  V30 451 C 46.7381 -3.232 -3.12685 0
M  V30 452 C 45.5081 -3.92314 -3.18461 0
M  V30 453 C 47.7061 -4.20107 -2.96673 0
M  V30 454 N 45.6881 -5.31571 -3.07091 0
M  V30 455 C 47.0591 -5.46208 -2.93354 0
M  V30 456 C 49.1141 -4.10973 -2.8108 0
M  V30 457 C 47.8171 -6.64225 -2.76039 0
M  V30 458 C 49.8431 -5.28642 -2.65126 0
M  V30 459 C 49.2051 -6.53663 -2.62496 0
M  V30 460 H 45.3041 -0.443441 -0.644115 0
M  V30 461 H 47.8881 -1.55131 -1.17654 0
M  V30 462 H 46.0591 -1.2473 -3.67827 0
M  V30 463 H 47.7911 -1.47828 -3.76735 0
M  V30 464 H 44.5461 -3.43326 -3.26227 0
M  V30 465 H 44.9701 -6.0455 -3.0471 0
M  V30 466 H 49.6121 -3.15098 -2.8191 0
M  V30 467 H 47.3301 -7.60246 -2.73954 0
M  V30 468 H 50.9161 -5.23407 -2.54039 0
M  V30 469 H 49.7961 -7.43182 -2.50302 0
M  V30 470 N 47.2992 1.18797 -1.03562 0
M  V30 471 C 48.2622 2.20464 -0.626769 0
M  V30 472 C 49.2622 1.57721 0.313173 0
M  V30 473 O 50.4522 1.73917 0.0992615 0
M  V30 474 C 47.5842 3.40802 0.0818498 0
M  V30 475 H 48.7772 2.58149 -1.5264 0
M  V30 476 H 46.3302 1.32593 -0.827578 0
M  V30 477 H 47.0652 3.08642 0.995518 0
M  V30 478 H 46.8502 3.8758 -0.593652 0
M  V30 479 H 48.3402 4.16092 0.354584 0
M  V30 480 N 48.7773 0.814389 1.34928 0
M  V30 481 C 49.7403 0.235759 2.27984 0
M  V30 482 C 50.7403 -0.581412 1.49921 0
M  V30 483 O 51.9303 -0.398758 1.69575 0
M  V30 484 C 49.0623 -0.670433 3.34242 0
M  V30 485 H 50.2553 1.05659 2.80671 0
M  V30 486 H 47.8083 0.585614 1.44915 0
M  V30 487 H 48.5433 -1.51466 2.86755 0
M  V30 488 H 48.3283 -0.0860822 3.92005 0
M  V30 489 H 49.8183 -1.06935 4.03676 0
M  V30 490 N 50.2554 -1.46986 0.568584 0
M  V30 491 C 51.4834 -2.0683 0.0539956 0
M  V30 492 C 51.8984 -1.41953 -1.24478 0
M  V30 493 O 51.2554 -0.519933 -1.74937 0
M  V30 494 C 51.3064 -3.61254 -0.133362 0
M  V30 495 O 51.0274 -4.237 1.11399 0
M  V30 496 C 52.5284 -4.37992 -0.683927 0
M  V30 497 H 49.7484 -0.669058 0.0510141 0
M  V30 498 H 52.2924 -1.88824 0.785234 0
M  V30 499 H 50.4474 -3.78735 -0.81477 0
M  V30 500 H 50.8614 -5.16388 0.91888 0
M  V30 501 H 52.3354 -5.46684 -0.764263 0
M  V30 502 H 52.8124 -4.05058 -1.69778 0
M  V30 503 H 53.4184 -4.25283 -0.0378494 0
M  V30 504 N 51.7335 -0.305618 -1.54608 0
M  V30 505 C 52.6965 0.555591 -2.22364 0
M  V30 506 C 53.6965 1.05768 -1.21119 0
M  V30 507 O 54.8865 0.952972 -1.45822 0
M  V30 508 C 52.0185 1.76974 -2.91364 0
M  V30 509 H 53.2115 -0.0364572 -2.99878 0
M  V30 510 H 50.7645 -0.0565007 -1.56198 0
M  V30 511 H 51.4995 2.40151 -2.17941 0
M  V30 512 H 51.2845 1.41732 -3.65588 0
M  V30 513 H 52.7745 2.38148 -3.43038 0
M  V30 514 N 53.2116 1.57565 -0.0334293 0
M  V30 515 C 54.4596 1.91598 0.642999 0
M  V30 516 C 54.7806 0.910847 1.7242 0
M  V30 517 O 54.0506 -0.0469931 1.95844 0
M  V30 518 H 52.6306 0.707228 0.240496 0
M  V30 519 H 55.2926 1.94726 -0.0822488 0
M  V30 520 H 54.3886 2.92336 1.09298 0
M  V30 521 N 54.6897 -0.239769 1.55765 0
M  V30 522 C 55.9377 -0.964892 1.77579 0
M  V30 523 C 56.2587 -1.85582 0.598699 0
M  V30 524 O 55.5287 -1.92075 -0.385226 0
M  V30 525 H 54.1087 -0.359265 0.654933 0
M  V30 526 H 56.7707 -0.256001 1.93211 0
M  V30 527 H 55.8667 -1.58243 2.69009 0
M  V30 528 N 56.1678 -1.49265 -0.50573 0
M  V30 529 C 57.4138 -1.58748 -1.26202 0
M  V30 530 C 57.7468 -0.271227 -1.92297 0
M  V30 531 O 57.0218 0.724831 -1.80489 0
M  V30 532 C 57.3048 -2.74332 -2.33268 0
M  V30 533 C 57.1578 -4.15737 -1.71705 0
M  V30 534 C 58.4768 -2.85576 -3.34865 0
M  V30 535 H 55.5958 -0.577826 -0.457478 0
M  V30 536 H 58.2378 -1.81532 -0.560897 0
M  V30 537 H 56.3878 -2.55036 -2.93068 0
M  V30 538 H 58.0598 -4.46537 -1.15769 0
M  V30 539 H 56.3028 -4.21605 -1.02135 0
M  V30 540 H 56.9738 -4.92477 -2.49341 0
M  V30 541 H 59.4498 -3.03127 -2.8505 0
M  V30 542 H 58.3258 -3.68135 -4.07146 0
M  V30 543 H 58.5868 -1.94732 -3.96903 0
M  V30 544 N 57.6459 0.756429 -1.3826 0
M  V30 545 C 58.8929 1.51547 -1.34312 0
M  V30 546 C 59.2209 1.94382 0.0677144 0
M  V30 547 O 58.4759 1.65514 1.04421 0
M  V30 548 C 58.7749 2.78313 -2.24224 0
M  V30 549 C 58.4409 2.54455 -3.72241 0
M  V30 550 C 57.1029 2.47657 -4.12576 0
M  V30 551 C 59.4549 2.3354 -4.65949 0
M  V30 552 C 56.7829 2.17956 -5.44713 0
M  V30 553 C 59.1349 2.05359 -5.9834 0
M  V30 554 C 57.7989 1.97016 -6.37762 0
M  V30 555 H 57.0689 0.55455 -0.491482 0
M  V30 556 H 59.7159 0.870039 -1.70595 0
M  V30 557 H 58.0209 3.47492 -1.80987 0
M  V30 558 H 59.7179 3.36259 -2.18474 0
M  V30 559 H 56.3079 2.60616 -3.40261 0
M  V30 560 H 60.4919 2.37772 -4.35635 0
M  V30 561 H 55.7479 2.10003 -5.74203 0
M  V30 562 H 59.9219 1.88179 -6.70494 0
M  V30 563 H 57.5489 1.73766 -7.40074 0
M  V30 564 N 59.124 1.23083 0.984299 0
M  V30 565 C 60.056 0.96636 2.07832 0
M  V30 566 C 61.069 -0.0582135 1.62696 0
M  V30 567 O 62.258 0.176843 1.77622 0
M  V30 568 C 59.358 0.433397 3.36117 0
M  V30 569 C 58.531 1.51722 4.10243 0
M  V30 570 C 57.59 0.989821 5.16807 0
M  V30 571 O 56.616 1.67794 5.43906 0
M  V30 572 N 57.818 -0.184367 5.80207 0
M  V30 573 H 60.583 1.90824 2.31098 0
M  V30 574 H 58.144 1.13888 1.1507 0
M  V30 575 H 60.136 0.065699 4.04647 0
M  V30 576 H 58.706 -0.413806 3.09849 0
M  V30 577 H 57.926 2.05786 3.36223 0
M  V30 578 H 59.214 2.24619 4.56534 0
M  V30 579 H 58.612 -0.760062 5.60571 0
M  V30 580 H 57.169 -0.493366 6.4993 0
M  V30 581 N 60.6021 -1.18246 1.0419 0
M  V30 582 C 61.8271 -1.92736 0.765996 0
M  V30 583 C 62.2521 -1.75728 -0.67091 0
M  V30 584 O 61.6101 -1.06825 -1.46486 0
M  V30 585 C 61.6581 -3.42148 1.13875 0
M  V30 586 O 60.7621 -4.11548 0.264954 0
M  V30 587 H 60.1031 -0.601238 0.281797 0
M  V30 588 H 62.6331 -1.49942 1.39207 0
M  V30 589 H 62.6431 -3.92858 1.1012 0
M  V30 590 H 61.3181 -3.53848 2.18551 0
M  V30 591 H 59.8951 -3.71137 0.362226 0
M  V30 592 N 62.0802 -0.821533 -1.34494 0
M  V30 593 C 63.3292 -0.405355 -1.97585 0
M  V30 594 C 63.6422 1.03677 -1.65863 0
M  V30 595 O 64.8482 1.55679 -2.22433 0
M  V30 596 C 63.3042 -0.673861 -3.53535 0
M  V30 597 C 62.9122 -2.12951 -3.94152 0
M  V30 598 C 64.6562 -0.32378 -4.23263 0
M  V30 599 C 62.5632 -2.34298 -5.43009 0
M  V30 600 H 61.4932 -0.147836 -0.739365 0
M  V30 601 H 64.1442 -1.00769 -1.53355 0
M  V30 602 H 62.5262 -0.00137554 -3.96 0
M  V30 603 H 63.7002 -2.84104 -3.62797 0
M  V30 604 H 62.0152 -2.44089 -3.37356 0
M  V30 605 H 64.6122 -0.461126 -5.32708 0
M  V30 606 H 64.9552 0.731586 -4.09821 0
M  V30 607 H 65.4882 -0.950786 -3.8627 0
M  V30 608 H 62.2272 -3.38335 -5.61435 0
M  V30 609 H 61.7472 -1.67687 -5.75883 0
M  V30 610 H 63.4262 -2.16588 -6.09671 0
M  V30 611 N 63.5583 1.46682 -0.576371 0
M  V30 612 C 64.7863 2.06798 -0.0649635 0
M  V30 613 C 65.2013 1.42612 1.23723 0
M  V30 614 O 64.5583 0.529203 1.74659 0
M  V30 615 C 64.6093 3.6132 0.114202 0
M  V30 616 O 64.3303 4.23104 -1.13644 0
M  V30 617 C 65.8313 4.38349 0.66069 0
M  V30 618 H 63.0513 0.668778 -0.0545616 0
M  V30 619 H 65.5953 1.88404 -0.795237 0
M  V30 620 H 63.7503 3.79162 0.794673 0
M  V30 621 H 64.1643 5.15894 -0.946253 0
M  V30 622 H 65.6383 5.47081 0.73526 0
M  V30 623 H 66.1153 4.05953 1.67627 0
M  V30 624 H 66.7213 4.25297 0.0152951 0
M  V30 625 N 65.0364 0.313813 1.54444 0
M  V30 626 C 66.4474 -0.176243 1.85866 0
M  V30 627 C 66.7984 -1.52405 1.23561 0
M  V30 628 O 65.9234 -2.09605 0.538016 0
M  V30 629 C 66.5184 -0.32657 3.37222 0
M  V30 630 C 65.0774 -0.760846 3.6863 0
M  V30 631 C 64.2244 0.123247 2.77026 0
M  V30 632 H 67.1754 0.534418 1.49431 0
M  V30 633 H 67.1964 -1.15908 3.62416 0
M  V30 634 H 66.7084 0.654531 3.82541 0
M  V30 635 H 64.8094 -1.75204 3.28838 0
M  V30 636 H 64.9224 -0.571353 4.75681 0
M  V30 637 H 63.2864 -0.399597 2.51546 0
M  V30 638 H 64.0694 1.10094 3.25168 0
M  V30 639 N 66.5145 -1.57545 0.0417849 0
M  V30 640 C 67.7635 -1.91494 -0.633492 0
M  V30 641 C 68.0765 -0.921084 -1.72556 0
M  V30 642 O 69.2825 -1.15228 -2.45835 0
M  V30 643 C 67.7385 -3.40072 -1.17808 0
M  V30 644 C 67.3465 -4.47843 -0.118633 0
M  V30 645 C 69.0905 -3.8307 -1.82915 0
M  V30 646 C 66.9975 -5.87529 -0.675578 0
M  V30 647 H 65.9275 -0.714653 -0.24039 0
M  V30 648 H 68.5785 -1.83175 0.109148 0
M  V30 649 H 66.9605 -3.43364 -1.97274 0
M  V30 650 H 68.1345 -4.56128 0.654494 0
M  V30 651 H 66.4495 -4.14128 0.434414 0
M  V30 652 H 69.0465 -4.84794 -2.25563 0
M  V30 653 H 69.3895 -3.1881 -2.67705 0
M  V30 654 H 69.9225 -3.82255 -1.10119 0
M  V30 655 H 66.6615 -6.55362 0.134475 0
M  V30 656 H 66.1815 -5.82824 -1.4169 0
M  V30 657 H 67.8605 -6.36491 -1.1614 0
M  V30 658 N 67.9926 0.231505 -1.5589 0
M  V30 659 C 68.9026 1.308 -1.94752 0
M  V30 660 C 69.9186 1.51826 -0.849989 0
M  V30 661 O 71.0946 1.6515 -1.15271 0
M  V30 662 C 68.1596 2.63968 -2.24771 0
M  V30 663 C 67.2206 2.51331 -3.48039 0
M  V30 664 C 66.4536 3.78148 -3.76616 0
M  V30 665 O 66.6766 4.80722 -3.07022 0
M  V30 666 O 65.6106 3.75857 -4.70123 0
M  V30 667 H 69.4366 1.0083 -2.86474 0
M  V30 668 H 67.0216 0.433547 -1.42971 0
M  V30 669 H 68.9036 3.42633 -2.45318 0
M  V30 670 H 67.5786 2.9364 -1.36225 0
M  V30 671 H 66.4856 1.709 -3.32782 0
M  V30 672 H 67.8186 2.26601 -4.36936 0
M  V30 673 N 69.4707 1.49531 0.497807 0
M  V30 674 C 70.7197 1.58426 1.24837 0
M  V30 675 C 71.0327 0.277643 1.93619 0
M  V30 676 O 72.2387 0.24517 2.70391 0
M  V30 677 C 70.6947 2.79538 2.26686 0
M  V30 678 C 70.3027 4.16971 1.63828 0
M  V30 679 C 72.0467 2.97764 3.0255 0
M  V30 680 C 69.9537 5.29301 2.63807 0
M  V30 681 H 68.8837 0.58989 0.469623 0
M  V30 682 H 71.5347 1.75923 0.521857 0
M  V30 683 H 69.9167 2.55542 3.02514 0
M  V30 684 H 71.0907 4.51116 0.939711 0
M  V30 685 H 69.4057 4.04129 1.00342 0
M  V30 686 H 72.0027 3.78856 3.77323 0
M  V30 687 H 72.3457 2.08448 3.60354 0
M  V30 688 H 72.8787 3.21815 2.33838 0
M  V30 689 H 69.6177 6.20687 2.10779 0
M  V30 690 H 69.1377 4.99606 3.31894 0
M  V30 691 H 70.8167 5.58768 3.2617 0
M  V30 692 N 70.9488 -0.749086 1.3866 0
M  V30 693 C 72.2258 -1.4992 1.25632 0
M  V30 694 C 72.6058 -2.10633 -0.140317 0
M  V30 695 O 71.9538 -1.97437 -1.15025 0
M  V30 696 C 72.1638 -2.56195 2.36992 0
M  V30 697 C 73.5118 -3.22972 2.75634 0
M  V30 698 O 74.5358 -2.66502 2.36337 0
M  V30 699 O 73.3948 -4.25122 3.43415 0
M  V30 700 H 70.4888 -0.665067 0.491544 0
M  V30 701 H 73.0348 -0.784113 1.50498 0
M  V30 702 H 71.8068 -2.09612 3.30422 0
M  V30 703 H 71.4298 -3.35279 2.13714 0
M  V30 704 N 72.4269 -1.23603 -0.977757 0
M  V30 705 C 73.3599 -0.962772 -2.06896 0
M  V30 706 C 74.3379 0.0998743 -1.62293 0
M  V30 707 O 75.5219 -0.0349421 -1.88468 0
M  V30 708 C 72.6489 -0.45095 -3.35685 0
M  V30 709 C 71.6949 -1.50061 -3.99229 0
M  V30 710 S 72.5279 -3.07884 -4.38142 0
M  V30 711 C 73.6839 -2.58378 -5.7008 0
M  V30 712 H 73.9169 -1.88677 -2.29757 0
M  V30 713 H 71.4499 -1.06876 -1.11431 0
M  V30 714 H 73.4079 -0.162261 -4.10179 0
M  V30 715 H 72.0689 0.452179 -3.10828 0
M  V30 716 H 71.2619 -1.09269 -4.92013 0
M  V30 717 H 70.8639 -1.73878 -3.31123 0
M  V30 718 H 73.1559 -2.00563 -6.47133 0
M  V30 719 H 74.0989 -3.49711 -6.15717 0
M  V30 720 H 74.5069 -1.99143 -5.28207 0
M  V30 721 N 73.905 1.17692 -1.04816 0
M  V30 722 C 75.154 1.87192 -0.751132 0
M  V30 723 C 75.467 1.8169 0.724441 0
M  V30 724 O 76.673 2.46625 1.13527 0
M  V30 725 C 75.129 3.35857 -1.29338 0
M  V30 726 C 74.737 3.4987 -2.79812 0
M  V30 727 C 76.481 4.10709 -1.07322 0
M  V30 728 C 74.388 4.92536 -3.27356 0
M  V30 729 H 73.318 0.701162 -0.277288 0
M  V30 730 H 75.969 1.32932 -1.26496 0
M  V30 731 H 74.351 3.89631 -0.707376 0
M  V30 732 H 75.525 3.06332 -3.44235 0
M  V30 733 H 73.84 2.88433 -3.00325 0
M  V30 734 H 76.437 5.15952 -1.4035 0
M  V30 735 H 76.78 4.16299 -0.0108001 0
M  V30 736 H 77.313 3.6313 -1.62423 0
M  V30 737 H 74.052 4.92119 -4.33012 0
M  V30 738 H 73.572 5.3676 -2.67673 0
M  V30 739 H 75.251 5.61288 -3.21815 0
M  V30 740 N 75.3831 0.828654 1.34056 0
M  V30 741 C 76.6291 0.42008 1.98402 0
M  V30 742 C 76.9621 -1.01564 1.65525 0
M  V30 743 O 76.2371 -1.70834 0.929831 0
M  V30 744 C 76.5201 0.62927 3.54559 0
M  V30 745 C 76.3731 2.11152 3.97159 0
M  V30 746 C 77.6921 0.0688756 4.40046 0
M  V30 747 H 74.8111 0.154104 0.720709 0
M  V30 748 H 77.4531 1.04228 1.5886 0
M  V30 749 H 75.6031 0.0996418 3.88372 0
M  V30 750 H 77.2751 2.70522 3.73651 0
M  V30 751 H 75.5181 2.59985 3.47261 0
M  V30 752 H 76.1891 2.20868 5.05887 0
M  V30 753 H 78.6651 0.521458 4.1282 0
M  V30 754 H 77.5411 0.245006 5.48353 0
M  V30 755 H 77.8021 -1.0266 4.30015 0
M  V30 756 N 76.8612 -1.46375 0.584142 0
M  V30 757 C 78.1092 -2.01978 0.0701287 0
M  V30 758 C 78.4302 -1.4579 -1.295 0
M  V30 759 O 77.7002 -0.64314 -1.85042 0
M  V30 760 H 76.2802 -0.746648 0.0229345 0
M  V30 761 H 78.9422 -1.79461 0.760245 0
M  V30 762 H 78.0382 -3.121 0.0022064 0
M  V30 763 N 78.3393 -0.321999 -1.54275 0
M  V30 764 C 79.2863 0.544664 -2.24281 0
M  V30 765 C 80.2563 1.1129 -1.23303 0
M  V30 766 O 81.4413 1.15354 -1.51981 0
M  V30 767 C 78.5813 1.70045 -3.00298 0
M  V30 768 C 77.6943 1.16159 -4.1609 0
M  V30 769 C 76.8293 2.28293 -4.79641 0
M  V30 770 C 75.8683 1.71648 -5.8754 0
M  V30 771 N 75.0053 2.77438 -6.44959 0
M  V30 772 H 79.8453 -0.0588907 -2.97942 0
M  V30 773 H 77.3823 -0.0408345 -1.47043 0
M  V30 774 H 79.3403 2.38054 -3.42616 0
M  V30 775 H 77.9703 2.27531 -2.28975 0
M  V30 776 H 77.0223 0.373092 -3.78566 0
M  V30 777 H 78.3343 0.707087 -4.93763 0
M  V30 778 H 77.4883 3.0421 -5.2492 0
M  V30 779 H 76.2273 2.77079 -4.01346 0
M  V30 780 H 75.2323 0.942282 -5.41665 0
M  V30 781 H 76.4573 1.23741 -6.67731 0
M  V30 782 H 74.4033 3.25519 -5.69538 0
M  V30 783 H 74.3203 2.36547 -7.1804 0
M  V30 784 H 75.5883 3.53189 -6.94894 0
M  V30 785 N 79.8174 1.5752 -0.0501392 0
M  V30 786 C 81.0944 1.83996 0.663685 0
M  V30 787 C 81.4744 0.938339 1.89099 0
M  V30 788 O 80.8224 -0.00087759 2.285 0
M  V30 789 C 81.0324 3.33702 1.02196 0
M  V30 790 C 82.3804 4.00691 1.40469 0
M  V30 791 O 83.4044 3.38321 1.11433 0
M  V30 792 O 82.2634 5.10658 1.94654 0
M  V30 793 H 79.3574 0.759385 0.32751 0
M  V30 794 H 81.9034 1.69514 -0.0794238 0
M  V30 795 H 80.6754 3.91015 0.149364 0
M  V30 796 H 80.2984 3.53368 1.82255 0
M  V30 797 N 81.2955 -0.223234 1.56011 0
M  V30 798 C 82.7115 -0.572856 1.48965 0
M  V30 799 C 82.9115 -1.87225 0.74492 0
M  V30 800 O 81.9675 -2.50899 0.283896 0
M  V30 801 C 83.2805 -0.653646 2.9351 0
M  V30 802 C 84.8285 -0.744386 3.0402 0
M  V30 803 C 85.3035 -0.856535 4.49919 0
M  V30 804 N 86.7945 -0.9208 4.53955 0
M  V30 805 C 87.5295 -1.02726 5.64123 0
M  V30 806 N 87.0255 -1.09777 6.84047 0
M  V30 807 N 88.8185 -1.06226 5.51971 0
M  V30 808 H 80.9695 0.629462 2.02858 0
M  V30 809 H 83.2325 0.220621 0.921971 0
M  V30 810 H 82.9385 0.231518 3.50937 0
M  V30 811 H 82.8125 -1.51781 3.45315 0
M  V30 812 H 85.1995 -1.61999 2.46658 0
M  V30 813 H 85.2805 0.14541 2.55386 0
M  V30 814 H 84.9245 0.0146069 5.07898 0
M  V30 815 H 84.8545 -1.76172 4.96257 0
M  V30 816 H 87.3455 -0.876694 3.6759 0
M  V30 817 H 87.6585 -1.17872 7.63758 0
M  V30 818 H 86.0035 -1.06693 6.86762 0
M  V30 819 H 89.1945 -1.00382 4.5721 0
M  V30 820 H 89.3675 -1.14177 6.37862 0
M  V30 821 N 82.7736 -1.49793 -0.48987 0
M  V30 822 C 83.6836 -1.70036 -1.61632 0
M  V30 823 C 84.6996 -0.583102 -1.63939 0
M  V30 824 O 85.8756 -0.859169 -1.82154 0
M  V30 825 C 82.9406 -1.77277 -2.97949 0
M  V30 826 C 82.0016 -3.00918 -3.06181 0
M  V30 827 C 81.2346 -3.07804 -4.35996 0
M  V30 828 O 81.4576 -2.21982 -5.25433 0
M  V30 829 O 80.3916 -4.00369 -4.49431 0
M  V30 830 H 84.2176 -2.65486 -1.47482 0
M  V30 831 H 81.8026 -1.33666 -0.667362 0
M  V30 832 H 83.6846 -1.84329 -3.78947 0
M  V30 833 H 82.3596 -0.850076 -3.12339 0
M  V30 834 H 81.2666 -2.99377 -2.2433 0
M  V30 835 H 82.5996 -3.92704 -2.96723 0
M  V30 836 N 84.2517 0.741722 -1.39055 0
M  V30 837 C 85.4997 1.49818 -1.35643 0
M  V30 838 C 85.8207 1.94938 0.0491642 0
M  V30 839 O 85.0907 1.68505 0.999141 0
M  V30 840 H 83.6707 0.555755 -0.499144 0
M  V30 841 H 86.3327 0.880957 -1.73854 0
M  V30 842 H 85.4287 2.38348 -2.01486 0
M  V30 843 N 85.7298 1.2412 0.971189 0
M  V30 844 C 86.9768 1.07881 1.71371 0
M  V30 845 C 87.3048 -0.382901 1.90694 0
M  V30 846 O 86.5598 -1.29945 1.46331 0
M  V30 847 C 86.8588 1.75983 3.11071 0
M  V30 848 C 86.5248 3.25909 3.11599 0
M  V30 849 C 85.1868 3.66813 3.11451 0
M  V30 850 C 87.5388 4.21771 3.062 0
M  V30 851 C 84.8668 5.02021 3.03631 0
M  V30 852 C 87.2188 5.56982 2.99923 0
M  V30 853 C 85.8828 5.97237 2.98102 0
M  V30 854 H 85.1528 0.394764 0.62709 0
M  V30 855 H 87.7998 1.54176 1.13587 0
M  V30 856 H 86.1048 1.22072 3.72298 0
M  V30 857 H 87.8018 1.60887 3.6731 0
M  V30 858 H 84.3918 2.93353 3.12477 0
M  V30 859 H 88.5758 3.91172 3.05447 0
M  V30 860 H 83.8318 5.32411 3.0058 0
M  V30 861 H 88.0058 6.30969 2.94704 0
M  V30 862 H 85.6328 7.01967 2.91798 0
M  V30 863 N 87.2079 -1.17134 1.05439 0
M  V30 864 C 88.4549 -1.87456 0.765942 0
M  V30 865 C 88.7829 -1.81189 -0.707153 0
M  V30 866 O 88.0379 -1.21633 -1.5331 0
M  V30 867 C 88.3369 -3.36833 1.19491 0
M  V30 868 C 88.0029 -3.63301 2.67063 0
M  V30 869 C 86.6649 -3.70234 3.07376 0
M  V30 870 C 89.0169 -3.74575 3.62413 0
M  V30 871 C 86.3449 -3.85933 4.41896 0
M  V30 872 C 88.6969 -3.91793 4.9667 0
M  V30 873 C 87.3609 -3.96966 5.36633 0
M  V30 874 H 86.6309 -0.685948 0.280278 0
M  V30 875 H 89.2779 -1.38556 1.32192 0
M  V30 876 H 87.5829 -3.87807 0.557969 0
M  V30 877 H 89.2799 -3.89611 0.948893 0
M  V30 878 H 85.8699 -3.58532 2.34846 0
M  V30 879 H 90.0539 -3.68537 3.32406 0
M  V30 880 H 85.3099 -3.88187 4.72357 0
M  V30 881 H 89.4839 -3.99458 5.70444 0
M  V30 882 H 87.1109 -4.08883 6.40874 0
M  V30 883 N 88.686 -0.835752 -1.33615 0
M  V30 884 C 89.914 -0.443344 -2.02094 0
M  V30 885 C 90.329 0.954522 -1.62894 0
M  V30 886 O 89.686 1.61982 -0.840723 0
M  V30 887 C 89.737 -0.550775 -3.5728 0
M  V30 888 O 89.458 -1.89356 -3.95065 0
M  V30 889 C 90.959 -0.154919 -4.43029 0
M  V30 890 H 88.179 -0.176359 -0.647409 0
M  V30 891 H 90.723 -1.12746 -1.70612 0
M  V30 892 H 88.878 0.0853997 -3.87306 0
M  V30 893 H 89.292 -1.87687 -4.89769 0
M  V30 894 H 90.766 -0.281144 -5.51284 0
M  V30 895 H 91.243 0.902863 -4.2982 0
M  V30 896 H 91.849 -0.765404 -4.18356 0
M  V30 897 N 90.1641 1.46063 -0.591896 0
M  V30 898 C 91.1121 2.32124 0.148739 0
M  V30 899 C 92.1061 1.45035 0.875286 0
M  V30 900 O 93.3121 1.61609 0.792632 0
M  V30 901 H 89.6871 0.749024 0.066832 0
M  V30 902 H 91.6581 2.92392 -0.595783 0
M  V30 903 C 90.4071 3.28373 1.1431 0
M  V30 904 H 89.7301 3.95371 0.59346 0
M  V30 905 H 91.1701 3.91352 1.63155 0
M  V30 906 C 89.6291 2.54393 2.20875 0
M  V30 907 O 90.1591 2.31373 3.28374 0
M  V30 908 N 88.3651 2.14797 1.95731 0
M  V30 909 H 87.9121 2.33719 1.08319 0
M  V30 910 H 87.8701 1.65619 2.67241 0
M  V30 911 N 91.6422 0.330177 1.54103 0
M  V30 912 C 92.8902 -0.269871 2.0029 0
M  V30 913 C 93.2112 -1.52133 1.21986 0
M  V30 914 O 92.4812 -1.93212 0.323438 0
M  V30 915 H 91.0612 -0.10271 0.739905 0
M  V30 916 H 93.7232 0.448249 1.89675 0
M  V30 917 H 92.8192 -0.52166 3.07709 0
M  V30 918 N 93.1203 -1.57491 0.0584922 0
M  V30 919 C 94.0503 -2.14988 -0.911178 0
M  V30 920 C 95.0313 -1.07343 -1.31952 0
M  V30 921 O 96.2163 -1.35318 -1.39294 0
M  V30 922 C 93.3463 -2.70078 -2.18347 0
M  V30 923 C 92.3003 -3.82771 -1.91495 0
M  V30 924 C 91.6263 -4.24408 -3.25241 0
M  V30 925 C 92.9263 -5.07592 -1.23075 0
M  V30 926 H 94.6203 -2.96263 -0.432246 0
M  V30 927 H 92.1663 -1.42512 -0.206469 0
M  V30 928 H 94.1193 -3.08943 -2.86587 0
M  V30 929 H 92.8433 -1.86005 -2.68458 0
M  V30 930 H 91.5023 -3.44389 -1.25664 0
M  V30 931 H 91.1503 -3.37275 -3.73168 0
M  V30 932 H 90.8503 -5.00366 -3.08071 0
M  V30 933 H 92.3743 -4.65879 -3.94701 0
M  V30 934 H 93.7883 -5.43857 -1.81362 0
M  V30 935 H 92.1853 -5.88741 -1.16207 0
M  V30 936 H 93.2553 -4.84454 -0.207847 0
M  V30 937 N 94.5984 0.214957 -1.56127 0
M  V30 938 C 95.8264 0.955092 -1.83536 0
M  V30 939 C 96.2414 1.77677 -0.638472 0
M  V30 940 O 95.5984 1.78219 0.392968 0
M  V30 941 C 95.6494 1.86734 -3.09536 0
M  V30 942 O 95.3704 1.07887 -4.24608 0
M  V30 943 C 96.8714 2.72082 -3.4998 0
M  V30 944 H 94.0914 0.279611 -0.609966 0
M  V30 945 H 96.6354 0.228197 -2.03223 0
M  V30 946 H 94.7904 2.5481 -2.91806 0
M  V30 947 H 95.2044 1.69872 -4.9623 0
M  V30 948 H 96.6784 3.31782 -4.41163 0
M  V30 949 H 97.1554 3.44806 -2.7204 0
M  V30 950 H 97.7614 2.09409 -3.70173 0
M  V30 951 N 96.0765 1.50051 0.48192 0
M  V30 952 C 97.0065 1.71046 1.58951 0
M  V30 953 C 97.9875 0.559288 1.60642 0
M  V30 954 O 99.1725 0.797243 1.77081 0
M  V30 955 C 96.3025 1.79462 2.97339 0
M  V30 956 C 95.2565 2.94558 3.10515 0
M  V30 957 C 94.5825 2.88105 4.50444 0
M  V30 958 C 95.8825 4.35227 2.88747 0
M  V30 959 H 97.5765 2.6378 1.41635 0
M  V30 960 H 95.1225 1.26936 0.679942 0
M  V30 961 H 97.0755 1.92734 3.74742 0
M  V30 962 H 95.7995 0.833412 3.15788 0
M  V30 963 H 94.4585 2.80918 2.35543 0
M  V30 964 H 94.1065 1.89853 4.65795 0
M  V30 965 H 93.8065 3.65366 4.60197 0
M  V30 966 H 95.3305 3.03412 5.29881 0
M  V30 967 H 96.7445 4.49449 3.55905 0
M  V30 968 H 95.1415 5.13856 3.09955 0
M  V30 969 H 96.2115 4.48347 1.84696 0
M  V30 970 N 97.5546 -0.734337 1.39446 0
M  V30 971 C 98.8026 -1.49096 1.36436 0
M  V30 972 C 99.1236 -1.94961 -0.0388255 0
M  V30 973 O 98.3936 -1.69033 -0.990191 0
M  V30 974 H 96.9736 -0.5531 0.502085 0
M  V30 975 H 99.6356 -0.871725 1.74319 0
M  V30 976 H 98.7316 -2.37276 2.02747 0
M  V30 977 N 99.0327 -1.24633 -0.964593 0
M  V30 978 C 99.9957 -1.0424 -2.04124 0
M  V30 979 C 100.996 0.00137563 -1.608 0
M  V30 980 O 102.186 -0.239883 -1.7254 0
M  V30 981 C 99.3177 -0.580588 -3.3592 0
M  V30 982 H 100.511 -1.99803 -2.23649 0
M  V30 983 H 98.0637 -1.06899 -1.14027 0
M  V30 984 H 98.7987 0.3781 -3.22088 0
M  V30 985 H 98.5837 -1.33398 -3.6871 0
M  V30 986 H 100.074 -0.459034 -4.15069 0
M  V30 987 N 100.511 1.16574 -1.06058 0
M  V30 988 C 101.458 2.20883 -0.669263 0
M  V30 989 C 102.428 1.62729 0.332918 0
M  V30 990 O 103.613 1.895 0.222346 0
M  V30 991 C 100.753 3.45049 -0.0593572 0
M  V30 992 C 99.8658 4.17458 -1.11143 0
M  V30 993 C 99.0008 5.29135 -0.467916 0
M  V30 994 C 98.0398 5.93343 -1.50369 0
M  V30 995 N 97.1768 6.96516 -0.883706 0
M  V30 996 H 102.017 2.53709 -1.5632 0
M  V30 997 H 99.5538 1.24616 -0.781625 0
M  V30 998 H 101.512 4.16033 0.311771 0
M  V30 999 H 100.142 3.12781 0.797992 0
M  V30 1000 H 99.1938 3.45101 -1.60029 0
M  V30 1001 H 100.506 4.61307 -1.89731 0
M  V30 1002 H 99.6598 6.06684 -0.0436871 0
M  V30 1003 H 98.3988 4.86443 0.349864 0
M  V30 1004 H 97.4038 5.14517 -1.93784 0
M  V30 1005 H 98.6288 6.38114 -2.32352 0
M  V30 1006 H 96.5748 6.55943 -0.086595 0
M  V30 1007 H 96.4918 7.38723 -1.607 0
M  V30 1008 H 97.7598 7.77993 -0.484543 0
M  V30 1009 N 101.989 0.842826 1.3317 0
M  V30 1010 C 102.936 0.276885 2.29133 0
M  V30 1011 C 103.906 -0.609527 1.54512 0
M  V30 1012 O 105.091 -0.546955 1.82792 0
M  V30 1013 C 102.231 -0.538707 3.40869 0
M  V30 1014 C 101.344 0.372169 4.30394 0
M  V30 1015 C 100.479 -0.454908 5.29249 0
M  V30 1016 C 99.5179 0.45411 6.10413 0
M  V30 1017 N 98.6549 -0.335075 7.013 0
M  V30 1018 H 103.495 1.10052 2.76934 0
M  V30 1019 H 101.032 0.554161 1.36262 0
M  V30 1020 H 102.99 -1.02709 4.0436 0
M  V30 1021 H 101.62 -1.32727 2.9425 0
M  V30 1022 H 100.672 0.97888 3.6759 0
M  V30 1023 H 101.984 1.0703 4.87182 0
M  V30 1024 H 101.138 -1.00695 5.98285 0
M  V30 1025 H 99.8769 -1.18646 4.73048 0
M  V30 1026 H 98.8819 1.01813 5.40291 0
M  V30 1027 H 100.107 1.18409 6.68697 0
M  V30 1028 H 98.0529 -1.04994 6.47543 0
M  V30 1029 H 97.9699 0.304262 7.55387 0
M  V30 1030 H 99.2379 -0.869224 7.74638 0
M  V30 1031 N 103.467 -1.45747 0.599634 0
M  V30 1032 C 104.707 -2.04181 0.0946309 0
M  V30 1033 C 105.071 -1.45895 -1.24815 0
M  V30 1034 O 106.272 -1.95633 -1.8434 0
M  V30 1035 C 104.543 -3.57368 0.047581 0
M  V30 1036 S 106.102 -4.36997 -0.397387 0
M  V30 1037 H 102.92 -0.70953 0.0456954 0
M  V30 1038 H 105.522 -1.78564 0.795946 0
M  V30 1039 H 104.226 -3.97303 1.02852 0
M  V30 1040 H 103.757 -3.87549 -0.675977 0
M  V30 1041 H 105.772 -4.68012 -1.64862 0
M  V30 1042 N 104.945 -0.338344 -1.53925 0
M  V30 1043 C 106.17 0.263987 -2.05713 0
M  V30 1044 C 106.595 1.43847 -1.21201 0
M  V30 1045 O 105.953 1.79904 -0.224535 0
M  V30 1046 C 106.001 0.662 -3.54471 0
M  V30 1047 O 105.105 1.76265 -3.72833 0
M  V30 1048 H 104.446 0.0448722 -0.662482 0
M  V30 1049 H 106.976 -0.491048 -1.9862 0
M  V30 1050 H 106.986 0.940594 -3.9701 0
M  V30 1051 H 105.661 -0.196937 -4.15433 0
M  V30 1052 H 104.238 1.48173 -3.42198 0
M  V30 1053 N 106.423 1.57458 -0.0668435 0
M  V30 1054 C 107.669 1.93587 0.6043 0
M  V30 1055 C 108.002 0.946722 1.69561 0
M  V30 1056 O 107.277 -0.0248516 1.94484 0
M  V30 1057 C 107.56 3.40014 1.18585 0
M  V30 1058 C 107.413 4.49685 0.101529 0
M  V30 1059 C 108.732 3.87154 2.09284 0
M  V30 1060 H 105.851 0.703958 0.218202 0
M  V30 1061 H 108.493 1.89542 -0.131804 0
M  V30 1062 H 106.643 3.43592 1.81319 0
M  V30 1063 H 108.315 4.5823 -0.531279 0
M  V30 1064 H 106.558 4.30059 -0.568487 0
M  V30 1065 H 107.229 5.49266 0.54874 0
M  V30 1066 H 109.705 3.85551 1.56491 0
M  V30 1067 H 108.581 4.90231 2.46911 0
M  V30 1068 H 108.842 3.2481 2.99918 0
M  V30 1069 N 107.901 -0.206675 1.56239 0
M  V30 1070 C 109.15 -0.926964 1.79138 0
M  V30 1071 C 109.463 -1.84901 0.638043 0
M  V30 1072 O 110.669 -2.60906 0.751033 0
M  V30 1073 C 109.125 -1.6986 3.17294 0
M  V30 1074 C 108.733 -0.821956 4.40395 0
M  V30 1075 C 110.477 -2.40922 3.4951 0
M  V30 1076 C 108.384 -1.59179 5.69575 0
M  V30 1077 H 107.314 -0.349864 0.667915 0
M  V30 1078 H 109.965 -0.180487 1.8261 0
M  V30 1079 H 108.347 -2.48853 3.08039 0
M  V30 1080 H 109.521 -0.0715019 4.60745 0
M  V30 1081 H 107.836 -0.222741 4.15804 0
M  V30 1082 H 110.433 -2.99047 4.43255 0
M  V30 1083 H 110.776 -3.14542 2.72707 0
M  V30 1084 H 111.309 -1.68905 3.60161 0
M  V30 1085 H 108.048 -0.898589 6.49312 0
M  V30 1086 H 107.568 -2.31648 5.53262 0
M  V30 1087 H 109.247 -2.14862 6.10281 0
M  V30 1088 N 109.379 -1.50304 -0.473955 0
M  V30 1089 C 110.795 -1.37667 -0.807466 0
M  V30 1090 C 110.995 -0.430555 -1.96846 0
M  V30 1091 O 110.051 0.127874 -2.52176 0
M  V30 1092 C 111.364 -2.78974 -1.12223 0
M  V30 1093 C 112.912 -2.87868 -1.22885 0
M  V30 1094 C 113.387 -4.30003 -1.57676 0
M  V30 1095 N 114.878 -4.3294 -1.64673 0
M  V30 1096 C 115.613 -5.3991 -1.93091 0
M  V30 1097 N 115.109 -6.57092 -2.1955 0
M  V30 1098 N 116.902 -5.27351 -1.94569 0
M  V30 1099 H 109.053 -2.10394 0.291212 0
M  V30 1100 H 111.316 -0.945575 0.0677609 0
M  V30 1101 H 111.022 -3.50031 -0.342229 0
M  V30 1102 H 110.896 -3.16038 -2.05913 0
M  V30 1103 H 113.283 -2.17032 -1.99953 0
M  V30 1104 H 113.364 -2.54352 -0.271814 0
M  V30 1105 H 113.008 -5.01375 -0.81149 0
M  V30 1106 H 112.938 -4.61004 -2.54525 0
M  V30 1107 H 115.429 -3.48441 -1.46277 0
M  V30 1108 H 115.742 -7.34425 -2.405 0
M  V30 1109 H 114.087 -6.60272 -2.16948 0
M  V30 1110 H 117.278 -4.34801 -1.73394 0
M  V30 1111 H 117.451 -6.10805 -2.16381 0
M  V30 1112 N 110.857 0.726932 -1.39834 0
M  V30 1113 C 112.134 1.47902 -1.28001 0
M  V30 1114 C 112.514 2.1083 0.106789 0
M  V30 1115 O 111.862 1.99242 1.11869 0
M  V30 1116 C 112.072 2.52392 -2.41038 0
M  V30 1117 C 113.42 3.18546 -2.80737 0
M  V30 1118 O 114.444 2.62708 -2.40547 0
M  V30 1119 O 113.303 4.19604 -3.50135 0
M  V30 1120 H 110.397 0.657163 -0.502062 0
M  V30 1121 H 112.943 0.760071 -1.51727 0
M  V30 1122 H 111.715 2.04329 -3.33715 0
M  V30 1123 H 111.338 3.31837 -2.19021 0
M  V30 1124 N 112.336 1.25143 0.95797 0
M  V30 1125 C 113.561 1.12521 1.74223 0
M  V30 1126 C 113.986 -0.317402 1.85403 0
M  V30 1127 O 113.344 -1.2299 1.33204 0
M  V30 1128 C 113.392 1.78062 3.1357 0
M  V30 1129 O 112.496 1.058 3.98598 0
M  V30 1130 H 111.837 0.39304 0.535178 0
M  V30 1131 H 114.367 1.65641 1.201 0
M  V30 1132 H 114.377 1.84213 3.64046 0
M  V30 1133 H 113.052 2.83021 3.04749 0
M  V30 1134 H 111.629 1.07506 3.57067 0
M  V30 1135 N 113.814 -1.1601 1.06675 0
M  V30 1136 C 114.744 -2.22688 0.702307 0
M  V30 1137 C 115.725 -1.67306 -0.307032 0
M  V30 1138 O 116.91 -1.93352 -0.181305 0
M  V30 1139 C 114.04 -3.47178 0.092038 0
M  V30 1140 C 112.994 -4.15477 1.02777 0
M  V30 1141 C 112.32 -5.33963 0.28061 0
M  V30 1142 C 113.62 -4.66019 2.35846 0
M  V30 1143 H 115.314 -2.53429 1.59419 0
M  V30 1144 H 112.86 -1.21813 0.767961 0
M  V30 1145 H 114.813 -4.21037 -0.174814 0
M  V30 1146 H 113.537 -3.15749 -0.834877 0
M  V30 1147 H 112.196 -3.43549 1.27944 0
M  V30 1148 H 111.844 -4.98788 -0.649545 0
M  V30 1149 H 111.544 -5.806 0.904258 0
M  V30 1150 H 113.068 -6.10596 0.021396 0
M  V30 1151 H 114.482 -5.3144 2.15045 0
M  V30 1152 H 112.879 -5.23293 2.93743 0
M  V30 1153 H 113.949 -3.82023 2.98641 0
M  V30 1154 N 115.292 -0.849877 -1.32721 0
M  V30 1155 C 116.522 -0.46408 -2.0132 0
M  V30 1156 C 116.93 0.94246 -1.64056 0
M  V30 1157 O 116.273 1.6257 -0.855379 0
M  V30 1158 C 116.335 -0.517887 -3.5575 0
M  V30 1159 C 115.999 -1.88248 -4.16427 0
M  V30 1160 C 116.996 -2.84726 -4.35002 0
M  V30 1161 C 114.681 -2.17832 -4.52609 0
M  V30 1162 C 116.675 -4.08945 -4.8892 0
M  V30 1163 C 114.362 -3.42304 -5.06232 0
M  V30 1164 C 115.36 -4.37677 -5.24335 0
M  V30 1165 O 115.048 -5.59946 -5.76815 0
M  V30 1166 H 114.78 -0.181327 -0.651227 0
M  V30 1167 H 117.334 -1.14713 -1.70382 0
M  V30 1168 H 115.564 0.221997 -3.86062 0
M  V30 1169 H 117.253 -0.148366 -4.05629 0
M  V30 1170 H 118.019 -2.63174 -4.07388 0
M  V30 1171 H 113.898 -1.44385 -4.37806 0
M  V30 1172 H 117.442 -4.83396 -5.02966 0
M  V30 1173 H 113.339 -3.63709 -5.33278 0
M  V30 1174 H 114.107 -5.61838 -5.95214 0
M  V30 1175 N 116.77 1.45427 -0.607355 0
M  V30 1176 C 118.016 2.0254 -0.102607 0
M  V30 1177 C 118.349 1.47478 1.26348 0
M  V30 1178 O 117.624 0.64939 1.83339 0
M  V30 1179 C 117.907 3.60044 -0.0634347 0
M  V30 1180 C 117.76 4.2544 -1.46017 0
M  V30 1181 C 119.079 4.35646 0.624514 0
M  V30 1182 H 116.198 0.73598 -0.0387607 0
M  V30 1183 H 118.84 1.73284 -0.779282 0
M  V30 1184 H 116.99 3.85101 0.512808 0
M  V30 1185 H 118.662 4.11569 -2.08347 0
M  V30 1186 H 116.905 3.83849 -2.02094 0
M  V30 1187 H 117.576 5.34342 -1.385 0
M  V30 1188 H 120.052 4.15882 0.134723 0
M  V30 1189 H 118.928 5.45376 0.621028 0
M  V30 1190 H 119.189 4.08501 1.69055 0
M  V30 1191 N 118.248 0.346503 1.53744 0
M  V30 1192 C 119.525 -0.304532 1.93215 0
M  V30 1193 C 119.905 -1.67993 1.27834 0
M  V30 1194 O 119.253 -2.24411 0.430352 0
M  V30 1195 C 119.463 -0.373852 3.46992 0
M  V30 1196 C 120.811 -0.62329 4.2 0
M  V30 1197 O 121.835 -0.455847 3.53271 0
M  V30 1198 O 120.694 -0.947879 5.38217 0
M  V30 1199 H 117.788 -0.178318 0.807547 0
M  V30 1200 H 120.334 0.397895 1.64969 0
M  V30 1201 H 119.106 0.591224 3.86808 0
M  V30 1202 H 118.729 -1.12294 3.81413 0
M  V30 1203 N 119.726 -1.57421 0.075193 0
M  V30 1204 C 120.974 -1.93236 -0.591974 0
M  V30 1205 C 121.295 -0.956241 -1.69944 0
M  V30 1206 O 120.565 -0.00494792 -1.95899 0
M  V30 1207 H 119.145 -0.713355 -0.22166 0
M  V30 1208 H 121.807 -1.9444 0.133848 0
M  V30 1209 H 120.903 -2.95131 -1.01509 0
M  V30 1210 N 121.204 0.198386 -1.56346 0
M  V30 1211 C 122.481 0.944982 -1.71258 0
M  V30 1212 C 122.861 2.0151 -0.629048 0
M  V30 1213 O 122.209 2.25639 0.360473 0
M  V30 1214 C 122.419 1.5344 -3.1346 0
M  V30 1215 C 123.767 2.01778 -3.73591 0
M  V30 1216 O 124.791 1.63288 -3.16568 0
M  V30 1217 O 123.65 2.72594 -4.73661 0
M  V30 1218 H 120.744 0.442939 -0.69838 0
M  V30 1219 H 123.29 0.188342 -1.68652 0
M  V30 1220 H 122.062 0.762869 -3.83792 0
M  V30 1221 H 121.685 2.35596 -3.20282 0
M  V30 1222 N 122.682 1.50554 0.465978 0
M  V30 1223 C 123.922 1.63439 1.22747 0
M  V30 1224 C 124.286 0.329822 1.89146 0
M  V30 1225 O 125.487 0.334161 2.66715 0
M  V30 1226 C 123.758 2.78542 2.2394 0
M  V30 1227 S 125.317 3.11591 3.0896 0
M  V30 1228 H 122.135 0.576113 0.416672 0
M  V30 1229 H 124.737 1.88357 0.523641 0
M  V30 1230 H 123.441 3.71805 1.7375 0
M  V30 1231 H 122.972 2.55726 2.98944 0
M  V30 1232 H 124.987 2.55811 4.25176 0
M  V30 1233 N 124.16 -0.719506 1.40217 0
M  V30 1234 C 125.388 -1.50864 1.41589 0
M  V30 1235 C 125.803 -1.88794 0.0145275 0
M  V30 1236 O 125.16 -1.55174 -0.960594 0
M  V30 1237 C 125.211 -2.78646 2.30302 0
M  V30 1238 O 124.932 -2.42321 3.64983 0
M  V30 1239 C 126.433 -3.72569 2.40224 0
M  V30 1240 H 123.653 -0.465709 0.48307 0
M  V30 1241 H 126.197 -0.88785 1.84221 0
M  V30 1242 H 124.352 -3.37019 1.91042 0
M  V30 1243 H 124.766 -3.24514 4.12057 0
M  V30 1244 H 126.24 -4.5908 3.06512 0
M  V30 1245 H 126.717 -4.15403 1.42608 0
M  V30 1246 H 127.323 -3.20109 2.80019 0
M  V30 1247 N 125.638 -1.25649 -0.95132 0
M  V30 1248 C 126.571 -1.00644 -2.04807 0
M  V30 1249 C 127.549 0.0654271 -1.62468 0
M  V30 1250 O 128.733 -0.074911 -1.88351 0
M  V30 1251 C 125.86 -0.522052 -3.34653 0
M  V30 1252 C 124.906 -1.58495 -3.95957 0
M  V30 1253 S 125.739 -3.17108 -4.31512 0
M  V30 1254 C 126.895 -2.70412 -5.64471 0
M  V30 1255 H 127.128 -1.93508 -2.25703 0
M  V30 1256 H 124.661 -1.09216 -1.09139 0
M  V30 1257 H 126.619 -0.24923 -4.09743 0
M  V30 1258 H 125.28 0.386146 -3.11717 0
M  V30 1259 H 124.473 -1.1968 -4.89584 0
M  V30 1260 H 124.075 -1.80862 -3.2736 0
M  V30 1261 H 126.367 -2.14245 -6.42733 0
M  V30 1262 H 127.31 -3.62693 -6.08161 0
M  V30 1263 H 127.718 -2.10302 -5.23864 0
M  V30 1264 N 127.117 1.15442 -1.07289 0
M  V30 1265 C 128.394 1.82306 -0.708792 0
M  V30 1266 C 128.774 1.94991 0.808807 0
M  V30 1267 O 128.122 1.50085 1.72298 0
M  V30 1268 C 128.332 3.18695 -1.42247 0
M  V30 1269 C 129.68 3.94341 -1.57417 0
M  V30 1270 O 130.704 3.28247 -1.38319 0
M  V30 1271 O 129.563 5.12839 -1.88834 0
M  V30 1272 H 126.657 0.787628 -0.252132 0
M  V30 1273 H 129.203 1.22559 -1.17377 0
M  V30 1274 H 127.975 3.04557 -2.45684 0
M  V30 1275 H 127.598 3.86128 -0.948223 0
M  V30 1276 N 128.595 0.856903 1.32268 0
M  V30 1277 C 129.844 0.457599 1.96441 0
M  V30 1278 C 130.157 -0.992426 1.68553 0
M  V30 1279 O 131.363 -1.49727 2.26482 0
M  V30 1280 C 129.819 0.767358 3.51624 0
M  V30 1281 C 129.427 2.23326 3.88367 0
M  V30 1282 C 131.171 0.435887 4.22256 0
M  V30 1283 C 129.078 2.48613 5.36606 0
M  V30 1284 H 128.008 0.167387 0.735185 0
M  V30 1285 H 130.659 1.048 1.5063 0
M  V30 1286 H 129.041 0.106367 3.95857 0
M  V30 1287 H 130.215 2.93623 3.55137 0
M  V30 1288 H 128.53 2.52948 3.30766 0
M  V30 1289 H 131.127 0.602202 5.31298 0
M  V30 1290 H 131.47 -0.622672 4.11617 0
M  V30 1291 H 132.003 1.05286 3.83614 0
M  V30 1292 H 128.742 3.53101 5.52268 0
M  V30 1293 H 128.262 1.82896 5.71235 0
M  V30 1294 H 129.941 2.32676 6.03714 0
M  V30 1295 N 130.073 -1.45103 0.615059 0
M  V30 1296 C 131.489 -1.57137 0.279322 0
M  V30 1297 C 131.689 -1.60523 -1.21797 0
M  V30 1298 O 130.745 -1.53956 -2.00134 0
M  V30 1299 C 132.058 -2.85062 0.957083 0
M  V30 1300 C 133.606 -2.98749 0.933706 0
M  V30 1301 C 134.081 -4.29455 1.59162 0
M  V30 1302 N 135.572 -4.36231 1.55746 0
M  V30 1303 C 136.307 -5.36051 2.0356 0
M  V30 1304 N 135.803 -6.42367 2.59494 0
M  V30 1305 N 137.596 -5.27456 1.94284 0
M  V30 1306 H 129.747 -1.41148 1.58717 0
M  V30 1307 H 132.01 -0.675331 0.665306 0
M  V30 1308 H 131.716 -2.88488 2.01166 0
M  V30 1309 H 131.59 -3.7407 0.48494 0
M  V30 1310 H 133.977 -2.94886 -0.112347 0
M  V30 1311 H 134.058 -2.11132 1.44419 0
M  V30 1312 H 133.702 -4.34077 2.63704 0
M  V30 1313 H 133.632 -5.15901 1.0561 0
M  V30 1314 H 136.123 -3.60011 1.14893 0
M  V30 1315 H 136.436 -7.14793 2.93752 0
M  V30 1316 H 134.781 -6.43097 2.63537 0
M  V30 1317 H 137.972 -4.43308 1.5032 0
M  V30 1318 H 138.145 -6.05099 2.3186 0
M  V30 1319 N 131.551 -0.354651 -1.53558 0
M  V30 1320 C 132.779 0.239515 -2.05509 0
M  V30 1321 C 133.194 1.4333 -1.2289 0
M  V30 1322 O 132.551 1.80538 -0.266899 0
M  V30 1323 C 132.602 0.643719 -3.55723 0
M  V30 1324 O 132.323 -0.502602 -4.35207 0
M  V30 1325 C 133.824 1.29743 -4.23889 0
M  V30 1326 H 131.044 0.0442697 -0.669538 0
M  V30 1327 H 133.588 -0.509856 -1.98042 0
M  V30 1328 H 131.743 1.34302 -3.63376 0
M  V30 1329 H 132.157 -0.178172 -5.24197 0
M  V30 1330 H 133.631 1.53091 -5.30346 0
M  V30 1331 H 134.108 2.25441 -3.76926 0
M  V30 1332 H 134.714 0.639865 -4.20459 0
M  V30 1333 N 133.029 1.57378 -0.0835403 0
M  V30 1334 C 133.976 2.13384 0.879539 0
M  V30 1335 C 134.946 1.04936 1.28754 0
M  V30 1336 O 136.131 1.32662 1.37133 0
M  V30 1337 C 133.271 2.70932 2.13752 0
M  V30 1338 C 132.384 3.93575 1.7811 0
M  V30 1339 C 131.519 4.39326 2.98607 0
M  V30 1340 C 130.558 5.54587 2.59037 0
M  V30 1341 N 129.695 5.95243 3.72331 0
M  V30 1342 H 134.535 2.9537 0.395076 0
M  V30 1343 H 132.072 1.45953 0.183349 0
M  V30 1344 H 134.03 3.02411 2.87408 0
M  V30 1345 H 132.66 1.91693 2.59718 0
M  V30 1346 H 131.712 3.68483 0.94469 0
M  V30 1347 H 133.024 4.77258 1.45005 0
M  V30 1348 H 132.178 4.72528 3.80529 0
M  V30 1349 H 130.917 3.5452 3.34913 0
M  V30 1350 H 129.922 5.21024 1.75539 0
M  V30 1351 H 131.147 6.41133 2.23887 0
M  V30 1352 H 129.093 5.13385 4.08378 0
M  V30 1353 H 129.01 6.73694 3.43034 0
M  V30 1354 H 130.278 6.33072 4.54797 0
M  V30 1355 N 134.507 -0.190092 1.56449 0
M  V30 1356 C 135.732 -0.929864 1.85387 0
M  V30 1357 C 136.157 -1.7585 0.667704 0
M  V30 1358 O 135.515 -1.77198 -0.383459 0
M  V30 1359 C 135.563 -1.79773 3.12593 0
M  V30 1360 O 134.667 -2.89713 2.93496 0
M  V30 1361 H 134.008 -0.261574 0.610307 0
M  V30 1362 H 136.538 -0.193896 2.03679 0
M  V30 1363 H 136.548 -2.20139 3.43515 0
M  V30 1364 H 135.223 -1.18892 3.98544 0
M  V30 1365 H 133.8 -2.53065 2.73884 0
M  V30 1366 N 135.985 -1.50799 -0.457987 0
M  V30 1367 C 136.917 -1.66786 -1.57211 0
M  V30 1368 C 137.93 -0.548962 -1.53265 0
M  V30 1369 O 139.119 -0.8226 -1.58416 0
M  V30 1370 C 136.219 -1.64834 -2.96113 0
M  V30 1371 C 135.392 -2.92971 -3.24787 0
M  V30 1372 C 134.451 -2.83485 -4.43309 0
M  V30 1373 O 133.477 -3.5744 -4.42973 0
M  V30 1374 N 134.679 -1.97929 -5.45714 0
M  V30 1375 H 137.444 -2.62889 -1.43909 0
M  V30 1376 H 135.005 -1.48427 -0.646617 0
M  V30 1377 H 136.997 -1.56084 -3.7339 0
M  V30 1378 H 135.567 -0.764118 -3.03117 0
M  V30 1379 H 134.787 -3.15749 -2.36 0
M  V30 1380 H 136.075 -3.77834 -3.40762 0
M  V30 1381 H 135.473 -1.37182 -5.48815 0
M  V30 1382 H 134.03 -1.95073 -6.21924 0
M  V30 1383 N 137.463 0.71206 -1.40597 0
M  V30 1384 C 138.711 1.46907 -1.38791 0
M  V30 1385 C 139.032 1.94998 0.00780391 0
M  V30 1386 O 138.302 1.70587 0.963174 0
M  V30 1387 H 136.882 0.545043 -0.51082 0
M  V30 1388 H 139.544 0.843882 -1.75683 0
M  V30 1389 H 138.64 2.34021 -2.06496 0
M  V30 1390 N 138.941 1.26152 0.944643 0
M  V30 1391 C 140.189 1.11271 1.6871 0
M  V30 1392 C 140.51 -0.345166 1.91921 0
M  V30 1393 O 139.78 -1.24387 1.51343 0
M  V30 1394 H 138.36 0.408783 0.625224 0
M  V30 1395 H 141.022 1.58427 1.1352 0
M  V30 1396 H 140.118 1.62879 2.66227 0
M  V30 1397 N 140.419 -1.14872 1.07899 0
M  V30 1398 C 141.329 -2.2341 0.715915 0
M  V30 1399 C 142.345 -1.71808 -0.275306 0
M  V30 1400 O 143.521 -2.01039 -0.120545 0
M  V30 1401 C 140.586 -3.46474 0.125168 0
M  V30 1402 C 139.647 -4.13039 1.17034 0
M  V30 1403 C 138.88 -5.30229 0.607688 0
M  V30 1404 O 139.103 -5.675 -0.574497 0
M  V30 1405 O 138.037 -5.86444 1.35526 0
M  V30 1406 H 141.863 -2.56808 1.62121 0
M  V30 1407 H 139.448 -1.22702 0.852322 0
M  V30 1408 H 141.33 -4.20917 -0.201729 0
M  V30 1409 H 140.005 -3.14811 -0.753364 0
M  V30 1410 H 138.912 -3.40493 1.54968 0
M  V30 1411 H 140.245 -4.48796 2.02097 0
M  V30 1412 N 141.898 -0.863906 -1.31812 0
M  V30 1413 C 143.309 -0.52522 -1.7916 0
M  V30 1414 C 143.66 0.957518 -1.71248 0
M  V30 1415 O 142.785 1.74734 -1.27659 0
M  V30 1416 C 143.38 -0.9466 -3.25307 0
M  V30 1417 C 141.939 -0.659668 -3.70574 0
M  V30 1418 C 141.086 -1.14126 -2.52726 0
M  V30 1419 H 144.037 -1.05022 -1.1898 0
M  V30 1420 H 144.058 -0.266766 -3.79564 0
M  V30 1421 H 143.57 -2.02579 -3.31034 0
M  V30 1422 H 141.671 0.408416 -3.70355 0
M  V30 1423 H 141.784 -1.23245 -4.62977 0
M  V30 1424 H 140.148 -0.561216 -2.4844 0
M  V30 1425 H 140.931 -2.22775 -2.61201 0
M  V30 1426 N 143.376 1.44774 -0.622745 0
M  V30 1427 C 144.604 2.06487 -0.130722 0
M  V30 1428 C 145.019 1.46476 1.19123 0
M  V30 1429 O 144.376 0.584502 1.72887 0
M  V30 1430 C 144.427 3.615 -0.000807207 0
M  V30 1431 O 144.148 4.19274 -1.27048 0
M  V30 1432 C 145.649 4.40229 0.520898 0
M  V30 1433 H 142.869 0.666704 -0.0758106 0
M  V30 1434 H 145.413 1.85779 -0.854774 0
M  V30 1435 H 143.568 3.81498 0.673643 0
M  V30 1436 H 143.982 5.12622 -1.1099 0
M  V30 1437 H 145.456 5.49144 0.560838 0
M  V30 1438 H 145.933 4.1108 1.54627 0
M  V30 1439 H 146.539 4.25131 -0.120018 0
M  V30 1440 N 144.854 0.36279 1.53368 0
M  V30 1441 C 146.084 -0.228281 2.05335 0
M  V30 1442 C 146.492 -1.43226 1.23625 0
M  V30 1443 O 145.835 -1.81717 0.269206 0
M  V30 1444 C 145.897 -0.688549 3.52845 0
M  V30 1445 C 145.561 0.398362 4.5526 0
M  V30 1446 C 146.558 1.24732 5.04716 0
M  V30 1447 C 144.243 0.557805 4.99193 0
M  V30 1448 C 146.237 2.2411 5.96702 0
M  V30 1449 C 143.924 1.55495 5.90986 0
M  V30 1450 C 144.922 2.39503 6.39631 0
M  V30 1451 O 144.61 3.37517 7.29615 0
M  V30 1452 H 144.342 -0.044395 0.674541 0
M  V30 1453 H 146.896 0.518668 1.98744 0
M  V30 1454 H 145.126 -1.48706 3.56964 0
M  V30 1455 H 146.815 -1.20231 3.87685 0
M  V30 1456 H 147.581 1.13532 4.71525 0
M  V30 1457 H 143.46 -0.0862959 4.60919 0
M  V30 1458 H 147.004 2.89718 6.34594 0
M  V30 1459 H 142.901 1.66744 6.23592 0
M  V30 1460 H 143.669 3.33213 7.47604 0
M  V30 1461 N 146.332 -1.57332 0.0918853 0
M  V30 1462 C 147.28 -2.15075 -0.885747 0
M  V30 1463 C 148.274 -1.09277 -1.29441 0
M  V30 1464 O 149.48 -1.27627 -1.26931 0
M  V30 1465 H 145.855 -0.687966 -0.303656 0
M  V30 1466 H 147.826 -2.96047 -0.373995 0
M  V30 1467 C 146.575 -2.74325 -2.13638 0
M  V30 1468 H 145.898 -3.55418 -1.8308 0
M  V30 1469 H 147.338 -3.183 -2.80109 0
M  V30 1470 C 145.797 -1.70062 -2.90827 0
M  V30 1471 O 146.327 -1.13763 -3.85254 0
M  V30 1472 N 144.533 -1.40628 -2.54307 0
M  V30 1473 H 144.08 -1.866 -1.7759 0
M  V30 1474 H 144.038 -0.711043 -3.06254 0
M  V30 1475 N 147.81 0.181792 -1.56548 0
M  V30 1476 C 149.056 0.901431 -1.81665 0
M  V30 1477 C 149.389 1.82347 -0.668075 0
M  V30 1478 O 148.664 1.91669 0.330615 0
M  V30 1479 C 148.947 1.70618 -3.17115 0
M  V30 1480 C 148.8 0.807964 -4.42484 0
M  V30 1481 C 150.119 2.67605 -3.49393 0
M  V30 1482 H 147.238 0.32627 -0.660846 0
M  V30 1483 H 149.88 0.168134 -1.89255 0
M  V30 1484 H 148.03 2.33133 -3.10775 0
M  V30 1485 H 149.702 0.19649 -4.60881 0
M  V30 1486 H 147.945 0.115411 -4.33646 0
M  V30 1487 H 148.616 1.40632 -5.33785 0
M  V30 1488 H 151.092 2.15218 -3.56118 0
M  V30 1489 H 149.968 3.20985 -4.45264 0
M  V30 1490 H 150.229 3.47298 -2.73563 0
M  V30 1491 N 149.288 1.51039 0.449983 0
M  V30 1492 C 150.251 1.70863 1.5277 0
M  V30 1493 C 151.251 0.578846 1.5002 0
M  V30 1494 O 152.441 0.846213 1.52266 0
M  V30 1495 C 149.573 1.75341 2.9235 0
M  V30 1496 H 150.766 2.67034 1.36502 0
M  V30 1497 H 148.319 1.40838 0.677812 0
M  V30 1498 H 149.054 0.809383 3.14037 0
M  V30 1499 H 148.839 2.57436 2.95752 0
M  V30 1500 H 150.329 1.92559 3.70555 0
M  V30 1501 N 150.766 -0.704594 1.40972 0
M  V30 1502 C 152.012 -1.46675 1.40051 0
M  V30 1503 C 152.345 -1.94199 0.00641102 0
M  V30 1504 O 151.62 -1.68916 -0.964235 0
M  V30 1505 C 151.903 -2.68505 2.39952 0
M  V30 1506 C 151.756 -2.26805 3.88432 0
M  V30 1507 C 153.075 -3.70686 2.37233 0
M  V30 1508 H 150.194 -0.532015 0.510028 0
M  V30 1509 H 152.836 -0.803255 1.72185 0
M  V30 1510 H 150.986 -3.25114 2.1268 0
M  V30 1511 H 152.658 -1.75592 4.26574 0
M  V30 1512 H 150.901 -1.58685 4.03734 0
M  V30 1513 H 151.572 -3.14181 4.53866 0
M  V30 1514 H 154.048 -3.23731 2.61415 0
M  V30 1515 H 152.924 -4.53553 3.09162 0
M  V30 1516 H 153.185 -4.19754 1.38777 0
M  V30 1517 N 152.244 -1.26651 -0.937939 0
M  V30 1518 C 153.492 -1.12165 -1.68118 0
M  V30 1519 C 153.813 0.334983 -1.92101 0
M  V30 1520 O 153.083 1.23583 -1.52 0
M  V30 1521 H 151.663 -0.412093 -0.623048 0
M  V30 1522 H 154.325 -1.59027 -1.12678 0
M  V30 1523 H 153.421 -1.64289 -2.6536 0
M  V30 1524 N 153.722 1.14298 -1.08507 0
M  V30 1525 C 155.138 1.37347 -0.812901 0
M  V30 1526 C 155.338 1.93052 0.577325 0
M  V30 1527 O 154.394 2.14389 1.33393 0
M  V30 1528 C 155.707 2.33359 -1.89642 0
M  V30 1529 C 157.255 2.46996 -1.92255 0
M  V30 1530 C 157.73 3.46309 -2.99724 0
M  V30 1531 N 159.221 3.53853 -2.98902 0
M  V30 1532 C 159.956 4.3055 -3.787 0
M  V30 1533 N 159.452 5.10482 -4.6838 0
M  V30 1534 N 161.245 4.25757 -3.66998 0
M  V30 1535 H 153.396 0.764867 -1.9815 0
M  V30 1536 H 155.659 0.398966 -0.859959 0
M  V30 1537 H 155.365 1.99565 -2.89597 0
M  V30 1538 H 155.239 3.33274 -1.76659 0
M  V30 1539 H 157.626 2.80081 -0.929445 0
M  V30 1540 H 157.707 1.47039 -2.09316 0
M  V30 1541 H 157.351 3.13957 -3.99241 0
M  V30 1542 H 157.281 4.46049 -2.79907 0
M  V30 1543 H 159.772 2.96812 -2.33904 0
M  V30 1544 H 160.085 5.66284 -5.25873 0
M  V30 1545 H 158.43 5.09747 -4.72422 0
M  V30 1546 H 161.621 3.62383 -2.96304 0
M  V30 1547 H 161.794 4.85279 -4.29427 0
M  V30 1548 N 155.201 0.870884 1.31352 0
M  V30 1549 C 156.164 0.332243 2.26779 0
M  V30 1550 C 157.164 -0.517302 1.52252 0
M  V30 1551 O 158.354 -0.326477 1.71113 0
M  V30 1552 C 155.486 -0.528066 3.36785 0
M  V30 1553 H 156.679 1.17469 2.75937 0
M  V30 1554 H 154.232 0.64655 1.423 0
M  V30 1555 H 154.967 -1.39167 2.92922 0
M  V30 1556 H 154.752 0.0802582 3.92018 0
M  V30 1557 H 156.242 -0.897179 4.07849 0
M  V30 1558 N 156.679 -1.44442 0.630414 0
M  V30 1559 C 157.927 -2.01653 0.134351 0
M  V30 1560 C 158.248 -1.49836 -1.24796 0
M  V30 1561 O 157.518 -0.701684 -1.82902 0
M  V30 1562 H 156.098 -0.74554 0.0466769 0
M  V30 1563 H 158.76 -1.76952 0.816955 0
M  V30 1564 H 157.856 -3.11935 0.101498 0
M  V30 1565 N 158.157 -0.370918 -1.53173 0
M  V30 1566 C 159.573 -0.0200818 -1.59587 0
M  V30 1567 C 159.773 1.46279 -1.38581 0
M  V30 1568 O 158.829 2.22506 -1.19363 0
M  V30 1569 C 160.142 -0.4808 -2.96831 0
M  V30 1570 C 161.69 -0.435477 -3.09956 0
M  V30 1571 C 162.165 -0.872092 -4.4962 0
M  V30 1572 N 163.656 -0.827364 -4.55751 0
M  V30 1573 C 164.391 -1.13683 -5.62018 0
M  V30 1574 N 163.887 -1.51584 -6.76014 0
M  V30 1575 N 165.68 -1.05927 -5.52029 0
M  V30 1576 H 157.831 -1.33652 -1.65079 0
M  V30 1577 H 160.094 -0.546634 -0.774529 0
M  V30 1578 H 159.8 -1.51577 -3.1736 0
M  V30 1579 H 159.674 0.129796 -3.76977 0
M  V30 1580 H 162.061 0.590371 -2.89134 0
M  V30 1581 H 162.142 -1.08164 -2.31806 0
M  V30 1582 H 161.786 -1.89608 -4.71181 0
M  V30 1583 H 161.716 -0.203127 -5.26208 0
M  V30 1584 H 164.207 -0.548216 -3.73902 0
M  V30 1585 H 164.52 -1.73609 -7.53047 0
M  V30 1586 H 162.865 -1.55454 -6.77391 0
M  V30 1587 H 166.056 -0.762321 -4.61851 0
M  V30 1588 H 166.229 -1.30378 -6.34749 0
M  V30 1589 N 159.635 1.57281 -0.100228 0
M  V30 1590 C 160.881 1.94826 0.563101 0
M  V30 1591 C 161.214 0.982475 1.67514 0
M  V30 1592 O 160.489 0.0164069 1.94493 0
M  V30 1593 C 160.772 3.42453 1.11346 0
M  V30 1594 C 160.625 4.498 0.00612081 0
M  V30 1595 C 161.944 3.91506 2.01024 0
M  V30 1596 H 159.063 0.708428 0.203221 0
M  V30 1597 H 161.705 1.8922 -0.171979 0
M  V30 1598 H 159.855 3.47361 1.7399 0
M  V30 1599 H 161.527 4.57 -0.628357 0
M  V30 1600 H 159.77 4.28756 -0.659581 0
M  V30 1601 H 160.441 5.50306 0.432109 0
M  V30 1602 H 162.917 3.88784 1.48278 0
M  V30 1603 H 161.793 4.95358 2.36457 0
M  V30 1604 H 162.054 3.31099 2.92961 0
M  V30 1605 N 161.113 -0.173488 1.56642 0
M  V30 1606 C 162.043 -1.2171 1.99271 0
M  V30 1607 C 163.024 -1.46289 0.867959 0
M  V30 1608 O 164.209 -1.5766 1.13388 0
M  V30 1609 C 161.339 -2.55651 2.35074 0
M  V30 1610 C 160.293 -2.45645 3.50489 0
M  V30 1611 C 159.619 -3.84056 3.72028 0
M  V30 1612 C 160.919 -1.96302 4.84007 0
M  V30 1613 H 162.613 -0.86275 2.867 0
M  V30 1614 H 160.159 -0.413571 1.37933 0
M  V30 1615 H 162.112 -3.2886 2.63494 0
M  V30 1616 H 160.836 -2.92869 1.44552 0
M  V30 1617 H 159.495 -1.7489 3.22194 0
M  V30 1618 H 159.143 -4.18664 2.788 0
M  V30 1619 H 158.843 -3.7823 4.49684 0
M  V30 1620 H 160.367 -4.58854 4.02846 0
M  V30 1621 H 161.781 -2.59284 5.11317 0
M  V30 1622 H 160.178 -2.01429 5.65284 0
M  V30 1623 H 161.248 -0.917226 4.76146 0
M  V30 1624 N 162.591 -1.51276 -0.441967 0
M  V30 1625 C 163.837 -1.63958 -1.19355 0
M  V30 1626 C 164.17 -0.352543 -1.90973 0
M  V30 1627 O 163.445 0.647627 -1.83401 0
M  V30 1628 C 163.728 -2.83979 -2.21422 0
M  V30 1629 C 163.581 -4.22646 -1.53918 0
M  V30 1630 C 164.9 -2.99521 -3.22451 0
M  V30 1631 H 162.019 -0.596709 -0.432559 0
M  V30 1632 H 164.661 -1.83748 -0.483398 0
M  V30 1633 H 162.811 -2.67237 -2.81987 0
M  V30 1634 H 164.483 -4.51045 -0.967256 0
M  V30 1635 H 162.726 -4.25558 -0.841615 0
M  V30 1636 H 163.397 -5.02609 -2.28229 0
M  V30 1637 H 165.873 -3.14944 -2.71937 0
M  V30 1638 H 164.749 -3.85072 -3.91166 0
M  V30 1639 H 165.01 -2.11391 -3.88287 0
M  V30 1640 N 164.069 0.697108 -1.41344 0
M  V30 1641 C 165.316 1.45714 -1.40619 0
M  V30 1642 C 165.644 1.94494 -0.0147907 0
M  V30 1643 O 164.899 1.69794 0.973066 0
M  V30 1644 C 165.198 2.68553 -2.35826 0
M  V30 1645 C 164.864 2.38438 -3.82698 0
M  V30 1646 C 163.526 2.29936 -4.22709 0
M  V30 1647 C 165.878 2.13567 -4.75435 0
M  V30 1648 C 163.206 1.94656 -5.53467 0
M  V30 1649 C 165.558 1.79797 -6.06511 0
M  V30 1650 C 164.222 1.69789 -6.45545 0
M  V30 1651 H 163.492 0.533206 -0.51456 0
M  V30 1652 H 166.139 0.796901 -1.74131 0
M  V30 1653 H 164.444 3.39503 -1.95563 0
M  V30 1654 H 166.141 3.2669 -2.32539 0
M  V30 1655 H 162.731 2.4595 -3.51008 0
M  V30 1656 H 166.915 2.19082 -4.45328 0
M  V30 1657 H 162.171 1.8546 -5.82593 0
M  V30 1658 H 166.345 1.59572 -6.77872 0
M  V30 1659 H 163.972 1.4222 -7.46778 0
M  V30 1660 N 165.547 1.27147 0.931209 0
M  V30 1661 C 166.793 1.13446 1.68101 0
M  V30 1662 C 167.126 -0.319628 1.91552 0
M  V30 1663 O 166.401 -1.23407 1.50336 0
M  V30 1664 C 166.684 1.91482 3.0497 0
M  V30 1665 C 166.537 3.44855 2.88782 0
M  V30 1666 C 167.856 1.71651 4.05246 0
M  V30 1667 H 164.975 0.413498 0.610072 0
M  V30 1668 H 167.617 1.56261 1.08086 0
M  V30 1669 H 165.767 1.55095 3.56199 0
M  V30 1670 H 167.439 3.9105 2.44698 0
M  V30 1671 H 165.682 3.71373 2.24198 0
M  V30 1672 H 166.353 3.94694 3.85902 0
M  V30 1673 H 168.829 2.0337 3.63015 0
M  V30 1674 H 167.705 2.28651 4.99009 0
M  V30 1675 H 167.966 0.663555 4.37092 0
M  V30 1676 N 167.025 -1.13721 1.09112 0
M  V30 1677 C 167.958 -2.18094 0.67158 0
M  V30 1678 C 168.936 -1.59414 -0.320299 0
M  V30 1679 O 170.12 -1.87183 -0.222444 0
M  V30 1680 C 167.247 -3.38698 -0.0111189 0
M  V30 1681 C 166.293 -4.15966 0.942055 0
M  V30 1682 S 167.126 -4.7604 2.45246 0
M  V30 1683 C 168.282 -5.99994 1.78208 0
M  V30 1684 H 168.515 -2.53344 1.55577 0
M  V30 1685 H 166.048 -1.24967 0.906789 0
M  V30 1686 H 168.006 -4.08559 -0.398716 0
M  V30 1687 H 166.667 -3.01756 -0.871905 0
M  V30 1688 H 165.86 -5.02318 0.411396 0
M  V30 1689 H 165.462 -3.51745 1.2709 0
M  V30 1690 H 167.754 -6.68441 1.10424 0
M  V30 1691 H 168.697 -6.57662 2.62463 0
M  V30 1692 H 169.105 -5.50432 1.25238 0
M  V30 1693 N 168.503 -0.877838 -1.30888 0
M  V30 1694 C 169.751 -0.491723 -1.96027 0
M  V30 1695 C 170.072 0.960827 -1.69685 0
M  V30 1696 O 169.342 1.67462 -1.01654 0
M  V30 1697 H 167.922 -0.17885 -0.725273 0
M  V30 1698 H 170.584 -1.11935 -1.59551 0
M  V30 1699 H 169.68 -0.656016 -3.05128 0
M  V30 1700 N 169.982 1.44106 -0.638065 0
M  V30 1701 C 170.929 2.30715 0.062701 0
M  V30 1702 C 171.899 1.43882 0.829883 0
M  V30 1703 O 173.084 1.72775 0.809532 0
M  V30 1704 C 170.224 3.29258 1.03358 0
M  V30 1705 C 169.337 4.31192 0.26409 0
M  V30 1706 C 168.472 5.16825 1.22741 0
M  V30 1707 C 167.511 6.10462 0.447475 0
M  V30 1708 N 166.648 6.8877 1.36161 0
M  V30 1709 H 171.488 2.90096 -0.681781 0
M  V30 1710 H 169.025 1.42925 -0.347988 0
M  V30 1711 H 170.983 3.84886 1.60992 0
M  V30 1712 H 169.613 2.71562 1.74511 0
M  V30 1713 H 168.665 3.77981 -0.428295 0
M  V30 1714 H 169.977 4.97619 -0.343052 0
M  V30 1715 H 169.131 5.77004 1.87487 0
M  V30 1716 H 167.87 4.50488 1.86847 0
M  V30 1717 H 166.875 5.49386 -0.213433 0
M  V30 1718 H 168.1 6.78837 -0.188968 0
M  V30 1719 H 166.046 6.25096 1.98975 0
M  V30 1720 H 165.963 7.51663 0.808656 0
M  V30 1721 H 167.231 7.53467 1.99769 0
M  V30 1722 N 171.46 0.379036 1.52974 0
M  V30 1723 C 172.37 -0.468639 2.29872 0
M  V30 1724 C 173.386 -1.08067 1.36373 0
M  V30 1725 O 174.562 -1.08871 1.69438 0
M  V30 1726 C 171.627 -1.58594 3.083 0
M  V30 1727 C 170.688 -1.00007 4.17489 0
M  V30 1728 C 169.921 -2.06413 4.92168 0
M  V30 1729 O 170.144 -3.27751 4.66835 0
M  V30 1730 O 169.078 -1.68717 5.7777 0
M  V30 1731 H 172.904 0.157508 3.03291 0
M  V30 1732 H 170.489 0.143035 1.48714 0
M  V30 1733 H 172.371 -2.23525 3.57232 0
M  V30 1734 H 171.046 -2.19724 2.37703 0
M  V30 1735 H 169.953 -0.314299 3.72777 0
M  V30 1736 H 171.286 -0.433135 4.90291 0
M  V30 1737 N 172.938 -1.57226 0.108567 0
M  V30 1738 C 174.186 -1.94448 -0.550853 0
M  V30 1739 C 174.507 -0.992074 -1.67878 0
M  V30 1740 O 173.777 -0.0465 -1.95845 0
M  V30 1741 H 172.357 -0.717897 -0.206479 0
M  V30 1742 H 175.019 -1.94112 0.175062 0
M  V30 1743 H 174.115 -2.97218 -0.952259 0
M  V30 1744 N 174.416 0.165178 -1.56732 0
M  V30 1745 C 175.662 0.882112 -1.82611 0
M  V30 1746 C 175.995 1.81628 -0.687378 0
M  V30 1747 O 175.27 1.92009 0.310267 0
M  V30 1748 C 175.553 1.67245 -3.18906 0
M  V30 1749 C 175.406 0.760987 -4.43316 0
M  V30 1750 C 176.725 2.63884 -3.52212 0
M  V30 1751 H 173.844 0.319242 -0.664269 0
M  V30 1752 H 176.486 0.148052 -1.89422 0
M  V30 1753 H 174.636 2.29824 -3.1323 0
M  V30 1754 H 176.308 0.147596 -4.61064 0
M  V30 1755 H 174.551 0.0694102 -4.33744 0
M  V30 1756 H 175.222 1.34962 -5.35247 0
M  V30 1757 H 177.698 2.11429 -3.58381 0
M  V30 1758 H 176.574 3.16245 -4.48643 0
M  V30 1759 H 176.835 3.44377 -2.77231 0
M  V30 1760 N 175.894 1.51508 0.433938 0
M  V30 1761 C 176.844 1.69451 1.52546 0
M  V30 1762 C 177.828 0.548474 1.51263 0
M  V30 1763 O 179.02 0.804529 1.57659 0
M  V30 1764 C 176.149 1.82604 2.90707 0
M  V30 1765 C 175.235 3.03002 2.96733 0
M  V30 1766 N 175.626 4.26121 2.72496 0
M  V30 1767 C 173.924 3.02327 3.27894 0
M  V30 1768 C 174.625 5.07407 2.84452 0
M  V30 1769 N 173.601 4.42126 3.16269 0
M  V30 1770 H 177.403 2.62305 1.32564 0
M  V30 1771 H 174.917 1.49202 0.641297 0
M  V30 1772 H 176.914 1.93569 3.69238 0
M  V30 1773 H 175.574 0.909339 3.11707 0
M  V30 1774 H 176.585 4.55009 2.4736 0
M  V30 1775 H 173.262 2.20301 3.54646 0
M  V30 1776 H 174.652 6.15422 2.69639 0
M  V30 1777 N 177.372 -0.689602 1.41712 0
M  V30 1778 C 178.62 -1.4468 1.4111 0
M  V30 1779 C 178.941 -1.94986 0.0232196 0
M  V30 1780 O 178.211 -1.72097 -0.935913 0
M  V30 1781 H 176.791 -0.536847 0.519427 0
M  V30 1782 H 179.453 -0.815825 1.77004 0
M  V30 1783 H 178.549 -2.30706 2.10193 0
M  V30 1784 N 178.85 -1.27639 -0.924453 0
M  V30 1785 C 180.098 -1.13941 -1.66918 0
M  V30 1786 C 180.419 0.314589 -1.92446 0
M  V30 1787 O 179.689 1.21964 -1.53303 0
M  V30 1788 H 178.269 -0.418678 -0.618642 0
M  V30 1789 H 180.931 -1.60213 -1.10985 0
M  V30 1790 H 180.027 -1.67094 -2.63602 0
M  V30 1791 N 180.328 1.1314 -1.09713 0
M  V30 1792 C 181.576 1.84119 -0.833338 0
M  V30 1793 C 181.897 1.84097 0.642904 0
M  V30 1794 O 181.167 1.29881 1.46655 0
M  V30 1795 H 179.747 0.681766 -0.305293 0
M  V30 1796 H 182.409 1.37038 -1.38588 0
M  V30 1797 H 181.505 2.88543 -1.18951 0
M  V30 1798 N 181.806 0.884767 1.30421 0
M  V30 1799 C 182.736 0.367574 2.30589 0
M  V30 1800 C 183.717 -0.549464 1.60981 0
M  V30 1801 O 184.902 -0.46336 1.88591 0
M  V30 1802 C 182.032 -0.418944 3.44764 0
M  V30 1803 C 180.986 0.406316 4.26067 0
M  V30 1804 C 180.312 -0.506793 5.32293 0
M  V30 1805 C 181.612 1.64832 4.95608 0
M  V30 1806 H 183.306 1.20462 2.74097 0
M  V30 1807 H 180.852 0.580695 1.31772 0
M  V30 1808 H 182.805 -0.791395 4.13902 0
M  V30 1809 H 181.529 -1.28964 3.0006 0
M  V30 1810 H 180.188 0.760903 3.58617 0
M  V30 1811 H 179.836 -1.37519 4.83836 0
M  V30 1812 H 179.536 0.0415828 5.87585 0
M  V30 1813 H 181.06 -0.875764 6.04287 0
M  V30 1814 H 182.474 1.34646 5.57264 0
M  V30 1815 H 180.871 2.13688 5.60765 0
M  V30 1816 H 181.941 2.39284 4.21748 0
M  V30 1817 N 183.284 -1.43765 0.645699 0
M  V30 1818 C 184.232 -2.32516 -0.0624849 0
M  V30 1819 C 185.226 -1.48183 -0.820855 0
M  V30 1820 O 186.432 -1.64439 -0.732106 0
M  V30 1821 H 182.807 -0.750989 -0.0389864 0
M  V30 1822 H 184.778 -2.89979 0.703892 0
M  V30 1823 C 183.527 -3.32389 -1.02044 0
M  V30 1824 H 182.85 -3.97301 -0.446312 0
M  V30 1825 H 184.29 -3.97138 -1.48517 0
M  V30 1826 C 182.749 -2.62416 -2.11281 0
M  V30 1827 O 183.279 -2.434 -3.19561 0
M  V30 1828 N 181.485 -2.21913 -1.87624 0
M  V30 1829 H 181.032 -2.37578 -0.995703 0
M  V30 1830 H 180.99 -1.75424 -2.6091 0
M  V30 1831 N 184.763 -0.387143 -1.52771 0
M  V30 1832 C 185.71 0.449048 -2.26389 0
M  V30 1833 C 186.68 1.05961 -1.27912 0
M  V30 1834 O 187.865 1.08804 -1.56737 0
M  V30 1835 C 185.005 1.57155 -3.0724 0
M  V30 1836 C 184.118 0.984066 -4.20643 0
M  V30 1837 C 183.253 2.07745 -4.88892 0
M  V30 1838 C 182.292 1.46574 -5.94292 0
M  V30 1839 N 181.429 2.49834 -6.56146 0
M  V30 1840 H 186.269 -0.185205 -2.97424 0
M  V30 1841 H 183.806 -0.103164 -1.46738 0
M  V30 1842 H 185.764 2.23309 -3.52405 0
M  V30 1843 H 184.394 2.17615 -2.38419 0
M  V30 1844 H 183.446 0.212193 -3.79808 0
M  V30 1845 H 184.758 0.497029 -4.96318 0
M  V30 1846 H 183.912 2.81673 -5.3735 0
M  V30 1847 H 182.651 2.59807 -4.12737 0
M  V30 1848 H 181.656 0.711696 -5.45174 0
M  V30 1849 H 182.881 0.953088 -6.72379 0
M  V30 1850 H 180.827 3.0107 -5.82832 0
M  V30 1851 H 180.744 2.05879 -7.27427 0
M  V30 1852 H 182.012 3.23399 -7.09249 0
M  V30 1853 N 186.241 1.57166 -0.116904 0
M  V30 1854 C 187.188 2.15202 0.83408 0
M  V30 1855 C 188.158 1.07644 1.26499 0
M  V30 1856 O 189.343 1.35541 1.34288 0
M  V30 1857 C 186.483 2.75405 2.07957 0
M  V30 1858 C 185.596 3.97264 1.69721 0
M  V30 1859 C 184.731 4.45561 2.89221 0
M  V30 1860 C 183.77 5.59956 2.47215 0
M  V30 1861 N 182.907 6.03006 3.59622 0
M  V30 1862 H 187.747 2.96141 0.332335 0
M  V30 1863 H 185.284 1.46309 0.152349 0
M  V30 1864 H 187.242 3.08439 2.80929 0
M  V30 1865 H 185.872 1.97159 2.55594 0
M  V30 1866 H 184.924 3.70404 0.866316 0
M  V30 1867 H 186.236 4.80226 1.34849 0
M  V30 1868 H 185.39 4.80493 3.7042 0
M  V30 1869 H 184.129 3.61544 3.27318 0
M  V30 1870 H 183.134 5.2463 1.64448 0
M  V30 1871 H 184.359 6.45738 2.10238 0
M  V30 1872 H 182.305 5.21931 3.97396 0
M  V30 1873 H 182.222 6.80819 3.28667 0
M  V30 1874 H 183.49 6.42576 4.41267 0
M  V30 1875 N 187.719 -0.156864 1.56817 0
M  V30 1876 C 188.682 -1.17781 1.96622 0
M  V30 1877 C 189.682 -1.36401 0.851555 0
M  V30 1878 O 190.872 -1.33561 1.11836 0
M  V30 1879 C 188.004 -2.54008 2.27361 0
M  V30 1880 H 189.197 -0.836564 2.87996 0
M  V30 1881 H 186.75 -0.39985 1.51099 0
M  V30 1882 H 187.485 -2.9312 1.38748 0
M  V30 1883 H 187.27 -2.41856 3.08623 0
M  V30 1884 H 188.76 -3.27558 2.59029 0
M  V30 1885 N 189.197 -1.51736 -0.425897 0
M  V30 1886 C 190.427 -1.68549 -1.19476 0
M  V30 1887 C 190.835 -0.387288 -1.85194 0
M  V30 1888 O 190.178 0.645142 -1.71999 0
M  V30 1889 C 190.24 -2.75275 -2.31223 0
M  V30 1890 C 189.904 -4.17534 -1.8578 0
M  V30 1891 C 190.901 -5.01936 -1.35485 0
M  V30 1892 C 188.586 -4.6369 -1.93123 0
M  V30 1893 C 190.58 -6.30559 -0.931347 0
M  V30 1894 C 188.267 -5.92307 -1.50384 0
M  V30 1895 C 189.265 -6.75569 -1.00473 0
M  V30 1896 O 188.953 -8.0178 -0.583452 0
M  V30 1897 H 188.685 -0.568525 -0.365725 0
M  V30 1898 H 191.239 -1.98982 -0.509444 0
M  V30 1899 H 189.469 -2.40182 -3.03067 0
M  V30 1900 H 191.158 -2.80853 -2.93047 0
M  V30 1901 H 191.924 -4.67475 -1.29197 0
M  V30 1902 H 187.803 -3.98997 -2.30916 0
M  V30 1903 H 191.347 -6.95498 -0.541084 0
M  V30 1904 H 187.244 -6.2628 -1.56346 0
M  V30 1905 H 188.012 -8.1543 -0.708275 0
M  V30 1906 N 190.675 0.682077 -1.42076 0
M  V30 1907 C 191.9 1.47558 -1.45744 0
M  V30 1908 C 192.325 1.87977 -0.0680981 0
M  V30 1909 O 191.683 1.55522 0.9318 0
M  V30 1910 C 191.731 2.70575 -2.38373 0
M  V30 1911 O 190.835 3.68573 -1.85007 0
M  V30 1912 H 190.176 0.443585 -0.494093 0
M  V30 1913 H 192.706 0.837238 -1.86686 0
M  V30 1914 H 192.716 3.18729 -2.54707 0
M  V30 1915 H 191.391 2.40495 -3.39315 0
M  V30 1916 H 189.968 3.2757 -1.78192 0
M  V30 1917 N 192.153 1.28127 0.917671 0
M  V30 1918 C 193.086 1.06039 2.02067 0
M  V30 1919 C 194.064 -0.0223285 1.62585 0
M  V30 1920 O 195.248 0.124823 1.88086 0
M  V30 1921 C 192.375 0.610596 3.33151 0
M  V30 1922 C 191.421 1.68937 3.91615 0
M  V30 1923 S 192.254 3.28437 4.22953 0
M  V30 1924 C 193.41 2.85283 5.57103 0
M  V30 1925 H 193.643 1.99425 2.20493 0
M  V30 1926 H 191.176 1.12071 1.06205 0
M  V30 1927 H 193.134 0.357778 4.08938 0
M  V30 1928 H 191.795 -0.303364 3.12632 0
M  V30 1929 H 190.988 1.32619 4.86239 0
M  V30 1930 H 190.59 1.89478 3.2245 0
M  V30 1931 H 192.882 2.3121 6.36827 0
M  V30 1932 H 193.825 3.7869 5.98331 0
M  V30 1933 H 194.233 2.24118 5.18104 0
M  V30 1934 N 193.631 -1.12557 1.10312 0
M  V30 1935 C 194.594 -2.16434 0.75424 0
M  V30 1936 C 195.594 -1.59278 -0.220685 0
M  V30 1937 O 196.784 -1.742 0.00230591 0
M  V30 1938 C 193.916 -3.40699 0.116987 0
M  V30 1939 H 195.109 -2.48811 1.67431 0
M  V30 1940 H 192.662 -1.27542 0.903475 0
M  V30 1941 H 193.397 -3.13921 -0.813877 0
M  V30 1942 H 193.182 -3.83459 0.818613 0
M  V30 1943 H 194.672 -4.17451 -0.111387 0
M  V30 1944 N 195.109 -0.891671 -1.2995 0
M  V30 1945 C 196.056 -0.361736 -2.27948 0
M  V30 1946 C 197.026 0.551761 -1.56668 0
M  V30 1947 O 198.211 0.478736 -1.84696 0
M  V30 1948 C 195.351 0.411825 -3.42634 0
M  V30 1949 C 194.464 -0.531651 -4.28716 0
M  V30 1950 C 193.599 0.258167 -5.30572 0
M  V30 1951 C 192.638 -0.680349 -6.08307 0
M  V30 1952 N 191.775 0.0745613 -7.0206 0
M  V30 1953 H 196.615 -1.20254 -2.72659 0
M  V30 1954 H 194.152 -0.604352 -1.34112 0
M  V30 1955 H 196.11 0.876304 -4.07893 0
M  V30 1956 H 194.74 1.21715 -2.98974 0
M  V30 1957 H 193.792 -1.11463 -3.63703 0
M  V30 1958 H 195.104 -1.25038 -4.82874 0
M  V30 1959 H 194.258 0.784204 -6.0161 0
M  V30 1960 H 192.997 1.01008 -4.77126 0
M  V30 1961 H 192.002 -1.21796 -5.3614 0
M  V30 1962 H 193.227 -1.43145 -6.63842 0
M  V30 1963 H 191.173 0.808883 -6.50994 0
M  V30 1964 H 191.09 -0.584409 -7.53738 0
M  V30 1965 H 192.358 0.581123 -7.77331 0
M  V30 1966 N 196.587 1.43421 -0.653314 0
M  V30 1967 C 197.817 2.05864 -0.174238 0
M  V30 1968 C 198.225 1.49052 1.16534 0
M  V30 1969 O 197.568 0.616481 1.73047 0
M  V30 1970 C 197.63 3.59499 -0.00875873 0
M  V30 1971 C 197.294 4.38893 -1.27364 0
M  V30 1972 C 198.291 4.70947 -2.20239 0
M  V30 1973 C 195.976 4.789 -1.51525 0
M  V30 1974 C 197.97 5.41916 -3.35568 0
M  V30 1975 C 195.657 5.49614 -2.67147 0
M  V30 1976 C 196.655 5.81044 -3.58994 0
M  V30 1977 O 196.343 6.50313 -4.72597 0
M  V30 1978 H 196.075 0.670345 -0.0872549 0
M  V30 1979 H 198.629 1.84913 -0.894226 0
M  V30 1980 H 196.859 3.79025 0.7666 0
M  V30 1981 H 198.548 4.0364 0.427687 0
M  V30 1982 H 199.314 4.40558 -2.02815 0
M  V30 1983 H 195.193 4.53843 -0.809158 0
M  V30 1984 H 198.737 5.66365 -4.07279 0
M  V30 1985 H 194.634 5.79419 -2.84505 0
M  V30 1986 H 195.402 6.68795 -4.71864 0
M  V30 1987 N 198.065 0.39524 1.52563 0
M  V30 1988 C 198.995 -0.428384 2.29537 0
M  V30 1989 C 199.976 -1.05831 1.33169 0
M  V30 1990 O 201.161 -1.06995 1.62067 0
M  V30 1991 C 198.291 -1.55274 3.10656 0
M  V30 1992 C 197.245 -1.04855 4.14957 0
M  V30 1993 C 196.571 -2.26543 4.84337 0
M  V30 1994 C 197.871 -0.112324 5.22179 0
M  V30 1995 H 199.565 0.213867 2.98635 0
M  V30 1996 H 197.111 0.104298 1.43622 0
M  V30 1997 H 199.064 -2.1358 3.63265 0
M  V30 1998 H 197.788 -2.22266 2.39302 0
M  V30 1999 H 196.447 -0.487985 3.63338 0
M  V30 2000 H 196.095 -2.92059 4.09525 0
M  V30 2001 H 195.795 -1.93466 5.54837 0
M  V30 2002 H 197.319 -2.85481 5.39753 0
M  V30 2003 H 198.733 -0.603752 5.70112 0
M  V30 2004 H 197.13 0.128968 5.99961 0
M  V30 2005 H 198.2 0.837052 4.77621 0
M  V30 2006 N 199.544 -1.57102 0.125237 0
M  V30 2007 C 200.96 -1.57915 -0.231322 0
M  V30 2008 C 201.16 -1.13833 -1.66266 0
M  V30 2009 O 200.216 -0.828581 -2.38518 0
M  V30 2010 C 201.529 -3.00699 0.00766489 0
M  V30 2011 C 203.077 -3.12947 -0.0577483 0
M  V30 2012 C 203.552 -4.57742 0.153626 0
M  V30 2013 N 205.043 -4.63092 0.0998073 0
M  V30 2014 C 205.778 -5.72905 0.238174 0
M  V30 2015 N 205.274 -6.91445 0.433057 0
M  V30 2016 N 207.067 -5.6182 0.177308 0
M  V30 2017 H 199.218 -1.84055 1.06007 0
M  V30 2018 H 201.481 -0.850905 0.417929 0
M  V30 2019 H 201.187 -3.3726 0.997431 0
M  V30 2020 H 201.061 -3.70236 -0.721452 0
M  V30 2021 H 203.448 -2.7624 -1.03804 0
M  V30 2022 H 203.529 -2.4594 0.70335 0
M  V30 2023 H 203.173 -4.95149 1.13092 0
M  V30 2024 H 203.103 -5.22848 -0.627534 0
M  V30 2025 H 205.594 -3.77871 -0.047051 0
M  V30 2026 H 205.907 -7.70985 0.529332 0
M  V30 2027 H 204.252 -6.93415 0.469109 0
M  V30 2028 H 207.443 -4.68093 0.0259748 0
M  V30 2029 H 207.616 -6.47357 0.288582 0
M  V30 2030 N 201.022 0.148545 -1.56898 0
M  V30 2031 C 202.299 0.890019 -1.74178 0
M  V30 2032 C 202.679 1.99407 -0.692839 0
M  V30 2033 O 202.027 2.26671 0.288505 0
M  V30 2034 C 202.237 1.43389 -3.18183 0
M  V30 2035 C 203.585 1.89791 -3.79822 0
M  V30 2036 O 204.609 1.53134 -3.21603 0
M  V30 2037 O 203.468 2.57387 -4.82093 0
M  V30 2038 H 200.562 0.420496 -0.712118 0
M  V30 2039 H 203.108 0.134591 -1.69165 0
M  V30 2040 H 201.88 0.640383 -3.86024 0
M  V30 2041 H 201.503 2.25287 -3.27615 0
M  V30 2042 N 202.5 1.5196 0.417844 0
M  V30 2043 C 203.725 1.69717 1.1921 0
M  V30 2044 C 204.15 0.402148 1.83751 0
M  V30 2045 O 203.508 -0.639593 1.69643 0
M  V30 2046 C 203.556 2.82794 2.2374 0
M  V30 2047 O 202.66 2.47756 3.29683 0
M  V30 2048 H 202.001 0.565263 0.348387 0
M  V30 2049 H 204.531 1.98621 0.490985 0
M  V30 2050 H 204.541 3.07452 2.68212 0
M  V30 2051 H 203.216 3.76756 1.76146 0
M  V30 2052 H 201.793 2.33739 2.90552 0
M  V30 2053 N 203.978 -0.674533 1.42435 0
M  V30 2054 C 205.226 -1.43175 1.42637 0
M  V30 2055 C 205.547 -1.94951 0.0438992 0
M  V30 2056 O 204.817 -1.7308 -0.917607 0
M  V30 2057 H 203.397 -0.531307 0.525092 0
M  V30 2058 H 206.059 -0.797006 1.77859 0
M  V30 2059 H 205.155 -2.28463 2.12629 0
M  V30 2060 N 205.456 -1.28612 -0.910864 0
M  V30 2061 C 206.703 -1.15934 -1.66029 0
M  V30 2062 C 207.031 0.291483 -1.92303 0
M  V30 2063 O 206.286 1.22816 -1.52364 0
M  V30 2064 C 206.585 -1.90624 -3.0232 0
M  V30 2065 C 206.251 -3.40405 -2.95695 0
M  V30 2066 C 204.913 -3.81255 -2.93595 0
M  V30 2067 C 207.265 -4.359 -2.85728 0
M  V30 2068 C 204.593 -5.15936 -2.79334 0
M  V30 2069 C 206.945 -5.70657 -2.73007 0
M  V30 2070 C 205.609 -6.10779 -2.69267 0
M  V30 2071 H 204.879 -0.424234 -0.607541 0
M  V30 2072 H 207.526 -1.5942 -1.06101 0
M  V30 2073 H 205.831 -1.39696 -3.6605 0
M  V30 2074 H 207.528 -1.78228 -3.59215 0
M  V30 2075 H 204.118 -3.07927 -2.98125 0
M  V30 2076 H 208.302 -4.053 -2.86436 0
M  V30 2077 H 203.558 -5.46146 -2.74835 0
M  V30 2078 H 207.732 -6.44311 -2.64264 0
M  V30 2079 H 205.359 -7.1509 -2.57974 0
M  V30 2080 O 206.973 1.04587 -1.2306 0
M  V30 2081 H 207.664 1.65902 -0.999811 0
M  V30 END ATOM
M  V30 BEGIN BOND
M  V30 END BOND
M  V30 END CTAB
M  END
$$$$
