drugbank_target|P48549 G protein-activated inward rectifier potassium channel 1 (DB00289; DB00898; DB01159; DB02451; DB04855; DB08954)
 OpenBabel12092119453D

  0  0  0     0  0            999 V3000
M  V30 BEGIN CTAB
M  V30 COUNTS 7968 8056 0 0 0
M  V30 BEGIN ATOM
M  V30 1 H -0.908 1.98254 -0.117106 0
M  V30 2 N 0 1.576 0 0
M  V30 3 C 0.933 2.03868 1.02534 0
M  V30 4 C 1.911 0.928543 1.3348 0
M  V30 5 O 3.095 1.19667 1.45644 0
M  V30 6 C 0.222 2.43627 2.35294 0
M  V30 7 C -0.732 3.65373 2.2001 0
M  V30 8 S 0.101 5.13292 1.52614 0
M  V30 9 C 1.257 5.56322 2.86805 0
M  V30 10 H 1.49 2.90518 0.631377 0
M  V30 11 H -0.977 1.52953 0.210867 0
M  V30 12 H 0.981 2.67203 3.11629 0
M  V30 13 H -0.358 1.57376 2.7183 0
M  V30 14 H -1.165 3.90944 3.18086 0
M  V30 15 H -1.563 3.418 1.51819 0
M  V30 16 H 0.729 5.58782 3.83104 0
M  V30 17 H 1.672 6.56266 2.65933 0
M  V30 18 H 2.08 4.83886 2.90714 0
M  V30 19 N 1.4781 -0.272755 1.55222 0
M  V30 20 C 2.7031 -1.02683 1.80197 0
M  V30 21 C 3.1281 -1.79142 0.573551 0
M  V30 22 O 2.4861 -1.74917 -0.476849 0
M  V30 23 C 2.5341 -1.9609 3.02624 0
M  V30 24 O 1.6381 -3.04863 2.77727 0
M  V30 25 H 0.9791 -0.293557 0.595584 0
M  V30 26 H 3.5091 -0.30159 2.02365 0
M  V30 27 H 3.5191 -2.38039 3.31363 0
M  V30 28 H 2.1941 -1.39851 3.91682 0
M  V30 29 H 0.7711 -2.67228 2.60084 0
M  V30 30 N 2.9562 -1.48159 -0.537278 0
M  V30 31 C 3.9192 -1.61665 -1.62472 0
M  V30 32 C 4.9192 -0.490395 -1.5314 0
M  V30 33 O 6.1092 -0.755998 -1.5694 0
M  V30 34 C 3.2412 -1.57997 -3.02076 0
M  V30 35 H 4.4342 -2.58621 -1.51839 0
M  V30 36 H 1.9872 -1.36647 -0.758771 0
M  V30 37 H 2.7222 -0.624913 -3.18222 0
M  V30 38 H 2.5072 -2.39755 -3.10258 0
M  V30 39 H 3.9972 -1.70627 -3.81151 0
M  V30 40 N 4.4343 0.785586 -1.36625 0
M  V30 41 C 5.3643 1.91259 -1.33949 0
M  V30 42 C 6.3453 1.68795 -0.210325 0
M  V30 43 O 7.5303 1.89854 -0.408561 0
M  V30 44 C 4.6603 3.28339 -1.13186 0
M  V30 45 C 3.6143 3.65335 -2.22967 0
M  V30 46 C 2.9403 5.00806 -1.87342 0
M  V30 47 C 4.2403 3.7352 -3.65075 0
M  V30 48 H 5.9343 1.93755 -2.28253 0
M  V30 49 H 3.4803 0.930788 -1.09874 0
M  V30 50 H 5.4333 4.06804 -1.09948 0
M  V30 51 H 4.1573 3.2624 -0.153332 0
M  V30 52 H 2.8163 2.89169 -2.25337 0
M  V30 53 H 2.4643 4.95233 -0.880545 0
M  V30 54 H 2.1643 5.26529 -2.60846 0
M  V30 55 H 3.6883 5.81687 -1.85667 0
M  V30 56 H 5.1023 4.42168 -3.64911 0
M  V30 57 H 3.4993 4.10731 -4.37516 0
M  V30 58 H 4.5693 2.74527 -3.99703 0
M  V30 59 N 5.9124 1.20967 1.01018 0
M  V30 60 C 7.3284 0.965905 1.27053 0
M  V30 61 C 7.5284 -0.350785 1.98423 0
M  V30 62 O 6.5844 -1.07773 2.28344 0
M  V30 63 C 7.8974 2.15294 2.09926 0
M  V30 64 C 9.4454 2.19463 2.23171 0
M  V30 65 C 9.9204 3.3767 3.09424 0
M  V30 66 N 11.4114 3.37724 3.17012 0
M  V30 67 C 12.1464 4.25837 3.83993 0
M  V30 68 N 11.6424 5.24138 4.53047 0
M  V30 69 N 13.4354 4.1366 3.80581 0
M  V30 70 H 5.5864 2.0565 0.531194 0
M  V30 71 H 7.8494 0.90024 0.297106 0
M  V30 72 H 7.5554 3.10684 1.64828 0
M  V30 73 H 7.4294 2.13923 3.10672 0
M  V30 74 H 9.8164 1.24632 2.6749 0
M  V30 75 H 9.8974 2.2488 1.21912 0
M  V30 76 H 9.5414 4.32791 2.65808 0
M  V30 77 H 9.4714 3.29491 4.10784 0
M  V30 78 H 11.9624 2.6658 2.6785 0
M  V30 79 H 12.2754 5.87684 5.01844 0
M  V30 80 H 10.6204 5.28068 4.5185 0
M  V30 81 H 13.8114 3.36127 3.25785 0
M  V30 82 H 13.9844 4.82538 4.32505 0
M  V30 83 N 7.3905 -1.2043 1.01659 0
M  V30 84 C 8.8065 -1.41852 0.731442 0
M  V30 85 C 9.0065 -1.89358 -0.688898 0
M  V30 86 O 8.0625 -2.06247 -1.45666 0
M  V30 87 C 9.3755 -2.44019 1.75714 0
M  V30 88 C 10.9235 -2.57785 1.77527 0
M  V30 89 C 11.3985 -3.63194 2.79023 0
M  V30 90 N 12.8895 -3.70678 2.77763 0
M  V30 91 C 13.6245 -4.51897 3.52954 0
M  V30 92 N 13.1205 -5.36921 4.37821 0
M  V30 93 N 14.9135 -4.4643 3.41551 0
M  V30 94 H 7.0645 -0.879093 1.93354 0
M  V30 95 H 9.3275 -0.448425 0.835236 0
M  V30 96 H 9.0335 -2.1611 2.77469 0
M  V30 97 H 8.9075 -3.43007 1.56927 0
M  V30 98 H 11.2945 -2.85023 0.764569 0
M  V30 99 H 11.3755 -1.58992 2.00387 0
M  V30 100 H 11.0195 -3.36699 3.80258 0
M  V30 101 H 10.9495 -4.61609 2.53425 0
M  V30 102 H 13.4405 -3.09944 2.16201 0
M  V30 103 H 13.7535 -5.95981 4.91962 0
M  V30 104 H 12.0985 -5.36424 4.41899 0
M  V30 105 H 15.2895 -3.79042 2.74672 0
M  V30 106 H 15.4625 -5.09491 4.00404 0
M  V30 107 N 8.8686 -0.792821 -1.36206 0
M  V30 108 C 9.8156 -0.191653 -2.30003 0
M  V30 109 C 10.7856 0.666453 -1.52143 0
M  V30 110 O 11.9706 0.61442 -1.80636 0
M  V30 111 C 9.1106 0.664848 -3.38635 0
M  V30 112 C 8.2236 -0.212175 -4.31479 0
M  V30 113 C 7.3586 0.651022 -5.27196 0
M  V30 114 C 6.3976 -0.227247 -6.11678 0
M  V30 115 N 5.5346 0.595127 -6.99573 0
M  V30 116 H 10.3746 -0.996978 -2.80828 0
M  V30 117 H 7.9116 -0.503206 -1.38225 0
M  V30 118 H 9.8696 1.17645 -4.00269 0
M  V30 119 H 8.4996 1.43557 -2.89122 0
M  V30 120 H 7.5516 -0.841777 -3.70969 0
M  V30 121 H 8.8636 -0.888751 -4.90818 0
M  V30 122 H 8.0176 1.2283 -5.94136 0
M  V30 123 H 6.7566 1.36121 -4.68319 0
M  V30 124 H 5.7616 -0.816904 -5.43697 0
M  V30 125 H 6.9866 -0.93509 -6.72631 0
M  V30 126 H 4.9326 1.28955 -6.432 0
M  V30 127 H 4.8496 -0.0236952 -7.55996 0
M  V30 128 H 6.1176 1.15613 -7.70879 0
M  V30 129 N 10.3467 1.47872 -0.545128 0
M  V30 130 C 11.5937 2.02493 -0.0165858 0
M  V30 131 C 11.9217 1.42073 1.32836 0
M  V30 132 O 11.1767 0.561459 1.87473 0
M  V30 133 C 11.4757 3.57131 0.13867 0
M  V30 134 C 11.1417 4.36411 -1.13384 0
M  V30 135 C 9.8037 4.57792 -1.48256 0
M  V30 136 C 12.1557 4.82223 -1.97764 0
M  V30 137 C 9.4837 5.22233 -2.67376 0
M  V30 138 C 11.8357 5.47977 -3.16076 0
M  V30 139 C 10.4997 5.67593 -3.51275 0
M  V30 140 H 9.7697 0.740975 -0.00606918 0
M  V30 141 H 12.4167 1.77683 -0.714207 0
M  V30 142 H 10.7217 3.80865 0.919172 0
M  V30 143 H 12.4187 3.97031 0.562782 0
M  V30 144 H 9.0087 4.2004 -0.852297 0
M  V30 145 H 13.1927 4.65493 -1.72132 0
M  V30 146 H 8.4487 5.35616 -2.94831 0
M  V30 147 H 12.6227 5.8244 -3.81755 0
M  V30 148 H 10.2497 6.17298 -4.43675 0
M  V30 149 N 11.8248 0.280983 1.55075 0
M  V30 150 C 13.0728 -0.333455 1.9933 0
M  V30 151 C 13.3938 -1.55937 1.17085 0
M  V30 152 O 12.6638 -1.94143 0.261805 0
M  V30 153 H 11.2438 -0.126197 0.736263 0
M  V30 154 H 13.9058 0.387678 1.91005 0
M  V30 155 H 13.0018 -0.619292 3.05894 0
M  V30 156 N 13.3029 -1.57598 0.00835791 0
M  V30 157 C 14.5799 -1.82172 -0.712235 0
M  V30 158 C 14.9599 -0.887873 -1.9152 0
M  V30 159 O 14.3079 0.06146 -2.28417 0
M  V30 160 C 14.5179 -3.30875 -1.11008 0
M  V30 161 C 15.8659 -3.96826 -1.51044 0
M  V30 162 O 16.8899 -3.35248 -1.20364 0
M  V30 163 O 15.7489 -5.05318 -2.08125 0
M  V30 164 H 12.8429 -0.750435 -0.347529 0
M  V30 165 H 15.3889 -1.69665 0.0344523 0
M  V30 166 H 14.1609 -3.90481 -0.252982 0
M  V30 167 H 13.7839 -3.48412 -1.9156 0
M  V30 168 N 14.781 0.264519 -1.55364 0
M  V30 169 C 16.058 1.01677 -1.67096 0
M  V30 170 C 16.438 2.03996 -0.543015 0
M  V30 171 O 15.786 2.23907 0.45585 0
M  V30 172 C 15.996 1.66596 -3.0667 0
M  V30 173 C 17.344 2.17442 -3.64697 0
M  V30 174 O 18.368 1.76568 -3.09358 0
M  V30 175 O 17.227 2.92439 -4.61673 0
M  V30 176 H 14.321 0.472161 -0.678965 0
M  V30 177 H 16.867 0.259703 -1.67701 0
M  V30 178 H 15.639 0.924962 -3.80211 0
M  V30 179 H 15.262 2.48968 -3.10001 0
M  V30 180 N 16.2591 1.48442 0.529413 0
M  V30 181 C 17.4891 1.59919 1.30804 0
M  V30 182 C 17.8971 0.258792 1.87422 0
M  V30 183 O 17.2401 -0.762096 1.67146 0
M  V30 184 C 17.3021 2.58693 2.49636 0
M  V30 185 C 16.9661 4.03745 2.14101 0
M  V30 186 C 17.9631 4.9141 1.6974 0
M  V30 187 C 15.6481 4.49285 2.24607 0
M  V30 188 C 17.6421 6.22645 1.36351 0
M  V30 189 C 15.3291 5.8054 1.9083 0
M  V30 190 C 16.3271 6.67043 1.46773 0
M  V30 191 O 16.0151 7.95856 1.1344 0
M  V30 192 H 15.7471 0.541981 0.404021 0
M  V30 193 H 18.3011 1.95 0.645309 0
M  V30 194 H 16.5311 2.18734 3.18892 0
M  V30 195 H 18.2201 2.59999 3.11698 0
M  V30 196 H 18.9861 4.57465 1.61094 0
M  V30 197 H 14.8651 3.82142 2.57854 0
M  V30 198 H 18.4091 6.90119 1.01891 0
M  V30 199 H 14.3061 6.14022 1.99117 0
M  V30 200 H 15.0741 8.08613 1.26832 0
M  V30 201 N 17.7372 -0.778329 1.37039 0
M  V30 202 C 18.6692 -1.90034 1.2814 0
M  V30 203 C 19.6822 -1.61585 0.198558 0
M  V30 204 O 20.8712 -1.72625 0.454175 0
M  V30 205 C 17.9712 -3.25108 0.956968 0
M  V30 206 C 17.1442 -3.81253 2.14394 0
M  V30 207 C 16.2032 -4.94789 1.79082 0
M  V30 208 O 15.2292 -5.10721 2.51301 0
M  V30 209 N 16.4312 -5.75878 0.731043 0
M  V30 210 H 19.1962 -1.98186 2.24816 0
M  V30 211 H 16.7572 -0.957129 1.30578 0
M  V30 212 H 18.7492 -3.9857 0.701701 0
M  V30 213 H 17.3192 -3.125 0.0789812 0
M  V30 214 H 16.5392 -2.99647 2.56135 0
M  V30 215 H 17.8272 -4.15495 2.93668 0
M  V30 216 H 17.2252 -5.65547 0.131618 0
M  V30 217 H 15.7822 -6.49596 0.535622 0
M  V30 218 N 19.2153 -1.21501 -1.00376 0
M  V30 219 C 20.4613 -1.03452 -1.74429 0
M  V30 220 C 20.7943 0.430764 -1.89362 0
M  V30 221 O 20.0693 1.31962 -1.42886 0
M  V30 222 C 20.3523 -1.73375 -3.15615 0
M  V30 223 C 20.2053 -3.27431 -3.08397 0
M  V30 224 C 21.5243 -1.47732 -4.14564 0
M  V30 225 H 18.6433 -0.377226 -0.633143 0
M  V30 226 H 21.2853 -1.49693 -1.17013 0
M  V30 227 H 19.4353 -1.34064 -3.64636 0
M  V30 228 H 21.1073 -3.76119 -2.67081 0
M  V30 229 H 19.3503 -3.5767 -2.45468 0
M  V30 230 H 20.0213 -3.71524 -4.08258 0
M  V30 231 H 22.4973 -1.8186 -3.74254 0
M  V30 232 H 21.3733 -1.99169 -5.11491 0
M  V30 233 H 21.6343 -0.407589 -4.40217 0
M  V30 234 N 20.6934 1.19889 -1.02296 0
M  V30 235 C 21.9394 1.89701 -0.717033 0
M  V30 236 C 22.2724 1.7905 0.751989 0
M  V30 237 O 21.5474 1.17891 1.547 0
M  V30 238 C 21.8304 3.40858 -1.16136 0
M  V30 239 C 21.6834 3.60411 -2.69117 0
M  V30 240 C 23.0024 4.33876 -0.737549 0
M  V30 241 H 20.1214 0.688874 -0.261957 0
M  V30 242 H 22.7634 1.41154 -1.27183 0
M  V30 243 H 20.9134 3.82335 -0.689342 0
M  V30 244 H 22.5854 3.28145 -3.2422 0
M  V30 245 H 20.8284 3.03665 -3.0979 0
M  V30 246 H 21.4994 4.66396 -2.95261 0
M  V30 247 H 23.9754 4.00081 -1.14344 0
M  V30 248 H 22.8514 5.38242 -1.0764 0
M  V30 249 H 23.1124 4.40628 0.360436 0
M  V30 250 N 22.1715 0.800033 1.35784 0
M  V30 251 C 23.3995 0.389606 2.03199 0
M  V30 252 C 23.8145 -0.997375 1.60306 0
M  V30 253 O 23.1715 -1.64154 0.797481 0
M  V30 254 C 23.2225 0.455855 3.58614 0
M  V30 255 O 22.9435 1.78815 3.99946 0
M  V30 256 C 24.4445 0.0374032 4.43284 0
M  V30 257 H 21.6645 0.159132 0.651857 0
M  V30 258 H 24.2085 1.08183 1.73541 0
M  V30 259 H 22.3635 -0.188057 3.86943 0
M  V30 260 H 22.7775 1.74636 4.94573 0
M  V30 261 H 24.2515 0.134882 5.51835 0
M  V30 262 H 24.7285 -1.01651 4.27275 0
M  V30 263 H 25.3345 0.654215 4.20238 0
M  V30 264 N 23.6496 -1.47581 0.552962 0
M  V30 265 C 24.8776 -2.06875 0.0320556 0
M  V30 266 C 25.2926 -1.40625 -1.25976 0
M  V30 267 O 24.6496 -0.501349 -1.75479 0
M  V30 268 C 24.7006 -3.61092 -0.17167 0
M  V30 269 O 24.4216 -4.24858 1.06899 0
M  V30 270 C 25.9226 -4.37242 -0.730344 0
M  V30 271 H 23.1426 -0.669561 0.043915 0
M  V30 272 H 25.6866 -1.89646 0.765163 0
M  V30 273 H 23.8416 -3.7785 -0.854894 0
M  V30 274 H 24.2556 -5.17334 0.864059 0
M  V30 275 H 25.7296 -5.45842 -0.822203 0
M  V30 276 H 26.2066 -4.03235 -1.74064 0
M  V30 277 H 26.8126 -4.25219 -0.0829543 0
M  V30 278 N 25.1277 -0.289203 -1.54924 0
M  V30 279 C 26.3527 0.329299 -2.04769 0
M  V30 280 C 26.7777 1.4763 -1.16564 0
M  V30 281 O 26.1357 1.80527 -0.167186 0
M  V30 282 C 26.1837 0.774438 -3.52186 0
M  V30 283 O 25.2877 1.88038 -3.67036 0
M  V30 284 H 24.6287 0.0659259 -0.660719 0
M  V30 285 H 27.1587 -0.42761 -2.00082 0
M  V30 286 H 27.1687 1.06642 -3.93816 0
M  V30 287 H 25.8437 -0.0646707 -4.1585 0
M  V30 288 H 24.4207 1.58985 -3.3731 0
M  V30 289 N 26.6058 1.57591 -0.0167156 0
M  V30 290 C 27.8308 1.9598 0.67872 0
M  V30 291 C 28.2558 0.892546 1.65575 0
M  V30 292 O 27.6138 -0.147772 1.80697 0
M  V30 293 C 27.6618 3.33468 1.37227 0
M  V30 294 O 26.7658 3.28954 2.48722 0
M  V30 295 H 26.1068 0.639339 0.17928 0
M  V30 296 H 28.6368 2.04463 -0.0748802 0
M  V30 297 H 28.6468 3.69417 1.7319 0
M  V30 298 H 27.3218 4.10694 0.656007 0
M  V30 299 H 25.8988 3.04705 2.14963 0
M  V30 300 N 28.0839 -0.256276 1.55502 0
M  V30 301 C 29.3089 -1.00766 1.81276 0
M  V30 302 C 29.7339 -1.78524 0.59252 0
M  V30 303 O 29.0919 -1.75413 -0.45827 0
M  V30 304 C 29.1399 -1.92869 3.04687 0
M  V30 305 O 28.2439 -3.019 2.80945 0
M  V30 306 H 27.5849 -0.287224 0.598664 0
M  V30 307 H 30.1149 -0.280109 2.02674 0
M  V30 308 H 30.1249 -2.34511 3.33869 0
M  V30 309 H 28.7999 -1.35689 3.93143 0
M  V30 310 H 27.3769 -2.64454 2.62904 0
M  V30 311 N 29.562 -1.4872 -0.521534 0
M  V30 312 C 30.81 -1.56857 -1.27437 0
M  V30 313 C 31.131 -0.247982 -1.93417 0
M  V30 314 O 30.401 0.731151 -1.81744 0
M  V30 315 H 28.981 -0.577885 -0.473347 0
M  V30 316 H 31.643 -1.85233 -0.606205 0
M  V30 317 H 30.739 -2.35402 -2.0492 0
M  V30 318 N 31.0401 0.771051 -1.3745 0
M  V30 319 C 32.2651 1.56529 -1.36065 0
M  V30 320 C 32.6901 1.88029 0.0515859 0
M  V30 321 O 32.0481 1.49282 1.02882 0
M  V30 322 C 32.0961 2.85187 -2.20683 0
M  V30 323 O 31.2001 3.79593 -1.61193 0
M  V30 324 H 30.5411 0.47411 -0.464883 0
M  V30 325 H 33.0711 0.954269 -1.80983 0
M  V30 326 H 33.0811 3.34283 -2.33921 0
M  V30 327 H 31.7561 2.61588 -3.23334 0
M  V30 328 H 30.3331 3.38239 -1.56999 0
M  V30 329 N 32.5182 1.22032 0.997298 0
M  V30 330 C 33.7662 1.04016 1.73278 0
M  V30 331 C 34.0872 -0.426255 1.90284 0
M  V30 332 O 33.3572 -1.30694 1.45931 0
M  V30 333 H 31.9372 0.381897 0.642 0
M  V30 334 H 34.5992 1.5347 1.20137 0
M  V30 335 H 33.6952 1.51441 2.72896 0
M  V30 336 N 33.9963 -1.19345 1.0293 0
M  V30 337 C 34.9263 -2.2481 0.631105 0
M  V30 338 C 35.9073 -1.66245 -0.360104 0
M  V30 339 O 37.0923 -1.92677 -0.242726 0
M  V30 340 C 34.2223 -3.47295 -0.0184607 0
M  V30 341 C 33.1763 -4.18536 0.895073 0
M  V30 342 C 32.5023 -5.34586 0.110592 0
M  V30 343 C 33.8023 -4.73287 2.209 0
M  V30 344 H 35.4963 -2.58372 1.51275 0
M  V30 345 H 33.0423 -1.24194 0.728818 0
M  V30 346 H 34.9953 -4.20268 -0.308675 0
M  V30 347 H 33.7193 -3.12933 -0.934907 0
M  V30 348 H 32.3783 -3.47446 1.16949 0
M  V30 349 H 32.0263 -4.96469 -0.807902 0
M  V30 350 H 31.7263 -5.83183 0.719087 0
M  V30 351 H 33.2503 -6.10355 -0.172871 0
M  V30 352 H 34.6643 -5.38013 1.98028 0
M  V30 353 H 33.0613 -5.32373 2.76946 0
M  V30 354 H 34.1313 -3.91331 2.86336 0
M  V30 355 N 35.4744 -0.807222 -1.35358 0
M  V30 356 C 36.4064 -0.175717 -2.28525 0
M  V30 357 C 37.4194 0.625354 -1.5031 0
M  V30 358 O 38.6084 0.457611 -1.72535 0
M  V30 359 C 35.7084 0.773471 -3.29956 0
M  V30 360 C 34.8814 0.0186296 -4.37396 0
M  V30 361 C 33.9404 0.886395 -5.18681 0
M  V30 362 O 32.9664 0.337106 -5.68201 0
M  V30 363 N 34.1684 2.20839 -5.36852 0
M  V30 364 H 36.9334 -0.976091 -2.83359 0
M  V30 365 H 34.4944 -0.662737 -1.47714 0
M  V30 366 H 36.4864 1.35824 -3.81227 0
M  V30 367 H 35.0564 1.47465 -2.75632 0
M  V30 368 H 34.2764 -0.747349 -3.87051 0
M  V30 369 H 35.5644 -0.501577 -5.06322 0
M  V30 370 H 34.9624 2.67858 -4.98265 0
M  V30 371 H 33.5194 2.74237 -5.91301 0
M  V30 372 N 36.9525 1.47285 -0.560781 0
M  V30 373 C 38.3635 1.86258 -0.128343 0
M  V30 374 C 38.7145 1.46699 1.30284 0
M  V30 375 O 37.8395 0.871698 1.98067 0
M  V30 376 C 38.4345 3.38044 -0.22614 0
M  V30 377 C 36.9935 3.76096 0.151283 0
M  V30 378 C 36.1405 2.71335 -0.572084 0
M  V30 379 H 39.0915 1.38752 -0.770297 0
M  V30 380 H 39.1125 3.76441 0.554322 0
M  V30 381 H 38.6245 3.66806 -1.26788 0
M  V30 382 H 36.7255 3.52951 1.19399 0
M  V30 383 H 36.8385 4.78641 -0.209765 0
M  V30 384 H 35.2025 2.54696 -0.0147653 0
M  V30 385 H 35.9855 3.02938 -1.61504 0
M  V30 386 N 38.4306 0.297415 1.54768 0
M  V30 387 C 39.3626 -0.613881 2.20826 0
M  V30 388 C 40.3756 -1.10032 1.19987 0
M  V30 389 O 41.5646 -1.01839 1.46598 0
M  V30 390 C 38.6646 -1.852 2.83821 0
M  V30 391 C 37.8376 -1.50865 4.10559 0
M  V30 392 C 36.8966 -2.60154 4.57391 0
M  V30 393 O 35.9226 -2.25398 5.2267 0
M  V30 394 N 37.1246 -3.90629 4.29406 0
M  V30 395 H 39.8896 -0.048389 2.99661 0
M  V30 396 H 37.4506 0.11946 1.61459 0
M  V30 397 H 39.4426 -2.57652 3.12086 0
M  V30 398 H 38.0126 -2.32597 2.08847 0
M  V30 399 H 37.2326 -0.616925 3.89343 0
M  V30 400 H 38.5206 -1.25458 4.9309 0
M  V30 401 H 37.9186 -4.21677 3.77101 0
M  V30 402 H 36.4756 -4.59391 4.62388 0
M  V30 403 N 39.9087 -1.5758 0.0250728 0
M  V30 404 C 41.1567 -1.91255 -0.653151 0
M  V30 405 C 41.4777 -0.901691 -1.729 0
M  V30 406 O 40.7477 0.0573785 -1.95816 0
M  V30 407 H 39.3277 -0.705942 -0.244243 0
M  V30 408 H 41.9897 -1.94767 0.0719209 0
M  V30 409 H 41.0857 -2.91752 -1.10847 0
M  V30 410 N 41.3868 0.248026 -1.55636 0
M  V30 411 C 42.7978 0.817177 -1.67866 0
M  V30 412 C 43.1488 1.86069 -0.622322 0
M  V30 413 O 42.2738 2.15157 0.231618 0
M  V30 414 C 42.8688 1.489 -3.04326 0
M  V30 415 C 41.4278 2.00587 -3.185 0
M  V30 416 C 40.5748 0.856573 -2.63739 0
M  V30 417 H 43.5258 0.0238579 -1.58682 0
M  V30 418 H 43.5468 2.35698 -2.98708 0
M  V30 419 H 43.0588 0.729279 -3.81186 0
M  V30 420 H 41.1598 2.79443 -2.4646 0
M  V30 421 H 41.2728 2.20402 -4.25393 0
M  V30 422 H 39.6368 1.25678 -2.21534 0
M  V30 423 H 40.4198 0.109953 -3.43124 0
M  V30 424 N 42.8649 1.48995 0.513639 0
M  V30 425 C 44.1129 1.57531 1.26604 0
M  V30 426 C 44.4339 0.258236 1.93283 0
M  V30 427 O 43.7039 -0.721502 1.8213 0
M  V30 428 H 42.2839 0.580387 0.470276 0
M  V30 429 H 44.9459 1.85552 0.596373 0
M  V30 430 H 44.0419 2.36486 2.03669 0
M  V30 431 N 44.343 -0.763751 1.37857 0
M  V30 432 C 45.275 -1.88664 1.30148 0
M  V30 433 C 46.288 -1.61365 0.215685 0
M  V30 434 O 47.477 -1.72134 0.472459 0
M  V30 435 C 44.577 -3.24075 0.991396 0
M  V30 436 C 43.75 -3.78958 2.18426 0
M  V30 437 C 42.809 -4.92862 1.8432 0
M  V30 438 O 41.835 -5.08027 2.56704 0
M  V30 439 N 43.037 -5.75071 0.792081 0
M  V30 440 H 45.802 -1.95791 2.26905 0
M  V30 441 H 43.363 -0.943226 1.31586 0
M  V30 442 H 45.355 -3.97804 0.743935 0
M  V30 443 H 43.925 -3.12399 0.112122 0
M  V30 444 H 43.145 -2.96913 2.59299 0
M  V30 445 H 44.433 -4.12357 2.98058 0
M  V30 446 H 43.831 -5.65375 0.191595 0
M  V30 447 H 42.388 -6.48991 0.60449 0
M  V30 448 N 45.8211 -1.22559 -0.990812 0
M  V30 449 C 47.0981 -0.959875 -1.70428 0
M  V30 450 C 47.4781 0.524455 -2.04481 0
M  V30 451 O 46.8261 1.49302 -1.72977 0
M  V30 452 C 47.0361 -1.85955 -2.95333 0
M  V30 453 C 48.3841 -2.11687 -3.68068 0
M  V30 454 O 49.4081 -1.8342 -3.05345 0
M  V30 455 O 48.2671 -2.59572 -4.80921 0
M  V30 456 H 45.3611 -0.361154 -0.743974 0
M  V30 457 H 47.9071 -1.33554 -1.04697 0
M  V30 458 H 46.6791 -2.86346 -2.66687 0
M  V30 459 H 46.3021 -1.4856 -3.68803 0
M  V30 460 N 47.2992 1.18797 -1.03562 0
M  V30 461 C 48.7102 1.70322 -0.764676 0
M  V30 462 C 49.0612 1.82708 0.714996 0
M  V30 463 O 48.1862 1.50299 1.55689 0
M  V30 464 C 48.7812 3.09356 -1.38145 0
M  V30 465 C 47.3402 3.58114 -1.15895 0
M  V30 466 C 46.4872 2.34798 -1.4753 0
M  V30 467 H 49.4382 1.03543 -1.20268 0
M  V30 468 H 49.4592 3.72378 -0.781977 0
M  V30 469 H 48.9712 3.00309 -2.45837 0
M  V30 470 H 47.0722 3.72464 -0.100544 0
M  V30 471 H 47.1852 4.4184 -1.8524 0
M  V30 472 H 45.5492 2.38464 -0.894829 0
M  V30 473 H 46.3322 2.28375 -2.56319 0
M  V30 474 N 48.7773 0.814389 1.34928 0
M  V30 475 C 49.7093 0.187834 2.28429 0
M  V30 476 C 50.7223 -0.617374 1.5064 0
M  V30 477 O 51.9113 -0.448454 1.72775 0
M  V30 478 C 49.0113 -0.755962 3.30361 0
M  V30 479 C 48.1843 0.00456686 4.374 0
M  V30 480 C 47.2433 -0.858876 5.19143 0
M  V30 481 O 46.2693 -0.306968 5.68372 0
M  V30 482 N 47.4713 -2.17988 5.38016 0
M  V30 483 H 50.2363 0.991105 2.82838 0
M  V30 484 H 47.7973 0.670561 1.4736 0
M  V30 485 H 49.7893 -1.338 3.81942 0
M  V30 486 H 48.3593 -1.46001 2.7641 0
M  V30 487 H 47.5793 0.767865 3.86649 0
M  V30 488 H 48.8673 0.528422 5.06049 0
M  V30 489 H 48.2653 -2.65212 4.99679 0
M  V30 490 H 46.8223 -2.71098 5.92747 0
M  V30 491 N 50.2554 -1.46986 0.568584 0
M  V30 492 C 51.1874 -2.28233 -0.210337 0
M  V30 493 C 52.2004 -1.37682 -0.868767 0
M  V30 494 O 53.3894 -1.62406 -0.740705 0
M  V30 495 C 50.4894 -3.12293 -1.3163 0
M  V30 496 C 49.6624 -4.30878 -0.7525 0
M  V30 497 C 48.7214 -4.96445 -1.74439 0
M  V30 498 O 47.7474 -5.54482 -1.286 0
M  V30 499 N 48.9494 -4.92171 -3.07812 0
M  V30 500 H 51.7144 -2.95723 0.486648 0
M  V30 501 H 49.2754 -1.56742 0.405409 0
M  V30 502 H 51.2674 -3.53022 -1.97883 0
M  V30 503 H 49.8374 -2.46971 -1.91636 0
M  V30 504 H 49.0574 -3.94104 0.0871128 0
M  V30 505 H 50.3454 -5.07558 -0.35536 0
M  V30 506 H 49.7434 -4.46239 -3.47688 0
M  V30 507 H 48.3004 -5.36884 -3.69592 0
M  V30 508 N 51.7335 -0.305618 -1.54608 0
M  V30 509 C 52.6655 0.602161 -2.21149 0
M  V30 510 C 53.6785 1.09394 -1.20569 0
M  V30 511 O 54.8675 1.0106 -1.47136 0
M  V30 512 C 51.9675 1.83692 -2.84799 0
M  V30 513 C 51.1405 1.48686 -4.11353 0
M  V30 514 C 50.1995 2.57725 -4.58764 0
M  V30 515 O 49.2255 2.22623 -5.23858 0
M  V30 516 N 50.4275 3.88346 -4.31471 0
M  V30 517 H 53.1925 0.0324966 -2.99682 0
M  V30 518 H 50.7535 -0.128021 -1.61393 0
M  V30 519 H 52.7455 2.55994 -3.13448 0
M  V30 520 H 51.3155 2.31486 -2.10078 0
M  V30 521 H 50.5355 0.596269 -3.89664 0
M  V30 522 H 51.8235 1.22842 -4.93748 0
M  V30 523 H 51.2215 4.19671 -3.79331 0
M  V30 524 H 49.7785 4.56932 -4.64818 0
M  V30 525 N 53.2116 1.57565 -0.0334293 0
M  V30 526 C 54.1416 2.13511 0.945265 0
M  V30 527 C 55.1226 1.05231 1.33643 0
M  V30 528 O 56.3076 1.33084 1.41429 0
M  V30 529 C 53.4376 2.6657 2.22616 0
M  V30 530 C 52.3916 3.79676 1.97561 0
M  V30 531 C 51.7176 4.1918 3.31952 0
M  V30 532 C 53.0176 5.0557 1.31135 0
M  V30 533 H 54.7116 2.95538 0.479325 0
M  V30 534 H 52.2576 1.42166 0.229115 0
M  V30 535 H 54.2106 3.04344 2.91466 0
M  V30 536 H 52.9346 1.8171 2.71384 0
M  V30 537 H 51.5936 3.42347 1.31127 0
M  V30 538 H 51.2416 3.31296 3.78487 0
M  V30 539 H 50.9416 4.95402 3.15992 0
M  V30 540 H 52.4656 4.59541 4.02063 0
M  V30 541 H 53.8796 5.40903 1.89992 0
M  V30 542 H 52.2766 5.86818 1.25559 0
M  V30 543 H 53.3466 4.84062 0.284894 0
M  V30 544 N 54.6897 -0.239769 1.55765 0
M  V30 545 C 55.9357 -0.968234 1.78194 0
M  V30 546 C 56.2687 -1.84701 0.599938 0
M  V30 547 O 55.5437 -1.9031 -0.401524 0
M  V30 548 C 55.8267 -1.8227 3.10564 0
M  V30 549 C 55.6797 -0.971633 4.3918 0
M  V30 550 C 56.9987 -2.80388 3.39221 0
M  V30 551 H 54.1177 -0.350572 0.648281 0
M  V30 552 H 56.7597 -0.238259 1.885 0
M  V30 553 H 54.9097 -2.44507 3.01908 0
M  V30 554 H 56.5817 -0.367408 4.59835 0
M  V30 555 H 54.8247 -0.276276 4.32919 0
M  V30 556 H 55.4957 -1.60346 5.28198 0
M  V30 557 H 57.9717 -2.28287 3.47885 0
M  V30 558 H 56.8477 -3.3729 4.33044 0
M  V30 559 H 57.1087 -3.57212 2.60484 0
M  V30 560 N 56.1678 -1.49265 -0.50573 0
M  V30 561 C 57.5788 -1.51769 -1.08734 0
M  V30 562 C 57.9298 -0.301192 -1.93874 0
M  V30 563 O 57.0548 0.589456 -2.08217 0
M  V30 564 C 57.6498 -2.75017 -1.97867 0
M  V30 565 C 56.2088 -2.80314 -2.51199 0
M  V30 566 C 55.3558 -2.4562 -1.28709 0
M  V30 567 H 58.3068 -1.56031 -0.289855 0
M  V30 568 H 58.3278 -2.5491 -2.82491 0
M  V30 569 H 57.8398 -3.63539 -1.35873 0
M  V30 570 H 55.9408 -1.96061 -3.16845 0
M  V30 571 H 56.0538 -3.82366 -2.88675 0
M  V30 572 H 54.4178 -1.97297 -1.61078 0
M  V30 573 H 55.2008 -3.36411 -0.6843 0
M  V30 574 N 57.6459 0.756429 -1.3826 0
M  V30 575 C 58.5929 1.87011 -1.35261 0
M  V30 576 C 59.5629 1.64695 -0.215616 0
M  V30 577 O 60.7479 1.864 -0.407399 0
M  V30 578 C 57.8879 3.24275 -1.18068 0
M  V30 579 C 57.0009 3.58442 -2.41129 0
M  V30 580 C 56.1359 4.84994 -2.16689 0
M  V30 581 C 55.1749 5.11939 -3.35537 0
M  V30 582 N 54.3119 6.29685 -3.10549 0
M  V30 583 H 59.1519 1.8891 -2.30472 0
M  V30 584 H 56.6889 0.923373 -1.14509 0
M  V30 585 H 58.6469 4.03479 -1.06116 0
M  V30 586 H 57.2769 3.21711 -0.264973 0
M  V30 587 H 56.3289 2.74103 -2.63764 0
M  V30 588 H 57.6409 3.74283 -3.29717 0
M  V30 589 H 56.7949 5.72135 -2.01857 0
M  V30 590 H 55.5339 4.71286 -1.25462 0
M  V30 591 H 54.5389 4.23268 -3.50891 0
M  V30 592 H 55.7639 5.27546 -4.27635 0
M  V30 593 H 53.7099 6.17306 -2.21967 0
M  V30 594 H 53.6269 6.46014 -3.92686 0
M  V30 595 H 54.8949 7.19722 -2.99367 0
M  V30 596 N 59.124 1.23083 0.984299 0
M  V30 597 C 60.071 1.00854 2.07598 0
M  V30 598 C 61.041 -0.0726709 1.65941 0
M  V30 599 O 62.226 0.0786535 1.90638 0
M  V30 600 C 59.366 0.601645 3.39815 0
M  V30 601 C 58.479 1.75456 3.94765 0
M  V30 602 C 57.614 1.29482 5.15177 0
M  V30 603 C 56.653 2.41873 5.62284 0
M  V30 604 N 55.79 1.96885 6.73929 0
M  V30 605 H 60.63 1.943 2.25946 0
M  V30 606 H 58.167 0.968001 1.10762 0
M  V30 607 H 60.125 0.346854 4.15756 0
M  V30 608 H 58.755 -0.295803 3.21442 0
M  V30 609 H 57.807 2.12346 3.15616 0
M  V30 610 H 59.119 2.59965 4.25699 0
M  V30 611 H 58.273 0.997923 5.98437 0
M  V30 612 H 57.012 0.420046 4.85888 0
M  V30 613 H 56.017 2.72342 4.77608 0
M  V30 614 H 57.242 3.29881 5.93595 0
M  V30 615 H 55.188 1.11782 6.46406 0
M  V30 616 H 55.105 2.74956 7.04227 0
M  V30 617 H 56.373 1.70289 7.60672 0
M  V30 618 N 60.6021 -1.18246 1.0419 0
M  V30 619 C 61.5491 -2.2192 0.634037 0
M  V30 620 C 62.5191 -1.62179 -0.358765 0
M  V30 621 O 63.7041 -1.89122 -0.252466 0
M  V30 622 C 60.8441 -3.451 0.00445535 0
M  V30 623 C 59.9571 -4.19174 1.04487 0
M  V30 624 C 59.0921 -5.29813 0.383676 0
M  V30 625 C 58.1311 -5.9566 1.4091 0
M  V30 626 N 57.2681 -6.97834 0.772784 0
M  V30 627 H 62.1081 -2.56164 1.52263 0
M  V30 628 H 59.6451 -1.25843 0.761701 0
M  V30 629 H 61.6031 -4.15485 -0.377919 0
M  V30 630 H 60.2331 -3.11472 -0.847652 0
M  V30 631 H 59.2851 -3.47604 1.54518 0
M  V30 632 H 60.5971 -4.64267 1.82368 0
M  V30 633 H 59.7511 -6.06677 -0.0528366 0
M  V30 634 H 58.4901 -4.85825 -0.427208 0
M  V30 635 H 57.4951 -5.17535 1.85574 0
M  V30 636 H 58.7201 -6.4173 2.22171 0
M  V30 637 H 56.6661 -6.55998 -0.0177708 0
M  V30 638 H 56.5831 -7.41186 1.48928 0
M  V30 639 H 57.8511 -7.78665 0.36071 0
M  V30 640 N 62.0802 -0.821533 -1.34494 0
M  V30 641 C 63.4962 -0.507117 -1.51329 0
M  V30 642 C 63.6962 0.968964 -1.76673 0
M  V30 643 O 62.7522 1.75348 -1.81685 0
M  V30 644 C 64.0652 -1.36544 -2.67911 0
M  V30 645 C 65.6132 -1.36242 -2.81793 0
M  V30 646 C 66.0882 -2.2052 -4.01416 0
M  V30 647 N 67.5792 -2.18136 -4.08621 0
M  V30 648 C 68.3142 -2.80095 -5.00334 0
M  V30 649 N 67.8102 -3.51039 -5.9728 0
M  V30 650 N 69.6032 -2.69656 -4.93196 0
M  V30 651 H 61.7542 -1.77729 -1.16302 0
M  V30 652 H 64.0172 -0.757291 -0.570276 0
M  V30 653 H 63.7232 -2.41361 -2.55808 0
M  V30 654 H 63.5972 -1.02917 -3.62888 0
M  V30 655 H 65.9842 -0.322041 -2.93338 0
M  V30 656 H 66.0652 -1.73866 -1.87628 0
M  V30 657 H 65.7092 -3.24607 -3.90631 0
M  V30 658 H 65.6392 -1.80247 -4.94791 0
M  V30 659 H 68.1302 -1.6653 -3.39229 0
M  V30 660 H 68.4432 -3.95565 -6.63889 0
M  V30 661 H 66.7882 -3.55145 -5.97409 0
M  V30 662 H 69.9792 -2.13808 -4.16418 0
M  V30 663 H 70.1522 -3.1823 -5.64476 0
M  V30 664 N 63.5583 1.46682 -0.576371 0
M  V30 665 C 64.4903 2.28341 0.198231 0
M  V30 666 C 65.5033 1.38141 0.861453 0
M  V30 667 O 66.6923 1.62797 0.732082 0
M  V30 668 C 63.7923 3.12986 1.29972 0
M  V30 669 C 62.9653 4.31271 0.729639 0
M  V30 670 C 62.0243 4.97363 1.71803 0
M  V30 671 O 61.0503 5.55156 1.25658 0
M  V30 672 N 62.2523 4.93796 3.05198 0
M  V30 673 H 65.0173 2.9546 -0.502324 0
M  V30 674 H 62.5783 1.56525 -0.413715 0
M  V30 675 H 64.5703 3.54066 1.96008 0
M  V30 676 H 63.1403 2.47984 1.90323 0
M  V30 677 H 62.3603 3.94052 -0.108012 0
M  V30 678 H 63.6483 5.07739 0.328438 0
M  V30 679 H 63.0463 4.48077 3.45317 0
M  V30 680 H 61.6033 5.38837 3.6674 0
M  V30 681 N 65.0364 0.313813 1.54444 0
M  V30 682 C 66.4524 -0.0391619 1.59552 0
M  V30 683 C 66.6524 -1.51322 1.33056 0
M  V30 684 O 65.7084 -2.26782 1.11022 0
M  V30 685 C 67.0214 0.370302 2.98411 0
M  V30 686 C 68.5694 0.320139 3.11358 0
M  V30 687 C 69.0444 0.704617 4.52547 0
M  V30 688 N 70.5354 0.657645 4.58508 0
M  V30 689 C 71.2704 0.927453 5.6585 0
M  V30 690 N 70.7664 1.26389 6.81174 0
M  V30 691 N 72.5594 0.853662 5.5558 0
M  V30 692 H 64.7104 1.27433 1.69925 0
M  V30 693 H 66.9734 0.517511 0.794284 0
M  V30 694 H 66.6794 1.39694 3.22767 0
M  V30 695 H 66.5534 -0.269619 3.76235 0
M  V30 696 H 68.9404 -0.697275 2.86744 0
M  V30 697 H 69.0214 0.99486 2.35661 0
M  V30 698 H 68.6654 1.7199 4.77893 0
M  V30 699 H 68.5954 0.00768843 5.26599 0
M  V30 700 H 71.0864 0.409067 3.75679 0
M  V30 701 H 71.3994 1.4554 7.58972 0
M  V30 702 H 69.7444 1.30206 6.82694 0
M  V30 703 H 72.9354 0.590383 4.64362 0
M  V30 704 H 73.1084 1.0673 6.3915 0
M  V30 705 N 66.5145 -1.57545 0.0417849 0
M  V30 706 C 67.7615 -1.92317 -0.634082 0
M  V30 707 C 68.0895 -0.919334 -1.71402 0
M  V30 708 O 67.3445 0.0698253 -1.95575 0
M  V30 709 C 67.6435 -3.33794 -1.27735 0
M  V30 710 C 67.3095 -4.49716 -0.326543 0
M  V30 711 C 65.9715 -4.81156 -0.0648814 0
M  V30 712 C 68.3235 -5.20182 0.325623 0
M  V30 713 C 65.6515 -5.80414 0.856539 0
M  V30 714 C 68.0035 -6.20424 1.23518 0
M  V30 715 C 66.6675 -6.50298 1.5056 0
M  V30 716 H 65.9375 -0.703736 -0.232027 0
M  V30 717 H 68.5845 -1.91205 0.106259 0
M  V30 718 H 66.8895 -3.31228 -2.09274 0
M  V30 719 H 68.5865 -3.57975 -1.80707 0
M  V30 720 H 65.1765 -4.25176 -0.540665 0
M  V30 721 H 69.3605 -4.96112 0.136546 0
M  V30 722 H 64.6165 -6.019 1.07363 0
M  V30 723 H 68.7905 -6.74141 1.74664 0
M  V30 724 H 66.4175 -7.27025 2.22123 0
M  V30 725 N 67.9926 0.231505 -1.5589 0
M  V30 726 C 69.2386 0.95877 -1.78705 0
M  V30 727 C 69.5716 1.8438 -0.609725 0
M  V30 728 O 68.8466 1.90521 0.391426 0
M  V30 729 C 69.1296 1.8062 -3.11526 0
M  V30 730 C 68.9826 0.948328 -4.39689 0
M  V30 731 C 70.3016 2.78585 -3.40703 0
M  V30 732 H 67.4206 0.347129 -0.650131 0
M  V30 733 H 70.0626 0.228259 -1.88624 0
M  V30 734 H 68.2126 2.42902 -3.03201 0
M  V30 735 H 69.8846 0.343016 -4.60023 0
M  V30 736 H 68.1276 0.253314 -4.3306 0
M  V30 737 H 68.7986 1.57543 -5.29041 0
M  V30 738 H 71.2746 2.26439 -3.49091 0
M  V30 739 H 70.1506 3.34988 -4.34826 0
M  V30 740 H 70.4116 3.55825 -2.62375 0
M  V30 741 N 69.4707 1.49531 0.497807 0
M  V30 742 C 70.7477 1.49682 1.25915 0
M  V30 743 C 71.1277 0.226339 2.09883 0
M  V30 744 O 70.4757 -0.791189 2.14365 0
M  V30 745 C 70.6857 2.77755 2.11313 0
M  V30 746 C 72.0337 3.27371 2.70395 0
M  V30 747 O 73.0577 2.78894 2.21578 0
M  V30 748 O 71.9167 4.11808 3.59272 0
M  V30 749 H 69.0107 0.599228 0.56996 0
M  V30 750 H 71.5567 1.61798 0.511816 0
M  V30 751 H 70.3287 3.61713 1.49264 0
M  V30 752 H 69.9517 2.68515 2.93233 0
M  V30 753 N 70.9488 -0.749086 1.3866 0
M  V30 754 C 71.8958 -1.86291 1.36251 0
M  V30 755 C 72.8658 -1.64578 0.224347 0
M  V30 756 O 74.0508 -1.86181 0.417279 0
M  V30 757 C 71.1908 -3.23644 1.19786 0
M  V30 758 C 70.3038 -3.57158 2.43027 0
M  V30 759 C 69.4388 -4.83838 2.19258 0
M  V30 760 C 68.4778 -5.10152 3.38247 0
M  V30 761 N 67.6148 -6.28029 3.13884 0
M  V30 762 H 72.4548 -1.87685 2.3147 0
M  V30 763 H 69.9918 -0.917287 1.14997 0
M  V30 764 H 71.9498 -4.0291 1.08254 0
M  V30 765 H 70.5798 -3.21566 0.282031 0
M  V30 766 H 69.6318 -2.72701 2.65214 0
M  V30 767 H 70.9438 -3.7253 3.31697 0
M  V30 768 H 70.0978 -5.71057 2.04888 0
M  V30 769 H 68.8368 -4.70614 1.2796 0
M  V30 770 H 67.8418 -4.21401 3.53131 0
M  V30 771 H 69.0668 -5.25271 4.30427 0
M  V30 772 H 67.0128 -6.1612 2.25238 0
M  V30 773 H 66.9298 -6.43922 3.96106 0
M  V30 774 H 68.1978 -7.18124 3.03179 0
M  V30 775 N 72.4269 -1.23603 -0.977757 0
M  V30 776 C 73.3749 -1.01704 -2.09187 0
M  V30 777 C 74.3689 0.0448214 -1.69341 0
M  V30 778 O 75.5749 -0.108902 -1.7967 0
M  V30 779 H 71.9499 -0.311803 -0.684312 0
M  V30 780 H 73.9209 -1.96207 -2.24823 0
M  V30 781 C 72.6699 -0.627746 -3.41986 0
M  V30 782 H 71.9929 -1.43656 -3.73099 0
M  V30 783 H 73.4329 -0.514053 -4.20872 0
M  V30 784 C 71.8919 0.664238 -3.30287 0
M  V30 785 O 72.4219 1.71268 -3.6336 0
M  V30 786 N 70.6279 0.641156 -2.83439 0
M  V30 787 H 70.1749 -0.212376 -2.56723 0
M  V30 788 H 70.1329 1.50583 -2.75993 0
M  V30 789 N 73.905 1.17692 -1.04816 0
M  V30 790 C 75.153 1.87488 -0.754497 0
M  V30 791 C 75.474 1.81205 0.720407 0
M  V30 792 O 74.744 1.23544 1.52032 0
M  V30 793 H 73.324 0.694101 -0.276102 0
M  V30 794 H 75.986 1.42793 -1.32651 0
M  V30 795 H 75.082 2.93328 -1.06606 0
M  V30 796 N 75.3831 0.828654 1.34056 0
M  V30 797 C 76.7991 0.515135 1.51058 0
M  V30 798 C 76.9991 -0.959581 1.77184 0
M  V30 799 O 76.0551 -1.74382 1.82612 0
M  V30 800 C 77.3681 1.37963 2.67183 0
M  V30 801 C 78.9161 1.37735 2.81066 0
M  V30 802 C 79.3911 2.22645 4.00241 0
M  V30 803 N 80.8821 2.203 4.07458 0
M  V30 804 C 81.6171 2.82744 4.98842 0
M  V30 805 N 81.1131 3.54201 5.9541 0
M  V30 806 N 82.9061 2.72268 4.91759 0
M  V30 807 H 75.0571 1.78343 1.15358 0
M  V30 808 H 77.3201 0.760304 0.566252 0
M  V30 809 H 77.0261 2.42714 2.54525 0
M  V30 810 H 76.9001 1.0484 3.62338 0
M  V30 811 H 79.2871 0.337593 2.93163 0
M  V30 812 H 79.3681 1.74859 1.86703 0
M  V30 813 H 79.0121 3.26674 3.88905 0
M  V30 814 H 78.9421 1.82869 4.93829 0
M  V30 815 H 81.4331 1.68327 3.38341 0
M  V30 816 H 81.7461 3.9908 6.61782 0
M  V30 817 H 80.0911 3.58308 5.95517 0
M  V30 818 H 83.2821 2.16014 4.15278 0
M  V30 819 H 83.4551 3.21219 5.62781 0
M  V30 820 N 76.8612 -1.46375 0.584142 0
M  V30 821 C 78.1012 -2.0427 0.0729695 0
M  V30 822 C 78.4652 -1.44563 -1.26355 0
M  V30 823 O 79.6662 -1.93667 -1.86405 0
M  V30 824 C 77.9372 -3.57399 0.00967464 0
M  V30 825 S 79.4962 -4.36551 -0.443714 0
M  V30 826 H 76.3142 -0.709975 0.0381673 0
M  V30 827 H 78.9162 -1.79398 0.776962 0
M  V30 828 H 77.6202 -3.98372 0.986319 0
M  V30 829 H 77.1512 -3.8681 -0.717044 0
M  V30 830 H 79.1662 -4.66237 -1.69816 0
M  V30 831 N 78.3393 -0.321999 -1.54275 0
M  V30 832 C 79.2873 0.560206 -2.25753 0
M  V30 833 C 80.2813 1.11984 -1.27106 0
M  V30 834 O 81.4873 1.06806 -1.44888 0
M  V30 835 H 77.8623 0.199304 -0.725108 0
M  V30 836 H 79.8333 -0.0649365 -2.98329 0
M  V30 837 C 78.5823 1.71023 -3.02731 0
M  V30 838 H 77.9053 1.28885 -3.78456 0
M  V30 839 H 79.3453 2.30314 -3.55993 0
M  V30 840 C 77.8043 2.62692 -2.10938 0
M  V30 841 O 78.3343 3.64364 -1.6912 0
M  V30 842 N 76.5403 2.30891 -1.76459 0
M  V30 843 H 76.0873 1.48253 -2.10663 0
M  V30 844 H 76.0453 2.92487 -1.1532 0
M  V30 845 N 79.8174 1.5752 -0.0501392 0
M  V30 846 C 81.0634 1.92936 0.624798 0
M  V30 847 C 81.3964 0.928685 1.70555 0
M  V30 848 O 80.6714 -0.0454779 1.94447 0
M  V30 849 C 80.9544 3.38737 1.22185 0
M  V30 850 C 80.8074 4.49552 0.149218 0
M  V30 851 C 82.1264 3.84913 2.13378 0
M  V30 852 H 79.2454 0.701604 0.225657 0
M  V30 853 H 81.8874 1.89671 -0.111693 0
M  V30 854 H 80.0374 3.4165 1.84953 0
M  V30 855 H 81.7094 4.58768 -0.482648 0
M  V30 856 H 79.9524 4.30638 -0.522841 0
M  V30 857 H 80.6234 5.48653 0.606966 0
M  V30 858 H 83.0994 3.8387 1.60572 0
M  V30 859 H 81.9754 4.87584 2.52097 0
M  V30 860 H 82.2364 3.21611 3.03346 0
M  V30 861 N 81.2955 -0.223234 1.56011 0
M  V30 862 C 82.2275 -1.30006 1.88762 0
M  V30 863 C 83.2405 -1.43129 0.775746 0
M  V30 864 O 84.4295 -1.44057 1.05403 0
M  V30 865 C 81.5295 -2.67589 2.07965 0
M  V30 866 C 80.7025 -2.76434 3.38973 0
M  V30 867 C 79.7615 -3.95019 3.47629 0
M  V30 868 O 78.7875 -3.83436 4.20672 0
M  V30 869 N 79.9895 -5.09249 2.78649 0
M  V30 870 H 82.7545 -1.02238 2.81722 0
M  V30 871 H 80.3155 -0.413278 1.56536 0
M  V30 872 H 82.3075 -3.45297 2.11073 0
M  V30 873 H 80.8775 -2.87964 1.21638 0
M  V30 874 H 80.0975 -1.85216 3.47978 0
M  V30 875 H 81.3855 -2.79313 4.25278 0
M  V30 876 H 80.7835 -5.21556 2.19081 0
M  V30 877 H 79.3405 -5.85007 2.8742 0
M  V30 878 N 82.7736 -1.49793 -0.48987 0
M  V30 879 C 83.7236 -1.63673 -1.5873 0
M  V30 880 C 84.7076 -0.491956 -1.53195 0
M  V30 881 O 85.8996 -0.745461 -1.60536 0
M  V30 882 C 83.0286 -1.71689 -2.97284 0
M  V30 883 C 82.1146 -2.91781 -3.07774 0
M  V30 884 N 82.5056 -4.15714 -2.88124 0
M  V30 885 C 80.8036 -2.89949 -3.38889 0
M  V30 886 C 81.5046 -4.965 -3.03088 0
M  V30 887 N 80.4806 -4.30083 -3.3246 0
M  V30 888 H 84.2826 -2.57204 -1.42208 0
M  V30 889 H 81.7966 -1.46719 -0.69623 0
M  V30 890 H 83.7936 -1.79732 -3.76168 0
M  V30 891 H 82.4536 -0.793024 -3.14867 0
M  V30 892 H 83.4646 -4.45515 -2.64077 0
M  V30 893 H 80.1416 -2.06987 -3.62578 0
M  V30 894 H 81.5316 -6.04991 -2.92294 0
M  V30 895 N 84.2517 0.741722 -1.39055 0
M  V30 896 C 85.4997 1.49818 -1.35643 0
M  V30 897 C 85.8207 1.94938 0.0491642 0
M  V30 898 O 85.0907 1.68505 0.999141 0
M  V30 899 H 83.6707 0.555755 -0.499144 0
M  V30 900 H 86.3327 0.880957 -1.73854 0
M  V30 901 H 85.4287 2.38348 -2.01486 0
M  V30 902 N 85.7298 1.2412 0.971189 0
M  V30 903 C 86.6778 1.02812 2.08644 0
M  V30 904 C 87.6718 -0.0358403 1.69362 0
M  V30 905 O 88.8778 0.118429 1.7961 0
M  V30 906 H 85.2528 0.315428 0.682649 0
M  V30 907 H 87.2238 1.97397 2.23779 0
M  V30 908 C 85.9728 0.645874 3.41649 0
M  V30 909 H 85.2958 1.45632 3.72332 0
M  V30 910 H 86.7358 0.536366 4.20594 0
M  V30 911 C 85.1948 -0.646713 3.30635 0
M  V30 912 O 85.7248 -1.69338 3.64263 0
M  V30 913 N 83.9308 -0.626115 2.83775 0
M  V30 914 H 83.4778 0.225988 2.56607 0
M  V30 915 H 83.4358 -1.49117 2.76788 0
M  V30 916 N 87.2079 -1.17134 1.05439 0
M  V30 917 C 88.1379 -2.2342 0.678649 0
M  V30 918 C 89.1189 -1.66971 -0.32476 0
M  V30 919 O 90.3039 -1.93149 -0.201802 0
M  V30 920 C 87.4339 -3.47256 0.0552099 0
M  V30 921 C 86.3879 -4.16543 0.98365 0
M  V30 922 C 85.7139 -5.34231 0.223961 0
M  V30 923 C 87.0139 -4.68495 2.3089 0
M  V30 924 H 88.7079 -2.55105 1.56722 0
M  V30 925 H 86.2539 -1.2262 0.754998 0
M  V30 926 H 88.2069 -4.20828 -0.21946 0
M  V30 927 H 86.9309 -3.14846 -0.868319 0
M  V30 928 H 85.5899 -3.44887 1.24293 0
M  V30 929 H 85.2379 -4.98071 -0.702412 0
M  V30 930 H 84.9379 -5.81527 0.842627 0
M  V30 931 H 86.4619 -6.10585 -0.0433671 0
M  V30 932 H 87.8759 -5.33691 2.09396 0
M  V30 933 H 86.2729 -5.26379 2.88176 0
M  V30 934 H 87.3429 -3.85169 2.94572 0
M  V30 935 N 88.686 -0.835752 -1.33615 0
M  V30 936 C 89.934 -0.429109 -1.97492 0
M  V30 937 C 90.255 1.01433 -1.66543 0
M  V30 938 O 89.525 1.70611 -0.962744 0
M  V30 939 H 88.105 -0.155686 -0.730596 0
M  V30 940 H 90.767 -1.06802 -1.63031 0
M  V30 941 H 89.863 -0.55861 -3.0706 0
M  V30 942 N 90.1641 1.46063 -0.591896 0
M  V30 943 C 91.3891 2.07226 -0.0850314 0
M  V30 944 C 91.8141 1.43625 1.21463 0
M  V30 945 O 91.1721 0.523305 1.73583 0
M  V30 946 C 91.2201 3.60554 0.0576567 0
M  V30 947 O 90.3241 3.97128 1.11188 0
M  V30 948 H 89.6651 0.660615 -0.0669568 0
M  V30 949 H 92.1951 1.8756 -0.81745 0
M  V30 950 H 92.2051 4.07165 0.2609 0
M  V30 951 H 90.8801 4.06235 -0.891416 0
M  V30 952 H 89.4571 3.62213 0.886356 0
M  V30 953 N 91.6422 0.330177 1.54103 0
M  V30 954 C 92.5522 -0.541534 2.28264 0
M  V30 955 C 93.5682 -1.12351 1.32866 0
M  V30 956 O 94.7442 -1.14206 1.65888 0
M  V30 957 C 91.8092 -1.68322 3.03098 0
M  V30 958 C 90.8702 -1.13238 4.14096 0
M  V30 959 C 90.1032 -2.21966 4.85352 0
M  V30 960 O 90.3262 -3.42437 4.56172 0
M  V30 961 O 89.2602 -1.87013 5.7211 0
M  V30 962 H 93.0862 0.060938 3.03639 0
M  V30 963 H 90.6712 0.09565 1.49093 0
M  V30 964 H 92.5532 -2.34777 3.49939 0
M  V30 965 H 91.2282 -2.27176 2.30593 0
M  V30 966 H 90.1352 -0.432736 3.71589 0
M  V30 967 H 91.4682 -0.588898 4.88664 0
M  V30 968 N 93.1203 -1.57491 0.0584922 0
M  V30 969 C 94.3483 -1.97296 -0.623037 0
M  V30 970 C 94.7633 -0.936338 -1.63946 0
M  V30 971 O 94.1203 0.0785981 -1.82331 0
M  V30 972 C 94.1713 -3.37183 -1.30345 0
M  V30 973 O 93.8923 -4.36872 -0.32773 0
M  V30 974 C 95.3933 -3.91788 -2.07406 0
M  V30 975 H 92.6133 -0.649153 -0.169826 0
M  V30 976 H 95.1573 -2.04106 0.12696 0
M  V30 977 H 93.3123 -3.31502 -2.00463 0
M  V30 978 H 93.7263 -5.18141 -0.814269 0
M  V30 979 H 95.2003 -4.91926 -2.50425 0
M  V30 980 H 95.6773 -3.27609 -2.92521 0
M  V30 981 H 96.2833 -4.00829 -1.42184 0
M  V30 982 N 94.5984 0.214957 -1.56127 0
M  V30 983 C 95.8234 0.95924 -1.83884 0
M  V30 984 C 96.2484 1.7689 -0.639644 0
M  V30 985 O 95.6064 1.76566 0.411601 0
M  V30 986 C 95.6544 1.84723 -3.09693 0
M  V30 987 O 94.7584 2.94346 -2.8885 0
M  V30 988 H 94.0994 0.27125 -0.606069 0
M  V30 989 H 96.6294 0.226276 -2.03345 0
M  V30 990 H 96.6394 2.25576 -3.39969 0
M  V30 991 H 95.3144 1.25218 -3.96602 0
M  V30 992 H 93.8914 2.57391 -2.69823 0
M  V30 993 N 96.0765 1.50051 0.48192 0
M  V30 994 C 97.4925 1.37237 0.814756 0
M  V30 995 C 97.6925 0.420109 1.97072 0
M  V30 996 O 96.7485 -0.141246 2.52105 0
M  V30 997 C 98.0615 2.78375 1.13701 0
M  V30 998 C 99.6095 2.87213 1.2441 0
M  V30 999 C 100.084 4.29161 1.59954 0
M  V30 1000 N 101.575 4.32061 1.66967 0
M  V30 1001 C 102.31 5.38879 1.95952 0
M  V30 1002 N 101.806 6.55918 2.23031 0
M  V30 1003 N 103.599 5.26312 1.97363 0
M  V30 1004 H 95.7505 2.10546 -0.28005 0
M  V30 1005 H 98.0135 0.945921 -0.0627454 0
M  V30 1006 H 97.7195 3.49845 0.360787 0
M  V30 1007 H 97.5935 3.14941 2.07586 0
M  V30 1008 H 99.9805 2.15969 2.01101 0
M  V30 1009 H 100.061 2.54204 0.285299 0
M  V30 1010 H 99.7055 5.00938 0.838067 0
M  V30 1011 H 99.6355 4.59648 2.56966 0
M  V30 1012 H 102.126 3.47661 1.48123 0
M  V30 1013 H 102.439 7.33139 2.44391 0
M  V30 1014 H 100.784 6.59112 2.20447 0
M  V30 1015 H 103.975 4.33876 1.75697 0
M  V30 1016 H 104.148 6.09649 2.19618 0
M  V30 1017 N 97.5546 -0.734337 1.39446 0
M  V30 1018 C 98.7846 -1.52137 1.39778 0
M  V30 1019 C 99.1926 -1.89198 -0.00929312 0
M  V30 1020 O 98.5356 -1.54666 -0.991168 0
M  V30 1021 C 98.5976 -2.83762 2.20724 0
M  V30 1022 C 98.2616 -2.69131 3.69347 0
M  V30 1023 C 99.2586 -2.37635 4.62413 0
M  V30 1024 C 96.9436 -2.85982 4.1294 0
M  V30 1025 C 98.9376 -2.23172 5.97054 0
M  V30 1026 C 96.6246 -2.71137 5.47657 0
M  V30 1027 C 97.6226 -2.39777 6.39528 0
M  V30 1028 O 97.3106 -2.25026 7.71763 0
M  V30 1029 H 97.0426 -0.476717 0.479288 0
M  V30 1030 H 99.5966 -0.915012 1.83893 0
M  V30 1031 H 97.8266 -3.4666 1.71359 0
M  V30 1032 H 99.5156 -3.45383 2.13226 0
M  V30 1033 H 100.282 -2.24267 4.30034 0
M  V30 1034 H 96.1606 -3.09383 3.41765 0
M  V30 1035 H 99.7046 -1.98617 6.68728 0
M  V30 1036 H 95.6016 -2.84083 5.79626 0
M  V30 1037 H 96.3696 -2.40091 7.82495 0
M  V30 1038 N 99.0327 -1.24633 -0.964593 0
M  V30 1039 C 99.9627 -1.06611 -2.07741 0
M  V30 1040 C 100.944 0.0218666 -1.70086 0
M  V30 1041 O 102.129 -0.145793 -1.93652 0
M  V30 1042 C 99.2587 -0.673444 -3.40708 0
M  V30 1043 C 98.2127 -1.71054 -3.92332 0
M  V30 1044 C 97.5387 -1.17285 -5.21678 0
M  V30 1045 C 98.8387 -3.10718 -4.19824 0
M  V30 1046 H 100.533 -1.99693 -2.23076 0
M  V30 1047 H 98.0787 -0.96152 -1.07195 0
M  V30 1048 H 100.032 -0.534345 -4.17998 0
M  V30 1049 H 98.7557 0.293073 -3.25282 0
M  V30 1050 H 97.4147 -1.83791 -3.17201 0
M  V30 1051 H 97.0627 -0.196847 -5.02615 0
M  V30 1052 H 96.7627 -1.86592 -5.57187 0
M  V30 1053 H 98.2867 -1.04593 -6.01575 0
M  V30 1054 H 99.7007 -3.01192 -4.87808 0
M  V30 1055 H 98.0977 -3.77406 -4.66567 0
M  V30 1056 H 99.1677 -3.58524 -3.26479 0
M  V30 1057 N 100.511 1.16574 -1.06058 0
M  V30 1058 C 101.736 1.91493 -0.796562 0
M  V30 1059 C 102.161 1.76773 0.642868 0
M  V30 1060 O 101.519 1.09142 1.44768 0
M  V30 1061 C 101.567 3.40293 -1.19303 0
M  V30 1062 O 100.671 4.11074 -0.330394 0
M  V30 1063 H 100.012 0.596678 -0.291326 0
M  V30 1064 H 102.542 1.47708 -1.41575 0
M  V30 1065 H 102.552 3.91057 -1.16356 0
M  V30 1066 H 101.227 3.50326 -2.24153 0
M  V30 1067 H 99.8038 3.70513 -0.421225 0
M  V30 1068 N 101.989 0.842826 1.3317 0
M  V30 1069 C 103.266 0.362216 1.92217 0
M  V30 1070 C 103.646 -1.15289 1.76838 0
M  V30 1071 O 102.994 -1.96914 1.15919 0
M  V30 1072 C 103.204 0.813495 3.39387 0
M  V30 1073 C 104.552 0.823804 4.16532 0
M  V30 1074 O 105.576 0.757358 3.48055 0
M  V30 1075 O 104.435 0.915193 5.38782 0
M  V30 1076 H 101.529 0.103317 0.820521 0
M  V30 1077 H 104.075 0.928942 1.42017 0
M  V30 1078 H 102.847 1.85624 3.4447 0
M  V30 1079 H 102.47 0.223561 3.96971 0
M  V30 1080 N 103.467 -1.45747 0.599634 0
M  V30 1081 C 104.397 -2.33235 -0.111306 0
M  V30 1082 C 105.378 -1.46359 -0.866781 0
M  V30 1083 O 106.563 -1.75146 -0.838904 0
M  V30 1084 C 103.693 -3.28932 -1.11451 0
M  V30 1085 C 102.647 -4.25381 -0.472772 0
M  V30 1086 C 101.973 -5.1071 -1.58365 0
M  V30 1087 C 103.273 -5.18831 0.600948 0
M  V30 1088 H 104.967 -2.92927 0.61919 0
M  V30 1089 H 102.513 -1.40857 0.299215 0
M  V30 1090 H 104.466 -3.89002 -1.62036 0
M  V30 1091 H 103.19 -2.67381 -1.8755 0
M  V30 1092 H 101.849 -3.66598 0.0121472 0
M  V30 1093 H 101.497 -4.45533 -2.33473 0
M  V30 1094 H 101.197 -5.7604 -1.15982 0
M  V30 1095 H 102.721 -5.73647 -2.09194 0
M  V30 1096 H 104.135 -5.73019 0.179491 0
M  V30 1097 H 102.532 -5.92595 0.946076 0
M  V30 1098 H 103.602 -4.6174 1.48068 0
M  V30 1099 N 104.945 -0.338344 -1.53925 0
M  V30 1100 C 106.192 0.259758 -2.00827 0
M  V30 1101 C 106.52 1.50973 -1.22628 0
M  V30 1102 O 105.775 1.93379 -0.300509 0
M  V30 1103 C 106.074 0.62448 -3.51902 0
M  V30 1104 C 105.74 -0.528006 -4.47798 0
M  V30 1105 C 104.402 -0.844298 -4.73735 0
M  V30 1106 C 106.754 -1.30143 -5.0469 0
M  V30 1107 C 104.082 -1.93648 -5.53821 0
M  V30 1108 C 106.434 -2.38382 -5.85967 0
M  V30 1109 C 105.098 -2.70576 -6.10201 0
M  V30 1110 H 104.368 0.0950523 -0.734878 0
M  V30 1111 H 107.015 -0.465182 -1.85764 0
M  V30 1112 H 105.32 1.43006 -3.64769 0
M  V30 1113 H 107.017 1.09905 -3.85645 0
M  V30 1114 H 103.607 -0.271421 -4.2774 0
M  V30 1115 H 107.791 -1.07033 -4.84621 0
M  V30 1116 H 103.047 -2.19021 -5.70824 0
M  V30 1117 H 107.221 -2.98746 -6.29066 0
M  V30 1118 H 104.848 -3.55333 -6.72044 0
M  V30 1119 N 106.423 1.57458 -0.0668435 0
M  V30 1120 C 107.651 1.97624 0.612565 0
M  V30 1121 C 108.066 0.94502 1.63447 0
M  V30 1122 O 107.423 -0.0689276 1.8237 0
M  V30 1123 C 107.474 3.37869 1.28555 0
M  V30 1124 O 107.195 4.3704 0.304557 0
M  V30 1125 C 108.696 3.92882 2.05325 0
M  V30 1126 H 105.916 0.650045 0.166381 0
M  V30 1127 H 108.46 2.04035 -0.137782 0
M  V30 1128 H 106.615 3.3256 1.98702 0
M  V30 1129 H 107.029 5.18565 0.786779 0
M  V30 1130 H 108.503 4.93247 2.47812 0
M  V30 1131 H 108.98 3.29156 2.9078 0
M  V30 1132 H 109.586 4.01577 1.40056 0
M  V30 1133 N 107.901 -0.206675 1.56239 0
M  V30 1134 C 109.129 -0.945345 1.8404 0
M  V30 1135 C 109.544 -1.77336 0.647885 0
M  V30 1136 O 108.901 -1.78425 -0.383511 0
M  V30 1137 C 108.952 -1.8509 3.10522 0
M  V30 1138 O 108.673 -1.05634 4.25174 0
M  V30 1139 C 110.174 -2.70222 3.51418 0
M  V30 1140 H 107.394 -0.276372 0.61144 0
M  V30 1141 H 109.938 -0.217417 2.03341 0
M  V30 1142 H 108.093 -2.53259 2.93153 0
M  V30 1143 H 108.507 -1.67238 4.97124 0
M  V30 1144 H 109.981 -3.29438 4.42916 0
M  V30 1145 H 110.458 -3.43358 2.73864 0
M  V30 1146 H 111.064 -2.07443 3.71278 0
M  V30 1147 N 109.379 -1.50304 -0.473955 0
M  V30 1148 C 110.309 -1.71886 -1.58042 0
M  V30 1149 C 111.29 -0.567799 -1.60344 0
M  V30 1150 O 112.475 -0.806623 -1.76656 0
M  V30 1151 C 109.605 -1.81036 -2.96384 0
M  V30 1152 C 108.559 -2.962 -3.08949 0
M  V30 1153 C 107.885 -2.9049 -4.48909 0
M  V30 1154 C 109.185 -4.36752 -2.86434 0
M  V30 1155 H 110.879 -2.64527 -1.40234 0
M  V30 1156 H 108.425 -1.27295 -0.673201 0
M  V30 1157 H 110.378 -1.94719 -3.73714 0
M  V30 1158 H 109.102 -0.850147 -3.15341 0
M  V30 1159 H 107.761 -2.82164 -2.3405 0
M  V30 1160 H 107.409 -1.92321 -4.64781 0
M  V30 1161 H 107.109 -3.67802 -4.58253 0
M  V30 1162 H 108.633 -3.06218 -5.28264 0
M  V30 1163 H 110.047 -4.5133 -3.53517 0
M  V30 1164 H 108.444 -5.15493 -3.07225 0
M  V30 1165 H 109.514 -4.49321 -1.82316 0
M  V30 1166 N 110.857 0.726932 -1.39834 0
M  V30 1167 C 112.103 1.48884 -1.377 0
M  V30 1168 C 112.436 1.94185 0.0244852 0
M  V30 1169 O 111.711 1.67361 0.990986 0
M  V30 1170 C 111.994 2.72288 -2.3565 0
M  V30 1171 C 111.847 2.32956 -3.84775 0
M  V30 1172 C 113.166 3.74414 -2.31306 0
M  V30 1173 H 110.285 0.540062 -0.5015 0
M  V30 1174 H 112.927 0.830547 -1.70886 0
M  V30 1175 H 111.077 3.28457 -2.07481 0
M  V30 1176 H 112.749 1.82356 -4.23726 0
M  V30 1177 H 110.992 1.65088 -4.01159 0
M  V30 1178 H 111.663 3.21362 -4.4881 0
M  V30 1179 H 114.139 3.27849 -2.56231 0
M  V30 1180 H 113.015 4.58414 -3.01907 0
M  V30 1181 H 113.276 4.21909 -1.32081 0
M  V30 1182 N 112.336 1.25143 0.95797 0
M  V30 1183 C 113.613 1.00472 1.67823 0
M  V30 1184 C 113.993 -0.470056 2.058 0
M  V30 1185 O 113.341 -1.44663 1.76875 0
M  V30 1186 C 113.551 1.9372 2.90299 0
M  V30 1187 C 114.899 2.21371 3.62326 0
M  V30 1188 O 115.923 1.91451 3.00375 0
M  V30 1189 O 114.782 2.72231 4.7387 0
M  V30 1190 H 111.876 0.380752 0.734137 0
M  V30 1191 H 114.422 1.36283 1.01119 0
M  V30 1192 H 113.194 2.93316 2.59001 0
M  V30 1193 H 112.817 1.58286 3.64735 0
M  V30 1194 N 113.814 -1.1601 1.06675 0
M  V30 1195 C 114.744 -2.22688 0.702307 0
M  V30 1196 C 115.725 -1.67306 -0.307032 0
M  V30 1197 O 116.91 -1.93352 -0.181305 0
M  V30 1198 C 114.04 -3.47178 0.092038 0
M  V30 1199 C 112.994 -4.15477 1.02777 0
M  V30 1200 C 112.32 -5.33963 0.28061 0
M  V30 1201 C 113.62 -4.66019 2.35846 0
M  V30 1202 H 115.314 -2.53429 1.59419 0
M  V30 1203 H 112.86 -1.21813 0.767961 0
M  V30 1204 H 114.813 -4.21037 -0.174814 0
M  V30 1205 H 113.537 -3.15749 -0.834877 0
M  V30 1206 H 112.196 -3.43549 1.27944 0
M  V30 1207 H 111.844 -4.98788 -0.649545 0
M  V30 1208 H 111.544 -5.806 0.904258 0
M  V30 1209 H 113.068 -6.10596 0.021396 0
M  V30 1210 H 114.482 -5.3144 2.15045 0
M  V30 1211 H 112.879 -5.23293 2.93743 0
M  V30 1212 H 113.949 -3.82023 2.98641 0
M  V30 1213 N 115.292 -0.849877 -1.32721 0
M  V30 1214 C 116.239 -0.289033 -2.28983 0
M  V30 1215 C 117.209 0.601324 -1.54833 0
M  V30 1216 O 118.394 0.537253 -1.8308 0
M  V30 1217 C 115.534 0.520623 -3.4115 0
M  V30 1218 C 114.647 -0.394989 -4.3019 0
M  V30 1219 C 113.782 0.426834 -5.29482 0
M  V30 1220 C 112.821 -0.486476 -6.10164 0
M  V30 1221 N 111.958 0.297879 -7.01468 0
M  V30 1222 H 116.798 -1.11519 -2.76347 0
M  V30 1223 H 114.335 -0.56138 -1.35967 0
M  V30 1224 H 116.293 1.00563 -4.04899 0
M  V30 1225 H 114.923 1.31165 -2.9495 0
M  V30 1226 H 113.975 -0.99836 -3.67065 0
M  V30 1227 H 115.287 -1.09612 -4.86607 0
M  V30 1228 H 114.441 0.975205 -5.98811 0
M  V30 1229 H 113.18 1.16136 -4.73671 0
M  V30 1230 H 112.185 -1.04677 -5.39743 0
M  V30 1231 H 113.41 -1.21953 -6.6806 0
M  V30 1232 H 111.356 1.01558 -6.48091 0
M  V30 1233 H 111.273 -0.344318 -7.55216 0
M  V30 1234 H 112.541 0.828131 -7.75089 0
M  V30 1235 N 116.77 1.45427 -0.607355 0
M  V30 1236 C 118.016 2.03097 -0.111035 0
M  V30 1237 C 118.371 1.46735 1.24445 0
M  V30 1238 O 117.664 0.632478 1.8086 0
M  V30 1239 C 117.858 3.57398 -0.0129263 0
M  V30 1240 C 117.687 4.28726 -1.35735 0
M  V30 1241 C 116.457 4.66659 -1.93798 0
M  V30 1242 C 118.655 4.60699 -2.28607 0
M  V30 1243 N 116.637 5.22845 -3.21723 0
M  V30 1244 C 118.008 5.17716 -3.41131 0
M  V30 1245 C 120.063 4.42638 -2.27982 0
M  V30 1246 C 118.766 5.58576 -4.53194 0
M  V30 1247 C 120.792 4.84531 -3.39093 0
M  V30 1248 C 120.154 5.4164 -4.50339 0
M  V30 1249 H 116.253 0.777476 -0.083994 0
M  V30 1250 H 118.837 1.77249 -0.805655 0
M  V30 1251 H 117.008 3.82907 0.650914 0
M  V30 1252 H 118.74 4.01722 0.490033 0
M  V30 1253 H 115.495 4.50207 -1.47007 0
M  V30 1254 H 115.919 5.55438 -3.87063 0
M  V30 1255 H 120.561 3.97798 -1.43235 0
M  V30 1256 H 118.279 6.02382 -5.38667 0
M  V30 1257 H 121.865 4.72289 -3.39757 0
M  V30 1258 H 120.745 5.73461 -5.34895 0
M  V30 1259 N 118.248 0.346503 1.53744 0
M  V30 1260 C 119.664 -0.00530975 1.59599 0
M  V30 1261 C 119.864 -1.48465 1.36236 0
M  V30 1262 O 118.92 -2.24376 1.15808 0
M  V30 1263 C 120.233 0.433516 2.97559 0
M  V30 1264 C 121.781 0.386111 3.10609 0
M  V30 1265 C 122.256 0.800451 4.50951 0
M  V30 1266 N 123.747 0.754753 4.5701 0
M  V30 1267 C 124.482 1.04727 5.63755 0
M  V30 1268 N 123.978 1.4081 6.7834 0
M  V30 1269 N 125.771 0.971316 5.53644 0
M  V30 1270 H 117.922 1.31009 1.67184 0
M  V30 1271 H 120.185 0.534242 0.783128 0
M  V30 1272 H 119.891 1.46509 3.19731 0
M  V30 1273 H 119.765 -0.189753 3.76722 0
M  V30 1274 H 122.152 -0.636295 2.88158 0
M  V30 1275 H 122.233 1.04462 2.33498 0
M  V30 1276 H 121.877 1.82088 4.74137 0
M  V30 1277 H 121.807 0.119386 5.26465 0
M  V30 1278 H 124.298 0.488662 3.74727 0
M  V30 1279 H 124.611 1.61607 7.55714 0
M  V30 1280 H 122.956 1.44657 6.79779 0
M  V30 1281 H 126.147 0.688748 4.63005 0
M  V30 1282 H 126.32 1.20263 6.36742 0
M  V30 1283 N 119.726 -1.57421 0.075193 0
M  V30 1284 C 120.972 -1.94716 -0.587998 0
M  V30 1285 C 121.327 -0.955205 -1.67014 0
M  V30 1286 O 120.62 0.0219842 -1.91587 0
M  V30 1287 C 120.814 -3.36428 -1.20626 0
M  V30 1288 C 120.643 -4.49317 -0.185541 0
M  V30 1289 C 119.413 -5.04772 0.23099 0
M  V30 1290 C 121.611 -5.11036 0.57854 0
M  V30 1291 N 119.593 -6.01204 1.24206 0
M  V30 1292 C 120.964 -6.02998 1.44199 0
M  V30 1293 C 123.019 -4.93844 0.634237 0
M  V30 1294 C 121.722 -6.79614 2.3562 0
M  V30 1295 C 123.748 -5.71106 1.53597 0
M  V30 1296 C 123.11 -6.6272 2.38709 0
M  V30 1297 H 119.209 -0.759536 -0.186089 0
M  V30 1298 H 121.793 -1.94097 0.153128 0
M  V30 1299 H 119.964 -3.37778 -1.9173 0
M  V30 1300 H 121.696 -3.60951 -1.8302 0
M  V30 1301 H 118.451 -4.73353 -0.152807 0
M  V30 1302 H 118.875 -6.54119 1.74521 0
M  V30 1303 H 123.517 -4.22799 -0.00960004 0
M  V30 1304 H 121.235 -7.49934 3.01038 0
M  V30 1305 H 124.821 -5.59824 1.58394 0
M  V30 1306 H 123.701 -7.2146 3.07352 0
M  V30 1307 N 121.204 0.198386 -1.56346 0
M  V30 1308 C 122.152 1.26538 -1.95169 0
M  V30 1309 C 123.146 1.47295 -0.836685 0
M  V30 1310 O 124.352 1.48195 -1.02167 0
M  V30 1311 H 120.727 0.424744 -0.620561 0
M  V30 1312 H 122.698 0.910904 -2.84157 0
M  V30 1313 C 121.447 2.6035 -2.30463 0
M  V30 1314 H 120.77 2.45192 -3.15786 0
M  V30 1315 H 122.21 3.33762 -2.61494 0
M  V30 1316 C 120.669 3.17096 -1.13806 0
M  V30 1317 O 121.199 3.99588 -0.41135 0
M  V30 1318 N 119.405 2.75795 -0.915736 0
M  V30 1319 H 118.952 2.08816 -1.50843 0
M  V30 1320 H 118.91 3.14101 -0.136979 0
M  V30 1321 N 122.682 1.50554 0.465978 0
M  V30 1322 C 123.612 1.72722 1.57128 0
M  V30 1323 C 124.593 0.576294 1.6004 0
M  V30 1324 O 125.778 0.81598 1.76225 0
M  V30 1325 C 122.908 1.82605 2.95419 0
M  V30 1326 C 121.862 2.97835 3.07373 0
M  V30 1327 C 121.188 2.92867 4.47363 0
M  V30 1328 C 122.488 4.38265 2.84114 0
M  V30 1329 H 124.182 2.65267 1.38829 0
M  V30 1330 H 121.728 1.2765 0.666441 0
M  V30 1331 H 123.681 1.96698 3.72677 0
M  V30 1332 H 122.405 0.866858 3.14886 0
M  V30 1333 H 121.064 2.83401 2.3255 0
M  V30 1334 H 120.712 1.94783 4.63755 0
M  V30 1335 H 120.412 3.70227 4.56296 0
M  V30 1336 H 121.936 3.09015 5.26633 0
M  V30 1337 H 123.35 4.53198 3.51118 0
M  V30 1338 H 121.747 5.17115 3.04487 0
M  V30 1339 H 122.817 4.50281 1.7993 0
M  V30 1340 N 124.16 -0.719506 1.40217 0
M  V30 1341 C 125.407 -1.47933 1.38283 0
M  V30 1342 C 125.735 -1.94493 -0.0161536 0
M  V30 1343 O 124.99 -1.68224 -0.999956 0
M  V30 1344 C 125.289 -2.72271 2.31524 0
M  V30 1345 C 124.955 -2.44496 3.78857 0
M  V30 1346 C 123.617 -2.36631 4.18998 0
M  V30 1347 C 125.969 -2.21104 4.71977 0
M  V30 1348 C 123.297 -2.03437 5.503 0
M  V30 1349 C 125.649 -1.89423 6.03574 0
M  V30 1350 C 124.313 -1.80038 6.42762 0
M  V30 1351 H 123.583 -0.541325 0.506012 0
M  V30 1352 H 126.23 -0.824502 1.72842 0
M  V30 1353 H 124.535 -3.42572 1.90137 0
M  V30 1354 H 126.232 -3.30348 2.27313 0
M  V30 1355 H 122.822 -2.51503 3.47051 0
M  V30 1356 H 127.006 -2.26139 4.41786 0
M  V30 1357 H 122.262 -1.94705 5.79569 0
M  V30 1358 H 126.436 -1.70336 6.75247 0
M  V30 1359 H 124.063 -1.54083 7.44421 0
M  V30 1360 N 125.638 -1.25649 -0.95132 0
M  V30 1361 C 126.887 -1.09988 -1.69073 0
M  V30 1362 C 127.2 0.358355 -1.92289 0
M  V30 1363 O 128.406 0.635466 -2.63958 0
M  V30 1364 C 126.862 -1.92012 -3.044 0
M  V30 1365 C 126.47 -3.42347 -2.88968 0
M  V30 1366 C 128.214 -1.8493 -3.82101 0
M  V30 1367 C 126.121 -4.16655 -4.19705 0
M  V30 1368 H 125.051 -0.407993 -0.63408 0
M  V30 1369 H 127.702 -1.49873 -1.05879 0
M  V30 1370 H 126.084 -1.44952 -3.68517 0
M  V30 1371 H 127.258 -3.97104 -2.33762 0
M  V30 1372 H 125.573 -3.50557 -2.24719 0
M  V30 1373 H 128.17 -2.37739 -4.78941 0
M  V30 1374 H 128.513 -0.817883 -4.08187 0
M  V30 1375 H 129.046 -2.29758 -3.2474 0
M  V30 1376 H 125.785 -5.20224 -3.98807 0
M  V30 1377 H 125.305 -3.66681 -4.74663 0
M  V30 1378 H 126.984 -4.24551 -4.88227 0
M  V30 1379 N 127.117 1.15442 -1.07289 0
M  V30 1380 C 128.364 1.86213 -0.795668 0
M  V30 1381 C 128.692 1.82291 0.678238 0
M  V30 1382 O 127.947 1.24057 1.51355 0
M  V30 1383 C 128.246 3.3489 -1.24834 0
M  V30 1384 C 127.912 3.59007 -2.72809 0
M  V30 1385 C 126.574 3.65298 -3.13227 0
M  V30 1386 C 128.926 3.68762 -3.68326 0
M  V30 1387 C 126.254 3.78854 -4.4798 0
M  V30 1388 C 128.606 3.83842 -5.0284 0
M  V30 1389 C 127.27 3.88378 -5.4288 0
M  V30 1390 H 126.54 0.681403 -0.291155 0
M  V30 1391 H 129.187 1.36435 -1.34379 0
M  V30 1392 H 127.492 3.8687 -0.619595 0
M  V30 1393 H 129.189 3.88052 -1.01076 0
M  V30 1394 H 125.779 3.5475 -2.40521 0
M  V30 1395 H 129.963 3.63202 -3.38227 0
M  V30 1396 H 125.219 3.80623 -4.78472 0
M  V30 1397 H 129.393 3.90332 -5.76727 0
M  V30 1398 H 127.02 3.98635 -6.47298 0
M  V30 1399 N 128.595 0.856903 1.32268 0
M  V30 1400 C 129.844 0.457599 1.96441 0
M  V30 1401 C 130.157 -0.992426 1.68553 0
M  V30 1402 O 131.363 -1.49727 2.26482 0
M  V30 1403 C 129.819 0.767358 3.51624 0
M  V30 1404 C 129.427 2.23326 3.88367 0
M  V30 1405 C 131.171 0.435887 4.22256 0
M  V30 1406 C 129.078 2.48613 5.36606 0
M  V30 1407 H 128.008 0.167387 0.735185 0
M  V30 1408 H 130.659 1.048 1.5063 0
M  V30 1409 H 129.041 0.106367 3.95857 0
M  V30 1410 H 130.215 2.93623 3.55137 0
M  V30 1411 H 128.53 2.52948 3.30766 0
M  V30 1412 H 131.127 0.602202 5.31298 0
M  V30 1413 H 131.47 -0.622672 4.11617 0
M  V30 1414 H 132.003 1.05286 3.83614 0
M  V30 1415 H 128.742 3.53101 5.52268 0
M  V30 1416 H 128.262 1.82896 5.71235 0
M  V30 1417 H 129.941 2.32676 6.03714 0
M  V30 1418 N 130.073 -1.45103 0.615059 0
M  V30 1419 C 131.003 -2.33339 -0.0865619 0
M  V30 1420 C 131.984 -1.4727 -0.851209 0
M  V30 1421 O 133.169 -1.76026 -0.820281 0
M  V30 1422 C 130.299 -3.30095 -1.07956 0
M  V30 1423 C 129.253 -4.25858 -0.427628 0
M  V30 1424 C 128.579 -5.12361 -1.5294 0
M  V30 1425 C 129.879 -5.18165 0.655944 0
M  V30 1426 H 131.573 -2.92254 0.650224 0
M  V30 1427 H 129.119 -1.40532 0.314138 0
M  V30 1428 H 131.072 -3.90698 -1.57901 0
M  V30 1429 H 129.796 -2.69355 -1.84703 0
M  V30 1430 H 128.455 -3.66564 0.0510292 0
M  V30 1431 H 128.103 -4.47984 -2.28734 0
M  V30 1432 H 127.803 -5.77238 -1.09865 0
M  V30 1433 H 129.327 -5.75833 -2.03098 0
M  V30 1434 H 130.741 -5.72796 0.240257 0
M  V30 1435 H 129.138 -5.91559 1.00888 0
M  V30 1436 H 130.208 -4.60144 1.52957 0
M  V30 1437 N 131.551 -0.354651 -1.53558 0
M  V30 1438 C 132.779 0.239515 -2.05509 0
M  V30 1439 C 133.194 1.4333 -1.2289 0
M  V30 1440 O 132.551 1.80538 -0.266899 0
M  V30 1441 C 132.602 0.643719 -3.55723 0
M  V30 1442 O 132.323 -0.502602 -4.35207 0
M  V30 1443 C 133.824 1.29743 -4.23889 0
M  V30 1444 H 131.044 0.0442697 -0.669538 0
M  V30 1445 H 133.588 -0.509856 -1.98042 0
M  V30 1446 H 131.743 1.34302 -3.63376 0
M  V30 1447 H 132.157 -0.178172 -5.24197 0
M  V30 1448 H 133.631 1.53091 -5.30346 0
M  V30 1449 H 134.108 2.25441 -3.76926 0
M  V30 1450 H 134.714 0.639865 -4.20459 0
M  V30 1451 N 133.029 1.57378 -0.0835403 0
M  V30 1452 C 134.259 1.97975 0.590713 0
M  V30 1453 C 134.667 0.961083 1.62972 0
M  V30 1454 O 134.01 -0.0590879 1.83605 0
M  V30 1455 C 134.072 3.34915 1.3066 0
M  V30 1456 C 133.736 4.55069 0.419698 0
M  V30 1457 C 134.733 5.18868 -0.32749 0
M  V30 1458 C 132.418 5.0114 0.341137 0
M  V30 1459 C 134.412 6.27098 -1.14134 0
M  V30 1460 C 132.099 6.0924 -0.476374 0
M  V30 1461 C 133.097 6.72083 -1.21627 0
M  V30 1462 O 132.785 7.781 -2.02028 0
M  V30 1463 H 132.517 0.655818 0.163947 0
M  V30 1464 H 135.071 2.04807 -0.156021 0
M  V30 1465 H 133.301 3.24733 2.09966 0
M  V30 1466 H 134.99 3.60037 1.87424 0
M  V30 1467 H 135.756 4.84211 -0.276459 0
M  V30 1468 H 131.635 4.51996 0.90668 0
M  V30 1469 H 135.179 6.7608 -1.71935 0
M  V30 1470 H 131.076 6.43329 -0.528927 0
M  V30 1471 H 131.844 7.95034 -1.94586 0
M  V30 1472 N 134.507 -0.190092 1.56449 0
M  V30 1473 C 135.735 -0.925772 1.85033 0
M  V30 1474 C 136.15 -1.76638 0.666658 0
M  V30 1475 O 135.507 -1.78822 -0.364565 0
M  V30 1476 C 135.558 -1.81786 3.12468 0
M  V30 1477 O 135.279 -1.01118 4.26271 0
M  V30 1478 C 136.78 -2.6648 3.54265 0
M  V30 1479 H 134 -0.269872 0.614337 0
M  V30 1480 H 136.544 -0.195837 2.0356 0
M  V30 1481 H 134.699 -2.50136 2.95822 0
M  V30 1482 H 135.113 -1.61956 4.98869 0
M  V30 1483 H 136.587 -3.24722 4.46385 0
M  V30 1484 H 137.064 -3.40434 2.77491 0
M  V30 1485 H 137.67 -2.03493 3.73458 0
M  V30 1486 N 135.985 -1.50799 -0.457987 0
M  V30 1487 C 137.231 -1.62683 -1.21088 0
M  V30 1488 C 137.564 -0.332268 -1.91336 0
M  V30 1489 O 136.839 0.667043 -1.82704 0
M  V30 1490 C 137.122 -2.81615 -2.24422 0
M  V30 1491 C 136.975 -4.20989 -1.58392 0
M  V30 1492 C 138.294 -2.96085 -3.2561 0
M  V30 1493 H 135.413 -0.592087 -0.438864 0
M  V30 1494 H 138.055 -1.83225 -0.50286 0
M  V30 1495 H 136.205 -2.64231 -2.84806 0
M  V30 1496 H 137.877 -4.49994 -1.01504 0
M  V30 1497 H 136.12 -4.24641 -0.886704 0
M  V30 1498 H 136.791 -5.0016 -2.33547 0
M  V30 1499 H 139.267 -3.12042 -2.75262 0
M  V30 1500 H 138.143 -3.80902 -3.95228 0
M  V30 1501 H 138.404 -2.0726 -3.90507 0
M  V30 1502 N 137.463 0.71206 -1.40597 0
M  V30 1503 C 138.426 1.80785 -1.40888 0
M  V30 1504 C 139.426 1.57937 -0.302103 0
M  V30 1505 O 140.616 1.64913 -0.561182 0
M  V30 1506 C 137.748 3.18927 -1.20409 0
M  V30 1507 H 138.941 1.81924 -2.38419 0
M  V30 1508 H 136.494 0.91805 -1.26497 0
M  V30 1509 H 137.229 3.23436 -0.236522 0
M  V30 1510 H 137.014 3.36911 -2.00582 0
M  V30 1511 H 138.504 3.98949 -1.23408 0
M  V30 1512 N 138.941 1.26152 0.944643 0
M  V30 1513 C 140.187 1.12665 1.69346 0
M  V30 1514 C 140.542 -0.3273 1.89596 0
M  V30 1515 O 139.835 -1.23717 1.46303 0
M  V30 1516 C 140.029 1.82541 3.07268 0
M  V30 1517 C 139.858 3.34582 3.00475 0
M  V30 1518 C 138.628 4.03863 3.03681 0
M  V30 1519 C 140.826 4.30828 2.80877 0
M  V30 1520 N 138.808 5.42603 2.87151 0
M  V30 1521 C 140.179 5.5672 2.7288 0
M  V30 1522 C 142.234 4.21122 2.65633 0
M  V30 1523 C 140.937 6.74013 2.51196 0
M  V30 1524 C 142.963 5.38118 2.45323 0
M  V30 1525 C 142.325 6.62955 2.38055 0
M  V30 1526 H 138.424 0.467041 0.627214 0
M  V30 1527 H 141.008 1.59391 1.11815 0
M  V30 1528 H 139.179 1.38296 3.62945 0
M  V30 1529 H 140.911 1.61708 3.70989 0
M  V30 1530 H 137.666 3.55198 3.1326 0
M  V30 1531 H 138.09 6.15443 2.82063 0
M  V30 1532 H 142.732 3.25344 2.70021 0
M  V30 1533 H 140.45 7.6989 2.4555 0
M  V30 1534 H 144.036 5.32475 2.34439 0
M  V30 1535 H 142.916 7.51959 2.22546 0
M  V30 1536 N 140.419 -1.14872 1.07899 0
M  V30 1537 C 141.349 -2.2193 0.725887 0
M  V30 1538 C 142.33 -1.67622 -0.28927 0
M  V30 1539 O 143.515 -1.93533 -0.160787 0
M  V30 1540 C 140.645 -3.47061 0.128856 0
M  V30 1541 C 139.599 -4.14363 1.07178 0
M  V30 1542 C 138.925 -5.33636 0.337229 0
M  V30 1543 C 140.225 -4.63492 2.40775 0
M  V30 1544 H 141.919 -2.51724 1.62097 0
M  V30 1545 H 139.465 -1.20991 0.780838 0
M  V30 1546 H 141.418 -4.21199 -0.130147 0
M  V30 1547 H 140.142 -3.16617 -0.80134 0
M  V30 1548 H 138.801 -3.42173 1.3158 0
M  V30 1549 H 138.449 -4.99449 -0.596606 0
M  V30 1550 H 138.149 -5.79609 0.965788 0
M  V30 1551 H 139.673 -6.10539 0.0861567 0
M  V30 1552 H 141.087 -5.2913 2.20669 0
M  V30 1553 H 139.484 -5.20148 2.99276 0
M  V30 1554 H 140.554 -3.78834 3.02676 0
M  V30 1555 N 141.898 -0.863906 -1.31812 0
M  V30 1556 C 143.145 -0.471836 -1.96926 0
M  V30 1557 C 143.473 0.974578 -1.68322 0
M  V30 1558 O 142.728 1.7003 -0.968933 0
M  V30 1559 C 143.027 -0.668547 -3.51091 0
M  V30 1560 C 142.693 -2.08683 -3.99703 0
M  V30 1561 C 141.355 -2.47471 -4.12688 0
M  V30 1562 C 143.707 -3.01207 -4.25351 0
M  V30 1563 C 141.035 -3.78037 -4.4867 0
M  V30 1564 C 143.387 -4.31282 -4.62794 0
M  V30 1565 C 142.051 -4.69992 -4.73987 0
M  V30 1566 H 141.321 -0.172657 -0.720604 0
M  V30 1567 H 143.968 -1.09573 -1.57054 0
M  V30 1568 H 142.273 0.0385252 -3.91781 0
M  V30 1569 H 143.97 -0.345102 -3.99512 0
M  V30 1570 H 140.56 -1.77566 -3.90087 0
M  V30 1571 H 144.744 -2.72469 -4.14819 0
M  V30 1572 H 140 -4.078 -4.55532 0
M  V30 1573 H 144.174 -5.03031 -4.81594 0
M  V30 1574 H 141.801 -5.71207 -5.01624 0
M  V30 1575 N 143.376 1.44774 -0.622745 0
M  V30 1576 C 144.309 2.27792 0.136329 0
M  V30 1577 C 145.287 1.38041 0.859264 0
M  V30 1578 O 146.471 1.67478 0.86506 0
M  V30 1579 C 143.598 3.16776 1.19878 0
M  V30 1580 C 142.644 4.22575 0.57731 0
M  V30 1581 S 143.477 5.31825 -0.626294 0
M  V30 1582 C 144.633 6.24377 0.436378 0
M  V30 1583 H 144.866 2.91824 -0.567967 0
M  V30 1584 H 142.399 1.48838 -0.410677 0
M  V30 1585 H 144.357 3.68596 1.80686 0
M  V30 1586 H 143.018 2.5198 1.87523 0
M  V30 1587 H 142.211 4.84818 1.37721 0
M  V30 1588 H 141.813 3.73974 0.0440439 0
M  V30 1589 H 144.105 6.64689 1.31128 0
M  V30 1590 H 145.048 7.07941 -0.150271 0
M  V30 1591 H 145.456 5.59381 0.758513 0
M  V30 1592 N 144.854 0.36279 1.53368 0
M  V30 1593 C 145.817 -0.472679 2.24273 0
M  V30 1594 C 146.817 -1.012 1.24961 0
M  V30 1595 O 148.007 -0.898194 1.49259 0
M  V30 1596 C 145.139 -1.66039 2.97731 0
M  V30 1597 H 146.332 0.14773 2.99536 0
M  V30 1598 H 143.885 0.114434 1.55881 0
M  V30 1599 H 144.62 -2.31896 2.26704 0
M  V30 1600 H 144.405 -1.28066 3.70596 0
M  V30 1601 H 145.895 -2.25252 3.51641 0
M  V30 1602 N 146.332 -1.57332 0.0918853 0
M  V30 1603 C 147.557 -1.98995 -0.584442 0
M  V30 1604 C 147.982 -0.970528 -1.61128 0
M  V30 1605 O 147.34 0.0613904 -1.81196 0
M  V30 1606 C 147.388 -3.39636 -1.21161 0
M  V30 1607 O 146.492 -3.40447 -2.32744 0
M  V30 1608 H 145.833 -0.647165 -0.148572 0
M  V30 1609 H 148.363 -2.03873 0.172347 0
M  V30 1610 H 148.373 -3.7726 -1.55367 0
M  V30 1611 H 147.048 -4.13356 -0.459313 0
M  V30 1612 H 145.625 -3.14614 -2.0018 0
M  V30 1613 N 147.81 0.181792 -1.56548 0
M  V30 1614 C 148.743 1.25366 -1.90679 0
M  V30 1615 C 149.721 1.43299 -0.768376 0
M  V30 1616 O 150.905 1.58475 -1.02068 0
M  V30 1617 C 148.032 2.61826 -2.1486 0
M  V30 1618 C 147.078 2.60688 -3.37556 0
M  V30 1619 S 147.911 2.10804 -4.92262 0
M  V30 1620 C 149.067 3.49062 -5.19525 0
M  V30 1621 H 149.3 0.962277 -2.81296 0
M  V30 1622 H 146.833 0.385892 -1.495 0
M  V30 1623 H 148.791 3.40371 -2.29473 0
M  V30 1624 H 147.452 2.88169 -1.24969 0
M  V30 1625 H 146.645 3.61058 -3.51643 0
M  V30 1626 H 146.247 1.90232 -3.22006 0
M  V30 1627 H 148.539 4.45003 -5.10861 0
M  V30 1628 H 149.482 3.39859 -6.2121 0
M  V30 1629 H 149.89 3.4459 -4.47122 0
M  V30 1630 N 149.288 1.51039 0.449983 0
M  V30 1631 C 150.534 1.64287 1.19923 0
M  V30 1632 C 150.889 0.348701 1.89214 0
M  V30 1633 O 150.182 -0.654751 1.80065 0
M  V30 1634 C 150.376 2.77556 2.25161 0
M  V30 1635 C 150.205 4.17862 1.66198 0
M  V30 1636 C 148.975 4.83976 1.45243 0
M  V30 1637 C 151.173 5.01388 1.14519 0
M  V30 1638 N 149.155 6.08433 0.817437 0
M  V30 1639 C 150.526 6.16743 0.634705 0
M  V30 1640 C 152.581 4.87008 1.03574 0
M  V30 1641 C 151.284 7.19295 0.0255452 0
M  V30 1642 C 153.31 5.89757 0.440489 0
M  V30 1643 C 152.672 7.04375 -0.0595112 0
M  V30 1644 H 148.771 0.655161 0.426952 0
M  V30 1645 H 151.355 1.88228 0.49781 0
M  V30 1646 H 149.526 2.553 2.92706 0
M  V30 1647 H 151.258 2.80049 2.92155 0
M  V30 1648 H 148.013 4.41627 1.71063 0
M  V30 1649 H 148.437 6.75017 0.517747 0
M  V30 1650 H 153.079 3.9866 1.4082 0
M  V30 1651 H 150.797 8.07302 -0.359071 0
M  V30 1652 H 154.383 5.80698 0.35788 0
M  V30 1653 H 153.263 7.82521 -0.512882 0
M  V30 1654 N 150.766 -0.704594 1.40972 0
M  V30 1655 C 152.012 -1.46546 1.41053 0
M  V30 1656 C 152.367 -1.92393 0.0159714 0
M  V30 1657 O 151.66 -1.66017 -0.956506 0
M  V30 1658 C 151.854 -2.698 2.34399 0
M  V30 1659 C 151.683 -2.36008 3.82793 0
M  V30 1660 C 150.453 -2.26812 4.51536 0
M  V30 1661 C 152.651 -1.99565 4.74003 0
M  V30 1662 N 150.633 -1.8581 5.85105 0
M  V30 1663 C 152.004 -1.69251 5.96451 0
M  V30 1664 C 154.059 -1.86296 4.61734 0
M  V30 1665 C 152.762 -1.27003 7.07999 0
M  V30 1666 C 154.788 -1.45452 5.73234 0
M  V30 1667 C 154.15 -1.16043 6.94776 0
M  V30 1668 H 150.249 -0.533896 0.571383 0
M  V30 1669 H 152.833 -0.816061 1.76773 0
M  V30 1670 H 151.004 -3.32473 2.00789 0
M  V30 1671 H 152.736 -3.36214 2.25261 0
M  V30 1672 H 149.491 -2.44913 4.05357 0
M  V30 1673 H 149.915 -1.67817 6.55871 0
M  V30 1674 H 154.557 -2.0769 3.68273 0
M  V30 1675 H 152.275 -1.04353 8.01334 0
M  V30 1676 H 155.861 -1.35748 5.65742 0
M  V30 1677 H 154.741 -0.84915 7.79589 0
M  V30 1678 N 152.244 -1.26651 -0.937939 0
M  V30 1679 C 153.49 -1.12553 -1.687 0
M  V30 1680 C 153.823 0.329782 -1.91379 0
M  V30 1681 O 153.098 1.24202 -1.4968 0
M  V30 1682 C 153.381 -1.89862 -3.05981 0
M  V30 1683 C 153.234 -3.43318 -2.90607 0
M  V30 1684 C 154.553 -1.69499 -4.0615 0
M  V30 1685 H 151.672 -0.410257 -0.612257 0
M  V30 1686 H 154.314 -1.55685 -1.08913 0
M  V30 1687 H 152.464 -1.53204 -3.57017 0
M  V30 1688 H 154.136 -3.89747 -2.46769 0
M  V30 1689 H 152.379 -3.70179 -2.26164 0
M  V30 1690 H 153.05 -3.92642 -3.8799 0
M  V30 1691 H 155.526 -2.01442 -3.64088 0
M  V30 1692 H 154.402 -2.26002 -5.00214 0
M  V30 1693 H 154.663 -0.640365 -4.37438 0
M  V30 1694 N 153.722 1.14298 -1.08507 0
M  V30 1695 C 154.971 1.84708 -0.810305 0
M  V30 1696 C 155.284 1.83903 0.666271 0
M  V30 1697 O 156.49 2.50112 1.05624 0
M  V30 1698 C 154.946 3.31572 -1.39957 0
M  V30 1699 C 154.554 3.40791 -2.90801 0
M  V30 1700 C 156.298 4.07087 -1.20334 0
M  V30 1701 C 154.205 4.81872 -3.4286 0
M  V30 1702 H 153.135 0.691985 -0.299454 0
M  V30 1703 H 155.786 1.28841 -1.30661 0
M  V30 1704 H 154.168 3.87183 -0.830976 0
M  V30 1705 H 155.342 2.95225 -3.53806 0
M  V30 1706 H 153.657 2.78732 -3.0935 0
M  V30 1707 H 156.254 5.11225 -1.56693 0
M  V30 1708 H 156.597 4.16054 -0.143237 0
M  V30 1709 H 157.13 3.57779 -1.73893 0
M  V30 1710 H 153.869 4.78094 -4.48449 0
M  V30 1711 H 153.389 5.27972 -2.84615 0
M  V30 1712 H 155.068 5.50765 -3.39509 0
M  V30 1713 N 155.201 0.870884 1.31352 0
M  V30 1714 C 156.164 0.332243 2.26779 0
M  V30 1715 C 157.164 -0.517302 1.52252 0
M  V30 1716 O 158.354 -0.326477 1.71113 0
M  V30 1717 C 155.486 -0.528066 3.36785 0
M  V30 1718 H 156.679 1.17469 2.75937 0
M  V30 1719 H 154.232 0.64655 1.423 0
M  V30 1720 H 154.967 -1.39167 2.92922 0
M  V30 1721 H 154.752 0.0802582 3.92018 0
M  V30 1722 H 156.242 -0.897179 4.07849 0
M  V30 1723 N 156.679 -1.44442 0.630414 0
M  V30 1724 C 157.909 -2.06115 0.141465 0
M  V30 1725 C 158.317 -1.47179 -1.1889 0
M  V30 1726 O 157.66 -0.588873 -1.74006 0
M  V30 1727 C 157.722 -3.59467 -0.0484355 0
M  V30 1728 C 157.386 -4.40864 1.20366 0
M  V30 1729 C 158.383 -4.74391 2.12719 0
M  V30 1730 C 156.068 -4.8125 1.43887 0
M  V30 1731 C 158.062 -5.47186 3.26904 0
M  V30 1732 C 155.749 -5.53795 2.5837 0
M  V30 1733 C 156.747 -5.86682 3.49705 0
M  V30 1734 O 156.435 -6.57749 4.62191 0
M  V30 1735 H 156.167 -0.671648 0.0765792 0
M  V30 1736 H 158.721 -1.86312 0.864695 0
M  V30 1737 H 156.951 -3.77758 -0.826803 0
M  V30 1738 H 158.64 -4.02909 -0.491849 0
M  V30 1739 H 159.406 -4.43728 1.95781 0
M  V30 1740 H 155.285 -4.55073 0.736853 0
M  V30 1741 H 158.829 -5.72773 3.98217 0
M  V30 1742 H 154.726 -5.83872 2.75251 0
M  V30 1743 H 155.494 -6.76217 4.61164 0
M  V30 1744 N 158.157 -0.370918 -1.53173 0
M  V30 1745 C 159.385 0.217704 -2.05751 0
M  V30 1746 C 159.8 1.42018 -1.24404 0
M  V30 1747 O 159.157 1.80245 -0.286033 0
M  V30 1748 C 159.208 0.605954 -3.56385 0
M  V30 1749 O 158.929 -0.548734 -4.3465 0
M  V30 1750 C 160.43 1.2524 -4.25241 0
M  V30 1751 H 157.65 0.0371659 -0.66997 0
M  V30 1752 H 160.194 -0.530832 -1.9749 0
M  V30 1753 H 158.349 1.3044 -3.6478 0
M  V30 1754 H 158.763 -0.23376 -5.23979 0
M  V30 1755 H 160.237 1.47458 -5.3194 0
M  V30 1756 H 160.714 2.2143 -3.79296 0
M  V30 1757 H 161.32 0.595233 -4.21114 0
M  V30 1758 N 159.635 1.57281 -0.100228 0
M  V30 1759 C 161.051 1.57527 0.256416 0
M  V30 1760 C 161.251 1.11173 1.68056 0
M  V30 1761 O 160.307 0.79053 2.39806 0
M  V30 1762 C 161.62 3.00673 0.0401747 0
M  V30 1763 C 163.168 3.12815 0.107528 0
M  V30 1764 C 163.643 4.57929 -0.0807834 0
M  V30 1765 N 165.134 4.63193 -0.0261207 0
M  V30 1766 C 165.869 5.73212 -0.146999 0
M  V30 1767 N 165.365 6.92047 -0.322999 0
M  V30 1768 N 167.158 5.62031 -0.0879044 0
M  V30 1769 H 159.309 1.85718 -1.03065 0
M  V30 1770 H 161.572 0.857446 -0.404339 0
M  V30 1771 H 161.278 3.38804 -0.943649 0
M  V30 1772 H 161.152 3.69042 0.780262 0
M  V30 1773 H 163.539 2.74554 1.08186 0
M  V30 1774 H 163.62 2.47028 -0.664134 0
M  V30 1775 H 163.264 4.96886 -1.05201 0
M  V30 1776 H 163.194 5.21783 0.710635 0
M  V30 1777 H 165.685 3.77748 0.107161 0
M  V30 1778 H 165.998 7.7173 -0.406608 0
M  V30 1779 H 164.343 6.94074 -0.358733 0
M  V30 1780 H 167.534 4.68075 0.048498 0
M  V30 1781 H 167.707 6.47734 -0.185557 0
M  V30 1782 N 161.113 -0.173488 1.56642 0
M  V30 1783 C 162.361 -0.888706 1.81512 0
M  V30 1784 C 162.682 -1.82875 0.676872 0
M  V30 1785 O 161.952 -1.93536 -0.303414 0
M  V30 1786 H 160.532 -0.331164 0.669582 0
M  V30 1787 H 163.194 -0.173823 1.94123 0
M  V30 1788 H 162.29 -1.46691 2.75478 0
M  V30 1789 N 162.591 -1.51276 -0.441967 0
M  V30 1790 C 163.868 -1.54252 -1.20273 0
M  V30 1791 C 164.248 -0.30408 -2.08898 0
M  V30 1792 O 163.596 0.711084 -2.17154 0
M  V30 1793 C 163.806 -2.85406 -2.00859 0
M  V30 1794 C 165.154 -3.37181 -2.58059 0
M  V30 1795 O 166.178 -2.86925 -2.11074 0
M  V30 1796 O 165.037 -4.24858 -3.43741 0
M  V30 1797 H 162.131 -0.619969 -0.547328 0
M  V30 1798 H 164.677 -1.63586 -0.451413 0
M  V30 1799 H 163.449 -3.67003 -1.35736 0
M  V30 1800 H 163.072 -2.79213 -2.83065 0
M  V30 1801 N 164.069 0.697108 -1.41344 0
M  V30 1802 C 164.999 1.82353 -1.45841 0
M  V30 1803 C 165.98 1.67115 -0.317247 0
M  V30 1804 O 167.165 1.86871 -0.528474 0
M  V30 1805 C 164.295 3.20476 -1.33838 0
M  V30 1806 C 163.249 3.50415 -2.4575 0
M  V30 1807 C 162.575 4.87878 -2.18813 0
M  V30 1808 C 163.875 3.49546 -3.88091 0
M  V30 1809 H 165.569 1.78846 -2.40113 0
M  V30 1810 H 163.115 0.859028 -1.15571 0
M  V30 1811 H 165.068 3.98988 -1.35596 0
M  V30 1812 H 163.792 3.24604 -0.360498 0
M  V30 1813 H 162.451 2.74253 -2.43271 0
M  V30 1814 H 162.099 4.8863 -1.19371 0
M  V30 1815 H 161.799 5.08875 -2.93803 0
M  V30 1816 H 163.323 5.68702 -2.22284 0
M  V30 1817 H 164.737 4.18066 -3.92293 0
M  V30 1818 H 163.134 3.82075 -4.62751 0
M  V30 1819 H 164.204 2.48552 -4.16353 0
M  V30 1820 N 165.547 1.27147 0.931209 0
M  V30 1821 C 166.495 1.09398 2.05268 0
M  V30 1822 C 167.489 0.0180591 1.6939 0
M  V30 1823 O 168.695 0.17551 1.79142 0
M  V30 1824 H 165.07 0.336986 0.672268 0
M  V30 1825 H 167.041 2.04416 2.17386 0
M  V30 1826 C 165.79 0.75424 3.39421 0
M  V30 1827 H 165.113 1.57404 3.67511 0
M  V30 1828 H 166.553 0.669903 4.18674 0
M  V30 1829 C 165.012 -0.541197 3.32525 0
M  V30 1830 O 165.542 -1.57664 3.69466 0
M  V30 1831 N 163.748 -0.535517 2.85623 0
M  V30 1832 H 163.295 0.307511 2.55758 0
M  V30 1833 H 163.253 -1.40236 2.81392 0
M  V30 1834 N 167.025 -1.13721 1.09112 0
M  V30 1835 C 167.972 -2.19031 0.727591 0
M  V30 1836 C 168.942 -1.63555 -0.289656 0
M  V30 1837 O 170.127 -1.90023 -0.172026 0
M  V30 1838 C 167.267 -3.4477 0.15082 0
M  V30 1839 C 166.38 -4.14365 1.22172 0
M  V30 1840 C 165.515 -5.27709 0.608042 0
M  V30 1841 C 164.554 -5.89147 1.66047 0
M  V30 1842 N 163.691 -6.93929 1.06806 0
M  V30 1843 H 168.531 -2.49475 1.62991 0
M  V30 1844 H 166.068 -1.22499 0.81439 0
M  V30 1845 H 168.026 -4.16714 -0.201358 0
M  V30 1846 H 166.656 -3.14787 -0.714783 0
M  V30 1847 H 165.708 -3.40737 1.69122 0
M  V30 1848 H 167.02 -4.56114 2.01895 0
M  V30 1849 H 166.174 -6.06355 0.204523 0
M  V30 1850 H 164.913 -4.872 -0.220769 0
M  V30 1851 H 163.918 -5.09198 2.07357 0
M  V30 1852 H 165.143 -6.31729 2.49189 0
M  V30 1853 H 163.089 -6.55483 0.260476 0
M  V30 1854 H 163.006 -7.34202 1.8023 0
M  V30 1855 H 164.274 -7.76434 0.690644 0
M  V30 1856 N 168.503 -0.877838 -1.30888 0
M  V30 1857 C 169.466 -0.344265 -2.266 0
M  V30 1858 C 170.466 0.50922 -1.52524 0
M  V30 1859 O 171.656 0.317398 -1.71284 0
M  V30 1860 C 168.788 0.510198 -3.37061 0
M  V30 1861 H 169.981 -1.1893 -2.7531 0
M  V30 1862 H 167.534 -0.654088 -1.41956 0
M  V30 1863 H 168.269 1.37612 -2.93655 0
M  V30 1864 H 168.054 -0.101047 -3.9197 0
M  V30 1865 H 169.544 0.875537 -4.08319 0
M  V30 1866 N 169.982 1.44106 -0.638065 0
M  V30 1867 C 170.932 2.27843 0.0847285 0
M  V30 1868 C 171.916 1.39055 0.809471 0
M  V30 1869 O 173.108 1.62808 0.694435 0
M  V30 1870 C 170.237 3.26497 1.06089 0
M  V30 1871 C 169.323 4.22772 0.33541 0
M  V30 1872 N 169.714 5.01737 -0.639787 0
M  V30 1873 C 168.012 4.42227 0.578921 0
M  V30 1874 C 168.713 5.71792 -1.06904 0
M  V30 1875 N 167.689 5.42079 -0.406395 0
M  V30 1876 H 171.491 2.86305 -0.663814 0
M  V30 1877 H 169.005 1.55627 -0.464122 0
M  V30 1878 H 171.002 3.8525 1.59337 0
M  V30 1879 H 169.662 2.69595 1.80966 0
M  V30 1880 H 170.673 5.07799 -1.01789 0
M  V30 1881 H 167.35 3.96415 1.31003 0
M  V30 1882 H 168.74 6.45205 -1.8751 0
M  V30 1883 N 171.46 0.379036 1.52974 0
M  V30 1884 C 172.706 -0.206727 2.01744 0
M  V30 1885 C 173.039 -1.47314 1.26539 0
M  V30 1886 O 172.314 -1.91084 0.362903 0
M  V30 1887 C 172.597 -0.485066 3.56818 0
M  V30 1888 C 172.45 0.795919 4.42702 0
M  V30 1889 C 173.769 -1.28003 4.21074 0
M  V30 1890 H 170.888 -0.0736607 0.73331 0
M  V30 1891 H 173.53 0.506581 1.83122 0
M  V30 1892 H 171.68 -1.09272 3.72816 0
M  V30 1893 H 173.352 1.43307 4.38476 0
M  V30 1894 H 171.595 1.41344 4.10127 0
M  V30 1895 H 172.266 0.555947 5.49193 0
M  V30 1896 H 174.742 -0.765867 4.08991 0
M  V30 1897 H 173.618 -1.44352 5.29579 0
M  V30 1898 H 173.879 -2.29236 3.78026 0
M  V30 1899 N 172.938 -1.57226 0.108567 0
M  V30 1900 C 174.186 -1.94448 -0.550853 0
M  V30 1901 C 174.507 -0.992074 -1.67878 0
M  V30 1902 O 173.777 -0.0465 -1.95845 0
M  V30 1903 H 172.357 -0.717897 -0.206479 0
M  V30 1904 H 175.019 -1.94112 0.175062 0
M  V30 1905 H 174.115 -2.97218 -0.952259 0
M  V30 1906 N 174.416 0.165178 -1.56732 0
M  V30 1907 C 175.364 1.22369 -1.97809 0
M  V30 1908 C 176.358 1.45488 -0.867741 0
M  V30 1909 O 177.564 1.45995 -1.05288 0
M  V30 1910 H 173.939 0.411486 -0.629431 0
M  V30 1911 H 175.91 0.850425 -2.86025 0
M  V30 1912 C 174.659 2.55403 -2.35934 0
M  V30 1913 H 173.982 2.38438 -3.20916 0
M  V30 1914 H 175.422 3.2814 -2.68514 0
M  V30 1915 C 173.881 3.14611 -1.20506 0
M  V30 1916 O 174.411 3.98626 -0.496016 0
M  V30 1917 N 172.617 2.7379 -0.97403 0
M  V30 1918 H 172.164 2.0557 -1.55238 0
M  V30 1919 H 172.122 3.1374 -0.203573 0
M  V30 1920 N 175.894 1.51508 0.433938 0
M  V30 1921 C 177.124 1.67914 1.20369 0
M  V30 1922 C 177.532 0.377461 1.85397 0
M  V30 1923 O 176.875 -0.654255 1.71654 0
M  V30 1924 C 176.937 2.74045 2.32679 0
M  V30 1925 C 176.601 4.16543 1.87991 0
M  V30 1926 C 177.598 5.01211 1.38145 0
M  V30 1927 C 175.283 4.6266 1.95579 0
M  V30 1928 C 177.277 6.30056 0.964774 0
M  V30 1929 C 174.964 5.91501 1.53523 0
M  V30 1930 C 175.962 6.75027 1.04055 0
M  V30 1931 O 175.65 8.01459 0.625964 0
M  V30 1932 H 175.382 0.566578 0.368735 0
M  V30 1933 H 177.936 1.98709 0.51999 0
M  V30 1934 H 176.166 2.38572 3.04336 0
M  V30 1935 H 177.855 2.79295 2.94532 0
M  V30 1936 H 178.621 4.66783 1.31675 0
M  V30 1937 H 174.5 3.97767 2.33029 0
M  V30 1938 H 178.044 6.95202 0.57796 0
M  V30 1939 H 173.941 6.25442 1.59665 0
M  V30 1940 H 174.709 8.15043 0.751509 0
M  V30 1941 N 177.372 -0.689602 1.41712 0
M  V30 1942 C 178.6 -1.47827 1.44758 0
M  V30 1943 C 179.015 -1.88721 0.0545703 0
M  V30 1944 O 178.372 -1.57176 -0.927463 0
M  V30 1945 C 178.423 -2.73698 2.3616 0
M  V30 1946 O 178.144 -2.34524 3.7004 0
M  V30 1947 C 179.645 -3.67389 2.48072 0
M  V30 1948 H 176.865 -0.455357 0.49284 0
M  V30 1949 H 179.409 -0.848574 1.86063 0
M  V30 1950 H 177.564 -3.32891 1.98148 0
M  V30 1951 H 177.978 -3.15701 4.18847 0
M  V30 1952 H 179.452 -4.52475 3.16181 0
M  V30 1953 H 179.929 -4.12284 1.51388 0
M  V30 1954 H 180.535 -3.14097 2.86746 0
M  V30 1955 N 178.85 -1.27639 -0.924453 0
M  V30 1956 C 180.261 -1.12834 -1.48746 0
M  V30 1957 C 180.612 0.285505 -1.94112 0
M  V30 1958 O 179.737 1.17874 -1.81479 0
M  V30 1959 C 180.332 -2.04217 -2.70334 0
M  V30 1960 C 178.891 -1.93509 -3.22848 0
M  V30 1961 C 178.038 -1.96583 -1.95577 0
M  V30 1962 H 180.989 -1.40484 -0.738233 0
M  V30 1963 H 181.01 -1.59989 -3.4523 0
M  V30 1964 H 180.522 -3.07111 -2.37285 0
M  V30 1965 H 178.623 -0.936131 -3.60649 0
M  V30 1966 H 178.736 -2.79917 -3.88823 0
M  V30 1967 H 177.1 -1.4085 -2.12211 0
M  V30 1968 H 177.883 -3.01137 -1.64837 0
M  V30 1969 N 180.328 1.1314 -1.09713 0
M  V30 1970 C 181.568 1.8613 -0.844683 0
M  V30 1971 C 181.932 1.81765 0.618491 0
M  V30 1972 O 183.133 2.50024 0.98699 0
M  V30 1973 C 181.404 3.30151 -1.36877 0
M  V30 1974 S 182.963 4.206 -1.25064 0
M  V30 1975 H 179.781 0.642056 -0.305427 0
M  V30 1976 H 182.383 1.36343 -1.4011 0
M  V30 1977 H 181.087 3.30883 -2.42786 0
M  V30 1978 H 180.618 3.85 -0.808614 0
M  V30 1979 H 182.633 4.95783 -0.203486 0
M  V30 1980 N 181.806 0.884767 1.30421 0
M  V30 1981 C 183.052 0.503851 1.96441 0
M  V30 1982 C 183.385 -0.944518 1.69684 0
M  V30 1983 O 182.66 -1.66737 1.00145 0
M  V30 1984 C 182.943 0.779085 3.51571 0
M  V30 1985 C 182.796 2.27807 3.87846 0
M  V30 1986 C 184.115 0.255452 4.39358 0
M  V30 1987 H 181.234 0.184533 0.713524 0
M  V30 1988 H 183.876 1.10872 1.54297 0
M  V30 1989 H 182.026 0.264274 3.876 0
M  V30 1990 H 183.698 2.86127 3.61841 0
M  V30 1991 H 181.941 2.74479 3.35922 0
M  V30 1992 H 182.612 2.42125 4.96064 0
M  V30 1993 H 185.088 0.696079 4.10236 0
M  V30 1994 H 183.964 0.477361 5.4682 0
M  V30 1995 H 184.225 -0.843293 4.33983 0
M  V30 1996 N 183.284 -1.43765 0.645699 0
M  V30 1997 C 184.247 -2.29163 -0.0409488 0
M  V30 1998 C 185.247 -1.41813 -0.757996 0
M  V30 1999 O 186.437 -1.63527 -0.600382 0
M  V30 2000 C 183.569 -3.23716 -1.06869 0
M  V30 2001 H 184.762 -2.91366 0.710345 0
M  V30 2002 H 182.315 -1.5092 0.406547 0
M  V30 2003 H 183.05 -2.66393 -1.84947 0
M  V30 2004 H 182.835 -3.88105 -0.558277 0
M  V30 2005 H 184.325 -3.87831 -1.54845 0
M  V30 2006 N 184.763 -0.387143 -1.52771 0
M  V30 2007 C 185.711 0.463953 -2.27926 0
M  V30 2008 C 186.705 1.06493 -1.31741 0
M  V30 2009 O 187.911 1.00565 -1.49287 0
M  V30 2010 H 184.286 0.16837 -0.732909 0
M  V30 2011 H 186.257 -0.19141 -2.97785 0
M  V30 2012 C 185.006 1.5803 -3.09713 0
M  V30 2013 H 184.329 1.12718 -3.83581 0
M  V30 2014 H 185.769 2.15008 -3.65442 0
M  V30 2015 C 184.228 2.53509 -2.2189 0
M  V30 2016 O 184.758 3.56863 -1.84422 0
M  V30 2017 N 182.964 2.23199 -1.86093 0
M  V30 2018 H 182.511 1.39185 -2.16761 0
M  V30 2019 H 182.469 2.87333 -1.27621 0
M  V30 2020 N 186.241 1.57166 -0.116904 0
M  V30 2021 C 187.487 1.95412 0.542405 0
M  V30 2022 C 187.82 1.00019 1.66463 0
M  V30 2023 O 187.095 0.0370346 1.94465 0
M  V30 2024 C 187.378 3.43615 1.07708 0
M  V30 2025 C 187.231 4.49781 -0.0415868 0
M  V30 2026 C 188.55 3.93616 1.96861 0
M  V30 2027 H 185.669 0.710543 0.195696 0
M  V30 2028 H 188.311 1.89027 -0.192038 0
M  V30 2029 H 186.461 3.49187 1.70296 0
M  V30 2030 H 188.133 4.56308 -0.676793 0
M  V30 2031 H 186.376 4.28033 -0.705019 0
M  V30 2032 H 187.047 5.50733 0.373717 0
M  V30 2033 H 189.523 3.90335 1.44146 0
M  V30 2034 H 188.399 4.97838 2.3119 0
M  V30 2035 H 188.66 3.34188 2.89432 0
M  V30 2036 N 187.719 -0.156864 1.56817 0
M  V30 2037 C 188.949 -0.885031 1.86684 0
M  V30 2038 C 189.357 -1.75696 0.701954 0
M  V30 2039 O 188.7 -1.80569 -0.337732 0
M  V30 2040 C 188.762 -1.80092 3.11138 0
M  V30 2041 C 188.426 -1.10714 4.43386 0
M  V30 2042 C 189.423 -0.465714 5.1781 0
M  V30 2043 C 187.108 -1.09959 4.90117 0
M  V30 2044 C 189.102 0.174002 6.37162 0
M  V30 2045 C 186.789 -0.456055 6.09396 0
M  V30 2046 C 187.787 0.179622 6.82764 0
M  V30 2047 O 187.475 0.812975 7.99779 0
M  V30 2048 H 187.207 -0.261813 0.623242 0
M  V30 2049 H 189.761 -0.157383 2.04796 0
M  V30 2050 H 187.991 -2.56926 2.89009 0
M  V30 2051 H 189.68 -2.40018 3.27332 0
M  V30 2052 H 190.446 -0.463427 4.82781 0
M  V30 2053 H 186.325 -1.58378 4.3294 0
M  V30 2054 H 189.869 0.670765 6.94368 0
M  V30 2055 H 185.766 -0.455975 6.43888 0
M  V30 2056 H 186.534 0.71366 8.15383 0
M  V30 2057 N 189.197 -1.51736 -0.425897 0
M  V30 2058 C 190.145 -1.74464 -1.53834 0
M  V30 2059 C 191.139 -0.611241 -1.57988 0
M  V30 2060 O 192.345 -0.792899 -1.61596 0
M  V30 2061 H 188.72 -0.551437 -0.511293 0
M  V30 2062 H 190.691 -2.67694 -1.31843 0
M  V30 2063 C 189.44 -1.8972 -2.91379 0
M  V30 2064 H 188.763 -2.76344 -2.88919 0
M  V30 2065 H 190.203 -2.09629 -3.68553 0
M  V30 2066 C 188.662 -0.65992 -3.30374 0
M  V30 2067 O 189.192 0.180083 -4.01296 0
M  V30 2068 N 187.398 -0.500677 -2.86254 0
M  V30 2069 H 186.945 -1.18532 -2.28709 0
M  V30 2070 H 186.903 0.325903 -3.12706 0
M  V30 2071 N 190.675 0.682077 -1.42076 0
M  V30 2072 C 191.922 1.44215 -1.42156 0
M  V30 2073 C 192.25 1.94468 -0.0354186 0
M  V30 2074 O 191.505 1.70816 0.955002 0
M  V30 2075 C 191.804 2.66036 -2.38662 0
M  V30 2076 C 191.47 2.34366 -3.85206 0
M  V30 2077 C 190.132 2.25439 -4.25124 0
M  V30 2078 C 192.484 2.08513 -4.77673 0
M  V30 2079 C 189.812 1.88775 -5.55501 0
M  V30 2080 C 192.164 1.73354 -6.08384 0
M  V30 2081 C 190.828 1.62933 -6.47309 0
M  V30 2082 H 190.098 0.527718 -0.520187 0
M  V30 2083 H 192.745 0.778387 -1.74967 0
M  V30 2084 H 191.05 3.3741 -1.99152 0
M  V30 2085 H 192.747 3.24205 -2.35991 0
M  V30 2086 H 189.337 2.42213 -3.53597 0
M  V30 2087 H 193.521 2.14346 -4.47626 0
M  V30 2088 H 188.777 1.7927 -5.84527 0
M  V30 2089 H 192.951 1.52373 -6.79526 0
M  V30 2090 H 190.578 1.34292 -7.48244 0
M  V30 2091 N 192.153 1.28127 0.917671 0
M  V30 2092 C 193.564 1.13622 1.48145 0
M  V30 2093 C 193.915 -0.275207 1.9426 0
M  V30 2094 O 193.04 -1.1691 1.82102 0
M  V30 2095 C 193.635 2.05648 2.69248 0
M  V30 2096 C 192.194 1.95219 3.21818 0
M  V30 2097 C 191.341 1.97618 1.94532 0
M  V30 2098 H 194.292 1.40874 0.730772 0
M  V30 2099 H 194.313 1.61818 3.44377 0
M  V30 2100 H 193.825 3.08365 2.35653 0
M  V30 2101 H 191.926 0.955244 3.60147 0
M  V30 2102 H 192.039 2.81976 3.87333 0
M  V30 2103 H 190.403 1.41973 2.11461 0
M  V30 2104 H 191.186 3.02007 1.63238 0
M  V30 2105 N 193.631 -1.12557 1.10312 0
M  V30 2106 C 194.856 -1.88405 0.867085 0
M  V30 2107 C 195.281 -1.79038 -0.576817 0
M  V30 2108 O 194.639 -1.14439 -1.40618 0
M  V30 2109 C 194.687 -3.3563 1.31851 0
M  V30 2110 O 193.791 -4.09565 0.482734 0
M  V30 2111 H 193.132 -0.585455 0.313271 0
M  V30 2112 H 195.662 -1.42352 1.4696 0
M  V30 2113 H 195.672 -3.86469 1.3079 0
M  V30 2114 H 194.347 -3.41765 2.37001 0
M  V30 2115 H 192.924 -3.68695 0.558448 0
M  V30 2116 N 195.109 -0.891671 -1.2995 0
M  V30 2117 C 196.072 -0.36828 -2.26222 0
M  V30 2118 C 197.072 0.493014 -1.53056 0
M  V30 2119 O 198.262 0.299213 -1.71611 0
M  V30 2120 C 195.394 0.47442 -3.37583 0
M  V30 2121 H 196.587 -1.21844 -2.74033 0
M  V30 2122 H 194.14 -0.669107 -1.41254 0
M  V30 2123 H 194.875 1.34489 -2.95099 0
M  V30 2124 H 194.66 -0.142615 -3.91841 0
M  V30 2125 H 196.15 0.83218 -4.09224 0
M  V30 2126 N 196.587 1.43421 -0.653314 0
M  V30 2127 C 197.834 2.01812 -0.166745 0
M  V30 2128 C 198.162 1.51535 1.21931 0
M  V30 2129 O 197.417 0.698975 1.82792 0
M  V30 2130 C 197.716 3.57176 -0.126623 0
M  V30 2131 C 197.382 4.26798 -1.45444 0
M  V30 2132 C 196.044 4.45534 -1.81805 0
M  V30 2133 C 198.396 4.66225 -2.32989 0
M  V30 2134 C 195.724 5.00961 -3.05377 0
M  V30 2135 C 198.076 5.23021 -3.55853 0
M  V30 2136 C 196.74 5.39973 -3.9241 0
M  V30 2137 H 196.01 0.738484 -0.0610162 0
M  V30 2138 H 198.657 1.71896 -0.84404 0
M  V30 2139 H 196.962 3.86634 0.634123 0
M  V30 2140 H 198.659 4.00112 0.266723 0
M  V30 2141 H 195.249 4.12561 -1.16153 0
M  V30 2142 H 199.433 4.51443 -2.06187 0
M  V30 2143 H 194.689 5.12271 -3.3375 0
M  V30 2144 H 198.863 5.52518 -4.23907 0
M  V30 2145 H 196.49 5.82687 -4.88242 0
M  V30 2146 N 198.065 0.39524 1.52563 0
M  V30 2147 C 198.995 -0.428384 2.29537 0
M  V30 2148 C 199.976 -1.05831 1.33169 0
M  V30 2149 O 201.161 -1.06995 1.62067 0
M  V30 2150 C 198.291 -1.55274 3.10656 0
M  V30 2151 C 197.245 -1.04855 4.14957 0
M  V30 2152 C 196.571 -2.26543 4.84337 0
M  V30 2153 C 197.871 -0.112324 5.22179 0
M  V30 2154 H 199.565 0.213867 2.98635 0
M  V30 2155 H 197.111 0.104298 1.43622 0
M  V30 2156 H 199.064 -2.1358 3.63265 0
M  V30 2157 H 197.788 -2.22266 2.39302 0
M  V30 2158 H 196.447 -0.487985 3.63338 0
M  V30 2159 H 196.095 -2.92059 4.09525 0
M  V30 2160 H 195.795 -1.93466 5.54837 0
M  V30 2161 H 197.319 -2.85481 5.39753 0
M  V30 2162 H 198.733 -0.603752 5.70112 0
M  V30 2163 H 197.13 0.128968 5.99961 0
M  V30 2164 H 198.2 0.837052 4.77621 0
M  V30 2165 N 199.544 -1.57102 0.125237 0
M  V30 2166 C 200.791 -1.95407 -0.531248 0
M  V30 2167 C 201.119 -1.0089 -1.66287 0
M  V30 2168 O 200.374 -0.0339431 -1.95671 0
M  V30 2169 C 200.673 -3.40096 -1.09862 0
M  V30 2170 C 200.339 -4.50815 -0.0876989 0
M  V30 2171 C 199.001 -4.80824 0.19026 0
M  V30 2172 C 201.353 -5.17724 0.600902 0
M  V30 2173 C 198.681 -5.75058 1.163 0
M  V30 2174 C 201.033 -6.13005 1.56231 0
M  V30 2175 C 199.697 -6.41403 1.8482 0
M  V30 2176 H 198.967 -0.715046 -0.194397 0
M  V30 2177 H 201.614 -1.90373 0.207463 0
M  V30 2178 H 199.919 -3.41855 -1.91422 0
M  V30 2179 H 201.616 -3.6705 -1.61478 0
M  V30 2180 H 198.206 -4.27444 -0.314528 0
M  V30 2181 H 202.39 -4.94691 0.399333 0
M  V30 2182 H 197.646 -5.95362 1.39117 0
M  V30 2183 H 201.82 -6.63934 2.10153 0
M  V30 2184 H 199.447 -7.14229 2.60349 0
M  V30 2185 N 201.022 0.148545 -1.56898 0
M  V30 2186 C 202.269 0.861418 -1.83264 0
M  V30 2187 C 202.597 1.81239 -0.705883 0
M  V30 2188 O 201.852 1.93305 0.305212 0
M  V30 2189 C 202.151 1.67064 -3.1595 0
M  V30 2190 C 201.817 0.866591 -4.42494 0
M  V30 2191 C 200.479 0.644762 -4.76861 0
M  V30 2192 C 202.831 0.30418 -5.20312 0
M  V30 2193 C 200.159 -0.15021 -5.86508 0
M  V30 2194 C 202.511 -0.477824 -6.30793 0
M  V30 2195 C 201.175 -0.710244 -6.63711 0
M  V30 2196 H 200.445 0.315215 -0.670612 0
M  V30 2197 H 203.092 0.125142 -1.91091 0
M  V30 2198 H 201.397 2.47698 -3.03567 0
M  V30 2199 H 203.094 2.22566 -3.33565 0
M  V30 2200 H 199.684 1.04955 -4.15551 0
M  V30 2201 H 203.868 0.462844 -4.94137 0
M  V30 2202 H 199.124 -0.339796 -6.10455 0
M  V30 2203 H 203.298 -0.92076 -6.90286 0
M  V30 2204 H 200.925 -1.3281 -7.48509 0
M  V30 2205 N 202.5 1.5196 0.417844 0
M  V30 2206 C 203.749 1.6482 1.16264 0
M  V30 2207 C 204.062 0.379886 1.91876 0
M  V30 2208 O 205.268 0.388154 2.68711 0
M  V30 2209 C 203.724 2.91161 2.1155 0
M  V30 2210 C 203.332 4.25068 1.41495 0
M  V30 2211 C 205.076 3.13383 2.86341 0
M  V30 2212 C 202.983 5.42541 2.35379 0
M  V30 2213 H 201.913 0.613954 0.437694 0
M  V30 2214 H 204.564 1.78442 0.427871 0
M  V30 2215 H 202.946 2.71218 2.88543 0
M  V30 2216 H 204.12 4.55463 0.699263 0
M  V30 2217 H 202.435 4.0888 0.787792 0
M  V30 2218 H 205.032 3.98324 3.5671 0
M  V30 2219 H 205.375 2.27256 3.48798 0
M  V30 2220 H 205.908 3.33757 2.1645 0
M  V30 2221 H 202.647 6.30987 1.77582 0
M  V30 2222 H 202.167 5.16497 3.04945 0
M  V30 2223 H 203.846 5.75272 2.96093 0
M  V30 2224 N 203.978 -0.674533 1.42435 0
M  V30 2225 C 204.888 -1.81751 1.48337 0
M  V30 2226 C 205.904 -1.69975 0.372099 0
M  V30 2227 O 207.08 -1.91521 0.62304 0
M  V30 2228 C 204.145 -3.17895 1.38361 0
M  V30 2229 C 203.206 -3.41625 2.59982 0
M  V30 2230 C 202.439 -4.71274 2.50473 0
M  V30 2231 O 202.662 -5.49197 1.54075 0
M  V30 2232 O 201.596 -4.96254 3.4061 0
M  V30 2233 H 205.422 -1.79728 2.44809 0
M  V30 2234 H 203.007 -0.830312 1.24202 0
M  V30 2235 H 204.889 -3.99136 1.35161 0
M  V30 2236 H 203.564 -3.20555 0.450144 0
M  V30 2237 H 202.471 -2.60231 2.68757 0
M  V30 2238 H 203.804 -3.43796 3.52229 0
M  V30 2239 N 205.456 -1.28612 -0.910864 0
M  V30 2240 C 206.684 -1.18792 -1.69399 0
M  V30 2241 C 207.099 0.253039 -1.87097 0
M  V30 2242 O 206.456 1.17071 -1.40003 0
M  V30 2243 C 206.507 -1.88511 -3.08457 0
M  V30 2244 O 206.228 -3.26979 -2.91576 0
M  V30 2245 C 207.729 -1.85029 -4.02839 0
M  V30 2246 H 204.949 -0.412233 -0.529438 0
M  V30 2247 H 207.493 -1.69788 -1.13984 0
M  V30 2248 H 205.648 -1.41379 -3.60681 0
M  V30 2249 H 206.062 -3.61936 -3.79608 0
M  V30 2250 H 207.536 -2.38395 -4.97867 0
M  V30 2251 H 208.013 -0.823303 -4.31414 0
M  V30 2252 H 208.619 -2.31853 -3.56545 0
M  V30 2253 N 206.934 1.1197 -1.10907 0
M  V30 2254 C 207.844 2.21433 -0.774896 0
M  V30 2255 C 208.86 1.72478 0.229657 0
M  V30 2256 O 210.036 2.01288 0.0672008 0
M  V30 2257 C 207.101 3.4602 -0.216986 0
M  V30 2258 C 206.162 4.09791 -1.27944 0
M  V30 2259 C 205.395 5.28431 -0.748055 0
M  V30 2260 O 205.618 5.68823 0.423833 0
M  V30 2261 O 204.552 5.82644 -1.51027 0
M  V30 2262 H 208.378 2.5242 -1.68873 0
M  V30 2263 H 205.963 1.20399 -0.884555 0
M  V30 2264 H 207.845 4.21304 0.090059 0
M  V30 2265 H 206.52 3.16698 0.669633 0
M  V30 2266 H 205.427 3.36265 -1.63941 0
M  V30 2267 H 206.76 4.4328 -2.13925 0
M  V30 2268 N 208.412 0.89855 1.29475 0
M  V30 2269 C 209.375 0.380272 2.26023 0
M  V30 2270 C 210.375 -0.484891 1.53315 0
M  V30 2271 O 211.565 -0.290108 1.71767 0
M  V30 2272 C 208.697 -0.45651 3.3783 0
M  V30 2273 H 209.89 1.23295 2.73383 0
M  V30 2274 H 207.443 0.676589 1.40897 0
M  V30 2275 H 208.178 -1.32922 2.95808 0
M  V30 2276 H 207.963 0.163393 3.91759 0
M  V30 2277 H 209.453 -0.810466 4.0966 0
M  V30 2278 N 209.89 -1.43072 0.660911 0
M  V30 2279 C 211.118 -2.06067 0.185422 0
M  V30 2280 C 211.533 -1.49582 -1.15198 0
M  V30 2281 O 210.89 -0.630134 -1.71276 0
M  V30 2282 C 210.941 -3.61371 0.0966523 0
M  V30 2283 O 210.662 -4.15758 1.38119 0
M  V30 2284 C 212.163 -4.41455 -0.403996 0
M  V30 2285 H 209.383 -0.664459 0.0934604 0
M  V30 2286 H 211.927 -1.83447 0.90373 0
M  V30 2287 H 210.082 -3.8315 -0.572259 0
M  V30 2288 H 210.496 -5.09499 1.24542 0
M  V30 2289 H 211.97 -5.50437 -0.415045 0
M  V30 2290 H 212.447 -4.15036 -1.43674 0
M  V30 2291 H 213.053 -4.24663 0.232691 0
M  V30 2292 N 211.368 -0.403325 -1.52352 0
M  V30 2293 C 212.617 0.175668 -2.00934 0
M  V30 2294 C 212.93 1.46718 -1.29356 0
M  V30 2295 O 214.136 2.12708 -1.68724 0
M  V30 2296 C 212.592 0.363612 -3.58058 0
M  V30 2297 C 212.2 -0.915472 -4.38547 0
M  V30 2298 C 213.944 0.89821 -4.14888 0
M  V30 2299 C 211.851 -0.695035 -5.87302 0
M  V30 2300 H 210.781 0.0694234 -0.750797 0
M  V30 2301 H 213.432 -0.527879 -1.75743 0
M  V30 2302 H 211.814 1.12935 -3.79555 0
M  V30 2303 H 212.988 -1.68691 -4.28812 0
M  V30 2304 H 211.303 -1.37606 -3.93006 0
M  V30 2305 H 213.9 1.07907 -5.23699 0
M  V30 2306 H 214.243 1.87126 -3.71873 0
M  V30 2307 H 214.776 0.191681 -3.97338 0
M  V30 2308 H 211.515 -1.63948 -6.34666 0
M  V30 2309 H 211.035 0.0372116 -5.99788 0
M  V30 2310 H 212.714 -0.33497 -6.46132 0
M  V30 2311 N 212.846 1.57033 -0.133567 0
M  V30 2312 C 214.094 1.953 0.519848 0
M  V30 2313 C 214.415 1.01866 1.66278 0
M  V30 2314 O 213.685 0.0776513 1.95746 0
M  V30 2315 H 212.265 0.721091 0.195032 0
M  V30 2316 H 214.927 1.93809 -0.205921 0
M  V30 2317 H 214.023 2.98695 0.904854 0
M  V30 2318 N 214.325 -0.140222 1.56975 0
M  V30 2319 C 215.555 -0.865181 1.87612 0
M  V30 2320 C 215.963 -1.74942 0.72055 0
M  V30 2321 O 215.306 -1.80917 -0.318561 0
M  V30 2322 C 215.368 -1.76782 3.13031 0
M  V30 2323 C 215.032 -1.06005 4.44536 0
M  V30 2324 C 216.029 -0.410768 5.18275 0
M  V30 2325 C 213.714 -1.04754 4.91255 0
M  V30 2326 C 215.708 0.241572 6.36942 0
M  V30 2327 C 213.395 -0.391394 6.09845 0
M  V30 2328 C 214.393 0.252029 6.82535 0
M  V30 2329 O 214.081 0.897757 7.98871 0
M  V30 2330 H 213.813 -0.255188 0.625983 0
M  V30 2331 H 216.367 -0.135653 2.04952 0
M  V30 2332 H 214.597 -2.53846 2.91718 0
M  V30 2333 H 216.286 -2.36533 3.29859 0
M  V30 2334 H 217.052 -0.412195 4.83245 0
M  V30 2335 H 212.931 -1.53777 4.34596 0
M  V30 2336 H 216.475 0.744375 6.93617 0
M  V30 2337 H 212.372 -0.387656 6.44335 0
M  V30 2338 H 213.14 0.800102 8.1458 0
M  V30 2339 N 215.803 -1.52179 -0.40978 0
M  V30 2340 C 217.051 -1.65878 -1.15451 0
M  V30 2341 C 217.372 -0.390771 -1.91044 0
M  V30 2342 O 216.642 0.594323 -1.86667 0
M  V30 2343 H 215.222 -0.611405 -0.429177 0
M  V30 2344 H 217.884 -1.89219 -0.467134 0
M  V30 2345 H 216.98 -2.49954 -1.86894 0
M  V30 2346 N 217.281 0.66697 -1.42791 0
M  V30 2347 C 218.511 1.45294 -1.46878 0
M  V30 2348 C 218.919 1.89027 -0.0809861 0
M  V30 2349 O 218.262 1.59219 0.916246 0
M  V30 2350 C 218.324 2.72908 -2.34012 0
M  V30 2351 C 217.988 2.51203 -3.81767 0
M  V30 2352 C 218.985 2.15302 -4.73224 0
M  V30 2353 C 216.67 2.65954 -4.26115 0
M  V30 2354 C 218.664 1.94431 -6.07022 0
M  V30 2355 C 216.351 2.44699 -5.59969 0
M  V30 2356 C 217.349 2.08992 -6.5024 0
M  V30 2357 O 217.037 1.87948 -7.81621 0
M  V30 2358 H 216.769 0.453306 -0.501487 0
M  V30 2359 H 219.323 0.826232 -1.88049 0
M  V30 2360 H 217.553 3.38089 -1.87703 0
M  V30 2361 H 219.242 3.34816 -2.29462 0
M  V30 2362 H 220.008 2.03495 -4.40244 0
M  V30 2363 H 215.887 2.92724 -3.56137 0
M  V30 2364 H 219.431 1.66484 -6.77443 0
M  V30 2365 H 215.328 2.56105 -5.9252 0
M  V30 2366 H 216.096 2.02483 -7.93059 0
M  V30 2367 N 218.759 1.29093 0.90403 0
M  V30 2368 C 220.175 1.07011 1.1841 0
M  V30 2369 C 220.375 -0.181358 2.00682 0
M  V30 2370 O 219.431 -0.880331 2.36657 0
M  V30 2371 C 220.744 2.32311 1.90924 0
M  V30 2372 C 222.292 2.37587 2.03768 0
M  V30 2373 C 222.767 3.62679 2.79693 0
M  V30 2374 N 224.258 3.63376 2.87249 0
M  V30 2375 C 224.993 4.56848 3.46522 0
M  V30 2376 N 224.489 5.60648 4.06996 0
M  V30 2377 N 226.282 4.44426 3.44154 0
M  V30 2378 H 218.433 2.09412 0.354993 0
M  V30 2379 H 220.696 0.922181 0.219742 0
M  V30 2380 H 220.402 3.23536 1.37905 0
M  V30 2381 H 220.276 2.39483 2.91424 0
M  V30 2382 H 222.663 1.46853 2.55965 0
M  V30 2383 H 222.744 2.34403 1.02415 0
M  V30 2384 H 222.388 4.53762 2.28173 0
M  V30 2385 H 222.318 3.63119 3.81381 0
M  V30 2386 H 224.809 2.88321 2.44293 0
M  V30 2387 H 225.122 6.28101 4.50232 0
M  V30 2388 H 223.467 5.64463 4.05471 0
M  V30 2389 H 226.658 3.62529 2.96126 0
M  V30 2390 H 226.831 5.17457 3.90054 0
M  V30 2391 N 220.237 -1.11381 1.11499 0
M  V30 2392 C 221.467 -1.86663 0.885464 0
M  V30 2393 C 221.875 -1.80464 -0.568281 0
M  V30 2394 O 221.218 -1.18445 -1.40415 0
M  V30 2395 C 221.28 -3.36337 1.26956 0
M  V30 2396 C 220.944 -3.66304 2.73259 0
M  V30 2397 C 221.941 -3.63733 3.71476 0
M  V30 2398 C 219.626 -3.9529 3.09921 0
M  V30 2399 C 221.62 -3.89725 5.04374 0
M  V30 2400 C 219.307 -4.20941 4.43004 0
M  V30 2401 C 220.305 -4.18147 5.40039 0
M  V30 2402 O 219.993 -4.43153 6.70724 0
M  V30 2403 H 219.725 -0.597114 0.316908 0
M  V30 2404 H 222.279 -1.41782 1.48617 0
M  V30 2405 H 220.509 -3.81826 0.611999 0
M  V30 2406 H 222.198 -3.92986 1.01573 0
M  V30 2407 H 222.964 -3.41389 3.44498 0
M  V30 2408 H 218.843 -3.966 2.35009 0
M  V30 2409 H 222.387 -3.8746 5.80104 0
M  V30 2410 H 218.284 -4.42761 4.69716 0
M  V30 2411 H 219.052 -4.60717 6.76522 0
M  V30 2412 N 221.715 -0.905404 -1.28997 0
M  V30 2413 C 222.964 -0.530191 -1.94607 0
M  V30 2414 C 223.277 0.929185 -1.72121 0
M  V30 2415 O 224.483 1.41218 -2.31883 0
M  V30 2416 C 222.939 -0.897333 -3.48534 0
M  V30 2417 C 222.547 -2.37587 -3.79811 0
M  V30 2418 C 224.291 -0.592304 -4.20347 0
M  V30 2419 C 222.198 -2.68357 -5.27009 0
M  V30 2420 H 221.128 -0.194558 -0.728466 0
M  V30 2421 H 223.779 -1.10318 -1.46636 0
M  V30 2422 H 222.161 -0.253214 -3.9519 0
M  V30 2423 H 223.335 -3.06602 -3.43994 0
M  V30 2424 H 221.65 -2.6505 -3.2115 0
M  V30 2425 H 224.247 -0.798975 -5.28697 0
M  V30 2426 H 224.59 0.469474 -4.13644 0
M  V30 2427 H 225.123 -1.19452 -3.79442 0
M  V30 2428 H 221.862 -3.73355 -5.38782 0
M  V30 2429 H 221.382 -2.03971 -5.64053 0
M  V30 2430 H 223.061 -2.54922 -5.94663 0
M  V30 2431 N 223.193 1.4272 -0.668489 0
M  V30 2432 C 224.421 2.05966 -0.196348 0
M  V30 2433 C 224.836 1.50191 1.14403 0
M  V30 2434 O 224.193 0.639208 1.7094 0
M  V30 2435 C 224.244 3.61314 -0.115815 0
M  V30 2436 O 223.965 4.1502 -1.40322 0
M  V30 2437 C 225.466 4.41663 0.380579 0
M  V30 2438 H 222.686 0.663954 -0.0969829 0
M  V30 2439 H 225.23 1.82966 -0.913446 0
M  V30 2440 H 223.385 3.83448 0.551931 0
M  V30 2441 H 223.799 5.08832 -1.27243 0
M  V30 2442 H 225.273 5.5065 0.385848 0
M  V30 2443 H 225.75 4.15792 1.41471 0
M  V30 2444 H 226.356 4.24534 -0.255209 0
M  V30 2445 N 224.671 0.411399 1.52136 0
M  V30 2446 C 225.948 -0.222308 1.94333 0
M  V30 2447 C 226.328 -1.6242 1.34844 0
M  V30 2448 O 225.676 -2.22384 0.525145 0
M  V30 2449 C 225.886 -0.226345 3.48265 0
M  V30 2450 C 227.234 -0.444592 4.22266 0
M  V30 2451 O 228.258 -0.305602 3.54887 0
M  V30 2452 O 227.117 -0.718749 5.41753 0
M  V30 2453 H 224.211 -0.143907 0.814383 0
M  V30 2454 H 226.757 0.467506 1.63133 0
M  V30 2455 H 225.529 0.75475 3.83952 0
M  V30 2456 H 225.152 -0.960163 3.85832 0
M  V30 2457 N 226.149 -1.5696 0.141893 0
M  V30 2458 C 227.096 -2.16501 -0.799737 0
M  V30 2459 C 228.066 -1.09643 -1.24771 0
M  V30 2460 O 229.251 -1.3766 -1.32115 0
M  V30 2461 C 226.391 -2.78679 -2.03549 0
M  V30 2462 C 225.504 -3.99914 -1.6338 0
M  V30 2463 C 224.639 -4.50106 -2.82096 0
M  V30 2464 C 223.678 -5.63819 -2.38275 0
M  V30 2465 N 222.815 -6.08651 -3.49983 0
M  V30 2466 H 227.655 -2.96632 -0.285179 0
M  V30 2467 H 225.192 -1.46533 -0.129053 0
M  V30 2468 H 227.15 -3.1287 -2.75986 0
M  V30 2469 H 225.78 -2.012 -2.52425 0
M  V30 2470 H 224.832 -3.71735 -0.807279 0
M  V30 2471 H 226.144 -4.82311 -1.27192 0
M  V30 2472 H 225.298 -4.86325 -3.62729 0
M  V30 2473 H 224.037 -3.66706 -3.21525 0
M  V30 2474 H 223.042 -5.2718 -1.56081 0
M  V30 2475 H 224.267 -6.49 -1.99938 0
M  V30 2476 H 222.213 -5.28188 -3.89042 0
M  V30 2477 H 222.13 -6.85961 -3.17794 0
M  V30 2478 H 223.398 -6.49515 -4.30988 0
M  V30 2479 N 227.627 0.131896 -1.57047 0
M  V30 2480 C 228.867 0.847972 -1.85981 0
M  V30 2481 C 229.231 1.77655 -0.7282 0
M  V30 2482 O 230.432 2.53322 -0.898968 0
M  V30 2483 C 228.703 1.58919 -3.20124 0
M  V30 2484 S 230.262 2.34862 -3.70655 0
M  V30 2485 H 227.08 0.283273 -0.652133 0
M  V30 2486 H 229.682 0.107057 -1.95207 0
M  V30 2487 H 228.386 0.898771 -4.00438 0
M  V30 2488 H 227.917 2.37073 -3.13942 0
M  V30 2489 H 229.932 3.60344 -3.41126 0
M  V30 2490 N 229.106 1.52395 0.401703 0
M  V30 2491 C 230.517 1.58899 0.980202 0
M  V30 2492 C 230.868 0.434032 1.91339 0
M  V30 2493 O 229.993 -0.444619 2.11783 0
M  V30 2494 C 230.588 2.87994 1.78451 0
M  V30 2495 C 229.147 2.96953 2.31292 0
M  V30 2496 C 228.294 2.53903 1.11483 0
M  V30 2497 H 231.245 1.57657 0.18168 0
M  V30 2498 H 231.266 2.73765 2.64259 0
M  V30 2499 H 230.778 3.72035 1.10506 0
M  V30 2500 H 228.879 2.17422 3.02586 0
M  V30 2501 H 228.992 4.01344 2.61649 0
M  V30 2502 H 227.356 2.07925 1.47104 0
M  V30 2503 H 228.139 3.40326 0.450928 0
M  V30 2504 N 230.584 -0.659388 1.43143 0
M  V30 2505 C 231.494 -1.80167 1.50256 0
M  V30 2506 C 232.51 -1.69571 0.390106 0
M  V30 2507 O 233.686 -1.90849 0.643319 0
M  V30 2508 C 230.751 -3.16409 1.41725 0
M  V30 2509 C 229.812 -3.38848 2.63591 0
M  V30 2510 C 229.045 -4.68591 2.55458 0
M  V30 2511 O 229.268 -5.47532 1.59891 0
M  V30 2512 O 228.202 -4.92614 3.45854 0
M  V30 2513 H 232.028 -1.77121 2.46702 0
M  V30 2514 H 229.613 -0.817092 1.25076 0
M  V30 2515 H 231.495 -3.9768 1.39387 0
M  V30 2516 H 230.17 -3.20059 0.484118 0
M  V30 2517 H 229.077 -2.57366 2.71502 0
M  V30 2518 H 230.41 -3.4004 3.55856 0
M  V30 2519 N 232.062 -1.29571 -0.897171 0
M  V30 2520 C 233.31 -1.17456 -1.64464 0
M  V30 2521 C 233.631 0.273698 -1.9307 0
M  V30 2522 O 232.901 1.18684 -1.55855 0
M  V30 2523 H 231.481 -0.431706 -0.609622 0
M  V30 2524 H 234.143 -1.62531 -1.07562 0
M  V30 2525 H 233.239 -1.72648 -2.59998 0
M  V30 2526 N 233.54 1.10788 -1.12088 0
M  V30 2527 C 234.789 1.82036 -0.868659 0
M  V30 2528 C 235.102 1.85929 0.607426 0
M  V30 2529 O 236.308 2.53346 0.97613 0
M  V30 2530 C 234.764 3.26951 -1.50435 0
M  V30 2531 C 234.372 3.31367 -3.01496 0
M  V30 2532 C 236.116 4.03053 -1.33225 0
M  V30 2533 C 234.023 4.7072 -3.58017 0
M  V30 2534 H 232.953 0.682108 -0.321318 0
M  V30 2535 H 235.604 1.24618 -1.34694 0
M  V30 2536 H 233.986 3.84343 -0.953735 0
M  V30 2537 H 235.16 2.83819 -3.6302 0
M  V30 2538 H 233.475 2.6875 -3.18061 0
M  V30 2539 H 236.072 5.05981 -1.72878 0
M  V30 2540 H 236.415 4.15387 -0.275529 0
M  V30 2541 H 236.948 3.52066 -1.85188 0
M  V30 2542 H 233.687 4.63585 -4.63432 0
M  V30 2543 H 233.207 5.1865 -3.01268 0
M  V30 2544 H 234.886 5.39685 -3.56859 0
M  V30 2545 N 235.018 0.912232 1.28515 0
M  V30 2546 C 236.267 0.540504 1.94323 0
M  V30 2547 C 236.58 -0.920044 1.72611 0
M  V30 2548 O 237.786 -1.39986 2.32629 0
M  V30 2549 C 236.242 0.915803 3.48053 0
M  V30 2550 C 235.85 2.39598 3.78546 0
M  V30 2551 C 237.594 0.614588 4.20027 0
M  V30 2552 C 235.501 2.71148 5.25578 0
M  V30 2553 H 234.431 0.198418 0.727424 0
M  V30 2554 H 237.082 1.11094 1.46049 0
M  V30 2555 H 235.464 0.274168 3.9505 0
M  V30 2556 H 236.638 3.08422 3.42364 0
M  V30 2557 H 234.953 2.66749 3.1974 0
M  V30 2558 H 237.55 0.827002 5.28266 0
M  V30 2559 H 237.893 -0.447531 4.13887 0
M  V30 2560 H 238.426 1.21462 3.78803 0
M  V30 2561 H 235.165 3.76207 5.36794 0
M  V30 2562 H 234.685 2.0696 5.62963 0
M  V30 2563 H 236.364 2.58072 5.93302 0
M  V30 2564 N 236.496 -1.42363 0.676048 0
M  V30 2565 C 237.426 -2.33497 0.0124832 0
M  V30 2566 C 238.407 -1.50748 -0.787981 0
M  V30 2567 O 239.592 -1.79346 -0.744884 0
M  V30 2568 C 236.722 -3.34377 -0.938582 0
M  V30 2569 C 235.676 -4.27289 -0.246622 0
M  V30 2570 C 235.002 -5.18386 -1.31071 0
M  V30 2571 C 236.302 -5.14916 0.875125 0
M  V30 2572 H 237.996 -2.89233 0.773593 0
M  V30 2573 H 235.542 -1.39073 0.37346 0
M  V30 2574 H 237.495 -3.97044 -1.41188 0
M  V30 2575 H 236.219 -2.76947 -1.73113 0
M  V30 2576 H 234.878 -3.66018 0.206456 0
M  V30 2577 H 234.526 -4.57282 -2.09528 0
M  V30 2578 H 234.226 -5.81378 -0.852839 0
M  V30 2579 H 235.75 -5.83929 -1.78492 0
M  V30 2580 H 237.164 -5.71262 0.482983 0
M  V30 2581 H 235.561 -5.86747 1.25887 0
M  V30 2582 H 236.631 -4.53242 1.72335 0
M  V30 2583 N 237.974 -0.419461 -1.51915 0
M  V30 2584 C 239.221 0.152939 -2.01922 0
M  V30 2585 C 239.549 1.4426 -1.30458 0
M  V30 2586 O 238.804 1.91514 -0.402593 0
M  V30 2587 C 239.103 0.437067 -3.54717 0
M  V30 2588 C 238.769 -0.764632 -4.44369 0
M  V30 2589 C 237.431 -1.09423 -4.68594 0
M  V30 2590 C 239.783 -1.56713 -4.97082 0
M  V30 2591 C 237.111 -2.22732 -5.42777 0
M  V30 2592 C 239.463 -2.69107 -5.72507 0
M  V30 2593 C 238.127 -3.02541 -5.95 0
M  V30 2594 H 237.397 0.0559644 -0.738884 0
M  V30 2595 H 240.044 -0.562998 -1.83037 0
M  V30 2596 H 238.349 1.23469 -3.71837 0
M  V30 2597 H 240.046 0.893083 -3.90928 0
M  V30 2598 H 236.636 -0.497775 -4.257 0
M  V30 2599 H 240.82 -1.32571 -4.78266 0
M  V30 2600 H 236.076 -2.48971 -5.58411 0
M  V30 2601 H 240.25 -3.31671 -6.12346 0
M  V30 2602 H 237.877 -3.90457 -6.52264 0
M  V30 2603 N 239.452 1.56882 -0.150215 0
M  V30 2604 C 240.382 2.19935 0.784284 0
M  V30 2605 C 241.363 1.14854 1.25469 0
M  V30 2606 O 242.548 1.43209 1.31168 0
M  V30 2607 C 239.678 2.82349 2.02229 0
M  V30 2608 C 238.632 3.93285 1.68853 0
M  V30 2609 C 237.958 4.42649 2.99944 0
M  V30 2610 C 239.258 5.13904 0.932714 0
M  V30 2611 H 240.952 2.9828 0.258781 0
M  V30 2612 H 238.498 1.43473 0.123029 0
M  V30 2613 H 240.451 3.25126 2.68088 0
M  V30 2614 H 239.175 2.0134 2.57157 0
M  V30 2615 H 237.834 3.5113 1.05371 0
M  V30 2616 H 237.482 3.58458 3.52869 0
M  V30 2617 H 237.182 5.17476 2.78374 0
M  V30 2618 H 238.706 4.88099 3.66868 0
M  V30 2619 H 240.12 5.53506 1.49345 0
M  V30 2620 H 238.517 5.94515 0.81684 0
M  V30 2621 H 239.587 4.84842 -0.0749568 0
M  V30 2622 N 240.93 -0.123565 1.57115 0
M  V30 2623 C 242.177 -0.832153 1.84612 0
M  V30 2624 C 242.505 -1.80093 0.734627 0
M  V30 2625 O 241.76 -1.93766 -0.27442 0
M  V30 2626 C 242.059 -1.62016 3.18568 0
M  V30 2627 C 241.725 -0.796084 4.43817 0
M  V30 2628 C 240.387 -0.568816 4.77826 0
M  V30 2629 C 242.739 -0.221364 5.2073 0
M  V30 2630 C 240.067 0.243499 5.86194 0
M  V30 2631 C 242.419 0.578117 6.29953 0
M  V30 2632 C 241.083 0.815744 6.62497 0
M  V30 2633 H 240.353 -0.304507 0.675542 0
M  V30 2634 H 243 -0.0947248 1.91266 0
M  V30 2635 H 241.305 -2.42837 3.0747 0
M  V30 2636 H 243.002 -2.17231 3.37064 0
M  V30 2637 H 239.592 -0.983307 4.17168 0
M  V30 2638 H 243.776 -0.384173 4.94811 0
M  V30 2639 H 239.032 0.436871 6.09837 0
M  V30 2640 H 243.206 1.03046 6.88734 0
M  V30 2641 H 240.833 1.44701 7.46301 0
M  V30 2642 N 242.408 -1.52605 -0.393616 0
M  V30 2643 C 243.34 -1.73303 -1.49995 0
M  V30 2644 C 244.353 -0.613473 -1.50799 0
M  V30 2645 O 245.542 -0.889049 -1.54784 0
M  V30 2646 C 242.642 -1.77245 -2.88855 0
M  V30 2647 C 241.815 -3.06483 -3.12069 0
M  V30 2648 C 240.874 -3.02033 -4.30886 0
M  V30 2649 O 239.9 -3.75907 -4.27414 0
M  V30 2650 N 241.102 -2.20897 -5.36828 0
M  V30 2651 H 243.867 -2.68756 -1.32629 0
M  V30 2652 H 241.428 -1.51036 -0.583083 0
M  V30 2653 H 243.42 -1.7178 -3.66434 0
M  V30 2654 H 241.99 -0.891993 -2.99603 0
M  V30 2655 H 241.21 -3.25474 -2.22396 0
M  V30 2656 H 242.498 -3.91947 -3.2443 0
M  V30 2657 H 241.896 -1.60336 -5.42502 0
M  V30 2658 H 240.453 -2.21275 -6.13091 0
M  V30 2659 N 243.887 0.651787 -1.4349 0
M  V30 2660 C 245.112 1.44434 -1.48841 0
M  V30 2661 C 245.537 1.8779 -0.107955 0
M  V30 2662 O 244.895 1.57464 0.898602 0
M  V30 2663 C 244.943 2.65458 -2.44059 0
M  V30 2664 O 244.047 3.64566 -1.92784 0
M  V30 2665 H 243.388 0.433005 -0.503391 0
M  V30 2666 H 245.918 0.797451 -1.88419 0
M  V30 2667 H 245.928 3.13255 -2.6141 0
M  V30 2668 H 244.603 2.33244 -3.4434 0
M  V30 2669 H 243.18 3.23716 -1.851 0
M  V30 2670 N 245.365 1.30045 0.890287 0
M  V30 2671 C 246.614 1.17929 1.63633 0
M  V30 2672 C 246.927 -0.266204 1.9378 0
M  V30 2673 O 248.133 -0.508804 2.6669 0
M  V30 2674 C 246.589 2.06317 2.94892 0
M  V30 2675 C 246.197 3.55745 2.72305 0
M  V30 2676 C 247.941 2.0295 3.72843 0
M  V30 2677 C 245.848 4.36205 3.99348 0
M  V30 2678 H 244.778 0.437782 0.613892 0
M  V30 2679 H 247.429 1.54754 0.986075 0
M  V30 2680 H 245.811 1.6237 3.61182 0
M  V30 2681 H 246.985 4.07805 2.1455 0
M  V30 2682 H 245.3 3.6088 2.07737 0
M  V30 2683 H 247.897 2.60319 4.67053 0
M  V30 2684 H 248.24 1.0117 4.0382 0
M  V30 2685 H 248.773 2.4499 3.13408 0
M  V30 2686 H 245.512 5.38659 3.73533 0
M  V30 2687 H 245.032 3.8891 4.56628 0
M  V30 2688 H 246.711 4.47362 4.67415 0
M  V30 2689 N 246.843 -1.10192 1.12674 0
M  V30 2690 C 247.773 -2.18652 0.819362 0
M  V30 2691 C 248.754 -1.68698 -0.217915 0
M  V30 2692 O 249.939 -1.94041 -0.0785581 0
M  V30 2693 C 247.069 -3.46202 0.27594 0
M  V30 2694 C 246.023 -4.09444 1.24656 0
M  V30 2695 C 245.349 -5.31725 0.563258 0
M  V30 2696 C 246.649 -4.52863 2.60217 0
M  V30 2697 H 248.343 -2.44622 1.72628 0
M  V30 2698 H 245.889 -1.17571 0.831451 0
M  V30 2699 H 247.842 -4.21372 0.0486149 0
M  V30 2700 H 246.566 -3.1973 -0.666331 0
M  V30 2701 H 245.225 -3.36284 1.45974 0
M  V30 2702 H 244.873 -5.0153 -0.384235 0
M  V30 2703 H 244.573 -5.74991 1.21075 0
M  V30 2704 H 246.097 -6.09624 0.34503 0
M  V30 2705 H 247.511 -5.19294 2.42913 0
M  V30 2706 H 245.908 -5.06986 3.21068 0
M  V30 2707 H 246.978 -3.65656 3.18471 0
M  V30 2708 N 248.321 -0.919034 -1.28029 0
M  V30 2709 C 249.569 -0.553838 -1.94363 0
M  V30 2710 C 249.89 0.906357 -1.72656 0
M  V30 2711 O 249.16 1.64143 -1.0693 0
M  V30 2712 H 247.74 -0.201834 -0.719216 0
M  V30 2713 H 250.402 -1.16954 -1.55909 0
M  V30 2714 H 249.498 -0.752758 -3.02886 0
M  V30 2715 N 249.799 1.42003 -0.683588 0
M  V30 2716 C 251.024 2.06265 -0.216647 0
M  V30 2717 C 251.449 1.51059 1.12083 0
M  V30 2718 O 250.807 0.632638 1.69904 0
M  V30 2719 C 250.855 3.60191 -0.171759 0
M  V30 2720 O 249.959 4.03396 0.857069 0
M  V30 2721 H 249.3 0.65502 -0.108834 0
M  V30 2722 H 251.83 1.81982 -0.935077 0
M  V30 2723 H 251.84 4.08 0.0014303 0
M  V30 2724 H 250.515 3.99743 -1.14796 0
M  V30 2725 H 249.092 3.67117 0.654208 0
M  V30 2726 N 251.277 0.427512 1.51691 0
M  V30 2727 C 252.526 -0.143679 2.01188 0
M  V30 2728 C 252.839 -1.44642 1.31674 0
M  V30 2729 O 254.045 -2.09997 1.72086 0
M  V30 2730 C 252.501 -0.306602 3.58592 0
M  V30 2731 C 252.109 0.985125 4.37035 0
M  V30 2732 C 253.853 -0.832091 4.16265 0
M  V30 2733 C 251.76 0.788382 5.86122 0
M  V30 2734 H 250.69 -0.0574701 0.751807 0
M  V30 2735 H 253.341 0.555772 1.74881 0
M  V30 2736 H 251.723 -1.06882 3.81303 0
M  V30 2737 H 252.897 1.75492 4.26074 0
M  V30 2738 H 251.212 1.4384 3.90767 0
M  V30 2739 H 253.809 -0.995617 5.25349 0
M  V30 2740 H 254.152 -1.81186 3.74803 0
M  V30 2741 H 254.685 -0.128444 3.97593 0
M  V30 2742 H 251.424 1.74025 6.31978 0
M  V30 2743 H 250.944 0.0582143 5.99772 0
M  V30 2744 H 252.623 0.437722 6.45518 0
M  V30 2745 N 252.755 -1.56801 0.158532 0
M  V30 2746 C 254.001 -1.96781 -0.490405 0
M  V30 2747 C 254.334 -1.04397 -1.63753 0
M  V30 2748 O 253.609 -0.0885805 -1.94298 0
M  V30 2749 C 253.892 -3.4635 -0.985594 0
M  V30 2750 C 253.745 -4.49512 0.160824 0
M  V30 2751 C 255.064 -3.98697 -1.86355 0
M  V30 2752 H 252.183 -0.715482 -0.176788 0
M  V30 2753 H 254.825 -1.88451 0.242088 0
M  V30 2754 H 252.975 -3.53579 -1.60978 0
M  V30 2755 H 254.647 -4.54353 0.797537 0
M  V30 2756 H 252.89 -4.26013 0.818256 0
M  V30 2757 H 253.561 -5.51531 -0.227569 0
M  V30 2758 H 256.037 -3.94019 -1.33746 0
M  V30 2759 H 254.913 -5.03792 -2.17909 0
M  V30 2760 H 255.174 -3.41744 -2.8047 0
M  V30 2761 N 254.233 0.115231 -1.57178 0
M  V30 2762 C 255.51 0.852873 -1.76027 0
M  V30 2763 C 255.89 1.97892 -0.73498 0
M  V30 2764 O 255.238 2.27232 0.24036 0
M  V30 2765 C 255.448 1.36608 -3.21153 0
M  V30 2766 C 256.796 1.81692 -3.83762 0
M  V30 2767 O 257.82 1.46278 -3.24779 0
M  V30 2768 O 256.679 2.47104 -4.87444 0
M  V30 2769 H 253.773 0.405296 -0.720877 0
M  V30 2770 H 256.319 0.0986785 -1.69413 0
M  V30 2771 H 255.091 0.558357 -3.87296 0
M  V30 2772 H 254.714 2.18287 -3.3232 0
M  V30 2773 N 255.711 1.52812 0.385517 0
M  V30 2774 C 256.674 1.77188 1.45386 0
M  V30 2775 C 257.674 0.641953 1.4743 0
M  V30 2776 O 258.864 0.910033 1.4854 0
M  V30 2777 C 255.996 1.87582 2.8465 0
M  V30 2778 H 257.189 2.72583 1.25054 0
M  V30 2779 H 254.742 1.43586 0.617467 0
M  V30 2780 H 255.477 0.941849 3.10322 0
M  V30 2781 H 255.262 2.69748 2.84567 0
M  V30 2782 H 256.752 2.08102 3.62054 0
M  V30 2783 N 257.189 -0.644168 1.43834 0
M  V30 2784 C 258.436 -1.40395 1.4593 0
M  V30 2785 C 258.764 -1.94305 0.0869658 0
M  V30 2786 O 258.019 -1.73288 -0.909378 0
M  V30 2787 C 258.318 -2.59615 2.45631 0
M  V30 2788 C 257.984 -2.2407 3.91284 0
M  V30 2789 C 256.646 -2.14089 4.30952 0
M  V30 2790 C 258.998 -1.95775 4.83034 0
M  V30 2791 C 256.326 -1.73981 5.6031 0
M  V30 2792 C 258.678 -1.57163 6.12766 0
M  V30 2793 C 257.342 -1.45713 6.51402 0
M  V30 2794 H 256.612 -0.513741 0.533995 0
M  V30 2795 H 259.259 -0.731724 1.76969 0
M  V30 2796 H 257.564 -3.32011 2.08028 0
M  V30 2797 H 259.261 -3.17834 2.44504 0
M  V30 2798 H 255.851 -2.32753 3.59895 0
M  V30 2799 H 260.035 -2.02403 4.53152 0
M  V30 2800 H 255.291 -1.63709 5.89075 0
M  V30 2801 H 259.465 -1.34303 6.83327 0
M  V30 2802 H 257.092 -1.14406 7.51542 0
M  V30 2803 N 258.668 -1.30515 -0.883378 0
M  V30 2804 C 259.598 -1.19607 -2.00541 0
M  V30 2805 C 260.579 -0.086346 -1.69881 0
M  V30 2806 O 261.764 -0.268654 -1.92333 0
M  V30 2807 C 258.894 -0.888758 -3.35736 0
M  V30 2808 C 257.848 -1.95659 -3.8066 0
M  V30 2809 C 257.174 -1.50224 -5.13164 0
M  V30 2810 C 258.474 -3.36788 -3.99213 0
M  V30 2811 H 260.168 -2.13476 -2.09925 0
M  V30 2812 H 257.714 -1.02775 -1.00863 0
M  V30 2813 H 259.667 -0.799094 -4.13754 0
M  V30 2814 H 258.391 0.0856125 -3.26488 0
M  V30 2815 H 257.05 -2.03591 -3.04871 0
M  V30 2816 H 256.698 -0.516092 -5.00345 0
M  V30 2817 H 256.398 -2.2165 -5.44192 0
M  V30 2818 H 257.922 -1.42639 -5.93706 0
M  V30 2819 H 259.336 -3.31605 -4.67665 0
M  V30 2820 H 257.733 -4.06314 -4.41621 0
M  V30 2821 H 258.803 -3.78561 -3.03017 0
M  V30 2822 N 260.146 1.09593 -1.13257 0
M  V30 2823 C 261.395 1.81105 -0.887917 0
M  V30 2824 C 261.708 1.86563 0.587672 0
M  V30 2825 O 262.914 2.54367 0.949204 0
M  V30 2826 C 261.37 3.25338 -1.53895 0
M  V30 2827 C 260.978 3.28151 -3.04994 0
M  V30 2828 C 262.722 4.01617 -1.37492 0
M  V30 2829 C 260.629 4.66897 -3.6299 0
M  V30 2830 H 259.559 0.678661 -0.328534 0
M  V30 2831 H 262.21 1.23183 -1.36008 0
M  V30 2832 H 260.592 3.8331 -0.994446 0
M  V30 2833 H 261.766 2.79953 -3.66009 0
M  V30 2834 H 260.081 2.65361 -3.20893 0
M  V30 2835 H 262.678 5.04119 -1.78235 0
M  V30 2836 H 263.021 4.15072 -0.31957 0
M  V30 2837 H 263.554 3.50082 -1.88912 0
M  V30 2838 H 260.293 4.58643 -4.68323 0
M  V30 2839 H 259.813 5.15426 -3.06752 0
M  V30 2840 H 261.492 5.3587 -3.62563 0
M  V30 2841 N 261.624 0.925811 1.2754 0
M  V30 2842 C 262.872 0.564138 1.94067 0
M  V30 2843 C 263.193 -0.897188 1.73134 0
M  V30 2844 O 262.463 -1.63573 1.07799 0
M  V30 2845 H 261.043 0.205645 0.718136 0
M  V30 2846 H 263.705 1.1778 1.55287 0
M  V30 2847 H 262.801 0.76881 3.02483 0
M  V30 2848 N 263.102 -1.41638 0.69111 0
M  V30 2849 C 264.342 -2.03166 0.224291 0
M  V30 2850 C 264.706 -1.53537 -1.15284 0
M  V30 2851 O 265.907 -2.0696 -1.71525 0
M  V30 2852 C 264.178 -3.56342 0.274758 0
M  V30 2853 S 265.737 -4.3864 -0.118669 0
M  V30 2854 H 262.555 -0.705188 0.0907263 0
M  V30 2855 H 265.157 -1.7314 0.907895 0
M  V30 2856 H 263.861 -3.89958 1.2791 0
M  V30 2857 H 263.392 -3.91063 -0.428142 0
M  V30 2858 H 265.407 -4.77549 -1.34764 0
M  V30 2859 N 264.58 -0.43555 -1.51462 0
M  V30 2860 C 265.513 0.421989 -2.24264 0
M  V30 2861 C 266.491 1.02619 -1.26127 0
M  V30 2862 O 267.675 1.069 -1.55257 0
M  V30 2863 C 264.802 1.588 -2.99166 0
M  V30 2864 C 263.848 1.10465 -4.11946 0
M  V30 2865 S 264.681 0.048146 -5.35478 0
M  V30 2866 C 265.837 1.21887 -6.13917 0
M  V30 2867 H 266.07 -0.196102 -2.96653 0
M  V30 2868 H 263.603 -0.220054 -1.52824 0
M  V30 2869 H 265.561 2.25647 -3.42919 0
M  V30 2870 H 264.222 2.1775 -2.26371 0
M  V30 2871 H 263.415 1.97654 -4.63626 0
M  V30 2872 H 263.017 0.51445 -3.70445 0
M  V30 2873 H 265.309 2.13756 -6.42895 0
M  V30 2874 H 266.252 0.742076 -7.04201 0
M  V30 2875 H 266.66 1.45663 -5.45383 0
M  V30 2876 N 266.058 1.56714 -0.166846 0
M  V30 2877 C 267.305 1.96747 0.479252 0
M  V30 2878 C 267.633 1.05263 1.63554 0
M  V30 2879 O 266.888 0.0858098 1.95512 0
M  V30 2880 C 267.187 3.42889 1.00806 0
M  V30 2881 C 266.853 4.50889 -0.0318574 0
M  V30 2882 C 265.515 4.8015 -0.317675 0
M  V30 2883 C 267.867 5.15949 -0.737956 0
M  V30 2884 C 265.195 5.71772 -1.31506 0
M  V30 2885 C 267.547 6.08647 -1.72429 0
M  V30 2886 C 266.211 6.36277 -2.0176 0
M  V30 2887 H 265.481 0.719949 0.175371 0
M  V30 2888 H 268.128 1.89756 -0.257864 0
M  V30 2889 H 266.433 3.4681 1.82291 0
M  V30 2890 H 268.13 3.71203 1.51689 0
M  V30 2891 H 264.72 4.28128 0.201088 0
M  V30 2892 H 268.904 4.93458 -0.530351 0
M  V30 2893 H 264.16 5.91465 -1.54853 0
M  V30 2894 H 268.334 6.58129 -2.27682 0
M  V30 2895 H 265.961 7.07075 -2.79194 0
M  V30 2896 N 267.536 -0.106894 1.57237 0
M  V30 2897 C 268.785 -0.811163 1.8467 0
M  V30 2898 C 269.098 -1.80469 0.754342 0
M  V30 2899 O 270.304 -2.55601 0.915439 0
M  V30 2900 C 268.76 -1.49337 3.27454 0
M  V30 2901 C 268.368 -0.540217 4.44731 0
M  V30 2902 C 270.112 -2.18206 3.64124 0
M  V30 2903 C 268.019 -1.22634 5.78545 0
M  V30 2904 H 266.949 -0.306679 0.688813 0
M  V30 2905 H 269.6 -0.0639887 1.83388 0
M  V30 2906 H 267.982 -2.2876 3.23241 0
M  V30 2907 H 269.156 0.221659 4.60267 0
M  V30 2908 H 267.471 0.042146 4.16379 0
M  V30 2909 H 270.068 -2.70253 4.61376 0
M  V30 2910 H 270.411 -2.96562 2.92158 0
M  V30 2911 H 270.944 -1.45658 3.70174 0
M  V30 2912 H 267.683 -0.483832 6.53712 0
M  V30 2913 H 267.203 -1.95993 5.66874 0
M  V30 2914 H 268.882 -1.75615 6.2271 0
M  V30 2915 N 269.014 -1.53014 -0.377408 0
M  V30 2916 C 269.961 -1.78616 -1.46168 0
M  V30 2917 C 270.931 -0.629917 -1.53692 0
M  V30 2918 O 272.116 -0.870861 -1.69766 0
M  V30 2919 C 269.256 -1.97123 -2.8326 0
M  V30 2920 C 268.369 -3.24831 -2.84796 0
M  V30 2921 C 267.504 -3.33591 -4.13389 0
M  V30 2922 C 266.543 -4.55377 -4.09021 0
M  V30 2923 N 265.68 -4.61355 -5.29241 0
M  V30 2924 H 270.52 -2.71142 -1.23637 0
M  V30 2925 H 268.057 -1.34326 -0.599577 0
M  V30 2926 H 270.015 -2.05839 -3.62886 0
M  V30 2927 H 268.645 -1.07946 -3.04216 0
M  V30 2928 H 267.697 -3.25128 -1.97474 0
M  V30 2929 H 269.009 -4.14523 -2.77439 0
M  V30 2930 H 268.163 -3.41554 -5.01424 0
M  V30 2931 H 266.902 -2.41894 -4.23484 0
M  V30 2932 H 265.907 -4.47527 -3.19373 0
M  V30 2933 H 267.132 -5.48402 -4.00539 0
M  V30 2934 H 265.078 -3.72554 -5.39944 0
M  V30 2935 H 264.995 -5.44935 -5.24006 0
M  V30 2936 H 266.263 -4.73586 -6.19141 0
M  V30 2937 N 270.492 0.636531 -1.44174 0
M  V30 2938 C 271.425 1.76139 -1.45087 0
M  V30 2939 C 272.403 1.59611 -0.310326 0
M  V30 2940 O 273.587 1.81568 -0.506477 0
M  V30 2941 C 270.714 3.13648 -1.27839 0
M  V30 2942 C 269.76 3.48838 -2.45386 0
M  V30 2943 S 270.593 3.46927 -4.07924 0
M  V30 2944 C 271.749 4.87064 -3.9309 0
M  V30 2945 H 271.982 1.75096 -2.40268 0
M  V30 2946 H 269.515 0.810666 -1.31406 0
M  V30 2947 H 271.473 3.93002 -1.18575 0
M  V30 2948 H 270.134 3.12235 -0.341787 0
M  V30 2949 H 269.327 4.48886 -2.29167 0
M  V30 2950 H 268.929 2.76935 -2.51362 0
M  V30 2951 H 271.221 5.76153 -3.56446 0
M  V30 2952 H 272.164 5.08337 -4.92949 0
M  V30 2953 H 272.572 4.61384 -3.25246 0
M  V30 2954 N 271.97 1.30982 0.876444 0
M  V30 2955 C 273.195 1.23373 1.66715 0
M  V30 2956 C 273.62 -0.19885 1.87046 0
M  V30 2957 O 272.978 -1.1427 1.40756 0
M  V30 2958 C 273.026 1.97644 3.01611 0
M  V30 2959 O 272.13 1.30935 3.91062 0
M  V30 2960 H 271.471 0.426279 0.509099 0
M  V30 2961 H 274.001 1.72944 1.09323 0
M  V30 2962 H 274.011 2.06992 3.51594 0
M  V30 2963 H 272.686 3.01829 2.86133 0
M  V30 2964 H 271.263 1.29996 3.49507 0
M  V30 2965 N 273.449 -1.08991 1.13837 0
M  V30 2966 C 274.381 -2.15606 0.777612 0
M  V30 2967 C 275.394 -1.61533 -0.202739 0
M  V30 2968 O 276.583 -1.78491 0.0181055 0
M  V30 2969 C 273.683 -3.3864 0.132623 0
M  V30 2970 C 272.856 -4.22115 1.1462 0
M  V30 2971 C 271.915 -5.23564 0.526074 0
M  V30 2972 O 270.941 -5.56678 1.18735 0
M  V30 2973 N 272.143 -5.76266 -0.699866 0
M  V30 2974 H 274.908 -2.47159 1.69506 0
M  V30 2975 H 272.469 -1.24747 1.03198 0
M  V30 2976 H 274.461 -4.03626 -0.29459 0
M  V30 2977 H 273.031 -3.04938 -0.687849 0
M  V30 2978 H 272.251 -3.53199 1.75055 0
M  V30 2979 H 273.539 -4.74709 1.83109 0
M  V30 2980 H 272.937 -5.51585 -1.25581 0
M  V30 2981 H 271.494 -6.42963 -1.06968 0
M  V30 2982 N 274.927 -0.932562 -1.27047 0
M  V30 2983 C 276.338 -0.619451 -1.76124 0
M  V30 2984 C 276.689 0.865397 -1.76083 0
M  V30 2985 O 275.814 1.67722 -1.36742 0
M  V30 2986 C 276.409 -1.11771 -3.19832 0
M  V30 2987 C 274.968 -0.855174 -3.66557 0
M  V30 2988 C 274.115 -1.27362 -2.46321 0
M  V30 2989 H 277.066 -1.11181 -1.13245 0
M  V30 2990 H 277.087 -0.46759 -3.77616 0
M  V30 2991 H 276.599 -2.19842 -3.1983 0
M  V30 2992 H 274.7 0.211524 -3.71999 0
M  V30 2993 H 274.813 -1.47613 -4.55793 0
M  V30 2994 H 273.177 -0.692119 -2.45116 0
M  V30 2995 H 273.96 -2.36307 -2.49025 0
M  V30 2996 N 276.405 1.4127 -0.698611 0
M  V30 2997 C 277.352 2.30773 -0.0352094 0
M  V30 2998 C 278.322 1.47273 0.768111 0
M  V30 2999 O 279.507 1.76053 0.735524 0
M  V30 3000 C 276.647 3.33346 0.893 0
M  V30 3001 C 275.76 4.31924 0.0809695 0
M  V30 3002 C 274.895 5.21566 1.0071 0
M  V30 3003 C 273.934 6.11811 0.188155 0
M  V30 3004 N 273.071 6.93926 1.06825 0
M  V30 3005 H 277.911 2.86943 -0.804207 0
M  V30 3006 H 275.448 1.4132 -0.408294 0
M  V30 3007 H 277.406 3.91368 1.44523 0
M  V30 3008 H 276.036 2.78719 1.62836 0
M  V30 3009 H 275.088 3.75825 -0.588224 0
M  V30 3010 H 276.4 4.95716 -0.553801 0
M  V30 3011 H 275.554 5.84437 1.62845 0
M  V30 3012 H 274.293 4.58008 1.67572 0
M  V30 3013 H 273.298 5.47986 -0.446254 0
M  V30 3014 H 274.523 6.77425 -0.476716 0
M  V30 3015 H 272.469 6.32973 1.72283 0
M  V30 3016 H 272.386 7.54416 0.489123 0
M  V30 3017 H 273.654 7.61262 1.67632 0
M  V30 3018 N 277.883 0.443576 1.51229 0
M  V30 3019 C 278.83 -0.364716 2.279 0
M  V30 3020 C 279.8 -1.0114 1.31757 0
M  V30 3021 O 280.985 -1.02912 1.60667 0
M  V30 3022 C 278.125 -1.45644 3.12861 0
M  V30 3023 C 277.238 -0.827269 4.24005 0
M  V30 3024 C 276.373 -1.89456 4.96266 0
M  V30 3025 C 275.412 -1.24416 5.99322 0
M  V30 3026 N 274.549 -2.25309 6.64966 0
M  V30 3027 H 279.389 0.295464 2.96532 0
M  V30 3028 H 276.926 0.157554 1.46254 0
M  V30 3029 H 278.884 -2.10076 3.6045 0
M  V30 3030 H 277.514 -2.08616 2.46331 0
M  V30 3031 H 276.566 -0.0710839 3.80334 0
M  V30 3032 H 277.878 -0.312481 4.9782 0
M  V30 3033 H 277.032 -2.61535 5.47434 0
M  V30 3034 H 275.771 -2.4431 4.22095 0
M  V30 3035 H 274.776 -0.508868 5.4744 0
M  V30 3036 H 276.001 -0.702882 6.75453 0
M  V30 3037 H 273.947 -2.79231 5.93604 0
M  V30 3038 H 273.864 -1.78739 7.34567 0
M  V30 3039 H 275.132 -2.96853 7.20763 0
M  V30 3040 N 279.361 -1.56624 0.175154 0
M  V30 3041 C 280.777 -1.58571 -0.180966 0
M  V30 3042 C 280.977 -1.19065 -1.6256 0
M  V30 3043 O 280.033 -0.904044 -2.35761 0
M  V30 3044 C 281.346 -3.00522 0.103326 0
M  V30 3045 C 282.894 -3.12972 0.0418426 0
M  V30 3046 C 283.369 -4.57022 0.299175 0
M  V30 3047 N 284.86 -4.62541 0.247086 0
M  V30 3048 C 285.595 -5.71857 0.420318 0
M  V30 3049 N 285.091 -6.89717 0.652816 0
M  V30 3050 N 286.884 -5.60972 0.355957 0
M  V30 3051 H 279.035 -1.80589 1.11809 0
M  V30 3052 H 281.298 -0.837178 0.444788 0
M  V30 3053 H 281.004 -3.33916 1.10422 0
M  V30 3054 H 280.878 -3.72344 -0.603299 0
M  V30 3055 H 283.265 -2.79403 -0.949636 0
M  V30 3056 H 283.346 -2.43578 0.781238 0
M  V30 3057 H 282.99 -4.913 1.28788 0
M  V30 3058 H 282.92 -5.24579 -0.460876 0
M  V30 3059 H 285.411 -3.77829 0.0731895 0
M  V30 3060 H 285.724 -7.68911 0.774347 0
M  V30 3061 H 284.069 -6.91572 0.689476 0
M  V30 3062 H 287.26 -4.67773 0.174882 0
M  V30 3063 H 287.433 -6.46111 0.494388 0
M  V30 3064 N 280.839 0.0985539 -1.57292 0
M  V30 3065 C 281.802 1.10402 -2.00858 0
M  V30 3066 C 282.802 1.33146 -0.901593 0
M  V30 3067 O 283.992 1.29318 -1.16716 0
M  V30 3068 C 281.124 2.45394 -2.36632 0
M  V30 3069 H 282.317 0.729099 -2.90902 0
M  V30 3070 H 279.87 0.343495 -1.52479 0
M  V30 3071 H 280.605 2.87769 -1.49531 0
M  V30 3072 H 280.39 2.30235 -3.17387 0
M  V30 3073 H 281.88 3.17718 -2.71007 0
M  V30 3074 N 282.317 1.53212 0.369288 0
M  V30 3075 C 283.227 1.82342 1.47609 0
M  V30 3076 C 284.243 0.711532 1.58787 0
M  V30 3077 O 285.419 1.0012 1.74751 0
M  V30 3078 C 282.484 2.00393 2.8292 0
M  V30 3079 C 281.545 3.24297 2.81301 0
M  V30 3080 C 280.778 3.41478 4.10157 0
M  V30 3081 O 281.001 2.63033 5.06132 0
M  V30 3082 O 279.935 4.34817 4.16194 0
M  V30 3083 H 283.761 2.76366 1.25918 0
M  V30 3084 H 281.346 1.38547 0.559034 0
M  V30 3085 H 283.228 2.13859 3.63101 0
M  V30 3086 H 281.903 1.09559 3.04596 0
M  V30 3087 H 280.81 3.16257 1.99831 0
M  V30 3088 H 282.143 4.15041 2.64578 0
M  V30 3089 N 283.795 -0.628877 1.44509 0
M  V30 3090 C 285.023 -1.41554 1.50897 0
M  V30 3091 C 285.438 -1.8832 0.134564 0
M  V30 3092 O 284.795 -1.60969 -0.859965 0
M  V30 3093 C 284.846 -2.63435 2.47556 0
M  V30 3094 O 284.567 -2.18619 3.79654 0
M  V30 3095 C 286.068 -3.56537 2.63431 0
M  V30 3096 H 283.288 -0.434044 0.511709 0
M  V30 3097 H 285.832 -0.768895 1.89495 0
M  V30 3098 H 283.987 -3.24187 2.12089 0
M  V30 3099 H 284.401 -2.97652 4.31861 0
M  V30 3100 H 285.875 -4.38657 3.35088 0
M  V30 3101 H 286.352 -4.05493 1.68738 0
M  V30 3102 H 286.958 -3.01653 2.9981 0
M  V30 3103 N 285.273 -1.31445 -0.869486 0
M  V30 3104 C 286.203 -1.21727 -1.99261 0
M  V30 3105 C 287.184 -0.104359 -1.6978 0
M  V30 3106 O 288.369 -0.289038 -1.92037 0
M  V30 3107 C 285.499 -0.924317 -3.34774 0
M  V30 3108 C 284.453 -1.99685 -3.78563 0
M  V30 3109 C 283.779 -1.55658 -5.11541 0
M  V30 3110 C 285.079 -3.41003 -3.95619 0
M  V30 3111 H 286.773 -2.1569 -2.07649 0
M  V30 3112 H 284.319 -1.03839 -0.997675 0
M  V30 3113 H 286.272 -0.842934 -4.12883 0
M  V30 3114 H 284.996 0.0509793 -3.2656 0
M  V30 3115 H 283.655 -2.06813 -3.02694 0
M  V30 3116 H 283.303 -0.569132 -4.9977 0
M  V30 3117 H 283.003 -2.27409 -5.41811 0
M  V30 3118 H 284.527 -1.48928 -5.92159 0
M  V30 3119 H 285.941 -3.36547 -4.64122 0
M  V30 3120 H 284.338 -4.10975 -4.37286 0
M  V30 3121 H 285.408 -3.81754 -2.98985 0
M  V30 3122 N 286.751 1.08385 -1.14413 0
M  V30 3123 C 287.684 2.14642 -0.774871 0
M  V30 3124 C 288.662 1.60761 0.243876 0
M  V30 3125 O 289.846 1.88031 0.132883 0
M  V30 3126 C 286.973 3.38366 -0.150491 0
M  V30 3127 C 286.019 4.10997 -1.13945 0
M  V30 3128 S 286.852 4.63797 -2.67679 0
M  V30 3129 C 288.008 5.90808 -2.06631 0
M  V30 3130 H 288.241 2.45633 -1.67487 0
M  V30 3131 H 285.774 1.20498 -0.96538 0
M  V30 3132 H 287.732 4.09996 0.203334 0
M  V30 3133 H 286.393 3.05572 0.72694 0
M  V30 3134 H 285.586 4.99783 -0.65059 0
M  V30 3135 H 285.188 3.4528 -1.43727 0
M  V30 3136 H 287.48 6.62411 -1.4219 0
M  V30 3137 H 288.423 6.4439 -2.93542 0
M  V30 3138 H 288.831 5.4383 -1.51357 0
M  V30 3139 N 288.23 0.939286 1.26551 0
M  V30 3140 C 289.477 0.585847 1.9384 0
M  V30 3141 C 289.805 -0.874784 1.73718 0
M  V30 3142 O 289.06 -1.64092 1.06642 0
M  V30 3143 C 289.359 0.872106 3.46596 0
M  V30 3144 C 289.025 2.31632 3.86856 0
M  V30 3145 C 287.687 2.71111 3.97558 0
M  V30 3146 C 290.039 3.25494 4.07066 0
M  V30 3147 C 287.367 4.03553 4.25866 0
M  V30 3148 C 289.719 4.57531 4.36862 0
M  V30 3149 C 288.383 4.96828 4.45778 0
M  V30 3150 H 287.653 0.214377 0.709312 0
M  V30 3151 H 290.3 1.18544 1.50398 0
M  V30 3152 H 288.605 0.18996 3.91339 0
M  V30 3153 H 290.302 0.577442 3.96821 0
M  V30 3154 H 286.892 2.00008 3.79071 0
M  V30 3155 H 291.076 2.9619 3.98227 0
M  V30 3156 H 286.332 4.33665 4.30981 0
M  V30 3157 H 290.506 5.30254 4.51446 0
M  V30 3158 H 288.133 5.99482 4.67468 0
M  V30 3159 N 289.708 -1.40897 0.706093 0
M  V30 3160 C 290.933 -2.05895 0.249435 0
M  V30 3161 C 291.358 -1.52823 -1.09666 0
M  V30 3162 O 290.716 -0.659589 -1.68876 0
M  V30 3163 C 290.764 -3.59872 0.22904 0
M  V30 3164 O 289.868 -4.04708 -0.792784 0
M  V30 3165 H 289.209 -0.653206 0.119241 0
M  V30 3166 H 291.739 -1.80471 0.96391 0
M  V30 3167 H 291.749 -4.07951 0.0634791 0
M  V30 3168 H 290.424 -3.97866 1.21141 0
M  V30 3169 H 289.001 -3.68111 -0.59572 0
M  V30 3170 N 291.186 -0.45159 -1.50991 0
M  V30 3171 C 292.096 0.358431 -2.31846 0
M  V30 3172 C 293.112 1.01438 -1.41373 0
M  V30 3173 O 294.288 1.00663 -1.74439 0
M  V30 3174 C 291.353 1.43704 -3.15515 0
M  V30 3175 C 290.414 0.799742 -4.21785 0
M  V30 3176 C 289.647 1.82696 -5.01456 0
M  V30 3177 O 289.87 3.05105 -4.81941 0
M  V30 3178 O 288.804 1.40958 -5.85162 0
M  V30 3179 H 292.63 -0.302032 -3.02194 0
M  V30 3180 H 290.215 -0.213825 -1.47862 0
M  V30 3181 H 292.097 2.06227 -3.67489 0
M  V30 3182 H 290.772 2.08133 -2.47916 0
M  V30 3183 H 289.679 0.136084 -3.73852 0
M  V30 3184 H 291.012 0.198718 -4.91799 0
M  V30 3185 N 292.664 1.56529 -0.183458 0
M  V30 3186 C 293.614 2.1515 0.754605 0
M  V30 3187 C 294.598 1.08904 1.18443 0
M  V30 3188 O 295.79 1.34997 1.14476 0
M  V30 3189 C 292.919 2.80531 1.97881 0
M  V30 3190 C 292.005 3.93952 1.57043 0
M  V30 3191 N 292.396 4.98221 0.87231 0
M  V30 3192 C 290.694 4.05338 1.86057 0
M  V30 3193 C 291.395 5.77836 0.669377 0
M  V30 3194 N 290.371 5.29858 1.21454 0
M  V30 3195 H 294.173 2.93132 0.212387 0
M  V30 3196 H 291.687 1.62391 0.0167725 0
M  V30 3197 H 293.684 3.20914 2.6612 0
M  V30 3198 H 292.344 2.04035 2.52586 0
M  V30 3199 H 293.355 5.15191 0.529033 0
M  V30 3200 H 290.032 3.39957 2.42354 0
M  V30 3201 H 291.422 6.71799 0.116422 0
M  V30 3202 N 294.142 -0.090211 1.57342 0
M  V30 3203 C 295.105 -1.09335 2.01441 0
M  V30 3204 C 296.105 -1.32666 0.908641 0
M  V30 3205 O 297.295 -1.28697 1.174 0
M  V30 3206 C 294.427 -2.44136 2.3793 0
M  V30 3207 H 295.62 -0.713662 2.91285 0
M  V30 3208 H 293.173 -0.335404 1.52659 0
M  V30 3209 H 293.908 -2.86972 1.51055 0
M  V30 3210 H 293.693 -2.28548 3.18603 0
M  V30 3211 H 295.183 -3.16277 2.72688 0
M  V30 3212 N 295.62 -1.53406 -0.361157 0
M  V30 3213 C 296.866 -1.70054 -1.10496 0
M  V30 3214 C 297.199 -0.453278 -1.88836 0
M  V30 3215 O 296.474 0.5495 -1.86576 0
M  V30 3216 C 296.757 -2.95317 -2.06058 0
M  V30 3217 C 296.61 -4.3021 -1.31298 0
M  V30 3218 C 297.929 -3.16193 -3.06121 0
M  V30 3219 H 295.048 -0.618799 -0.400321 0
M  V30 3220 H 297.69 -1.86052 -0.385318 0
M  V30 3221 H 295.84 -2.81809 -2.67425 0
M  V30 3222 H 297.512 -4.55538 -0.726807 0
M  V30 3223 H 295.755 -4.29421 -0.614853 0
M  V30 3224 H 296.426 -5.14 -2.01265 0
M  V30 3225 H 298.902 -3.28916 -2.5486 0
M  V30 3226 H 297.778 -4.05266 -3.70204 0
M  V30 3227 H 298.039 -2.31676 -3.76535 0
M  V30 3228 N 297.098 0.621204 -1.44841 0
M  V30 3229 C 298.347 1.37658 -1.47422 0
M  V30 3230 C 298.66 1.95264 -0.114629 0
M  V30 3231 O 299.866 2.71494 -0.0180199 0
M  V30 3232 C 298.322 2.49285 -2.59586 0
M  V30 3233 C 297.93 1.98149 -4.01797 0
M  V30 3234 C 299.674 3.26409 -2.71399 0
M  V30 3235 C 297.581 3.07178 -5.05367 0
M  V30 3236 H 296.511 0.517344 -0.548517 0
M  V30 3237 H 299.162 0.667257 -1.70938 0
M  V30 3238 H 297.544 3.22839 -2.29328 0
M  V30 3239 H 298.718 1.31395 -4.41669 0
M  V30 3240 H 297.033 1.33812 -3.94314 0
M  V30 3241 H 299.63 4.07706 -3.45948 0
M  V30 3242 H 299.973 3.76535 -1.77559 0
M  V30 3243 H 300.506 2.5995 -3.01116 0
M  V30 3244 H 297.245 2.61985 -6.00869 0
M  V30 3245 H 296.765 3.72542 -4.70077 0
M  V30 3246 H 298.444 3.71789 -5.29511 0
M  V30 3247 N 298.576 1.31904 0.862503 0
M  V30 3248 C 299.801 1.25135 1.65397 0
M  V30 3249 C 300.226 -0.179 1.87246 0
M  V30 3250 O 299.584 -1.1277 1.4196 0
M  V30 3251 C 299.632 2.00832 2.99498 0
M  V30 3252 O 298.736 1.35075 3.89652 0
M  V30 3253 H 298.077 0.431655 0.504549 0
M  V30 3254 H 300.607 1.74094 1.07483 0
M  V30 3255 H 300.617 2.10709 3.49379 0
M  V30 3256 H 299.292 3.04847 2.82916 0
M  V30 3257 H 297.869 1.33696 3.48109 0
M  V30 3258 N 300.054 -1.07777 1.14986 0
M  V30 3259 C 300.987 -2.14228 0.786243 0
M  V30 3260 C 301.965 -1.60888 -0.235347 0
M  V30 3261 O 303.149 -1.88099 -0.122909 0
M  V30 3262 C 300.276 -3.38281 0.168433 0
M  V30 3263 C 299.322 -4.10387 1.16123 0
M  V30 3264 S 300.155 -4.62371 2.70135 0
M  V30 3265 C 301.311 -5.89704 2.09762 0
M  V30 3266 H 301.544 -2.44741 1.68787 0
M  V30 3267 H 299.077 -1.19984 0.971756 0
M  V30 3268 H 301.035 -4.10098 -0.181588 0
M  V30 3269 H 299.696 -3.05953 -0.710725 0
M  V30 3270 H 298.889 -4.99431 0.677086 0
M  V30 3271 H 298.491 -3.44513 1.45556 0
M  V30 3272 H 300.783 -6.61648 1.45701 0
M  V30 3273 H 301.726 -6.42824 2.96955 0
M  V30 3274 H 302.134 -5.4302 1.54239 0
M  V30 3275 N 301.532 -0.945985 -1.26051 0
M  V30 3276 C 302.948 -0.649045 -1.45807 0
M  V30 3277 C 303.148 0.796158 -1.85104 0
M  V30 3278 O 302.204 1.57233 -1.97571 0
M  V30 3279 C 303.517 -1.61458 -2.53677 0
M  V30 3280 C 305.065 -1.62481 -2.67524 0
M  V30 3281 C 305.54 -2.57776 -3.7857 0
M  V30 3282 N 307.031 -2.5609 -3.85969 0
M  V30 3283 C 307.766 -3.26508 -4.7136 0
M  V30 3284 N 307.262 -4.0637 -5.61102 0
M  V30 3285 N 309.055 -3.15437 -4.65248 0
M  V30 3286 H 301.206 -1.88005 -0.988328 0
M  V30 3287 H 303.469 -0.808198 -0.4955 0
M  V30 3288 H 303.175 -2.64644 -2.31638 0
M  V30 3289 H 303.049 -1.37036 -3.51427 0
M  V30 3290 H 305.436 -0.600167 -2.88933 0
M  V30 3291 H 305.517 -1.90958 -1.70202 0
M  V30 3292 H 305.161 -3.60361 -3.57913 0
M  V30 3293 H 305.091 -2.26587 -4.75359 0
M  V30 3294 H 307.582 -1.98105 -3.21812 0
M  V30 3295 H 307.895 -4.57042 -6.23164 0
M  V30 3296 H 306.24 -4.10469 -5.60839 0
M  V30 3297 H 309.431 -2.52525 -3.94143 0
M  V30 3298 H 309.604 -3.70584 -5.31575 0
M  V30 3299 N 303.011 1.40521 -0.713556 0
M  V30 3300 C 304.288 1.94775 -0.17943 0
M  V30 3301 C 304.668 1.65184 1.31444 0
M  V30 3302 O 304.016 0.968429 2.06963 0
M  V30 3303 C 304.226 3.45543 -0.489986 0
M  V30 3304 C 305.574 4.22442 -0.427536 0
M  V30 3305 O 306.598 3.53644 -0.425929 0
M  V30 3306 O 305.457 5.4501 -0.403292 0
M  V30 3307 H 302.551 0.826606 -0.0255192 0
M  V30 3308 H 305.097 1.5014 -0.790949 0
M  V30 3309 H 303.869 3.60432 -1.5233 0
M  V30 3310 H 303.492 3.97311 0.151598 0
M  V30 3311 N 304.489 0.459591 1.5075 0
M  V30 3312 C 305.737 -0.0991532 2.01857 0
M  V30 3313 C 306.058 -1.41247 1.34441 0
M  V30 3314 O 305.328 -1.89775 0.486022 0
M  V30 3315 H 303.908 -0.039633 0.745948 0
M  V30 3316 H 306.57 0.607387 1.85194 0
M  V30 3317 H 305.666 -0.258998 3.11023 0
M  V30 3318 N 305.967 -1.56429 0.191757 0
M  V30 3319 C 306.914 -2.18936 -0.730454 0
M  V30 3320 C 307.884 -1.13557 -1.21219 0
M  V30 3321 O 309.069 -1.41794 -1.27668 0
M  V30 3322 C 306.209 -2.85013 -1.9458 0
M  V30 3323 C 305.322 -4.04909 -1.50574 0
M  V30 3324 C 304.457 -4.58853 -2.67634 0
M  V30 3325 C 303.496 -5.71114 -2.20217 0
M  V30 3326 N 302.633 -6.19478 -3.30442 0
M  V30 3327 H 307.473 -2.97389 -0.190664 0
M  V30 3328 H 305.01 -1.46869 -0.0823694 0
M  V30 3329 H 306.968 -3.21492 -2.65893 0
M  V30 3330 H 305.598 -2.09129 -2.45896 0
M  V30 3331 H 304.65 -3.74115 -0.688605 0
M  V30 3332 H 305.962 -4.86113 -1.11784 0
M  V30 3333 H 305.116 -4.97619 -3.47074 0
M  V30 3334 H 303.855 -3.76749 -3.09696 0
M  V30 3335 H 302.86 -5.31879 -1.3923 0
M  V30 3336 H 304.085 -6.55033 -1.79189 0
M  V30 3337 H 302.031 -5.40297 -3.72041 0
M  V30 3338 H 301.948 -6.95725 -2.9581 0
M  V30 3339 H 303.216 -6.62898 -4.10106 0
M  V30 3340 N 307.445 0.0818655 -1.57387 0
M  V30 3341 C 308.375 1.09885 -2.06028 0
M  V30 3342 C 309.356 1.4098 -0.951774 0
M  V30 3343 O 310.541 1.50781 -1.22387 0
M  V30 3344 C 307.671 2.4151 -2.4958 0
M  V30 3345 C 306.625 2.24792 -3.64215 0
M  V30 3346 C 305.951 3.61712 -3.93787 0
M  V30 3347 C 307.251 1.67749 -4.94629 0
M  V30 3348 H 308.945 0.694128 -2.91243 0
M  V30 3349 H 306.491 0.332448 -1.4011 0
M  V30 3350 H 308.444 3.12939 -2.82219 0
M  V30 3351 H 307.168 2.83943 -1.61381 0
M  V30 3352 H 305.827 1.55807 -3.31843 0
M  V30 3353 H 305.475 4.01697 -3.02735 0
M  V30 3354 H 305.175 3.51368 -4.70971 0
M  V30 3355 H 306.699 4.34587 -4.28913 0
M  V30 3356 H 308.113 2.29032 -5.25564 0
M  V30 3357 H 306.51 1.68128 -5.76067 0
M  V30 3358 H 307.58 0.638059 -4.80684 0
M  V30 3359 N 308.923 1.53595 0.353017 0
M  V30 3360 C 310.151 1.74311 1.1146 0
M  V30 3361 C 310.566 0.477854 1.82653 0
M  V30 3362 O 309.923 -0.549977 1.74016 0
M  V30 3363 C 309.974 2.91694 2.13534 0
M  V30 3364 O 309.695 4.13325 1.45238 0
M  V30 3365 C 311.196 3.24384 3.02142 0
M  V30 3366 H 308.416 0.582669 0.332773 0
M  V30 3367 H 310.96 2.00386 0.408107 0
M  V30 3368 H 309.115 2.67977 2.79763 0
M  V30 3369 H 309.529 4.79148 2.13349 0
M  V30 3370 H 311.003 4.09893 3.69718 0
M  V30 3371 H 311.48 2.40282 3.67643 0
M  V30 3372 H 312.086 3.50073 2.41514 0
M  V30 3373 N 310.401 -0.613514 1.45168 0
M  V30 3374 C 311.331 -1.7354 1.56225 0
M  V30 3375 C 312.312 -1.64981 0.41414 0
M  V30 3376 O 313.497 -1.83472 0.636526 0
M  V30 3377 C 310.627 -3.12128 1.52295 0
M  V30 3378 C 309.581 -3.35491 2.65762 0
M  V30 3379 C 308.907 -4.74291 2.46885 0
M  V30 3380 C 310.207 -3.26325 4.0781 0
M  V30 3381 H 311.901 -1.64543 2.50132 0
M  V30 3382 H 309.447 -0.790185 1.20383 0
M  V30 3383 H 311.4 -3.90404 1.58628 0
M  V30 3384 H 310.124 -3.2195 0.549139 0
M  V30 3385 H 308.783 -2.59603 2.58847 0
M  V30 3386 H 308.431 -4.80839 1.47657 0
M  V30 3387 H 308.131 -4.9088 3.22972 0
M  V30 3388 H 309.655 -5.54775 2.55063 0
M  V30 3389 H 311.069 -3.94483 4.16 0
M  V30 3390 H 309.466 -3.54445 4.8424 0
M  V30 3391 H 310.536 -2.23855 4.30136 0
M  V30 3392 N 311.879 -1.3236 -0.855495 0
M  V30 3393 C 312.812 -1.15559 -1.96777 0
M  V30 3394 C 313.79 -0.0552681 -1.62506 0
M  V30 3395 O 314.974 -0.214419 -1.87277 0
M  V30 3396 C 312.101 -0.768851 -3.29858 0
M  V30 3397 C 311.147 -1.87429 -3.83109 0
M  V30 3398 S 311.98 -3.48243 -4.06801 0
M  V30 3399 C 313.136 -3.11539 -5.42858 0
M  V30 3400 H 313.369 -2.09717 -2.10727 0
M  V30 3401 H 310.902 -1.17011 -1.00737 0
M  V30 3402 H 312.86 -0.55248 -4.06765 0
M  V30 3403 H 311.521 0.153857 -3.13723 0
M  V30 3404 H 310.714 -1.55667 -4.79358 0
M  V30 3405 H 310.316 -2.04647 -3.13042 0
M  V30 3406 H 312.608 -2.61331 -6.2507 0
M  V30 3407 H 313.551 -4.06806 -5.79582 0
M  V30 3408 H 313.959 -2.48582 -5.06821 0
M  V30 3409 N 313.357 1.07166 -1.15556 0
M  V30 3410 C 314.604 1.79798 -0.931604 0
M  V30 3411 C 314.932 1.8682 0.54115 0
M  V30 3412 O 314.187 1.34942 1.41736 0
M  V30 3413 C 314.486 3.24707 -1.49332 0
M  V30 3414 C 314.152 3.37781 -2.98688 0
M  V30 3415 C 312.814 3.41057 -3.39461 0
M  V30 3416 C 315.166 3.40424 -3.94665 0
M  V30 3417 C 312.494 3.4458 -4.74849 0
M  V30 3418 C 314.846 3.45485 -5.29927 0
M  V30 3419 C 313.51 3.47039 -5.70193 0
M  V30 3420 H 312.78 0.657928 -0.340898 0
M  V30 3421 H 315.427 1.26091 -1.44129 0
M  V30 3422 H 313.732 3.81208 -0.904859 0
M  V30 3423 H 315.429 3.79486 -1.29582 0
M  V30 3424 H 312.019 3.35932 -2.66172 0
M  V30 3425 H 316.203 3.37113 -3.64237 0
M  V30 3426 H 311.459 3.44083 -5.05388 0
M  V30 3427 H 315.633 3.46476 -6.04092 0
M  V30 3428 H 313.26 3.49522 -6.75084 0
M  V30 3429 N 314.835 0.952656 1.25548 0
M  V30 3430 C 316.251 0.656769 1.4546 0
M  V30 3431 C 316.451 -0.78633 1.85524 0
M  V30 3432 O 315.507 -1.56183 1.98402 0
M  V30 3433 C 316.82 1.62801 2.52817 0
M  V30 3434 C 318.368 1.63897 2.66659 0
M  V30 3435 C 318.843 2.5978 3.77198 0
M  V30 3436 N 320.334 2.58133 3.84606 0
M  V30 3437 C 321.069 3.29003 4.69621 0
M  V30 3438 N 320.565 4.09339 5.58939 0
M  V30 3439 N 322.358 3.179 4.63569 0
M  V30 3440 H 314.509 1.88526 0.978344 0
M  V30 3441 H 316.772 0.810815 0.491206 0
M  V30 3442 H 316.478 2.65869 2.30232 0
M  V30 3443 H 316.352 1.38898 3.50695 0
M  V30 3444 H 318.739 0.615481 2.8861 0
M  V30 3445 H 318.82 1.91858 1.69187 0
M  V30 3446 H 318.464 3.62254 3.55997 0
M  V30 3447 H 318.394 2.29105 4.7415 0
M  V30 3448 H 320.885 1.99809 3.20757 0
M  V30 3449 H 321.198 4.6034 6.20731 0
M  V30 3450 H 319.543 4.13438 5.58654 0
M  V30 3451 H 322.734 2.54612 3.92798 0
M  V30 3452 H 322.907 3.73398 5.29602 0
M  V30 3453 N 316.313 -1.40141 0.720998 0
M  V30 3454 C 317.559 -2.01084 0.263231 0
M  V30 3455 C 317.892 -1.57052 -1.14229 0
M  V30 3456 O 317.167 -0.793027 -1.77599 0
M  V30 3457 C 317.45 -3.58401 0.349344 0
M  V30 3458 C 317.303 -4.12491 1.79363 0
M  V30 3459 C 318.622 -4.39231 -0.276351 0
M  V30 3460 H 315.741 -0.730572 0.0971228 0
M  V30 3461 H 318.383 -1.66543 0.914518 0
M  V30 3462 H 316.533 -3.87958 -0.205165 0
M  V30 3463 H 318.205 -3.93711 2.40394 0
M  V30 3464 H 316.448 -3.66576 2.31958 0
M  V30 3465 H 317.119 -5.21646 1.80524 0
M  V30 3466 H 319.595 -4.15637 0.196184 0
M  V30 3467 H 318.471 -5.48586 -0.185681 0
M  V30 3468 H 318.732 -4.20643 -1.36059 0
M  V30 3469 N 317.792 -0.46758 -1.50504 0
M  V30 3470 C 319.04 0.0884469 -2.01906 0
M  V30 3471 C 319.361 1.40532 -1.35188 0
M  V30 3472 O 318.631 1.89515 -0.496079 0
M  V30 3473 H 317.211 0.0356765 -0.746148 0
M  V30 3474 H 319.873 -0.6172 -1.84869 0
M  V30 3475 H 318.969 0.2425 -3.11156 0
M  V30 3476 N 319.27 1.56325 -0.20005 0
M  V30 3477 C 320.218 2.20666 0.735482 0
M  V30 3478 C 321.212 1.17934 1.21605 0
M  V30 3479 O 322.418 1.36068 1.17837 0
M  V30 3480 H 318.793 0.70725 0.255542 0
M  V30 3481 H 320.764 2.9792 0.169166 0
M  V30 3482 C 319.513 2.88391 1.94232 0
M  V30 3483 H 318.836 3.67185 1.58161 0
M  V30 3484 H 320.276 3.3684 2.57517 0
M  V30 3485 C 318.735 1.89692 2.78421 0
M  V30 3486 O 319.265 1.40032 3.76502 0
M  V30 3487 N 317.471 1.57813 2.44015 0
M  V30 3488 H 317.018 1.9839 1.64314 0
M  V30 3489 H 316.976 0.920325 3.00628 0
M  V30 3490 N 320.748 -0.0735177 1.57428 0
M  V30 3491 C 321.678 -1.0879 2.06608 0
M  V30 3492 C 322.659 -1.40473 0.959237 0
M  V30 3493 O 323.844 -1.5013 1.23185 0
M  V30 3494 C 320.974 -2.40183 2.50857 0
M  V30 3495 C 319.928 -2.22858 3.65402 0
M  V30 3496 C 319.254 -3.59619 3.957 0
M  V30 3497 C 320.554 -1.65123 4.95511 0
M  V30 3498 H 322.248 -0.678673 2.91607 0
M  V30 3499 H 319.794 -0.325013 1.40284 0
M  V30 3500 H 321.747 -3.11437 2.83874 0
M  V30 3501 H 320.471 -2.83083 1.62885 0
M  V30 3502 H 319.13 -1.54045 3.32664 0
M  V30 3503 H 318.778 -4.00086 3.04861 0
M  V30 3504 H 318.478 -3.48866 4.72828 0
M  V30 3505 H 320.002 -4.32306 4.31212 0
M  V30 3506 H 321.416 -2.26241 5.26771 0
M  V30 3507 H 319.813 -1.65071 5.7695 0
M  V30 3508 H 320.883 -0.612559 4.81015 0
M  V30 3509 N 322.226 -1.5378 -0.344866 0
M  V30 3510 C 323.642 -1.44015 -0.687888 0
M  V30 3511 C 323.842 -0.595834 -1.92489 0
M  V30 3512 O 322.898 -0.0863064 -2.52352 0
M  V30 3513 C 324.211 -2.87481 -0.881758 0
M  V30 3514 C 325.759 -2.97247 -0.980459 0
M  V30 3515 C 326.234 -4.41819 -1.20665 0
M  V30 3516 N 327.725 -4.45339 -1.27389 0
M  V30 3517 C 328.46 -5.54333 -1.46639 0
M  V30 3518 N 327.956 -6.73335 -1.63071 0
M  V30 3519 N 329.749 -5.41944 -1.49176 0
M  V30 3520 H 321.9 -2.07169 0.468475 0
M  V30 3521 H 324.163 -0.93643 0.147655 0
M  V30 3522 H 323.869 -3.51672 -0.0443444 0
M  V30 3523 H 323.743 -3.32352 -1.78388 0
M  V30 3524 H 326.13 -2.33197 -1.8084 0
M  V30 3525 H 326.211 -2.5574 -0.0552713 0
M  V30 3526 H 325.855 -5.06449 -0.383652 0
M  V30 3527 H 325.785 -4.80917 -2.14539 0
M  V30 3528 H 328.276 -3.59585 -1.1622 0
M  V30 3529 H 328.589 -7.52165 -1.77391 0
M  V30 3530 H 326.934 -6.76282 -1.60209 0
M  V30 3531 H 330.125 -4.47932 -1.3592 0
M  V30 3532 H 330.298 -6.26946 -1.63837 0
M  V30 3533 N 323.704 0.605807 -1.45491 0
M  V30 3534 C 324.652 1.73754 -1.54636 0
M  V30 3535 C 325.646 1.64207 -0.416219 0
M  V30 3536 O 326.852 1.69979 -0.592199 0
M  V30 3537 H 323.227 0.574073 -0.485741 0
M  V30 3538 H 325.198 1.63169 -2.49837 0
M  V30 3539 C 323.947 3.12135 -1.53189 0
M  V30 3540 H 323.27 3.20141 -2.39478 0
M  V30 3541 H 324.71 3.91147 -1.63645 0
M  V30 3542 C 323.169 3.35921 -0.256616 0
M  V30 3543 O 323.699 3.96194 0.662798 0
M  V30 3544 N 321.905 2.90204 -0.151751 0
M  V30 3545 H 321.452 2.41336 -0.90081 0
M  V30 3546 H 321.41 3.06492 0.700699 0
M  V30 3547 N 325.182 1.32811 0.848464 0
M  V30 3548 C 326.407 1.26882 1.6406 0
M  V30 3549 C 326.832 -0.15913 1.87426 0
M  V30 3550 O 326.19 -1.11258 1.43148 0
M  V30 3551 C 326.238 2.03997 2.97351 0
M  V30 3552 O 325.342 1.39201 3.88197 0
M  V30 3553 H 324.683 0.436982 0.499943 0
M  V30 3554 H 327.213 1.75224 1.0563 0
M  V30 3555 H 327.223 2.14403 3.47124 0
M  V30 3556 H 325.898 3.0783 2.79666 0
M  V30 3557 H 324.475 1.37381 3.46671 0
M  V30 3558 N 326.66 -1.06551 1.16123 0
M  V30 3559 C 327.61 -2.12209 0.833736 0
M  V30 3560 C 328.594 -1.59825 -0.185656 0
M  V30 3561 O 329.786 -1.76994 0.0147906 0
M  V30 3562 C 326.915 -3.41674 0.333697 0
M  V30 3563 C 326.001 -4.00892 1.38372 0
M  V30 3564 N 326.392 -4.34256 2.59337 0
M  V30 3565 C 324.69 -4.28463 1.23836 0
M  V30 3566 C 325.391 -4.81291 3.26701 0
M  V30 3567 N 324.367 -4.80565 2.54083 0
M  V30 3568 H 328.169 -2.35849 1.75364 0
M  V30 3569 H 325.683 -1.24068 1.04789 0
M  V30 3570 H 327.68 -4.16822 0.0806918 0
M  V30 3571 H 326.34 -3.19475 -0.58017 0
M  V30 3572 H 327.351 -4.24687 2.96415 0
M  V30 3573 H 324.028 -4.15721 0.38504 0
M  V30 3574 H 325.418 -5.16332 4.29943 0
M  V30 3575 N 328.138 -0.959301 -1.25041 0
M  V30 3576 C 329.071 -0.427418 -2.24161 0
M  V30 3577 C 330.049 0.493837 -1.54919 0
M  V30 3578 O 331.233 0.427144 -1.83597 0
M  V30 3579 C 328.36 0.383893 -3.36517 0
M  V30 3580 C 327.406 -0.478431 -4.23808 0
M  V30 3581 S 328.239 -1.91353 -5.00144 0
M  V30 3582 C 329.395 -1.11077 -6.15965 0
M  V30 3583 H 329.628 -1.26743 -2.6893 0
M  V30 3584 H 327.161 -0.763714 -1.34189 0
M  V30 3585 H 329.119 0.846039 -4.01687 0
M  V30 3586 H 327.78 1.19878 -2.90324 0
M  V30 3587 H 326.973 0.14406 -5.03794 0
M  V30 3588 H 326.575 -0.87597 -3.63597 0
M  V30 3589 H 328.867 -0.361699 -6.76534 0
M  V30 3590 H 329.81 -1.88472 -6.82557 0
M  V30 3591 H 330.218 -0.638843 -5.60873 0
M  V30 3592 N 329.616 1.39756 -0.72842 0
M  V30 3593 C 330.862 2.00942 -0.273892 0
M  V30 3594 C 331.195 1.57656 1.13394 0
M  V30 3595 O 330.47 0.802434 1.77176 0
M  V30 3596 C 330.753 3.58211 -0.368346 0
M  V30 3597 C 330.606 4.11534 -1.81548 0
M  V30 3598 C 331.925 4.39372 0.253054 0
M  V30 3599 H 329.044 0.730047 -0.100996 0
M  V30 3600 H 331.686 1.66056 -0.923337 0
M  V30 3601 H 329.836 3.88061 0.184588 0
M  V30 3602 H 331.508 3.92431 -2.42478 0
M  V30 3603 H 329.751 3.65341 -2.33898 0
M  V30 3604 H 330.422 5.20682 -1.83288 0
M  V30 3605 H 332.898 4.15527 -0.218224 0
M  V30 3606 H 331.774 5.48677 0.156585 0
M  V30 3607 H 332.035 4.21358 1.33826 0
M  V30 3608 N 331.094 0.475555 1.50254 0
M  V30 3609 C 332.319 -0.0777042 2.07254 0
M  V30 3610 C 332.744 -1.3235 1.3366 0
M  V30 3611 O 332.102 -1.77152 0.385597 0
M  V30 3612 C 332.15 -0.340169 3.58992 0
M  V30 3613 O 331.254 -1.41982 3.87188 0
M  V30 3614 H 330.595 0.0149556 0.663832 0
M  V30 3615 H 333.125 0.667878 1.93392 0
M  V30 3616 H 333.135 -0.579332 4.03866 0
M  V30 3617 H 331.81 0.570167 4.11973 0
M  V30 3618 H 330.387 -1.16762 3.54148 0
M  V30 3619 N 332.573 -1.56217 0.208337 0
M  V30 3620 C 333.536 -2.18455 -0.693557 0
M  V30 3621 C 334.536 -1.14268 -1.13135 0
M  V30 3622 O 335.726 -1.39577 -1.0423 0
M  V30 3623 C 332.858 -2.79727 -1.94848 0
M  V30 3624 H 334.051 -2.99519 -0.15114 0
M  V30 3625 H 331.604 -1.56245 -0.041287 0
M  V30 3626 H 332.339 -2.02497 -2.53309 0
M  V30 3627 H 332.124 -3.56009 -1.64316 0
M  V30 3628 H 333.614 -3.27475 -2.59133 0
M  V30 3629 N 334.051 0.0651679 -1.57465 0
M  V30 3630 C 334.983 1.10359 -2.00882 0
M  V30 3631 C 335.996 1.346 -0.915788 0
M  V30 3632 O 337.185 1.32723 -1.1936 0
M  V30 3633 C 334.285 2.45312 -2.33828 0
M  V30 3634 C 333.458 2.40934 -3.65061 0
M  V30 3635 C 332.517 3.58047 -3.85602 0
M  V30 3636 O 331.543 3.39175 -4.57109 0
M  V30 3637 N 332.745 4.78637 -3.28462 0
M  V30 3638 H 335.51 0.733807 -2.90578 0
M  V30 3639 H 333.071 0.253719 -1.599 0
M  V30 3640 H 335.063 3.22314 -2.44737 0
M  V30 3641 H 333.633 2.74267 -1.49988 0
M  V30 3642 H 332.853 1.49273 -3.64844 0
M  V30 3643 H 334.141 2.35117 -4.51218 0
M  V30 3644 H 333.539 4.96872 -2.70433 0
M  V30 3645 H 332.096 5.53127 -3.44809 0
M  V30 3646 N 335.529 1.53961 0.336706 0
M  V30 3647 C 336.778 1.70751 1.07363 0
M  V30 3648 C 337.091 0.481061 1.89592 0
M  V30 3649 O 338.297 0.530046 2.66276 0
M  V30 3650 C 336.753 3.01965 1.95818 0
M  V30 3651 C 336.361 4.31971 1.18764 0
M  V30 3652 C 338.105 3.28121 2.69327 0
M  V30 3653 C 336.012 5.54255 2.06289 0
M  V30 3654 H 334.942 0.636292 0.404535 0
M  V30 3655 H 337.593 1.80459 0.332681 0
M  V30 3656 H 335.975 2.86132 2.7376 0
M  V30 3657 H 337.149 4.5853 0.456849 0
M  V30 3658 H 335.464 4.12481 0.569946 0
M  V30 3659 H 338.061 4.16673 3.35094 0
M  V30 3660 H 338.404 2.45426 3.36261 0
M  V30 3661 H 338.937 3.44762 1.98454 0
M  V30 3662 H 335.676 6.39513 1.43885 0
M  V30 3663 H 335.196 5.31935 2.77138 0
M  V30 3664 H 336.875 5.90159 2.65182 0
M  V30 3665 N 337.007 -0.598083 1.45811 0
M  V30 3666 C 338.423 -0.919847 1.30426 0
M  V30 3667 C 338.623 -1.99759 0.264303 0
M  V30 3668 O 337.679 -2.50221 -0.338472 0
M  V30 3669 C 338.992 -1.35176 2.68603 0
M  V30 3670 C 340.54 -1.46546 2.76574 0
M  V30 3671 C 341.015 -1.9311 4.15298 0
M  V30 3672 N 342.506 -2.00328 4.1764 0
M  V30 3673 C 343.241 -2.37599 5.21856 0
M  V30 3674 N 342.737 -2.73771 6.36413 0
M  V30 3675 N 344.53 -2.38021 5.09218 0
M  V30 3676 H 336.681 0.114111 2.12093 0
M  V30 3677 H 338.944 -0.0116121 0.947929 0
M  V30 3678 H 338.65 -0.633969 3.45939 0
M  V30 3679 H 338.524 -2.3164 2.97696 0
M  V30 3680 H 340.911 -2.17415 1.99537 0
M  V30 3681 H 340.992 -0.483727 2.51185 0
M  V30 3682 H 340.636 -1.22824 4.92825 0
M  V30 3683 H 340.566 -2.92213 4.38086 0
M  V30 3684 H 343.057 -1.74925 3.34977 0
M  V30 3685 H 343.37 -3.0112 7.11721 0
M  V30 3686 H 341.715 -2.71445 6.39799 0
M  V30 3687 H 344.906 -2.09174 4.18765 0
M  V30 3688 H 345.079 -2.66741 5.90554 0
M  V30 3689 N 338.485 -1.33259 -0.841409 0
M  V30 3690 C 339.725 -1.25902 -1.61022 0
M  V30 3691 C 340.089 0.173325 -1.91216 0
M  V30 3692 O 341.29 0.370824 -2.6623 0
M  V30 3693 C 339.561 -2.10735 -2.88662 0
M  V30 3694 S 341.12 -2.20541 -3.79351 0
M  V30 3695 H 337.938 -0.447958 -0.552137 0
M  V30 3696 H 340.54 -1.68263 -0.995382 0
M  V30 3697 H 339.244 -3.1384 -2.64448 0
M  V30 3698 H 338.775 -1.69201 -3.55154 0
M  V30 3699 H 340.79 -1.36462 -4.77067 0
M  V30 3700 N 339.963 1.05934 -1.16686 0
M  V30 3701 C 340.91 2.13499 -0.876748 0
M  V30 3702 C 341.88 1.65162 0.176299 0
M  V30 3703 O 343.065 1.90757 0.0407143 0
M  V30 3704 C 340.205 3.42912 -0.387967 0
M  V30 3705 C 339.318 4.04964 -1.50426 0
M  V30 3706 C 338.453 5.22266 -0.970125 0
M  V30 3707 C 337.492 5.76309 -2.06238 0
M  V30 3708 N 336.629 6.84922 -1.54356 0
M  V30 3709 H 341.469 2.37654 -1.7979 0
M  V30 3710 H 339.006 1.16598 -0.896843 0
M  V30 3711 H 340.964 4.17111 -0.086186 0
M  V30 3712 H 339.594 3.18963 0.496235 0
M  V30 3713 H 338.646 3.28277 -1.92193 0
M  V30 3714 H 339.958 4.41122 -2.32836 0
M  V30 3715 H 339.112 6.03506 -0.621743 0
M  V30 3716 H 337.851 4.87564 -0.115377 0
M  V30 3717 H 336.856 4.93704 -2.41942 0
M  V30 3718 H 338.081 6.13062 -2.92115 0
M  V30 3719 H 336.027 6.52131 -0.711406 0
M  V30 3720 H 335.944 7.20043 -2.30379 0
M  V30 3721 H 337.212 7.69832 -1.22387 0
M  V30 3722 N 341.441 0.965919 1.2453 0
M  V30 3723 C 342.371 0.513476 2.27784 0
M  V30 3724 C 343.352 -0.445974 1.6415 0
M  V30 3725 O 344.537 -0.342485 1.91156 0
M  V30 3726 C 341.667 -0.198839 3.4673 0
M  V30 3727 C 340.621 0.676456 4.2262 0
M  V30 3728 C 339.947 -0.167248 5.34438 0
M  V30 3729 C 341.247 1.96017 4.84123 0
M  V30 3730 H 342.941 1.3765 2.65881 0
M  V30 3731 H 340.487 0.663321 1.27813 0
M  V30 3732 H 342.44 -0.526567 4.18097 0
M  V30 3733 H 341.164 -1.0962 3.07654 0
M  V30 3734 H 339.823 0.98743 3.53052 0
M  V30 3735 H 339.471 -1.0647 4.91603 0
M  V30 3736 H 339.171 0.415181 5.86131 0
M  V30 3737 H 340.695 -0.489688 6.08633 0
M  V30 3738 H 342.109 1.69814 5.47573 0
M  V30 3739 H 340.506 2.48918 5.4604 0
M  V30 3740 H 341.576 2.65622 4.05676 0
M  V30 3741 N 342.919 -1.39368 0.735821 0
M  V30 3742 C 343.849 -2.33234 0.111506 0
M  V30 3743 C 344.83 -1.53954 -0.723334 0
M  V30 3744 O 346.015 -1.82344 -0.668147 0
M  V30 3745 C 343.145 -3.38057 -0.795917 0
M  V30 3746 C 342.099 -4.2795 -0.065172 0
M  V30 3747 C 341.425 -5.23479 -1.08967 0
M  V30 3748 C 342.725 -5.10741 1.09273 0
M  V30 3749 H 344.419 -2.85692 0.895571 0
M  V30 3750 H 341.965 -1.37364 0.432109 0
M  V30 3751 H 343.918 -4.02675 -1.24221 0
M  V30 3752 H 342.642 -2.8404 -1.61211 0
M  V30 3753 H 341.301 -3.64813 0.361511 0
M  V30 3754 H 340.949 -4.65758 -1.89944 0
M  V30 3755 H 340.649 -5.84472 -0.605489 0
M  V30 3756 H 342.173 -5.90974 -1.53565 0
M  V30 3757 H 343.587 -5.68699 0.724841 0
M  V30 3758 H 341.984 -5.8088 1.50659 0
M  V30 3759 H 343.054 -4.45525 1.91404 0
M  V30 3760 N 344.397 -0.483516 -1.5 0
M  V30 3761 C 345.344 0.304164 -2.28787 0
M  V30 3762 C 346.314 0.976114 -1.34392 0
M  V30 3763 O 347.499 0.986156 -1.63339 0
M  V30 3764 C 344.639 1.37298 -3.16612 0
M  V30 3765 C 343.752 0.714561 -4.26049 0
M  V30 3766 C 342.887 1.76232 -5.01114 0
M  V30 3767 C 341.926 1.08483 -6.0241 0
M  V30 3768 N 341.063 2.076 -6.70706 0
M  V30 3769 H 345.903 -0.373981 -2.95644 0
M  V30 3770 H 343.44 -0.196275 -1.45785 0
M  V30 3771 H 345.398 2.00445 -3.65893 0
M  V30 3772 H 344.028 2.02012 -2.51776 0
M  V30 3773 H 343.08 -0.0297798 -3.80388 0
M  V30 3774 H 344.392 0.180383 -4.98474 0
M  V30 3775 H 343.546 2.46929 -5.54176 0
M  V30 3776 H 342.285 2.33033 -4.28424 0
M  V30 3777 H 341.29 0.363545 -5.48597 0
M  V30 3778 H 342.515 0.523551 -6.77079 0
M  V30 3779 H 340.461 2.63394 -6.00799 0
M  V30 3780 H 340.378 1.59201 -7.39047 0
M  V30 3781 H 341.646 2.77639 -7.2838 0
M  V30 3782 N 345.875 1.56104 -0.216619 0
M  V30 3783 C 347.1 2.0301 0.424462 0
M  V30 3784 C 347.525 1.0955 1.52907 0
M  V30 3785 O 346.883 0.0827914 1.81111 0
M  V30 3786 C 346.931 3.4819 0.937883 0
M  V30 3787 O 346.035 3.57865 2.04955 0
M  V30 3788 H 345.376 0.656925 0.0966755 0
M  V30 3789 H 347.906 2.01859 -0.33381 0
M  V30 3790 H 347.916 3.88413 1.24897 0
M  V30 3791 H 346.591 4.15699 0.129387 0
M  V30 3792 H 345.168 3.29527 1.74546 0
M  V30 3793 N 347.353 -0.0568162 1.57498 0
M  V30 3794 C 348.769 -0.411933 1.54192 0
M  V30 3795 C 348.969 -1.78287 0.938942 0
M  V30 3796 O 348.025 -2.46483 0.547919 0
M  V30 3797 C 349.338 -0.339244 2.9878 0
M  V30 3798 C 350.886 -0.418348 3.10192 0
M  V30 3799 C 351.361 -0.375407 4.56459 0
M  V30 3800 N 352.852 -0.435038 4.61153 0
M  V30 3801 C 353.587 -0.424265 5.71828 0
M  V30 3802 N 353.083 -0.367418 6.91825 0
M  V30 3803 N 354.876 -0.471938 5.60115 0
M  V30 3804 H 347.027 0.840684 1.95055 0
M  V30 3805 H 349.29 0.316987 0.893433 0
M  V30 3806 H 348.996 0.601742 3.46514 0
M  V30 3807 H 348.87 -1.14371 3.59443 0
M  V30 3808 H 351.257 -1.34976 2.62422 0
M  V30 3809 H 351.338 0.414962 2.52412 0
M  V30 3810 H 350.982 0.552219 5.04889 0
M  V30 3811 H 350.912 -1.22645 5.12119 0
M  V30 3812 H 353.403 -0.482612 3.74806 0
M  V30 3813 H 353.716 -0.363535 7.71944 0
M  V30 3814 H 352.061 -0.333879 6.94198 0
M  V30 3815 H 355.252 -0.514145 4.65268 0
M  V30 3816 H 355.425 -0.460073 6.46365 0
M  V30 3817 N 348.832 -1.54138 -0.328536 0
M  V30 3818 C 349.764 -1.79509 -1.4251 0
M  V30 3819 C 350.777 -0.67688 -1.48061 0
M  V30 3820 O 351.966 -0.953898 -1.50874 0
M  V30 3821 C 349.066 -1.89337 -2.81078 0
M  V30 3822 C 348.239 -3.19443 -2.98789 0
M  V30 3823 C 347.298 -3.20036 -4.17688 0
M  V30 3824 O 346.324 -3.93697 -4.11086 0
M  V30 3825 N 347.526 -2.43467 -5.26976 0
M  V30 3826 H 350.291 -2.74139 -1.21111 0
M  V30 3827 H 347.852 -1.53373 -0.518499 0
M  V30 3828 H 349.844 -1.87167 -3.58818 0
M  V30 3829 H 348.414 -1.01826 -2.95551 0
M  V30 3830 H 347.634 -3.34614 -2.08391 0
M  V30 3831 H 348.922 -4.05354 -3.07515 0
M  V30 3832 H 348.32 -1.83201 -5.35214 0
M  V30 3833 H 346.877 -2.4708 -6.03154 0
M  V30 3834 N 350.31 0.590341 -1.46126 0
M  V30 3835 C 351.538 1.37504 -1.54597 0
M  V30 3836 C 351.953 1.87897 -0.184447 0
M  V30 3837 O 351.31 1.63192 0.816984 0
M  V30 3838 C 351.361 2.56779 -2.54454 0
M  V30 3839 O 351.082 2.08476 -3.85317 0
M  V30 3840 C 352.583 3.49427 -2.72792 0
M  V30 3841 H 349.803 0.420325 -0.523037 0
M  V30 3842 H 352.347 0.718383 -1.91467 0
M  V30 3843 H 350.502 3.1845 -2.20609 0
M  V30 3844 H 350.916 2.86097 -4.396 0
M  V30 3845 H 352.39 4.29619 -3.466 0
M  V30 3846 H 352.867 4.00876 -1.79429 0
M  V30 3847 H 353.473 2.93598 -3.07702 0
M  V30 3848 N 351.788 1.33704 0.83433 0
M  V30 3849 C 353.199 1.22813 1.4062 0
M  V30 3850 C 353.55 -0.151107 1.95617 0
M  V30 3851 O 352.675 -1.05092 1.89168 0
M  V30 3852 C 353.27 2.22355 2.55624 0
M  V30 3853 C 351.829 2.1529 3.08751 0
M  V30 3854 C 350.976 2.09589 1.8157 0
M  V30 3855 H 353.927 1.45236 0.639702 0
M  V30 3856 H 353.948 1.83391 3.33389 0
M  V30 3857 H 353.46 3.22728 2.15566 0
M  V30 3858 H 351.561 1.18235 3.53343 0
M  V30 3859 H 351.674 3.06038 3.68616 0
M  V30 3860 H 350.038 1.55134 2.02004 0
M  V30 3861 H 350.821 3.11777 1.43701 0
M  V30 3862 N 353.266 -1.05314 1.17247 0
M  V30 3863 C 354.176 -2.16538 0.90268 0
M  V30 3864 C 355.192 -1.73523 -0.128707 0
M  V30 3865 O 356.368 -2.01337 0.0502701 0
M  V30 3866 C 353.433 -3.44167 0.418356 0
M  V30 3867 C 352.494 -4.01635 1.51618 0
M  V30 3868 C 351.727 -5.23171 1.05487 0
M  V30 3869 O 351.95 -5.70327 -0.0914715 0
M  V30 3870 O 350.884 -5.72848 1.8474 0
M  V30 3871 H 354.71 -2.42145 1.83302 0
M  V30 3872 H 352.295 -1.15037 0.953246 0
M  V30 3873 H 354.177 -4.21112 0.155726 0
M  V30 3874 H 352.852 -3.20063 -0.48385 0
M  V30 3875 H 351.759 -3.26135 1.83268 0
M  V30 3876 H 353.092 -4.30053 2.39405 0
M  V30 3877 N 354.744 -0.972509 -1.24016 0
M  V30 3878 C 355.992 -0.635776 -1.91839 0
M  V30 3879 C 356.313 0.832312 -1.76345 0
M  V30 3880 O 355.583 1.5946 -1.13795 0
M  V30 3881 H 354.163 -0.232157 -0.710009 0
M  V30 3882 H 356.825 -1.23462 -1.50809 0
M  V30 3883 H 355.921 -0.880545 -2.99421 0
M  V30 3884 N 356.222 1.38976 -0.743202 0
M  V30 3885 C 357.132 2.3434 -0.110399 0
M  V30 3886 C 358.148 1.58741 0.712559 0
M  V30 3887 O 359.324 1.9099 0.639125 0
M  V30 3888 C 356.389 3.37812 0.780012 0
M  V30 3889 C 355.45 4.29263 -0.0561319 0
M  V30 3890 C 354.683 5.27793 0.791875 0
M  V30 3891 O 354.906 5.33043 2.03031 0
M  V30 3892 O 353.84 6.01512 0.216183 0
M  V30 3893 H 357.666 2.90129 -0.897714 0
M  V30 3894 H 355.251 1.40643 -0.503966 0
M  V30 3895 H 357.133 4.01194 1.28923 0
M  V30 3896 H 355.808 2.84395 1.546 0
M  V30 3897 H 354.715 3.69076 -0.611056 0
M  V30 3898 H 356.048 4.85907 -0.784531 0
M  V30 3899 N 357.7 0.491464 1.49741 0
M  V30 3900 C 358.947 -0.0564256 2.02421 0
M  V30 3901 C 359.275 -1.37872 1.37192 0
M  V30 3902 O 358.53 -1.89375 0.493508 0
M  V30 3903 C 358.829 -0.267329 3.56399 0
M  V30 3904 C 358.495 0.975775 4.40215 0
M  V30 3905 C 357.157 1.31655 4.62839 0
M  V30 3906 C 359.509 1.80251 4.89039 0
M  V30 3907 C 356.837 2.48375 5.31532 0
M  V30 3908 C 359.189 2.96116 5.59015 0
M  V30 3909 C 357.853 3.30585 5.79888 0
M  V30 3910 H 357.123 -0.0206476 0.740712 0
M  V30 3911 H 359.77 0.649686 1.80143 0
M  V30 3912 H 358.075 -1.05588 3.77304 0
M  V30 3913 H 359.772 -0.705549 3.94744 0
M  V30 3914 H 356.362 0.700315 4.2284 0
M  V30 3915 H 360.546 1.55239 4.71396 0
M  V30 3916 H 355.802 2.7533 5.45897 0
M  V30 3917 H 359.976 3.60509 5.95824 0
M  V30 3918 H 357.603 4.21132 6.32892 0
M  V30 3919 N 359.178 -1.55987 0.224894 0
M  V30 3920 C 360.108 -2.23426 -0.678457 0
M  V30 3921 C 361.089 -1.20709 -1.19847 0
M  V30 3922 O 362.274 -1.49304 -1.24186 0
M  V30 3923 C 359.404 -2.91676 -1.88527 0
M  V30 3924 C 358.358 -4.00893 -1.49896 0
M  V30 3925 C 357.684 -4.56455 -2.78483 0
M  V30 3926 C 358.984 -5.17769 -0.686461 0
M  V30 3927 H 360.678 -2.99175 -0.116173 0
M  V30 3928 H 358.224 -1.43897 -0.054436 0
M  V30 3929 H 360.177 -3.37547 -2.5227 0
M  V30 3930 H 358.901 -2.1338 -2.47258 0
M  V30 3931 H 357.56 -3.55758 -0.884985 0
M  V30 3932 H 357.208 -3.74886 -3.35365 0
M  V30 3933 H 356.908 -5.30169 -2.53368 0
M  V30 3934 H 358.432 -5.05047 -3.43162 0
M  V30 3935 H 359.846 -5.60001 -1.22767 0
M  V30 3936 H 358.243 -5.97735 -0.532259 0
M  V30 3937 H 359.313 -4.83932 0.306196 0
M  V30 3938 N 360.656 0.0484629 -1.57525 0
M  V30 3939 C 362.067 0.597486 -1.76881 0
M  V30 3940 C 362.418 1.76664 -0.853475 0
M  V30 3941 O 361.543 2.16357 -0.0433656 0
M  V30 3942 C 362.138 1.09066 -3.20765 0
M  V30 3943 C 360.697 1.58535 -3.41385 0
M  V30 3944 C 359.844 0.514868 -2.72478 0
M  V30 3945 H 362.795 -0.177758 -1.57701 0
M  V30 3946 H 362.816 1.95875 -3.2621 0
M  V30 3947 H 362.328 0.239521 -3.8736 0
M  V30 3948 H 360.429 2.45898 -2.79937 0
M  V30 3949 H 360.542 1.64622 -4.49929 0
M  V30 3950 H 358.906 0.965407 -2.35695 0
M  V30 3951 H 359.689 -0.32648 -3.41744 0
M  V30 3952 N 362.134 1.5431 0.320358 0
M  V30 3953 C 363.064 1.86912 1.3995 0
M  V30 3954 C 364.045 0.726211 1.53819 0
M  V30 3955 O 365.23 0.980233 1.67646 0
M  V30 3956 C 362.36 2.09932 2.7667 0
M  V30 3957 C 361.314 3.25776 2.77586 0
M  V30 3958 C 360.64 3.34173 4.17412 0
M  V30 3959 C 361.94 4.6335 2.41048 0
M  V30 3960 H 363.634 2.77292 1.12914 0
M  V30 3961 H 361.18 1.33421 0.541738 0
M  V30 3962 H 363.133 2.31324 3.52232 0
M  V30 3963 H 361.857 1.16304 3.0519 0
M  V30 3964 H 360.516 3.04276 2.04479 0
M  V30 3965 H 360.164 2.38098 4.43078 0
M  V30 3966 H 359.864 4.12033 4.18931 0
M  V30 3967 H 361.388 3.57803 4.94782 0
M  V30 3968 H 362.802 4.84602 3.06324 0
M  V30 3969 H 361.199 5.43782 2.53813 0
M  V30 3970 H 362.269 4.65381 1.36193 0
M  V30 3971 N 363.613 -0.582584 1.46437 0
M  V30 3972 C 364.89 -1.34276 1.4223 0
M  V30 3973 C 365.27 -2.10835 0.10583 0
M  V30 3974 O 364.618 -2.09485 -0.912596 0
M  V30 3975 C 364.828 -2.26865 2.65204 0
M  V30 3976 C 366.176 -2.88691 3.11356 0
M  V30 3977 O 367.2 -2.37178 2.65753 0
M  V30 3978 O 366.059 -3.82255 3.90568 0
M  V30 3979 H 363.153 -0.603326 0.565621 0
M  V30 3980 H 365.699 -0.603591 1.58603 0
M  V30 3981 H 364.471 -1.69724 3.52576 0
M  V30 3982 H 364.094 -3.08122 2.5129 0
M  V30 3983 N 365.091 -1.34144 -0.827227 0
M  V30 3984 C 366.023 -1.21206 -1.9453 0
M  V30 3985 C 367.036 -0.140176 -1.62195 0
M  V30 3986 O 368.225 -0.391647 -1.7415 0
M  V30 3987 C 365.325 -0.839141 -3.28347 0
M  V30 3988 C 364.498 -2.0051 -3.88734 0
M  V30 3989 C 363.557 -1.61128 -5.00923 0
M  V30 3990 O 362.583 -2.32726 -5.19449 0
M  V30 3991 N 363.785 -0.522958 -5.7814 0
M  V30 3992 H 366.55 -2.17525 -2.06162 0
M  V30 3993 H 364.111 -1.27043 -1.00358 0
M  V30 3994 H 366.103 -0.557556 -4.00841 0
M  V30 3995 H 364.673 0.0337293 -3.12582 0
M  V30 3996 H 363.893 -2.45166 -3.08686 0
M  V30 3997 H 365.181 -2.78498 -4.25812 0
M  V30 3998 H 364.579 0.0723518 -5.65654 0
M  V30 3999 H 363.136 -0.301089 -6.51104 0
M  V30 4000 N 366.569 1.04691 -1.17803 0
M  V30 4001 C 367.499 2.14494 -0.92275 0
M  V30 4002 C 368.48 1.69546 0.137179 0
M  V30 4003 O 369.665 1.94195 -0.0141108 0
M  V30 4004 C 366.795 3.44491 -0.440803 0
M  V30 4005 C 365.749 4.03031 -1.4405 0
M  V30 4006 C 365.075 5.28432 -0.81631 0
M  V30 4007 C 366.375 4.39932 -2.81527 0
M  V30 4008 H 368.069 2.36107 -1.84103 0
M  V30 4009 H 365.615 1.1347 -0.886599 0
M  V30 4010 H 367.568 4.2066 -0.249602 0
M  V30 4011 H 366.292 3.22546 0.513025 0
M  V30 4012 H 364.951 3.28937 -1.61853 0
M  V30 4013 H 364.599 5.02792 0.144511 0
M  V30 4014 H 364.299 5.68559 -1.48371 0
M  V30 4015 H 365.823 6.07284 -0.635496 0
M  V30 4016 H 367.237 5.07113 -2.67412 0
M  V30 4017 H 365.634 4.9109 -3.44892 0
M  V30 4018 H 366.704 3.50045 -3.35554 0
M  V30 4019 N 368.047 0.979072 1.23499 0
M  V30 4020 C 368.957 0.526431 2.28617 0
M  V30 4021 C 369.973 -0.418126 1.68901 0
M  V30 4022 O 371.149 -0.288372 1.99325 0
M  V30 4023 C 368.214 -0.165235 3.46306 0
M  V30 4024 C 367.275 0.82056 4.21385 0
M  V30 4025 C 366.508 0.161807 5.33455 0
M  V30 4026 O 366.731 -1.04742 5.60701 0
M  V30 4027 O 365.665 0.859708 5.95729 0
M  V30 4028 H 369.491 1.4006 2.69475 0
M  V30 4029 H 367.076 0.746643 1.29405 0
M  V30 4030 H 368.958 -0.553287 4.17752 0
M  V30 4031 H 367.633 -1.01419 3.07402 0
M  V30 4032 H 366.54 1.25929 3.52268 0
M  V30 4033 H 367.873 1.63828 4.64135 0
M  V30 4034 N 369.525 -1.3858 0.750561 0
M  V30 4035 C 370.455 -2.33102 0.136237 0
M  V30 4036 C 371.436 -1.54713 -0.706965 0
M  V30 4037 O 372.621 -1.83043 -0.648769 0
M  V30 4038 C 369.751 -3.38882 -0.760017 0
M  V30 4039 C 368.705 -4.27995 -0.0197785 0
M  V30 4040 C 368.031 -5.24605 -1.03408 0
M  V30 4041 C 369.331 -5.09554 1.14684 0
M  V30 4042 H 371.025 -2.84726 0.925822 0
M  V30 4043 H 368.571 -1.36898 0.446654 0
M  V30 4044 H 370.524 -4.0397 -1.19943 0
M  V30 4045 H 369.248 -2.85734 -1.58189 0
M  V30 4046 H 367.907 -3.64409 0.400184 0
M  V30 4047 H 367.555 -4.67746 -1.84994 0
M  V30 4048 H 367.255 -5.85081 -0.543464 0
M  V30 4049 H 368.779 -5.9257 -1.47288 0
M  V30 4050 H 370.193 -5.67899 0.785118 0
M  V30 4051 H 368.59 -5.7925 1.56812 0
M  V30 4052 H 369.66 -4.4347 1.96118 0
M  V30 4053 N 371.003 -0.499398 -1.49478 0
M  V30 4054 C 372.28 0.108629 -1.95298 0
M  V30 4055 C 372.66 1.54282 -1.44084 0
M  V30 4056 O 372.008 2.18944 -0.653908 0
M  V30 4057 C 372.218 0.0229111 -3.48992 0
M  V30 4058 C 373.566 0.197643 -4.2414 0
M  V30 4059 O 374.59 0.0981735 -3.56065 0
M  V30 4060 O 373.449 0.401669 -5.45022 0
M  V30 4061 H 370.543 0.096181 -0.821388 0
M  V30 4062 H 373.089 -0.561822 -1.6013 0
M  V30 4063 H 371.861 -0.977321 -3.78899 0
M  V30 4064 H 371.484 0.733579 -3.90774 0
M  V30 4065 N 372.481 1.55866 -0.233164 0
M  V30 4066 C 373.727 1.98897 0.395959 0
M  V30 4067 C 374.06 1.12091 1.58585 0
M  V30 4068 O 373.335 0.181182 1.93654 0
M  V30 4069 C 373.618 3.50658 0.819224 0
M  V30 4070 C 373.471 4.48233 -0.375109 0
M  V30 4071 C 374.79 4.07135 1.67121 0
M  V30 4072 H 371.909 0.723102 0.142451 0
M  V30 4073 H 374.551 1.87082 -0.331725 0
M  V30 4074 H 372.701 3.60857 1.43925 0
M  V30 4075 H 374.373 4.50031 -1.01341 0
M  V30 4076 H 372.616 4.21624 -1.02058 0
M  V30 4077 H 373.287 5.51988 -0.0358328 0
M  V30 4078 H 375.763 3.99952 1.14795 0
M  V30 4079 H 374.639 5.13615 1.93625 0
M  V30 4080 H 374.9 3.54736 2.63846 0
M  V30 4081 N 373.959 -0.0401083 1.57549 0
M  V30 4082 C 375.207 -0.731677 1.8839 0
M  V30 4083 C 375.528 -1.76481 0.829425 0
M  V30 4084 O 374.798 -1.95411 -0.1383 0
M  V30 4085 H 373.378 -0.273225 0.695239 0
M  V30 4086 H 376.04 -0.00867725 1.94898 0
M  V30 4087 H 375.136 -1.22816 2.86919 0
M  V30 4088 N 375.437 -1.54477 -0.31217 0
M  V30 4089 C 376.684 -1.73227 -1.04875 0
M  V30 4090 C 377.012 -0.512042 -1.87639 0
M  V30 4091 O 376.267 0.506131 -1.89042 0
M  V30 4092 C 376.566 -2.967 -1.99258 0
M  V30 4093 C 376.232 -4.30974 -1.32559 0
M  V30 4094 C 374.894 -4.67477 -1.141 0
M  V30 4095 C 377.246 -5.14258 -0.847835 0
M  V30 4096 C 374.574 -5.84852 -0.465326 0
M  V30 4097 C 376.926 -6.32327 -0.185931 0
M  V30 4098 C 375.59 -6.67499 0.0107077 0
M  V30 4099 H 374.86 -0.633881 -0.383765 0
M  V30 4100 H 377.507 -1.88727 -0.324731 0
M  V30 4101 H 375.812 -2.75935 -2.7815 0
M  V30 4102 H 377.509 -3.08401 -2.563 0
M  V30 4103 H 374.099 -4.02262 -1.4793 0
M  V30 4104 H 378.283 -4.86565 -0.978192 0
M  V30 4105 H 373.539 -6.10654 -0.301883 0
M  V30 4106 H 377.713 -6.96135 0.192211 0
M  V30 4107 H 375.34 -7.58306 0.536287 0
M  V30 4108 N 376.915 0.57481 -1.46744 0
M  V30 4109 C 378.14 1.36341 -1.56288 0
M  V30 4110 C 378.565 1.86954 -0.207347 0
M  V30 4111 O 377.923 1.62006 0.813871 0
M  V30 4112 C 377.971 2.52147 -2.57787 0
M  V30 4113 O 377.075 3.53834 -2.11838 0
M  V30 4114 H 376.416 0.405713 -0.525636 0
M  V30 4115 H 378.946 0.696453 -1.92382 0
M  V30 4116 H 378.956 2.98958 -2.77648 0
M  V30 4117 H 377.631 2.14663 -3.5622 0
M  V30 4118 H 376.208 3.1345 -2.01999 0
M  V30 4119 N 378.394 1.34581 0.820102 0
M  V30 4120 C 379.622 1.3018 1.60813 0
M  V30 4121 C 380.037 -0.123551 1.88395 0
M  V30 4122 O 379.394 -1.07148 1.47735 0
M  V30 4123 C 379.445 2.09312 2.94739 0
M  V30 4124 O 379.166 3.46288 2.68358 0
M  V30 4125 C 380.667 2.1234 3.89136 0
M  V30 4126 H 377.887 0.447726 0.499782 0
M  V30 4127 H 380.431 1.77237 1.02017 0
M  V30 4128 H 378.586 1.65889 3.50085 0
M  V30 4129 H 379 3.87227 3.53774 0
M  V30 4130 H 380.474 2.72126 4.80262 0
M  V30 4131 H 380.951 1.11854 4.24718 0
M  V30 4132 H 381.557 2.55864 3.39726 0
M  V30 4133 N 379.872 -1.04064 1.18357 0
M  V30 4134 C 381.12 -1.76915 0.977013 0
M  V30 4135 C 381.441 -1.88624 -0.494577 0
M  V30 4136 O 380.711 -1.41125 -1.3587 0
M  V30 4137 H 379.291 -0.65535 0.358504 0
M  V30 4138 H 381.953 -1.25592 1.49039 0
M  V30 4139 H 381.049 -2.78178 1.41504 0
M  V30 4140 N 381.35 -0.985608 -1.22978 0
M  V30 4141 C 382.313 -0.535071 -2.22867 0
M  V30 4142 C 383.313 0.378123 -1.56291 0
M  V30 4143 O 384.503 0.171092 -1.73358 0
M  V30 4144 C 381.635 0.222702 -3.40172 0
M  V30 4145 H 382.828 -1.41835 -2.6424 0
M  V30 4146 H 380.381 -0.772042 -1.35901 0
M  V30 4147 H 381.116 1.12229 -3.04262 0
M  V30 4148 H 380.901 -0.43288 -3.89703 0
M  V30 4149 H 382.391 0.526335 -4.1427 0
M  V30 4150 N 382.828 1.3818 -0.7579 0
M  V30 4151 C 384.105 1.94106 -0.241306 0
M  V30 4152 C 384.485 1.69282 1.26122 0
M  V30 4153 O 383.833 1.03378 2.03777 0
M  V30 4154 C 384.043 3.43809 -0.59967 0
M  V30 4155 C 385.391 4.20868 -0.561717 0
M  V30 4156 O 386.415 3.5211 -0.538222 0
M  V30 4157 O 385.274 5.43451 -0.576478 0
M  V30 4158 H 382.368 0.825376 -0.0518042 0
M  V30 4159 H 384.914 1.47548 -0.838315 0
M  V30 4160 H 383.686 3.55403 -1.6372 0
M  V30 4161 H 383.309 3.97592 0.0251197 0
M  V30 4162 N 384.306 0.507319 1.49211 0
M  V30 4163 C 385.238 -0.304532 2.27168 0
M  V30 4164 C 386.251 -0.924956 1.33972 0
M  V30 4165 O 387.44 -0.807227 1.59205 0
M  V30 4166 C 384.54 -1.44431 3.06583 0
M  V30 4167 C 383.713 -0.930026 4.27398 0
M  V30 4168 C 382.772 -1.94817 4.88807 0
M  V30 4169 O 381.798 -1.51418 5.4869 0
M  V30 4170 N 383 -3.279 4.79022 0
M  V30 4171 H 385.765 0.36395 2.97482 0
M  V30 4172 H 383.326 0.340249 1.58284 0
M  V30 4173 H 385.318 -2.12311 3.44537 0
M  V30 4174 H 383.888 -2.01684 2.38835 0
M  V30 4175 H 383.108 -0.0759244 3.94127 0
M  V30 4176 H 384.396 -0.564932 5.05654 0
M  V30 4177 H 383.794 -3.65843 4.3148 0
M  V30 4178 H 382.351 -3.91476 5.21142 0
M  V30 4179 N 385.784 -1.5574 0.241426 0
M  V30 4180 C 386.714 -2.24133 -0.654722 0
M  V30 4181 C 387.695 -1.21974 -1.1856 0
M  V30 4182 O 388.88 -1.50612 -1.22595 0
M  V30 4183 C 386.01 -2.93659 -1.85423 0
M  V30 4184 C 384.964 -4.0246 -1.45636 0
M  V30 4185 C 384.29 -4.59383 -2.73626 0
M  V30 4186 C 385.59 -5.18468 -0.631506 0
M  V30 4187 H 387.284 -2.99281 -0.0844353 0
M  V30 4188 H 384.83 -1.43947 -0.0391707 0
M  V30 4189 H 386.783 -3.40203 -2.48676 0
M  V30 4190 H 385.507 -2.15991 -2.44981 0
M  V30 4191 H 384.166 -3.56676 -0.847202 0
M  V30 4192 H 383.814 -3.78422 -3.3137 0
M  V30 4193 H 383.514 -5.32826 -2.4773 0
M  V30 4194 H 385.038 -5.08658 -3.37786 0
M  V30 4195 H 386.452 -5.61272 -1.1682 0
M  V30 4196 H 384.849 -5.98266 -0.468831 0
M  V30 4197 H 385.919 -4.8358 0.357506 0
M  V30 4198 N 387.262 0.0317525 -1.57568 0
M  V30 4199 C 388.509 0.723104 -1.89149 0
M  V30 4200 C 388.837 1.75504 -0.838377 0
M  V30 4201 O 388.092 1.95037 0.160982 0
M  V30 4202 C 388.391 1.43167 -3.27472 0
M  V30 4203 C 388.057 0.535972 -4.47703 0
M  V30 4204 C 386.719 0.289262 -4.8033 0
M  V30 4205 C 389.071 -0.0826125 -5.21135 0
M  V30 4206 C 386.399 -0.584853 -5.83778 0
M  V30 4207 C 388.751 -0.944414 -6.25511 0
M  V30 4208 C 387.415 -1.20061 -6.56614 0
M  V30 4209 H 386.685 0.264602 -0.692146 0
M  V30 4210 H 389.332 -0.0169496 -1.91492 0
M  V30 4211 H 387.637 2.24497 -3.21105 0
M  V30 4212 H 389.334 1.97209 -3.49155 0
M  V30 4213 H 385.924 0.738414 -4.22191 0
M  V30 4214 H 390.108 0.0950302 -4.96209 0
M  V30 4215 H 385.364 -0.79168 -6.06253 0
M  V30 4216 H 389.538 -1.43026 -6.81554 0
M  V30 4217 H 387.165 -1.87967 -7.36595 0
M  V30 4218 N 388.74 1.54641 0.303973 0
M  V30 4219 C 389.67 1.88386 1.3796 0
M  V30 4220 C 390.651 0.742485 1.5304 0
M  V30 4221 O 391.836 0.997959 1.66597 0
M  V30 4222 C 388.966 2.12854 2.74427 0
M  V30 4223 C 387.92 3.28702 2.74115 0
M  V30 4224 C 387.246 3.38582 4.13844 0
M  V30 4225 C 388.546 4.65881 2.3612 0
M  V30 4226 H 390.24 2.78474 1.09966 0
M  V30 4227 H 387.786 1.33988 0.527556 0
M  V30 4228 H 389.739 2.35047 3.49758 0
M  V30 4229 H 388.463 1.19535 3.03939 0
M  V30 4230 H 387.122 3.06428 2.0124 0
M  V30 4231 H 386.77 2.42784 4.40528 0
M  V30 4232 H 386.47 4.16453 4.14537 0
M  V30 4233 H 387.994 3.63031 4.90959 0
M  V30 4234 H 389.408 4.87823 3.01167 0
M  V30 4235 H 387.805 5.46444 2.48031 0
M  V30 4236 H 388.875 4.66799 1.3125 0
M  V30 4237 N 390.218 -0.567019 1.47046 0
M  V30 4238 C 391.464 -1.32658 1.53394 0
M  V30 4239 C 391.797 -1.93254 0.19148 0
M  V30 4240 O 391.072 -1.77338 -0.798844 0
M  V30 4241 C 391.355 -2.44412 2.64452 0
M  V30 4242 C 391.208 -1.88749 4.08282 0
M  V30 4243 C 392.527 -3.46387 2.71485 0
M  V30 4244 H 389.646 -0.48098 0.558415 0
M  V30 4245 H 392.288 -0.635481 1.79058 0
M  V30 4246 H 390.438 -3.03363 2.427 0
M  V30 4247 H 392.11 -1.34134 4.41368 0
M  V30 4248 H 390.353 -1.19481 4.17021 0
M  V30 4249 H 391.024 -2.69491 4.81745 0
M  V30 4250 H 393.5 -2.9734 2.91081 0
M  V30 4251 H 392.376 -4.2202 3.50985 0
M  V30 4252 H 392.637 -4.04616 1.78153 0
M  V30 4253 N 391.696 -1.35014 -0.812953 0
M  V30 4254 C 392.921 -1.31187 -1.60639 0
M  V30 4255 C 393.346 0.109382 -1.87782 0
M  V30 4256 O 392.704 1.07424 -1.46047 0
M  V30 4257 C 392.752 -2.11809 -2.91838 0
M  V30 4258 O 391.856 -1.49444 -3.8437 0
M  V30 4259 H 391.197 -0.450084 -0.488181 0
M  V30 4260 H 393.727 -1.77963 -1.00947 0
M  V30 4261 H 393.737 -2.23531 -3.41318 0
M  V30 4262 H 392.412 -3.15137 -2.71407 0
M  V30 4263 H 390.989 -1.46524 -3.42907 0
M  V30 4264 N 393.175 1.03435 -1.18907 0
M  V30 4265 C 394.586 1.58195 -0.991523 0
M  V30 4266 C 394.937 1.90801 0.457081 0
M  V30 4267 O 394.062 1.70272 1.33553 0
M  V30 4268 C 394.657 2.87432 -1.79355 0
M  V30 4269 C 393.216 3.38785 -1.64017 0
M  V30 4270 C 392.363 2.12292 -1.78402 0
M  V30 4271 H 395.314 0.860299 -1.33359 0
M  V30 4272 H 395.335 3.58096 -1.28638 0
M  V30 4273 H 394.847 2.63669 -2.84781 0
M  V30 4274 H 392.948 3.67547 -0.611536 0
M  V30 4275 H 393.061 4.12186 -2.44212 0
M  V30 4276 H 391.425 2.23901 -1.2141 0
M  V30 4277 H 392.208 1.90977 -2.85277 0
M  V30 4278 N 394.653 0.992116 1.22453 0
M  V30 4279 C 395.583 0.561677 2.26644 0
M  V30 4280 C 396.564 -0.411055 1.65059 0
M  V30 4281 O 397.749 -0.301861 1.9184 0
M  V30 4282 C 394.879 -0.125247 3.47074 0
M  V30 4283 C 393.833 0.765948 4.21091 0
M  V30 4284 C 393.159 -0.0538484 5.34673 0
M  V30 4285 C 394.459 2.06242 4.79856 0
M  V30 4286 H 396.153 1.43259 2.62902 0
M  V30 4287 H 393.699 0.690283 1.26377 0
M  V30 4288 H 395.652 -0.437764 4.1912 0
M  V30 4289 H 394.376 -1.03069 3.0991 0
M  V30 4290 H 393.035 1.0621 3.50878 0
M  V30 4291 H 392.683 -0.960188 4.9375 0
M  V30 4292 H 392.383 0.539415 5.85119 0
M  V30 4293 H 393.907 -0.360477 6.09535 0
M  V30 4294 H 395.321 1.8139 5.43848 0
M  V30 4295 H 393.718 2.60444 5.40638 0
M  V30 4296 H 394.788 2.74167 3.99951 0
M  V30 4297 N 396.131 -1.37776 0.765217 0
M  V30 4298 C 397.359 -2.04124 0.337767 0
M  V30 4299 C 397.774 -1.57715 -1.03785 0
M  V30 4300 O 397.131 -0.755447 -1.6613 0
M  V30 4301 C 397.182 -3.59658 0.364442 0
M  V30 4302 O 396.903 -4.04367 1.68579 0
M  V30 4303 C 398.404 -4.43236 -0.0754221 0
M  V30 4304 H 395.624 -0.655696 0.142491 0
M  V30 4305 H 398.168 -1.76238 1.03732 0
M  V30 4306 H 396.323 -3.86339 -0.286471 0
M  V30 4307 H 396.737 -4.98857 1.61993 0
M  V30 4308 H 398.211 -5.52 -0.00560067 0
M  V30 4309 H 398.688 -4.2455 -1.12491 0
M  V30 4310 H 399.294 -4.21767 0.547055 0
M  V30 4311 N 397.609 -0.515225 -1.4894 0
M  V30 4312 C 398.858 0.0261361 -2.01683 0
M  V30 4313 C 399.171 1.36719 -1.39883 0
M  V30 4314 O 400.377 1.99606 -1.84037 0
M  V30 4315 C 398.833 0.0970111 -3.59769 0
M  V30 4316 C 398.441 -1.23825 -4.30548 0
M  V30 4317 C 400.185 0.587981 -4.20408 0
M  V30 4318 C 398.092 -1.12877 -5.80528 0
M  V30 4319 H 397.022 0.0135398 -0.753878 0
M  V30 4320 H 399.673 -0.656787 -1.71343 0
M  V30 4321 H 398.055 0.844694 -3.86886 0
M  V30 4322 H 399.229 -2.00034 -4.15118 0
M  V30 4323 H 397.544 -1.66379 -3.81716 0
M  V30 4324 H 400.141 0.68763 -5.3026 0
M  V30 4325 H 400.484 1.59026 -3.84729 0
M  V30 4326 H 401.017 -0.103582 -3.97665 0
M  V30 4327 H 397.756 -2.10575 -6.20756 0
M  V30 4328 H 397.276 -0.407799 -5.98412 0
M  V30 4329 H 398.955 -0.813332 -6.41868 0
M  V30 4330 N 399.087 1.5561 -0.249682 0
M  V30 4331 C 400.327 2.00916 0.37579 0
M  V30 4332 C 400.691 1.13409 1.54927 0
M  V30 4333 O 401.892 1.48183 2.24266 0
M  V30 4334 C 400.163 3.48949 0.772633 0
M  V30 4335 S 401.722 4.16261 1.38824 0
M  V30 4336 H 398.54 0.70112 0.118117 0
M  V30 4337 H 401.142 1.92052 -0.365567 0
M  V30 4338 H 399.846 4.103 -0.090683 0
M  V30 4339 H 399.377 3.61745 1.5461 0
M  V30 4340 H 401.392 4.17778 2.67724 0
M  V30 4341 N 400.565 -0.0233959 1.57583 0
M  V30 4342 C 401.515 -1.03023 2.03397 0
M  V30 4343 C 402.499 -1.31701 0.924315 0
M  V30 4344 O 403.691 -1.31191 1.18819 0
M  V30 4345 C 400.82 -2.32961 2.52159 0
M  V30 4346 C 399.906 -2.07349 3.69956 0
M  V30 4347 N 400.297 -1.51814 4.82479 0
M  V30 4348 C 398.595 -2.37606 3.77438 0
M  V30 4349 C 399.296 -1.42136 5.64068 0
M  V30 4350 N 398.272 -1.89891 5.09355 0
M  V30 4351 H 402.074 -0.594962 2.87815 0
M  V30 4352 H 399.588 -0.229586 1.60769 0
M  V30 4353 H 401.585 -3.05906 2.83244 0
M  V30 4354 H 400.245 -2.77162 1.69149 0
M  V30 4355 H 401.256 -1.20008 5.03804 0
M  V30 4356 H 397.933 -2.84842 3.05239 0
M  V30 4357 H 399.323 -0.996405 6.64471 0
M  V30 4358 N 402.043 -1.548 -0.295768 0
M  V30 4359 C 403.289 -1.74588 -1.03184 0
M  V30 4360 C 403.622 -0.532962 -1.86744 0
M  V30 4361 O 402.897 0.469872 -1.88739 0
M  V30 4362 C 403.18 -3.03791 -1.93347 0
M  V30 4363 C 403.033 -4.35392 -1.12933 0
M  V30 4364 C 404.352 -3.28892 -2.92435 0
M  V30 4365 H 401.471 -0.635221 -0.373715 0
M  V30 4366 H 404.113 -1.87519 -0.30606 0
M  V30 4367 H 402.263 -2.92898 -2.55232 0
M  V30 4368 H 403.935 -4.58211 -0.532943 0
M  V30 4369 H 402.178 -4.31642 -0.432168 0
M  V30 4370 H 402.849 -5.22074 -1.79284 0
M  V30 4371 H 405.325 -3.39429 -2.4068 0
M  V30 4372 H 404.201 -4.20603 -3.52682 0
M  V30 4373 H 404.462 -2.47437 -3.6637 0
M  V30 4374 N 403.521 0.559213 -1.47345 0
M  V30 4375 C 404.77 1.31281 -1.53128 0
M  V30 4376 C 405.083 1.94602 -0.197344 0
M  V30 4377 O 406.289 2.71173 -0.133154 0
M  V30 4378 C 404.745 2.38051 -2.69925 0
M  V30 4379 C 404.353 1.8093 -4.0984 0
M  V30 4380 C 406.097 3.14604 -2.84999 0
M  V30 4381 C 404.004 2.85468 -5.1794 0
M  V30 4382 H 402.934 0.493614 -0.569966 0
M  V30 4383 H 405.585 0.594155 -1.73615 0
M  V30 4384 H 403.967 3.12822 -2.42814 0
M  V30 4385 H 405.141 1.12544 -4.46845 0
M  V30 4386 H 403.456 1.16967 -3.99634 0
M  V30 4387 H 406.053 3.92666 -3.62929 0
M  V30 4388 H 406.396 3.68665 -1.93369 0
M  V30 4389 H 406.929 2.46945 -3.1187 0
M  V30 4390 H 403.668 2.36264 -6.1144 0
M  V30 4391 H 403.188 3.52269 -4.85455 0
M  V30 4392 H 404.867 3.48996 -5.44803 0
M  V30 4393 N 404.999 1.35443 0.805782 0
M  V30 4394 C 406.276 1.19325 1.54987 0
M  V30 4395 C 406.656 -0.227294 2.09873 0
M  V30 4396 O 406.004 -1.2309 1.92512 0
M  V30 4397 C 406.214 2.26196 2.65775 0
M  V30 4398 C 407.562 2.62043 3.34094 0
M  V30 4399 O 408.586 2.25115 2.76046 0
M  V30 4400 O 407.445 3.25542 4.38958 0
M  V30 4401 H 404.539 0.463623 0.684823 0
M  V30 4402 H 407.085 1.47127 0.845674 0
M  V30 4403 H 405.857 3.21471 2.23096 0
M  V30 4404 H 405.48 1.99667 3.43829 0
M  V30 4405 N 406.477 -1.02803 1.19454 0
M  V30 4406 C 407.44 -2.09264 0.934955 0
M  V30 4407 C 408.44 -1.60576 -0.0849015 0
M  V30 4408 O 409.63 -1.73554 0.149933 0
M  V30 4409 C 406.762 -3.38482 0.40531 0
M  V30 4410 H 407.955 -2.33726 1.87916 0
M  V30 4411 H 405.508 -1.19426 1.00832 0
M  V30 4412 H 406.243 -3.19689 -0.544899 0
M  V30 4413 H 406.028 -3.75142 1.14065 0
M  V30 4414 H 407.518 -4.16894 0.242806 0
M  V30 4415 N 407.956 -0.998596 -1.21925 0
M  V30 4416 C 408.903 -0.553621 -2.24062 0
M  V30 4417 C 409.873 0.416999 -1.6078 0
M  V30 4418 O 411.058 0.320482 -1.88089 0
M  V30 4419 C 408.198 0.119959 -3.44891 0
M  V30 4420 C 407.311 -0.893077 -4.22668 0
M  V30 4421 C 406.446 -0.192424 -5.30851 0
M  V30 4422 C 405.485 -1.19344 -6.00353 0
M  V30 4423 N 404.622 -0.520707 -7.00166 0
M  V30 4424 H 409.462 -1.4293 -2.61486 0
M  V30 4425 H 406.999 -0.715838 -1.28507 0
M  V30 4426 H 408.957 0.527459 -4.13852 0
M  V30 4427 H 407.587 0.959389 -3.08214 0
M  V30 4428 H 406.639 -1.41886 -3.52948 0
M  V30 4429 H 407.951 -1.65512 -4.70539 0
M  V30 4430 H 407.105 0.271515 -6.06092 0
M  V30 4431 H 405.844 0.602075 -4.83969 0
M  V30 4432 H 404.849 -1.66795 -5.23889 0
M  V30 4433 H 406.074 -1.98891 -6.49322 0
M  V30 4434 H 404.02 0.254252 -6.55507 0
M  V30 4435 H 403.937 -1.2211 -7.46073 0
M  V30 4436 H 405.205 -0.0797596 -7.79459 0
M  V30 4437 N 409.434 1.37368 -0.772513 0
M  V30 4438 C 410.659 2.0447 -0.347386 0
M  V30 4439 C 411.084 1.57882 1.0225 0
M  V30 4440 O 410.442 0.73941 1.65537 0
M  V30 4441 C 410.49 3.58369 -0.400479 0
M  V30 4442 O 409.594 4.0803 0.598789 0
M  V30 4443 H 408.935 0.646773 -0.15027 0
M  V30 4444 H 411.465 1.75667 -1.04892 0
M  V30 4445 H 411.475 4.07183 -0.258045 0
M  V30 4446 H 410.15 3.91633 -1.39986 0
M  V30 4447 H 408.727 3.70534 0.419411 0
M  V30 4448 N 410.912 0.523116 1.48665 0
M  V30 4449 C 412.323 0.0808997 1.86525 0
M  V30 4450 C 412.674 -1.33975 1.43336 0
M  V30 4451 O 411.799 -2.00221 0.821009 0
M  V30 4452 C 412.394 0.140037 3.3851 0
M  V30 4453 C 410.953 -0.246948 3.75589 0
M  V30 4454 C 410.1 0.502845 2.72703 0
M  V30 4455 H 413.051 0.734736 1.40667 0
M  V30 4456 H 413.072 -0.649945 3.74908 0
M  V30 4457 H 412.584 1.17412 3.69914 0
M  V30 4458 H 410.685 -1.28343 3.49798 0
M  V30 4459 H 410.798 0.0878859 4.79019 0
M  V30 4460 H 409.162 -0.0500581 2.54651 0
M  V30 4461 H 409.945 1.53743 3.0695 0
M  V30 4462 N 412.39 -1.55475 0.257931 0
M  V30 4463 C 413.637 -1.99207 -0.363728 0
M  V30 4464 C 413.965 -1.1462 -1.57139 0
M  V30 4465 O 413.22 -0.199653 -1.94679 0
M  V30 4466 C 413.519 -3.48183 -0.806433 0
M  V30 4467 C 413.185 -4.49936 0.294684 0
M  V30 4468 C 411.847 -4.77481 0.597076 0
M  V30 4469 C 414.199 -5.10769 1.03751 0
M  V30 4470 C 411.527 -5.63132 1.64618 0
M  V30 4471 C 413.879 -5.97558 2.07622 0
M  V30 4472 C 412.543 -6.23432 2.38514 0
M  V30 4473 H 411.813 -0.728949 -0.133097 0
M  V30 4474 H 414.46 -1.8793 0.368059 0
M  V30 4475 H 412.765 -3.56848 -1.61761 0
M  V30 4476 H 414.462 -3.79415 -1.29789 0
M  V30 4477 H 411.052 -4.28572 0.0488649 0
M  V30 4478 H 415.236 -4.89527 0.817149 0
M  V30 4479 H 410.492 -5.8143 1.89074 0
M  V30 4480 H 414.666 -6.43735 2.65666 0
M  V30 4481 H 412.293 -6.89594 3.19943 0
M  V30 4482 N 413.868 0.0150385 -1.57593 0
M  V30 4483 C 415.098 0.713359 -1.93894 0
M  V30 4484 C 415.506 1.68663 -0.857289 0
M  V30 4485 O 414.849 1.82876 0.173788 0
M  V30 4486 C 414.911 1.51348 -3.26089 0
M  V30 4487 C 414.575 0.703451 -4.51554 0
M  V30 4488 C 415.572 -0.00237924 -5.199 0
M  V30 4489 C 413.257 0.653854 -4.98026 0
M  V30 4490 C 415.251 -0.746955 -6.33008 0
M  V30 4491 C 412.938 -0.0944578 -6.11027 0
M  V30 4492 C 413.936 -0.793609 -6.78374 0
M  V30 4493 O 413.624 -1.52974 -7.89211 0
M  V30 4494 H 413.356 0.204637 -0.644282 0
M  V30 4495 H 415.91 -0.0276411 -2.05381 0
M  V30 4496 H 414.14 2.29862 -3.10967 0
M  V30 4497 H 415.829 2.09572 -3.47612 0
M  V30 4498 H 416.595 0.0268803 -4.84993 0
M  V30 4499 H 412.474 1.18756 -4.45441 0
M  V30 4500 H 416.018 -1.2932 -6.85509 0
M  V30 4501 H 411.915 -0.125591 -6.45378 0
M  V30 4502 H 412.683 -1.44488 -8.05646 0
M  V30 4503 N 415.346 1.54954 0.287554 0
M  V30 4504 C 416.623 1.65569 1.04146 0
M  V30 4505 C 417.003 0.512672 2.0478 0
M  V30 4506 O 416.351 -0.489038 2.23205 0
M  V30 4507 C 416.561 3.04163 1.71131 0
M  V30 4508 C 417.909 3.61429 2.22832 0
M  V30 4509 O 418.933 3.06702 1.81141 0
M  V30 4510 O 417.792 4.57281 2.9926 0
M  V30 4511 H 414.886 0.671881 0.482188 0
M  V30 4512 H 417.432 1.67297 0.28457 0
M  V30 4513 H 416.204 3.78796 0.981303 0
M  V30 4514 H 415.827 3.06271 2.53543 0
M  V30 4515 N 416.824 -0.551391 1.4764 0
M  V30 4516 C 417.754 -1.66757 1.63445 0
M  V30 4517 C 418.735 -1.63077 0.483742 0
M  V30 4518 O 419.92 -1.80607 0.71377 0
M  V30 4519 C 417.05 -3.05387 1.65396 0
M  V30 4520 C 416.004 -3.23918 2.79752 0
M  V30 4521 C 415.33 -4.63393 2.66779 0
M  V30 4522 C 416.63 -3.08735 4.21284 0
M  V30 4523 H 418.324 -1.53786 2.56886 0
M  V30 4524 H 415.87 -0.738415 1.23626 0
M  V30 4525 H 417.823 -3.83325 1.75043 0
M  V30 4526 H 416.547 -3.19332 0.685195 0
M  V30 4527 H 415.206 -2.48391 2.69625 0
M  V30 4528 H 414.854 -4.74144 1.67918 0
M  V30 4529 H 414.554 -4.7674 3.43501 0
M  V30 4530 H 416.078 -5.43458 2.78364 0
M  V30 4531 H 417.492 -3.76484 4.32357 0
M  V30 4532 H 415.889 -3.33588 4.98838 0
M  V30 4533 H 416.959 -2.0541 4.39243 0
M  V30 4534 N 418.302 -1.35869 -0.798587 0
M  V30 4535 C 419.527 -1.32883 -1.59238 0
M  V30 4536 C 419.952 0.0894587 -1.87887 0
M  V30 4537 O 419.31 1.05869 -1.47178 0
M  V30 4538 C 419.358 -2.14892 -2.89575 0
M  V30 4539 O 418.462 -1.53512 -3.82763 0
M  V30 4540 H 417.803 -0.455236 -0.48338 0
M  V30 4541 H 420.333 -1.79024 -0.990539 0
M  V30 4542 H 420.343 -2.27139 -3.38928 0
M  V30 4543 H 419.018 -3.17998 -2.68049 0
M  V30 4544 H 417.595 -1.50153 -3.41334 0
M  V30 4545 N 419.78 1.02168 -1.19998 0
M  V30 4546 C 420.712 2.10705 -0.901994 0
M  V30 4547 C 421.725 1.6244 0.108216 0
M  V30 4548 O 422.914 1.78082 -0.12214 0
M  V30 4549 C 420.014 3.37291 -0.329834 0
M  V30 4550 C 419.187 4.14714 -1.39035 0
M  V30 4551 C 418.246 5.19606 -0.830432 0
M  V30 4552 O 417.272 5.48809 -1.50989 0
M  V30 4553 N 418.474 5.79366 0.362696 0
M  V30 4554 H 421.239 2.36856 -1.83628 0
M  V30 4555 H 418.8 1.18518 -1.10296 0
M  V30 4556 H 420.792 4.04657 0.0587633 0
M  V30 4557 H 419.362 3.0843 0.508891 0
M  V30 4558 H 418.582 3.42392 -1.9535 0
M  V30 4559 H 419.87 4.63226 -2.10474 0
M  V30 4560 H 419.268 5.57968 0.932081 0
M  V30 4561 H 417.825 6.48106 0.69299 0
M  V30 4562 N 421.258 1.00505 1.21394 0
M  V30 4563 C 422.674 0.717873 1.42544 0
M  V30 4564 C 422.874 -0.706936 1.88692 0
M  V30 4565 O 421.93 -1.47627 2.04847 0
M  V30 4566 C 423.243 1.73377 2.45684 0
M  V30 4567 C 424.791 1.75059 2.59467 0
M  V30 4568 C 425.266 2.75545 3.6584 0
M  V30 4569 N 426.757 2.74213 3.73311 0
M  V30 4570 C 427.492 3.48626 4.55245 0
M  V30 4571 N 426.988 4.32678 5.41075 0
M  V30 4572 N 428.781 3.37276 4.49668 0
M  V30 4573 H 420.932 1.92506 0.897503 0
M  V30 4574 H 423.195 0.830919 0.456375 0
M  V30 4575 H 422.901 2.75395 2.18748 0
M  V30 4576 H 422.775 1.53647 3.44489 0
M  V30 4577 H 425.162 0.737337 2.8574 0
M  V30 4578 H 425.243 1.98861 1.60897 0
M  V30 4579 H 424.887 3.77028 3.40313 0
M  V30 4580 H 424.817 2.49009 4.64007 0
M  V30 4581 H 427.308 2.13234 3.11993 0
M  V30 4582 H 427.621 4.86253 6.00648 0
M  V30 4583 H 425.966 4.3676 5.40616 0
M  V30 4584 H 429.157 2.71043 3.81646 0
M  V30 4585 H 429.33 3.95524 5.13288 0
M  V30 4586 N 422.737 -1.36956 0.779787 0
M  V30 4587 C 423.962 -2.04283 0.358224 0
M  V30 4588 C 424.387 -1.58422 -1.01411 0
M  V30 4589 O 423.745 -0.748179 -1.65142 0
M  V30 4590 C 423.793 -3.58152 0.419479 0
M  V30 4591 O 422.897 -4.08342 -0.577142 0
M  V30 4592 H 422.238 -0.645967 0.153698 0
M  V30 4593 H 424.768 -1.75108 1.05822 0
M  V30 4594 H 424.778 -4.07041 0.279636 0
M  V30 4595 H 423.453 -3.90886 1.42061 0
M  V30 4596 H 422.03 -3.70751 -0.399755 0
M  V30 4597 N 424.215 -0.530993 -1.48385 0
M  V30 4598 C 425.148 0.278511 -2.26494 0
M  V30 4599 C 426.126 0.943905 -1.32398 0
M  V30 4600 O 427.31 0.968098 -1.61741 0
M  V30 4601 C 424.437 1.39453 -3.08659 0
M  V30 4602 C 423.483 0.840434 -4.18137 0
M  V30 4603 S 424.316 -0.292496 -5.34701 0
M  V30 4604 C 425.472 0.825973 -6.20426 0
M  V30 4605 H 425.705 -0.384365 -2.94805 0
M  V30 4606 H 423.238 -0.316799 -1.51115 0
M  V30 4607 H 425.196 2.03382 -3.56575 0
M  V30 4608 H 423.857 2.02913 -2.3976 0
M  V30 4609 H 423.05 1.67769 -4.75257 0
M  V30 4610 H 422.652 0.277819 -3.72967 0
M  V30 4611 H 424.944 1.72438 -6.55188 0
M  V30 4612 H 425.887 0.292728 -7.07495 0
M  V30 4613 H 426.295 1.10683 -5.53543 0
M  V30 4614 N 425.693 1.55336 -0.266172 0
M  V30 4615 C 426.625 2.19544 0.658247 0
M  V30 4616 C 427.638 1.17746 1.12427 0
M  V30 4617 O 428.827 1.44517 1.04772 0
M  V30 4618 C 425.927 2.80032 1.9088 0
M  V30 4619 C 425.1 4.07436 1.59106 0
M  V30 4620 C 424.159 4.52056 2.69317 0
M  V30 4621 O 423.185 5.18023 2.35883 0
M  V30 4622 N 424.387 4.21448 3.99201 0
M  V30 4623 H 427.152 2.99503 0.108754 0
M  V30 4624 H 424.713 1.61667 -0.0869059 0
M  V30 4625 H 426.705 3.06831 2.63888 0
M  V30 4626 H 425.275 2.04119 2.36758 0
M  V30 4627 H 424.495 3.88021 0.695243 0
M  V30 4628 H 425.783 4.90462 1.35367 0
M  V30 4629 H 425.181 3.68528 4.29189 0
M  V30 4630 H 423.738 4.53039 4.68614 0
M  V30 4631 N 427.171 -0.0066808 1.57599 0
M  V30 4632 C 428.399 -0.704087 1.94551 0
M  V30 4633 C 428.814 -1.67677 0.867746 0
M  V30 4634 O 428.171 -1.8185 -0.153925 0
M  V30 4635 C 428.222 -1.44177 3.31505 0
M  V30 4636 O 427.943 -0.508097 4.35144 0
M  V30 4637 C 429.444 -2.23429 3.82876 0
M  V30 4638 H 426.664 -0.196523 0.641576 0
M  V30 4639 H 429.208 0.042453 2.04456 0
M  V30 4640 H 427.363 -2.13999 3.22929 0
M  V30 4641 H 427.777 -1.02782 5.14331 0
M  V30 4642 H 429.251 -2.70552 4.8115 0
M  V30 4643 H 429.728 -3.05818 3.15233 0
M  V30 4644 H 430.334 -1.58636 3.94607 0
M  V30 4645 N 428.649 -1.55105 -0.279332 0
M  V30 4646 C 429.559 -1.90638 -1.36727 0
M  V30 4647 C 430.575 -0.802899 -1.54368 0
M  V30 4648 O 431.751 -1.10138 -1.68616 0
M  V30 4649 C 428.816 -2.16547 -2.70755 0
M  V30 4650 C 427.877 -3.40146 -2.61915 0
M  V30 4651 C 427.11 -3.6481 -3.8955 0
M  V30 4652 O 427.333 -2.92095 -4.89935 0
M  V30 4653 O 426.267 -4.58343 -3.90135 0
M  V30 4654 H 430.093 -2.83237 -1.09591 0
M  V30 4655 H 427.678 -1.4157 -0.477306 0
M  V30 4656 H 429.56 -2.34665 -3.50014 0
M  V30 4657 H 428.235 -1.27131 -2.9769 0
M  V30 4658 H 427.142 -3.2737 -1.81052 0
M  V30 4659 H 428.475 -4.29761 -2.3993 0
M  V30 4660 N 430.127 0.543554 -1.4793 0
M  V30 4661 C 431.059 1.665 -1.57513 0
M  V30 4662 C 432.072 1.56156 -0.460333 0
M  V30 4663 O 433.261 1.62865 -0.730573 0
M  V30 4664 C 430.361 3.05063 -1.47614 0
M  V30 4665 C 429.534 3.41024 -2.739 0
M  V30 4666 C 428.593 4.58809 -2.57645 0
M  V30 4667 O 427.619 4.62707 -3.31498 0
M  V30 4668 N 428.821 5.56149 -1.66368 0
M  V30 4669 H 431.586 1.5872 -2.5422 0
M  V30 4670 H 429.147 0.730517 -1.44482 0
M  V30 4671 H 431.139 3.81712 -1.34455 0
M  V30 4672 H 429.709 3.06994 -0.589359 0
M  V30 4673 H 428.929 2.53687 -3.01723 0
M  V30 4674 H 430.217 3.61831 -3.57709 0
M  V30 4675 H 429.615 5.55767 -1.05543 0
M  V30 4676 H 428.172 6.32071 -1.59154 0
M  V30 4677 N 431.605 1.3629 0.791371 0
M  V30 4678 C 432.852 1.30412 1.54916 0
M  V30 4679 C 433.18 -0.117162 1.94147 0
M  V30 4680 O 432.435 -1.08599 1.62803 0
M  V30 4681 C 432.734 2.17068 2.8393 0
M  V30 4682 C 432.4 3.65645 2.63846 0
M  V30 4683 C 431.062 4.0614 2.58077 0
M  V30 4684 C 433.414 4.59855 2.45322 0
M  V30 4685 C 430.742 5.3899 2.31748 0
M  V30 4686 C 433.094 5.9292 2.2052 0
M  V30 4687 C 431.758 6.32542 2.13183 0
M  V30 4688 H 431.028 0.47721 0.566879 0
M  V30 4689 H 433.675 1.68325 0.913172 0
M  V30 4690 H 431.98 1.72085 3.51986 0
M  V30 4691 H 433.677 2.09846 3.4171 0
M  V30 4692 H 430.267 3.33518 2.69191 0
M  V30 4693 H 434.451 4.29443 2.48782 0
M  V30 4694 H 429.707 5.68672 2.24548 0
M  V30 4695 H 433.881 6.65487 2.05182 0
M  V30 4696 H 431.508 7.35412 1.92544 0
M  V30 4697 N 433.083 -1.0153 1.20538 0
M  V30 4698 C 433.993 -2.13557 0.971113 0
M  V30 4699 C 435.009 -1.73845 -0.0734366 0
M  V30 4700 O 436.185 -2.01075 0.114299 0
M  V30 4701 C 433.25 -3.42661 0.527639 0
M  V30 4702 C 432.311 -3.96608 1.64319 0
M  V30 4703 C 431.544 -5.1955 1.22078 0
M  V30 4704 O 431.767 -5.70329 0.0900198 0
M  V30 4705 O 430.701 -5.66681 2.02871 0
M  V30 4706 H 434.527 -2.3619 1.90913 0
M  V30 4707 H 432.112 -1.11946 0.989362 0
M  V30 4708 H 433.994 -4.20404 0.289621 0
M  V30 4709 H 432.669 -3.21441 -0.381779 0
M  V30 4710 H 431.576 -3.20139 1.93551 0
M  V30 4711 H 432.909 -4.22219 2.52966 0
M  V30 4712 N 434.561 -1.01147 -1.20859 0
M  V30 4713 C 435.81 -0.693214 -1.89413 0
M  V30 4714 C 436.123 0.779969 -1.79376 0
M  V30 4715 O 437.329 1.21057 -2.43017 0
M  V30 4716 C 435.785 -1.18949 -3.39675 0
M  V30 4717 C 435.393 -2.68921 -3.58309 0
M  V30 4718 C 437.137 -0.94642 -4.13815 0
M  V30 4719 C 435.044 -3.12056 -5.0237 0
M  V30 4720 H 433.974 -0.255595 -0.709357 0
M  V30 4721 H 436.625 -1.22349 -1.36759 0
M  V30 4722 H 435.007 -0.587228 -3.91622 0
M  V30 4723 H 436.181 -3.34652 -3.16772 0
M  V30 4724 H 434.496 -2.91314 -2.97532 0
M  V30 4725 H 437.093 -1.24417 -5.20023 0
M  V30 4726 H 437.436 0.117219 -4.16135 0
M  V30 4727 H 437.969 -1.5118 -3.67953 0
M  V30 4728 H 434.708 -4.17674 -5.05202 0
M  V30 4729 H 434.228 -2.51041 -5.44737 0
M  V30 4730 H 435.907 -3.04403 -5.70918 0
M  V30 4731 N 436.039 1.36541 -0.78704 0
M  V30 4732 C 437.285 1.99599 -0.358872 0
M  V30 4733 C 437.618 1.62323 1.06606 0
M  V30 4734 O 436.893 0.876858 1.73613 0
M  V30 4735 C 437.176 3.56327 -0.519944 0
M  V30 4736 C 437.029 4.03464 -1.98839 0
M  V30 4737 C 438.348 4.4005 0.0664737 0
M  V30 4738 H 435.467 0.725107 -0.131869 0
M  V30 4739 H 438.109 1.6199 -0.992936 0
M  V30 4740 H 436.259 3.88495 0.0198321 0
M  V30 4741 H 437.931 3.81793 -2.58905 0
M  V30 4742 H 436.174 3.55092 -2.49183 0
M  V30 4743 H 436.845 5.12439 -2.05207 0
M  V30 4744 H 439.321 4.14228 -0.394267 0
M  V30 4745 H 438.197 5.48847 -0.0762682 0
M  V30 4746 H 438.458 4.26655 1.15835 0
M  V30 4747 N 437.518 0.538854 1.48102 0
M  V30 4748 C 438.764 0.00801365 2.02798 0
M  V30 4749 C 439.097 -1.3309 1.41424 0
M  V30 4750 O 438.372 -1.86169 0.563158 0
M  V30 4751 C 438.655 -0.104589 3.59948 0
M  V30 4752 C 438.508 1.26012 4.31788 0
M  V30 4753 C 439.827 -0.827055 4.32259 0
M  V30 4754 H 436.946 0.00438624 0.736987 0
M  V30 4755 H 439.588 0.6976 1.7673 0
M  V30 4756 H 437.738 -0.691893 3.82289 0
M  V30 4757 H 439.41 1.88922 4.2084 0
M  V30 4758 H 437.653 1.83968 3.92859 0
M  V30 4759 H 438.324 1.13424 5.40221 0
M  V30 4760 H 440.8 -0.328578 4.14801 0
M  V30 4761 H 439.676 -0.87476 5.41885 0
M  V30 4762 H 439.937 -1.87927 4.0017 0
M  V30 4763 N 438.996 -1.55193 0.274407 0
M  V30 4764 C 440.245 -1.98758 -0.343213 0
M  V30 4765 C 440.558 -1.16624 -1.5703 0
M  V30 4766 O 441.764 -1.5033 -2.26082 0
M  V30 4767 C 440.22 -3.53759 -0.661996 0
M  V30 4768 C 439.828 -4.4467 0.54524 0
M  V30 4769 C 441.572 -4.05916 -1.24228 0
M  V30 4770 C 439.479 -5.91058 0.201084 0
M  V30 4771 H 438.409 -0.742353 -0.132014 0
M  V30 4772 H 441.06 -1.79545 0.378948 0
M  V30 4773 H 439.442 -3.68772 -1.44304 0
M  V30 4774 H 440.616 -4.41426 1.32212 0
M  V30 4775 H 438.931 -4.03143 1.04232 0
M  V30 4776 H 441.528 -5.12831 -1.51357 0
M  V30 4777 H 441.871 -3.54908 -2.17592 0
M  V30 4778 H 442.404 -3.9434 -0.523542 0
M  V30 4779 H 439.143 -6.46161 1.10258 0
M  V30 4780 H 438.663 -5.97373 -0.539045 0
M  V30 4781 H 440.342 -6.46669 -0.206954 0
M  V30 4782 N 440.474 -0.00167713 -1.576 0
M  V30 4783 C 441.404 0.988091 -2.11563 0
M  V30 4784 C 442.385 1.35736 -1.02517 0
M  V30 4785 O 443.57 1.44082 -1.30208 0
M  V30 4786 C 440.7 2.27941 -2.62031 0
M  V30 4787 C 439.654 2.0517 -3.75619 0
M  V30 4788 C 438.98 3.4033 -4.12407 0
M  V30 4789 C 440.28 1.41294 -5.02825 0
M  V30 4790 H 441.974 0.538771 -2.94513 0
M  V30 4791 H 439.52 0.257712 -1.41675 0
M  V30 4792 H 441.473 2.97539 -2.9841 0
M  V30 4793 H 440.197 2.74989 -1.76205 0
M  V30 4794 H 438.856 1.37998 -3.39635 0
M  V30 4795 H 438.504 3.85085 -3.23603 0
M  V30 4796 H 438.204 3.25909 -4.88935 0
M  V30 4797 H 439.728 4.1124 -4.51347 0
M  V30 4798 H 441.142 2.00851 -5.36965 0
M  V30 4799 H 439.539 1.37356 -5.84169 0
M  V30 4800 H 440.609 0.382362 -4.8339 0
M  V30 4801 N 441.952 1.55251 0.271103 0
M  V30 4802 C 442.862 1.9136 1.35714 0
M  V30 4803 C 443.878 0.811075 1.5394 0
M  V30 4804 O 445.054 1.11031 1.6803 0
M  V30 4805 C 442.119 2.1798 2.69603 0
M  V30 4806 C 441.18 3.4153 2.60107 0
M  V30 4807 C 440.413 3.66871 3.8761 0
M  V30 4808 O 440.636 2.94689 4.8838 0
M  V30 4809 O 439.57 4.60405 3.87699 0
M  V30 4810 H 443.396 2.83815 1.08088 0
M  V30 4811 H 440.981 1.41821 0.469792 0
M  V30 4812 H 442.863 2.36518 3.48765 0
M  V30 4813 H 441.538 1.28708 2.97012 0
M  V30 4814 H 440.445 3.28325 1.79314 0
M  V30 4815 H 441.778 4.31027 2.37647 0
M  V30 4816 N 443.43 -0.535701 1.48216 0
M  V30 4817 C 444.678 -1.28928 1.55634 0
M  V30 4818 C 444.999 -1.93645 0.229514 0
M  V30 4819 O 444.269 -1.81038 -0.74846 0
M  V30 4820 H 442.849 -0.47884 0.573342 0
M  V30 4821 H 445.511 -0.623853 1.84646 0
M  V30 4822 H 444.607 -2.07157 2.33436 0
M  V30 4823 N 444.908 -1.36708 -0.784132 0
M  V30 4824 C 446.157 -1.30559 -1.53744 0
M  V30 4825 C 446.47 0.111374 -1.95283 0
M  V30 4826 O 447.676 0.29527 -2.6989 0
M  V30 4827 C 446.132 -2.29098 -2.77565 0
M  V30 4828 C 445.74 -3.76258 -2.43174 0
M  V30 4829 C 447.484 -2.31936 -3.55536 0
M  V30 4830 C 445.391 -4.6656 -3.63422 0
M  V30 4831 H 444.321 -0.48518 -0.577162 0
M  V30 4832 H 446.972 -1.62101 -0.859981 0
M  V30 4833 H 445.354 -1.90557 -3.47137 0
M  V30 4834 H 446.528 -4.23565 -1.81465 0
M  V30 4835 H 444.843 -3.76246 -1.78403 0
M  V30 4836 H 447.44 -2.9661 -4.44889 0
M  V30 4837 H 447.783 -1.3294 -3.94503 0
M  V30 4838 H 448.316 -2.6912 -2.92949 0
M  V30 4839 H 445.055 -5.66638 -3.29547 0
M  V30 4840 H 444.575 -4.23966 -4.24279 0
M  V30 4841 H 446.254 -4.8309 -4.30387 0
M  V30 4842 N 446.386 1.0089 -1.21074 0
M  V30 4843 C 447.632 1.74866 -1.02712 0
M  V30 4844 C 447.965 1.89178 0.438787 0
M  V30 4845 O 447.24 1.42325 1.32567 0
M  V30 4846 C 447.523 3.16347 -1.72036 0
M  V30 4847 C 447.376 3.09782 -3.26121 0
M  V30 4848 C 448.695 4.15187 -1.45973 0
M  V30 4849 H 445.814 0.634736 -0.374539 0
M  V30 4850 H 448.456 1.17646 -1.49196 0
M  V30 4851 H 446.606 3.65201 -1.32517 0
M  V30 4852 H 448.278 2.68673 -3.74983 0
M  V30 4853 H 446.521 2.46982 -3.56626 0
M  V30 4854 H 447.192 4.09829 -3.6979 0
M  V30 4855 H 449.668 3.75022 -1.80272 0
M  V30 4856 H 448.544 5.12331 -1.96999 0
M  V30 4857 H 448.805 4.40386 -0.388924 0
M  V30 4858 N 447.864 1.01787 1.20321 0
M  V30 4859 C 448.774 0.598898 2.26827 0
M  V30 4860 C 449.79 -0.36418 1.70146 0
M  V30 4861 O 450.966 -0.224812 2.00141 0
M  V30 4862 C 448.031 -0.0549769 3.46656 0
M  V30 4863 C 447.092 0.954205 4.18561 0
M  V30 4864 C 446.325 0.331439 5.3267 0
M  V30 4865 O 446.548 -0.86851 5.63749 0
M  V30 4866 O 445.482 1.0488 5.92692 0
M  V30 4867 H 449.308 1.48562 2.64883 0
M  V30 4868 H 446.893 0.787434 1.26964 0
M  V30 4869 H 448.775 -0.420102 4.19301 0
M  V30 4870 H 447.45 -0.915876 3.10473 0
M  V30 4871 H 446.357 1.37072 3.48083 0
M  V30 4872 H 447.69 1.78511 4.58688 0
M  V30 4873 N 449.342 -1.36122 0.79427 0
M  V30 4874 C 450.57 -2.03362 0.380989 0
M  V30 4875 C 450.985 -1.59881 -1.00416 0
M  V30 4876 O 450.342 -0.790515 -1.6449 0
M  V30 4877 C 450.393 -3.58804 0.440649 0
M  V30 4878 O 450.114 -4.007 1.77118 0
M  V30 4879 C 451.615 -4.43296 0.0186117 0
M  V30 4880 H 448.835 -0.652526 0.156367 0
M  V30 4881 H 451.379 -1.73998 1.07447 0
M  V30 4882 H 449.534 -3.8686 -0.204458 0
M  V30 4883 H 449.948 -4.95309 1.72538 0
M  V30 4884 H 451.422 -5.51887 0.111488 0
M  V30 4885 H 451.899 -4.2684 -1.03461 0
M  V30 4886 H 452.505 -4.20512 0.636395 0
M  V30 4887 N 450.82 -0.546701 -1.47814 0
M  V30 4888 C 452.048 -0.0232857 -2.06887 0
M  V30 4889 C 452.463 1.26571 -1.4009 0
M  V30 4890 O 451.82 1.7569 -0.493906 0
M  V30 4891 C 451.871 0.186975 -3.61016 0
M  V30 4892 O 451.592 -1.05097 -4.25307 0
M  V30 4893 C 453.093 0.748872 -4.36929 0
M  V30 4894 H 450.313 -0.0410763 -0.669742 0
M  V30 4895 H 452.857 -0.757117 -1.89968 0
M  V30 4896 H 451.012 0.870903 -3.77484 0
M  V30 4897 H 451.426 -0.842121 -5.17695 0
M  V30 4898 H 452.9 0.845334 -5.45489 0
M  V30 4899 H 453.377 1.75772 -4.02493 0
M  V30 4900 H 453.983 0.100979 -4.2518 0
M  V30 4901 N 452.299 1.55045 -0.282633 0
M  V30 4902 C 453.547 1.99365 0.331334 0
M  V30 4903 C 453.868 1.1725 1.55812 0
M  V30 4904 O 453.138 0.263871 1.94115 0
M  V30 4905 H 451.718 0.736397 0.125414 0
M  V30 4906 H 454.38 1.90964 -0.389711 0
M  V30 4907 H 453.476 3.0596 0.616036 0
M  V30 4908 N 453.777 0.010035 1.57597 0
M  V30 4909 C 454.71 -1.01234 2.04516 0
M  V30 4910 C 455.688 -1.32886 0.937024 0
M  V30 4911 O 456.872 -1.44879 1.20592 0
M  V30 4912 C 453.999 -2.33738 2.45121 0
M  V30 4913 C 453.045 -2.17679 3.66767 0
M  V30 4914 S 453.878 -1.49343 5.14254 0
M  V30 4915 C 455.034 -2.83256 5.58137 0
M  V30 4916 H 455.267 -0.612866 2.90914 0
M  V30 4917 H 452.8 -0.201124 1.53084 0
M  V30 4918 H 454.758 -3.09922 2.69182 0
M  V30 4919 H 453.419 -2.70823 1.59103 0
M  V30 4920 H 452.612 -3.1559 3.92962 0
M  V30 4921 H 452.214 -1.4964 3.42759 0
M  V30 4922 H 454.506 -3.79538 5.6121 0
M  V30 4923 H 455.449 -2.61749 6.57946 0
M  V30 4924 H 455.857 -2.87627 4.85727 0
M  V30 4925 N 455.255 -1.55392 -0.262866 0
M  V30 4926 C 456.483 -1.80513 -1.01108 0
M  V30 4927 C 456.898 -0.583533 -1.79556 0
M  V30 4928 O 456.255 0.447585 -1.76926 0
M  V30 4929 C 456.306 -3.03648 -1.96164 0
M  V30 4930 O 456.027 -4.2109 -1.20893 0
M  V30 4931 C 457.528 -3.41448 -2.82715 0
M  V30 4932 H 454.748 -0.601079 -0.298236 0
M  V30 4933 H 457.292 -2.02425 -0.290582 0
M  V30 4934 H 455.447 -2.83832 -2.63663 0
M  V30 4935 H 455.861 -4.90771 -1.85051 0
M  V30 4936 H 457.335 -4.30751 -3.45192 0
M  V30 4937 H 457.812 -2.61308 -3.53008 0
M  V30 4938 H 458.418 -3.63559 -2.20693 0
M  V30 4939 N 456.733 0.527833 -1.48498 0
M  V30 4940 C 457.973 1.29401 -1.58224 0
M  V30 4941 C 458.337 1.90348 -0.251327 0
M  V30 4942 O 459.538 2.67868 -0.223588 0
M  V30 4943 C 457.809 2.35266 -2.69044 0
M  V30 4944 S 459.368 3.2158 -2.98549 0
M  V30 4945 H 456.186 0.440138 -0.558391 0
M  V30 4946 H 458.788 0.601079 -1.8603 0
M  V30 4947 H 457.492 1.88975 -3.64303 0
M  V30 4948 H 457.023 3.09263 -2.43146 0
M  V30 4949 H 459.038 4.35391 -2.38011 0
M  V30 4950 N 458.211 1.37122 0.776871 0
M  V30 4951 C 459.143 1.28342 1.89897 0
M  V30 4952 C 460.156 0.200277 1.61563 0
M  V30 4953 O 461.345 0.456012 1.72577 0
M  V30 4954 C 458.445 0.960427 3.25006 0
M  V30 4955 C 457.618 2.148 3.81025 0
M  V30 4956 C 456.677 1.79608 4.94598 0
M  V30 4957 O 455.703 2.51845 5.10454 0
M  V30 4958 N 456.905 0.737171 5.758 0
M  V30 4959 H 459.67 2.25027 1.97947 0
M  V30 4960 H 457.231 1.3068 0.955739 0
M  V30 4961 H 459.223 0.705942 3.98495 0
M  V30 4962 H 457.793 0.0823066 3.12492 0
M  V30 4963 H 457.013 2.56454 2.99374 0
M  V30 4964 H 458.301 2.9411 4.15183 0
M  V30 4965 H 457.699 0.137637 5.65533 0
M  V30 4966 H 456.256 0.542534 6.49538 0
M  V30 4967 N 459.689 -1.00246 1.21608 0
M  V30 4968 C 460.652 -2.07233 0.979133 0
M  V30 4969 C 461.652 -1.6072 -0.0508219 0
M  V30 4970 O 462.842 -1.73196 0.186712 0
M  V30 4971 C 459.974 -3.37546 0.477016 0
M  V30 4972 H 461.167 -2.29687 1.92831 0
M  V30 4973 H 458.72 -1.17261 1.03342 0
M  V30 4974 H 459.455 -3.20773 -0.476966 0
M  V30 4975 H 459.24 -3.72638 1.21997 0
M  V30 4976 H 460.73 -4.16285 0.331181 0
M  V30 4977 N 461.167 -1.02423 -1.1978 0
M  V30 4978 C 462.583 -0.740459 -1.41384 0
M  V30 4979 C 462.783 0.676827 -1.89793 0
M  V30 4980 O 461.839 1.4435 -2.0717 0
M  V30 4981 C 463.152 -1.77264 -2.42895 0
M  V30 4982 C 464.7 -1.79165 -2.56649 0
M  V30 4983 C 465.175 -2.8133 -3.6141 0
M  V30 4984 N 466.666 -2.80118 -3.68901 0
M  V30 4985 C 467.401 -3.55824 -4.49641 0
M  V30 4986 N 466.897 -4.41231 -5.34123 0
M  V30 4987 N 468.69 -3.44387 -4.44246 0
M  V30 4988 H 460.841 -1.9391 -0.866764 0
M  V30 4989 H 463.104 -0.838074 -0.443098 0
M  V30 4990 H 462.81 -2.7884 -2.14339 0
M  V30 4991 H 462.684 -1.59108 -3.42001 0
M  V30 4992 H 465.071 -0.782702 -2.84531 0
M  V30 4993 H 465.152 -2.01396 -1.57713 0
M  V30 4994 H 464.796 -3.82394 -3.34271 0
M  V30 4995 H 464.726 -2.56359 -4.59986 0
M  V30 4996 H 467.217 -2.1817 -3.08562 0
M  V30 4997 H 467.53 -4.95747 -5.92836 0
M  V30 4998 H 465.875 -4.45306 -5.33599 0
M  V30 4999 H 469.066 -2.7708 -3.77285 0
M  V30 5000 H 469.239 -4.0364 -5.06931 0
M  V30 5001 N 462.645 1.35699 -0.801477 0
M  V30 5002 C 463.873 2.03157 -0.391768 0
M  V30 5003 C 464.288 1.60412 0.995668 0
M  V30 5004 O 463.645 0.799228 1.64069 0
M  V30 5005 C 463.696 3.58566 -0.459671 0
M  V30 5006 O 463.417 3.99756 -1.7924 0
M  V30 5007 C 464.918 4.4328 -0.0421205 0
M  V30 5008 H 462.138 0.651688 -0.159825 0
M  V30 5009 H 464.682 1.73426 -1.08368 0
M  V30 5010 H 462.837 3.86963 0.183939 0
M  V30 5011 H 463.251 4.94387 -1.75162 0
M  V30 5012 H 464.725 5.51821 -0.140754 0
M  V30 5013 H 465.202 4.27383 1.01196 0
M  V30 5014 H 465.808 4.20168 -0.658687 0
M  V30 5015 N 464.123 0.554532 1.47522 0
M  V30 5016 C 465.348 0.0322661 2.07375 0
M  V30 5017 C 465.773 -1.25079 1.40488 0
M  V30 5018 O 465.131 -1.74859 0.47896 0
M  V30 5019 C 465.179 -0.149397 3.6029 0
M  V30 5020 O 464.283 -1.21259 3.9417 0
M  V30 5021 H 463.624 0.0501228 0.662106 0
M  V30 5022 H 466.154 0.769452 1.8958 0
M  V30 5023 H 466.164 -0.364437 4.06369 0
M  V30 5024 H 464.839 0.787743 4.08372 0
M  V30 5025 H 463.416 -0.97825 3.5984 0
M  V30 5026 N 465.601 -1.54893 0.290851 0
M  V30 5027 C 466.831 -2.04047 -0.323818 0
M  V30 5028 C 467.239 -1.16809 -1.48837 0
M  V30 5029 O 466.582 -0.184145 -1.82775 0
M  V30 5030 C 466.644 -3.49248 -0.852395 0
M  V30 5031 C 466.308 -4.56623 0.185557 0
M  V30 5032 C 467.305 -5.09985 1.01053 0
M  V30 5033 C 464.99 -5.01252 0.324332 0
M  V30 5034 C 466.984 -6.06507 1.96031 0
M  V30 5035 C 464.671 -5.97596 1.27757 0
M  V30 5036 C 465.669 -6.50107 2.09405 0
M  V30 5037 O 465.357 -7.44565 3.03114 0
M  V30 5038 H 465.089 -0.671735 -0.0758129 0
M  V30 5039 H 467.643 -2.00947 0.425393 0
M  V30 5040 H 465.873 -3.49639 -1.65195 0
M  V30 5041 H 467.562 -3.81654 -1.38185 0
M  V30 5042 H 468.328 -4.76307 0.914129 0
M  V30 5043 H 464.207 -4.60015 -0.301213 0
M  V30 5044 H 467.751 -6.47418 2.598 0
M  V30 5045 H 463.648 -6.30691 1.37473 0
M  V30 5046 H 464.416 -7.62334 2.97976 0
M  V30 5047 N 467.08 -0.0183926 -1.57589 0
M  V30 5048 C 468.308 0.673046 -1.95647 0
M  V30 5049 C 468.723 1.66275 -0.894312 0
M  V30 5050 O 468.08 1.82072 0.124975 0
M  V30 5051 C 468.131 1.38884 -3.33756 0
M  V30 5052 O 467.852 0.438806 -4.35897 0
M  V30 5053 C 469.353 2.1731 -3.86383 0
M  V30 5054 H 466.573 0.186292 -0.644621 0
M  V30 5055 H 469.117 -0.0749748 -2.04363 0
M  V30 5056 H 467.272 2.08835 -3.26293 0
M  V30 5057 H 467.686 0.945869 -5.15901 0
M  V30 5058 H 469.16 2.62863 -4.85394 0
M  V30 5059 H 469.637 3.00764 -3.20059 0
M  V30 5060 H 470.243 1.52339 -3.97081 0
M  V30 5061 N 468.558 1.5553 0.254621 0
M  V30 5062 C 469.468 1.92789 1.33677 0
M  V30 5063 C 470.484 0.827356 1.53071 0
M  V30 5064 O 471.66 1.12807 1.66843 0
M  V30 5065 C 468.725 2.20827 2.67275 0
M  V30 5066 C 467.786 3.4427 2.5647 0
M  V30 5067 C 467.019 3.70961 3.83697 0
M  V30 5068 O 467.242 2.99852 4.85227 0
M  V30 5069 O 466.176 4.64491 3.82794 0
M  V30 5070 H 470.002 2.84945 1.05071 0
M  V30 5071 H 467.587 1.42312 0.454723 0
M  V30 5072 H 469.469 2.40204 3.46237 0
M  V30 5073 H 468.144 1.31851 2.9563 0
M  V30 5074 H 467.051 3.30209 1.75821 0
M  V30 5075 H 468.384 4.33524 2.33062 0
M  V30 5076 N 470.036 -0.519951 1.48776 0
M  V30 5077 C 471.313 -1.28123 1.47797 0
M  V30 5078 C 471.693 -2.10196 0.195157 0
M  V30 5079 O 471.041 -2.13167 -0.822925 0
M  V30 5080 C 471.251 -2.15413 2.74587 0
M  V30 5081 C 472.599 -2.75225 3.23321 0
M  V30 5082 O 473.623 -2.25694 2.75574 0
M  V30 5083 O 472.482 -3.65346 4.06429 0
M  V30 5084 H 469.576 -0.578793 0.590701 0
M  V30 5085 H 472.122 -0.535779 1.6102 0
M  V30 5086 H 470.894 -1.54617 3.59457 0
M  V30 5087 H 470.517 -2.97186 2.64132 0
M  V30 5088 N 471.514 -1.37532 -0.769588 0
M  V30 5089 C 472.424 -1.35668 -1.91393 0
M  V30 5090 C 473.44 -0.255954 -1.72107 0
M  V30 5091 O 474.616 -0.491704 -1.95305 0
M  V30 5092 C 471.681 -1.16481 -3.26547 0
M  V30 5093 C 470.742 -2.36212 -3.58472 0
M  V30 5094 C 469.975 -2.17932 -4.87177 0
M  V30 5095 O 470.198 -1.1647 -5.58382 0
M  V30 5096 O 469.132 -3.06167 -5.18214 0
M  V30 5097 H 472.958 -2.32055 -1.95918 0
M  V30 5098 H 470.543 -1.18284 -0.912641 0
M  V30 5099 H 472.425 -1.07778 -4.07384 0
M  V30 5100 H 471.1 -0.231687 -3.2287 0
M  V30 5101 H 470.007 -2.50488 -2.77861 0
M  V30 5102 H 471.34 -3.281 -3.66894 0
M  V30 5103 N 472.992 0.995999 -1.22138 0
M  V30 5104 C 474.238 1.73767 -1.04561 0
M  V30 5105 C 474.571 1.89633 0.418698 0
M  V30 5106 O 473.846 1.43723 1.3105 0
M  V30 5107 C 474.129 3.14505 -1.75382 0
M  V30 5108 C 473.982 3.06306 -3.29388 0
M  V30 5109 C 475.301 4.13615 -1.50369 0
M  V30 5110 H 472.42 0.630728 -0.38125 0
M  V30 5111 H 475.062 1.16057 -1.50435 0
M  V30 5112 H 473.212 3.63775 -1.36383 0
M  V30 5113 H 474.884 2.64681 -3.77812 0
M  V30 5114 H 473.127 2.43186 -3.59226 0
M  V30 5115 H 473.798 4.05884 -3.74116 0
M  V30 5116 H 476.274 3.73089 -1.84239 0
M  V30 5117 H 475.15 5.10212 -2.02421 0
M  V30 5118 H 475.411 4.39949 -0.435611 0
M  V30 5119 N 474.47 1.03057 1.19235 0
M  V30 5120 C 475.4 0.633497 2.24742 0
M  V30 5121 C 476.381 -0.358335 1.66283 0
M  V30 5122 O 477.566 -0.240676 1.92703 0
M  V30 5123 C 474.696 -0.0147648 3.47297 0
M  V30 5124 C 473.65 0.899527 4.18441 0
M  V30 5125 C 472.976 0.116281 5.34574 0
M  V30 5126 C 474.276 2.21404 4.73051 0
M  V30 5127 H 475.97 1.5155 2.58211 0
M  V30 5128 H 473.516 0.73014 1.24117 0
M  V30 5129 H 475.469 -0.304202 4.20301 0
M  V30 5130 H 474.193 -0.931577 3.13032 0
M  V30 5131 H 472.852 1.17319 3.47321 0
M  V30 5132 H 472.5 -0.802619 4.96555 0
M  V30 5133 H 472.2 0.725293 5.83107 0
M  V30 5134 H 473.724 -0.166376 6.10373 0
M  V30 5135 H 475.138 1.98601 5.37802 0
M  V30 5136 H 473.535 2.77512 5.32078 0
M  V30 5137 H 474.605 2.86752 3.91026 0
M  V30 5138 N 475.948 -1.35272 0.808662 0
M  V30 5139 C 477.194 -1.99434 0.399717 0
M  V30 5140 C 477.549 -1.62992 -1.02232 0
M  V30 5141 O 476.842 -0.884091 -1.69983 0
M  V30 5142 C 477.036 -3.53556 0.522798 0
M  V30 5143 C 476.865 -4.04969 1.95525 0
M  V30 5144 C 475.635 -4.34228 2.58407 0
M  V30 5145 C 477.833 -4.23362 2.92009 0
M  V30 5146 N 475.815 -4.71585 3.93041 0
M  V30 5147 C 477.186 -4.63739 4.11517 0
M  V30 5148 C 479.241 -4.05576 2.88813 0
M  V30 5149 C 477.944 -4.88189 5.28265 0
M  V30 5150 C 479.97 -4.31184 4.04765 0
M  V30 5151 C 479.332 -4.71834 5.23022 0
M  V30 5152 H 475.431 -0.757534 0.19408 0
M  V30 5153 H 478.015 -1.63939 1.05034 0
M  V30 5154 H 476.186 -3.88277 -0.0978471 0
M  V30 5155 H 477.918 -4.04604 0.0882378 0
M  V30 5156 H 474.673 -4.24621 2.09747 0
M  V30 5157 H 475.097 -4.9452 4.62363 0
M  V30 5158 H 479.739 -3.73288 1.98535 0
M  V30 5159 H 477.457 -5.1935 6.19113 0
M  V30 5160 H 481.043 -4.18972 4.03675 0
M  V30 5161 H 479.923 -4.91263 6.11253 0
M  V30 5162 N 477.426 -0.562348 -1.47226 0
M  V30 5163 C 478.674 -0.0401371 -2.0206 0
M  V30 5164 C 478.995 1.3165 -1.43852 0
M  V30 5165 O 478.265 1.85976 -0.615599 0
M  V30 5166 H 476.845 -0.0118479 -0.746906 0
M  V30 5167 H 479.507 -0.73352 -1.8057 0
M  V30 5168 H 478.603 0.0441254 -3.12069 0
M  V30 5169 N 478.904 1.54736 -0.299062 0
M  V30 5170 C 479.854 2.20155 0.592932 0
M  V30 5171 C 480.838 1.1739 1.10038 0
M  V30 5172 O 482.03 1.43116 1.04147 0
M  V30 5173 C 479.159 2.94437 1.76527 0
M  V30 5174 C 478.245 4.04516 1.27388 0
M  V30 5175 N 478.636 5.03319 0.500339 0
M  V30 5176 C 476.934 4.18022 1.55478 0
M  V30 5177 C 477.635 5.81209 0.238909 0
M  V30 5178 N 476.611 5.37408 0.818163 0
M  V30 5179 H 480.413 2.93899 -0.00563596 0
M  V30 5180 H 477.927 1.62068 -0.103732 0
M  V30 5181 H 479.924 3.3977 2.41582 0
M  V30 5182 H 478.584 2.22209 2.36756 0
M  V30 5183 H 479.595 5.17696 0.145419 0
M  V30 5184 H 476.272 3.56998 2.16469 0
M  V30 5185 H 477.662 6.70812 -0.382223 0
M  V30 5186 N 480.382 0.0267497 1.57577 0
M  V30 5187 C 481.798 -0.32962 1.56159 0
M  V30 5188 C 481.998 -1.73059 1.03213 0
M  V30 5189 O 481.054 -2.43233 0.677804 0
M  V30 5190 C 482.367 -0.18039 3.00158 0
M  V30 5191 C 483.915 -0.253334 3.11973 0
M  V30 5192 C 484.39 -0.132921 4.57807 0
M  V30 5193 N 485.881 -0.189979 4.6281 0
M  V30 5194 C 486.616 -0.120554 5.73273 0
M  V30 5195 N 486.112 -0.000180315 6.928 0
M  V30 5196 N 487.905 -0.174369 5.61829 0
M  V30 5197 H 480.056 0.942896 1.90324 0
M  V30 5198 H 482.319 0.3639 0.875375 0
M  V30 5199 H 482.025 0.784576 3.42837 0
M  V30 5200 H 481.899 -0.951565 3.65 0
M  V30 5201 H 484.286 -1.20876 2.69208 0
M  V30 5202 H 484.367 0.548177 2.49857 0
M  V30 5203 H 484.011 0.819073 5.01252 0
M  V30 5204 H 483.941 -0.953264 5.179 0
M  V30 5205 H 486.432 -0.283257 3.76837 0
M  V30 5206 H 486.745 0.0461666 7.72786 0
M  V30 5207 H 485.09 0.034569 6.94991 0
M  V30 5208 H 488.281 -0.266794 4.67339 0
M  V30 5209 H 488.454 -0.116802 6.47895 0
M  V30 5210 N 481.861 -1.55662 -0.24637 0
M  V30 5211 C 483.108 -1.77519 -0.974335 0
M  V30 5212 C 483.436 -0.591165 -1.85298 0
M  V30 5213 O 482.691 0.425497 -1.91018 0
M  V30 5214 C 482.99 -3.04885 -1.86494 0
M  V30 5215 C 482.656 -4.36209 -1.14161 0
M  V30 5216 C 481.318 -4.71896 -0.941701 0
M  V30 5217 C 483.67 -5.17391 -0.628957 0
M  V30 5218 C 480.998 -5.86299 -0.216852 0
M  V30 5219 C 483.35 -6.32546 0.0824273 0
M  V30 5220 C 482.014 -6.66853 0.293807 0
M  V30 5221 H 481.284 -0.649588 -0.356535 0
M  V30 5222 H 483.931 -1.89934 -0.244394 0
M  V30 5223 H 482.236 -2.87484 -2.66196 0
M  V30 5224 H 483.933 -3.18994 -2.42989 0
M  V30 5225 H 480.523 -4.08174 -1.30736 0
M  V30 5226 H 484.707 -4.90276 -0.770943 0
M  V30 5227 H 479.963 -6.11385 -0.0426124 0
M  V30 5228 H 484.137 -6.94693 0.487292 0
M  V30 5229 H 481.764 -7.55349 0.857428 0
M  V30 5230 N 483.339 0.512053 -1.4905 0
M  V30 5231 C 484.586 1.26686 -1.57978 0
M  V30 5232 C 484.914 1.92733 -0.261553 0
M  V30 5233 O 484.169 1.80772 0.749667 0
M  V30 5234 C 484.468 2.36446 -2.68008 0
M  V30 5235 C 484.134 1.87932 -4.09869 0
M  V30 5236 C 482.796 1.74419 -4.48477 0
M  V30 5237 C 485.148 1.5149 -4.98698 0
M  V30 5238 C 482.476 1.22827 -5.73699 0
M  V30 5239 C 484.828 1.01355 -6.24428 0
M  V30 5240 C 483.492 0.864735 -6.61875 0
M  V30 5241 H 482.762 0.463577 -0.578081 0
M  V30 5242 H 485.409 0.569421 -1.82838 0
M  V30 5243 H 483.714 3.11933 -2.37076 0
M  V30 5244 H 485.411 2.9453 -2.72127 0
M  V30 5245 H 482.001 1.99405 -3.79389 0
M  V30 5246 H 486.185 1.60782 -4.69535 0
M  V30 5247 H 481.441 1.10008 -6.01422 0
M  V30 5248 H 485.615 0.722351 -6.92644 0
M  V30 5249 H 483.242 0.462777 -7.5879 0
M  V30 5250 N 484.817 1.37938 0.762283 0
M  V30 5251 C 486.228 1.30094 1.33912 0
M  V30 5252 C 486.579 -0.0472026 1.96143 0
M  V30 5253 O 485.704 -0.94917 1.94473 0
M  V30 5254 C 486.299 2.35592 2.43478 0
M  V30 5255 C 484.858 2.31353 2.96905 0
M  V30 5256 C 484.005 2.18919 1.70205 0
M  V30 5257 H 486.956 1.48423 0.561816 0
M  V30 5258 H 486.977 2.00806 3.23199 0
M  V30 5259 H 486.489 3.33701 1.98155 0
M  V30 5260 H 484.59 1.36799 3.46579 0
M  V30 5261 H 484.703 3.25147 3.51875 0
M  V30 5262 H 483.067 1.65624 1.93496 0
M  V30 5263 H 483.85 3.18956 1.26973 0
M  V30 5264 N 486.295 -0.989507 1.22664 0
M  V30 5265 C 487.541 -1.7321 1.05481 0
M  V30 5266 C 487.874 -1.89852 -0.408635 0
M  V30 5267 O 487.149 -1.44416 -1.30285 0
M  V30 5268 C 487.432 -3.1357 1.77047 0
M  V30 5269 C 487.285 -3.04555 3.31008 0
M  V30 5270 C 488.604 -4.12812 1.5256 0
M  V30 5271 H 485.723 -0.628697 0.384589 0
M  V30 5272 H 488.365 -1.15258 1.51049 0
M  V30 5273 H 486.515 -3.63046 1.3831 0
M  V30 5274 H 488.187 -2.62674 3.7921 0
M  V30 5275 H 486.43 -2.41278 3.6051 0
M  V30 5276 H 487.101 -4.03894 3.76263 0
M  V30 5277 H 489.577 -3.72106 1.86215 0
M  V30 5278 H 488.453 -5.09132 2.05124 0
M  V30 5279 H 488.714 -4.39711 0.458936 0
M  V30 5280 N 487.773 -1.03688 -1.18687 0
M  V30 5281 C 489.022 -0.733235 -1.879 0
M  V30 5282 C 489.335 0.741745 -1.8099 0
M  V30 5283 O 490.541 1.15875 -2.4553 0
M  V30 5284 C 488.997 -1.26127 -3.37076 0
M  V30 5285 C 488.605 -2.76461 -3.52524 0
M  V30 5286 C 490.349 -1.03398 -4.11715 0
M  V30 5287 C 488.256 -3.22642 -4.95637 0
M  V30 5288 H 487.186 -0.270584 -0.703776 0
M  V30 5289 H 489.837 -1.25222 -1.34133 0
M  V30 5290 H 488.219 -0.670165 -3.90288 0
M  V30 5291 H 489.393 -3.41296 -3.09602 0
M  V30 5292 H 487.708 -2.97559 -2.91286 0
M  V30 5293 H 490.305 -1.3542 -5.17267 0
M  V30 5294 H 490.648 0.0289246 -4.1629 0
M  V30 5295 H 491.181 -1.5895 -3.64664 0
M  V30 5296 H 487.92 -4.28296 -4.96228 0
M  V30 5297 H 487.44 -2.62539 -5.39289 0
M  V30 5298 H 489.119 -3.16444 -5.64333 0
M  V30 5299 N 489.251 1.34841 -0.815825 0
M  V30 5300 C 490.476 2.03261 -0.41226 0
M  V30 5301 C 490.901 1.61055 0.971751 0
M  V30 5302 O 490.259 0.7917 1.63101 0
M  V30 5303 C 490.307 3.56914 -0.514289 0
M  V30 5304 O 489.411 4.09728 0.468675 0
M  V30 5305 H 488.752 0.641664 -0.170771 0
M  V30 5306 H 491.282 1.72241 -1.10427 0
M  V30 5307 H 491.292 4.06156 -0.387457 0
M  V30 5308 H 489.967 3.86982 -1.52375 0
M  V30 5309 H 488.544 3.71681 0.301316 0
M  V30 5310 N 490.729 0.570148 1.46925 0
M  V30 5311 C 491.659 -0.158274 2.32963 0
M  V30 5312 C 492.64 -0.896093 1.44583 0
M  V30 5313 O 493.825 -0.874022 1.7342 0
M  V30 5314 C 490.955 -1.18055 3.26619 0
M  V30 5315 C 489.909 -0.558379 4.24342 0
M  V30 5316 C 489.235 -1.68623 5.07415 0
M  V30 5317 C 490.535 0.496295 5.19937 0
M  V30 5318 H 492.229 0.560046 2.94115 0
M  V30 5319 H 489.775 0.270775 1.41431 0
M  V30 5320 H 491.728 -1.69841 3.85658 0
M  V30 5321 H 490.452 -1.92899 2.63548 0
M  V30 5322 H 489.111 -0.0617157 3.66548 0
M  V30 5323 H 488.759 -2.42402 4.40738 0
M  V30 5324 H 488.459 -1.27564 5.73586 0
M  V30 5325 H 489.983 -2.20709 5.69315 0
M  V30 5326 H 491.397 0.0640052 5.73264 0
M  V30 5327 H 489.794 0.82649 5.94381 0
M  V30 5328 H 490.864 1.38735 4.6463 0
M  V30 5329 N 492.207 -1.54576 0.307264 0
M  V30 5330 C 493.117 -2.27435 -0.57536 0
M  V30 5331 C 494.133 -1.31183 -1.14311 0
M  V30 5332 O 495.309 -1.64175 -1.16656 0
M  V30 5333 C 492.374 -3.00566 -1.72803 0
M  V30 5334 C 491.435 -4.12369 -1.19373 0
M  V30 5335 C 490.668 -4.82003 -2.29147 0
M  V30 5336 O 490.891 -4.51038 -3.49171 0
M  V30 5337 O 489.825 -5.69271 -1.95485 0
M  V30 5338 H 493.651 -3.03696 0.0158558 0
M  V30 5339 H 491.236 -1.49219 0.0735064 0
M  V30 5340 H 493.118 -3.46416 -2.39946 0
M  V30 5341 H 491.793 -2.27195 -2.30574 0
M  V30 5342 H 490.7 -3.70905 -0.487851 0
M  V30 5343 H 492.033 -4.87736 -0.661376 0
M  V30 5344 N 493.685 -0.035106 -1.57561 0
M  V30 5345 C 494.595 0.960295 -2.14046 0
M  V30 5346 C 495.611 1.3529 -1.0942 0
M  V30 5347 O 496.787 1.43309 -1.41508 0
M  V30 5348 C 493.852 2.22214 -2.66124 0
M  V30 5349 C 492.913 1.8894 -3.85487 0
M  V30 5350 C 492.146 3.09109 -4.35072 0
M  V30 5351 O 492.369 4.21963 -3.83802 0
M  V30 5352 O 491.303 2.91058 -5.26848 0
M  V30 5353 H 495.129 0.509983 -2.99387 0
M  V30 5354 H 492.714 0.185853 -1.48239 0
M  V30 5355 H 494.596 2.96279 -2.99661 0
M  V30 5356 H 493.271 2.66414 -1.83862 0
M  V30 5357 H 492.178 1.12241 -3.56865 0
M  V30 5358 H 493.511 1.49551 -4.6893 0
M  V30 5359 N 495.163 1.55791 0.238111 0
M  V30 5360 C 496.411 1.77681 0.963001 0
M  V30 5361 C 496.732 0.600674 1.85518 0
M  V30 5362 O 496.002 -0.383182 1.92116 0
M  V30 5363 H 494.582 0.655315 0.358568 0
M  V30 5364 H 497.244 1.93239 0.253945 0
M  V30 5365 H 496.34 2.69177 1.57956 0
M  V30 5366 N 496.642 -0.504142 1.49319 0
M  V30 5367 C 497.889 -1.25846 1.58647 0
M  V30 5368 C 498.217 -1.92592 0.27177 0
M  V30 5369 O 497.472 -1.81167 -0.74007 0
M  V30 5370 C 497.771 -2.35021 2.69258 0
M  V30 5371 C 497.437 -1.85755 4.1086 0
M  V30 5372 C 496.099 -1.72038 4.49395 0
M  V30 5373 C 498.451 -1.48844 4.99495 0
M  V30 5374 C 495.779 -1.19783 5.74342 0
M  V30 5375 C 498.131 -0.980422 6.24956 0
M  V30 5376 C 496.795 -0.829622 6.62324 0
M  V30 5377 H 496.065 -0.460505 0.580531 0
M  V30 5378 H 498.712 -0.559716 1.83138 0
M  V30 5379 H 497.017 -3.10672 2.38726 0
M  V30 5380 H 498.714 -2.93083 2.73685 0
M  V30 5381 H 495.304 -1.9739 3.80441 0
M  V30 5382 H 499.488 -1.5829 4.70381 0
M  V30 5383 H 494.744 -1.06817 6.01997 0
M  V30 5384 H 498.918 -0.685608 6.93017 0
M  V30 5385 H 496.545 -0.42253 7.59025 0
M  V30 5386 N 498.12 -1.38341 -0.754957 0
M  V30 5387 C 499.367 -1.34473 -1.51404 0
M  V30 5388 C 499.695 0.0656458 -1.94389 0
M  V30 5389 O 498.95 1.04244 -1.65625 0
M  V30 5390 C 499.249 -2.2452 -2.78075 0
M  V30 5391 C 498.915 -3.72512 -2.54059 0
M  V30 5392 C 497.577 -4.1284 -2.47218 0
M  V30 5393 C 499.929 -4.66197 -2.33044 0
M  V30 5394 C 497.257 -5.44945 -2.17376 0
M  V30 5395 C 499.609 -5.98558 -2.04723 0
M  V30 5396 C 498.273 -6.37972 -1.96337 0
M  V30 5397 H 497.543 -0.492072 -0.554027 0
M  V30 5398 H 500.19 -1.70687 -0.868223 0
M  V30 5399 H 498.495 -1.81357 -3.473 0
M  V30 5400 H 500.192 -2.18832 -3.36026 0
M  V30 5401 H 496.782 -3.40538 -2.60253 0
M  V30 5402 H 500.966 -4.35888 -2.37309 0
M  V30 5403 H 496.222 -5.74426 -2.09391 0
M  V30 5404 H 500.396 -6.70693 -1.87465 0
M  V30 5405 H 498.023 -7.40258 -1.72978 0
M  V30 5406 N 499.598 0.982988 -1.23187 0
M  V30 5407 C 500.545 2.07491 -1.01075 0
M  V30 5408 C 501.515 1.65949 0.070905 0
M  V30 5409 O 502.7 1.90629 -0.0806822 0
M  V30 5410 C 499.84 3.39751 -0.605261 0
M  V30 5411 C 498.953 3.94578 -1.75876 0
M  V30 5412 C 498.088 5.15039 -1.3003 0
M  V30 5413 C 497.127 5.62027 -2.42472 0
M  V30 5414 N 496.264 6.73719 -1.97602 0
M  V30 5415 H 501.104 2.25739 -1.9454 0
M  V30 5416 H 498.641 1.10659 -0.969179 0
M  V30 5417 H 500.599 4.15719 -0.351279 0
M  V30 5418 H 499.229 3.21473 0.292382 0
M  V30 5419 H 498.281 3.1539 -2.12681 0
M  V30 5420 H 499.593 4.25422 -2.60418 0
M  V30 5421 H 498.747 5.9833 -1.00429 0
M  V30 5422 H 497.486 4.85843 -0.425216 0
M  V30 5423 H 496.491 4.77318 -2.7285 0
M  V30 5424 H 497.716 5.93244 -3.30512 0
M  V30 5425 H 495.662 6.46287 -1.1247 0
M  V30 5426 H 495.579 7.03934 -2.75705 0
M  V30 5427 H 496.847 7.6049 -1.71098 0
M  V30 5428 N 501.076 1.04316 1.18135 0
M  V30 5429 C 502.322 0.749128 1.88457 0
M  V30 5430 C 502.655 -0.72149 1.803 0
M  V30 5431 O 501.93 -1.52676 1.205 0
M  V30 5432 C 502.213 1.21905 3.38838 0
M  V30 5433 C 502.066 2.75195 3.55792 0
M  V30 5434 C 503.385 0.811085 4.32561 0
M  V30 5435 H 500.504 0.273611 0.684329 0
M  V30 5436 H 503.146 1.29561 1.38975 0
M  V30 5437 H 501.296 0.754137 3.8111 0
M  V30 5438 H 502.968 3.29743 3.22595 0
M  V30 5439 H 501.211 3.14899 2.98364 0
M  V30 5440 H 501.882 3.03135 4.61317 0
M  V30 5441 H 504.358 1.21118 3.98082 0
M  V30 5442 H 503.234 1.16761 5.36338 0
M  V30 5443 H 503.495 -0.285596 4.41177 0
M  V30 5444 N 502.554 -1.34406 0.822964 0
M  V30 5445 C 503.831 -1.92733 0.333641 0
M  V30 5446 C 504.211 -1.75107 -1.17901 0
M  V30 5447 O 503.559 -1.12983 -1.98613 0
M  V30 5448 C 503.769 -3.40557 0.763023 0
M  V30 5449 C 505.117 -4.17709 0.761879 0
M  V30 5450 O 506.141 -3.49141 0.705606 0
M  V30 5451 O 505 -5.40082 0.835109 0
M  V30 5452 H 502.094 -0.821964 0.0911249 0
M  V30 5453 H 504.64 -1.4338 0.907757 0
M  V30 5454 H 503.412 -3.47187 1.8049 0
M  V30 5455 H 503.035 -3.97259 0.164605 0
M  V30 5456 N 504.032 -0.577932 -1.46621 0
M  V30 5457 C 505.262 -0.0670668 -2.06491 0
M  V30 5458 C 505.67 1.24119 -1.42798 0
M  V30 5459 O 505.013 1.76016 -0.525759 0
M  V30 5460 C 505.075 0.177995 -3.59059 0
M  V30 5461 C 504.739 -1.04394 -4.44917 0
M  V30 5462 C 505.736 -1.95479 -4.81751 0
M  V30 5463 C 503.421 -1.26444 -4.86125 0
M  V30 5464 C 505.415 -3.06965 -5.58615 0
M  V30 5465 C 503.102 -2.38237 -5.62749 0
M  V30 5466 C 504.1 -3.28327 -5.98908 0
M  V30 5467 O 503.788 -4.38179 -6.73984 0
M  V30 5468 H 503.52 -0.0523159 -0.673973 0
M  V30 5469 H 506.074 -0.796966 -1.89308 0
M  V30 5470 H 504.304 0.962451 -3.74531 0
M  V30 5471 H 505.993 0.636782 -4.00874 0
M  V30 5472 H 506.759 -1.79657 -4.50498 0
M  V30 5473 H 502.638 -0.572316 -4.57434 0
M  V30 5474 H 506.182 -3.77309 -5.86757 0
M  V30 5475 H 502.079 -2.54023 -5.93416 0
M  V30 5476 H 502.847 -4.36486 -6.92403 0
M  V30 5477 N 505.51 1.54411 -0.315457 0
M  V30 5478 C 506.735 2.05299 0.294496 0
M  V30 5479 C 507.16 1.19052 1.4563 0
M  V30 5480 O 506.518 0.197804 1.80218 0
M  V30 5481 C 506.566 3.5345 0.714549 0
M  V30 5482 O 505.67 3.70175 1.81781 0
M  V30 5483 H 505.011 0.661743 0.0547019 0
M  V30 5484 H 507.541 1.99327 -0.461508 0
M  V30 5485 H 507.551 3.9557 0.999426 0
M  V30 5486 H 506.226 4.1568 -0.135244 0
M  V30 5487 H 504.803 3.3996 1.53236 0
M  V30 5488 N 506.988 0.0434614 1.5754 0
M  V30 5489 C 507.92 -0.962586 2.08007 0
M  V30 5490 C 508.933 -1.27972 1.00634 0
M  V30 5491 O 510.122 -1.24186 1.28219 0
M  V30 5492 C 507.222 -2.28621 2.50171 0
M  V30 5493 C 506.395 -2.15214 3.80791 0
M  V30 5494 C 505.454 -3.30633 4.09351 0
M  V30 5495 O 504.48 -3.0688 4.79388 0
M  V30 5496 N 505.682 -4.54873 3.60654 0
M  V30 5497 H 508.447 -0.531891 2.94942 0
M  V30 5498 H 506.008 -0.142965 1.61268 0
M  V30 5499 H 508 -3.04689 2.66359 0
M  V30 5500 H 506.57 -2.63283 1.68525 0
M  V30 5501 H 505.79 -1.23785 3.74261 0
M  V30 5502 H 507.078 -2.03475 4.66343 0
M  V30 5503 H 506.476 -4.77063 3.04019 0
M  V30 5504 H 505.033 -5.2806 3.82094 0
M  V30 5505 N 508.466 -1.55915 -0.229846 0
M  V30 5506 C 509.713 -1.78542 -0.955452 0
M  V30 5507 C 510.041 -0.610785 -1.84661 0
M  V30 5508 O 509.296 0.405213 -1.91459 0
M  V30 5509 C 509.595 -3.06845 -1.8325 0
M  V30 5510 C 509.261 -4.37395 -1.09528 0
M  V30 5511 C 507.923 -4.72868 -0.891598 0
M  V30 5512 C 510.275 -5.18029 -0.574046 0
M  V30 5513 C 507.603 -5.86496 -0.154655 0
M  V30 5514 C 509.955 -6.32423 0.149513 0
M  V30 5515 C 508.619 -6.66504 0.364519 0
M  V30 5516 H 507.889 -0.653333 -0.349625 0
M  V30 5517 H 510.536 -1.90183 -0.224235 0
M  V30 5518 H 508.841 -2.90291 -2.63132 0
M  V30 5519 H 510.538 -3.21553 -2.39592 0
M  V30 5520 H 507.128 -4.09538 -1.26399 0
M  V30 5521 H 511.312 -4.91066 -0.718899 0
M  V30 5522 H 506.568 -6.11396 0.0222356 0
M  V30 5523 H 510.742 -6.94137 0.560947 0
M  V30 5524 H 508.369 -7.54397 0.937495 0
M  V30 5525 N 509.944 0.496216 -1.49584 0
M  V30 5526 C 510.894 1.59422 -1.62999 0
M  V30 5527 C 511.878 1.53402 -0.485457 0
M  V30 5528 O 513.07 1.60851 -0.738649 0
M  V30 5529 C 510.199 2.98009 -1.70427 0
M  V30 5530 C 509.285 3.09008 -2.90473 0
M  V30 5531 N 509.676 2.89884 -4.14489 0
M  V30 5532 C 507.974 3.40115 -2.8851 0
M  V30 5533 C 508.675 3.0519 -4.95211 0
M  V30 5534 N 507.651 3.3428 -4.2867 0
M  V30 5535 H 511.453 1.43297 -2.56599 0
M  V30 5536 H 508.967 0.702443 -1.46422 0
M  V30 5537 H 510.964 3.76926 -1.78136 0
M  V30 5538 H 509.624 3.152 -0.77967 0
M  V30 5539 H 510.635 2.65963 -4.44392 0
M  V30 5540 H 507.312 3.63452 -2.05448 0
M  V30 5541 H 508.702 2.94856 -6.03746 0
M  V30 5542 N 511.423 1.38739 0.74761 0
M  V30 5543 C 512.386 1.36241 1.84312 0
M  V30 5544 C 513.386 0.261811 1.58654 0
M  V30 5545 O 514.576 0.519031 1.66288 0
M  V30 5546 C 511.708 1.12253 3.21888 0
M  V30 5547 H 512.901 2.33712 1.87933 0
M  V30 5548 H 510.454 1.2412 0.949946 0
M  V30 5549 H 511.189 0.154133 3.23934 0
M  V30 5550 H 510.974 1.91943 3.41907 0
M  V30 5551 H 512.464 1.13215 4.0196 0
M  V30 5552 N 512.901 -0.976442 1.23707 0
M  V30 5553 C 514.129 -1.75341 1.09833 0
M  V30 5554 C 514.544 -1.8553 -0.349885 0
M  V30 5555 O 513.901 -1.33732 -1.24185 0
M  V30 5556 C 513.952 -3.17833 1.72233 0
M  V30 5557 O 513.673 -3.08167 3.11391 0
M  V30 5558 C 515.174 -4.11906 1.63853 0
M  V30 5559 H 512.394 -0.550137 0.384175 0
M  V30 5560 H 514.938 -1.2265 1.63638 0
M  V30 5561 H 513.093 -3.67538 1.22452 0
M  V30 5562 H 513.507 -3.97897 3.41729 0
M  V30 5563 H 514.981 -5.09579 2.12211 0
M  V30 5564 H 515.458 -4.35109 0.598092 0
M  V30 5565 H 516.064 -3.68107 2.13019 0
M  V30 5566 N 514.379 -1.04941 -1.1758 0
M  V30 5567 C 515.626 -0.757989 -1.87779 0
M  V30 5568 C 515.954 0.714827 -1.80888 0
M  V30 5569 O 515.209 1.53824 -1.20982 0
M  V30 5570 C 515.508 -1.18062 -3.37337 0
M  V30 5571 C 515.174 -2.65521 -3.6443 0
M  V30 5572 C 513.836 -3.05804 -3.71534 0
M  V30 5573 C 516.188 -3.60822 -3.76108 0
M  V30 5574 C 513.516 -4.40256 -3.87803 0
M  V30 5575 C 515.868 -4.95005 -3.93895 0
M  V30 5576 C 514.532 -5.34945 -3.99237 0
M  V30 5577 H 513.802 -0.277368 -0.68713 0
M  V30 5578 H 516.449 -1.31603 -1.39115 0
M  V30 5579 H 514.754 -0.541525 -3.8804 0
M  V30 5580 H 516.451 -0.932368 -3.9001 0
M  V30 5581 H 513.041 -2.33324 -3.59524 0
M  V30 5582 H 517.225 -3.30841 -3.69943 0
M  V30 5583 H 512.481 -4.70707 -3.90186 0
M  V30 5584 H 516.655 -5.68746 -4.01872 0
M  V30 5585 H 514.282 -6.39135 -4.11596 0
M  V30 5586 N 515.857 1.33968 -0.830081 0
M  V30 5587 C 516.767 2.33164 -0.259207 0
M  V30 5588 C 517.783 1.62951 0.610164 0
M  V30 5589 O 518.959 1.94668 0.516369 0
M  V30 5590 C 516.024 3.42088 0.563598 0
M  V30 5591 C 515.085 4.28037 -0.329014 0
M  V30 5592 C 514.318 5.3176 0.454616 0
M  V30 5593 O 514.541 5.44876 1.6872 0
M  V30 5594 O 513.475 6.01669 -0.166794 0
M  V30 5595 H 517.301 2.83832 -1.08041 0
M  V30 5596 H 514.886 1.37154 -0.59239 0
M  V30 5597 H 516.768 4.08581 1.03147 0
M  V30 5598 H 515.443 2.93651 1.36201 0
M  V30 5599 H 514.35 3.64443 -0.844538 0
M  V30 5600 H 515.683 4.79934 -1.09196 0
M  V30 5601 N 517.335 0.585699 1.46312 0
M  V30 5602 C 518.581 0.0725284 2.0267 0
M  V30 5603 C 518.914 -1.28523 1.45586 0
M  V30 5604 O 518.189 -1.84283 0.622101 0
M  V30 5605 C 518.472 0.0099788 3.60099 0
M  V30 5606 C 518.325 1.39685 4.27561 0
M  V30 5607 C 519.644 -0.689117 4.34671 0
M  V30 5608 H 516.763 0.0278307 0.736474 0
M  V30 5609 H 519.405 0.753472 1.74421 0
M  V30 5610 H 517.555 -0.56992 3.84297 0
M  V30 5611 H 519.227 2.02215 4.14617 0
M  V30 5612 H 517.47 1.96374 3.86807 0
M  V30 5613 H 518.141 1.30553 5.36339 0
M  V30 5614 H 520.617 -0.196446 4.15636 0
M  V30 5615 H 519.493 -0.701921 5.44393 0
M  V30 5616 H 519.754 -1.75101 4.05946 0
M  V30 5617 N 518.813 -1.54241 0.323641 0
M  V30 5618 C 520.224 -1.85975 -0.164405 0
M  V30 5619 C 520.575 -1.24529 -1.51615 0
M  V30 5620 O 519.7 -0.551351 -2.09258 0
M  V30 5621 C 520.295 -3.37424 -0.305091 0
M  V30 5622 C 518.854 -3.69107 -0.737358 0
M  V30 5623 C 518.001 -2.76942 0.140884 0
M  V30 5624 H 520.952 -1.49088 0.543922 0
M  V30 5625 H 520.973 -3.63147 -1.13598 0
M  V30 5626 H 520.485 -3.82116 0.678876 0
M  V30 5627 H 518.586 -3.29947 -1.73107 0
M  V30 5628 H 518.699 -4.76035 -0.541053 0
M  V30 5629 H 517.063 -2.51795 -0.383572 0
M  V30 5630 H 517.846 -3.24461 1.12162 0
M  V30 5631 N 520.291 -0.0518155 -1.57515 0
M  V30 5632 C 521.519 0.631395 -1.9703 0
M  V30 5633 C 521.934 1.64341 -0.92938 0
M  V30 5634 O 521.291 1.82296 0.0863266 0
M  V30 5635 C 521.342 1.31774 -3.36627 0
M  V30 5636 O 521.063 0.346247 -4.3673 0
M  V30 5637 C 522.564 2.09065 -3.90905 0
M  V30 5638 H 519.784 0.172576 -0.648428 0
M  V30 5639 H 522.328 -0.118306 -2.04158 0
M  V30 5640 H 520.483 2.01867 -3.30649 0
M  V30 5641 H 520.897 0.836226 -5.17791 0
M  V30 5642 H 522.371 2.52508 -4.9086 0
M  V30 5643 H 522.848 2.93908 -3.26366 0
M  V30 5644 H 523.454 1.43882 -4.00223 0
M  V30 5645 N 521.769 1.56035 0.221574 0
M  V30 5646 C 523.18 1.69229 0.788567 0
M  V30 5647 C 523.531 0.653814 1.84986 0
M  V30 5648 O 522.656 -0.195065 2.15519 0
M  V30 5649 C 523.251 3.06809 1.43713 0
M  V30 5650 C 521.81 3.21858 1.95152 0
M  V30 5651 C 520.957 2.65155 0.811685 0
M  V30 5652 H 523.908 1.587 -0.00307894 0
M  V30 5653 H 523.929 3.02666 2.30594 0
M  V30 5654 H 523.441 3.82369 0.664475 0
M  V30 5655 H 521.542 2.51167 2.7522 0
M  V30 5656 H 521.655 4.29073 2.1315 0
M  V30 5657 H 520.019 2.23635 1.21899 0
M  V30 5658 H 520.802 3.43261 0.0516987 0
M  V30 5659 N 523.247 -0.488276 1.49845 0
M  V30 5660 C 524.658 -1.06955 1.53028 0
M  V30 5661 C 525.009 -1.9351 0.323797 0
M  V30 5662 O 524.134 -2.08891 -0.565116 0
M  V30 5663 C 524.729 -1.94643 2.77307 0
M  V30 5664 C 523.288 -2.4791 2.83227 0
M  V30 5665 C 522.435 -1.25833 2.47106 0
M  V30 5666 H 525.386 -0.271626 1.56358 0
M  V30 5667 H 525.407 -2.79496 2.5819 0
M  V30 5668 H 524.919 -1.31621 3.65099 0
M  V30 5669 H 523.02 -3.14535 1.99745 0
M  V30 5670 H 523.133 -2.84193 3.85709 0
M  V30 5671 H 521.497 -1.58764 1.99163 0
M  V30 5672 H 522.28 -0.644993 3.37186 0
M  V30 5673 N 524.725 -1.39134 -0.740242 0
M  V30 5674 C 525.955 -1.39132 -1.52728 0
M  V30 5675 C 526.363 0.0173133 -1.89192 0
M  V30 5676 O 525.706 0.997715 -1.54244 0
M  V30 5677 C 525.768 -2.1952 -2.84695 0
M  V30 5678 C 525.432 -3.68203 -2.70695 0
M  V30 5679 C 526.429 -4.61401 -2.39593 0
M  V30 5680 C 524.114 -4.11724 -2.8773 0
M  V30 5681 C 526.108 -5.96102 -2.25701 0
M  V30 5682 C 523.795 -5.46503 -2.73456 0
M  V30 5683 C 524.793 -6.38506 -2.42486 0
M  V30 5684 O 524.481 -7.70803 -2.28295 0
M  V30 5685 H 524.213 -0.477263 -0.478744 0
M  V30 5686 H 526.767 -1.83504 -0.922799 0
M  V30 5687 H 524.997 -1.69888 -3.47383 0
M  V30 5688 H 526.686 -2.1176 -3.46284 0
M  V30 5689 H 527.452 -4.29079 -2.26088 0
M  V30 5690 H 523.331 -3.4045 -3.10829 0
M  V30 5691 H 526.875 -6.6788 -2.0145 0
M  V30 5692 H 522.772 -5.78417 -2.86538 0
M  V30 5693 H 523.54 -7.8147 -2.43405 0
M  V30 5694 N 526.204 0.969867 -1.24223 0
M  V30 5695 C 527.429 1.75289 -1.10853 0
M  V30 5696 C 527.854 1.85091 0.335079 0
M  V30 5697 O 527.212 1.32024 1.24255 0
M  V30 5698 C 527.26 3.15255 -1.75062 0
M  V30 5699 O 526.364 3.99589 -1.01992 0
M  V30 5700 H 525.705 0.538904 -0.387915 0
M  V30 5701 H 528.235 1.21675 -1.64488 0
M  V30 5702 H 528.245 3.65787 -1.80731 0
M  V30 5703 H 526.92 3.07436 -2.801 0
M  V30 5704 H 525.497 3.58077 -1.04094 0
M  V30 5705 N 527.682 1.05563 1.17022 0
M  V30 5706 C 528.928 0.769074 1.87652 0
M  V30 5707 C 529.261 -0.702326 1.81055 0
M  V30 5708 O 528.536 -1.5139 1.22112 0
M  V30 5709 C 528.819 1.25492 3.37526 0
M  V30 5710 C 528.672 2.78953 3.52853 0
M  V30 5711 C 529.991 0.856919 4.31677 0
M  V30 5712 H 527.11 0.280854 0.681388 0
M  V30 5713 H 529.752 1.31027 1.37593 0
M  V30 5714 H 527.902 0.794516 3.80289 0
M  V30 5715 H 529.574 3.33146 3.19079 0
M  V30 5716 H 527.817 3.18046 2.95007 0
M  V30 5717 H 528.488 3.08011 4.58076 0
M  V30 5718 H 530.964 1.25334 3.96775 0
M  V30 5719 H 529.84 1.22443 5.35069 0
M  V30 5720 H 530.101 -0.238787 4.41455 0
M  V30 5721 N 529.16 -1.33526 0.837174 0
M  V30 5722 C 530.107 -2.29248 0.267169 0
M  V30 5723 C 531.077 -1.54252 -0.616071 0
M  V30 5724 O 532.262 -1.82559 -0.554699 0
M  V30 5725 C 529.402 -3.40638 -0.553152 0
M  V30 5726 C 528.515 -4.30548 0.353921 0
M  V30 5727 C 527.65 -5.29051 -0.477339 0
M  V30 5728 C 526.689 -6.106 0.42823 0
M  V30 5729 N 525.826 -7.01152 -0.364801 0
M  V30 5730 H 530.666 -2.77398 1.08877 0
M  V30 5731 H 528.203 -1.36496 0.54838 0
M  V30 5732 H 530.161 -4.03921 -1.04422 0
M  V30 5733 H 528.791 -2.93685 -1.33973 0
M  V30 5734 H 527.843 -3.68001 0.963289 0
M  V30 5735 H 529.155 -4.87631 1.04964 0
M  V30 5736 H 528.309 -5.97853 -1.0323 0
M  V30 5737 H 527.048 -4.72541 -1.2065 0
M  V30 5738 H 526.053 -5.40718 0.995219 0
M  V30 5739 H 527.278 -6.69193 1.15573 0
M  V30 5740 H 525.224 -6.47092 -1.07738 0
M  V30 5741 H 525.141 -7.5551 0.272238 0
M  V30 5742 H 526.409 -7.74263 -0.902054 0
M  V30 5743 N 530.638 -0.59345 -1.46 0
M  V30 5744 C 531.548 0.135817 -2.34207 0
M  V30 5745 C 532.564 0.875008 -1.50398 0
M  V30 5746 O 533.74 0.835778 -1.83239 0
M  V30 5747 C 530.805 1.12977 -3.27776 0
M  V30 5748 C 529.866 0.394081 -4.27487 0
M  V30 5749 C 529.099 1.34068 -5.16586 0
M  V30 5750 O 529.322 2.5778 -5.08828 0
M  V30 5751 O 528.256 0.845426 -5.95933 0
M  V30 5752 H 532.082 -0.588691 -2.9794 0
M  V30 5753 H 529.667 -0.353784 -1.45151 0
M  V30 5754 H 531.549 1.70261 -3.85473 0
M  V30 5755 H 530.224 1.83556 -2.66625 0
M  V30 5756 H 529.131 -0.220869 -3.73447 0
M  V30 5757 H 530.464 -0.270939 -4.91454 0
M  V30 5758 N 532.116 1.54067 -0.331816 0
M  V30 5759 C 533.048 2.22139 0.564538 0
M  V30 5760 C 534.061 1.22408 1.07332 0
M  V30 5761 O 535.25 1.4883 0.985481 0
M  V30 5762 C 532.35 2.87876 1.78831 0
M  V30 5763 C 531.523 4.13817 1.41682 0
M  V30 5764 C 530.582 4.63072 2.49901 0
M  V30 5765 O 529.608 5.27562 2.13699 0
M  V30 5766 N 530.81 4.38001 3.80967 0
M  V30 5767 H 533.575 2.99694 -0.0183736 0
M  V30 5768 H 531.136 1.61153 -0.155396 0
M  V30 5769 H 533.128 3.17747 2.50637 0
M  V30 5770 H 531.698 2.13977 2.27887 0
M  V30 5771 H 530.918 3.9062 0.530044 0
M  V30 5772 H 532.206 4.95762 1.14443 0
M  V30 5773 H 531.604 3.864 4.13173 0
M  V30 5774 H 530.161 4.72507 4.48977 0
M  V30 5775 N 533.594 0.0601682 1.57485 0
M  V30 5776 C 534.504 -0.926121 2.15546 0
M  V30 5777 C 535.52 -1.33532 1.11558 0
M  V30 5778 O 536.696 -1.4104 1.4377 0
M  V30 5779 C 533.761 -2.17952 2.69625 0
M  V30 5780 C 532.822 -1.82783 3.88444 0
M  V30 5781 C 532.055 -3.02148 4.39935 0
M  V30 5782 O 532.278 -4.15803 3.90466 0
M  V30 5783 O 531.212 -2.82639 5.31412 0
M  V30 5784 H 535.038 -0.462289 3.00161 0
M  V30 5785 H 532.623 -0.162246 1.48516 0
M  V30 5786 H 534.505 -2.91474 3.04337 0
M  V30 5787 H 533.18 -2.63456 1.88077 0
M  V30 5788 H 532.087 -1.06549 3.58606 0
M  V30 5789 H 533.42 -1.42072 4.7125 0
M  V30 5790 N 535.072 -1.5615 -0.213296 0
M  V30 5791 C 535.982 -1.96265 -1.28519 0
M  V30 5792 C 536.998 -0.86765 -1.50824 0
M  V30 5793 O 538.174 -1.17191 -1.63793 0
M  V30 5794 C 535.239 -2.27836 -2.61327 0
M  V30 5795 C 534.3 -3.50949 -2.47252 0
M  V30 5796 C 533.533 -3.81004 -3.73727 0
M  V30 5797 O 533.756 -3.12612 -4.77106 0
M  V30 5798 O 532.69 -4.74477 -3.70344 0
M  V30 5799 H 536.516 -2.87631 -0.974795 0
M  V30 5800 H 534.101 -1.43467 -0.416832 0
M  V30 5801 H 535.983 -2.49299 -3.39747 0
M  V30 5802 H 534.658 -1.39643 -2.9203 0
M  V30 5803 H 533.565 -3.34754 -1.67004 0
M  V30 5804 H 534.898 -4.39551 -2.21486 0
M  V30 5805 N 536.55 0.480323 -1.50102 0
M  V30 5806 C 537.483 1.59789 -1.62919 0
M  V30 5807 C 538.461 1.55429 -0.477557 0
M  V30 5808 O 539.645 1.75186 -0.695851 0
M  V30 5809 C 536.772 2.98351 -1.60325 0
M  V30 5810 C 535.818 3.20899 -2.80938 0
M  V30 5811 S 536.651 3.01791 -4.4236 0
M  V30 5812 C 537.807 4.42712 -4.42444 0
M  V30 5813 H 538.04 1.48676 -2.57454 0
M  V30 5814 H 535.573 0.666996 -1.3925 0
M  V30 5815 H 537.531 3.7824 -1.59514 0
M  V30 5816 H 536.192 3.06862 -0.670419 0
M  V30 5817 H 535.385 4.22102 -2.75401 0
M  V30 5818 H 534.987 2.48768 -2.79268 0
M  V30 5819 H 537.279 5.3518 -4.15438 0
M  V30 5820 H 538.222 4.53294 -5.43995 0
M  V30 5821 H 538.63 4.24359 -3.72263 0
M  V30 5822 N 538.028 1.39524 0.732853 0
M  V30 5823 C 538.958 1.41153 1.86005 0
M  V30 5824 C 539.939 0.274614 1.67869 0
M  V30 5825 O 541.124 0.480745 1.88155 0
M  V30 5826 C 538.254 1.25638 3.23778 0
M  V30 5827 C 537.208 2.36752 3.56556 0
M  V30 5828 C 536.534 2.06326 4.93289 0
M  V30 5829 C 537.834 3.79069 3.5931 0
M  V30 5830 H 539.528 2.35484 1.84899 0
M  V30 5831 H 537.074 1.13348 0.888162 0
M  V30 5832 H 539.027 1.25398 4.0231 0
M  V30 5833 H 537.751 0.277772 3.25417 0
M  V30 5834 H 536.41 2.36213 2.80355 0
M  V30 5835 H 536.058 1.06897 4.9151 0
M  V30 5836 H 535.758 2.80757 5.16187 0
M  V30 5837 H 537.282 2.07739 5.74175 0
M  V30 5838 H 538.696 3.81526 4.27914 0
M  V30 5839 H 537.093 4.52878 3.93728 0
M  V30 5840 H 538.163 4.09893 2.59068 0
M  V30 5841 N 539.506 -0.963266 1.24736 0
M  V30 5842 C 540.436 -2.07628 1.06832 0
M  V30 5843 C 541.417 -1.70088 -0.0200566 0
M  V30 5844 O 542.602 -1.93636 0.147854 0
M  V30 5845 C 539.732 -3.40636 0.677069 0
M  V30 5846 C 538.686 -3.9215 1.71471 0
M  V30 5847 C 538.012 -5.21553 1.1784 0
M  V30 5848 C 539.312 -4.19493 3.11164 0
M  V30 5849 H 541.006 -2.22864 1.9993 0
M  V30 5850 H 538.552 -1.07093 0.96266 0
M  V30 5851 H 540.505 -4.17941 0.538792 0
M  V30 5852 H 539.229 -3.25313 -0.289612 0
M  V30 5853 H 537.888 -3.17005 1.84128 0
M  V30 5854 H 537.536 -5.02593 0.202195 0
M  V30 5855 H 537.236 -5.56988 1.87185 0
M  V30 5856 H 538.76 -6.01463 1.05233 0
M  V30 5857 H 540.174 -4.87487 3.01711 0
M  V30 5858 H 538.571 -4.66165 3.77902 0
M  V30 5859 H 539.641 -3.26097 3.58871 0
M  V30 5860 N 540.985 -1.06182 -1.16461 0
M  V30 5861 C 541.918 -0.615859 -2.19733 0
M  V30 5862 C 542.896 0.360766 -1.58547 0
M  V30 5863 O 544.08 0.270009 -1.86556 0
M  V30 5864 C 541.207 0.097312 -3.3856 0
M  V30 5865 C 540.253 -0.835889 -4.18229 0
M  V30 5866 S 541.086 -2.33052 -4.82128 0
M  V30 5867 C 542.242 -1.62881 -6.04335 0
M  V30 5868 H 542.475 -1.49079 -2.57221 0
M  V30 5869 H 540.008 -0.874692 -1.27234 0
M  V30 5870 H 541.966 0.502563 -4.07412 0
M  V30 5871 H 540.627 0.948418 -2.99439 0
M  V30 5872 H 539.82 -0.283426 -5.03202 0
M  V30 5873 H 539.422 -1.18097 -3.54865 0
M  V30 5874 H 541.714 -0.933764 -6.71034 0
M  V30 5875 H 542.657 -2.45641 -6.64128 0
M  V30 5876 H 543.065 -1.11189 -5.53441 0
M  V30 5877 N 542.463 1.3308 -0.844243 0
M  V30 5878 C 543.688 2.02341 -0.455282 0
M  V30 5879 C 544.113 1.6308 0.93737 0
M  V30 5880 O 543.471 0.826118 1.61385 0
M  V30 5881 C 543.519 3.55743 -0.58988 0
M  V30 5882 O 542.623 4.1063 0.38166 0
M  V30 5883 H 541.964 0.637898 -0.184343 0
M  V30 5884 H 544.494 1.6986 -1.14056 0
M  V30 5885 H 544.504 4.05243 -0.473522 0
M  V30 5886 H 543.179 3.83662 -1.60549 0
M  V30 5887 H 541.756 3.72236 0.22241 0
M  V30 5888 N 543.941 0.601185 1.45683 0
M  V30 5889 C 545.166 0.0982245 2.07167 0
M  V30 5890 C 545.591 -1.20546 1.44396 0
M  V30 5891 O 544.949 -1.73247 0.534347 0
M  V30 5892 C 544.997 -0.0346976 3.60583 0
M  V30 5893 O 544.101 -1.08657 3.97828 0
M  V30 5894 H 543.442 0.0711618 0.660176 0
M  V30 5895 H 545.972 0.829376 1.87036 0
M  V30 5896 H 545.982 -0.234969 4.07323 0
M  V30 5897 H 544.657 0.917265 4.05659 0
M  V30 5898 H 543.234 -0.863275 3.6277 0
M  V30 5899 N 545.419 -1.53889 0.339982 0
M  V30 5900 C 546.83 -1.86139 -0.144671 0
M  V30 5901 C 547.181 -1.2613 -1.50285 0
M  V30 5902 O 546.306 -0.573515 -2.08662 0
M  V30 5903 C 546.901 -3.37728 -0.269285 0
M  V30 5904 C 545.46 -3.69868 -0.698168 0
M  V30 5905 C 544.607 -2.76777 0.170249 0
M  V30 5906 H 547.558 -1.48503 0.559704 0
M  V30 5907 H 547.579 -3.64331 -1.0974 0
M  V30 5908 H 547.091 -3.81375 0.719366 0
M  V30 5909 H 545.192 -3.31764 -1.69597 0
M  V30 5910 H 545.305 -4.76582 -0.490533 0
M  V30 5911 H 543.669 -2.52188 -0.356844 0
M  V30 5912 H 544.452 -3.23253 1.15597 0
M  V30 5913 N 546.897 -0.0685191 -1.57451 0
M  V30 5914 C 547.827 0.89747 -2.15564 0
M  V30 5915 C 548.808 1.31266 -1.08181 0
M  V30 5916 O 549.993 1.38429 -1.36202 0
M  V30 5917 C 547.123 2.16623 -2.71463 0
M  V30 5918 C 546.077 1.89054 -3.83982 0
M  V30 5919 C 545.403 3.22532 -4.26471 0
M  V30 5920 C 546.703 1.1984 -5.08366 0
M  V30 5921 H 548.397 0.413373 -2.96533 0
M  V30 5922 H 545.943 0.197391 -1.42641 0
M  V30 5923 H 547.896 2.84614 -3.10761 0
M  V30 5924 H 546.62 2.67269 -1.8771 0
M  V30 5925 H 545.279 1.23469 -3.45183 0
M  V30 5926 H 544.927 3.71013 -3.39644 0
M  V30 5927 H 544.627 3.04879 -5.02317 0
M  V30 5928 H 546.151 3.91727 -4.68383 0
M  V30 5929 H 547.565 1.77896 -5.45001 0
M  V30 5930 H 545.962 1.12456 -5.89469 0
M  V30 5931 H 547.032 0.176996 -4.84577 0
M  V30 5932 N 548.375 1.56261 0.205012 0
M  V30 5933 C 549.624 1.79236 0.925058 0
M  V30 5934 C 549.937 0.640011 1.84833 0
M  V30 5935 O 551.143 0.753809 2.60826 0
M  V30 5936 C 549.599 3.17475 1.69522 0
M  V30 5937 C 549.207 4.40482 0.817269 0
M  V30 5938 C 550.951 3.49766 2.4055 0
M  V30 5939 C 548.858 5.69744 1.58573 0
M  V30 5940 H 547.788 0.668287 0.349153 0
M  V30 5941 H 550.439 1.82629 0.178544 0
M  V30 5942 H 548.821 3.08304 2.48526 0
M  V30 5943 H 549.995 4.60752 0.0665988 0
M  V30 5944 H 548.31 4.15827 0.218316 0
M  V30 5945 H 550.907 4.43573 2.98575 0
M  V30 5946 H 551.25 2.73041 3.14252 0
M  V30 5947 H 551.783 3.60341 1.68522 0
M  V30 5948 H 548.522 6.49407 0.891679 0
M  V30 5949 H 548.042 5.53509 2.31059 0
M  V30 5950 H 549.721 6.1051 2.14212 0
M  V30 5951 N 549.853 -0.472356 1.50355 0
M  V30 5952 C 550.816 -1.5529 1.68576 0
M  V30 5953 C 551.816 -1.50863 0.556511 0
M  V30 5954 O 553.006 -1.53505 0.823516 0
M  V30 5955 C 550.138 -2.94921 1.70981 0
M  V30 5956 H 551.331 -1.40451 2.64978 0
M  V30 5957 H 548.884 -0.698645 1.39816 0
M  V30 5958 H 549.619 -3.15204 0.762675 0
M  V30 5959 H 549.404 -2.99541 2.53017 0
M  V30 5960 H 550.894 -3.73372 1.87037 0
M  V30 5961 N 551.331 -1.39911 -0.725443 0
M  V30 5962 C 552.742 -1.33599 -1.30415 0
M  V30 5963 C 553.093 -0.00481792 -1.96199 0
M  V30 5964 O 552.218 0.897275 -1.96921 0
M  V30 5965 C 552.813 -2.41965 -2.37146 0
M  V30 5966 C 551.372 -2.39144 -2.90667 0
M  V30 5967 C 550.519 -2.23355 -1.64341 0
M  V30 5968 H 553.47 -1.4986 -0.522267 0
M  V30 5969 H 553.491 -2.09304 -3.17761 0
M  V30 5970 H 553.003 -3.38837 -1.89238 0
M  V30 5971 H 551.104 -1.4594 -3.4283 0
M  V30 5972 H 551.217 -3.34362 -3.43131 0
M  V30 5973 H 549.581 -1.70696 -1.89037 0
M  V30 5974 H 550.364 -3.2221 -1.18471 0
M  V30 5975 N 552.809 0.956637 -1.25245 0
M  V30 5976 C 553.772 2.03457 -1.05537 0
M  V30 5977 C 554.772 1.60798 -0.00886317 0
M  V30 5978 O 555.962 1.72384 -0.250865 0
M  V30 5979 C 553.094 3.35543 -0.601965 0
M  V30 5980 H 554.287 2.22372 -2.01223 0
M  V30 5981 H 551.84 1.13344 -1.07623 0
M  V30 5982 H 552.575 3.22323 0.357584 0
M  V30 5983 H 552.36 3.67854 -1.35743 0
M  V30 5984 H 553.85 4.14769 -0.485454 0
M  V30 5985 N 554.287 1.06798 1.15896 0
M  V30 5986 C 555.536 0.782796 1.8589 0
M  V30 5987 C 555.849 -0.693498 1.82893 0
M  V30 5988 O 557.055 -1.09325 2.48516 0
M  V30 5989 C 555.511 1.3502 3.33613 0
M  V30 5990 C 555.119 2.8571 3.45071 0
M  V30 5991 C 556.863 1.14278 4.08829 0
M  V30 5992 C 554.77 3.35669 4.86909 0
M  V30 5993 H 553.7 0.289149 0.696354 0
M  V30 5994 H 556.351 1.28734 1.30766 0
M  V30 5995 H 554.733 0.773407 3.88374 0
M  V30 5996 H 555.907 3.49385 3.00445 0
M  V30 5997 H 554.222 3.05178 2.83294 0
M  V30 5998 H 556.819 1.49087 5.13495 0
M  V30 5999 H 557.162 0.0814575 4.1622 0
M  V30 6000 H 557.695 1.68563 3.60321 0
M  V30 6001 H 554.434 4.41302 4.84698 0
M  V30 6002 H 553.954 2.76745 5.32139 0
M  V30 6003 H 555.633 3.31296 5.55745 0
M  V30 6004 N 555.766 -1.3263 0.851289 0
M  V30 6005 C 556.994 -2.01563 0.466899 0
M  V30 6006 C 557.409 -1.63996 -0.935447 0
M  V30 6007 O 556.766 -0.85957 -1.6099 0
M  V30 6008 C 556.817 -3.56613 0.592433 0
M  V30 6009 O 556.538 -3.92828 1.93954 0
M  V30 6010 C 558.039 -4.42818 0.206612 0
M  V30 6011 H 555.259 -0.645307 0.183902 0
M  V30 6012 H 557.803 -1.69285 1.1473 0
M  V30 6013 H 555.958 -3.87379 -0.0401936 0
M  V30 6014 H 556.372 -4.87545 1.9339 0
M  V30 6015 H 557.846 -5.50918 0.345462 0
M  V30 6016 H 558.323 -4.30844 -0.85264 0
M  V30 6017 H 558.929 -4.17434 0.814176 0
M  V30 6018 N 557.244 -0.608902 -1.45362 0
M  V30 6019 C 558.192 0.121639 -2.32282 0
M  V30 6020 C 559.186 0.858301 -1.46046 0
M  V30 6021 O 560.392 0.773718 -1.62523 0
M  V30 6022 H 556.767 0.058086 -0.749753 0
M  V30 6023 H 558.738 -0.629866 -2.91677 0
M  V30 6024 C 557.487 1.1047 -3.29684 0
M  V30 6025 H 556.81 0.547278 -3.96036 0
M  V30 6026 H 558.25 1.58576 -3.9323 0
M  V30 6027 C 556.709 2.17891 -2.56954 0
M  V30 6028 O 557.239 3.25652 -2.35189 0
M  V30 6029 N 555.445 1.93211 -2.17066 0
M  V30 6030 H 554.992 1.05584 -2.34967 0
M  V30 6031 H 554.95 2.6529 -1.68727 0
M  V30 6032 N 558.722 1.53707 -0.348139 0
M  V30 6033 C 559.947 2.05877 0.250883 0
M  V30 6034 C 560.372 1.22115 1.43072 0
M  V30 6035 O 559.73 0.235986 1.79758 0
M  V30 6036 C 559.778 3.54886 0.639416 0
M  V30 6037 O 558.882 3.73948 1.73888 0
M  V30 6038 H 558.223 0.662754 0.040653 0
M  V30 6039 H 560.753 1.98303 -0.503685 0
M  V30 6040 H 560.763 3.97601 0.915295 0
M  V30 6041 H 559.438 4.153 -0.223386 0
M  V30 6042 H 558.015 3.43134 1.45991 0
M  V30 6043 N 560.2 0.0768682 1.57412 0
M  V30 6044 C 561.147 -0.888577 2.13009 0
M  V30 6045 C 562.117 -1.29198 1.0439 0
M  V30 6046 O 563.302 -1.37694 1.3208 0
M  V30 6047 C 560.442 -2.14899 2.70023 0
M  V30 6048 C 559.555 -1.79777 3.92816 0
M  V30 6049 C 558.69 -3.00467 4.38056 0
M  V30 6050 C 557.729 -2.61385 5.53484 0
M  V30 6051 N 556.866 -3.74851 5.93659 0
M  V30 6052 H 561.706 -0.407593 2.95199 0
M  V30 6053 H 559.243 -0.189534 1.45874 0
M  V30 6054 H 561.201 -2.88688 3.0119 0
M  V30 6055 H 559.831 -2.60529 1.9059 0
M  V30 6056 H 558.883 -0.960301 3.68079 0
M  V30 6057 H 560.195 -1.47027 4.76639 0
M  V30 6058 H 559.349 -3.82529 4.7091 0
M  V30 6059 H 558.088 -3.36413 3.53097 0
M  V30 6060 H 557.093 -1.77746 5.20275 0
M  V30 6061 H 558.318 -2.26603 6.40178 0
M  V30 6062 H 556.264 -4.1055 5.11649 0
M  V30 6063 H 556.181 -3.45887 6.72234 0
M  V30 6064 H 557.449 -4.57477 6.31138 0
M  V30 6065 N 561.678 -1.56367 -0.196722 0
M  V30 6066 C 562.588 -1.97617 -1.2643 0
M  V30 6067 C 563.604 -0.883598 -1.49895 0
M  V30 6068 O 564.78 -1.18921 -1.62541 0
M  V30 6069 C 561.845 -2.30595 -2.58895 0
M  V30 6070 C 560.906 -3.53551 -2.43516 0
M  V30 6071 C 560.139 -3.84946 -3.69665 0
M  V30 6072 O 560.362 -3.17655 -4.73763 0
M  V30 6073 O 559.296 -4.78379 -3.65291 0
M  V30 6074 H 563.122 -2.88648 -0.944233 0
M  V30 6075 H 560.707 -1.43901 -0.401592 0
M  V30 6076 H 562.589 -2.52889 -3.37083 0
M  V30 6077 H 561.264 -1.42732 -2.90533 0
M  V30 6078 H 560.171 -3.36507 -1.63445 0
M  V30 6079 H 561.504 -4.41875 -2.16812 0
M  V30 6080 N 563.156 0.464375 -1.50603 0
M  V30 6081 C 564.572 0.798684 -1.38178 0
M  V30 6082 C 564.772 1.96568 -0.44308 0
M  V30 6083 O 563.828 2.52252 0.111814 0
M  V30 6084 C 565.141 1.10444 -2.79683 0
M  V30 6085 C 566.689 1.2105 -2.88645 0
M  V30 6086 C 567.164 1.54934 -4.30998 0
M  V30 6087 N 568.655 1.61913 -4.3398 0
M  V30 6088 C 569.39 1.8965 -5.41129 0
M  V30 6089 N 568.886 2.15361 -6.58477 0
M  V30 6090 N 570.679 1.91207 -5.28579 0
M  V30 6091 H 562.83 -0.304603 -2.10204 0
M  V30 6092 H 565.093 -0.0737804 -0.945125 0
M  V30 6093 H 564.799 0.319934 -3.50242 0
M  V30 6094 H 564.673 2.03896 -3.17342 0
M  V30 6095 H 567.06 1.98567 -2.18301 0
M  V30 6096 H 567.141 0.255613 -2.5452 0
M  V30 6097 H 566.785 0.779549 -5.01882 0
M  V30 6098 H 566.715 2.51584 -4.62615 0
M  V30 6099 H 569.206 1.44055 -3.49366 0
M  V30 6100 H 569.519 2.35818 -7.35941 0
M  V30 6101 H 567.864 2.1274 -6.6164 0
M  V30 6102 H 571.055 1.70622 -4.35897 0
M  V30 6103 H 571.228 2.12488 -6.12171 0
M  V30 6104 N 564.634 1.40294 0.718013 0
M  V30 6105 C 565.584 1.36847 1.82365 0
M  V30 6106 C 566.568 0.246424 1.59002 0
M  V30 6107 O 567.76 0.485336 1.70216 0
M  V30 6108 C 564.889 1.23105 3.20469 0
M  V30 6109 C 563.975 2.4008 3.49603 0
M  V30 6110 N 564.366 3.65562 3.49568 0
M  V30 6111 C 562.664 2.33407 3.80049 0
M  V30 6112 C 563.365 4.43015 3.76978 0
M  V30 6113 N 562.341 3.72823 3.95606 0
M  V30 6114 H 566.143 2.31811 1.80668 0
M  V30 6115 H 563.657 1.34031 0.91703 0
M  V30 6116 H 565.654 1.18718 3.9964 0
M  V30 6117 H 564.314 0.291056 3.23393 0
M  V30 6118 H 565.325 3.98756 3.30476 0
M  V30 6119 H 562.002 1.47762 3.90478 0
M  V30 6120 H 563.392 5.51859 3.83276 0
M  V30 6121 N 566.112 -0.949982 1.2575 0
M  V30 6122 C 567.06 -2.06869 1.06339 0
M  V30 6123 C 568.054 -1.69399 -0.00708901 0
M  V30 6124 O 569.26 -1.79383 0.148897 0
M  V30 6125 H 565.635 -0.677197 0.326969 0
M  V30 6126 H 567.606 -2.20396 2.01167 0
M  V30 6127 C 566.355 -3.40503 0.703769 0
M  V30 6128 H 565.678 -3.69807 1.51931 0
M  V30 6129 H 567.118 -4.19623 0.607677 0
M  V30 6130 C 565.577 -3.31685 -0.5905 0
M  V30 6131 O 566.107 -3.67085 -1.63131 0
M  V30 6132 N 564.313 -2.84797 -0.577859 0
M  V30 6133 H 563.86 -2.56186 0.26951 0
M  V30 6134 H 563.818 -2.79279 -1.44398 0
M  V30 6135 N 567.59 -1.07411 -1.15328 0
M  V30 6136 C 568.815 -0.818856 -1.90551 0
M  V30 6137 C 569.24 0.622194 -1.77512 0
M  V30 6138 O 568.598 1.43484 -1.10824 0
M  V30 6139 C 568.646 -1.23267 -3.38877 0
M  V30 6140 O 567.75 -0.378345 -4.10661 0
M  V30 6141 H 567.091 -0.29827 -0.593238 0
M  V30 6142 H 569.621 -1.43289 -1.46046 0
M  V30 6143 H 569.631 -1.20912 -3.89672 0
M  V30 6144 H 568.306 -2.28226 -3.47686 0
M  V30 6145 H 566.883 -0.464437 -3.69996 0
M  V30 6146 N 569.068 1.32177 -0.85831 0
M  V30 6147 C 570.314 1.97417 -0.46417 0
M  V30 6148 C 570.647 1.67746 0.978514 0
M  V30 6149 O 569.922 0.967654 1.68721 0
M  V30 6150 C 570.205 3.53069 -0.708094 0
M  V30 6151 C 570.058 3.92357 -2.19946 0
M  V30 6152 C 571.377 4.39783 -0.166881 0
M  V30 6153 H 568.496 0.717097 -0.17012 0
M  V30 6154 H 571.138 1.56499 -1.07741 0
M  V30 6155 H 569.288 3.88054 -0.186128 0
M  V30 6156 H 570.96 3.67533 -2.78779 0
M  V30 6157 H 569.203 3.41384 -2.67656 0
M  V30 6158 H 569.874 5.00841 -2.32082 0
M  V30 6159 H 572.35 4.11556 -0.613285 0
M  V30 6160 H 571.226 5.47671 -0.367093 0
M  V30 6161 H 571.487 4.32196 0.930559 0
M  V30 6162 N 570.547 0.616602 1.45037 0
M  V30 6163 C 571.457 -0.0985401 2.34393 0
M  V30 6164 C 572.473 -0.850971 1.51771 0
M  V30 6165 O 573.649 -0.806521 1.84546 0
M  V30 6166 C 570.714 -1.07748 3.29532 0
M  V30 6167 C 569.775 -0.326022 4.2806 0
M  V30 6168 C 569.008 -1.25833 5.18654 0
M  V30 6169 O 569.231 -2.49652 5.12864 0
M  V30 6170 O 568.165 -0.750512 5.97203 0
M  V30 6171 H 571.991 0.636016 2.96966 0
M  V30 6172 H 569.576 0.376832 1.44569 0
M  V30 6173 H 571.458 -1.64107 3.88133 0
M  V30 6174 H 570.133 -1.79291 2.69512 0
M  V30 6175 H 569.04 0.280253 3.73049 0
M  V30 6176 H 570.373 0.349091 4.9096 0
M  V30 6177 N 572.025 -1.5352 0.356285 0
M  V30 6178 C 573.265 -2.03027 -0.23649 0
M  V30 6179 C 573.629 -1.23813 -1.46746 0
M  V30 6180 O 574.83 -1.63281 -2.13525 0
M  V30 6181 C 573.101 -3.53442 -0.530415 0
M  V30 6182 S 574.66 -4.24836 -1.09819 0
M  V30 6183 H 571.478 -0.707591 -0.0695378 0
M  V30 6184 H 574.08 -1.89077 0.496999 0
M  V30 6185 H 572.784 -4.087 0.373114 0
M  V30 6186 H 572.315 -3.71536 -1.29323 0
M  V30 6187 H 574.33 -4.35228 -2.38309 0
M  V30 6188 N 573.503 -0.0852151 -1.57369 0
M  V30 6189 C 574.433 0.874556 -2.16503 0
M  V30 6190 C 575.414 1.30111 -1.09568 0
M  V30 6191 O 576.599 1.36977 -1.37662 0
M  V30 6192 C 573.729 2.13731 -2.73745 0
M  V30 6193 C 572.683 1.84971 -3.85966 0
M  V30 6194 C 572.009 3.17991 -4.29867 0
M  V30 6195 C 573.309 1.14442 -5.09608 0
M  V30 6196 H 575.003 0.381899 -2.96954 0
M  V30 6197 H 572.549 0.18225 -1.42842 0
M  V30 6198 H 574.502 2.81302 -3.13763 0
M  V30 6199 H 573.226 2.65263 -1.90534 0
M  V30 6200 H 571.885 1.19801 -3.46473 0
M  V30 6201 H 571.533 3.6739 -3.4356 0
M  V30 6202 H 571.233 2.99534 -5.05523 0
M  V30 6203 H 572.757 3.86737 -4.72511 0
M  V30 6204 H 574.171 1.72105 -5.46857 0
M  V30 6205 H 572.568 1.06197 -5.90629 0
M  V30 6206 H 573.638 0.12559 -4.84737 0
M  V30 6207 N 574.981 1.5647 0.188427 0
M  V30 6208 C 576.258 1.71857 0.934058 0
M  V30 6209 C 576.638 0.641867 2.01105 0
M  V30 6210 O 575.986 -0.346098 2.25864 0
M  V30 6211 C 576.196 3.14431 1.5144 0
M  V30 6212 C 577.544 3.74869 1.99396 0
M  V30 6213 O 578.568 3.17601 1.61269 0
M  V30 6214 O 577.427 4.75387 2.69573 0
M  V30 6215 H 574.521 0.701186 0.438483 0
M  V30 6216 H 577.067 1.68768 0.177599 0
M  V30 6217 H 575.839 3.8427 0.738416 0
M  V30 6218 H 575.462 3.21775 2.33552 0
M  V30 6219 N 576.459 -0.456382 1.50847 0
M  V30 6220 C 577.707 -1.20497 1.62249 0
M  V30 6221 C 578.028 -1.92156 0.331839 0
M  V30 6222 O 577.298 -1.84751 -0.651443 0
M  V30 6223 H 575.878 -0.447775 0.597918 0
M  V30 6224 H 578.54 -0.525099 1.87693 0
M  V30 6225 H 577.636 -1.94492 2.44089 0
M  V30 6226 N 577.937 -1.40673 -0.710563 0
M  V30 6227 C 578.867 -1.44095 -1.83736 0
M  V30 6228 C 579.848 -0.301286 -1.67411 0
M  V30 6229 O 581.033 -0.510618 -1.87367 0
M  V30 6230 C 578.163 -1.30773 -3.21738 0
M  V30 6231 C 577.117 -2.42395 -3.52745 0
M  V30 6232 C 576.443 -2.14147 -4.89944 0
M  V30 6233 C 577.743 -3.84738 -3.53234 0
M  V30 6234 H 579.437 -2.38396 -1.81129 0
M  V30 6235 H 576.983 -1.14746 -0.870017 0
M  V30 6236 H 578.936 -1.31783 -4.00264 0
M  V30 6237 H 577.66 -0.329507 -3.24934 0
M  V30 6238 H 576.319 -2.40643 -2.76562 0
M  V30 6239 H 575.967 -1.14703 -4.89747 0
M  V30 6240 H 575.667 -2.88934 -5.11655 0
M  V30 6241 H 577.191 -2.16848 -5.70797 0
M  V30 6242 H 578.605 -3.88286 -4.2179 0
M  V30 6243 H 577.002 -4.59085 -3.86473 0
M  V30 6244 H 578.072 -4.13962 -2.52514 0
M  V30 6245 N 579.415 0.9433 -1.26252 0
M  V30 6246 C 580.692 1.66639 -1.02424 0
M  V30 6247 C 581.072 2.06335 0.446006 0
M  V30 6248 O 580.42 1.78551 1.42589 0
M  V30 6249 C 580.63 2.88019 -1.97094 0
M  V30 6250 C 581.978 3.59718 -2.25584 0
M  V30 6251 O 583.002 2.9812 -1.94943 0
M  V30 6252 O 581.861 4.7066 -2.77743 0
M  V30 6253 H 578.955 0.729643 -0.389294 0
M  V30 6254 H 581.501 0.995218 -1.37454 0
M  V30 6255 H 580.273 2.5556 -2.96319 0
M  V30 6256 H 579.896 3.62863 -1.62532 0
M  V30 6257 N 580.893 1.08022 1.14757 0
M  V30 6258 C 582.17 0.720386 1.81851 0
M  V30 6259 C 582.55 -0.796375 1.95502 0
M  V30 6260 O 581.898 -1.71339 1.51179 0
M  V30 6261 C 582.108 1.44273 3.17783 0
M  V30 6262 C 583.456 1.59925 3.93331 0
M  V30 6263 O 584.48 1.40407 3.2736 0
M  V30 6264 O 583.339 1.92096 5.11626 0
M  V30 6265 H 580.433 0.257142 0.786007 0
M  V30 6266 H 582.979 1.18155 1.21809 0
M  V30 6267 H 581.751 2.47618 3.02987 0
M  V30 6268 H 581.374 0.97279 3.85516 0
M  V30 6269 N 582.371 -1.3172 0.865308 0
M  V30 6270 C 583.62 -1.96145 0.470098 0
M  V30 6271 C 583.933 -1.69182 -0.981674 0
M  V30 6272 O 585.139 -2.27431 -1.48281 0
M  V30 6273 C 583.595 -3.51129 0.789732 0
M  V30 6274 C 583.203 -3.86938 2.25795 0
M  V30 6275 C 584.947 -4.2197 0.462765 0
M  V30 6276 C 582.854 -5.35012 2.52024 0
M  V30 6277 H 581.784 -0.734105 0.172065 0
M  V30 6278 H 584.435 -1.49959 1.05757 0
M  V30 6279 H 582.817 -3.95781 0.131571 0
M  V30 6280 H 583.991 -3.5326 2.95879 0
M  V30 6281 H 582.306 -3.29149 2.55049 0
M  V30 6282 H 584.903 -5.30904 0.636019 0
M  V30 6283 H 585.246 -4.12005 -0.59645 0
M  V30 6284 H 585.779 -3.82936 1.07727 0
M  V30 6285 H 582.518 -5.50008 3.56611 0
M  V30 6286 H 582.038 -5.70058 1.8653 0
M  V30 6287 H 583.717 -6.0222 2.36515 0
M  V30 6288 N 583.85 -0.624285 -1.44708 0
M  V30 6289 C 585.077 -0.132919 -2.06473 0
M  V30 6290 C 585.493 1.18967 -1.46602 0
M  V30 6291 O 584.85 1.72824 -0.586341 0
M  V30 6292 C 584.901 -0.00465418 -3.615 0
M  V30 6293 O 584.622 -1.27494 -4.19138 0
M  V30 6294 C 586.123 0.516213 -4.40284 0
M  V30 6295 H 583.343 -0.0765201 -0.666623 0
M  V30 6296 H 585.887 -0.856751 -1.85688 0
M  V30 6297 H 584.042 0.669583 -3.8157 0
M  V30 6298 H 584.456 -1.11536 -5.12504 0
M  V30 6299 H 585.93 0.554994 -5.49203 0
M  V30 6300 H 586.407 1.5419 -4.11245 0
M  V30 6301 H 587.013 -0.124542 -4.25118 0
M  V30 6302 N 585.328 1.53329 -0.364422 0
M  V30 6303 C 586.556 2.05657 0.226424 0
M  V30 6304 C 586.971 1.23801 1.42544 0
M  V30 6305 O 586.328 0.27839 1.80364 0
M  V30 6306 C 586.379 3.56125 0.621056 0
M  V30 6307 O 586.1 4.34879 -0.530304 0
M  V30 6308 C 587.601 4.24706 1.27041 0
M  V30 6309 H 584.821 0.669806 0.0400056 0
M  V30 6310 H 587.365 1.97714 -0.522456 0
M  V30 6311 H 585.52 3.64223 1.31985 0
M  V30 6312 H 585.934 5.24073 -0.211546 0
M  V30 6313 H 587.408 5.3131 1.49711 0
M  V30 6314 H 587.885 3.78354 2.23036 0
M  V30 6315 H 588.491 4.20858 0.613079 0
M  V30 6316 N 586.806 0.0935595 1.57322 0
M  V30 6317 C 587.753 -0.865935 2.1394 0
M  V30 6318 C 588.723 -1.28083 1.05754 0
M  V30 6319 O 589.908 -1.36285 1.33533 0
M  V30 6320 C 587.048 -2.12023 2.72287 0
M  V30 6321 C 586.161 -1.756 3.94701 0
M  V30 6322 C 585.296 -2.95804 4.41218 0
M  V30 6323 C 584.335 -2.555 5.56225 0
M  V30 6324 N 583.472 -3.68534 5.97601 0
M  V30 6325 H 588.312 -0.376261 2.95615 0
M  V30 6326 H 585.849 -0.174052 1.46067 0
M  V30 6327 H 587.807 -2.85477 3.04235 0
M  V30 6328 H 586.437 -2.58492 1.93343 0
M  V30 6329 H 585.489 -0.921208 3.69077 0
M  V30 6330 H 586.801 -1.41964 4.78171 0
M  V30 6331 H 585.955 -3.77513 4.74941 0
M  V30 6332 H 584.694 -3.32649 3.56645 0
M  V30 6333 H 583.699 -1.72218 5.22131 0
M  V30 6334 H 584.924 -2.19801 6.42545 0
M  V30 6335 H 582.87 -4.051 5.15974 0
M  V30 6336 H 582.787 -3.38737 6.75865 0
M  V30 6337 H 584.055 -4.50757 6.35955 0
M  V30 6338 N 588.284 -1.56567 -0.180126 0
M  V30 6339 C 589.214 -1.98753 -1.22553 0
M  V30 6340 C 590.195 -0.86175 -1.46656 0
M  V30 6341 O 591.38 -1.12719 -1.58139 0
M  V30 6342 C 588.51 -2.33988 -2.56645 0
M  V30 6343 C 587.464 -3.49445 -2.47128 0
M  V30 6344 C 586.79 -3.70397 -3.8563 0
M  V30 6345 C 588.09 -4.83171 -1.98352 0
M  V30 6346 H 589.784 -2.86332 -0.874896 0
M  V30 6347 H 587.33 -1.37757 -0.419414 0
M  V30 6348 H 589.283 -2.62097 -3.29974 0
M  V30 6349 H 588.007 -1.43309 -2.93479 0
M  V30 6350 H 586.666 -3.2145 -1.76254 0
M  V30 6351 H 586.314 -2.77023 -4.19842 0
M  V30 6352 H 586.014 -4.48077 -3.80132 0
M  V30 6353 H 587.538 -4.00897 -4.60558 0
M  V30 6354 H 588.952 -5.10213 -2.61449 0
M  V30 6355 H 587.349 -5.64425 -2.03823 0
M  V30 6356 H 588.419 -4.75753 -0.937402 0
M  V30 6357 N 589.762 0.448376 -1.51087 0
M  V30 6358 C 591.173 1.0286 -1.5581 0
M  V30 6359 C 591.524 1.92583 -0.374989 0
M  V30 6360 O 590.649 2.10316 0.509533 0
M  V30 6361 C 591.244 1.87223 -2.8237 0
M  V30 6362 C 589.803 2.40314 -2.897 0
M  V30 6363 C 588.95 1.19238 -2.50355 0
M  V30 6364 H 591.901 0.230075 -1.57023 0
M  V30 6365 H 591.922 2.72553 -2.6551 0
M  V30 6366 H 591.434 1.21894 -3.68461 0
M  V30 6367 H 589.535 3.09129 -2.08014 0
M  V30 6368 H 589.648 2.73866 -3.93108 0
M  V30 6369 H 588.012 1.53428 -2.03303 0
M  V30 6370 H 588.795 0.555367 -3.38778 0
M  V30 6371 N 591.24 1.41047 0.703093 0
M  V30 6372 C 592.465 1.43537 1.49706 0
M  V30 6373 C 592.89 0.0401853 1.88057 0
M  V30 6374 O 592.248 -0.954785 1.54122 0
M  V30 6375 C 592.296 2.3433 2.74084 0
M  V30 6376 O 591.4 1.79515 3.71279 0
M  V30 6377 H 590.741 0.487454 0.450871 0
M  V30 6378 H 593.271 1.85422 0.86486 0
M  V30 6379 H 593.281 2.49947 3.22476 0
M  V30 6380 H 591.956 3.35708 2.45506 0
M  V30 6381 H 590.533 1.7331 3.30179 0
M  V30 6382 N 592.718 -0.936591 1.26751 0
M  V30 6383 C 593.665 -2.03597 1.08706 0
M  V30 6384 C 594.635 -1.66097 -0.00926542 0
M  V30 6385 O 595.82 -1.90199 0.151377 0
M  V30 6386 C 592.96 -3.3727 0.73094 0
M  V30 6387 C 592.073 -3.87778 1.90399 0
M  V30 6388 C 591.208 -5.09859 1.49056 0
M  V30 6389 C 590.247 -5.5264 2.63164 0
M  V30 6390 N 589.384 -6.65921 2.22471 0
M  V30 6391 H 594.224 -2.18364 2.02784 0
M  V30 6392 H 591.761 -1.06985 1.00958 0
M  V30 6393 H 593.719 -4.14128 0.505328 0
M  V30 6394 H 592.349 -3.22337 -0.172868 0
M  V30 6395 H 591.401 -3.07279 2.2424 0
M  V30 6396 H 592.713 -4.15464 2.76028 0
M  V30 6397 H 591.867 -5.9419 1.22567 0
M  V30 6398 H 590.606 -4.8393 0.60524 0
M  V30 6399 H 589.611 -4.66863 2.90377 0
M  V30 6400 H 590.836 -5.80568 3.52303 0
M  V30 6401 H 588.782 -6.41667 1.36379 0
M  V30 6402 H 588.699 -6.93216 3.01641 0
M  V30 6403 H 589.967 -7.53616 1.99205 0
M  V30 6404 N 594.196 -1.08629 -1.14182 0
M  V30 6405 C 595.126 -0.740003 -2.21464 0
M  V30 6406 C 596.107 0.278591 -1.67803 0
M  V30 6407 O 597.292 0.148461 -1.93632 0
M  V30 6408 C 594.422 -0.150952 -3.46972 0
M  V30 6409 C 593.376 -1.09815 -4.13672 0
M  V30 6410 C 592.702 -0.3712 -5.3341 0
M  V30 6411 C 594.002 -2.43722 -4.61949 0
M  V30 6412 H 595.696 -1.63697 -2.50686 0
M  V30 6413 H 593.242 -0.788526 -1.20492 0
M  V30 6414 H 595.195 0.103325 -4.21273 0
M  V30 6415 H 593.919 0.781164 -3.1712 0
M  V30 6416 H 592.578 -1.33756 -3.41328 0
M  V30 6417 H 592.226 0.564792 -4.99819 0
M  V30 6418 H 591.926 -1.00267 -5.78982 0
M  V30 6419 H 593.45 -0.12503 -6.10472 0
M  V30 6420 H 594.864 -2.24034 -5.27714 0
M  V30 6421 H 593.261 -3.02582 -5.18232 0
M  V30 6422 H 594.331 -3.05082 -3.76899 0
M  V30 6423 N 595.674 1.31259 -0.872281 0
M  V30 6424 C 596.606 2.27396 -0.28697 0
M  V30 6425 C 597.619 1.53181 0.551297 0
M  V30 6426 O 598.808 1.74561 0.372914 0
M  V30 6427 C 595.908 3.33335 0.611617 0
M  V30 6428 C 595.081 4.36966 -0.194729 0
M  V30 6429 C 594.14 5.22387 0.632358 0
M  V30 6430 O 593.166 5.69169 0.0595691 0
M  V30 6431 N 594.368 5.46985 1.94391 0
M  V30 6432 H 597.133 2.78261 -1.11314 0
M  V30 6433 H 594.694 1.44306 -0.733994 0
M  V30 6434 H 596.686 3.87398 1.17068 0
M  V30 6435 H 595.256 2.82496 1.33846 0
M  V30 6436 H 594.476 3.82945 -0.935241 0
M  V30 6437 H 595.764 5.03273 -0.747935 0
M  V30 6438 H 595.162 5.10737 2.43237 0
M  V30 6439 H 593.719 6.03973 2.45071 0
M  V30 6440 N 597.152 0.631951 1.44375 0
M  V30 6441 C 598.099 -0.0724807 2.30686 0
M  V30 6442 C 599.069 -0.835975 1.43529 0
M  V30 6443 O 600.254 -0.816849 1.7243 0
M  V30 6444 C 597.394 -1.04753 3.28817 0
M  V30 6445 C 596.507 -0.282367 4.31076 0
M  V30 6446 C 595.642 -1.2493 5.163 0
M  V30 6447 C 594.681 -0.473349 6.10267 0
M  V30 6448 N 593.818 -1.39079 6.88187 0
M  V30 6449 H 598.658 0.669477 2.90383 0
M  V30 6450 H 596.195 0.341927 1.43071 0
M  V30 6451 H 598.153 -1.62623 3.842 0
M  V30 6452 H 596.783 -1.75661 2.70819 0
M  V30 6453 H 595.835 0.412268 3.78159 0
M  V30 6454 H 597.147 0.321955 4.9776 0
M  V30 6455 H 596.301 -1.89931 5.76204 0
M  V30 6456 H 595.04 -1.88755 4.49692 0
M  V30 6457 H 594.045 0.190142 5.49471 0
M  V30 6458 H 595.27 0.16019 6.78911 0
M  V30 6459 H 593.216 -2.01623 6.24247 0
M  V30 6460 H 593.133 -0.840513 7.51313 0
M  V30 6461 H 594.401 -2.02961 7.52613 0
M  V30 6462 N 598.631 -1.53133 0.372548 0
M  V30 6463 C 599.88 -2.00539 -0.216115 0
M  V30 6464 C 600.193 -1.26374 -1.49295 0
M  V30 6465 O 601.399 -1.64404 -2.16064 0
M  V30 6466 C 599.855 -3.57253 -0.435678 0
M  V30 6467 C 599.463 -4.40302 0.82693 0
M  V30 6468 C 601.207 -4.12995 -0.981618 0
M  V30 6469 C 599.114 -5.88583 0.576567 0
M  V30 6470 H 598.044 -0.749246 -0.084536 0
M  V30 6471 H 600.695 -1.76771 0.492364 0
M  V30 6472 H 599.077 -3.77202 -1.20559 0
M  V30 6473 H 600.251 -4.32124 1.60017 0
M  V30 6474 H 598.566 -3.95699 1.29659 0
M  V30 6475 H 601.163 -5.21418 -1.18436 0
M  V30 6476 H 601.506 -3.68027 -1.94581 0
M  V30 6477 H 602.039 -3.96871 -0.271696 0
M  V30 6478 H 598.778 -6.37841 1.51128 0
M  V30 6479 H 598.298 -5.99592 -0.158047 0
M  V30 6480 H 599.977 -6.46676 0.204722 0
M  V30 6481 N 600.109 -0.101901 -1.5727 0
M  V30 6482 C 601.337 0.568392 -1.98939 0
M  V30 6483 C 601.752 1.61301 -0.981194 0
M  V30 6484 O 601.109 1.82478 0.0282869 0
M  V30 6485 C 601.16 1.20997 -3.40649 0
M  V30 6486 O 600.881 0.207129 -4.3761 0
M  V30 6487 C 602.382 1.96523 -3.97358 0
M  V30 6488 H 599.602 0.15186 -0.65359 0
M  V30 6489 H 602.146 -0.183198 -2.03678 0
M  V30 6490 H 600.301 1.91245 -3.36904 0
M  V30 6491 H 600.715 0.671071 -5.20189 0
M  V30 6492 H 602.189 2.36764 -4.98645 0
M  V30 6493 H 602.666 2.83376 -3.35552 0
M  V30 6494 H 603.272 1.31076 -4.04598 0
M  V30 6495 N 601.587 1.56661 0.17182 0
M  V30 6496 C 602.835 1.81606 0.886774 0
M  V30 6497 C 603.156 0.678818 1.82803 0
M  V30 6498 O 602.426 -0.301354 1.93568 0
M  V30 6499 H 601.006 0.669934 0.330451 0
M  V30 6500 H 603.668 1.94142 0.171757 0
M  V30 6501 H 602.764 2.75634 1.46398 0
M  V30 6502 N 603.065 -0.440357 1.51323 0
M  V30 6503 C 604.481 -0.7766 1.39431 0
M  V30 6504 C 604.681 -1.95838 0.474296 0
M  V30 6505 O 603.737 -2.52398 -0.0716692 0
M  V30 6506 C 605.05 -1.05981 2.81405 0
M  V30 6507 C 606.598 -1.16442 2.90534 0
M  V30 6508 C 607.073 -1.48058 4.33408 0
M  V30 6509 N 608.564 -1.54988 4.36501 0
M  V30 6510 C 609.299 -1.81017 5.44078 0
M  V30 6511 N 608.795 -2.04858 6.61819 0
M  V30 6512 N 610.588 -1.82774 5.31554 0
M  V30 6513 H 602.739 0.338006 2.09693 0
M  V30 6514 H 605.002 0.0888072 0.943831 0
M  V30 6515 H 604.708 -0.264173 3.50706 0
M  V30 6516 H 604.582 -1.98822 3.20546 0
M  V30 6517 H 606.969 -1.95068 2.21432 0
M  V30 6518 H 607.05 -0.215088 2.54894 0
M  V30 6519 H 606.694 -0.699605 5.03059 0
M  V30 6520 H 606.624 -2.44192 4.66559 0
M  V30 6521 H 609.115 -1.38479 3.51613 0
M  V30 6522 H 609.428 -2.2408 7.396 0
M  V30 6523 H 607.773 -2.02187 6.6494 0
M  V30 6524 H 610.964 -1.63665 4.38556 0
M  V30 6525 H 611.137 -2.02722 6.15474 0
M  V30 6526 N 604.543 -1.41418 -0.695603 0
M  V30 6527 C 605.453 -1.45622 -1.83933 0
M  V30 6528 C 606.469 -0.346825 -1.70508 0
M  V30 6529 O 607.645 -0.59454 -1.92424 0
M  V30 6530 C 604.71 -1.33627 -3.19914 0
M  V30 6531 C 603.771 -2.54882 -3.45447 0
M  V30 6532 C 603.004 -2.43449 -4.7494 0
M  V30 6533 O 603.227 -1.45905 -5.51424 0
M  V30 6534 O 602.161 -3.33206 -5.01256 0
M  V30 6535 H 605.987 -2.42114 -1.83342 0
M  V30 6536 H 603.572 -1.22956 -0.848658 0
M  V30 6537 H 605.454 -1.29221 -4.01098 0
M  V30 6538 H 604.129 -0.402508 -3.21188 0
M  V30 6539 H 603.036 -2.64865 -2.64192 0
M  V30 6540 H 604.369 -3.47087 -3.48987 0
M  V30 6541 N 606.021 0.929856 -1.27246 0
M  V30 6542 C 607.298 1.65544 -1.04186 0
M  V30 6543 C 607.678 2.06796 0.424097 0
M  V30 6544 O 607.026 1.80053 1.40688 0
M  V30 6545 C 607.236 2.85912 -2.00138 0
M  V30 6546 C 608.584 3.57305 -2.29387 0
M  V30 6547 O 609.608 2.96036 -1.98094 0
M  V30 6548 O 608.467 4.67688 -2.82719 0
M  V30 6549 H 605.561 0.725473 -0.397011 0
M  V30 6550 H 608.107 0.980583 -1.38501 0
M  V30 6551 H 606.879 2.52403 -2.99013 0
M  V30 6552 H 606.502 3.61118 -1.66371 0
M  V30 6553 N 607.499 1.09233 1.13605 0
M  V30 6554 C 608.746 0.827159 1.84836 0
M  V30 6555 C 609.074 -0.647199 1.83416 0
M  V30 6556 O 608.329 -1.49228 1.26608 0
M  V30 6557 C 608.628 1.305 3.32723 0
M  V30 6558 C 608.294 2.78864 3.54325 0
M  V30 6559 C 606.956 3.19382 3.59928 0
M  V30 6560 C 609.308 3.74532 3.62457 0
M  V30 6561 C 606.636 4.54346 3.71196 0
M  V30 6562 C 608.988 5.09283 3.75252 0
M  V30 6563 C 607.652 5.49394 3.79108 0
M  V30 6564 H 606.922 0.302679 0.676363 0
M  V30 6565 H 609.569 1.36676 1.34134 0
M  V30 6566 H 607.874 0.68517 3.85762 0
M  V30 6567 H 609.571 1.07648 3.86281 0
M  V30 6568 H 606.161 2.46507 3.50617 0
M  V30 6569 H 610.345 3.44343 3.57409 0
M  V30 6570 H 605.601 4.84864 3.72447 0
M  V30 6571 H 609.775 5.83269 3.80487 0
M  V30 6572 H 607.402 6.5397 3.87591 0
M  V30 6573 N 608.977 -1.30795 0.87923 0
M  V30 6574 C 610.388 -1.78535 0.546093 0
M  V30 6575 C 610.739 -1.72354 -0.937467 0
M  V30 6576 O 609.864 -1.2969 -1.73233 0
M  V30 6577 C 610.459 -3.24181 0.9845 0
M  V30 6578 C 609.018 -3.69779 0.702871 0
M  V30 6579 C 608.165 -2.51377 1.17068 0
M  V30 6580 H 611.116 -1.17746 1.06403 0
M  V30 6581 H 611.137 -3.79227 0.311045 0
M  V30 6582 H 610.649 -3.28647 2.06429 0
M  V30 6583 H 608.75 -3.70806 -0.365166 0
M  V30 6584 H 608.863 -4.61507 1.28639 0
M  V30 6585 H 607.227 -2.47768 0.590172 0
M  V30 6586 H 608.01 -2.58584 2.25808 0
M  V30 6587 N 610.455 -0.639598 -1.44038 0
M  V30 6588 C 611.402 0.0602458 -2.30721 0
M  V30 6589 C 612.372 0.828352 -1.43971 0
M  V30 6590 O 613.557 0.807693 -1.72861 0
M  V30 6591 C 610.697 1.03008 -3.29368 0
M  V30 6592 C 609.81 0.259502 -4.3122 0
M  V30 6593 C 608.945 1.22191 -5.16955 0
M  V30 6594 C 607.984 0.440978 -6.10509 0
M  V30 6595 N 607.121 1.35428 -6.88915 0
M  V30 6596 H 611.961 -0.684867 -2.90023 0
M  V30 6597 H 609.498 -0.349509 -1.42888 0
M  V30 6598 H 611.456 1.60583 -3.85057 0
M  V30 6599 H 610.086 1.74222 -2.71747 0
M  V30 6600 H 609.138 -0.432317 -3.77935 0
M  V30 6601 H 610.45 -0.348347 -4.97582 0
M  V30 6602 H 609.604 1.86873 -5.77203 0
M  V30 6603 H 608.343 1.86367 -4.50687 0
M  V30 6604 H 607.348 -0.219279 -5.49363 0
M  V30 6605 H 608.573 -0.196192 -6.78817 0
M  V30 6606 H 606.519 1.9831 -6.25307 0
M  V30 6607 H 606.436 0.800657 -7.51748 0
M  V30 6608 H 607.704 1.98967 -7.53679 0
M  V30 6609 N 611.933 1.52934 -0.380664 0
M  V30 6610 C 612.88 2.26197 0.458641 0
M  V30 6611 C 613.85 1.27462 1.06502 0
M  V30 6612 O 615.035 1.56274 1.09467 0
M  V30 6613 C 612.175 3.06571 1.58456 0
M  V30 6614 C 611.288 4.20222 1.00189 0
M  V30 6615 C 610.423 4.88007 2.09815 0
M  V30 6616 C 609.462 5.93665 1.49092 0
M  V30 6617 N 608.599 6.55081 2.52613 0
M  V30 6618 H 613.439 2.975 -0.172595 0
M  V30 6619 H 610.976 1.4678 -0.0969426 0
M  V30 6620 H 612.934 3.51455 2.24801 0
M  V30 6621 H 611.564 2.37494 2.18624 0
M  V30 6622 H 610.616 3.79714 0.228292 0
M  V30 6623 H 611.928 4.96102 0.518064 0
M  V30 6624 H 611.082 5.36151 2.83948 0
M  V30 6625 H 609.821 4.11632 2.61555 0
M  V30 6626 H 608.826 5.44868 0.7348 0
M  V30 6627 H 610.051 6.71969 0.981582 0
M  V30 6628 H 607.997 5.8155 3.03538 0
M  V30 6629 H 607.914 7.26548 2.08961 0
M  V30 6630 H 609.182 7.07871 3.26402 0
M  V30 6631 N 613.412 0.11024 1.57214 0
M  V30 6632 C 614.342 -0.840002 2.17867 0
M  V30 6633 C 615.323 -1.28352 1.11624 0
M  V30 6634 O 616.508 -1.3477 1.39824 0
M  V30 6635 C 613.638 -2.09349 2.77111 0
M  V30 6636 C 612.592 -1.78807 3.8886 0
M  V30 6637 C 611.918 -3.11112 4.34872 0
M  V30 6638 C 613.218 -1.0632 5.11364 0
M  V30 6639 H 614.912 -0.334608 2.97524 0
M  V30 6640 H 612.458 -0.159502 1.43114 0
M  V30 6641 H 614.411 -2.76275 3.18198 0
M  V30 6642 H 613.135 -2.62198 1.9473 0
M  V30 6643 H 611.794 -1.14273 3.48335 0
M  V30 6644 H 611.442 -3.61877 3.49362 0
M  V30 6645 H 611.142 -2.91453 5.10224 0
M  V30 6646 H 612.666 -3.79171 4.78604 0
M  V30 6647 H 614.08 -1.63383 5.49526 0
M  V30 6648 H 612.477 -0.967876 5.92243 0
M  V30 6649 H 613.547 -0.0484569 4.84876 0
M  V30 6650 N 614.89 -1.56749 -0.16351 0
M  V30 6651 C 615.82 -2.00042 -1.20438 0
M  V30 6652 C 616.801 -0.877256 -1.45733 0
M  V30 6653 O 617.986 -1.1439 -1.56935 0
M  V30 6654 C 615.116 -2.36697 -2.54149 0
M  V30 6655 C 614.07 -3.52046 -2.43408 0
M  V30 6656 C 613.396 -3.74466 -3.81679 0
M  V30 6657 C 614.696 -4.85247 -1.93216 0
M  V30 6658 H 616.39 -2.87244 -0.844477 0
M  V30 6659 H 613.936 -1.38194 -0.40478 0
M  V30 6660 H 615.889 -2.65582 -3.27176 0
M  V30 6661 H 614.613 -1.46414 -2.91943 0
M  V30 6662 H 613.272 -3.23301 -1.72834 0
M  V30 6663 H 612.92 -2.81461 -4.1688 0
M  V30 6664 H 612.62 -4.52084 -3.75359 0
M  V30 6665 H 614.144 -4.0576 -4.5628 0
M  V30 6666 H 615.558 -5.12957 -2.56023 0
M  V30 6667 H 613.955 -5.66556 -1.97825 0
M  V30 6668 H 615.025 -4.7672 -0.88689 0
M  V30 6669 N 616.368 0.432326 -1.51554 0
M  V30 6670 C 617.784 0.769195 -1.39841 0
M  V30 6671 C 617.984 1.95584 -0.484675 0
M  V30 6672 O 617.04 2.52433 0.0582829 0
M  V30 6673 C 618.353 1.04487 -2.81963 0
M  V30 6674 C 619.901 1.149 -2.91148 0
M  V30 6675 C 620.376 1.45758 -4.34187 0
M  V30 6676 N 621.867 1.52671 -4.37317 0
M  V30 6677 C 622.602 1.78129 -5.4503 0
M  V30 6678 N 622.098 2.01345 -6.62897 0
M  V30 6679 N 623.891 1.79953 -5.32516 0
M  V30 6680 H 616.042 -0.349122 -2.09511 0
M  V30 6681 H 618.305 -0.0938113 -0.943347 0
M  V30 6682 H 618.011 0.24557 -3.50842 0
M  V30 6683 H 617.885 1.97119 -3.21596 0
M  V30 6684 H 620.272 1.93891 -2.22464 0
M  V30 6685 H 620.353 0.201568 -2.55005 0
M  V30 6686 H 619.997 0.672917 -5.03423 0
M  V30 6687 H 619.927 2.41715 -4.67848 0
M  V30 6688 H 622.418 1.36612 -3.52343 0
M  V30 6689 H 622.731 2.20155 -7.40778 0
M  V30 6690 H 621.076 1.98657 -6.66003 0
M  V30 6691 H 624.267 1.61337 -4.39418 0
M  V30 6692 H 624.44 1.99455 -6.1654 0
M  V30 6693 N 617.846 1.41785 0.688094 0
M  V30 6694 C 618.779 1.38643 1.81255 0
M  V30 6695 C 619.757 0.252583 1.60626 0
M  V30 6696 O 620.941 0.440691 1.83276 0
M  V30 6697 C 618.068 1.16449 3.18053 0
M  V30 6698 C 617.114 2.32651 3.57457 0
M  V30 6699 S 617.947 3.95152 3.61407 0
M  V30 6700 C 619.103 3.75275 5.00919 0
M  V30 6701 H 619.336 2.33799 1.83644 0
M  V30 6702 H 616.869 1.28398 0.857513 0
M  V30 6703 H 618.827 1.0433 3.97021 0
M  V30 6704 H 617.488 0.229002 3.13264 0
M  V30 6705 H 616.681 2.12835 4.56856 0
M  V30 6706 H 616.283 2.41215 2.85817 0
M  V30 6707 H 618.575 3.35443 5.88629 0
M  V30 6708 H 619.518 4.74302 5.25778 0
M  V30 6709 H 619.926 3.08401 4.7281 0
M  V30 6710 N 619.324 -0.923095 1.27737 0
M  V30 6711 C 620.549 -1.71054 1.17283 0
M  V30 6712 C 620.974 -1.86208 -0.266153 0
M  V30 6713 O 620.332 -1.36545 -1.1927 0
M  V30 6714 C 620.38 -3.0854 1.86642 0
M  V30 6715 O 619.484 -3.95528 1.16752 0
M  V30 6716 H 618.825 -0.524136 0.407649 0
M  V30 6717 H 621.355 -1.15487 1.6889 0
M  V30 6718 H 621.365 -3.58828 1.94182 0
M  V30 6719 H 620.04 -2.96828 2.91317 0
M  V30 6720 H 618.617 -3.53967 1.17312 0
M  V30 6721 N 620.802 -1.09834 -1.13024 0
M  V30 6722 C 622.027 -0.85909 -1.88771 0
M  V30 6723 C 622.452 0.584402 -1.78791 0
M  V30 6724 O 621.81 1.41101 -1.13842 0
M  V30 6725 C 621.858 -1.30427 -3.36186 0
M  V30 6726 O 620.962 -0.465368 -4.09766 0
M  V30 6727 H 620.303 -0.310786 -0.586778 0
M  V30 6728 H 622.833 -1.46355 -1.42973 0
M  V30 6729 H 622.843 -1.2915 -3.8702 0
M  V30 6730 H 621.518 -2.3555 -3.42767 0
M  V30 6731 H 620.095 -0.542814 -3.68928 0
M  V30 6732 N 622.28 1.30327 -0.886154 0
M  V30 6733 C 623.508 2.00254 -0.520176 0
M  V30 6734 C 623.923 1.66419 0.891637 0
M  V30 6735 O 623.28 0.901951 1.58654 0
M  V30 6736 C 623.331 3.54916 -0.686775 0
M  V30 6737 O 623.052 3.87547 -2.04301 0
M  V30 6738 C 624.553 4.42115 -0.323945 0
M  V30 6739 H 621.773 0.640204 -0.200947 0
M  V30 6740 H 624.317 1.66183 -1.19178 0
M  V30 6741 H 622.472 3.8735 -0.0625273 0
M  V30 6742 H 622.886 4.82247 -2.06249 0
M  V30 6743 H 624.36 5.49808 -0.491407 0
M  V30 6744 H 624.837 4.32953 0.73811 0
M  V30 6745 H 625.443 4.15129 -0.924565 0
M  V30 6746 N 623.758 0.647228 1.43697 0
M  V30 6747 C 624.986 0.16575 2.06235 0
M  V30 6748 C 625.401 -1.1662 1.48476 0
M  V30 6749 O 624.758 -1.7187 0.613762 0
M  V30 6750 C 624.809 0.0621651 3.61447 0
M  V30 6751 O 624.53 1.34146 4.17057 0
M  V30 6752 C 626.031 -0.446102 4.4105 0
M  V30 6753 H 623.251 0.0871158 0.665321 0
M  V30 6754 H 625.795 0.886183 1.84301 0
M  V30 6755 H 623.95 -0.608794 3.82587 0
M  V30 6756 H 624.364 1.19675 5.10664 0
M  V30 6757 H 625.838 -0.46755 5.50016 0
M  V30 6758 H 626.315 -1.47627 4.13646 0
M  V30 6759 H 626.921 0.192159 4.24866 0
M  V30 6760 N 625.236 -1.5273 0.388769 0
M  V30 6761 C 626.461 -2.0647 -0.19621 0
M  V30 6762 C 626.886 -1.25865 -1.39784 0
M  V30 6763 O 626.244 -0.283562 -1.79069 0
M  V30 6764 C 626.292 -3.56456 -0.5451 0
M  V30 6765 O 625.396 -3.78426 -1.63912 0
M  V30 6766 H 624.737 -0.663599 -0.023067 0
M  V30 6767 H 627.267 -1.96898 0.556084 0
M  V30 6768 H 627.277 -3.99888 -0.809557 0
M  V30 6769 H 625.952 -4.14561 0.333417 0
M  V30 6770 H 624.529 -3.46884 -1.36842 0
M  V30 6771 N 626.714 -0.118576 -1.57153 0
M  V30 6772 C 627.624 0.845484 -2.18835 0
M  V30 6773 C 628.64 1.29299 -1.16438 0
M  V30 6774 O 629.816 1.35607 -1.48905 0
M  V30 6775 C 626.881 2.07795 -2.77529 0
M  V30 6776 C 625.942 1.6824 -3.9496 0
M  V30 6777 C 625.175 2.85612 -4.50845 0
M  V30 6778 O 625.398 4.01025 -4.05629 0
M  V30 6779 O 624.332 2.62721 -5.41536 0
M  V30 6780 H 628.158 0.350568 -3.0167 0
M  V30 6781 H 625.743 0.107013 -1.49016 0
M  V30 6782 H 627.625 2.79978 -3.14945 0
M  V30 6783 H 626.3 2.56294 -1.97725 0
M  V30 6784 H 625.207 0.931663 -3.62313 0
M  V30 6785 H 626.54 1.24484 -4.76198 0
M  V30 6786 N 628.193 1.56834 0.155195 0
M  V30 6787 C 629.14 1.97646 1.19184 0
M  V30 6788 C 630.11 0.842788 1.4313 0
M  V30 6789 O 631.295 1.1042 1.55602 0
M  V30 6790 C 628.435 2.35527 2.52232 0
M  V30 6791 C 627.548 3.62147 2.35529 0
M  V30 6792 C 626.683 3.89167 3.61555 0
M  V30 6793 C 625.722 5.09084 3.39853 0
M  V30 6794 N 624.859 5.32156 4.5799 0
M  V30 6795 H 629.699 2.8601 0.836802 0
M  V30 6796 H 627.236 1.41507 0.401758 0
M  V30 6797 H 629.194 2.55516 3.29799 0
M  V30 6798 H 627.824 1.50253 2.85699 0
M  V30 6799 H 626.876 3.4998 1.49057 0
M  V30 6800 H 628.188 4.49871 2.15448 0
M  V30 6801 H 627.342 4.09611 4.47553 0
M  V30 6802 H 626.081 2.9985 3.84632 0
M  V30 6803 H 625.086 4.88522 2.52243 0
M  V30 6804 H 626.311 5.99947 3.18183 0
M  V30 6805 H 624.257 4.45791 4.81255 0
M  V30 6806 H 624.174 6.14133 4.40882 0
M  V30 6807 H 625.442 5.57091 5.45225 0
M  V30 6808 N 629.671 -0.424282 1.51781 0
M  V30 6809 C 630.634 -1.49848 1.73431 0
M  V30 6810 C 631.634 -1.49016 0.604225 0
M  V30 6811 O 632.824 -1.50808 0.871935 0
M  V30 6812 C 629.956 -2.89332 1.80277 0
M  V30 6813 H 631.149 -1.3195 2.69312 0
M  V30 6814 H 628.702 -0.653809 1.41968 0
M  V30 6815 H 629.437 -3.12618 0.862568 0
M  V30 6816 H 629.222 -2.9134 2.62419 0
M  V30 6817 H 630.712 -3.67233 1.98821 0
M  V30 6818 N 631.149 -1.42148 -0.680565 0
M  V30 6819 C 632.379 -1.45485 -1.46689 0
M  V30 6820 C 632.787 -0.0629451 -1.89095 0
M  V30 6821 O 632.13 0.931397 -1.58337 0
M  V30 6822 C 632.192 -2.31397 -2.75129 0
M  V30 6823 C 631.856 -3.79353 -2.54834 0
M  V30 6824 C 632.853 -4.71148 -2.19808 0
M  V30 6825 C 630.538 -4.23557 -2.70008 0
M  V30 6826 C 632.532 -6.05139 -2.00215 0
M  V30 6827 C 630.219 -5.57609 -2.50031 0
M  V30 6828 C 631.217 -6.48216 -2.15187 0
M  V30 6829 O 630.905 -7.79792 -1.95397 0
M  V30 6830 H 630.637 -0.497139 -0.458071 0
M  V30 6831 H 633.191 -1.87252 -0.844139 0
M  V30 6832 H 631.421 -1.84468 -3.39865 0
M  V30 6833 H 633.11 -2.26257 -3.36991 0
M  V30 6834 H 633.876 -4.38282 -2.07686 0
M  V30 6835 H 629.755 -3.53327 -2.96109 0
M  V30 6836 H 633.299 -6.75823 -1.72941 0
M  V30 6837 H 629.196 -5.9005 -2.61748 0
M  V30 6838 H 629.964 -7.91091 -2.10042 0
M  V30 6839 N 632.627 0.916307 -1.28225 0
M  V30 6840 C 633.852 1.7043 -1.18188 0
M  V30 6841 C 634.277 1.86346 0.256274 0
M  V30 6842 O 633.635 1.37175 1.18544 0
M  V30 6843 C 633.683 3.07546 -1.88275 0
M  V30 6844 O 632.787 3.94904 -1.18848 0
M  V30 6845 H 632.128 0.521967 -0.410423 0
M  V30 6846 H 634.658 1.14589 -1.69501 0
M  V30 6847 H 634.668 3.57793 -1.96082 0
M  V30 6848 H 633.343 2.95279 -2.92887 0
M  V30 6849 H 631.92 3.53339 -1.19187 0
M  V30 6850 N 634.105 1.10431 1.1244 0
M  V30 6851 C 635.035 0.775143 2.20258 0
M  V30 6852 C 636.016 -0.25186 1.68225 0
M  V30 6853 O 637.201 -0.117637 1.93843 0
M  V30 6854 C 634.331 0.206133 3.46688 0
M  V30 6855 C 633.285 1.16382 4.11873 0
M  V30 6856 C 632.611 0.456014 5.32752 0
M  V30 6857 C 633.911 2.5104 4.58013 0
M  V30 6858 H 635.605 1.67665 2.4805 0
M  V30 6859 H 633.151 0.807595 1.19222 0
M  V30 6860 H 635.104 -0.036291 4.21384 0
M  V30 6861 H 633.828 -0.730614 3.18323 0
M  V30 6862 H 632.487 1.39169 3.39157 0
M  V30 6863 H 632.135 -0.485203 5.00654 0
M  V30 6864 H 631.835 1.09466 5.77314 0
M  V30 6865 H 633.359 0.222135 6.10196 0
M  V30 6866 H 634.773 2.32401 5.24083 0
M  V30 6867 H 633.17 3.10789 5.13352 0
M  V30 6868 H 634.24 3.11039 3.71998 0
M  V30 6869 N 635.583 -1.29855 0.893053 0
M  V30 6870 C 636.831 -1.9544 0.514566 0
M  V30 6871 C 637.152 -1.70795 -0.940959 0
M  V30 6872 O 636.422 -1.03601 -1.66264 0
M  V30 6873 H 635.002 -0.723137 0.187302 0
M  V30 6874 H 637.664 -1.58234 1.13789 0
M  V30 6875 H 636.76 -3.04341 0.691581 0
M  V30 6876 N 637.061 -0.65484 -1.43351 0
M  V30 6877 C 638.338 -0.0987371 -1.95351 0
M  V30 6878 C 638.718 1.38161 -1.59608 0
M  V30 6879 O 638.066 2.10791 -0.882021 0
M  V30 6880 C 638.276 -0.346684 -3.47274 0
M  V30 6881 C 639.624 -0.25249 -4.23849 0
M  V30 6882 O 640.648 -0.279332 -3.55103 0
M  V30 6883 O 639.507 -0.177584 -5.46211 0
M  V30 6884 H 636.601 0.0086829 -0.826954 0
M  V30 6885 H 639.147 -0.728189 -1.53282 0
M  V30 6886 H 637.919 -1.37296 -3.66423 0
M  V30 6887 H 637.542 0.315757 -3.96344 0
M  V30 6888 N 638.539 1.52521 -0.396863 0
M  V30 6889 C 639.469 2.29582 0.425941 0
M  V30 6890 C 640.45 1.33281 1.05689 0
M  V30 6891 O 641.635 1.62181 1.06823 0
M  V30 6892 C 638.765 3.10821 1.54943 0
M  V30 6893 C 637.719 4.15069 1.04413 0
M  V30 6894 C 637.045 4.84578 2.26028 0
M  V30 6895 C 638.345 5.22191 0.106767 0
M  V30 6896 H 640.039 2.98612 -0.217045 0
M  V30 6897 H 637.585 1.43611 -0.105826 0
M  V30 6898 H 639.538 3.63492 2.13193 0
M  V30 6899 H 638.262 2.39538 2.22011 0
M  V30 6900 H 636.921 3.63389 0.484118 0
M  V30 6901 H 636.569 4.09835 2.91623 0
M  V30 6902 H 636.269 5.55043 1.92876 0
M  V30 6903 H 637.793 5.40056 2.84906 0
M  V30 6904 H 639.207 5.70176 0.597685 0
M  V30 6905 H 637.604 5.99947 -0.135352 0
M  V30 6906 H 638.674 4.77531 -0.842134 0
M  V30 6907 N 640.017 0.126909 1.57088 0
M  V30 6908 C 641.428 -0.397201 1.82426 0
M  V30 6909 C 641.779 -1.66084 1.04453 0
M  V30 6910 O 640.904 -2.14534 0.283552 0
M  V30 6911 C 641.499 -0.727411 3.30899 0
M  V30 6912 C 640.058 -1.19612 3.56889 0
M  V30 6913 C 639.205 -0.20885 2.76512 0
M  V30 6914 H 642.156 0.351924 1.54749 0
M  V30 6915 H 642.177 -1.58407 3.45959 0
M  V30 6916 H 641.689 0.19247 3.87622 0
M  V30 6917 H 639.79 -2.13263 3.05532 0
M  V30 6918 H 639.903 -1.13598 4.65438 0
M  V30 6919 H 638.267 -0.697479 2.44964 0
M  V30 6920 H 639.05 0.704267 3.35998 0
M  V30 6921 N 641.495 -1.56914 -0.146875 0
M  V30 6922 C 642.428 -1.93425 -1.21087 0
M  V30 6923 C 643.406 -0.800106 -1.41552 0
M  V30 6924 O 644.59 -1.05572 -1.56162 0
M  V30 6925 C 641.717 -2.20639 -2.56975 0
M  V30 6926 C 640.763 -3.43279 -2.53104 0
M  V30 6927 S 641.596 -4.96836 -1.99786 0
M  V30 6928 C 642.752 -5.27172 -3.37403 0
M  V30 6929 H 642.985 -2.8337 -0.899378 0
M  V30 6930 H 640.518 -1.50322 -0.352494 0
M  V30 6931 H 642.476 -2.36998 -3.35175 0
M  V30 6932 H 641.137 -1.31357 -2.85314 0
M  V30 6933 H 640.33 -3.59599 -3.53136 0
M  V30 6934 H 639.932 -3.26163 -1.83012 0
M  V30 6935 H 642.224 -5.20647 -4.33513 0
M  V30 6936 H 643.167 -6.28626 -3.25937 0
M  V30 6937 H 643.575 -4.54687 -3.34544 0
M  V30 6938 N 642.974 0.416227 -1.52004 0
M  V30 6939 C 643.921 1.50666 -1.74838 0
M  V30 6940 C 644.891 1.55245 -0.590599 0
M  V30 6941 O 646.076 1.71928 -0.827374 0
M  V30 6942 C 643.216 2.88185 -1.89851 0
M  V30 6943 C 642.329 2.92971 -3.17478 0
M  V30 6944 C 641.464 4.21745 -3.22962 0
M  V30 6945 C 640.503 4.20478 -4.4482 0
M  V30 6946 N 639.64 5.40811 -4.47736 0
M  V30 6947 H 644.48 1.30498 -2.67907 0
M  V30 6948 H 642.017 0.633568 -1.32757 0
M  V30 6949 H 643.975 3.68007 -1.96537 0
M  V30 6950 H 642.605 3.06865 -1.00169 0
M  V30 6951 H 641.657 2.05684 -3.19997 0
M  V30 6952 H 642.969 2.87899 -4.07328 0
M  V30 6953 H 642.123 5.09954 -3.28682 0
M  V30 6954 H 640.862 4.29503 -2.31038 0
M  V30 6955 H 639.867 3.30659 -4.39254 0
M  V30 6956 H 641.092 4.14366 -5.38031 0
M  V30 6957 H 639.038 5.4925 -3.58692 0
M  V30 6958 H 638.955 5.37705 -5.31422 0
M  V30 6959 H 640.223 6.30993 -4.57676 0
M  V30 6960 N 644.452 1.42507 0.673017 0
M  V30 6961 C 645.382 1.48916 1.79851 0
M  V30 6962 C 646.363 0.345566 1.66553 0
M  V30 6963 O 647.548 0.560116 1.85947 0
M  V30 6964 C 644.678 1.39258 3.18158 0
M  V30 6965 C 643.632 2.51662 3.46194 0
M  V30 6966 C 642.958 2.27062 4.84094 0
M  V30 6967 C 644.258 3.93968 3.42909 0
M  V30 6968 H 645.952 2.43114 1.74745 0
M  V30 6969 H 643.498 1.17013 0.839288 0
M  V30 6970 H 645.451 1.42349 3.96629 0
M  V30 6971 H 644.175 0.415542 3.23946 0
M  V30 6972 H 642.834 2.47891 2.70084 0
M  V30 6973 H 642.482 1.27648 4.86534 0
M  V30 6974 H 642.182 3.02398 5.03815 0
M  V30 6975 H 643.706 2.31905 5.64847 0
M  V30 6976 H 645.12 3.99332 4.11347 0
M  V30 6977 H 643.517 4.6917 3.74165 0
M  V30 6978 H 644.587 4.20512 2.41449 0
M  V30 6979 N 645.93 -0.909495 1.28709 0
M  V30 6980 C 646.862 -2.01729 1.08804 0
M  V30 6981 C 647.875 -1.62755 0.0384739 0
M  V30 6982 O 649.064 -1.76259 0.281977 0
M  V30 6983 C 646.164 -3.32952 0.63217 0
M  V30 6984 C 645.337 -4.00512 1.75809 0
M  V30 6985 C 644.396 -5.10019 1.29488 0
M  V30 6986 O 643.422 -5.32986 1.99787 0
M  V30 6987 N 644.624 -5.80278 0.1604 0
M  V30 6988 H 647.389 -2.19362 2.04207 0
M  V30 6989 H 644.95 -1.08106 1.20518 0
M  V30 6990 H 646.942 -4.03543 0.305802 0
M  V30 6991 H 645.512 -3.11759 -0.229134 0
M  V30 6992 H 644.732 -3.23413 2.25383 0
M  V30 6993 H 646.02 -4.42395 2.51325 0
M  V30 6994 H 645.418 -5.64094 -0.425937 0
M  V30 6995 H 643.975 -6.51713 -0.106663 0
M  V30 6996 N 647.408 -1.11026 -1.11852 0
M  V30 6997 C 648.824 -0.843294 -1.35502 0
M  V30 6998 C 649.024 0.534179 -1.9429 0
M  V30 6999 O 648.08 1.28585 -2.17307 0
M  V30 7000 C 649.393 -1.94793 -2.29077 0
M  V30 7001 C 650.941 -1.97709 -2.42652 0
M  V30 7002 C 651.416 -3.07364 -3.39546 0
M  V30 7003 N 652.907 -3.0671 -3.47107 0
M  V30 7004 C 653.642 -3.88197 -4.22008 0
M  V30 7005 N 653.138 -4.79635 -4.99922 0
M  V30 7006 N 654.931 -3.76391 -4.17476 0
M  V30 7007 H 647.082 -1.99805 -0.720538 0
M  V30 7008 H 649.345 -0.868633 -0.379711 0
M  V30 7009 H 649.051 -2.93971 -1.93065 0
M  V30 7010 H 648.925 -1.84039 -3.29256 0
M  V30 7011 H 651.312 -0.991604 -2.77941 0
M  V30 7012 H 651.393 -2.1254 -1.4234 0
M  V30 7013 H 651.037 -4.06136 -3.04985 0
M  V30 7014 H 650.967 -2.89774 -4.39703 0
M  V30 7015 H 653.458 -2.40457 -2.91528 0
M  V30 7016 H 653.771 -5.38357 -5.54429 0
M  V30 7017 H 652.116 -4.8366 -4.99097 0
M  V30 7018 H 655.307 -3.04303 -3.55693 0
M  V30 7019 H 655.48 -4.40131 -4.75593 0
M  V30 7020 N 648.886 1.2938 -0.899927 0
M  V30 7021 C 650.135 1.9483 -0.521937 0
M  V30 7022 C 650.448 1.71725 0.936473 0
M  V30 7023 O 651.654 2.31282 1.42199 0
M  V30 7024 C 650.11 3.48911 -0.88255 0
M  V30 7025 C 649.718 3.80815 -2.35974 0
M  V30 7026 C 651.462 4.20595 -0.57448 0
M  V30 7027 C 649.369 5.28142 -2.66121 0
M  V30 7028 H 648.299 0.729285 -0.191468 0
M  V30 7029 H 650.95 1.47103 -1.09695 0
M  V30 7030 H 649.332 3.95293 -0.236459 0
M  V30 7031 H 650.506 3.45291 -3.05141 0
M  V30 7032 H 648.821 3.22271 -2.63686 0
M  V30 7033 H 651.418 5.29031 -0.776556 0
M  V30 7034 H 651.761 4.13442 0.487005 0
M  V30 7035 H 652.294 3.79945 -1.17842 0
M  V30 7036 H 649.033 5.4036 -3.71068 0
M  V30 7037 H 648.553 5.64913 -2.01578 0
M  V30 7038 H 650.232 5.95738 -2.52399 0
M  V30 7039 N 650.364 0.662433 1.43002 0
M  V30 7040 C 651.589 0.186003 2.06564 0
M  V30 7041 C 652.014 -1.14314 1.49379 0
M  V30 7042 O 651.372 -1.70824 0.607346 0
M  V30 7043 C 651.42 0.118269 3.60406 0
M  V30 7044 O 650.524 -0.916859 4.02079 0
M  V30 7045 H 649.865 0.0990981 0.656563 0
M  V30 7046 H 652.395 0.907958 1.8335 0
M  V30 7047 H 652.405 -0.0619981 4.07953 0
M  V30 7048 H 651.08 1.08849 4.01403 0
M  V30 7049 H 649.657 -0.708635 3.66105 0
M  V30 7050 N 651.842 -1.52309 0.404946 0
M  V30 7051 C 653.067 -2.06666 -0.1743 0
M  V30 7052 C 653.492 -1.27341 -1.38441 0
M  V30 7053 O 652.85 -0.302539 -1.78758 0
M  V30 7054 C 652.898 -3.57014 -0.507262 0
M  V30 7055 O 652.002 -3.80144 -1.59889 0
M  V30 7056 H 651.343 -0.663807 -0.0160273 0
M  V30 7057 H 653.873 -1.96297 0.576937 0
M  V30 7058 H 653.883 -4.00724 -0.767098 0
M  V30 7059 H 652.558 -4.14184 0.377368 0
M  V30 7060 H 651.135 -3.48316 -1.33155 0
M  V30 7061 N 653.32 -0.135238 -1.57019 0
M  V30 7062 C 654.566 0.519563 -1.96032 0
M  V30 7063 C 654.899 1.65284 -1.01955 0
M  V30 7064 O 654.174 1.94408 -0.059727 0
M  V30 7065 C 654.457 1.0369 -3.44848 0
M  V30 7066 C 654.31 -0.0940754 -4.49702 0
M  V30 7067 C 655.629 1.92254 -3.95887 0
M  V30 7068 H 652.748 0.18739 -0.712779 0
M  V30 7069 H 655.39 -0.214086 -1.8879 0
M  V30 7070 H 653.54 1.66209 -3.5115 0
M  V30 7071 H 655.212 -0.73 -4.55487 0
M  V30 7072 H 653.455 -0.754924 -4.27181 0
M  V30 7073 H 654.126 0.309419 -5.51132 0
M  V30 7074 H 656.602 1.39581 -3.9199 0
M  V30 7075 H 655.478 2.25364 -5.00502 0
M  V30 7076 H 655.739 2.85513 -3.37543 0
M  V30 7077 N 654.798 1.5699 0.138552 0
M  V30 7078 C 656.209 1.73171 0.697754 0
M  V30 7079 C 656.56 0.750952 1.8126 0
M  V30 7080 O 655.685 -0.080549 2.1625 0
M  V30 7081 C 656.28 3.13996 1.27248 0
M  V30 7082 C 654.839 3.3175 1.77816 0
M  V30 7083 C 653.986 2.69084 0.669991 0
M  V30 7084 H 656.937 1.5846 -0.0871979 0
M  V30 7085 H 656.958 3.14463 2.14227 0
M  V30 7086 H 656.47 3.85354 0.460855 0
M  V30 7087 H 654.571 2.65403 2.61519 0
M  V30 7088 H 654.684 4.39768 1.90107 0
M  V30 7089 H 653.048 2.29782 1.09874 0
M  V30 7090 H 653.831 3.43053 -0.130329 0
M  V30 7091 N 656.276 -0.40816 1.52223 0
M  V30 7092 C 657.524 -1.15274 1.66001 0
M  V30 7093 C 657.845 -1.91003 0.392803 0
M  V30 7094 O 657.115 -1.8673 -0.592336 0
M  V30 7095 H 655.695 -0.428526 0.611861 0
M  V30 7096 H 658.357 -0.46512 1.89269 0
M  V30 7097 H 657.453 -1.86628 2.50153 0
M  V30 7098 N 657.755 -1.42862 -0.66545 0
M  V30 7099 C 658.703 -1.47319 -1.8 0
M  V30 7100 C 659.697 -0.347963 -1.65788 0
M  V30 7101 O 660.903 -0.521406 -1.72283 0
M  V30 7102 H 657.278 -0.461588 -0.593667 0
M  V30 7103 H 659.249 -2.42876 -1.7336 0
M  V30 7104 C 657.998 -1.40152 -3.18203 0
M  V30 7105 H 657.321 -2.26035 -3.2977 0
M  V30 7106 H 658.761 -1.47331 -3.9758 0
M  V30 7107 C 657.22 -0.117493 -3.36695 0
M  V30 7108 O 657.75 0.826058 -3.93115 0
M  V30 7109 N 655.956 -0.0316218 -2.90583 0
M  V30 7110 H 655.503 -0.800247 -2.44855 0
M  V30 7111 H 655.461 0.826835 -3.03333 0
M  V30 7112 N 659.233 0.902656 -1.29189 0
M  V30 7113 C 660.458 1.69167 -1.19989 0
M  V30 7114 C 660.883 1.86607 0.236495 0
M  V30 7115 O 660.241 1.38425 1.17082 0
M  V30 7116 C 660.289 3.05532 -1.91527 0
M  V30 7117 O 659.393 3.93621 -1.2303 0
M  V30 7118 H 658.734 0.517584 -0.415936 0
M  V30 7119 H 661.264 1.12785 -1.70706 0
M  V30 7120 H 661.274 3.55693 -1.99866 0
M  V30 7121 H 659.949 2.92156 -2.96003 0
M  V30 7122 H 658.526 3.52055 -1.22928 0
M  V30 7123 N 660.711 1.11618 1.11262 0
M  V30 7124 C 661.621 0.78898 2.20935 0
M  V30 7125 C 662.637 -0.21867 1.7262 0
M  V30 7126 O 663.813 -0.0543826 2.01327 0
M  V30 7127 C 660.878 0.239014 3.45875 0
M  V30 7128 C 659.939 1.3055 4.08968 0
M  V30 7129 C 659.172 0.781687 5.27944 0
M  V30 7130 O 659.395 -0.387605 5.69082 0
M  V30 7131 O 658.329 1.54734 5.81671 0
M  V30 7132 H 662.155 1.70477 2.51339 0
M  V30 7133 H 659.74 0.892203 1.19834 0
M  V30 7134 H 661.622 -0.0632312 4.21353 0
M  V30 7135 H 660.297 -0.649454 3.17118 0
M  V30 7136 H 659.204 1.66079 3.35214 0
M  V30 7137 H 660.537 2.16743 4.41909 0
M  V30 7138 N 662.189 -1.289 0.906776 0
M  V30 7139 C 663.099 -2.31256 0.394707 0
M  V30 7140 C 664.115 -1.66231 -0.514121 0
M  V30 7141 O 665.291 -1.97347 -0.401994 0
M  V30 7142 C 662.356 -3.44792 -0.363191 0
M  V30 7143 C 661.417 -4.25391 0.578012 0
M  V30 7144 C 660.65 -5.33506 -0.143811 0
M  V30 7145 O 660.873 -5.53786 -1.36665 0
M  V30 7146 O 659.807 -5.99673 0.5173 0
M  V30 7147 H 663.633 -2.77051 1.24405 0
M  V30 7148 H 661.218 -1.33466 0.671346 0
M  V30 7149 H 663.1 -4.139 -0.791503 0
M  V30 7150 H 661.775 -3.01093 -1.18848 0
M  V30 7151 H 660.682 -3.58899 1.05558 0
M  V30 7152 H 662.015 -4.72752 1.36992 0
M  V30 7153 N 663.667 -0.670007 -1.42649 0
M  V30 7154 C 664.614 0.0112928 -2.30797 0
M  V30 7155 C 665.584 0.797627 -1.45695 0
M  V30 7156 O 666.769 0.770845 -1.74535 0
M  V30 7157 C 663.909 0.95998 -3.31479 0
M  V30 7158 C 663.022 0.167975 -4.31673 0
M  V30 7159 C 662.157 1.11198 -5.19431 0
M  V30 7160 C 661.196 0.311381 -6.11307 0
M  V30 7161 N 660.333 1.20784 -6.91633 0
M  V30 7162 H 665.173 -0.746231 -2.88505 0
M  V30 7163 H 662.71 -0.379739 -1.42114 0
M  V30 7164 H 664.668 1.52379 -3.88377 0
M  V30 7165 H 663.298 1.68419 -2.75382 0
M  V30 7166 H 662.35 -0.512385 -3.76933 0
M  V30 7167 H 663.662 -0.453814 -4.96731 0
M  V30 7168 H 662.816 1.74587 -5.81037 0
M  V30 7169 H 661.555 1.76766 -4.54538 0
M  V30 7170 H 660.56 -0.335758 -5.48774 0
M  V30 7171 H 661.785 -0.340135 -6.78248 0
M  V30 7172 H 659.731 1.85001 -6.29373 0
M  V30 7173 H 659.648 0.64102 -7.53277 0
M  V30 7174 H 660.916 1.82936 -7.5773 0
M  V30 7175 N 665.145 1.52092 -0.413018 0
M  V30 7176 C 666.075 2.30021 0.401567 0
M  V30 7177 C 667.056 1.34395 1.04269 0
M  V30 7178 O 668.241 1.63304 1.05097 0
M  V30 7179 C 665.371 3.12447 1.51638 0
M  V30 7180 C 664.325 4.16153 1.00005 0
M  V30 7181 C 663.651 4.86948 2.20875 0
M  V30 7182 C 664.951 5.22275 0.0513757 0
M  V30 7183 H 666.645 2.98365 -0.248704 0
M  V30 7184 H 664.191 1.4349 -0.121052 0
M  V30 7185 H 666.144 3.65733 2.09326 0
M  V30 7186 H 664.868 2.41879 2.19458 0
M  V30 7187 H 663.527 3.63882 0.445549 0
M  V30 7188 H 663.175 4.12905 2.8726 0
M  V30 7189 H 662.875 5.57057 1.86978 0
M  V30 7190 H 664.399 5.43048 2.79162 0
M  V30 7191 H 665.813 5.70778 0.537176 0
M  V30 7192 H 664.21 5.9977 -0.198977 0
M  V30 7193 H 665.28 4.76611 -0.892736 0
M  V30 7194 N 666.623 0.143563 1.56945 0
M  V30 7195 C 667.869 -0.50916 1.96304 0
M  V30 7196 C 668.202 -1.64741 1.0283 0
M  V30 7197 O 667.477 -1.94374 0.0700361 0
M  V30 7198 C 667.76 -1.0186 3.45393 0
M  V30 7199 C 667.613 0.117923 4.49645 0
M  V30 7200 C 668.932 -1.90151 3.96901 0
M  V30 7201 H 666.051 -0.183608 0.713763 0
M  V30 7202 H 668.693 0.224095 1.88674 0
M  V30 7203 H 666.843 -1.64345 3.52027 0
M  V30 7204 H 668.515 0.754145 4.55094 0
M  V30 7205 H 666.758 0.777568 4.26774 0
M  V30 7206 H 667.429 -0.280187 5.51288 0
M  V30 7207 H 669.905 -1.375 3.92725 0
M  V30 7208 H 668.781 -2.22707 5.0169 0
M  V30 7209 H 669.042 -2.83718 3.39052 0
M  V30 7210 N 668.101 -1.57061 -0.130224 0
M  V30 7211 C 669.326 -1.88802 -0.858409 0
M  V30 7212 C 669.751 -0.734353 -1.73173 0
M  V30 7213 O 669.109 0.315529 -1.78533 0
M  V30 7214 C 669.157 -3.19228 -1.67708 0
M  V30 7215 O 668.261 -3.04343 -2.78297 0
M  V30 7216 H 667.602 -0.619849 -0.238083 0
M  V30 7217 H 670.132 -2.04271 -0.115995 0
M  V30 7218 H 670.142 -3.51669 -2.06864 0
M  V30 7219 H 668.817 -4.02793 -1.0359 0
M  V30 7220 H 667.394 -2.83346 -2.42425 0
M  V30 7221 N 669.579 0.400081 -1.52437 0
M  V30 7222 C 670.526 1.48803 -1.76426 0
M  V30 7223 C 671.496 1.5461 -0.607032 0
M  V30 7224 O 672.681 1.71041 -0.845563 0
M  V30 7225 C 669.821 2.86156 -1.92896 0
M  V30 7226 C 668.934 2.89587 -3.20567 0
M  V30 7227 C 668.069 4.18296 -3.27417 0
M  V30 7228 C 667.108 4.15736 -4.49255 0
M  V30 7229 N 666.245 5.36032 -4.53447 0
M  V30 7230 H 671.085 1.27649 -2.69276 0
M  V30 7231 H 668.622 0.619451 -1.33421 0
M  V30 7232 H 670.58 3.65901 -2.00429 0
M  V30 7233 H 669.21 3.05785 -1.03418 0
M  V30 7234 H 668.262 2.02278 -3.22161 0
M  V30 7235 H 669.574 2.83562 -4.10358 0
M  V30 7236 H 668.728 5.06439 -3.34072 0
M  V30 7237 H 667.467 4.27028 -2.35581 0
M  V30 7238 H 666.472 3.25982 -4.42737 0
M  V30 7239 H 667.697 4.08636 -5.42396 0
M  V30 7240 H 665.643 5.45415 -3.64498 0
M  V30 7241 H 665.56 5.32038 -5.37096 0
M  V30 7242 H 666.828 6.26104 -4.64343 0
M  V30 7243 N 671.057 1.43213 0.657864 0
M  V30 7244 C 672.285 1.48015 1.44566 0
M  V30 7245 C 672.7 0.0965951 1.88553 0
M  V30 7246 O 672.057 -0.892221 1.59203 0
M  V30 7247 C 672.108 2.42199 2.68369 0
M  V30 7248 O 671.829 3.75173 2.26223 0
M  V30 7249 C 673.33 2.56195 3.61772 0
M  V30 7250 H 670.55 0.502861 0.444266 0
M  V30 7251 H 673.094 1.87907 0.806917 0
M  V30 7252 H 671.249 2.05514 3.28394 0
M  V30 7253 H 671.663 4.25776 3.06293 0
M  V30 7254 H 673.137 3.26182 4.4532 0
M  V30 7255 H 673.614 1.60534 4.0881 0
M  V30 7256 H 674.22 2.93671 3.07632 0
M  V30 7257 N 672.536 -0.895792 1.29666 0
M  V30 7258 C 673.764 -1.68001 1.20761 0
M  V30 7259 C 674.179 -1.87379 -0.231187 0
M  V30 7260 O 673.536 -1.41359 -1.15429 0
M  V30 7261 C 673.587 -3.06236 1.92098 0
M  V30 7262 O 673.308 -2.8774 3.30359 0
M  V30 7263 C 674.809 -4.00652 1.89717 0
M  V30 7264 H 672.029 -0.524591 0.418384 0
M  V30 7265 H 674.573 -1.11995 1.71106 0
M  V30 7266 H 672.728 -3.59007 1.45578 0
M  V30 7267 H 673.142 -3.75359 3.66342 0
M  V30 7268 H 674.616 -4.95051 2.44189 0
M  V30 7269 H 675.093 -4.30424 0.873595 0
M  V30 7270 H 675.699 -3.53815 2.35998 0
M  V30 7271 N 674.014 -1.12206 -1.10668 0
M  V30 7272 C 674.961 -0.787716 -2.16942 0
M  V30 7273 C 675.931 0.244442 -1.64291 0
M  V30 7274 O 677.116 0.119558 -1.90425 0
M  V30 7275 C 674.256 -0.24584 -3.44223 0
M  V30 7276 C 673.369 -1.33552 -4.10838 0
M  V30 7277 C 672.504 -0.753337 -5.25831 0
M  V30 7278 C 671.543 -1.82231 -5.84344 0
M  V30 7279 N 670.68 -1.25902 -6.90719 0
M  V30 7280 H 675.52 -1.69809 -2.44885 0
M  V30 7281 H 673.057 -0.847862 -1.20207 0
M  V30 7282 H 675.015 0.0863639 -4.17111 0
M  V30 7283 H 673.645 0.627702 -3.16638 0
M  V30 7284 H 672.697 -1.78454 -3.35944 0
M  V30 7285 H 674.009 -2.14396 -4.50373 0
M  V30 7286 H 673.163 -0.37166 -6.05561 0
M  V30 7287 H 671.902 0.0863297 -4.87624 0
M  V30 7288 H 670.907 -2.2132 -5.03287 0
M  V30 7289 H 672.132 -2.66515 -6.24617 0
M  V30 7290 H 670.078 -0.44114 -6.54515 0
M  V30 7291 H 669.995 -2.00408 -7.28953 0
M  V30 7292 H 671.263 -0.904498 -7.74235 0
M  V30 7293 N 675.492 1.28418 -0.913599 0
M  V30 7294 C 676.425 2.25557 -0.346328 0
M  V30 7295 C 677.403 1.53038 0.549366 0
M  V30 7296 O 678.587 1.81937 0.493055 0
M  V30 7297 C 675.714 3.34915 0.504961 0
M  V30 7298 C 674.76 4.25257 -0.325334 0
M  V30 7299 S 675.593 5.06718 -1.73198 0
M  V30 7300 C 676.749 6.19569 -0.887988 0
M  V30 7301 H 676.982 2.73325 -1.16965 0
M  V30 7302 H 674.515 1.36855 -0.714841 0
M  V30 7303 H 676.473 3.98376 0.990301 0
M  V30 7304 H 675.134 2.85814 1.30267 0
M  V30 7305 H 674.327 5.02947 0.325589 0
M  V30 7306 H 673.929 3.66519 -0.744321 0
M  V30 7307 H 676.221 6.77398 -0.117568 0
M  V30 7308 H 677.164 6.88908 -1.63742 0
M  V30 7309 H 677.572 5.62812 -0.436228 0
M  V30 7310 N 676.97 0.677563 1.42291 0
M  V30 7311 C 677.9 0.014968 2.33495 0
M  V30 7312 C 678.881 -0.786376 1.50831 0
M  V30 7313 O 680.066 -0.742975 1.79426 0
M  V30 7314 C 677.196 -0.935023 3.34477 0
M  V30 7315 C 676.15 -0.242074 4.27315 0
M  V30 7316 C 675.476 -1.30519 5.18526 0
M  V30 7317 C 676.776 0.880604 5.14823 0
M  V30 7318 H 678.47 0.776671 2.89151 0
M  V30 7319 H 676.016 0.37494 1.39033 0
M  V30 7320 H 677.969 -1.40766 3.97194 0
M  V30 7321 H 676.693 -1.72818 2.77131 0
M  V30 7322 H 675.352 0.210351 3.65996 0
M  V30 7323 H 675 -2.09041 4.57505 0
M  V30 7324 H 674.7 -0.846652 5.81468 0
M  V30 7325 H 676.224 -1.7787 5.84119 0
M  V30 7326 H 677.638 0.489062 5.7121 0
M  V30 7327 H 676.035 1.26511 5.86613 0
M  V30 7328 H 677.105 1.72818 4.53059 0
M  V30 7329 N 678.448 -1.51871 0.421078 0
M  V30 7330 C 679.673 -2.0684 -0.152371 0
M  V30 7331 C 680.098 -1.28802 -1.37083 0
M  V30 7332 O 679.456 -0.321482 -1.78427 0
M  V30 7333 C 679.504 -3.57532 -0.469368 0
M  V30 7334 O 678.608 -3.81818 -1.55848 0
M  V30 7335 H 677.949 -0.663939 -0.00898586 0
M  V30 7336 H 680.479 -1.95674 0.597724 0
M  V30 7337 H 680.489 -4.01515 -0.724553 0
M  V30 7338 H 679.164 -4.13761 0.421276 0
M  V30 7339 H 677.741 -3.49709 -1.29453 0
M  V30 7340 N 679.926 -0.151884 -1.56866 0
M  V30 7341 C 681.203 0.543328 -1.87902 0
M  V30 7342 C 681.583 1.82636 -1.05864 0
M  V30 7343 O 680.931 2.28028 -0.146868 0
M  V30 7344 C 681.141 0.804056 -3.39611 0
M  V30 7345 C 682.489 1.14267 -4.08935 0
M  V30 7346 O 683.513 0.893248 -3.44818 0
M  V30 7347 O 682.372 1.61229 -5.22176 0
M  V30 7348 H 679.466 0.277724 -0.778973 0
M  V30 7349 H 682.012 -0.188862 -1.68646 0
M  V30 7350 H 680.784 -0.103772 -3.91162 0
M  V30 7351 H 680.407 1.59025 -3.64413 0
M  V30 7352 N 681.404 1.57128 0.121893 0
M  V30 7353 C 682.815 1.73902 0.679348 0
M  V30 7354 C 683.166 0.770135 1.80453 0
M  V30 7355 O 682.291 -0.0576083 2.16323 0
M  V30 7356 C 682.886 3.15328 1.2391 0
M  V30 7357 C 681.445 3.33618 1.74288 0
M  V30 7358 C 680.592 2.6978 0.641414 0
M  V30 7359 H 683.543 1.58359 -0.104 0
M  V30 7360 H 683.564 3.16718 2.10879 0
M  V30 7361 H 683.076 3.85821 0.419957 0
M  V30 7362 H 681.177 2.68162 2.58689 0
M  V30 7363 H 681.29 4.4176 1.85432 0
M  V30 7364 H 679.654 2.30935 1.0743 0
M  V30 7365 H 680.437 3.42895 -0.166707 0
M  V30 7366 N 682.882 -0.391992 1.52647 0
M  V30 7367 C 683.815 -1.50019 1.71958 0
M  V30 7368 C 684.793 -1.5238 0.567365 0
M  V30 7369 O 685.977 -1.70831 0.796806 0
M  V30 7370 C 683.104 -2.88496 1.77447 0
M  V30 7371 C 682.15 -3.03974 2.99169 0
M  V30 7372 S 682.983 -2.75487 4.59203 0
M  V30 7373 C 684.139 -4.16163 4.67503 0
M  V30 7374 H 684.372 -1.33413 2.65685 0
M  V30 7375 H 681.905 -0.584674 1.42902 0
M  V30 7376 H 683.863 -3.68296 1.81296 0
M  V30 7377 H 682.524 -3.02431 0.848188 0
M  V30 7378 H 681.717 -4.05328 2.99542 0
M  V30 7379 H 681.319 -2.32062 2.93297 0
M  V30 7380 H 683.611 -5.10048 4.45934 0
M  V30 7381 H 684.554 -4.20806 5.69498 0
M  V30 7382 H 684.962 -4.01933 3.96371 0
M  V30 7383 N 684.36 -1.4356 -0.65026 0
M  V30 7384 C 685.585 -1.48995 -1.44275 0
M  V30 7385 C 686.01 -0.109954 -1.87778 0
M  V30 7386 O 685.368 0.896926 -1.57559 0
M  V30 7387 C 685.416 -2.44341 -2.65198 0
M  V30 7388 O 684.52 -1.93172 -3.6436 0
M  V30 7389 H 683.861 -0.503852 -0.432469 0
M  V30 7390 H 686.391 -1.88504 -0.795446 0
M  V30 7391 H 686.401 -2.61743 -3.12977 0
M  V30 7392 H 685.076 -3.44588 -2.32877 0
M  V30 7393 H 683.653 -1.85445 -3.23519 0
M  V30 7394 N 685.838 0.888903 -1.30139 0
M  V30 7395 C 686.77 1.99972 -1.11999 0
M  V30 7396 C 687.783 1.62673 -0.0643619 0
M  V30 7397 O 688.972 1.75788 -0.309983 0
M  V30 7398 C 686.072 3.31904 -0.685059 0
M  V30 7399 C 685.245 3.97665 -1.82158 0
M  V30 7400 C 684.304 5.07894 -1.37585 0
M  V30 7401 O 683.33 5.2974 -2.08241 0
M  V30 7402 N 684.532 5.7995 -0.252697 0
M  V30 7403 H 687.297 2.16085 -2.07671 0
M  V30 7404 H 684.858 1.06175 -1.22223 0
M  V30 7405 H 686.85 4.03005 -0.369964 0
M  V30 7406 H 685.42 3.12084 0.179507 0
M  V30 7407 H 684.64 3.19787 -2.305 0
M  V30 7408 H 685.928 4.3834 -2.58332 0
M  V30 7409 H 685.326 5.647 0.336141 0
M  V30 7410 H 683.883 6.518 0.00296813 0
M  V30 7411 N 687.317 1.12792 1.10072 0
M  V30 7412 C 688.542 0.908838 1.86427 0
M  V30 7413 C 688.967 -0.536793 1.80278 0
M  V30 7414 O 688.325 -1.38033 1.17543 0
M  V30 7415 C 688.373 1.39295 3.3261 0
M  V30 7416 O 687.477 0.573846 4.08388 0
M  V30 7417 H 686.818 0.326234 0.578331 0
M  V30 7418 H 689.348 1.50094 1.39043 0
M  V30 7419 H 689.358 1.39366 3.83459 0
M  V30 7420 H 688.033 2.44555 3.36401 0
M  V30 7421 H 686.61 0.640438 3.67359 0
M  V30 7422 N 688.795 -1.27931 0.920396 0
M  V30 7423 C 690.041 -1.94977 0.557832 0
M  V30 7424 C 690.374 -1.72224 -0.897365 0
M  V30 7425 O 689.649 -1.04705 -1.63912 0
M  V30 7426 C 689.932 -3.49289 0.875741 0
M  V30 7427 C 689.785 -3.81416 2.38416 0
M  V30 7428 C 691.104 -4.38486 0.376517 0
M  V30 7429 H 688.223 -0.708164 0.20414 0
M  V30 7430 H 690.865 -1.5118 1.15085 0
M  V30 7431 H 689.015 -3.86724 0.371062 0
M  V30 7432 H 690.687 -3.53813 2.95997 0
M  V30 7433 H 688.93 -3.28225 2.83639 0
M  V30 7434 H 689.601 -4.89198 2.55713 0
M  V30 7435 H 692.077 -4.08161 0.808945 0
M  V30 7436 H 690.953 -5.45296 0.627976 0
M  V30 7437 H 691.214 -4.36143 -0.723293 0
M  V30 7438 N 690.273 -0.685099 -1.4193 0
M  V30 7439 C 691.236 -0.0222632 -2.29189 0
M  V30 7440 C 692.236 0.7186 -1.4385 0
M  V30 7441 O 693.426 0.555058 -1.6512 0
M  V30 7442 C 690.558 0.979013 -3.2654 0
M  V30 7443 H 691.751 -0.790424 -2.89296 0
M  V30 7444 H 689.304 -0.448012 -1.49742 0
M  V30 7445 H 690.039 1.77531 -2.71392 0
M  V30 7446 H 689.824 0.451037 -3.89497 0
M  V30 7447 H 691.314 1.44091 -3.91954 0
M  V30 7448 N 691.751 1.51645 -0.429126 0
M  V30 7449 C 693.028 1.94579 0.199614 0
M  V30 7450 C 693.408 1.3673 1.60836 0
M  V30 7451 O 692.756 0.551062 2.21756 0
M  V30 7452 C 692.966 3.48506 0.185685 0
M  V30 7453 C 694.314 4.22756 0.395282 0
M  V30 7454 O 695.338 3.55219 0.264165 0
M  V30 7455 O 694.197 5.42555 0.655475 0
M  V30 7456 H 691.291 0.816007 0.134393 0
M  V30 7457 H 693.837 1.62577 -0.486513 0
M  V30 7458 H 692.609 3.83045 -0.799508 0
M  V30 7459 H 692.232 3.86927 0.91507 0
M  V30 7460 N 693.229 0.160201 1.56784 0
M  V30 7461 C 694.159 -0.770264 2.2043 0
M  V30 7462 C 695.14 -1.24736 1.15651 0
M  V30 7463 O 696.325 -1.30253 1.44041 0
M  V30 7464 C 693.455 -2.00427 2.83631 0
M  V30 7465 C 692.409 -1.66345 3.94352 0
M  V30 7466 C 691.735 -2.97119 4.4455 0
M  V30 7467 C 693.035 -0.899972 5.14488 0
M  V30 7468 H 694.729 -0.239783 2.98438 0
M  V30 7469 H 692.275 -0.113891 1.43549 0
M  V30 7470 H 694.228 -2.66012 3.26827 0
M  V30 7471 H 692.952 -2.5587 2.02973 0
M  V30 7472 H 691.611 -1.03133 3.51794 0
M  V30 7473 H 691.259 -3.5058 3.60698 0
M  V30 7474 H 690.959 -2.75073 5.19238 0
M  V30 7475 H 692.483 -3.63753 4.90425 0
M  V30 7476 H 693.897 -1.45818 5.54446 0
M  V30 7477 H 692.294 -0.778968 5.95023 0
M  V30 7478 H 693.364 0.105827 4.84785 0
M  V30 7479 N 694.707 -1.5719 -0.113559 0
M  V30 7480 C 696.118 -1.74259 -0.670116 0
M  V30 7481 C 696.469 -0.779694 -1.80042 0
M  V30 7482 O 695.594 0.0461353 -2.16351 0
M  V30 7483 C 696.189 -3.15981 -1.22236 0
M  V30 7484 C 694.748 -3.34537 -1.72516 0
M  V30 7485 C 693.895 -2.70116 -0.627098 0
M  V30 7486 H 696.846 -1.58301 0.112396 0
M  V30 7487 H 696.867 -3.17832 -2.09197 0
M  V30 7488 H 696.379 -3.86038 -0.39949 0
M  V30 7489 H 694.48 -2.6953 -2.57263 0
M  V30 7490 H 694.593 -4.42737 -1.83086 0
M  V30 7491 H 692.957 -2.31501 -1.06204 0
M  V30 7492 H 693.74 -3.42802 0.184889 0
M  V30 7493 N 696.185 0.383891 -1.52853 0
M  V30 7494 C 697.596 0.961591 -1.60032 0
M  V30 7495 C 697.947 1.90819 -0.456333 0
M  V30 7496 O 697.072 2.12288 0.419873 0
M  V30 7497 C 697.667 1.75078 -2.90057 0
M  V30 7498 C 696.226 2.2781 -2.99632 0
M  V30 7499 C 695.373 1.08512 -2.55187 0
M  V30 7500 H 698.324 0.163269 -1.57858 0
M  V30 7501 H 698.345 2.61046 -2.7683 0
M  V30 7502 H 697.857 1.06157 -3.73299 0
M  V30 7503 H 695.958 3.00028 -2.20939 0
M  V30 7504 H 696.071 2.56947 -4.0437 0
M  V30 7505 H 694.435 1.44667 -2.09627 0
M  V30 7506 H 695.218 0.41118 -3.40829 0
M  V30 7507 N 697.663 1.43903 0.642637 0
M  V30 7508 C 698.61 1.49881 1.75512 0
M  V30 7509 C 699.58 0.347538 1.62423 0
M  V30 7510 O 700.765 0.556177 1.82514 0
M  V30 7511 C 697.905 1.43797 3.13714 0
M  V30 7512 C 697.018 2.6921 3.37861 0
M  V30 7513 C 696.153 2.5504 4.6597 0
M  V30 7514 C 695.192 3.75671 4.83257 0
M  V30 7515 N 694.329 3.60247 6.02633 0
M  V30 7516 H 699.169 2.44935 1.69737 0
M  V30 7517 H 696.706 1.21572 0.828165 0
M  V30 7518 H 698.664 1.38262 3.93624 0
M  V30 7519 H 697.294 0.523173 3.18532 0
M  V30 7520 H 696.346 2.8498 2.51973 0
M  V30 7521 H 697.658 3.58786 3.46517 0
M  V30 7522 H 696.812 2.47273 5.54023 0
M  V30 7523 H 695.551 1.63006 4.59653 0
M  V30 7524 H 694.556 3.83836 3.93637 0
M  V30 7525 H 695.781 4.68728 4.91397 0
M  V30 7526 H 693.727 2.70955 5.97427 0
M  V30 7527 H 693.644 4.43431 6.12295 0
M  V30 7528 H 694.912 3.56351 6.93278 0
M  V30 7529 N 699.141 -0.881989 1.30609 0
M  V30 7530 C 700.071 -2.00413 1.1982 0
M  V30 7531 C 701.052 -1.69871 0.0881538 0
M  V30 7532 O 702.237 -1.92304 0.2707 0
M  V30 7533 C 699.367 -3.35641 0.89233 0
M  V30 7534 C 698.321 -3.80451 1.96064 0
M  V30 7535 C 697.647 -5.13003 1.5077 0
M  V30 7536 C 698.947 -3.98855 3.37213 0
M  V30 7537 H 700.641 -2.09698 2.13699 0
M  V30 7538 H 698.187 -1.00754 1.02882 0
M  V30 7539 H 700.14 -4.13669 0.803497 0
M  V30 7540 H 698.864 -3.26497 -0.0821381 0
M  V30 7541 H 697.523 -3.04654 2.03916 0
M  V30 7542 H 697.171 -5.0029 0.521417 0
M  V30 7543 H 696.871 -5.43956 2.22229 0
M  V30 7544 H 698.395 -5.93554 1.43271 0
M  V30 7545 H 699.809 -4.67312 3.32103 0
M  V30 7546 H 698.206 -4.41188 4.06784 0
M  V30 7547 H 699.276 -3.02614 3.78883 0
M  V30 7548 N 700.619 -1.13374 -1.09472 0
M  V30 7549 C 701.551 -0.768466 -2.15933 0
M  V30 7550 C 702.564 0.209585 -1.61445 0
M  V30 7551 O 703.753 -0.010539 -1.78497 0
M  V30 7552 C 700.853 -0.118266 -3.38694 0
M  V30 7553 C 700.026 -1.12829 -4.22597 0
M  V30 7554 C 699.085 -0.503875 -5.23782 0
M  V30 7555 O 698.111 -1.16374 -5.57177 0
M  V30 7556 N 699.313 0.724288 -5.75964 0
M  V30 7557 H 702.078 -1.68457 -2.47876 0
M  V30 7558 H 699.639 -1.02668 -1.25183 0
M  V30 7559 H 701.631 0.311698 -4.03498 0
M  V30 7560 H 700.201 0.700769 -3.04644 0
M  V30 7561 H 699.421 -1.73556 -3.53938 0
M  V30 7562 H 700.709 -1.81095 -4.75481 0
M  V30 7563 H 700.107 1.27918 -5.51048 0
M  V30 7564 H 698.664 1.09692 -6.42504 0
M  V30 7565 N 702.098 1.27442 -0.927168 0
M  V30 7566 C 703.045 2.26863 -0.424459 0
M  V30 7567 C 704.015 1.5813 0.508346 0
M  V30 7568 O 705.2 1.85946 0.42762 0
M  V30 7569 C 702.34 3.43639 0.31718 0
M  V30 7570 C 701.453 4.27087 -0.649675 0
M  V30 7571 C 700.588 5.31082 0.111753 0
M  V30 7572 C 699.627 6.062 -0.847843 0
M  V30 7573 N 698.764 7.01999 -0.119074 0
M  V30 7574 H 703.604 2.69239 -1.27728 0
M  V30 7575 H 701.141 1.32394 -0.641106 0
M  V30 7576 H 703.099 4.10155 0.763486 0
M  V30 7577 H 701.729 3.02217 1.13424 0
M  V30 7578 H 700.781 3.60491 -1.21451 0
M  V30 7579 H 702.093 4.79242 -1.38307 0
M  V30 7580 H 701.247 6.03544 0.618 0
M  V30 7581 H 699.986 4.7973 0.878114 0
M  V30 7582 H 698.991 5.32577 -1.36534 0
M  V30 7583 H 700.216 6.59642 -1.61398 0
M  V30 7584 H 698.162 6.52977 0.629051 0
M  V30 7585 H 698.079 7.5184 -0.792046 0
M  V30 7586 H 699.347 7.78638 0.366537 0
M  V30 7587 N 703.576 0.692616 1.41565 0
M  V30 7588 C 704.509 -0.025063 2.28186 0
M  V30 7589 C 705.487 -0.790912 1.42068 0
M  V30 7590 O 706.671 -0.782344 1.71498 0
M  V30 7591 C 703.798 -1.04285 3.22246 0
M  V30 7592 C 702.844 -0.370515 4.24888 0
M  V30 7593 S 703.677 0.884942 5.28137 0
M  V30 7594 C 704.833 -0.131324 6.25762 0
M  V30 7595 H 705.066 0.709626 2.88707 0
M  V30 7596 H 702.599 0.482783 1.46658 0
M  V30 7597 H 704.557 -1.62493 3.7697 0
M  V30 7598 H 703.218 -1.7501 2.60827 0
M  V30 7599 H 702.411 -1.13911 4.90959 0
M  V30 7600 H 702.013 0.138411 3.73744 0
M  V30 7601 H 704.305 -0.985527 6.70294 0
M  V30 7602 H 705.248 0.495384 7.06365 0
M  V30 7603 H 705.656 -0.484777 5.62415 0
M  V30 7604 N 705.054 -1.51416 0.437162 0
M  V30 7605 C 706.017 -2.26312 -0.362729 0
M  V30 7606 C 707.017 -1.29748 -0.949847 0
M  V30 7607 O 708.207 -1.53462 -0.824325 0
M  V30 7608 C 705.339 -3.05475 -1.5132 0
M  V30 7609 H 706.532 -2.98459 0.29365 0
M  V30 7610 H 704.085 -1.55137 0.190327 0
M  V30 7611 H 704.82 -2.37744 -2.20563 0
M  V30 7612 H 704.605 -3.76401 -1.09838 0
M  V30 7613 H 706.095 -3.62209 -2.07833 0
M  V30 7614 N 706.532 -0.168513 -1.56696 0
M  V30 7615 C 707.78 0.476216 -1.96409 0
M  V30 7616 C 708.101 1.63968 -1.05544 0
M  V30 7617 O 707.371 1.95525 -0.121235 0
M  V30 7618 H 705.951 0.178921 -0.725256 0
M  V30 7619 H 708.613 -0.249042 -1.93302 0
M  V30 7620 H 707.709 0.838094 -3.00637 0
M  V30 7621 N 708.01 1.57248 0.105221 0
M  V30 7622 C 709.258 1.85204 0.808951 0
M  V30 7623 C 709.579 0.75574 1.7976 0
M  V30 7624 O 708.849 -0.218984 1.94672 0
M  V30 7625 H 707.429 0.683346 0.301739 0
M  V30 7626 H 710.091 1.94695 0.0892605 0
M  V30 7627 H 709.187 2.81595 1.34575 0
M  V30 7628 N 709.488 -0.375779 1.53054 0
M  V30 7629 C 710.451 -1.44254 1.7811 0
M  V30 7630 C 711.451 -1.47018 0.651328 0
M  V30 7631 O 712.641 -1.47957 0.919472 0
M  V30 7632 C 709.773 -2.8345 1.89391 0
M  V30 7633 H 710.966 -1.23316 2.73374 0
M  V30 7634 H 708.519 -0.608312 1.43977 0
M  V30 7635 H 709.254 -3.09716 0.961589 0
M  V30 7636 H 709.039 -2.82844 2.71555 0
M  V30 7637 H 710.529 -3.60722 2.10404 0
M  V30 7638 N 710.966 -1.44241 -0.634997 0
M  V30 7639 C 711.929 -1.50457 -1.72903 0
M  V30 7640 C 712.929 -0.387058 -1.56072 0
M  V30 7641 O 714.119 -0.649531 -1.61638 0
M  V30 7642 C 711.251 -1.37477 -3.1195 0
M  V30 7643 H 712.444 -2.47907 -1.68767 0
M  V30 7644 H 709.997 -1.31276 -0.84831 0
M  V30 7645 H 710.732 -0.41106 -3.21684 0
M  V30 7646 H 710.517 -2.18506 -3.25573 0
M  V30 7647 H 712.007 -1.44799 -3.91692 0
M  V30 7648 N 712.444 0.87505 -1.31075 0
M  V30 7649 C 713.86 1.15997 -1.09622 0
M  V30 7650 C 714.06 2.01036 0.136611 0
M  V30 7651 O 713.116 2.38559 0.827397 0
M  V30 7652 C 714.429 1.85702 -2.36506 0
M  V30 7653 C 715.977 1.98425 -2.42067 0
M  V30 7654 C 716.452 2.71544 -3.68819 0
M  V30 7655 N 717.943 2.79084 -3.69684 0
M  V30 7656 C 718.678 3.36259 -4.64454 0
M  V30 7657 N 718.174 3.94406 -5.69575 0
M  V30 7658 N 719.967 3.34169 -4.51982 0
M  V30 7659 H 712.118 0.308258 -2.10151 0
M  V30 7660 H 714.381 0.199145 -0.926847 0
M  V30 7661 H 714.087 1.30663 -3.26527 0
M  V30 7662 H 713.961 2.86017 -2.45915 0
M  V30 7663 H 716.348 2.5263 -1.52518 0
M  V30 7664 H 716.429 0.971682 -2.36626 0
M  V30 7665 H 716.073 2.18008 -4.58732 0
M  V30 7666 H 716.003 3.73198 -3.71525 0
M  V30 7667 H 718.494 2.3781 -2.93691 0
M  V30 7668 H 718.807 4.36129 -6.37974 0
M  V30 7669 H 717.152 3.92797 -5.73355 0
M  V30 7670 H 720.343 2.87977 -3.69035 0
M  V30 7671 H 720.516 3.78431 -5.26017 0
M  V30 7672 N 713.922 1.13953 1.08869 0
M  V30 7673 C 714.855 0.765765 2.14968 0
M  V30 7674 C 715.833 -0.250689 1.60656 0
M  V30 7675 O 717.017 -0.140852 1.87973 0
M  V30 7676 C 714.144 0.136146 3.38426 0
M  V30 7677 C 713.19 1.12201 4.11477 0
M  V30 7678 S 714.023 2.65711 4.64928 0
M  V30 7679 C 715.179 2.04125 5.91679 0
M  V30 7680 H 715.412 1.66444 2.46341 0
M  V30 7681 H 712.945 0.960263 1.20906 0
M  V30 7682 H 714.903 -0.220712 4.09906 0
M  V30 7683 H 713.564 -0.739887 3.05261 0
M  V30 7684 H 712.757 0.629398 5.00055 0
M  V30 7685 H 712.359 1.42262 3.45886 0
M  V30 7686 H 714.651 1.39381 6.63008 0
M  V30 7687 H 715.594 2.90808 6.45629 0
M  V30 7688 H 716.002 1.4905 5.44467 0
M  V30 7689 N 715.4 -1.26948 0.933913 0
M  V30 7690 C 716.31 -2.30366 0.443671 0
M  V30 7691 C 717.326 -1.67284 -0.478745 0
M  V30 7692 O 718.502 -1.98156 -0.360043 0
M  V30 7693 C 715.567 -3.45485 -0.289974 0
M  V30 7694 C 714.628 -4.24069 0.668114 0
M  V30 7695 C 713.861 -5.33691 -0.0306138 0
M  V30 7696 O 714.084 -5.5656 -1.24888 0
M  V30 7697 O 713.018 -5.98441 0.644384 0
M  V30 7698 H 716.844 -2.74349 1.30254 0
M  V30 7699 H 714.429 -1.32012 0.699506 0
M  V30 7700 H 716.311 -4.15486 -0.70353 0
M  V30 7701 H 714.986 -3.03546 -1.12435 0
M  V30 7702 H 713.893 -3.56579 1.13147 0
M  V30 7703 H 715.226 -4.69739 1.46989 0
M  V30 7704 N 716.879 -0.700114 -1.41195 0
M  V30 7705 C 718.127 -0.232546 -2.00758 0
M  V30 7706 C 718.448 1.1734 -1.55745 0
M  V30 7707 O 717.718 1.79262 -0.790058 0
M  V30 7708 H 716.298 -0.0829845 -0.742376 0
M  V30 7709 H 718.96 -0.902289 -1.72756 0
M  V30 7710 H 718.056 -0.253521 -3.11069 0
M  V30 7711 N 718.357 1.51182 -0.445186 0
M  V30 7712 C 719.305 2.29531 0.376597 0
M  V30 7713 C 720.299 1.35711 1.01385 0
M  V30 7714 O 721.505 1.53018 0.947922 0
M  V30 7715 H 717.88 0.738803 0.140267 0
M  V30 7716 H 719.851 2.96838 -0.304958 0
M  V30 7717 C 718.6 3.1552 1.4609 0
M  V30 7718 H 717.923 3.87605 0.979912 0
M  V30 7719 H 719.363 3.73384 2.009 0
M  V30 7720 C 717.822 2.31406 2.44852 0
M  V30 7721 O 718.352 1.97912 3.49562 0
M  V30 7722 N 716.558 1.94478 2.15932 0
M  V30 7723 H 716.105 2.21917 1.30808 0
M  V30 7724 H 716.063 1.38498 2.82251 0
M  V30 7725 N 719.835 0.176821 1.56605 0
M  V30 7726 C 720.765 -0.746841 2.21234 0
M  V30 7727 C 721.746 -1.23502 1.16967 0
M  V30 7728 O 722.931 -1.28718 1.45414 0
M  V30 7729 C 720.061 -1.97407 2.8574 0
M  V30 7730 C 719.015 -1.62153 3.96094 0
M  V30 7731 C 718.341 -2.92387 4.47676 0
M  V30 7732 C 719.641 -0.845353 5.15413 0
M  V30 7733 H 721.335 -0.208116 2.98676 0
M  V30 7734 H 718.881 -0.0986594 1.43662 0
M  V30 7735 H 720.834 -2.62531 3.2963 0
M  V30 7736 H 719.558 -2.53703 2.05676 0
M  V30 7737 H 718.217 -0.993964 3.52868 0
M  V30 7738 H 717.865 -3.46734 3.64396 0
M  V30 7739 H 717.565 -2.69551 5.22127 0
M  V30 7740 H 719.089 -3.5853 4.94255 0
M  V30 7741 H 720.503 -1.39929 5.55961 0
M  V30 7742 H 718.9 -0.715814 5.95815 0
M  V30 7743 H 719.97 0.157239 4.84645 0
M  V30 7744 N 721.313 -1.57302 -0.09688 0
M  V30 7745 C 722.724 -1.7496 -0.651595 0
M  V30 7746 C 723.075 -0.798746 -1.79205 0
M  V30 7747 O 722.2 0.0231858 -2.16388 0
M  V30 7748 C 722.795 -3.17259 -1.18878 0
M  V30 7749 C 721.354 -3.36348 -1.68958 0
M  V30 7750 C 720.501 -2.70766 -0.598413 0
M  V30 7751 H 723.452 -1.58173 0.12918 0
M  V30 7752 H 723.473 -3.20033 -2.05814 0
M  V30 7753 H 722.985 -3.8644 -0.358523 0
M  V30 7754 H 721.086 -2.72243 -2.5439 0
M  V30 7755 H 721.199 -4.44654 -1.7838 0
M  V30 7756 H 719.563 -2.32615 -1.03743 0
M  V30 7757 H 720.346 -3.42586 0.221238 0
M  V30 7758 N 722.791 0.367657 -1.53252 0
M  V30 7759 C 723.754 1.43308 -1.78873 0
M  V30 7760 C 724.754 1.46671 -0.659115 0
M  V30 7761 O 725.944 1.47468 -0.927306 0
M  V30 7762 C 723.076 2.82442 -1.90892 0
M  V30 7763 H 724.269 1.21864 -2.74024 0
M  V30 7764 H 721.822 0.600668 -1.44297 0
M  V30 7765 H 722.557 3.09202 -0.978 0
M  V30 7766 H 722.342 2.81399 -2.73051 0
M  V30 7767 H 723.832 3.59601 -2.12314 0
M  V30 7768 N 724.269 1.44576 0.627338 0
M  V30 7769 C 725.216 1.51734 1.73912 0
M  V30 7770 C 726.186 0.364745 1.62046 0
M  V30 7771 O 727.371 0.575503 1.81914 0
M  V30 7772 C 724.511 1.47116 3.12171 0
M  V30 7773 C 723.624 2.72778 3.34986 0
M  V30 7774 C 722.759 2.59968 4.63239 0
M  V30 7775 C 721.798 3.80776 4.79245 0
M  V30 7776 N 720.935 3.66618 5.98778 0
M  V30 7777 H 725.775 2.46722 1.6713 0
M  V30 7778 H 723.312 1.22444 0.815224 0
M  V30 7779 H 725.27 1.42429 3.92135 0
M  V30 7780 H 723.9 0.556928 3.17959 0
M  V30 7781 H 722.952 2.87637 2.48936 0
M  V30 7782 H 724.264 3.62441 3.42692 0
M  V30 7783 H 723.418 2.53135 5.51369 0
M  V30 7784 H 722.157 1.67872 4.57898 0
M  V30 7785 H 721.162 3.87989 3.89544 0
M  V30 7786 H 722.387 4.73913 4.86398 0
M  V30 7787 H 720.333 2.77277 5.9452 0
M  V30 7788 H 720.25 4.499 6.07557 0
M  V30 7789 H 721.518 3.63684 6.89459 0
M  V30 7790 N 725.747 -0.868086 1.31537 0
M  V30 7791 C 726.677 -1.99131 1.21939 0
M  V30 7792 C 727.658 -1.69768 0.106166 0
M  V30 7793 O 728.843 -1.92006 0.291081 0
M  V30 7794 C 725.973 -3.34676 0.927879 0
M  V30 7795 C 724.927 -3.7835 2.00088 0
M  V30 7796 C 724.253 -5.11375 1.56203 0
M  V30 7797 C 725.553 -3.95256 3.41424 0
M  V30 7798 H 727.247 -2.07419 2.15911 0
M  V30 7799 H 724.793 -0.996569 1.03945 0
M  V30 7800 H 726.746 -4.12793 0.847327 0
M  V30 7801 H 725.47 -3.26565 -0.0475042 0
M  V30 7802 H 724.129 -3.02474 2.07135 0
M  V30 7803 H 723.777 -4.99709 0.57445 0
M  V30 7804 H 723.477 -5.41568 2.27985 0
M  V30 7805 H 725.001 -5.92001 1.49558 0
M  V30 7806 H 726.415 -4.63764 3.3704 0
M  V30 7807 H 724.812 -4.36849 4.1144 0
M  V30 7808 H 725.882 -2.98579 3.82072 0
M  V30 7809 N 727.225 -1.14528 -1.08264 0
M  V30 7810 C 728.641 -0.885976 -1.3275 0
M  V30 7811 C 728.841 0.472096 -1.95892 0
M  V30 7812 O 727.897 1.21606 -2.21288 0
M  V30 7813 C 729.21 -2.01982 -2.22764 0
M  V30 7814 C 730.758 -2.05329 -2.36239 0
M  V30 7815 C 731.233 -3.1801 -3.29596 0
M  V30 7816 N 732.724 -3.17598 -3.37173 0
M  V30 7817 C 733.459 -4.01426 -4.09444 0
M  V30 7818 N 732.955 -4.95297 -4.8441 0
M  V30 7819 N 734.748 -3.89482 -4.0529 0
M  V30 7820 H 726.899 -2.01996 -0.656607 0
M  V30 7821 H 729.162 -0.880274 -0.351884 0
M  V30 7822 H 728.868 -2.99964 -1.83615 0
M  V30 7823 H 728.742 -1.94421 -3.23234 0
M  V30 7824 H 731.129 -1.07953 -2.74646 0
M  V30 7825 H 731.21 -2.1696 -1.35506 0
M  V30 7826 H 730.854 -4.15633 -2.9191 0
M  V30 7827 H 730.784 -3.03616 -4.30261 0
M  V30 7828 H 733.275 -2.4961 -2.83731 0
M  V30 7829 H 733.588 -5.55723 -5.37021 0
M  V30 7830 H 731.933 -4.99293 -4.83457 0
M  V30 7831 H 735.124 -3.15465 -3.45832 0
M  V30 7832 H 735.297 -4.55039 -4.6135 0
M  V30 7833 N 728.703 1.26451 -0.940633 0
M  V30 7834 C 729.65 2.264 -0.448497 0
M  V30 7835 C 730.62 1.5866 0.491546 0
M  V30 7836 O 731.805 1.86389 0.407874 0
M  V30 7837 C 728.945 3.43956 0.280715 0
M  V30 7838 C 728.058 4.26374 -0.694937 0
M  V30 7839 C 727.193 5.31171 0.0554186 0
M  V30 7840 C 726.232 6.05266 -0.912091 0
M  V30 7841 N 725.369 7.01833 -0.193524 0
M  V30 7842 H 730.209 2.67869 -1.30576 0
M  V30 7843 H 727.746 1.31707 -0.655112 0
M  V30 7844 H 729.704 4.10941 0.71994 0
M  V30 7845 H 728.334 3.03403 1.10212 0
M  V30 7846 H 727.386 3.59183 -1.25267 0
M  V30 7847 H 728.698 4.77748 -1.43382 0
M  V30 7848 H 727.852 6.04166 0.553951 0
M  V30 7849 H 726.591 4.80634 0.827183 0
M  V30 7850 H 725.596 5.31099 -1.42175 0
M  V30 7851 H 726.821 6.57893 -1.68385 0
M  V30 7852 H 724.767 6.53607 0.559758 0
M  V30 7853 H 724.684 7.50957 -0.871744 0
M  V30 7854 H 725.952 7.78983 0.283932 0
M  V30 7855 N 730.181 0.707592 1.40822 0
M  V30 7856 C 731.114 -0.000859377 2.282 0
M  V30 7857 C 732.092 -0.7758 1.42899 0
M  V30 7858 O 733.276 -0.76411 1.72318 0
M  V30 7859 C 730.403 -1.00861 3.23334 0
M  V30 7860 C 729.449 -0.32543 4.25257 0
M  V30 7861 S 730.282 0.940908 5.27169 0
M  V30 7862 C 731.438 -0.0649459 6.25866 0
M  V30 7863 H 731.671 0.740207 2.87938 0
M  V30 7864 H 729.204 0.498311 1.46138 0
M  V30 7865 H 731.162 -1.58485 3.78672 0
M  V30 7866 H 729.823 -1.72233 2.62668 0
M  V30 7867 H 729.016 -1.08697 4.92139 0
M  V30 7868 H 728.618 0.178044 3.73576 0
M  V30 7869 H 730.91 -0.914377 6.71301 0
M  V30 7870 H 731.853 0.570276 7.058 0
M  V30 7871 H 732.261 -0.425098 5.62897 0
M  V30 7872 N 731.66 -1.50943 0.453197 0
M  V30 7873 C 732.608 -2.29728 -0.364419 0
M  V30 7874 C 733.602 -1.36246 -1.00664 0
M  V30 7875 O 734.808 -1.53518 -0.939794 0
M  V30 7876 H 731.183 -0.739536 -0.136347 0
M  V30 7877 H 733.154 -2.96672 0.320696 0
M  V30 7878 C 731.903 -3.1629 -1.44415 0
M  V30 7879 H 731.226 -3.88119 -0.959343 0
M  V30 7880 H 732.666 -3.74444 -1.98917 0
M  V30 7881 C 731.125 -2.32702 -2.43622 0
M  V30 7882 O 731.655 -1.99763 -3.48508 0
M  V30 7883 N 729.861 -1.95621 -2.14897 0
M  V30 7884 H 729.408 -2.22607 -1.29629 0
M  V30 7885 H 729.366 -1.39993 -2.81513 0
M  V30 7886 N 733.138 -0.185124 -1.56509 0
M  V30 7887 C 734.363 0.465278 -2.02114 0
M  V30 7888 C 734.788 1.55083 -1.06447 0
M  V30 7889 O 734.146 1.81241 -0.0462852 0
M  V30 7890 C 734.194 1.00784 -3.46229 0
M  V30 7891 O 733.298 2.12123 -3.53663 0
M  V30 7892 H 732.639 0.109891 -0.654843 0
M  V30 7893 H 735.169 -0.293072 -2.0249 0
M  V30 7894 H 735.179 1.32697 -3.85818 0
M  V30 7895 H 733.854 0.213113 -4.15354 0
M  V30 7896 H 732.431 1.8115 -3.25943 0
M  V30 7897 N 734.616 1.57351 0.0885366 0
M  V30 7898 C 735.893 1.77449 0.822873 0
M  V30 7899 C 736.273 0.768463 1.96616 0
M  V30 7900 O 735.621 -0.201757 2.27608 0
M  V30 7901 C 735.831 3.23425 1.31137 0
M  V30 7902 C 737.179 3.86791 1.75152 0
M  V30 7903 O 738.203 3.27215 1.40745 0
M  V30 7904 O 737.062 4.91568 2.38794 0
M  V30 7905 H 734.156 0.727653 0.393002 0
M  V30 7906 H 736.702 1.69556 0.0699095 0
M  V30 7907 H 735.474 3.88188 0.49254 0
M  V30 7908 H 735.097 3.35977 2.12615 0
M  V30 7909 N 736.094 -0.359525 1.53444 0
M  V30 7910 C 737.51 -0.701599 1.43352 0
M  V30 7911 C 737.71 -1.93049 0.577439 0
M  V30 7912 O 736.766 -2.52423 0.0622224 0
M  V30 7913 C 738.079 -0.90915 2.86627 0
M  V30 7914 C 739.627 -1.00878 2.96298 0
M  V30 7915 C 740.102 -1.24876 4.40647 0
M  V30 7916 N 741.593 -1.31632 4.44103 0
M  V30 7917 C 742.328 -1.51922 5.52908 0
M  V30 7918 N 741.824 -1.69489 6.71748 0
M  V30 7919 N 743.617 -1.54341 5.40496 0
M  V30 7920 H 735.768 0.448685 2.07607 0
M  V30 7921 H 738.031 0.138713 0.937797 0
M  V30 7922 H 737.737 -0.0778997 3.51614 0
M  V30 7923 H 737.611 -1.81551 3.30634 0
M  V30 7924 H 739.998 -1.83057 2.31461 0
M  V30 7925 H 740.079 -0.0796721 2.55676 0
M  V30 7926 H 739.723 -0.431961 5.0606 0
M  V30 7927 H 739.653 -2.19118 4.78848 0
M  V30 7928 H 742.144 -1.19646 3.5846 0
M  V30 7929 H 742.457 -1.84561 7.50438 0
M  V30 7930 H 740.802 -1.66655 6.74723 0
M  V30 7931 H 743.993 -1.40188 4.46615 0
M  V30 7932 H 744.166 -1.69812 6.25354 0
M  V30 7933 N 737.572 -1.44907 -0.619662 0
M  V30 7934 C 738.819 -1.48292 -1.37898 0
M  V30 7935 C 739.147 -0.119933 -1.9413 0
M  V30 7936 O 738.402 0.879834 -1.74807 0
M  V30 7937 C 738.701 -2.50002 -2.55409 0
M  V30 7938 C 738.367 -3.95031 -2.17397 0
M  V30 7939 C 737.029 -4.34524 -2.06743 0
M  V30 7940 C 739.381 -4.86287 -1.87548 0
M  V30 7941 C 736.709 -5.63183 -1.64445 0
M  V30 7942 C 739.061 -6.15346 -1.4674 0
M  V30 7943 C 737.725 -6.53781 -1.34636 0
M  V30 7944 H 736.995 -0.542638 -0.504603 0
M  V30 7945 H 739.642 -1.78186 -0.701581 0
M  V30 7946 H 737.947 -2.13634 -3.28433 0
M  V30 7947 H 739.644 -2.49864 -3.13639 0
M  V30 7948 H 736.234 -3.63793 -2.26611 0
M  V30 7949 H 740.418 -4.56522 -1.94682 0
M  V30 7950 H 735.674 -5.91769 -1.53687 0
M  V30 7951 H 739.848 -6.85508 -1.22685 0
M  V30 7952 H 737.475 -7.53375 -1.01634 0
M  V30 7953 N 739.05 0.861098 -1.31996 0
M  V30 7954 C 740.278 1.6474 -1.25173 0
M  V30 7955 C 740.693 1.87926 0.181425 0
M  V30 7956 O 740.05 1.4437 1.1164 0
M  V30 7957 C 740.101 3.01036 -2.0015 0
M  V30 7958 O 739.822 2.7888 -3.37872 0
M  V30 7959 C 741.323 3.95481 -2.00273 0
M  V30 7960 H 738.543 0.513314 -0.432146 0
M  V30 7961 H 741.087 1.07419 -1.74016 0
M  V30 7962 H 739.242 3.55021 -1.55046 0
M  V30 7963 H 739.656 3.65514 -3.76165 0
M  V30 7964 H 741.13 4.88403 -2.57229 0
M  V30 7965 H 741.607 4.27957 -0.987407 0
M  V30 7966 H 742.213 3.47433 -2.45296 0
M  V30 7967 O 740.567 1.26963 0.998129 0
M  V30 7968 H 741.258 1.06242 1.61964 0
M  V30 END ATOM
M  V30 BEGIN BOND
M  V30 END BOND
M  V30 END CTAB
M  END
$$$$
