drugbank_target|Q00536 Cyclin-dependent kinase 16 (DB07766; DB12010)
 OpenBabel12092120463D

  0  0  0     0  0            999 V3000
M  V30 BEGIN CTAB
M  V30 COUNTS 7885 7962 0 0 0
M  V30 BEGIN ATOM
M  V30 1 H -0.908 1.98254 -0.117106 0
M  V30 2 N 0 1.576 0 0
M  V30 3 C 0.933 2.03868 1.02534 0
M  V30 4 C 1.911 0.928543 1.3348 0
M  V30 5 O 3.095 1.19667 1.45644 0
M  V30 6 C 0.222 2.43627 2.35294 0
M  V30 7 C -0.732 3.65373 2.2001 0
M  V30 8 S 0.101 5.13292 1.52614 0
M  V30 9 C 1.257 5.56322 2.86805 0
M  V30 10 H 1.49 2.90518 0.631377 0
M  V30 11 H -0.977 1.52953 0.210867 0
M  V30 12 H 0.981 2.67203 3.11629 0
M  V30 13 H -0.358 1.57376 2.7183 0
M  V30 14 H -1.165 3.90944 3.18086 0
M  V30 15 H -1.563 3.418 1.51819 0
M  V30 16 H 0.729 5.58782 3.83104 0
M  V30 17 H 1.672 6.56266 2.65933 0
M  V30 18 H 2.08 4.83886 2.90714 0
M  V30 19 N 1.4781 -0.272755 1.55222 0
M  V30 20 C 2.7551 -1.02562 1.66555 0
M  V30 21 C 3.1351 -2.04282 0.532189 0
M  V30 22 O 2.4831 -2.23662 -0.467717 0
M  V30 23 C 2.6931 -1.6822 3.05782 0
M  V30 24 C 4.0411 -2.19373 3.63539 0
M  V30 25 O 5.0651 -1.78206 3.08417 0
M  V30 26 O 3.9241 -2.94883 4.60115 0
M  V30 27 H 1.0181 -0.475755 0.676451 0
M  V30 28 H 3.5641 -0.268593 1.67561 0
M  V30 29 H 2.3361 -0.945112 3.79715 0
M  V30 30 H 1.9591 -2.50609 3.08676 0
M  V30 31 N 2.9562 -1.48159 -0.537278 0
M  V30 32 C 4.3722 -1.34118 -0.865129 0
M  V30 33 C 4.5722 -0.346678 -1.98495 0
M  V30 34 O 3.6282 0.234715 -2.51407 0
M  V30 35 C 4.9412 -2.73963 -1.23954 0
M  V30 36 C 6.4892 -2.82397 -1.34984 0
M  V30 37 C 6.9642 -4.22928 -1.75772 0
M  V30 38 N 8.4552 -4.25566 -1.82887 0
M  V30 39 C 9.1902 -5.31235 -2.15817 0
M  V30 40 N 8.6862 -6.47189 -2.47222 0
M  V30 41 N 10.4792 -5.18624 -2.16761 0
M  V30 42 H 2.6302 -2.1144 0.201715 0
M  V30 43 H 4.8932 -0.947598 0.0275949 0
M  V30 44 H 4.5992 -3.48264 -0.490381 0
M  V30 45 H 4.4732 -3.0702 -2.19132 0
M  V30 46 H 6.8602 -2.08356 -2.08978 0
M  V30 47 H 6.9412 -2.5297 -0.379448 0
M  V30 48 H 6.5852 -4.97482 -1.02341 0
M  V30 49 H 6.5152 -4.49794 -2.73848 0
M  V30 50 H 9.0062 -3.41924 -1.60924 0
M  V30 51 H 9.3192 -7.23564 -2.71433 0
M  V30 52 H 7.6642 -6.50476 -2.44757 0
M  V30 53 H 10.8552 -4.27056 -1.91679 0
M  V30 54 H 11.0282 -6.01078 -2.42093 0
M  V30 55 N 4.4343 0.785586 -1.36625 0
M  V30 56 C 5.3673 1.90509 -1.25625 0
M  V30 57 C 6.3453 1.62 -0.139607 0
M  V30 58 O 7.5293 1.8591 -0.31141 0
M  V30 59 C 4.6563 3.25419 -0.939158 0
M  V30 60 C 3.7023 3.72856 -2.07077 0
M  V30 61 S 4.5353 3.88162 -3.68904 0
M  V30 62 C 5.6913 5.25942 -3.39317 0
M  V30 63 H 5.9243 1.99549 -2.20381 0
M  V30 64 H 3.4573 0.945226 -1.22085 0
M  V30 65 H 5.4153 4.03346 -0.763029 0
M  V30 66 H 4.0763 3.14099 -0.00931402 0
M  V30 67 H 3.2693 4.70624 -1.80357 0
M  V30 68 H 2.8713 3.01989 -2.20632 0
M  V30 69 H 5.1633 6.10651 -2.93447 0
M  V30 70 H 6.1063 5.57668 -4.36363 0
M  V30 71 H 6.5143 4.93224 -2.74573 0
M  V30 72 N 5.9124 1.20967 1.01018 0
M  V30 73 C 6.8594 0.964281 2.09691 0
M  V30 74 C 7.8294 -0.107853 1.65749 0
M  V30 75 O 9.0144 0.0381987 1.90762 0
M  V30 76 C 6.1544 0.52943 3.41015 0
M  V30 77 C 5.2674 1.67043 3.98398 0
M  V30 78 C 4.4024 1.18525 5.17808 0
M  V30 79 C 3.4414 2.29892 5.67288 0
M  V30 80 N 2.5784 1.82546 6.77954 0
M  V30 81 H 7.4184 1.89463 2.30017 0
M  V30 82 H 4.9554 0.944289 1.1279 0
M  V30 83 H 6.9134 0.258588 4.16398 0
M  V30 84 H 5.5434 -0.363919 3.20742 0
M  V30 85 H 4.5954 2.05603 3.20049 0
M  V30 86 H 5.9074 2.50877 4.31117 0
M  V30 87 H 5.0614 0.870762 6.00419 0
M  V30 88 H 3.8004 0.316887 4.86669 0
M  V30 89 H 2.8054 2.6215 4.83278 0
M  V30 90 H 4.0304 3.17216 6.00459 0
M  V30 91 H 1.9764 0.980454 6.48632 0
M  V30 92 H 1.8934 2.59956 7.09901 0
M  V30 93 H 3.1614 1.54115 7.64113 0
M  V30 94 N 7.3905 -1.2043 1.01659 0
M  V30 95 C 8.3375 -2.23215 0.586822 0
M  V30 96 C 9.3075 -1.61382 -0.393085 0
M  V30 97 O 10.4925 -1.88544 -0.292525 0
M  V30 98 C 7.6325 -3.45032 -0.0687464 0
M  V30 99 C 6.7455 -4.21296 0.955724 0
M  V30 100 C 5.8805 -5.30507 0.271208 0
M  V30 101 C 4.9195 -5.98515 1.28244 0
M  V30 102 N 4.0565 -6.99316 0.62459 0
M  V30 103 H 8.8965 -2.59336 1.46796 0
M  V30 104 H 6.4335 -1.27431 0.734836 0
M  V30 105 H 8.3915 -4.1459 -0.465965 0
M  V30 106 H 7.0215 -3.09604 -0.913529 0
M  V30 107 H 6.0735 -3.50803 1.4711 0
M  V30 108 H 7.3855 -4.6803 1.72479 0
M  V30 109 H 6.5395 -6.06428 -0.18151 0
M  V30 110 H 5.2785 -4.8481 -0.530163 0
M  V30 111 H 4.2835 -5.21355 1.74554 0
M  V30 112 H 5.5085 -6.46298 2.08509 0
M  V30 113 H 3.4545 -6.55812 -0.156914 0
M  V30 114 H 3.3715 -7.44178 1.33172 0
M  V30 115 H 4.6395 -7.79255 0.195462 0
M  V30 116 N 8.8686 -0.792821 -1.36206 0
M  V30 117 C 10.1176 -0.363353 -1.984 0
M  V30 118 C 10.4306 1.07172 -1.63626 0
M  V30 119 O 11.6366 1.60362 -2.19081 0
M  V30 120 C 10.0926 -0.59872 -3.54885 0
M  V30 121 C 9.7006 -2.04543 -3.9858 0
M  V30 122 C 11.4446 -0.233926 -4.23855 0
M  V30 123 C 9.3516 -2.22727 -5.47856 0
M  V30 124 H 8.2816 -0.13212 -0.742334 0
M  V30 125 H 10.9326 -0.974935 -1.55458 0
M  V30 126 H 9.3146 0.0826222 -3.95914 0
M  V30 127 H 10.4886 -2.76345 -3.68741 0
M  V30 128 H 8.8036 -2.36879 -3.42458 0
M  V30 129 H 11.4006 -0.348027 -5.33566 0
M  V30 130 H 11.7436 0.818351 -4.08177 0
M  V30 131 H 12.2766 -0.868639 -3.882 0
M  V30 132 H 9.0156 -3.2635 -5.68486 0
M  V30 133 H 8.5356 -1.55434 -5.7931 0
M  V30 134 H 10.2146 -2.03607 -6.14128 0
M  V30 135 N 10.3467 1.47872 -0.545128 0
M  V30 136 C 11.2937 2.29849 0.2093 0
M  V30 137 C 12.2637 1.38313 0.919707 0
M  V30 138 O 13.4487 1.67277 0.917772 0
M  V30 139 C 10.5887 3.22019 1.24088 0
M  V30 140 C 9.7017 4.2864 0.537778 0
M  V30 141 C 8.8367 5.07973 1.5536 0
M  V30 142 C 7.8757 6.06381 0.8348 0
M  V30 143 N 7.0127 6.78717 1.79688 0
M  V30 144 H 11.8527 2.93845 -0.49591 0
M  V30 145 H 9.3897 1.44848 -0.256389 0
M  V30 146 H 11.3477 3.73868 1.85144 0
M  V30 147 H 9.9777 2.59914 1.91428 0
M  V30 148 H 9.0297 3.7994 -0.187046 0
M  V30 149 H 10.3417 4.98793 -0.0258907 0
M  V30 150 H 9.4957 5.63912 2.23803 0
M  V30 151 H 8.2347 4.37693 2.15118 0
M  V30 152 H 7.2397 5.49631 0.136388 0
M  V30 153 H 8.4647 6.78665 0.24313 0
M  V30 154 H 6.4107 6.11177 2.38326 0
M  V30 155 H 6.3277 7.44998 1.28505 0
M  V30 156 H 7.5957 7.39237 2.47282 0
M  V30 157 N 11.8248 0.280983 1.55075 0
M  V30 158 C 13.2408 -0.0729964 1.59433 0
M  V30 159 C 13.4408 -1.5411 1.29817 0
M  V30 160 O 12.4968 -2.29086 1.06187 0
M  V30 161 C 13.8098 0.306921 2.9913 0
M  V30 162 C 15.3578 0.254023 3.11968 0
M  V30 163 C 15.8328 0.608467 4.5394 0
M  V30 164 N 17.3238 0.560241 4.59799 0
M  V30 165 C 18.0588 0.80722 5.6769 0
M  V30 166 N 17.5548 1.11912 6.83701 0
M  V30 167 N 19.3478 0.735623 5.57266 0
M  V30 168 H 11.4988 1.238 1.7259 0
M  V30 169 H 13.7618 0.500547 0.805082 0
M  V30 170 H 13.4678 1.32816 3.25657 0
M  V30 171 H 13.3418 -0.349363 3.75579 0
M  V30 172 H 15.7288 -0.75794 2.852 0
M  V30 173 H 15.8098 0.944649 2.37718 0
M  V30 174 H 15.4538 1.61814 4.81434 0
M  V30 175 H 15.3838 -0.104013 5.26497 0
M  V30 176 H 17.8748 0.329288 3.76463 0
M  V30 177 H 18.1878 1.29409 7.61888 0
M  V30 178 H 16.5328 1.15695 6.85303 0
M  V30 179 H 19.7238 0.491752 4.6551 0
M  V30 180 H 19.8968 0.931482 6.4127 0
M  V30 181 N 13.3029 -1.57598 0.00835791 0
M  V30 182 C 14.2349 -2.05811 -1.00868 0
M  V30 183 C 15.2479 -0.977579 -1.30182 0
M  V30 184 O 16.4369 -1.25421 -1.27011 0
M  V30 185 C 13.5369 -2.45016 -2.34137 0
M  V30 186 C 12.7099 -3.75903 -2.23643 0
M  V30 187 C 11.7689 -4.01884 -3.3967 0
M  V30 188 O 10.7949 -4.72433 -3.17483 0
M  V30 189 N 11.9969 -3.50432 -4.62793 0
M  V30 190 H 14.7619 -2.93684 -0.597458 0
M  V30 191 H 12.3229 -1.60909 -0.178852 0
M  V30 192 H 14.3149 -2.59506 -3.10546 0
M  V30 193 H 12.8849 -1.62618 -2.66972 0
M  V30 194 H 12.1049 -3.7141 -1.32091 0
M  V30 195 H 13.3929 -4.61695 -2.13812 0
M  V30 196 H 12.7909 -2.93317 -4.83716 0
M  V30 197 H 11.3479 -3.70236 -5.3644 0
M  V30 198 N 14.781 0.264519 -1.55364 0
M  V30 199 C 15.711 1.33121 -1.91836 0
M  V30 200 C 16.692 1.51101 -0.781192 0
M  V30 201 O 17.877 1.64003 -1.04003 0
M  V30 202 C 15.007 2.68921 -2.19769 0
M  V30 203 C 13.961 2.65661 -3.35571 0
M  V30 204 C 13.287 4.05093 -3.49004 0
M  V30 205 C 14.587 2.24187 -4.71739 0
M  V30 206 H 16.281 1.02844 -2.81182 0
M  V30 207 H 13.827 0.493286 -1.35287 0
M  V30 208 H 15.78 3.43663 -2.43872 0
M  V30 209 H 14.504 3.00799 -1.27231 0
M  V30 210 H 13.163 1.93377 -3.1145 0
M  V30 211 H 12.811 4.34206 -2.53917 0
M  V30 212 H 12.511 4.03804 -4.26868 0
M  V30 213 H 14.035 4.81561 -3.75408 0
M  V30 214 H 15.449 2.88654 -4.9533 0
M  V30 215 H 13.846 2.34044 -5.52579 0
M  V30 216 H 14.916 1.19327 -4.69988 0
M  V30 217 N 16.2591 1.48442 0.529413 0
M  V30 218 C 17.4841 1.60406 1.31471 0
M  V30 219 C 17.9091 0.264738 1.86228 0
M  V30 220 O 17.2671 -0.763668 1.64432 0
M  V30 221 C 17.3151 2.65419 2.44101 0
M  V30 222 O 16.4191 2.22618 3.47153 0
M  V30 223 H 15.7601 0.537863 0.389357 0
M  V30 224 H 18.2901 1.94432 0.636965 0
M  V30 225 H 18.3001 2.86709 2.90279 0
M  V30 226 H 16.9751 3.62652 2.03608 0
M  V30 227 H 15.5521 2.11543 3.0709 0
M  V30 228 N 17.7372 -0.778329 1.37039 0
M  V30 229 C 18.6702 -1.8984 1.26633 0
M  V30 230 C 19.6482 -1.61923 0.148197 0
M  V30 231 O 20.8322 -1.85742 0.321265 0
M  V30 232 C 17.9592 -3.24916 0.956403 0
M  V30 233 C 17.0052 -3.71752 2.09051 0
M  V30 234 S 17.8382 -3.86201 3.70957 0
M  V30 235 C 18.9942 -5.24135 3.42101 0
M  V30 236 H 19.2272 -1.98377 2.21436 0
M  V30 237 H 16.7602 -0.938738 1.22585 0
M  V30 238 H 18.7182 -4.02936 0.784409 0
M  V30 239 H 17.3792 -3.14089 0.0259713 0
M  V30 240 H 16.5722 -4.69661 1.8285 0
M  V30 241 H 16.1742 -3.00815 2.2223 0
M  V30 242 H 18.4662 -6.09086 2.96682 0
M  V30 243 H 19.4092 -5.55346 4.39314 0
M  V30 244 H 19.8172 -4.91761 2.77185 0
M  V30 245 N 19.2153 -1.21501 -1.00376 0
M  V30 246 C 20.4433 -1.059 -1.77744 0
M  V30 247 C 20.8583 0.391125 -1.84704 0
M  V30 248 O 20.2153 1.27133 -1.30933 0
M  V30 249 C 20.2663 -1.65111 -3.21591 0
M  V30 250 O 19.9873 -3.0445 -3.15027 0
M  V30 251 C 21.4883 -1.54637 -4.15454 0
M  V30 252 H 18.7083 -0.371825 -0.558558 0
M  V30 253 H 21.2523 -1.60865 -1.26264 0
M  V30 254 H 19.4073 -1.14235 -3.70175 0
M  V30 255 H 19.8213 -3.3278 -4.0541 0
M  V30 256 H 21.2953 -2.00808 -5.14179 0
M  V30 257 H 21.7723 -0.501022 -4.36333 0
M  V30 258 H 22.3783 -2.04767 -3.72761 0
M  V30 259 N 20.6934 1.19889 -1.02296 0
M  V30 260 C 21.6234 2.25141 -0.619174 0
M  V30 261 C 22.6044 1.66051 0.368915 0
M  V30 262 O 23.7894 1.92546 0.252941 0
M  V30 263 C 20.9194 3.4728 0.0368783 0
M  V30 264 C 19.8734 4.19005 -0.872865 0
M  V30 265 C 19.1994 5.34637 -0.0822402 0
M  V30 266 C 20.4994 4.74452 -2.18387 0
M  V30 267 H 22.1934 2.59171 -1.49903 0
M  V30 268 H 19.7394 1.24579 -0.722222 0
M  V30 269 H 21.6924 4.20098 0.330958 0
M  V30 270 H 20.4164 3.12433 0.95149 0
M  V30 271 H 19.0754 3.48061 -1.15105 0
M  V30 272 H 18.7234 4.96034 0.83422 0
M  V30 273 H 18.4234 5.83557 -0.688149 0
M  V30 274 H 19.9474 6.10255 0.205238 0
M  V30 275 H 21.3614 5.39055 -1.95172 0
M  V30 276 H 19.7584 5.33834 -2.74119 0
M  V30 277 H 20.8284 3.92844 -2.84257 0
M  V30 278 N 22.1715 0.800033 1.35784 0
M  V30 279 C 23.5875 0.482977 1.52117 0
M  V30 280 C 23.7875 -0.996948 1.75109 0
M  V30 281 O 22.8435 -1.78216 1.78872 0
M  V30 282 C 24.1565 1.32264 2.70049 0
M  V30 283 C 25.7045 1.31742 2.83924 0
M  V30 284 C 26.1795 2.14106 4.04874 0
M  V30 285 N 27.6705 2.11607 4.12039 0
M  V30 286 C 28.4055 2.72099 5.04727 0
M  V30 287 N 27.9015 3.41492 6.02789 0
M  V30 288 N 29.6945 2.61776 4.97423 0
M  V30 289 H 21.8455 1.75856 1.19115 0
M  V30 290 H 24.1085 0.748122 0.582252 0
M  V30 291 H 23.8145 2.37261 2.59616 0
M  V30 292 H 23.6885 0.971303 3.6448 0
M  V30 293 H 26.0755 0.275333 2.93813 0
M  V30 294 H 26.1565 1.70859 1.9037 0
M  V30 295 H 25.8005 3.18351 3.95746 0
M  V30 296 H 25.7305 1.72353 4.97596 0
M  V30 297 H 28.2215 1.61112 3.41835 0
M  V30 298 H 28.5345 3.84953 6.70098 0
M  V30 299 H 26.8795 3.45596 6.02983 0
M  V30 300 H 30.0705 2.07157 4.19766 0
M  V30 301 H 30.2435 3.0921 5.69468 0
M  V30 302 N 23.6496 -1.47581 0.552962 0
M  V30 303 C 24.8976 -2.02082 0.0272703 0
M  V30 304 C 25.2186 -1.4301 -1.32563 0
M  V30 305 O 24.4886 -0.603745 -1.86365 0
M  V30 306 H 23.0686 -0.746966 0.00709182 0
M  V30 307 H 25.7306 -1.81033 0.722008 0
M  V30 308 H 24.8266 -3.12034 -0.0639951 0
M  V30 309 N 25.1277 -0.289203 -1.54924 0
M  V30 310 C 26.3757 0.322879 -1.99504 0
M  V30 311 C 26.6967 1.55313 -1.1791 0
M  V30 312 O 25.9667 1.94001 -0.272097 0
M  V30 313 H 24.5467 0.122291 -0.736922 0
M  V30 314 H 27.2087 -0.397802 -1.90797 0
M  V30 315 H 26.3047 0.603061 -3.06218 0
M  V30 316 N 26.6058 1.57591 -0.0167156 0
M  V30 317 C 28.0218 1.55946 0.339557 0
M  V30 318 C 28.2218 1.02109 1.73713 0
M  V30 319 O 27.2778 0.662303 2.43659 0
M  V30 320 C 28.5908 3.00037 0.199499 0
M  V30 321 C 30.1388 3.11805 0.273193 0
M  V30 322 C 30.6138 4.57713 0.162068 0
M  V30 323 N 32.1048 4.6268 0.219444 0
M  V30 324 C 32.8398 5.73185 0.157054 0
M  V30 325 N 32.3358 6.92786 0.0442936 0
M  V30 326 N 34.1288 5.61707 0.21014 0
M  V30 327 H 26.2798 1.90921 -0.930758 0
M  V30 328 H 28.5428 0.877674 -0.358319 0
M  V30 329 H 28.2488 3.4333 -0.76273 0
M  V30 330 H 28.1228 3.64387 0.974786 0
M  V30 331 H 30.5098 2.68433 1.22587 0
M  V30 332 H 30.5908 2.50201 -0.532256 0
M  V30 333 H 30.2348 5.01763 -0.78714 0
M  V30 334 H 30.1648 5.17283 0.986222 0
M  V30 335 H 32.6558 3.76649 0.307246 0
M  V30 336 H 32.9688 7.728 0.00304069 0
M  V30 337 H 31.3138 6.94999 0.00968457 0
M  V30 338 H 34.5048 4.6716 0.296546 0
M  V30 339 H 34.6778 6.47807 0.158054 0
M  V30 340 N 28.0839 -0.256276 1.55502 0
M  V30 341 C 29.3319 -0.983672 1.76545 0
M  V30 342 C 29.6529 -1.86206 0.578982 0
M  V30 343 O 28.9229 -1.91656 -0.405577 0
M  V30 344 H 27.5029 -0.366191 0.651086 0
M  V30 345 H 30.1649 -0.276479 1.92929 0
M  V30 346 H 29.2609 -1.61087 2.67315 0
M  V30 347 N 29.562 -1.4872 -0.521534 0
M  V30 348 C 30.811 -1.56419 -1.27341 0
M  V30 349 C 31.124 -0.246805 -1.94037 0
M  V30 350 O 32.33 -0.202122 -2.70747 0
M  V30 351 C 30.786 -2.75896 -2.31105 0
M  V30 352 C 30.394 -4.14311 -1.70441 0
M  V30 353 C 32.138 -2.92913 -3.07249 0
M  V30 354 C 30.045 -5.25038 -2.72194 0
M  V30 355 H 28.975 -0.582344 -0.478949 0
M  V30 356 H 31.626 -1.75071 -0.549779 0
M  V30 357 H 30.008 -2.50697 -3.06541 0
M  V30 358 H 31.182 -4.49564 -1.01136 0
M  V30 359 H 29.497 -4.02482 -1.06759 0
M  V30 360 H 32.094 -3.72805 -3.83302 0
M  V30 361 H 32.437 -2.02689 -3.63625 0
M  V30 362 H 32.97 -3.18054 -2.38928 0
M  V30 363 H 29.709 -6.17255 -2.20627 0
M  V30 364 H 29.229 -4.94263 -3.39801 0
M  V30 365 H 30.908 -5.53508 -3.35019 0
M  V30 366 N 31.0401 0.771051 -1.3745 0
M  V30 367 C 32.3171 1.519 -1.23231 0
M  V30 368 C 32.6971 2.10383 0.173809 0
M  V30 369 O 32.0451 1.95583 1.18151 0
M  V30 370 C 32.2551 2.59933 -2.32886 0
M  V30 371 C 33.6031 3.27316 -2.70461 0
M  V30 372 O 34.6271 2.70228 -2.32068 0
M  V30 373 O 33.4861 4.30531 -3.36608 0
M  V30 374 H 30.5801 0.672803 -0.480901 0
M  V30 375 H 33.1261 0.807957 -1.49232 0
M  V30 376 H 31.8981 2.14842 -3.27045 0
M  V30 377 H 31.5211 3.38637 -2.08353 0
M  V30 378 N 32.5182 1.22032 0.997298 0
M  V30 379 C 33.4652 0.986467 2.08656 0
M  V30 380 C 34.4352 -0.0902671 1.65855 0
M  V30 381 O 35.6202 0.0584294 1.90711 0
M  V30 382 C 32.7602 0.565569 3.40434 0
M  V30 383 C 31.8732 1.71259 3.96604 0
M  V30 384 C 31.0082 1.24011 5.16522 0
M  V30 385 C 30.0472 2.35896 5.64818 0
M  V30 386 N 29.1842 1.89726 6.7598 0
M  V30 387 H 34.0242 1.91892 2.27994 0
M  V30 388 H 31.5612 0.956199 1.11782 0
M  V30 389 H 33.5192 0.302738 4.161 0
M  V30 390 H 32.1492 -0.329879 3.2111 0
M  V30 391 H 31.2012 2.08986 3.17851 0
M  V30 392 H 32.5132 2.55436 4.28432 0
M  V30 393 H 31.6672 0.934395 5.99461 0
M  V30 394 H 30.4062 0.368487 4.86306 0
M  V30 395 H 29.4112 2.67261 4.8047 0
M  V30 396 H 30.6362 3.23567 5.97061 0
M  V30 397 H 28.5822 1.0492 6.47555 0
M  V30 398 H 28.4992 2.67471 7.07103 0
M  V30 399 H 29.7672 1.62211 7.62435 0
M  V30 400 N 33.9963 -1.19345 1.0293 0
M  V30 401 C 35.2243 -1.92997 0.745644 0
M  V30 402 C 35.6393 -1.75519 -0.695589 0
M  V30 403 O 34.9963 -1.07737 -1.47306 0
M  V30 404 C 35.0473 -3.44741 1.08792 0
M  V30 405 O 34.7683 -3.61658 2.47256 0
M  V30 406 C 36.2693 -4.35515 0.827129 0
M  V30 407 H 33.4893 -0.613042 0.272801 0
M  V30 408 H 36.0333 -1.51473 1.3739 0
M  V30 409 H 34.1883 -3.84097 0.504832 0
M  V30 410 H 34.6023 -4.55514 2.60015 0
M  V30 411 H 36.0763 -5.40589 1.11658 0
M  V30 412 H 36.5533 -4.38552 -0.238436 0
M  V30 413 H 37.1593 -4.01841 1.39297 0
M  V30 414 N 35.4744 -0.807222 -1.35358 0
M  V30 415 C 36.4224 -0.20614 -2.31685 0
M  V30 416 C 37.4164 0.644445 -1.56663 0
M  V30 417 O 38.6224 0.537538 -1.71786 0
M  V30 418 H 34.9974 -0.0479006 -0.750473 0
M  V30 419 H 36.9684 -1.03369 -2.79924 0
M  V30 420 C 35.7174 0.630212 -3.41941 0
M  V30 421 H 35.0404 -0.0149558 -3.99797 0
M  V30 422 H 36.4804 1.01716 -4.11619 0
M  V30 423 C 34.9394 1.79601 -2.85035 0
M  V30 424 O 35.4694 2.89351 -2.78637 0
M  V30 425 N 33.6754 1.60774 -2.42074 0
M  V30 426 H 33.2224 0.715009 -2.47478 0
M  V30 427 H 33.1804 2.38933 -2.04349 0
M  V30 428 N 36.9525 1.47285 -0.560781 0
M  V30 429 C 38.2005 2.02064 -0.0379868 0
M  V30 430 C 38.5215 1.43711 1.31803 0
M  V30 431 O 37.7915 0.61362 1.86042 0
M  V30 432 H 36.3715 0.746918 -0.0110531 0
M  V30 433 H 39.0335 1.80648 -0.731598 0
M  V30 434 H 38.1295 3.12064 0.0474463 0
M  V30 435 N 38.4306 0.297415 1.54768 0
M  V30 436 C 39.3936 -0.567375 2.22066 0
M  V30 437 C 40.3936 -1.06409 1.20556 0
M  V30 438 O 41.5836 -0.960691 1.45315 0
M  V30 439 C 38.7156 -1.78517 2.90421 0
M  V30 440 H 39.9086 0.0205534 2.99893 0
M  V30 441 H 37.4616 0.0482163 1.56226 0
M  V30 442 H 38.1966 -2.41303 2.16664 0
M  V30 443 H 37.9816 -1.43669 3.64831 0
M  V30 444 H 39.4716 -2.39964 3.41771 0
M  V30 445 N 39.9087 -1.5758 0.0250728 0
M  V30 446 C 41.3197 -1.79476 -0.514323 0
M  V30 447 C 41.6707 -0.934956 -1.72491 0
M  V30 448 O 40.7957 -0.144245 -2.15919 0
M  V30 449 C 41.3907 -3.25503 -0.939842 0
M  V30 450 C 39.9497 -3.48408 -1.42438 0
M  V30 451 C 39.0967 -2.74583 -0.387201 0
M  V30 452 H 42.0477 -1.567 0.25113 0
M  V30 453 H 42.0687 -3.34992 -1.80445 0
M  V30 454 H 41.5807 -3.88056 -0.0585628 0
M  V30 455 H 39.6817 -2.91103 -2.32572 0
M  V30 456 H 39.7947 -4.57119 -1.43455 0
M  V30 457 H 38.1587 -2.39942 -0.854409 0
M  V30 458 H 38.9417 -3.39849 0.485543 0
M  V30 459 N 41.3868 0.248026 -1.55636 0
M  V30 460 C 42.2968 1.32859 -1.93354 0
M  V30 461 C 43.3128 1.52719 -0.833838 0
M  V30 462 O 44.4888 1.66363 -1.13513 0
M  V30 463 C 41.5538 2.66337 -2.21958 0
M  V30 464 C 40.6148 2.55008 -3.45354 0
M  V30 465 C 39.8478 3.82121 -3.72584 0
M  V30 466 O 40.0708 4.83951 -3.01907 0
M  V30 467 O 39.0048 3.80822 -4.6611 0
M  V30 468 H 42.8308 1.03862 -2.85388 0
M  V30 469 H 40.4158 0.448686 -1.42503 0
M  V30 470 H 42.2978 3.45216 -2.4167 0
M  V30 471 H 40.9728 2.95068 -1.33103 0
M  V30 472 H 39.8798 1.7442 -3.30951 0
M  V30 473 H 41.2128 2.31222 -4.34508 0
M  V30 474 N 42.8649 1.48995 0.513639 0
M  V30 475 C 43.7969 1.60836 1.63293 0
M  V30 476 C 44.8099 0.491701 1.55197 0
M  V30 477 O 45.9989 0.763238 1.6136 0
M  V30 478 C 43.0989 1.53731 3.02027 0
M  V30 479 C 42.2719 2.80715 3.35437 0
M  V30 480 C 41.3309 2.66837 4.53525 0
M  V30 481 O 40.3569 3.40753 4.55934 0
M  V30 482 N 41.5589 1.77539 5.52684 0
M  V30 483 H 44.3239 2.57366 1.53566 0
M  V30 484 H 41.8849 1.45925 0.701259 0
M  V30 485 H 43.8769 1.42118 3.78926 0
M  V30 486 H 42.4469 0.651092 3.05744 0
M  V30 487 H 41.6669 3.06772 2.47557 0
M  V30 488 H 42.9549 3.64927 3.54551 0
M  V30 489 H 42.3529 1.16719 5.53528 0
M  V30 490 H 40.9099 1.71856 6.28736 0
M  V30 491 N 44.343 -0.763751 1.37857 0
M  V30 492 C 45.592 -1.51789 1.32827 0
M  V30 493 C 45.905 -1.95426 -0.0823719 0
M  V30 494 O 47.111 -2.70298 -0.255172 0
M  V30 495 C 45.567 -2.74133 2.33193 0
M  V30 496 C 45.175 -2.37562 3.79827 0
M  V30 497 C 46.919 -3.52054 2.37188 0
M  V30 498 C 44.826 -3.56456 4.71904 0
M  V30 499 H 43.756 -0.569896 0.493695 0
M  V30 500 H 46.407 -0.835822 1.63359 0
M  V30 501 H 44.789 -3.4427 1.9569 0
M  V30 502 H 45.963 -1.75157 4.26212 0
M  V30 503 H 44.278 -1.72798 3.78853 0
M  V30 504 H 46.875 -4.40437 3.03182 0
M  V30 505 H 47.218 -3.92486 1.38782 0
M  V30 506 H 47.751 -2.88921 2.7344 0
M  V30 507 H 44.49 -3.21099 5.71468 0
M  V30 508 H 44.01 -4.17938 4.30218 0
M  V30 509 H 45.689 -4.23168 4.89426 0
M  V30 510 N 45.8211 -1.22559 -0.990812 0
M  V30 511 C 47.0691 -1.04933 -1.72724 0
M  V30 512 C 47.3901 0.416158 -1.90508 0
M  V30 513 O 46.6601 1.29918 -1.46622 0
M  V30 514 H 45.2401 -0.385296 -0.639965 0
M  V30 515 H 47.9021 -1.54105 -1.19322 0
M  V30 516 H 46.9981 -1.52886 -2.72089 0
M  V30 517 N 47.2992 1.18797 -1.03562 0
M  V30 518 C 48.2292 2.24472 -0.643019 0
M  V30 519 C 49.2102 1.66433 0.351283 0
M  V30 520 O 50.3952 1.92803 0.232505 0
M  V30 521 C 47.5252 3.473 4.24935e-05 0
M  V30 522 C 46.4792 4.18055 -0.917257 0
M  V30 523 C 45.8052 5.34519 -0.138941 0
M  V30 524 C 47.1052 4.72109 -2.23407 0
M  V30 525 H 48.7992 2.57566 -1.52643 0
M  V30 526 H 46.3452 1.23806 -0.735394 0
M  V30 527 H 48.2982 4.20426 0.286383 0
M  V30 528 H 47.0222 3.13424 0.918299 0
M  V30 529 H 45.6812 3.46821 -1.1879 0
M  V30 530 H 45.3292 4.96891 0.781562 0
M  V30 531 H 45.0292 5.82794 -0.750005 0
M  V30 532 H 46.5532 6.10438 0.1405 0
M  V30 533 H 47.9672 5.36955 -2.00879 0
M  V30 534 H 46.3642 5.30897 -2.79765 0
M  V30 535 H 47.4342 3.89807 -2.88407 0
M  V30 536 N 48.7773 0.814389 1.34928 0
M  V30 537 C 50.0543 0.321363 1.92942 0
M  V30 538 C 50.4343 -1.19014 1.74353 0
M  V30 539 O 49.7823 -1.99328 1.11716 0
M  V30 540 C 49.9923 0.741323 3.41036 0
M  V30 541 C 51.3403 0.735266 4.18185 0
M  V30 542 O 52.3643 0.68336 3.49584 0
M  V30 543 O 51.2233 0.800703 5.40602 0
M  V30 544 H 48.3173 0.0858893 0.822528 0
M  V30 545 H 50.8633 0.898609 1.43955 0
M  V30 546 H 49.6353 1.78276 3.4833 0
M  V30 547 H 49.2583 0.139307 3.97356 0
M  V30 548 N 50.2554 -1.46986 0.568584 0
M  V30 549 C 51.1654 -2.33942 -0.17555 0
M  V30 550 C 52.1814 -1.48891 -0.90041 0
M  V30 551 O 53.3574 -1.81794 -0.86676 0
M  V30 552 C 50.4224 -3.25811 -1.18524 0
M  V30 553 C 49.4834 -4.26757 -0.466582 0
M  V30 554 C 48.7164 -5.14236 -1.42817 0
M  V30 555 O 48.9394 -5.04379 -2.66379 0
M  V30 556 O 47.8734 -5.94412 -0.946453 0
M  V30 557 H 51.6994 -2.98896 0.538036 0
M  V30 558 H 49.2844 -1.4573 0.329097 0
M  V30 559 H 51.1664 -3.82527 -1.76779 0
M  V30 560 H 49.8414 -2.63471 -1.88055 0
M  V30 561 H 48.7484 -3.73769 0.157451 0
M  V30 562 H 50.0814 -4.91843 0.187485 0
M  V30 563 N 51.7335 -0.305618 -1.54608 0
M  V30 564 C 52.9585 0.307562 -2.05107 0
M  V30 565 C 53.3835 1.46385 -1.18123 0
M  V30 566 O 52.7415 1.8034 -0.186324 0
M  V30 567 C 52.7895 0.73704 -3.52987 0
M  V30 568 O 51.8935 1.84134 -3.6901 0
M  V30 569 H 51.2345 0.0589143 -0.661381 0
M  V30 570 H 53.7645 -0.448807 -1.99617 0
M  V30 571 H 53.7745 1.02459 -3.94925 0
M  V30 572 H 52.4495 -0.108773 -4.15758 0
M  V30 573 H 51.0265 1.55398 -3.38978 0
M  V30 574 N 53.2116 1.57565 -0.0334293 0
M  V30 575 C 54.4596 1.91598 0.642999 0
M  V30 576 C 54.7806 0.910847 1.7242 0
M  V30 577 O 54.0506 -0.0469931 1.95844 0
M  V30 578 H 52.6306 0.707228 0.240496 0
M  V30 579 H 55.2926 1.94726 -0.0822488 0
M  V30 580 H 54.3886 2.92336 1.09298 0
M  V30 581 N 54.6897 -0.239769 1.55765 0
M  V30 582 C 55.9377 -0.964892 1.77579 0
M  V30 583 C 56.2587 -1.85582 0.598699 0
M  V30 584 O 55.5287 -1.92075 -0.385226 0
M  V30 585 H 54.1087 -0.359265 0.654933 0
M  V30 586 H 56.7707 -0.256001 1.93211 0
M  V30 587 H 55.8667 -1.58243 2.69009 0
M  V30 588 N 56.1678 -1.49265 -0.50573 0
M  V30 589 C 57.4158 -1.582 -1.25766 0
M  V30 590 C 57.7368 -0.268482 -1.93143 0
M  V30 591 O 57.0068 0.711833 -1.8251 0
M  V30 592 H 55.5868 -0.582873 -0.467191 0
M  V30 593 H 58.2488 -1.85865 -0.586525 0
M  V30 594 H 57.3448 -2.37563 -2.02412 0
M  V30 595 N 57.6459 0.756429 -1.3826 0
M  V30 596 C 58.8939 1.51248 -1.34047 0
M  V30 597 C 59.2149 1.94875 0.0698372 0
M  V30 598 O 58.4849 1.67436 1.01696 0
M  V30 599 H 57.0649 0.561018 -0.493222 0
M  V30 600 H 59.7269 0.899347 -1.7291 0
M  V30 601 H 58.8229 2.40472 -1.98947 0
M  V30 602 N 59.124 1.23083 0.984299 0
M  V30 603 C 60.372 1.05848 1.72165 0
M  V30 604 C 60.693 -0.406049 1.90726 0
M  V30 605 O 59.963 -1.29139 1.47309 0
M  V30 606 H 58.543 0.388685 0.637913 0
M  V30 607 H 61.205 1.54736 1.18503 0
M  V30 608 H 60.301 1.54327 2.71274 0
M  V30 609 N 60.6021 -1.18246 1.0419 0
M  V30 610 C 61.8271 -1.92736 0.765996 0
M  V30 611 C 62.2521 -1.75728 -0.67091 0
M  V30 612 O 61.6101 -1.06825 -1.46486 0
M  V30 613 C 61.6581 -3.42148 1.13875 0
M  V30 614 O 60.7621 -4.11548 0.264954 0
M  V30 615 H 60.1031 -0.601238 0.281797 0
M  V30 616 H 62.6331 -1.49942 1.39207 0
M  V30 617 H 62.6431 -3.92858 1.1012 0
M  V30 618 H 61.3181 -3.53848 2.18551 0
M  V30 619 H 59.8951 -3.71137 0.362226 0
M  V30 620 N 62.0802 -0.821533 -1.34494 0
M  V30 621 C 63.3572 -0.33159 -1.92769 0
M  V30 622 C 63.7372 1.18088 -1.74981 0
M  V30 623 O 63.0852 1.98733 -1.12772 0
M  V30 624 C 63.2952 -0.759398 -3.40638 0
M  V30 625 C 64.6432 -0.757433 -4.1779 0
M  V30 626 O 65.6672 -0.70189 -3.49216 0
M  V30 627 O 64.5262 -0.829361 -5.4017 0
M  V30 628 H 61.6202 -0.0902502 -0.822061 0
M  V30 629 H 64.1662 -0.906231 -1.43477 0
M  V30 630 H 62.9382 -1.8012 -3.47379 0
M  V30 631 H 62.5612 -0.160378 -3.97276 0
M  V30 632 N 63.5583 1.46682 -0.576371 0
M  V30 633 C 64.9693 1.86112 -0.148091 0
M  V30 634 C 65.3203 1.48073 1.2872 0
M  V30 635 O 64.4453 0.892656 1.97131 0
M  V30 636 C 65.0403 3.37786 -0.261982 0
M  V30 637 C 63.5993 3.76235 0.111384 0
M  V30 638 C 62.7463 2.70713 -0.60083 0
M  V30 639 H 65.6973 1.37927 -0.78497 0
M  V30 640 H 65.7183 3.77007 0.514364 0
M  V30 641 H 65.2303 3.6544 -1.30671 0
M  V30 642 H 63.3313 3.54198 1.15649 0
M  V30 643 H 63.4443 4.78391 -0.26052 0
M  V30 644 H 61.8083 2.54666 -0.0417783 0
M  V30 645 H 62.5913 3.01208 -1.64708 0
M  V30 646 N 65.0364 0.313813 1.54444 0
M  V30 647 C 66.2844 -0.291099 1.99993 0
M  V30 648 C 66.6054 -1.53418 1.20366 0
M  V30 649 O 65.8754 -1.93544 0.302927 0
M  V30 650 H 64.4554 -0.110552 0.738774 0
M  V30 651 H 67.1174 0.428106 1.9014 0
M  V30 652 H 66.2134 -0.554268 3.07139 0
M  V30 653 N 66.5145 -1.57545 0.0417849 0
M  V30 654 C 67.4245 -2.14451 -0.951213 0
M  V30 655 C 68.4405 -1.09992 -1.34825 0
M  V30 656 O 69.6165 -1.42114 -1.42708 0
M  V30 657 C 66.6815 -2.67063 -2.21084 0
M  V30 658 C 65.7425 -3.86284 -1.87304 0
M  V30 659 C 64.9755 -4.36378 -3.07261 0
M  V30 660 O 65.1985 -3.85587 -4.20332 0
M  V30 661 O 64.1325 -5.28077 -2.88822 0
M  V30 662 H 67.9585 -2.99601 -0.497287 0
M  V30 663 H 65.5435 -1.48317 -0.179567 0
M  V30 664 H 67.4255 -3.00914 -2.95006 0
M  V30 665 H 66.1005 -1.84989 -2.65633 0
M  V30 666 H 65.0075 -3.57338 -1.10727 0
M  V30 667 H 66.3405 -4.6956 -1.47562 0
M  V30 668 N 67.9926 0.231505 -1.5589 0
M  V30 669 C 68.9556 1.27028 -1.90779 0
M  V30 670 C 69.9556 1.40308 -0.785507 0
M  V30 671 O 71.1456 1.38744 -1.05336 0
M  V30 672 C 68.2776 2.64566 -2.14983 0
M  V30 673 H 69.4706 0.973017 -2.83677 0
M  V30 674 H 67.0236 0.471486 -1.49019 0
M  V30 675 H 67.7586 2.99406 -1.24604 0
M  V30 676 H 67.5436 2.56305 -2.96732 0
M  V30 677 H 69.0336 3.39543 -2.43105 0
M  V30 678 N 69.4707 1.49531 0.497807 0
M  V30 679 C 70.8817 1.52344 1.07927 0
M  V30 680 C 71.2327 0.311469 1.93712 0
M  V30 681 O 70.3577 -0.578405 2.08527 0
M  V30 682 C 70.9527 2.76062 1.96405 0
M  V30 683 C 69.5117 2.81643 2.49709 0
M  V30 684 C 68.6587 2.46299 1.27404 0
M  V30 685 H 71.6097 1.56182 0.281576 0
M  V30 686 H 71.6307 2.56405 2.81135 0
M  V30 687 H 71.1427 3.64254 1.33943 0
M  V30 688 H 69.2437 1.97739 3.15801 0
M  V30 689 H 69.3567 3.83891 2.86643 0
M  V30 690 H 67.7207 1.98148 1.60029 0
M  V30 691 H 68.5037 3.36769 0.66645 0
M  V30 692 N 70.9488 -0.749086 1.3866 0
M  V30 693 C 72.1768 -1.53834 1.38358 0
M  V30 694 C 72.5918 -1.88783 -0.0255219 0
M  V30 695 O 71.9488 -1.53101 -0.993292 0
M  V30 696 C 71.9998 -2.83468 2.2434 0
M  V30 697 O 71.7208 -2.50008 3.5976 0
M  V30 698 C 73.2218 -3.7758 2.32267 0
M  V30 699 H 70.4418 -0.47585 0.473083 0
M  V30 700 H 72.9858 -0.926726 1.82297 0
M  V30 701 H 71.1408 -3.40995 1.83851 0
M  V30 702 H 71.5548 -3.33182 4.05081 0
M  V30 703 H 73.0288 -4.65478 2.96706 0
M  V30 704 H 73.5058 -4.18334 1.33765 0
M  V30 705 H 74.1118 -3.25976 2.73166 0
M  V30 706 N 72.4269 -1.23603 -0.977757 0
M  V30 707 C 73.8429 -0.999251 -1.24447 0
M  V30 708 C 74.0429 0.298053 -1.99283 0
M  V30 709 O 73.0989 1.01681 -2.31122 0
M  V30 710 C 74.4119 -2.20784 -2.04144 0
M  V30 711 C 75.9599 -2.25303 -2.17273 0
M  V30 712 C 76.4349 -3.45755 -3.00362 0
M  V30 713 N 77.9259 -3.4601 -3.07947 0
M  V30 714 C 78.6609 -4.35868 -3.72568 0
M  V30 715 N 78.1569 -5.35966 -4.38991 0
M  V30 716 N 79.9499 -4.23605 -3.6948 0
M  V30 717 H 72.1009 -2.06986 -0.476483 0
M  V30 718 H 74.3639 -0.907801 -0.273134 0
M  V30 719 H 74.0699 -3.14945 -1.56533 0
M  V30 720 H 73.9439 -2.22085 -3.04891 0
M  V30 721 H 76.3309 -1.3168 -2.64092 0
M  V30 722 H 76.4119 -2.28033 -1.15907 0
M  V30 723 H 76.0559 -4.39687 -2.5424 0
M  V30 724 H 75.9859 -3.40266 -4.01904 0
M  V30 725 H 78.4769 -2.73588 -2.60688 0
M  V30 726 H 78.7899 -6.00783 -4.86086 0
M  V30 727 H 77.1349 -5.39863 -4.37691 0
M  V30 728 H 80.3259 -3.44647 -3.16759 0
M  V30 729 H 80.4989 -4.93836 -4.1956 0
M  V30 730 N 73.905 1.17692 -1.04816 0
M  V30 731 C 74.868 2.19787 -0.650117 0
M  V30 732 C 75.868 1.58044 0.296427 0
M  V30 733 O 77.058 1.74012 0.0808097 0
M  V30 734 C 74.19 3.40869 0.0456987 0
M  V30 735 H 75.383 2.56516 -1.5537 0
M  V30 736 H 72.936 1.31708 -0.841594 0
M  V30 737 H 73.671 3.09681 0.962726 0
M  V30 738 H 73.456 3.86928 -0.634727 0
M  V30 739 H 74.946 4.16445 0.310432 0
M  V30 740 N 75.3831 0.828654 1.34056 0
M  V30 741 C 76.3461 0.259927 2.27721 0
M  V30 742 C 77.3461 -0.565478 1.50529 0
M  V30 743 O 78.5361 -0.38075 1.69988 0
M  V30 744 C 75.6681 -0.634944 3.34935 0
M  V30 745 H 76.8611 1.0863 2.79534 0
M  V30 746 H 74.4141 0.600951 1.44285 0
M  V30 747 H 75.1491 -1.48416 2.88346 0
M  V30 748 H 74.9341 -0.0444999 3.92075 0
M  V30 749 H 76.4241 -1.02648 4.04788 0
M  V30 750 N 76.8612 -1.46375 0.584142 0
M  V30 751 C 78.2722 -1.86031 0.157959 0
M  V30 752 C 78.6232 -1.48753 -1.27933 0
M  V30 753 O 77.7482 -0.903098 -1.96655 0
M  V30 754 C 78.3432 -3.37642 0.279892 0
M  V30 755 C 76.9022 -3.76289 -0.09143 0
M  V30 756 C 76.0492 -2.7039 0.615178 0
M  V30 757 H 79.0002 -1.37509 0.792274 0
M  V30 758 H 79.0212 -3.77275 -0.494364 0
M  V30 759 H 78.5332 -3.64742 1.32607 0
M  V30 760 H 76.6342 -3.54806 -1.13769 0
M  V30 761 H 76.7472 -4.78246 0.285886 0
M  V30 762 H 75.1112 -2.5464 0.0552833 0
M  V30 763 H 75.8942 -3.0033 1.66303 0
M  V30 764 N 78.3393 -0.321999 -1.54275 0
M  V30 765 C 79.5873 0.280489 -2.00144 0
M  V30 766 C 79.9083 1.52777 -1.21178 0
M  V30 767 O 79.1783 1.9338 -0.313187 0
M  V30 768 H 77.7583 0.106632 -0.73935 0
M  V30 769 H 80.4203 -0.438184 -1.8991 0
M  V30 770 H 79.5163 0.537972 -3.07428 0
M  V30 771 N 79.8174 1.5752 -0.0501392 0
M  V30 772 C 80.7274 2.14952 0.939827 0
M  V30 773 C 81.7434 1.10706 1.34239 0
M  V30 774 O 82.9194 1.42869 1.41952 0
M  V30 775 C 79.9844 2.68232 2.19665 0
M  V30 776 C 79.0454 3.87272 1.85253 0
M  V30 777 C 78.2784 4.38002 3.04943 0
M  V30 778 O 78.5014 3.87811 4.18281 0
M  V30 779 O 77.4354 5.29602 2.86017 0
M  V30 780 H 81.2614 2.9986 0.481392 0
M  V30 781 H 78.8464 1.4841 0.171699 0
M  V30 782 H 80.7284 3.02475 2.93406 0
M  V30 783 H 79.4034 1.86395 2.64648 0
M  V30 784 H 78.3104 3.5792 1.0883 0
M  V30 785 H 79.6434 4.70336 1.4507 0
M  V30 786 N 81.2955 -0.223234 1.56011 0
M  V30 787 C 82.2255 -1.27988 1.95298 0
M  V30 788 C 83.2065 -1.48976 0.820979 0
M  V30 789 O 84.3915 -1.61188 1.08315 0
M  V30 790 C 81.5215 -2.63 2.26822 0
M  V30 791 C 80.4755 -2.56671 3.42497 0
M  V30 792 C 79.8015 -3.95697 3.59622 0
M  V30 793 C 81.1015 -2.11601 4.77517 0
M  V30 794 H 82.7955 -0.953525 2.8381 0
M  V30 795 H 80.3415 -0.457244 1.36548 0
M  V30 796 H 82.2945 -3.37077 2.52898 0
M  V30 797 H 81.0185 -2.9732 1.35161 0
M  V30 798 H 79.6775 -1.85051 3.16467 0
M  V30 799 H 79.3255 -4.27322 2.6534 0
M  V30 800 H 79.0255 -3.92345 4.37424 0
M  V30 801 H 80.5495 -4.71438 3.88044 0
M  V30 802 H 81.9635 -2.7542 5.02809 0
M  V30 803 H 80.3605 -2.19311 5.5859 0
M  V30 804 H 81.4305 -1.06824 4.72987 0
M  V30 805 N 82.7736 -1.49793 -0.48987 0
M  V30 806 C 84.1896 -1.36803 -0.822022 0
M  V30 807 C 84.3896 -0.409652 -1.97292 0
M  V30 808 O 83.4456 0.154614 -2.52026 0
M  V30 809 C 84.7586 -2.77768 -1.15175 0
M  V30 810 C 86.3066 -2.86549 -1.25931 0
M  V30 811 C 86.7816 -4.28306 -1.62228 0
M  V30 812 N 88.2726 -4.31169 -1.69256 0
M  V30 813 C 89.0076 -5.37832 -1.98807 0
M  V30 814 N 88.5036 -6.54726 -2.26507 0
M  V30 815 N 90.2966 -5.25258 -2.00152 0
M  V30 816 H 82.4476 -2.10691 0.268881 0
M  V30 817 H 84.7106 -0.946241 0.057728 0
M  V30 818 H 84.4166 -3.49648 -0.379335 0
M  V30 819 H 84.2906 -3.13836 -2.09253 0
M  V30 820 H 86.6776 -2.14899 -2.02243 0
M  V30 821 H 86.7586 -2.54049 -0.298776 0
M  V30 822 H 86.4026 -5.00486 -0.864622 0
M  V30 823 H 86.3326 -4.58279 -2.594 0
M  V30 824 H 88.8236 -3.4687 -1.49965 0
M  V30 825 H 89.1366 -7.31833 -2.48276 0
M  V30 826 H 87.4816 -6.57933 -2.23939 0
M  V30 827 H 90.6726 -4.32938 -1.77996 0
M  V30 828 H 90.8456 -6.08476 -2.22848 0
M  V30 829 N 84.2517 0.741722 -1.39055 0
M  V30 830 C 85.4767 1.53607 -1.39354 0
M  V30 831 C 85.9017 1.88096 0.0116905 0
M  V30 832 O 85.2597 1.5143 0.996924 0
M  V30 833 C 85.3077 2.80441 -2.26682 0
M  V30 834 O 84.4117 3.76088 -1.69208 0
M  V30 835 H 83.7527 0.464142 -0.474835 0
M  V30 836 H 86.2827 0.915665 -1.82967 0
M  V30 837 H 86.2927 3.29246 -2.40959 0
M  V30 838 H 84.9677 2.5467 -3.2881 0
M  V30 839 H 83.5447 3.34833 -1.64138 0
M  V30 840 N 85.7298 1.2412 0.971189 0
M  V30 841 C 86.6928 1.03156 2.04674 0
M  V30 842 C 87.6928 -0.00990322 1.60797 0
M  V30 843 O 88.8828 0.230729 1.72665 0
M  V30 844 C 86.0148 0.562765 3.36223 0
M  V30 845 H 87.2078 1.98614 2.24705 0
M  V30 846 H 84.7608 1.06293 1.14593 0
M  V30 847 H 85.4958 -0.395176 3.21883 0
M  V30 848 H 85.2808 1.31441 3.69413 0
M  V30 849 H 86.7708 0.437015 4.15307 0
M  V30 850 N 87.2079 -1.17134 1.05439 0
M  V30 851 C 88.6239 -1.39454 0.776201 0
M  V30 852 C 88.8239 -1.91454 -0.628307 0
M  V30 853 O 87.8799 -2.10777 -1.39031 0
M  V30 854 C 89.1929 -2.38305 1.83388 0
M  V30 855 C 90.7409 -2.52006 1.85639 0
M  V30 856 C 91.2159 -3.54133 2.90437 0
M  V30 857 N 92.7069 -3.61653 2.89415 0
M  V30 858 C 93.4419 -4.4044 3.67152 0
M  V30 859 N 92.9379 -5.22721 4.54681 0
M  V30 860 N 94.7309 -4.35337 3.55581 0
M  V30 861 H 86.8819 -0.817134 1.96053 0
M  V30 862 H 89.1449 -0.421626 0.849079 0
M  V30 863 H 88.8509 -2.07173 2.84204 0
M  V30 864 H 88.7249 -3.37841 1.67761 0
M  V30 865 H 91.1119 -2.82447 0.85486 0
M  V30 866 H 91.1929 -1.52537 2.05344 0
M  V30 867 H 90.8369 -3.24431 3.90777 0
M  V30 868 H 90.7669 -4.53313 2.67983 0
M  V30 869 H 93.2579 -3.02909 2.25952 0
M  V30 870 H 93.5709 -5.80027 5.10674 0
M  V30 871 H 91.9159 -5.22093 4.58741 0
M  V30 872 H 95.1069 -3.70112 2.86592 0
M  V30 873 H 95.2799 -4.96494 4.1641 0
M  V30 874 N 88.686 -0.835752 -1.33615 0
M  V30 875 C 89.934 -0.429109 -1.97492 0
M  V30 876 C 90.255 1.01433 -1.66543 0
M  V30 877 O 89.525 1.70611 -0.962744 0
M  V30 878 H 88.105 -0.155686 -0.730596 0
M  V30 879 H 90.767 -1.06802 -1.63031 0
M  V30 880 H 89.863 -0.55861 -3.0706 0
M  V30 881 N 90.1641 1.46063 -0.591896 0
M  V30 882 C 91.5751 1.85944 -0.167822 0
M  V30 883 C 91.9261 1.49429 1.27143 0
M  V30 884 O 91.0511 0.913515 1.96173 0
M  V30 885 C 91.6461 3.37489 -0.297794 0
M  V30 886 C 90.2051 3.76332 0.0714732 0
M  V30 887 C 89.3521 2.7006 -0.629509 0
M  V30 888 H 92.3031 1.37087 -0.799555 0
M  V30 889 H 92.3241 3.77532 0.474349 0
M  V30 890 H 91.8361 3.64034 -1.3454 0
M  V30 891 H 89.9371 3.55405 1.11886 0
M  V30 892 H 90.0501 4.78088 -0.311245 0
M  V30 893 H 88.4141 2.54607 -0.0687867 0
M  V30 894 H 89.1971 2.99444 -1.67894 0
M  V30 895 N 91.6422 0.330177 1.54103 0
M  V30 896 C 92.5722 -0.525353 2.27513 0
M  V30 897 C 93.5532 -1.11383 1.2856 0
M  V30 898 O 94.7382 -1.13773 1.57383 0
M  V30 899 C 91.8682 -1.6831 3.03791 0
M  V30 900 C 90.8222 -1.2236 4.10137 0
M  V30 901 C 90.1482 -2.46882 4.74293 0
M  V30 902 C 91.4482 -0.333697 5.21233 0
M  V30 903 H 93.1422 0.087013 2.99274 0
M  V30 904 H 90.6882 0.0432893 1.43935 0
M  V30 905 H 92.6412 -2.28795 3.5388 0
M  V30 906 H 91.3652 -2.32216 2.29659 0
M  V30 907 H 90.0242 -0.64165 3.60941 0
M  V30 908 H 89.6722 -3.09165 3.96769 0
M  V30 909 H 89.3722 -2.16825 5.46133 0
M  V30 910 H 90.8962 -3.08117 5.27159 0
M  V30 911 H 92.3102 -0.845013 5.67038 0
M  V30 912 H 90.7072 -0.125612 5.99969 0
M  V30 913 H 91.7772 0.633724 4.80741 0
M  V30 914 N 93.1203 -1.57491 0.0584922 0
M  V30 915 C 94.3453 -1.97711 -0.62652 0
M  V30 916 C 94.7703 -0.936132 -1.63151 0
M  V30 917 O 94.1283 0.099811 -1.81025 0
M  V30 918 C 94.1763 -3.36989 -1.28338 0
M  V30 919 O 93.2803 -3.35433 -2.39913 0
M  V30 920 H 92.6213 -0.643868 -0.162266 0
M  V30 921 H 95.1513 -2.04193 0.129064 0
M  V30 922 H 95.1613 -3.73879 -1.63335 0
M  V30 923 H 93.8363 -4.12289 -0.546889 0
M  V30 924 H 92.4133 -3.10298 -2.06809 0
M  V30 925 N 94.5984 0.214957 -1.56127 0
M  V30 926 C 95.8234 0.95924 -1.83884 0
M  V30 927 C 96.2484 1.7689 -0.639644 0
M  V30 928 O 95.6064 1.76566 0.411601 0
M  V30 929 C 95.6544 1.84723 -3.09693 0
M  V30 930 O 94.7584 2.94346 -2.8885 0
M  V30 931 H 94.0994 0.27125 -0.606069 0
M  V30 932 H 96.6294 0.226276 -2.03345 0
M  V30 933 H 96.6394 2.25576 -3.39969 0
M  V30 934 H 95.3144 1.25218 -3.96602 0
M  V30 935 H 93.8914 2.57391 -2.69823 0
M  V30 936 N 96.0765 1.50051 0.48192 0
M  V30 937 C 97.0395 1.67584 1.5636 0
M  V30 938 C 98.0395 0.546894 1.51214 0
M  V30 939 O 99.2295 0.813725 1.54026 0
M  V30 940 C 96.3615 1.691 2.96003 0
M  V30 941 H 97.5545 2.64078 1.42136 0
M  V30 942 H 95.1075 1.39369 0.707533 0
M  V30 943 H 95.8425 0.742589 3.15684 0
M  V30 944 H 95.6275 2.51105 3.01146 0
M  V30 945 H 97.1175 1.84656 3.74556 0
M  V30 946 N 97.5546 -0.734337 1.39446 0
M  V30 947 C 98.9656 -1.31264 1.32766 0
M  V30 948 C 99.3166 -1.96198 -0.00767497 0
M  V30 949 O 98.4416 -1.96346 -0.909796 0
M  V30 950 C 99.0366 -2.38682 2.4045 0
M  V30 951 C 97.5956 -2.92184 2.37288 0
M  V30 952 C 96.7426 -1.6576 2.22304 0
M  V30 953 H 99.6936 -0.531799 1.49525 0
M  V30 954 H 99.7146 -3.19087 2.07276 0
M  V30 955 H 99.2266 -1.91392 3.37625 0
M  V30 956 H 97.3276 -3.43752 1.43754 0
M  V30 957 H 97.4406 -3.45253 3.3217 0
M  V30 958 H 95.8046 -1.9012 1.69489 0
M  V30 959 H 96.5876 -1.20521 3.21449 0
M  V30 960 N 99.0327 -1.24633 -0.964593 0
M  V30 961 C 99.9427 -1.05859 -2.09359 0
M  V30 962 C 100.959 0.00148855 -1.74 0
M  V30 963 O 102.135 -0.197346 -2.00431 0
M  V30 964 C 99.1997 -0.668879 -3.40187 0
M  V30 965 C 98.2607 -1.80578 -3.89474 0
M  V30 966 C 97.4937 -1.43457 -5.14058 0
M  V30 967 O 97.7167 -0.325775 -5.69469 0
M  V30 968 O 96.6507 -2.2613 -5.57807 0
M  V30 969 H 100.477 -2.00516 -2.28094 0
M  V30 970 H 98.0617 -1.03481 -1.0776 0
M  V30 971 H 99.9437 -0.463211 -4.18846 0
M  V30 972 H 98.6187 0.248536 -3.22744 0
M  V30 973 H 97.5257 -2.06623 -3.11862 0
M  V30 974 H 98.8587 -2.70208 -4.11398 0
M  V30 975 N 100.511 1.16574 -1.06058 0
M  V30 976 C 101.76 1.86385 -0.770944 0
M  V30 977 C 102.073 1.82448 0.705129 0
M  V30 978 O 103.279 2.47815 1.10905 0
M  V30 979 C 101.735 3.34466 -1.32893 0
M  V30 980 C 101.343 3.46883 -2.83507 0
M  V30 981 C 103.087 4.09548 -1.11672 0
M  V30 982 C 100.994 4.89036 -3.32562 0
M  V30 983 H 99.9238 0.698181 -0.284709 0
M  V30 984 H 102.575 1.31583 -1.27899 0
M  V30 985 H 100.957 3.88859 -0.748662 0
M  V30 986 H 102.131 3.02663 -3.47465 0
M  V30 987 H 100.446 2.85232 -3.03368 0
M  V30 988 H 103.043 5.14434 -1.45814 0
M  V30 989 H 103.386 4.16264 -0.0549535 0
M  V30 990 H 103.919 3.61387 -1.66265 0
M  V30 991 H 100.658 4.87499 -4.38207 0
M  V30 992 H 100.178 5.3389 -2.73351 0
M  V30 993 H 101.857 5.57843 -3.2775 0
M  V30 994 N 101.989 0.842826 1.3317 0
M  V30 995 C 103.235 0.441099 1.97945 0
M  V30 996 C 103.568 -0.998024 1.66593 0
M  V30 997 O 102.843 -1.69839 0.947898 0
M  V30 998 C 103.126 0.666841 3.53872 0
M  V30 999 C 102.979 2.15352 3.94897 0
M  V30 1000 C 104.298 0.115544 4.39948 0
M  V30 1001 H 101.417 0.161739 0.719034 0
M  V30 1002 H 104.059 1.05907 1.57746 0
M  V30 1003 H 102.209 0.140828 3.88245 0
M  V30 1004 H 103.881 2.7447 3.70761 0
M  V30 1005 H 102.124 2.63653 3.44484 0
M  V30 1006 H 102.795 2.26221 5.03516 0
M  V30 1007 H 105.271 0.565213 4.12243 0
M  V30 1008 H 104.147 0.303152 5.48062 0
M  V30 1009 H 104.408 -0.980935 4.3108 0
M  V30 1010 N 103.467 -1.45747 0.599634 0
M  V30 1011 C 104.417 -2.27538 -0.145107 0
M  V30 1012 C 105.401 -1.3686 -0.846055 0
M  V30 1013 O 106.593 -1.6091 -0.737357 0
M  V30 1014 C 103.722 -3.23569 -1.14708 0
M  V30 1015 C 102.808 -4.21734 -0.447383 0
M  V30 1016 N 103.199 -5.03257 0.506535 0
M  V30 1017 C 101.497 -4.40536 -0.695966 0
M  V30 1018 C 102.198 -5.74426 0.917068 0
M  V30 1019 N 101.174 -5.42966 0.26253 0
M  V30 1020 H 104.976 -2.87965 0.587672 0
M  V30 1021 H 102.49 -1.56803 0.422697 0
M  V30 1022 H 104.487 -3.8089 -1.69495 0
M  V30 1023 H 103.147 -2.64702 -1.8805 0
M  V30 1024 H 104.158 -5.10319 0.882899 0
M  V30 1025 H 100.835 -3.92802 -1.41467 0
M  V30 1026 H 102.225 -6.4995 1.70338 0
M  V30 1027 N 104.945 -0.338344 -1.53925 0
M  V30 1028 C 105.855 0.529421 -2.28548 0
M  V30 1029 C 106.871 1.11645 -1.3346 0
M  V30 1030 O 108.047 1.13325 -1.66492 0
M  V30 1031 C 105.112 1.66713 -3.03987 0
M  V30 1032 C 104.173 1.11041 -4.14691 0
M  V30 1033 C 103.406 2.19389 -4.86522 0
M  V30 1034 O 103.629 3.40013 -4.57982 0
M  V30 1035 O 102.563 1.83976 -5.73094 0
M  V30 1036 H 106.389 -0.0770399 -3.03602 0
M  V30 1037 H 103.974 -0.103555 -1.49041 0
M  V30 1038 H 105.856 2.32918 -3.5118 0
M  V30 1039 H 104.531 2.25949 -2.31794 0
M  V30 1040 H 103.438 0.413024 -3.71813 0
M  V30 1041 H 104.771 0.562975 -4.8897 0
M  V30 1042 N 106.423 1.57458 -0.0668435 0
M  V30 1043 C 107.7 1.8469 0.644132 0
M  V30 1044 C 108.08 0.958343 1.88093 0
M  V30 1045 O 107.428 0.0233579 2.28488 0
M  V30 1046 C 107.638 3.34767 0.986509 0
M  V30 1047 C 108.986 4.02159 1.36212 0
M  V30 1048 O 110.01 3.39484 1.07839 0
M  V30 1049 O 108.869 5.12694 1.89227 0
M  V30 1050 H 105.963 0.762816 0.319437 0
M  V30 1051 H 108.509 1.6942 -0.0973986 0
M  V30 1052 H 107.281 3.91151 0.107883 0
M  V30 1053 H 106.904 3.55281 1.78497 0
M  V30 1054 N 107.901 -0.206675 1.56239 0
M  V30 1055 C 108.831 -1.25909 1.96645 0
M  V30 1056 C 109.812 -1.48097 0.836734 0
M  V30 1057 O 110.997 -1.6003 1.10019 0
M  V30 1058 C 108.127 -2.6058 2.29599 0
M  V30 1059 C 107.081 -2.53024 3.452 0
M  V30 1060 C 106.407 -3.91861 3.63798 0
M  V30 1061 C 107.707 -2.06524 4.79734 0
M  V30 1062 H 109.401 -0.923369 2.84806 0
M  V30 1063 H 106.947 -0.442735 1.37025 0
M  V30 1064 H 108.9 -3.34375 2.56459 0
M  V30 1065 H 107.624 -2.95869 1.38307 0
M  V30 1066 H 106.283 -1.81684 3.18412 0
M  V30 1067 H 105.931 -4.24483 2.69857 0
M  V30 1068 H 105.631 -3.87683 4.4156 0
M  V30 1069 H 107.155 -4.67296 3.93022 0
M  V30 1070 H 108.569 -2.70072 5.05702 0
M  V30 1071 H 106.966 -2.13374 5.60885 0
M  V30 1072 H 108.036 -1.01802 4.74093 0
M  V30 1073 N 109.379 -1.50304 -0.473955 0
M  V30 1074 C 110.326 -1.68959 -1.57231 0
M  V30 1075 C 111.296 -0.530899 -1.57387 0
M  V30 1076 O 112.481 -0.761133 -1.74961 0
M  V30 1077 C 109.621 -1.7871 -2.95223 0
M  V30 1078 C 108.734 -3.06061 -3.04878 0
M  V30 1079 C 107.869 -3.06626 -4.33767 0
M  V30 1080 C 106.908 -4.28443 -4.37154 0
M  V30 1081 N 106.045 -4.26763 -5.5751 0
M  V30 1082 H 110.885 -2.6273 -1.40631 0
M  V30 1083 H 108.422 -1.30241 -0.683789 0
M  V30 1084 H 110.38 -1.82344 -3.75242 0
M  V30 1085 H 109.01 -0.883806 -3.10465 0
M  V30 1086 H 108.062 -3.11911 -2.17751 0
M  V30 1087 H 109.374 -3.96039 -3.0324 0
M  V30 1088 H 108.528 -3.08973 -5.22131 0
M  V30 1089 H 107.267 -2.14473 -4.3801 0
M  V30 1090 H 106.272 -4.2631 -3.47188 0
M  V30 1091 H 107.497 -5.2182 -4.34605 0
M  V30 1092 H 105.443 -3.37462 -5.62544 0
M  V30 1093 H 105.36 -5.10507 -5.57601 0
M  V30 1094 H 106.628 -4.33253 -6.48006 0
M  V30 1095 N 110.857 0.726932 -1.39834 0
M  V30 1096 C 111.79 1.8501 -1.33592 0
M  V30 1097 C 112.768 1.61262 -0.208191 0
M  V30 1098 O 113.952 1.84422 -0.389981 0
M  V30 1099 C 111.079 3.21143 -1.07633 0
M  V30 1100 C 110.125 3.63737 -2.22705 0
M  V30 1101 S 110.958 3.72167 -3.85035 0
M  V30 1102 C 112.114 5.11077 -3.61318 0
M  V30 1103 H 112.347 1.90022 -2.28646 0
M  V30 1104 H 109.88 0.892595 -1.25985 0
M  V30 1105 H 111.838 3.99747 -0.933415 0
M  V30 1106 H 110.499 3.13776 -0.142526 0
M  V30 1107 H 109.692 4.62551 -2.00155 0
M  V30 1108 H 109.294 2.9236 -2.33242 0
M  V30 1109 H 111.586 5.97656 -3.19083 0
M  V30 1110 H 112.529 5.38658 -4.59623 0
M  V30 1111 H 112.937 4.81135 -2.95245 0
M  V30 1112 N 112.336 1.25143 0.95797 0
M  V30 1113 C 113.584 1.09476 1.69881 0
M  V30 1114 C 113.905 -0.365502 1.91544 0
M  V30 1115 O 113.175 -1.25985 1.50015 0
M  V30 1116 H 111.755 0.402128 0.629525 0
M  V30 1117 H 114.417 1.57214 1.15194 0
M  V30 1118 H 113.513 1.60046 2.6794 0
M  V30 1119 N 113.814 -1.1601 1.06675 0
M  V30 1120 C 115.039 -1.91068 0.806706 0
M  V30 1121 C 115.464 -1.77112 -0.633485 0
M  V30 1122 O 114.822 -1.09908 -1.44187 0
M  V30 1123 C 114.87 -3.39655 1.21106 0
M  V30 1124 O 113.974 -4.10893 0.352189 0
M  V30 1125 H 113.315 -0.595125 0.294486 0
M  V30 1126 H 115.845 -1.46955 1.42356 0
M  V30 1127 H 115.855 -3.90434 1.18428 0
M  V30 1128 H 114.53 -3.49132 2.26008 0
M  V30 1129 H 113.107 -3.70285 0.440868 0
M  V30 1130 N 115.292 -0.849877 -1.32721 0
M  V30 1131 C 116.569 -0.372405 -1.92022 0
M  V30 1132 C 116.949 1.1435 -1.77447 0
M  V30 1133 O 116.297 1.96296 -1.16962 0
M  V30 1134 C 116.507 -0.831482 -3.3895 0
M  V30 1135 C 117.855 -0.845882 -4.16089 0
M  V30 1136 O 118.879 -0.775806 -3.47649 0
M  V30 1137 O 117.738 -0.943753 -5.38289 0
M  V30 1138 H 114.832 -0.107667 -0.819961 0
M  V30 1139 H 117.378 -0.93646 -1.41522 0
M  V30 1140 H 116.15 -1.87448 -3.4348 0
M  V30 1141 H 115.773 -0.24461 -3.96847 0
M  V30 1142 N 116.77 1.45427 -0.607355 0
M  V30 1143 C 118.018 2.01841 -0.102253 0
M  V30 1144 C 118.339 1.47832 1.27164 0
M  V30 1145 O 117.609 0.672497 1.83995 0
M  V30 1146 H 116.189 0.746188 -0.0348101 0
M  V30 1147 H 118.851 1.78229 -0.7887 0
M  V30 1148 H 117.947 3.12057 -0.0518585 0
M  V30 1149 N 118.248 0.346503 1.53744 0
M  V30 1150 C 119.158 -0.517293 2.28826 0
M  V30 1151 C 120.174 -1.10935 1.3405 0
M  V30 1152 O 121.35 -1.1244 1.6709 0
M  V30 1153 C 118.415 -1.65098 3.04866 0
M  V30 1154 C 117.476 -1.0884 4.15274 0
M  V30 1155 C 116.709 -2.16806 4.87679 0
M  V30 1156 O 116.932 -3.3758 4.59778 0
M  V30 1157 O 115.866 -1.80934 5.74061 0
M  V30 1158 H 119.692 0.0931396 3.03557 0
M  V30 1159 H 117.277 0.111458 1.48984 0
M  V30 1160 H 119.159 -2.31053 3.5241 0
M  V30 1161 H 117.834 -2.24717 2.32989 0
M  V30 1162 H 116.741 -0.3933 3.72027 0
M  V30 1163 H 118.074 -0.537036 4.89261 0
M  V30 1164 N 119.726 -1.57421 0.075193 0
M  V30 1165 C 120.951 -1.98364 -0.605515 0
M  V30 1166 C 121.376 -0.953383 -1.62149 0
M  V30 1167 O 120.734 0.0806053 -1.81121 0
M  V30 1168 C 120.782 -3.38332 -1.24756 0
M  V30 1169 O 119.886 -3.37959 -2.36342 0
M  V30 1170 H 119.227 -0.645553 -0.155428 0
M  V30 1171 H 121.757 -2.04044 0.150714 0
M  V30 1172 H 121.767 -3.75591 -1.5936 0
M  V30 1173 H 120.442 -4.12846 -0.503129 0
M  V30 1174 H 119.019 -3.12474 -2.03506 0
M  V30 1175 N 121.204 0.198386 -1.56346 0
M  V30 1176 C 122.481 0.944982 -1.71258 0
M  V30 1177 C 122.861 2.0151 -0.629048 0
M  V30 1178 O 122.209 2.25639 0.360473 0
M  V30 1179 C 122.419 1.5344 -3.1346 0
M  V30 1180 C 123.767 2.01778 -3.73591 0
M  V30 1181 O 124.791 1.63288 -3.16568 0
M  V30 1182 O 123.65 2.72594 -4.73661 0
M  V30 1183 H 120.744 0.442939 -0.69838 0
M  V30 1184 H 123.29 0.188342 -1.68652 0
M  V30 1185 H 122.062 0.762869 -3.83792 0
M  V30 1186 H 121.685 2.35596 -3.20282 0
M  V30 1187 N 122.682 1.50554 0.465978 0
M  V30 1188 C 123.614 1.65949 1.58093 0
M  V30 1189 C 124.627 0.540827 1.53554 0
M  V30 1190 O 125.816 0.814187 1.5885 0
M  V30 1191 C 122.916 1.63261 2.96983 0
M  V30 1192 C 122.089 2.91245 3.26336 0
M  V30 1193 C 121.148 2.8113 4.44806 0
M  V30 1194 O 120.174 3.55086 4.44862 0
M  V30 1195 N 121.376 1.95032 5.46756 0
M  V30 1196 H 124.141 2.62122 1.45301 0
M  V30 1197 H 121.702 1.48082 0.65448 0
M  V30 1198 H 123.694 1.54101 3.74212 0
M  V30 1199 H 122.264 0.748032 3.03518 0
M  V30 1200 H 121.484 3.14493 2.37672 0
M  V30 1201 H 122.772 3.76022 3.42761 0
M  V30 1202 H 122.17 1.3427 5.49534 0
M  V30 1203 H 120.727 1.91772 6.2295 0
M  V30 1204 N 124.16 -0.719506 1.40217 0
M  V30 1205 C 125.123 -1.8153 1.39927 0
M  V30 1206 C 126.123 -1.58095 0.293723 0
M  V30 1207 O 127.313 -1.65209 0.552429 0
M  V30 1208 C 124.445 -3.19561 1.18716 0
M  V30 1209 H 125.638 -1.83186 2.37451 0
M  V30 1210 H 123.191 -0.924746 1.26008 0
M  V30 1211 H 123.926 -3.23557 0.219366 0
M  V30 1212 H 123.711 -3.3797 1.98793 0
M  V30 1213 H 125.201 -3.99598 1.21291 0
M  V30 1214 N 125.638 -1.25649 -0.95132 0
M  V30 1215 C 126.863 -1.13443 -1.73624 0
M  V30 1216 C 127.288 0.307565 -1.85568 0
M  V30 1217 O 126.646 1.22282 -1.33854 0
M  V30 1218 C 126.694 -1.79723 -3.12621 0
M  V30 1219 O 125.798 -1.07912 -3.98031 0
M  V30 1220 H 125.139 -0.395872 -0.533086 0
M  V30 1221 H 127.669 -1.66276 -1.1922 0
M  V30 1222 H 127.679 -1.86141 -3.63064 0
M  V30 1223 H 126.354 -2.84633 -3.03244 0
M  V30 1224 H 124.931 -1.09398 -3.56492 0
M  V30 1225 N 127.117 1.15442 -1.07289 0
M  V30 1226 C 128.08 2.18358 -0.696591 0
M  V30 1227 C 129.08 1.58637 0.262837 0
M  V30 1228 O 130.27 1.74145 0.0438809 0
M  V30 1229 C 127.402 3.4089 -0.0266151 0
M  V30 1230 H 128.595 2.53162 -1.60776 0
M  V30 1231 H 126.148 1.29893 -0.869342 0
M  V30 1232 H 126.883 3.11653 0.896822 0
M  V30 1233 H 126.668 3.85495 -0.716657 0
M  V30 1234 H 128.158 4.17009 0.222028 0
M  V30 1235 N 128.595 0.856903 1.32268 0
M  V30 1236 C 129.823 0.475439 2.01363 0
M  V30 1237 C 130.238 -0.928486 1.64392 0
M  V30 1238 O 129.595 -1.60624 0.866387 0
M  V30 1239 C 129.646 0.607545 3.56358 0
M  V30 1240 O 129.367 1.95617 3.92002 0
M  V30 1241 C 130.868 0.225382 4.42727 0
M  V30 1242 H 128.088 0.186636 0.644521 0
M  V30 1243 H 130.632 1.15446 1.68797 0
M  V30 1244 H 128.787 -0.0237719 3.87393 0
M  V30 1245 H 129.201 1.95455 4.86721 0
M  V30 1246 H 130.675 0.368813 5.50767 0
M  V30 1247 H 131.152 -0.834369 4.31202 0
M  V30 1248 H 131.758 0.831864 4.17085 0
M  V30 1249 N 130.073 -1.45103 0.615059 0
M  V30 1250 C 131.298 -2.07064 0.117988 0
M  V30 1251 C 131.723 -1.4554 -1.19163 0
M  V30 1252 O 131.081 -0.550855 -1.72729 0
M  V30 1253 C 131.129 -3.606 -0.000288387 0
M  V30 1254 O 130.233 -3.98847 -1.04856 0
M  V30 1255 H 129.574 -0.659467 0.0774581 0
M  V30 1256 H 132.104 -1.86236 0.847186 0
M  V30 1257 H 132.114 -4.07529 -0.196091 0
M  V30 1258 H 130.789 -4.04765 0.955932 0
M  V30 1259 H 129.366 -3.63577 -0.828619 0
M  V30 1260 N 131.551 -0.354651 -1.53558 0
M  V30 1261 C 132.776 0.242153 -2.05981 0
M  V30 1262 C 133.201 1.42553 -1.2272 0
M  V30 1263 O 132.559 1.79656 -0.243604 0
M  V30 1264 C 132.607 0.624367 -3.55154 0
M  V30 1265 O 131.711 1.72301 -3.74681 0
M  V30 1266 H 131.052 0.0378432 -0.662921 0
M  V30 1267 H 133.582 -0.512087 -1.98088 0
M  V30 1268 H 133.592 0.898433 -3.97985 0
M  V30 1269 H 132.267 -0.240989 -4.15201 0
M  V30 1270 H 130.844 1.44535 -3.4375 0
M  V30 1271 N 133.029 1.57378 -0.0835403 0
M  V30 1272 C 134.306 1.85363 0.624507 0
M  V30 1273 C 134.686 0.978239 1.87066 0
M  V30 1274 O 134.034 0.0475908 2.2845 0
M  V30 1275 C 134.244 3.35795 0.950947 0
M  V30 1276 C 135.592 4.03581 1.31939 0
M  V30 1277 O 136.616 3.40609 1.04232 0
M  V30 1278 O 135.475 5.14672 1.83779 0
M  V30 1279 H 132.569 0.766162 0.311329 0
M  V30 1280 H 135.115 1.69307 -0.115362 0
M  V30 1281 H 133.887 3.91244 0.0663899 0
M  V30 1282 H 133.51 3.57154 1.74719 0
M  V30 1283 N 134.507 -0.190092 1.56449 0
M  V30 1284 C 135.417 -1.25591 1.98152 0
M  V30 1285 C 136.433 -1.49519 0.889944 0
M  V30 1286 O 137.609 -1.62036 1.19609 0
M  V30 1287 C 134.674 -2.57916 2.3169 0
M  V30 1288 C 133.735 -2.42015 3.5458 0
M  V30 1289 C 132.968 -3.6803 3.8651 0
M  V30 1290 O 133.191 -4.72413 3.1966 0
M  V30 1291 O 132.125 -3.6326 4.79923 0
M  V30 1292 H 135.951 -0.931988 2.89046 0
M  V30 1293 H 133.536 -0.395488 1.4407 0
M  V30 1294 H 135.418 -3.36008 2.54316 0
M  V30 1295 H 134.093 -2.89925 1.43963 0
M  V30 1296 H 133 -1.62017 3.37196 0
M  V30 1297 H 134.333 -2.14937 4.4279 0
M  V30 1298 N 135.985 -1.50799 -0.457987 0
M  V30 1299 C 137.231 -1.62683 -1.21088 0
M  V30 1300 C 137.564 -0.332268 -1.91336 0
M  V30 1301 O 136.839 0.667043 -1.82704 0
M  V30 1302 C 137.122 -2.81615 -2.24422 0
M  V30 1303 C 136.975 -4.20989 -1.58392 0
M  V30 1304 C 138.294 -2.96085 -3.2561 0
M  V30 1305 H 135.413 -0.592087 -0.438864 0
M  V30 1306 H 138.055 -1.83225 -0.50286 0
M  V30 1307 H 136.205 -2.64231 -2.84806 0
M  V30 1308 H 137.877 -4.49994 -1.01504 0
M  V30 1309 H 136.12 -4.24641 -0.886704 0
M  V30 1310 H 136.791 -5.0016 -2.33547 0
M  V30 1311 H 139.267 -3.12042 -2.75262 0
M  V30 1312 H 138.143 -3.80902 -3.95228 0
M  V30 1313 H 138.404 -2.0726 -3.90507 0
M  V30 1314 N 137.463 0.71206 -1.40597 0
M  V30 1315 C 138.395 1.83704 -1.37061 0
M  V30 1316 C 139.408 1.60453 -0.275426 0
M  V30 1317 O 140.597 1.70262 -0.53602 0
M  V30 1318 C 137.697 3.20172 -1.11099 0
M  V30 1319 C 136.87 3.7059 -2.3234 0
M  V30 1320 C 135.929 4.85681 -2.02485 0
M  V30 1321 O 134.955 4.9815 -2.75382 0
M  V30 1322 N 136.157 5.71735 -1.00497 0
M  V30 1323 H 138.922 1.87235 -2.34016 0
M  V30 1324 H 136.483 0.893739 -1.34996 0
M  V30 1325 H 138.475 3.94768 -0.891064 0
M  V30 1326 H 137.045 3.11767 -0.227989 0
M  V30 1327 H 136.265 2.87085 -2.7014 0
M  V30 1328 H 137.553 4.01011 -3.13157 0
M  V30 1329 H 136.951 5.64275 -0.401298 0
M  V30 1330 H 135.508 6.463 -0.844942 0
M  V30 1331 N 138.941 1.26152 0.944643 0
M  V30 1332 C 140.166 1.14363 1.7302 0
M  V30 1333 C 140.591 -0.29772 1.85729 0
M  V30 1334 O 139.949 -1.2157 1.34501 0
M  V30 1335 C 139.997 1.81378 3.11664 0
M  V30 1336 O 139.101 1.10022 3.97453 0
M  V30 1337 H 138.442 0.398694 0.53098 0
M  V30 1338 H 140.972 1.66906 1.18337 0
M  V30 1339 H 140.982 1.88064 3.62072 0
M  V30 1340 H 139.657 2.86237 3.0173 0
M  V30 1341 H 138.234 1.11287 3.55907 0
M  V30 1342 N 140.419 -1.14872 1.07899 0
M  V30 1343 C 141.83 -1.67367 0.827363 0
M  V30 1344 C 142.181 -1.85236 -0.646693 0
M  V30 1345 O 141.306 -1.55974 -1.50004 0
M  V30 1346 C 141.901 -3.04016 1.49532 0
M  V30 1347 C 140.46 -3.53566 1.29106 0
M  V30 1348 C 139.607 -2.29161 1.56143 0
M  V30 1349 H 142.558 -0.990083 1.24028 0
M  V30 1350 H 142.579 -3.69219 0.919643 0
M  V30 1351 H 142.091 -2.90978 2.56814 0
M  V30 1352 H 140.192 -3.71835 0.238713 0
M  V30 1353 H 140.305 -4.34661 2.01511 0
M  V30 1354 H 138.669 -2.34978 0.982717 0
M  V30 1355 H 139.452 -2.18705 2.64619 0
M  V30 1356 N 141.898 -0.863906 -1.31812 0
M  V30 1357 C 143.144 -0.472535 -1.97218 0
M  V30 1358 C 143.477 0.971394 -1.68159 0
M  V30 1359 O 142.752 1.68309 -0.974798 0
M  V30 1360 C 143.035 -0.723054 -3.52766 0
M  V30 1361 C 142.888 -2.21608 -3.91421 0
M  V30 1362 C 144.207 -0.185522 -4.39709 0
M  V30 1363 H 141.326 -0.173158 -0.71637 0
M  V30 1364 H 143.968 -1.08403 -1.56041 0
M  V30 1365 H 142.118 -0.202577 -3.87971 0
M  V30 1366 H 143.79 -2.80334 -3.66347 0
M  V30 1367 H 142.033 -2.691 -3.40246 0
M  V30 1368 H 142.704 -2.34203 -4.99853 0
M  V30 1369 H 145.18 -0.630726 -4.11292 0
M  V30 1370 H 144.056 -0.390306 -5.47511 0
M  V30 1371 H 144.317 0.912229 -4.32586 0
M  V30 1372 N 143.376 1.44774 -0.622745 0
M  V30 1373 C 144.792 1.56986 -0.287652 0
M  V30 1374 C 144.992 1.61167 1.20944 0
M  V30 1375 O 144.048 1.55015 1.99315 0
M  V30 1376 C 145.361 2.84551 -0.972188 0
M  V30 1377 C 146.909 2.9825 -0.949536 0
M  V30 1378 C 147.384 4.28605 -1.61437 0
M  V30 1379 N 148.875 4.35399 -1.58057 0
M  V30 1380 C 149.61 5.34964 -2.064 0
M  V30 1381 N 149.106 6.40981 -2.62897 0
M  V30 1382 N 150.899 5.26419 -1.97078 0
M  V30 1383 H 143.05 1.40304 -1.59463 0
M  V30 1384 H 145.313 0.671794 -0.668878 0
M  V30 1385 H 145.019 2.87417 -2.02693 0
M  V30 1386 H 144.893 3.73807 -0.504771 0
M  V30 1387 H 147.28 2.94941 0.0967067 0
M  V30 1388 H 147.361 2.10364 -1.45536 0
M  V30 1389 H 147.005 4.32672 -2.66002 0
M  V30 1390 H 146.935 5.15334 -1.08344 0
M  V30 1391 H 149.426 3.59397 -1.16801 0
M  V30 1392 H 149.739 7.13225 -2.97539 0
M  V30 1393 H 148.084 6.4169 -2.66943 0
M  V30 1394 H 151.275 4.42504 -1.52669 0
M  V30 1395 H 151.448 6.03861 -2.35066 0
M  V30 1396 N 144.854 0.36279 1.53368 0
M  V30 1397 C 146.1 -0.228113 2.01513 0
M  V30 1398 C 146.433 -1.48648 1.2497 0
M  V30 1399 O 145.708 -1.91459 0.342616 0
M  V30 1400 C 145.991 -0.522884 3.56284 0
M  V30 1401 C 145.844 0.74892 4.43521 0
M  V30 1402 C 147.163 -1.32461 4.19693 0
M  V30 1403 H 144.282 -0.0814343 0.732487 0
M  V30 1404 H 146.924 0.48713 1.83649 0
M  V30 1405 H 145.074 -1.1322 3.71636 0
M  V30 1406 H 146.746 1.38648 4.39971 0
M  V30 1407 H 144.989 1.36986 4.11603 0
M  V30 1408 H 145.66 0.497667 5.49752 0
M  V30 1409 H 148.136 -0.809203 4.08156 0
M  V30 1410 H 147.012 -1.49961 5.28018 0
M  V30 1411 H 147.273 -2.33232 3.75573 0
M  V30 1412 N 146.332 -1.57332 0.0918853 0
M  V30 1413 C 147.748 -1.57389 -0.264766 0
M  V30 1414 C 147.948 -1.10281 -1.68643 0
M  V30 1415 O 147.004 -0.777801 -2.40222 0
M  V30 1416 C 148.317 -3.00648 -0.0561195 0
M  V30 1417 C 149.865 -3.12754 -0.124116 0
M  V30 1418 C 150.34 -4.57965 0.0564972 0
M  V30 1419 N 151.831 -4.632 0.00155611 0
M  V30 1420 C 152.566 -5.73281 0.116598 0
M  V30 1421 N 152.062 -6.92208 0.286294 0
M  V30 1422 N 153.855 -5.6207 0.0580973 0
M  V30 1423 H 146.006 -1.86262 1.02079 0
M  V30 1424 H 148.269 -0.859579 0.399786 0
M  V30 1425 H 147.975 -3.393 0.925669 0
M  V30 1426 H 147.849 -3.68623 -0.799823 0
M  V30 1427 H 150.236 -2.73976 -1.09641 0
M  V30 1428 H 150.317 -2.47377 0.651024 0
M  V30 1429 H 149.961 -4.97436 1.02564 0
M  V30 1430 H 149.891 -5.21399 -0.738297 0
M  V30 1431 H 152.382 -3.77686 -0.127192 0
M  V30 1432 H 152.695 -7.71934 0.365676 0
M  V30 1433 H 151.04 -6.94254 0.32192 0
M  V30 1434 H 154.231 -4.68043 -0.0733204 0
M  V30 1435 H 154.404 -6.47824 0.151203 0
M  V30 1436 N 147.81 0.181792 -1.56548 0
M  V30 1437 C 148.743 1.25366 -1.90679 0
M  V30 1438 C 149.721 1.43299 -0.768376 0
M  V30 1439 O 150.905 1.58475 -1.02068 0
M  V30 1440 C 148.032 2.61826 -2.1486 0
M  V30 1441 C 147.078 2.60688 -3.37556 0
M  V30 1442 S 147.911 2.10804 -4.92262 0
M  V30 1443 C 149.067 3.49062 -5.19525 0
M  V30 1444 H 149.3 0.962277 -2.81296 0
M  V30 1445 H 146.833 0.385892 -1.495 0
M  V30 1446 H 148.791 3.40371 -2.29473 0
M  V30 1447 H 147.452 2.88169 -1.24969 0
M  V30 1448 H 146.645 3.61058 -3.51643 0
M  V30 1449 H 146.247 1.90232 -3.22006 0
M  V30 1450 H 148.539 4.45003 -5.10861 0
M  V30 1451 H 149.482 3.39859 -6.2121 0
M  V30 1452 H 149.89 3.4459 -4.47122 0
M  V30 1453 N 149.288 1.51039 0.449983 0
M  V30 1454 C 150.704 1.38934 0.785462 0
M  V30 1455 C 150.904 0.461817 1.96136 0
M  V30 1456 O 149.96 -0.0877389 2.52348 0
M  V30 1457 C 151.273 2.80724 1.0777 0
M  V30 1458 C 152.821 2.89787 1.1829 0
M  V30 1459 C 153.296 4.32457 1.50815 0
M  V30 1460 N 154.787 4.35505 1.57764 0
M  V30 1461 C 155.522 5.42914 1.84477 0
M  V30 1462 N 155.018 6.60502 2.09068 0
M  V30 1463 N 156.811 5.3038 1.86155 0
M  V30 1464 H 148.962 2.09904 -0.324647 0
M  V30 1465 H 151.225 0.944378 -0.0827957 0
M  V30 1466 H 150.931 3.50531 0.286498 0
M  V30 1467 H 150.805 3.19273 2.00859 0
M  V30 1468 H 153.192 2.20186 1.96474 0
M  V30 1469 H 153.273 2.54752 0.231314 0
M  V30 1470 H 152.917 5.02603 0.731622 0
M  V30 1471 H 152.847 4.64995 2.47158 0
M  V30 1472 H 155.338 3.50724 1.40715 0
M  V30 1473 H 155.651 7.38158 2.28785 0
M  V30 1474 H 153.996 6.63639 2.06416 0
M  V30 1475 H 157.187 4.37505 1.66454 0
M  V30 1476 H 157.36 6.1417 2.06637 0
M  V30 1477 N 150.766 -0.704594 1.40972 0
M  V30 1478 C 151.714 -1.83994 1.42299 0
M  V30 1479 C 152.708 -1.66684 0.302111 0
M  V30 1480 O 153.914 -1.73655 0.473697 0
M  V30 1481 H 150.289 -0.606171 0.44504 0
M  V30 1482 H 152.26 -1.79992 2.38003 0
M  V30 1483 C 151.009 -3.21946 1.31323 0
M  V30 1484 H 150.332 -3.35878 2.16855 0
M  V30 1485 H 151.772 -4.01491 1.36311 0
M  V30 1486 C 150.231 -3.36891 0.0245977 0
M  V30 1487 O 150.761 -3.90687 -0.934153 0
M  V30 1488 N 148.967 -2.90559 -0.0485243 0
M  V30 1489 H 148.514 -2.46968 0.732419 0
M  V30 1490 H 148.472 -3.00937 -0.910171 0
M  V30 1491 N 152.244 -1.26651 -0.937939 0
M  V30 1492 C 153.194 -1.05156 -2.02302 0
M  V30 1493 C 154.178 0.0171233 -1.60891 0
M  V30 1494 O 155.37 -0.200213 -1.75864 0
M  V30 1495 C 152.499 -0.689962 -3.36295 0
M  V30 1496 C 151.585 -1.79626 -3.84181 0
M  V30 1497 N 151.976 -3.03422 -4.04684 0
M  V30 1498 C 150.274 -1.6806 -4.13124 0
M  V30 1499 C 150.975 -3.75345 -4.444 0
M  V30 1500 N 149.951 -3.03051 -4.51288 0
M  V30 1501 H 153.753 -1.99117 -2.1617 0
M  V30 1502 H 151.267 -1.17216 -1.12402 0
M  V30 1503 H 153.264 -0.517112 -4.13681 0
M  V30 1504 H 151.924 0.242139 -3.23796 0
M  V30 1505 H 152.935 -3.39293 -3.91281 0
M  V30 1506 H 149.612 -0.818629 -4.09396 0
M  V30 1507 H 151.002 -4.81691 -4.68427 0
M  V30 1508 N 153.722 1.14298 -1.08507 0
M  V30 1509 C 155.133 1.66926 -0.836227 0
M  V30 1510 C 155.484 1.85576 0.63686 0
M  V30 1511 O 154.609 1.56767 1.49175 0
M  V30 1512 C 155.204 3.03219 -1.51142 0
M  V30 1513 C 153.763 3.52876 -1.30979 0
M  V30 1514 C 152.91 2.2833 -1.57356 0
M  V30 1515 H 155.861 0.983491 -1.24552 0
M  V30 1516 H 155.882 3.68726 -0.939211 0
M  V30 1517 H 155.394 2.89612 -2.58353 0
M  V30 1518 H 153.495 3.71703 -0.258429 0
M  V30 1519 H 153.608 4.33586 -2.03814 0
M  V30 1520 H 151.972 2.34454 -0.995164 0
M  V30 1521 H 152.755 2.17298 -2.65775 0
M  V30 1522 N 155.201 0.870884 1.31352 0
M  V30 1523 C 156.612 0.534714 1.78879 0
M  V30 1524 C 156.963 -0.948423 1.71754 0
M  V30 1525 O 156.088 -1.74055 1.28584 0
M  V30 1526 C 156.683 0.963839 3.24801 0
M  V30 1527 C 155.242 0.679311 3.70219 0
M  V30 1528 C 154.389 1.15465 2.52117 0
M  V30 1529 H 157.34 1.05651 1.18421 0
M  V30 1530 H 157.361 0.286892 3.79417 0
M  V30 1531 H 156.873 2.04332 3.29955 0
M  V30 1532 H 154.974 -0.388769 3.70566 0
M  V30 1533 H 155.087 1.25698 4.62317 0
M  V30 1534 H 153.451 0.574383 2.48139 0
M  V30 1535 H 154.234 2.24157 2.60016 0
M  V30 1536 N 156.679 -1.44442 0.630414 0
M  V30 1537 C 158.095 -1.56832 0.295973 0
M  V30 1538 C 158.295 -1.61806 -1.20088 0
M  V30 1539 O 157.351 -1.5607 -1.9849 0
M  V30 1540 C 158.664 -2.84031 0.987264 0
M  V30 1541 C 160.212 -2.97742 0.96534 0
M  V30 1542 C 160.687 -4.27743 1.63708 0
M  V30 1543 N 162.178 -4.34555 1.60364 0
M  V30 1544 C 162.913 -5.33862 2.09234 0
M  V30 1545 N 162.409 -6.39578 2.66292 0
M  V30 1546 N 164.202 -5.25366 1.99867 0
M  V30 1547 H 156.353 -1.39457 1.60205 0
M  V30 1548 H 158.616 -0.668237 0.672431 0
M  V30 1549 H 158.322 -2.86338 2.04215 0
M  V30 1550 H 158.196 -3.73534 0.524588 0
M  V30 1551 H 160.583 -2.94989 -0.0810639 0
M  V30 1552 H 160.664 -2.09589 1.4665 0
M  V30 1553 H 160.308 -4.31255 2.68293 0
M  V30 1554 H 160.238 -5.14752 1.11076 0
M  V30 1555 H 162.729 -3.58772 1.18705 0
M  V30 1556 H 163.042 -7.11637 3.01317 0
M  V30 1557 H 161.387 -6.40265 2.70343 0
M  V30 1558 H 164.578 -4.41688 1.55013 0
M  V30 1559 H 164.751 -6.02606 2.38265 0
M  V30 1560 N 158.157 -0.370918 -1.53173 0
M  V30 1561 C 159.104 0.473035 -2.259 0
M  V30 1562 C 160.074 1.07311 -1.26781 0
M  V30 1563 O 161.259 1.1046 -1.55574 0
M  V30 1564 C 158.399 1.60405 -3.05556 0
M  V30 1565 C 157.512 1.02863 -4.19575 0
M  V30 1566 C 156.647 2.12918 -4.86661 0
M  V30 1567 C 155.686 1.52869 -5.92704 0
M  V30 1568 N 154.823 2.56779 -6.53459 0
M  V30 1569 H 159.663 -0.153649 -2.97604 0
M  V30 1570 H 157.2 -0.0875946 -1.46839 0
M  V30 1571 H 159.158 2.27034 -3.50016 0
M  V30 1572 H 157.788 2.20131 -2.36097 0
M  V30 1573 H 156.84 0.252465 -3.79561 0
M  V30 1574 H 158.152 0.549642 -4.95762 0
M  V30 1575 H 157.306 2.87356 -5.34333 0
M  V30 1576 H 156.045 2.6417 -4.09958 0
M  V30 1577 H 155.05 0.769479 -5.44389 0
M  V30 1578 H 156.275 1.02435 -6.7133 0
M  V30 1579 H 154.221 3.07235 -5.79606 0
M  V30 1580 H 154.138 2.13583 -7.25202 0
M  V30 1581 H 155.406 3.30903 -7.05779 0
M  V30 1582 N 159.635 1.57281 -0.100228 0
M  V30 1583 C 160.884 1.93713 0.561984 0
M  V30 1584 C 161.197 0.984492 1.69018 0
M  V30 1585 O 162.403 1.24273 2.41389 0
M  V30 1586 C 160.859 3.4421 1.05106 0
M  V30 1587 C 160.467 4.47975 -0.0476628 0
M  V30 1588 C 162.211 3.89595 1.68571 0
M  V30 1589 C 160.118 5.89631 0.457055 0
M  V30 1590 H 159.048 0.723082 0.2137 0
M  V30 1591 H 161.699 1.82644 -0.177057 0
M  V30 1592 H 160.081 3.50449 1.84395 0
M  V30 1593 H 161.255 4.53385 -0.823333 0
M  V30 1594 H 159.57 4.1223 -0.587816 0
M  V30 1595 H 162.167 4.92832 2.07414 0
M  V30 1596 H 162.51 3.28526 2.55688 0
M  V30 1597 H 163.043 3.86078 0.958562 0
M  V30 1598 H 159.782 6.54411 -0.377616 0
M  V30 1599 H 159.302 5.87681 1.19962 0
M  V30 1600 H 160.981 6.40363 0.92437 0
M  V30 1601 N 161.113 -0.173488 1.56642 0
M  V30 1602 C 162.338 -0.910149 1.86363 0
M  V30 1603 C 162.763 -1.75132 0.686318 0
M  V30 1604 O 162.121 -1.77595 -0.364643 0
M  V30 1605 C 162.169 -1.76447 3.14482 0
M  V30 1606 O 161.273 -2.86584 2.96553 0
M  V30 1607 H 160.614 -0.255086 0.613047 0
M  V30 1608 H 163.144 -0.172283 2.03873 0
M  V30 1609 H 163.154 -2.16483 3.45831 0
M  V30 1610 H 161.829 -1.14658 3.99783 0
M  V30 1611 H 160.406 -2.50146 2.76553 0
M  V30 1612 N 162.591 -1.51276 -0.441967 0
M  V30 1613 C 163.819 -1.67516 -1.21434 0
M  V30 1614 C 164.234 -0.37055 -1.85128 0
M  V30 1615 O 163.591 0.650498 -1.70513 0
M  V30 1616 C 163.642 -2.78748 -2.30177 0
M  V30 1617 O 163.363 -4.04154 -1.69089 0
M  V30 1618 C 164.864 -3.06217 -3.20541 0
M  V30 1619 H 162.084 -0.562276 -0.366178 0
M  V30 1620 H 164.628 -1.97666 -0.524244 0
M  V30 1621 H 162.783 -2.5121 -2.94911 0
M  V30 1622 H 163.197 -4.65894 -2.40922 0
M  V30 1623 H 164.671 -3.8764 -3.92987 0
M  V30 1624 H 165.148 -2.18439 -3.81026 0
M  V30 1625 H 165.754 -3.35397 -2.61513 0
M  V30 1626 N 164.069 0.697108 -1.41344 0
M  V30 1627 C 164.979 1.84088 -1.45427 0
M  V30 1628 C 165.995 1.70545 -0.34501 0
M  V30 1629 O 167.171 1.92488 -0.592492 0
M  V30 1630 C 164.236 3.20056 -1.33286 0
M  V30 1631 C 163.297 3.45718 -2.54514 0
M  V30 1632 C 162.53 4.75199 -2.42944 0
M  V30 1633 O 162.753 5.51579 -1.45318 0
M  V30 1634 O 161.687 5.0161 -3.32672 0
M  V30 1635 H 165.513 1.836 -2.41919 0
M  V30 1636 H 163.098 0.849966 -1.22866 0
M  V30 1637 H 164.98 4.01236 -1.28794 0
M  V30 1638 H 163.655 3.2123 -0.39909 0
M  V30 1639 H 162.562 2.64474 -2.64583 0
M  V30 1640 H 163.895 3.49356 -3.46715 0
M  V30 1641 N 165.547 1.27147 0.931209 0
M  V30 1642 C 166.824 1.0401 1.65654 0
M  V30 1643 C 167.204 -0.426297 2.06751 0
M  V30 1644 O 166.552 -1.40879 1.79904 0
M  V30 1645 C 166.762 1.99834 2.86125 0
M  V30 1646 C 168.11 2.29007 3.57549 0
M  V30 1647 O 169.134 1.97779 2.96246 0
M  V30 1648 O 167.993 2.82222 4.67989 0
M  V30 1649 H 165.087 0.396239 0.725895 0
M  V30 1650 H 167.633 1.38397 0.982056 0
M  V30 1651 H 166.405 2.98744 2.52721 0
M  V30 1652 H 166.028 1.65987 3.61295 0
M  V30 1653 N 167.025 -1.13721 1.09112 0
M  V30 1654 C 168.274 -1.84275 0.82009 0
M  V30 1655 C 168.587 -1.84253 -0.656509 0
M  V30 1656 O 169.793 -2.50668 -1.04296 0
M  V30 1657 C 168.249 -3.30825 1.41714 0
M  V30 1658 C 167.857 -3.39244 2.92605 0
M  V30 1659 C 169.601 -4.06443 1.22492 0
M  V30 1660 C 167.508 -4.80047 3.45411 0
M  V30 1661 H 166.438 -0.690387 0.30312 0
M  V30 1662 H 169.089 -1.28146 1.31343 0
M  V30 1663 H 167.471 -3.86737 0.851498 0
M  V30 1664 H 168.645 -2.93344 3.55367 0
M  V30 1665 H 166.96 -2.77088 3.10823 0
M  V30 1666 H 169.557 -5.10387 1.59402 0
M  V30 1667 H 169.9 -4.15972 0.165299 0
M  V30 1668 H 170.433 -3.56852 1.75788 0
M  V30 1669 H 167.172 -4.75709 4.50978 0
M  V30 1670 H 166.692 -5.26455 2.87411 0
M  V30 1671 H 168.371 -5.48957 3.42425 0
M  V30 1672 N 168.503 -0.877838 -1.30888 0
M  V30 1673 C 169.451 -0.328662 -2.30266 0
M  V30 1674 C 170.445 0.560496 -1.59859 0
M  V30 1675 O 171.651 0.445722 -1.74394 0
M  V30 1676 H 168.026 -0.0876142 -0.746879 0
M  V30 1677 H 169.997 -1.18061 -2.74051 0
M  V30 1678 C 168.746 0.448071 -3.44801 0
M  V30 1679 H 168.069 -0.226859 -3.99156 0
M  V30 1680 H 169.509 0.797541 -4.16432 0
M  V30 1681 C 167.968 1.64239 -2.94155 0
M  V30 1682 O 168.498 2.74175 -2.93583 0
M  V30 1683 N 166.704 1.47716 -2.50256 0
M  V30 1684 H 166.251 0.582821 -2.5092 0
M  V30 1685 H 166.209 2.27765 -2.16727 0
M  V30 1686 N 169.982 1.44106 -0.638065 0
M  V30 1687 C 170.929 2.30715 0.062701 0
M  V30 1688 C 171.899 1.43882 0.829883 0
M  V30 1689 O 173.084 1.72775 0.809532 0
M  V30 1690 C 170.224 3.29258 1.03358 0
M  V30 1691 C 169.337 4.31192 0.26409 0
M  V30 1692 C 168.472 5.16825 1.22741 0
M  V30 1693 C 167.511 6.10462 0.447475 0
M  V30 1694 N 166.648 6.8877 1.36161 0
M  V30 1695 H 171.488 2.90096 -0.681781 0
M  V30 1696 H 169.025 1.42925 -0.347988 0
M  V30 1697 H 170.983 3.84886 1.60992 0
M  V30 1698 H 169.613 2.71562 1.74511 0
M  V30 1699 H 168.665 3.77981 -0.428295 0
M  V30 1700 H 169.977 4.97619 -0.343052 0
M  V30 1701 H 169.131 5.77004 1.87487 0
M  V30 1702 H 167.87 4.50488 1.86847 0
M  V30 1703 H 166.875 5.49386 -0.213433 0
M  V30 1704 H 168.1 6.78837 -0.188968 0
M  V30 1705 H 166.046 6.25096 1.98975 0
M  V30 1706 H 165.963 7.51663 0.808656 0
M  V30 1707 H 167.231 7.53467 1.99769 0
M  V30 1708 N 171.46 0.379036 1.52974 0
M  V30 1709 C 172.876 0.0285448 1.59574 0
M  V30 1710 C 173.076 -1.45542 1.39355 0
M  V30 1711 O 172.132 -2.2187 1.20541 0
M  V30 1712 C 173.445 0.496535 2.96572 0
M  V30 1713 C 174.993 0.451909 3.0972 0
M  V30 1714 C 175.468 0.895924 4.49152 0
M  V30 1715 N 176.959 0.851522 4.55306 0
M  V30 1716 C 177.694 1.16661 5.61407 0
M  V30 1717 N 177.19 1.55166 6.752 0
M  V30 1718 N 178.983 1.08853 5.51459 0
M  V30 1719 H 171.134 1.34525 1.64367 0
M  V30 1720 H 173.397 0.550733 0.771619 0
M  V30 1721 H 173.103 1.53258 3.16552 0
M  V30 1722 H 172.977 -0.109802 3.7704 0
M  V30 1723 H 175.364 -0.575029 2.89443 0
M  V30 1724 H 175.445 1.09392 2.3123 0
M  V30 1725 H 175.089 1.92104 4.70168 0
M  V30 1726 H 175.019 0.23103 5.26093 0
M  V30 1727 H 177.51 0.568038 3.73606 0
M  V30 1728 H 177.823 1.776 7.52116 0
M  V30 1729 H 176.168 1.59044 6.76557 0
M  V30 1730 H 179.359 0.786803 4.6144 0
M  V30 1731 H 179.532 1.33742 6.34048 0
M  V30 1732 N 172.938 -1.57226 0.108567 0
M  V30 1733 C 173.868 -2.17778 -0.84232 0
M  V30 1734 C 174.849 -1.11487 -1.2847 0
M  V30 1735 O 176.034 -1.39681 -1.34918 0
M  V30 1736 C 173.164 -2.76888 -2.09644 0
M  V30 1737 C 172.118 -3.88669 -1.79221 0
M  V30 1738 C 171.444 -4.34541 -3.11574 0
M  V30 1739 C 172.744 -5.11251 -1.06864 0
M  V30 1740 H 174.438 -2.97489 -0.337774 0
M  V30 1741 H 171.984 -1.43097 -0.161025 0
M  V30 1742 H 173.937 -3.17904 -2.76614 0
M  V30 1743 H 172.661 -1.94451 -2.62405 0
M  V30 1744 H 171.32 -3.48213 -1.14644 0
M  V30 1745 H 170.968 -3.48977 -3.62249 0
M  V30 1746 H 170.668 -5.09914 -2.91996 0
M  V30 1747 H 172.192 -4.782 -3.7968 0
M  V30 1748 H 173.606 -5.49352 -1.63968 0
M  V30 1749 H 172.003 -5.9214 -0.974178 0
M  V30 1750 H 173.073 -4.8487 -0.0536168 0
M  V30 1751 N 174.416 0.165178 -1.56732 0
M  V30 1752 C 175.641 0.900253 -1.86843 0
M  V30 1753 C 176.066 1.74766 -0.695596 0
M  V30 1754 O 175.424 1.77786 0.35522 0
M  V30 1755 C 175.472 1.74777 -3.15413 0
M  V30 1756 O 174.576 2.85007 -2.98068 0
M  V30 1757 H 173.917 0.251832 -0.614391 0
M  V30 1758 H 176.447 0.161468 -2.03962 0
M  V30 1759 H 176.457 2.14646 -3.46974 0
M  V30 1760 H 175.132 1.12537 -4.00385 0
M  V30 1761 H 173.709 2.48676 -2.77875 0
M  V30 1762 N 175.894 1.51508 0.433938 0
M  V30 1763 C 176.824 1.76016 1.53429 0
M  V30 1764 C 177.805 0.610112 1.58782 0
M  V30 1765 O 178.99 0.853177 1.74455 0
M  V30 1766 C 176.12 1.88831 2.9148 0
M  V30 1767 C 175.074 3.04288 3.00987 0
M  V30 1768 C 174.4 3.0229 4.4105 0
M  V30 1769 C 175.7 4.44193 2.74754 0
M  V30 1770 H 177.394 2.68152 1.33171 0
M  V30 1771 H 174.94 1.29035 0.639214 0
M  V30 1772 H 176.893 2.04559 3.6842 0
M  V30 1773 H 175.617 0.933455 3.12976 0
M  V30 1774 H 174.276 2.8827 2.26486 0
M  V30 1775 H 173.924 2.04576 4.59519 0
M  V30 1776 H 173.624 3.79822 4.4834 0
M  V30 1777 H 175.148 3.20116 5.1996 0
M  V30 1778 H 176.562 4.60544 3.41426 0
M  V30 1779 H 174.959 5.23457 2.9345 0
M  V30 1780 H 176.029 4.53996 1.70339 0
M  V30 1781 N 177.372 -0.689602 1.41712 0
M  V30 1782 C 178.783 -1.26973 1.36875 0
M  V30 1783 C 179.134 -1.96124 0.054748 0
M  V30 1784 O 178.259 -1.99141 -0.84687 0
M  V30 1785 C 178.854 -2.30912 2.47922 0
M  V30 1786 C 177.413 -2.84486 2.46464 0
M  V30 1787 C 176.56 -1.58603 2.27465 0
M  V30 1788 H 179.511 -0.48396 1.51141 0
M  V30 1789 H 179.532 -3.12331 2.17323 0
M  V30 1790 H 179.044 -1.80554 3.43543 0
M  V30 1791 H 177.145 -3.39005 1.54617 0
M  V30 1792 H 177.258 -3.34511 3.42986 0
M  V30 1793 H 175.622 -1.84632 1.75451 0
M  V30 1794 H 176.405 -1.10233 3.25121 0
M  V30 1795 N 178.85 -1.27639 -0.924453 0
M  V30 1796 C 179.813 -1.10681 -2.00705 0
M  V30 1797 C 180.813 -0.0497823 -1.60723 0
M  V30 1798 O 182.003 -0.294654 -1.7169 0
M  V30 1799 C 179.135 -0.687164 -3.33902 0
M  V30 1800 H 180.328 -2.06817 -2.17179 0
M  V30 1801 H 177.881 -1.10473 -1.10569 0
M  V30 1802 H 178.616 0.275439 -3.23128 0
M  V30 1803 H 178.401 -1.45061 -3.6428 0
M  V30 1804 H 179.891 -0.590853 -4.13399 0
M  V30 1805 N 180.328 1.1314 -1.09713 0
M  V30 1806 C 181.605 1.80762 -0.747302 0
M  V30 1807 C 181.985 1.96663 0.767265 0
M  V30 1808 O 181.333 1.53706 1.69076 0
M  V30 1809 C 181.543 3.15606 -1.48975 0
M  V30 1810 C 182.891 3.90914 -1.65746 0
M  V30 1811 O 183.915 3.25239 -1.45251 0
M  V30 1812 O 182.774 5.08718 -1.9967 0
M  V30 1813 H 179.868 0.782103 -0.268782 0
M  V30 1814 H 182.414 1.20041 -1.19951 0
M  V30 1815 H 181.186 2.99278 -2.52088 0
M  V30 1816 H 180.809 3.84029 -1.02991 0
M  V30 1817 N 181.806 0.884767 1.30421 0
M  V30 1818 C 183.055 0.499164 1.95426 0
M  V30 1819 C 183.368 -0.95645 1.70621 0
M  V30 1820 O 184.574 -1.44889 2.29607 0
M  V30 1821 C 183.03 0.84177 3.49917 0
M  V30 1822 C 182.638 2.31514 3.83543 0
M  V30 1823 C 184.382 0.525355 4.21237 0
M  V30 1824 C 182.289 2.59939 5.31212 0
M  V30 1825 H 181.219 0.182944 0.73147 0
M  V30 1826 H 183.87 1.07971 1.48373 0
M  V30 1827 H 182.252 0.190311 3.95542 0
M  V30 1828 H 183.426 3.0109 3.48829 0
M  V30 1829 H 181.741 2.59907 3.25326 0
M  V30 1830 H 184.338 0.714762 5.29901 0
M  V30 1831 H 184.681 -0.535222 4.12845 0
M  V30 1832 H 185.214 1.134 3.81294 0
M  V30 1833 H 181.953 3.64736 5.44654 0
M  V30 1834 H 181.473 1.94972 5.67227 0
M  V30 1835 H 183.152 2.45429 5.98643 0
M  V30 1836 N 183.284 -1.43765 0.645699 0
M  V30 1837 C 184.7 -1.56509 0.312591 0
M  V30 1838 C 184.9 -1.6307 -1.18365 0
M  V30 1839 O 183.956 -1.58167 -1.96824 0
M  V30 1840 C 185.269 -2.82968 1.01733 0
M  V30 1841 C 186.817 -2.96701 0.996865 0
M  V30 1842 C 187.292 -4.25982 1.68236 0
M  V30 1843 N 188.783 -4.32829 1.64964 0
M  V30 1844 C 189.518 -5.31613 2.14885 0
M  V30 1845 N 189.014 -6.36718 2.73061 0
M  V30 1846 N 190.807 -5.23217 2.05428 0
M  V30 1847 H 182.958 -1.3775 1.61675 0
M  V30 1848 H 185.221 -0.661067 0.679481 0
M  V30 1849 H 184.927 -2.84156 2.0724 0
M  V30 1850 H 184.801 -3.72957 0.564177 0
M  V30 1851 H 187.188 -2.95058 -0.0497719 0
M  V30 1852 H 187.269 -2.08022 1.48865 0
M  V30 1853 H 186.913 -4.28386 2.72852 0
M  V30 1854 H 186.843 -5.13545 1.16529 0
M  V30 1855 H 189.334 -3.57493 1.22503 0
M  V30 1856 H 189.647 -7.08401 3.08848 0
M  V30 1857 H 187.992 -6.37362 2.77118 0
M  V30 1858 H 191.183 -4.40019 1.59689 0
M  V30 1859 H 191.356 -6.00045 2.44643 0
M  V30 1860 N 184.763 -0.387143 -1.52771 0
M  V30 1861 C 185.693 0.440551 -2.29306 0
M  V30 1862 C 186.674 1.06535 -1.32606 0
M  V30 1863 O 187.859 1.07853 -1.61497 0
M  V30 1864 C 184.989 1.56919 -3.09829 0
M  V30 1865 C 183.943 1.07054 -4.14395 0
M  V30 1866 C 183.269 2.29109 -4.83129 0
M  V30 1867 C 184.569 0.140015 -5.22112 0
M  V30 1868 H 186.263 -0.198026 -2.98744 0
M  V30 1869 H 183.809 -0.09668 -1.43675 0
M  V30 1870 H 185.762 2.15503 -3.62128 0
M  V30 1871 H 184.486 2.23532 -2.3812 0
M  V30 1872 H 183.145 0.507247 -3.63074 0
M  V30 1873 H 182.793 2.94227 -4.0797 0
M  V30 1874 H 182.493 1.96406 -5.53804 0
M  V30 1875 H 184.017 2.88339 -5.38231 0
M  V30 1876 H 185.431 0.633978 -5.69784 0
M  V30 1877 H 183.828 -0.0971485 -6.00021 0
M  V30 1878 H 184.898 -0.811711 -4.78058 0
M  V30 1879 N 186.241 1.57166 -0.116904 0
M  V30 1880 C 187.652 1.82169 0.408809 0
M  V30 1881 C 188.003 1.03393 1.66746 0
M  V30 1882 O 187.128 0.269886 2.1471 0
M  V30 1883 C 187.723 3.30429 0.748466 0
M  V30 1884 C 186.282 3.5612 1.21882 0
M  V30 1885 C 185.429 2.76374 0.226452 0
M  V30 1886 H 188.38 1.5497 -0.342063 0
M  V30 1887 H 188.401 3.44943 1.60607 0
M  V30 1888 H 187.913 3.87737 -0.167784 0
M  V30 1889 H 186.014 3.04168 2.15204 0
M  V30 1890 H 186.127 4.64705 1.16559 0
M  V30 1891 H 184.491 2.44515 0.713063 0
M  V30 1892 H 185.274 3.3644 -0.682859 0
M  V30 1893 N 187.719 -0.156864 1.56817 0
M  V30 1894 C 188.629 -1.2136 2.00771 0
M  V30 1895 C 189.645 -1.47598 0.921459 0
M  V30 1896 O 190.821 -1.59462 1.2302 0
M  V30 1897 C 187.886 -2.52943 2.37109 0
M  V30 1898 C 186.947 -2.34439 3.59634 0
M  V30 1899 C 186.18 -3.59748 3.94229 0
M  V30 1900 O 186.403 -4.65526 3.29609 0
M  V30 1901 O 185.337 -3.52998 4.8752 0
M  V30 1902 H 189.163 -0.870468 2.90958 0
M  V30 1903 H 186.748 -0.36484 1.44877 0
M  V30 1904 H 188.63 -3.30538 2.61386 0
M  V30 1905 H 187.305 -2.86806 1.5008 0
M  V30 1906 H 186.212 -1.54828 3.40557 0
M  V30 1907 H 187.545 -2.05496 4.4725 0
M  V30 1908 N 189.197 -1.51736 -0.425897 0
M  V30 1909 C 190.445 -1.64644 -1.17204 0
M  V30 1910 C 190.766 -0.370486 -1.91448 0
M  V30 1911 O 190.036 0.614088 -1.86026 0
M  V30 1912 H 188.616 -0.606819 -0.435638 0
M  V30 1913 H 191.278 -1.88713 -0.487177 0
M  V30 1914 H 190.374 -2.47958 -1.89534 0
M  V30 1915 N 190.675 0.682077 -1.42076 0
M  V30 1916 C 191.905 1.46844 -1.45329 0
M  V30 1917 C 192.313 1.89102 -0.0609328 0
M  V30 1918 O 191.656 1.58238 0.933082 0
M  V30 1919 C 191.718 2.75375 -2.31104 0
M  V30 1920 C 191.382 2.55238 -3.79081 0
M  V30 1921 C 192.379 2.20309 -4.70914 0
M  V30 1922 C 190.064 2.70459 -4.2327 0
M  V30 1923 C 192.058 2.00859 -6.04925 0
M  V30 1924 C 189.745 2.50624 -5.57343 0
M  V30 1925 C 190.743 2.15876 -6.47986 0
M  V30 1926 O 190.431 1.96227 -7.79583 0
M  V30 1927 H 190.163 0.4586 -0.496651 0
M  V30 1928 H 192.717 0.846131 -1.87162 0
M  V30 1929 H 190.947 3.40061 -1.84107 0
M  V30 1930 H 192.636 3.37231 -2.25898 0
M  V30 1931 H 193.402 2.08153 -4.38061 0
M  V30 1932 H 189.281 2.96485 -3.53012 0
M  V30 1933 H 192.825 1.7366 -6.75639 0
M  V30 1934 H 188.722 2.62375 -5.89771 0
M  V30 1935 H 189.49 2.10883 -7.90867 0
M  V30 1936 N 192.153 1.28127 0.917671 0
M  V30 1937 C 193.083 1.14248 2.03641 0
M  V30 1938 C 194.064 0.0412748 1.7005 0
M  V30 1939 O 195.249 0.217566 1.92977 0
M  V30 1940 C 192.379 0.799431 3.37974 0
M  V30 1941 C 191.333 1.85497 3.85713 0
M  V30 1942 C 190.659 1.36565 5.16966 0
M  V30 1943 C 191.959 3.26085 4.08002 0
M  V30 1944 H 193.653 2.07835 2.15511 0
M  V30 1945 H 191.199 1.00064 1.03553 0
M  V30 1946 H 193.152 0.689114 4.15727 0
M  V30 1947 H 191.876 -0.172145 3.26146 0
M  V30 1948 H 190.535 1.95437 3.10161 0
M  V30 1949 H 190.183 0.383253 5.01538 0
M  V30 1950 H 189.883 2.07143 5.49878 0
M  V30 1951 H 191.407 1.26848 5.97279 0
M  V30 1952 H 192.821 3.19089 4.76293 0
M  V30 1953 H 191.218 3.94462 4.52238 0
M  V30 1954 H 192.288 3.70394 3.12948 0
M  V30 1955 N 193.631 -1.12557 1.10312 0
M  V30 1956 C 194.541 -2.21841 0.763142 0
M  V30 1957 C 195.557 -1.72354 -0.238801 0
M  V30 1958 O 196.733 -2.01249 -0.0778746 0
M  V30 1959 C 193.798 -3.46131 0.198632 0
M  V30 1960 C 192.859 -4.10464 1.25769 0
M  V30 1961 C 192.092 -5.28821 0.72002 0
M  V30 1962 O 192.315 -5.6859 -0.453993 0
M  V30 1963 O 191.249 -5.83437 1.47935 0
M  V30 1964 H 195.075 -2.53312 1.67532 0
M  V30 1965 H 192.66 -1.20867 0.878157 0
M  V30 1966 H 194.542 -4.2125 -0.112401 0
M  V30 1967 H 193.217 -3.16338 -0.686419 0
M  V30 1968 H 192.124 -3.3713 1.62156 0
M  V30 1969 H 193.457 -4.44408 2.11571 0
M  V30 1970 N 195.109 -0.891671 -1.2995 0
M  V30 1971 C 196.056 -0.361736 -2.27948 0
M  V30 1972 C 197.026 0.551761 -1.56668 0
M  V30 1973 O 198.211 0.478736 -1.84696 0
M  V30 1974 C 195.351 0.411825 -3.42634 0
M  V30 1975 C 194.464 -0.531651 -4.28716 0
M  V30 1976 C 193.599 0.258167 -5.30572 0
M  V30 1977 C 192.638 -0.680349 -6.08307 0
M  V30 1978 N 191.775 0.0745613 -7.0206 0
M  V30 1979 H 196.615 -1.20254 -2.72659 0
M  V30 1980 H 194.152 -0.604352 -1.34112 0
M  V30 1981 H 196.11 0.876304 -4.07893 0
M  V30 1982 H 194.74 1.21715 -2.98974 0
M  V30 1983 H 193.792 -1.11463 -3.63703 0
M  V30 1984 H 195.104 -1.25038 -4.82874 0
M  V30 1985 H 194.258 0.784204 -6.0161 0
M  V30 1986 H 192.997 1.01008 -4.77126 0
M  V30 1987 H 192.002 -1.21796 -5.3614 0
M  V30 1988 H 193.227 -1.43145 -6.63842 0
M  V30 1989 H 191.173 0.808883 -6.50994 0
M  V30 1990 H 191.09 -0.584409 -7.53738 0
M  V30 1991 H 192.358 0.581123 -7.77331 0
M  V30 1992 N 196.587 1.43421 -0.653314 0
M  V30 1993 C 197.517 2.33487 0.0246656 0
M  V30 1994 C 198.498 1.49475 0.811863 0
M  V30 1995 O 199.683 1.78139 0.773322 0
M  V30 1996 C 196.813 3.32841 0.99166 0
M  V30 1997 C 195.767 4.26842 0.314568 0
M  V30 1998 C 195.093 5.16236 1.39302 0
M  V30 1999 C 196.393 5.16243 -0.793095 0
M  V30 2000 H 198.087 2.90427 -0.727481 0
M  V30 2001 H 195.633 1.39649 -0.351287 0
M  V30 2002 H 197.586 3.94747 1.47487 0
M  V30 2003 H 196.31 2.74158 1.77497 0
M  V30 2004 H 194.969 3.663 -0.148199 0
M  V30 2005 H 194.617 4.53891 2.16776 0
M  V30 2006 H 194.317 5.79948 0.945223 0
M  V30 2007 H 195.841 5.81015 1.87759 0
M  V30 2008 H 197.255 5.71958 -0.392039 0
M  V30 2009 H 195.652 5.88676 -1.16536 0
M  V30 2010 H 196.722 4.55927 -1.65103 0
M  V30 2011 N 198.065 0.39524 1.52563 0
M  V30 2012 C 199.293 -0.184943 2.06072 0
M  V30 2013 C 199.708 -1.40021 1.26647 0
M  V30 2014 O 199.065 -1.79767 0.314672 0
M  V30 2015 C 199.116 -0.549179 3.57304 0
M  V30 2016 O 198.837 0.617813 4.33722 0
M  V30 2017 C 200.338 -1.18459 4.2718 0
M  V30 2018 H 197.558 -0.0265025 0.670476 0
M  V30 2019 H 200.102 0.562184 1.96621 0
M  V30 2020 H 198.257 -1.2462 3.66809 0
M  V30 2021 H 198.671 0.317091 5.23541 0
M  V30 2022 H 200.145 -1.38976 5.34219 0
M  V30 2023 H 200.622 -2.15368 3.82771 0
M  V30 2024 H 201.228 -0.528163 4.22008 0
M  V30 2025 N 199.544 -1.57102 0.125237 0
M  V30 2026 C 200.474 -2.18659 -0.819174 0
M  V30 2027 C 201.455 -1.12843 -1.27281 0
M  V30 2028 O 202.64 -1.41104 -1.33429 0
M  V30 2029 C 199.77 -2.79096 -2.06695 0
M  V30 2030 C 198.724 -3.90548 -1.75088 0
M  V30 2031 C 198.05 -4.37821 -3.06948 0
M  V30 2032 C 199.35 -5.12356 -1.01435 0
M  V30 2033 H 201.044 -2.9783 -0.306202 0
M  V30 2034 H 198.59 -1.4326 -0.145839 0
M  V30 2035 H 200.543 -3.2082 -2.73226 0
M  V30 2036 H 199.267 -1.97223 -2.60328 0
M  V30 2037 H 197.926 -3.49409 -1.10944 0
M  V30 2038 H 197.574 -3.52799 -3.58527 0
M  V30 2039 H 197.274 -5.12982 -2.86571 0
M  V30 2040 H 198.798 -4.822 -3.74587 0
M  V30 2041 H 200.212 -5.5106 -1.58132 0
M  V30 2042 H 198.609 -5.9314 -0.911319 0
M  V30 2043 H 199.679 -4.849 -0.00218681 0
M  V30 2044 N 201.022 0.148545 -1.56898 0
M  V30 2045 C 201.97 1.20265 -1.99096 0
M  V30 2046 C 202.964 1.44559 -0.883123 0
M  V30 2047 O 204.17 1.4487 -1.0683 0
M  V30 2048 H 200.545 0.404786 -0.63376 0
M  V30 2049 H 202.516 0.82004 -2.86911 0
M  V30 2050 C 201.265 2.52886 -2.3863 0
M  V30 2051 H 200.588 2.35021 -3.23427 0
M  V30 2052 H 202.028 3.25274 -2.7198 0
M  V30 2053 C 200.487 3.13315 -1.23837 0
M  V30 2054 O 201.017 3.98077 -0.538268 0
M  V30 2055 N 199.223 2.72742 -1.00301 0
M  V30 2056 H 198.77 2.03912 -1.5741 0
M  V30 2057 H 198.728 3.13507 -0.236838 0
M  V30 2058 N 202.5 1.5196 0.417844 0
M  V30 2059 C 203.725 1.69717 1.1921 0
M  V30 2060 C 204.15 0.402148 1.83751 0
M  V30 2061 O 203.508 -0.639593 1.69643 0
M  V30 2062 C 203.556 2.82794 2.2374 0
M  V30 2063 O 202.66 2.47756 3.29683 0
M  V30 2064 H 202.001 0.565263 0.348387 0
M  V30 2065 H 204.531 1.98621 0.490985 0
M  V30 2066 H 204.541 3.07452 2.68212 0
M  V30 2067 H 203.216 3.76756 1.76146 0
M  V30 2068 H 201.793 2.33739 2.90552 0
M  V30 2069 N 203.978 -0.674533 1.42435 0
M  V30 2070 C 205.389 -1.25514 1.38214 0
M  V30 2071 C 205.74 -1.96055 0.0755464 0
M  V30 2072 O 204.865 -2.00028 -0.8257 0
M  V30 2073 C 205.46 -2.28269 2.50357 0
M  V30 2074 C 204.019 -2.81856 2.49467 0
M  V30 2075 C 203.166 -1.56182 2.29134 0
M  V30 2076 H 206.117 -0.467902 1.51646 0
M  V30 2077 H 206.138 -3.10009 2.20624 0
M  V30 2078 H 205.65 -1.769 3.45439 0
M  V30 2079 H 203.751 -3.37346 1.58204 0
M  V30 2080 H 203.864 -3.30854 3.46515 0
M  V30 2081 H 202.228 -1.82761 1.774 0
M  V30 2082 H 203.011 -1.06778 3.26272 0
M  V30 2083 N 205.456 -1.28612 -0.910864 0
M  V30 2084 C 206.705 -1.15311 -1.65488 0
M  V30 2085 C 207.018 0.296999 -1.93332 0
M  V30 2086 O 208.224 0.551168 -2.65847 0
M  V30 2087 C 206.68 -2.01599 -2.98137 0
M  V30 2088 C 206.288 -3.51367 -2.7793 0
M  V30 2089 C 208.032 -1.96993 -3.76024 0
M  V30 2090 C 205.939 -4.29797 -4.06237 0
M  V30 2091 H 204.869 -0.42796 -0.620779 0
M  V30 2092 H 207.52 -1.53166 -1.01057 0
M  V30 2093 H 205.902 -1.56603 -3.63719 0
M  V30 2094 H 207.076 -4.0434 -2.21011 0
M  V30 2095 H 205.391 -3.57529 -2.13452 0
M  V30 2096 H 207.988 -2.52856 -4.71135 0
M  V30 2097 H 208.331 -0.94733 -4.05378 0
M  V30 2098 H 208.864 -2.39973 -3.17266 0
M  V30 2099 H 205.603 -5.32648 -3.82055 0
M  V30 2100 H 205.123 -3.81596 -4.62757 0
M  V30 2101 H 206.802 -4.39869 -4.74473 0
M  V30 2102 N 206.934 1.1197 -1.10907 0
M  V30 2103 C 208.181 1.83588 -0.854507 0
M  V30 2104 C 208.509 1.84357 0.6199 0
M  V30 2105 O 207.764 1.28809 1.47332 0
M  V30 2106 C 208.063 3.30749 -1.35425 0
M  V30 2107 C 207.729 3.50146 -2.84093 0
M  V30 2108 C 206.391 3.55148 -3.2469 0
M  V30 2109 C 208.743 3.56857 -3.79872 0
M  V30 2110 C 206.071 3.6441 -4.59806 0
M  V30 2111 C 208.423 3.6765 -5.14797 0
M  V30 2112 C 207.087 3.7091 -5.54961 0
M  V30 2113 H 206.357 0.671795 -0.312686 0
M  V30 2114 H 209.004 1.32091 -1.38652 0
M  V30 2115 H 207.309 3.84703 -0.742361 0
M  V30 2116 H 209.006 3.8464 -1.1337 0
M  V30 2117 H 205.596 3.46919 -2.51685 0
M  V30 2118 H 209.78 3.52258 -3.49611 0
M  V30 2119 H 205.036 3.65208 -4.9034 0
M  V30 2120 H 209.21 3.71786 -5.88853 0
M  V30 2121 H 206.837 3.7784 -6.59652 0
M  V30 2122 N 208.412 0.89855 1.29475 0
M  V30 2123 C 209.689 0.443416 1.90508 0
M  V30 2124 C 210.069 -1.07685 1.81569 0
M  V30 2125 O 209.417 -1.9182 1.24166 0
M  V30 2126 C 209.627 0.956708 3.35631 0
M  V30 2127 C 210.975 0.999728 4.12663 0
M  V30 2128 O 211.999 0.904299 3.4453 0
M  V30 2129 O 210.858 1.14289 5.34416 0
M  V30 2130 H 207.952 0.138025 0.815401 0
M  V30 2131 H 210.498 0.98834 1.37949 0
M  V30 2132 H 209.27 2.00067 3.36287 0
M  V30 2133 H 208.893 0.391728 3.95666 0
M  V30 2134 N 209.89 -1.43072 0.660911 0
M  V30 2135 C 210.837 -2.30785 -0.0259884 0
M  V30 2136 C 211.807 -1.45184 -0.806888 0
M  V30 2137 O 212.992 -1.74041 -0.781943 0
M  V30 2138 C 210.132 -3.30861 -0.981067 0
M  V30 2139 C 209.245 -4.31558 -0.195458 0
M  V30 2140 C 208.38 -5.18712 -1.14503 0
M  V30 2141 C 207.419 -6.11097 -0.350299 0
M  V30 2142 N 206.556 -6.90849 -1.25186 0
M  V30 2143 H 211.396 -2.88975 0.727846 0
M  V30 2144 H 208.933 -1.42353 0.370682 0
M  V30 2145 H 210.891 -3.87399 -1.54849 0
M  V30 2146 H 209.521 -2.74304 -1.70169 0
M  V30 2147 H 208.573 -3.77252 0.488374 0
M  V30 2148 H 209.885 -4.9701 0.422176 0
M  V30 2149 H 209.039 -5.79914 -1.78284 0
M  V30 2150 H 207.778 -4.53404 -1.79656 0
M  V30 2151 H 206.783 -5.48976 0.300808 0
M  V30 2152 H 208.008 -6.7845 0.296941 0
M  V30 2153 H 205.954 -6.28182 -1.89005 0
M  V30 2154 H 205.871 -7.52854 -0.688971 0
M  V30 2155 H 207.139 -7.5655 -1.87757 0
M  V30 2156 N 211.368 -0.403325 -1.52352 0
M  V30 2157 C 212.779 0.0675782 -1.86578 0
M  V30 2158 C 213.13 1.44941 -1.32236 0
M  V30 2159 O 212.255 2.06112 -0.659307 0
M  V30 2160 C 212.85 0.129404 -3.38553 0
M  V30 2161 C 211.409 0.544629 -3.72439 0
M  V30 2162 C 210.556 -0.284551 -2.75836 0
M  V30 2163 H 213.507 -0.620631 -1.46061 0
M  V30 2164 H 213.528 0.94581 -3.68558 0
M  V30 2165 H 213.04 -0.87645 -3.78074 0
M  V30 2166 H 211.141 1.55734 -3.38493 0
M  V30 2167 H 211.254 0.293046 -4.78203 0
M  V30 2168 H 209.618 0.252258 -2.53448 0
M  V30 2169 H 210.401 -1.28865 -3.18196 0
M  V30 2170 N 212.846 1.57033 -0.133567 0
M  V30 2171 C 213.776 2.1909 0.807567 0
M  V30 2172 C 214.757 1.13517 1.26681 0
M  V30 2173 O 215.942 1.41809 1.32679 0
M  V30 2174 C 213.072 2.80188 2.05212 0
M  V30 2175 C 212.026 3.91471 1.73015 0
M  V30 2176 C 211.352 4.39443 3.04622 0
M  V30 2177 C 212.652 5.12886 0.987168 0
M  V30 2178 H 214.346 2.97988 0.290403 0
M  V30 2179 H 211.892 1.43335 0.138239 0
M  V30 2180 H 213.845 3.22264 2.71521 0
M  V30 2181 H 212.569 1.98601 2.59278 0
M  V30 2182 H 211.228 3.49993 1.0909 0
M  V30 2183 H 210.876 3.54695 3.56651 0
M  V30 2184 H 210.576 5.14495 2.83847 0
M  V30 2185 H 212.1 4.8418 3.72024 0
M  V30 2186 H 213.514 5.51891 1.55208 0
M  V30 2187 H 211.911 5.93615 0.87985 0
M  V30 2188 H 212.981 4.84894 -0.0235286 0
M  V30 2189 N 214.325 -0.140222 1.56975 0
M  V30 2190 C 215.55 -0.870414 1.88251 0
M  V30 2191 C 215.975 -1.73637 0.723312 0
M  V30 2192 O 215.333 -1.78329 -0.32689 0
M  V30 2193 C 215.381 -1.69737 3.18154 0
M  V30 2194 O 214.485 -2.80229 3.02565 0
M  V30 2195 H 213.826 -0.242025 0.61832 0
M  V30 2196 H 216.356 -0.128999 2.04193 0
M  V30 2197 H 216.366 -2.09099 3.50345 0
M  V30 2198 H 215.041 -1.06152 4.02125 0
M  V30 2199 H 213.618 -2.44224 2.81796 0
M  V30 2200 N 215.803 -1.52179 -0.40978 0
M  V30 2201 C 217.219 -1.40968 -0.74835 0
M  V30 2202 C 217.419 -0.513657 -1.94843 0
M  V30 2203 O 216.475 0.0208026 -2.52491 0
M  V30 2204 C 217.788 -2.83483 -1.0029 0
M  V30 2205 C 219.336 -2.92821 -1.10565 0
M  V30 2206 C 219.811 -4.36303 -1.39296 0
M  V30 2207 N 221.302 -4.39535 -1.46162 0
M  V30 2208 C 222.037 -5.47614 -1.70018 0
M  V30 2209 N 221.533 -6.65812 -1.91483 0
M  V30 2210 N 223.326 -5.35129 -1.72027 0
M  V30 2211 H 215.477 -2.0897 0.380186 0
M  V30 2212 H 217.74 -0.94185 0.107805 0
M  V30 2213 H 217.446 -3.51168 -0.193461 0
M  V30 2214 H 217.32 -3.24487 -1.92323 0
M  V30 2215 H 219.707 -2.25318 -1.90568 0
M  V30 2216 H 219.788 -2.55276 -0.16369 0
M  V30 2217 H 219.432 -5.04366 -0.598109 0
M  V30 2218 H 219.362 -4.71385 -2.34743 0
M  V30 2219 H 221.853 -3.54332 -1.31367 0
M  V30 2220 H 222.166 -7.43964 -2.09134 0
M  V30 2221 H 220.511 -6.68879 -1.88749 0
M  V30 2222 H 223.702 -4.41764 -1.54796 0
M  V30 2223 H 223.875 -6.19433 -1.9028 0
M  V30 2224 N 217.281 0.66697 -1.42791 0
M  V30 2225 C 218.697 0.981027 -1.25889 0
M  V30 2226 C 218.897 2.00793 -0.168695 0
M  V30 2227 O 217.953 2.48321 0.45747 0
M  V30 2228 C 219.266 1.47838 -2.61848 0
M  V30 2229 C 220.814 1.59575 -2.69267 0
M  V30 2230 C 221.289 2.12704 -4.05612 0
M  V30 2231 N 222.78 2.20026 -4.07606 0
M  V30 2232 C 223.515 2.62227 -5.09926 0
M  V30 2233 N 223.011 3.03824 -6.22626 0
M  V30 2234 N 224.804 2.62045 -4.97281 0
M  V30 2235 H 216.955 -0.0127891 -2.12396 0
M  V30 2236 H 219.218 0.0568258 -0.946295 0
M  V30 2237 H 218.924 0.798299 -3.4252 0
M  V30 2238 H 218.798 2.45579 -2.86305 0
M  V30 2239 H 221.185 2.26687 -1.88936 0
M  V30 2240 H 221.266 0.60302 -2.48591 0
M  V30 2241 H 220.91 1.46198 -4.86404 0
M  V30 2242 H 220.84 3.12782 -4.23645 0
M  V30 2243 H 223.331 1.90708 -3.2625 0
M  V30 2244 H 223.644 3.34734 -6.96544 0
M  V30 2245 H 221.989 3.01662 -6.26119 0
M  V30 2246 H 225.18 2.28916 -4.08308 0
M  V30 2247 H 225.353 2.94613 -5.77154 0
M  V30 2248 N 218.759 1.29093 0.90403 0
M  V30 2249 C 219.689 1.16401 2.02418 0
M  V30 2250 C 220.67 0.0593085 1.69997 0
M  V30 2251 O 221.855 0.238021 1.92736 0
M  V30 2252 C 218.985 0.835233 3.37107 0
M  V30 2253 C 217.939 1.89578 3.83724 0
M  V30 2254 C 217.265 1.42041 5.15489 0
M  V30 2255 C 218.565 3.30394 4.04521 0
M  V30 2256 H 220.259 2.10109 2.13295 0
M  V30 2257 H 217.805 1.01157 1.02486 0
M  V30 2258 H 219.758 0.733169 4.14973 0
M  V30 2259 H 218.482 -0.137543 3.2631 0
M  V30 2260 H 217.141 1.98715 3.08071 0
M  V30 2261 H 216.789 0.436426 5.01103 0
M  V30 2262 H 216.489 2.12964 5.4765 0
M  V30 2263 H 218.013 1.33176 5.959 0
M  V30 2264 H 219.427 3.24123 4.72882 0
M  V30 2265 H 217.824 3.99237 4.48029 0
M  V30 2266 H 218.894 3.73692 3.09002 0
M  V30 2267 N 220.237 -1.11381 1.11499 0
M  V30 2268 C 221.653 -1.35143 0.849031 0
M  V30 2269 C 221.853 -1.94515 -0.525938 0
M  V30 2270 O 220.909 -2.1785 -1.27662 0
M  V30 2271 C 222.222 -2.28249 1.95762 0
M  V30 2272 C 223.77 -2.41812 1.98736 0
M  V30 2273 C 224.245 -3.3824 3.088 0
M  V30 2274 N 225.736 -3.45803 3.08179 0
M  V30 2275 C 226.471 -4.20358 3.89982 0
M  V30 2276 N 225.967 -4.97884 4.8175 0
M  V30 2277 N 227.76 -4.15877 3.78157 0
M  V30 2278 H 219.911 -0.712062 2.00109 0
M  V30 2279 H 222.174 -0.376025 0.870235 0
M  V30 2280 H 221.88 -1.91817 2.94787 0
M  V30 2281 H 221.754 -3.28473 1.85433 0
M  V30 2282 H 224.141 -2.77518 1.00338 0
M  V30 2283 H 224.222 -1.41437 2.13141 0
M  V30 2284 H 223.866 -3.03261 4.07425 0
M  V30 2285 H 223.796 -4.38471 2.91635 0
M  V30 2286 H 226.287 -2.90506 2.41691 0
M  V30 2287 H 226.6 -5.52142 5.40702 0
M  V30 2288 H 224.945 -4.97043 4.85771 0
M  V30 2289 H 228.136 -3.544 3.05808 0
M  V30 2290 H 228.309 -4.73723 4.42143 0
M  V30 2291 N 221.715 -0.905404 -1.28997 0
M  V30 2292 C 223.131 -0.60233 -1.47798 0
M  V30 2293 C 223.331 0.854645 -1.82478 0
M  V30 2294 O 222.387 1.63439 -1.92468 0
M  V30 2295 C 223.7 -1.53306 -2.58685 0
M  V30 2296 C 225.248 -1.53887 -2.72558 0
M  V30 2297 C 225.723 -2.45602 -3.86579 0
M  V30 2298 N 227.214 -2.43681 -3.93921 0
M  V30 2299 C 227.949 -3.11347 -4.81509 0
M  V30 2300 N 227.445 -3.88313 -5.73746 0
M  V30 2301 N 229.238 -3.00476 -4.75048 0
M  V30 2302 H 221.389 -1.84765 -1.04764 0
M  V30 2303 H 223.652 -0.792025 -0.520961 0
M  V30 2304 H 223.358 -2.57141 -2.39941 0
M  V30 2305 H 223.232 -1.25787 -3.55609 0
M  V30 2306 H 225.619 -0.507941 -2.90696 0
M  V30 2307 H 225.7 -1.85447 -1.76191 0
M  V30 2308 H 225.344 -3.48792 -3.69197 0
M  V30 2309 H 225.274 -2.11349 -4.82327 0
M  V30 2310 H 227.765 -1.87767 -3.27951 0
M  V30 2311 H 228.078 -4.36985 -6.37389 0
M  V30 2312 H 226.423 -3.92419 -5.73614 0
M  V30 2313 H 229.614 -2.39858 -4.01977 0
M  V30 2314 H 229.787 -3.53485 -5.43095 0
M  V30 2315 N 223.193 1.4272 -0.668489 0
M  V30 2316 C 224.439 2.01923 -0.188419 0
M  V30 2317 C 224.772 1.52704 1.19979 0
M  V30 2318 O 224.047 0.726566 1.8042 0
M  V30 2319 C 224.33 3.59451 -0.216085 0
M  V30 2320 C 224.183 4.18864 -1.6393 0
M  V30 2321 C 225.502 4.37903 0.439179 0
M  V30 2322 H 222.621 0.733674 -0.0699412 0
M  V30 2323 H 225.263 1.69822 -0.852076 0
M  V30 2324 H 223.413 3.86929 0.349012 0
M  V30 2325 H 225.085 4.02362 -2.25616 0
M  V30 2326 H 223.328 3.74933 -2.18193 0
M  V30 2327 H 223.999 5.27987 -1.61039 0
M  V30 2328 H 226.475 4.16079 -0.0417878 0
M  V30 2329 H 225.351 5.47519 0.389157 0
M  V30 2330 H 225.612 4.15303 1.51577 0
M  V30 2331 N 224.671 0.411399 1.52136 0
M  V30 2332 C 225.896 -0.165538 2.06738 0
M  V30 2333 C 226.321 -1.379 1.27926 0
M  V30 2334 O 225.679 -1.78628 0.310114 0
M  V30 2335 C 225.727 -0.492124 3.57226 0
M  V30 2336 O 224.831 -1.58276 3.80818 0
M  V30 2337 H 224.172 -0.0132132 0.663869 0
M  V30 2338 H 226.702 0.585253 1.96051 0
M  V30 2339 H 226.712 -0.750104 4.01045 0
M  V30 2340 H 225.387 0.394922 4.14021 0
M  V30 2341 H 223.964 -1.31677 3.48877 0
M  V30 2342 N 226.149 -1.5696 0.141893 0
M  V30 2343 C 227.079 -2.19516 -0.795936 0
M  V30 2344 C 228.06 -1.14187 -1.26077 0
M  V30 2345 O 229.245 -1.42511 -1.31925 0
M  V30 2346 C 226.375 -2.81272 -2.03723 0
M  V30 2347 C 225.329 -3.92384 -1.70936 0
M  V30 2348 C 224.655 -4.41052 -3.02287 0
M  V30 2349 C 225.955 -5.13403 -0.959954 0
M  V30 2350 H 227.649 -2.98138 -0.274596 0
M  V30 2351 H 225.195 -1.43406 -0.130636 0
M  V30 2352 H 227.148 -3.237 -2.69808 0
M  V30 2353 H 225.872 -1.99973 -2.58221 0
M  V30 2354 H 224.531 -3.50566 -1.07232 0
M  V30 2355 H 224.179 -3.56582 -3.54765 0
M  V30 2356 H 223.879 -5.15993 -2.81114 0
M  V30 2357 H 225.403 -4.86146 -3.69451 0
M  V30 2358 H 226.817 -5.52706 -1.52279 0
M  V30 2359 H 225.214 -5.94073 -0.848357 0
M  V30 2360 H 226.284 -4.84875 0.0492434 0
M  V30 2361 N 227.627 0.131896 -1.57047 0
M  V30 2362 C 228.852 0.860418 -1.8871 0
M  V30 2363 C 229.277 1.73251 -0.73251 0
M  V30 2364 O 228.635 1.785 0.317429 0
M  V30 2365 C 228.683 1.68047 -3.19049 0
M  V30 2366 O 227.787 2.7862 -3.04047 0
M  V30 2367 H 227.128 0.238743 -0.619595 0
M  V30 2368 H 229.658 0.118169 -2.04258 0
M  V30 2369 H 229.668 2.07238 -3.51449 0
M  V30 2370 H 228.343 1.04018 -4.02682 0
M  V30 2371 H 226.92 2.42726 -2.83088 0
M  V30 2372 N 229.106 1.52395 0.401703 0
M  V30 2373 C 230.016 1.7917 1.51444 0
M  V30 2374 C 231.032 0.677691 1.6026 0
M  V30 2375 O 232.208 0.963909 1.76835 0
M  V30 2376 C 229.273 1.94347 2.87107 0
M  V30 2377 C 228.334 3.18257 2.88116 0
M  V30 2378 C 227.567 3.32701 4.17308 0
M  V30 2379 O 227.79 2.52238 5.11598 0
M  V30 2380 O 226.724 4.25891 4.25324 0
M  V30 2381 H 230.55 2.73633 1.31752 0
M  V30 2382 H 228.135 1.3733 0.588296 0
M  V30 2383 H 230.017 2.06109 3.67555 0
M  V30 2384 H 228.692 1.03073 3.06851 0
M  V30 2385 H 227.599 3.11947 2.06494 0
M  V30 2386 H 228.932 4.09336 2.73322 0
M  V30 2387 N 230.584 -0.659388 1.43143 0
M  V30 2388 C 231.833 -1.41518 1.43721 0
M  V30 2389 C 232.146 -1.95499 0.0628176 0
M  V30 2390 O 233.352 -2.71446 -0.0539683 0
M  V30 2391 C 231.808 -2.5608 2.52885 0
M  V30 2392 C 231.416 -2.08733 3.96402 0
M  V30 2393 C 233.16 -3.3349 2.62649 0
M  V30 2394 C 231.067 -3.20469 4.97045 0
M  V30 2395 H 229.997 -0.531705 0.534608 0
M  V30 2396 H 232.648 -0.712343 1.69109 0
M  V30 2397 H 231.03 -3.28805 2.20688 0
M  V30 2398 H 232.204 -1.43059 4.3803 0
M  V30 2399 H 230.519 -1.44219 3.90627 0
M  V30 2400 H 233.116 -4.16734 3.35017 0
M  V30 2401 H 233.459 -3.8111 1.67513 0
M  V30 2402 H 233.992 -2.67842 2.94118 0
M  V30 2403 H 230.731 -2.77824 5.93712 0
M  V30 2404 H 230.251 -3.84874 4.60034 0
M  V30 2405 H 231.93 -3.85698 5.19467 0
M  V30 2406 N 232.062 -1.29571 -0.897171 0
M  V30 2407 C 233.31 -1.17456 -1.64464 0
M  V30 2408 C 233.631 0.273698 -1.9307 0
M  V30 2409 O 232.901 1.18684 -1.55855 0
M  V30 2410 H 231.481 -0.431706 -0.609622 0
M  V30 2411 H 234.143 -1.62531 -1.07562 0
M  V30 2412 H 233.239 -1.72648 -2.59998 0
M  V30 2413 N 233.54 1.10788 -1.12088 0
M  V30 2414 C 234.787 1.82671 -0.873931 0
M  V30 2415 C 235.115 1.85004 0.600311 0
M  V30 2416 O 234.37 1.30365 1.45957 0
M  V30 2417 C 234.669 3.29294 -1.38926 0
M  V30 2418 C 234.335 3.47113 -2.87791 0
M  V30 2419 C 232.997 3.51684 -3.28439 0
M  V30 2420 C 235.349 3.52808 -3.83635 0
M  V30 2421 C 232.677 3.59513 -4.63646 0
M  V30 2422 C 235.029 3.62169 -5.18668 0
M  V30 2423 C 233.693 3.65003 -5.58864 0
M  V30 2424 H 232.963 0.668441 -0.319794 0
M  V30 2425 H 235.61 1.30613 -1.40045 0
M  V30 2426 H 233.915 3.83894 -0.783122 0
M  V30 2427 H 235.612 3.83416 -1.17443 0
M  V30 2428 H 232.202 3.4423 -2.5535 0
M  V30 2429 H 236.386 3.4853 -3.53328 0
M  V30 2430 H 231.642 3.59987 -4.94185 0
M  V30 2431 H 235.816 3.6552 -5.92763 0
M  V30 2432 H 233.443 3.70822 -6.63623 0
M  V30 2433 N 235.018 0.912232 1.28515 0
M  V30 2434 C 236.266 0.543523 1.94654 0
M  V30 2435 C 236.587 -0.9155 1.72173 0
M  V30 2436 O 235.857 -1.64708 1.06058 0
M  V30 2437 H 234.437 0.198017 0.720277 0
M  V30 2438 H 237.099 1.16126 1.56527 0
M  V30 2439 H 236.195 0.736684 3.03281 0
M  V30 2440 N 236.496 -1.42363 0.676048 0
M  V30 2441 C 237.443 -2.308 -0.00150904 0
M  V30 2442 C 238.413 -1.46032 -0.791444 0
M  V30 2443 O 239.598 -1.74861 -0.76344 0
M  V30 2444 C 236.738 -3.31883 -0.945919 0
M  V30 2445 C 235.851 -4.31741 -0.149675 0
M  V30 2446 C 234.986 -5.19898 -1.08995 0
M  V30 2447 C 234.025 -6.11434 -0.285465 0
M  V30 2448 N 233.162 -6.92138 -1.17851 0
M  V30 2449 H 238.002 -2.88187 0.758455 0
M  V30 2450 H 235.539 -1.41952 0.38576 0
M  V30 2451 H 237.497 -3.89019 -1.50731 0
M  V30 2452 H 236.127 -2.76093 -1.6725 0
M  V30 2453 H 235.179 -3.76713 0.528359 0
M  V30 2454 H 236.491 -4.96534 0.474866 0
M  V30 2455 H 235.645 -5.81772 -1.72123 0
M  V30 2456 H 234.384 -4.55284 -1.74837 0
M  V30 2457 H 233.389 -5.48627 0.359018 0
M  V30 2458 H 234.614 -6.78097 0.368883 0
M  V30 2459 H 232.56 -6.30152 -1.82332 0
M  V30 2460 H 232.477 -7.53542 -0.609082 0
M  V30 2461 H 233.745 -7.58499 -1.79722 0
M  V30 2462 N 237.974 -0.419461 -1.51915 0
M  V30 2463 C 238.904 0.391813 -2.30189 0
M  V30 2464 C 239.885 1.03699 -1.34836 0
M  V30 2465 O 241.07 1.04403 -1.63748 0
M  V30 2466 C 238.2 1.50312 -3.13087 0
M  V30 2467 C 237.154 0.9824 -4.16573 0
M  V30 2468 C 236.48 2.18809 -4.8788 0
M  V30 2469 C 237.78 0.0292356 -5.22292 0
M  V30 2470 H 239.474 -0.26135 -2.98257 0
M  V30 2471 H 237.02 -0.127134 -1.43438 0
M  V30 2472 H 238.973 2.07773 -3.66617 0
M  V30 2473 H 237.697 2.18431 -2.42807 0
M  V30 2474 H 236.356 0.430119 -3.64068 0
M  V30 2475 H 236.004 2.85507 -4.14119 0
M  V30 2476 H 235.704 1.84615 -5.57845 0
M  V30 2477 H 237.228 2.76858 -5.44226 0
M  V30 2478 H 238.642 0.512976 -5.71 0
M  V30 2479 H 237.039 -0.2244 -5.9968 0
M  V30 2480 H 238.109 -0.912931 -4.76228 0
M  V30 2481 N 239.452 1.56882 -0.150215 0
M  V30 2482 C 240.362 2.20494 0.801222 0
M  V30 2483 C 241.378 1.19019 1.26927 0
M  V30 2484 O 242.554 1.51607 1.32579 0
M  V30 2485 C 239.619 2.81659 2.02161 0
M  V30 2486 C 238.68 3.9827 1.60249 0
M  V30 2487 C 237.913 4.56508 2.7647 0
M  V30 2488 O 238.136 4.13627 3.92771 0
M  V30 2489 O 237.07 5.46719 2.51757 0
M  V30 2490 H 240.896 3.02315 0.289717 0
M  V30 2491 H 238.481 1.49202 0.0769684 0
M  V30 2492 H 240.363 3.20522 2.73576 0
M  V30 2493 H 239.038 2.02849 2.52258 0
M  V30 2494 H 237.945 3.64117 0.858477 0
M  V30 2495 H 239.278 4.78609 1.14864 0
M  V30 2496 N 240.93 -0.123565 1.57115 0
M  V30 2497 C 242.158 -0.846461 1.88793 0
M  V30 2498 C 242.573 -1.73652 0.740976 0
M  V30 2499 O 241.93 -1.80207 -0.288393 0
M  V30 2500 C 241.981 -1.6837 3.19897 0
M  V30 2501 O 241.702 -0.829477 4.30176 0
M  V30 2502 C 243.203 -2.51214 3.65248 0
M  V30 2503 H 240.423 -0.243573 0.625231 0
M  V30 2504 H 242.967 -0.109324 2.04208 0
M  V30 2505 H 241.122 -2.37364 3.06165 0
M  V30 2506 H 241.536 -1.40651 5.0529 0
M  V30 2507 H 243.01 -3.05497 4.59756 0
M  V30 2508 H 243.487 -3.28359 2.9168 0
M  V30 2509 H 244.093 -1.8747 3.81752 0
M  V30 2510 N 242.408 -1.52605 -0.393616 0
M  V30 2511 C 243.638 -1.71046 -1.15874 0
M  V30 2512 C 244.046 -0.426483 -1.84331 0
M  V30 2513 O 243.389 0.608513 -1.73329 0
M  V30 2514 C 243.451 -2.80118 -2.25332 0
M  V30 2515 C 243.115 -4.21381 -1.76881 0
M  V30 2516 C 244.112 -5.04697 -1.24808 0
M  V30 2517 C 241.797 -4.67683 -1.83244 0
M  V30 2518 C 243.791 -6.32393 -0.797387 0
M  V30 2519 C 241.478 -5.95364 -1.37787 0
M  V30 2520 C 242.476 -6.77549 -0.861208 0
M  V30 2521 O 242.164 -8.02837 -0.413252 0
M  V30 2522 H 241.896 -0.576155 -0.353583 0
M  V30 2523 H 244.45 -2.00018 -0.467123 0
M  V30 2524 H 242.68 -2.46557 -2.97904 0
M  V30 2525 H 244.369 -2.87006 -2.87023 0
M  V30 2526 H 245.135 -4.70111 -1.19252 0
M  V30 2527 H 241.014 -4.03805 -2.22401 0
M  V30 2528 H 244.558 -6.9649 -0.393437 0
M  V30 2529 H 240.455 -6.29455 -1.43026 0
M  V30 2530 H 241.223 -8.16749 -0.53515 0
M  V30 2531 N 243.887 0.651787 -1.4349 0
M  V30 2532 C 245.136 1.40754 -1.44469 0
M  V30 2533 C 245.449 1.95463 -0.0731845 0
M  V30 2534 O 246.655 2.71471 0.0395721 0
M  V30 2535 C 245.111 2.54735 -2.5424 0
M  V30 2536 C 244.719 2.06628 -3.97504 0
M  V30 2537 C 246.463 3.32092 -2.64414 0
M  V30 2538 C 244.37 3.17829 -4.98737 0
M  V30 2539 H 243.3 0.528862 -0.53742 0
M  V30 2540 H 245.951 0.703365 -1.69485 0
M  V30 2541 H 244.333 3.2763 -2.22428 0
M  V30 2542 H 245.507 1.40734 -4.38783 0
M  V30 2543 H 243.822 1.42146 -3.91387 0
M  V30 2544 H 246.419 4.14952 -3.37223 0
M  V30 2545 H 246.762 3.80217 -1.69532 0
M  V30 2546 H 247.295 2.66279 -2.95534 0
M  V30 2547 H 244.034 2.74671 -5.95177 0
M  V30 2548 H 243.554 3.82429 -4.62069 0
M  V30 2549 H 245.233 3.82937 -5.21505 0
M  V30 2550 N 245.365 1.30045 0.890287 0
M  V30 2551 C 246.312 1.15976 1.99545 0
M  V30 2552 C 247.282 0.0506202 1.66023 0
M  V30 2553 O 248.467 0.219847 1.89529 0
M  V30 2554 C 245.607 0.852054 3.34416 0
M  V30 2555 C 244.72 2.04255 3.80662 0
M  V30 2556 C 243.855 1.6734 5.04154 0
M  V30 2557 C 242.894 2.82916 5.42794 0
M  V30 2558 N 242.031 2.46333 6.57468 0
M  V30 2559 H 246.871 2.10524 2.10911 0
M  V30 2560 H 244.408 1.04749 1.03276 0
M  V30 2561 H 246.366 0.654296 4.12037 0
M  V30 2562 H 244.996 -0.0565502 3.2275 0
M  V30 2563 H 244.048 2.35172 2.98995 0
M  V30 2564 H 245.36 2.90826 4.05242 0
M  V30 2565 H 244.514 1.43908 5.89386 0
M  V30 2566 H 243.253 0.779308 4.81433 0
M  V30 2567 H 242.258 3.0702 4.56091 0
M  V30 2568 H 243.483 3.73004 5.6749 0
M  V30 2569 H 241.429 1.59423 6.36334 0
M  V30 2570 H 241.346 3.26436 6.81891 0
M  V30 2571 H 242.614 2.26244 7.45945 0
M  V30 2572 N 246.843 -1.10192 1.12674 0
M  V30 2573 C 247.773 -2.18652 0.819362 0
M  V30 2574 C 248.754 -1.68698 -0.217915 0
M  V30 2575 O 249.939 -1.94041 -0.0785581 0
M  V30 2576 C 247.069 -3.46202 0.27594 0
M  V30 2577 C 246.023 -4.09444 1.24656 0
M  V30 2578 C 245.349 -5.31725 0.563258 0
M  V30 2579 C 246.649 -4.52863 2.60217 0
M  V30 2580 H 248.343 -2.44622 1.72628 0
M  V30 2581 H 245.889 -1.17571 0.831451 0
M  V30 2582 H 247.842 -4.21372 0.0486149 0
M  V30 2583 H 246.566 -3.1973 -0.666331 0
M  V30 2584 H 245.225 -3.36284 1.45974 0
M  V30 2585 H 244.873 -5.0153 -0.384235 0
M  V30 2586 H 244.573 -5.74991 1.21075 0
M  V30 2587 H 246.097 -6.09624 0.34503 0
M  V30 2588 H 247.511 -5.19294 2.42913 0
M  V30 2589 H 245.908 -5.06986 3.21068 0
M  V30 2590 H 246.978 -3.65656 3.18471 0
M  V30 2591 N 248.321 -0.919034 -1.28029 0
M  V30 2592 C 249.598 -0.473668 -1.89778 0
M  V30 2593 C 249.978 1.04783 -1.83259 0
M  V30 2594 O 249.326 1.8982 -1.27202 0
M  V30 2595 C 249.536 -1.00998 -3.34066 0
M  V30 2596 C 250.884 -1.06525 -4.1102 0
M  V30 2597 O 251.908 -0.958996 -3.43048 0
M  V30 2598 O 250.767 -1.22776 -5.3253 0
M  V30 2599 H 247.861 -0.15098 -0.813101 0
M  V30 2600 H 250.407 -1.01016 -1.36359 0
M  V30 2601 H 249.179 -2.05392 -3.33061 0
M  V30 2602 H 248.802 -0.454626 -3.94992 0
M  V30 2603 N 249.799 1.42003 -0.683588 0
M  V30 2604 C 250.746 2.30798 -0.0107309 0
M  V30 2605 C 251.716 1.4645 0.783688 0
M  V30 2606 O 252.901 1.75263 0.754156 0
M  V30 2607 C 250.041 3.3238 0.928306 0
M  V30 2608 C 249.154 4.31814 0.126776 0
M  V30 2609 C 248.289 5.20468 1.06236 0
M  V30 2610 C 247.328 6.11577 0.253035 0
M  V30 2611 N 246.465 6.92754 1.14179 0
M  V30 2612 H 251.305 2.8778 -0.773727 0
M  V30 2613 H 248.842 1.41745 -0.393283 0
M  V30 2614 H 250.8 3.89813 1.48666 0
M  V30 2615 H 249.43 2.76976 1.65783 0
M  V30 2616 H 248.482 3.76427 -0.54833 0
M  V30 2617 H 249.794 4.96276 -0.501192 0
M  V30 2618 H 248.948 5.82677 1.69035 0
M  V30 2619 H 247.687 4.56204 1.7242 0
M  V30 2620 H 246.692 5.48428 -0.388108 0
M  V30 2621 H 247.917 6.77892 -0.404839 0
M  V30 2622 H 245.863 6.3111 1.78987 0
M  V30 2623 H 245.78 7.53855 0.569111 0
M  V30 2624 H 247.048 7.59441 1.75697 0
M  V30 2625 N 251.277 0.427512 1.51691 0
M  V30 2626 C 252.207 -0.3796 2.30394 0
M  V30 2627 C 253.188 -1.02982 1.35384 0
M  V30 2628 O 254.373 -1.03534 1.643 0
M  V30 2629 C 251.503 -1.48649 3.1388 0
M  V30 2630 C 250.457 -0.960294 4.17088 0
M  V30 2631 C 249.783 -2.16219 4.89033 0
M  V30 2632 C 251.083 -0.00153679 5.223 0
M  V30 2633 H 252.777 0.277164 2.98114 0
M  V30 2634 H 250.323 0.134739 1.43368 0
M  V30 2635 H 252.276 -2.05826 3.67714 0
M  V30 2636 H 251 -2.1714 2.43962 0
M  V30 2637 H 249.659 -0.410806 3.64291 0
M  V30 2638 H 249.307 -2.83307 4.15628 0
M  V30 2639 H 249.007 -1.81654 5.58816 0
M  V30 2640 H 250.531 -2.73968 5.45687 0
M  V30 2641 H 251.945 -0.482687 5.71264 0
M  V30 2642 H 250.342 0.256199 5.99553 0
M  V30 2643 H 251.412 0.938174 4.75738 0
M  V30 2644 N 252.755 -1.56801 0.158532 0
M  V30 2645 C 254.003 -1.96102 -0.488712 0
M  V30 2646 C 254.324 -1.04498 -1.64636 0
M  V30 2647 O 253.594 -0.108783 -1.95598 0
M  V30 2648 H 252.174 -0.724102 -0.183535 0
M  V30 2649 H 254.836 -1.93457 0.236728 0
M  V30 2650 H 253.932 -3.00097 -0.857219 0
M  V30 2651 N 254.233 0.115231 -1.57178 0
M  V30 2652 C 255.143 1.15994 -2.03918 0
M  V30 2653 C 256.159 1.45103 -0.960268 0
M  V30 2654 O 257.335 1.56144 -1.27204 0
M  V30 2655 C 254.4 2.46568 -2.43732 0
M  V30 2656 C 253.461 2.24822 -3.65723 0
M  V30 2657 C 252.694 3.4917 -4.03629 0
M  V30 2658 O 252.917 4.56623 -3.41835 0
M  V30 2659 O 251.851 3.39949 -4.96708 0
M  V30 2660 H 255.677 0.793019 -2.93164 0
M  V30 2661 H 253.262 0.3263 -1.45793 0
M  V30 2662 H 255.144 3.23492 -2.70057 0
M  V30 2663 H 253.819 2.82726 -1.57631 0
M  V30 2664 H 252.726 1.45744 -3.44542 0
M  V30 2665 H 254.059 1.93566 -4.52541 0
M  V30 2666 N 255.711 1.52812 0.385517 0
M  V30 2667 C 256.959 1.67694 1.12797 0
M  V30 2668 C 257.28 0.421115 1.90399 0
M  V30 2669 O 256.55 -0.564551 1.87589 0
M  V30 2670 H 255.13 0.618155 0.419396 0
M  V30 2671 H 257.792 1.89938 0.436972 0
M  V30 2672 H 256.888 2.52896 1.82894 0
M  V30 2673 N 257.189 -0.644168 1.43834 0
M  V30 2674 C 258.417 -1.43147 1.49387 0
M  V30 2675 C 258.832 -1.88452 0.114583 0
M  V30 2676 O 258.189 -1.60047 -0.876989 0
M  V30 2677 C 258.24 -2.66046 2.44748 0
M  V30 2678 O 257.961 -2.22633 3.77314 0
M  V30 2679 C 259.462 -3.59311 2.59635 0
M  V30 2680 H 256.682 -0.439447 0.507077 0
M  V30 2681 H 259.226 -0.78895 1.88669 0
M  V30 2682 H 257.381 -3.26418 2.08638 0
M  V30 2683 H 257.795 -3.02216 4.28679 0
M  V30 2684 H 259.269 -4.42187 3.30416 0
M  V30 2685 H 259.746 -4.07259 1.64427 0
M  V30 2686 H 260.352 -3.04816 2.96593 0
M  V30 2687 N 258.668 -1.30515 -0.883378 0
M  V30 2688 C 259.898 -1.22182 -1.66599 0
M  V30 2689 C 260.306 0.217507 -1.87946 0
M  V30 2690 O 259.649 1.1554 -1.42815 0
M  V30 2691 C 259.711 -1.88146 -3.06335 0
M  V30 2692 C 259.375 -3.37476 -3.08154 0
M  V30 2693 C 260.372 -4.33443 -2.87094 0
M  V30 2694 C 258.057 -3.7895 -3.29701 0
M  V30 2695 C 260.051 -5.68858 -2.8754 0
M  V30 2696 C 257.738 -5.14482 -3.29776 0
M  V30 2697 C 258.736 -6.09246 -3.0872 0
M  V30 2698 O 258.424 -7.42302 -3.08615 0
M  V30 2699 H 258.156 -0.423898 -0.52658 0
M  V30 2700 H 260.71 -1.72703 -1.11188 0
M  V30 2701 H 258.94 -1.32157 -3.63416 0
M  V30 2702 H 260.629 -1.7391 -3.66756 0
M  V30 2703 H 261.395 -4.02733 -2.70243 0
M  V30 2704 H 257.274 -3.05631 -3.45124 0
M  V30 2705 H 260.818 -6.428 -2.71024 0
M  V30 2706 H 256.715 -5.44832 -3.46163 0
M  V30 2707 H 257.483 -7.5131 -3.24769 0
M  V30 2708 N 260.146 1.09593 -1.13257 0
M  V30 2709 C 261.109 2.14359 -0.811358 0
M  V30 2710 C 262.109 1.59808 0.178377 0
M  V30 2711 O 263.299 1.74132 -0.0484911 0
M  V30 2712 C 260.431 3.40269 -0.207276 0
M  V30 2713 H 261.624 2.44284 -1.73969 0
M  V30 2714 H 259.177 1.25102 -0.936973 0
M  V30 2715 H 259.912 3.15969 0.73036 0
M  V30 2716 H 259.697 3.81154 -0.919992 0
M  V30 2717 H 261.187 4.176 0.000667944 0
M  V30 2718 N 261.624 0.925811 1.2754 0
M  V30 2719 C 262.852 0.581509 1.9856 0
M  V30 2720 C 263.267 -0.840041 1.69082 0
M  V30 2721 O 262.624 -1.55805 0.950312 0
M  V30 2722 C 262.675 0.795589 3.52637 0
M  V30 2723 O 262.396 2.16121 3.81082 0
M  V30 2724 C 263.897 0.459744 4.4091 0
M  V30 2725 H 261.117 0.220538 0.633722 0
M  V30 2726 H 263.661 1.24232 1.6244 0
M  V30 2727 H 261.816 0.18161 3.86974 0
M  V30 2728 H 262.23 2.2098 4.75676 0
M  V30 2729 H 263.704 0.660244 5.48037 0
M  V30 2730 H 264.181 -0.604625 4.35018 0
M  V30 2731 H 264.787 1.05178 4.12089 0
M  V30 2732 N 263.102 -1.41638 0.69111 0
M  V30 2733 C 264.348 -2.01598 0.220519 0
M  V30 2734 C 264.681 -1.54594 -1.17535 0
M  V30 2735 O 263.956 -0.755177 -1.79241 0
M  V30 2736 C 264.239 -3.59062 0.273243 0
M  V30 2737 C 264.092 -4.16203 1.70573 0
M  V30 2738 C 265.411 -4.38546 -0.369457 0
M  V30 2739 H 262.53 -0.732468 0.0816045 0
M  V30 2740 H 265.172 -1.68445 0.878986 0
M  V30 2741 H 263.322 -3.87435 -0.287411 0
M  V30 2742 H 264.994 -3.98722 2.31989 0
M  V30 2743 H 263.237 -3.71414 2.2413 0
M  V30 2744 H 263.908 -5.25358 1.69419 0
M  V30 2745 H 266.384 -4.1596 0.107977 0
M  V30 2746 H 265.26 -5.48069 -0.302002 0
M  V30 2747 H 265.521 -4.17662 -1.44951 0
M  V30 2748 N 264.58 -0.43555 -1.51462 0
M  V30 2749 C 265.81 0.130053 -2.0619 0
M  V30 2750 C 266.218 1.37164 -1.30317 0
M  V30 2751 O 265.561 1.80225 -0.355598 0
M  V30 2752 C 265.623 0.519418 -3.55728 0
M  V30 2753 C 265.287 -0.615119 -4.52841 0
M  V30 2754 C 266.284 -1.48671 -4.9819 0
M  V30 2755 C 263.969 -0.795341 -4.95963 0
M  V30 2756 C 265.963 -2.52324 -5.8533 0
M  V30 2757 C 263.65 -1.83514 -5.82894 0
M  V30 2758 C 264.648 -2.69748 -6.27475 0
M  V30 2759 O 264.336 -3.71944 -7.1268 0
M  V30 2760 H 264.068 0.0121612 -0.675891 0
M  V30 2761 H 266.622 -0.6129 -1.96043 0
M  V30 2762 H 264.852 1.31505 -3.63653 0
M  V30 2763 H 266.541 1.01597 -3.92979 0
M  V30 2764 H 267.307 -1.359 -4.65571 0
M  V30 2765 H 263.186 -0.133713 -4.60806 0
M  V30 2766 H 266.73 -3.19665 -6.20048 0
M  V30 2767 H 262.627 -1.96306 -6.14926 0
M  V30 2768 H 263.395 -3.68503 -7.30854 0
M  V30 2769 N 266.058 1.56714 -0.166846 0
M  V30 2770 C 267.005 2.17746 0.765193 0
M  V30 2771 C 267.975 1.11614 1.23011 0
M  V30 2772 O 269.16 1.39745 1.29908 0
M  V30 2773 C 266.3 2.81882 1.9909 0
M  V30 2774 C 265.413 4.02462 1.56997 0
M  V30 2775 C 264.548 4.54537 2.749 0
M  V30 2776 C 263.587 5.67538 2.29275 0
M  V30 2777 N 262.724 6.14142 3.40255 0
M  V30 2778 H 267.564 2.97048 0.237952 0
M  V30 2779 H 265.101 1.4672 0.105725 0
M  V30 2780 H 267.059 3.17221 2.70974 0
M  V30 2781 H 265.689 2.05191 2.49192 0
M  V30 2782 H 264.741 3.72973 0.748037 0
M  V30 2783 H 266.053 4.84273 1.19503 0
M  V30 2784 H 265.207 4.92035 3.54946 0
M  V30 2785 H 263.946 3.71774 3.1565 0
M  V30 2786 H 262.951 5.29597 1.47674 0
M  V30 2787 H 264.176 6.52099 1.89588 0
M  V30 2788 H 262.122 5.3431 3.8059 0
M  V30 2789 H 262.039 6.9093 3.06841 0
M  V30 2790 H 263.307 6.56289 4.206 0
M  V30 2791 N 267.536 -0.106894 1.57237 0
M  V30 2792 C 268.784 -0.810921 1.85117 0
M  V30 2793 C 269.105 -1.7984 0.753827 0
M  V30 2794 O 268.375 -1.94649 -0.221056 0
M  V30 2795 H 266.955 -0.302466 0.683025 0
M  V30 2796 H 269.617 -0.0913324 1.94686 0
M  V30 2797 H 268.713 -1.34875 2.81452 0
M  V30 2798 N 269.014 -1.53014 -0.377408 0
M  V30 2799 C 269.961 -1.78616 -1.46168 0
M  V30 2800 C 270.931 -0.629917 -1.53692 0
M  V30 2801 O 272.116 -0.870861 -1.69766 0
M  V30 2802 C 269.256 -1.97123 -2.8326 0
M  V30 2803 C 268.369 -3.24831 -2.84796 0
M  V30 2804 C 267.504 -3.33591 -4.13389 0
M  V30 2805 C 266.543 -4.55377 -4.09021 0
M  V30 2806 N 265.68 -4.61355 -5.29241 0
M  V30 2807 H 270.52 -2.71142 -1.23637 0
M  V30 2808 H 268.057 -1.34326 -0.599577 0
M  V30 2809 H 270.015 -2.05839 -3.62886 0
M  V30 2810 H 268.645 -1.07946 -3.04216 0
M  V30 2811 H 267.697 -3.25128 -1.97474 0
M  V30 2812 H 269.009 -4.14523 -2.77439 0
M  V30 2813 H 268.163 -3.41554 -5.01424 0
M  V30 2814 H 266.902 -2.41894 -4.23484 0
M  V30 2815 H 265.907 -4.47527 -3.19373 0
M  V30 2816 H 267.132 -5.48402 -4.00539 0
M  V30 2817 H 265.078 -3.72554 -5.39944 0
M  V30 2818 H 264.995 -5.44935 -5.24006 0
M  V30 2819 H 266.263 -4.73586 -6.19141 0
M  V30 2820 N 270.492 0.636531 -1.44174 0
M  V30 2821 C 271.717 1.42847 -1.50364 0
M  V30 2822 C 272.142 1.87665 -0.127867 0
M  V30 2823 O 271.5 1.58408 0.88185 0
M  V30 2824 C 271.548 2.62854 -2.4686 0
M  V30 2825 O 270.652 3.62501 -1.9664 0
M  V30 2826 H 269.993 0.427642 -0.507955 0
M  V30 2827 H 272.523 0.777422 -1.89255 0
M  V30 2828 H 272.533 3.10465 -2.64718 0
M  V30 2829 H 271.208 2.29578 -3.46795 0
M  V30 2830 H 269.785 3.21735 -1.88523 0
M  V30 2831 N 271.97 1.30982 0.876444 0
M  V30 2832 C 272.917 1.18085 1.98304 0
M  V30 2833 C 273.887 0.0682263 1.6596 0
M  V30 2834 O 275.072 0.239937 1.89285 0
M  V30 2835 C 272.212 0.887475 3.33493 0
M  V30 2836 C 271.325 2.08281 3.78475 0
M  V30 2837 C 270.46 1.72678 5.0235 0
M  V30 2838 C 269.499 2.88657 5.39762 0
M  V30 2839 N 268.636 2.53292 6.54819 0
M  V30 2840 H 273.476 2.1275 2.08666 0
M  V30 2841 H 271.013 1.05839 1.02159 0
M  V30 2842 H 272.971 0.697961 4.1132 0
M  V30 2843 H 271.601 -0.022315 3.22792 0
M  V30 2844 H 270.653 2.3833 2.96484 0
M  V30 2845 H 271.965 2.95108 4.02135 0
M  V30 2846 H 271.119 1.50151 5.87826 0
M  V30 2847 H 269.858 0.830327 4.8058 0
M  V30 2848 H 268.863 3.1184 4.52809 0
M  V30 2849 H 270.088 3.79002 5.63502 0
M  V30 2850 H 268.034 1.66163 6.34607 0
M  V30 2851 H 267.951 3.3365 6.7839 0
M  V30 2852 H 269.219 2.34143 7.43503 0
M  V30 2853 N 273.449 -1.08991 1.13837 0
M  V30 2854 C 274.379 -2.17771 0.842507 0
M  V30 2855 C 275.36 -1.6892 -0.20001 0
M  V30 2856 O 276.545 -1.94113 -0.0579731 0
M  V30 2857 C 273.675 -3.4589 0.312644 0
M  V30 2858 C 272.629 -4.08099 1.28992 0
M  V30 2859 C 271.955 -5.31098 0.619623 0
M  V30 2860 C 273.255 -4.50077 2.65005 0
M  V30 2861 H 274.949 -2.42777 1.75213 0
M  V30 2862 H 272.495 -1.16682 0.843875 0
M  V30 2863 H 274.448 -4.21297 0.0933043 0
M  V30 2864 H 273.172 -3.20419 -0.632382 0
M  V30 2865 H 271.831 -3.34717 1.49533 0
M  V30 2866 H 271.479 -5.0191 -0.33102 0
M  V30 2867 H 271.179 -5.73674 1.27167 0
M  V30 2868 H 272.703 -6.09224 0.409669 0
M  V30 2869 H 274.117 -5.16688 2.48407 0
M  V30 2870 H 272.514 -5.03553 3.26427 0
M  V30 2871 H 273.584 -3.62257 3.22332 0
M  V30 2872 N 274.927 -0.932562 -1.27047 0
M  V30 2873 C 276.155 -0.592031 -1.98249 0
M  V30 2874 C 276.57 0.831062 -1.69525 0
M  V30 2875 O 275.927 1.55299 -0.958561 0
M  V30 2876 C 275.978 -0.814279 -3.5221 0
M  V30 2877 O 275.699 -2.18139 -3.7993 0
M  V30 2878 C 277.2 -0.483121 -4.4066 0
M  V30 2879 H 274.42 -0.223896 -0.632544 0
M  V30 2880 H 276.964 -1.25091 -1.61779 0
M  V30 2881 H 275.119 -0.20213 -3.86872 0
M  V30 2882 H 275.533 -2.235 -4.74498 0
M  V30 2883 H 277.007 -0.689298 -5.47679 0
M  V30 2884 H 277.484 0.581546 -4.35333 0
M  V30 2885 H 278.09 -1.07362 -4.11526 0
M  V30 2886 N 276.405 1.4127 -0.698611 0
M  V30 2887 C 277.682 1.94955 -0.158762 0
M  V30 2888 C 278.062 1.63781 1.33188 0
M  V30 2889 O 277.41 0.946423 2.07979 0
M  V30 2890 C 277.62 3.46044 -0.453309 0
M  V30 2891 C 278.968 4.22872 -0.382707 0
M  V30 2892 O 279.992 3.54076 -0.388396 0
M  V30 2893 O 278.851 5.45407 -0.345463 0
M  V30 2894 H 275.945 0.82683 -0.0167505 0
M  V30 2895 H 278.491 1.50971 -0.77498 0
M  V30 2896 H 277.263 3.62028 -1.48498 0
M  V30 2897 H 276.886 3.97128 0.19373 0
M  V30 2898 N 277.883 0.443576 1.51229 0
M  V30 2899 C 278.831 -0.37904 2.29491 0
M  V30 2900 C 279.825 -1.0153 1.35603 0
M  V30 2901 O 281.031 -0.94955 1.52917 0
M  V30 2902 H 277.406 -0.141053 0.738653 0
M  V30 2903 H 279.377 0.301799 2.9687 0
M  V30 2904 C 278.126 -1.46426 3.15364 0
M  V30 2905 H 277.449 -0.984037 3.87501 0
M  V30 2906 H 278.889 -2.01297 3.7317 0
M  V30 2907 C 277.348 -2.45099 2.31146 0
M  V30 2908 O 277.878 -3.49773 1.9754 0
M  V30 2909 N 276.084 -2.16139 1.94249 0
M  V30 2910 H 275.631 -1.31044 2.21777 0
M  V30 2911 H 275.589 -2.82398 1.38198 0
M  V30 2912 N 279.361 -1.56624 0.175154 0
M  V30 2913 C 280.291 -2.21155 -0.749195 0
M  V30 2914 C 281.272 -1.16836 -1.23626 0
M  V30 2915 O 282.457 -1.45277 -1.28873 0
M  V30 2916 C 279.587 -2.8553 -1.97711 0
M  V30 2917 C 278.541 -3.95921 -1.62575 0
M  V30 2918 C 277.867 -4.47365 -2.92864 0
M  V30 2919 C 279.167 -5.15323 -0.850838 0
M  V30 2920 H 280.861 -2.98653 -0.211295 0
M  V30 2921 H 278.407 -1.43651 -0.100188 0
M  V30 2922 H 280.36 -3.2935 -2.62881 0
M  V30 2923 H 279.084 -2.05406 -2.53921 0
M  V30 2924 H 277.743 -3.52762 -0.997719 0
M  V30 2925 H 277.391 -3.64027 -3.47122 0
M  V30 2926 H 277.091 -5.21839 -2.70106 0
M  V30 2927 H 278.615 -4.93873 -3.59056 0
M  V30 2928 H 280.029 -5.55812 -1.40521 0
M  V30 2929 H 278.426 -5.95739 -0.722154 0
M  V30 2930 H 279.496 -4.84661 0.152082 0
M  V30 2931 N 280.839 0.0985539 -1.57292 0
M  V30 2932 C 282.085 0.803867 -1.86188 0
M  V30 2933 C 282.418 1.78549 -0.763794 0
M  V30 2934 O 281.693 1.93153 0.22855 0
M  V30 2935 C 281.976 1.53568 -3.25713 0
M  V30 2936 C 281.829 0.572277 -4.46145 0
M  V30 2937 C 283.148 2.48708 -3.63087 0
M  V30 2938 H 280.267 0.290781 -0.677211 0
M  V30 2939 H 282.909 0.0675783 -1.8988 0
M  V30 2940 H 281.059 2.16332 -3.22696 0
M  V30 2941 H 282.731 -0.0480894 -4.61275 0
M  V30 2942 H 280.974 -0.114618 -4.33649 0
M  V30 2943 H 281.645 1.12139 -5.40489 0
M  V30 2944 H 284.121 1.96039 -3.67026 0
M  V30 2945 H 282.997 2.96932 -4.61652 0
M  V30 2946 H 283.258 3.32309 -2.91588 0
M  V30 2947 N 282.317 1.53212 0.369288 0
M  V30 2948 C 283.28 1.7872 1.43498 0
M  V30 2949 C 284.28 0.657554 1.46741 0
M  V30 2950 O 285.47 0.925736 1.47566 0
M  V30 2951 C 282.602 1.90591 2.82645 0
M  V30 2952 H 283.795 2.73894 1.22156 0
M  V30 2953 H 281.348 1.44233 0.602203 0
M  V30 2954 H 282.083 0.974709 3.09306 0
M  V30 2955 H 281.868 2.72751 2.8169 0
M  V30 2956 H 283.358 2.11931 3.59826 0
M  V30 2957 N 283.795 -0.628877 1.44509 0
M  V30 2958 C 284.725 -1.75187 1.54376 0
M  V30 2959 C 285.706 -1.65411 0.396618 0
M  V30 2960 O 286.891 -1.84137 0.617031 0
M  V30 2961 C 284.021 -3.13725 1.48976 0
M  V30 2962 C 282.975 -3.38291 2.62189 0
M  V30 2963 C 282.301 -4.76883 2.41841 0
M  V30 2964 C 283.601 -3.30632 4.04326 0
M  V30 2965 H 285.295 -1.67187 2.48373 0
M  V30 2966 H 282.841 -0.802909 1.19538 0
M  V30 2967 H 284.794 -3.92064 1.54478 0
M  V30 2968 H 283.518 -3.22515 0.514961 0
M  V30 2969 H 282.177 -2.62334 2.56079 0
M  V30 2970 H 281.825 -4.82378 1.42548 0
M  V30 2971 H 281.525 -4.94278 3.17747 0
M  V30 2972 H 283.049 -5.57449 2.49165 0
M  V30 2973 H 284.463 -3.98873 4.11793 0
M  V30 2974 H 282.86 -3.59561 4.80454 0
M  V30 2975 H 283.93 -2.28404 4.27738 0
M  V30 2976 N 285.273 -1.31445 -0.869486 0
M  V30 2977 C 286.22 -1.19135 -1.97675 0
M  V30 2978 C 287.19 -0.0770266 -1.65921 0
M  V30 2979 O 288.375 -0.249972 -1.89155 0
M  V30 2980 C 285.515 -0.905149 -3.33018 0
M  V30 2981 C 284.628 -2.10285 -3.77365 0
M  V30 2982 C 283.763 -1.75339 -5.01427 0
M  V30 2983 C 282.802 -2.91515 -5.38224 0
M  V30 2984 N 281.939 -2.56762 -6.53466 0
M  V30 2985 H 286.779 -2.13853 -2.07535 0
M  V30 2986 H 284.316 -1.06379 -1.01597 0
M  V30 2987 H 286.274 -0.719765 -4.10944 0
M  V30 2988 H 284.904 0.00519624 -3.228 0
M  V30 2989 H 283.956 -2.39899 -2.95216 0
M  V30 2990 H 285.268 -2.97237 -4.00564 0
M  V30 2991 H 284.422 -1.53266 -5.87022 0
M  V30 2992 H 283.161 -0.855801 -4.80133 0
M  V30 2993 H 282.166 -3.14237 -4.51149 0
M  V30 2994 H 283.391 -3.81985 -5.61484 0
M  V30 2995 H 281.337 -1.69526 -6.33717 0
M  V30 2996 H 281.254 -3.37243 -6.76612 0
M  V30 2997 H 282.522 -2.38083 -7.42251 0
M  V30 2998 N 286.751 1.08385 -1.14413 0
M  V30 2999 C 287.661 2.18856 -0.844951 0
M  V30 3000 C 288.677 1.73121 0.174668 0
M  V30 3001 O 289.853 2.014 0.00312857 0
M  V30 3002 C 286.918 3.45155 -0.32696 0
M  V30 3003 C 285.979 4.05513 -1.40916 0
M  V30 3004 C 285.212 5.25784 -0.915793 0
M  V30 3005 O 285.435 5.69884 0.242651 0
M  V30 3006 O 284.369 5.77545 -1.69487 0
M  V30 3007 H 288.195 2.46919 -1.76818 0
M  V30 3008 H 285.78 1.17524 -0.922411 0
M  V30 3009 H 287.662 4.21377 -0.0440211 0
M  V30 3010 H 286.337 3.18668 0.568539 0
M  V30 3011 H 285.244 3.30879 -1.74556 0
M  V30 3012 H 286.577 4.3625 -2.27919 0
M  V30 3013 N 288.23 0.939286 1.26551 0
M  V30 3014 C 289.479 0.581601 1.93133 0
M  V30 3015 C 289.792 -0.883224 1.74524 0
M  V30 3016 O 290.998 -1.3502 2.35546 0
M  V30 3017 C 289.454 0.989425 3.46032 0
M  V30 3018 C 289.062 2.47573 3.73379 0
M  V30 3019 C 290.806 0.703544 4.18629 0
M  V30 3020 C 288.713 2.82235 5.19709 0
M  V30 3021 H 287.643 0.213803 0.723052 0
M  V30 3022 H 290.294 1.14167 1.4366 0
M  V30 3023 H 288.676 0.357902 3.94379 0
M  V30 3024 H 289.85 3.15614 3.35744 0
M  V30 3025 H 288.165 2.73471 3.1401 0
M  V30 3026 H 290.762 0.938869 5.26393 0
M  V30 3027 H 291.105 -0.359639 4.14744 0
M  V30 3028 H 291.638 1.2947 3.76141 0
M  V30 3029 H 288.377 3.87509 5.28694 0
M  V30 3030 H 287.897 2.18854 5.58447 0
M  V30 3031 H 289.576 2.70599 5.87695 0
M  V30 3032 N 289.708 -1.40897 0.706093 0
M  V30 3033 C 291.124 -1.55042 0.37869 0
M  V30 3034 C 291.324 -1.67944 -1.11342 0
M  V30 3035 O 290.38 -1.66372 -1.89938 0
M  V30 3036 C 291.693 -2.78398 1.13643 0
M  V30 3037 C 293.241 -2.92206 1.12181 0
M  V30 3038 C 293.716 -4.18463 1.86152 0
M  V30 3039 N 295.207 -4.25443 1.83173 0
M  V30 3040 C 295.942 -5.2202 2.37239 0
M  V30 3041 N 295.438 -6.24563 2.99821 0
M  V30 3042 N 297.231 -5.14033 2.27435 0
M  V30 3043 H 289.382 -1.30769 1.67372 0
M  V30 3044 H 291.645 -0.631653 0.706907 0
M  V30 3045 H 291.351 -2.7511 2.19106 0
M  V30 3046 H 291.225 -3.70228 0.721853 0
M  V30 3047 H 293.612 -2.95004 0.0754171 0
M  V30 3048 H 293.693 -2.01521 1.57554 0
M  V30 3049 H 293.337 -4.16427 2.90776 0
M  V30 3050 H 293.267 -5.08141 1.38206 0
M  V30 3051 H 295.758 -3.51976 1.37556 0
M  V30 3052 H 296.071 -6.94665 3.38616 0
M  V30 3053 H 294.416 -6.25035 3.03902 0
M  V30 3054 H 297.607 -4.3285 1.78208 0
M  V30 3055 H 297.78 -5.89129 2.69873 0
M  V30 3056 N 291.186 -0.45159 -1.50991 0
M  V30 3057 C 292.116 0.342898 -2.30969 0
M  V30 3058 C 293.097 1.00815 -1.37005 0
M  V30 3059 O 294.282 1.00907 -1.65926 0
M  V30 3060 C 291.412 1.43637 -3.16205 0
M  V30 3061 C 290.366 0.893818 -4.18563 0
M  V30 3062 C 289.692 2.08411 -4.92411 0
M  V30 3063 C 290.992 -0.0815568 -5.22236 0
M  V30 3064 H 292.686 -0.324556 -2.97636 0
M  V30 3065 H 290.232 -0.157531 -1.43136 0
M  V30 3066 H 292.185 1.9995 -3.70942 0
M  V30 3067 H 290.909 2.13232 -2.47386 0
M  V30 3068 H 289.568 0.352798 -3.64898 0
M  V30 3069 H 289.216 2.76658 -4.20082 0
M  V30 3070 H 288.916 1.72741 -5.61636 0
M  V30 3071 H 290.44 2.65251 -5.49976 0
M  V30 3072 H 291.854 0.391742 -5.7196 0
M  V30 3073 H 290.251 -0.351551 -5.99069 0
M  V30 3074 H 291.321 -1.01374 -4.74185 0
M  V30 3075 N 292.664 1.56529 -0.183458 0
M  V30 3076 C 293.574 2.22144 0.754272 0
M  V30 3077 C 294.59 1.21684 1.24374 0
M  V30 3078 O 295.766 1.54385 1.29333 0
M  V30 3079 C 292.831 2.85884 1.96141 0
M  V30 3080 C 291.892 4.01579 1.51765 0
M  V30 3081 C 291.125 4.6227 2.66725 0
M  V30 3082 O 291.348 4.21865 3.83909 0
M  V30 3083 O 290.282 5.51936 2.40104 0
M  V30 3084 H 294.108 3.02861 0.225527 0
M  V30 3085 H 291.693 1.49331 0.0453032 0
M  V30 3086 H 293.575 3.26253 2.66715 0
M  V30 3087 H 292.25 2.08154 2.47899 0
M  V30 3088 H 291.157 3.65856 0.781049 0
M  V30 3089 H 292.49 4.80938 1.04686 0
M  V30 3090 N 294.142 -0.090211 1.57342 0
M  V30 3091 C 295.092 -1.11557 1.98844 0
M  V30 3092 C 296.076 -1.35503 0.867624 0
M  V30 3093 O 297.268 -1.36113 1.13148 0
M  V30 3094 C 294.397 -2.43446 2.42051 0
M  V30 3095 C 293.483 -2.22853 3.60828 0
M  V30 3096 N 293.874 -1.72141 4.75606 0
M  V30 3097 C 292.172 -2.53401 3.67021 0
M  V30 3098 C 292.873 -1.65932 5.57531 0
M  V30 3099 N 291.849 -2.11323 5.00843 0
M  V30 3100 H 295.651 -0.716499 2.85032 0
M  V30 3101 H 293.165 -0.297567 1.59651 0
M  V30 3102 H 295.162 -3.17644 2.70014 0
M  V30 3103 H 293.822 -2.84087 1.57241 0
M  V30 3104 H 294.833 -1.41268 4.98261 0
M  V30 3105 H 291.51 -2.97532 2.92884 0
M  V30 3106 H 292.9 -1.27733 6.59647 0
M  V30 3107 N 295.62 -1.53406 -0.361157 0
M  V30 3108 C 296.53 -1.83122 -1.4664 0
M  V30 3109 C 297.546 -0.719943 -1.58407 0
M  V30 3110 O 298.722 -1.01046 -1.74218 0
M  V30 3111 C 295.787 -2.01891 -2.81853 0
M  V30 3112 C 294.848 -3.25784 -2.79577 0
M  V30 3113 C 294.081 -3.43648 -4.0834 0
M  V30 3114 O 294.304 -2.65714 -5.0473 0
M  V30 3115 O 293.238 -4.37018 -4.13883 0
M  V30 3116 H 297.064 -2.7703 -1.24451 0
M  V30 3117 H 294.649 -1.38841 -0.551678 0
M  V30 3118 H 296.531 -2.15782 -3.61962 0
M  V30 3119 H 295.206 -1.11173 -3.0401 0
M  V30 3120 H 294.113 -3.17312 -1.98151 0
M  V30 3121 H 295.446 -4.16439 -2.62373 0
M  V30 3122 N 297.098 0.621204 -1.44841 0
M  V30 3123 C 298.008 1.7612 -1.5498 0
M  V30 3124 C 299.024 1.68477 -0.434927 0
M  V30 3125 O 300.2 1.89076 -0.693693 0
M  V30 3126 C 297.265 3.1254 -1.50065 0
M  V30 3127 C 296.326 3.31741 -2.72482 0
M  V30 3128 C 295.559 4.61653 -2.67792 0
M  V30 3129 O 295.782 5.431 -1.74352 0
M  V30 3130 O 294.716 4.83271 -3.58794 0
M  V30 3131 H 298.542 1.70518 -2.51311 0
M  V30 3132 H 296.127 0.783643 -1.27198 0
M  V30 3133 H 298.009 3.93844 -1.49882 0
M  V30 3134 H 296.684 3.18663 -0.568806 0
M  V30 3135 H 295.591 2.50077 -2.7823 0
M  V30 3136 H 296.924 3.30486 -3.64746 0
M  V30 3137 N 298.576 1.31904 0.862503 0
M  V30 3138 C 299.824 1.21776 1.61292 0
M  V30 3139 C 300.145 -0.222413 1.93727 0
M  V30 3140 O 299.415 -1.1451 1.58947 0
M  V30 3141 H 297.995 0.447717 0.597962 0
M  V30 3142 H 300.657 1.65326 1.03215 0
M  V30 3143 H 299.753 1.7948 2.5533 0
M  V30 3144 N 300.054 -1.07777 1.14986 0
M  V30 3145 C 301.017 -2.13041 0.845358 0
M  V30 3146 C 302.017 -1.60071 -0.152931 0
M  V30 3147 O 303.207 -1.74033 0.0761879 0
M  V30 3148 C 300.339 -3.39896 0.261383 0
M  V30 3149 H 301.532 -2.41485 1.77834 0
M  V30 3150 H 299.085 -1.23595 0.956757 0
M  V30 3151 H 299.82 -3.17091 -0.68 0
M  V30 3152 H 299.605 -3.79642 0.980514 0
M  V30 3153 H 301.095 -4.17548 0.0657687 0
M  V30 3154 N 301.532 -0.945985 -1.26051 0
M  V30 3155 C 302.943 -0.638096 -1.75457 0
M  V30 3156 C 303.294 0.846672 -1.76991 0
M  V30 3157 O 302.419 1.66262 -1.38513 0
M  V30 3158 C 303.014 -1.15157 -3.18629 0
M  V30 3159 C 301.573 -0.894004 -3.65629 0
M  V30 3160 C 300.72 -1.29967 -2.44957 0
M  V30 3161 H 303.671 -1.12376 -1.1206 0
M  V30 3162 H 303.692 -0.507615 -3.77099 0
M  V30 3163 H 303.204 -2.23222 -3.1748 0
M  V30 3164 H 301.305 0.172057 -3.72203 0
M  V30 3165 H 301.418 -1.52439 -4.54202 0
M  V30 3166 H 299.782 -0.718078 -2.44368 0
M  V30 3167 H 300.565 -2.38935 -2.46505 0
M  V30 3168 N 303.011 1.40521 -0.713556 0
M  V30 3169 C 304.251 2.02783 -0.256584 0
M  V30 3170 C 304.615 1.55352 1.12827 0
M  V30 3171 O 305.816 2.09663 1.68211 0
M  V30 3172 C 304.087 3.5586 -0.331414 0
M  V30 3173 S 305.646 4.38773 0.0488703 0
M  V30 3174 H 302.464 0.703655 -0.101934 0
M  V30 3175 H 305.066 1.71674 -0.935325 0
M  V30 3176 H 303.77 3.87874 -1.34098 0
M  V30 3177 H 303.301 3.91695 0.365873 0
M  V30 3178 H 305.316 4.79633 1.2715 0
M  V30 3179 N 304.489 0.459591 1.5075 0
M  V30 3180 C 305.717 -0.0973749 2.06671 0
M  V30 3181 C 306.132 -1.34524 1.32472 0
M  V30 3182 O 305.489 -1.7827 0.390634 0
M  V30 3183 C 305.54 -0.39714 3.59312 0
M  V30 3184 O 305.261 0.801214 4.30711 0
M  V30 3185 C 306.762 -1.00234 4.31819 0
M  V30 3186 H 303.982 0.00195854 0.670997 0
M  V30 3187 H 306.526 0.645072 1.94059 0
M  V30 3188 H 304.681 -1.08951 3.71764 0
M  V30 3189 H 305.095 0.538857 5.21725 0
M  V30 3190 H 306.569 -1.16193 5.39632 0
M  V30 3191 H 307.046 -1.98939 3.91561 0
M  V30 3192 H 307.652 -0.348699 4.23868 0
M  V30 3193 N 305.967 -1.56429 0.191757 0
M  V30 3194 C 306.93 -2.17707 -0.716688 0
M  V30 3195 C 307.93 -1.13061 -1.14341 0
M  V30 3196 O 309.12 -1.38464 -1.05704 0
M  V30 3197 C 306.252 -2.77644 -1.97804 0
M  V30 3198 H 307.445 -2.99342 -0.1829 0
M  V30 3199 H 304.998 -1.56193 -0.0578566 0
M  V30 3200 H 305.733 -1.99799 -2.55443 0
M  V30 3201 H 305.518 -3.54246 -1.68083 0
M  V30 3202 H 307.008 -3.24708 -2.62592 0
M  V30 3203 N 307.445 0.0818655 -1.57387 0
M  V30 3204 C 308.694 0.781681 -1.85937 0
M  V30 3205 C 309.007 1.79246 -0.782957 0
M  V30 3206 O 310.213 2.54112 -0.955987 0
M  V30 3207 C 308.669 1.44109 -3.29789 0
M  V30 3208 C 308.277 0.469396 -4.45534 0
M  V30 3209 C 310.021 2.12386 -3.67549 0
M  V30 3210 C 307.928 1.13415 -5.80423 0
M  V30 3211 H 306.858 0.295682 -0.693605 0
M  V30 3212 H 309.509 0.0348051 -1.83467 0
M  V30 3213 H 307.891 2.23588 -3.2684 0
M  V30 3214 H 309.065 -0.294856 -4.59856 0
M  V30 3215 H 307.38 -0.108383 -4.16259 0
M  V30 3216 H 309.977 2.62878 -4.65617 0
M  V30 3217 H 310.32 2.91877 -2.96839 0
M  V30 3218 H 310.853 1.39751 -3.72444 0
M  V30 3219 H 307.592 0.379771 -6.54399 0
M  V30 3220 H 307.112 1.8695 -5.69921 0
M  V30 3221 H 308.791 1.65686 -6.25426 0
M  V30 3222 N 308.923 1.53595 0.353017 0
M  V30 3223 C 310.339 1.43648 0.695516 0
M  V30 3224 C 310.539 0.585617 1.92802 0
M  V30 3225 O 309.595 0.0729223 2.52395 0
M  V30 3226 C 310.908 2.8701 0.896991 0
M  V30 3227 C 312.456 2.96723 0.996209 0
M  V30 3228 C 312.931 4.41173 1.23007 0
M  V30 3229 N 314.422 4.44657 1.29749 0
M  V30 3230 C 315.157 5.53547 1.49577 0
M  V30 3231 N 314.653 6.72461 1.66639 0
M  V30 3232 N 316.446 5.41145 1.52048 0
M  V30 3233 H 308.597 2.07415 -0.457481 0
M  V30 3234 H 310.86 0.9372 -0.142687 0
M  V30 3235 H 310.566 3.51644 0.0629938 0
M  V30 3236 H 310.44 3.31401 1.80148 0
M  V30 3237 H 312.827 2.32235 1.82074 0
M  V30 3238 H 312.908 2.55707 0.0688331 0
M  V30 3239 H 312.552 5.06238 0.410505 0
M  V30 3240 H 312.482 4.79772 2.17086 0
M  V30 3241 H 314.973 3.58963 1.18126 0
M  V30 3242 H 315.286 7.51214 1.81378 0
M  V30 3243 H 313.631 6.75423 1.63794 0
M  V30 3244 H 316.822 4.47205 1.38294 0
M  V30 3245 H 316.995 6.26068 1.67159 0
M  V30 3246 N 310.401 -0.613514 1.45168 0
M  V30 3247 C 311.311 -1.75296 1.55912 0
M  V30 3248 C 312.327 -1.68244 0.443856 0
M  V30 3249 O 313.503 -1.88706 0.70371 0
M  V30 3250 C 310.568 -3.1174 1.5172 0
M  V30 3251 C 309.629 -3.30291 2.74238 0
M  V30 3252 C 308.862 -4.60226 2.70236 0
M  V30 3253 O 309.085 -5.42168 1.77229 0
M  V30 3254 O 308.019 -4.81361 3.61352 0
M  V30 3255 H 311.845 -1.69183 2.52212 0
M  V30 3256 H 309.43 -0.776886 1.27612 0
M  V30 3257 H 311.312 -3.93044 1.51968 0
M  V30 3258 H 309.987 -3.18357 0.585697 0
M  V30 3259 H 308.894 -2.48598 2.79553 0
M  V30 3260 H 310.227 -3.28547 3.66494 0
M  V30 3261 N 311.879 -1.3236 -0.855495 0
M  V30 3262 C 313.125 -1.23054 -1.612 0
M  V30 3263 C 313.458 0.207404 -1.93089 0
M  V30 3264 O 312.733 1.14432 -1.57275 0
M  V30 3265 C 313.016 -2.08937 -2.93287 0
M  V30 3266 C 312.869 -3.61105 -2.68185 0
M  V30 3267 C 314.188 -1.94986 -3.94549 0
M  V30 3268 H 311.307 -0.448364 -0.584926 0
M  V30 3269 H 313.949 -1.62297 -0.987917 0
M  V30 3270 H 312.099 -1.75599 -3.46551 0
M  V30 3271 H 313.771 -4.04652 -2.21483 0
M  V30 3272 H 312.014 -3.83813 -2.02164 0
M  V30 3273 H 312.685 -4.16522 -3.62234 0
M  V30 3274 H 315.161 -2.24189 -3.5054 0
M  V30 3275 H 314.037 -2.57356 -4.84829 0
M  V30 3276 H 314.298 -0.917263 -4.3248 0
M  V30 3277 N 313.357 1.07166 -1.15556 0
M  V30 3278 C 314.582 1.84053 -0.955988 0
M  V30 3279 C 315.007 1.81586 0.490739 0
M  V30 3280 O 314.365 1.21018 1.34997 0
M  V30 3281 C 314.413 3.28957 -1.47714 0
M  V30 3282 O 313.517 4.06795 -0.677593 0
M  V30 3283 H 312.858 0.569842 -0.340847 0
M  V30 3284 H 315.388 1.35178 -1.53584 0
M  V30 3285 H 315.398 3.79788 -1.4908 0
M  V30 3286 H 314.073 3.30068 -2.53037 0
M  V30 3287 H 312.65 3.6561 -0.733721 0
M  V30 3288 N 314.835 0.952656 1.25548 0
M  V30 3289 C 315.765 0.489287 2.28316 0
M  V30 3290 C 316.746 -0.463359 1.63667 0
M  V30 3291 O 317.931 -0.36274 1.90782 0
M  V30 3292 C 315.061 -0.235603 3.465 0
M  V30 3293 C 314.015 0.631593 4.23314 0
M  V30 3294 C 313.341 -0.223923 5.34231 0
M  V30 3295 C 314.641 1.90871 4.86174 0
M  V30 3296 H 316.335 1.34822 2.67326 0
M  V30 3297 H 313.881 0.649728 1.28509 0
M  V30 3298 H 315.834 -0.570882 4.17515 0
M  V30 3299 H 314.558 -1.12877 3.06474 0
M  V30 3300 H 313.217 0.949929 3.54079 0
M  V30 3301 H 312.865 -1.11678 4.90446 0
M  V30 3302 H 312.565 0.35299 5.86539 0
M  V30 3303 H 314.089 -0.554214 6.0808 0
M  V30 3304 H 315.503 1.63997 5.49343 0
M  V30 3305 H 313.9 2.43112 5.4865 0
M  V30 3306 H 314.97 2.61304 4.08471 0
M  V30 3307 N 316.313 -1.40141 0.720998 0
M  V30 3308 C 317.243 -2.33339 0.0867621 0
M  V30 3309 C 318.224 -1.53178 -0.739622 0
M  V30 3310 O 319.409 -1.81625 -0.687449 0
M  V30 3311 C 316.539 -3.37194 -0.831728 0
M  V30 3312 C 315.493 -4.27857 -0.110558 0
M  V30 3313 C 314.819 -5.22294 -1.14513 0
M  V30 3314 C 316.119 -5.11872 1.0385 0
M  V30 3315 H 317.813 -2.86626 0.865219 0
M  V30 3316 H 315.359 -1.37814 0.417516 0
M  V30 3317 H 317.312 -4.01335 -1.28485 0
M  V30 3318 H 316.036 -2.82314 -1.64214 0
M  V30 3319 H 314.695 -3.65176 0.322797 0
M  V30 3320 H 314.343 -4.63717 -1.94874 0
M  V30 3321 H 314.043 -5.83797 -0.667446 0
M  V30 3322 H 315.567 -5.89312 -1.59824 0
M  V30 3323 H 316.981 -5.69436 0.664482 0
M  V30 3324 H 315.378 -5.82445 1.4449 0
M  V30 3325 H 316.448 -4.4753 1.86668 0
M  V30 3326 N 317.792 -0.46758 -1.50504 0
M  V30 3327 C 318.739 0.328413 -2.28452 0
M  V30 3328 C 319.709 0.990313 -1.33349 0
M  V30 3329 O 320.894 1.00343 -1.62284 0
M  V30 3330 C 318.034 1.40648 -3.15138 0
M  V30 3331 C 317.147 0.759709 -4.25267 0
M  V30 3332 C 316.282 1.81537 -4.99217 0
M  V30 3333 C 315.321 1.14866 -6.01226 0
M  V30 3334 N 314.458 2.14702 -6.68467 0
M  V30 3335 H 319.298 -0.342603 -2.96024 0
M  V30 3336 H 316.835 -0.180801 -1.45985 0
M  V30 3337 H 318.793 2.04315 -3.63746 0
M  V30 3338 H 317.423 2.04671 -2.49619 0
M  V30 3339 H 316.475 0.0105671 -3.80399 0
M  V30 3340 H 317.787 0.233243 -4.98254 0
M  V30 3341 H 316.941 2.52793 -5.51526 0
M  V30 3342 H 315.68 2.37564 -4.25928 0
M  V30 3343 H 314.685 0.42171 -5.4818 0
M  V30 3344 H 315.91 0.595334 -6.76485 0
M  V30 3345 H 313.856 2.69752 -5.97972 0
M  V30 3346 H 313.773 1.6703 -7.37317 0
M  V30 3347 H 315.041 2.85348 -7.25394 0
M  V30 3348 N 319.27 1.56325 -0.20005 0
M  V30 3349 C 320.547 1.89484 0.48529 0
M  V30 3350 C 320.927 1.1143 1.79294 0
M  V30 3351 O 320.275 0.216919 2.27468 0
M  V30 3352 C 320.485 3.41923 0.699243 0
M  V30 3353 C 321.833 4.12256 1.01638 0
M  V30 3354 O 322.857 3.47402 0.786792 0
M  V30 3355 O 321.716 5.26887 1.45095 0
M  V30 3356 H 318.81 0.787144 0.253639 0
M  V30 3357 H 321.356 1.67985 -0.240633 0
M  V30 3358 H 320.128 3.90658 -0.224008 0
M  V30 3359 H 319.751 3.69131 1.47744 0
M  V30 3360 N 320.748 -0.0735177 1.57428 0
M  V30 3361 C 321.678 -1.0879 2.06608 0
M  V30 3362 C 322.659 -1.40473 0.959237 0
M  V30 3363 O 323.844 -1.5013 1.23185 0
M  V30 3364 C 320.974 -2.40183 2.50857 0
M  V30 3365 C 319.928 -2.22858 3.65402 0
M  V30 3366 C 319.254 -3.59619 3.957 0
M  V30 3367 C 320.554 -1.65123 4.95511 0
M  V30 3368 H 322.248 -0.678673 2.91607 0
M  V30 3369 H 319.794 -0.325013 1.40284 0
M  V30 3370 H 321.747 -3.11437 2.83874 0
M  V30 3371 H 320.471 -2.83083 1.62885 0
M  V30 3372 H 319.13 -1.54045 3.32664 0
M  V30 3373 H 318.778 -4.00086 3.04861 0
M  V30 3374 H 318.478 -3.48866 4.72828 0
M  V30 3375 H 320.002 -4.32306 4.31212 0
M  V30 3376 H 321.416 -2.26241 5.26771 0
M  V30 3377 H 319.813 -1.65071 5.7695 0
M  V30 3378 H 320.883 -0.612559 4.81015 0
M  V30 3379 N 322.226 -1.5378 -0.344866 0
M  V30 3380 C 323.173 -1.81676 -1.42346 0
M  V30 3381 C 324.143 -0.662376 -1.52321 0
M  V30 3382 O 325.328 -0.906675 -1.67881 0
M  V30 3383 C 322.468 -2.03087 -2.79015 0
M  V30 3384 C 321.581 -3.30799 -2.77842 0
M  V30 3385 C 320.716 -3.42285 -4.0622 0
M  V30 3386 C 319.755 -4.6395 -3.9927 0
M  V30 3387 N 318.892 -4.72477 -5.19336 0
M  V30 3388 H 323.732 -2.73703 -1.17858 0
M  V30 3389 H 321.269 -1.35568 -0.570949 0
M  V30 3390 H 323.227 -2.1349 -3.58438 0
M  V30 3391 H 321.857 -1.14375 -3.01858 0
M  V30 3392 H 320.909 -3.29244 -1.90533 0
M  V30 3393 H 322.221 -4.20314 -2.68584 0
M  V30 3394 H 321.375 -3.52113 -4.94066 0
M  V30 3395 H 320.114 -2.50823 -4.18258 0
M  V30 3396 H 319.119 -4.54201 -3.09809 0
M  V30 3397 H 320.344 -5.56775 -3.88817 0
M  V30 3398 H 318.29 -3.83924 -5.3192 0
M  V30 3399 H 318.207 -5.55927 -5.12329 0
M  V30 3400 H 319.475 -4.86613 -6.08957 0
M  V30 3401 N 323.704 0.605807 -1.45491 0
M  V30 3402 C 324.654 1.71074 -1.50724 0
M  V30 3403 C 325.638 1.5658 -0.37033 0
M  V30 3404 O 326.83 1.65887 -0.617299 0
M  V30 3405 C 323.959 3.0983 -1.47852 0
M  V30 3406 C 323.045 3.29704 -2.66751 0
M  V30 3407 N 323.436 3.19831 -3.91844 0
M  V30 3408 C 321.734 3.60579 -2.62486 0
M  V30 3409 C 322.435 3.41083 -4.71208 0
M  V30 3410 N 321.411 3.65157 -4.02693 0
M  V30 3411 H 325.213 1.61937 -2.45263 0
M  V30 3412 H 322.727 0.80912 -1.40808 0
M  V30 3413 H 324.724 3.89101 -1.49686 0
M  V30 3414 H 323.384 3.20115 -0.543714 0
M  V30 3415 H 324.395 2.98194 -4.23439 0
M  V30 3416 H 321.072 3.7769 -1.77922 0
M  V30 3417 H 322.462 3.38828 -5.80211 0
M  V30 3418 N 325.182 1.32811 0.848464 0
M  V30 3419 C 326.145 1.22194 1.9391 0
M  V30 3420 C 327.145 0.143404 1.60159 0
M  V30 3421 O 328.335 0.394253 1.6968 0
M  V30 3422 C 325.467 0.88067 3.29328 0
M  V30 3423 H 326.66 2.19127 2.04752 0
M  V30 3424 H 324.213 1.16731 1.0394 0
M  V30 3425 H 324.948 -0.0865776 3.24184 0
M  V30 3426 H 324.733 1.66052 3.55203 0
M  V30 3427 H 326.223 0.830871 4.09251 0
M  V30 3428 N 326.66 -1.06551 1.16123 0
M  V30 3429 C 327.608 -2.16063 0.861371 0
M  V30 3430 C 328.602 -1.6856 -0.168517 0
M  V30 3431 O 329.808 -1.79986 -0.0227579 0
M  V30 3432 H 326.183 -0.705278 0.260934 0
M  V30 3433 H 328.154 -2.38567 1.79244 0
M  V30 3434 C 326.903 -3.45661 0.376018 0
M  V30 3435 H 326.226 -3.82604 1.15992 0
M  V30 3436 H 327.666 -4.23504 0.204951 0
M  V30 3437 C 326.125 -3.24546 -0.903954 0
M  V30 3438 O 326.655 -3.49865 -1.97377 0
M  V30 3439 N 324.861 -2.77992 -0.846679 0
M  V30 3440 H 324.408 -2.57589 0.0241017 0
M  V30 3441 H 324.366 -2.64244 -1.70359 0
M  V30 3442 N 328.138 -0.959301 -1.25041 0
M  V30 3443 C 329.387 -0.612254 -1.92183 0
M  V30 3444 C 329.7 0.855347 -1.75907 0
M  V30 3445 O 330.906 1.31256 -2.37664 0
M  V30 3446 C 329.362 -1.04435 -3.44414 0
M  V30 3447 C 328.97 -2.53482 -3.69393 0
M  V30 3448 C 330.714 -0.770055 -4.17457 0
M  V30 3449 C 328.621 -2.90468 -5.15153 0
M  V30 3450 H 327.551 -0.225279 -0.719559 0
M  V30 3451 H 330.202 -1.16438 -1.41825 0
M  V30 3452 H 328.584 -0.4206 -3.9376 0
M  V30 3453 H 329.758 -3.20916 -3.30681 0
M  V30 3454 H 328.073 -2.78432 -3.0962 0
M  V30 3455 H 330.67 -1.02249 -5.24832 0
M  V30 3456 H 331.013 0.293611 -4.15263 0
M  V30 3457 H 331.546 -1.35437 -3.74034 0
M  V30 3458 H 328.285 -3.95871 -5.22462 0
M  V30 3459 H 327.805 -2.27711 -5.54894 0
M  V30 3460 H 329.484 -2.79914 -5.83315 0
M  V30 3461 N 329.616 1.39756 -0.72842 0
M  V30 3462 C 330.862 2.00942 -0.273892 0
M  V30 3463 C 331.195 1.57656 1.13394 0
M  V30 3464 O 330.47 0.802434 1.77176 0
M  V30 3465 C 330.753 3.58211 -0.368346 0
M  V30 3466 C 330.606 4.11534 -1.81548 0
M  V30 3467 C 331.925 4.39372 0.253054 0
M  V30 3468 H 329.044 0.730047 -0.100996 0
M  V30 3469 H 331.686 1.66056 -0.923337 0
M  V30 3470 H 329.836 3.88061 0.184588 0
M  V30 3471 H 331.508 3.92431 -2.42478 0
M  V30 3472 H 329.751 3.65341 -2.33898 0
M  V30 3473 H 330.422 5.20682 -1.83288 0
M  V30 3474 H 332.898 4.15527 -0.218224 0
M  V30 3475 H 331.774 5.48677 0.156585 0
M  V30 3476 H 332.035 4.21358 1.33826 0
M  V30 3477 N 331.094 0.475555 1.50254 0
M  V30 3478 C 332.322 -0.0754493 2.06762 0
M  V30 3479 C 332.737 -1.33111 1.33891 0
M  V30 3480 O 332.094 -1.77846 0.40952 0
M  V30 3481 C 332.145 -0.359008 3.59713 0
M  V30 3482 O 331.866 0.846851 4.29837 0
M  V30 3483 C 333.367 -0.956484 4.32858 0
M  V30 3484 H 330.587 0.00907525 0.670939 0
M  V30 3485 H 333.131 0.665618 1.93364 0
M  V30 3486 H 331.286 -1.05001 3.72899 0
M  V30 3487 H 331.7 0.594162 5.21124 0
M  V30 3488 H 333.174 -1.10463 5.40834 0
M  V30 3489 H 333.651 -1.94775 3.93649 0
M  V30 3490 H 334.257 -0.303723 4.24214 0
M  V30 3491 N 332.573 -1.56217 0.208337 0
M  V30 3492 C 333.503 -2.22694 -0.702116 0
M  V30 3493 C 334.484 -1.19432 -1.2112 0
M  V30 3494 O 335.669 -1.47978 -1.25762 0
M  V30 3495 C 332.799 -2.8966 -1.9161 0
M  V30 3496 C 331.753 -3.9928 -1.5414 0
M  V30 3497 C 331.079 -4.53476 -2.83308 0
M  V30 3498 C 332.379 -5.17012 -0.741339 0
M  V30 3499 H 334.073 -2.99034 -0.147898 0
M  V30 3500 H 331.619 -1.43831 -0.0696951 0
M  V30 3501 H 333.572 -3.34852 -2.55836 0
M  V30 3502 H 332.296 -2.10746 -2.49507 0
M  V30 3503 H 330.955 -3.54799 -0.922668 0
M  V30 3504 H 330.603 -3.71308 -3.39322 0
M  V30 3505 H 330.303 -5.27451 -2.58976 0
M  V30 3506 H 331.827 -5.01378 -3.485 0
M  V30 3507 H 333.241 -5.58667 -1.28699 0
M  V30 3508 H 331.638 -5.97137 -0.595627 0
M  V30 3509 H 332.708 -4.8423 0.254851 0
M  V30 3510 N 334.051 0.0651679 -1.57465 0
M  V30 3511 C 335.001 1.0838 -2.00594 0
M  V30 3512 C 335.985 1.34106 -0.889071 0
M  V30 3513 O 337.177 1.34295 -1.15299 0
M  V30 3514 C 334.306 2.39565 -2.45894 0
M  V30 3515 C 333.392 2.17085 -3.64328 0
M  V30 3516 N 333.783 1.64553 -4.78285 0
M  V30 3517 C 332.081 2.4753 -3.71006 0
M  V30 3518 C 332.782 1.57042 -5.60101 0
M  V30 3519 N 331.758 2.03328 -5.04141 0
M  V30 3520 H 335.56 0.671062 -2.86136 0
M  V30 3521 H 333.074 0.27213 -1.60104 0
M  V30 3522 H 335.071 3.13308 -2.75034 0
M  V30 3523 H 333.731 2.81549 -1.61741 0
M  V30 3524 H 334.742 1.33323 -5.00445 0
M  V30 3525 H 331.419 2.92835 -2.9758 0
M  V30 3526 H 332.809 1.17223 -6.61595 0
M  V30 3527 N 335.529 1.53961 0.336706 0
M  V30 3528 C 336.806 1.62171 1.09361 0
M  V30 3529 C 337.186 0.447263 2.06307 0
M  V30 3530 O 336.534 -0.559802 2.21537 0
M  V30 3531 C 336.744 2.98565 1.80721 0
M  V30 3532 C 338.092 3.54157 2.34218 0
M  V30 3533 O 339.116 3.00784 1.90807 0
M  V30 3534 O 337.975 4.47528 3.13657 0
M  V30 3535 H 335.069 0.6562 0.503319 0
M  V30 3536 H 337.615 1.66307 0.33765 0
M  V30 3537 H 336.387 3.75482 1.10132 0
M  V30 3538 H 336.01 2.9805 2.63158 0
M  V30 3539 N 337.007 -0.598083 1.45811 0
M  V30 3540 C 338.256 -1.35295 1.49594 0
M  V30 3541 C 338.569 -1.95057 0.145679 0
M  V30 3542 O 339.775 -2.71431 0.0612099 0
M  V30 3543 C 338.231 -2.45124 2.63519 0
M  V30 3544 C 337.839 -1.91732 4.04899 0
M  V30 3545 C 339.583 -3.2205 2.76558 0
M  V30 3546 C 337.49 -2.991 5.1019 0
M  V30 3547 H 336.42 -0.508552 0.556679 0
M  V30 3548 H 339.071 -0.639977 1.71978 0
M  V30 3549 H 337.453 -3.19149 2.34435 0
M  V30 3550 H 338.627 -1.24352 4.43704 0
M  V30 3551 H 336.942 -1.27522 3.96393 0
M  V30 3552 H 339.539 -4.0215 3.52391 0
M  V30 3553 H 339.882 -3.73663 1.83526 0
M  V30 3554 H 340.415 -2.55127 3.05213 0
M  V30 3555 H 337.154 -2.52393 6.04961 0
M  V30 3556 H 336.674 -3.65017 4.75944 0
M  V30 3557 H 338.353 -3.63318 5.35359 0
M  V30 3558 N 338.485 -1.33259 -0.841409 0
M  V30 3559 C 339.734 -1.23921 -1.59143 0
M  V30 3560 C 340.047 0.1941 -1.94635 0
M  V30 3561 O 341.253 0.409474 -2.68394 0
M  V30 3562 C 339.709 -2.17119 -2.87032 0
M  V30 3563 C 339.317 -3.65606 -2.58914 0
M  V30 3564 C 341.061 -2.16648 -3.65053 0
M  V30 3565 C 338.968 -4.50726 -3.82884 0
M  V30 3566 H 337.898 -0.460264 -0.597221 0
M  V30 3567 H 340.549 -1.58307 -0.927959 0
M  V30 3568 H 338.931 -1.75663 -3.54906 0
M  V30 3569 H 340.105 -4.15487 -1.99267 0
M  V30 3570 H 338.42 -3.68341 -1.942 0
M  V30 3571 H 341.017 -2.77474 -4.57069 0
M  V30 3572 H 341.36 -1.16088 -3.99787 0
M  V30 3573 H 341.893 -2.56453 -3.041 0
M  V30 3574 H 338.632 -5.52151 -3.53283 0
M  V30 3575 H 338.152 -4.0559 -4.41879 0
M  V30 3576 H 339.831 -4.64401 -4.50489 0
M  V30 3577 N 339.963 1.05934 -1.16686 0
M  V30 3578 C 340.913 2.11764 -0.844978 0
M  V30 3579 C 341.897 1.59922 0.177178 0
M  V30 3580 O 343.089 1.76983 -0.0241768 0
M  V30 3581 C 340.218 3.41493 -0.351812 0
M  V30 3582 C 339.304 4.00152 -1.40496 0
M  V30 3583 N 339.695 4.32874 -2.61636 0
M  V30 3584 C 337.993 4.278 -1.26106 0
M  V30 3585 C 338.694 4.79552 -3.29249 0
M  V30 3586 N 337.67 4.79211 -2.56628 0
M  V30 3587 H 341.472 2.34916 -1.76612 0
M  V30 3588 H 338.986 1.23511 -1.05446 0
M  V30 3589 H 340.983 4.16773 -0.102796 0
M  V30 3590 H 339.643 3.19778 0.56322 0
M  V30 3591 H 340.654 4.23109 -2.98663 0
M  V30 3592 H 337.331 4.15511 -0.407081 0
M  V30 3593 H 338.721 5.14045 -4.32675 0
M  V30 3594 N 341.441 0.965919 1.2453 0
M  V30 3595 C 342.669 0.644385 1.96609 0
M  V30 3596 C 343.084 -0.785823 1.71669 0
M  V30 3597 O 342.441 -1.52703 0.999399 0
M  V30 3598 C 342.492 0.907375 3.49927 0
M  V30 3599 O 342.213 2.28136 3.74013 0
M  V30 3600 C 343.714 0.599784 4.39224 0
M  V30 3601 H 340.934 0.240588 0.626385 0
M  V30 3602 H 343.478 1.29337 1.58405 0
M  V30 3603 H 341.633 0.304631 3.862 0
M  V30 3604 H 342.047 2.36002 4.68405 0
M  V30 3605 H 343.521 0.834263 5.45659 0
M  V30 3606 H 343.998 -0.465921 4.36722 0
M  V30 3607 H 344.604 1.18235 4.08535 0
M  V30 3608 N 342.919 -1.39368 0.735821 0
M  V30 3609 C 343.829 -2.34395 0.0979693 0
M  V30 3610 C 344.845 -1.58361 -0.720968 0
M  V30 3611 O 346.021 -1.90648 -0.649245 0
M  V30 3612 C 343.086 -3.37393 -0.797916 0
M  V30 3613 C 342.147 -4.29287 0.0333662 0
M  V30 3614 C 341.38 -5.27365 -0.819854 0
M  V30 3615 O 341.603 -5.31959 -2.05855 0
M  V30 3616 O 340.537 -6.01389 -0.248079 0
M  V30 3617 H 344.363 -2.90601 0.882315 0
M  V30 3618 H 341.948 -1.40909 0.4965 0
M  V30 3619 H 343.83 -4.00505 -1.31048 0
M  V30 3620 H 342.505 -2.83571 -1.56106 0
M  V30 3621 H 341.412 -3.69395 0.591475 0
M  V30 3622 H 342.745 -4.86317 0.758752 0
M  V30 3623 N 344.397 -0.483516 -1.5 0
M  V30 3624 C 345.344 0.304164 -2.28787 0
M  V30 3625 C 346.314 0.976114 -1.34392 0
M  V30 3626 O 347.499 0.986156 -1.63339 0
M  V30 3627 C 344.639 1.37298 -3.16612 0
M  V30 3628 C 343.752 0.714561 -4.26049 0
M  V30 3629 C 342.887 1.76232 -5.01114 0
M  V30 3630 C 341.926 1.08483 -6.0241 0
M  V30 3631 N 341.063 2.076 -6.70706 0
M  V30 3632 H 345.903 -0.373981 -2.95644 0
M  V30 3633 H 343.44 -0.196275 -1.45785 0
M  V30 3634 H 345.398 2.00445 -3.65893 0
M  V30 3635 H 344.028 2.02012 -2.51776 0
M  V30 3636 H 343.08 -0.0297798 -3.80388 0
M  V30 3637 H 344.392 0.180383 -4.98474 0
M  V30 3638 H 343.546 2.46929 -5.54176 0
M  V30 3639 H 342.285 2.33033 -4.28424 0
M  V30 3640 H 341.29 0.363545 -5.48597 0
M  V30 3641 H 342.515 0.523551 -6.77079 0
M  V30 3642 H 340.461 2.63394 -6.00799 0
M  V30 3643 H 340.378 1.59201 -7.39047 0
M  V30 3644 H 341.646 2.77639 -7.2838 0
M  V30 3645 N 345.875 1.56104 -0.216619 0
M  V30 3646 C 347.1 2.0301 0.424462 0
M  V30 3647 C 347.525 1.0955 1.52907 0
M  V30 3648 O 346.883 0.0827914 1.81111 0
M  V30 3649 C 346.931 3.4819 0.937883 0
M  V30 3650 O 346.035 3.57865 2.04955 0
M  V30 3651 H 345.376 0.656925 0.0966755 0
M  V30 3652 H 347.906 2.01859 -0.33381 0
M  V30 3653 H 347.916 3.88413 1.24897 0
M  V30 3654 H 346.591 4.15699 0.129387 0
M  V30 3655 H 345.168 3.29527 1.74546 0
M  V30 3656 N 347.353 -0.0568162 1.57498 0
M  V30 3657 C 348.283 -1.06593 2.0775 0
M  V30 3658 C 349.264 -1.39448 0.974082 0
M  V30 3659 O 350.449 -1.48815 1.24771 0
M  V30 3660 C 347.579 -2.37509 2.5339 0
M  V30 3661 C 346.533 -2.1897 3.67745 0
M  V30 3662 C 345.859 -3.55402 3.99492 0
M  V30 3663 C 347.159 -1.59859 4.97235 0
M  V30 3664 H 348.853 -0.647706 2.9231 0
M  V30 3665 H 346.399 -0.310116 1.40621 0
M  V30 3666 H 348.352 -3.08409 2.87162 0
M  V30 3667 H 347.076 -2.8134 1.65878 0
M  V30 3668 H 345.735 -1.50508 3.3428 0
M  V30 3669 H 345.383 -3.9683 3.09088 0
M  V30 3670 H 345.083 -3.43831 4.76502 0
M  V30 3671 H 346.607 -4.27708 4.35773 0
M  V30 3672 H 348.021 -2.20642 5.29141 0
M  V30 3673 H 346.418 -1.58942 5.78669 0
M  V30 3674 H 347.488 -0.561506 4.81638 0
M  V30 3675 N 348.832 -1.54138 -0.328536 0
M  V30 3676 C 350.06 -1.76062 -1.08673 0
M  V30 3677 C 350.475 -0.506852 -1.81869 0
M  V30 3678 O 349.832 0.522223 -1.74869 0
M  V30 3679 C 349.883 -2.95054 -2.08866 0
M  V30 3680 O 349.604 -4.15583 -1.38644 0
M  V30 3681 C 351.105 -3.2915 -2.96943 0
M  V30 3682 H 348.325 -0.587889 -0.323461 0
M  V30 3683 H 350.869 -2.0101 -0.376175 0
M  V30 3684 H 349.024 -2.72394 -2.75464 0
M  V30 3685 H 349.438 -4.82481 -2.05699 0
M  V30 3686 H 350.912 -4.15723 -3.63151 0
M  V30 3687 H 351.389 -2.461 -3.63774 0
M  V30 3688 H 351.995 -3.53871 -2.35914 0
M  V30 3689 N 350.31 0.590341 -1.46126 0
M  V30 3690 C 351.24 1.71032 -1.58966 0
M  V30 3691 C 352.221 1.64302 -0.440335 0
M  V30 3692 O 353.406 1.82436 -0.665634 0
M  V30 3693 C 350.536 3.09665 -1.57241 0
M  V30 3694 C 349.49 3.31221 -2.71066 0
M  V30 3695 C 348.816 4.70303 -2.54399 0
M  V30 3696 C 350.116 3.19796 -4.1295 0
M  V30 3697 H 351.81 1.60543 -2.52718 0
M  V30 3698 H 349.356 0.770933 -1.21625 0
M  V30 3699 H 351.309 3.87831 -1.64819 0
M  V30 3700 H 350.033 3.21036 -0.600289 0
M  V30 3701 H 348.692 2.55452 -2.62944 0
M  V30 3702 H 348.34 4.78429 -1.55288 0
M  V30 3703 H 348.04 4.85679 -3.30741 0
M  V30 3704 H 349.564 5.50647 -2.63857 0
M  V30 3705 H 350.978 3.87815 -4.22223 0
M  V30 3706 H 349.375 3.46696 -4.89818 0
M  V30 3707 H 350.445 2.16983 -4.33643 0
M  V30 3708 N 351.788 1.33704 0.83433 0
M  V30 3709 C 353.034 1.25603 1.59222 0
M  V30 3710 C 353.367 -0.176659 1.93395 0
M  V30 3711 O 352.642 -1.11915 1.59076 0
M  V30 3712 C 352.925 2.13576 2.89926 0
M  V30 3713 C 352.778 3.65326 2.62406 0
M  V30 3714 C 354.097 2.01238 3.91397 0
M  V30 3715 H 351.216 0.457613 0.577719 0
M  V30 3716 H 353.858 1.63848 0.961972 0
M  V30 3717 H 352.008 1.8109 3.43713 0
M  V30 3718 H 353.68 4.08124 2.15017 0
M  V30 3719 H 351.923 3.8698 1.96033 0
M  V30 3720 H 352.594 4.22232 3.55562 0
M  V30 3721 H 355.07 2.29738 3.46929 0
M  V30 3722 H 353.946 2.65036 4.80673 0
M  V30 3723 H 354.207 0.985951 4.30966 0
M  V30 3724 N 353.266 -1.05314 1.17247 0
M  V30 3725 C 354.513 -1.78293 0.960091 0
M  V30 3726 C 354.841 -1.87658 -0.51136 0
M  V30 3727 O 354.096 -1.3718 -1.39571 0
M  V30 3728 C 354.395 -3.2229 1.54479 0
M  V30 3729 C 354.061 -3.32987 3.04024 0
M  V30 3730 C 352.723 -3.35613 3.44844 0
M  V30 3731 C 355.075 -3.34102 4.00031 0
M  V30 3732 C 352.403 -3.36982 4.8027 0
M  V30 3733 C 354.755 -3.3701 5.35357 0
M  V30 3734 C 353.419 -3.37923 5.75642 0
M  V30 3735 H 352.689 -0.652422 0.351322 0
M  V30 3736 H 355.336 -1.23782 1.46117 0
M  V30 3737 H 353.641 -3.7972 0.965391 0
M  V30 3738 H 355.338 -3.77376 1.35603 0
M  V30 3739 H 351.928 -3.31655 2.71483 0
M  V30 3740 H 356.112 -3.31276 3.69554 0
M  V30 3741 H 351.368 -3.35999 5.10798 0
M  V30 3742 H 355.542 -3.36822 6.09528 0
M  V30 3743 H 353.169 -3.38738 6.80559 0
M  V30 3744 N 354.744 -0.972509 -1.24016 0
M  V30 3745 C 355.654 -0.5143 -2.28893 0
M  V30 3746 C 356.67 0.427078 -1.68677 0
M  V30 3747 O 357.846 0.298939 -1.99169 0
M  V30 3748 C 354.911 0.183598 -3.46214 0
M  V30 3749 C 353.972 -0.798202 -4.21814 0
M  V30 3750 C 353.205 -0.133514 -5.33533 0
M  V30 3751 O 353.428 1.07714 -5.60137 0
M  V30 3752 O 352.362 -0.828103 -5.96176 0
M  V30 3753 H 356.188 -1.38629 -2.70214 0
M  V30 3754 H 353.773 -0.739769 -1.29799 0
M  V30 3755 H 355.655 0.575433 -4.17453 0
M  V30 3756 H 354.33 1.03048 -3.0686 0
M  V30 3757 H 353.237 -1.24059 -3.52931 0
M  V30 3758 H 354.57 -1.61364 -4.64997 0
M  V30 3759 N 356.222 1.38976 -0.743202 0
M  V30 3760 C 357.452 2.04339 -0.304807 0
M  V30 3761 C 357.86 1.56162 1.06819 0
M  V30 3762 O 357.203 0.725284 1.68776 0
M  V30 3763 C 357.265 3.58716 -0.237369 0
M  V30 3764 C 356.929 4.29905 -1.55018 0
M  V30 3765 C 357.926 4.55987 -2.49744 0
M  V30 3766 C 355.611 4.68294 -1.81675 0
M  V30 3767 C 357.605 5.19478 -3.69353 0
M  V30 3768 C 355.292 5.31512 -3.0156 0
M  V30 3769 C 356.29 5.57037 -3.9522 0
M  V30 3770 O 355.978 6.18941 -5.12998 0
M  V30 3771 H 355.71 0.663439 -0.12971 0
M  V30 3772 H 358.264 1.78852 -1.01001 0
M  V30 3773 H 356.494 3.83133 0.524003 0
M  V30 3774 H 358.183 4.05543 0.170121 0
M  V30 3775 H 358.949 4.26767 -2.30423 0
M  V30 3776 H 354.828 4.47779 -1.09615 0
M  V30 3777 H 358.372 5.39318 -4.42473 0
M  V30 3778 H 354.269 5.60153 -3.20778 0
M  V30 3779 H 355.037 6.37433 -5.13441 0
M  V30 3780 N 357.7 0.491464 1.49741 0
M  V30 3781 C 358.63 -0.28154 2.31796 0
M  V30 3782 C 359.611 -0.971473 1.3963 0
M  V30 3783 O 360.796 -0.964719 1.68543 0
M  V30 3784 C 357.926 -1.35203 3.19902 0
M  V30 3785 C 356.88 -0.782529 4.20786 0
M  V30 3786 C 356.206 -1.95283 4.97764 0
M  V30 3787 C 357.506 0.21999 5.21837 0
M  V30 3788 H 359.2 0.403355 2.96671 0
M  V30 3789 H 356.746 0.195425 1.42668 0
M  V30 3790 H 358.699 -1.90045 3.76113 0
M  V30 3791 H 357.423 -2.06598 2.52953 0
M  V30 3792 H 356.082 -0.255928 3.65706 0
M  V30 3793 H 355.73 -2.65423 4.2727 0
M  V30 3794 H 355.43 -1.57789 5.66018 0
M  V30 3795 H 356.954 -2.50577 5.56816 0
M  V30 3796 H 358.368 -0.23996 5.72798 0
M  V30 3797 H 356.765 0.51026 5.97927 0
M  V30 3798 H 357.835 1.13911 4.7133 0
M  V30 3799 N 359.178 -1.55987 0.224894 0
M  V30 3800 C 360.455 -1.90232 -0.455083 0
M  V30 3801 C 360.835 -1.14269 -1.77499 0
M  V30 3802 O 360.183 -0.253079 -2.27094 0
M  V30 3803 C 360.393 -3.42993 -0.644758 0
M  V30 3804 C 361.741 -4.13821 -0.950669 0
M  V30 3805 O 362.765 -3.4861 -0.731423 0
M  V30 3806 O 361.624 -5.29128 -1.36695 0
M  V30 3807 H 358.718 -0.79108 -0.241084 0
M  V30 3808 H 361.264 -1.67581 0.267327 0
M  V30 3809 H 360.036 -3.90252 0.28613 0
M  V30 3810 H 359.659 -3.71434 -1.41853 0
M  V30 3811 N 360.656 0.0484629 -1.57525 0
M  V30 3812 C 361.603 1.05504 -2.05275 0
M  V30 3813 C 362.573 1.37084 -0.937927 0
M  V30 3814 O 363.758 1.47754 -1.2072 0
M  V30 3815 C 360.898 2.35676 -2.52093 0
M  V30 3816 C 360.011 2.10423 -3.77288 0
M  V30 3817 C 359.146 3.34327 -4.12794 0
M  V30 3818 C 358.185 3.04542 -5.30962 0
M  V30 3819 N 357.322 4.20841 -5.61994 0
M  V30 3820 H 362.162 0.640885 -2.91027 0
M  V30 3821 H 359.699 0.304854 -1.43906 0
M  V30 3822 H 361.657 3.11709 -2.77297 0
M  V30 3823 H 360.287 2.7485 -1.69285 0
M  V30 3824 H 359.339 1.24976 -3.59284 0
M  V30 3825 H 360.651 1.84438 -4.63448 0
M  V30 3826 H 359.805 4.1874 -4.39024 0
M  V30 3827 H 358.544 3.63408 -3.25247 0
M  V30 3828 H 357.549 2.18528 -5.04505 0
M  V30 3829 H 358.774 2.76758 -6.20146 0
M  V30 3830 H 356.72 4.4991 -4.77406 0
M  V30 3831 H 356.637 3.98212 -6.42622 0
M  V30 3832 H 357.905 5.06184 -5.92789 0
M  V30 3833 N 362.134 1.5431 0.320358 0
M  V30 3834 C 363.411 1.63322 1.07635 0
M  V30 3835 C 363.791 0.46912 2.05821 0
M  V30 3836 O 363.139 -0.536274 2.22118 0
M  V30 3837 C 363.349 3.00465 1.77544 0
M  V30 3838 C 364.697 3.56621 2.30449 0
M  V30 3839 O 365.721 3.02791 1.87606 0
M  V30 3840 O 364.58 4.5083 3.08892 0
M  V30 3841 H 361.674 0.661502 0.496331 0
M  V30 3842 H 364.22 1.66656 0.319992 0
M  V30 3843 H 362.992 3.76629 1.06143 0
M  V30 3844 H 362.615 3.00824 2.59982 0
M  V30 3845 N 363.613 -0.582584 1.46437 0
M  V30 3846 C 364.543 -1.70187 1.59871 0
M  V30 3847 C 365.524 -1.64066 0.449042 0
M  V30 3848 O 366.709 -1.82081 0.6753 0
M  V30 3849 C 363.839 -3.08827 1.58881 0
M  V30 3850 C 362.793 -3.29779 2.72819 0
M  V30 3851 C 362.119 -4.68947 2.5689 0
M  V30 3852 C 363.419 -3.17601 4.1464 0
M  V30 3853 H 365.113 -1.592 2.53566 0
M  V30 3854 H 362.659 -0.764472 1.22032 0
M  V30 3855 H 364.612 -3.86951 1.66873 0
M  V30 3856 H 363.336 -3.20713 0.617306 0
M  V30 3857 H 361.995 -2.54054 2.64296 0
M  V30 3858 H 361.643 -4.77599 1.57823 0
M  V30 3859 H 361.343 -4.83919 3.33312 0
M  V30 3860 H 362.867 -5.4924 2.66773 0
M  V30 3861 H 364.281 -3.8557 4.24274 0
M  V30 3862 H 362.678 -3.44094 4.9165 0
M  V30 3863 H 363.748 -2.14681 4.34788 0
M  V30 3864 N 365.091 -1.34144 -0.827227 0
M  V30 3865 C 366.038 -1.25364 -1.93785 0
M  V30 3866 C 367.008 -0.129774 -1.65592 0
M  V30 3867 O 368.193 -0.310024 -1.88264 0
M  V30 3868 C 365.333 -1.01064 -3.2997 0
M  V30 3869 C 364.446 -2.22185 -3.70484 0
M  V30 3870 C 363.581 -1.91203 -4.95595 0
M  V30 3871 C 362.62 -3.08491 -5.28677 0
M  V30 3872 N 361.757 -2.77421 -6.44967 0
M  V30 3873 H 366.597 -2.20347 -2.00627 0
M  V30 3874 H 364.134 -1.09558 -0.981608 0
M  V30 3875 H 366.092 -0.850139 -4.08446 0
M  V30 3876 H 364.722 -0.0975026 -3.22653 0
M  V30 3877 H 363.774 -2.4917 -2.87434 0
M  V30 3878 H 365.086 -3.0983 -3.90905 0
M  V30 3879 H 364.24 -1.71864 -5.81848 0
M  V30 3880 H 362.979 -1.00812 -4.77167 0
M  V30 3881 H 361.984 -3.28431 -4.40923 0
M  V30 3882 H 363.209 -3.99655 -5.49047 0
M  V30 3883 H 361.155 -1.89601 -6.28003 0
M  V30 3884 H 361.072 -3.58598 -6.6554 0
M  V30 3885 H 362.34 -2.61577 -7.34301 0
M  V30 3886 N 366.569 1.04691 -1.17803 0
M  V30 3887 C 367.501 2.12571 -0.857097 0
M  V30 3888 C 368.514 1.62174 0.142647 0
M  V30 3889 O 369.703 1.78301 -0.0843387 0
M  V30 3890 C 366.803 3.37915 -0.258216 0
M  V30 3891 C 365.976 4.1757 -1.30207 0
M  V30 3892 C 365.035 5.2125 -0.720029 0
M  V30 3893 O 364.061 5.51888 -1.39314 0
M  V30 3894 N 365.263 5.78466 0.485507 0
M  V30 3895 H 368.028 2.40698 -1.78562 0
M  V30 3896 H 365.589 1.20831 -1.07757 0
M  V30 3897 H 367.581 4.04442 0.144584 0
M  V30 3898 H 366.151 3.07281 0.574199 0
M  V30 3899 H 365.371 3.46458 -1.88043 0
M  V30 3900 H 366.659 4.67586 -2.00601 0
M  V30 3901 H 366.057 5.55866 1.05022 0
M  V30 3902 H 364.614 6.4649 0.830307 0
M  V30 3903 N 368.047 0.979072 1.23499 0
M  V30 3904 C 369.277 0.664237 1.95631 0
M  V30 3905 C 369.685 -0.772653 1.72704 0
M  V30 3906 O 369.028 -1.53141 1.01457 0
M  V30 3907 C 369.09 0.873115 3.48736 0
M  V30 3908 C 368.754 2.29182 3.95379 0
M  V30 3909 C 369.751 3.2704 4.04155 0
M  V30 3910 C 367.436 2.62256 4.28401 0
M  V30 3911 C 369.43 4.56052 4.45304 0
M  V30 3912 C 367.117 3.91491 4.69231 0
M  V30 3913 C 368.115 4.88201 4.77649 0
M  V30 3914 O 367.803 6.15129 5.17563 0
M  V30 3915 H 367.535 0.245915 0.629684 0
M  V30 3916 H 370.089 1.3127 1.57979 0
M  V30 3917 H 368.319 0.167476 3.86337 0
M  V30 3918 H 370.008 0.555642 4.02079 0
M  V30 3919 H 370.774 3.02819 3.78848 0
M  V30 3920 H 366.653 1.87692 4.21061 0
M  V30 3921 H 370.197 5.31538 4.51789 0
M  V30 3922 H 366.094 4.15508 4.93987 0
M  V30 3923 H 366.862 6.18862 5.35679 0
M  V30 3924 N 369.525 -1.3858 0.750561 0
M  V30 3925 C 370.455 -2.33102 0.136237 0
M  V30 3926 C 371.436 -1.54713 -0.706965 0
M  V30 3927 O 372.621 -1.83043 -0.648769 0
M  V30 3928 C 369.751 -3.38882 -0.760017 0
M  V30 3929 C 368.705 -4.27995 -0.0197785 0
M  V30 3930 C 368.031 -5.24605 -1.03408 0
M  V30 3931 C 369.331 -5.09554 1.14684 0
M  V30 3932 H 371.025 -2.84726 0.925822 0
M  V30 3933 H 368.571 -1.36898 0.446654 0
M  V30 3934 H 370.524 -4.0397 -1.19943 0
M  V30 3935 H 369.248 -2.85734 -1.58189 0
M  V30 3936 H 367.907 -3.64409 0.400184 0
M  V30 3937 H 367.555 -4.67746 -1.84994 0
M  V30 3938 H 367.255 -5.85081 -0.543464 0
M  V30 3939 H 368.779 -5.9257 -1.47288 0
M  V30 3940 H 370.193 -5.67899 0.785118 0
M  V30 3941 H 368.59 -5.7925 1.56812 0
M  V30 3942 H 369.66 -4.4347 1.96118 0
M  V30 3943 N 371.003 -0.499398 -1.49478 0
M  V30 3944 C 372.28 0.108629 -1.95298 0
M  V30 3945 C 372.66 1.54282 -1.44084 0
M  V30 3946 O 372.008 2.18944 -0.653908 0
M  V30 3947 C 372.218 0.0229111 -3.48992 0
M  V30 3948 C 373.566 0.197643 -4.2414 0
M  V30 3949 O 374.59 0.0981735 -3.56065 0
M  V30 3950 O 373.449 0.401669 -5.45022 0
M  V30 3951 H 370.543 0.096181 -0.821388 0
M  V30 3952 H 373.089 -0.561822 -1.6013 0
M  V30 3953 H 371.861 -0.977321 -3.78899 0
M  V30 3954 H 371.484 0.733579 -3.90774 0
M  V30 3955 N 372.481 1.55866 -0.233164 0
M  V30 3956 C 373.758 1.90471 0.444988 0
M  V30 3957 C 374.138 1.15209 1.7689 0
M  V30 3958 O 373.486 0.265119 2.26957 0
M  V30 3959 C 373.696 3.4333 0.626559 0
M  V30 3960 C 375.044 4.14319 0.92871 0
M  V30 3961 O 376.068 3.48993 0.712926 0
M  V30 3962 O 374.927 5.29846 1.33887 0
M  V30 3963 H 372.021 0.792347 0.236885 0
M  V30 3964 H 374.567 1.67437 -0.276211 0
M  V30 3965 H 373.339 3.90095 -0.306822 0
M  V30 3966 H 372.962 3.72181 1.39881 0
M  V30 3967 N 373.959 -0.0401083 1.57549 0
M  V30 3968 C 375.199 -0.738098 1.90608 0
M  V30 3969 C 375.563 -1.73107 0.830539 0
M  V30 3970 O 376.764 -2.4765 1.04513 0
M  V30 3971 C 375.035 -1.39985 3.28845 0
M  V30 3972 S 376.594 -2.12852 3.83718 0
M  V30 3973 H 373.412 -0.24477 0.667539 0
M  V30 3974 H 376.014 0.00693599 1.95499 0
M  V30 3975 H 374.718 -0.663775 4.04997 0
M  V30 3976 H 374.249 -2.18366 3.2723 0
M  V30 3977 H 376.264 -3.39842 3.61555 0
M  V30 3978 N 375.437 -1.54477 -0.31217 0
M  V30 3979 C 376.685 -1.72884 -1.04668 0
M  V30 3980 C 377.006 -0.511477 -1.88173 0
M  V30 3981 O 376.276 0.474407 -1.90069 0
M  V30 3982 H 374.856 -0.637461 -0.389425 0
M  V30 3983 H 377.518 -1.91807 -0.345852 0
M  V30 3984 H 376.614 -2.61334 -1.70619 0
M  V30 3985 N 376.915 0.57481 -1.46744 0
M  V30 3986 C 377.863 1.70435 -1.58286 0
M  V30 3987 C 378.857 1.63287 -0.450956 0
M  V30 3988 O 380.063 1.68685 -0.628121 0
M  V30 3989 H 376.438 0.56364 -0.497809 0
M  V30 3990 H 378.409 1.57833 -2.53242 0
M  V30 3991 C 377.158 3.08815 -1.59776 0
M  V30 3992 H 376.481 3.1499 -2.46214 0
M  V30 3993 H 377.921 3.87588 -1.71905 0
M  V30 3994 C 376.38 3.35301 -0.327812 0
M  V30 3995 O 376.91 3.97511 0.57861 0
M  V30 3996 N 375.116 2.89816 -0.213274 0
M  V30 3997 H 374.663 2.39371 -0.951798 0
M  V30 3998 H 374.621 3.0791 0.63553 0
M  V30 3999 N 378.394 1.34581 0.820102 0
M  V30 4000 C 379.643 1.26437 1.57151 0
M  V30 4001 C 379.956 -0.163111 1.94919 0
M  V30 4002 O 381.162 -0.366722 2.69012 0
M  V30 4003 C 379.618 2.21658 2.83541 0
M  V30 4004 C 379.226 3.69679 2.53065 0
M  V30 4005 C 380.97 2.22428 3.61561 0
M  V30 4006 C 378.877 4.56761 3.75664 0
M  V30 4007 H 377.807 0.469707 0.589823 0
M  V30 4008 H 380.458 1.59763 0.902656 0
M  V30 4009 H 378.84 1.81287 3.52067 0
M  V30 4010 H 380.014 4.18605 1.92631 0
M  V30 4011 H 378.329 3.71384 1.88316 0
M  V30 4012 H 380.926 2.8471 4.52597 0
M  V30 4013 H 381.269 1.22434 3.97889 0
M  V30 4014 H 381.802 2.61259 2.99981 0
M  V30 4015 H 378.541 5.57702 3.44454 0
M  V30 4016 H 378.061 4.12568 4.35371 0
M  V30 4017 H 379.74 4.71509 4.43044 0
M  V30 4018 N 379.872 -1.04064 1.18357 0
M  V30 4019 C 381.121 -1.76662 0.973313 0
M  V30 4020 C 381.434 -1.89154 -0.497991 0
M  V30 4021 O 382.64 -2.58606 -0.826762 0
M  V30 4022 C 381.096 -3.17624 1.69242 0
M  V30 4023 C 380.704 -3.13225 3.20303 0
M  V30 4024 C 382.448 -3.946 1.56497 0
M  V30 4025 C 380.355 -4.49046 3.84853 0
M  V30 4026 H 379.285 -0.662214 0.36054 0
M  V30 4027 H 381.936 -1.16553 1.41731 0
M  V30 4028 H 380.318 -3.78129 1.1762 0
M  V30 4029 H 381.492 -2.62172 3.78949 0
M  V30 4030 H 379.807 -2.49749 3.33189 0
M  V30 4031 H 382.404 -4.95042 2.02084 0
M  V30 4032 H 382.747 -4.13074 0.517243 0
M  V30 4033 H 383.28 -3.4067 2.05399 0
M  V30 4034 H 380.019 -4.35777 4.89672 0
M  V30 4035 H 379.539 -5.00203 3.30994 0
M  V30 4036 H 381.218 -5.17961 3.87718 0
M  V30 4037 N 381.35 -0.985608 -1.22978 0
M  V30 4038 C 382.298 -0.522631 -2.26652 0
M  V30 4039 C 383.292 0.422998 -1.64034 0
M  V30 4040 O 384.498 0.296319 -1.77544 0
M  V30 4041 H 380.873 -0.150597 -0.736766 0
M  V30 4042 H 382.844 -1.40863 -2.63059 0
M  V30 4043 C 381.593 0.154238 -3.47358 0
M  V30 4044 H 380.916 -0.564329 -3.95797 0
M  V30 4045 H 382.356 0.441744 -4.21693 0
M  V30 4046 C 380.815 1.38719 -3.07016 0
M  V30 4047 O 381.345 2.48307 -3.15764 0
M  V30 4048 N 379.551 1.25975 -2.61875 0
M  V30 4049 H 379.098 0.368068 -2.54957 0
M  V30 4050 H 379.056 2.08578 -2.3525 0
M  V30 4051 N 382.828 1.3818 -0.7579 0
M  V30 4052 C 383.761 2.28055 -0.0814093 0
M  V30 4053 C 384.739 1.45603 0.723779 0
M  V30 4054 O 385.923 1.74961 0.701491 0
M  V30 4055 C 383.05 3.2676 0.891394 0
M  V30 4056 C 382.096 4.26153 0.171909 0
M  V30 4057 S 382.929 5.23434 -1.13035 0
M  V30 4058 C 384.085 6.25694 -0.160727 0
M  V30 4059 H 384.318 2.85082 -0.84353 0
M  V30 4060 H 381.851 1.44246 -0.550671 0
M  V30 4061 H 383.809 3.8414 1.44731 0
M  V30 4062 H 382.47 2.68706 1.62652 0
M  V30 4063 H 381.663 4.95738 0.908843 0
M  V30 4064 H 381.265 3.72691 -0.312606 0
M  V30 4065 H 383.557 6.74161 0.671773 0
M  V30 4066 H 384.5 7.03285 -0.824353 0
M  V30 4067 H 384.908 5.64064 0.221892 0
M  V30 4068 N 384.306 0.507319 1.49211 0
M  V30 4069 C 385.256 -0.287112 2.26185 0
M  V30 4070 C 386.24 -0.929983 1.31302 0
M  V30 4071 O 387.432 -0.836538 1.55984 0
M  V30 4072 C 384.561 -1.34718 3.15763 0
M  V30 4073 C 383.647 -0.710235 4.18111 0
M  V30 4074 N 384.038 0.190836 5.0544 0
M  V30 4075 C 382.336 -0.97009 4.35322 0
M  V30 4076 C 383.037 0.55606 5.79036 0
M  V30 4077 N 382.013 -0.0775232 5.43545 0
M  V30 4078 H 385.815 0.406445 2.91076 0
M  V30 4079 H 383.329 0.323814 1.59139 0
M  V30 4080 H 385.326 -1.92982 3.69545 0
M  V30 4081 H 383.986 -2.04235 2.52424 0
M  V30 4082 H 384.997 0.562047 5.14841 0
M  V30 4083 H 381.674 -1.65753 3.83187 0
M  V30 4084 H 383.064 1.2936 6.5933 0
M  V30 4085 N 385.784 -1.5574 0.241426 0
M  V30 4086 C 386.732 -2.22538 -0.676718 0
M  V30 4087 C 387.726 -1.21117 -1.18436 0
M  V30 4088 O 388.932 -1.39144 -1.14188 0
M  V30 4089 H 385.307 -0.713776 -0.236701 0
M  V30 4090 H 387.278 -2.98264 -0.0901187 0
M  V30 4091 C 386.027 -2.93439 -1.86518 0
M  V30 4092 H 385.35 -3.7125 -1.4837 0
M  V30 4093 H 386.79 -3.43549 -2.48495 0
M  V30 4094 C 385.249 -1.97008 -2.73294 0
M  V30 4095 O 385.779 -1.49965 -3.72657 0
M  V30 4096 N 383.985 -1.64227 -2.39745 0
M  V30 4097 H 383.532 -2.02677 -1.58996 0
M  V30 4098 H 383.49 -0.999708 -2.98083 0
M  V30 4099 N 387.262 0.0317525 -1.57568 0
M  V30 4100 C 388.508 0.724175 -1.8943 0
M  V30 4101 C 388.841 1.75149 -0.838836 0
M  V30 4102 O 388.116 1.93948 0.146422 0
M  V30 4103 C 388.399 1.39615 -3.31933 0
M  V30 4104 C 388.252 0.382537 -4.4817 0
M  V30 4105 C 389.571 2.33084 -3.73309 0
M  V30 4106 H 386.69 0.261797 -0.688935 0
M  V30 4107 H 389.332 -0.013017 -1.89996 0
M  V30 4108 H 387.482 2.02451 -3.31581 0
M  V30 4109 H 389.154 -0.243689 -4.60656 0
M  V30 4110 H 387.397 -0.29844 -4.32772 0
M  V30 4111 H 388.068 0.891145 -5.44759 0
M  V30 4112 H 390.544 1.80295 -3.7501 0
M  V30 4113 H 389.42 2.77084 -4.73831 0
M  V30 4114 H 389.681 3.19643 -3.05419 0
M  V30 4115 N 388.74 1.54641 0.303973 0
M  V30 4116 C 389.687 1.85386 1.37479 0
M  V30 4117 C 390.657 0.702528 1.50512 0
M  V30 4118 O 391.842 0.950867 1.65418 0
M  V30 4119 C 388.982 2.10413 2.73533 0
M  V30 4120 C 388.095 3.38049 2.68974 0
M  V30 4121 C 387.23 3.52934 3.97002 0
M  V30 4122 C 386.269 4.74373 3.86829 0
M  V30 4123 N 385.406 4.8608 5.06627 0
M  V30 4124 H 390.246 2.76732 1.1056 0
M  V30 4125 H 387.783 1.37034 0.534805 0
M  V30 4126 H 389.741 2.22919 3.52652 0
M  V30 4127 H 388.371 1.22338 2.98719 0
M  V30 4128 H 387.423 3.3418 1.81736 0
M  V30 4129 H 388.735 4.27288 2.57346 0
M  V30 4130 H 387.889 3.65088 4.84557 0
M  V30 4131 H 386.628 2.61824 4.1146 0
M  V30 4132 H 385.633 4.62255 2.97658 0
M  V30 4133 H 386.858 5.66888 3.73918 0
M  V30 4134 H 384.804 3.97891 5.21554 0
M  V30 4135 H 384.721 5.69315 4.9741 0
M  V30 4136 H 385.989 5.02587 5.95841 0
M  V30 4137 N 390.218 -0.567019 1.47046 0
M  V30 4138 C 391.148 -1.68482 1.61667 0
M  V30 4139 C 392.129 -1.6358 0.466418 0
M  V30 4140 O 393.314 -1.81354 0.694574 0
M  V30 4141 C 390.444 -3.07124 1.62148 0
M  V30 4142 C 389.398 -3.26867 2.76301 0
M  V30 4143 C 388.724 -4.66196 2.61849 0
M  V30 4144 C 390.024 -3.13186 4.17986 0
M  V30 4145 H 391.718 -1.56502 2.5524 0
M  V30 4146 H 389.264 -0.751486 1.22836 0
M  V30 4147 H 391.217 -3.8516 1.70968 0
M  V30 4148 H 389.941 -3.2004 0.651287 0
M  V30 4149 H 388.6 -2.51237 2.66975 0
M  V30 4150 H 388.248 -4.75898 1.62879 0
M  V30 4151 H 387.948 -4.80356 3.38425 0
M  V30 4152 H 389.472 -5.46379 2.72584 0
M  V30 4153 H 390.886 -3.81049 4.2834 0
M  V30 4154 H 389.283 -3.3886 4.95272 0
M  V30 4155 H 390.353 -2.10057 4.3704 0
M  V30 4156 N 391.696 -1.35014 -0.812953 0
M  V30 4157 C 392.943 -1.27931 -1.56971 0
M  V30 4158 C 393.271 0.148034 -1.93936 0
M  V30 4159 O 392.526 1.11175 -1.61054 0
M  V30 4160 C 392.825 -2.12524 -2.87347 0
M  V30 4161 C 392.491 -3.61401 -2.6963 0
M  V30 4162 C 391.153 -4.01983 -2.64506 0
M  V30 4163 C 393.505 -4.55894 -2.52607 0
M  V30 4164 C 390.833 -5.35235 -2.40293 0
M  V30 4165 C 393.185 -5.89336 -2.29925 0
M  V30 4166 C 391.849 -6.2907 -2.23219 0
M  V30 4167 H 391.119 -0.468131 -0.574399 0
M  V30 4168 H 393.766 -1.66851 -0.939836 0
M  V30 4169 H 392.071 -1.66463 -3.54679 0
M  V30 4170 H 393.768 -2.04383 -3.45005 0
M  V30 4171 H 390.358 -3.29193 -2.74463 0
M  V30 4172 H 394.542 -4.25431 -2.55583 0
M  V30 4173 H 389.798 -5.65028 -2.33566 0
M  V30 4174 H 393.972 -6.62139 -2.15743 0
M  V30 4175 H 391.599 -7.32256 -2.04219 0
M  V30 4176 N 393.175 1.03435 -1.18907 0
M  V30 4177 C 394.105 2.13503 -0.945448 0
M  V30 4178 C 395.086 1.69682 0.119189 0
M  V30 4179 O 396.271 1.94169 -0.034707 0
M  V30 4180 C 393.401 3.44004 -0.477316 0
M  V30 4181 C 392.355 4.0148 -1.48316 0
M  V30 4182 C 391.681 5.27537 -0.872311 0
M  V30 4183 C 392.981 4.36921 -2.86177 0
M  V30 4184 H 394.675 2.34141 -1.86597 0
M  V30 4185 H 392.221 1.12523 -0.898584 0
M  V30 4186 H 394.174 4.20372 -0.294204 0
M  V30 4187 H 392.898 3.23072 0.478786 0
M  V30 4188 H 391.557 3.27201 -1.65332 0
M  V30 4189 H 391.205 5.02917 0.0911752 0
M  V30 4190 H 390.905 5.66954 -1.54393 0
M  V30 4191 H 392.429 6.06576 -0.699871 0
M  V30 4192 H 393.843 5.04248 -2.72776 0
M  V30 4193 H 392.24 4.87405 -3.50081 0
M  V30 4194 H 393.31 3.46466 -3.39248 0
M  V30 4195 N 394.653 0.992116 1.22453 0
M  V30 4196 C 395.9 0.667534 1.91181 0
M  V30 4197 C 396.228 -0.800317 1.77271 0
M  V30 4198 O 395.483 -1.59421 1.13505 0
M  V30 4199 C 395.782 1.01832 3.42586 0
M  V30 4200 C 395.448 2.47831 3.76684 0
M  V30 4201 C 394.11 2.87729 3.85701 0
M  V30 4202 C 396.462 3.42466 3.92895 0
M  V30 4203 C 393.79 4.21252 4.08367 0
M  V30 4204 C 396.142 4.75648 4.17064 0
M  V30 4205 C 394.806 5.15288 4.24305 0
M  V30 4206 H 394.076 0.244268 0.699581 0
M  V30 4207 H 396.723 1.24816 1.45235 0
M  V30 4208 H 395.028 0.355769 3.90181 0
M  V30 4209 H 396.725 0.745228 3.94014 0
M  V30 4210 H 393.315 2.15905 3.70247 0
M  V30 4211 H 397.499 3.12814 3.85307 0
M  V30 4212 H 392.755 4.51554 4.122 0
M  V30 4213 H 396.929 5.48924 4.2855 0
M  V30 4214 H 394.556 6.18769 4.41621 0
M  V30 4215 N 396.131 -1.37776 0.765217 0
M  V30 4216 C 397.063 -2.28958 0.105361 0
M  V30 4217 C 398.076 -1.48316 -0.67128 0
M  V30 4218 O 399.265 -1.71046 -0.51045 0
M  V30 4219 C 396.365 -3.27421 -0.874569 0
M  V30 4220 C 395.538 -4.37132 -0.153123 0
M  V30 4221 C 394.597 -5.1571 -1.04547 0
M  V30 4222 O 393.623 -5.66896 -0.511672 0
M  V30 4223 N 394.825 -5.29808 -2.37243 0
M  V30 4224 H 397.59 -2.86227 0.888495 0
M  V30 4225 H 395.151 -1.49682 0.617 0
M  V30 4226 H 397.143 -3.7687 -1.47483 0
M  V30 4227 H 395.713 -2.70967 -1.55871 0
M  V30 4228 H 394.933 -3.89166 0.627975 0
M  V30 4229 H 396.221 -5.07625 0.345643 0
M  V30 4230 H 395.619 -4.89793 -2.83054 0
M  V30 4231 H 394.176 -5.82589 -2.9229 0
M  V30 4232 N 397.609 -0.515225 -1.4894 0
M  V30 4233 C 398.539 0.244628 -2.32215 0
M  V30 4234 C 399.52 0.949136 -1.41157 0
M  V30 4235 O 400.705 0.937783 -1.70057 0
M  V30 4236 C 397.835 1.30096 -3.22013 0
M  V30 4237 C 396.789 0.715486 -4.21977 0
M  V30 4238 C 396.115 1.87339 -5.00808 0
M  V30 4239 C 397.415 -0.302982 -5.2142 0
M  V30 4240 H 399.109 -0.450501 -2.95991 0
M  V30 4241 H 396.655 -0.218098 -1.42339 0
M  V30 4242 H 398.608 1.84037 -3.79089 0
M  V30 4243 H 397.332 2.02547 -2.56207 0
M  V30 4244 H 395.991 0.197715 -3.66066 0
M  V30 4245 H 395.639 2.58592 -4.31438 0
M  V30 4246 H 395.339 1.48764 -5.68457 0
M  V30 4247 H 396.863 2.41686 -5.60732 0
M  V30 4248 H 398.277 0.148802 -5.73107 0
M  V30 4249 H 396.674 -0.60532 -5.97039 0
M  V30 4250 H 397.744 -1.21395 -4.69459 0
M  V30 4251 N 399.087 1.5561 -0.249682 0
M  V30 4252 C 400.017 2.24477 0.642826 0
M  V30 4253 C 400.998 1.22601 1.17911 0
M  V30 4254 O 402.183 1.5126 1.21795 0
M  V30 4255 C 399.313 2.94638 1.83863 0
M  V30 4256 C 398.267 4.03227 1.435 0
M  V30 4257 C 397.593 4.60828 2.71186 0
M  V30 4258 C 398.893 5.18796 0.604002 0
M  V30 4259 H 400.587 2.99321 0.0685625 0
M  V30 4260 H 398.133 1.43965 0.0315363 0
M  V30 4261 H 400.086 3.41517 2.46868 0
M  V30 4262 H 398.81 2.17287 2.43832 0
M  V30 4263 H 397.469 3.57121 0.828275 0
M  V30 4264 H 397.117 3.80174 3.29358 0
M  V30 4265 H 396.817 5.34132 2.44901 0
M  V30 4266 H 398.341 5.10442 3.35084 0
M  V30 4267 H 399.755 5.61883 1.13842 0
M  V30 4268 H 398.152 5.98506 0.437097 0
M  V30 4269 H 399.222 4.83384 -0.383147 0
M  V30 4270 N 400.565 -0.0233959 1.57583 0
M  V30 4271 C 401.981 -0.379134 1.55031 0
M  V30 4272 C 402.181 -1.76255 0.976548 0
M  V30 4273 O 401.237 -2.45266 0.600078 0
M  V30 4274 C 402.55 -0.275792 2.99433 0
M  V30 4275 C 404.098 -0.352458 3.11009 0
M  V30 4276 C 404.573 -0.278501 4.57152 0
M  V30 4277 N 406.064 -0.337123 4.61972 0
M  V30 4278 C 406.799 -0.302876 5.726 0
M  V30 4279 N 406.295 -0.220589 6.92449 0
M  V30 4280 N 408.088 -0.353023 5.6099 0
M  V30 4281 H 400.239 0.881869 1.93227 0
M  V30 4282 H 402.502 0.335867 0.886509 0
M  V30 4283 H 402.208 0.675108 3.4516 0
M  V30 4284 H 402.082 -1.06721 3.61788 0
M  V30 4285 H 404.469 -1.29379 2.65226 0
M  V30 4286 H 404.55 0.468409 2.51475 0
M  V30 4287 H 404.194 0.659189 5.03604 0
M  V30 4288 H 404.124 -1.11755 5.14605 0
M  V30 4289 H 406.615 -0.403002 3.75745 0
M  V30 4290 H 406.928 -0.199713 7.72542 0
M  V30 4291 H 405.273 -0.186555 6.9475 0
M  V30 4292 H 408.464 -0.415339 4.66254 0
M  V30 4293 H 408.637 -0.322866 6.47195 0
M  V30 4294 N 402.043 -1.548 -0.295768 0
M  V30 4295 C 403.291 -1.73985 -1.02828 0
M  V30 4296 C 403.612 -0.531406 -1.87619 0
M  V30 4297 O 402.882 0.454221 -1.90561 0
M  V30 4298 H 401.462 -0.641556 -0.382642 0
M  V30 4299 H 404.124 -1.92163 -0.325489 0
M  V30 4300 H 403.22 -2.63129 -1.67838 0
M  V30 4301 N 403.521 0.559213 -1.47345 0
M  V30 4302 C 404.451 1.67622 -1.62558 0
M  V30 4303 C 405.432 1.63331 -0.475087 0
M  V30 4304 O 406.617 1.80983 -0.704182 0
M  V30 4305 C 403.747 3.0626 -1.63774 0
M  V30 4306 C 402.701 3.25397 -2.7803 0
M  V30 4307 C 402.027 4.64801 -2.64318 0
M  V30 4308 C 403.327 3.10965 -4.19641 0
M  V30 4309 H 405.021 1.55146 -2.56067 0
M  V30 4310 H 402.567 0.744961 -1.23233 0
M  V30 4311 H 404.52 3.84247 -1.73008 0
M  V30 4312 H 403.244 3.1969 -0.66825 0
M  V30 4313 H 401.903 2.49817 -2.68304 0
M  V30 4314 H 401.551 4.75028 -1.65401 0
M  V30 4315 H 401.251 4.78555 -3.40968 0
M  V30 4316 H 402.775 5.44926 -2.75478 0
M  V30 4317 H 404.189 3.78772 -4.30354 0
M  V30 4318 H 402.586 3.36229 -4.97062 0
M  V30 4319 H 403.656 2.07736 -4.38148 0
M  V30 4320 N 404.999 1.35443 0.805782 0
M  V30 4321 C 405.962 1.28301 1.89925 0
M  V30 4322 C 406.962 0.194285 1.59622 0
M  V30 4323 O 408.152 0.448036 1.6834 0
M  V30 4324 C 405.284 0.984997 3.2636 0
M  V30 4325 H 406.477 2.2553 1.97677 0
M  V30 4326 H 404.03 1.19979 1.00173 0
M  V30 4327 H 404.765 0.016603 3.24296 0
M  V30 4328 H 404.55 1.77269 3.4974 0
M  V30 4329 H 406.04 0.960651 4.064 0
M  V30 4330 N 406.477 -1.02803 1.19454 0
M  V30 4331 C 407.707 -1.79581 1.02149 0
M  V30 4332 C 408.115 -1.84182 -0.432851 0
M  V30 4333 O 407.458 -1.28534 -1.31243 0
M  V30 4334 C 407.52 -3.25993 1.51554 0
M  V30 4335 C 407.184 -3.45025 2.99678 0
M  V30 4336 C 408.181 -3.35175 3.97434 0
M  V30 4337 C 405.866 -3.71212 3.38389 0
M  V30 4338 C 407.86 -3.51238 5.31893 0
M  V30 4339 C 405.547 -3.8692 4.73008 0
M  V30 4340 C 406.545 -3.76936 5.69569 0
M  V30 4341 O 406.233 -3.92179 7.01748 0
M  V30 4342 H 405.965 -0.571962 0.360327 0
M  V30 4343 H 408.519 -1.30367 1.58725 0
M  V30 4344 H 406.749 -3.76235 0.893543 0
M  V30 4345 H 408.438 -3.84368 1.30444 0
M  V30 4346 H 409.204 -3.14895 3.68872 0
M  V30 4347 H 405.083 -3.78075 2.6378 0
M  V30 4348 H 408.627 -3.43362 6.07247 0
M  V30 4349 H 404.524 -4.06699 5.01265 0
M  V30 4350 H 405.292 -4.09265 7.08833 0
M  V30 4351 N 407.956 -0.998596 -1.21925 0
M  V30 4352 C 409.196 -0.685948 -1.92546 0
M  V30 4353 C 409.56 0.768441 -1.75952 0
M  V30 4354 O 410.761 1.19277 -2.40887 0
M  V30 4355 C 409.032 -1.08767 -3.40448 0
M  V30 4356 S 410.591 -0.894251 -4.29591 0
M  V30 4357 H 407.409 -0.250622 -0.665364 0
M  V30 4358 H 410.011 -1.28207 -1.47591 0
M  V30 4359 H 408.715 -2.14242 -3.50041 0
M  V30 4360 H 408.246 -0.48357 -3.90417 0
M  V30 4361 H 410.261 0.212149 -4.95746 0
M  V30 4362 N 409.434 1.37368 -0.772513 0
M  V30 4363 C 410.384 2.27613 -0.132823 0
M  V30 4364 C 411.368 1.46138 0.673247 0
M  V30 4365 O 412.56 1.68686 0.536095 0
M  V30 4366 C 409.689 3.35122 0.744864 0
M  V30 4367 C 408.775 4.24044 -0.0690771 0
M  V30 4368 N 409.166 4.93355 -1.1151 0
M  V30 4369 C 407.464 4.45731 0.154782 0
M  V30 4370 C 408.165 5.59 -1.60917 0
M  V30 4371 N 407.141 5.35737 -0.921222 0
M  V30 4372 H 410.943 2.78675 -0.933681 0
M  V30 4373 H 408.457 1.50494 -0.610342 0
M  V30 4374 H 410.454 3.98683 1.21892 0
M  V30 4375 H 409.114 2.85616 1.54446 0
M  V30 4376 H 410.125 4.95785 -1.49726 0
M  V30 4377 H 406.802 4.07096 0.926224 0
M  V30 4378 H 408.192 6.24395 -2.48153 0
M  V30 4379 N 410.912 0.523116 1.48665 0
M  V30 4380 C 412.328 0.180511 1.58576 0
M  V30 4381 C 412.528 -1.31597 1.52592 0
M  V30 4382 O 411.584 -2.0937 1.4114 0
M  V30 4383 C 412.897 0.776949 2.90489 0
M  V30 4384 C 414.445 0.745058 3.04003 0
M  V30 4385 C 414.92 1.31995 4.38567 0
M  V30 4386 N 416.411 1.28162 4.45117 0
M  V30 4387 C 417.146 1.6964 5.47731 0
M  V30 4388 N 416.642 2.18816 6.57337 0
M  V30 4389 N 418.435 1.6092 5.38573 0
M  V30 4390 H 410.586 1.4958 1.50797 0
M  V30 4391 H 412.849 0.621772 0.715614 0
M  V30 4392 H 412.555 1.82732 3.00503 0
M  V30 4393 H 412.429 0.25007 3.7637 0
M  V30 4394 H 414.816 -0.296532 2.93606 0
M  V30 4395 H 414.897 1.30933 2.1975 0
M  V30 4396 H 414.541 2.36043 4.49718 0
M  V30 4397 H 414.471 0.731418 5.21496 0
M  V30 4398 H 416.962 0.92155 3.66491 0
M  V30 4399 H 417.275 2.48478 7.31764 0
M  V30 4400 H 415.62 2.22805 6.58318 0
M  V30 4401 H 418.811 1.22304 4.5184 0
M  V30 4402 H 418.984 1.93567 6.18414 0
M  V30 4403 N 412.39 -1.55475 0.257931 0
M  V30 4404 C 413.322 -2.19192 -0.669881 0
M  V30 4405 C 414.335 -1.17148 -1.1305 0
M  V30 4406 O 415.524 -1.43959 -1.05537 0
M  V30 4407 C 412.624 -2.79016 -1.92363 0
M  V30 4408 C 411.797 -4.06586 -1.61265 0
M  V30 4409 C 410.856 -4.50622 -2.7171 0
M  V30 4410 O 409.882 -5.16765 -2.38627 0
M  V30 4411 N 411.084 -4.19325 -4.01431 0
M  V30 4412 H 413.849 -2.99441 -0.124635 0
M  V30 4413 H 411.41 -1.6171 0.0783311 0
M  V30 4414 H 413.402 -3.05427 -2.65511 0
M  V30 4415 H 411.972 -2.0286 -2.37837 0
M  V30 4416 H 411.192 -3.87646 -0.715811 0
M  V30 4417 H 412.48 -4.89737 -1.37967 0
M  V30 4418 H 411.878 -3.66247 -4.31138 0
M  V30 4419 H 410.435 -4.50547 -4.7101 0
M  V30 4420 N 413.868 0.0150385 -1.57593 0
M  V30 4421 C 414.815 1.01126 -2.07466 0
M  V30 4422 C 415.785 1.35064 -0.966794 0
M  V30 4423 O 416.97 1.4516 -1.23827 0
M  V30 4424 C 414.11 2.30276 -2.57035 0
M  V30 4425 C 413.223 2.02373 -3.81666 0
M  V30 4426 C 412.358 3.25496 -4.19793 0
M  V30 4427 C 411.397 2.93211 -5.37303 0
M  V30 4428 N 410.534 4.08826 -5.70794 0
M  V30 4429 H 415.374 0.57901 -2.92321 0
M  V30 4430 H 412.911 0.27426 -1.44521 0
M  V30 4431 H 414.869 3.05757 -2.83846 0
M  V30 4432 H 413.499 2.71197 -1.75077 0
M  V30 4433 H 412.551 1.17327 -3.61854 0
M  V30 4434 H 413.863 1.74567 -4.67256 0
M  V30 4435 H 413.017 4.09333 -4.47807 0
M  V30 4436 H 411.756 3.56428 -3.32882 0
M  V30 4437 H 410.761 2.07777 -5.09027 0
M  V30 4438 H 411.986 2.63542 -6.25877 0
M  V30 4439 H 409.932 4.39682 -4.86842 0
M  V30 4440 H 409.849 3.84491 -6.50924 0
M  V30 4441 H 411.117 4.93496 -6.03392 0
M  V30 4442 N 415.346 1.54954 0.287554 0
M  V30 4443 C 416.592 1.75132 1.02257 0
M  V30 4444 C 416.925 0.542858 1.86458 0
M  V30 4445 O 416.2 -0.459856 1.88986 0
M  V30 4446 C 416.483 3.04812 1.91733 0
M  V30 4447 C 416.336 4.35985 1.10622 0
M  V30 4448 C 417.655 3.30438 2.90687 0
M  V30 4449 H 414.774 0.637194 0.370341 0
M  V30 4450 H 417.416 1.87678 0.296111 0
M  V30 4451 H 415.566 2.94247 2.53675 0
M  V30 4452 H 417.238 4.58487 0.508636 0
M  V30 4453 H 415.481 4.31865 0.409271 0
M  V30 4454 H 416.152 5.23017 1.76513 0
M  V30 4455 H 418.628 3.40701 2.38877 0
M  V30 4456 H 417.504 4.22467 3.50447 0
M  V30 4457 H 417.765 2.49377 3.65053 0
M  V30 4458 N 416.824 -0.551391 1.4764 0
M  V30 4459 C 417.754 -1.66757 1.63445 0
M  V30 4460 C 418.735 -1.63077 0.483742 0
M  V30 4461 O 419.92 -1.80607 0.71377 0
M  V30 4462 C 417.05 -3.05387 1.65396 0
M  V30 4463 C 416.004 -3.23918 2.79752 0
M  V30 4464 C 415.33 -4.63393 2.66779 0
M  V30 4465 C 416.63 -3.08735 4.21284 0
M  V30 4466 H 418.324 -1.53786 2.56886 0
M  V30 4467 H 415.87 -0.738415 1.23626 0
M  V30 4468 H 417.823 -3.83325 1.75043 0
M  V30 4469 H 416.547 -3.19332 0.685195 0
M  V30 4470 H 415.206 -2.48391 2.69625 0
M  V30 4471 H 414.854 -4.74144 1.67918 0
M  V30 4472 H 414.554 -4.7674 3.43501 0
M  V30 4473 H 416.078 -5.43458 2.78364 0
M  V30 4474 H 417.492 -3.76484 4.32357 0
M  V30 4475 H 415.889 -3.33588 4.98838 0
M  V30 4476 H 416.959 -2.0541 4.39243 0
M  V30 4477 N 418.302 -1.35869 -0.798587 0
M  V30 4478 C 419.252 -1.25982 -1.90033 0
M  V30 4479 C 420.236 -0.153303 -1.60168 0
M  V30 4480 O 421.428 -0.38527 -1.72756 0
M  V30 4481 C 418.557 -1.04211 -3.27101 0
M  V30 4482 C 417.643 -2.19289 -3.63006 0
M  V30 4483 N 418.034 -3.44559 -3.70287 0
M  V30 4484 C 416.332 -2.10852 -3.93011 0
M  V30 4485 C 417.033 -4.20283 -4.02166 0
M  V30 4486 N 416.009 -3.49124 -4.16669 0
M  V30 4487 H 419.811 -2.20883 -1.93876 0
M  V30 4488 H 417.325 -1.28457 -0.993614 0
M  V30 4489 H 419.322 -0.952155 -4.05881 0
M  V30 4490 H 417.982 -0.102013 -3.2454 0
M  V30 4491 H 418.993 -3.7881 -3.53162 0
M  V30 4492 H 415.67 -1.24744 -3.98428 0
M  V30 4493 H 417.06 -5.28575 -4.14799 0
M  V30 4494 N 419.78 1.02168 -1.19998 0
M  V30 4495 C 421.196 1.27969 -0.953737 0
M  V30 4496 C 421.396 1.98079 0.369703 0
M  V30 4497 O 420.452 2.27306 1.09947 0
M  V30 4498 C 421.765 2.11971 -2.13281 0
M  V30 4499 C 423.313 2.25255 -2.17323 0
M  V30 4500 C 423.788 3.12632 -3.34702 0
M  V30 4501 N 425.279 3.2022 -3.34684 0
M  V30 4502 C 426.014 3.88039 -4.22153 0
M  V30 4503 N 425.51 4.58027 -5.19791 0
M  V30 4504 N 427.303 3.84511 -4.10009 0
M  V30 4505 H 419.454 0.550794 -2.05134 0
M  V30 4506 H 421.717 0.305683 -0.897364 0
M  V30 4507 H 421.423 1.67785 -3.09097 0
M  V30 4508 H 421.297 3.12699 -2.10949 0
M  V30 4509 H 423.684 2.68667 -1.22073 0
M  V30 4510 H 423.765 1.24053 -2.23706 0
M  V30 4511 H 423.409 2.69926 -4.30235 0
M  V30 4512 H 423.339 4.13909 -3.25556 0
M  V30 4513 H 425.83 2.70382 -2.64012 0
M  V30 4514 H 426.143 5.07429 -5.82868 0
M  V30 4515 H 424.488 4.56869 -5.23733 0
M  V30 4516 H 427.679 3.28978 -3.33003 0
M  V30 4517 H 427.852 4.3709 -4.78389 0
M  V30 4518 N 421.258 1.00505 1.21394 0
M  V30 4519 C 422.535 0.603277 1.86064 0
M  V30 4520 C 422.915 -0.919095 1.90042 0
M  V30 4521 O 422.263 -1.80607 1.39977 0
M  V30 4522 C 422.473 1.23772 3.26315 0
M  V30 4523 C 423.821 1.34586 4.02705 0
M  V30 4524 O 424.845 1.19304 3.35626 0
M  V30 4525 O 423.704 1.59169 5.22807 0
M  V30 4526 H 420.798 0.206634 0.800769 0
M  V30 4527 H 423.344 1.1017 1.29076 0
M  V30 4528 H 422.116 2.27848 3.18121 0
M  V30 4529 H 421.739 0.725648 3.90922 0
M  V30 4530 N 422.737 -1.36956 0.779787 0
M  V30 4531 C 423.667 -2.32761 0.185651 0
M  V30 4532 C 424.648 -1.56177 -0.673989 0
M  V30 4533 O 425.833 -1.84378 -0.609797 0
M  V30 4534 C 422.963 -3.40418 -0.687964 0
M  V30 4535 C 421.917 -4.27941 0.0710102 0
M  V30 4536 C 421.243 -5.26681 -0.922573 0
M  V30 4537 C 422.543 -5.07006 1.25467 0
M  V30 4538 H 424.237 -2.82698 0.986008 0
M  V30 4539 H 421.783 -1.3592 0.475592 0
M  V30 4540 H 423.736 -4.06423 -1.11348 0
M  V30 4541 H 422.46 -2.89025 -1.52093 0
M  V30 4542 H 421.119 -3.63478 0.47739 0
M  V30 4543 H 420.767 -4.71565 -1.7503 0
M  V30 4544 H 420.467 -5.86103 -0.419237 0
M  V30 4545 H 421.991 -5.9556 -1.34686 0
M  V30 4546 H 423.405 -5.66105 0.905401 0
M  V30 4547 H 421.802 -5.75793 1.69063 0
M  V30 4548 H 422.872 -4.3921 2.05481 0
M  V30 4549 N 424.215 -0.530993 -1.48385 0
M  V30 4550 C 425.162 0.231223 -2.29639 0
M  V30 4551 C 426.132 0.932864 -1.37429 0
M  V30 4552 O 427.317 0.933692 -1.66394 0
M  V30 4553 C 424.457 1.27155 -3.2082 0
M  V30 4554 C 423.57 0.578655 -4.28107 0
M  V30 4555 C 422.705 1.602 -5.06467 0
M  V30 4556 C 421.744 0.892625 -6.05556 0
M  V30 4557 N 420.881 1.86157 -6.76971 0
M  V30 4558 H 425.721 -0.467848 -2.94305 0
M  V30 4559 H 423.258 -0.242556 -1.45086 0
M  V30 4560 H 425.216 1.88703 -3.72085 0
M  V30 4561 H 423.846 1.939 -2.58075 0
M  V30 4562 H 422.898 -0.150782 -3.80101 0
M  V30 4563 H 424.21 0.0217065 -4.98795 0
M  V30 4564 H 423.364 2.29173 -5.61751 0
M  V30 4565 H 422.103 2.19285 -4.35621 0
M  V30 4566 H 421.108 0.188829 -5.49476 0
M  V30 4567 H 422.333 0.307878 -6.78402 0
M  V30 4568 H 420.279 2.44147 -6.08875 0
M  V30 4569 H 420.196 1.35608 -7.43738 0
M  V30 4570 H 421.464 2.54325 -7.36844 0
M  V30 4571 N 425.693 1.55336 -0.266172 0
M  V30 4572 C 427.104 1.85236 0.233315 0
M  V30 4573 C 427.455 1.18816 1.56132 0
M  V30 4574 O 426.58 0.473307 2.11161 0
M  V30 4575 C 427.175 3.36059 0.430113 0
M  V30 4576 C 425.734 3.66116 0.873842 0
M  V30 4577 C 424.881 2.77274 -0.0380016 0
M  V30 4578 H 427.832 1.51004 -0.488214 0
M  V30 4579 H 427.853 3.58681 1.26998 0
M  V30 4580 H 427.365 3.84373 -0.536588 0
M  V30 4581 H 425.466 3.23295 1.85233 0
M  V30 4582 H 425.579 4.73699 0.717358 0
M  V30 4583 H 423.943 2.50198 0.476759 0
M  V30 4584 H 424.726 3.284 -1.00042 0
M  V30 4585 N 427.171 -0.0066808 1.57599 0
M  V30 4586 C 428.103 -1.02827 2.04839 0
M  V30 4587 C 429.116 -1.31108 0.965113 0
M  V30 4588 O 430.305 -1.28202 1.24203 0
M  V30 4589 C 427.405 -2.36464 2.42771 0
M  V30 4590 C 426.578 -2.27219 3.73751 0
M  V30 4591 C 425.637 -3.43489 3.98625 0
M  V30 4592 O 424.663 -3.21976 4.69382 0
M  V30 4593 N 425.865 -4.66116 3.46 0
M  V30 4594 H 428.63 -0.625455 2.93101 0
M  V30 4595 H 426.191 -0.194198 1.60731 0
M  V30 4596 H 428.183 -3.13008 2.56531 0
M  V30 4597 H 426.753 -2.68512 1.60063 0
M  V30 4598 H 425.973 -1.35629 3.70133 0
M  V30 4599 H 427.261 -2.18208 4.59633 0
M  V30 4600 H 426.659 -4.86493 2.88688 0
M  V30 4601 H 425.216 -5.39949 3.65101 0
M  V30 4602 N 428.649 -1.55105 -0.279332 0
M  V30 4603 C 429.597 -1.88333 -1.36505 0
M  V30 4604 C 430.591 -0.759043 -1.51443 0
M  V30 4605 O 431.797 -0.943312 -1.53302 0
M  V30 4606 H 428.172 -0.59766 -0.456406 0
M  V30 4607 H 430.143 -2.79041 -1.05728 0
M  V30 4608 C 428.892 -2.16628 -2.7197 0
M  V30 4609 H 428.215 -3.02624 -2.61264 0
M  V30 4610 H 429.655 -2.43803 -3.46895 0
M  V30 4611 C 428.114 -0.971807 -3.22579 0
M  V30 4612 O 428.644 -0.203228 -4.01186 0
M  V30 4613 N 426.85 -0.771238 -2.80179 0
M  V30 4614 H 426.397 -1.39792 -2.1637 0
M  V30 4615 H 426.355 0.0263667 -3.14389 0
M  V30 4616 N 430.127 0.543554 -1.4793 0
M  V30 4617 C 431.057 1.65888 -1.64327 0
M  V30 4618 C 432.038 1.62818 -0.492383 0
M  V30 4619 O 433.223 1.80226 -0.723338 0
M  V30 4620 C 430.353 3.04506 -1.67013 0
M  V30 4621 C 429.307 3.2243 -2.81466 0
M  V30 4622 C 428.633 4.61972 -2.69233 0
M  V30 4623 C 429.933 3.06496 -4.22915 0
M  V30 4624 H 431.627 1.52421 -2.57698 0
M  V30 4625 H 429.173 0.731849 -1.24016 0
M  V30 4626 H 431.126 3.82391 -1.77074 0
M  V30 4627 H 429.85 3.18964 -0.70212 0
M  V30 4628 H 428.509 2.46957 -2.70938 0
M  V30 4629 H 428.157 4.73247 -1.7043 0
M  V30 4630 H 427.857 4.74911 -3.46025 0
M  V30 4631 H 429.381 5.41974 -2.81242 0
M  V30 4632 H 430.795 3.74186 -4.34348 0
M  V30 4633 H 429.192 3.30938 -5.006 0
M  V30 4634 H 430.262 2.03077 -4.40327 0
M  V30 4635 N 431.605 1.3629 0.791371 0
M  V30 4636 C 432.535 1.33137 1.91825 0
M  V30 4637 C 433.516 0.203168 1.68882 0
M  V30 4638 O 434.701 0.400509 1.90025 0
M  V30 4639 C 431.831 1.11793 3.28816 0
M  V30 4640 C 430.785 2.21417 3.66277 0
M  V30 4641 C 430.111 1.85218 5.01596 0
M  V30 4642 C 431.411 3.63489 3.75064 0
M  V30 4643 H 433.105 2.2743 1.9472 0
M  V30 4644 H 430.651 1.09479 0.935437 0
M  V30 4645 H 432.604 1.08222 4.07266 0
M  V30 4646 H 431.328 0.139501 3.26302 0
M  V30 4647 H 429.987 2.2411 2.90121 0
M  V30 4648 H 429.635 0.859544 4.95602 0
M  V30 4649 H 429.335 2.58611 5.27631 0
M  V30 4650 H 430.859 1.832 5.82469 0
M  V30 4651 H 432.273 3.63034 4.43711 0
M  V30 4652 H 430.67 4.35771 4.12582 0
M  V30 4653 H 431.74 3.98536 2.76219 0
M  V30 4654 N 433.083 -1.0153 1.20538 0
M  V30 4655 C 434.332 -1.74558 1.01057 0
M  V30 4656 C 434.645 -1.90168 -0.457756 0
M  V30 4657 O 435.851 -2.60301 -0.771722 0
M  V30 4658 C 434.307 -3.13963 1.75941 0
M  V30 4659 C 433.915 -3.06361 3.26875 0
M  V30 4660 C 435.659 -3.91191 1.64832 0
M  V30 4661 C 433.566 -4.40782 3.94291 0
M  V30 4662 H 432.496 -0.654417 0.374505 0
M  V30 4663 H 435.147 -1.13521 1.44171 0
M  V30 4664 H 433.529 -3.75549 1.25614 0
M  V30 4665 H 434.703 -2.54074 3.84425 0
M  V30 4666 H 433.018 -2.42625 3.38411 0
M  V30 4667 H 435.615 -4.90644 2.12539 0
M  V30 4668 H 435.958 -4.11884 0.604745 0
M  V30 4669 H 436.491 -3.36236 2.12579 0
M  V30 4670 H 433.23 -4.25292 4.98805 0
M  V30 4671 H 432.75 -4.9307 3.41529 0
M  V30 4672 H 434.429 -5.09621 3.98617 0
M  V30 4673 N 434.561 -1.01147 -1.20859 0
M  V30 4674 C 435.509 -0.57059 -2.25493 0
M  V30 4675 C 436.503 0.388109 -1.64894 0
M  V30 4676 O 437.709 0.258592 -1.78133 0
M  V30 4677 H 434.084 -0.166191 -0.733406 0
M  V30 4678 H 436.055 -1.46411 -2.60012 0
M  V30 4679 C 434.804 0.0805241 -3.47607 0
M  V30 4680 H 434.127 -0.648156 -3.94511 0
M  V30 4681 H 435.567 0.352197 -4.22535 0
M  V30 4682 C 434.026 1.32175 -3.09889 0
M  V30 4683 O 434.556 2.41553 -3.20959 0
M  V30 4684 N 432.762 1.20392 -2.64488 0
M  V30 4685 H 432.309 0.313905 -2.5568 0
M  V30 4686 H 432.267 2.03541 -2.39621 0
M  V30 4687 N 436.039 1.36541 -0.78704 0
M  V30 4688 C 436.949 2.3387 -0.184896 0
M  V30 4689 C 437.965 1.60927 0.661697 0
M  V30 4690 O 439.141 1.92927 0.57804 0
M  V30 4691 C 436.206 3.40122 0.672145 0
M  V30 4692 C 435.267 4.28867 -0.19267 0
M  V30 4693 C 434.5 5.30045 0.623561 0
M  V30 4694 O 434.723 5.39232 1.8597 0
M  V30 4695 O 433.657 6.01895 0.0247068 0
M  V30 4696 H 437.483 2.87126 -0.989562 0
M  V30 4697 H 435.068 1.38969 -0.548455 0
M  V30 4698 H 436.95 4.05093 1.16094 0
M  V30 4699 H 435.625 2.89169 1.45474 0
M  V30 4700 H 434.532 3.66945 -0.728166 0
M  V30 4701 H 435.865 4.83165 -0.938722 0
M  V30 4702 N 437.518 0.538854 1.48102 0
M  V30 4703 C 438.934 0.19732 1.58376 0
M  V30 4704 C 439.134 -1.29971 1.5398 0
M  V30 4705 O 438.19 -2.07861 1.43352 0
M  V30 4706 C 439.503 0.807716 2.89649 0
M  V30 4707 C 441.051 0.77726 3.03196 0
M  V30 4708 C 441.526 1.36639 4.37143 0
M  V30 4709 N 443.017 1.32875 4.43732 0
M  V30 4710 C 443.752 1.7544 5.45901 0
M  V30 4711 N 443.248 2.25776 6.54979 0
M  V30 4712 N 445.041 1.66623 5.36836 0
M  V30 4713 H 437.192 1.5117 1.49202 0
M  V30 4714 H 439.455 0.629327 0.708979 0
M  V30 4715 H 439.161 1.85909 2.98548 0
M  V30 4716 H 439.035 0.289975 3.76084 0
M  V30 4717 H 441.422 -0.265374 2.93904 0
M  V30 4718 H 441.503 1.33256 2.18349 0
M  V30 4719 H 441.147 2.408 4.47189 0
M  V30 4720 H 441.077 0.786689 5.20691 0
M  V30 4721 H 443.568 0.96037 3.65493 0
M  V30 4722 H 443.881 2.56226 7.29087 0
M  V30 4723 H 442.226 2.29775 6.55918 0
M  V30 4724 H 445.417 1.27089 4.50517 0
M  V30 4725 H 445.59 2.00115 6.16326 0
M  V30 4726 N 438.996 -1.55193 0.274407 0
M  V30 4727 C 440.244 -1.99187 -0.341902 0
M  V30 4728 C 440.565 -1.16422 -1.56431 0
M  V30 4729 O 439.835 -0.253573 -1.94252 0
M  V30 4730 H 438.415 -0.735721 -0.129317 0
M  V30 4731 H 441.077 -1.91168 0.379578 0
M  V30 4732 H 440.173 -3.05629 -0.632253 0
M  V30 4733 N 440.474 -0.00167713 -1.576 0
M  V30 4734 C 441.384 1.00548 -2.1196 0
M  V30 4735 C 442.4 1.3758 -1.06526 0
M  V30 4736 O 443.576 1.46278 -1.38436 0
M  V30 4737 C 440.641 2.27809 -2.6135 0
M  V30 4738 C 439.702 1.97074 -3.81393 0
M  V30 4739 C 438.935 3.18267 -4.28417 0
M  V30 4740 O 439.158 4.30009 -3.74765 0
M  V30 4741 O 438.092 3.02167 -5.20556 0
M  V30 4742 H 441.918 0.573373 -2.98238 0
M  V30 4743 H 439.503 0.217255 -1.47812 0
M  V30 4744 H 441.385 3.02568 -2.93309 0
M  V30 4745 H 440.06 2.70254 -1.78169 0
M  V30 4746 H 438.967 1.19785 -3.54404 0
M  V30 4747 H 440.3 1.59464 -4.65652 0
M  V30 4748 N 441.952 1.55251 0.271103 0
M  V30 4749 C 442.882 1.9127 1.33933 0
M  V30 4750 C 443.863 0.77478 1.5143 0
M  V30 4751 O 445.048 1.03307 1.64442 0
M  V30 4752 C 442.178 2.18627 2.69851 0
M  V30 4753 C 441.132 3.34442 2.67081 0
M  V30 4754 C 440.458 3.47284 4.06569 0
M  V30 4755 C 441.758 4.70784 2.26185 0
M  V30 4756 H 443.452 2.80744 1.04035 0
M  V30 4757 H 440.998 1.35077 0.499017 0
M  V30 4758 H 442.951 2.42413 3.44694 0
M  V30 4759 H 441.675 1.25955 3.01335 0
M  V30 4760 H 440.334 3.10627 1.94695 0
M  V30 4761 H 439.982 2.52074 4.35279 0
M  V30 4762 H 439.682 4.25152 4.0561 0
M  V30 4763 H 441.206 3.73363 4.83148 0
M  V30 4764 H 442.62 4.94102 2.90751 0
M  V30 4765 H 441.017 5.51582 2.36384 0
M  V30 4766 H 442.087 4.69478 1.21319 0
M  V30 4767 N 443.43 -0.535701 1.48216 0
M  V30 4768 C 444.377 -1.64083 1.62312 0
M  V30 4769 C 445.347 -1.59448 0.465365 0
M  V30 4770 O 446.532 -1.77959 0.688135 0
M  V30 4771 C 443.672 -3.0236 1.66349 0
M  V30 4772 C 442.785 -3.17273 2.93193 0
M  V30 4773 C 441.92 -4.46075 2.88427 0
M  V30 4774 C 440.959 -4.54496 4.1 0
M  V30 4775 N 440.096 -5.7468 4.03345 0
M  V30 4776 H 444.936 -1.51374 2.5669 0
M  V30 4777 H 442.473 -0.737059 1.27302 0
M  V30 4778 H 444.431 -3.82461 1.66672 0
M  V30 4779 H 443.061 -3.13854 0.754672 0
M  V30 4780 H 442.113 -2.30462 3.02641 0
M  V30 4781 H 443.425 -3.19357 3.83162 0
M  V30 4782 H 442.579 -5.3446 2.87119 0
M  V30 4783 H 441.318 -4.46504 1.96177 0
M  V30 4784 H 440.323 -3.64519 4.11589 0
M  V30 4785 H 441.548 -4.5581 5.03402 0
M  V30 4786 H 439.494 -5.76017 3.13912 0
M  V30 4787 H 439.411 -5.78234 4.87013 0
M  V30 4788 H 440.679 -6.65367 4.06087 0
M  V30 4789 N 444.908 -1.36708 -0.784132 0
M  V30 4790 C 445.838 -1.34153 -1.91116 0
M  V30 4791 C 446.819 -0.212121 -1.68772 0
M  V30 4792 O 448.004 -0.410581 -1.8981 0
M  V30 4793 C 445.134 -1.13535 -3.28218 0
M  V30 4794 C 444.088 -2.23356 -3.65097 0
M  V30 4795 C 443.414 -1.87875 -5.00607 0
M  V30 4796 C 444.714 -3.65473 -3.73131 0
M  V30 4797 H 446.408 -2.28459 -1.93512 0
M  V30 4798 H 443.954 -1.09973 -0.929618 0
M  V30 4799 H 445.907 -1.10381 -4.06687 0
M  V30 4800 H 444.631 -0.156804 -3.26223 0
M  V30 4801 H 443.29 -2.25645 -2.88929 0
M  V30 4802 H 442.938 -0.885814 -4.95139 0
M  V30 4803 H 442.638 -2.61406 -5.26252 0
M  V30 4804 H 444.162 -1.86286 -5.81489 0
M  V30 4805 H 445.576 -3.65382 -4.41779 0
M  V30 4806 H 443.973 -4.37953 -4.10265 0
M  V30 4807 H 445.043 -3.99995 -2.74102 0
M  V30 4808 N 446.386 1.0089 -1.21074 0
M  V30 4809 C 447.349 2.0775 -0.968129 0
M  V30 4810 C 448.349 1.6069 0.0593445 0
M  V30 4811 O 449.539 1.73293 -0.177525 0
M  V30 4812 C 446.671 3.37794 -0.459108 0
M  V30 4813 H 447.864 2.30707 -1.9161 0
M  V30 4814 H 445.417 1.17807 -1.02719 0
M  V30 4815 H 446.152 3.20516 0.49397 0
M  V30 4816 H 445.937 3.7328 -1.20019 0
M  V30 4817 H 447.427 4.16454 -0.309099 0
M  V30 4818 N 447.864 1.01787 1.20321 0
M  V30 4819 C 449.141 0.622978 1.85414 0
M  V30 4820 C 449.521 -0.898887 1.91006 0
M  V30 4821 O 448.869 -1.79112 1.41884 0
M  V30 4822 C 449.079 1.27226 3.24984 0
M  V30 4823 C 450.427 1.3885 4.01255 0
M  V30 4824 O 451.451 1.22857 3.34342 0
M  V30 4825 O 450.31 1.64705 5.2109 0
M  V30 4826 H 447.404 0.215116 0.798533 0
M  V30 4827 H 449.95 1.11533 1.27901 0
M  V30 4828 H 448.722 2.31209 3.15687 0
M  V30 4829 H 448.345 0.767069 3.90131 0
M  V30 4830 N 449.342 -1.36122 0.79427 0
M  V30 4831 C 450.589 -1.99111 0.368905 0
M  V30 4832 C 450.917 -1.63032 -1.0607 0
M  V30 4833 O 450.172 -0.879303 -1.74833 0
M  V30 4834 C 450.471 -3.5409 0.48527 0
M  V30 4835 C 450.137 -4.10003 1.87638 0
M  V30 4836 C 448.799 -4.24986 2.257 0
M  V30 4837 C 451.151 -4.40423 2.78706 0
M  V30 4838 C 448.479 -4.67701 3.54221 0
M  V30 4839 C 450.831 -4.84573 4.0666 0
M  V30 4840 C 449.495 -4.97761 4.44737 0
M  V30 4841 H 448.765 -0.7286 0.134992 0
M  V30 4842 H 451.412 -1.62534 1.01267 0
M  V30 4843 H 449.717 -3.91052 -0.241984 0
M  V30 4844 H 451.414 -4.00766 0.137109 0
M  V30 4845 H 448.004 -3.98784 1.57064 0
M  V30 4846 H 452.188 -4.28412 2.50553 0
M  V30 4847 H 447.444 -4.761 3.83587 0
M  V30 4848 H 451.618 -5.07074 4.77336 0
M  V30 4849 H 449.245 -5.30618 5.44379 0
M  V30 4850 N 450.82 -0.546701 -1.47814 0
M  V30 4851 C 452.068 -0.0187037 -2.02091 0
M  V30 4852 C 452.389 1.33168 -1.42447 0
M  V30 4853 O 451.659 1.86619 -0.595839 0
M  V30 4854 H 450.239 -0.00392531 -0.74699 0
M  V30 4855 H 452.901 -0.714327 -1.81338 0
M  V30 4856 H 451.997 0.0772219 -3.12004 0
M  V30 4857 N 452.299 1.55045 -0.282633 0
M  V30 4858 C 453.229 2.2579 0.595066 0
M  V30 4859 C 454.21 1.25074 1.15284 0
M  V30 4860 O 455.395 1.5381 1.18559 0
M  V30 4861 C 452.525 2.98472 1.77572 0
M  V30 4862 C 451.479 4.0618 1.34914 0
M  V30 4863 C 450.805 4.66477 2.6135 0
M  V30 4864 C 452.105 5.1996 0.493821 0
M  V30 4865 H 453.799 2.994 0.00505653 0
M  V30 4866 H 451.345 1.44 0.000992001 0
M  V30 4867 H 453.298 3.46677 2.39568 0
M  V30 4868 H 452.022 2.2241 2.39168 0
M  V30 4869 H 450.681 3.58797 0.752338 0
M  V30 4870 H 450.329 3.87074 3.2122 0
M  V30 4871 H 450.029 5.39207 2.33516 0
M  V30 4872 H 451.553 5.17435 3.24181 0
M  V30 4873 H 452.967 5.64172 1.01898 0
M  V30 4874 H 451.364 5.99299 0.310047 0
M  V30 4875 H 452.434 4.82462 -0.485593 0
M  V30 4876 N 453.777 0.010035 1.57597 0
M  V30 4877 C 454.74 -0.963029 2.07986 0
M  V30 4878 C 455.74 -1.26619 0.991173 0
M  V30 4879 O 456.93 -1.2097 1.25347 0
M  V30 4880 C 454.062 -2.2851 2.52974 0
M  V30 4881 H 455.255 -0.526971 2.95234 0
M  V30 4882 H 452.808 -0.237639 1.54483 0
M  V30 4883 H 453.543 -2.76784 1.69 0
M  V30 4884 H 453.328 -2.07824 3.32493 0
M  V30 4885 H 454.818 -2.98294 2.9225 0
M  V30 4886 N 455.255 -1.55392 -0.262866 0
M  V30 4887 C 456.671 -1.47459 -0.610582 0
M  V30 4888 C 456.871 -0.697031 -1.8906 0
M  V30 4889 O 455.927 -0.219952 -2.5154 0
M  V30 4890 C 457.24 -2.91751 -0.728131 0
M  V30 4891 C 458.788 -3.02027 -0.821517 0
M  V30 4892 C 459.263 -4.47594 -0.97076 0
M  V30 4893 N 460.754 -4.51465 -1.03603 0
M  V30 4894 C 461.489 -5.61326 -1.17049 0
M  V30 4895 N 460.985 -6.81032 -1.2715 0
M  V30 4896 N 462.778 -5.49089 -1.20239 0
M  V30 4897 H 454.929 -2.04395 0.577632 0
M  V30 4898 H 457.192 -0.927287 0.197086 0
M  V30 4899 H 456.898 -3.51413 0.142132 0
M  V30 4900 H 456.772 -3.4134 -1.6052 0
M  V30 4901 H 459.159 -2.42456 -1.68224 0
M  V30 4902 H 459.24 -2.55674 0.0803688 0
M  V30 4903 H 458.884 -5.07771 -0.114655 0
M  V30 4904 H 458.814 -4.91613 -1.88745 0
M  V30 4905 H 461.305 -3.6524 -0.96996 0
M  V30 4906 H 461.618 -7.60511 -1.37271 0
M  V30 4907 H 459.963 -6.83824 -1.24136 0
M  V30 4908 H 463.154 -4.54507 -1.11985 0
M  V30 4909 H 463.327 -6.34749 -1.30373 0
M  V30 4910 N 456.733 0.527833 -1.48498 0
M  V30 4911 C 457.696 1.61439 -1.62696 0
M  V30 4912 C 458.696 1.52824 -0.500136 0
M  V30 4913 O 459.886 1.56456 -0.765976 0
M  V30 4914 C 457.018 3.01063 -1.59918 0
M  V30 4915 H 458.211 1.50189 -2.59583 0
M  V30 4916 H 455.764 0.750055 -1.37127 0
M  V30 4917 H 456.499 3.17818 -0.645163 0
M  V30 4918 H 456.284 3.08725 -2.41726 0
M  V30 4919 H 457.774 3.80057 -1.73051 0
M  V30 4920 N 458.211 1.37122 0.776871 0
M  V30 4921 C 459.158 1.3247 1.88998 0
M  V30 4922 C 460.128 0.191143 1.64997 0
M  V30 4923 O 461.313 0.379683 1.86984 0
M  V30 4924 C 458.453 1.13241 3.25992 0
M  V30 4925 C 457.566 2.35782 3.61982 0
M  V30 4926 C 456.701 2.09465 4.88158 0
M  V30 4927 C 455.74 3.279 5.16864 0
M  V30 4928 N 454.877 3.01167 6.34226 0
M  V30 4929 H 459.717 2.27642 1.9231 0
M  V30 4930 H 457.254 1.13125 0.94027 0
M  V30 4931 H 459.212 1.00115 4.0501 0
M  V30 4932 H 457.842 0.217186 3.22069 0
M  V30 4933 H 456.894 2.59666 2.77989 0
M  V30 4934 H 458.206 3.24125 3.79137 0
M  V30 4935 H 457.36 1.93341 5.75069 0
M  V30 4936 H 456.099 1.18452 4.73097 0
M  V30 4937 H 455.104 3.44569 4.2843 0
M  V30 4938 H 456.329 4.19757 5.33836 0
M  V30 4939 H 454.275 2.12779 6.20533 0
M  V30 4940 H 454.192 3.83052 6.51772 0
M  V30 4941 H 455.46 2.88649 7.24087 0
M  V30 4942 N 459.689 -1.00246 1.21608 0
M  V30 4943 C 460.914 -1.78167 1.06167 0
M  V30 4944 C 461.339 -1.84138 -0.384035 0
M  V30 4945 O 460.697 -1.28683 -1.27712 0
M  V30 4946 C 460.745 -3.19786 1.66642 0
M  V30 4947 O 459.849 -4.02153 0.913613 0
M  V30 4948 H 459.19 -0.549 0.37349 0
M  V30 4949 H 461.72 -1.25994 1.61204 0
M  V30 4950 H 461.73 -3.70451 1.70969 0
M  V30 4951 H 460.405 -3.14754 2.7185 0
M  V30 4952 H 458.982 -3.60711 0.945635 0
M  V30 4953 N 461.167 -1.02423 -1.1978 0
M  V30 4954 C 462.416 -0.713265 -1.88667 0
M  V30 4955 C 462.729 0.7609 -1.80193 0
M  V30 4956 O 463.935 1.18473 -2.44288 0
M  V30 4957 C 462.391 -1.22545 -3.38394 0
M  V30 4958 C 461.999 -2.72706 -3.55437 0
M  V30 4959 C 463.743 -0.990257 -4.12788 0
M  V30 4960 C 461.65 -3.17367 -4.99031 0
M  V30 4961 H 460.58 -0.263105 -0.706606 0
M  V30 4962 H 463.231 -1.23792 -1.35454 0
M  V30 4963 H 461.613 -0.628732 -3.90977 0
M  V30 4964 H 462.787 -3.37993 -3.13205 0
M  V30 4965 H 461.102 -2.94453 -2.94425 0
M  V30 4966 H 463.699 -1.29926 -5.18675 0
M  V30 4967 H 464.042 0.0730761 -4.16236 0
M  V30 4968 H 464.575 -1.55074 -3.66329 0
M  V30 4969 H 461.314 -4.23009 -5.00743 0
M  V30 4970 H 460.834 -2.56805 -5.42044 0
M  V30 4971 H 462.513 -3.10441 -5.67658 0
M  V30 4972 N 462.645 1.35699 -0.801477 0
M  V30 4973 C 464.056 1.81415 -0.441073 0
M  V30 4974 C 464.407 1.66595 1.03636 0
M  V30 4975 O 463.532 1.19369 1.80499 0
M  V30 4976 C 464.127 3.29369 -0.793819 0
M  V30 4977 C 462.686 3.73248 -0.486083 0
M  V30 4978 C 461.833 2.57775 -1.02213 0
M  V30 4979 H 464.784 1.23749 -0.993572 0
M  V30 4980 H 464.805 3.80395 -0.0894158 0
M  V30 4981 H 464.317 3.40123 -1.86917 0
M  V30 4982 H 462.418 3.68046 0.580735 0
M  V30 4983 H 462.531 4.68222 -1.01513 0
M  V30 4984 H 460.895 2.50788 -0.444712 0
M  V30 4985 H 461.678 2.71309 -2.10348 0
M  V30 4986 N 464.123 0.554532 1.47522 0
M  V30 4987 C 465.351 0.034257 2.06872 0
M  V30 4988 C 465.766 -1.25826 1.40759 0
M  V30 4989 O 465.123 -1.75425 0.503217 0
M  V30 4990 C 465.174 -0.167827 3.6111 0
M  V30 4991 O 464.895 1.07351 4.24744 0
M  V30 4992 C 466.396 -0.72569 4.3732 0
M  V30 4993 H 463.616 0.0446275 0.669514 0
M  V30 4994 H 466.16 0.767181 1.89564 0
M  V30 4995 H 464.315 -0.850872 3.7794 0
M  V30 4996 H 464.729 0.869563 5.17242 0
M  V30 4997 H 466.203 -0.816394 5.45929 0
M  V30 4998 H 466.68 -1.73635 4.0342 0
M  V30 4999 H 467.286 -0.0784292 4.25228 0
M  V30 5000 N 465.601 -1.54893 0.290851 0
M  V30 5001 C 466.548 -2.23138 -0.58974 0
M  V30 5002 C 467.518 -1.21036 -1.13752 0
M  V30 5003 O 468.703 -1.49626 -1.18392 0
M  V30 5004 C 465.843 -2.96811 -1.76061 0
M  V30 5005 C 464.956 -4.13665 -1.24519 0
M  V30 5006 C 464.091 -4.74944 -2.3791 0
M  V30 5007 C 463.13 -5.83963 -1.83451 0
M  V30 5008 N 462.267 -6.39239 -2.90376 0
M  V30 5009 H 467.107 -2.98 -0.00114915 0
M  V30 5010 H 464.644 -1.47096 0.0112006 0
M  V30 5011 H 466.602 -3.37751 -2.44909 0
M  V30 5012 H 465.232 -2.24344 -2.32098 0
M  V30 5013 H 464.284 -3.77737 -0.449288 0
M  V30 5014 H 465.596 -4.92238 -0.806424 0
M  V30 5015 H 464.75 -5.18684 -3.14724 0
M  V30 5016 H 463.489 -3.95682 -2.85109 0
M  V30 5017 H 462.494 -5.39657 -1.05122 0
M  V30 5018 H 463.719 -6.65103 -1.37169 0
M  V30 5019 H 461.665 -5.62864 -3.36927 0
M  V30 5020 H 461.582 -7.13129 -2.50965 0
M  V30 5021 H 462.85 -6.87637 -3.67118 0
M  V30 5022 N 467.08 -0.0183926 -1.57589 0
M  V30 5023 C 468.308 0.673046 -1.95647 0
M  V30 5024 C 468.723 1.66275 -0.894312 0
M  V30 5025 O 468.08 1.82072 0.124975 0
M  V30 5026 C 468.131 1.38884 -3.33756 0
M  V30 5027 O 467.852 0.438806 -4.35897 0
M  V30 5028 C 469.353 2.1731 -3.86383 0
M  V30 5029 H 466.573 0.186292 -0.644621 0
M  V30 5030 H 469.117 -0.0749748 -2.04363 0
M  V30 5031 H 467.272 2.08835 -3.26293 0
M  V30 5032 H 467.686 0.945869 -5.15901 0
M  V30 5033 H 469.16 2.62863 -4.85394 0
M  V30 5034 H 469.637 3.00764 -3.20059 0
M  V30 5035 H 470.243 1.52339 -3.97081 0
M  V30 5036 N 468.558 1.5553 0.254621 0
M  V30 5037 C 469.788 1.80784 1.00004 0
M  V30 5038 C 470.196 0.59071 1.79742 0
M  V30 5039 O 469.539 -0.449988 1.78103 0
M  V30 5040 C 469.601 2.99268 1.99196 0
M  V30 5041 C 469.265 4.35595 1.38224 0
M  V30 5042 C 470.262 5.13884 0.788611 0
M  V30 5043 C 467.947 4.82281 1.40393 0
M  V30 5044 C 469.941 6.37004 0.224783 0
M  V30 5045 C 467.628 6.05351 0.836243 0
M  V30 5046 C 468.626 6.82551 0.24769 0
M  V30 5047 O 468.314 8.03297 -0.311249 0
M  V30 5048 H 468.046 0.60565 0.300274 0
M  V30 5049 H 470.6 2.03411 0.285143 0
M  V30 5050 H 468.83 2.72377 2.74496 0
M  V30 5051 H 470.519 3.11682 2.60018 0
M  V30 5052 H 471.285 4.78938 0.764423 0
M  V30 5053 H 467.164 4.22189 1.85142 0
M  V30 5054 H 470.708 6.97203 -0.235235 0
M  V30 5055 H 466.605 6.39776 0.857733 0
M  V30 5056 H 467.373 8.1825 -0.20237 0
M  V30 5057 N 470.036 -0.519951 1.48776 0
M  V30 5058 C 471.261 -1.30447 1.6124 0
M  V30 5059 C 471.686 -1.86055 0.276591 0
M  V30 5060 O 471.044 -1.64915 -0.753183 0
M  V30 5061 C 471.092 -2.42406 2.66967 0
M  V30 5062 O 470.196 -3.45728 2.24824 0
M  V30 5063 H 469.537 -0.385924 0.540332 0
M  V30 5064 H 472.067 -0.624572 1.94834 0
M  V30 5065 H 472.077 -2.88447 2.88552 0
M  V30 5066 H 470.752 -2.01294 3.63941 0
M  V30 5067 H 469.329 -3.05737 2.13494 0
M  V30 5068 N 471.514 -1.37532 -0.769588 0
M  V30 5069 C 472.462 -1.33561 -1.90432 0
M  V30 5070 C 473.456 -0.224027 -1.67912 0
M  V30 5071 O 474.662 -0.392174 -1.75676 0
M  V30 5072 H 471.037 -0.416279 -0.626271 0
M  V30 5073 H 473.008 -2.29348 -1.90899 0
M  V30 5074 C 471.757 -1.16162 -3.27722 0
M  V30 5075 H 471.08 -2.00951 -3.45628 0
M  V30 5076 H 472.52 -1.17434 -4.07413 0
M  V30 5077 C 470.979 0.132583 -3.36639 0
M  V30 5078 O 471.509 1.11539 -3.85904 0
M  V30 5079 N 469.715 0.184013 -2.90017 0
M  V30 5080 H 469.262 -0.616415 -2.50116 0
M  V30 5081 H 469.22 1.04956 -2.96364 0
M  V30 5082 N 472.992 0.995999 -1.22138 0
M  V30 5083 C 473.902 2.11985 -1.00496 0
M  V30 5084 C 474.918 1.7394 0.0457701 0
M  V30 5085 O 476.094 2.00868 -0.146273 0
M  V30 5086 C 473.159 3.41779 -0.582086 0
M  V30 5087 C 472.22 3.93943 -1.70608 0
M  V30 5088 C 471.453 5.17542 -1.30328 0
M  V30 5089 O 471.676 5.70114 -0.180743 0
M  V30 5090 O 470.61 5.63382 -2.11861 0
M  V30 5091 H 474.436 2.33123 -1.94647 0
M  V30 5092 H 472.021 1.10358 -1.00705 0
M  V30 5093 H 473.903 4.1989 -0.356467 0
M  V30 5094 H 472.578 3.22007 0.330592 0
M  V30 5095 H 471.485 3.17019 -1.98619 0
M  V30 5096 H 472.818 4.18141 -2.59651 0
M  V30 5097 N 474.47 1.03057 1.19235 0
M  V30 5098 C 475.716 0.729098 1.89241 0
M  V30 5099 C 476.049 -0.740573 1.79525 0
M  V30 5100 O 475.324 -1.53946 1.18874 0
M  V30 5101 C 475.607 1.18304 3.40112 0
M  V30 5102 C 475.46 2.71406 3.5869 0
M  V30 5103 C 476.779 0.765161 4.33397 0
M  V30 5104 H 473.898 0.266338 0.687192 0
M  V30 5105 H 476.54 1.28079 1.40341 0
M  V30 5106 H 474.69 0.713672 3.81889 0
M  V30 5107 H 476.362 3.26303 3.26074 0
M  V30 5108 H 474.605 3.11717 3.01687 0
M  V30 5109 H 475.276 2.98225 4.64506 0
M  V30 5110 H 477.752 1.16889 3.99345 0
M  V30 5111 H 476.628 1.11065 5.37546 0
M  V30 5112 H 476.889 -0.332372 4.40849 0
M  V30 5113 N 475.948 -1.35272 0.808662 0
M  V30 5114 C 477.194 -1.99003 0.390581 0
M  V30 5115 C 477.527 -1.63999 -1.0401 0
M  V30 5116 O 476.802 -0.904368 -1.72196 0
M  V30 5117 C 477.085 -3.55454 0.576566 0
M  V30 5118 C 476.938 -4.00249 2.05233 0
M  V30 5119 C 478.257 -4.401 0.00354277 0
M  V30 5120 H 475.376 -0.722917 0.143388 0
M  V30 5121 H 478.018 -1.6039 1.01858 0
M  V30 5122 H 476.168 -3.88477 0.0419766 0
M  V30 5123 H 477.84 -3.77626 2.64946 0
M  V30 5124 H 476.083 -3.51082 2.54801 0
M  V30 5125 H 476.754 -5.0911 2.13333 0
M  V30 5126 H 479.23 -4.13548 0.460117 0
M  V30 5127 H 478.106 -5.48656 0.163575 0
M  V30 5128 H 478.367 -4.28444 -1.09032 0
M  V30 5129 N 477.426 -0.562348 -1.47226 0
M  V30 5130 C 478.654 -0.0452275 -2.06851 0
M  V30 5131 C 479.069 1.25078 -1.41424 0
M  V30 5132 O 478.426 1.75156 -0.512513 0
M  V30 5133 C 478.477 0.148674 -3.61194 0
M  V30 5134 O 478.198 -1.09602 -4.24169 0
M  V30 5135 C 479.699 0.702488 -4.37699 0
M  V30 5136 H 476.919 -0.0481775 -0.669268 0
M  V30 5137 H 479.463 -0.777223 -1.89155 0
M  V30 5138 H 477.618 0.830817 -3.78386 0
M  V30 5139 H 478.032 -0.896982 -5.16773 0
M  V30 5140 H 479.506 0.78743 -5.46355 0
M  V30 5141 H 479.983 1.71493 -4.04335 0
M  V30 5142 H 480.589 0.0558772 -4.25263 0
M  V30 5143 N 478.904 1.54736 -0.299062 0
M  V30 5144 C 479.834 2.26409 0.571085 0
M  V30 5145 C 480.815 1.2629 1.13951 0
M  V30 5146 O 482 1.55059 1.16921 0
M  V30 5147 C 479.13 3.00338 1.74396 0
M  V30 5148 C 478.084 4.07588 1.30599 0
M  V30 5149 C 477.41 4.69222 2.56387 0
M  V30 5150 C 478.71 5.20455 0.438645 0
M  V30 5151 H 480.404 2.99388 -0.0266991 0
M  V30 5152 H 477.95 1.43993 -0.0142812 0
M  V30 5153 H 479.903 3.49198 2.35878 0
M  V30 5154 H 478.627 2.24934 2.36796 0
M  V30 5155 H 477.286 3.59575 0.71424 0
M  V30 5156 H 476.934 3.9046 3.17097 0
M  V30 5157 H 476.634 5.41653 2.27784 0
M  V30 5158 H 478.158 5.20844 3.18675 0
M  V30 5159 H 479.572 5.65221 0.959085 0
M  V30 5160 H 477.969 5.99594 0.246466 0
M  V30 5161 H 479.039 4.8192 -0.536738 0
M  V30 5162 N 480.382 0.0267497 1.57577 0
M  V30 5163 C 481.628 -0.647596 1.92815 0
M  V30 5164 C 481.983 -1.69872 0.903396 0
M  V30 5165 O 481.276 -1.91429 -0.0808881 0
M  V30 5166 C 481.47 -1.30914 3.3256 0
M  V30 5167 C 481.299 -0.323621 4.48534 0
M  V30 5168 C 480.069 0.0756607 5.05243 0
M  V30 5169 C 482.267 0.42112 5.12573 0
M  V30 5170 N 480.249 1.0566 6.04739 0
M  V30 5171 C 481.62 1.25589 6.07147 0
M  V30 5172 C 483.675 0.482077 4.95561 0
M  V30 5173 C 482.378 2.1461 6.86538 0
M  V30 5174 C 484.404 1.35962 5.75559 0
M  V30 5175 C 483.766 2.18217 6.69747 0
M  V30 5176 H 479.865 -0.209357 0.753454 0
M  V30 5177 H 482.449 0.0933695 1.94476 0
M  V30 5178 H 480.62 -2.02026 3.31723 0
M  V30 5179 H 482.352 -1.94033 3.55153 0
M  V30 5180 H 479.107 -0.298294 4.7266 0
M  V30 5181 H 479.531 1.54324 6.59176 0
M  V30 5182 H 484.173 -0.139609 4.22569 0
M  V30 5183 H 481.891 2.77835 7.58837 0
M  V30 5184 H 485.477 1.41105 5.6443 0
M  V30 5185 H 484.357 2.85022 7.3057 0
M  V30 5186 N 481.861 -1.55662 -0.24637 0
M  V30 5187 C 483.091 -1.81312 -0.990438 0
M  V30 5188 C 483.499 -0.600234 -1.79426 0
M  V30 5189 O 482.842 0.440537 -1.78339 0
M  V30 5190 C 482.904 -3.0032 -1.97607 0
M  V30 5191 C 482.568 -4.36322 -1.35912 0
M  V30 5192 C 483.565 -5.14295 -0.761348 0
M  V30 5193 C 481.25 -4.83019 -1.37833 0
M  V30 5194 C 483.244 -6.37114 -0.190998 0
M  V30 5195 C 480.931 -6.05786 -0.804128 0
M  V30 5196 C 481.929 -6.82672 -0.211489 0
M  V30 5197 O 481.617 -8.03121 0.353845 0
M  V30 5198 H 481.349 -0.607233 -0.297058 0
M  V30 5199 H 483.903 -2.0356 -0.274351 0
M  V30 5200 H 482.133 -2.73829 -2.73047 0
M  V30 5201 H 483.822 -3.13057 -2.58361 0
M  V30 5202 H 484.588 -4.79337 -0.739013 0
M  V30 5203 H 480.467 -4.23165 -1.829 0
M  V30 5204 H 484.011 -6.97069 0.272206 0
M  V30 5205 H 479.908 -6.40222 -0.823792 0
M  V30 5206 H 480.676 -8.18131 0.245761 0
M  V30 5207 N 483.339 0.512053 -1.4905 0
M  V30 5208 C 484.755 0.84224 -1.35567 0
M  V30 5209 C 484.955 1.97878 -0.380319 0
M  V30 5210 O 484.011 2.51769 0.19201 0
M  V30 5211 C 485.324 1.19286 -2.76028 0
M  V30 5212 C 486.872 1.30171 -2.84648 0
M  V30 5213 C 487.347 1.68568 -4.25851 0
M  V30 5214 N 488.838 1.75638 -4.28609 0
M  V30 5215 C 489.573 2.06769 -5.34821 0
M  V30 5216 N 489.069 2.36201 -6.51292 0
M  V30 5217 N 490.862 2.07927 -5.22229 0
M  V30 5218 H 483.013 -0.237574 -2.11067 0
M  V30 5219 H 485.276 -0.0436747 -0.946993 0
M  V30 5220 H 484.982 0.431199 -3.49047 0
M  V30 5221 H 484.856 2.13889 -3.10695 0
M  V30 5222 H 487.243 2.05411 -2.11873 0
M  V30 5223 H 487.324 0.336457 -2.53578 0
M  V30 5224 H 486.968 0.938824 -4.99148 0
M  V30 5225 H 486.898 2.66174 -4.54377 0
M  V30 5226 H 489.389 1.55097 -3.44606 0
M  V30 5227 H 489.702 2.59112 -7.28066 0
M  V30 5228 H 488.047 2.33681 -6.54536 0
M  V30 5229 H 491.238 1.84403 -4.30248 0
M  V30 5230 H 491.411 2.31856 -6.05101 0
M  V30 5231 N 484.817 1.37938 0.762283 0
M  V30 5232 C 486.228 1.30094 1.33912 0
M  V30 5233 C 486.579 -0.0472026 1.96143 0
M  V30 5234 O 485.704 -0.94917 1.94473 0
M  V30 5235 C 486.299 2.35592 2.43478 0
M  V30 5236 C 484.858 2.31353 2.96905 0
M  V30 5237 C 484.005 2.18919 1.70205 0
M  V30 5238 H 486.956 1.48423 0.561816 0
M  V30 5239 H 486.977 2.00806 3.23199 0
M  V30 5240 H 486.489 3.33701 1.98155 0
M  V30 5241 H 484.59 1.36799 3.46579 0
M  V30 5242 H 484.703 3.25147 3.51875 0
M  V30 5243 H 483.067 1.65624 1.93496 0
M  V30 5244 H 483.85 3.18956 1.26973 0
M  V30 5245 N 486.295 -0.989507 1.22664 0
M  V30 5246 C 487.706 -1.54406 1.04955 0
M  V30 5247 C 488.057 -1.92366 -0.385951 0
M  V30 5248 O 487.182 -1.75111 -1.27142 0
M  V30 5249 C 487.777 -2.80578 1.89899 0
M  V30 5250 C 486.336 -3.32464 1.76478 0
M  V30 5251 C 485.483 -2.05524 1.86159 0
M  V30 5252 H 488.434 -0.810211 1.3646 0
M  V30 5253 H 488.455 -3.53075 1.4184 0
M  V30 5254 H 487.967 -2.52918 2.94371 0
M  V30 5255 H 486.068 -3.65024 0.747528 0
M  V30 5256 H 486.181 -4.02838 2.59342 0
M  V30 5257 H 484.545 -2.19241 1.29636 0
M  V30 5258 H 485.328 -1.80258 2.92168 0
M  V30 5259 N 487.773 -1.03688 -1.18687 0
M  V30 5260 C 489.05 -0.652397 -1.84399 0
M  V30 5261 C 489.43 0.868386 -1.92412 0
M  V30 5262 O 488.778 1.76832 -1.44716 0
M  V30 5263 C 488.988 -1.3238 -3.22919 0
M  V30 5264 C 490.336 -1.45216 -3.98996 0
M  V30 5265 O 491.36 -1.2816 -3.32345 0
M  V30 5266 O 490.219 -1.72975 -5.18403 0
M  V30 5267 H 487.313 -0.227793 -0.795009 0
M  V30 5268 H 489.859 -1.13553 -1.2611 0
M  V30 5269 H 488.631 -2.36202 -3.11968 0
M  V30 5270 H 488.254 -0.829039 -3.88861 0
M  V30 5271 N 489.251 1.34841 -0.815825 0
M  V30 5272 C 490.5 1.97755 -0.396976 0
M  V30 5273 C 490.813 1.65422 1.04379 0
M  V30 5274 O 492.019 2.21771 1.5662 0
M  V30 5275 C 490.475 3.53818 -0.658869 0
M  V30 5276 C 490.083 3.95051 -2.11278 0
M  V30 5277 C 491.827 4.23397 -0.305834 0
M  V30 5278 C 489.734 5.43997 -2.31994 0
M  V30 5279 H 488.664 0.739985 -0.1447 0
M  V30 5280 H 491.315 1.53781 -1.00118 0
M  V30 5281 H 489.697 3.95997 0.0154112 0
M  V30 5282 H 490.871 3.63998 -2.82564 0
M  V30 5283 H 489.186 3.38388 -2.42657 0
M  V30 5284 H 491.783 5.32899 -0.43854 0
M  V30 5285 H 492.126 4.09508 0.748952 0
M  V30 5286 H 492.659 3.8667 -0.934403 0
M  V30 5287 H 489.398 5.62865 -3.35952 0
M  V30 5288 H 488.918 5.76589 -1.65244 0
M  V30 5289 H 490.597 6.10584 -2.14001 0
M  V30 5290 N 490.729 0.570148 1.46925 0
M  V30 5291 C 491.659 -0.158274 2.32963 0
M  V30 5292 C 492.64 -0.896093 1.44583 0
M  V30 5293 O 493.825 -0.874022 1.7342 0
M  V30 5294 C 490.955 -1.18055 3.26619 0
M  V30 5295 C 489.909 -0.558379 4.24342 0
M  V30 5296 C 489.235 -1.68623 5.07415 0
M  V30 5297 C 490.535 0.496295 5.19937 0
M  V30 5298 H 492.229 0.560046 2.94115 0
M  V30 5299 H 489.775 0.270775 1.41431 0
M  V30 5300 H 491.728 -1.69841 3.85658 0
M  V30 5301 H 490.452 -1.92899 2.63548 0
M  V30 5302 H 489.111 -0.0617157 3.66548 0
M  V30 5303 H 488.759 -2.42402 4.40738 0
M  V30 5304 H 488.459 -1.27564 5.73586 0
M  V30 5305 H 489.983 -2.20709 5.69315 0
M  V30 5306 H 491.397 0.0640052 5.73264 0
M  V30 5307 H 489.794 0.82649 5.94381 0
M  V30 5308 H 490.864 1.38735 4.6463 0
M  V30 5309 N 492.207 -1.54576 0.307264 0
M  V30 5310 C 493.137 -2.26708 -0.55907 0
M  V30 5311 C 494.118 -1.26893 -1.1328 0
M  V30 5312 O 495.303 -1.55677 -1.16097 0
M  V30 5313 C 492.433 -3.01259 -1.72801 0
M  V30 5314 C 491.387 -4.08275 -1.28435 0
M  V30 5315 C 490.713 -4.70575 -2.53895 0
M  V30 5316 C 492.013 -5.2068 -0.411038 0
M  V30 5317 H 493.707 -2.9937 0.042576 0
M  V30 5318 H 491.253 -1.43983 0.0219173 0
M  V30 5319 H 493.206 -3.50444 -2.34023 0
M  V30 5320 H 491.93 -2.26187 -2.356 0
M  V30 5321 H 490.589 -3.59949 -0.695161 0
M  V30 5322 H 490.237 -3.92136 -3.15021 0
M  V30 5323 H 489.937 -5.42854 -2.24908 0
M  V30 5324 H 491.461 -5.22527 -3.15908 0
M  V30 5325 H 492.875 -5.65721 -0.929097 0
M  V30 5326 H 491.272 -5.99716 -0.214664 0
M  V30 5327 H 492.342 -4.81629 0.562287 0
M  V30 5328 N 493.685 -0.035106 -1.57561 0
M  V30 5329 C 494.933 0.64096 -1.91667 0
M  V30 5330 C 495.254 1.72323 -0.912681 0
M  V30 5331 O 494.524 1.95849 0.0449089 0
M  V30 5332 H 493.104 0.239743 -0.707483 0
M  V30 5333 H 495.766 -0.084321 -1.94718 0
M  V30 5334 H 494.862 1.08987 -2.92452 0
M  V30 5335 N 495.163 1.55791 0.238111 0
M  V30 5336 C 496.388 1.8244 0.986432 0
M  V30 5337 C 496.813 0.613314 1.7782 0
M  V30 5338 O 496.171 -0.437767 1.75935 0
M  V30 5339 C 496.219 3.06917 1.893 0
M  V30 5340 O 495.323 2.84449 2.98601 0
M  V30 5341 H 494.664 0.601975 0.280218 0
M  V30 5342 H 497.194 2.02987 0.256437 0
M  V30 5343 H 497.204 3.36583 2.30598 0
M  V30 5344 H 495.879 3.947 1.31091 0
M  V30 5345 H 494.456 2.65972 2.61368 0
M  V30 5346 N 496.642 -0.504142 1.49319 0
M  V30 5347 C 497.87 -1.28256 1.62351 0
M  V30 5348 C 498.285 -1.86502 0.293682 0
M  V30 5349 O 497.642 -1.67678 -0.720449 0
M  V30 5350 C 497.693 -2.41507 2.68992 0
M  V30 5351 O 497.414 -1.85656 3.96817 0
M  V30 5352 C 498.915 -3.32929 2.927 0
M  V30 5353 H 496.135 -0.389115 0.546654 0
M  V30 5354 H 498.679 -0.605531 1.95329 0
M  V30 5355 H 496.834 -3.05046 2.38801 0
M  V30 5356 H 497.248 -2.59981 4.55533 0
M  V30 5357 H 498.722 -4.0868 3.71058 0
M  V30 5358 H 499.199 -3.89733 2.02496 0
M  V30 5359 H 499.805 -2.75158 3.24296 0
M  V30 5360 N 498.12 -1.38341 -0.754957 0
M  V30 5361 C 499.397 -1.24995 -1.50451 0
M  V30 5362 C 499.777 0.149244 -2.10572 0
M  V30 5363 O 499.125 1.15861 -1.96948 0
M  V30 5364 C 499.335 -2.35904 -2.57197 0
M  V30 5365 C 500.683 -2.74262 -3.24138 0
M  V30 5366 O 501.707 -2.35205 -2.67501 0
M  V30 5367 O 500.566 -3.4161 -4.26574 0
M  V30 5368 H 497.66 -0.48872 -0.667144 0
M  V30 5369 H 500.206 -1.50165 -0.790486 0
M  V30 5370 H 498.978 -3.2953 -2.11011 0
M  V30 5371 H 498.601 -2.12291 -3.36182 0
M  V30 5372 N 499.598 0.982988 -1.23187 0
M  V30 5373 C 500.828 1.75666 -1.08743 0
M  V30 5374 C 501.236 1.85662 0.364195 0
M  V30 5375 O 500.579 1.33317 1.26382 0
M  V30 5376 C 500.641 3.20144 -1.63549 0
M  V30 5377 C 500.305 3.33665 -3.12277 0
M  V30 5378 C 501.302 3.20194 -4.096 0
M  V30 5379 C 498.987 3.58397 -3.51933 0
M  V30 5380 C 500.981 3.31256 -5.44563 0
M  V30 5381 C 498.668 3.69098 -4.87042 0
M  V30 5382 C 499.666 3.55537 -5.83166 0
M  V30 5383 O 499.354 3.65864 -7.1582 0
M  V30 5384 H 499.086 0.558194 -0.381307 0
M  V30 5385 H 501.64 1.24387 -1.63454 0
M  V30 5386 H 499.87 3.72659 -1.03256 0
M  V30 5387 H 501.559 3.79262 -1.4462 0
M  V30 5388 H 502.325 3.00987 -3.80305 0
M  V30 5389 H 498.204 3.68025 -2.77631 0
M  V30 5390 H 501.748 3.20588 -6.19572 0
M  V30 5391 H 497.645 3.87814 -5.16014 0
M  V30 5392 H 498.413 3.82675 -7.23534 0
M  V30 5393 N 501.076 1.04316 1.18135 0
M  V30 5394 C 502.301 0.768047 1.92655 0
M  V30 5395 C 502.726 -0.66904 1.758 0
M  V30 5396 O 502.084 -1.46372 1.06981 0
M  V30 5397 C 502.132 1.14239 3.42026 0
M  V30 5398 O 501.236 0.269333 4.1152 0
M  V30 5399 H 500.577 0.282436 0.600937 0
M  V30 5400 H 503.107 1.39367 1.49793 0
M  V30 5401 H 503.117 1.10538 3.92741 0
M  V30 5402 H 501.792 2.18928 3.53615 0
M  V30 5403 H 500.369 0.366175 3.71098 0
M  V30 5404 N 502.554 -1.34406 0.822964 0
M  V30 5405 C 503.782 -2.02508 0.424039 0
M  V30 5406 C 504.197 -1.61975 -0.970022 0
M  V30 5407 O 503.554 -0.825228 -1.62777 0
M  V30 5408 C 503.605 -3.57789 0.516657 0
M  V30 5409 O 503.326 -3.96853 1.85577 0
M  V30 5410 C 504.827 -4.43157 0.112637 0
M  V30 5411 H 502.047 -0.649063 0.170173 0
M  V30 5412 H 504.591 -1.7168 1.11113 0
M  V30 5413 H 502.746 -3.87207 -0.122353 0
M  V30 5414 H 503.16 -4.91538 1.83005 0
M  V30 5415 H 504.634 -5.51527 0.228526 0
M  V30 5416 H 505.111 -4.28939 -0.943837 0
M  V30 5417 H 505.717 -4.19067 0.725449 0
M  V30 5418 N 504.032 -0.577932 -1.46621 0
M  V30 5419 C 504.964 0.195801 -2.28362 0
M  V30 5420 C 505.977 0.859983 -1.38232 0
M  V30 5421 O 507.166 0.730349 -1.62875 0
M  V30 5422 C 504.266 1.29639 -3.13124 0
M  V30 5423 C 503.439 0.725049 -4.31349 0
M  V30 5424 C 502.498 1.71274 -4.97546 0
M  V30 5425 O 501.524 1.25067 -5.5529 0
M  V30 5426 N 502.726 3.04672 -4.94121 0
M  V30 5427 H 505.491 -0.505468 -2.95407 0
M  V30 5428 H 503.052 -0.415381 -1.56481 0
M  V30 5429 H 505.044 1.95631 -3.54275 0
M  V30 5430 H 503.614 1.90059 -2.48186 0
M  V30 5431 H 502.834 -0.112205 -3.9404 0
M  V30 5432 H 504.122 0.323034 -5.07774 0
M  V30 5433 H 503.52 3.4484 -4.48444 0
M  V30 5434 H 502.077 3.66166 -5.39227 0
M  V30 5435 N 505.51 1.54411 -0.315457 0
M  V30 5436 C 506.759 1.99599 0.290395 0
M  V30 5437 C 507.072 1.20746 1.53882 0
M  V30 5438 O 508.278 1.56272 2.22017 0
M  V30 5439 C 506.734 3.5539 0.56797 0
M  V30 5440 C 506.342 4.43068 -0.662945 0
M  V30 5441 C 508.086 4.09067 1.13422 0
M  V30 5442 C 505.993 5.90317 -0.357722 0
M  V30 5443 H 504.923 0.745592 0.112286 0
M  V30 5444 H 507.574 1.78477 -0.426418 0
M  V30 5445 H 505.956 3.72468 1.34476 0
M  V30 5446 H 507.13 4.37765 -1.43869 0
M  V30 5447 H 505.445 4.00238 -1.14884 0
M  V30 5448 H 508.042 5.16663 1.37707 0
M  V30 5449 H 508.385 3.60552 2.08106 0
M  V30 5450 H 508.918 3.95589 0.418805 0
M  V30 5451 H 505.657 6.4301 -1.27351 0
M  V30 5452 H 505.177 5.98592 0.380472 0
M  V30 5453 H 506.856 6.4699 0.0354284 0
M  V30 5454 N 506.988 0.0434614 1.5754 0
M  V30 5455 C 508.265 -0.671479 1.83713 0
M  V30 5456 C 508.645 -1.89495 0.930315 0
M  V30 5457 O 507.993 -2.28498 -0.0105639 0
M  V30 5458 C 508.203 -1.0361 3.33266 0
M  V30 5459 C 509.551 -1.42167 4.00092 0
M  V30 5460 O 510.575 -1.12866 3.37846 0
M  V30 5461 O 509.434 -1.96817 5.09829 0
M  V30 5462 H 506.528 -0.330726 0.75799 0
M  V30 5463 H 509.074 0.0722373 1.69546 0
M  V30 5464 H 507.846 -0.165938 3.90948 0
M  V30 5465 H 507.469 -1.83751 3.52592 0
M  V30 5466 N 508.466 -1.55915 -0.229846 0
M  V30 5467 C 509.399 -1.86734 -1.3117 0
M  V30 5468 C 510.377 -0.723947 -1.45595 0
M  V30 5469 O 511.561 -0.971462 -1.61539 0
M  V30 5470 C 508.688 -2.06707 -2.68309 0
M  V30 5471 C 507.734 -3.2938 -2.70944 0
M  V30 5472 S 508.567 -4.85547 -2.25842 0
M  V30 5473 C 509.723 -5.08546 -3.64873 0
M  V30 5474 H 509.956 -2.78204 -1.04832 0
M  V30 5475 H 507.489 -1.48243 -0.431681 0
M  V30 5476 H 509.447 -2.18898 -3.47267 0
M  V30 5477 H 508.108 -1.16049 -2.91876 0
M  V30 5478 H 507.301 -3.40374 -3.71701 0
M  V30 5479 H 506.903 -3.16004 -2.00044 0
M  V30 5480 H 509.195 -4.96935 -4.60502 0
M  V30 5481 H 510.138 -6.10465 -3.58801 0
M  V30 5482 H 510.546 -4.36314 -3.58176 0
M  V30 5483 N 509.944 0.496216 -1.49584 0
M  V30 5484 C 511.19 1.24918 -1.60521 0
M  V30 5485 C 511.545 1.90197 -0.290352 0
M  V30 5486 O 510.838 1.77967 0.709813 0
M  V30 5487 C 511.032 2.3359 -2.705 0
M  V30 5488 C 510.861 1.78969 -4.12553 0
M  V30 5489 C 509.631 1.60057 -4.79281 0
M  V30 5490 C 511.829 1.29883 -4.97629 0
M  V30 5491 N 509.811 1.00415 -6.05632 0
M  V30 5492 C 511.182 0.824057 -6.14499 0
M  V30 5493 C 513.237 1.18501 -4.83593 0
M  V30 5494 C 511.94 0.246721 -7.18877 0
M  V30 5495 C 513.966 0.621634 -5.88124 0
M  V30 5496 C 513.328 0.157116 -7.04225 0
M  V30 5497 H 509.427 0.446896 -0.641722 0
M  V30 5498 H 512.011 0.555456 -1.86609 0
M  V30 5499 H 510.182 3.00418 -2.46178 0
M  V30 5500 H 511.914 3.00628 -2.70933 0
M  V30 5501 H 508.669 1.84562 -4.36158 0
M  V30 5502 H 509.093 0.725074 -6.73106 0
M  V30 5503 H 513.735 1.53012 -3.94141 0
M  V30 5504 H 511.453 -0.110651 -8.08024 0
M  V30 5505 H 515.039 0.536279 -5.79323 0
M  V30 5506 H 513.919 -0.272009 -7.83728 0
M  V30 5507 N 511.423 1.38739 0.74761 0
M  V30 5508 C 512.671 1.35007 1.50391 0
M  V30 5509 C 512.992 -0.0574274 1.94915 0
M  V30 5510 O 512.262 -1.00628 1.6808 0
M  V30 5511 H 510.842 0.496784 0.557866 0
M  V30 5512 H 513.504 1.73479 0.888319 0
M  V30 5513 H 512.6 2.00474 2.392 0
M  V30 5514 N 512.901 -0.976442 1.23707 0
M  V30 5515 C 514.147 -1.72081 1.07312 0
M  V30 5516 C 514.48 -1.90275 -0.388476 0
M  V30 5517 O 513.755 -1.4579 -1.28746 0
M  V30 5518 C 514.038 -3.11675 1.80363 0
M  V30 5519 C 513.891 -3.01027 3.3422 0
M  V30 5520 C 515.21 -4.1117 1.5693 0
M  V30 5521 H 512.329 -0.624583 0.391236 0
M  V30 5522 H 514.971 -1.13649 1.52263 0
M  V30 5523 H 513.121 -3.61559 1.42153 0
M  V30 5524 H 514.793 -2.58637 3.81975 0
M  V30 5525 H 513.036 -2.3744 3.63049 0
M  V30 5526 H 513.707 -3.9988 3.80525 0
M  V30 5527 H 516.183 -3.7011 1.90151 0
M  V30 5528 H 515.059 -5.06928 2.10513 0
M  V30 5529 H 515.32 -4.392 0.505548 0
M  V30 5530 N 514.379 -1.04941 -1.1758 0
M  V30 5531 C 515.627 -0.756492 -1.87408 0
M  V30 5532 C 515.948 0.718478 -1.81281 0
M  V30 5533 O 515.218 1.519 -1.23706 0
M  V30 5534 H 513.798 -0.276841 -0.693807 0
M  V30 5535 H 516.46 -1.32803 -1.42652 0
M  V30 5536 H 515.556 -1.06918 -2.93215 0
M  V30 5537 N 515.857 1.33968 -0.830081 0
M  V30 5538 C 517.097 1.99879 -0.427521 0
M  V30 5539 C 517.461 1.64355 0.992546 0
M  V30 5540 O 518.662 2.23164 1.49837 0
M  V30 5541 C 516.933 3.51771 -0.631815 0
M  V30 5542 S 518.492 4.37608 -0.323168 0
M  V30 5543 H 515.31 0.692485 -0.161202 0
M  V30 5544 H 517.912 1.63129 -1.07745 0
M  V30 5545 H 516.616 3.75113 -1.66488 0
M  V30 5546 H 516.147 3.93386 0.0325936 0
M  V30 5547 H 518.162 4.88683 0.860432 0
M  V30 5548 N 517.335 0.585699 1.46312 0
M  V30 5549 C 518.584 0.0701192 2.01578 0
M  V30 5550 C 518.897 -1.29889 1.46247 0
M  V30 5551 O 520.103 -1.90598 1.93351 0
M  V30 5552 C 518.559 0.0747499 3.59822 0
M  V30 5553 C 518.167 1.44226 4.24149 0
M  V30 5554 C 519.911 -0.38673 4.22735 0
M  V30 5555 C 517.818 1.40446 5.74481 0
M  V30 5556 H 516.748 0.0224441 0.753666 0
M  V30 5557 H 519.399 0.737789 1.68015 0
M  V30 5558 H 517.781 -0.659144 3.90476 0
M  V30 5559 H 518.955 2.19612 4.05101 0
M  V30 5560 H 517.27 1.84401 3.73343 0
M  V30 5561 H 519.867 -0.433853 5.32937 0
M  V30 5562 H 520.21 -1.40489 3.91878 0
M  V30 5563 H 520.743 0.293195 3.96718 0
M  V30 5564 H 517.482 2.39952 6.10003 0
M  V30 5565 H 517.002 0.692845 5.95785 0
M  V30 5566 H 518.681 1.11865 6.37256 0
M  V30 5567 N 518.813 -1.54241 0.323641 0
M  V30 5568 C 520.06 -2.0057 -0.27891 0
M  V30 5569 C 520.388 -1.21181 -1.52136 0
M  V30 5570 O 519.643 -0.282043 -1.93657 0
M  V30 5571 C 519.942 -3.5129 -0.658031 0
M  V30 5572 C 519.608 -4.48281 0.485252 0
M  V30 5573 C 518.27 -4.74519 0.799055 0
M  V30 5574 C 520.622 -5.05909 1.25322 0
M  V30 5575 C 517.95 -5.55643 1.88354 0
M  V30 5576 C 520.302 -5.88215 2.32779 0
M  V30 5577 C 518.966 -6.12755 2.64741 0
M  V30 5578 H 518.236 -0.733938 -0.10206 0
M  V30 5579 H 520.883 -1.862 0.447435 0
M  V30 5580 H 519.188 -3.63388 -1.4648 0
M  V30 5581 H 520.885 -3.84578 -1.1358 0
M  V30 5582 H 517.475 -4.27979 0.230593 0
M  V30 5583 H 521.659 -4.8562 1.02404 0
M  V30 5584 H 516.915 -5.72888 2.13564 0
M  V30 5585 H 521.089 -6.31888 2.92729 0
M  V30 5586 H 518.716 -6.75404 3.48904 0
M  V30 5587 N 520.291 -0.0518155 -1.57515 0
M  V30 5588 C 521.521 0.63048 -1.96745 0
M  V30 5589 C 521.929 1.64875 -0.928054 0
M  V30 5590 O 521.272 1.83449 0.0960678 0
M  V30 5591 C 521.334 1.37381 -3.32215 0
M  V30 5592 C 520.998 0.511298 -4.54131 0
M  V30 5593 C 521.995 -0.222884 -5.19422 0
M  V30 5594 C 519.68 0.442035 -5.00351 0
M  V30 5595 C 521.674 -1.01476 -6.2927 0
M  V30 5596 C 519.361 -0.35353 -6.10077 0
M  V30 5597 C 520.359 -1.08062 -6.74397 0
M  V30 5598 O 520.047 -1.8631 -7.82013 0
M  V30 5599 H 519.779 0.177126 -0.652382 0
M  V30 5600 H 522.333 -0.114726 -2.05079 0
M  V30 5601 H 520.563 2.16466 -3.20436 0
M  V30 5602 H 522.252 1.9464 -3.56188 0
M  V30 5603 H 523.018 -0.178846 -4.8467 0
M  V30 5604 H 518.897 0.997562 -4.50077 0
M  V30 5605 H 522.441 -1.58279 -6.79407 0
M  V30 5606 H 518.338 -0.399205 -6.44264 0
M  V30 5607 H 519.106 -1.78528 -7.98793 0
M  V30 5608 N 521.769 1.56035 0.221574 0
M  V30 5609 C 522.679 1.95581 1.29558 0
M  V30 5610 C 523.695 0.859639 1.51282 0
M  V30 5611 O 524.871 1.16321 1.64413 0
M  V30 5612 C 521.936 2.26447 2.62531 0
M  V30 5613 C 520.997 3.49632 2.4911 0
M  V30 5614 C 520.23 3.79017 3.75742 0
M  V30 5615 O 520.453 3.10077 4.78757 0
M  V30 5616 O 519.387 4.72507 3.72855 0
M  V30 5617 H 523.213 2.8711 0.990035 0
M  V30 5618 H 520.798 1.43244 0.424434 0
M  V30 5619 H 522.68 2.47494 3.41064 0
M  V30 5620 H 521.355 1.38092 2.92766 0
M  V30 5621 H 520.262 3.33864 1.68777 0
M  V30 5622 H 521.595 4.3837 2.23814 0
M  V30 5623 N 523.247 -0.488276 1.49845 0
M  V30 5624 C 524.18 -1.60651 1.62069 0
M  V30 5625 C 525.158 -1.5568 0.469308 0
M  V30 5626 O 526.342 -1.75553 0.686551 0
M  V30 5627 C 523.469 -2.99197 1.58741 0
M  V30 5628 C 522.515 -3.22385 2.79232 0
M  V30 5629 S 523.348 -3.04133 4.40753 0
M  V30 5630 C 524.504 -4.45052 4.4009 0
M  V30 5631 H 524.737 -1.50039 2.56662 0
M  V30 5632 H 522.27 -0.674371 1.38894 0
M  V30 5633 H 524.228 -3.79081 1.57506 0
M  V30 5634 H 522.889 -3.07213 0.654136 0
M  V30 5635 H 522.082 -4.23557 2.73159 0
M  V30 5636 H 521.684 -2.50245 2.77945 0
M  V30 5637 H 523.976 -5.37375 4.12594 0
M  V30 5638 H 524.919 -4.56172 5.41583 0
M  V30 5639 H 525.327 -4.26327 3.70008 0
M  V30 5640 N 524.725 -1.39134 -0.740242 0
M  V30 5641 C 525.688 -1.37217 -1.83587 0
M  V30 5642 C 526.688 -0.270221 -1.58513 0
M  V30 5643 O 527.878 -0.527843 -1.6601 0
M  V30 5644 C 525.01 -1.13959 -3.21288 0
M  V30 5645 H 526.203 -2.34705 -1.86691 0
M  V30 5646 H 523.756 -1.24622 -0.94335 0
M  V30 5647 H 524.491 -0.17131 -3.23847 0
M  V30 5648 H 524.276 -1.93754 -3.40884 0
M  V30 5649 H 525.766 -1.15346 -4.01354 0
M  V30 5650 N 526.204 0.969867 -1.24223 0
M  V30 5651 C 527.432 1.74756 -1.10761 0
M  V30 5652 C 527.847 1.85713 0.340041 0
M  V30 5653 O 527.204 1.34389 1.23474 0
M  V30 5654 C 527.255 3.16915 -1.73917 0
M  V30 5655 O 526.976 3.06511 -3.13021 0
M  V30 5656 C 528.477 4.11032 -1.66036 0
M  V30 5657 H 525.697 0.548092 -0.387087 0
M  V30 5658 H 528.241 1.2178 -1.64286 0
M  V30 5659 H 526.396 3.66884 -1.244 0
M  V30 5660 H 526.81 3.96079 -3.43834 0
M  V30 5661 H 528.284 5.08446 -2.14911 0
M  V30 5662 H 528.761 4.34785 -0.621159 0
M  V30 5663 H 529.367 3.66972 -2.14969 0
M  V30 5664 N 527.682 1.05563 1.17022 0
M  V30 5665 C 528.93 0.76642 1.87004 0
M  V30 5666 C 529.251 -0.708854 1.8166 0
M  V30 5667 O 528.521 -1.51242 1.2451 0
M  V30 5668 H 527.101 0.280516 0.692329 0
M  V30 5669 H 529.763 1.33557 1.41945 0
M  V30 5670 H 528.859 1.08472 2.92644 0
M  V30 5671 N 529.16 -1.33526 0.837174 0
M  V30 5672 C 530.576 -1.50727 0.524743 0
M  V30 5673 C 530.776 -1.77792 -0.948279 0
M  V30 5674 O 529.832 -1.83719 -1.73216 0
M  V30 5675 C 531.145 -2.66299 1.39661 0
M  V30 5676 C 532.693 -2.80183 1.39521 0
M  V30 5677 C 533.168 -3.98815 2.25189 0
M  V30 5678 N 534.659 -4.06047 2.2289 0
M  V30 5679 C 535.394 -4.97032 2.85915 0
M  V30 5680 N 534.89 -5.93143 3.57985 0
M  V30 5681 N 536.683 -4.90015 2.75394 0
M  V30 5682 H 528.834 -1.1422 1.79074 0
M  V30 5683 H 531.097 -0.561399 0.763894 0
M  V30 5684 H 530.803 -2.52974 2.4433 0
M  V30 5685 H 530.677 -3.61663 1.07145 0
M  V30 5686 H 533.064 -2.92942 0.356253 0
M  V30 5687 H 533.145 -1.85586 1.76044 0
M  V30 5688 H 532.789 -3.86817 3.29143 0
M  V30 5689 H 532.719 -4.92654 1.86009 0
M  V30 5690 H 535.21 -3.37262 1.70478 0
M  V30 5691 H 535.523 -6.59227 4.03286 0
M  V30 5692 H 533.868 -5.93223 3.62093 0
M  V30 5693 H 537.059 -4.13894 2.18654 0
M  V30 5694 H 537.232 -5.60724 3.24796 0
M  V30 5695 N 530.638 -0.59345 -1.46 0
M  V30 5696 C 532.049 -0.169801 -1.85926 0
M  V30 5697 C 532.4 1.26984 -1.49565 0
M  V30 5698 O 531.525 1.96076 -0.915602 0
M  V30 5699 C 532.12 -0.301385 -3.37457 0
M  V30 5700 C 530.679 0.0674684 -3.7634 0
M  V30 5701 C 529.826 -0.632383 -2.69993 0
M  V30 5702 H 532.777 -0.801014 -1.37002 0
M  V30 5703 H 532.798 0.470331 -3.77582 0
M  V30 5704 H 532.31 -1.34927 -3.63891 0
M  V30 5705 H 530.411 1.11507 -3.55523 0
M  V30 5706 H 530.524 -0.316332 -4.78055 0
M  V30 5707 H 528.888 -0.0714961 -2.546 0
M  V30 5708 H 529.671 -1.68212 -2.99265 0
M  V30 5709 N 532.116 1.54067 -0.331816 0
M  V30 5710 C 533.046 2.27569 0.522932 0
M  V30 5711 C 534.027 1.28679 1.11247 0
M  V30 5712 O 535.212 1.57504 1.13605 0
M  V30 5713 C 532.342 3.0397 1.67987 0
M  V30 5714 C 531.296 4.10267 1.21924 0
M  V30 5715 C 530.622 4.74555 2.46377 0
M  V30 5716 C 531.922 5.21268 0.32815 0
M  V30 5717 H 533.616 2.99264 -0.0901977 0
M  V30 5718 H 531.162 1.4393 -0.044821 0
M  V30 5719 H 533.115 3.54123 2.28418 0
M  V30 5720 H 531.839 2.29906 2.31971 0
M  V30 5721 H 530.498 3.61009 0.637809 0
M  V30 5722 H 530.146 3.97098 3.08743 0
M  V30 5723 H 529.846 5.46363 2.16243 0
M  V30 5724 H 531.37 5.27487 3.07555 0
M  V30 5725 H 532.784 5.67128 0.838978 0
M  V30 5726 H 531.181 5.99982 0.119228 0
M  V30 5727 H 532.251 4.80673 -0.638839 0
M  V30 5728 N 533.594 0.0601682 1.57485 0
M  V30 5729 C 534.841 -0.611594 1.93043 0
M  V30 5730 C 535.169 -1.70317 0.939274 0
M  V30 5731 O 534.424 -1.95644 -0.046996 0
M  V30 5732 C 534.723 -1.23831 3.35262 0
M  V30 5733 C 534.389 -0.274037 4.50066 0
M  V30 5734 C 533.051 -0.00872394 4.81199 0
M  V30 5735 C 535.403 0.386308 5.19766 0
M  V30 5736 C 532.731 0.924218 5.79375 0
M  V30 5737 C 535.083 1.3075 6.1894 0
M  V30 5738 C 533.747 1.58139 6.48497 0
M  V30 5739 H 533.017 -0.223798 0.706396 0
M  V30 5740 H 535.664 0.128566 1.91068 0
M  V30 5741 H 533.969 -2.05394 3.33647 0
M  V30 5742 H 535.666 -1.76517 3.60059 0
M  V30 5743 H 532.256 -0.491008 4.25778 0
M  V30 5744 H 536.44 0.194436 4.95919 0
M  V30 5745 H 531.696 1.1438 6.00606 0
M  V30 5746 H 535.87 1.82519 6.72056 0
M  V30 5747 H 533.497 2.30593 7.24383 0
M  V30 5748 N 535.072 -1.5615 -0.213296 0
M  V30 5749 C 536.483 -1.69645 -0.779582 0
M  V30 5750 C 536.834 -0.663615 -1.84636 0
M  V30 5751 O 535.959 0.183633 -2.15619 0
M  V30 5752 C 536.554 -3.07567 -1.42084 0
M  V30 5753 C 535.113 -3.22889 -1.93442 0
M  V30 5754 C 534.26 -2.65581 -0.797612 0
M  V30 5755 H 537.211 -1.58696 0.0114951 0
M  V30 5756 H 537.232 -3.03884 -2.28986 0
M  V30 5757 H 536.744 -3.82716 -0.644187 0
M  V30 5758 H 534.845 -2.52623 -2.73884 0
M  V30 5759 H 534.958 -4.30197 -2.10872 0
M  V30 5760 H 533.322 -2.24278 -1.20712 0
M  V30 5761 H 534.105 -3.43284 -0.033494 0
M  V30 5762 N 536.55 0.480323 -1.50102 0
M  V30 5763 C 537.798 1.23063 -1.60312 0
M  V30 5764 C 538.119 1.92659 -0.301226 0
M  V30 5765 O 537.389 1.83691 0.680753 0
M  V30 5766 H 535.969 0.457231 -0.590719 0
M  V30 5767 H 538.631 0.554893 -1.86834 0
M  V30 5768 H 537.727 1.9835 -2.40964 0
M  V30 5769 N 538.028 1.39524 0.732853 0
M  V30 5770 C 539.253 1.40329 1.52717 0
M  V30 5771 C 539.678 0.000286574 1.881 0
M  V30 5772 O 539.036 -0.987262 1.52062 0
M  V30 5773 C 539.084 2.28464 2.78992 0
M  V30 5774 O 538.188 1.716 3.75003 0
M  V30 5775 H 537.529 0.47778 0.461109 0
M  V30 5776 H 540.059 1.83546 0.903996 0
M  V30 5777 H 540.069 2.43051 3.27705 0
M  V30 5778 H 538.744 3.30425 2.52572 0
M  V30 5779 H 537.321 1.66267 3.33781 0
M  V30 5780 N 539.506 -0.963266 1.24736 0
M  V30 5781 C 540.734 -1.74166 1.11686 0
M  V30 5782 C 541.149 -1.8589 -0.330187 0
M  V30 5783 O 540.506 -1.35042 -1.2276 0
M  V30 5784 C 540.557 -3.15989 1.75595 0
M  V30 5785 O 540.278 -3.04847 3.14642 0
M  V30 5786 C 541.779 -4.10145 1.68213 0
M  V30 5787 H 538.999 -0.546031 0.389989 0
M  V30 5788 H 541.543 -1.20907 1.64929 0
M  V30 5789 H 539.698 -3.66219 1.26343 0
M  V30 5790 H 540.112 -3.9425 3.4593 0
M  V30 5791 H 541.586 -5.07299 2.17604 0
M  V30 5792 H 542.063 -4.3445 0.644208 0
M  V30 5793 H 542.669 -3.65827 2.16912 0
M  V30 5794 N 540.985 -1.06182 -1.16461 0
M  V30 5795 C 542.231 -0.779015 -1.87241 0
M  V30 5796 C 542.564 0.692715 -1.81425 0
M  V30 5797 O 541.839 1.5074 -1.22913 0
M  V30 5798 C 542.122 -1.2728 -3.36856 0
M  V30 5799 C 541.975 -2.80821 -3.51368 0
M  V30 5800 C 543.294 -0.879799 -4.31216 0
M  V30 5801 H 540.413 -0.284464 -0.679889 0
M  V30 5802 H 543.055 -1.31755 -1.36896 0
M  V30 5803 H 541.205 -0.814673 -3.79862 0
M  V30 5804 H 542.877 -3.34833 -3.17308 0
M  V30 5805 H 541.12 -3.19606 -2.93316 0
M  V30 5806 H 541.791 -3.10435 -4.56436 0
M  V30 5807 H 544.267 -1.27436 -3.96105 0
M  V30 5808 H 543.143 -1.25278 -5.34412 0
M  V30 5809 H 543.404 0.215372 -4.41575 0
M  V30 5810 N 542.463 1.3308 -0.844243 0
M  V30 5811 C 543.373 2.32876 -0.283922 0
M  V30 5812 C 544.389 1.63589 0.592846 0
M  V30 5813 O 545.565 1.95205 0.495693 0
M  V30 5814 C 542.63 3.42667 0.527283 0
M  V30 5815 C 541.691 4.27664 -0.374394 0
M  V30 5816 C 540.924 5.32212 0.39819 0
M  V30 5817 O 541.147 5.46635 1.62932 0
M  V30 5818 O 540.081 6.01458 -0.2306 0
M  V30 5819 H 543.907 2.82671 -1.11045 0
M  V30 5820 H 541.492 1.36518 -0.606903 0
M  V30 5821 H 543.374 4.09652 0.988078 0
M  V30 5822 H 542.049 2.95079 1.33078 0
M  V30 5823 H 540.956 3.63526 -0.883144 0
M  V30 5824 H 542.289 4.78749 -1.1428 0
M  V30 5825 N 543.941 0.601185 1.45683 0
M  V30 5826 C 544.851 -0.123395 2.34275 0
M  V30 5827 C 545.867 -0.86702 1.5086 0
M  V30 5828 O 547.043 -0.826049 1.8368 0
M  V30 5829 C 544.108 -1.11237 3.2837 0
M  V30 5830 C 543.169 -0.371405 4.2769 0
M  V30 5831 C 542.402 -1.31327 5.1729 0
M  V30 5832 O 542.625 -2.55078 5.10188 0
M  V30 5833 O 541.559 -0.813811 5.96373 0
M  V30 5834 H 545.385 0.604483 2.97623 0
M  V30 5835 H 542.97 0.361477 1.44961 0
M  V30 5836 H 544.852 -1.68214 3.8637 0
M  V30 5837 H 543.527 -1.82139 2.67595 0
M  V30 5838 H 542.434 0.24067 3.73325 0
M  V30 5839 H 543.767 0.296998 4.91303 0
M  V30 5840 N 545.419 -1.53889 0.339982 0
M  V30 5841 C 546.351 -2.22435 -0.55275 0
M  V30 5842 C 547.364 -1.22975 -1.06681 0
M  V30 5843 O 548.553 -1.49351 -0.977575 0
M  V30 5844 C 545.653 -2.8882 -1.77302 0
M  V30 5845 C 544.826 -4.14563 -1.39486 0
M  V30 5846 C 543.885 -4.64391 -2.47442 0
M  V30 5847 O 542.911 -5.28687 -2.10899 0
M  V30 5848 N 544.113 -4.40015 -3.78639 0
M  V30 5849 H 546.878 -2.9968 0.0342669 0
M  V30 5850 H 544.439 -1.61068 0.16394 0
M  V30 5851 H 546.431 -3.19072 -2.48948 0
M  V30 5852 H 545.001 -2.15182 -2.26749 0
M  V30 5853 H 544.221 -3.90896 -0.509321 0
M  V30 5854 H 545.509 -4.96362 -1.11813 0
M  V30 5855 H 544.907 -3.88586 -4.11118 0
M  V30 5856 H 543.464 -4.74881 -4.46465 0
M  V30 5857 N 546.897 -0.0685191 -1.57451 0
M  V30 5858 C 547.827 0.89747 -2.15564 0
M  V30 5859 C 548.808 1.31266 -1.08181 0
M  V30 5860 O 549.993 1.38429 -1.36202 0
M  V30 5861 C 547.123 2.16623 -2.71463 0
M  V30 5862 C 546.077 1.89054 -3.83982 0
M  V30 5863 C 545.403 3.22532 -4.26471 0
M  V30 5864 C 546.703 1.1984 -5.08366 0
M  V30 5865 H 548.397 0.413373 -2.96533 0
M  V30 5866 H 545.943 0.197391 -1.42641 0
M  V30 5867 H 547.896 2.84614 -3.10761 0
M  V30 5868 H 546.62 2.67269 -1.8771 0
M  V30 5869 H 545.279 1.23469 -3.45183 0
M  V30 5870 H 544.927 3.71013 -3.39644 0
M  V30 5871 H 544.627 3.04879 -5.02317 0
M  V30 5872 H 546.151 3.91727 -4.68383 0
M  V30 5873 H 547.565 1.77896 -5.45001 0
M  V30 5874 H 545.962 1.12456 -5.89469 0
M  V30 5875 H 547.032 0.176996 -4.84577 0
M  V30 5876 N 548.375 1.56261 0.205012 0
M  V30 5877 C 549.325 1.90155 1.25798 0
M  V30 5878 C 550.309 0.766227 1.41484 0
M  V30 5879 O 551.501 1.02893 1.44021 0
M  V30 5880 C 548.63 2.23603 2.60493 0
M  V30 5881 C 547.716 3.43568 2.48639 0
M  V30 5882 N 548.107 4.61747 2.06455 0
M  V30 5883 C 546.405 3.4751 2.79558 0
M  V30 5884 C 547.106 5.43907 2.06253 0
M  V30 5885 N 546.082 4.84051 2.47377 0
M  V30 5886 H 549.884 2.79031 0.922986 0
M  V30 5887 H 547.398 1.57048 0.413501 0
M  V30 5888 H 549.395 2.46067 3.36537 0
M  V30 5889 H 548.055 1.36049 2.94823 0
M  V30 5890 H 549.066 4.86598 1.77321 0
M  V30 5891 H 545.743 2.70345 3.18151 0
M  V30 5892 H 547.133 6.48542 1.75622 0
M  V30 5893 N 549.853 -0.472356 1.50355 0
M  V30 5894 C 551.1 -1.22453 1.61281 0
M  V30 5895 C 551.428 -1.91972 0.31256 0
M  V30 5896 O 550.683 -1.82696 -0.701475 0
M  V30 5897 C 550.982 -2.29257 2.74182 0
M  V30 5898 C 550.648 -1.76999 4.14708 0
M  V30 5899 C 549.31 -1.62467 4.52944 0
M  V30 5900 C 551.662 -1.38215 5.0254 0
M  V30 5901 C 548.99 -1.07574 5.76754 0
M  V30 5902 C 551.342 -0.847638 6.26895 0
M  V30 5903 C 550.006 -0.688946 6.63935 0
M  V30 5904 H 549.276 -0.448087 0.590168 0
M  V30 5905 H 551.923 -0.520744 1.84284 0
M  V30 5906 H 550.228 -3.05538 2.45263 0
M  V30 5907 H 551.925 -2.87212 2.7984 0
M  V30 5908 H 548.515 -1.89276 3.84542 0
M  V30 5909 H 552.699 -1.48276 4.73633 0
M  V30 5910 H 547.955 -0.940237 6.04127 0
M  V30 5911 H 552.129 -0.538455 6.94315 0
M  V30 5912 H 549.756 -0.261435 7.5975 0
M  V30 5913 N 551.331 -1.39911 -0.725443 0
M  V30 5914 C 552.58 -1.36963 -1.48068 0
M  V30 5915 C 552.893 0.0284478 -1.95579 0
M  V30 5916 O 554.099 0.180535 -2.70899 0
M  V30 5917 C 552.555 -2.40664 -2.67598 0
M  V30 5918 C 552.163 -3.86234 -2.26997 0
M  V30 5919 C 553.907 -2.46807 -3.45379 0
M  V30 5920 C 551.814 -4.81554 -3.43307 0
M  V30 5921 H 550.744 -0.509223 -0.556065 0
M  V30 5922 H 553.395 -1.65602 -0.790454 0
M  V30 5923 H 551.777 -2.05109 -3.38742 0
M  V30 5924 H 552.951 -4.3088 -1.63337 0
M  V30 5925 H 551.266 -3.83475 -1.62284 0
M  V30 5926 H 553.863 -3.15213 -4.31909 0
M  V30 5927 H 554.206 -1.49552 -3.8851 0
M  V30 5928 H 554.739 -2.81303 -2.81271 0
M  V30 5929 H 551.478 -5.80106 -3.05217 0
M  V30 5930 H 550.998 -4.4158 -4.05915 0
M  V30 5931 H 552.677 -5.0091 -4.0951 0
M  V30 5932 N 552.809 0.956637 -1.25245 0
M  V30 5933 C 554.056 1.701 -1.09874 0
M  V30 5934 C 554.384 1.91128 0.36062 0
M  V30 5935 O 553.639 1.47837 1.28229 0
M  V30 5936 C 553.938 3.08996 -1.79601 0
M  V30 5937 C 553.604 3.07774 -3.29523 0
M  V30 5938 C 552.266 3.07149 -3.70423 0
M  V30 5939 C 554.618 3.01257 -4.25316 0
M  V30 5940 C 551.946 2.97752 -5.0553 0
M  V30 5941 C 554.298 2.93403 -5.60444 0
M  V30 5942 C 552.962 2.91111 -6.00675 0
M  V30 5943 H 552.232 0.62244 -0.402056 0
M  V30 5944 H 554.879 1.1178 -1.55491 0
M  V30 5945 H 553.184 3.70848 -1.26408 0
M  V30 5946 H 554.881 3.65407 -1.65162 0
M  V30 5947 H 551.471 3.09032 -2.9698 0
M  V30 5948 H 555.655 3.00861 -3.9471 0
M  V30 5949 H 550.911 2.94346 -5.35883 0
M  V30 5950 H 555.085 2.87321 -6.34366 0
M  V30 5951 H 552.712 2.83586 -7.05325 0
M  V30 5952 N 554.287 1.06798 1.15896 0
M  V30 5953 C 555.703 0.792423 1.38538 0
M  V30 5954 C 555.903 -0.60592 1.92174 0
M  V30 5955 O 554.959 -1.36561 2.12385 0
M  V30 5956 C 556.272 1.86157 2.36149 0
M  V30 5957 C 557.82 1.88567 2.49823 0
M  V30 5958 C 558.295 2.9455 3.5072 0
M  V30 5959 N 559.786 2.93616 3.58251 0
M  V30 5960 C 560.521 3.72267 4.36125 0
M  V30 5961 N 560.017 4.60751 5.17379 0
M  V30 5962 N 561.81 3.60637 4.31158 0
M  V30 5963 H 553.961 1.96993 0.794198 0
M  V30 5964 H 556.224 0.853942 0.411688 0
M  V30 5965 H 555.93 2.86603 2.03843 0
M  V30 5966 H 555.804 1.71692 3.3586 0
M  V30 5967 H 558.191 0.887765 2.8143 0
M  V30 5968 H 558.272 2.0711 1.5013 0
M  V30 5969 H 557.916 3.94537 3.19849 0
M  V30 5970 H 557.846 2.73255 4.50155 0
M  V30 5971 H 560.337 2.29472 3.00252 0
M  V30 5972 H 560.65 5.17408 5.74028 0
M  V30 5973 H 558.995 4.64803 5.16704 0
M  V30 5974 H 562.186 2.90892 3.66742 0
M  V30 5975 H 562.359 4.22176 4.91601 0
M  V30 5976 N 555.766 -1.3263 0.851289 0
M  V30 5977 C 557.015 -1.96633 0.449267 0
M  V30 5978 C 557.328 -1.68131 -0.999562 0
M  V30 5979 O 558.534 -2.25845 -1.50685 0
M  V30 5980 C 556.99 -3.51946 0.752446 0
M  V30 5981 C 556.598 -3.89311 2.21678 0
M  V30 5982 C 558.342 -4.22437 0.417983 0
M  V30 5983 C 556.249 -5.37655 2.46336 0
M  V30 5984 H 555.179 -0.735888 0.164269 0
M  V30 5985 H 557.83 -1.51073 1.0416 0
M  V30 5986 H 556.212 -3.95899 0.0895858 0
M  V30 5987 H 557.386 -3.56378 2.92115 0
M  V30 5988 H 555.701 -3.31836 2.51543 0
M  V30 5989 H 558.298 -5.31549 0.579674 0
M  V30 5990 H 558.641 -4.11349 -0.640115 0
M  V30 5991 H 559.174 -3.84057 1.03659 0
M  V30 5992 H 555.913 -5.5376 3.50757 0
M  V30 5993 H 555.433 -5.72005 1.80473 0
M  V30 5994 H 557.112 -6.04695 2.30115 0
M  V30 5995 N 557.244 -0.608902 -1.45362 0
M  V30 5996 C 558.174 0.0964526 -2.33301 0
M  V30 5997 C 559.155 0.857444 -1.46908 0
M  V30 5998 O 560.34 0.827735 -1.75676 0
M  V30 5999 C 557.47 1.09354 -3.29635 0
M  V30 6000 C 556.424 0.445676 -4.25673 0
M  V30 6001 C 555.75 1.5511 -5.11708 0
M  V30 6002 C 557.05 -0.633972 -5.18438 0
M  V30 6003 H 558.744 -0.637829 -2.92527 0
M  V30 6004 H 556.29 -0.308178 -1.40664 0
M  V30 6005 H 558.243 1.59556 -3.90025 0
M  V30 6006 H 556.967 1.85843 -2.6857 0
M  V30 6007 H 555.626 -0.0354897 -3.66583 0
M  V30 6008 H 555.274 2.30631 -4.4701 0
M  V30 6009 H 554.974 1.12311 -5.76767 0
M  V30 6010 H 556.498 2.05537 -5.74967 0
M  V30 6011 H 557.912 -0.215974 -5.72893 0
M  V30 6012 H 556.309 -0.983789 -5.91981 0
M  V30 6013 H 557.379 -1.51005 -4.60788 0
M  V30 6014 N 558.722 1.53707 -0.348139 0
M  V30 6015 C 559.97 2.00591 0.246478 0
M  V30 6016 C 560.291 1.23753 1.50699 0
M  V30 6017 O 559.561 0.345964 1.92821 0
M  V30 6018 H 558.141 0.741053 0.0940679 0
M  V30 6019 H 560.803 1.89139 -0.470354 0
M  V30 6020 H 559.899 3.08297 0.485714 0
M  V30 6021 N 560.2 0.0768682 1.57412 0
M  V30 6022 C 561.428 -0.59997 1.9801 0
M  V30 6023 C 561.843 -1.62842 0.955408 0
M  V30 6024 O 561.2 -1.8241 -0.057314 0
M  V30 6025 C 561.251 -1.26401 3.38681 0
M  V30 6026 O 560.972 -0.276723 4.37225 0
M  V30 6027 C 562.473 -2.0282 3.94182 0
M  V30 6028 H 559.693 -0.162239 0.651091 0
M  V30 6029 H 562.237 0.150771 2.03943 0
M  V30 6030 H 560.392 -1.96581 3.33819 0
M  V30 6031 H 560.806 -0.753744 5.19056 0
M  V30 6032 H 562.28 -2.44667 4.94815 0
M  V30 6033 H 562.757 -2.88678 3.31001 0
M  V30 6034 H 563.363 -1.37496 4.02461 0
M  V30 6035 N 561.678 -1.56367 -0.196722 0
M  V30 6036 C 563.089 -1.70462 -0.761545 0
M  V30 6037 C 563.44 -0.683161 -1.83922 0
M  V30 6038 O 562.565 0.160753 -2.15802 0
M  V30 6039 C 563.16 -3.09057 -1.38814 0
M  V30 6040 C 561.719 -3.24922 -1.90007 0
M  V30 6041 C 560.866 -2.66412 -0.769399 0
M  V30 6042 H 563.817 -1.58675 0.0283263 0
M  V30 6043 H 563.838 -3.06296 -2.2575 0
M  V30 6044 H 563.35 -3.83378 -0.603559 0
M  V30 6045 H 561.451 -2.55514 -2.71189 0
M  V30 6046 H 561.564 -4.3241 -2.06297 0
M  V30 6047 H 559.928 -2.25546 -1.18326 0
M  V30 6048 H 560.711 -3.433 0.00291773 0
M  V30 6049 N 563.156 0.464375 -1.50603 0
M  V30 6050 C 564.384 1.23907 -1.65695 0
M  V30 6051 C 564.799 1.85658 -0.343027 0
M  V30 6052 O 564.156 1.69529 0.675739 0
M  V30 6053 C 564.207 2.3429 -2.75301 0
M  V30 6054 O 563.928 1.7507 -4.01599 0
M  V30 6055 C 565.429 3.25051 -3.01424 0
M  V30 6056 H 562.649 0.374485 -0.556778 0
M  V30 6057 H 565.193 0.55353 -1.96866 0
M  V30 6058 H 563.348 2.98607 -2.46804 0
M  V30 6059 H 563.762 2.47812 -4.62266 0
M  V30 6060 H 565.236 3.98699 -3.81763 0
M  V30 6061 H 565.713 3.84227 -2.12758 0
M  V30 6062 H 566.319 2.66463 -3.31477 0
M  V30 6063 N 564.634 1.40294 0.718013 0
M  V30 6064 C 565.544 1.42678 1.86226 0
M  V30 6065 C 566.56 0.319655 1.71039 0
M  V30 6066 O 567.736 0.563852 1.93346 0
M  V30 6067 C 564.801 1.2852 3.21999 0
M  V30 6068 C 563.862 2.49354 3.49458 0
M  V30 6069 C 563.095 2.35863 4.78753 0
M  V30 6070 O 563.318 1.37114 5.53675 0
M  V30 6071 O 562.252 3.25189 5.06494 0
M  V30 6072 H 566.078 2.39167 1.87171 0
M  V30 6073 H 563.663 1.2159 0.868112 0
M  V30 6074 H 565.545 1.22824 4.03103 0
M  V30 6075 H 564.22 0.351359 3.21787 0
M  V30 6076 H 563.127 2.60628 2.68373 0
M  V30 6077 H 564.46 3.41491 3.54464 0
M  V30 6078 N 566.112 -0.949982 1.2575 0
M  V30 6079 C 567.022 -2.08109 1.08295 0
M  V30 6080 C 568.038 -1.7399 0.0188181 0
M  V30 6081 O 569.214 -2.00187 0.220724 0
M  V30 6082 C 566.279 -3.39383 0.708534 0
M  V30 6083 C 565.34 -3.8734 1.85111 0
M  V30 6084 C 564.573 -5.12349 1.49447 0
M  V30 6085 O 564.796 -5.6905 0.392212 0
M  V30 6086 O 563.73 -5.5513 2.32624 0
M  V30 6087 H 567.556 -2.25738 2.03165 0
M  V30 6088 H 565.141 -1.06545 1.04731 0
M  V30 6089 H 567.023 -4.18277 0.512061 0
M  V30 6090 H 565.698 -3.23013 -0.210854 0
M  V30 6091 H 564.605 -3.09429 2.10248 0
M  V30 6092 H 565.938 -4.08216 2.74991 0
M  V30 6093 N 567.59 -1.07411 -1.15328 0
M  V30 6094 C 568.818 -0.818782 -1.90009 0
M  V30 6095 C 569.233 0.628072 -1.78047 0
M  V30 6096 O 568.59 1.43085 -1.13282 0
M  V30 6097 C 568.641 -1.21874 -3.40337 0
M  V30 6098 O 568.362 -2.60883 -3.51954 0
M  V30 6099 C 569.863 -0.992796 -4.3204 0
M  V30 6100 H 567.083 -0.296007 -0.60218 0
M  V30 6101 H 569.627 -1.43073 -1.46117 0
M  V30 6102 H 567.782 -0.651103 -3.81889 0
M  V30 6103 H 568.196 -2.77216 -4.45255 0
M  V30 6104 H 569.67 -1.32215 -5.35932 0
M  V30 6105 H 570.147 0.0708331 -4.39143 0
M  V30 6106 H 570.753 -1.54537 -3.9623 0
M  V30 6107 N 569.068 1.32177 -0.85831 0
M  V30 6108 C 570.314 1.97813 -0.47346 0
M  V30 6109 C 570.669 1.66674 0.961122 0
M  V30 6110 O 569.962 0.94657 1.66585 0
M  V30 6111 C 570.156 3.51372 -0.653658 0
M  V30 6112 C 569.985 3.97433 -2.1042 0
M  V30 6113 C 568.755 4.24338 -2.74345 0
M  V30 6114 C 570.953 4.12233 -3.0752 0
M  V30 6115 N 568.935 4.56672 -4.10272 0
M  V30 6116 C 570.306 4.48146 -4.28445 0
M  V30 6117 C 572.361 3.94577 -3.03667 0
M  V30 6118 C 571.064 4.68246 -5.4602 0
M  V30 6119 C 573.09 4.15864 -4.20489 0
M  V30 6120 C 572.452 4.52098 -5.40173 0
M  V30 6121 H 568.551 0.749808 -0.222061 0
M  V30 6122 H 571.135 1.59927 -1.11047 0
M  V30 6123 H 569.306 3.88372 -0.0463267 0
M  V30 6124 H 571.038 4.03998 -0.238343 0
M  V30 6125 H 567.793 4.16544 -2.25362 0
M  V30 6126 H 568.217 4.77019 -4.80398 0
M  V30 6127 H 572.859 3.65662 -2.12252 0
M  V30 6128 H 570.577 4.96014 -6.37962 0
M  V30 6129 H 574.163 4.03702 -4.18947 0
M  V30 6130 H 573.043 4.68238 -6.29065 0
M  V30 6131 N 570.547 0.616602 1.45037 0
M  V30 6132 C 571.958 0.199359 1.85633 0
M  V30 6133 C 572.309 -1.24588 1.51566 0
M  V30 6134 O 571.434 -1.94594 0.94668 0
M  V30 6135 C 572.029 0.355033 3.36935 0
M  V30 6136 C 570.588 -0.00758748 3.76399 0
M  V30 6137 C 569.735 0.675256 2.68953 0
M  V30 6138 H 572.686 0.822708 1.3571 0
M  V30 6139 H 572.707 -0.410201 3.78282 0
M  V30 6140 H 572.219 1.40699 3.61698 0
M  V30 6141 H 570.32 -1.05837 3.57252 0
M  V30 6142 H 570.433 0.392346 4.77491 0
M  V30 6143 H 568.797 0.111992 2.54454 0
M  V30 6144 H 569.58 1.72952 2.96551 0
M  V30 6145 N 572.025 -1.5352 0.356285 0
M  V30 6146 C 573.273 -2.00719 -0.235837 0
M  V30 6147 C 573.594 -1.24551 -1.5004 0
M  V30 6148 O 572.864 -0.356185 -1.92635 0
M  V30 6149 H 571.444 -0.741542 -0.0901366 0
M  V30 6150 H 574.106 -1.88887 0.480378 0
M  V30 6151 H 573.202 -3.08551 -0.469357 0
M  V30 6152 N 573.503 -0.0852151 -1.57369 0
M  V30 6153 C 574.752 0.580443 -1.93168 0
M  V30 6154 C 575.065 1.6995 -0.968319 0
M  V30 6155 O 576.271 2.42564 -1.21963 0
M  V30 6156 C 574.727 1.08386 -3.43192 0
M  V30 6157 C 574.335 -0.00491388 -4.48 0
M  V30 6158 C 576.079 1.72281 -3.87968 0
M  V30 6159 C 573.986 0.513299 -5.89168 0
M  V30 6160 H 572.916 0.22059 -0.72101 0
M  V30 6161 H 575.567 -0.159621 -1.82804 0
M  V30 6162 H 573.949 1.8773 -3.48674 0
M  V30 6163 H 575.123 -0.780032 -4.5415 0
M  V30 6164 H 573.438 -0.548453 -4.12772 0
M  V30 6165 H 576.035 2.12108 -4.9083 0
M  V30 6166 H 576.378 2.58811 -3.26071 0
M  V30 6167 H 576.911 0.995359 -3.85146 0
M  V30 6168 H 573.65 -0.315153 -6.54742 0
M  V30 6169 H 573.17 1.25564 -5.8651 0
M  V30 6170 H 574.849 0.985433 -6.39451 0
M  V30 6171 N 574.981 1.5647 0.188427 0
M  V30 6172 C 575.911 1.98101 1.23606 0
M  V30 6173 C 576.892 0.853961 1.47111 0
M  V30 6174 O 578.077 1.11879 1.58735 0
M  V30 6175 C 575.207 2.32624 2.57882 0
M  V30 6176 C 574.161 3.48129 2.48978 0
M  V30 6177 C 573.487 3.68347 3.87588 0
M  V30 6178 C 574.787 4.82112 2.00911 0
M  V30 6179 H 576.481 2.85864 0.890068 0
M  V30 6180 H 574.027 1.37532 0.426714 0
M  V30 6181 H 575.98 2.60343 3.3136 0
M  V30 6182 H 574.704 1.41751 2.94235 0
M  V30 6183 H 573.363 3.20511 1.77956 0
M  V30 6184 H 573.011 2.74793 4.21305 0
M  V30 6185 H 572.711 4.46055 3.82503 0
M  V30 6186 H 574.235 3.98449 4.62678 0
M  V30 6187 H 575.649 5.08819 2.64151 0
M  V30 6188 H 574.046 5.63337 2.06814 0
M  V30 6189 H 575.116 4.75249 0.96262 0
M  V30 6190 N 576.459 -0.456382 1.50847 0
M  V30 6191 C 577.684 -1.2349 1.66628 0
M  V30 6192 C 578.109 -1.84715 0.355254 0
M  V30 6193 O 577.467 -1.67961 -0.682559 0
M  V30 6194 C 577.515 -2.30865 2.77009 0
M  V30 6195 O 576.619 -3.35882 2.39285 0
M  V30 6196 H 575.96 -0.36266 0.556214 0
M  V30 6197 H 578.49 -0.541374 1.97308 0
M  V30 6198 H 578.5 -2.75949 3.00526 0
M  V30 6199 H 577.175 -1.85677 3.72152 0
M  V30 6200 H 575.752 -2.96406 2.26269 0
M  V30 6201 N 577.937 -1.40673 -0.710563 0
M  V30 6202 C 578.885 -1.41517 -1.84596 0
M  V30 6203 C 579.879 -0.295043 -1.66811 0
M  V30 6204 O 581.085 -0.466331 -1.73854 0
M  V30 6205 H 577.46 -0.442467 -0.608052 0
M  V30 6206 H 579.431 -2.37238 -1.80999 0
M  V30 6207 C 578.18 -1.29957 -3.225 0
M  V30 6208 H 577.503 -2.15429 -3.36794 0
M  V30 6209 H 578.943 -1.34608 -4.02066 0
M  V30 6210 C 577.402 -0.0103164 -3.36898 0
M  V30 6211 O 577.932 0.950707 -3.90288 0
M  V30 6212 N 576.138 0.0608409 -2.90536 0
M  V30 6213 H 575.685 -0.721943 -2.47277 0
M  V30 6214 H 575.643 0.92292 -3.00549 0
M  V30 6215 N 579.415 0.9433 -1.26252 0
M  V30 6216 C 580.325 2.07532 -1.09397 0
M  V30 6217 C 581.341 1.73977 -0.0280449 0
M  V30 6218 O 582.517 2.00067 -0.231337 0
M  V30 6219 C 579.582 3.39002 -0.726523 0
M  V30 6220 C 578.643 3.86353 -1.87163 0
M  V30 6221 C 577.876 5.11549 -1.52162 0
M  V30 6222 O 578.099 5.68834 -0.422385 0
M  V30 6223 O 577.033 5.53889 -2.35565 0
M  V30 6224 H 580.859 2.24658 -2.04359 0
M  V30 6225 H 578.444 1.05988 -1.05295 0
M  V30 6226 H 580.326 4.18 -0.534236 0
M  V30 6227 H 579.001 3.2312 0.193721 0
M  V30 6228 H 577.908 3.0831 -2.11886 0
M  V30 6229 H 579.241 4.06752 -2.77152 0
M  V30 6230 N 580.893 1.08022 1.14757 0
M  V30 6231 C 581.803 0.718292 2.23333 0
M  V30 6232 C 582.819 -0.273477 1.71837 0
M  V30 6233 O 583.995 -0.118406 2.01052 0
M  V30 6234 C 581.06 0.128855 3.4646 0
M  V30 6235 C 580.121 1.17473 4.12915 0
M  V30 6236 C 579.354 0.61333 5.30164 0
M  V30 6237 O 579.577 -0.568458 5.6756 0
M  V30 6238 O 578.511 1.3615 5.86299 0
M  V30 6239 H 582.337 1.62394 2.56636 0
M  V30 6240 H 579.922 0.853628 1.22611 0
M  V30 6241 H 581.804 -0.197249 4.20938 0
M  V30 6242 H 580.479 -0.750014 3.14891 0
M  V30 6243 H 579.386 1.5533 3.40328 0
M  V30 6244 H 580.719 2.02574 4.48581 0
M  V30 6245 N 582.371 -1.3172 0.865308 0
M  V30 6246 C 583.618 -1.96876 0.473931 0
M  V30 6247 C 583.946 -1.68425 -0.972786 0
M  V30 6248 O 583.201 -0.970742 -1.69927 0
M  V30 6249 C 583.5 -3.5102 0.672283 0
M  V30 6250 C 583.166 -3.9948 2.09108 0
M  V30 6251 C 581.828 -4.12425 2.4791 0
M  V30 6252 C 584.18 -4.2503 3.0166 0
M  V30 6253 C 581.508 -4.48267 3.78515 0
M  V30 6254 C 583.86 -4.62335 4.31774 0
M  V30 6255 C 582.524 -4.73486 4.70497 0
M  V30 6256 H 581.794 -0.72042 0.173424 0
M  V30 6257 H 584.441 -1.56937 1.0974 0
M  V30 6258 H 582.746 -3.91785 -0.034356 0
M  V30 6259 H 584.443 -3.99475 0.349353 0
M  V30 6260 H 581.033 -3.89898 1.77981 0
M  V30 6261 H 585.217 -4.14529 2.7291 0
M  V30 6262 H 580.473 -4.55097 4.08285 0
M  V30 6263 H 584.647 -4.81058 5.03543 0
M  V30 6264 H 582.274 -5.01016 5.71741 0
M  V30 6265 N 583.85 -0.624285 -1.44708 0
M  V30 6266 C 584.797 0.0847135 -2.30644 0
M  V30 6267 C 585.767 0.843575 -1.43084 0
M  V30 6268 O 586.952 0.825982 -1.71995 0
M  V30 6269 C 584.091 1.06495 -3.28257 0
M  V30 6270 C 583.205 0.305224 -4.3092 0
M  V30 6271 C 582.34 1.27667 -5.1563 0
M  V30 6272 C 581.379 0.505706 -6.10007 0
M  V30 6273 N 580.516 1.42727 -6.8744 0
M  V30 6274 H 585.356 -0.654068 -2.90733 0
M  V30 6275 H 582.893 -0.334334 -1.4325 0
M  V30 6276 H 584.851 1.64658 -3.83332 0
M  V30 6277 H 583.481 1.77094 -2.69884 0
M  V30 6278 H 582.533 -0.392207 -3.78373 0
M  V30 6279 H 583.845 -0.295553 -4.97924 0
M  V30 6280 H 582.999 1.92984 -5.75189 0
M  V30 6281 H 581.738 1.91137 -4.48685 0
M  V30 6282 H 580.743 -0.160999 -5.49564 0
M  V30 6283 H 581.968 -0.124183 -6.78986 0
M  V30 6284 H 579.913 2.04931 -6.23169 0
M  V30 6285 H 579.831 0.880345 -7.50857 0
M  V30 6286 H 581.099 2.0695 -7.51526 0
M  V30 6287 N 585.328 1.53329 -0.364422 0
M  V30 6288 C 586.556 2.05657 0.226424 0
M  V30 6289 C 586.971 1.23801 1.42544 0
M  V30 6290 O 586.328 0.27839 1.80364 0
M  V30 6291 C 586.379 3.56125 0.621056 0
M  V30 6292 O 586.1 4.34879 -0.530304 0
M  V30 6293 C 587.601 4.24706 1.27041 0
M  V30 6294 H 584.821 0.669806 0.0400056 0
M  V30 6295 H 587.365 1.97714 -0.522456 0
M  V30 6296 H 585.52 3.64223 1.31985 0
M  V30 6297 H 585.934 5.24073 -0.211546 0
M  V30 6298 H 587.408 5.3131 1.49711 0
M  V30 6299 H 587.885 3.78354 2.23036 0
M  V30 6300 H 588.491 4.20858 0.613079 0
M  V30 6301 N 586.806 0.0935595 1.57322 0
M  V30 6302 C 588.036 -0.578095 1.98347 0
M  V30 6303 C 588.444 -1.62357 0.971441 0
M  V30 6304 O 587.787 -1.83639 -0.0473959 0
M  V30 6305 C 587.849 -1.28525 3.3574 0
M  V30 6306 C 587.513 -0.390714 4.55327 0
M  V30 6307 C 588.51 0.360522 5.18648 0
M  V30 6308 C 586.195 -0.309221 5.01347 0
M  V30 6309 C 588.189 1.18125 6.26359 0
M  V30 6310 C 585.876 0.515157 6.08925 0
M  V30 6311 C 586.874 1.25904 6.71295 0
M  V30 6312 O 586.562 2.06978 7.76798 0
M  V30 6313 H 586.294 -0.159767 0.656849 0
M  V30 6314 H 588.848 0.169058 2.04703 0
M  V30 6315 H 587.078 -2.07894 3.26063 0
M  V30 6316 H 588.767 -1.85128 3.61223 0
M  V30 6317 H 589.533 0.307285 4.84026 0
M  V30 6318 H 585.412 -0.877881 4.52564 0
M  V30 6319 H 588.956 1.76236 6.74971 0
M  V30 6320 H 584.853 0.56988 6.42979 0
M  V30 6321 H 585.621 1.99644 7.93779 0
M  V30 6322 N 588.284 -1.56567 -0.180126 0
M  V30 6323 C 589.232 -1.96632 -1.24251 0
M  V30 6324 C 590.226 -0.853818 -1.46309 0
M  V30 6325 O 591.432 -1.0389 -1.46993 0
M  V30 6326 H 587.807 -0.625476 -0.417473 0
M  V30 6327 H 589.778 -2.85201 -0.877679 0
M  V30 6328 C 588.527 -2.33486 -2.57642 0
M  V30 6329 H 587.85 -3.18626 -2.4149 0
M  V30 6330 H 589.29 -2.65371 -3.30688 0
M  V30 6331 C 587.749 -1.17499 -3.15746 0
M  V30 6332 O 588.279 -0.457956 -3.99081 0
M  V30 6333 N 586.485 -0.94786 -2.74707 0
M  V30 6334 H 586.032 -1.53269 -2.07042 0
M  V30 6335 H 585.99 -0.173626 -3.1392 0
M  V30 6336 N 589.762 0.448376 -1.51087 0
M  V30 6337 C 590.992 1.21965 -1.66757 0
M  V30 6338 C 591.4 1.85748 -0.359753 0
M  V30 6339 O 590.743 1.71022 0.670604 0
M  V30 6340 C 590.805 2.35284 -2.71812 0
M  V30 6341 C 590.469 1.91957 -4.1473 0
M  V30 6342 C 591.466 1.42921 -4.9987 0
M  V30 6343 C 589.151 1.99985 -4.60772 0
M  V30 6344 C 591.145 1.02485 -6.29107 0
M  V30 6345 C 588.832 1.5916 -5.90009 0
M  V30 6346 C 589.83 1.10491 -6.74004 0
M  V30 6347 O 589.518 0.702413 -8.00825 0
M  V30 6348 H 589.25 0.374125 -0.563034 0
M  V30 6349 H 591.804 0.538927 -1.98204 0
M  V30 6350 H 590.034 3.06599 -2.35657 0
M  V30 6351 H 591.723 2.97184 -2.76472 0
M  V30 6352 H 592.489 1.36123 -4.65506 0
M  V30 6353 H 588.368 2.36814 -3.95525 0
M  V30 6354 H 591.912 0.644271 -6.94619 0
M  V30 6355 H 587.809 1.65626 -6.2389 0
M  V30 6356 H 588.577 0.829248 -8.14288 0
M  V30 6357 N 591.24 1.41047 0.703093 0
M  V30 6358 C 592.651 1.35657 1.28274 0
M  V30 6359 C 593.002 0.0360309 1.96167 0
M  V30 6360 O 592.127 -0.865833 1.98324 0
M  V30 6361 C 592.722 2.45707 2.33267 0
M  V30 6362 C 591.281 2.43738 2.86825 0
M  V30 6363 C 590.428 2.25941 1.60767 0
M  V30 6364 H 593.379 1.50672 0.49836 0
M  V30 6365 H 593.4 2.14333 3.14391 0
M  V30 6366 H 592.912 3.41805 1.83824 0
M  V30 6367 H 591.013 1.51375 3.40465 0
M  V30 6368 H 591.126 3.39779 3.37768 0
M  V30 6369 H 589.49 1.73681 1.86298 0
M  V30 6370 H 590.273 3.24054 1.1333 0
M  V30 6371 N 592.718 -0.936591 1.26751 0
M  V30 6372 C 593.665 -2.03597 1.08706 0
M  V30 6373 C 594.635 -1.66097 -0.00926542 0
M  V30 6374 O 595.82 -1.90199 0.151377 0
M  V30 6375 C 592.96 -3.3727 0.73094 0
M  V30 6376 C 592.073 -3.87778 1.90399 0
M  V30 6377 C 591.208 -5.09859 1.49056 0
M  V30 6378 C 590.247 -5.5264 2.63164 0
M  V30 6379 N 589.384 -6.65921 2.22471 0
M  V30 6380 H 594.224 -2.18364 2.02784 0
M  V30 6381 H 591.761 -1.06985 1.00958 0
M  V30 6382 H 593.719 -4.14128 0.505328 0
M  V30 6383 H 592.349 -3.22337 -0.172868 0
M  V30 6384 H 591.401 -3.07279 2.2424 0
M  V30 6385 H 592.713 -4.15464 2.76028 0
M  V30 6386 H 591.867 -5.9419 1.22567 0
M  V30 6387 H 590.606 -4.8393 0.60524 0
M  V30 6388 H 589.611 -4.66863 2.90377 0
M  V30 6389 H 590.836 -5.80568 3.52303 0
M  V30 6390 H 588.782 -6.41667 1.36379 0
M  V30 6391 H 588.699 -6.93216 3.01641 0
M  V30 6392 H 589.967 -7.53616 1.99205 0
M  V30 6393 N 594.196 -1.08629 -1.14182 0
M  V30 6394 C 595.426 -0.837673 -1.88856 0
M  V30 6395 C 595.834 0.614024 -1.78959 0
M  V30 6396 O 595.177 1.43384 -1.14833 0
M  V30 6397 C 595.239 -1.18355 -3.39459 0
M  V30 6398 C 594.903 -2.63848 -3.73139 0
M  V30 6399 C 595.9 -3.62099 -3.73069 0
M  V30 6400 C 593.585 -2.99761 -4.03049 0
M  V30 6401 C 595.579 -4.94292 -4.02435 0
M  V30 6402 C 593.266 -4.32147 -4.32078 0
M  V30 6403 C 594.264 -5.29223 -4.31755 0
M  V30 6404 O 593.952 -6.59229 -4.60079 0
M  V30 6405 H 593.684 -0.301609 -0.604986 0
M  V30 6406 H 596.238 -1.44961 -1.45518 0
M  V30 6407 H 594.468 -0.514628 -3.8326 0
M  V30 6408 H 596.157 -0.915391 -3.95443 0
M  V30 6409 H 596.923 -3.35698 -3.50046 0
M  V30 6410 H 592.802 -2.2484 -4.02453 0
M  V30 6411 H 596.346 -5.70055 -4.02098 0
M  V30 6412 H 592.243 -4.58296 -4.54571 0
M  V30 6413 H 593.011 -6.64578 -4.77785 0
M  V30 6414 N 595.674 1.31259 -0.872281 0
M  V30 6415 C 597.09 1.49283 -0.564521 0
M  V30 6416 C 597.29 1.80243 0.900807 0
M  V30 6417 O 596.346 1.88246 1.68284 0
M  V30 6418 C 597.659 2.62503 -1.46673 0
M  V30 6419 C 599.207 2.76386 -1.46901 0
M  V30 6420 C 599.682 3.92705 -2.35684 0
M  V30 6421 N 601.173 3.99995 -2.33577 0
M  V30 6422 C 601.908 4.89276 -2.98992 0
M  V30 6423 N 601.404 5.83443 -3.73585 0
M  V30 6424 N 603.197 4.82541 -2.88289 0
M  V30 6425 H 595.348 1.09432 -1.82039 0
M  V30 6426 H 597.611 0.540949 -0.77851 0
M  V30 6427 H 597.317 2.46407 -2.50951 0
M  V30 6428 H 597.191 3.58695 -1.16696 0
M  V30 6429 H 599.578 2.91894 -0.433796 0
M  V30 6430 H 599.659 1.80853 -1.80903 0
M  V30 6431 H 599.303 3.77954 -3.39283 0
M  V30 6432 H 599.233 4.87549 -1.99006 0
M  V30 6433 H 601.724 3.32624 -1.7936 0
M  V30 6434 H 602.037 6.48303 -4.20622 0
M  V30 6435 H 600.382 5.83415 -3.77694 0
M  V30 6436 H 603.573 4.07951 -2.2955 0
M  V30 6437 H 603.746 5.51916 -3.39549 0
M  V30 6438 N 597.152 0.631951 1.44375 0
M  V30 6439 C 598.115 -0.0628142 2.29114 0
M  V30 6440 C 599.115 -0.771494 1.41084 0
M  V30 6441 O 600.305 -0.615959 1.62947 0
M  V30 6442 C 597.437 -1.09953 3.22681 0
M  V30 6443 H 598.63 0.682509 2.92031 0
M  V30 6444 H 596.183 0.392128 1.51301 0
M  V30 6445 H 596.918 -1.87481 2.64616 0
M  V30 6446 H 596.703 -0.595286 3.87555 0
M  V30 6447 H 598.193 -1.58538 3.86336 0
M  V30 6448 N 598.631 -1.53133 0.372548 0
M  V30 6449 C 599.541 -2.29671 -0.478379 0
M  V30 6450 C 600.557 -1.35913 -1.08644 0
M  V30 6451 O 601.733 -1.68975 -1.09588 0
M  V30 6452 C 598.798 -3.07625 -1.599 0
M  V30 6453 C 597.859 -4.17061 -1.01776 0
M  V30 6454 C 597.092 -4.91289 -2.08497 0
M  V30 6455 O 597.315 -4.65442 -3.29727 0
M  V30 6456 O 596.249 -5.7705 -1.71164 0
M  V30 6457 H 600.075 -3.03355 0.144649 0
M  V30 6458 H 597.66 -1.48773 0.136729 0
M  V30 6459 H 599.542 -3.56281 -2.25038 0
M  V30 6460 H 598.217 -2.3677 -2.2073 0
M  V30 6461 H 597.124 -3.72641 -0.330098 0
M  V30 6462 H 598.457 -4.90102 -0.453915 0
M  V30 6463 N 600.109 -0.101901 -1.5727 0
M  V30 6464 C 601.072 0.840129 -2.13247 0
M  V30 6465 C 602.072 1.20625 -1.06331 0
M  V30 6466 O 603.262 1.13456 -1.32186 0
M  V30 6467 C 600.394 2.13372 -2.65867 0
M  V30 6468 H 601.587 0.353945 -2.97804 0
M  V30 6469 H 599.14 0.147167 -1.55606 0
M  V30 6470 H 599.875 2.66461 -1.84849 0
M  V30 6471 H 599.66 1.88085 -3.44044 0
M  V30 6472 H 601.15 2.80748 -3.09145 0
M  V30 6473 N 601.587 1.56661 0.17182 0
M  V30 6474 C 602.517 1.99401 1.21498 0
M  V30 6475 C 603.498 0.869516 1.46197 0
M  V30 6476 O 604.683 1.13556 1.57539 0
M  V30 6477 C 601.813 2.35346 2.55401 0
M  V30 6478 C 600.767 3.5075 2.45272 0
M  V30 6479 C 600.093 3.72437 3.8366 0
M  V30 6480 C 601.393 4.84216 1.95787 0
M  V30 6481 H 603.087 2.86792 0.859699 0
M  V30 6482 H 600.633 1.37977 0.412103 0
M  V30 6483 H 602.586 2.63843 3.2858 0
M  V30 6484 H 601.31 1.44864 2.92715 0
M  V30 6485 H 599.969 3.2238 1.74547 0
M  V30 6486 H 599.617 2.79246 4.18367 0
M  V30 6487 H 599.317 4.50087 3.77751 0
M  V30 6488 H 600.841 4.03334 4.58426 0
M  V30 6489 H 602.255 5.11592 2.5874 0
M  V30 6490 H 600.652 5.65498 2.00827 0
M  V30 6491 H 601.722 4.76243 0.912159 0
M  V30 6492 N 603.065 -0.440357 1.51323 0
M  V30 6493 C 603.995 -1.54174 1.75364 0
M  V30 6494 C 604.976 -1.59039 0.603375 0
M  V30 6495 O 606.161 -1.74815 0.845774 0
M  V30 6496 C 603.291 -2.92277 1.87593 0
M  V30 6497 C 602.245 -3.02274 3.03009 0
M  V30 6498 C 601.571 -4.42327 3.00418 0
M  V30 6499 C 602.871 -2.76634 4.43024 0
M  V30 6500 H 604.565 -1.34307 2.67585 0
M  V30 6501 H 602.111 -0.644678 1.28763 0
M  V30 6502 H 604.064 -3.69284 2.02995 0
M  V30 6503 H 602.788 -3.13369 0.920179 0
M  V30 6504 H 601.447 -2.27706 2.87307 0
M  V30 6505 H 601.095 -4.60382 2.02626 0
M  V30 6506 H 600.795 -4.49946 3.77918 0
M  V30 6507 H 602.319 -5.21312 3.17909 0
M  V30 6508 H 603.733 -3.43376 4.59093 0
M  V30 6509 H 602.13 -2.95666 5.22208 0
M  V30 6510 H 603.2 -1.72262 4.5327 0
M  V30 6511 N 604.543 -1.41418 -0.695603 0
M  V30 6512 C 605.768 -1.44329 -1.48942 0
M  V30 6513 C 606.193 -0.0501579 -1.88033 0
M  V30 6514 O 605.551 0.946598 -1.54626 0
M  V30 6515 C 605.599 -2.3578 -2.72837 0
M  V30 6516 O 604.703 -1.81482 -3.70322 0
M  V30 6517 H 604.044 -0.489838 -0.44828 0
M  V30 6518 H 606.574 -1.85878 -0.855014 0
M  V30 6519 H 606.584 -2.51654 -3.21145 0
M  V30 6520 H 605.259 -3.37005 -2.43722 0
M  V30 6521 H 603.836 -1.75058 -3.29255 0
M  V30 6522 N 606.021 0.929856 -1.27246 0
M  V30 6523 C 606.971 2.01629 -1.06442 0
M  V30 6524 C 607.955 1.60899 0.00687842 0
M  V30 6525 O 609.147 1.75733 -0.211407 0
M  V30 6526 C 606.276 3.35849 -0.711361 0
M  V30 6527 C 605.362 3.8303 -1.82069 0
M  V30 6528 N 605.753 4.02743 -3.05993 0
M  V30 6529 C 604.051 4.12046 -1.70687 0
M  V30 6530 C 604.752 4.42001 -3.78167 0
M  V30 6531 N 603.728 4.4935 -3.05918 0
M  V30 6532 H 607.53 2.14898 -2.00489 0
M  V30 6533 H 605.044 1.11654 -1.17929 0
M  V30 6534 H 607.041 4.13343 -0.543442 0
M  V30 6535 H 605.701 3.23944 0.221517 0
M  V30 6536 H 606.712 3.89112 -3.41778 0
M  V30 6537 H 603.389 4.08866 -0.844681 0
M  V30 6538 H 604.779 4.6535 -4.84664 0
M  V30 6539 N 607.499 1.09233 1.13605 0
M  V30 6540 C 608.462 0.733553 2.17144 0
M  V30 6541 C 609.462 -0.235873 1.59061 0
M  V30 6542 O 610.652 -0.0143167 1.74194 0
M  V30 6543 C 607.784 0.084471 3.40795 0
M  V30 6544 H 608.977 1.65049 2.50397 0
M  V30 6545 H 606.53 0.891264 1.28399 0
M  V30 6546 H 607.265 -0.843795 3.1313 0
M  V30 6547 H 607.05 0.781985 3.84223 0
M  V30 6548 H 608.54 -0.151216 4.17326 0
M  V30 6549 N 608.977 -1.30795 0.87923 0
M  V30 6550 C 610.388 -1.78535 0.546093 0
M  V30 6551 C 610.739 -1.72354 -0.937467 0
M  V30 6552 O 609.864 -1.2969 -1.73233 0
M  V30 6553 C 610.459 -3.24181 0.9845 0
M  V30 6554 C 609.018 -3.69779 0.702871 0
M  V30 6555 C 608.165 -2.51377 1.17068 0
M  V30 6556 H 611.116 -1.17746 1.06403 0
M  V30 6557 H 611.137 -3.79227 0.311045 0
M  V30 6558 H 610.649 -3.28647 2.06429 0
M  V30 6559 H 608.75 -3.70806 -0.365166 0
M  V30 6560 H 608.863 -4.61507 1.28639 0
M  V30 6561 H 607.227 -2.47768 0.590172 0
M  V30 6562 H 608.01 -2.58584 2.25808 0
M  V30 6563 N 610.455 -0.639598 -1.44038 0
M  V30 6564 C 611.871 -0.305953 -1.5664 0
M  V30 6565 C 612.071 1.19055 -1.62567 0
M  V30 6566 O 611.127 1.97492 -1.57331 0
M  V30 6567 C 612.44 -1.00533 -2.83397 0
M  V30 6568 C 613.988 -0.984278 -2.97121 0
M  V30 6569 C 614.463 -1.66428 -4.26691 0
M  V30 6570 N 615.954 -1.63127 -4.33525 0
M  V30 6571 C 616.689 -2.12629 -5.32519 0
M  V30 6572 N 616.185 -2.70359 -6.3787 0
M  V30 6573 N 617.978 -2.03208 -5.24083 0
M  V30 6574 H 610.129 -1.6109 -1.38434 0
M  V30 6575 H 612.392 -0.676672 -0.663942 0
M  V30 6576 H 612.098 -2.06034 -2.85032 0
M  V30 6577 H 611.972 -0.548362 -3.73193 0
M  V30 6578 H 614.359 0.0622792 -2.95034 0
M  V30 6579 H 614.44 -1.47981 -2.08651 0
M  V30 6580 H 614.084 -2.71034 -4.29538 0
M  V30 6581 H 614.014 -1.14351 -5.14034 0
M  V30 6582 H 616.505 -1.20987 -3.58009 0
M  V30 6583 H 616.818 -3.05842 -7.09704 0
M  V30 6584 H 615.163 -2.74414 -6.38531 0
M  V30 6585 H 618.354 -1.57823 -4.40692 0
M  V30 6586 H 618.527 -2.42097 -6.01077 0
M  V30 6587 N 611.933 1.52934 -0.380664 0
M  V30 6588 C 612.863 2.29118 0.450268 0
M  V30 6589 C 613.844 1.32153 1.07096 0
M  V30 6590 O 615.029 1.61038 1.08537 0
M  V30 6591 C 612.159 3.09161 1.58231 0
M  V30 6592 C 611.113 4.13938 1.0881 0
M  V30 6593 C 610.439 4.82153 2.31155 0
M  V30 6594 C 611.739 5.22048 0.162146 0
M  V30 6595 H 613.433 2.98826 -0.185361 0
M  V30 6596 H 610.979 1.43715 -0.0905886 0
M  V30 6597 H 612.932 3.61211 2.17036 0
M  V30 6598 H 611.656 2.3717 2.2454 0
M  V30 6599 H 610.315 3.62855 0.522633 0
M  V30 6600 H 609.963 4.06719 2.95953 0
M  V30 6601 H 609.663 5.52966 1.98752 0
M  V30 6602 H 611.187 5.37004 2.90618 0
M  V30 6603 H 612.601 5.6951 0.658126 0
M  V30 6604 H 610.998 6.00057 -0.0717122 0
M  V30 6605 H 612.068 4.78398 -0.791438 0
M  V30 6606 N 613.412 0.11024 1.57214 0
M  V30 6607 C 614.689 -0.592956 1.86396 0
M  V30 6608 C 615.069 -1.85379 1.00985 0
M  V30 6609 O 614.417 -2.28337 0.0863592 0
M  V30 6610 C 614.627 -0.893816 3.3736 0
M  V30 6611 C 615.975 -1.25069 4.05762 0
M  V30 6612 O 616.999 -0.984356 3.42329 0
M  V30 6613 O 615.858 -1.75017 5.17718 0
M  V30 6614 H 612.952 -0.29828 0.771335 0
M  V30 6615 H 615.498 0.144083 1.69087 0
M  V30 6616 H 614.27 2.6031e-05 3.913 0
M  V30 6617 H 613.893 -1.68631 3.60068 0
M  V30 6618 N 614.89 -1.56749 -0.16351 0
M  V30 6619 C 616.115 -1.86938 -0.898264 0
M  V30 6620 C 616.54 -0.697456 -1.74692 0
M  V30 6621 O 615.898 0.353327 -1.77824 0
M  V30 6622 C 615.946 -3.15599 -1.74441 0
M  V30 6623 O 615.05 -2.98371 -2.8469 0
M  V30 6624 H 614.391 -0.614659 -0.251178 0
M  V30 6625 H 616.921 -2.03979 -0.159298 0
M  V30 6626 H 616.931 -3.47202 -2.14277 0
M  V30 6627 H 615.606 -4.00505 -1.1211 0
M  V30 6628 H 614.183 -2.7814 -2.4838 0
M  V30 6629 N 616.368 0.432326 -1.51554 0
M  V30 6630 C 617.645 1.19288 -1.55015 0
M  V30 6631 C 618.025 2.08701 -0.317375 0
M  V30 6632 O 617.373 2.17602 0.697243 0
M  V30 6633 C 617.583 1.99037 -2.86679 0
M  V30 6634 C 618.931 2.55907 -3.38817 0
M  V30 6635 O 619.955 2.09243 -2.88263 0
M  V30 6636 O 618.814 3.41029 -4.27038 0
M  V30 6637 H 615.908 0.543369 -0.623441 0
M  V30 6638 H 618.454 0.440988 -1.6387 0
M  V30 6639 H 617.226 1.33397 -3.6786 0
M  V30 6640 H 616.849 2.81281 -2.8101 0
M  V30 6641 N 617.846 1.41785 0.688094 0
M  V30 6642 C 619.094 1.41264 1.4453 0
M  V30 6643 C 619.415 0.0252946 1.94984 0
M  V30 6644 O 618.685 -0.934081 1.72197 0
M  V30 6645 H 617.265 0.519998 0.536294 0
M  V30 6646 H 619.927 1.7709 0.813941 0
M  V30 6647 H 619.023 2.10439 2.30482 0
M  V30 6648 N 619.324 -0.923095 1.27737 0
M  V30 6649 C 620.287 -2.00587 1.10894 0
M  V30 6650 C 621.287 -1.60718 0.0514927 0
M  V30 6651 O 622.477 -1.71658 0.296481 0
M  V30 6652 C 619.609 -3.33829 0.690717 0
M  V30 6653 H 620.802 -2.16959 2.07048 0
M  V30 6654 H 618.355 -1.10451 1.1059 0
M  V30 6655 H 619.09 -3.23157 -0.272 0
M  V30 6656 H 618.875 -3.64125 1.45448 0
M  V30 6657 H 620.365 -4.13336 0.595252 0
M  V30 6658 N 620.802 -1.09834 -1.13024 0
M  V30 6659 C 622.079 -0.749225 -1.80682 0
M  V30 6660 C 622.459 0.765171 -1.96744 0
M  V30 6661 O 621.807 1.68912 -1.53886 0
M  V30 6662 C 622.017 -1.49311 -3.15448 0
M  V30 6663 C 623.365 -1.66162 -3.90737 0
M  V30 6664 O 624.389 -1.45597 -3.25085 0
M  V30 6665 O 623.248 -2.00211 -5.08505 0
M  V30 6666 H 620.342 -0.269614 -0.781817 0
M  V30 6667 H 622.888 -1.20078 -1.19914 0
M  V30 6668 H 621.66 -2.52407 -2.99009 0
M  V30 6669 H 621.283 -1.034 -3.8392 0
M  V30 6670 N 622.28 1.30327 -0.886154 0
M  V30 6671 C 623.21 2.30549 -0.370028 0
M  V30 6672 C 624.191 1.61039 0.547751 0
M  V30 6673 O 625.376 1.8864 0.461353 0
M  V30 6674 C 622.506 3.44808 0.415275 0
M  V30 6675 C 621.46 4.26024 -0.41085 0
M  V30 6676 C 620.786 5.32347 0.501128 0
M  V30 6677 C 622.086 4.95433 -1.65359 0
M  V30 6678 H 623.78 2.73969 -1.20754 0
M  V30 6679 H 621.326 1.3171 -0.582097 0
M  V30 6680 H 623.279 4.13986 0.78699 0
M  V30 6681 H 622.003 3.00197 1.28644 0
M  V30 6682 H 620.662 3.58535 -0.764719 0
M  V30 6683 H 620.31 4.83982 1.37004 0
M  V30 6684 H 620.01 5.87581 -0.0478356 0
M  V30 6685 H 621.534 6.0438 0.869333 0
M  V30 6686 H 622.948 5.5712 -1.35239 0
M  V30 6687 H 621.345 5.60537 -2.14284 0
M  V30 6688 H 622.415 4.21493 -2.39733 0
M  V30 6689 N 623.758 0.647228 1.43697 0
M  V30 6690 C 624.688 -0.0345631 2.33474 0
M  V30 6691 C 625.669 -0.818193 1.4913 0
M  V30 6692 O 626.854 -0.780867 1.77809 0
M  V30 6693 C 623.984 -1.00576 3.32418 0
M  V30 6694 C 622.938 -0.33266 4.26705 0
M  V30 6695 C 622.264 -1.41489 5.1564 0
M  V30 6696 C 623.564 0.771204 5.16575 0
M  V30 6697 H 625.258 0.715163 2.90733 0
M  V30 6698 H 622.804 0.345364 1.39797 0
M  V30 6699 H 624.757 -1.49159 3.94119 0
M  V30 6700 H 623.481 -1.78657 2.73403 0
M  V30 6701 H 622.14 0.13267 3.6636 0
M  V30 6702 H 621.788 -2.18698 4.52968 0
M  V30 6703 H 621.488 -0.969799 5.79542 0
M  V30 6704 H 623.012 -1.9022 5.80214 0
M  V30 6705 H 624.426 0.36779 5.72119 0
M  V30 6706 H 622.823 1.1404 5.89165 0
M  V30 6707 H 623.893 1.63169 4.56622 0
M  V30 6708 N 625.236 -1.5273 0.388769 0
M  V30 6709 C 626.464 -2.05992 -0.193677 0
M  V30 6710 C 626.879 -1.26053 -1.40557 0
M  V30 6711 O 626.236 -0.307049 -1.79898 0
M  V30 6712 C 626.287 -3.57068 -0.564321 0
M  V30 6713 O 626.008 -4.3398 0.599422 0
M  V30 6714 C 627.509 -4.26674 -1.20269 0
M  V30 6715 H 624.729 -0.670358 -0.0293445 0
M  V30 6716 H 627.273 -1.96857 0.553844 0
M  V30 6717 H 625.428 -3.66277 -1.26174 0
M  V30 6718 H 625.842 -5.2367 0.294895 0
M  V30 6719 H 627.316 -5.33625 -1.4124 0
M  V30 6720 H 627.793 -3.81854 -2.16989 0
M  V30 6721 H 628.399 -4.2178 -0.546047 0
M  V30 6722 N 626.714 -0.118576 -1.57153 0
M  V30 6723 C 627.661 0.831789 -2.1529 0
M  V30 6724 C 628.631 1.26385 -1.07778 0
M  V30 6725 O 629.816 1.34144 -1.35684 0
M  V30 6726 C 626.956 2.07664 -2.75626 0
M  V30 6727 C 626.069 1.69298 -3.97444 0
M  V30 6728 C 625.204 2.88747 -4.45868 0
M  V30 6729 C 624.243 2.46619 -5.60219 0
M  V30 6730 N 623.38 3.5898 -6.03389 0
M  V30 6731 H 628.22 0.329183 -2.96176 0
M  V30 6732 H 625.757 0.150792 -1.46325 0
M  V30 6733 H 627.715 2.80601 -3.08738 0
M  V30 6734 H 626.345 2.55384 -1.97431 0
M  V30 6735 H 625.397 0.862374 -3.70496 0
M  V30 6736 H 626.709 1.34338 -4.80369 0
M  V30 6737 H 625.863 3.69909 -4.80887 0
M  V30 6738 H 624.602 3.26933 -3.61892 0
M  V30 6739 H 623.607 1.63889 -5.24805 0
M  V30 6740 H 624.832 2.0955 -6.45961 0
M  V30 6741 H 622.778 3.9684 -5.22354 0
M  V30 6742 H 622.695 3.27942 -6.81168 0
M  V30 6743 H 623.963 4.40583 -6.43045 0
M  V30 6744 N 628.193 1.56834 0.155195 0
M  V30 6745 C 629.123 2.00678 1.19376 0
M  V30 6746 C 630.104 0.884973 1.45266 0
M  V30 6747 O 631.289 1.1522 1.56326 0
M  V30 6748 C 628.419 2.38042 2.5289 0
M  V30 6749 C 627.373 3.53332 2.41538 0
M  V30 6750 C 626.699 3.76485 3.79688 0
M  V30 6751 C 627.999 4.86265 1.9064 0
M  V30 6752 H 629.693 2.87688 0.829232 0
M  V30 6753 H 627.239 1.38407 0.397445 0
M  V30 6754 H 629.192 2.67314 3.25763 0
M  V30 6755 H 627.916 1.4796 2.91162 0
M  V30 6756 H 626.575 3.24213 1.71117 0
M  V30 6757 H 626.223 2.83667 4.15382 0
M  V30 6758 H 625.923 4.54068 3.72956 0
M  V30 6759 H 627.447 4.08174 4.54122 0
M  V30 6760 H 628.861 5.14308 2.53299 0
M  V30 6761 H 627.258 5.67597 1.94818 0
M  V30 6762 H 628.328 4.77184 0.861596 0
M  V30 6763 N 629.671 -0.424282 1.51781 0
M  V30 6764 C 630.601 -1.52305 1.7699 0
M  V30 6765 C 631.582 -1.5839 0.620209 0
M  V30 6766 O 632.767 -1.73908 0.864268 0
M  V30 6767 C 629.897 -2.90271 1.90683 0
M  V30 6768 C 628.851 -2.99043 3.06198 0
M  V30 6769 C 628.177 -4.39116 3.05092 0
M  V30 6770 C 629.477 -2.7192 4.45934 0
M  V30 6771 H 631.171 -1.31461 2.68995 0
M  V30 6772 H 628.717 -0.630985 1.29439 0
M  V30 6773 H 630.67 -3.6711 2.06901 0
M  V30 6774 H 629.394 -3.12376 0.953365 0
M  V30 6775 H 628.053 -2.24646 2.89706 0
M  V30 6776 H 627.701 -4.58207 2.07498 0
M  V30 6777 H 627.401 -4.45912 3.82669 0
M  V30 6778 H 628.925 -5.17911 3.2342 0
M  V30 6779 H 630.339 -3.38487 4.62709 0
M  V30 6780 H 628.736 -2.90111 5.25315 0
M  V30 6781 H 629.806 -1.67445 4.55072 0
M  V30 6782 N 631.149 -1.42148 -0.680565 0
M  V30 6783 C 632.081 -1.41119 -1.80605 0
M  V30 6784 C 633.094 -0.311099 -1.598 0
M  V30 6785 O 634.283 -0.573813 -1.69026 0
M  V30 6786 C 631.383 -1.18204 -3.17618 0
M  V30 6787 C 630.556 -2.40537 -3.65322 0
M  V30 6788 C 629.615 -2.13254 -4.8105 0
M  V30 6789 O 628.641 -2.8641 -4.91892 0
M  V30 6790 N 629.843 -1.13208 -5.69354 0
M  V30 6791 H 632.608 -2.38128 -1.81975 0
M  V30 6792 H 630.169 -1.36953 -0.863446 0
M  V30 6793 H 632.161 -0.97878 -3.92686 0
M  V30 6794 H 630.731 -0.29738 -3.11182 0
M  V30 6795 H 629.951 -2.76468 -2.80996 0
M  V30 6796 H 631.239 -3.22012 -3.93936 0
M  V30 6797 H 630.637 -0.526893 -5.63241 0
M  V30 6798 H 629.194 -0.988699 -6.44258 0
M  V30 6799 N 632.627 0.916307 -1.28225 0
M  V30 6800 C 633.874 1.66518 -1.1523 0
M  V30 6801 C 634.202 1.92178 0.299632 0
M  V30 6802 O 633.457 1.51842 1.2346 0
M  V30 6803 C 633.756 3.03125 -1.8934 0
M  V30 6804 C 633.422 2.97135 -3.39148 0
M  V30 6805 C 632.084 2.95208 -3.80007 0
M  V30 6806 C 634.436 2.87574 -4.34685 0
M  V30 6807 C 631.764 2.81518 -5.14747 0
M  V30 6808 C 634.116 2.75424 -5.69495 0
M  V30 6809 C 632.78 2.71854 -6.09632 0
M  V30 6810 H 632.05 0.609334 -0.421655 0
M  V30 6811 H 634.697 1.06776 -1.58969 0
M  V30 6812 H 633.002 3.66639 -1.38143 0
M  V30 6813 H 634.699 3.59968 -1.76704 0
M  V30 6814 H 631.289 2.99428 -3.06661 0
M  V30 6815 H 635.473 2.88152 -4.04082 0
M  V30 6816 H 630.729 2.77148 -5.44976 0
M  V30 6817 H 634.903 2.66993 -6.43185 0
M  V30 6818 H 632.53 2.61003 -7.1399 0
M  V30 6819 N 634.105 1.10431 1.1244 0
M  V30 6820 C 635.015 0.765502 2.21759 0
M  V30 6821 C 636.031 -0.236966 1.72379 0
M  V30 6822 O 637.207 -0.0757329 2.01258 0
M  V30 6823 C 634.272 0.202316 3.46109 0
M  V30 6824 C 633.333 1.26205 4.1033 0
M  V30 6825 C 632.566 0.725648 5.28744 0
M  V30 6826 O 632.789 -0.447942 5.68638 0
M  V30 6827 O 631.723 1.48555 5.83279 0
M  V30 6828 H 635.549 1.67801 2.53133 0
M  V30 6829 H 633.134 0.879443 1.20773 0
M  V30 6830 H 635.016 -0.107918 4.21262 0
M  V30 6831 H 633.691 -0.683052 3.16411 0
M  V30 6832 H 632.598 1.62514 3.36957 0
M  V30 6833 H 633.931 2.12044 4.44183 0
M  V30 6834 N 635.583 -1.29855 0.893053 0
M  V30 6835 C 636.831 -1.9544 0.514566 0
M  V30 6836 C 637.152 -1.70795 -0.940959 0
M  V30 6837 O 636.422 -1.03601 -1.66264 0
M  V30 6838 H 635.002 -0.723137 0.187302 0
M  V30 6839 H 637.664 -1.58234 1.13789 0
M  V30 6840 H 636.76 -3.04341 0.691581 0
M  V30 6841 N 637.061 -0.65484 -1.43351 0
M  V30 6842 C 638.477 -0.32255 -1.56307 0
M  V30 6843 C 638.677 1.17324 -1.63821 0
M  V30 6844 O 637.733 1.95813 -1.59417 0
M  V30 6845 C 639.046 -1.03533 -2.82314 0
M  V30 6846 C 640.594 -1.01574 -2.9606 0
M  V30 6847 C 641.069 -1.70945 -4.24902 0
M  V30 6848 N 642.56 -1.67716 -4.3177 0
M  V30 6849 C 643.295 -2.18265 -5.30234 0
M  V30 6850 N 642.791 -2.7711 -6.34966 0
M  V30 6851 N 644.584 -2.08756 -5.21898 0
M  V30 6852 H 636.735 -1.62549 -1.36717 0
M  V30 6853 H 638.998 -0.683676 -0.656727 0
M  V30 6854 H 638.704 -2.09045 -2.8283 0
M  V30 6855 H 638.578 -0.587913 -3.7259 0
M  V30 6856 H 640.965 0.0309834 -2.95084 0
M  V30 6857 H 641.046 -1.50186 -2.07069 0
M  V30 6858 H 640.69 -2.75574 -4.26639 0
M  V30 6859 H 640.62 -1.19797 -5.12793 0
M  V30 6860 H 643.111 -1.24777 -3.56706 0
M  V30 6861 H 643.424 -3.13353 -7.06421 0
M  V30 6862 H 641.769 -2.81171 -6.35585 0
M  V30 6863 H 644.96 -1.62488 -4.38994 0
M  V30 6864 H 645.133 -2.48459 -5.98475 0
M  V30 6865 N 638.539 1.52521 -0.396863 0
M  V30 6866 C 639.487 2.28217 0.44943 0
M  V30 6867 C 640.481 1.32416 1.05652 0
M  V30 6868 O 641.687 1.49925 0.996124 0
M  V30 6869 H 638.062 0.733966 0.1637 0
M  V30 6870 H 640.033 2.97658 -0.210367 0
M  V30 6871 C 638.782 3.10713 1.56054 0
M  V30 6872 H 638.105 3.84291 1.10273 0
M  V30 6873 H 639.545 3.66803 2.12677 0
M  V30 6874 C 638.004 2.23499 2.52091 0
M  V30 6875 O 638.534 1.8669 3.55682 0
M  V30 6876 N 636.74 1.8751 2.2201 0
M  V30 6877 H 636.287 2.17643 1.37802 0
M  V30 6878 H 636.245 1.29448 2.86514 0
M  V30 6879 N 640.017 0.126909 1.57088 0
M  V30 6880 C 641.433 -0.229641 1.57939 0
M  V30 6881 C 641.633 -1.66145 1.1401 0
M  V30 6882 O 640.689 -2.3843 0.831119 0
M  V30 6883 C 642.002 0.0108648 3.00698 0
M  V30 6884 C 643.55 -0.054418 3.12953 0
M  V30 6885 C 644.025 0.158497 4.57726 0
M  V30 6886 N 645.516 0.104735 4.63082 0
M  V30 6887 C 646.251 0.24427 5.72879 0
M  V30 6888 N 645.747 0.440415 6.91399 0
M  V30 6889 N 647.54 0.183286 5.61801 0
M  V30 6890 H 639.691 1.06203 1.83942 0
M  V30 6891 H 641.954 0.418834 0.85046 0
M  V30 6892 H 641.66 1.00102 3.37154 0
M  V30 6893 H 641.534 -0.717512 3.70313 0
M  V30 6894 H 643.921 -1.0351 2.7635 0
M  V30 6895 H 644.002 0.705967 2.45865 0
M  V30 6896 H 643.646 1.13619 4.95028 0
M  V30 6897 H 643.576 -0.62197 5.22914 0
M  V30 6898 H 646.067 -0.0430298 3.77876 0
M  V30 6899 H 646.38 0.537536 7.70928 0
M  V30 6900 H 644.725 0.476488 6.93365 0
M  V30 6901 H 647.916 0.0309561 4.6809 0
M  V30 6902 H 648.089 0.295471 6.47326 0
M  V30 6903 N 641.495 -1.56914 -0.146875 0
M  V30 6904 C 642.744 -1.82546 -0.857898 0
M  V30 6905 C 643.057 -0.708169 -1.8233 0
M  V30 6906 O 644.263 -0.850093 -2.57848 0
M  V30 6907 C 642.719 -3.23548 -1.57623 0
M  V30 6908 C 642.327 -4.43212 -0.653224 0
M  V30 6909 C 644.071 -3.58453 -2.27402 0
M  V30 6910 C 641.978 -5.75237 -1.37318 0
M  V30 6911 H 640.908 -0.680786 -0.32411 0
M  V30 6912 H 643.559 -1.83166 -0.110639 0
M  V30 6913 H 641.941 -3.17315 -2.36912 0
M  V30 6914 H 643.115 -4.60682 0.104452 0
M  V30 6915 H 641.43 -4.16351 -0.0638336 0
M  V30 6916 H 644.027 -4.54349 -2.81907 0
M  V30 6917 H 644.37 -2.84516 -3.03901 0
M  V30 6918 H 644.903 -3.66347 -1.55032 0
M  V30 6919 H 641.642 -6.52269 -0.650041 0
M  V30 6920 H 641.162 -5.61703 -2.10357 0
M  V30 6921 H 642.841 -6.18039 -1.91406 0
M  V30 6922 N 642.974 0.416227 -1.52004 0
M  V30 6923 C 644.199 1.19029 -1.69843 0
M  V30 6924 C 644.624 1.83708 -0.404103 0
M  V30 6925 O 643.982 1.69711 0.637787 0
M  V30 6926 C 644.03 2.23439 -2.83032 0
M  V30 6927 O 643.134 3.29419 -2.48106 0
M  V30 6928 H 642.475 0.347785 -0.565634 0
M  V30 6929 H 645.005 0.488871 -1.98674 0
M  V30 6930 H 645.015 2.67884 -3.07737 0
M  V30 6931 H 643.69 1.75745 -3.76944 0
M  V30 6932 H 642.267 2.90303 -2.34048 0
M  V30 6933 N 644.452 1.42507 0.673017 0
M  V30 6934 C 645.415 1.4582 1.76831 0
M  V30 6935 C 646.415 0.345542 1.57043 0
M  V30 6936 O 647.605 0.606447 1.63303 0
M  V30 6937 C 644.737 1.29158 3.15485 0
M  V30 6938 H 645.93 2.43345 1.7528 0
M  V30 6939 H 643.483 1.28981 0.882817 0
M  V30 6940 H 644.218 0.325626 3.22661 0
M  V30 6941 H 644.003 2.09797 3.31252 0
M  V30 6942 H 645.493 1.34363 3.95394 0
M  V30 6943 N 645.93 -0.909495 1.28709 0
M  V30 6944 C 646.84 -2.04558 1.14861 0
M  V30 6945 C 647.856 -1.73842 0.0741621 0
M  V30 6946 O 649.032 -1.99383 0.2843 0
M  V30 6947 C 646.097 -3.36957 0.816148 0
M  V30 6948 C 645.158 -3.81255 1.97341 0
M  V30 6949 C 644.391 -5.07335 1.65671 0
M  V30 6950 O 644.614 -5.67514 0.573053 0
M  V30 6951 O 643.548 -5.47449 2.50167 0
M  V30 6952 H 647.374 -2.19161 2.10243 0
M  V30 6953 H 644.959 -1.03159 1.08068 0
M  V30 6954 H 646.841 -4.16436 0.644873 0
M  V30 6955 H 645.516 -3.2352 -0.107983 0
M  V30 6956 H 644.423 -3.02584 2.19986 0
M  V30 6957 H 645.756 -3.99261 2.87839 0
M  V30 6958 N 647.408 -1.11026 -1.11852 0
M  V30 6959 C 648.685 -0.768347 -1.79877 0
M  V30 6960 C 649.065 0.744261 -1.97545 0
M  V30 6961 O 648.413 1.67271 -1.55669 0
M  V30 6962 C 648.623 -1.52648 -3.13846 0
M  V30 6963 C 649.971 -1.70297 -3.88953 0
M  V30 6964 O 650.995 -1.49037 -3.23522 0
M  V30 6965 O 649.854 -2.05593 -5.06353 0
M  V30 6966 H 646.948 -0.277891 -0.778913 0
M  V30 6967 H 649.494 -1.21343 -1.18633 0
M  V30 6968 H 648.266 -2.55564 -2.96315 0
M  V30 6969 H 647.889 -1.07466 -3.82801 0
M  V30 6970 N 648.886 1.2938 -0.899927 0
M  V30 6971 C 649.849 2.25983 -0.382677 0
M  V30 6972 C 650.849 1.53366 0.483259 0
M  V30 6973 O 652.039 1.71798 0.28828 0
M  V30 6974 C 649.171 3.37878 0.452915 0
M  V30 6975 H 650.364 2.73252 -1.23586 0
M  V30 6976 H 647.917 1.40825 -0.678088 0
M  V30 6977 H 648.652 2.95949 1.32608 0
M  V30 6978 H 648.437 3.91742 -0.167562 0
M  V30 6979 H 649.927 4.09746 0.806107 0
M  V30 6980 N 650.364 0.662433 1.43002 0
M  V30 6981 C 651.297 -0.073459 2.28082 0
M  V30 6982 C 652.275 -0.820869 1.40358 0
M  V30 6983 O 653.459 -0.818545 1.698 0
M  V30 6984 C 650.586 -1.11097 3.19961 0
M  V30 6985 C 649.632 -0.460557 4.24006 0
M  V30 6986 S 650.465 0.772717 5.29896 0
M  V30 6987 C 651.621 -0.264028 6.25343 0
M  V30 6988 H 651.854 0.648227 2.90147 0
M  V30 6989 H 649.387 0.451566 1.47649 0
M  V30 6990 H 651.345 -1.70452 3.73439 0
M  V30 6991 H 650.006 -1.80503 2.57056 0
M  V30 6992 H 649.199 -1.24299 4.88432 0
M  V30 6993 H 648.801 0.0591038 3.73953 0
M  V30 6994 H 651.093 -1.12748 6.68052 0
M  V30 6995 H 652.036 0.345443 7.07257 0
M  V30 6996 H 652.444 -0.603964 5.6126 0
M  V30 6997 N 651.842 -1.52309 0.404946 0
M  V30 6998 C 652.789 -2.26898 -0.422597 0
M  V30 6999 C 653.759 -1.2914 -1.04461 0
M  V30 7000 O 654.944 -1.57996 -1.06967 0
M  V30 7001 C 652.084 -3.09053 -1.53559 0
M  V30 7002 C 651.197 -4.21762 -0.934908 0
M  V30 7003 C 650.332 -4.91283 -2.02025 0
M  V30 7004 C 649.371 -5.95962 -1.39628 0
M  V30 7005 N 648.508 -6.59017 -2.42159 0
M  V30 7006 H 653.348 -2.97188 0.219903 0
M  V30 7007 H 650.885 -1.46607 0.120282 0
M  V30 7008 H 652.843 -3.54987 -2.19181 0
M  V30 7009 H 651.473 -2.40942 -2.14818 0
M  V30 7010 H 650.525 -3.80029 -0.167854 0
M  V30 7011 H 651.837 -4.96864 -0.439073 0
M  V30 7012 H 650.991 -5.40601 -2.75383 0
M  V30 7013 H 649.73 -4.15741 -2.54973 0
M  V30 7014 H 648.735 -5.45968 -0.648023 0
M  V30 7015 H 649.96 -6.73445 -0.874553 0
M  V30 7016 H 647.906 -5.86306 -2.94247 0
M  V30 7017 H 647.823 -7.2978 -1.97376 0
M  V30 7018 H 649.091 -7.12974 -3.15099 0
M  V30 7019 N 653.32 -0.135238 -1.57019 0
M  V30 7020 C 654.27 0.820408 -2.12728 0
M  V30 7021 C 655.254 1.21735 -1.05211 0
M  V30 7022 O 656.446 1.18574 -1.31413 0
M  V30 7023 C 653.575 2.06414 -2.74314 0
M  V30 7024 C 652.661 1.69083 -3.88937 0
M  V30 7025 N 653.052 1.0251 -4.95303 0
M  V30 7026 C 651.35 1.98434 -3.99425 0
M  V30 7027 C 652.051 0.846749 -5.75504 0
M  V30 7028 N 651.027 1.3769 -5.25873 0
M  V30 7029 H 654.829 0.302426 -2.9234 0
M  V30 7030 H 652.343 0.0667009 -1.62263 0
M  V30 7031 H 654.34 2.75863 -3.12579 0
M  V30 7032 H 653 2.58741 -1.96171 0
M  V30 7033 H 654.011 0.687207 -5.1332 0
M  V30 7034 H 650.688 2.52693 -3.32344 0
M  V30 7035 H 652.078 0.322949 -6.71123 0
M  V30 7036 N 654.798 1.5699 0.138552 0
M  V30 7037 C 656.209 1.73171 0.697754 0
M  V30 7038 C 656.56 0.750952 1.8126 0
M  V30 7039 O 655.685 -0.080549 2.1625 0
M  V30 7040 C 656.28 3.13996 1.27248 0
M  V30 7041 C 654.839 3.3175 1.77816 0
M  V30 7042 C 653.986 2.69084 0.669991 0
M  V30 7043 H 656.937 1.5846 -0.0871979 0
M  V30 7044 H 656.958 3.14463 2.14227 0
M  V30 7045 H 656.47 3.85354 0.460855 0
M  V30 7046 H 654.571 2.65403 2.61519 0
M  V30 7047 H 654.684 4.39768 1.90107 0
M  V30 7048 H 653.048 2.29782 1.09874 0
M  V30 7049 H 653.831 3.43053 -0.130329 0
M  V30 7050 N 656.276 -0.40816 1.52223 0
M  V30 7051 C 657.523 -1.15502 1.66329 0
M  V30 7052 C 657.851 -1.90474 0.393701 0
M  V30 7053 O 657.106 -1.85507 -0.623356 0
M  V30 7054 C 657.405 -2.17422 2.83659 0
M  V30 7055 C 657.071 -1.5925 4.21841 0
M  V30 7056 C 655.733 -1.4311 4.59427 0
M  V30 7057 C 658.085 -1.16776 5.0795 0
M  V30 7058 C 655.413 -0.830148 5.80797 0
M  V30 7059 C 657.765 -0.580988 6.29926 0
M  V30 7060 C 656.429 -0.406729 6.6626 0
M  V30 7061 H 655.699 -0.422653 0.608642 0
M  V30 7062 H 658.346 -0.442114 1.86327 0
M  V30 7063 H 656.651 -2.94861 2.58001 0
M  V30 7064 H 658.348 -2.75084 2.9177 0
M  V30 7065 H 654.938 -1.72796 3.92224 0
M  V30 7066 H 659.122 -1.28055 4.79495 0
M  V30 7067 H 654.378 -0.68316 6.07571 0
M  V30 7068 H 658.552 -0.243488 6.95974 0
M  V30 7069 H 656.179 0.0610366 7.60175 0
M  V30 7070 N 657.755 -1.42862 -0.66545 0
M  V30 7071 C 659.002 -1.4383 -1.42546 0
M  V30 7072 C 659.33 -0.0581114 -1.94413 0
M  V30 7073 O 658.585 0.935002 -1.71919 0
M  V30 7074 C 658.884 -2.4175 -2.63233 0
M  V30 7075 C 658.55 -3.87915 -2.29854 0
M  V30 7076 C 657.212 -4.27726 -2.20463 0
M  V30 7077 C 659.564 -4.80074 -2.02924 0
M  V30 7078 C 656.892 -5.57666 -1.82279 0
M  V30 7079 C 659.244 -6.10366 -1.66242 0
M  V30 7080 C 657.908 -6.49167 -1.55367 0
M  V30 7081 H 657.178 -0.52631 -0.521612 0
M  V30 7082 H 659.825 -1.75863 -0.757914 0
M  V30 7083 H 658.13 -2.03077 -3.35063 0
M  V30 7084 H 659.827 -2.39759 -3.21429 0
M  V30 7085 H 656.417 -3.564 -2.3807 0
M  V30 7086 H 660.601 -4.50097 -2.09108 0
M  V30 7087 H 655.857 -5.8658 -1.72436 0
M  V30 7088 H 660.031 -6.81258 -1.44432 0
M  V30 7089 H 657.658 -7.49761 -1.2555 0
M  V30 7090 N 659.233 0.902656 -1.29189 0
M  V30 7091 C 660.163 2.02294 -1.16616 0
M  V30 7092 C 661.144 1.6999 -0.0611175 0
M  V30 7093 O 662.329 1.9271 -0.240072 0
M  V30 7094 C 659.459 3.37018 -0.83882 0
M  V30 7095 C 658.413 3.83522 -1.89986 0
M  V30 7096 C 657.739 5.15337 -1.42589 0
M  V30 7097 C 659.039 4.04169 -3.30824 0
M  V30 7098 H 660.733 2.13071 -2.10336 0
M  V30 7099 H 658.279 1.02378 -1.01266 0
M  V30 7100 H 660.232 4.14895 -0.737584 0
M  V30 7101 H 658.956 3.26325 0.134071 0
M  V30 7102 H 657.615 3.07859 -1.99043 0
M  V30 7103 H 657.263 5.01056 -0.441759 0
M  V30 7104 H 656.963 5.47423 -2.13547 0
M  V30 7105 H 658.487 5.95758 -1.3381 0
M  V30 7106 H 659.901 4.72537 -3.24626 0
M  V30 7107 H 658.298 4.47604 -3.99713 0
M  V30 7108 H 659.368 3.08604 -3.74021 0
M  V30 7109 N 660.711 1.11618 1.11262 0
M  V30 7110 C 661.936 0.889013 1.8738 0
M  V30 7111 C 662.361 -0.555884 1.79698 0
M  V30 7112 O 661.719 -1.39272 1.16073 0
M  V30 7113 C 661.767 1.35759 3.34069 0
M  V30 7114 O 660.871 0.530499 4.08974 0
M  V30 7115 H 660.212 0.320082 0.581759 0
M  V30 7116 H 662.742 1.48611 1.40627 0
M  V30 7117 H 662.752 1.35291 3.84916 0
M  V30 7118 H 661.427 2.40973 3.38976 0
M  V30 7119 H 660.004 0.601439 3.68018 0
M  V30 7120 N 662.189 -1.289 0.906776 0
M  V30 7121 C 663.119 -2.29932 0.406659 0
M  V30 7122 C 664.1 -1.6189 -0.522061 0
M  V30 7123 O 665.285 -1.8935 -0.431283 0
M  V30 7124 C 662.415 -3.45425 -0.360366 0
M  V30 7125 C 661.369 -4.25316 0.478574 0
M  V30 7126 C 660.695 -5.33076 -0.416373 0
M  V30 7127 C 661.995 -4.92739 1.7322 0
M  V30 7128 H 663.689 -2.72013 1.25097 0
M  V30 7129 H 661.235 -1.30768 0.602977 0
M  V30 7130 H 663.188 -4.15186 -0.721029 0
M  V30 7131 H 661.912 -3.02206 -1.23852 0
M  V30 7132 H 660.571 -3.57273 0.821662 0
M  V30 7133 H 660.219 -4.86101 -1.29287 0
M  V30 7134 H 659.919 -5.8743 0.141309 0
M  V30 7135 H 661.443 -6.05686 -0.773072 0
M  V30 7136 H 662.857 -5.54898 1.44086 0
M  V30 7137 H 661.254 -5.57057 2.23175 0
M  V30 7138 H 662.324 -4.17625 2.46408 0
M  V30 7139 N 663.667 -0.670007 -1.42649 0
M  V30 7140 C 664.915 -0.18991 -2.01206 0
M  V30 7141 C 665.236 1.20617 -1.53221 0
M  V30 7142 O 664.506 1.80898 -0.751856 0
M  V30 7143 H 663.086 -0.0672189 -0.743969 0
M  V30 7144 H 665.748 -0.865442 -1.74631 0
M  V30 7145 H 664.844 -0.187481 -3.11536 0
M  V30 7146 N 665.145 1.52092 -0.413018 0
M  V30 7147 C 666.055 2.30858 0.417318 0
M  V30 7148 C 667.071 1.38746 1.05003 0
M  V30 7149 O 668.247 1.71821 1.05069 0
M  V30 7150 C 665.312 3.11756 1.51687 0
M  V30 7151 C 664.373 4.19613 0.906825 0
M  V30 7152 C 663.606 4.96644 1.95399 0
M  V30 7153 O 663.829 4.7402 3.17271 0
M  V30 7154 O 662.763 5.81385 1.55805 0
M  V30 7155 H 666.589 3.02865 -0.225028 0
M  V30 7156 H 664.174 1.48358 -0.176126 0
M  V30 7157 H 666.056 3.62122 2.15512 0
M  V30 7158 H 664.731 2.42539 2.14375 0
M  V30 7159 H 663.638 3.73385 0.231183 0
M  V30 7160 H 664.971 4.91134 0.323814 0
M  V30 7161 N 666.623 0.143563 1.56945 0
M  V30 7162 C 668.039 -0.212877 1.58174 0
M  V30 7163 C 668.239 -1.64926 1.15766 0
M  V30 7164 O 667.295 -2.37535 0.856361 0
M  V30 7165 C 668.608 0.0427573 3.0067 0
M  V30 7166 C 670.156 -0.0212221 3.12993 0
M  V30 7167 C 670.631 0.207036 4.57532 0
M  V30 7168 N 672.122 0.153845 4.62944 0
M  V30 7169 C 672.857 0.305018 5.72588 0
M  V30 7170 N 672.353 0.513722 6.90893 0
M  V30 7171 N 674.146 0.242862 5.61575 0
M  V30 7172 H 666.297 1.08148 1.82805 0
M  V30 7173 H 668.56 0.427831 0.84597 0
M  V30 7174 H 668.266 1.03672 3.36073 0
M  V30 7175 H 668.14 -0.678195 3.71053 0
M  V30 7176 H 670.527 -1.00574 2.77433 0
M  V30 7177 H 670.608 0.732004 2.45103 0
M  V30 7178 H 670.252 1.18863 4.93795 0
M  V30 7179 H 670.182 -0.566473 5.23544 0
M  V30 7180 H 672.673 -0.00294866 3.779 0
M  V30 7181 H 672.986 0.619273 7.70315 0
M  V30 7182 H 671.331 0.550001 6.9282 0
M  V30 7183 H 674.522 0.0806015 4.68031 0
M  V30 7184 H 674.695 0.364112 6.46976 0
M  V30 7185 N 668.101 -1.57061 -0.130224 0
M  V30 7186 C 669.35 -1.83446 -0.838488 0
M  V30 7187 C 669.663 -0.727468 -1.81569 0
M  V30 7188 O 670.869 -0.877394 -2.56932 0
M  V30 7189 C 669.325 -3.25201 -1.54182 0
M  V30 7190 C 668.933 -4.4388 -0.606178 0
M  V30 7191 C 670.677 -3.60844 -2.23588 0
M  V30 7192 C 668.584 -5.76661 -1.31209 0
M  V30 7193 H 667.514 -0.684185 -0.316871 0
M  V30 7194 H 670.165 -1.83273 -0.0912059 0
M  V30 7195 H 668.547 -3.1981 -2.33533 0
M  V30 7196 H 669.721 -4.60545 0.153308 0
M  V30 7197 H 668.036 -4.16395 -0.0196705 0
M  V30 7198 H 670.633 -4.57313 -2.77072 0
M  V30 7199 H 670.976 -2.87724 -3.00867 0
M  V30 7200 H 671.509 -3.67971 -1.51137 0
M  V30 7201 H 668.248 -6.52922 -0.580823 0
M  V30 7202 H 667.768 -5.63902 -2.04387 0
M  V30 7203 H 669.447 -6.20035 -1.8484 0
M  V30 7204 N 669.579 0.400081 -1.52437 0
M  V30 7205 C 670.529 1.48734 -1.72807 0
M  V30 7206 C 671.513 1.50004 -0.582032 0
M  V30 7207 O 672.705 1.55828 -0.839449 0
M  V30 7208 C 669.834 2.86568 -1.89034 0
M  V30 7209 C 668.92 2.8991 -3.09537 0
M  V30 7210 N 669.311 2.62937 -4.32086 0
M  V30 7211 C 667.609 3.21078 -3.09556 0
M  V30 7212 C 668.31 2.73079 -5.13617 0
M  V30 7213 N 667.286 3.06342 -4.49061 0
M  V30 7214 H 671.088 1.26689 -2.65193 0
M  V30 7215 H 668.602 0.607902 -1.50593 0
M  V30 7216 H 670.599 3.64834 -2.01746 0
M  V30 7217 H 669.259 3.09604 -0.978547 0
M  V30 7218 H 670.27 2.37163 -4.60406 0
M  V30 7219 H 666.947 3.49651 -2.28146 0
M  V30 7220 H 668.337 2.55863 -6.21276 0
M  V30 7221 N 671.057 1.43213 0.657864 0
M  V30 7222 C 672.004 1.48011 1.77092 0
M  V30 7223 C 672.974 0.330291 1.62783 0
M  V30 7224 O 674.159 0.536787 1.83094 0
M  V30 7225 C 671.299 1.40461 3.15222 0
M  V30 7226 C 670.412 2.65612 3.40697 0
M  V30 7227 C 669.547 2.50083 4.68649 0
M  V30 7228 C 668.586 3.70525 4.87214 0
M  V30 7229 N 667.723 3.53835 6.0642 0
M  V30 7230 H 672.563 2.43121 1.72326 0
M  V30 7231 H 670.1 1.20687 0.841013 0
M  V30 7232 H 672.058 1.34079 3.95068 0
M  V30 7233 H 670.688 0.489359 3.19069 0
M  V30 7234 H 669.74 2.82292 2.54982 0
M  V30 7235 H 671.052 3.5509 3.50303 0
M  V30 7236 H 670.206 2.41383 5.56614 0
M  V30 7237 H 668.945 1.58121 4.61356 0
M  V30 7238 H 667.95 3.79639 3.97686 0
M  V30 7239 H 669.175 4.63489 4.96341 0
M  V30 7240 H 667.121 2.64604 6.00267 0
M  V30 7241 H 667.038 4.36912 6.16963 0
M  V30 7242 H 668.306 3.48978 6.97019 0
M  V30 7243 N 672.536 -0.895792 1.29666 0
M  V30 7244 C 673.466 -2.01673 1.17688 0
M  V30 7245 C 674.447 -1.69955 0.0701317 0
M  V30 7246 O 675.632 -1.9258 0.250289 0
M  V30 7247 C 672.762 -3.36568 0.856681 0
M  V30 7248 C 671.716 -3.82509 1.92017 0
M  V30 7249 C 671.042 -5.14574 1.4532 0
M  V30 7250 C 672.342 -4.02409 3.32963 0
M  V30 7251 H 674.036 -2.11953 2.11463 0
M  V30 7252 H 671.582 -1.01839 1.01807 0
M  V30 7253 H 673.535 -4.14498 0.759577 0
M  V30 7254 H 672.259 -3.26391 -0.116763 0
M  V30 7255 H 670.918 -3.068 2.00673 0
M  V30 7256 H 670.566 -5.00815 0.468325 0
M  V30 7257 H 670.266 -5.46283 2.16447 0
M  V30 7258 H 671.79 -5.9504 1.36968 0
M  V30 7259 H 673.204 -4.70808 3.27127 0
M  V30 7260 H 671.601 -4.45478 4.02082 0
M  V30 7261 H 672.671 -3.06616 3.75652 0
M  V30 7262 N 674.014 -1.12206 -1.10668 0
M  V30 7263 C 675.425 -0.890657 -1.64086 0
M  V30 7264 C 675.776 0.575502 -1.8757 0
M  V30 7265 O 674.901 1.4394 -1.61587 0
M  V30 7266 C 675.496 -1.61029 -2.98085 0
M  V30 7267 C 674.055 -1.4251 -3.48379 0
M  V30 7268 C 673.202 -1.64778 -2.23033 0
M  V30 7269 H 676.153 -1.27718 -0.94201 0
M  V30 7270 H 676.174 -1.05993 -3.65439 0
M  V30 7271 H 675.686 -2.67735 -2.80962 0
M  V30 7272 H 673.787 -0.380497 -3.70652 0
M  V30 7273 H 673.9 -2.17959 -4.26651 0
M  V30 7274 H 672.264 -1.07171 -2.31055 0
M  V30 7275 H 673.047 -2.72776 -2.08443 0
M  V30 7276 N 675.492 1.28418 -0.913599 0
M  V30 7277 C 676.769 1.89977 -0.465619 0
M  V30 7278 C 677.149 1.82813 1.05559 0
M  V30 7279 O 676.497 1.26397 1.90358 0
M  V30 7280 C 676.707 3.34492 -0.995813 0
M  V30 7281 C 678.055 4.11468 -1.04782 0
M  V30 7282 O 679.079 3.43451 -0.944445 0
M  V30 7283 O 677.938 5.33046 -1.20518 0
M  V30 7284 H 675.032 0.813734 -0.147532 0
M  V30 7285 H 677.578 1.36786 -1.00437 0
M  V30 7286 H 676.35 3.33929 -2.03978 0
M  V30 7287 H 675.973 3.95181 -0.437878 0
M  V30 7288 N 676.97 0.677563 1.42291 0
M  V30 7289 C 678.198 0.209459 2.05837 0
M  V30 7290 C 678.613 -1.13444 1.50917 0
M  V30 7291 O 677.97 -1.70529 0.65008 0
M  V30 7292 C 678.021 0.138819 3.61233 0
M  V30 7293 O 677.742 1.42962 4.14118 0
M  V30 7294 C 679.243 -0.352449 4.41897 0
M  V30 7295 H 676.463 0.101209 0.663323 0
M  V30 7296 H 679.007 0.925077 1.8238 0
M  V30 7297 H 677.162 -0.527505 3.83792 0
M  V30 7298 H 677.576 1.3048 5.08011 0
M  V30 7299 H 679.05 -0.350778 5.50884 0
M  V30 7300 H 679.527 -1.3882 4.16684 0
M  V30 7301 H 680.133 0.282236 4.24362 0
M  V30 7302 N 678.448 -1.51871 0.421078 0
M  V30 7303 C 679.676 -2.06356 -0.14994 0
M  V30 7304 C 680.091 -1.29006 -1.37851 0
M  V30 7305 O 679.448 -0.345139 -1.79207 0
M  V30 7306 C 679.499 -3.58185 -0.488454 0
M  V30 7307 O 679.22 -4.32611 0.691341 0
M  V30 7308 C 680.721 -4.29129 -1.11191 0
M  V30 7309 H 677.941 -0.67083 -0.0151186 0
M  V30 7310 H 680.485 -1.95638 0.595476 0
M  V30 7311 H 678.64 -3.68871 -1.18376 0
M  V30 7312 H 679.054 -5.22927 0.405906 0
M  V30 7313 H 680.528 -5.36501 -1.29889 0
M  V30 7314 H 681.005 -3.86371 -2.0884 0
M  V30 7315 H 681.611 -4.22843 -0.456458 0
M  V30 7316 N 679.926 -0.151884 -1.56866 0
M  V30 7317 C 681.151 0.508044 -2.01081 0
M  V30 7318 C 681.576 1.57306 -1.03134 0
M  V30 7319 O 680.934 1.81298 -0.0078309 0
M  V30 7320 C 680.982 1.08106 -3.44014 0
M  V30 7321 O 680.086 2.19577 -3.49084 0
M  V30 7322 H 679.427 0.123757 -0.652365 0
M  V30 7323 H 681.957 -0.250055 -2.03066 0
M  V30 7324 H 681.967 1.40851 -3.82916 0
M  V30 7325 H 680.642 0.301168 -4.14808 0
M  V30 7326 H 679.219 1.88023 -3.22027 0
M  V30 7327 N 681.404 1.57128 0.121893 0
M  V30 7328 C 682.653 1.83888 0.828748 0
M  V30 7329 C 682.966 0.737087 1.81181 0
M  V30 7330 O 684.172 0.891007 2.56463 0
M  V30 7331 C 682.628 3.26014 1.52455 0
M  V30 7332 C 682.236 4.44195 0.58263 0
M  V30 7333 C 683.98 3.62025 2.21671 0
M  V30 7334 C 681.887 5.77349 1.28149 0
M  V30 7335 H 680.817 0.685856 0.313238 0
M  V30 7336 H 683.468 1.83319 0.0814851 0
M  V30 7337 H 681.85 3.21044 2.31834 0
M  V30 7338 H 683.024 4.60457 -0.177729 0
M  V30 7339 H 681.339 4.164 -0.00241228 0
M  V30 7340 H 683.936 4.58776 2.74643 0
M  V30 7341 H 684.279 2.89315 2.99337 0
M  V30 7342 H 684.812 3.68767 1.49184 0
M  V30 7343 H 681.551 6.53221 0.546189 0
M  V30 7344 H 681.071 5.64978 2.01394 0
M  V30 7345 H 682.75 6.21006 1.81549 0
M  V30 7346 N 682.882 -0.391992 1.52647 0
M  V30 7347 C 684.129 -1.13732 1.67545 0
M  V30 7348 C 684.457 -1.90045 0.413881 0
M  V30 7349 O 683.712 -1.86157 -0.603646 0
M  V30 7350 C 684.011 -2.14401 2.85949 0
M  V30 7351 C 683.677 -1.54767 4.23507 0
M  V30 7352 C 682.339 -1.38229 4.60919 0
M  V30 7353 C 684.691 -1.11382 5.0916 0
M  V30 7354 C 682.019 -0.7685 5.81645 0
M  V30 7355 C 684.371 -0.514143 6.30507 0
M  V30 7356 C 683.035 -0.33604 6.66654 0
M  V30 7357 H 682.305 -0.416174 0.613091 0
M  V30 7358 H 684.952 -0.422327 1.86785 0
M  V30 7359 H 683.257 -2.92108 2.61114 0
M  V30 7360 H 684.954 -2.71974 2.94671 0
M  V30 7361 H 681.544 -1.68626 3.94035 0
M  V30 7362 H 685.728 -1.22962 4.80826 0
M  V30 7363 H 680.984 -0.618681 6.08262 0
M  V30 7364 H 685.158 -0.169657 6.96193 0
M  V30 7365 H 682.785 0.14166 7.60068 0
M  V30 7366 N 684.36 -1.4356 -0.65026 0
M  V30 7367 C 685.323 -1.48615 -1.74489 0
M  V30 7368 C 686.323 -0.370483 -1.56474 0
M  V30 7369 O 687.513 -0.632351 -1.62317 0
M  V30 7370 C 684.645 -1.34161 -3.13391 0
M  V30 7371 H 685.838 -2.46103 -1.71387 0
M  V30 7372 H 683.391 -1.30369 -0.862186 0
M  V30 7373 H 684.126 -0.376918 -3.22102 0
M  V30 7374 H 683.911 -2.1504 -3.27872 0
M  V30 7375 H 685.401 -1.40637 -3.93206 0
M  V30 7376 N 685.838 0.888903 -1.30139 0
M  V30 7377 C 686.768 2.01046 -1.18755 0
M  V30 7378 C 687.749 1.69916 -0.0791438 0
M  V30 7379 O 688.934 1.92445 -0.260498 0
M  V30 7380 C 686.064 3.36109 -0.874518 0
M  V30 7381 C 685.018 3.81486 -1.94043 0
M  V30 7382 C 684.344 5.13796 -1.48047 0
M  V30 7383 C 685.644 4.00637 -3.35093 0
M  V30 7384 H 687.338 2.10828 -2.12584 0
M  V30 7385 H 684.884 1.01298 -1.02346 0
M  V30 7386 H 686.837 4.14089 -0.781548 0
M  V30 7387 H 685.561 3.26449 0.0994519 0
M  V30 7388 H 684.22 3.05731 -2.02297 0
M  V30 7389 H 683.868 5.0056 -0.494878 0
M  V30 7390 H 683.568 5.45127 -2.19341 0
M  V30 7391 H 685.092 5.94305 -1.40121 0
M  V30 7392 H 686.506 4.69067 -3.2962 0
M  V30 7393 H 684.903 4.43339 -4.04438 0
M  V30 7394 H 685.973 3.0462 -3.77273 0
M  V30 7395 N 687.317 1.12792 1.10072 0
M  V30 7396 C 688.264 0.79921 2.16521 0
M  V30 7397 C 689.234 -0.235726 1.64419 0
M  V30 7398 O 690.419 -0.109457 1.90486 0
M  V30 7399 C 687.559 0.264091 3.44088 0
M  V30 7400 C 686.672 1.35729 4.10124 0
M  V30 7401 C 685.807 0.781212 5.25424 0
M  V30 7402 C 684.846 1.85327 5.8337 0
M  V30 7403 N 683.983 1.29564 6.90042 0
M  V30 7404 H 688.823 1.71105 2.43981 0
M  V30 7405 H 686.36 0.854225 1.19756 0
M  V30 7406 H 688.318 -0.0642423 4.17151 0
M  V30 7407 H 686.948 -0.610901 3.16967 0
M  V30 7408 H 686 1.80234 3.34993 0
M  V30 7409 H 687.312 2.16782 4.4923 0
M  V30 7410 H 686.466 0.403769 6.05355 0
M  V30 7411 H 685.205 -0.0604686 4.87663 0
M  V30 7412 H 684.21 2.23986 5.02106 0
M  V30 7413 H 685.435 2.69824 6.23195 0
M  V30 7414 H 683.381 0.475844 6.54272 0
M  V30 7415 H 683.298 2.04271 7.2788 0
M  V30 7416 H 684.566 0.945545 7.73744 0
M  V30 7417 N 688.795 -1.27931 0.920396 0
M  V30 7418 C 689.705 -2.30824 0.419212 0
M  V30 7419 C 690.721 -1.66767 -0.496461 0
M  V30 7420 O 691.897 -1.97763 -0.38104 0
M  V30 7421 C 688.962 -3.45158 -0.326601 0
M  V30 7422 C 688.023 -4.24754 0.623098 0
M  V30 7423 C 687.256 -5.33629 -0.0872172 0
M  V30 7424 O 687.479 -5.55204 -1.30784 0
M  V30 7425 O 686.413 -5.99091 0.580875 0
M  V30 7426 H 690.239 -2.75716 1.27337 0
M  V30 7427 H 687.824 -1.32747 0.685465 0
M  V30 7428 H 689.706 -4.14716 -0.747559 0
M  V30 7429 H 688.381 -3.02336 -1.15648 0
M  V30 7430 H 687.288 -3.57759 1.09359 0
M  V30 7431 H 688.621 -4.71272 1.41998 0
M  V30 7432 N 690.273 -0.685099 -1.4193 0
M  V30 7433 C 691.522 -0.208816 -2.00616 0
M  V30 7434 C 691.835 1.19506 -1.54847 0
M  V30 7435 O 693.041 1.76826 -2.06021 0
M  V30 7436 C 691.497 -0.322446 -3.58453 0
M  V30 7437 C 691.105 -1.73102 -4.13206 0
M  V30 7438 C 692.849 0.0945979 -4.24395 0
M  V30 7439 C 690.756 -1.79687 -5.63442 0
M  V30 7440 H 689.686 -0.0743092 -0.750329 0
M  V30 7441 H 692.337 -0.851778 -1.62533 0
M  V30 7442 H 690.719 0.388588 -3.94089 0
M  V30 7443 H 691.893 -2.46997 -3.8901 0
M  V30 7444 H 690.208 -2.09682 -3.59753 0
M  V30 7445 H 692.805 0.0656937 -5.3466 0
M  V30 7446 H 693.148 1.1316 -4.00625 0
M  V30 7447 H 693.681 -0.56579 -3.93756 0
M  V30 7448 H 690.42 -2.81404 -5.92024 0
M  V30 7449 H 689.94 -1.10162 -5.89597 0
M  V30 7450 H 691.619 -1.55498 -6.28036 0
M  V30 7451 N 691.751 1.51645 -0.429126 0
M  V30 7452 C 692.683 2.25279 0.422124 0
M  V30 7453 C 693.696 1.28986 0.993299 0
M  V30 7454 O 694.885 1.54797 0.888836 0
M  V30 7455 C 691.985 2.98666 1.60162 0
M  V30 7456 C 691.158 4.2199 1.15078 0
M  V30 7457 C 690.217 4.78028 2.19946 0
M  V30 7458 O 689.243 5.40084 1.79716 0
M  V30 7459 N 690.445 4.61342 3.5234 0
M  V30 7460 H 693.21 2.98971 -0.208931 0
M  V30 7461 H 690.771 1.59838 -0.257568 0
M  V30 7462 H 692.763 3.33044 2.29922 0
M  V30 7463 H 691.333 2.28036 2.13818 0
M  V30 7464 H 690.553 3.932 0.280552 0
M  V30 7465 H 691.841 5.02037 0.826831 0
M  V30 7466 H 691.239 4.11894 3.87763 0
M  V30 7467 H 689.796 5.00104 4.18019 0
M  V30 7468 N 693.229 0.160201 1.56784 0
M  V30 7469 C 694.159 -0.770264 2.2043 0
M  V30 7470 C 695.14 -1.24736 1.15651 0
M  V30 7471 O 696.325 -1.30253 1.44041 0
M  V30 7472 C 693.455 -2.00427 2.83631 0
M  V30 7473 C 692.409 -1.66345 3.94352 0
M  V30 7474 C 691.735 -2.97119 4.4455 0
M  V30 7475 C 693.035 -0.899972 5.14488 0
M  V30 7476 H 694.729 -0.239783 2.98438 0
M  V30 7477 H 692.275 -0.113891 1.43549 0
M  V30 7478 H 694.228 -2.66012 3.26827 0
M  V30 7479 H 692.952 -2.5587 2.02973 0
M  V30 7480 H 691.611 -1.03133 3.51794 0
M  V30 7481 H 691.259 -3.5058 3.60698 0
M  V30 7482 H 690.959 -2.75073 5.19238 0
M  V30 7483 H 692.483 -3.63753 4.90425 0
M  V30 7484 H 693.897 -1.45818 5.54446 0
M  V30 7485 H 692.294 -0.778968 5.95023 0
M  V30 7486 H 693.364 0.105827 4.84785 0
M  V30 7487 N 694.707 -1.5719 -0.113559 0
M  V30 7488 C 695.639 -1.97393 -1.16484 0
M  V30 7489 C 696.652 -0.873964 -1.37352 0
M  V30 7490 O 697.841 -1.15222 -1.36331 0
M  V30 7491 C 694.941 -2.26174 -2.52386 0
M  V30 7492 C 694.114 -3.57479 -2.52046 0
M  V30 7493 C 693.173 -3.74409 -3.69735 0
M  V30 7494 O 692.199 -4.46463 -3.53071 0
M  V30 7495 N 693.401 -3.13588 -4.88511 0
M  V30 7496 H 696.166 -2.88184 -0.822814 0
M  V30 7497 H 693.727 -1.59044 -0.302769 0
M  V30 7498 H 695.719 -2.3471 -3.29687 0
M  V30 7499 H 694.289 -1.41483 -2.7875 0
M  V30 7500 H 693.509 -3.60081 -1.60421 0
M  V30 7501 H 694.797 -4.43775 -2.48881 0
M  V30 7502 H 694.195 -2.55026 -5.04953 0
M  V30 7503 H 692.752 -3.27637 -5.63469 0
M  V30 7504 N 696.185 0.383891 -1.52853 0
M  V30 7505 C 697.132 1.46924 -1.77995 0
M  V30 7506 C 698.102 1.53958 -0.623396 0
M  V30 7507 O 699.287 1.70134 -0.863657 0
M  V30 7508 C 696.427 2.84093 -1.95921 0
M  V30 7509 C 695.54 2.86171 -3.23621 0
M  V30 7510 C 694.675 4.14799 -3.31836 0
M  V30 7511 C 693.714 4.10948 -4.53639 0
M  V30 7512 N 692.851 5.31192 -4.59107 0
M  V30 7513 H 697.691 1.24786 -2.70615 0
M  V30 7514 H 695.228 0.605265 -1.34071 0
M  V30 7515 H 697.186 3.63755 -2.04299 0
M  V30 7516 H 695.816 3.04671 -1.06656 0
M  V30 7517 H 694.868 1.9885 -3.24288 0
M  V30 7518 H 696.18 2.79194 -4.13343 0
M  V30 7519 H 695.334 5.02867 -3.39425 0
M  V30 7520 H 694.073 4.24505 -2.40097 0
M  V30 7521 H 693.078 3.21268 -4.46169 0
M  V30 7522 H 694.303 4.0286 -5.467 0
M  V30 7523 H 692.249 5.41518 -3.70262 0
M  V30 7524 H 692.166 5.26311 -5.42708 0
M  V30 7525 H 693.434 6.21143 -4.70958 0
M  V30 7526 N 697.663 1.43903 0.642637 0
M  V30 7527 C 698.573 1.52349 1.78401 0
M  V30 7528 C 699.589 0.409869 1.69104 0
M  V30 7529 O 700.765 0.665548 1.90085 0
M  V30 7530 C 697.83 1.45408 3.14734 0
M  V30 7531 C 696.891 2.67528 3.35749 0
M  V30 7532 C 696.124 2.60909 4.65577 0
M  V30 7533 O 696.347 1.6627 5.45628 0
M  V30 7534 O 695.281 3.5158 4.88544 0
M  V30 7535 H 699.107 2.48752 1.7423 0
M  V30 7536 H 696.692 1.26021 0.802439 0
M  V30 7537 H 698.574 1.44019 3.96026 0
M  V30 7538 H 697.249 0.521437 3.19473 0
M  V30 7539 H 696.156 2.74487 2.5418 0
M  V30 7540 H 697.489 3.598 3.35864 0
M  V30 7541 N 699.141 -0.881989 1.30609 0
M  V30 7542 C 700.104 -1.96957 1.1722 0
M  V30 7543 C 701.104 -1.60472 0.102598 0
M  V30 7544 O 702.294 -1.70628 0.350943 0
M  V30 7545 C 699.426 -3.31463 0.796572 0
M  V30 7546 H 700.619 -2.10262 2.13846 0
M  V30 7547 H 698.172 -1.06877 1.14048 0
M  V30 7548 H 698.907 -3.23859 -0.169053 0
M  V30 7549 H 698.692 -3.59314 1.56959 0
M  V30 7550 H 700.182 -4.11233 0.72645 0
M  V30 7551 N 700.619 -1.13374 -1.09472 0
M  V30 7552 C 701.844 -0.918711 -1.85942 0
M  V30 7553 C 702.269 0.527225 -1.8056 0
M  V30 7554 O 701.627 1.37408 -1.18274 0
M  V30 7555 C 701.675 -1.41056 -3.31867 0
M  V30 7556 O 700.779 -0.595496 -4.08078 0
M  V30 7557 H 700.12 -0.329297 -0.576593 0
M  V30 7558 H 702.65 -1.50829 -1.38245 0
M  V30 7559 H 702.66 -1.41398 -3.82715 0
M  V30 7560 H 701.335 -2.46335 -3.35099 0
M  V30 7561 H 699.912 -0.659911 -3.67014 0
M  V30 7562 N 702.098 1.27442 -0.927168 0
M  V30 7563 C 703.028 2.29256 -0.443188 0
M  V30 7564 C 704.009 1.62701 0.49624 0
M  V30 7565 O 705.194 1.90013 0.401105 0
M  V30 7566 C 702.324 3.45955 0.305366 0
M  V30 7567 C 701.278 4.24501 -0.546178 0
M  V30 7568 C 700.604 5.33671 0.331512 0
M  V30 7569 C 701.904 4.89921 -1.81037 0
M  V30 7570 H 703.598 2.69988 -1.29409 0
M  V30 7571 H 701.144 1.29792 -0.623705 0
M  V30 7572 H 703.097 4.1628 0.654885 0
M  V30 7573 H 701.821 3.04138 1.19029 0
M  V30 7574 H 700.48 3.55921 -0.878398 0
M  V30 7575 H 700.128 4.88096 1.21537 0
M  V30 7576 H 699.828 5.87131 -0.234746 0
M  V30 7577 H 701.352 6.0684 0.676614 0
M  V30 7578 H 702.766 5.52536 -1.52895 0
M  V30 7579 H 701.163 5.53436 -2.32009 0
M  V30 7580 H 702.233 4.13652 -2.53021 0
M  V30 7581 N 703.576 0.692616 1.41565 0
M  V30 7582 C 704.992 0.363878 1.55397 0
M  V30 7583 C 705.192 -1.1294 1.66874 0
M  V30 7584 O 704.248 -1.91517 1.64552 0
M  V30 7585 C 705.561 1.10982 2.7947 0
M  V30 7586 C 707.109 1.09387 2.93263 0
M  V30 7587 C 707.584 1.8215 4.20221 0
M  V30 7588 N 709.075 1.79105 4.27172 0
M  V30 7589 C 709.81 2.32247 5.2426 0
M  V30 7590 N 709.306 2.93847 6.27396 0
M  V30 7591 N 711.099 2.22519 5.1618 0
M  V30 7592 H 703.25 1.66116 1.3236 0
M  V30 7593 H 705.513 0.700848 0.63837 0
M  V30 7594 H 705.219 2.1647 2.77188 0
M  V30 7595 H 705.093 0.686492 3.709 0
M  V30 7596 H 707.48 0.0472638 2.95062 0
M  V30 7597 H 707.561 1.55623 2.03015 0
M  V30 7598 H 707.205 2.86789 4.19183 0
M  V30 7599 H 707.135 1.33351 5.09436 0
M  V30 7600 H 709.626 1.34191 3.53272 0
M  V30 7601 H 709.939 3.31972 6.97864 0
M  V30 7602 H 708.284 2.97924 6.27906 0
M  V30 7603 H 711.475 1.7407 4.34531 0
M  V30 7604 H 711.648 2.64239 5.91677 0
M  V30 7605 N 705.054 -1.51416 0.437162 0
M  V30 7606 C 706.279 -2.0699 -0.130424 0
M  V30 7607 C 706.704 -1.30249 -1.35709 0
M  V30 7608 O 706.062 -0.340388 -1.78076 0
M  V30 7609 C 706.11 -3.5801 -0.43142 0
M  V30 7610 O 705.214 -3.8345 -1.5179 0
M  V30 7611 H 704.555 -0.663997 -0.00194339 0
M  V30 7612 H 707.085 -1.95029 0.618445 0
M  V30 7613 H 707.095 -4.02261 -0.681926 0
M  V30 7614 H 705.77 -4.13291 0.465137 0
M  V30 7615 H 704.347 -3.51062 -1.25737 0
M  V30 7616 N 706.532 -0.168513 -1.56696 0
M  V30 7617 C 707.757 0.486688 -2.01609 0
M  V30 7618 C 708.182 1.56203 -1.04796 0
M  V30 7619 O 707.54 1.8128 -0.0270596 0
M  V30 7620 C 707.588 1.04451 -3.45141 0
M  V30 7621 O 706.692 2.15862 -3.51393 0
M  V30 7622 H 706.033 0.116831 -0.653641 0
M  V30 7623 H 708.563 -0.271579 -2.0279 0
M  V30 7624 H 708.573 1.36782 -3.84389 0
M  V30 7625 H 707.248 0.257155 -4.15104 0
M  V30 7626 H 705.825 1.84597 -3.24004 0
M  V30 7627 N 708.01 1.57248 0.105221 0
M  V30 7628 C 709.235 1.90143 0.828264 0
M  V30 7629 C 709.66 0.761811 1.71983 0
M  V30 7630 O 709.018 -0.287086 1.79013 0
M  V30 7631 C 709.066 3.21856 1.62608 0
M  V30 7632 O 708.17 3.08732 2.7342 0
M  V30 7633 H 707.511 0.623558 0.228192 0
M  V30 7634 H 710.041 2.0443 0.0834826 0
M  V30 7635 H 710.051 3.54916 2.01243 0
M  V30 7636 H 708.726 4.0439 0.971687 0
M  V30 7637 H 707.303 2.87167 2.37886 0
M  V30 7638 N 709.488 -0.375779 1.53054 0
M  V30 7639 C 710.421 -1.48187 1.7354 0
M  V30 7640 C 711.399 -1.5177 0.583495 0
M  V30 7641 O 712.583 -1.69976 0.81488 0
M  V30 7642 C 709.71 -2.86598 1.80497 0
M  V30 7643 C 708.756 -3.00784 3.02376 0
M  V30 7644 S 709.589 -2.70601 4.62099 0
M  V30 7645 C 710.745 -4.11181 4.71891 0
M  V30 7646 H 710.978 -1.30587 2.67085 0
M  V30 7647 H 708.511 -0.569485 1.43514 0
M  V30 7648 H 710.469 -3.66353 1.85192 0
M  V30 7649 H 709.13 -3.01514 0.880217 0
M  V30 7650 H 708.323 -4.02128 3.03824 0
M  V30 7651 H 707.925 -2.28939 2.95742 0
M  V30 7652 H 710.217 -5.0529 4.51319 0
M  V30 7653 H 711.16 -4.14742 5.73929 0
M  V30 7654 H 711.568 -3.97706 4.00612 0
M  V30 7655 N 710.966 -1.44241 -0.634997 0
M  V30 7656 C 712.377 -1.41622 -1.21655 0
M  V30 7657 C 712.728 -0.129584 -1.95772 0
M  V30 7658 O 711.853 0.770225 -2.02229 0
M  V30 7659 C 712.448 -2.56557 -2.21278 0
M  V30 7660 C 711.007 -2.57145 -2.7487 0
M  V30 7661 C 710.154 -2.33354 -1.49804 0
M  V30 7662 H 713.105 -1.52878 -0.425905 0
M  V30 7663 H 713.126 -2.29089 -3.03807 0
M  V30 7664 H 712.638 -3.50186 -1.67306 0
M  V30 7665 H 710.739 -1.67447 -3.32855 0
M  V30 7666 H 710.852 -3.55507 -3.21172 0
M  V30 7667 H 709.216 -1.82372 -1.77799 0
M  V30 7668 H 709.999 -3.29092 -0.977402 0
M  V30 7669 N 712.444 0.87505 -1.31075 0
M  V30 7670 C 713.721 1.60976 -1.11113 0
M  V30 7671 C 714.101 2.08409 0.336006 0
M  V30 7672 O 713.449 1.85858 1.32924 0
M  V30 7673 C 713.659 2.77166 -2.12085 0
M  V30 7674 C 715.007 3.47254 -2.44335 0
M  V30 7675 O 716.031 2.87367 -2.10472 0
M  V30 7676 O 714.89 4.55276 -3.02301 0
M  V30 7677 H 711.984 0.707982 -0.427424 0
M  V30 7678 H 714.53 0.920957 -1.42536 0
M  V30 7679 H 713.302 2.39494 -3.09449 0
M  V30 7680 H 712.925 3.53737 -1.81538 0
M  V30 7681 N 713.922 1.13953 1.08869 0
M  V30 7682 C 715.147 0.928559 1.85452 0
M  V30 7683 C 715.572 -0.517642 1.80837 0
M  V30 7684 O 714.93 -1.36779 1.19001 0
M  V30 7685 C 714.978 1.42814 3.31114 0
M  V30 7686 O 714.082 0.617129 4.07756 0
M  V30 7687 H 713.423 0.33235 0.574839 0
M  V30 7688 H 715.953 1.5156 1.37443 0
M  V30 7689 H 715.963 1.43425 3.8196 0
M  V30 7690 H 714.638 2.48109 3.33788 0
M  V30 7691 H 713.215 0.679365 3.66659 0
M  V30 7692 N 715.4 -1.26948 0.933913 0
M  V30 7693 C 716.648 -1.93704 0.576484 0
M  V30 7694 C 716.969 -1.73702 -0.886145 0
M  V30 7695 O 716.239 -1.08838 -1.62884 0
M  V30 7696 H 714.819 -0.716812 0.210214 0
M  V30 7697 H 717.481 -1.54534 1.18766 0
M  V30 7698 H 716.577 -3.01987 0.788055 0
M  V30 7699 N 716.879 -0.700114 -1.41195 0
M  V30 7700 C 718.295 -0.372114 -1.55201 0
M  V30 7701 C 718.495 1.12053 -1.6747 0
M  V30 7702 O 717.551 1.90642 -1.65566 0
M  V30 7703 C 718.864 -1.12462 -2.78878 0
M  V30 7704 C 720.412 -1.10941 -2.92679 0
M  V30 7705 C 720.887 -1.84376 -4.19249 0
M  V30 7706 N 722.378 -1.81368 -4.26216 0
M  V30 7707 C 723.113 -2.35024 -5.23021 0
M  V30 7708 N 722.609 -2.9717 -6.25829 0
M  V30 7709 N 724.402 -2.25254 -5.14992 0
M  V30 7710 H 716.553 -1.66816 -1.31477 0
M  V30 7711 H 718.816 -0.704223 -0.634644 0
M  V30 7712 H 718.522 -2.17937 -2.76037 0
M  V30 7713 H 718.396 -0.706152 -3.70531 0
M  V30 7714 H 720.783 -0.062911 -2.95033 0
M  V30 7715 H 720.864 -1.56698 -2.02187 0
M  V30 7716 H 720.508 -2.89008 -4.17656 0
M  V30 7717 H 720.438 -1.3605 -5.08722 0
M  V30 7718 H 722.929 -1.36062 -3.52556 0
M  V30 7719 H 723.242 -3.35668 -6.96094 0
M  V30 7720 H 721.587 -3.01249 -6.26318 0
M  V30 7721 H 724.778 -1.76372 -4.33602 0
M  V30 7722 H 724.951 -2.67373 -5.90268 0
M  V30 7723 N 718.357 1.51182 -0.445186 0
M  V30 7724 C 719.768 1.86693 0.0160999 0
M  V30 7725 C 720.119 1.36183 1.4124 0
M  V30 7726 O 719.244 0.715895 2.04215 0
M  V30 7727 C 719.839 3.38781 0.0359918 0
M  V30 7728 C 718.398 3.73799 0.441715 0
M  V30 7729 C 717.545 2.74947 -0.360511 0
M  V30 7730 H 720.496 1.44294 -0.660674 0
M  V30 7731 H 720.517 3.71026 0.843813 0
M  V30 7732 H 720.029 3.75513 -0.980378 0
M  V30 7733 H 718.13 3.42659 1.4634 0
M  V30 7734 H 718.243 4.78829 0.16106 0
M  V30 7735 H 716.607 2.54047 0.182269 0
M  V30 7736 H 717.39 3.14521 -1.3759 0
M  V30 7737 N 719.835 0.176821 1.56605 0
M  V30 7738 C 720.798 -0.737429 2.17013 0
M  V30 7739 C 721.798 -1.15414 1.11965 0
M  V30 7740 O 722.988 -1.0702 1.37449 0
M  V30 7741 C 720.12 -2.00445 2.75744 0
M  V30 7742 H 721.313 -0.211455 2.99154 0
M  V30 7743 H 718.866 -0.0727582 1.56131 0
M  V30 7744 H 719.601 -2.57338 1.97352 0
M  V30 7745 H 719.386 -1.71456 3.52626 0
M  V30 7746 H 720.876 -2.65679 3.22187 0
M  V30 7747 N 721.313 -1.57302 -0.09688 0
M  V30 7748 C 722.56 -1.85997 -0.800699 0
M  V30 7749 C 722.888 -0.765089 -1.7882 0
M  V30 7750 O 722.143 0.241492 -1.94204 0
M  V30 7751 C 722.442 -3.21272 -1.56586 0
M  V30 7752 C 722.108 -4.45104 -0.72064 0
M  V30 7753 C 720.77 -4.78723 -0.487632 0
M  V30 7754 C 723.122 -5.2103 -0.132948 0
M  V30 7755 C 720.45 -5.85697 0.34296 0
M  V30 7756 C 722.802 -6.28881 0.684957 0
M  V30 7757 C 721.466 -6.61017 0.928073 0
M  V30 7758 H 720.736 -0.680613 -0.292997 0
M  V30 7759 H 723.383 -1.91399 -0.0622474 0
M  V30 7760 H 721.688 -3.11547 -2.37583 0
M  V30 7761 H 723.385 -3.40702 -2.11478 0
M  V30 7762 H 719.975 -4.18777 -0.912359 0
M  V30 7763 H 724.159 -4.95392 -0.300132 0
M  V30 7764 H 719.415 -6.09008 0.540317 0
M  V30 7765 H 723.589 -6.86886 1.14721 0
M  V30 7766 H 721.216 -7.43738 1.57348 0
M  V30 7767 N 722.791 0.367657 -1.53252 0
M  V30 7768 C 724.207 0.709191 -1.42978 0
M  V30 7769 C 724.407 1.93352 -0.567193 0
M  V30 7770 O 723.463 2.52453 -0.0488349 0
M  V30 7771 C 724.776 0.924338 -2.86141 0
M  V30 7772 C 726.324 1.02448 -2.95759 0
M  V30 7773 C 726.799 1.27211 -4.39979 0
M  V30 7774 N 728.29 1.33986 -4.43398 0
M  V30 7775 C 729.025 1.54852 -5.52095 0
M  V30 7776 N 728.521 1.73049 -6.7084 0
M  V30 7777 N 730.314 1.57205 -5.39669 0
M  V30 7778 H 722.465 -0.437669 -2.07842 0
M  V30 7779 H 724.728 -0.133737 -0.938519 0
M  V30 7780 H 724.434 0.0965455 -3.51567 0
M  V30 7781 H 724.308 1.83302 -3.29667 0
M  V30 7782 H 726.695 1.84282 -2.30487 0
M  V30 7783 H 726.776 0.0932301 -2.5563 0
M  V30 7784 H 726.42 0.458792 -5.05824 0
M  V30 7785 H 726.35 2.21654 -4.77679 0
M  V30 7786 H 728.841 1.21545 -3.5782 0
M  V30 7787 H 729.154 1.88538 -7.49449 0
M  V30 7788 H 727.499 1.70231 -6.7383 0
M  V30 7789 H 730.69 1.42555 -4.45865 0
M  V30 7790 H 730.863 1.73126 -6.24445 0
M  V30 7791 N 724.269 1.44576 0.627338 0
M  V30 7792 C 725.515 1.47777 1.38888 0
M  V30 7793 C 725.848 0.111406 1.9388 0
M  V30 7794 O 725.123 -0.87149 1.73883 0
M  V30 7795 C 725.406 2.54119 2.55138 0
M  V30 7796 C 725.259 4.00128 2.0547 0
M  V30 7797 C 726.578 2.56929 3.57317 0
M  V30 7798 H 723.697 0.538048 0.50366 0
M  V30 7799 H 726.339 1.76277 0.708978 0
M  V30 7800 H 724.489 2.29948 3.13139 0
M  V30 7801 H 726.161 4.35444 1.5227 0
M  V30 7802 H 724.404 4.11724 1.36623 0
M  V30 7803 H 725.075 4.7019 2.89181 0
M  V30 7804 H 727.551 2.78536 3.09122 0
M  V30 7805 H 726.427 3.33234 4.36173 0
M  V30 7806 H 726.688 1.6127 4.11636 0
M  V30 7807 N 725.747 -0.868086 1.31537 0
M  V30 7808 C 726.993 -1.62367 1.2151 0
M  V30 7809 C 727.326 -1.92883 -0.225819 0
M  V30 7810 O 726.601 -1.56176 -1.15927 0
M  V30 7811 C 726.884 -2.95268 2.06129 0
M  V30 7812 C 726.737 -2.71619 3.58529 0
M  V30 7813 C 728.056 -3.96391 1.91212 0
M  V30 7814 H 725.175 -0.589178 0.442762 0
M  V30 7815 H 727.817 -1.00336 1.61347 0
M  V30 7816 H 725.967 -3.4821 1.72284 0
M  V30 7817 H 727.639 -2.25334 4.0252 0
M  V30 7818 H 725.882 -2.05817 3.81866 0
M  V30 7819 H 726.553 -3.66192 4.13047 0
M  V30 7820 H 729.029 -3.52663 2.20834 0
M  V30 7821 H 727.905 -4.87263 2.52718 0
M  V30 7822 H 728.166 -4.33335 0.875953 0
M  V30 7823 N 727.225 -1.14528 -1.08264 0
M  V30 7824 C 728.502 -0.825185 -1.77342 0
M  V30 7825 C 728.882 0.681037 -1.99813 0
M  V30 7826 O 728.23 1.62234 -1.60912 0
M  V30 7827 C 728.44 -1.62556 -3.08831 0
M  V30 7828 C 729.788 -1.82585 -3.83338 0
M  V30 7829 O 730.812 -1.59254 -3.18617 0
M  V30 7830 O 729.671 -2.21598 -4.99556 0
M  V30 7831 H 726.765 -0.302531 -0.769678 0
M  V30 7832 H 729.311 -1.25056 -1.14713 0
M  V30 7833 H 728.083 -2.64862 -2.88035 0
M  V30 7834 H 727.706 -1.1959 -3.79189 0
M  V30 7835 N 728.703 1.26451 -0.940633 0
M  V30 7836 C 729.931 1.97868 -0.604642 0
M  V30 7837 C 730.346 1.70051 0.820251 0
M  V30 7838 O 729.703 0.96843 1.54686 0
M  V30 7839 C 729.754 3.51684 -0.836689 0
M  V30 7840 O 729.475 3.78533 -2.20554 0
M  V30 7841 C 730.976 4.40343 -0.511169 0
M  V30 7842 H 728.196 0.631105 -0.227919 0
M  V30 7843 H 730.74 1.60979 -1.26119 0
M  V30 7844 H 728.895 3.86736 -0.226759 0
M  V30 7845 H 729.309 4.73065 -2.26517 0
M  V30 7846 H 730.783 5.47229 -0.724157 0
M  V30 7847 H 731.26 4.35694 0.553815 0
M  V30 7848 H 731.866 4.10834 -1.0998 0
M  V30 7849 N 730.181 0.707592 1.40822 0
M  V30 7850 C 731.091 0.0507246 2.34545 0
M  V30 7851 C 732.107 -0.752727 1.56876 0
M  V30 7852 O 733.283 -0.687524 1.89302 0
M  V30 7853 C 730.348 -0.865731 3.35717 0
M  V30 7854 C 729.409 -0.0531313 4.29267 0
M  V30 7855 C 728.642 -0.925939 5.25606 0
M  V30 7856 O 728.865 -2.16531 5.27703 0
M  V30 7857 O 727.799 -0.369194 6.00767 0
M  V30 7858 H 731.625 0.823587 2.9232 0
M  V30 7859 H 729.21 0.46801 1.4188 0
M  V30 7860 H 731.092 -1.39091 3.97783 0
M  V30 7861 H 729.767 -1.61788 2.80368 0
M  V30 7862 H 728.674 0.516931 3.70511 0
M  V30 7863 H 730.007 0.660617 4.87747 0
M  V30 7864 N 731.66 -1.50943 0.453197 0
M  V30 7865 C 732.907 -2.02212 -0.107922 0
M  V30 7866 C 733.235 -1.33639 -1.41318 0
M  V30 7867 O 732.49 -0.445154 -1.9057 0
M  V30 7868 C 732.789 -3.55603 -0.357944 0
M  V30 7869 C 732.455 -4.42556 0.863427 0
M  V30 7870 C 731.117 -4.6604 1.19834 0
M  V30 7871 C 733.469 -4.93468 1.67747 0
M  V30 7872 C 730.797 -5.37681 2.34768 0
M  V30 7873 C 733.149 -5.6637 2.81793 0
M  V30 7874 C 731.813 -5.88113 3.1572 0
M  V30 7875 H 731.083 -0.739947 -0.0394916 0
M  V30 7876 H 733.73 -1.81738 0.60363 0
M  V30 7877 H 732.035 -3.74495 -1.15156 0
M  V30 7878 H 733.732 -3.92821 -0.805781 0
M  V30 7879 H 730.322 -4.24485 0.592478 0
M  V30 7880 H 734.506 -4.75194 1.43192 0
M  V30 7881 H 729.762 -5.52727 2.61348 0
M  V30 7882 H 733.936 -6.04806 3.45229 0
M  V30 7883 H 731.563 -6.43404 4.04889 0
M  V30 7884 O 733.177 -0.326351 -1.58168 0
M  V30 7885 H 733.868 0.23289 -1.92295 0
M  V30 END ATOM
M  V30 BEGIN BOND
M  V30 END BOND
M  V30 END CTAB
M  END
$$$$
