drugbank_target|Q9Y2T6 G-protein coupled receptor 55 (DB06155; DB09061; DB11755; DB14009; DB14011)
 OpenBabel12092121033D

  0  0  0     0  0            999 V3000
M  V30 BEGIN CTAB
M  V30 COUNTS 5181 5253 0 0 0
M  V30 BEGIN ATOM
M  V30 1 H -0.908 1.98254 -0.117106 0
M  V30 2 N 0 1.576 0 0
M  V30 3 C 0.933 2.03868 1.02534 0
M  V30 4 C 1.911 0.928543 1.3348 0
M  V30 5 O 3.095 1.19667 1.45644 0
M  V30 6 C 0.222 2.43627 2.35294 0
M  V30 7 C -0.732 3.65373 2.2001 0
M  V30 8 S 0.101 5.13292 1.52614 0
M  V30 9 C 1.257 5.56322 2.86805 0
M  V30 10 H 1.49 2.90518 0.631377 0
M  V30 11 H -0.977 1.52953 0.210867 0
M  V30 12 H 0.981 2.67203 3.11629 0
M  V30 13 H -0.358 1.57376 2.7183 0
M  V30 14 H -1.165 3.90944 3.18086 0
M  V30 15 H -1.563 3.418 1.51819 0
M  V30 16 H 0.729 5.58782 3.83104 0
M  V30 17 H 1.672 6.56266 2.65933 0
M  V30 18 H 2.08 4.83886 2.90714 0
M  V30 19 N 1.4781 -0.272755 1.55222 0
M  V30 20 C 2.7031 -1.02683 1.80197 0
M  V30 21 C 3.1281 -1.79142 0.573551 0
M  V30 22 O 2.4861 -1.74917 -0.476849 0
M  V30 23 C 2.5341 -1.9609 3.02624 0
M  V30 24 O 1.6381 -3.04863 2.77727 0
M  V30 25 H 0.9791 -0.293557 0.595584 0
M  V30 26 H 3.5091 -0.30159 2.02365 0
M  V30 27 H 3.5191 -2.38039 3.31363 0
M  V30 28 H 2.1941 -1.39851 3.91682 0
M  V30 29 H 0.7711 -2.67228 2.60084 0
M  V30 30 N 2.9562 -1.48159 -0.537278 0
M  V30 31 C 3.8882 -1.58218 -1.65831 0
M  V30 32 C 4.9012 -0.466948 -1.5596 0
M  V30 33 O 6.0902 -0.73747 -1.62553 0
M  V30 34 C 3.1902 -1.48906 -3.04434 0
M  V30 35 C 2.3632 -2.75343 -3.3986 0
M  V30 36 C 1.4222 -2.59588 -4.57712 0
M  V30 37 O 0.4482 -3.33457 -4.61297 0
M  V30 38 N 1.6502 -1.68724 -5.55439 0
M  V30 39 H 4.4152 -2.54891 -1.57641 0
M  V30 40 H 1.9762 -1.4479 -0.724386 0
M  V30 41 H 3.9682 -1.36072 -3.81139 0
M  V30 42 H 2.5382 -0.602368 -3.06741 0
M  V30 43 H 1.7582 -3.02795 -2.52406 0
M  V30 44 H 3.0462 -3.5924 -3.60311 0
M  V30 45 H 2.4442 -1.07898 -5.55315 0
M  V30 46 H 1.0012 -1.61832 -6.3139 0
M  V30 47 N 4.4343 0.785586 -1.36625 0
M  V30 48 C 5.3663 1.90711 -1.2713 0
M  V30 49 C 6.3793 1.61688 -0.189986 0
M  V30 50 O 7.5683 1.72864 -0.445014 0
M  V30 51 C 4.6683 3.25611 -0.939713 0
M  V30 52 C 3.8413 3.82385 -2.12369 0
M  V30 53 C 2.9003 4.95732 -1.76456 0
M  V30 54 O 1.9263 5.12047 -2.48589 0
M  V30 55 N 3.1283 5.76258 -0.700492 0
M  V30 56 H 5.8933 1.99376 -2.23762 0
M  V30 57 H 3.4543 0.964041 -1.30069 0
M  V30 58 H 5.4463 3.98937 -0.680554 0
M  V30 59 H 4.0163 3.12538 -0.0624074 0
M  V30 60 H 3.2363 3.01001 -2.54543 0
M  V30 61 H 4.5243 4.17047 -2.9146 0
M  V30 62 H 3.9223 5.65609 -0.101624 0
M  V30 63 H 2.4793 6.4987 -0.501165 0
M  V30 64 N 5.9124 1.20967 1.01018 0
M  V30 65 C 6.8604 0.961223 2.1181 0
M  V30 66 C 7.8544 -0.0897034 1.69162 0
M  V30 67 O 9.0604 0.0612271 1.79896 0
M  V30 68 H 5.4354 0.29355 0.692338 0
M  V30 69 H 7.4064 1.90178 2.29946 0
M  V30 70 C 6.1554 0.536854 3.4353 0
M  V30 71 H 5.4784 1.33713 3.76777 0
M  V30 72 H 6.9184 0.402286 4.22087 0
M  V30 73 C 5.3774 -0.751574 3.2841 0
M  V30 74 O 5.9074 -1.80841 3.58691 0
M  V30 75 N 4.1134 -0.716079 2.81639 0
M  V30 76 H 3.6604 0.144236 2.57196 0
M  V30 77 H 3.6184 -1.57847 2.71904 0
M  V30 78 N 7.3905 -1.2043 1.01659 0
M  V30 79 C 8.6185 -1.93777 0.725132 0
M  V30 80 C 9.0335 -1.74772 -0.714166 0
M  V30 81 O 8.3905 -1.06169 -1.4844 0
M  V30 82 C 8.4415 -3.45876 1.05129 0
M  V30 83 O 8.1625 -3.6426 2.43406 0
M  V30 84 C 9.6635 -4.36368 0.780891 0
M  V30 85 H 6.8835 -0.615901 0.266284 0
M  V30 86 H 9.4275 -1.52922 1.35776 0
M  V30 87 H 7.5825 -3.8461 0.464065 0
M  V30 88 H 7.9965 -4.58246 2.55169 0
M  V30 89 H 9.4705 -5.41743 1.05918 0
M  V30 90 H 9.9475 -4.38275 -0.284937 0
M  V30 91 H 10.5535 -4.03296 1.35027 0
M  V30 92 N 8.8686 -0.792821 -1.36206 0
M  V30 93 C 10.0936 -0.377701 -2.03932 0
M  V30 94 C 10.5186 0.998947 -1.59382 0
M  V30 95 O 9.8766 1.64421 -0.763903 0
M  V30 96 C 9.9246 -0.453635 -3.57735 0
M  V30 97 O 9.0286 0.538151 -4.08874 0
M  V30 98 H 8.3696 -0.159855 -0.644471 0
M  V30 99 H 10.8996 -1.07488 -1.7409 0
M  V30 100 H 10.9096 -0.318464 -4.06755 0
M  V30 101 H 9.5846 -1.45784 -3.89512 0
M  V30 102 H 8.1616 0.364359 -3.71116 0
M  V30 103 N 10.3467 1.47872 -0.545128 0
M  V30 104 C 11.5947 2.02093 -0.016553 0
M  V30 105 C 11.9157 1.42305 1.3332 0
M  V30 106 O 11.1857 0.593853 1.86682 0
M  V30 107 H 9.7657 0.746993 -0.00313038 0
M  V30 108 H 12.4277 1.81414 -0.712397 0
M  V30 109 H 11.5237 3.11996 0.0805422 0
M  V30 110 N 11.8248 0.280983 1.55075 0
M  V30 111 C 13.1018 -0.386207 1.91749 0
M  V30 112 C 13.4818 -1.73264 1.20594 0
M  V30 113 O 12.8298 -2.26034 0.334784 0
M  V30 114 C 13.0398 -0.520687 3.45094 0
M  V30 115 C 14.3878 -0.800865 4.16979 0
M  V30 116 O 15.4118 -0.605271 3.5102 0
M  V30 117 O 14.2708 -1.1753 5.33712 0
M  V30 118 H 11.3648 -0.212408 0.799257 0
M  V30 119 H 13.9108 0.327568 1.66509 0
M  V30 120 H 12.6828 0.426633 3.88967 0
M  V30 121 H 12.3058 -1.2837 3.76307 0
M  V30 122 N 13.3029 -1.57598 0.00835791 0
M  V30 123 C 14.5429 -1.92788 -0.679136 0
M  V30 124 C 14.9069 -0.883378 -1.70471 0
M  V30 125 O 16.1079 -1.12079 -2.44319 0
M  V30 126 C 14.3789 -3.32994 -1.29807 0
M  V30 127 S 15.9379 -3.90082 -2.00952 0
M  V30 128 H 12.7559 -0.67475 -0.224127 0
M  V30 129 H 15.3579 -1.95385 0.0670497 0
M  V30 130 H 14.0619 -4.06846 -0.538922 0
M  V30 131 H 13.5929 -3.33791 -2.082 0
M  V30 132 H 15.6079 -3.71834 -3.28563 0
M  V30 133 N 14.781 0.264519 -1.55364 0
M  V30 134 C 15.711 1.33121 -1.91836 0
M  V30 135 C 16.692 1.51101 -0.781192 0
M  V30 136 O 17.877 1.64003 -1.04003 0
M  V30 137 C 15.007 2.68921 -2.19769 0
M  V30 138 C 13.961 2.65661 -3.35571 0
M  V30 139 C 13.287 4.05093 -3.49004 0
M  V30 140 C 14.587 2.24187 -4.71739 0
M  V30 141 H 16.281 1.02844 -2.81182 0
M  V30 142 H 13.827 0.493286 -1.35287 0
M  V30 143 H 15.78 3.43663 -2.43872 0
M  V30 144 H 14.504 3.00799 -1.27231 0
M  V30 145 H 13.163 1.93377 -3.1145 0
M  V30 146 H 12.811 4.34206 -2.53917 0
M  V30 147 H 12.511 4.03804 -4.26868 0
M  V30 148 H 14.035 4.81561 -3.75408 0
M  V30 149 H 15.449 2.88654 -4.9533 0
M  V30 150 H 13.846 2.34044 -5.52579 0
M  V30 151 H 14.916 1.19327 -4.69988 0
M  V30 152 N 16.2591 1.48442 0.529413 0
M  V30 153 C 17.5061 1.56488 1.28521 0
M  V30 154 C 17.8341 0.239042 1.93025 0
M  V30 155 O 17.0891 -0.770713 1.79885 0
M  V30 156 C 17.3881 2.6523 2.39558 0
M  V30 157 C 17.0541 4.07648 1.92702 0
M  V30 158 C 15.7161 4.46411 1.79641 0
M  V30 159 C 18.0681 4.96896 1.573 0
M  V30 160 C 15.3961 5.72226 1.29514 0
M  V30 161 C 17.7481 6.23202 1.08636 0
M  V30 162 C 16.4121 6.60821 0.941919 0
M  V30 163 H 15.6821 0.572631 0.470292 0
M  V30 164 H 18.3291 1.82161 0.59072 0
M  V30 165 H 16.6341 2.33419 3.14679 0
M  V30 166 H 18.3311 2.68671 2.97686 0
M  V30 167 H 14.9211 3.77036 2.03819 0
M  V30 168 H 19.1051 4.67626 1.66251 0
M  V30 169 H 14.3611 6.00097 1.17019 0
M  V30 170 H 18.5351 6.91753 0.803136 0
M  V30 171 H 16.1621 7.58198 0.5513 0
M  V30 172 N 17.7372 -0.778329 1.37039 0
M  V30 173 C 19.0142 -1.52551 1.22424 0
M  V30 174 C 19.3942 -2.10288 -0.184964 0
M  V30 175 O 18.7422 -1.94953 -1.19187 0
M  V30 176 C 18.9522 -2.61164 2.31504 0
M  V30 177 C 20.3002 -3.28746 2.68721 0
M  V30 178 O 21.3242 -2.71455 2.30631 0
M  V30 179 O 20.1832 -4.3231 3.3432 0
M  V30 180 H 17.2772 -0.675343 0.477326 0
M  V30 181 H 19.8232 -0.815859 1.48801 0
M  V30 182 H 18.5952 -2.16574 3.25901 0
M  V30 183 H 18.2182 -3.39737 2.06554 0
M  V30 184 N 19.2153 -1.21501 -1.00376 0
M  V30 185 C 20.4633 -1.03095 -1.73827 0
M  V30 186 C 20.7843 0.436341 -1.90055 0
M  V30 187 O 20.0543 1.31466 -1.45236 0
M  V30 188 H 18.6343 -0.378487 -0.644016 0
M  V30 189 H 21.2963 -1.52831 -1.20949 0
M  V30 190 H 20.3923 -1.49991 -2.73695 0
M  V30 191 N 20.6934 1.19889 -1.02296 0
M  V30 192 C 21.9394 1.89701 -0.717033 0
M  V30 193 C 22.2724 1.7905 0.751989 0
M  V30 194 O 21.5474 1.17891 1.547 0
M  V30 195 C 21.8304 3.40858 -1.16136 0
M  V30 196 C 21.6834 3.60411 -2.69117 0
M  V30 197 C 23.0024 4.33876 -0.737549 0
M  V30 198 H 20.1214 0.688874 -0.261957 0
M  V30 199 H 22.7634 1.41154 -1.27183 0
M  V30 200 H 20.9134 3.82335 -0.689342 0
M  V30 201 H 22.5854 3.28145 -3.2422 0
M  V30 202 H 20.8284 3.03665 -3.0979 0
M  V30 203 H 21.4994 4.66396 -2.95261 0
M  V30 204 H 23.9754 4.00081 -1.14344 0
M  V30 205 H 22.8514 5.38242 -1.0764 0
M  V30 206 H 23.1124 4.40628 0.360436 0
M  V30 207 N 22.1715 0.800033 1.35784 0
M  V30 208 C 23.1195 0.193851 2.31791 0
M  V30 209 C 24.1135 -0.652744 1.56319 0
M  V30 210 O 25.3195 -0.546641 1.71499 0
M  V30 211 H 21.6945 0.04392 0.750716 0
M  V30 212 H 23.6655 1.01883 2.80468 0
M  V30 213 C 22.4145 -0.648338 3.41602 0
M  V30 214 H 21.7375 -0.00624665 3.998 0
M  V30 215 H 23.1775 -1.03898 4.11073 0
M  V30 216 C 21.6365 -1.8111 2.84079 0
M  V30 217 O 22.1665 -2.90825 2.77099 0
M  V30 218 N 20.3725 -1.62056 2.41218 0
M  V30 219 H 19.9195 -0.728123 2.47095 0
M  V30 220 H 19.8775 -2.40013 2.03079 0
M  V30 221 N 23.6496 -1.47581 0.552962 0
M  V30 222 C 24.5596 -2.33743 -0.200353 0
M  V30 223 C 25.5756 -1.47928 -0.916151 0
M  V30 224 O 26.7516 -1.80865 -0.885993 0
M  V30 225 C 23.8166 -3.24536 -1.21973 0
M  V30 226 C 22.8776 -4.26238 -0.511819 0
M  V30 227 C 22.1106 -5.12693 -1.48263 0
M  V30 228 O 22.3336 -5.01525 -2.71714 0
M  V30 229 O 21.2676 -5.93375 -1.00945 0
M  V30 230 H 25.0936 -2.9945 0.506304 0
M  V30 231 H 22.6786 -1.46071 0.313622 0
M  V30 232 H 24.5606 -3.80631 -1.80827 0
M  V30 233 H 23.2356 -2.61462 -1.90839 0
M  V30 234 H 22.1426 -3.73914 0.117799 0
M  V30 235 H 23.4756 -4.92014 0.135308 0
M  V30 236 N 25.1277 -0.289203 -1.54924 0
M  V30 237 C 26.0577 0.58549 -2.2604 0
M  V30 238 C 27.0387 1.14753 -1.25562 0
M  V30 239 O 28.2237 1.17906 -1.54311 0
M  V30 240 C 25.3537 1.76305 -2.99222 0
M  V30 241 C 24.3077 1.33191 -4.06748 0
M  V30 242 C 23.6337 2.5937 -4.6758 0
M  V30 243 C 24.9337 0.471775 -5.20165 0
M  V30 244 H 26.6277 -0.00763532 -2.99399 0
M  V30 245 H 24.1737 -0.00511229 -1.43999 0
M  V30 246 H 26.1267 2.38097 -3.47689 0
M  V30 247 H 24.8507 2.38223 -2.23422 0
M  V30 248 H 23.5097 0.737121 -3.59113 0
M  V30 249 H 23.1577 3.19576 -3.88433 0
M  V30 250 H 22.8577 2.31228 -5.40192 0
M  V30 251 H 24.3817 3.21985 -5.18804 0
M  V30 252 H 25.7957 0.995056 -5.64599 0
M  V30 253 H 24.1927 0.284639 -5.99425 0
M  V30 254 H 25.2627 -0.506041 -4.82252 0
M  V30 255 N 26.6058 1.57591 -0.0167156 0
M  V30 256 C 27.5388 2.04944 1.00366 0
M  V30 257 C 28.5168 0.942648 1.32487 0
M  V30 258 O 29.7008 1.21205 1.44367 0
M  V30 259 C 26.8278 2.46109 2.32697 0
M  V30 260 C 25.8738 3.67686 2.16123 0
M  V30 261 S 26.7068 5.14882 1.47161 0
M  V30 262 C 27.8628 5.59332 2.80888 0
M  V30 263 H 28.0958 2.91172 0.600528 0
M  V30 264 H 25.6288 1.53168 0.194632 0
M  V30 265 H 27.5868 2.70493 3.08778 0
M  V30 266 H 26.2478 1.6025 2.70146 0
M  V30 267 H 25.4408 3.94296 3.13922 0
M  V30 268 H 25.0428 3.43391 1.48185 0
M  V30 269 H 27.3348 5.62814 3.77156 0
M  V30 270 H 28.2778 6.5905 2.58958 0
M  V30 271 H 28.6858 4.86942 2.85565 0
M  V30 272 N 28.0839 -0.256276 1.55502 0
M  V30 273 C 29.0309 -1.31714 1.89526 0
M  V30 274 C 30.0009 -1.4828 0.748479 0
M  V30 275 O 31.1859 -1.62416 1.00128 0
M  V30 276 C 28.3259 -2.66933 2.18725 0
M  V30 277 C 27.4389 -2.58452 3.4616 0
M  V30 278 C 26.5739 -3.85961 3.64976 0
M  V30 279 C 25.6129 -3.72059 4.86044 0
M  V30 280 N 24.7499 -4.9144 5.01429 0
M  V30 281 H 29.5899 -1.01998 2.80001 0
M  V30 282 H 27.1269 -0.492413 1.38613 0
M  V30 283 H 29.0849 -3.4563 2.33657 0
M  V30 284 H 27.7149 -2.94816 1.31466 0
M  V30 285 H 26.7669 -1.71374 3.3961 0
M  V30 286 H 28.0789 -2.44085 4.34999 0
M  V30 287 H 27.2329 -4.73101 3.79816 0
M  V30 288 H 25.9719 -4.03215 2.74353 0
M  V30 289 H 24.9769 -2.83302 4.7119 0
M  V30 290 H 26.2019 -3.56309 5.78118 0
M  V30 291 H 24.1479 -5.09072 4.13741 0
M  V30 292 H 24.0649 -4.79668 5.84341 0
M  V30 293 H 25.3329 -5.80104 5.20672 0
M  V30 294 N 29.562 -1.4872 -0.521534 0
M  V30 295 C 30.79 -1.60843 -1.30142 0
M  V30 296 C 31.205 -0.271897 -1.86832 0
M  V30 297 O 30.562 0.739969 -1.66825 0
M  V30 298 C 30.613 -2.66155 -2.4463 0
M  V30 299 O 30.334 -3.94623 -1.90275 0
M  V30 300 C 31.835 -2.88795 -3.36322 0
M  V30 301 H 29.055 -0.542075 -0.395468 0
M  V30 302 H 31.599 -1.94609 -0.628285 0
M  V30 303 H 29.754 -2.35224 -3.07812 0
M  V30 304 H 30.168 -4.52468 -2.65279 0
M  V30 305 H 31.642 -3.66264 -4.12983 0
M  V30 306 H 32.119 -1.97934 -3.9207 0
M  V30 307 H 32.725 -3.21063 -2.78924 0
M  V30 308 N 31.0401 0.771051 -1.3745 0
M  V30 309 C 31.9701 1.89827 -1.3597 0
M  V30 310 C 32.9511 1.68562 -0.228216 0
M  V30 311 O 34.1361 1.8941 -0.428675 0
M  V30 312 C 31.2661 3.2712 -1.16662 0
M  V30 313 C 30.2201 3.6295 -2.2683 0
M  V30 314 C 29.5461 4.98791 -1.92644 0
M  V30 315 C 30.8461 3.69627 -3.69017 0
M  V30 316 H 32.5401 1.91323 -2.30295 0
M  V30 317 H 30.0861 0.919082 -1.10855 0
M  V30 318 H 32.0391 4.05615 -1.14256 0
M  V30 319 H 30.7631 3.26059 -0.187926 0
M  V30 320 H 29.4221 2.86763 -2.28392 0
M  V30 321 H 29.0701 4.94271 -0.933021 0
M  V30 322 H 28.7701 5.23733 -2.66416 0
M  V30 323 H 30.2941 5.79685 -1.91826 0
M  V30 324 H 31.7081 4.38273 -3.69581 0
M  V30 325 H 30.1051 4.06067 -4.41848 0
M  V30 326 H 31.1751 2.70273 -4.02592 0
M  V30 327 N 32.5182 1.22032 0.997298 0
M  V30 328 C 33.4502 0.944263 2.08845 0
M  V30 329 C 34.4632 -0.0754663 1.62625 0
M  V30 330 O 35.6522 0.157994 1.77799 0
M  V30 331 C 32.7522 0.397723 3.36558 0
M  V30 332 C 31.9252 1.47362 4.11829 0
M  V30 333 C 30.9842 0.934951 5.17827 0
M  V30 334 O 30.0102 1.62016 5.45655 0
M  V30 335 N 31.2122 -0.245895 5.79979 0
M  V30 336 H 33.9772 1.88363 2.33109 0
M  V30 337 H 31.5382 1.12661 1.16272 0
M  V30 338 H 33.5302 0.0227771 4.04694 0
M  V30 339 H 32.1002 -0.446646 3.09393 0
M  V30 340 H 31.3202 2.02208 3.38386 0
M  V30 341 H 32.6082 2.19764 4.58891 0
M  V30 342 H 32.0062 -0.819475 5.59733 0
M  V30 343 H 30.5632 -0.562272 6.4937 0
M  V30 344 N 33.9963 -1.19345 1.0293 0
M  V30 345 C 35.2433 -1.89038 0.726008 0
M  V30 346 C 35.5713 -1.79649 -0.745427 0
M  V30 347 O 34.8263 -1.18354 -1.55855 0
M  V30 348 C 35.1253 -3.39292 1.12319 0
M  V30 349 C 34.7913 -3.68885 2.59297 0
M  V30 350 C 33.4533 -3.76671 2.99453 0
M  V30 351 C 35.8053 -3.82178 3.54386 0
M  V30 352 C 33.1333 -3.9522 4.33611 0
M  V30 353 C 35.4853 -4.0224 4.88248 0
M  V30 354 C 34.1493 -4.08259 5.28092 0
M  V30 355 H 33.4193 -0.691739 0.265665 0
M  V30 356 H 36.0663 -1.41328 1.29223 0
M  V30 357 H 34.3713 -3.88903 0.475584 0
M  V30 358 H 36.0683 -3.91536 0.866037 0
M  V30 359 H 32.6583 -3.63433 2.27189 0
M  V30 360 H 36.8423 -3.75505 3.24514 0
M  V30 361 H 32.0983 -3.98119 4.64016 0
M  V30 362 H 36.2723 -4.11468 5.61843 0
M  V30 363 H 33.8993 -4.22384 6.32057 0
M  V30 364 N 35.4744 -0.807222 -1.35358 0
M  V30 365 C 36.4374 -0.223665 -2.28106 0
M  V30 366 C 37.4374 0.589354 -1.4961 0
M  V30 367 O 38.6274 0.407745 -1.69361 0
M  V30 368 C 35.7594 0.688149 -3.33882 0
M  V30 369 H 36.9524 -1.04169 -2.81227 0
M  V30 370 H 34.5054 -0.577921 -1.45223 0
M  V30 371 H 35.2404 1.52984 -2.85948 0
M  V30 372 H 35.0254 0.10687 -3.91954 0
M  V30 373 H 36.5154 1.09075 -4.03104 0
M  V30 374 N 36.9525 1.47285 -0.560781 0
M  V30 375 C 38.1985 2.02764 -0.0381184 0
M  V30 376 C 38.5315 1.43384 1.30976 0
M  V30 377 O 37.8065 0.590733 1.85312 0
M  V30 378 C 38.0895 3.60064 0.0511427 0
M  V30 379 C 37.9425 4.2987 -1.32408 0
M  V30 380 C 39.2615 4.33439 0.762795 0
M  V30 381 H 36.3805 0.736841 -0.0153264 0
M  V30 382 H 39.0225 1.75675 -0.723759 0
M  V30 383 H 37.1725 3.83274 0.635065 0
M  V30 384 H 38.8445 4.17989 -1.95148 0
M  V30 385 H 37.0875 3.90085 -1.8978 0
M  V30 386 H 37.7585 5.38478 -1.21431 0
M  V30 387 H 40.2345 4.15243 0.266965 0
M  V30 388 H 39.1105 5.43124 0.794221 0
M  V30 389 H 39.3715 4.02915 1.81966 0
M  V30 390 N 38.4306 0.297415 1.54768 0
M  V30 391 C 39.3806 -0.595275 2.20092 0
M  V30 392 C 40.3646 -1.10163 1.17273 0
M  V30 393 O 41.5566 -1.043 1.43006 0
M  V30 394 C 38.6856 -1.7684 2.94249 0
M  V30 395 C 37.7716 -1.27818 4.0438 0
M  V30 396 N 38.1626 -0.505695 5.03266 0
M  V30 397 C 36.4606 -1.55923 4.17857 0
M  V30 398 C 37.1616 -0.245094 5.81183 0
M  V30 399 N 36.1376 -0.823881 5.3732 0
M  V30 400 H 39.9396 0.00250837 2.939 0
M  V30 401 H 37.4536 0.102007 1.62079 0
M  V30 402 H 39.4506 -2.41944 3.39513 0
M  V30 403 H 38.1106 -2.36992 2.21957 0
M  V30 404 H 39.1216 -0.150928 5.1768 0
M  V30 405 H 35.7986 -2.16849 3.56767 0
M  V30 406 H 37.1886 0.375084 6.70852 0
M  V30 407 N 39.9087 -1.5758 0.0250728 0
M  V30 408 C 41.1577 -1.90811 -0.653767 0
M  V30 409 C 41.4707 -0.90273 -1.73523 0
M  V30 410 O 42.6767 -1.12614 -2.47043 0
M  V30 411 C 41.1327 -3.38804 -1.21409 0
M  V30 412 C 40.7407 -4.47692 -0.166126 0
M  V30 413 C 42.4847 -3.81108 -1.86967 0
M  V30 414 C 40.3917 -5.86779 -0.737856 0
M  V30 415 H 39.3217 -0.712063 -0.247956 0
M  V30 416 H 41.9727 -1.83281 0.0897137 0
M  V30 417 H 40.3547 -3.41252 -2.00905 0
M  V30 418 H 41.5287 -4.56797 0.606079 0
M  V30 419 H 39.8437 -4.14565 0.390466 0
M  V30 420 H 42.4407 -4.82375 -2.30692 0
M  V30 421 H 42.7837 -3.15953 -2.71071 0
M  V30 422 H 43.3167 -3.81065 -1.14167 0
M  V30 423 H 40.0557 -6.55468 0.0649577 0
M  V30 424 H 39.5757 -5.81288 -1.47864 0
M  V30 425 H 41.2547 -6.35223 -1.22884 0
M  V30 426 N 41.3868 0.248026 -1.55636 0
M  V30 427 C 42.7978 0.817177 -1.67866 0
M  V30 428 C 43.1488 1.86069 -0.622322 0
M  V30 429 O 42.2738 2.15157 0.231618 0
M  V30 430 C 42.8688 1.489 -3.04326 0
M  V30 431 C 41.4278 2.00587 -3.185 0
M  V30 432 C 40.5748 0.856573 -2.63739 0
M  V30 433 H 43.5258 0.0238579 -1.58682 0
M  V30 434 H 43.5468 2.35698 -2.98708 0
M  V30 435 H 43.0588 0.729279 -3.81186 0
M  V30 436 H 41.1598 2.79443 -2.4646 0
M  V30 437 H 41.2728 2.20402 -4.25393 0
M  V30 438 H 39.6368 1.25678 -2.21534 0
M  V30 439 H 40.4198 0.109953 -3.43124 0
M  V30 440 N 42.8649 1.48995 0.513639 0
M  V30 441 C 44.0929 1.61531 1.29288 0
M  V30 442 C 44.5079 0.281801 1.86685 0
M  V30 443 O 43.8649 -0.731111 1.67215 0
M  V30 444 C 43.9159 2.67449 2.43215 0
M  V30 445 O 43.6369 3.95626 1.88179 0
M  V30 446 C 45.1379 2.90575 3.34785 0
M  V30 447 H 42.3579 0.544165 0.392588 0
M  V30 448 H 44.9019 1.9494 0.617956 0
M  V30 449 H 43.0569 2.36853 3.0656 0
M  V30 450 H 43.4709 4.53868 2.62876 0
M  V30 451 H 44.9449 3.68449 4.11035 0
M  V30 452 H 45.4219 2.00011 3.91015 0
M  V30 453 H 46.0279 3.22538 2.77218 0
M  V30 454 N 44.343 -0.763751 1.37857 0
M  V30 455 C 45.59 -1.52257 1.33506 0
M  V30 456 C 45.918 -1.94343 -0.078022 0
M  V30 457 O 45.173 -1.64958 -1.05297 0
M  V30 458 C 45.472 -2.79499 2.22745 0
M  V30 459 C 45.138 -2.56426 3.70886 0
M  V30 460 C 43.8 -2.49842 4.11257 0
M  V30 461 C 46.152 -2.36008 4.64704 0
M  V30 462 C 43.48 -2.20841 5.43549 0
M  V30 463 C 45.832 -2.0853 5.97242 0
M  V30 464 C 44.496 -2.00396 6.36709 0
M  V30 465 H 43.766 -0.557149 0.488534 0
M  V30 466 H 46.413 -0.879073 1.70131 0
M  V30 467 H 44.718 -3.48447 1.79142 0
M  V30 468 H 46.415 -3.37413 2.16688 0
M  V30 469 H 43.005 -2.62416 3.38874 0
M  V30 470 H 47.189 -2.40079 4.34368 0
M  V30 471 H 42.445 -2.13045 5.73081 0
M  V30 472 H 46.619 -1.91732 6.69486 0
M  V30 473 H 44.246 -1.77688 7.39142 0
M  V30 474 N 45.8211 -1.22559 -0.990812 0
M  V30 475 C 47.0671 -1.05297 -1.73322 0
M  V30 476 C 47.4001 0.410655 -1.89808 0
M  V30 477 O 46.6751 1.30439 -1.44277 0
M  V30 478 C 46.9581 -1.76713 -3.13759 0
M  V30 479 C 46.8111 -3.30684 -3.04907 0
M  V30 480 C 48.1301 -1.52121 -4.12974 0
M  V30 481 H 45.2491 -0.38392 -0.629106 0
M  V30 482 H 47.8911 -1.50926 -1.15418 0
M  V30 483 H 46.0411 -1.37924 -3.63193 0
M  V30 484 H 47.7131 -3.7893 -2.63077 0
M  V30 485 H 45.9561 -3.60253 -2.41661 0
M  V30 486 H 46.6271 -3.75833 -4.04294 0
M  V30 487 H 49.1031 -1.85819 -3.72304 0
M  V30 488 H 47.9791 -2.04582 -5.0935 0
M  V30 489 H 48.2401 -0.454257 -4.3976 0
M  V30 490 N 47.2992 1.18797 -1.03562 0
M  V30 491 C 48.2292 2.24472 -0.643019 0
M  V30 492 C 49.2102 1.66433 0.351283 0
M  V30 493 O 50.3952 1.92803 0.232505 0
M  V30 494 C 47.5252 3.473 4.24935e-05 0
M  V30 495 C 46.4792 4.18055 -0.917257 0
M  V30 496 C 45.8052 5.34519 -0.138941 0
M  V30 497 C 47.1052 4.72109 -2.23407 0
M  V30 498 H 48.7992 2.57566 -1.52643 0
M  V30 499 H 46.3452 1.23806 -0.735394 0
M  V30 500 H 48.2982 4.20426 0.286383 0
M  V30 501 H 47.0222 3.13424 0.918299 0
M  V30 502 H 45.6812 3.46821 -1.1879 0
M  V30 503 H 45.3292 4.96891 0.781562 0
M  V30 504 H 45.0292 5.82794 -0.750005 0
M  V30 505 H 46.5532 6.10438 0.1405 0
M  V30 506 H 47.9672 5.36955 -2.00879 0
M  V30 507 H 46.3642 5.30897 -2.79765 0
M  V30 508 H 47.4342 3.89807 -2.88407 0
M  V30 509 N 48.7773 0.814389 1.34928 0
M  V30 510 C 50.0253 0.397636 1.9815 0
M  V30 511 C 50.3463 -1.04069 1.64908 0
M  V30 512 O 49.6163 -1.72121 0.93548 0
M  V30 513 H 48.1963 0.144043 0.732981 0
M  V30 514 H 50.8583 1.04195 1.6471 0
M  V30 515 H 49.9543 0.509688 3.0791 0
M  V30 516 N 50.2554 -1.46986 0.568584 0
M  V30 517 C 51.1854 -2.32946 -0.160753 0
M  V30 518 C 52.1664 -1.44487 -0.897631 0
M  V30 519 O 53.3514 -1.73327 -0.875867 0
M  V30 520 C 50.4814 -3.26494 -1.18403 0
M  V30 521 C 49.4354 -4.24282 -0.562895 0
M  V30 522 C 48.7614 -5.07236 -1.69163 0
M  V30 523 C 50.0614 -5.19989 0.490761 0
M  V30 524 H 51.7554 -2.94175 0.556916 0
M  V30 525 H 49.3014 -1.4146 0.26927 0
M  V30 526 H 51.2544 -3.85477 -1.70251 0
M  V30 527 H 49.9784 -2.63343 -1.93179 0
M  V30 528 H 48.6374 -3.66541 -0.0656164 0
M  V30 529 H 48.2854 -4.4048 -2.42871 0
M  V30 530 H 47.9854 -5.7345 -1.28174 0
M  V30 531 H 49.5094 -5.6908 -2.21314 0
M  V30 532 H 50.9234 -5.73271 0.0579047 0
M  V30 533 H 49.3204 -5.94469 0.820165 0
M  V30 534 H 50.3904 -4.64777 1.3824 0
M  V30 535 N 51.7335 -0.305618 -1.54608 0
M  V30 536 C 52.6635 0.561482 -2.26649 0
M  V30 537 C 53.6445 1.13415 -1.26772 0
M  V30 538 O 54.8295 1.16262 -1.55553 0
M  V30 539 C 51.9595 1.73122 -3.01075 0
M  V30 540 C 50.9135 1.2887 -4.08138 0
M  V30 541 C 50.2395 2.54396 -4.70305 0
M  V30 542 C 51.5395 0.416578 -5.20636 0
M  V30 543 H 53.2335 -0.0393902 -2.99374 0
M  V30 544 H 50.7795 -0.020385 -1.43986 0
M  V30 545 H 52.7325 2.34396 -3.50195 0
M  V30 546 H 51.4565 2.3584 -2.25936 0
M  V30 547 H 50.1155 0.698991 -3.59875 0
M  V30 548 H 49.7635 3.15439 -3.918 0
M  V30 549 H 49.4635 2.25486 -5.42614 0
M  V30 550 H 50.9875 3.16464 -5.2219 0
M  V30 551 H 52.4015 0.935116 -5.65622 0
M  V30 552 H 50.7985 0.221046 -5.99693 0
M  V30 553 H 51.8685 -0.557162 -4.81688 0
M  V30 554 N 53.2116 1.57565 -0.0334293 0
M  V30 555 C 54.1416 2.13511 0.945265 0
M  V30 556 C 55.1226 1.05231 1.33643 0
M  V30 557 O 56.3076 1.33084 1.41429 0
M  V30 558 C 53.4376 2.6657 2.22616 0
M  V30 559 C 52.3916 3.79676 1.97561 0
M  V30 560 C 51.7176 4.1918 3.31952 0
M  V30 561 C 53.0176 5.0557 1.31135 0
M  V30 562 H 54.7116 2.95538 0.479325 0
M  V30 563 H 52.2576 1.42166 0.229115 0
M  V30 564 H 54.2106 3.04344 2.91466 0
M  V30 565 H 52.9346 1.8171 2.71384 0
M  V30 566 H 51.5936 3.42347 1.31127 0
M  V30 567 H 51.2416 3.31296 3.78487 0
M  V30 568 H 50.9416 4.95402 3.15992 0
M  V30 569 H 52.4656 4.59541 4.02063 0
M  V30 570 H 53.8796 5.40903 1.89992 0
M  V30 571 H 52.2766 5.86818 1.25559 0
M  V30 572 H 53.3466 4.84062 0.284894 0
M  V30 573 N 54.6897 -0.239769 1.55765 0
M  V30 574 C 55.6377 -1.31668 1.91745 0
M  V30 575 C 56.6317 -1.49462 0.797338 0
M  V30 576 O 57.8377 -1.50852 0.982021 0
M  V30 577 H 54.2127 -0.441048 0.609082 0
M  V30 578 H 56.1837 -0.985923 2.81642 0
M  V30 579 C 54.9327 -2.66368 2.2348 0
M  V30 580 H 54.2557 -2.53478 3.09175 0
M  V30 581 H 55.6957 -3.40578 2.52553 0
M  V30 582 C 54.1547 -3.20002 1.05359 0
M  V30 583 O 54.6847 -4.00538 0.305261 0
M  V30 584 N 52.8907 -2.78126 0.842292 0
M  V30 585 H 52.4377 -2.12742 1.45253 0
M  V30 586 H 52.3957 -3.14354 0.053652 0
M  V30 587 N 56.1678 -1.49265 -0.50573 0
M  V30 588 C 57.0978 -1.68495 -1.61653 0
M  V30 589 C 58.0788 -0.53366 -1.61512 0
M  V30 590 O 59.2638 -0.76897 -1.78327 0
M  V30 591 C 56.3938 -1.74709 -3.00157 0
M  V30 592 C 55.3478 -2.89581 -3.15162 0
M  V30 593 C 54.6738 -2.80903 -4.5497 0
M  V30 594 C 55.9738 -4.30578 -2.95634 0
M  V30 595 H 57.6678 -2.61493 -1.45814 0
M  V30 596 H 55.2138 -1.25838 -0.70005 0
M  V30 597 H 57.1668 -1.86748 -3.77761 0
M  V30 598 H 55.8908 -0.783067 -3.17074 0
M  V30 599 H 54.5498 -2.77136 -2.39982 0
M  V30 600 H 54.1978 -1.82419 -4.68756 0
M  V30 601 H 53.8978 -3.57999 -4.65951 0
M  V30 602 H 55.4218 -2.94944 -5.34641 0
M  V30 603 H 56.8358 -4.4373 -3.63011 0
M  V30 604 H 55.2328 -5.0886 -3.18091 0
M  V30 605 H 56.3028 -4.45352 -1.91806 0
M  V30 606 N 57.6459 0.756429 -1.3826 0
M  V30 607 C 58.5759 1.88374 -1.37976 0
M  V30 608 C 59.5569 1.68311 -0.246082 0
M  V30 609 O 60.7419 1.88944 -0.44874 0
M  V30 610 C 57.8719 3.25864 -1.20125 0
M  V30 611 C 56.8259 3.60523 -2.30666 0
M  V30 612 C 56.1519 4.9672 -1.97923 0
M  V30 613 C 57.4519 3.65692 -3.72916 0
M  V30 614 H 59.1459 1.88869 -2.32312 0
M  V30 615 H 56.6919 0.907272 -1.11824 0
M  V30 616 H 58.6449 4.0438 -1.18552 0
M  V30 617 H 57.3689 3.25841 -0.222498 0
M  V30 618 H 56.0279 2.84324 -2.3142 0
M  V30 619 H 55.6759 4.93253 -0.985393 0
M  V30 620 H 55.3759 5.20878 -2.71955 0
M  V30 621 H 56.8999 5.77618 -1.97964 0
M  V30 622 H 58.3139 4.34328 -3.74208 0
M  V30 623 H 56.7109 4.01358 -4.4613 0
M  V30 624 H 57.7809 2.65987 -4.05436 0
M  V30 625 N 59.124 1.23083 0.984299 0
M  V30 626 C 60.087 1.00979 2.05757 0
M  V30 627 C 61.087 -0.0269573 1.60777 0
M  V30 628 O 62.277 0.212403 1.729 0
M  V30 629 C 59.409 0.527072 3.36801 0
M  V30 630 H 60.602 1.9622 2.26799 0
M  V30 631 H 58.155 1.05072 1.15714 0
M  V30 632 H 58.89 -0.429294 3.21446 0
M  V30 633 H 58.675 1.27515 3.70786 0
M  V30 634 H 60.165 0.392942 4.15747 0
M  V30 635 N 60.6021 -1.18246 1.0419 0
M  V30 636 C 61.8511 -1.87588 0.741194 0
M  V30 637 C 62.1641 -1.81303 -0.734066 0
M  V30 638 O 63.3701 -2.46019 -1.14834 0
M  V30 639 C 61.8261 -3.36538 1.27555 0
M  V30 640 C 61.4341 -3.51349 2.77953 0
M  V30 641 C 63.1781 -4.11273 1.05143 0
M  V30 642 C 61.0851 -4.94265 3.2474 0
M  V30 643 H 60.0151 -0.702622 0.273565 0
M  V30 644 H 62.6661 -1.33601 1.25789 0
M  V30 645 H 61.0481 -3.9 0.686703 0
M  V30 646 H 62.2221 -3.08153 3.42605 0
M  V30 647 H 60.5371 -2.90022 2.98791 0
M  V30 648 H 63.1341 -5.16689 1.37611 0
M  V30 649 H 63.4771 -4.16298 -0.0112774 0
M  V30 650 H 64.0101 -3.63987 1.60495 0
M  V30 651 H 60.7491 -4.94408 4.30396 0
M  V30 652 H 60.2691 -5.38172 2.64823 0
M  V30 653 H 61.9481 -5.62987 3.18834 0
M  V30 654 N 62.0802 -0.821533 -1.34494 0
M  V30 655 C 63.0302 -0.214793 -2.26986 0
M  V30 656 C 64.0142 0.620125 -1.4847 0
M  V30 657 O 65.2062 0.474933 -1.70509 0
M  V30 658 C 62.3352 0.623566 -3.37589 0
M  V30 659 C 61.4212 -0.221904 -4.23519 0
M  V30 660 N 61.8122 -1.29223 -4.89014 0
M  V30 661 C 60.1102 -0.00600922 -4.46 0
M  V30 662 C 60.8112 -1.80965 -5.52835 0
M  V30 663 N 59.7872 -1.11376 -5.32068 0
M  V30 664 H 63.5892 -1.03354 -2.75128 0
M  V30 665 H 61.1032 -0.6642 -1.48196 0
M  V30 666 H 63.1002 1.0744 -4.02818 0
M  V30 667 H 61.7602 1.44049 -2.90998 0
M  V30 668 H 62.7712 -1.67502 -4.90065 0
M  V30 669 H 59.4482 0.77886 -4.10171 0
M  V30 670 H 60.8382 -2.70502 -6.15043 0
M  V30 671 N 63.5583 1.46682 -0.576371 0
M  V30 672 C 64.8063 2.02013 -0.0594163 0
M  V30 673 C 65.1273 1.45101 1.30271 0
M  V30 674 O 64.3973 0.633317 1.8538 0
M  V30 675 H 62.9773 0.746759 -0.0189745 0
M  V30 676 H 65.6393 1.79862 -0.750717 0
M  V30 677 H 64.7353 3.12097 0.014345 0
M  V30 678 N 65.0364 0.313813 1.54444 0
M  V30 679 C 66.2834 -0.291675 2.00388 0
M  V30 680 C 66.6114 -1.52904 1.2021 0
M  V30 681 O 65.8664 -1.93833 0.269707 0
M  V30 682 C 66.1654 -0.680386 3.50864 0
M  V30 683 C 65.8314 0.456699 4.48581 0
M  V30 684 C 64.4934 0.768824 4.75018 0
M  V30 685 C 66.8454 1.22098 5.06697 0
M  V30 686 C 64.1734 1.84812 5.56831 0
M  V30 687 C 66.5254 2.29029 5.89685 0
M  V30 688 C 65.1894 2.60834 6.14428 0
M  V30 689 H 64.4594 -0.106732 0.733273 0
M  V30 690 H 67.1064 0.43557 1.86481 0
M  V30 691 H 65.4114 -1.48791 3.62448 0
M  V30 692 H 67.1084 -1.16026 3.83847 0
M  V30 693 H 63.6984 0.203337 4.28117 0
M  V30 694 H 67.8824 0.993096 4.86263 0
M  V30 695 H 63.1384 2.09912 5.74236 0
M  V30 696 H 67.3124 2.887 6.33739 0
M  V30 697 H 64.9394 3.44596 6.77612 0
M  V30 698 N 66.5145 -1.57545 0.0417849 0
M  V30 699 C 67.7395 -1.97035 -0.647455 0
M  V30 700 C 68.1645 -0.918775 -1.64135 0
M  V30 701 O 67.5225 0.119006 -1.80909 0
M  V30 702 C 67.5705 -3.35609 -1.31905 0
M  V30 703 O 66.6745 -3.3287 -2.43457 0
M  V30 704 H 66.0155 -0.64211 -0.169086 0
M  V30 705 H 68.5455 -2.04318 0.107399 0
M  V30 706 H 68.5555 -3.72126 -1.67291 0
M  V30 707 H 67.2305 -4.11685 -0.590586 0
M  V30 708 H 65.8075 -3.08087 -2.10088 0
M  V30 709 N 67.9926 0.231505 -1.5589 0
M  V30 710 C 69.2206 0.974505 -1.82513 0
M  V30 711 C 69.6356 1.78344 -0.619591 0
M  V30 712 O 68.9926 1.77792 0.411848 0
M  V30 713 C 69.0436 1.90007 -3.07538 0
M  V30 714 O 68.7646 1.12385 -4.2344 0
M  V30 715 C 70.2656 2.75779 -3.47075 0
M  V30 716 H 67.4856 0.286065 -0.606966 0
M  V30 717 H 70.0296 0.249739 -2.02969 0
M  V30 718 H 68.1846 2.57891 -2.89086 0
M  V30 719 H 68.5986 1.75125 -4.944 0
M  V30 720 H 70.0726 3.36443 -4.37619 0
M  V30 721 H 70.5496 3.47672 -2.68367 0
M  V30 722 H 71.1556 2.13323 -3.67931 0
M  V30 723 N 69.4707 1.49531 0.497807 0
M  V30 724 C 70.7177 1.59179 1.25173 0
M  V30 725 C 71.0457 0.279932 1.92475 0
M  V30 726 O 70.3007 -0.732383 1.81479 0
M  V30 727 C 70.5997 2.70252 2.33878 0
M  V30 728 C 70.2657 4.11644 1.84012 0
M  V30 729 C 68.9277 4.50121 1.70132 0
M  V30 730 C 71.2797 5.00121 1.46725 0
M  V30 731 C 68.6077 5.74845 1.17348 0
M  V30 732 C 70.9597 6.25366 0.95392 0
M  V30 733 C 69.6237 6.6267 0.801538 0
M  V30 734 H 68.8937 0.582478 0.45804 0
M  V30 735 H 71.5407 1.83373 0.551948 0
M  V30 736 H 69.8457 2.40041 3.09657 0
M  V30 737 H 71.5427 2.74925 2.9192 0
M  V30 738 H 68.1327 3.81274 1.95775 0
M  V30 739 H 72.3167 4.71048 1.56294 0
M  V30 740 H 67.5727 6.02444 1.04264 0
M  V30 741 H 71.7467 6.93301 0.656225 0
M  V30 742 H 69.3737 7.59197 0.390351 0
M  V30 743 N 70.9488 -0.749086 1.3866 0
M  V30 744 C 71.8788 -1.8764 1.38973 0
M  V30 745 C 72.8598 -1.68178 0.255004 0
M  V30 746 O 74.0448 -1.88704 0.458754 0
M  V30 747 C 71.1748 -3.25222 1.21851 0
M  V30 748 C 70.1288 -3.59295 2.32575 0
M  V30 749 C 69.4548 -4.95663 2.00555 0
M  V30 750 C 70.7548 -3.63709 3.7485 0
M  V30 751 H 72.4488 -1.87635 2.3331 0
M  V30 752 H 69.9948 -0.901329 1.12303 0
M  V30 753 H 71.9478 -4.03746 1.20695 0
M  V30 754 H 70.6718 -3.25719 0.239775 0
M  V30 755 H 69.3308 -2.83093 2.32925 0
M  V30 756 H 68.9788 -4.92724 1.01154 0
M  V30 757 H 68.6788 -5.19429 2.74714 0
M  V30 758 H 70.2028 -5.7656 2.01024 0
M  V30 759 H 71.6168 -4.32338 3.76506 0
M  V30 760 H 70.0138 -3.98986 4.48252 0
M  V30 761 H 71.0838 -2.63834 4.06841 0
M  V30 762 N 72.4269 -1.23603 -0.977757 0
M  V30 763 C 73.3739 -1.01954 -2.07061 0
M  V30 764 C 74.3439 0.0638697 -1.65977 0
M  V30 765 O 75.5289 -0.0887624 -1.90593 0
M  V30 766 C 72.6689 -0.619658 -3.39491 0
M  V30 767 C 71.7819 -1.77547 -3.93829 0
M  V30 768 C 70.9169 -1.32212 -5.14484 0
M  V30 769 C 69.9559 -2.44852 -5.60994 0
M  V30 770 N 69.0929 -2.00456 -6.72876 0
M  V30 771 H 73.9329 -1.95495 -2.24913 0
M  V30 772 H 71.4699 -0.973861 -1.10247 0
M  V30 773 H 73.4279 -0.368898 -4.15566 0
M  V30 774 H 72.0579 0.278752 -3.21594 0
M  V30 775 H 71.1099 -2.14016 -3.14486 0
M  V30 776 H 72.4219 -2.62219 -4.24314 0
M  V30 777 H 71.5759 -1.02965 -5.97899 0
M  V30 778 H 70.3149 -0.445808 -4.85658 0
M  V30 779 H 69.3199 -2.74871 -4.76157 0
M  V30 780 H 70.5449 -3.33024 -5.91837 0
M  V30 781 H 68.4909 -1.15208 -6.45804 0
M  V30 782 H 68.4079 -2.78687 -7.02759 0
M  V30 783 H 69.6759 -1.7432 -7.59758 0
M  V30 784 N 73.905 1.17692 -1.04816 0
M  V30 785 C 74.853 2.23632 -0.63966 0
M  V30 786 C 75.847 1.6601 0.337219 0
M  V30 787 O 77.053 1.78844 0.203693 0
M  V30 788 H 73.428 0.727949 -0.188665 0
M  V30 789 H 75.399 2.55387 -1.54337 0
M  V30 790 C 74.148 3.4769 -0.0264051 0
M  V30 791 H 73.471 3.92331 -0.769164 0
M  V30 792 H 74.911 4.23418 0.222098 0
M  V30 793 C 73.37 3.13807 1.22584 0
M  V30 794 O 73.9 3.28236 2.31569 0
M  V30 795 N 72.106 2.68065 1.12202 0
M  V30 796 H 71.653 2.56525 0.235133 0
M  V30 797 H 71.611 2.45767 1.96076 0
M  V30 798 N 75.3831 0.828654 1.34056 0
M  V30 799 C 76.7991 0.515135 1.51058 0
M  V30 800 C 76.9991 -0.959581 1.77184 0
M  V30 801 O 76.0551 -1.74382 1.82612 0
M  V30 802 C 77.3681 1.37963 2.67183 0
M  V30 803 C 78.9161 1.37735 2.81066 0
M  V30 804 C 79.3911 2.22645 4.00241 0
M  V30 805 N 80.8821 2.203 4.07458 0
M  V30 806 C 81.6171 2.82744 4.98842 0
M  V30 807 N 81.1131 3.54201 5.9541 0
M  V30 808 N 82.9061 2.72268 4.91759 0
M  V30 809 H 75.0571 1.78343 1.15358 0
M  V30 810 H 77.3201 0.760304 0.566252 0
M  V30 811 H 77.0261 2.42714 2.54525 0
M  V30 812 H 76.9001 1.0484 3.62338 0
M  V30 813 H 79.2871 0.337593 2.93163 0
M  V30 814 H 79.3681 1.74859 1.86703 0
M  V30 815 H 79.0121 3.26674 3.88905 0
M  V30 816 H 78.9421 1.82869 4.93829 0
M  V30 817 H 81.4331 1.68327 3.38341 0
M  V30 818 H 81.7461 3.9908 6.61782 0
M  V30 819 H 80.0911 3.58308 5.95517 0
M  V30 820 H 83.2821 2.16014 4.15278 0
M  V30 821 H 83.4551 3.21219 5.62781 0
M  V30 822 N 76.8612 -1.46375 0.584142 0
M  V30 823 C 78.1072 -2.03248 0.0787103 0
M  V30 824 C 78.4622 -1.44737 -1.26763 0
M  V30 825 O 77.7552 -0.603625 -1.81843 0
M  V30 826 C 77.9492 -3.57373 -0.0439342 0
M  V30 827 C 77.7782 -4.30831 1.28897 0
M  V30 828 C 76.5482 -4.69683 1.8635 0
M  V30 829 C 78.7462 -4.64278 2.21248 0
M  V30 830 N 76.7282 -5.27898 3.13365 0
M  V30 831 C 78.0992 -5.23078 3.32851 0
M  V30 832 C 80.1542 -4.46209 2.20911 0
M  V30 833 C 78.8572 -5.65715 4.44251 0
M  V30 834 C 80.8832 -4.89864 3.31341 0
M  V30 835 C 80.2452 -5.48736 4.41665 0
M  V30 836 H 76.3442 -0.778714 0.0716144 0
M  V30 837 H 78.9282 -1.78509 0.777355 0
M  V30 838 H 77.0992 -3.81823 -0.711749 0
M  V30 839 H 78.8312 -4.00892 -0.553881 0
M  V30 840 H 75.5862 -4.52488 1.39826 0
M  V30 841 H 76.0102 -5.61525 3.78178 0
M  V30 842 H 80.6522 -4.00027 1.36888 0
M  V30 843 H 78.3702 -6.10875 5.29015 0
M  V30 844 H 81.9562 -4.77634 3.322 0
M  V30 845 H 80.8362 -5.81898 5.25704 0
M  V30 846 N 78.3393 -0.321999 -1.54275 0
M  V30 847 C 79.7503 0.166384 -1.85957 0
M  V30 848 C 80.1013 1.51747 -1.24367 0
M  V30 849 O 79.2263 2.09317 -0.549124 0
M  V30 850 C 79.8213 0.308681 -3.37391 0
M  V30 851 C 78.3803 0.741286 -3.69028 0
M  V30 852 C 77.5273 -0.137937 -2.76957 0
M  V30 853 H 80.4783 -0.542335 -1.49146 0
M  V30 854 H 80.4993 1.13984 -3.63026 0
M  V30 855 H 80.0113 -0.674809 -3.82188 0
M  V30 856 H 78.1123 1.73458 -3.29762 0
M  V30 857 H 78.2253 0.546118 -4.75977 0
M  V30 858 H 76.5893 0.386251 -2.51754 0
M  V30 859 H 77.3723 -1.11816 -3.2458 0
M  V30 860 N 79.8174 1.5752 -0.0501392 0
M  V30 861 C 81.0944 1.83996 0.663685 0
M  V30 862 C 81.4744 0.938339 1.89099 0
M  V30 863 O 80.8224 -0.00087759 2.285 0
M  V30 864 C 81.0324 3.33702 1.02196 0
M  V30 865 C 82.3804 4.00691 1.40469 0
M  V30 866 O 83.4044 3.38321 1.11433 0
M  V30 867 O 82.2634 5.10658 1.94654 0
M  V30 868 H 79.3574 0.759385 0.32751 0
M  V30 869 H 81.9034 1.69514 -0.0794238 0
M  V30 870 H 80.6754 3.91015 0.149364 0
M  V30 871 H 80.2984 3.53368 1.82255 0
M  V30 872 N 81.2955 -0.223234 1.56011 0
M  V30 873 C 82.5255 -0.963413 1.82762 0
M  V30 874 C 82.9335 -1.78516 0.626804 0
M  V30 875 O 82.2765 -1.78974 -0.414014 0
M  V30 876 C 82.3385 -1.93126 3.0322 0
M  V30 877 C 82.0025 -1.2942 4.38291 0
M  V30 878 C 82.9995 -0.684916 5.15369 0
M  V30 879 C 80.6845 -1.30647 4.85012 0
M  V30 880 C 82.6785 -0.0963971 6.37327 0
M  V30 881 C 80.3655 -0.71411 6.06913 0
M  V30 882 C 81.3635 -0.110123 6.82911 0
M  V30 883 O 81.0515 0.47303 8.02507 0
M  V30 884 H 80.7835 -0.288011 0.611576 0
M  V30 885 H 83.3375 -0.244103 2.03944 0
M  V30 886 H 81.5675 -2.68952 2.77852 0
M  V30 887 H 83.2565 -2.53685 3.16857 0
M  V30 888 H 84.0225 -0.667774 4.80381 0
M  V30 889 H 79.9015 -1.76598 4.25833 0
M  V30 890 H 83.4455 0.375657 6.96588 0
M  V30 891 H 79.3425 -0.728659 6.41374 0
M  V30 892 H 80.1105 0.367186 8.17676 0
M  V30 893 N 82.7736 -1.49793 -0.48987 0
M  V30 894 C 83.7366 -1.66752 -1.57246 0
M  V30 895 C 84.7366 -0.538867 -1.51502 0
M  V30 896 O 85.9266 -0.805545 -1.54456 0
M  V30 897 C 83.0586 -1.67528 -2.96896 0
M  V30 898 H 84.2516 -2.63321 -1.43534 0
M  V30 899 H 81.8046 -1.38992 -0.714914 0
M  V30 900 H 82.5396 -0.725837 -3.16073 0
M  V30 901 H 82.3246 -2.49504 -3.02473 0
M  V30 902 H 83.8146 -1.82667 -3.7553 0
M  V30 903 N 84.2517 0.741722 -1.39055 0
M  V30 904 C 85.2147 1.83733 -1.37021 0
M  V30 905 C 86.2147 1.58542 -0.268534 0
M  V30 906 O 87.4047 1.66067 -0.526076 0
M  V30 907 C 84.5367 3.2141 -1.13617 0
M  V30 908 H 85.7297 1.86941 -2.34506 0
M  V30 909 H 83.2827 0.944676 -1.24521 0
M  V30 910 H 84.0177 3.23865 -0.167863 0
M  V30 911 H 83.8027 3.4109 -1.93391 0
M  V30 912 H 85.2927 4.01477 -1.14918 0
M  V30 913 N 85.7298 1.2412 0.971189 0
M  V30 914 C 86.9578 1.10575 1.74874 0
M  V30 915 C 87.3728 -0.342017 1.85676 0
M  V30 916 O 86.7298 -1.23617 1.34258 0
M  V30 917 C 86.7808 1.73579 3.171 0
M  V30 918 O 86.5018 3.12695 3.06844 0
M  V30 919 C 88.0028 1.65598 4.11208 0
M  V30 920 H 85.2228 0.386504 0.548503 0
M  V30 921 H 87.7668 1.64156 1.21955 0
M  V30 922 H 85.9218 1.24009 3.67016 0
M  V30 923 H 86.3358 3.43412 3.96445 0
M  V30 924 H 87.8098 2.1437 5.08674 0
M  V30 925 H 88.2868 0.616532 4.34851 0
M  V30 926 H 88.8928 2.14578 3.67201 0
M  V30 927 N 87.2079 -1.17134 1.05439 0
M  V30 928 C 88.4329 -1.91913 0.786396 0
M  V30 929 C 88.8579 -1.7643 -0.652234 0
M  V30 930 O 88.2159 -1.08372 -1.45345 0
M  V30 931 C 88.2639 -3.40921 1.17497 0
M  V30 932 O 87.3679 -4.11244 0.308589 0
M  V30 933 H 86.7089 -0.598215 0.288158 0
M  V30 934 H 89.2389 -1.48457 1.4079 0
M  V30 935 H 89.2489 -3.91668 1.14281 0
M  V30 936 H 87.9239 -3.5151 2.22292 0
M  V30 937 H 86.5009 -3.70731 0.40157 0
M  V30 938 N 88.686 -0.835752 -1.33615 0
M  V30 939 C 89.935 -0.426289 -1.97144 0
M  V30 940 C 90.248 1.01912 -1.66953 0
M  V30 941 O 91.454 1.53311 -2.24072 0
M  V30 942 C 89.91 -0.711321 -3.52801 0
M  V30 943 C 89.518 -2.1712 -3.91871 0
M  V30 944 C 91.262 -0.368654 -4.22896 0
M  V30 945 C 89.169 -2.40044 -5.40493 0
M  V30 946 H 88.099 -0.15567 -0.737755 0
M  V30 947 H 90.75 -1.0239 -1.52278 0
M  V30 948 H 89.132 -0.0433766 -3.95976 0
M  V30 949 H 90.306 -2.87936 -3.59763 0
M  V30 950 H 88.621 -2.47654 -3.34749 0
M  V30 951 H 91.218 -0.517601 -5.32189 0
M  V30 952 H 91.561 0.688078 -4.10574 0
M  V30 953 H 92.094 -0.991702 -3.8524 0
M  V30 954 H 88.833 -3.44271 -5.57815 0
M  V30 955 H 88.353 -1.73785 -5.74072 0
M  V30 956 H 90.032 -2.23042 -6.0734 0
M  V30 957 N 90.1641 1.46063 -0.591896 0
M  V30 958 C 91.3941 2.06418 -0.0867676 0
M  V30 959 C 91.8021 1.43975 1.22751 0
M  V30 960 O 91.1451 0.542531 1.75506 0
M  V30 961 C 91.2071 3.59213 0.143725 0
M  V30 962 C 90.8711 4.439 -1.08635 0
M  V30 963 C 91.8681 4.79864 -2.00067 0
M  V30 964 C 89.5531 4.84896 -1.31077 0
M  V30 965 C 91.5471 5.55661 -3.12282 0
M  V30 966 C 89.2341 5.6045 -2.43596 0
M  V30 967 C 90.2321 5.95747 -3.34027 0
M  V30 968 O 89.9201 6.69772 -4.4459 0
M  V30 969 H 89.6521 0.673443 -0.0587447 0
M  V30 970 H 92.2061 1.88539 -0.814994 0
M  V30 971 H 90.4361 3.75433 0.926668 0
M  V30 972 H 92.1251 4.01463 0.5985 0
M  V30 973 H 92.8911 4.48763 -1.83947 0
M  V30 974 H 88.7701 4.56867 -0.61594 0
M  V30 975 H 92.3141 5.8313 -3.82891 0
M  V30 976 H 88.2111 5.90965 -2.59674 0
M  V30 977 H 88.9791 6.88207 -4.43073 0
M  V30 978 N 91.6422 0.330177 1.54103 0
M  V30 979 C 92.5752 -0.575477 2.20825 0
M  V30 980 C 93.5532 -1.11064 1.18758 0
M  V30 981 O 94.7372 -1.17341 1.47524 0
M  V30 982 C 91.8642 -1.79032 2.87516 0
M  V30 983 C 90.9102 -1.38581 4.03358 0
M  V30 984 S 91.7432 -0.416911 5.33875 0
M  V30 985 C 92.8992 -1.63889 6.04062 0
M  V30 986 H 93.1322 -0.00872114 2.97299 0
M  V30 987 H 90.6652 0.114254 1.53977 0
M  V30 988 H 92.6232 -2.48734 3.2656 0
M  V30 989 H 91.2842 -2.32827 2.10832 0
M  V30 990 H 90.4772 -2.29123 4.48908 0
M  V30 991 H 90.0792 -0.768419 3.66021 0
M  V30 992 H 92.3712 -2.57536 6.26643 0
M  V30 993 H 93.3142 -1.22542 6.97416 0
M  V30 994 H 93.7222 -1.82887 5.34053 0
M  V30 995 N 93.1203 -1.57491 0.0584922 0
M  V30 996 C 94.3693 -1.92155 -0.613146 0
M  V30 997 C 94.6823 -0.939334 -1.71569 0
M  V30 998 O 95.8883 -1.17829 -2.44599 0
M  V30 999 C 94.3443 -3.41303 -1.14195 0
M  V30 1000 C 93.9523 -4.47944 -0.0711265 0
M  V30 1001 C 95.6963 -3.84988 -1.78841 0
M  V30 1002 C 93.6033 -5.88212 -0.613225 0
M  V30 1003 H 92.5333 -0.717162 -0.232796 0
M  V30 1004 H 95.1843 -1.83049 0.12857 0
M  V30 1005 H 93.5663 -3.45437 -1.93621 0
M  V30 1006 H 94.7403 -4.55408 0.702836 0
M  V30 1007 H 93.0553 -4.13644 0.478313 0
M  V30 1008 H 95.6523 -4.87159 -2.20408 0
M  V30 1009 H 95.9953 -3.21632 -2.64308 0
M  V30 1010 H 96.5283 -3.83401 -1.06059 0
M  V30 1011 H 93.2673 -6.55183 0.203978 0
M  V30 1012 H 92.7873 -5.84294 -1.35501 0
M  V30 1013 H 94.4663 -6.37687 -1.09383 0
M  V30 1014 N 94.5984 0.214957 -1.56127 0
M  V30 1015 C 95.5464 1.28601 -1.93816 0
M  V30 1016 C 96.5404 1.48175 -0.821016 0
M  V30 1017 O 97.7464 1.49271 -1.0059 0
M  V30 1018 H 94.1214 0.431302 -0.616022 0
M  V30 1019 H 96.0924 0.940991 -2.83175 0
M  V30 1020 C 94.8414 2.62779 -2.27689 0
M  V30 1021 H 94.1644 2.48527 -3.13168 0
M  V30 1022 H 95.6044 3.36517 -2.57939 0
M  V30 1023 C 94.0634 3.18285 -1.10436 0
M  V30 1024 O 94.5934 4.00002 -0.368945 0
M  V30 1025 N 92.7994 2.7675 -0.886433 0
M  V30 1026 H 92.3464 2.10404 -1.48619 0
M  V30 1027 H 92.3044 3.14229 -0.103656 0
M  V30 1028 N 96.0765 1.50051 0.48192 0
M  V30 1029 C 97.0065 1.71046 1.58951 0
M  V30 1030 C 97.9875 0.559288 1.60642 0
M  V30 1031 O 99.1725 0.797243 1.77081 0
M  V30 1032 C 96.3025 1.79462 2.97339 0
M  V30 1033 C 95.2565 2.94558 3.10515 0
M  V30 1034 C 94.5825 2.88105 4.50444 0
M  V30 1035 C 95.8825 4.35227 2.88747 0
M  V30 1036 H 97.5765 2.6378 1.41635 0
M  V30 1037 H 95.1225 1.26936 0.679942 0
M  V30 1038 H 97.0755 1.92734 3.74742 0
M  V30 1039 H 95.7995 0.833412 3.15788 0
M  V30 1040 H 94.4585 2.80918 2.35543 0
M  V30 1041 H 94.1065 1.89853 4.65795 0
M  V30 1042 H 93.8065 3.65366 4.60197 0
M  V30 1043 H 95.3305 3.03412 5.29881 0
M  V30 1044 H 96.7445 4.49449 3.55905 0
M  V30 1045 H 95.1415 5.13856 3.09955 0
M  V30 1046 H 96.2115 4.48347 1.84696 0
M  V30 1047 N 97.5546 -0.734337 1.39446 0
M  V30 1048 C 98.5176 -1.83004 1.37994 0
M  V30 1049 C 99.5176 -1.58397 0.276938 0
M  V30 1050 O 100.708 -1.65785 0.534875 0
M  V30 1051 C 97.8396 -3.20802 1.1532 0
M  V30 1052 H 99.0326 -1.85694 2.35494 0
M  V30 1053 H 96.5856 -0.938059 1.25021 0
M  V30 1054 H 97.3206 -3.23772 0.185036 0
M  V30 1055 H 97.1056 -3.4006 1.95197 0
M  V30 1056 H 98.5956 -4.00862 1.17046 0
M  V30 1057 N 99.0327 -1.24633 -0.964593 0
M  V30 1058 C 100.279 -1.08949 -1.71049 0
M  V30 1059 C 100.612 0.370302 -1.90637 0
M  V30 1060 O 99.8867 1.27349 -1.47011 0
M  V30 1061 C 100.17 -1.83329 -3.0994 0
M  V30 1062 C 100.023 -3.37077 -2.97824 0
M  V30 1063 C 101.342 -1.60846 -4.09654 0
M  V30 1064 H 98.4607 -0.397178 -0.620821 0
M  V30 1065 H 101.103 -1.5334 -1.12191 0
M  V30 1066 H 99.2527 -1.45597 -3.60186 0
M  V30 1067 H 100.925 -3.84425 -2.5498 0
M  V30 1068 H 99.1677 -3.65298 -2.33965 0
M  V30 1069 H 99.8387 -3.84324 -3.96231 0
M  V30 1070 H 102.315 -1.93674 -3.68279 0
M  V30 1071 H 101.191 -2.1534 -5.04896 0
M  V30 1072 H 101.452 -0.547434 -4.38698 0
M  V30 1073 N 100.511 1.16574 -1.06058 0
M  V30 1074 C 101.758 1.87047 -0.775873 0
M  V30 1075 C 102.086 1.81562 0.697534 0
M  V30 1076 O 101.341 1.22445 1.52662 0
M  V30 1077 C 101.64 3.36195 -1.21275 0
M  V30 1078 C 101.306 3.6188 -2.68986 0
M  V30 1079 C 99.9678 3.68599 -3.09335 0
M  V30 1080 C 102.32 3.72648 -3.64394 0
M  V30 1081 C 99.6478 3.83584 -4.43937 0
M  V30 1082 C 102 3.89154 -4.98741 0
M  V30 1083 C 100.664 3.94114 -5.3873 0
M  V30 1084 H 99.9338 0.684452 -0.283912 0
M  V30 1085 H 102.581 1.37853 -1.32925 0
M  V30 1086 H 100.886 3.87505 -0.578528 0
M  V30 1087 H 102.583 3.89103 -0.969542 0
M  V30 1088 H 99.1728 3.57281 -2.36744 0
M  V30 1089 H 103.357 3.66769 -3.34356 0
M  V30 1090 H 98.6128 3.85677 -4.74409 0
M  V30 1091 H 102.787 3.96427 -5.72554 0
M  V30 1092 H 100.414 4.05478 -6.43033 0
M  V30 1093 N 101.989 0.842826 1.3317 0
M  V30 1094 C 103.266 0.362216 1.92217 0
M  V30 1095 C 103.646 -1.15289 1.76838 0
M  V30 1096 O 102.994 -1.96914 1.15919 0
M  V30 1097 C 103.204 0.813495 3.39387 0
M  V30 1098 C 104.552 0.823804 4.16532 0
M  V30 1099 O 105.576 0.757358 3.48055 0
M  V30 1100 O 104.435 0.915193 5.38782 0
M  V30 1101 H 101.529 0.103317 0.820521 0
M  V30 1102 H 104.075 0.928942 1.42017 0
M  V30 1103 H 102.847 1.85624 3.4447 0
M  V30 1104 H 102.47 0.223561 3.96971 0
M  V30 1105 N 103.467 -1.45747 0.599634 0
M  V30 1106 C 104.397 -2.33235 -0.111306 0
M  V30 1107 C 105.378 -1.46359 -0.866781 0
M  V30 1108 O 106.563 -1.75146 -0.838904 0
M  V30 1109 C 103.693 -3.28932 -1.11451 0
M  V30 1110 C 102.647 -4.25381 -0.472772 0
M  V30 1111 C 101.973 -5.1071 -1.58365 0
M  V30 1112 C 103.273 -5.18831 0.600948 0
M  V30 1113 H 104.967 -2.92927 0.61919 0
M  V30 1114 H 102.513 -1.40857 0.299215 0
M  V30 1115 H 104.466 -3.89002 -1.62036 0
M  V30 1116 H 103.19 -2.67381 -1.8755 0
M  V30 1117 H 101.849 -3.66598 0.0121472 0
M  V30 1118 H 101.497 -4.45533 -2.33473 0
M  V30 1119 H 101.197 -5.7604 -1.15982 0
M  V30 1120 H 102.721 -5.73647 -2.09194 0
M  V30 1121 H 104.135 -5.73019 0.179491 0
M  V30 1122 H 102.532 -5.92595 0.946076 0
M  V30 1123 H 103.602 -4.6174 1.48068 0
M  V30 1124 N 104.945 -0.338344 -1.53925 0
M  V30 1125 C 105.875 0.51328 -2.27789 0
M  V30 1126 C 106.856 1.107 -1.29149 0
M  V30 1127 O 108.041 1.12937 -1.57984 0
M  V30 1128 C 105.171 1.66697 -3.04679 0
M  V30 1129 C 104.125 1.20183 -4.1078 0
M  V30 1130 C 103.451 2.44363 -4.75595 0
M  V30 1131 C 104.751 0.30605 -5.21403 0
M  V30 1132 H 106.445 -0.102883 -2.99223 0
M  V30 1133 H 103.991 -0.0509219 -1.4391 0
M  V30 1134 H 105.944 2.26915 -3.55088 0
M  V30 1135 H 104.668 2.30995 -2.30887 0
M  V30 1136 H 103.327 0.622499 -3.61276 0
M  V30 1137 H 102.975 3.07057 -3.98403 0
M  V30 1138 H 102.675 2.13925 -5.47275 0
M  V30 1139 H 104.199 3.05317 -5.28786 0
M  V30 1140 H 105.613 0.814929 -5.67478 0
M  V30 1141 H 104.01 0.0937929 -6.00027 0
M  V30 1142 H 105.08 -0.65921 -4.80398 0
M  V30 1143 N 106.423 1.57458 -0.0668435 0
M  V30 1144 C 107.353 2.15468 0.899764 0
M  V30 1145 C 108.334 1.08042 1.31381 0
M  V30 1146 O 109.519 1.36054 1.38574 0
M  V30 1147 C 106.649 2.71232 2.16911 0
M  V30 1148 C 105.603 3.83781 1.89463 0
M  V30 1149 C 104.929 4.26127 3.22986 0
M  V30 1150 C 106.229 5.08238 1.20381 0
M  V30 1151 H 107.923 2.96488 0.416529 0
M  V30 1152 H 105.469 1.4262 0.198908 0
M  V30 1153 H 107.422 3.10458 2.84945 0
M  V30 1154 H 106.146 1.87426 2.67468 0
M  V30 1155 H 104.805 3.45051 1.23836 0
M  V30 1156 H 104.453 3.39249 3.71374 0
M  V30 1157 H 104.153 5.01993 3.05413 0
M  V30 1158 H 105.677 4.67966 3.92225 0
M  V30 1159 H 107.091 5.44811 1.78475 0
M  V30 1160 H 105.488 5.89349 1.13083 0
M  V30 1161 H 106.558 4.84558 0.182153 0
M  V30 1162 N 107.901 -0.206675 1.56239 0
M  V30 1163 C 109.147 -0.930218 1.80208 0
M  V30 1164 C 109.48 -1.83387 0.638981 0
M  V30 1165 O 108.755 -1.91119 -0.361066 0
M  V30 1166 C 109.038 -1.75641 3.1436 0
M  V30 1167 C 108.891 -0.878257 4.41142 0
M  V30 1168 C 110.21 -2.73129 3.45092 0
M  V30 1169 H 107.329 -0.336742 0.655571 0
M  V30 1170 H 109.971 -0.198222 1.88963 0
M  V30 1171 H 108.121 -2.38048 3.07027 0
M  V30 1172 H 109.793 -0.269787 4.6051 0
M  V30 1173 H 108.036 -0.184385 4.33408 0
M  V30 1174 H 108.707 -1.49106 5.3148 0
M  V30 1175 H 111.183 -2.20856 3.52649 0
M  V30 1176 H 110.059 -3.28028 4.40101 0
M  V30 1177 H 110.32 -3.51606 2.68003 0
M  V30 1178 N 109.379 -1.50304 -0.473955 0
M  V30 1179 C 110.309 -1.71886 -1.58042 0
M  V30 1180 C 111.29 -0.567799 -1.60344 0
M  V30 1181 O 112.475 -0.806623 -1.76656 0
M  V30 1182 C 109.605 -1.81036 -2.96384 0
M  V30 1183 C 108.559 -2.962 -3.08949 0
M  V30 1184 C 107.885 -2.9049 -4.48909 0
M  V30 1185 C 109.185 -4.36752 -2.86434 0
M  V30 1186 H 110.879 -2.64527 -1.40234 0
M  V30 1187 H 108.425 -1.27295 -0.673201 0
M  V30 1188 H 110.378 -1.94719 -3.73714 0
M  V30 1189 H 109.102 -0.850147 -3.15341 0
M  V30 1190 H 107.761 -2.82164 -2.3405 0
M  V30 1191 H 107.409 -1.92321 -4.64781 0
M  V30 1192 H 107.109 -3.67802 -4.58253 0
M  V30 1193 H 108.633 -3.06218 -5.28264 0
M  V30 1194 H 110.047 -4.5133 -3.53517 0
M  V30 1195 H 108.444 -5.15493 -3.07225 0
M  V30 1196 H 109.514 -4.49321 -1.82316 0
M  V30 1197 N 110.857 0.726932 -1.39834 0
M  V30 1198 C 112.082 1.52121 -1.40976 0
M  V30 1199 C 112.507 1.88098 -0.00826029 0
M  V30 1200 O 111.865 1.52479 0.980807 0
M  V30 1201 C 111.913 2.78021 -2.29644 0
M  V30 1202 O 111.017 3.74272 -1.73188 0
M  V30 1203 H 110.358 0.45908 -0.479731 0
M  V30 1204 H 112.888 0.896207 -1.83927 0
M  V30 1205 H 112.898 3.26671 -2.44438 0
M  V30 1206 H 111.573 2.51169 -3.31492 0
M  V30 1207 H 110.15 3.33073 -1.6768 0
M  V30 1208 N 112.336 1.25143 0.95797 0
M  V30 1209 C 113.266 1.07711 2.07173 0
M  V30 1210 C 114.247 -0.0128462 1.70095 0
M  V30 1211 O 115.432 0.156061 1.93572 0
M  V30 1212 C 112.562 0.691503 3.40346 0
M  V30 1213 C 111.516 1.73132 3.9142 0
M  V30 1214 C 110.842 1.20049 5.21049 0
M  V30 1215 C 112.142 3.1294 4.1817 0
M  V30 1216 H 113.836 2.00873 2.22014 0
M  V30 1217 H 111.382 0.967191 1.06684 0
M  V30 1218 H 113.335 0.556505 4.17709 0
M  V30 1219 H 112.059 -0.275819 3.25433 0
M  V30 1220 H 110.718 1.8547 3.16222 0
M  V30 1221 H 110.366 0.223499 5.02503 0
M  V30 1222 H 110.066 1.89545 5.56189 0
M  V30 1223 H 111.59 1.07782 6.01012 0
M  V30 1224 H 113.004 3.03775 4.86203 0
M  V30 1225 H 111.401 3.79875 4.64559 0
M  V30 1226 H 112.471 3.6025 3.24573 0
M  V30 1227 N 113.814 -1.1601 1.06675 0
M  V30 1228 C 115.225 -1.68235 0.809565 0
M  V30 1229 C 115.576 -1.8454 -0.666303 0
M  V30 1230 O 114.701 -1.54374 -1.5165 0
M  V30 1231 C 115.296 -3.05585 1.46299 0
M  V30 1232 C 113.855 -3.54915 1.25349 0
M  V30 1233 C 113.002 -2.30804 1.53703 0
M  V30 1234 H 115.953 -1.00318 1.22971 0
M  V30 1235 H 115.974 -3.70174 0.880431 0
M  V30 1236 H 115.486 -2.93686 2.53713 0
M  V30 1237 H 113.587 -3.72067 0.199261 0
M  V30 1238 H 113.7 -4.36774 1.9689 0
M  V30 1239 H 112.064 -2.36007 0.957739 0
M  V30 1240 H 112.847 -2.21499 2.62284 0
M  V30 1241 N 115.292 -0.849877 -1.32721 0
M  V30 1242 C 116.539 -0.450923 -1.97416 0
M  V30 1243 C 116.867 0.992376 -1.67279 0
M  V30 1244 O 116.122 1.71048 -0.950845 0
M  V30 1245 C 116.421 -0.631272 -3.51781 0
M  V30 1246 C 116.087 -2.04432 -4.01894 0
M  V30 1247 C 114.749 -2.4308 -4.1529 0
M  V30 1248 C 117.101 -2.96679 -4.28522 0
M  V30 1249 C 114.429 -3.73257 -4.52654 0
M  V30 1250 C 116.781 -4.26349 -4.67343 0
M  V30 1251 C 115.445 -4.64939 -4.78945 0
M  V30 1252 H 114.715 -0.165004 -0.722395 0
M  V30 1253 H 117.362 -1.07901 -1.58207 0
M  V30 1254 H 115.667 0.0800767 -3.91718 0
M  V30 1255 H 117.364 -0.302709 -3.99856 0
M  V30 1256 H 113.954 -1.73419 -3.91949 0
M  V30 1257 H 118.138 -2.68054 -4.17685 0
M  V30 1258 H 113.394 -4.02946 -4.59831 0
M  V30 1259 H 117.568 -4.97895 -4.86902 0
M  V30 1260 H 115.195 -5.65855 -5.07654 0
M  V30 1261 N 116.77 1.45427 -0.607355 0
M  V30 1262 C 117.717 2.3053 0.111625 0
M  V30 1263 C 118.687 1.4209 0.860216 0
M  V30 1264 O 119.872 1.71019 0.845998 0
M  V30 1265 C 117.012 3.26992 1.10319 0
M  V30 1266 C 116.125 4.30535 0.355493 0
M  V30 1267 C 115.26 5.14105 1.33676 0
M  V30 1268 C 114.299 6.09376 0.576862 0
M  V30 1269 N 113.436 6.85727 1.5074 0
M  V30 1270 H 118.276 2.91477 -0.620093 0
M  V30 1271 H 115.813 1.43631 -0.317594 0
M  V30 1272 H 117.771 3.81385 1.6912 0
M  V30 1273 H 116.401 2.67799 1.80232 0
M  V30 1274 H 115.453 3.78805 -0.348023 0
M  V30 1275 H 116.765 4.98235 -0.237423 0
M  V30 1276 H 115.919 5.72897 1.99684 0
M  V30 1277 H 114.658 4.46423 1.9636 0
M  V30 1278 H 113.663 5.49715 -0.0968519 0
M  V30 1279 H 114.888 6.79085 -0.0449341 0
M  V30 1280 H 112.834 6.20735 2.12189 0
M  V30 1281 H 112.751 7.49778 0.967913 0
M  V30 1282 H 114.019 7.4906 2.15706 0
M  V30 1283 N 118.248 0.346503 1.53744 0
M  V30 1284 C 119.181 -0.552023 2.21423 0
M  V30 1285 C 120.159 -1.09798 1.19929 0
M  V30 1286 O 121.343 -1.1577 1.4876 0
M  V30 1287 C 118.47 -1.75972 2.89398 0
M  V30 1288 C 117.516 -1.34295 4.04805 0
M  V30 1289 S 118.349 -0.360263 5.34287 0
M  V30 1290 C 119.505 -1.57473 6.05767 0
M  V30 1291 H 119.738 0.0228119 2.97291 0
M  V30 1292 H 117.271 0.130579 1.53847 0
M  V30 1293 H 119.229 -2.45256 3.2918 0
M  V30 1294 H 117.89 -2.30578 2.1329 0
M  V30 1295 H 117.083 -2.24349 4.51313 0
M  V30 1296 H 116.685 -0.729555 3.66815 0
M  V30 1297 H 118.977 -2.50875 6.29339 0
M  V30 1298 H 119.92 -1.15138 6.98676 0
M  V30 1299 H 120.328 -1.77212 5.35963 0
M  V30 1300 N 119.726 -1.57421 0.075193 0
M  V30 1301 C 120.972 -1.93905 -0.594025 0
M  V30 1302 C 121.305 -0.955701 -1.69056 0
M  V30 1303 O 120.58 0.0145373 -1.94495 0
M  V30 1304 C 120.863 -3.40638 -1.1678 0
M  V30 1305 C 120.716 -4.49733 -0.0776792 0
M  V30 1306 C 122.035 -3.88259 -2.07228 0
M  V30 1307 H 119.154 -0.705105 -0.214466 0
M  V30 1308 H 121.796 -1.8947 0.141854 0
M  V30 1309 H 119.946 -3.44549 -1.79494 0
M  V30 1310 H 121.618 -4.57942 0.555573 0
M  V30 1311 H 119.861 -4.29751 0.591286 0
M  V30 1312 H 120.532 -5.49549 -0.519603 0
M  V30 1313 H 123.008 -3.86376 -1.54445 0
M  V30 1314 H 121.884 -4.91533 -2.44308 0
M  V30 1315 H 122.145 -3.26396 -2.98191 0
M  V30 1316 N 121.204 0.198386 -1.56346 0
M  V30 1317 C 122.134 1.24865 -1.9731 0
M  V30 1318 C 123.115 1.47651 -0.844576 0
M  V30 1319 O 124.3 1.59444 -1.10866 0
M  V30 1320 C 121.43 2.59358 -2.30977 0
M  V30 1321 C 120.384 2.5119 -3.46537 0
M  V30 1322 C 119.71 3.89926 -3.65871 0
M  V30 1323 C 121.01 2.03977 -4.80823 0
M  V30 1324 H 122.704 0.908252 -2.85291 0
M  V30 1325 H 120.25 0.435462 -1.37258 0
M  V30 1326 H 122.203 3.33011 -2.58228 0
M  V30 1327 H 120.927 2.95132 -1.39874 0
M  V30 1328 H 119.586 1.79993 -3.19371 0
M  V30 1329 H 119.234 4.23046 -2.72105 0
M  V30 1330 H 118.934 3.85336 -4.4361 0
M  V30 1331 H 120.458 4.65205 -3.95495 0
M  V30 1332 H 121.872 2.67386 -5.07127 0
M  V30 1333 H 120.269 2.10397 -5.62008 0
M  V30 1334 H 121.339 0.992861 -4.74626 0
M  V30 1335 N 122.682 1.50554 0.465978 0
M  V30 1336 C 123.907 1.65838 1.24549 0
M  V30 1337 C 124.332 0.343486 1.84937 0
M  V30 1338 O 123.69 -0.69324 1.67523 0
M  V30 1339 C 123.738 2.75533 2.32624 0
M  V30 1340 O 122.842 2.37142 3.37398 0
M  V30 1341 H 122.183 0.553893 0.366194 0
M  V30 1342 H 124.713 1.96959 0.553927 0
M  V30 1343 H 124.723 2.98763 2.77857 0
M  V30 1344 H 123.398 3.70962 1.88043 0
M  V30 1345 H 121.975 2.24377 2.97841 0
M  V30 1346 N 124.16 -0.719506 1.40217 0
M  V30 1347 C 125.092 -1.84428 1.36084 0
M  V30 1348 C 126.105 -1.60597 0.266913 0
M  V30 1349 O 127.294 -1.70544 0.526983 0
M  V30 1350 C 124.394 -3.20757 1.094 0
M  V30 1351 C 123.567 -3.71817 2.30372 0
M  V30 1352 C 122.626 -4.86748 1.99907 0
M  V30 1353 O 121.652 -4.99603 2.72737 0
M  V30 1354 N 122.854 -5.7226 0.974635 0
M  V30 1355 H 125.619 -1.88473 2.33019 0
M  V30 1356 H 123.18 -0.900885 1.3452 0
M  V30 1357 H 125.172 -3.95235 0.870116 0
M  V30 1358 H 123.742 -3.11884 0.211452 0
M  V30 1359 H 122.962 -2.88514 2.68614 0
M  V30 1360 H 124.25 -4.02666 3.11026 0
M  V30 1361 H 123.648 -5.6448 0.371368 0
M  V30 1362 H 122.205 -6.46739 0.810656 0
M  V30 1363 N 125.638 -1.25649 -0.95132 0
M  V30 1364 C 126.884 -1.10757 -1.69884 0
M  V30 1365 C 127.217 0.350061 -1.91019 0
M  V30 1366 O 126.492 1.25783 -1.48354 0
M  V30 1367 C 126.775 -1.86606 -3.07978 0
M  V30 1368 C 126.628 -3.40217 -2.94232 0
M  V30 1369 C 127.947 -1.65182 -4.07925 0
M  V30 1370 H 125.066 -0.40374 -0.616574 0
M  V30 1371 H 127.708 -1.54521 -1.10558 0
M  V30 1372 H 125.858 -1.49409 -3.58621 0
M  V30 1373 H 127.53 -3.87108 -2.50889 0
M  V30 1374 H 125.773 -3.67759 -2.30078 0
M  V30 1375 H 126.444 -3.88505 -3.92133 0
M  V30 1376 H 128.92 -1.9757 -3.66204 0
M  V30 1377 H 127.796 -2.20683 -5.02583 0
M  V30 1378 H 128.057 -0.593933 -4.38092 0
M  V30 1379 N 127.117 1.15442 -1.07289 0
M  V30 1380 C 128.049 2.19773 -0.650585 0
M  V30 1381 C 129.062 1.60076 0.296572 0
M  V30 1382 O 130.251 1.78293 0.0859905 0
M  V30 1383 C 127.351 3.38838 0.0650398 0
M  V30 1384 C 126.524 4.2808 -0.898141 0
M  V30 1385 C 125.583 5.2574 -0.219926 0
M  V30 1386 O 124.609 5.62654 -0.860773 0
M  V30 1387 N 125.811 5.71205 1.03466 0
M  V30 1388 H 128.576 2.56622 -1.54808 0
M  V30 1389 H 126.137 1.30551 -0.957494 0
M  V30 1390 H 128.129 4.01222 0.529415 0
M  V30 1391 H 126.699 3.00409 0.864466 0
M  V30 1392 H 125.919 3.62804 -1.54165 0
M  V30 1393 H 127.207 4.84577 -1.5512 0
M  V30 1394 H 126.605 5.43325 1.57526 0
M  V30 1395 H 125.162 6.35633 1.44272 0
M  V30 1396 N 128.595 0.856903 1.32268 0
M  V30 1397 C 129.82 0.474569 2.01897 0
M  V30 1398 C 130.245 -0.921766 1.63967 0
M  V30 1399 O 129.603 -1.60589 0.84148 0
M  V30 1400 C 129.651 0.623799 3.55164 0
M  V30 1401 O 128.755 -0.342459 4.10976 0
M  V30 1402 H 128.096 0.190422 0.63611 0
M  V30 1403 H 130.626 1.15672 1.68764 0
M  V30 1404 H 130.636 0.512169 4.04773 0
M  V30 1405 H 129.311 1.64202 3.82113 0
M  V30 1406 H 127.888 -0.18688 3.72431 0
M  V30 1407 N 130.073 -1.45103 0.615059 0
M  V30 1408 C 131.484 -1.85654 0.197383 0
M  V30 1409 C 131.835 -1.51433 -1.24749 0
M  V30 1410 O 130.96 -0.944608 -1.94695 0
M  V30 1411 C 131.555 -3.36972 0.351448 0
M  V30 1412 C 130.114 -3.76398 -0.011593 0
M  V30 1413 C 129.261 -2.69024 0.672394 0
M  V30 1414 H 132.212 -1.35797 0.821263 0
M  V30 1415 H 132.233 -3.78239 -0.414227 0
M  V30 1416 H 131.745 -3.61847 1.40314 0
M  V30 1417 H 129.846 -3.5714 -1.06217 0
M  V30 1418 H 129.959 -4.77532 0.387265 0
M  V30 1419 H 128.323 -2.54465 0.109284 0
M  V30 1420 H 129.106 -2.96735 1.72636 0
M  V30 1421 N 131.551 -0.354651 -1.53558 0
M  V30 1422 C 132.798 0.238443 -2.01091 0
M  V30 1423 C 133.126 1.49663 -1.24222 0
M  V30 1424 O 132.381 1.93049 -0.321003 0
M  V30 1425 C 132.68 0.587121 -3.52545 0
M  V30 1426 C 132.346 -0.575472 -4.47213 0
M  V30 1427 C 131.008 -0.894497 -4.72813 0
M  V30 1428 C 133.36 -1.35489 -5.03281 0
M  V30 1429 C 130.688 -1.99511 -5.51736 0
M  V30 1430 C 133.04 -2.44583 -5.83405 0
M  V30 1431 C 131.704 -2.77033 -6.07296 0
M  V30 1432 H 130.974 0.0872526 -0.735845 0
M  V30 1433 H 133.621 -0.484859 -1.8526 0
M  V30 1434 H 131.926 1.39129 -3.66265 0
M  V30 1435 H 133.623 1.05809 -3.86789 0
M  V30 1436 H 130.213 -0.316774 -4.27428 0
M  V30 1437 H 134.397 -1.12167 -4.83459 0
M  V30 1438 H 129.653 -2.25063 -5.68469 0
M  V30 1439 H 133.827 -3.05401 -6.25862 0
M  V30 1440 H 131.454 -3.6244 -6.68237 0
M  V30 1441 N 133.029 1.57378 -0.0835403 0
M  V30 1442 C 134.44 1.81261 0.447358 0
M  V30 1443 C 134.791 0.998331 1.68902 0
M  V30 1444 O 133.916 0.224282 2.15235 0
M  V30 1445 C 134.511 3.28767 0.818386 0
M  V30 1446 C 133.07 3.53455 1.29409 0
M  V30 1447 C 132.217 2.75831 0.285024 0
M  V30 1448 H 135.168 1.5566 -0.309115 0
M  V30 1449 H 135.189 3.41459 1.67887 0
M  V30 1450 H 134.701 3.88006 -0.0855019 0
M  V30 1451 H 132.802 2.99534 2.21608 0
M  V30 1452 H 132.915 4.62128 1.2639 0
M  V30 1453 H 131.279 2.42947 0.764767 0
M  V30 1454 H 132.062 3.37813 -0.611341 0
M  V30 1455 N 134.507 -0.190092 1.56449 0
M  V30 1456 C 135.732 -0.929864 1.85387 0
M  V30 1457 C 136.157 -1.7585 0.667704 0
M  V30 1458 O 135.515 -1.77198 -0.383459 0
M  V30 1459 C 135.563 -1.79773 3.12593 0
M  V30 1460 O 134.667 -2.89713 2.93496 0
M  V30 1461 H 134.008 -0.261574 0.610307 0
M  V30 1462 H 136.538 -0.193896 2.03679 0
M  V30 1463 H 136.548 -2.20139 3.43515 0
M  V30 1464 H 135.223 -1.18892 3.98544 0
M  V30 1465 H 133.8 -2.53065 2.73884 0
M  V30 1466 N 135.985 -1.50799 -0.457987 0
M  V30 1467 C 136.915 -1.73553 -1.5621 0
M  V30 1468 C 137.896 -0.584774 -1.59732 0
M  V30 1469 O 139.081 -0.825314 -1.7579 0
M  V30 1470 C 136.211 -1.84169 -2.94447 0
M  V30 1471 C 135.165 -2.99461 -3.0579 0
M  V30 1472 C 134.491 -2.95235 -4.45803 0
M  V30 1473 C 135.791 -4.39766 -2.81786 0
M  V30 1474 H 137.485 -2.66 -1.37421 0
M  V30 1475 H 135.031 -1.28002 -0.659662 0
M  V30 1476 H 136.984 -1.98672 -3.71628 0
M  V30 1477 H 135.708 -0.883545 -3.14422 0
M  V30 1478 H 134.367 -2.8463 -2.31044 0
M  V30 1479 H 134.015 -1.97239 -4.62715 0
M  V30 1480 H 133.715 -3.72642 -4.54326 0
M  V30 1481 H 135.239 -3.11803 -5.24987 0
M  V30 1482 H 136.653 -4.55054 -3.4871 0
M  V30 1483 H 135.05 -5.18722 -3.0174 0
M  V30 1484 H 136.12 -4.51229 -1.7754 0
M  V30 1485 N 137.463 0.71206 -1.40597 0
M  V30 1486 C 138.703 1.48438 -1.40519 0
M  V30 1487 C 139.067 1.91998 -0.00767611 0
M  V30 1488 O 140.268 2.6854 0.118239 0
M  V30 1489 C 138.539 2.67514 -2.37004 0
M  V30 1490 S 140.098 3.56875 -2.55315 0
M  V30 1491 H 136.916 0.507457 -0.498005 0
M  V30 1492 H 139.518 0.832355 -1.76896 0
M  V30 1493 H 138.222 2.33689 -3.37368 0
M  V30 1494 H 137.753 3.37625 -2.01923 0
M  V30 1495 H 139.768 4.62081 -1.8082 0
M  V30 1496 N 138.941 1.26152 0.944643 0
M  V30 1497 C 140.169 1.14259 1.72489 0
M  V30 1498 C 140.584 -0.302555 1.8636 0
M  V30 1499 O 139.941 -1.20741 1.36849 0
M  V30 1500 C 139.992 1.80266 3.13347 0
M  V30 1501 O 139.713 3.19133 3.00143 0
M  V30 1502 C 141.214 1.74283 4.07603 0
M  V30 1503 H 138.434 0.398051 0.540181 0
M  V30 1504 H 140.978 1.66706 1.18446 0
M  V30 1505 H 139.133 1.31766 3.64303 0
M  V30 1506 H 139.547 3.51744 3.89071 0
M  V30 1507 H 141.021 2.25111 5.04013 0
M  V30 1508 H 141.498 0.708631 4.33446 0
M  V30 1509 H 142.104 2.22319 3.62567 0
M  V30 1510 N 140.419 -1.14872 1.07899 0
M  V30 1511 C 141.349 -2.2193 0.725887 0
M  V30 1512 C 142.33 -1.67622 -0.28927 0
M  V30 1513 O 143.515 -1.93533 -0.160787 0
M  V30 1514 C 140.645 -3.47061 0.128856 0
M  V30 1515 C 139.599 -4.14363 1.07178 0
M  V30 1516 C 138.925 -5.33636 0.337229 0
M  V30 1517 C 140.225 -4.63492 2.40775 0
M  V30 1518 H 141.919 -2.51724 1.62097 0
M  V30 1519 H 139.465 -1.20991 0.780838 0
M  V30 1520 H 141.418 -4.21199 -0.130147 0
M  V30 1521 H 140.142 -3.16617 -0.80134 0
M  V30 1522 H 138.801 -3.42173 1.3158 0
M  V30 1523 H 138.449 -4.99449 -0.596606 0
M  V30 1524 H 138.149 -5.79609 0.965788 0
M  V30 1525 H 139.673 -6.10539 0.0861567 0
M  V30 1526 H 141.087 -5.2913 2.20669 0
M  V30 1527 H 139.484 -5.20148 2.99276 0
M  V30 1528 H 140.554 -3.78834 3.02676 0
M  V30 1529 N 141.898 -0.863906 -1.31812 0
M  V30 1530 C 143.144 -0.472535 -1.97218 0
M  V30 1531 C 143.477 0.971394 -1.68159 0
M  V30 1532 O 142.752 1.68309 -0.974798 0
M  V30 1533 C 143.035 -0.723054 -3.52766 0
M  V30 1534 C 142.888 -2.21608 -3.91421 0
M  V30 1535 C 144.207 -0.185522 -4.39709 0
M  V30 1536 H 141.326 -0.173158 -0.71637 0
M  V30 1537 H 143.968 -1.08403 -1.56041 0
M  V30 1538 H 142.118 -0.202577 -3.87971 0
M  V30 1539 H 143.79 -2.80334 -3.66347 0
M  V30 1540 H 142.033 -2.691 -3.40246 0
M  V30 1541 H 142.704 -2.34203 -4.99853 0
M  V30 1542 H 145.18 -0.630726 -4.11292 0
M  V30 1543 H 144.056 -0.390306 -5.47511 0
M  V30 1544 H 144.317 0.912229 -4.32586 0
M  V30 1545 N 143.376 1.44774 -0.622745 0
M  V30 1546 C 144.286 2.34433 0.0886031 0
M  V30 1547 C 145.302 1.52131 0.844529 0
M  V30 1548 O 146.478 1.84886 0.798691 0
M  V30 1549 C 143.543 3.29986 1.0635 0
M  V30 1550 C 142.604 4.28195 0.307873 0
M  V30 1551 C 141.837 5.19183 1.23633 0
M  V30 1552 O 142.06 5.13918 2.47476 0
M  V30 1553 O 140.994 5.97515 0.725189 0
M  V30 1554 H 144.82 2.96693 -0.648599 0
M  V30 1555 H 142.405 1.44408 -0.382957 0
M  V30 1556 H 144.287 3.88825 1.6246 0
M  V30 1557 H 142.962 2.70269 1.78146 0
M  V30 1558 H 141.869 3.72927 -0.296064 0
M  V30 1559 H 143.202 4.90808 -0.3699 0
M  V30 1560 N 144.854 0.36279 1.53368 0
M  V30 1561 C 146.094 -0.227882 2.03126 0
M  V30 1562 C 146.458 -1.4622 1.24434 0
M  V30 1563 O 147.659 -2.12831 1.64184 0
M  V30 1564 C 145.93 -0.515427 3.53664 0
M  V30 1565 S 147.489 -1.08017 4.25297 0
M  V30 1566 H 144.307 -0.0665377 0.70788 0
M  V30 1567 H 146.909 0.50501 1.88865 0
M  V30 1568 H 145.613 0.390436 4.08539 0
M  V30 1569 H 145.144 -1.27747 3.72081 0
M  V30 1570 H 147.159 -2.36462 4.36234 0
M  V30 1571 N 146.332 -1.57332 0.0918853 0
M  V30 1572 C 147.262 -2.16872 -0.865371 0
M  V30 1573 C 148.243 -1.10118 -1.29646 0
M  V30 1574 O 149.428 -1.38242 -1.36392 0
M  V30 1575 C 146.558 -2.74649 -2.12569 0
M  V30 1576 C 145.512 -3.86747 -1.83333 0
M  V30 1577 C 144.838 -4.31212 -3.16166 0
M  V30 1578 C 146.138 -5.10089 -1.1228 0
M  V30 1579 H 147.832 -2.97114 -0.369307 0
M  V30 1580 H 145.378 -1.42918 -0.176194 0
M  V30 1581 H 147.331 -3.14952 -2.7997 0
M  V30 1582 H 146.055 -1.91657 -2.64452 0
M  V30 1583 H 144.714 -3.46978 -1.18331 0
M  V30 1584 H 144.362 -3.45115 -3.6593 0
M  V30 1585 H 144.062 -5.06788 -2.97388 0
M  V30 1586 H 145.586 -4.74146 -3.84731 0
M  V30 1587 H 147 -5.47582 -1.69785 0
M  V30 1588 H 145.397 -5.91073 -1.03693 0
M  V30 1589 H 146.467 -4.84786 -0.105041 0
M  V30 1590 N 147.81 0.181792 -1.56548 0
M  V30 1591 C 149.04 0.914618 -1.85252 0
M  V30 1592 C 149.448 1.76791 -0.673914 0
M  V30 1593 O 148.791 1.80009 0.366416 0
M  V30 1594 C 148.853 1.85019 -3.08234 0
M  V30 1595 C 148.517 1.17754 -4.41569 0
M  V30 1596 C 149.514 0.548035 -5.17003 0
M  V30 1597 C 147.199 1.17742 -4.88305 0
M  V30 1598 C 149.193 -0.0726128 -6.37359 0
M  V30 1599 C 146.88 0.552946 -6.08593 0
M  V30 1600 C 147.878 -0.070978 -6.82963 0
M  V30 1601 O 147.566 -0.685635 -8.00971 0
M  V30 1602 H 147.298 0.271695 -0.618998 0
M  V30 1603 H 149.852 0.189944 -2.0452 0
M  V30 1604 H 148.082 2.61491 -2.84885 0
M  V30 1605 H 149.771 2.45195 -3.23472 0
M  V30 1606 H 150.537 0.540174 -4.81982 0
M  V30 1607 H 146.416 1.65246 -4.30366 0
M  V30 1608 H 149.96 -0.560213 -6.95347 0
M  V30 1609 H 145.857 0.558354 -6.43081 0
M  V30 1610 H 146.625 -0.58385 -8.16415 0
M  V30 1611 N 149.288 1.51039 0.449983 0
M  V30 1612 C 150.535 1.63081 1.20045 0
M  V30 1613 C 150.863 0.341024 1.91487 0
M  V30 1614 O 150.118 -0.674276 1.83717 0
M  V30 1615 C 150.417 2.77556 2.25161 0
M  V30 1616 C 150.083 4.17289 1.70823 0
M  V30 1617 C 148.745 4.55305 1.55725 0
M  V30 1618 C 151.097 5.04536 1.3074 0
M  V30 1619 C 148.425 5.78287 0.989999 0
M  V30 1620 C 150.777 6.28085 0.754482 0
M  V30 1621 C 149.441 6.64885 0.590308 0
M  V30 1622 H 148.711 0.596755 0.439277 0
M  V30 1623 H 151.358 1.85037 0.49333 0
M  V30 1624 H 149.663 2.49771 3.01863 0
M  V30 1625 H 151.36 2.84073 2.83026 0
M  V30 1626 H 147.95 3.8731 1.83546 0
M  V30 1627 H 152.134 4.75782 1.41229 0
M  V30 1628 H 147.39 6.05456 0.850451 0
M  V30 1629 H 151.564 6.95038 0.435324 0
M  V30 1630 H 149.191 7.60055 0.14862 0
M  V30 1631 N 150.766 -0.704594 1.40972 0
M  V30 1632 C 152.012 -1.46675 1.40051 0
M  V30 1633 C 152.345 -1.94199 0.00641102 0
M  V30 1634 O 151.62 -1.68916 -0.964235 0
M  V30 1635 C 151.903 -2.68505 2.39952 0
M  V30 1636 C 151.756 -2.26805 3.88432 0
M  V30 1637 C 153.075 -3.70686 2.37233 0
M  V30 1638 H 150.194 -0.532015 0.510028 0
M  V30 1639 H 152.836 -0.803255 1.72185 0
M  V30 1640 H 150.986 -3.25114 2.1268 0
M  V30 1641 H 152.658 -1.75592 4.26574 0
M  V30 1642 H 150.901 -1.58685 4.03734 0
M  V30 1643 H 151.572 -3.14181 4.53866 0
M  V30 1644 H 154.048 -3.23731 2.61415 0
M  V30 1645 H 152.924 -4.53553 3.09162 0
M  V30 1646 H 153.185 -4.19754 1.38777 0
M  V30 1647 N 152.244 -1.26651 -0.937939 0
M  V30 1648 C 153.469 -1.15279 -1.72411 0
M  V30 1649 C 153.894 0.287866 -1.85884 0
M  V30 1650 O 153.252 1.20855 -1.35143 0
M  V30 1651 C 153.3 -1.83028 -3.10698 0
M  V30 1652 O 152.404 -1.12128 -3.96864 0
M  V30 1653 H 151.745 -0.401504 -0.528858 0
M  V30 1654 H 154.275 -1.67531 -1.1745 0
M  V30 1655 H 154.285 -1.89981 -3.6107 0
M  V30 1656 H 152.96 -2.87833 -3.00208 0
M  V30 1657 H 151.537 -1.13173 -3.55312 0
M  V30 1658 N 153.722 1.14298 -1.08507 0
M  V30 1659 C 154.655 2.18447 -0.660004 0
M  V30 1660 C 155.633 1.59242 0.328749 0
M  V30 1661 O 156.817 1.87062 0.232367 0
M  V30 1662 C 153.944 3.38688 0.0290807 0
M  V30 1663 C 152.99 4.1646 -0.919982 0
M  V30 1664 S 153.823 4.77334 -2.42718 0
M  V30 1665 C 154.979 6.00931 -1.75024 0
M  V30 1666 H 155.212 2.54166 -1.54231 0
M  V30 1667 H 152.745 1.25446 -0.900149 0
M  V30 1668 H 154.703 4.08342 0.420378 0
M  V30 1669 H 153.364 3.01289 0.887895 0
M  V30 1670 H 152.557 5.02529 -0.384751 0
M  V30 1671 H 152.159 3.52414 -1.25223 0
M  V30 1672 H 154.451 6.69017 -1.06877 0
M  V30 1673 H 155.394 6.59044 -2.58971 0
M  V30 1674 H 155.802 5.51089 -1.22317 0
M  V30 1675 N 155.201 0.870884 1.31352 0
M  V30 1676 C 156.431 0.496049 2.00557 0
M  V30 1677 C 156.839 -0.916241 1.65534 0
M  V30 1678 O 156.182 -1.61188 0.881134 0
M  V30 1679 C 156.244 0.574418 3.54881 0
M  V30 1680 C 155.908 1.94849 4.1338 0
M  V30 1681 C 156.905 2.91611 4.30417 0
M  V30 1682 C 154.59 2.25005 4.49086 0
M  V30 1683 C 156.584 4.16672 4.82352 0
M  V30 1684 C 154.271 3.50315 5.00722 0
M  V30 1685 C 155.269 4.45964 5.17306 0
M  V30 1686 O 154.957 5.69052 5.67833 0
M  V30 1687 H 154.689 0.191664 0.64826 0
M  V30 1688 H 157.243 1.17409 1.68536 0
M  V30 1689 H 155.473 -0.160549 3.86367 0
M  V30 1690 H 157.162 0.212879 4.05341 0
M  V30 1691 H 157.928 2.69622 4.03149 0
M  V30 1692 H 153.807 1.51332 4.35453 0
M  V30 1693 H 157.351 4.91336 4.95211 0
M  V30 1694 H 153.248 3.72147 5.27424 0
M  V30 1695 H 154.016 5.71236 5.86201 0
M  V30 1696 N 156.679 -1.44442 0.630414 0
M  V30 1697 C 157.927 -2.01653 0.134351 0
M  V30 1698 C 158.248 -1.49836 -1.24796 0
M  V30 1699 O 157.518 -0.701684 -1.82902 0
M  V30 1700 H 156.098 -0.74554 0.0466769 0
M  V30 1701 H 158.76 -1.76952 0.816955 0
M  V30 1702 H 157.856 -3.11935 0.101498 0
M  V30 1703 N 158.157 -0.370918 -1.53173 0
M  V30 1704 C 159.382 0.220293 -2.06227 0
M  V30 1705 C 159.807 1.41243 -1.24225 0
M  V30 1706 O 159.165 1.79387 -0.262645 0
M  V30 1707 C 159.213 0.586663 -3.55796 0
M  V30 1708 O 158.317 1.68317 -3.76488 0
M  V30 1709 H 157.658 0.0308099 -0.663285 0
M  V30 1710 H 160.188 -0.533068 -1.97534 0
M  V30 1711 H 160.198 0.85617 -3.98916 0
M  V30 1712 H 158.873 -0.285013 -4.14922 0
M  V30 1713 H 157.45 1.40881 -3.45264 0
M  V30 1714 N 159.635 1.57281 -0.100228 0
M  V30 1715 C 160.881 1.94826 0.563101 0
M  V30 1716 C 161.214 0.982475 1.67514 0
M  V30 1717 O 160.489 0.0164069 1.94493 0
M  V30 1718 C 160.772 3.42453 1.11346 0
M  V30 1719 C 160.625 4.498 0.00612081 0
M  V30 1720 C 161.944 3.91506 2.01024 0
M  V30 1721 H 159.063 0.708428 0.203221 0
M  V30 1722 H 161.705 1.8922 -0.171979 0
M  V30 1723 H 159.855 3.47361 1.7399 0
M  V30 1724 H 161.527 4.57 -0.628357 0
M  V30 1725 H 159.77 4.28756 -0.659581 0
M  V30 1726 H 160.441 5.50306 0.432109 0
M  V30 1727 H 162.917 3.88784 1.48278 0
M  V30 1728 H 161.793 4.95358 2.36457 0
M  V30 1729 H 162.054 3.31099 2.92961 0
M  V30 1730 N 161.113 -0.173488 1.56642 0
M  V30 1731 C 162.36 -0.890465 1.81871 0
M  V30 1732 C 162.688 -1.82339 0.67696 0
M  V30 1733 O 161.943 -1.92795 -0.335926 0
M  V30 1734 C 162.242 -1.72069 3.13252 0
M  V30 1735 C 161.908 -0.936878 4.41059 0
M  V30 1736 C 160.57 -0.720545 4.75775 0
M  V30 1737 C 162.922 -0.386919 5.19762 0
M  V30 1738 C 160.25 0.0568829 5.86672 0
M  V30 1739 C 162.602 0.37741 6.31473 0
M  V30 1740 C 161.266 0.604563 6.64757 0
M  V30 1741 H 160.536 -0.325844 0.665512 0
M  V30 1742 H 163.183 -0.155527 1.90867 0
M  V30 1743 H 161.488 -2.52496 2.99588 0
M  V30 1744 H 163.185 -2.27844 3.29982 0
M  V30 1745 H 159.775 -1.11553 4.13828 0
M  V30 1746 H 163.959 -0.541398 4.93338 0
M  V30 1747 H 159.215 0.242635 6.10918 0
M  V30 1748 H 163.389 0.810825 6.91664 0
M  V30 1749 H 161.016 1.20885 7.50527 0
M  V30 1750 N 162.591 -1.51276 -0.441967 0
M  V30 1751 C 163.819 -1.67516 -1.21434 0
M  V30 1752 C 164.234 -0.37055 -1.85128 0
M  V30 1753 O 163.591 0.650498 -1.70513 0
M  V30 1754 C 163.642 -2.78748 -2.30177 0
M  V30 1755 O 163.363 -4.04154 -1.69089 0
M  V30 1756 C 164.864 -3.06217 -3.20541 0
M  V30 1757 H 162.084 -0.562276 -0.366178 0
M  V30 1758 H 164.628 -1.97666 -0.524244 0
M  V30 1759 H 162.783 -2.5121 -2.94911 0
M  V30 1760 H 163.197 -4.65894 -2.40922 0
M  V30 1761 H 164.671 -3.8764 -3.92987 0
M  V30 1762 H 165.148 -2.18439 -3.81026 0
M  V30 1763 H 165.754 -3.35397 -2.61513 0
M  V30 1764 N 164.069 0.697108 -1.41344 0
M  V30 1765 C 165.318 1.45279 -1.39918 0
M  V30 1766 C 165.631 1.95597 -0.0109624 0
M  V30 1767 O 166.837 2.71208 0.125919 0
M  V30 1768 C 165.293 2.62695 -2.46007 0
M  V30 1769 C 164.901 2.19169 -3.90729 0
M  V30 1770 C 166.645 3.40336 -2.53715 0
M  V30 1771 C 164.552 3.33535 -4.88373 0
M  V30 1772 H 163.482 0.545692 -0.520323 0
M  V30 1773 H 166.133 0.756929 -1.67161 0
M  V30 1774 H 164.515 3.34541 -2.11892 0
M  V30 1775 H 165.689 1.54623 -4.34083 0
M  V30 1776 H 164.004 1.54525 -3.86666 0
M  V30 1777 H 166.601 4.2547 -3.2385 0
M  V30 1778 H 166.944 3.85418 -1.5735 0
M  V30 1779 H 167.477 2.75546 -2.86913 0
M  V30 1780 H 164.216 2.93468 -5.86137 0
M  V30 1781 H 163.736 3.96936 -4.49668 0
M  V30 1782 H 165.415 3.99335 -5.09059 0
M  V30 1783 N 165.547 1.27147 0.931209 0
M  V30 1784 C 166.787 1.14511 1.69312 0
M  V30 1785 C 167.151 -0.304638 1.89568 0
M  V30 1786 O 168.352 -0.553343 2.63043 0
M  V30 1787 C 166.623 1.90349 3.02493 0
M  V30 1788 S 168.182 1.93884 3.93642 0
M  V30 1789 H 165 0.408858 0.581684 0
M  V30 1790 H 167.602 1.61006 1.10893 0
M  V30 1791 H 166.306 2.94877 2.85439 0
M  V30 1792 H 165.837 1.44333 3.65966 0
M  V30 1793 H 167.852 1.03273 4.85334 0
M  V30 1794 N 167.025 -1.13721 1.09112 0
M  V30 1795 C 168.272 -1.84924 0.825192 0
M  V30 1796 C 168.6 -1.83347 -0.649151 0
M  V30 1797 O 167.855 -1.26449 -1.49362 0
M  V30 1798 C 168.154 -3.32861 1.30146 0
M  V30 1799 C 167.82 -3.54621 2.78486 0
M  V30 1800 C 166.482 -3.60268 3.18999 0
M  V30 1801 C 168.834 -3.62855 3.74146 0
M  V30 1802 C 166.162 -3.71679 4.53951 0
M  V30 1803 C 168.514 -3.75793 5.08883 0
M  V30 1804 C 167.178 -3.79692 5.4899 0
M  V30 1805 H 166.448 -0.676684 0.301959 0
M  V30 1806 H 169.095 -1.3428 1.36533 0
M  V30 1807 H 167.4 -3.85835 0.681064 0
M  V30 1808 H 169.097 -3.86395 1.07236 0
M  V30 1809 H 165.687 -3.50879 2.46134 0
M  V30 1810 H 169.871 -3.57775 3.43963 0
M  V30 1811 H 165.127 -3.72963 4.84467 0
M  V30 1812 H 169.301 -3.81107 5.82864 0
M  V30 1813 H 166.928 -3.88287 6.53558 0
M  V30 1814 N 168.503 -0.877838 -1.30888 0
M  V30 1815 C 169.752 -0.488793 -1.95688 0
M  V30 1816 C 170.065 0.965485 -1.70111 0
M  V30 1817 O 171.271 1.46104 -2.28836 0
M  V30 1818 C 169.727 -0.823201 -3.50359 0
M  V30 1819 C 169.335 -2.29477 -3.84765 0
M  V30 1820 C 171.079 -0.503009 -4.21509 0
M  V30 1821 C 168.986 -2.57118 -5.32583 0
M  V30 1822 H 167.916 -0.179062 -0.732429 0
M  V30 1823 H 170.567 -1.07183 -1.48943 0
M  V30 1824 H 168.949 -0.169331 -3.95638 0
M  V30 1825 H 170.123 -2.99236 -3.5042 0
M  V30 1826 H 168.438 -2.58178 -3.267 0
M  V30 1827 H 171.035 -0.68665 -5.30273 0
M  V30 1828 H 171.378 0.557109 -4.12555 0
M  V30 1829 H 171.911 -1.11376 -3.8189 0
M  V30 1830 H 168.65 -3.61843 -5.4658 0
M  V30 1831 H 168.17 -1.91961 -5.68253 0
M  V30 1832 H 169.849 -2.42251 -5.99936 0
M  V30 1833 N 169.982 1.44106 -0.638065 0
M  V30 1834 C 171.207 2.0685 -0.150916 0
M  V30 1835 C 171.632 1.47417 1.16833 0
M  V30 1836 O 170.99 0.578264 1.71831 0
M  V30 1837 C 171.038 3.60555 -0.05708 0
M  V30 1838 O 170.142 4.00465 0.984972 0
M  V30 1839 H 169.483 0.658151 -0.0879399 0
M  V30 1840 H 172.013 1.84865 -0.876707 0
M  V30 1841 H 172.023 4.07789 0.131232 0
M  V30 1842 H 170.698 4.03193 -1.02021 0
M  V30 1843 H 169.275 3.64849 0.770672 0
M  V30 1844 N 171.46 0.379036 1.52974 0
M  V30 1845 C 172.393 -0.504932 2.22544 0
M  V30 1846 C 173.371 -1.0723 1.22231 0
M  V30 1847 O 174.555 -1.12589 1.51182 0
M  V30 1848 C 171.682 -1.69794 2.93066 0
M  V30 1849 C 170.728 -1.25678 4.07563 0
M  V30 1850 S 171.561 -0.246852 5.34931 0
M  V30 1851 C 172.717 -1.44588 6.08971 0
M  V30 1852 H 172.95 0.0858666 2.97176 0
M  V30 1853 H 170.483 0.163183 1.53535 0
M  V30 1854 H 172.441 -2.38219 3.34308 0
M  V30 1855 H 171.102 -2.26002 2.18133 0
M  V30 1856 H 170.295 -2.14725 4.5597 0
M  V30 1857 H 169.897 -0.651584 3.6828 0
M  V30 1858 H 172.189 -2.37469 6.34519 0
M  V30 1859 H 173.132 -1.00292 7.00962 0
M  V30 1860 H 173.54 -1.65804 5.39601 0
M  V30 1861 N 172.938 -1.57226 0.108567 0
M  V30 1862 C 174.215 -1.86333 -0.594939 0
M  V30 1863 C 174.595 -1.00788 -1.85486 0
M  V30 1864 O 173.943 -0.0839293 -2.28346 0
M  V30 1865 C 174.153 -3.37265 -0.897405 0
M  V30 1866 C 175.501 -4.05629 -1.25501 0
M  V30 1867 O 176.525 -3.42224 -0.987998 0
M  V30 1868 O 175.384 -5.17531 -1.75567 0
M  V30 1869 H 172.478 -0.771018 -0.2991 0
M  V30 1870 H 175.024 -1.69102 0.142283 0
M  V30 1871 H 173.796 -3.913 -0.00413806 0
M  V30 1872 H 173.419 -3.59889 -1.69014 0
M  V30 1873 N 174.416 0.165178 -1.56732 0
M  V30 1874 C 175.832 0.517174 -1.50988 0
M  V30 1875 C 176.032 1.84331 -0.813894 0
M  V30 1876 O 175.088 2.49672 -0.37682 0
M  V30 1877 C 176.401 0.544261 -2.95733 0
M  V30 1878 C 177.949 0.631039 -3.06573 0
M  V30 1879 C 178.424 0.68896 -4.52788 0
M  V30 1880 N 179.915 0.751683 -4.5706 0
M  V30 1881 C 180.65 0.817177 -5.67547 0
M  V30 1882 N 180.146 0.843129 -6.8765 0
M  V30 1883 N 181.939 0.856668 -5.55534 0
M  V30 1884 H 174.09 -0.704318 -2.00382 0
M  V30 1885 H 176.353 -0.254687 -0.913148 0
M  V30 1886 H 176.059 -0.361607 -3.49836 0
M  V30 1887 H 175.933 1.3886 -3.5071 0
M  V30 1888 H 178.32 1.52733 -2.52501 0
M  V30 1889 H 178.401 -0.240095 -2.54671 0
M  V30 1890 H 178.045 -0.2031 -5.07494 0
M  V30 1891 H 177.975 1.57633 -5.02454 0
M  V30 1892 H 180.466 0.739661 -3.70591 0
M  V30 1893 H 180.779 0.894448 -7.67606 0
M  V30 1894 H 179.124 0.811304 -6.90248 0
M  V30 1895 H 182.315 0.833437 -4.60621 0
M  V30 1896 H 182.488 0.904247 -6.4166 0
M  V30 1897 N 175.894 1.51508 0.433938 0
M  V30 1898 C 177.141 1.64345 1.18309 0
M  V30 1899 C 177.469 0.361315 1.91115 0
M  V30 1900 O 176.724 -0.654753 1.84422 0
M  V30 1901 C 177.023 2.79928 2.22205 0
M  V30 1902 C 176.689 4.19078 1.66387 0
M  V30 1903 C 175.351 4.56932 1.50887 0
M  V30 1904 C 177.703 5.05894 1.25381 0
M  V30 1905 C 175.031 5.79305 0.928608 0
M  V30 1906 C 177.383 6.2885 0.687823 0
M  V30 1907 C 176.047 6.65473 0.519755 0
M  V30 1908 H 175.317 0.601381 0.432923 0
M  V30 1909 H 177.964 1.85549 0.473676 0
M  V30 1910 H 176.269 2.52959 2.99197 0
M  V30 1911 H 177.966 2.87059 2.79997 0
M  V30 1912 H 174.556 3.89234 1.79428 0
M  V30 1913 H 178.74 4.77253 1.36175 0
M  V30 1914 H 173.996 6.06324 0.786186 0
M  V30 1915 H 178.17 6.95461 0.361581 0
M  V30 1916 H 175.797 7.6017 0.0679979 0
M  V30 1917 N 177.372 -0.689602 1.41712 0
M  V30 1918 C 178.302 -1.81577 1.46806 0
M  V30 1919 C 179.283 -1.66945 0.326105 0
M  V30 1920 O 180.468 -1.86588 0.538377 0
M  V30 1921 C 177.598 -3.19762 1.35535 0
M  V30 1922 C 176.552 -3.49107 2.47605 0
M  V30 1923 C 175.878 -4.86711 2.21397 0
M  V30 1924 C 177.178 -3.47483 3.89939 0
M  V30 1925 H 178.872 -1.7757 2.41058 0
M  V30 1926 H 176.418 -0.852887 1.16025 0
M  V30 1927 H 178.371 -3.98263 1.3771 0
M  V30 1928 H 177.095 -3.24409 0.377708 0
M  V30 1929 H 175.754 -2.72959 2.44722 0
M  V30 1930 H 175.402 -4.8799 1.21961 0
M  V30 1931 H 175.102 -5.0731 2.96497 0
M  V30 1932 H 176.626 -5.67515 2.25297 0
M  V30 1933 H 178.04 -4.1598 3.94505 0
M  V30 1934 H 176.437 -3.79615 4.64771 0
M  V30 1935 H 177.507 -2.46341 4.17665 0
M  V30 1936 N 178.85 -1.27639 -0.924453 0
M  V30 1937 C 179.813 -1.10681 -2.00705 0
M  V30 1938 C 180.813 -0.0497823 -1.60723 0
M  V30 1939 O 182.003 -0.294654 -1.7169 0
M  V30 1940 C 179.135 -0.687164 -3.33902 0
M  V30 1941 H 180.328 -2.06817 -2.17179 0
M  V30 1942 H 177.881 -1.10473 -1.10569 0
M  V30 1943 H 178.616 0.275439 -3.23128 0
M  V30 1944 H 178.401 -1.45061 -3.6428 0
M  V30 1945 H 179.891 -0.590853 -4.13399 0
M  V30 1946 N 180.328 1.1314 -1.09713 0
M  V30 1947 C 181.577 1.83838 -0.829851 0
M  V30 1948 C 181.89 1.84599 0.646728 0
M  V30 1949 O 183.096 2.51218 1.02965 0
M  V30 1950 C 181.552 3.30069 -1.43466 0
M  V30 1951 C 181.16 3.37688 -2.94399 0
M  V30 1952 C 182.904 4.05788 -1.24645 0
M  V30 1953 C 180.811 4.78209 -3.47952 0
M  V30 1954 H 179.741 0.68877 -0.306777 0
M  V30 1955 H 182.392 1.27448 -1.3202 0
M  V30 1956 H 180.774 3.8628 -0.871996 0
M  V30 1957 H 181.948 2.91456 -3.56918 0
M  V30 1958 H 180.263 2.75436 -3.12289 0
M  V30 1959 H 182.86 5.09535 -1.62107 0
M  V30 1960 H 183.203 4.15878 -0.187357 0
M  V30 1961 H 183.736 3.55915 -1.77678 0
M  V30 1962 H 180.475 4.73311 -4.53495 0
M  V30 1963 H 179.995 5.24924 -2.90198 0
M  V30 1964 H 181.674 5.47133 -3.45332 0
M  V30 1965 N 181.806 0.884767 1.30421 0
M  V30 1966 C 183.222 0.57874 1.48737 0
M  V30 1967 C 183.422 -0.883567 1.81095 0
M  V30 1968 O 182.478 -1.6648 1.89844 0
M  V30 1969 C 183.791 1.49171 2.61091 0
M  V30 1970 C 185.339 1.49532 2.74971 0
M  V30 1971 C 185.814 2.39421 3.90438 0
M  V30 1972 N 187.305 2.37383 3.97748 0
M  V30 1973 C 188.04 3.03647 4.86401 0
M  V30 1974 N 187.536 3.79136 5.79852 0
M  V30 1975 N 189.329 2.9288 4.79768 0
M  V30 1976 H 181.48 1.83075 1.0769 0
M  V30 1977 H 183.743 0.783637 0.533495 0
M  V30 1978 H 183.449 2.53291 2.44001 0
M  V30 1979 H 183.323 1.20113 3.57565 0
M  V30 1980 H 185.71 0.46163 2.91467 0
M  V30 1981 H 185.791 1.8262 1.79119 0
M  V30 1982 H 185.435 3.42874 3.74699 0
M  V30 1983 H 185.365 2.03649 4.85628 0
M  V30 1984 H 187.856 1.82525 3.30897 0
M  V30 1985 H 188.169 4.26789 6.4426 0
M  V30 1986 H 186.514 3.83243 5.79784 0
M  V30 1987 H 189.705 2.33433 4.05742 0
M  V30 1988 H 189.878 3.448 5.4865 0
M  V30 1989 N 183.284 -1.43765 0.645699 0
M  V30 1990 C 184.514 -2.05953 0.163318 0
M  V30 1991 C 184.922 -1.48432 -1.17322 0
M  V30 1992 O 184.265 -0.607295 -1.73371 0
M  V30 1993 C 184.327 -3.59499 -0.0103065 0
M  V30 1994 C 183.991 -4.39563 1.25035 0
M  V30 1995 C 184.988 -4.72108 2.17739 0
M  V30 1996 C 182.673 -4.79697 1.48983 0
M  V30 1997 C 184.667 -5.43688 3.3269 0
M  V30 1998 C 182.354 -5.51023 2.64229 0
M  V30 1999 C 183.352 -5.8294 3.55908 0
M  V30 2000 O 183.04 -6.5281 4.69142 0
M  V30 2001 H 182.772 -0.670798 0.0836986 0
M  V30 2002 H 185.326 -1.85384 0.884407 0
M  V30 2003 H 183.556 -3.78613 -0.78669 0
M  V30 2004 H 185.245 -4.03408 -0.449087 0
M  V30 2005 H 186.011 -4.41627 2.00476 0
M  V30 2006 H 181.89 -4.54266 0.785078 0
M  V30 2007 H 185.434 -5.68517 4.04269 0
M  V30 2008 H 181.331 -5.8092 2.81429 0
M  V30 2009 H 182.099 -6.71288 4.6831 0
M  V30 2010 N 184.763 -0.387143 -1.52771 0
M  V30 2011 C 186.174 0.0873634 -1.86495 0
M  V30 2012 C 186.525 1.46336 -1.30691 0
M  V30 2013 O 185.65 2.068 -0.637409 0
M  V30 2014 C 186.245 0.165305 -3.38396 0
M  V30 2015 C 184.804 0.584101 -3.7184 0
M  V30 2016 C 183.951 -0.255279 -2.76122 0
M  V30 2017 H 186.902 -0.605104 -1.46711 0
M  V30 2018 H 186.923 0.984848 -3.67534 0
M  V30 2019 H 186.435 -0.836301 -3.78982 0
M  V30 2020 H 184.536 1.59315 -3.36823 0
M  V30 2021 H 184.649 0.343749 -4.77865 0
M  V30 2022 H 183.013 0.279126 -2.53166 0
M  V30 2023 H 183.796 -1.25482 -3.19545 0
M  V30 2024 N 186.241 1.57166 -0.116904 0
M  V30 2025 C 187.171 2.18222 0.830759 0
M  V30 2026 C 188.152 1.12167 1.27877 0
M  V30 2027 O 189.337 1.40394 1.34176 0
M  V30 2028 C 186.467 2.77996 2.08172 0
M  V30 2029 C 185.421 3.89614 1.77157 0
M  V30 2030 C 184.747 4.36187 3.09265 0
M  V30 2031 C 186.047 5.1181 1.04151 0
M  V30 2032 H 187.741 2.97664 0.321992 0
M  V30 2033 H 185.287 1.4318 0.153434 0
M  V30 2034 H 187.24 3.19366 2.74924 0
M  V30 2035 H 185.964 1.9584 2.6137 0
M  V30 2036 H 184.623 3.48816 1.12796 0
M  V30 2037 H 184.271 3.50893 3.60393 0
M  V30 2038 H 183.971 5.11455 2.89288 0
M  V30 2039 H 185.495 4.80207 3.77139 0
M  V30 2040 H 186.909 5.50214 1.61052 0
M  V30 2041 H 185.306 5.92648 0.942762 0
M  V30 2042 H 186.376 4.84892 0.0279022 0
M  V30 2043 N 187.719 -0.156864 1.56817 0
M  V30 2044 C 188.649 -1.19589 2.00551 0
M  V30 2045 C 189.63 -1.4536 0.883426 0
M  V30 2046 O 190.815 -1.56449 1.15054 0
M  V30 2047 C 187.945 -2.53143 2.37773 0
M  V30 2048 C 186.899 -2.41913 3.53075 0
M  V30 2049 C 186.225 -3.80088 3.76081 0
M  V30 2050 C 187.525 -1.91157 4.86062 0
M  V30 2051 H 189.219 -0.832293 2.87599 0
M  V30 2052 H 186.765 -0.398918 1.38364 0
M  V30 2053 H 188.718 -3.26047 2.66967 0
M  V30 2054 H 187.442 -2.91319 1.4765 0
M  V30 2055 H 186.101 -1.71462 3.24031 0
M  V30 2056 H 185.749 -4.15683 2.83225 0
M  V30 2057 H 185.449 -3.73439 4.53671 0
M  V30 2058 H 186.973 -4.54556 4.0769 0
M  V30 2059 H 188.387 -2.53846 5.14038 0
M  V30 2060 H 186.784 -1.95422 5.67389 0
M  V30 2061 H 187.854 -0.866673 4.77092 0
M  V30 2062 N 189.197 -1.51736 -0.425897 0
M  V30 2063 C 190.443 -1.65214 -1.1761 0
M  V30 2064 C 190.776 -0.372778 -1.90589 0
M  V30 2065 O 190.051 0.628139 -1.84078 0
M  V30 2066 C 190.334 -2.86312 -2.18398 0
M  V30 2067 C 190.187 -4.24254 -1.49426 0
M  V30 2068 C 191.506 -3.02925 -3.19256 0
M  V30 2069 H 188.625 -0.601263 -0.426206 0
M  V30 2070 H 191.267 -1.8425 -0.463882 0
M  V30 2071 H 189.417 -2.70213 -2.79137 0
M  V30 2072 H 191.089 -4.52046 -0.919362 0
M  V30 2073 H 189.332 -4.26426 -0.796432 0
M  V30 2074 H 190.003 -5.05001 -2.22885 0
M  V30 2075 H 192.479 -3.1781 -2.68581 0
M  V30 2076 H 191.355 -3.89199 -3.8706 0
M  V30 2077 H 191.616 -2.15497 -3.86023 0
M  V30 2078 N 190.675 0.682077 -1.42076 0
M  V30 2079 C 191.9 1.47558 -1.45744 0
M  V30 2080 C 192.325 1.87977 -0.0680981 0
M  V30 2081 O 191.683 1.55522 0.9318 0
M  V30 2082 C 191.731 2.70575 -2.38373 0
M  V30 2083 O 190.835 3.68573 -1.85007 0
M  V30 2084 H 190.176 0.443585 -0.494093 0
M  V30 2085 H 192.706 0.837238 -1.86686 0
M  V30 2086 H 192.716 3.18729 -2.54707 0
M  V30 2087 H 191.391 2.40495 -3.39315 0
M  V30 2088 H 189.968 3.2757 -1.78192 0
M  V30 2089 N 192.153 1.28127 0.917671 0
M  V30 2090 C 193.103 1.08361 2.00604 0
M  V30 2091 C 194.087 0.00847518 1.60898 0
M  V30 2092 O 195.279 0.228167 1.75523 0
M  V30 2093 C 192.408 0.743376 3.35155 0
M  V30 2094 C 191.494 1.85716 3.81275 0
M  V30 2095 N 191.885 3.09822 3.99805 0
M  V30 2096 C 190.183 1.74612 4.10398 0
M  V30 2097 C 190.884 3.82368 4.38372 0
M  V30 2098 N 189.86 3.10192 4.4641 0
M  V30 2099 H 193.662 2.02531 2.12975 0
M  V30 2100 H 191.176 1.18989 1.10523 0
M  V30 2101 H 193.173 0.582859 4.12805 0
M  V30 2102 H 191.833 -0.190595 3.2414 0
M  V30 2103 H 192.844 3.45475 3.85833 0
M  V30 2104 H 189.521 0.883657 4.08041 0
M  V30 2105 H 190.911 4.89082 4.60704 0
M  V30 2106 N 193.631 -1.12557 1.10312 0
M  V30 2107 C 194.561 -2.20341 0.772798 0
M  V30 2108 C 195.542 -1.68198 -0.25365 0
M  V30 2109 O 196.727 -1.93831 -0.119699 0
M  V30 2110 C 193.857 -3.46709 0.202443 0
M  V30 2111 C 192.811 -4.11996 1.15943 0
M  V30 2112 C 192.137 -5.328 0.450345 0
M  V30 2113 C 193.437 -4.5828 2.50552 0
M  V30 2114 H 195.131 -2.48229 1.674 0
M  V30 2115 H 192.677 -1.19308 0.806326 0
M  V30 2116 H 194.63 -4.2138 -0.0407752 0
M  V30 2117 H 193.354 -3.18245 -0.734001 0
M  V30 2118 H 192.013 -3.39305 1.38808 0
M  V30 2119 H 191.661 -5.00602 -0.490531 0
M  V30 2120 H 191.361 -5.7743 1.08851 0
M  V30 2121 H 192.885 -6.10219 0.215642 0
M  V30 2122 H 194.299 -5.2433 2.31843 0
M  V30 2123 H 192.696 -5.13683 3.10242 0
M  V30 2124 H 193.766 -3.72329 3.10643 0
M  V30 2125 N 195.109 -0.891671 -1.2995 0
M  V30 2126 C 196.525 -0.58662 -1.48428 0
M  V30 2127 C 196.725 0.873951 -1.81561 0
M  V30 2128 O 195.781 1.65471 -1.90724 0
M  V30 2129 C 197.094 -1.50553 -2.60296 0
M  V30 2130 C 198.642 -1.50988 -2.74175 0
M  V30 2131 C 199.117 -2.41488 -3.89163 0
M  V30 2132 N 200.608 -2.39489 -3.96483 0
M  V30 2133 C 201.343 -3.06223 -4.84784 0
M  V30 2134 N 200.839 -3.82206 -5.77833 0
M  V30 2135 N 202.632 -2.95421 -4.78208 0
M  V30 2136 H 194.783 -1.83644 -1.06718 0
M  V30 2137 H 197.046 -0.786455 -0.529332 0
M  V30 2138 H 196.752 -2.54581 -2.42654 0
M  V30 2139 H 196.626 -1.22008 -3.56923 0
M  V30 2140 H 199.013 -0.47708 -2.91218 0
M  V30 2141 H 199.094 -1.83567 -1.78148 0
M  V30 2142 H 198.738 -3.44857 -3.72876 0
M  V30 2143 H 198.668 -2.06222 -4.84541 0
M  V30 2144 H 201.159 -1.84278 -3.29924 0
M  V30 2145 H 201.472 -4.302 -6.41988 0
M  V30 2146 H 199.817 -3.86313 -5.77743 0
M  V30 2147 H 203.008 -2.35581 -4.04499 0
M  V30 2148 H 203.181 -3.47704 -5.46814 0
M  V30 2149 N 196.587 1.43421 -0.653314 0
M  V30 2150 C 197.812 2.06678 -0.172846 0
M  V30 2151 C 198.237 1.48648 1.15262 0
M  V30 2152 O 197.595 0.596457 1.71208 0
M  V30 2153 C 197.643 3.60474 -0.0953184 0
M  V30 2154 O 196.747 4.01487 0.942442 0
M  V30 2155 H 196.088 0.657181 -0.0949155 0
M  V30 2156 H 198.618 1.83925 -0.896265 0
M  V30 2157 H 198.628 4.07905 0.0879728 0
M  V30 2158 H 197.303 4.02088 -1.06291 0
M  V30 2159 H 195.88 3.65646 0.731932 0
M  V30 2160 N 198.065 0.39524 1.52563 0
M  V30 2161 C 199.476 -0.0774719 1.86539 0
M  V30 2162 C 199.827 -1.45641 1.31466 0
M  V30 2163 O 198.952 -2.06459 0.648367 0
M  V30 2164 C 199.547 -0.147356 3.38479 0
M  V30 2165 C 198.106 -0.564373 3.72145 0
M  V30 2166 C 197.253 0.269919 2.75983 0
M  V30 2167 H 200.204 0.612876 1.46388 0
M  V30 2168 H 200.225 -0.965343 3.68051 0
M  V30 2169 H 199.737 0.856387 3.78534 0
M  V30 2170 H 197.838 -1.57527 3.37663 0
M  V30 2171 H 197.951 -0.318402 4.78041 0
M  V30 2172 H 196.315 -0.265696 2.5331 0
M  V30 2173 H 197.098 1.27175 3.18875 0
M  V30 2174 N 199.544 -1.57102 0.125237 0
M  V30 2175 C 200.96 -1.57915 -0.231322 0
M  V30 2176 C 201.16 -1.13833 -1.66266 0
M  V30 2177 O 200.216 -0.828581 -2.38518 0
M  V30 2178 C 201.529 -3.00699 0.00766489 0
M  V30 2179 C 203.077 -3.12947 -0.0577483 0
M  V30 2180 C 203.552 -4.57742 0.153626 0
M  V30 2181 N 205.043 -4.63092 0.0998073 0
M  V30 2182 C 205.778 -5.72905 0.238174 0
M  V30 2183 N 205.274 -6.91445 0.433057 0
M  V30 2184 N 207.067 -5.6182 0.177308 0
M  V30 2185 H 199.218 -1.84055 1.06007 0
M  V30 2186 H 201.481 -0.850905 0.417929 0
M  V30 2187 H 201.187 -3.3726 0.997431 0
M  V30 2188 H 201.061 -3.70236 -0.721452 0
M  V30 2189 H 203.448 -2.7624 -1.03804 0
M  V30 2190 H 203.529 -2.4594 0.70335 0
M  V30 2191 H 203.173 -4.95149 1.13092 0
M  V30 2192 H 203.103 -5.22848 -0.627534 0
M  V30 2193 H 205.594 -3.77871 -0.047051 0
M  V30 2194 H 205.907 -7.70985 0.529332 0
M  V30 2195 H 204.252 -6.93415 0.469109 0
M  V30 2196 H 207.443 -4.68093 0.0259748 0
M  V30 2197 H 207.616 -6.47357 0.288582 0
M  V30 2198 N 201.022 0.148545 -1.56898 0
M  V30 2199 C 201.969 1.18345 -1.98149 0
M  V30 2200 C 202.939 1.42772 -0.848848 0
M  V30 2201 O 204.124 1.55132 -1.11079 0
M  V30 2202 C 201.264 2.51231 -2.36594 0
M  V30 2203 C 200.377 2.33991 -3.63142 0
M  V30 2204 C 199.512 3.59902 -3.90697 0
M  V30 2205 C 198.551 3.37692 -5.1052 0
M  V30 2206 N 197.688 4.5573 -5.34092 0
M  V30 2207 H 202.528 0.82467 -2.86362 0
M  V30 2208 H 200.065 0.395756 -1.41676 0
M  V30 2209 H 202.023 3.28713 -2.56912 0
M  V30 2210 H 200.653 2.85059 -1.51463 0
M  V30 2211 H 199.705 1.47572 -3.50609 0
M  V30 2212 H 201.017 2.13539 -4.5078 0
M  V30 2213 H 200.171 4.45813 -4.11505 0
M  V30 2214 H 198.91 3.83357 -3.01477 0
M  V30 2215 H 197.915 2.5017 -4.89587 0
M  V30 2216 H 199.14 3.15637 -6.0129 0
M  V30 2217 H 197.086 4.79361 -4.47827 0
M  V30 2218 H 197.003 4.38274 -6.15996 0
M  V30 2219 H 198.271 5.42858 -5.59397 0
M  V30 2220 N 202.5 1.5196 0.417844 0
M  V30 2221 C 203.749 1.6482 1.16264 0
M  V30 2222 C 204.062 0.379886 1.91876 0
M  V30 2223 O 205.268 0.388154 2.68711 0
M  V30 2224 C 203.724 2.91161 2.1155 0
M  V30 2225 C 203.332 4.25068 1.41495 0
M  V30 2226 C 205.076 3.13383 2.86341 0
M  V30 2227 C 202.983 5.42541 2.35379 0
M  V30 2228 H 201.913 0.613954 0.437694 0
M  V30 2229 H 204.564 1.78442 0.427871 0
M  V30 2230 H 202.946 2.71218 2.88543 0
M  V30 2231 H 204.12 4.55463 0.699263 0
M  V30 2232 H 202.435 4.0888 0.787792 0
M  V30 2233 H 205.032 3.98324 3.5671 0
M  V30 2234 H 205.375 2.27256 3.48798 0
M  V30 2235 H 205.908 3.33757 2.1645 0
M  V30 2236 H 202.647 6.30987 1.77582 0
M  V30 2237 H 202.167 5.16497 3.04945 0
M  V30 2238 H 203.846 5.75272 2.96093 0
M  V30 2239 N 203.978 -0.674533 1.42435 0
M  V30 2240 C 205.225 -1.43459 1.42919 0
M  V30 2241 C 205.553 -1.94446 0.0457312 0
M  V30 2242 O 204.808 -1.7132 -0.94593 0
M  V30 2243 C 205.107 -2.64767 2.40069 0
M  V30 2244 C 204.773 -2.3232 3.86443 0
M  V30 2245 C 203.435 -2.23182 4.26314 0
M  V30 2246 C 205.787 -2.05977 4.78773 0
M  V30 2247 C 203.115 -1.85827 5.56494 0
M  V30 2248 C 205.467 -1.70125 6.09295 0
M  V30 2249 C 204.131 -1.59498 6.48164 0
M  V30 2250 H 203.401 -0.524952 0.522978 0
M  V30 2251 H 206.048 -0.769097 1.75377 0
M  V30 2252 H 204.353 -3.36349 2.00939 0
M  V30 2253 H 206.05 -3.22949 2.37707 0
M  V30 2254 H 202.64 -2.40334 3.54877 0
M  V30 2255 H 206.824 -2.11969 4.48757 0
M  V30 2256 H 202.08 -1.76168 5.8547 0
M  V30 2257 H 206.254 -1.48767 6.80324 0
M  V30 2258 H 203.881 -1.30322 7.48946 0
M  V30 2259 N 205.456 -1.28612 -0.910864 0
M  V30 2260 C 206.704 -1.15705 -1.65701 0
M  V30 2261 C 207.025 0.29416 -1.92769 0
M  V30 2262 O 206.295 1.20331 -1.54588 0
M  V30 2263 H 204.875 -0.425216 -0.614167 0
M  V30 2264 H 207.537 -1.61381 -1.0928 0
M  V30 2265 H 206.633 -1.6988 -2.61815 0
M  V30 2266 N 206.934 1.1197 -1.10907 0
M  V30 2267 C 208.183 1.82947 -0.849302 0
M  V30 2268 C 208.496 1.85275 0.627112 0
M  V30 2269 O 209.702 2.52296 1.00295 0
M  V30 2270 C 208.158 3.28529 -1.46959 0
M  V30 2271 C 207.766 3.34546 -2.97965 0
M  V30 2272 C 209.51 4.04443 -1.28942 0
M  V30 2273 C 207.417 4.74491 -3.53004 0
M  V30 2274 H 206.347 0.685477 -0.314065 0
M  V30 2275 H 208.998 1.2604 -1.33365 0
M  V30 2276 H 207.38 3.85333 -0.912917 0
M  V30 2277 H 208.554 2.87654 -3.59989 0
M  V30 2278 H 206.869 2.72108 -3.15192 0
M  V30 2279 H 209.466 5.07787 -1.67502 0
M  V30 2280 H 209.809 4.15656 -0.231456 0
M  V30 2281 H 210.342 3.5401 -1.81443 0
M  V30 2282 H 207.081 4.68474 -4.58489 0
M  V30 2283 H 206.601 5.21816 -2.9575 0
M  V30 2284 H 208.28 5.4344 -3.51115 0
M  V30 2285 N 208.412 0.89855 1.29475 0
M  V30 2286 C 209.652 0.530771 1.97388 0
M  V30 2287 C 210.016 -0.905832 1.69289 0
M  V30 2288 O 211.217 -1.38042 2.30646 0
M  V30 2289 C 209.488 0.81369 3.48014 0
M  V30 2290 S 211.047 0.550048 4.35339 0
M  V30 2291 H 207.865 0.196956 0.683176 0
M  V30 2292 H 210.467 1.16074 1.57312 0
M  V30 2293 H 209.171 1.85749 3.65958 0
M  V30 2294 H 208.702 0.171795 3.93025 0
M  V30 2295 H 210.717 -0.605423 4.92493 0
M  V30 2296 N 209.89 -1.43072 0.660911 0
M  V30 2297 C 211.13 -2.03596 0.181146 0
M  V30 2298 C 211.494 -1.51057 -1.18515 0
M  V30 2299 O 212.695 -2.03275 -1.75877 0
M  V30 2300 C 210.966 -3.56845 0.19911 0
M  V30 2301 S 212.525 -4.38289 -0.211684 0
M  V30 2302 H 209.343 -0.706954 0.0757479 0
M  V30 2303 H 211.945 -1.75027 0.870965 0
M  V30 2304 H 210.649 -3.92583 1.1961 0
M  V30 2305 H 210.18 -3.90067 -0.510996 0
M  V30 2306 H 212.195 -4.74583 -1.44863 0
M  V30 2307 N 211.368 -0.403325 -1.52352 0
M  V30 2308 C 212.596 0.174012 -2.06167 0
M  V30 2309 C 213.011 1.39347 -1.27388 0
M  V30 2310 O 212.368 1.79597 -0.324201 0
M  V30 2311 C 212.419 0.530223 -3.5759 0
M  V30 2312 O 212.14 -0.640806 -4.33388 0
M  V30 2313 C 213.641 1.16192 -4.27802 0
M  V30 2314 H 210.861 0.0229464 -0.670608 0
M  V30 2315 H 213.405 -0.572604 -1.9632 0
M  V30 2316 H 211.56 1.22673 -3.67464 0
M  V30 2317 H 211.974 -0.344851 -5.23365 0
M  V30 2318 H 213.448 1.36141 -5.34948 0
M  V30 2319 H 213.925 2.13335 -3.83907 0
M  V30 2320 H 214.531 0.505775 -4.22282 0
M  V30 2321 N 212.846 1.57033 -0.133567 0
M  V30 2322 C 214.095 1.94861 0.520768 0
M  V30 2323 C 214.408 1.02012 1.66892 0
M  V30 2324 O 215.614 1.29365 2.38699 0
M  V30 2325 C 214.07 3.46362 0.977809 0
M  V30 2326 C 213.678 4.47773 -0.142674 0
M  V30 2327 C 215.422 3.93083 1.60269 0
M  V30 2328 C 213.329 5.90468 0.331883 0
M  V30 2329 H 212.259 0.727453 0.198315 0
M  V30 2330 H 214.91 1.82227 -0.215759 0
M  V30 2331 H 213.292 3.54282 1.7692 0
M  V30 2332 H 214.466 4.51536 -0.919317 0
M  V30 2333 H 212.781 4.10891 -0.675124 0
M  V30 2334 H 215.378 4.97121 1.96914 0
M  V30 2335 H 215.721 3.33876 2.48662 0
M  V30 2336 H 216.254 3.88025 0.876453 0
M  V30 2337 H 212.993 6.53463 -0.516341 0
M  V30 2338 H 212.513 5.90094 1.07469 0
M  V30 2339 H 214.192 6.42179 0.788332 0
M  V30 2340 N 214.325 -0.140222 1.56975 0
M  V30 2341 C 215.571 -0.848084 1.84876 0
M  V30 2342 C 215.926 -1.78481 0.718481 0
M  V30 2343 O 215.219 -1.89497 -0.283093 0
M  V30 2344 C 215.413 -1.65386 3.16832 0
M  V30 2345 C 215.242 -0.79665 4.42587 0
M  V30 2346 C 214.012 -0.459648 5.03205 0
M  V30 2347 C 216.21 -0.12389 5.14151 0
M  V30 2348 N 214.192 0.410446 6.12526 0
M  V30 2349 C 215.563 0.606064 6.17031 0
M  V30 2350 C 217.618 -0.0452654 4.97879 0
M  V30 2351 C 216.321 1.40723 7.054 0
M  V30 2352 C 218.347 0.742658 5.86718 0
M  V30 2353 C 217.709 1.46087 6.89085 0
M  V30 2354 H 213.808 -0.287946 0.727056 0
M  V30 2355 H 216.392 -0.11304 1.94372 0
M  V30 2356 H 214.563 -2.36009 3.08471 0
M  V30 2357 H 216.295 -2.30541 3.32615 0
M  V30 2358 H 213.05 -0.797006 4.66846 0
M  V30 2359 H 213.474 0.836716 6.7181 0
M  V30 2360 H 218.116 -0.586184 4.18717 0
M  V30 2361 H 215.834 1.95938 7.83986 0
M  V30 2362 H 219.42 0.805574 5.76196 0
M  V30 2363 H 218.3 2.06077 7.56639 0
M  V30 2364 N 215.803 -1.52179 -0.40978 0
M  V30 2365 C 217.049 -1.66453 -1.15851 0
M  V30 2366 C 217.382 -0.392972 -1.90182 0
M  V30 2367 O 216.657 0.608579 -1.84734 0
M  V30 2368 C 216.94 -2.88612 -2.15349 0
M  V30 2369 C 216.793 -4.25815 -1.44918 0
M  V30 2370 C 218.112 -3.06294 -3.16026 0
M  V30 2371 H 215.231 -0.60575 -0.419805 0
M  V30 2372 H 217.873 -1.84732 -0.444314 0
M  V30 2373 H 216.023 -2.73158 -2.76255 0
M  V30 2374 H 217.695 -4.52995 -0.871365 0
M  V30 2375 H 215.938 -4.27247 -0.751159 0
M  V30 2376 H 216.609 -5.07337 -2.17516 0
M  V30 2377 H 219.085 -3.20641 -2.65195 0
M  V30 2378 H 217.961 -3.93283 -3.8291 0
M  V30 2379 H 218.222 -2.19579 -3.83715 0
M  V30 2380 N 217.281 0.66697 -1.42791 0
M  V30 2381 C 218.211 1.79218 -1.49677 0
M  V30 2382 C 219.192 1.66405 -0.352623 0
M  V30 2383 O 220.377 1.85708 -0.567993 0
M  V30 2384 C 217.507 3.17565 -1.40605 0
M  V30 2385 C 216.461 3.45124 -2.53127 0
M  V30 2386 C 215.787 4.83127 -2.29112 0
M  V30 2387 C 217.087 3.41236 -3.95418 0
M  V30 2388 H 218.781 1.73713 -2.43853 0
M  V30 2389 H 216.327 0.83432 -1.17367 0
M  V30 2390 H 218.28 3.96022 -1.44029 0
M  V30 2391 H 217.004 3.23767 -0.429271 0
M  V30 2392 H 215.663 2.69031 -2.49034 0
M  V30 2393 H 215.311 4.85988 -1.29709 0
M  V30 2394 H 215.011 5.02528 -3.04531 0
M  V30 2395 H 216.535 5.63859 -2.34297 0
M  V30 2396 H 217.949 4.09651 -4.01073 0
M  V30 2397 H 216.346 3.72173 -4.70752 0
M  V30 2398 H 217.416 2.39665 -4.21532 0
M  V30 2399 N 218.759 1.29093 0.90403 0
M  V30 2400 C 220.005 1.16986 1.65656 0
M  V30 2401 C 220.338 -0.278925 1.92186 0
M  V30 2402 O 219.613 -1.2019 1.5292 0
M  V30 2403 C 219.896 1.97908 3.0084 0
M  V30 2404 C 219.749 3.50903 2.81403 0
M  V30 2405 C 221.068 1.80208 4.01513 0
M  V30 2406 H 218.187 0.426346 0.601164 0
M  V30 2407 H 220.829 1.58518 1.04747 0
M  V30 2408 H 218.979 1.62616 3.52829 0
M  V30 2409 H 220.651 3.96153 2.36348 0
M  V30 2410 H 218.894 3.76045 2.1627 0
M  V30 2411 H 219.565 4.02791 3.77443 0
M  V30 2412 H 222.041 2.11025 3.58619 0
M  V30 2413 H 220.917 2.39184 4.94047 0
M  V30 2414 H 221.178 0.756119 4.35586 0
M  V30 2415 N 220.237 -1.11381 1.11499 0
M  V30 2416 C 221.483 -1.83597 0.875423 0
M  V30 2417 C 221.838 -1.83048 -0.592555 0
M  V30 2418 O 221.131 -1.27304 -1.43193 0
M  V30 2419 C 221.325 -3.30026 1.37177 0
M  V30 2420 C 221.154 -3.44837 2.88647 0
M  V30 2421 C 219.924 -3.57825 3.56776 0
M  V30 2422 C 222.122 -3.3907 3.86699 0
M  V30 2423 N 220.104 -3.61113 4.96458 0
M  V30 2424 C 221.475 -3.48986 5.12454 0
M  V30 2425 C 223.53 -3.22605 3.7925 0
M  V30 2426 C 222.233 -3.44135 6.31636 0
M  V30 2427 C 224.259 -3.19072 4.97943 0
M  V30 2428 C 223.621 -3.29559 6.22551 0
M  V30 2429 H 219.72 -0.687044 0.37349 0
M  V30 2430 H 222.304 -1.33265 1.41946 0
M  V30 2431 H 220.475 -3.78874 0.854919 0
M  V30 2432 H 222.207 -3.90153 1.07529 0
M  V30 2433 H 218.962 -3.60414 3.07244 0
M  V30 2434 H 219.386 -3.66394 5.69284 0
M  V30 2435 H 224.028 -3.13382 2.83816 0
M  V30 2436 H 221.746 -3.52126 7.27347 0
M  V30 2437 H 225.332 -3.07498 4.93899 0
M  V30 2438 H 224.212 -3.26815 7.12855 0
M  V30 2439 N 221.715 -0.905404 -1.28997 0
M  V30 2440 C 222.943 -0.549846 -1.9946 0
M  V30 2441 C 223.358 0.866834 -1.67724 0
M  V30 2442 O 222.715 1.57298 -0.925404 0
M  V30 2443 C 222.766 -0.739387 -3.53858 0
M  V30 2444 O 222.487 -2.10031 -3.84472 0
M  V30 2445 C 223.988 -0.389541 -4.41585 0
M  V30 2446 H 221.208 -0.210429 -0.637151 0
M  V30 2447 H 223.752 -1.21632 -1.64396 0
M  V30 2448 H 221.907 -0.120023 -3.87214 0
M  V30 2449 H 222.321 -2.13385 -4.79132 0
M  V30 2450 H 223.795 -0.572972 -5.49018 0
M  V30 2451 H 224.272 0.673756 -4.34001 0
M  V30 2452 H 224.878 -0.986089 -4.1371 0
M  V30 2453 N 223.193 1.4272 -0.668489 0
M  V30 2454 C 224.441 2.01226 -0.187769 0
M  V30 2455 C 224.762 1.53092 1.2078 0
M  V30 2456 O 224.032 0.74993 1.80977 0
M  V30 2457 H 222.612 0.744041 -0.0664272 0
M  V30 2458 H 225.274 1.74723 -0.863583 0
M  V30 2459 H 224.37 3.11556 -0.184166 0
M  V30 2460 N 224.671 0.411399 1.52136 0
M  V30 2461 C 225.896 -0.165538 2.06738 0
M  V30 2462 C 226.321 -1.379 1.27926 0
M  V30 2463 O 225.679 -1.78628 0.310114 0
M  V30 2464 C 225.727 -0.492124 3.57226 0
M  V30 2465 O 224.831 -1.58276 3.80818 0
M  V30 2466 H 224.172 -0.0132132 0.663869 0
M  V30 2467 H 226.702 0.585253 1.96051 0
M  V30 2468 H 226.712 -0.750104 4.01045 0
M  V30 2469 H 225.387 0.394922 4.14021 0
M  V30 2470 H 223.964 -1.31677 3.48877 0
M  V30 2471 N 226.149 -1.5696 0.141893 0
M  V30 2472 C 227.398 -1.95135 -0.510427 0
M  V30 2473 C 227.711 -1.02896 -1.66348 0
M  V30 2474 O 228.917 -1.30629 -2.38009 0
M  V30 2475 C 227.373 -3.46876 -0.959427 0
M  V30 2476 C 226.981 -4.47691 0.166419 0
M  V30 2477 C 228.725 -3.93927 -1.58183 0
M  V30 2478 C 226.632 -5.90636 -0.300565 0
M  V30 2479 H 225.562 -0.728494 -0.194454 0
M  V30 2480 H 228.213 -1.8211 0.22542 0
M  V30 2481 H 226.595 -3.55215 -1.75038 0
M  V30 2482 H 227.769 -4.51043 0.94325 0
M  V30 2483 H 226.084 -4.10527 0.696905 0
M  V30 2484 H 228.681 -4.98158 -1.94275 0
M  V30 2485 H 229.024 -3.3519 -2.46888 0
M  V30 2486 H 229.557 -3.88484 -0.855863 0
M  V30 2487 H 226.296 -6.5318 0.550989 0
M  V30 2488 H 225.816 -5.90655 -1.04338 0
M  V30 2489 H 227.495 -6.42588 -0.754265 0
M  V30 2490 N 227.627 0.131896 -1.57047 0
M  V30 2491 C 229.038 0.690407 -1.73465 0
M  V30 2492 C 229.389 1.8094 -0.758629 0
M  V30 2493 O 228.514 2.16282 0.0713813 0
M  V30 2494 C 229.109 1.25916 -3.14532 0
M  V30 2495 C 227.668 1.76409 -3.32501 0
M  V30 2496 C 226.815 0.658579 -2.69366 0
M  V30 2497 H 229.766 -0.0939144 -1.58422 0
M  V30 2498 H 229.787 2.12892 -3.15369 0
M  V30 2499 H 229.299 0.444515 -3.85546 0
M  V30 2500 H 227.4 2.60391 -2.66509 0
M  V30 2501 H 227.513 1.88241 -4.4057 0
M  V30 2502 H 225.877 1.08899 -2.30246 0
M  V30 2503 H 226.66 -0.14487 -3.42994 0
M  V30 2504 N 229.106 1.52395 0.401703 0
M  V30 2505 C 230.355 1.66044 1.14509 0
M  V30 2506 C 230.668 0.400216 1.91462 0
M  V30 2507 O 231.874 0.416632 2.68284 0
M  V30 2508 C 230.33 2.93388 2.0845 0
M  V30 2509 C 229.938 4.26545 1.36978 0
M  V30 2510 C 231.682 3.16402 2.83001 0
M  V30 2511 C 229.589 5.45007 2.29611 0
M  V30 2512 H 228.519 0.618562 0.431158 0
M  V30 2513 H 231.17 1.78886 0.40892 0
M  V30 2514 H 229.552 2.74263 2.8565 0
M  V30 2515 H 230.726 4.56179 0.650916 0
M  V30 2516 H 229.041 4.09692 0.74438 0
M  V30 2517 H 231.638 4.02085 3.52465 0
M  V30 2518 H 231.981 2.30943 3.46368 0
M  V30 2519 H 232.514 3.36034 2.12898 0
M  V30 2520 H 229.253 6.32835 1.70879 0
M  V30 2521 H 228.773 5.19702 2.9945 0
M  V30 2522 H 230.452 5.7838 2.89974 0
M  V30 2523 N 230.584 -0.659388 1.43143 0
M  V30 2524 C 231.814 -1.44513 1.47646 0
M  V30 2525 C 232.222 -1.88981 0.0910095 0
M  V30 2526 O 231.565 -1.59702 -0.907789 0
M  V30 2527 C 231.627 -2.71663 2.35456 0
M  V30 2528 C 231.291 -2.49175 3.83094 0
M  V30 2529 C 232.288 -2.1279 4.74359 0
M  V30 2530 C 229.973 -2.63691 4.27519 0
M  V30 2531 C 231.967 -1.9121 6.08044 0
M  V30 2532 C 229.654 -2.41726 5.61259 0
M  V30 2533 C 230.652 -2.0554 6.51339 0
M  V30 2534 O 230.34 -1.838 7.82606 0
M  V30 2535 H 230.072 -0.45064 0.503884 0
M  V30 2536 H 232.626 -0.816248 1.88485 0
M  V30 2537 H 230.856 -3.37089 1.89493 0
M  V30 2538 H 232.545 -3.33595 2.31235 0
M  V30 2539 H 233.311 -2.01157 4.41317 0
M  V30 2540 H 229.19 -2.90832 3.57684 0
M  V30 2541 H 232.734 -1.62889 6.78316 0
M  V30 2542 H 228.631 -2.52959 5.9387 0
M  V30 2543 H 229.399 -1.98275 7.94122 0
M  V30 2544 N 232.062 -1.29571 -0.897171 0
M  V30 2545 C 233.287 -1.20705 -1.68656 0
M  V30 2546 C 233.712 0.228582 -1.86706 0
M  V30 2547 O 233.07 1.16494 -1.3892 0
M  V30 2548 C 233.118 -1.9282 -3.04717 0
M  V30 2549 O 232.222 -1.24697 -3.93096 0
M  V30 2550 H 231.563 -0.418126 -0.515816 0
M  V30 2551 H 234.093 -1.71183 -1.12061 0
M  V30 2552 H 234.103 -2.01372 -3.54843 0
M  V30 2553 H 232.778 -2.97239 -2.90899 0
M  V30 2554 H 231.355 -1.2442 -3.51531 0
M  V30 2555 N 233.54 1.10788 -1.12088 0
M  V30 2556 C 234.787 1.82671 -0.873931 0
M  V30 2557 C 235.115 1.85004 0.600311 0
M  V30 2558 O 234.37 1.30365 1.45957 0
M  V30 2559 C 234.669 3.29294 -1.38926 0
M  V30 2560 C 234.335 3.47113 -2.87791 0
M  V30 2561 C 232.997 3.51684 -3.28439 0
M  V30 2562 C 235.349 3.52808 -3.83635 0
M  V30 2563 C 232.677 3.59513 -4.63646 0
M  V30 2564 C 235.029 3.62169 -5.18668 0
M  V30 2565 C 233.693 3.65003 -5.58864 0
M  V30 2566 H 232.963 0.668441 -0.319794 0
M  V30 2567 H 235.61 1.30613 -1.40045 0
M  V30 2568 H 233.915 3.83894 -0.783122 0
M  V30 2569 H 235.612 3.83416 -1.17443 0
M  V30 2570 H 232.202 3.4423 -2.5535 0
M  V30 2571 H 236.386 3.4853 -3.53328 0
M  V30 2572 H 231.642 3.59987 -4.94185 0
M  V30 2573 H 235.816 3.6552 -5.92763 0
M  V30 2574 H 233.443 3.70822 -6.63623 0
M  V30 2575 N 235.018 0.912232 1.28515 0
M  V30 2576 C 235.968 0.370649 2.24967 0
M  V30 2577 C 236.952 -0.516375 1.52389 0
M  V30 2578 O 238.144 -0.356345 1.73376 0
M  V30 2579 C 235.273 -0.389526 3.41083 0
M  V30 2580 C 234.359 0.51313 4.20984 0
M  V30 2581 N 234.75 1.62604 4.78951 0
M  V30 2582 C 233.048 0.313235 4.44899 0
M  V30 2583 C 233.749 2.18619 5.39055 0
M  V30 2584 N 232.725 1.47765 5.23132 0
M  V30 2585 H 236.527 1.22061 2.67354 0
M  V30 2586 H 234.041 0.764712 1.43269 0
M  V30 2587 H 236.038 -0.794353 4.09262 0
M  V30 2588 H 234.698 -1.2366 3.0023 0
M  V30 2589 H 235.709 2.00864 4.77362 0
M  V30 2590 H 232.386 -0.494452 4.14562 0
M  V30 2591 H 233.776 3.12228 5.94948 0
M  V30 2592 N 236.496 -1.42363 0.676048 0
M  V30 2593 C 237.744 -2.01123 0.198437 0
M  V30 2594 C 238.065 -1.53731 -1.19966 0
M  V30 2595 O 237.335 -0.759518 -1.80577 0
M  V30 2596 H 235.915 -0.743678 0.0703721 0
M  V30 2597 H 238.577 -1.74263 0.872837 0
M  V30 2598 H 237.673 -3.11454 0.200686 0
M  V30 2599 N 237.974 -0.419461 -1.51915 0
M  V30 2600 C 238.921 0.400927 -2.27291 0
M  V30 2601 C 239.891 1.03224 -1.30131 0
M  V30 2602 O 241.076 1.05455 -1.59009 0
M  V30 2603 C 238.216 1.50603 -3.10504 0
M  V30 2604 C 237.329 0.89462 -4.22635 0
M  V30 2605 C 236.464 1.97328 -4.93189 0
M  V30 2606 C 235.503 1.33935 -5.97267 0
M  V30 2607 N 234.64 2.3586 -6.61298 0
M  V30 2608 H 239.48 -0.248251 -2.96964 0
M  V30 2609 H 237.017 -0.134266 -1.46486 0
M  V30 2610 H 238.975 2.15783 -3.57062 0
M  V30 2611 H 237.605 2.12509 -2.42981 0
M  V30 2612 H 236.657 0.131583 -3.80172 0
M  V30 2613 H 237.969 0.391641 -4.9726 0
M  V30 2614 H 237.123 2.70211 -5.43204 0
M  V30 2615 H 235.862 2.50994 -4.18155 0
M  V30 2616 H 234.867 0.595896 -5.46561 0
M  V30 2617 H 236.092 0.810252 -6.74249 0
M  V30 2618 H 234.038 2.88639 -5.89087 0
M  V30 2619 H 233.955 1.90403 -7.3163 0
M  V30 2620 H 235.223 3.08282 -7.15949 0
M  V30 2621 N 239.452 1.56882 -0.150215 0
M  V30 2622 C 240.698 1.96518 0.500834 0
M  V30 2623 C 241.031 1.03527 1.64304 0
M  V30 2624 O 240.306 0.0782751 1.94342 0
M  V30 2625 C 240.589 3.45822 1.00395 0
M  V30 2626 C 240.442 4.49591 -0.136983 0
M  V30 2627 C 241.761 3.97704 1.88467 0
M  V30 2628 H 238.88 0.714535 0.18058 0
M  V30 2629 H 241.522 1.88577 -0.232091 0
M  V30 2630 H 239.672 3.5272 1.62851 0
M  V30 2631 H 241.344 4.5477 -0.77343 0
M  V30 2632 H 239.587 4.26441 -0.795652 0
M  V30 2633 H 240.258 5.51402 0.256815 0
M  V30 2634 H 242.734 3.93304 1.35834 0
M  V30 2635 H 241.61 5.0263 2.20578 0
M  V30 2636 H 241.871 3.40252 2.82279 0
M  V30 2637 N 240.93 -0.123565 1.57115 0
M  V30 2638 C 241.84 -1.17074 2.033 0
M  V30 2639 C 242.856 -1.4561 0.952559 0
M  V30 2640 O 244.032 -1.56817 1.26374 0
M  V30 2641 C 241.097 -2.47857 2.42421 0
M  V30 2642 C 240.158 -2.26758 3.64526 0
M  V30 2643 C 239.391 -3.51305 4.01771 0
M  V30 2644 O 239.614 -4.5843 3.39409 0
M  V30 2645 O 238.548 -3.42578 4.94898 0
M  V30 2646 H 242.374 -0.808555 2.92739 0
M  V30 2647 H 239.959 -0.334027 1.45618 0
M  V30 2648 H 241.841 -3.2492 2.68338 0
M  V30 2649 H 240.516 -2.83558 1.5613 0
M  V30 2650 H 239.423 -1.47569 3.43765 0
M  V30 2651 H 240.756 -1.95963 4.51508 0
M  V30 2652 N 242.408 -1.52605 -0.393616 0
M  V30 2653 C 243.355 -1.77055 -1.48054 0
M  V30 2654 C 244.325 -0.61358 -1.54352 0
M  V30 2655 O 245.51 -0.852806 -1.70681 0
M  V30 2656 C 242.65 -1.94108 -2.85335 0
M  V30 2657 C 241.763 -3.21792 -2.88226 0
M  V30 2658 C 240.898 -3.29188 -4.16904 0
M  V30 2659 C 239.937 -4.51013 -4.13828 0
M  V30 2660 N 239.074 -4.55716 -5.34105 0
M  V30 2661 H 243.914 -2.69815 -1.26506 0
M  V30 2662 H 241.451 -1.33683 -0.61379 0
M  V30 2663 H 243.409 -2.01979 -3.65049 0
M  V30 2664 H 242.039 -1.04713 -3.05344 0
M  V30 2665 H 241.091 -3.23015 -2.00911 0
M  V30 2666 H 242.403 -4.11557 -2.8182 0
M  V30 2667 H 241.557 -3.36216 -5.05018 0
M  V30 2668 H 240.296 -2.37389 -4.26026 0
M  V30 2669 H 239.301 -4.44115 -3.24102 0
M  V30 2670 H 240.526 -5.44123 -4.06333 0
M  V30 2671 H 238.472 -3.66807 -5.43865 0
M  V30 2672 H 238.389 -5.39346 -5.29756 0
M  V30 2673 H 239.657 -4.66993 -6.2413 0
M  V30 2674 N 243.887 0.651787 -1.4349 0
M  V30 2675 C 245.117 1.43728 -1.48411 0
M  V30 2676 C 245.525 1.8893 -0.10103 0
M  V30 2677 O 244.868 1.60182 0.899307 0
M  V30 2678 C 244.93 2.70411 -2.36893 0
M  V30 2679 C 244.594 2.4714 -3.8441 0
M  V30 2680 C 245.591 2.10271 -4.75481 0
M  V30 2681 C 243.276 2.6142 -4.28912 0
M  V30 2682 C 245.27 1.87982 -6.0905 0
M  V30 2683 C 242.957 2.38746 -5.62533 0
M  V30 2684 C 243.955 2.02083 -6.5242 0
M  V30 2685 O 243.643 1.79647 -7.8357 0
M  V30 2686 H 243.375 0.447962 -0.506267 0
M  V30 2687 H 245.929 0.80624 -1.88915 0
M  V30 2688 H 244.159 3.36079 -1.91278 0
M  V30 2689 H 245.848 3.32364 -2.33 0
M  V30 2690 H 246.614 1.98814 -4.42378 0
M  V30 2691 H 242.493 2.88931 -3.59222 0
M  V30 2692 H 246.037 1.5929 -6.7917 0
M  V30 2693 H 241.934 2.49806 -5.95203 0
M  V30 2694 H 242.702 1.9406 -7.95162 0
M  V30 2695 N 245.365 1.30045 0.890287 0
M  V30 2696 C 246.298 1.10301 1.99772 0
M  V30 2697 C 247.276 0.0121631 1.62595 0
M  V30 2698 O 248.46 0.16469 1.87779 0
M  V30 2699 C 245.587 0.681125 3.31781 0
M  V30 2700 C 244.633 1.77206 3.87944 0
M  V30 2701 S 245.466 3.37335 4.15891 0
M  V30 2702 C 246.622 2.97036 5.50927 0
M  V30 2703 H 246.855 2.04057 2.16213 0
M  V30 2704 H 244.388 1.14299 1.03804 0
M  V30 2705 H 246.346 0.444439 4.08087 0
M  V30 2706 H 245.007 -0.236981 3.13205 0
M  V30 2707 H 244.2 1.42903 4.83316 0
M  V30 2708 H 243.802 1.96275 3.18358 0
M  V30 2709 H 246.094 2.44666 6.31779 0
M  V30 2710 H 247.037 3.91296 5.90164 0
M  V30 2711 H 247.445 2.35057 5.13233 0
M  V30 2712 N 246.843 -1.10192 1.12674 0
M  V30 2713 C 248.083 -1.83825 0.893736 0
M  V30 2714 C 248.447 -1.83341 -0.570082 0
M  V30 2715 O 249.648 -2.52553 -0.920354 0
M  V30 2716 C 247.919 -3.26405 1.45582 0
M  V30 2717 S 249.478 -4.17136 1.36171 0
M  V30 2718 H 246.296 -0.633732 0.322342 0
M  V30 2719 H 248.898 -1.32581 1.43675 0
M  V30 2720 H 247.602 -3.24329 2.51473 0
M  V30 2721 H 247.133 -3.82721 0.910405 0
M  V30 2722 H 249.148 -4.95069 0.334863 0
M  V30 2723 N 248.321 -0.919034 -1.28029 0
M  V30 2724 C 249.568 -0.554934 -1.94748 0
M  V30 2725 C 249.896 0.90231 -1.72304 0
M  V30 2726 O 249.151 1.65767 -1.04018 0
M  V30 2727 C 249.45 -0.816855 -3.4794 0
M  V30 2728 C 249.116 -2.25448 -3.90492 0
M  V30 2729 C 247.778 -2.64752 -4.01821 0
M  V30 2730 C 250.13 -3.18977 -4.12193 0
M  V30 2731 C 247.458 -3.96727 -4.32232 0
M  V30 2732 C 249.81 -4.50523 -4.44086 0
M  V30 2733 C 248.474 -4.89673 -4.53626 0
M  V30 2734 H 247.744 -0.203065 -0.712633 0
M  V30 2735 H 250.391 -1.16136 -1.52265 0
M  V30 2736 H 248.696 -0.127677 -3.91592 0
M  V30 2737 H 250.393 -0.514238 -3.97689 0
M  V30 2738 H 246.983 -1.93952 -3.82205 0
M  V30 2739 H 251.167 -2.89817 -4.02889 0
M  V30 2740 H 246.423 -4.26754 -4.37825 0
M  V30 2741 H 250.597 -5.23005 -4.59825 0
M  V30 2742 H 248.224 -5.91969 -4.76946 0
M  V30 2743 N 249.799 1.42003 -0.683588 0
M  V30 2744 C 250.749 2.27997 0.0121992 0
M  V30 2745 C 251.733 1.4156 0.764822 0
M  V30 2746 O 252.925 1.64935 0.642287 0
M  V30 2747 C 250.054 3.29706 0.956482 0
M  V30 2748 C 249.14 4.23625 0.200739 0
M  V30 2749 N 249.531 4.99448 -0.799087 0
M  V30 2750 C 247.829 4.43845 0.437937 0
M  V30 2751 C 248.53 5.68102 -1.25041 0
M  V30 2752 N 247.506 5.40511 -0.578648 0
M  V30 2753 H 251.308 2.84048 -0.754564 0
M  V30 2754 H 248.822 1.54071 -0.513398 0
M  V30 2755 H 250.819 3.90124 1.47 0
M  V30 2756 H 249.479 2.75216 1.72297 0
M  V30 2757 H 250.49 5.04303 -1.17893 0
M  V30 2758 H 247.167 4.00382 1.18325 0
M  V30 2759 H 248.557 6.38913 -2.07942 0
M  V30 2760 N 251.277 0.427512 1.51691 0
M  V30 2761 C 252.225 -0.403359 2.29076 0
M  V30 2762 C 253.219 -1.02962 1.34518 0
M  V30 2763 O 254.425 -0.965715 1.51901 0
M  V30 2764 H 250.8 -0.148879 0.737115 0
M  V30 2765 H 252.771 0.270295 2.97173 0
M  V30 2766 C 251.52 -1.49763 3.13794 0
M  V30 2767 H 250.843 -1.02508 3.86435 0
M  V30 2768 H 252.283 -2.05244 3.71014 0
M  V30 2769 C 250.742 -2.47536 2.28533 0
M  V30 2770 O 251.272 -3.51848 1.93819 0
M  V30 2771 N 249.478 -2.18187 1.91945 0
M  V30 2772 H 249.025 -1.33389 2.20375 0
M  V30 2773 H 248.983 -2.83848 1.35195 0
M  V30 2774 N 252.755 -1.56801 0.158532 0
M  V30 2775 C 253.688 -2.13148 -0.815065 0
M  V30 2776 C 254.666 -1.0581 -1.23462 0
M  V30 2777 O 255.85 -1.3371 -1.32868 0
M  V30 2778 C 252.977 -2.6606 -2.09594 0
M  V30 2779 C 252.023 -3.85651 -1.82141 0
M  V30 2780 S 252.856 -5.26041 -1.00207 0
M  V30 2781 C 254.012 -5.8235 -2.29389 0
M  V30 2782 H 254.245 -2.95396 -0.335937 0
M  V30 2783 H 251.778 -1.54299 -0.0559391 0
M  V30 2784 H 253.736 -2.97195 -2.8317 0
M  V30 2785 H 252.397 -1.83921 -2.54621 0
M  V30 2786 H 251.59 -4.20958 -2.77147 0
M  V30 2787 H 251.192 -3.55338 -1.16667 0
M  V30 2788 H 253.484 -5.94485 -3.24952 0
M  V30 2789 H 254.427 -6.79688 -1.9857 0
M  V30 2790 H 254.835 -5.10675 -2.40564 0
M  V30 2791 N 254.233 0.115231 -1.57178 0
M  V30 2792 C 255.458 0.840354 -1.89612 0
M  V30 2793 C 255.883 1.72464 -0.750845 0
M  V30 2794 O 255.241 1.78826 0.298478 0
M  V30 2795 C 255.289 1.64654 -3.20814 0
M  V30 2796 O 254.393 2.7538 -3.06985 0
M  V30 2797 H 253.734 0.232158 -0.622092 0
M  V30 2798 H 256.264 0.0964977 -2.04372 0
M  V30 2799 H 256.274 2.03499 -3.53627 0
M  V30 2800 H 254.949 0.997416 -4.03763 0
M  V30 2801 H 253.526 2.3971 -2.85646 0
M  V30 2802 N 255.711 1.52812 0.385517 0
M  V30 2803 C 256.988 1.5861 1.14465 0
M  V30 2804 C 257.368 0.381402 2.07626 0
M  V30 2805 O 256.716 -0.629999 2.19643 0
M  V30 2806 C 256.926 2.92664 1.90128 0
M  V30 2807 C 258.274 3.46526 2.45367 0
M  V30 2808 O 259.298 2.94562 2.0028 0
M  V30 2809 O 258.157 4.37323 3.27736 0
M  V30 2810 H 255.251 0.639855 0.523941 0
M  V30 2811 H 257.797 1.65149 0.390389 0
M  V30 2812 H 256.569 3.71788 1.22022 0
M  V30 2813 H 256.192 2.89527 2.72507 0
M  V30 2814 N 257.189 -0.644168 1.43834 0
M  V30 2815 C 258.466 -1.40188 1.36406 0
M  V30 2816 C 258.846 -2.11094 0.0163124 0
M  V30 2817 O 258.194 -2.05426 -1.00062 0
M  V30 2818 C 258.404 -2.3791 2.55343 0
M  V30 2819 C 259.752 -3.01637 2.98832 0
M  V30 2820 O 260.776 -2.48237 2.55455 0
M  V30 2821 O 259.635 -3.98477 3.74003 0
M  V30 2822 H 256.729 -0.626773 0.539523 0
M  V30 2823 H 259.275 -0.670317 1.559 0
M  V30 2824 H 258.047 -1.84525 3.4506 0
M  V30 2825 H 257.67 -3.18503 2.37995 0
M  V30 2826 N 258.668 -1.30515 -0.883378 0
M  V30 2827 C 259.896 -1.22359 -1.66841 0
M  V30 2828 C 260.311 0.213296 -1.87591 0
M  V30 2829 O 259.668 1.14075 -1.42454 0
M  V30 2830 C 259.719 -1.95011 -3.04389 0
M  V30 2831 O 259.44 -3.3309 -2.84575 0
M  V30 2832 C 260.941 -1.93532 -3.98824 0
M  V30 2833 H 258.161 -0.423371 -0.520575 0
M  V30 2834 H 260.705 -1.72167 -1.10357 0
M  V30 2835 H 258.86 -1.48997 -3.57601 0
M  V30 2836 H 259.274 -3.69907 -3.71846 0
M  V30 2837 H 260.748 -2.48902 -4.92699 0
M  V30 2838 H 261.225 -0.914627 -4.29571 0
M  V30 2839 H 261.831 -2.39364 -3.51547 0
M  V30 2840 N 260.146 1.09593 -1.13257 0
M  V30 2841 C 261.392 1.82181 -0.904521 0
M  V30 2842 C 261.747 1.83967 0.563358 0
M  V30 2843 O 261.04 1.29566 1.41149 0
M  V30 2844 C 261.234 3.27802 -1.42411 0
M  V30 2845 C 261.063 3.40201 -2.94097 0
M  V30 2846 C 259.833 3.52104 -3.62424 0
M  V30 2847 C 262.031 3.32875 -3.92044 0
M  V30 2848 N 260.013 3.53169 -5.0214 0
M  V30 2849 C 261.384 3.40789 -5.17941 0
M  V30 2850 C 263.439 3.16531 -3.84334 0
M  V30 2851 C 262.142 3.34042 -6.37031 0
M  V30 2852 C 264.168 3.11109 -5.02956 0
M  V30 2853 C 263.53 3.19614 -6.27715 0
M  V30 2854 H 259.629 0.681015 -0.384373 0
M  V30 2855 H 262.213 1.3099 -1.44048 0
M  V30 2856 H 260.384 3.77466 -0.915086 0
M  V30 2857 H 262.116 3.88393 -1.13722 0
M  V30 2858 H 258.871 3.5548 -3.12939 0
M  V30 2859 H 259.295 3.57291 -5.75041 0
M  V30 2860 H 263.937 3.08827 -2.88766 0
M  V30 2861 H 261.655 3.4051 -7.32857 0
M  V30 2862 H 265.241 2.99601 -4.98729 0
M  V30 2863 H 264.121 3.15432 -7.17964 0
M  V30 2864 N 261.624 0.925811 1.2754 0
M  V30 2865 C 262.849 0.580924 1.99098 0
M  V30 2866 C 263.274 -0.833555 1.68622 0
M  V30 2867 O 262.632 -1.55903 0.925422 0
M  V30 2868 C 262.68 0.811186 3.51358 0
M  V30 2869 O 261.784 -0.124129 4.12213 0
M  V30 2870 H 261.125 0.223873 0.625122 0
M  V30 2871 H 263.655 1.24455 1.62395 0
M  V30 2872 H 263.665 0.72601 4.01489 0
M  V30 2873 H 262.34 1.84227 3.72872 0
M  V30 2874 H 260.917 0.0108006 3.72898 0
M  V30 2875 N 263.102 -1.41638 0.69111 0
M  V30 2876 C 264.065 -2.29178 0.0319786 0
M  V30 2877 C 265.065 -1.44153 -0.712496 0
M  V30 2878 O 266.255 -1.65354 -0.548053 0
M  V30 2879 C 263.387 -3.26952 -0.965161 0
M  V30 2880 H 264.58 -2.88959 0.802681 0
M  V30 2881 H 262.133 -1.4955 0.454356 0
M  V30 2882 H 262.868 -2.72142 -1.76378 0
M  V30 2883 H 262.653 -3.89685 -0.434522 0
M  V30 2884 H 264.143 -3.92561 -1.42428 0
M  V30 2885 N 264.58 -0.43555 -1.51462 0
M  V30 2886 C 265.527 0.376797 -2.27703 0
M  V30 2887 C 266.497 1.01838 -1.31219 0
M  V30 2888 O 267.682 1.03762 -1.60119 0
M  V30 2889 C 264.822 1.47301 -3.12084 0
M  V30 2890 C 263.935 0.849744 -4.2356 0
M  V30 2891 C 263.07 1.92086 -4.95254 0
M  V30 2892 C 262.109 1.27593 -5.98654 0
M  V30 2893 N 261.246 2.28833 -6.63762 0
M  V30 2894 H 266.086 -0.279734 -2.96684 0
M  V30 2895 H 263.623 -0.149795 -1.46335 0
M  V30 2896 H 265.581 2.11984 -3.59331 0
M  V30 2897 H 264.211 2.0992 -2.45221 0
M  V30 2898 H 263.263 0.0912529 -3.80291 0
M  V30 2899 H 264.575 0.338878 -4.97648 0
M  V30 2900 H 263.729 2.64435 -5.46039 0
M  V30 2901 H 262.468 2.46545 -4.20793 0
M  V30 2902 H 261.473 0.537893 -5.47162 0
M  V30 2903 H 262.698 0.738693 -6.7507 0
M  V30 2904 H 260.644 2.82375 -5.92115 0
M  V30 2905 H 260.561 1.82632 -7.33608 0
M  V30 2906 H 261.829 3.00671 -7.19178 0
M  V30 2907 N 266.058 1.56714 -0.166846 0
M  V30 2908 C 267.304 1.97039 0.479962 0
M  V30 2909 C 267.637 1.05264 1.63197 0
M  V30 2910 O 266.912 0.0988833 1.94248 0
M  V30 2911 C 267.195 3.46867 0.967212 0
M  V30 2912 C 267.048 4.49421 -0.18466 0
M  V30 2913 C 268.367 3.9968 1.84238 0
M  V30 2914 H 265.486 0.71641 0.172992 0
M  V30 2915 H 268.128 1.8832 -0.252079 0
M  V30 2916 H 266.278 3.54428 1.59101 0
M  V30 2917 H 267.95 4.53924 -0.821621 0
M  V30 2918 H 266.193 4.25573 -0.840837 0
M  V30 2919 H 266.864 5.51644 0.198317 0
M  V30 2920 H 269.34 3.94723 1.31655 0
M  V30 2921 H 268.216 5.04941 2.15234 0
M  V30 2922 H 268.477 3.43226 2.78654 0
M  V30 2923 N 267.536 -0.106894 1.57237 0
M  V30 2924 C 268.783 -0.812526 1.85484 0
M  V30 2925 C 269.111 -1.79304 0.753687 0
M  V30 2926 O 268.366 -1.94047 -0.253853 0
M  V30 2927 C 268.665 -1.58628 3.20268 0
M  V30 2928 C 268.331 -0.748967 4.44636 0
M  V30 2929 C 266.993 -0.518104 4.78403 0
M  V30 2930 C 269.345 -0.166122 5.20935 0
M  V30 2931 C 266.673 0.305659 5.85903 0
M  V30 2932 C 269.025 0.644899 6.29304 0
M  V30 2933 C 267.689 0.885965 6.61594 0
M  V30 2934 H 266.959 -0.297324 0.678734 0
M  V30 2935 H 269.606 -0.0744332 1.91355 0
M  V30 2936 H 267.911 -2.39562 3.10028 0
M  V30 2937 H 269.608 -2.13643 3.39349 0
M  V30 2938 H 266.198 -0.939006 4.18187 0
M  V30 2939 H 270.382 -0.33167 4.95191 0
M  V30 2940 H 265.638 0.501528 6.0934 0
M  V30 2941 H 269.812 1.10345 6.87602 0
M  V30 2942 H 267.439 1.52609 7.44725 0
M  V30 2943 N 269.014 -1.53014 -0.377408 0
M  V30 2944 C 270.261 -1.68623 -1.12128 0
M  V30 2945 C 270.589 -0.431997 -1.89642 0
M  V30 2946 O 269.844 0.585855 -1.86725 0
M  V30 2947 C 270.143 -2.87982 -2.11663 0
M  V30 2948 C 269.809 -4.24964 -1.50719 0
M  V30 2949 C 268.471 -4.62217 -1.33825 0
M  V30 2950 C 270.823 -5.10199 -1.06519 0
M  V30 2951 C 268.151 -5.82352 -0.712963 0
M  V30 2952 C 270.503 -6.30969 -0.453955 0
M  V30 2953 C 269.167 -6.66944 -0.272411 0
M  V30 2954 H 268.437 -0.617034 -0.410305 0
M  V30 2955 H 271.084 -1.8718 -0.404484 0
M  V30 2956 H 269.389 -2.63889 -2.89603 0
M  V30 2957 H 271.086 -2.97253 -2.6915 0
M  V30 2958 H 267.676 -3.95626 -1.64858 0
M  V30 2959 H 271.86 -4.81978 -1.18368 0
M  V30 2960 H 267.116 -6.08824 -0.560611 0
M  V30 2961 H 271.29 -6.96324 -0.103217 0
M  V30 2962 H 268.917 -7.59898 0.214181 0
M  V30 2963 N 270.492 0.636531 -1.44174 0
M  V30 2964 C 271.903 1.21806 -1.41493 0
M  V30 2965 C 272.254 1.95785 -0.1275 0
M  V30 2966 O 271.379 2.02147 0.772376 0
M  V30 2967 C 271.974 2.21551 -2.56321 0
M  V30 2968 C 270.533 2.75143 -2.56853 0
M  V30 2969 C 269.68 1.50052 -2.33195 0
M  V30 2970 H 272.631 0.427531 -1.52833 0
M  V30 2971 H 272.652 3.0405 -2.28765 0
M  V30 2972 H 272.164 1.67679 -3.50008 0
M  V30 2973 H 270.265 3.33033 -1.67093 0
M  V30 2974 H 270.378 3.2155 -3.55165 0
M  V30 2975 H 268.742 1.77993 -1.82183 0
M  V30 2976 H 269.525 0.980903 -3.28988 0
M  V30 2977 N 271.97 1.30982 0.876444 0
M  V30 2978 C 272.9 1.20668 1.99903 0
M  V30 2979 C 273.881 0.095354 1.69833 0
M  V30 2980 O 275.066 0.27885 1.92188 0
M  V30 2981 C 272.196 0.90655 3.3526 0
M  V30 2982 C 271.15 1.97675 3.79617 0
M  V30 2983 C 270.476 1.52943 5.1236 0
M  V30 2984 C 271.776 3.389 3.97422 0
M  V30 2985 H 273.47 2.14586 2.0879 0
M  V30 2986 H 271.016 1.03308 1.00317 0
M  V30 2987 H 272.969 0.821025 4.13324 0
M  V30 2988 H 271.693 -0.0682969 3.26529 0
M  V30 2989 H 270.352 2.05205 3.03787 0
M  V30 2990 H 270 0.54262 5.00065 0
M  V30 2991 H 269.7 2.24532 5.43009 0
M  V30 2992 H 271.224 1.45786 5.92941 0
M  V30 2993 H 272.638 3.34081 4.659 0
M  V30 2994 H 271.035 4.0865 4.3946 0
M  V30 2995 H 272.105 3.80163 3.01006 0
M  V30 2996 N 273.449 -1.08991 1.13837 0
M  V30 2997 C 274.359 -2.19301 0.833333 0
M  V30 2998 C 275.375 -1.73026 -0.183847 0
M  V30 2999 O 276.551 -2.01395 -0.0138092 0
M  V30 3000 C 273.616 -3.45323 0.308651 0
M  V30 3001 C 272.677 -4.06255 1.38764 0
M  V30 3002 C 271.91 -5.26262 0.887896 0
M  V30 3003 O 272.133 -5.69747 -0.27287 0
M  V30 3004 O 271.067 -5.78435 1.66421 0
M  V30 3005 H 274.893 -2.47854 1.75506 0
M  V30 3006 H 272.478 -1.18012 0.916166 0
M  V30 3007 H 274.36 -4.21394 0.0216739 0
M  V30 3008 H 273.035 -3.18362 -0.585431 0
M  V30 3009 H 271.942 -3.318 1.72799 0
M  V30 3010 H 273.275 -4.37452 2.25602 0
M  V30 3011 N 274.927 -0.932562 -1.27047 0
M  V30 3012 C 276.173 -0.576412 -1.94436 0
M  V30 3013 C 276.506 0.880891 -1.73072 0
M  V30 3014 O 275.781 1.62905 -1.06264 0
M  V30 3015 C 276.064 -0.909031 -3.48437 0
M  V30 3016 C 275.917 -2.42044 -3.79123 0
M  V30 3017 C 277.236 -0.418341 -4.38107 0
M  V30 3018 H 274.355 -0.210888 -0.706184 0
M  V30 3019 H 276.997 -1.16522 -1.50075 0
M  V30 3020 H 275.147 -0.407947 -3.86352 0
M  V30 3021 H 276.819 -2.99359 -3.50973 0
M  V30 3022 H 275.062 -2.86758 -3.25503 0
M  V30 3023 H 275.733 -2.6037 -4.86736 0
M  V30 3024 H 278.209 -0.847856 -4.0737 0
M  V30 3025 H 277.085 -0.679981 -5.44672 0
M  V30 3026 H 277.346 0.681642 -4.36814 0
M  V30 3027 N 276.405 1.4127 -0.698611 0
M  V30 3028 C 277.652 2.0118 -0.230865 0
M  V30 3029 C 277.98 1.55338 1.17049 0
M  V30 3030 O 277.235 0.756775 1.80475 0
M  V30 3031 C 277.534 3.56592 -0.240192 0
M  V30 3032 C 277.2 4.21955 -1.58948 0
M  V30 3033 C 275.862 4.39524 -1.95887 0
M  V30 3034 C 278.214 4.58576 -2.47704 0
M  V30 3035 C 275.542 4.90992 -3.2116 0
M  V30 3036 C 277.894 5.11435 -3.72313 0
M  V30 3037 C 276.558 5.27215 -4.0939 0
M  V30 3038 H 275.828 0.736169 -0.0844796 0
M  V30 3039 H 278.475 1.69124 -0.8983 0
M  V30 3040 H 276.78 3.88456 0.510797 0
M  V30 3041 H 278.477 4.00758 0.139296 0
M  V30 3042 H 275.067 4.08657 -1.29219 0
M  V30 3043 H 279.251 4.44654 -2.20445 0
M  V30 3044 H 274.507 5.01393 -3.49878 0
M  V30 3045 H 278.681 5.38752 -4.4127 0
M  V30 3046 H 276.308 5.66859 -5.06533 0
M  V30 3047 N 277.883 0.443576 1.51229 0
M  V30 3048 C 279.131 -0.120557 2.0174 0
M  V30 3049 C 279.452 -1.42665 1.32935 0
M  V30 3050 O 278.722 -1.9028 0.465866 0
M  V30 3051 H 277.302 -0.0475426 0.745486 0
M  V30 3052 H 279.964 0.587711 1.85828 0
M  V30 3053 H 279.06 -0.291972 3.10731 0
M  V30 3054 N 279.361 -1.56624 0.175154 0
M  V30 3055 C 280.608 -1.96999 -0.468811 0
M  V30 3056 C 280.936 -1.06129 -1.62994 0
M  V30 3057 O 280.191 -0.0961771 -1.95464 0
M  V30 3058 C 280.49 -3.43419 -0.989864 0
M  V30 3059 C 280.156 -4.50866 0.0557687 0
M  V30 3060 C 278.818 -4.79975 0.343134 0
M  V30 3061 C 281.17 -5.15551 0.765308 0
M  V30 3062 C 278.498 -5.71066 1.34536 0
M  V30 3063 C 280.85 -6.07724 1.75654 0
M  V30 3064 C 279.514 -6.35199 2.05132 0
M  V30 3065 H 278.784 -0.720869 -0.17155 0
M  V30 3066 H 281.431 -1.89616 0.267924 0
M  V30 3067 H 279.736 -3.47772 -1.80449 0
M  V30 3068 H 281.433 -3.72002 -1.49719 0
M  V30 3069 H 278.023 -4.28229 -0.178381 0
M  V30 3070 H 282.207 -4.9317 0.556513 0
M  V30 3071 H 277.463 -5.90635 1.57988 0
M  V30 3072 H 281.637 -6.56912 2.31169 0
M  V30 3073 H 279.264 -7.05584 2.8294 0
M  V30 3074 N 280.839 0.0985539 -1.57292 0
M  V30 3075 C 281.769 1.12064 -2.04851 0
M  V30 3076 C 282.75 1.41981 -0.936767 0
M  V30 3077 O 283.935 1.52071 -1.20781 0
M  V30 3078 C 281.065 2.44144 -2.47004 0
M  V30 3079 C 280.019 2.28643 -3.6181 0
M  V30 3080 C 279.345 3.65869 -3.89929 0
M  V30 3081 C 280.645 1.72986 -4.92822 0
M  V30 3082 H 282.339 0.724979 -2.9049 0
M  V30 3083 H 279.885 0.34729 -1.39749 0
M  V30 3084 H 281.838 3.15914 -2.78884 0
M  V30 3085 H 280.562 2.85639 -1.5836 0
M  V30 3086 H 279.221 1.59318 -3.30172 0
M  V30 3087 H 278.869 4.04885 -2.98458 0
M  V30 3088 H 278.569 3.56344 -4.67218 0
M  V30 3089 H 280.093 4.39112 -4.2428 0
M  V30 3090 H 281.507 2.34593 -5.23105 0
M  V30 3091 H 279.904 1.74229 -5.74251 0
M  V30 3092 H 280.974 0.689007 -4.7998 0
M  V30 3093 N 282.317 1.53212 0.369288 0
M  V30 3094 C 283.247 1.82365 1.45826 0
M  V30 3095 C 284.228 0.676907 1.56051 0
M  V30 3096 O 285.413 0.926401 1.70679 0
M  V30 3097 C 282.543 2.01023 2.83208 0
M  V30 3098 C 281.497 3.1678 2.8781 0
M  V30 3099 C 280.823 3.20724 4.27832 0
M  V30 3100 C 282.123 4.55447 2.55667 0
M  V30 3101 H 283.817 2.73559 1.21678 0
M  V30 3102 H 281.363 1.3163 0.583911 0
M  V30 3103 H 283.316 2.20001 3.59413 0
M  V30 3104 H 282.04 1.06536 3.08736 0
M  V30 3105 H 280.699 2.97616 2.14056 0
M  V30 3106 H 280.347 2.23882 4.50429 0
M  V30 3107 H 280.047 3.98496 4.31827 0
M  V30 3108 H 281.571 3.41881 5.05915 0
M  V30 3109 H 282.985 4.74611 3.21586 0
M  V30 3110 H 281.382 5.35432 2.70984 0
M  V30 3111 H 282.452 4.60812 1.5093 0
M  V30 3112 N 283.795 -0.628877 1.44509 0
M  V30 3113 C 285.206 -1.21054 1.42137 0
M  V30 3114 C 285.557 -1.95715 0.137881 0
M  V30 3115 O 284.682 -2.02554 -0.761645 0
M  V30 3116 C 285.277 -2.20189 2.57493 0
M  V30 3117 C 283.836 -2.73777 2.58308 0
M  V30 3118 C 282.983 -1.48813 2.33987 0
M  V30 3119 H 285.934 -0.41942 1.53057 0
M  V30 3120 H 285.955 -3.02833 2.30375 0
M  V30 3121 H 285.467 -1.6582 3.50892 0
M  V30 3122 H 283.568 -3.32142 1.68856 0
M  V30 3123 H 283.681 -3.19662 3.56865 0
M  V30 3124 H 282.045 -1.77024 1.83124 0
M  V30 3125 H 282.828 -0.963442 3.29504 0
M  V30 3126 N 285.273 -1.31445 -0.869486 0
M  V30 3127 C 286.206 -1.13465 -1.97992 0
M  V30 3128 C 287.184 -0.0380291 -1.62556 0
M  V30 3129 O 288.368 -0.194544 -1.87493 0
M  V30 3130 C 285.495 -0.733822 -3.30655 0
M  V30 3131 C 284.541 -1.83356 -3.85075 0
M  V30 3132 S 285.374 -3.43909 -4.10472 0
M  V30 3133 C 286.53 -3.05763 -5.46132 0
M  V30 3134 H 286.763 -2.07471 -2.1294 0
M  V30 3135 H 284.296 -1.15936 -1.01972 0
M  V30 3136 H 286.254 -0.509306 -4.07328 0
M  V30 3137 H 284.915 0.187123 -3.13542 0
M  V30 3138 H 284.108 -1.50574 -4.80982 0
M  V30 3139 H 283.71 -2.01315 -3.15195 0
M  V30 3140 H 286.002 -2.54686 -6.27807 0
M  V30 3141 H 286.945 -4.00635 -5.83864 0
M  V30 3142 H 287.353 -2.43192 -5.09429 0
M  V30 3143 N 286.751 1.08385 -1.14413 0
M  V30 3144 C 287.999 1.80419 -0.910679 0
M  V30 3145 C 288.32 1.86658 0.564243 0
M  V30 3146 O 287.59 1.35985 1.41014 0
M  V30 3147 H 286.17 0.668204 -0.333934 0
M  V30 3148 H 288.832 1.31037 -1.44275 0
M  V30 3149 H 287.928 2.83238 -1.31082 0
M  V30 3150 N 288.23 0.939286 1.26551 0
M  V30 3151 C 289.479 0.581601 1.93133 0
M  V30 3152 C 289.792 -0.883224 1.74524 0
M  V30 3153 O 290.998 -1.3502 2.35546 0
M  V30 3154 C 289.454 0.989425 3.46032 0
M  V30 3155 C 289.062 2.47573 3.73379 0
M  V30 3156 C 290.806 0.703544 4.18629 0
M  V30 3157 C 288.713 2.82235 5.19709 0
M  V30 3158 H 287.643 0.213803 0.723052 0
M  V30 3159 H 290.294 1.14167 1.4366 0
M  V30 3160 H 288.676 0.357902 3.94379 0
M  V30 3161 H 289.85 3.15614 3.35744 0
M  V30 3162 H 288.165 2.73471 3.1401 0
M  V30 3163 H 290.762 0.938869 5.26393 0
M  V30 3164 H 291.105 -0.359639 4.14744 0
M  V30 3165 H 291.638 1.2947 3.76141 0
M  V30 3166 H 288.377 3.87509 5.28694 0
M  V30 3167 H 287.897 2.18854 5.58447 0
M  V30 3168 H 289.576 2.70599 5.87695 0
M  V30 3169 N 289.708 -1.40897 0.706093 0
M  V30 3170 C 290.641 -2.282 -0.00328781 0
M  V30 3171 C 291.619 -1.42816 -0.77732 0
M  V30 3172 O 292.803 -1.72237 -0.765944 0
M  V30 3173 C 289.93 -3.23226 -1.01205 0
M  V30 3174 C 288.976 -4.25222 -0.329955 0
M  V30 3175 S 289.809 -5.27269 0.935298 0
M  V30 3176 C 290.965 -6.25859 -0.0716061 0
M  V30 3177 H 291.198 -2.88016 0.737143 0
M  V30 3178 H 288.731 -1.46191 0.496756 0
M  V30 3179 H 290.689 -3.78503 -1.58888 0
M  V30 3180 H 289.35 -2.62485 -1.72513 0
M  V30 3181 H 288.543 -4.92023 -1.09221 0
M  V30 3182 H 288.145 -3.73595 0.174069 0
M  V30 3183 H 290.437 -6.71204 -0.921521 0
M  V30 3184 H 291.38 -7.0586 0.562765 0
M  V30 3185 H 291.788 -5.62852 -0.431088 0
M  V30 3186 N 291.186 -0.45159 -1.50991 0
M  V30 3187 C 292.434 0.109857 -2.01801 0
M  V30 3188 C 292.755 1.41958 -1.3369 0
M  V30 3189 O 292.025 1.9003 -0.475951 0
M  V30 3190 H 290.605 0.0435884 -0.745727 0
M  V30 3191 H 293.267 -0.597557 -1.85514 0
M  V30 3192 H 292.363 0.275489 -3.10882 0
M  V30 3193 N 292.664 1.56529 -0.183458 0
M  V30 3194 C 293.911 1.97244 0.458357 0
M  V30 3195 C 294.239 1.06992 1.62428 0
M  V30 3196 O 293.494 0.106542 1.9541 0
M  V30 3197 C 293.793 3.43939 0.971637 0
M  V30 3198 C 293.459 4.5083 -0.0796784 0
M  V30 3199 C 292.121 4.79786 -0.368584 0
M  V30 3200 C 294.473 5.15138 -0.792638 0
M  V30 3201 C 291.801 5.70345 -1.37563 0
M  V30 3202 C 294.153 6.06784 -1.78875 0
M  V30 3203 C 292.817 6.34102 -2.08497 0
M  V30 3204 H 292.087 0.721768 0.167725 0
M  V30 3205 H 294.734 1.89472 -0.277976 0
M  V30 3206 H 293.039 3.48724 1.78602 0
M  V30 3207 H 294.736 3.72791 1.47744 0
M  V30 3208 H 291.326 4.28317 0.155668 0
M  V30 3209 H 295.51 4.92868 -0.582659 0
M  V30 3210 H 290.766 5.89789 -1.61118 0
M  V30 3211 H 294.94 6.55677 -2.3465 0
M  V30 3212 H 292.567 7.04074 -2.86678 0
M  V30 3213 N 294.142 -0.090211 1.57342 0
M  V30 3214 C 295.382 -0.798365 1.88163 0
M  V30 3215 C 295.746 -1.75662 0.775046 0
M  V30 3216 O 296.947 -2.50849 0.965816 0
M  V30 3217 C 295.218 -1.50376 3.24225 0
M  V30 3218 S 296.777 -2.24952 3.76752 0
M  V30 3219 H 293.595 -0.265883 0.659414 0
M  V30 3220 H 296.197 -0.055264 1.95422 0
M  V30 3221 H 294.901 -0.792286 4.0268 0
M  V30 3222 H 294.432 -2.28666 3.20118 0
M  V30 3223 H 296.447 -3.51173 3.5056 0
M  V30 3224 N 295.62 -1.53406 -0.361157 0
M  V30 3225 C 296.86 -1.71507 -1.11197 0
M  V30 3226 C 297.224 -0.459337 -1.86425 0
M  V30 3227 O 298.425 -0.517102 -2.63779 0
M  V30 3228 C 296.696 -2.93307 -2.0422 0
M  V30 3229 S 298.255 -3.32135 -2.86761 0
M  V30 3230 H 295.073 -0.603448 -0.375995 0
M  V30 3231 H 297.675 -1.91516 -0.392642 0
M  V30 3232 H 296.379 -3.82891 -1.47724 0
M  V30 3233 H 295.91 -2.75712 -2.80618 0
M  V30 3234 H 297.925 -2.84493 -4.06544 0
M  V30 3235 N 297.098 0.621204 -1.44841 0
M  V30 3236 C 298.323 1.41244 -1.51871 0
M  V30 3237 C 298.748 1.87519 -0.147764 0
M  V30 3238 O 298.106 1.59334 0.865 0
M  V30 3239 C 298.154 2.60221 -2.49634 0
M  V30 3240 O 297.258 3.60395 -2.00473 0
M  V30 3241 H 296.599 0.42223 -0.512463 0
M  V30 3242 H 299.129 0.757305 -1.90069 0
M  V30 3243 H 299.139 3.0764 -2.67996 0
M  V30 3244 H 297.814 2.25887 -3.4921 0
M  V30 3245 H 296.391 3.19717 -1.91925 0
M  V30 3246 N 298.576 1.31904 0.862503 0
M  V30 3247 C 299.992 1.10724 1.14945 0
M  V30 3248 C 300.192 -0.117421 2.01158 0
M  V30 3249 O 299.248 -0.804595 2.39338 0
M  V30 3250 C 300.561 2.38267 1.83437 0
M  V30 3251 C 302.109 2.43949 1.96106 0
M  V30 3252 C 302.584 3.71394 2.68013 0
M  V30 3253 N 304.075 3.72331 2.75543 0
M  V30 3254 C 304.81 4.67641 3.31812 0
M  V30 3255 N 304.306 5.73313 3.88953 0
M  V30 3256 N 306.099 4.5515 3.29841 0
M  V30 3257 H 298.25 2.10436 0.288191 0
M  V30 3258 H 300.513 0.928705 0.190292 0
M  V30 3259 H 300.219 3.27759 1.27542 0
M  V30 3260 H 300.093 2.48633 2.83657 0
M  V30 3261 H 302.48 1.54922 2.51164 0
M  V30 3262 H 302.561 2.37543 0.949059 0
M  V30 3263 H 302.205 4.60791 2.13621 0
M  V30 3264 H 302.135 3.75069 3.69636 0
M  V30 3265 H 304.626 2.95947 2.34997 0
M  V30 3266 H 304.939 6.42107 4.30022 0
M  V30 3267 H 303.284 5.77077 3.87308 0
M  V30 3268 H 306.475 3.71766 2.84443 0
M  V30 3269 H 306.648 5.29604 3.73394 0
M  V30 3270 N 300.054 -1.07777 1.14986 0
M  V30 3271 C 301.279 -1.84558 0.946213 0
M  V30 3272 C 301.704 -1.81323 -0.500362 0
M  V30 3273 O 301.062 -1.20301 -1.35637 0
M  V30 3274 C 301.11 -3.29736 1.45968 0
M  V30 3275 O 300.214 -4.07149 0.65601 0
M  V30 3276 H 299.555 -0.571641 0.33782 0
M  V30 3277 H 302.085 -1.35991 1.52865 0
M  V30 3278 H 302.095 -3.80574 1.47063 0
M  V30 3279 H 300.77 -3.31406 2.51283 0
M  V30 3280 H 299.347 -3.65994 0.714322 0
M  V30 3281 N 301.532 -0.945985 -1.26051 0
M  V30 3282 C 302.781 -0.591836 -1.92822 0
M  V30 3283 C 303.094 0.873956 -1.7499 0
M  V30 3284 O 304.3 1.33769 -2.36259 0
M  V30 3285 C 302.756 -1.00776 -3.45503 0
M  V30 3286 C 302.364 -2.4955 -3.7206 0
M  V30 3287 C 304.108 -0.725735 -4.1825 0
M  V30 3288 C 302.015 -2.84988 -5.18205 0
M  V30 3289 H 300.945 -0.217635 -0.721908 0
M  V30 3290 H 303.596 -1.14927 -1.43052 0
M  V30 3291 H 301.978 -0.378812 -3.94184 0
M  V30 3292 H 303.152 -3.1739 -3.34066 0
M  V30 3293 H 301.467 -2.75133 -3.12555 0
M  V30 3294 H 304.064 -0.966771 -5.25887 0
M  V30 3295 H 304.407 0.337639 -4.14929 0
M  V30 3296 H 304.94 -1.31463 -3.7545 0
M  V30 3297 H 301.679 -3.90307 -5.26631 0
M  V30 3298 H 301.199 -2.21813 -5.57278 0
M  V30 3299 H 302.878 -2.73712 -5.86252 0
M  V30 3300 N 303.011 1.40521 -0.713556 0
M  V30 3301 C 303.961 2.27971 -0.036165 0
M  V30 3302 C 304.945 1.43151 0.734623 0
M  V30 3303 O 306.137 1.66261 0.607158 0
M  V30 3304 C 303.266 3.31661 0.886331 0
M  V30 3305 C 302.352 4.23955 0.110836 0
M  V30 3306 N 302.743 4.97641 -0.904847 0
M  V30 3307 C 301.041 4.44674 0.343692 0
M  V30 3308 C 301.742 5.65322 -1.37064 0
M  V30 3309 N 300.718 5.39162 -0.693168 0
M  V30 3310 H 304.52 2.82384 -0.814645 0
M  V30 3311 H 302.034 1.52948 -0.545963 0
M  V30 3312 H 304.031 3.93154 1.38692 0
M  V30 3313 H 302.691 2.78808 1.66421 0
M  V30 3314 H 303.702 5.01689 -1.28563 0
M  V30 3315 H 300.379 4.02801 1.09805 0
M  V30 3316 H 301.769 6.34359 -2.21447 0
M  V30 3317 N 304.489 0.459591 1.5075 0
M  V30 3318 C 305.738 -0.100971 2.01447 0
M  V30 3319 C 306.051 -1.41816 1.34713 0
M  V30 3320 O 307.257 -2.06299 1.76502 0
M  V30 3321 C 305.713 -0.23047 3.59161 0
M  V30 3322 C 305.321 1.0776 4.34847 0
M  V30 3323 C 307.065 -0.743608 4.17936 0
M  V30 3324 C 304.972 0.91253 5.84317 0
M  V30 3325 H 303.902 -0.0415102 0.752856 0
M  V30 3326 H 306.553 0.592742 1.73663 0
M  V30 3327 H 304.935 -0.987703 3.83485 0
M  V30 3328 H 306.109 1.8449 4.22256 0
M  V30 3329 H 304.424 1.52097 3.87628 0
M  V30 3330 H 307.021 -0.883959 5.27343 0
M  V30 3331 H 307.364 -1.73196 3.78562 0
M  V30 3332 H 307.897 -0.04408 3.97776 0
M  V30 3333 H 304.636 1.87391 6.28144 0
M  V30 3334 H 304.156 0.185422 5.99513 0
M  V30 3335 H 305.835 0.574547 6.44444 0
M  V30 3336 N 305.967 -1.56429 0.191757 0
M  V30 3337 C 306.897 -2.21937 -0.725696 0
M  V30 3338 C 307.878 -1.1814 -1.2238 0
M  V30 3339 O 309.063 -1.46636 -1.27325 0
M  V30 3340 C 306.193 -2.87611 -1.94672 0
M  V30 3341 C 305.147 -3.97623 -1.58366 0
M  V30 3342 C 304.473 -4.50446 -2.88102 0
M  V30 3343 C 305.773 -5.16197 -0.796133 0
M  V30 3344 H 307.467 -2.98861 -0.179606 0
M  V30 3345 H 305.013 -1.43749 -0.0849464 0
M  V30 3346 H 306.966 -3.3212 -2.59373 0
M  V30 3347 H 305.69 -2.08087 -2.51728 0
M  V30 3348 H 304.349 -3.53801 -0.960247 0
M  V30 3349 H 303.997 -3.67688 -3.43241 0
M  V30 3350 H 303.697 -5.24675 -2.64556 0
M  V30 3351 H 305.221 -4.97654 -3.53798 0
M  V30 3352 H 306.635 -5.57271 -1.34618 0
M  V30 3353 H 305.032 -5.96471 -0.658928 0
M  V30 3354 H 306.102 -4.84473 0.203478 0
M  V30 3355 N 307.445 0.0818655 -1.57387 0
M  V30 3356 C 308.375 1.09885 -2.06028 0
M  V30 3357 C 309.356 1.4098 -0.951774 0
M  V30 3358 O 310.541 1.50781 -1.22387 0
M  V30 3359 C 307.671 2.4151 -2.4958 0
M  V30 3360 C 306.625 2.24792 -3.64215 0
M  V30 3361 C 305.951 3.61712 -3.93787 0
M  V30 3362 C 307.251 1.67749 -4.94629 0
M  V30 3363 H 308.945 0.694128 -2.91243 0
M  V30 3364 H 306.491 0.332448 -1.4011 0
M  V30 3365 H 308.444 3.12939 -2.82219 0
M  V30 3366 H 307.168 2.83943 -1.61381 0
M  V30 3367 H 305.827 1.55807 -3.31843 0
M  V30 3368 H 305.475 4.01697 -3.02735 0
M  V30 3369 H 305.175 3.51368 -4.70971 0
M  V30 3370 H 306.699 4.34587 -4.28913 0
M  V30 3371 H 308.113 2.29032 -5.25564 0
M  V30 3372 H 306.51 1.68128 -5.76067 0
M  V30 3373 H 307.58 0.638059 -4.80684 0
M  V30 3374 N 308.923 1.53595 0.353017 0
M  V30 3375 C 310.171 1.70049 1.09215 0
M  V30 3376 C 310.492 0.461406 1.89463 0
M  V30 3377 O 309.762 -0.524633 1.88744 0
M  V30 3378 H 308.342 0.626912 0.40619 0
M  V30 3379 H 311.004 1.90822 0.396585 0
M  V30 3380 H 310.1 2.56718 1.77488 0
M  V30 3381 N 310.401 -0.613514 1.45168 0
M  V30 3382 C 311.817 -0.933629 1.29443 0
M  V30 3383 C 312.017 -2.00028 0.243101 0
M  V30 3384 O 311.073 -2.49848 -0.364992 0
M  V30 3385 C 312.386 -1.38018 2.67155 0
M  V30 3386 C 313.934 -1.49471 2.75004 0
M  V30 3387 C 314.409 -1.97503 4.13227 0
M  V30 3388 N 315.9 -2.04746 4.15491 0
M  V30 3389 C 316.635 -2.43121 5.19307 0
M  V30 3390 N 316.131 -2.80506 6.33473 0
M  V30 3391 N 317.924 -2.43408 5.06664 0
M  V30 3392 H 310.075 0.0916097 2.12202 0
M  V30 3393 H 312.338 -0.0216655 0.947752 0
M  V30 3394 H 312.044 -0.670625 3.45247 0
M  V30 3395 H 311.918 -2.34784 2.95222 0
M  V30 3396 H 314.305 -2.19519 1.9722 0
M  V30 3397 H 314.386 -0.510342 2.50657 0
M  V30 3398 H 314.03 -1.28045 4.91495 0
M  V30 3399 H 313.96 -2.96843 4.34962 0
M  V30 3400 H 316.451 -1.78468 3.33103 0
M  V30 3401 H 316.764 -3.08652 7.08487 0
M  V30 3402 H 315.109 -2.78216 6.36884 0
M  V30 3403 H 318.3 -2.13604 4.16523 0
M  V30 3404 H 318.473 -2.72989 5.87691 0
M  V30 3405 N 311.879 -1.3236 -0.855495 0
M  V30 3406 C 313.295 -1.11332 -1.14356 0
M  V30 3407 C 313.495 0.106751 -2.01217 0
M  V30 3408 O 312.551 0.791891 -2.39761 0
M  V30 3409 C 313.864 -2.39237 -1.82171 0
M  V30 3410 C 315.412 -2.44986 -1.9481 0
M  V30 3411 C 315.887 -3.7281 -2.66039 0
M  V30 3412 N 317.378 -3.73787 -2.73565 0
M  V30 3413 C 318.113 -4.69394 -3.29327 0
M  V30 3414 N 317.609 -5.75367 -3.85907 0
M  V30 3415 N 319.402 -4.56893 -3.27423 0
M  V30 3416 H 311.553 -2.10586 -0.277027 0
M  V30 3417 H 313.816 -0.929701 -0.185364 0
M  V30 3418 H 313.522 -3.28431 -1.25802 0
M  V30 3419 H 313.396 -2.50134 -2.82335 0
M  V30 3420 H 315.783 -1.56252 -2.50338 0
M  V30 3421 H 315.864 -2.38043 -0.936448 0
M  V30 3422 H 315.508 -4.61918 -2.11174 0
M  V30 3423 H 315.438 -3.77024 -3.67642 0
M  V30 3424 H 317.929 -2.97189 -2.33424 0
M  V30 3425 H 318.242 -6.44378 -4.26611 0
M  V30 3426 H 316.587 -5.79123 -3.84242 0
M  V30 3427 H 319.778 -3.73269 -2.82467 0
M  V30 3428 H 319.951 -5.31577 -3.7058 0
M  V30 3429 N 313.357 1.07166 -1.15556 0
M  V30 3430 C 314.634 1.76546 -0.842069 0
M  V30 3431 C 315.014 2.00453 0.661939 0
M  V30 3432 O 314.362 1.62452 1.60691 0
M  V30 3433 C 314.572 3.07266 -1.65495 0
M  V30 3434 C 315.92 3.81578 -1.86234 0
M  V30 3435 O 316.944 3.17083 -1.62287 0
M  V30 3436 O 315.803 4.97419 -2.26355 0
M  V30 3437 H 312.897 0.766756 -0.309862 0
M  V30 3438 H 315.443 1.13514 -1.26145 0
M  V30 3439 H 314.215 2.85494 -2.67598 0
M  V30 3440 H 313.838 3.7803 -1.23203 0
M  V30 3441 N 314.835 0.952656 1.25548 0
M  V30 3442 C 315.785 0.442033 2.23674 0
M  V30 3443 C 316.769 -0.467632 1.53955 0
M  V30 3444 O 317.961 -0.301006 1.74422 0
M  V30 3445 C 315.09 -0.280816 3.4215 0
M  V30 3446 C 314.176 0.646803 4.19139 0
M  V30 3447 N 314.567 1.77759 4.73535 0
M  V30 3448 C 312.865 0.454617 4.43677 0
M  V30 3449 C 313.566 2.35658 5.31827 0
M  V30 3450 N 312.542 1.64333 5.18166 0
M  V30 3451 H 316.344 1.30505 2.63336 0
M  V30 3452 H 313.858 0.809904 1.40763 0
M  V30 3453 H 315.855 -0.663747 4.11582 0
M  V30 3454 H 314.515 -1.14046 3.04012 0
M  V30 3455 H 315.526 2.15949 4.7073 0
M  V30 3456 H 312.203 -0.362312 4.15925 0
M  V30 3457 H 313.593 3.30998 5.84713 0
M  V30 3458 N 316.313 -1.40141 0.720998 0
M  V30 3459 C 317.541 -2.05096 0.272656 0
M  V30 3460 C 317.956 -1.54334 -1.0875 0
M  V30 3461 O 317.313 -0.702211 -1.6845 0
M  V30 3462 C 317.364 -3.60636 0.249835 0
M  V30 3463 O 317.085 -4.09526 1.55629 0
M  V30 3464 C 318.586 -4.42772 -0.216396 0
M  V30 3465 H 315.806 -0.659897 0.121558 0
M  V30 3466 H 318.35 -1.79449 0.980723 0
M  V30 3467 H 316.505 -3.85232 -0.409237 0
M  V30 3468 H 316.919 -5.03758 1.4604 0
M  V30 3469 H 318.393 -5.51702 -0.181212 0
M  V30 3470 H 318.87 -4.20756 -1.25941 0
M  V30 3471 H 319.476 -4.23294 0.412596 0
M  V30 3472 N 317.792 -0.46758 -1.50504 0
M  V30 3473 C 318.724 0.364655 -2.26281 0
M  V30 3474 C 319.737 0.960151 -1.31472 0
M  V30 3475 O 320.926 0.849153 -1.57008 0
M  V30 3476 C 318.026 1.52509 -3.02645 0
M  V30 3477 C 317.199 1.04302 -4.24782 0
M  V30 3478 C 316.258 2.07709 -4.8347 0
M  V30 3479 O 315.284 1.65913 -5.44483 0
M  V30 3480 N 316.486 3.40485 -4.70159 0
M  V30 3481 H 319.251 -0.28495 -2.98342 0
M  V30 3482 H 316.812 -0.298163 -1.59131 0
M  V30 3483 H 318.804 2.21371 -3.38787 0
M  V30 3484 H 317.374 2.07945 -2.33404 0
M  V30 3485 H 316.594 0.180393 -3.93787 0
M  V30 3486 H 317.882 0.698798 -5.03978 0
M  V30 3487 H 317.28 3.77155 -4.21629 0
M  V30 3488 H 315.837 4.05156 -5.1058 0
M  V30 3489 N 319.27 1.56325 -0.20005 0
M  V30 3490 C 320.547 1.89484 0.48529 0
M  V30 3491 C 320.927 1.1143 1.79294 0
M  V30 3492 O 320.275 0.216919 2.27468 0
M  V30 3493 C 320.485 3.41923 0.699243 0
M  V30 3494 C 321.833 4.12256 1.01638 0
M  V30 3495 O 322.857 3.47402 0.786792 0
M  V30 3496 O 321.716 5.26887 1.45095 0
M  V30 3497 H 318.81 0.787144 0.253639 0
M  V30 3498 H 321.356 1.67985 -0.240633 0
M  V30 3499 H 320.128 3.90658 -0.224008 0
M  V30 3500 H 319.751 3.69131 1.47744 0
M  V30 3501 N 320.748 -0.0735177 1.57428 0
M  V30 3502 C 321.994 -0.768909 1.88307 0
M  V30 3503 C 322.349 -1.75273 0.793535 0
M  V30 3504 O 321.642 -1.90527 -0.202466 0
M  V30 3505 C 321.836 -1.51799 3.23561 0
M  V30 3506 C 321.665 -0.608217 4.45568 0
M  V30 3507 C 320.435 -0.245808 5.04702 0
M  V30 3508 C 322.633 0.0942904 5.14214 0
M  V30 3509 N 320.615 0.66987 6.10234 0
M  V30 3510 C 321.986 0.867222 6.13905 0
M  V30 3511 C 324.041 0.165943 4.97623 0
M  V30 3512 C 322.744 1.70515 6.98797 0
M  V30 3513 C 324.77 0.990837 5.83041 0
M  V30 3514 C 324.132 1.75182 6.82269 0
M  V30 3515 H 320.231 -0.25685 0.738615 0
M  V30 3516 H 322.815 -0.030499 1.94676 0
M  V30 3517 H 320.986 -2.22713 3.18203 0
M  V30 3518 H 322.718 -2.16226 3.42094 0
M  V30 3519 H 319.473 -0.598284 4.69806 0
M  V30 3520 H 319.897 1.1209 6.67656 0
M  V30 3521 H 324.539 -0.408064 4.20826 0
M  V30 3522 H 322.257 2.29013 7.7497 0
M  V30 3523 H 325.843 1.04923 5.72261 0
M  V30 3524 H 324.723 2.37983 7.47217 0
M  V30 3525 N 322.226 -1.5378 -0.344866 0
M  V30 3526 C 323.472 -1.71216 -1.08687 0
M  V30 3527 C 323.805 -0.473281 -1.88345 0
M  V30 3528 O 323.08 0.52968 -1.87149 0
M  V30 3529 C 323.363 -2.97486 -2.02914 0
M  V30 3530 C 323.216 -4.31579 -1.26727 0
M  V30 3531 C 324.535 -3.19422 -3.0275 0
M  V30 3532 H 321.654 -0.62301 -0.393735 0
M  V30 3533 H 324.296 -1.8645 -0.365563 0
M  V30 3534 H 322.446 -2.84629 -2.64421 0
M  V30 3535 H 324.118 -4.56284 -0.67845 0
M  V30 3536 H 322.361 -4.30049 -0.569273 0
M  V30 3537 H 323.032 -5.16106 -1.95803 0
M  V30 3538 H 325.508 -3.316 -2.51357 0
M  V30 3539 H 324.384 -4.09169 -3.65885 0
M  V30 3540 H 324.645 -2.35656 -3.74057 0
M  V30 3541 N 323.704 0.605807 -1.45491 0
M  V30 3542 C 324.636 1.73031 -1.5031 0
M  V30 3543 C 325.649 1.57968 -0.393687 0
M  V30 3544 O 326.838 1.65817 -0.660839 0
M  V30 3545 C 323.938 3.11049 -1.34543 0
M  V30 3546 C 323.111 3.52334 -2.59189 0
M  V30 3547 C 322.17 4.69323 -2.37954 0
M  V30 3548 O 321.196 4.7635 -3.11575 0
M  V30 3549 N 322.398 5.62705 -1.4263 0
M  V30 3550 H 325.163 1.6936 -2.4726 0
M  V30 3551 H 322.724 0.79114 -1.41254 0
M  V30 3552 H 324.716 3.87071 -1.18144 0
M  V30 3553 H 323.286 3.09217 -0.458623 0
M  V30 3554 H 322.506 2.66256 -2.90691 0
M  V30 3555 H 323.794 3.76677 -3.42041 0
M  V30 3556 H 323.192 5.59744 -0.818758 0
M  V30 3557 H 321.749 6.38252 -1.32202 0
M  V30 3558 N 325.182 1.32811 0.848464 0
M  V30 3559 C 326.114 1.18095 1.96433 0
M  V30 3560 C 327.127 0.114354 1.62398 0
M  V30 3561 O 328.316 0.363892 1.74751 0
M  V30 3562 C 325.416 0.786798 3.2964 0
M  V30 3563 C 324.589 1.943 3.91875 0
M  V30 3564 C 323.648 1.53138 5.03423 0
M  V30 3565 O 322.674 2.24432 5.23086 0
M  V30 3566 N 323.876 0.430915 5.78898 0
M  V30 3567 H 326.641 2.14218 2.09597 0
M  V30 3568 H 324.202 1.2543 1.02367 0
M  V30 3569 H 326.194 0.493715 4.01677 0
M  V30 3570 H 324.764 -0.0834541 3.12489 0
M  V30 3571 H 323.984 2.40224 3.12547 0
M  V30 3572 H 325.272 2.71689 4.30189 0
M  V30 3573 H 324.67 -0.162333 5.65467 0
M  V30 3574 H 323.227 0.197466 6.51501 0
M  V30 3575 N 326.66 -1.06551 1.16123 0
M  V30 3576 C 327.607 -2.13961 0.865414 0
M  V30 3577 C 328.577 -1.65066 -0.185055 0
M  V30 3578 O 329.762 -1.90732 -0.05083 0
M  V30 3579 C 326.902 -3.43113 0.369776 0
M  V30 3580 C 326.015 -4.05756 1.48276 0
M  V30 3581 C 325.15 -5.22773 0.942414 0
M  V30 3582 C 324.189 -5.77395 2.03179 0
M  V30 3583 N 323.326 -6.85731 1.50721 0
M  V30 3584 H 328.166 -2.38605 1.78527 0
M  V30 3585 H 325.703 -1.17072 0.890646 0
M  V30 3586 H 327.661 -4.17151 0.0640643 0
M  V30 3587 H 326.291 -3.18695 -0.513143 0
M  V30 3588 H 325.343 -3.29292 1.9045 0
M  V30 3589 H 326.655 -4.42351 2.30493 0
M  V30 3590 H 325.809 -6.03827 0.589729 0
M  V30 3591 H 324.548 -4.87618 0.0895191 0
M  V30 3592 H 323.553 -4.94981 2.3932 0
M  V30 3593 H 324.778 -6.14603 2.8886 0
M  V30 3594 H 322.724 -6.52499 0.676811 0
M  V30 3595 H 322.641 -7.21254 2.26557 0
M  V30 3596 H 323.909 -7.7047 1.18303 0
M  V30 3597 N 328.138 -0.959301 -1.25041 0
M  V30 3598 C 329.101 -0.487677 -2.23952 0
M  V30 3599 C 330.101 0.41119 -1.55454 0
M  V30 3600 O 331.291 0.207825 -1.72956 0
M  V30 3601 C 328.423 0.294807 -3.39623 0
M  V30 3602 H 329.616 -1.36198 -2.67189 0
M  V30 3603 H 327.169 -0.743042 -1.37508 0
M  V30 3604 H 327.904 1.18658 -3.01813 0
M  V30 3605 H 327.689 -0.35012 -3.90534 0
M  V30 3606 H 329.179 0.614089 -4.1306 0
M  V30 3607 N 329.616 1.39756 -0.72842 0
M  V30 3608 C 330.856 2.025 -0.278078 0
M  V30 3609 C 331.22 1.5654 1.11173 0
M  V30 3610 O 332.421 2.11435 1.65978 0
M  V30 3611 C 330.692 3.55489 -0.369139 0
M  V30 3612 S 332.251 4.388 0.00232983 0
M  V30 3613 H 329.069 0.702534 -0.109391 0
M  V30 3614 H 331.671 1.70672 -0.95348 0
M  V30 3615 H 330.375 3.86429 -1.38204 0
M  V30 3616 H 329.906 3.92061 0.324308 0
M  V30 3617 H 331.921 4.80954 1.22055 0
M  V30 3618 N 331.094 0.475555 1.50254 0
M  V30 3619 C 332.343 -0.0795996 2.01543 0
M  V30 3620 C 332.656 -1.4038 1.36209 0
M  V30 3621 O 333.862 -2.04415 1.7868 0
M  V30 3622 C 332.318 -0.192363 3.59386 0
M  V30 3623 C 331.926 1.12367 4.33679 0
M  V30 3624 C 333.67 -0.699238 4.18701 0
M  V30 3625 C 331.577 0.974453 5.83317 0
M  V30 3626 H 330.507 -0.0335228 0.753254 0
M  V30 3627 H 333.158 0.611128 1.73025 0
M  V30 3628 H 331.54 -0.946974 3.84511 0
M  V30 3629 H 332.714 1.88958 4.20276 0
M  V30 3630 H 331.029 1.562 3.85993 0
M  V30 3631 H 333.626 -0.827978 5.28251 0
M  V30 3632 H 333.969 -1.69171 3.80377 0
M  V30 3633 H 334.502 -0.00188807 3.978 0
M  V30 3634 H 331.241 1.94042 6.26121 0
M  V30 3635 H 330.761 0.248998 5.99283 0
M  V30 3636 H 332.44 0.642867 6.43798 0
M  V30 3637 N 332.573 -1.56217 0.208337 0
M  V30 3638 C 333.803 -2.02043 -0.431523 0
M  V30 3639 C 334.211 -1.08755 -1.54819 0
M  V30 3640 O 333.554 -0.0870009 -1.83494 0
M  V30 3641 C 333.616 -3.44239 -1.03633 0
M  V30 3642 C 333.28 -4.56965 -0.0567502 0
M  V30 3643 C 334.277 -5.14624 0.738773 0
M  V30 3644 C 331.962 -5.02266 0.0581736 0
M  V30 3645 C 333.956 -6.16045 1.63605 0
M  V30 3646 C 331.643 -6.03528 0.959001 0
M  V30 3647 C 332.641 -6.60293 1.7465 0
M  V30 3648 O 332.329 -7.59586 2.6322 0
M  V30 3649 H 332.061 -0.666772 -0.111313 0
M  V30 3650 H 334.615 -2.02919 0.318277 0
M  V30 3651 H 332.845 -3.40391 -1.83497 0
M  V30 3652 H 334.534 -3.73793 -1.58221 0
M  V30 3653 H 335.3 -4.80483 0.660364 0
M  V30 3654 H 331.179 -4.57771 -0.544633 0
M  V30 3655 H 334.723 -6.60279 2.25116 0
M  V30 3656 H 330.62 -6.37092 1.03848 0
M  V30 3657 H 331.388 -7.77057 2.57148 0
M  V30 3658 N 334.051 0.0651679 -1.57465 0
M  V30 3659 C 335.276 0.779605 -1.9219 0
M  V30 3660 C 335.701 1.69988 -0.805333 0
M  V30 3661 O 335.059 1.79685 0.241435 0
M  V30 3662 C 335.107 1.54364 -3.2589 0
M  V30 3663 O 334.211 2.65474 -3.1559 0
M  V30 3664 H 333.552 0.212249 -0.629163 0
M  V30 3665 H 336.082 0.0314294 -2.04576 0
M  V30 3666 H 336.092 1.92146 -3.59922 0
M  V30 3667 H 334.767 0.868457 -4.06732 0
M  V30 3668 H 333.344 2.30501 -2.93128 0
M  V30 3669 N 335.529 1.53961 0.336706 0
M  V30 3670 C 336.778 1.70751 1.07363 0
M  V30 3671 C 337.091 0.481061 1.89592 0
M  V30 3672 O 338.297 0.530046 2.66276 0
M  V30 3673 C 336.753 3.01965 1.95818 0
M  V30 3674 C 336.361 4.31971 1.18764 0
M  V30 3675 C 338.105 3.28121 2.69327 0
M  V30 3676 C 336.012 5.54255 2.06289 0
M  V30 3677 H 334.942 0.636292 0.404535 0
M  V30 3678 H 337.593 1.80459 0.332681 0
M  V30 3679 H 335.975 2.86132 2.7376 0
M  V30 3680 H 337.149 4.5853 0.456849 0
M  V30 3681 H 335.464 4.12481 0.569946 0
M  V30 3682 H 338.061 4.16673 3.35094 0
M  V30 3683 H 338.404 2.45426 3.36261 0
M  V30 3684 H 338.937 3.44762 1.98454 0
M  V30 3685 H 335.676 6.39513 1.43885 0
M  V30 3686 H 335.196 5.31935 2.77138 0
M  V30 3687 H 336.875 5.90159 2.65182 0
M  V30 3688 N 337.007 -0.598083 1.45811 0
M  V30 3689 C 337.97 -1.69018 1.54808 0
M  V30 3690 C 338.97 -1.55037 0.426652 0
M  V30 3691 O 340.16 -1.59932 0.690456 0
M  V30 3692 C 337.292 -3.0835 1.45371 0
M  V30 3693 H 338.485 -1.62403 2.52121 0
M  V30 3694 H 336.038 -0.814626 1.33392 0
M  V30 3695 H 336.773 -3.20534 0.492793 0
M  V30 3696 H 336.558 -3.19907 2.26721 0
M  V30 3697 H 338.048 -3.8788 1.54721 0
M  V30 3698 N 338.485 -1.33259 -0.841409 0
M  V30 3699 C 339.448 -1.23221 -1.9326 0
M  V30 3700 C 340.448 -0.151895 -1.60081 0
M  V30 3701 O 341.638 -0.403246 -1.69468 0
M  V30 3702 C 338.77 -0.898123 -3.28856 0
M  V30 3703 H 339.963 -2.2021 -2.03587 0
M  V30 3704 H 337.516 -1.17281 -1.03319 0
M  V30 3705 H 338.251 0.0693841 -3.24226 0
M  V30 3706 H 338.036 -1.67934 -3.54317 0
M  V30 3707 H 339.526 -0.852563 -4.08805 0
M  V30 3708 N 339.963 1.05934 -1.16686 0
M  V30 3709 C 341.188 1.83029 -0.975455 0
M  V30 3710 C 341.613 1.82096 0.471452 0
M  V30 3711 O 340.971 1.22443 1.33706 0
M  V30 3712 C 341.019 3.27372 -1.51195 0
M  V30 3713 O 340.123 4.06054 -0.720701 0
M  V30 3714 H 339.464 0.566194 -0.346872 0
M  V30 3715 H 341.994 1.33541 -1.55009 0
M  V30 3716 H 342.004 3.78186 -1.53099 0
M  V30 3717 H 340.679 3.27366 -2.56523 0
M  V30 3718 H 339.256 3.64812 -0.772458 0
M  V30 3719 N 341.441 0.965919 1.2453 0
M  V30 3720 C 342.371 0.513476 2.27784 0
M  V30 3721 C 343.352 -0.445974 1.6415 0
M  V30 3722 O 344.537 -0.342485 1.91156 0
M  V30 3723 C 341.667 -0.198839 3.4673 0
M  V30 3724 C 340.621 0.676456 4.2262 0
M  V30 3725 C 339.947 -0.167248 5.34438 0
M  V30 3726 C 341.247 1.96017 4.84123 0
M  V30 3727 H 342.941 1.3765 2.65881 0
M  V30 3728 H 340.487 0.663321 1.27813 0
M  V30 3729 H 342.44 -0.526567 4.18097 0
M  V30 3730 H 341.164 -1.0962 3.07654 0
M  V30 3731 H 339.823 0.98743 3.53052 0
M  V30 3732 H 339.471 -1.0647 4.91603 0
M  V30 3733 H 339.171 0.415181 5.86131 0
M  V30 3734 H 340.695 -0.489688 6.08633 0
M  V30 3735 H 342.109 1.69814 5.47573 0
M  V30 3736 H 340.506 2.48918 5.4604 0
M  V30 3737 H 341.576 2.65622 4.05676 0
M  V30 3738 N 342.919 -1.39368 0.735821 0
M  V30 3739 C 343.882 -2.2896 0.104874 0
M  V30 3740 C 344.882 -1.46347 -0.666274 0
M  V30 3741 O 346.072 -1.67014 -0.49517 0
M  V30 3742 C 343.204 -3.29857 -0.860656 0
M  V30 3743 H 344.397 -2.86259 0.894205 0
M  V30 3744 H 341.95 -1.48029 0.501704 0
M  V30 3745 H 342.685 -2.77615 -1.67631 0
M  V30 3746 H 342.47 -3.9087 -0.310327 0
M  V30 3747 H 343.96 -3.96893 -1.29867 0
M  V30 3748 N 344.397 -0.483516 -1.5 0
M  V30 3749 C 345.643 0.0672592 -2.02688 0
M  V30 3750 C 345.976 1.38247 -1.36387 0
M  V30 3751 O 345.251 1.88131 -0.493675 0
M  V30 3752 C 345.534 0.238109 -3.59312 0
M  V30 3753 C 345.387 -1.099 -4.36168 0
M  V30 3754 C 346.706 0.986916 -4.28892 0
M  V30 3755 H 343.825 0.0229696 -0.736642 0
M  V30 3756 H 346.467 -0.631527 -1.79197 0
M  V30 3757 H 344.617 0.8333 -3.79458 0
M  V30 3758 H 346.289 -1.73172 -4.27562 0
M  V30 3759 H 344.532 -1.69261 -3.99416 0
M  V30 3760 H 345.203 -0.932954 -5.44059 0
M  V30 3761 H 347.679 0.482302 -4.13295 0
M  V30 3762 H 346.555 1.07527 -5.38265 0
M  V30 3763 H 346.816 2.0265 -3.92919 0
M  V30 3764 N 345.875 1.56104 -0.216619 0
M  V30 3765 C 347.122 1.98172 0.416416 0
M  V30 3766 C 347.45 1.10413 1.60122 0
M  V30 3767 O 346.705 0.147967 1.9514 0
M  V30 3768 C 347.004 3.45923 0.898464 0
M  V30 3769 C 346.67 4.50559 -0.175288 0
M  V30 3770 C 345.332 4.78897 -0.470271 0
M  V30 3771 C 347.684 5.1334 -0.901728 0
M  V30 3772 C 345.012 5.67299 -1.4963 0
M  V30 3773 C 347.364 6.02853 -1.91705 0
M  V30 3774 C 346.028 6.29537 -2.21901 0
M  V30 3775 H 345.298 0.725164 0.152377 0
M  V30 3776 H 347.945 1.88839 -0.318103 0
M  V30 3777 H 346.25 3.52434 1.71165 0
M  V30 3778 H 347.947 3.75841 1.39803 0
M  V30 3779 H 344.537 4.28551 0.0647806 0
M  V30 3780 H 348.721 4.91521 -0.687072 0
M  V30 3781 H 343.977 5.86239 -1.73592 0
M  V30 3782 H 348.151 6.50552 -2.48505 0
M  V30 3783 H 345.778 6.97835 -3.01548 0
M  V30 3784 N 347.353 -0.0568162 1.57498 0
M  V30 3785 C 348.599 -0.75422 1.88253 0
M  V30 3786 C 348.932 -1.76461 0.810865 0
M  V30 3787 O 348.207 -1.93691 -0.177259 0
M  V30 3788 C 348.49 -1.44878 3.2967 0
M  V30 3789 C 348.343 -0.453789 4.47505 0
M  V30 3790 C 349.662 -2.38994 3.69554 0
M  V30 3791 H 346.781 -0.272724 0.684683 0
M  V30 3792 H 349.423 -0.0172113 1.89992 0
M  V30 3793 H 347.573 -2.077 3.28318 0
M  V30 3794 H 349.245 0.170371 4.60985 0
M  V30 3795 H 347.488 0.229552 4.33192 0
M  V30 3796 H 348.159 -0.977699 5.43273 0
M  V30 3797 H 350.635 -1.86239 3.72095 0
M  V30 3798 H 349.511 -2.84587 4.69363 0
M  V30 3799 H 349.772 -3.24461 3.00296 0
M  V30 3800 N 348.832 -1.54138 -0.328536 0
M  V30 3801 C 350.078 -1.7236 -1.06865 0
M  V30 3802 C 350.411 -0.493231 -1.87832 0
M  V30 3803 O 349.686 0.5098 -1.877 0
M  V30 3804 C 349.969 -2.99621 -1.99747 0
M  V30 3805 C 349.822 -4.32899 -1.22143 0
M  V30 3806 C 351.141 -3.22615 -2.99345 0
M  V30 3807 H 348.26 -0.627151 -0.387105 0
M  V30 3808 H 350.902 -1.86827 -0.345767 0
M  V30 3809 H 349.052 -2.87418 -2.61387 0
M  V30 3810 H 350.724 -4.56978 -0.630017 0
M  V30 3811 H 348.967 -4.30628 -0.523628 0
M  V30 3812 H 349.638 -5.18154 -1.90318 0
M  V30 3813 H 352.114 -3.34248 -2.47826 0
M  V30 3814 H 350.99 -4.13027 -3.61524 0
M  V30 3815 H 351.251 -2.3961 -3.71536 0
M  V30 3816 N 350.31 0.590341 -1.46126 0
M  V30 3817 C 351.535 1.37991 -1.54833 0
M  V30 3818 C 351.96 1.87163 -0.187506 0
M  V30 3819 O 351.318 1.61133 0.831008 0
M  V30 3820 C 351.366 2.54867 -2.55098 0
M  V30 3821 O 350.47 3.56061 -2.08073 0
M  V30 3822 H 349.811 0.411265 -0.521303 0
M  V30 3823 H 352.341 0.716819 -1.91632 0
M  V30 3824 H 352.351 3.01886 -2.74461 0
M  V30 3825 H 351.026 2.18429 -3.53923 0
M  V30 3826 H 349.603 3.15574 -1.98664 0
M  V30 3827 N 351.788 1.33704 0.83433 0
M  V30 3828 C 353.035 1.25417 1.58987 0
M  V30 3829 C 353.363 -0.178869 1.93676 0
M  V30 3830 O 352.618 -1.13723 1.59265 0
M  V30 3831 C 352.917 2.07926 2.90692 0
M  V30 3832 C 352.583 3.57066 2.75345 0
M  V30 3833 C 351.245 3.97724 2.70867 0
M  V30 3834 C 353.597 4.51817 2.59828 0
M  V30 3835 C 350.925 5.31344 2.48778 0
M  V30 3836 C 353.277 5.85604 2.39272 0
M  V30 3837 C 351.941 6.25439 2.33199 0
M  V30 3838 H 351.211 0.458934 0.581774 0
M  V30 3839 H 353.858 1.65335 0.966261 0
M  V30 3840 H 352.163 1.608 3.57282 0
M  V30 3841 H 353.86 1.98868 3.48213 0
M  V30 3842 H 350.45 3.24785 2.79665 0
M  V30 3843 H 354.634 4.21311 2.62319 0
M  V30 3844 H 349.89 5.61241 2.42526 0
M  V30 3845 H 354.064 6.58623 2.2625 0
M  V30 3846 H 351.691 7.28914 2.15843 0
M  V30 3847 N 353.266 -1.05314 1.17247 0
M  V30 3848 C 354.196 -2.1498 0.911362 0
M  V30 3849 C 355.177 -1.69471 -0.146169 0
M  V30 3850 O 356.362 -1.942 0.003812 0
M  V30 3851 C 353.492 -3.4472 0.422528 0
M  V30 3852 C 352.446 -4.03789 1.4191 0
M  V30 3853 C 351.772 -5.28858 0.788274 0
M  V30 3854 C 353.072 -4.41418 2.7919 0
M  V30 3855 H 354.766 -2.3708 1.82848 0
M  V30 3856 H 352.312 -1.13938 0.880569 0
M  V30 3857 H 354.265 -4.20787 0.227289 0
M  V30 3858 H 352.989 -3.22269 -0.530123 0
M  V30 3859 H 351.648 -3.2979 1.60106 0
M  V30 3860 H 351.296 -5.02709 -0.171173 0
M  V30 3861 H 350.996 -5.69338 1.45353 0
M  V30 3862 H 352.52 -6.07612 0.603282 0
M  V30 3863 H 353.934 -5.08524 2.64719 0
M  V30 3864 H 352.331 -4.92913 3.42282 0
M  V30 3865 H 353.401 -3.51819 3.33693 0
M  V30 3866 N 354.744 -0.972509 -1.24016 0
M  V30 3867 C 356.155 -0.67517 -1.74064 0
M  V30 3868 C 356.506 0.808939 -1.78747 0
M  V30 3869 O 355.631 1.63286 -1.42009 0
M  V30 3870 C 356.226 -1.21889 -3.16115 0
M  V30 3871 C 354.785 -0.971358 -3.6365 0
M  V30 3872 C 353.932 -1.35134 -2.42145 0
M  V30 3873 H 356.883 -1.14727 -1.09651 0
M  V30 3874 H 356.904 -0.587489 -3.75937 0
M  V30 3875 H 356.416 -2.29906 -3.12674 0
M  V30 3876 H 354.517 0.0930686 -3.72484 0
M  V30 3877 H 354.63 -1.62039 -4.50866 0
M  V30 3878 H 352.994 -0.769751 -2.4279 0
M  V30 3879 H 353.777 -2.4411 -2.41381 0
M  V30 3880 N 356.222 1.38976 -0.743202 0
M  V30 3881 C 357.468 2.0064 -0.295189 0
M  V30 3882 C 357.801 1.5885 1.11716 0
M  V30 3883 O 357.076 0.821181 1.76315 0
M  V30 3884 C 357.359 3.578 -0.406318 0
M  V30 3885 C 357.212 4.09586 -1.85903 0
M  V30 3886 C 358.531 4.39616 0.206439 0
M  V30 3887 H 355.65 0.728935 -0.108733 0
M  V30 3888 H 358.292 1.65067 -0.940897 0
M  V30 3889 H 356.442 3.88235 0.143419 0
M  V30 3890 H 358.114 3.89837 -2.46627 0
M  V30 3891 H 356.357 3.6284 -2.3776 0
M  V30 3892 H 357.028 5.18708 -1.888 0
M  V30 3893 H 359.504 4.15273 -0.262283 0
M  V30 3894 H 358.38 5.48812 0.0983819 0
M  V30 3895 H 358.641 4.22754 1.2935 0
M  V30 3896 N 357.7 0.491464 1.49741 0
M  V30 3897 C 358.65 -0.311086 2.25868 0
M  V30 3898 C 359.634 -0.943857 1.30308 0
M  V30 3899 O 360.826 -0.853035 1.55088 0
M  V30 3900 C 357.955 -1.38059 3.14316 0
M  V30 3901 C 357.041 -0.754541 4.17334 0
M  V30 3902 N 357.432 0.137216 5.05614 0
M  V30 3903 C 355.73 -1.01621 4.34269 0
M  V30 3904 C 356.431 0.494614 5.79593 0
M  V30 3905 N 355.407 -0.135169 5.43432 0
M  V30 3906 H 359.209 0.37555 2.91491 0
M  V30 3907 H 356.723 0.306917 1.59473 0
M  V30 3908 H 358.72 -1.96891 3.67477 0
M  V30 3909 H 357.38 -2.06901 2.50244 0
M  V30 3910 H 358.391 0.50741 5.15408 0
M  V30 3911 H 355.068 -1.69808 3.81407 0
M  V30 3912 H 356.458 1.2236 6.60665 0
M  V30 3913 N 359.178 -1.55987 0.224894 0
M  V30 3914 C 360.108 -2.23426 -0.678457 0
M  V30 3915 C 361.089 -1.20709 -1.19847 0
M  V30 3916 O 362.274 -1.49304 -1.24186 0
M  V30 3917 C 359.404 -2.91676 -1.88527 0
M  V30 3918 C 358.358 -4.00893 -1.49896 0
M  V30 3919 C 357.684 -4.56455 -2.78483 0
M  V30 3920 C 358.984 -5.17769 -0.686461 0
M  V30 3921 H 360.678 -2.99175 -0.116173 0
M  V30 3922 H 358.224 -1.43897 -0.054436 0
M  V30 3923 H 360.177 -3.37547 -2.5227 0
M  V30 3924 H 358.901 -2.1338 -2.47258 0
M  V30 3925 H 357.56 -3.55758 -0.884985 0
M  V30 3926 H 357.208 -3.74886 -3.35365 0
M  V30 3927 H 356.908 -5.30169 -2.53368 0
M  V30 3928 H 358.432 -5.05047 -3.43162 0
M  V30 3929 H 359.846 -5.60001 -1.22767 0
M  V30 3930 H 358.243 -5.97735 -0.532259 0
M  V30 3931 H 359.313 -4.83932 0.306196 0
M  V30 3932 N 360.656 0.0484629 -1.57525 0
M  V30 3933 C 361.904 0.741657 -1.88 0
M  V30 3934 C 362.225 1.76918 -0.820054 0
M  V30 3935 O 361.495 1.95335 0.148661 0
M  V30 3936 H 360.075 0.276908 -0.69378 0
M  V30 3937 H 362.737 0.019013 -1.94891 0
M  V30 3938 H 361.833 1.24336 -2.86264 0
M  V30 3939 N 362.134 1.5431 0.320358 0
M  V30 3940 C 363.381 1.72668 1.05792 0
M  V30 3941 C 363.709 0.502084 1.87908 0
M  V30 3942 O 362.964 -0.516149 1.88771 0
M  V30 3943 C 363.263 2.95639 2.00828 0
M  V30 3944 C 362.929 4.30265 1.34843 0
M  V30 3945 C 361.591 4.66865 1.16578 0
M  V30 3946 C 363.943 5.13801 0.875095 0
M  V30 3947 C 361.271 5.84597 0.496336 0
M  V30 3948 C 363.623 6.32219 0.219463 0
M  V30 3949 C 362.287 6.67495 0.0246915 0
M  V30 3950 H 361.557 0.631837 0.387121 0
M  V30 3951 H 364.204 1.88552 0.334735 0
M  V30 3952 H 362.509 2.74456 2.79609 0
M  V30 3953 H 364.206 3.07038 2.57932 0
M  V30 3954 H 360.796 4.01472 1.50061 0
M  V30 3955 H 364.98 4.86039 1.00398 0
M  V30 3956 H 360.236 6.10486 0.334264 0
M  V30 3957 H 364.41 6.96227 -0.155291 0
M  V30 3958 H 362.037 7.5858 -0.496065 0
M  V30 3959 N 363.613 -0.582584 1.46437 0
M  V30 3960 C 364.86 -1.34079 1.51753 0
M  V30 3961 C 365.188 -1.93762 0.169299 0
M  V30 3962 O 364.443 -1.76989 -0.835062 0
M  V30 3963 C 364.742 -2.48964 2.56421 0
M  V30 3964 C 364.408 -2.07273 4.00436 0
M  V30 3965 C 363.07 -1.95618 4.39644 0
M  V30 3966 C 365.422 -1.75111 4.90903 0
M  V30 3967 C 362.75 -1.5006 5.67185 0
M  V30 3968 C 365.102 -1.31032 6.18881 0
M  V30 3969 C 363.766 -1.17954 6.56996 0
M  V30 3970 H 363.036 -0.49063 0.555304 0
M  V30 3971 H 365.683 -0.656007 1.79913 0
M  V30 3972 H 363.988 -3.22889 2.21923 0
M  V30 3973 H 365.685 -3.07178 2.57765 0
M  V30 3974 H 362.275 -2.17279 3.69443 0
M  V30 3975 H 366.459 -1.83001 4.61329 0
M  V30 3976 H 361.715 -1.38577 5.95488 0
M  V30 3977 H 365.889 -1.052 6.88408 0
M  V30 3978 H 363.516 -0.824279 7.55718 0
M  V30 3979 N 365.091 -1.34144 -0.827227 0
M  V30 3980 C 366.021 -1.28005 -1.95287 0
M  V30 3981 C 367.002 -0.158321 -1.69362 0
M  V30 3982 O 368.187 -0.349987 -1.9102 0
M  V30 3983 C 365.317 -1.03036 -3.31664 0
M  V30 3984 C 364.271 -2.11628 -3.72019 0
M  V30 3985 C 363.597 -1.71854 -5.0633 0
M  V30 3986 C 364.897 -3.53417 -3.8457 0
M  V30 3987 H 366.591 -2.22187 -2.00682 0
M  V30 3988 H 364.137 -1.0696 -0.964135 0
M  V30 3989 H 366.09 -0.973863 -4.09993 0
M  V30 3990 H 364.814 -0.0529391 -3.26557 0
M  V30 3991 H 363.473 -2.16339 -2.95961 0
M  V30 3992 H 363.121 -0.727841 -4.97706 0
M  V30 3993 H 362.821 -2.44531 -5.34302 0
M  V30 3994 H 364.345 -1.67692 -5.87122 0
M  V30 3995 H 365.759 -3.51142 -4.5318 0
M  V30 3996 H 364.156 -4.24679 -4.2399 0
M  V30 3997 H 365.226 -3.91072 -2.86689 0
M  V30 3998 N 366.569 1.04691 -1.17803 0
M  V30 3999 C 367.501 2.12571 -0.857097 0
M  V30 4000 C 368.514 1.62174 0.142647 0
M  V30 4001 O 369.703 1.78301 -0.0843387 0
M  V30 4002 C 366.803 3.37915 -0.258216 0
M  V30 4003 C 365.976 4.1757 -1.30207 0
M  V30 4004 C 365.035 5.2125 -0.720029 0
M  V30 4005 O 364.061 5.51888 -1.39314 0
M  V30 4006 N 365.263 5.78466 0.485507 0
M  V30 4007 H 368.028 2.40698 -1.78562 0
M  V30 4008 H 365.589 1.20831 -1.07757 0
M  V30 4009 H 367.581 4.04442 0.144584 0
M  V30 4010 H 366.151 3.07281 0.574199 0
M  V30 4011 H 365.371 3.46458 -1.88043 0
M  V30 4012 H 366.659 4.67586 -2.00601 0
M  V30 4013 H 366.057 5.55866 1.05022 0
M  V30 4014 H 364.614 6.4649 0.830307 0
M  V30 4015 N 368.047 0.979072 1.23499 0
M  V30 4016 C 369.294 0.647219 1.91878 0
M  V30 4017 C 369.622 -0.819074 1.76413 0
M  V30 4018 O 368.877 -1.60616 1.11808 0
M  V30 4019 C 369.176 0.981932 3.43646 0
M  V30 4020 C 368.842 2.43822 3.79291 0
M  V30 4021 C 367.504 2.83622 3.88731 0
M  V30 4022 C 369.856 3.3828 3.96505 0
M  V30 4023 C 367.184 4.16897 4.12812 0
M  V30 4024 C 369.536 4.71197 4.22085 0
M  V30 4025 C 368.2 5.10758 4.29747 0
M  V30 4026 H 367.47 0.236834 0.702133 0
M  V30 4027 H 370.117 1.23268 1.46551 0
M  V30 4028 H 368.422 0.314365 3.90537 0
M  V30 4029 H 370.119 0.703395 3.94783 0
M  V30 4030 H 366.709 2.11966 3.72516 0
M  V30 4031 H 370.893 3.0871 3.88603 0
M  V30 4032 H 366.149 4.47157 4.16966 0
M  V30 4033 H 370.323 5.44348 4.34348 0
M  V30 4034 H 367.95 6.1405 4.48159 0
M  V30 4035 N 369.525 -1.3858 0.750561 0
M  V30 4036 C 370.455 -2.33102 0.136237 0
M  V30 4037 C 371.436 -1.54713 -0.706965 0
M  V30 4038 O 372.621 -1.83043 -0.648769 0
M  V30 4039 C 369.751 -3.38882 -0.760017 0
M  V30 4040 C 368.705 -4.27995 -0.0197785 0
M  V30 4041 C 368.031 -5.24605 -1.03408 0
M  V30 4042 C 369.331 -5.09554 1.14684 0
M  V30 4043 H 371.025 -2.84726 0.925822 0
M  V30 4044 H 368.571 -1.36898 0.446654 0
M  V30 4045 H 370.524 -4.0397 -1.19943 0
M  V30 4046 H 369.248 -2.85734 -1.58189 0
M  V30 4047 H 367.907 -3.64409 0.400184 0
M  V30 4048 H 367.555 -4.67746 -1.84994 0
M  V30 4049 H 367.255 -5.85081 -0.543464 0
M  V30 4050 H 368.779 -5.9257 -1.47288 0
M  V30 4051 H 370.193 -5.67899 0.785118 0
M  V30 4052 H 368.59 -5.7925 1.56812 0
M  V30 4053 H 369.66 -4.4347 1.96118 0
M  V30 4054 N 371.003 -0.499398 -1.49478 0
M  V30 4055 C 372.249 0.0457576 -2.02748 0
M  V30 4056 C 372.582 1.36793 -1.37846 0
M  V30 4057 O 371.857 1.87596 -0.513601 0
M  V30 4058 C 372.14 0.199986 -3.59544 0
M  V30 4059 C 371.993 -1.1452 -4.34977 0
M  V30 4060 C 373.312 0.94137 -4.29914 0
M  V30 4061 H 370.431 0.0151552 -0.736844 0
M  V30 4062 H 373.073 -0.650498 -1.78518 0
M  V30 4063 H 371.223 0.793007 -3.8032 0
M  V30 4064 H 372.895 -1.77697 -4.25701 0
M  V30 4065 H 371.138 -1.73488 -3.97598 0
M  V30 4066 H 371.809 -0.990607 -5.43039 0
M  V30 4067 H 374.285 0.43844 -4.13784 0
M  V30 4068 H 373.161 1.01812 -5.39375 0
M  V30 4069 H 373.422 1.98471 -3.95046 0
M  V30 4070 N 372.481 1.55866 -0.233164 0
M  V30 4071 C 373.897 1.59133 0.121988 0
M  V30 4072 C 374.097 1.25016 1.58029 0
M  V30 4073 O 373.153 0.990922 2.32243 0
M  V30 4074 C 374.466 2.99932 -0.214792 0
M  V30 4075 C 376.014 3.12601 -0.157971 0
M  V30 4076 C 376.489 4.55597 -0.46859 0
M  V30 4077 N 377.98 4.61305 -0.418585 0
M  V30 4078 C 378.715 5.69903 -0.63227 0
M  V30 4079 N 378.211 6.86819 -0.90835 0
M  V30 4080 N 380.004 5.59264 -0.563913 0
M  V30 4081 H 372.155 1.76315 -1.18434 0
M  V30 4082 H 374.418 0.820093 -0.475553 0
M  V30 4083 H 374.124 3.29588 -1.22739 0
M  V30 4084 H 373.998 3.74327 0.464691 0
M  V30 4085 H 376.385 2.82735 0.845283 0
M  V30 4086 H 376.466 2.40511 -0.871102 0
M  V30 4087 H 376.11 4.86182 -1.46934 0
M  V30 4088 H 376.04 5.25928 0.265865 0
M  V30 4089 H 378.531 3.77297 -0.213368 0
M  V30 4090 H 378.844 7.65507 -1.05919 0
M  V30 4091 H 377.189 6.88536 -0.945673 0
M  V30 4092 H 380.38 4.66802 -0.348372 0
M  V30 4093 H 380.553 6.43831 -0.733847 0
M  V30 4094 N 373.959 -0.0401083 1.57549 0
M  V30 4095 C 374.907 -1.06264 2.06908 0
M  V30 4096 C 375.901 -1.38132 0.980608 0
M  V30 4097 O 377.107 -1.37167 1.16556 0
M  V30 4098 H 373.482 -0.360166 0.660139 0
M  V30 4099 H 375.453 -0.620445 2.91878 0
M  V30 4100 C 374.202 -2.35846 2.55483 0
M  V30 4101 H 373.525 -2.12183 3.38849 0
M  V30 4102 H 374.965 -3.05765 2.93741 0
M  V30 4103 C 373.424 -3.0404 1.45126 0
M  V30 4104 O 373.954 -3.93424 0.811216 0
M  V30 4105 N 372.16 -2.65184 1.18852 0
M  V30 4106 H 371.707 -1.92584 1.71083 0
M  V30 4107 H 371.665 -3.1113 0.452244 0
M  V30 4108 N 375.437 -1.54477 -0.31217 0
M  V30 4109 C 376.662 -1.77526 -1.07235 0
M  V30 4110 C 377.087 -0.527775 -1.80544 0
M  V30 4111 O 376.445 0.52121 -1.73646 0
M  V30 4112 C 376.493 -2.97535 -2.03728 0
M  V30 4113 O 375.597 -2.69878 -3.11833 0
M  V30 4114 H 374.938 -0.58792 -0.30862 0
M  V30 4115 H 377.468 -2.01532 -0.352993 0
M  V30 4116 H 377.478 -3.25198 -2.46395 0
M  V30 4117 H 376.153 -3.87996 -1.49774 0
M  V30 4118 H 374.73 -2.53199 -2.7376 0
M  V30 4119 N 376.915 0.57481 -1.46744 0
M  V30 4120 C 378.162 1.33272 -1.52462 0
M  V30 4121 C 378.49 1.93669 -0.179572 0
M  V30 4122 O 377.745 1.7743 0.825664 0
M  V30 4123 C 378.044 2.476 -2.57738 0
M  V30 4124 C 377.71 2.05146 -4.01529 0
M  V30 4125 C 376.372 1.93284 -4.40676 0
M  V30 4126 C 378.724 1.72506 -4.91824 0
M  V30 4127 C 376.052 1.47049 -5.67973 0
M  V30 4128 C 378.404 1.27748 -6.19567 0
M  V30 4129 C 377.068 1.14468 -6.57612 0
M  V30 4130 H 376.338 0.487678 -0.557899 0
M  V30 4131 H 378.985 0.646456 -1.80259 0
M  V30 4132 H 377.29 3.21708 -2.23632 0
M  V30 4133 H 378.987 3.05807 -2.5939 0
M  V30 4134 H 375.577 2.15316 -3.7059 0
M  V30 4135 H 379.761 1.80552 -4.62293 0
M  V30 4136 H 375.017 1.35417 -5.96215 0
M  V30 4137 H 379.191 1.01547 -6.88957 0
M  V30 4138 H 376.818 0.78419 -7.56145 0
M  V30 4139 N 378.394 1.34581 0.820102 0
M  V30 4140 C 379.643 1.26437 1.57151 0
M  V30 4141 C 379.956 -0.163111 1.94919 0
M  V30 4142 O 381.162 -0.366722 2.69012 0
M  V30 4143 C 379.618 2.21658 2.83541 0
M  V30 4144 C 379.226 3.69679 2.53065 0
M  V30 4145 C 380.97 2.22428 3.61561 0
M  V30 4146 C 378.877 4.56761 3.75664 0
M  V30 4147 H 377.807 0.469707 0.589823 0
M  V30 4148 H 380.458 1.59763 0.902656 0
M  V30 4149 H 378.84 1.81287 3.52067 0
M  V30 4150 H 380.014 4.18605 1.92631 0
M  V30 4151 H 378.329 3.71384 1.88316 0
M  V30 4152 H 380.926 2.8471 4.52597 0
M  V30 4153 H 381.269 1.22434 3.97889 0
M  V30 4154 H 381.802 2.61259 2.99981 0
M  V30 4155 H 378.541 5.57702 3.44454 0
M  V30 4156 H 378.061 4.12568 4.35371 0
M  V30 4157 H 379.74 4.71509 4.43044 0
M  V30 4158 N 379.872 -1.04064 1.18357 0
M  V30 4159 C 381.118 -1.77528 0.980397 0
M  V30 4160 C 381.451 -1.87948 -0.48879 0
M  V30 4161 O 380.726 -1.3876 -1.36293 0
M  V30 4162 C 381.009 -3.20797 1.63588 0
M  V30 4163 C 380.862 -3.1832 3.17793 0
M  V30 4164 C 382.181 -4.18911 1.34914 0
M  V30 4165 H 379.3 -0.644443 0.357578 0
M  V30 4166 H 381.942 -1.2156 1.46024 0
M  V30 4167 H 380.092 -3.68586 1.22788 0
M  V30 4168 H 381.764 -2.78521 3.67728 0
M  V30 4169 H 380.007 -2.56351 3.49952 0
M  V30 4170 H 380.678 -4.19489 3.58794 0
M  V30 4171 H 383.154 -3.7967 1.70265 0
M  V30 4172 H 382.03 -5.17374 1.83346 0
M  V30 4173 H 382.291 -4.41262 0.272027 0
M  V30 4174 N 381.35 -0.985608 -1.22978 0
M  V30 4175 C 382.26 -0.538548 -2.28335 0
M  V30 4176 C 383.276 0.409163 -1.69121 0
M  V30 4177 O 384.452 0.277797 -1.99475 0
M  V30 4178 C 381.517 0.146867 -3.46389 0
M  V30 4179 C 380.578 -0.842896 -4.20944 0
M  V30 4180 C 379.811 -0.190095 -5.33361 0
M  V30 4181 O 380.034 1.01767 -5.61248 0
M  V30 4182 O 378.968 -0.891289 -5.95264 0
M  V30 4183 H 382.794 -1.41487 -2.68729 0
M  V30 4184 H 380.379 -0.753495 -1.29007 0
M  V30 4185 H 382.261 0.531125 -4.1804 0
M  V30 4186 H 380.936 0.997871 -3.07935 0
M  V30 4187 H 379.843 -1.27795 -3.51595 0
M  V30 4188 H 381.176 -1.66287 -4.6326 0
M  V30 4189 N 382.828 1.3818 -0.7579 0
M  V30 4190 C 384.068 2.01864 -0.320968 0
M  V30 4191 C 384.432 1.58863 1.07827 0
M  V30 4192 O 385.633 2.14908 1.61456 0
M  V30 4193 C 383.904 3.54626 -0.44446 0
M  V30 4194 S 385.463 4.38706 -0.0907467 0
M  V30 4195 H 382.281 0.700056 -0.124268 0
M  V30 4196 H 384.883 1.68611 -0.989468 0
M  V30 4197 H 383.587 3.83411 -1.4637 0
M  V30 4198 H 383.118 3.92661 0.241073 0
M  V30 4199 H 385.133 4.83435 1.11826 0
M  V30 4200 N 384.306 0.507319 1.49211 0
M  V30 4201 C 385.722 0.163682 1.58758 0
M  V30 4202 C 385.922 -1.33208 1.51188 0
M  V30 4203 O 384.978 -2.10855 1.38911 0
M  V30 4204 C 386.291 0.746095 2.91297 0
M  V30 4205 C 387.839 0.712773 3.04776 0
M  V30 4206 C 388.314 1.27336 4.39943 0
M  V30 4207 N 389.805 1.23433 4.46451 0
M  V30 4208 C 390.54 1.63821 5.495 0
M  V30 4209 N 390.036 2.11832 6.5962 0
M  V30 4210 N 391.829 1.55198 5.4025 0
M  V30 4211 H 383.98 1.47972 1.52375 0
M  V30 4212 H 386.243 0.614147 0.722168 0
M  V30 4213 H 385.949 1.79534 3.02424 0
M  V30 4214 H 385.823 0.210137 3.76614 0
M  V30 4215 H 388.21 -0.327656 2.93275 0
M  V30 4216 H 388.291 1.28595 2.21127 0
M  V30 4217 H 387.935 2.3126 4.52196 0
M  V30 4218 H 387.865 0.676066 5.22242 0
M  V30 4219 H 390.356 0.882627 3.67448 0
M  V30 4220 H 390.669 2.40703 7.34358 0
M  V30 4221 H 389.014 2.1581 6.60644 0
M  V30 4222 H 392.205 1.17505 4.53112 0
M  V30 4223 H 392.378 1.86997 6.20432 0
M  V30 4224 N 385.784 -1.5574 0.241426 0
M  V30 4225 C 386.747 -2.19877 -0.647063 0
M  V30 4226 C 387.747 -1.16642 -1.10686 0
M  V30 4227 O 388.937 -1.41757 -1.01245 0
M  V30 4228 C 386.069 -2.83797 -1.88871 0
M  V30 4229 H 387.262 -2.99772 -0.087574 0
M  V30 4230 H 384.815 -1.56298 -0.00813574 0
M  V30 4231 H 385.55 -2.07824 -2.48957 0
M  V30 4232 H 385.335 -3.59414 -1.56728 0
M  V30 4233 H 386.825 -3.32898 -2.52129 0
M  V30 4234 N 387.262 0.0317525 -1.57568 0
M  V30 4235 C 388.209 1.0332 -2.06382 0
M  V30 4236 C 389.179 1.36082 -0.952414 0
M  V30 4237 O 390.364 1.46466 -1.2228 0
M  V30 4238 C 387.504 2.32989 -2.54578 0
M  V30 4239 C 386.617 2.0641 -3.79498 0
M  V30 4240 C 385.752 3.2993 -4.16317 0
M  V30 4241 C 384.791 2.98893 -5.34162 0
M  V30 4242 N 383.928 4.14857 -5.66426 0
M  V30 4243 H 388.768 0.609982 -2.9169 0
M  V30 4244 H 386.305 0.289573 -1.44222 0
M  V30 4245 H 388.263 3.0875 -2.80587 0
M  V30 4246 H 386.893 2.73039 -1.7219 0
M  V30 4247 H 385.945 1.21158 -3.6059 0
M  V30 4248 H 387.257 1.79513 -4.65378 0
M  V30 4249 H 386.411 4.1406 -4.4344 0
M  V30 4250 H 385.15 3.59938 -3.29083 0
M  V30 4251 H 384.155 2.13164 -5.06795 0
M  V30 4252 H 385.38 2.70165 -6.23047 0
M  V30 4253 H 383.326 4.44821 -4.82151 0
M  V30 4254 H 383.243 3.91374 -6.4681 0
M  V30 4255 H 384.511 4.99868 -5.98124 0
M  V30 4256 N 388.74 1.54641 0.303973 0
M  V30 4257 C 389.672 1.81754 1.39636 0
M  V30 4258 C 390.685 0.70035 1.46966 0
M  V30 4259 O 391.874 0.97778 1.49338 0
M  V30 4260 C 388.974 1.93785 2.7803 0
M  V30 4261 C 388.147 3.24156 2.93669 0
M  V30 4262 C 387.206 3.26641 4.12544 0
M  V30 4263 O 386.232 4.00187 4.04771 0
M  V30 4264 N 387.434 2.5182 5.23036 0
M  V30 4265 H 390.199 2.76031 1.16734 0
M  V30 4266 H 387.76 1.54178 0.494033 0
M  V30 4267 H 389.752 1.92852 3.55795 0
M  V30 4268 H 388.322 1.06515 2.93893 0
M  V30 4269 H 387.542 3.37887 2.03042 0
M  V30 4270 H 388.83 4.10195 3.01027 0
M  V30 4271 H 388.228 1.91692 5.32232 0
M  V30 4272 H 386.785 2.56644 5.99147 0
M  V30 4273 N 390.218 -0.567019 1.47046 0
M  V30 4274 C 391.443 -1.3551 1.57009 0
M  V30 4275 C 391.868 -1.86841 0.217259 0
M  V30 4276 O 391.226 -1.62435 -0.805268 0
M  V30 4277 C 391.274 -2.50777 2.5912 0
M  V30 4278 O 390.378 -3.52706 2.13711 0
M  V30 4279 H 389.719 -0.402919 0.52778 0
M  V30 4280 H 392.249 -0.686241 1.92748 0
M  V30 4281 H 392.259 -2.97481 2.79229 0
M  V30 4282 H 390.934 -2.12771 3.57353 0
M  V30 4283 H 389.511 -3.12374 2.03659 0
M  V30 4284 N 391.696 -1.35014 -0.812953 0
M  V30 4285 C 392.945 -1.27269 -1.56479 0
M  V30 4286 C 393.258 0.152771 -1.95002 0
M  V30 4287 O 394.464 0.352451 -2.69203 0
M  V30 4288 C 392.92 -2.23159 -2.82362 0
M  V30 4289 C 392.528 -3.71016 -2.511 0
M  V30 4290 C 394.272 -2.24342 -3.60376 0
M  V30 4291 C 392.179 -4.58746 -3.73237 0
M  V30 4292 H 391.109 -0.472829 -0.587324 0
M  V30 4293 H 393.76 -1.6024 -0.894171 0
M  V30 4294 H 392.142 -1.83151 -3.51101 0
M  V30 4295 H 393.316 -4.1962 -1.90409 0
M  V30 4296 H 391.631 -3.72378 -1.86343 0
M  V30 4297 H 394.228 -2.87107 -4.51081 0
M  V30 4298 H 394.571 -1.24542 -3.97234 0
M  V30 4299 H 395.104 -2.62846 -2.98591 0
M  V30 4300 H 391.843 -5.59521 -3.41492 0
M  V30 4301 H 391.363 -4.14871 -4.33176 0
M  V30 4302 H 393.042 -4.73852 -4.40537 0
M  V30 4303 N 393.175 1.03435 -1.18907 0
M  V30 4304 C 394.4 1.80919 -1.01406 0
M  V30 4305 C 394.825 1.83055 0.432721 0
M  V30 4306 O 394.183 1.25252 1.31079 0
M  V30 4307 C 394.231 3.24091 -1.58105 0
M  V30 4308 O 393.335 4.04434 -0.806669 0
M  V30 4309 H 392.676 0.558709 -0.358803 0
M  V30 4310 H 395.206 1.30223 -1.57807 0
M  V30 4311 H 395.216 3.74853 -1.61087 0
M  V30 4312 H 393.891 3.21851 -2.6341 0
M  V30 4313 H 392.468 3.63091 -0.849666 0
M  V30 4314 N 394.653 0.992116 1.22453 0
M  V30 4315 C 395.9 0.667534 1.91181 0
M  V30 4316 C 396.228 -0.800317 1.77271 0
M  V30 4317 O 395.483 -1.59421 1.13505 0
M  V30 4318 C 395.782 1.01832 3.42586 0
M  V30 4319 C 395.448 2.47831 3.76684 0
M  V30 4320 C 394.11 2.87729 3.85701 0
M  V30 4321 C 396.462 3.42466 3.92895 0
M  V30 4322 C 393.79 4.21252 4.08367 0
M  V30 4323 C 396.142 4.75648 4.17064 0
M  V30 4324 C 394.806 5.15288 4.24305 0
M  V30 4325 H 394.076 0.244268 0.699581 0
M  V30 4326 H 396.723 1.24816 1.45235 0
M  V30 4327 H 395.028 0.355769 3.90181 0
M  V30 4328 H 396.725 0.745228 3.94014 0
M  V30 4329 H 393.315 2.15905 3.70247 0
M  V30 4330 H 397.499 3.12814 3.85307 0
M  V30 4331 H 392.755 4.51554 4.122 0
M  V30 4332 H 396.929 5.48924 4.2855 0
M  V30 4333 H 394.556 6.18769 4.41621 0
M  V30 4334 N 396.131 -1.37776 0.765217 0
M  V30 4335 C 397.378 -1.99849 0.326588 0
M  V30 4336 C 397.706 -1.60746 -1.09504 0
M  V30 4337 O 396.961 -0.84202 -1.76659 0
M  V30 4338 C 397.26 -3.5504 0.410053 0
M  V30 4339 C 396.926 -4.13891 1.78899 0
M  V30 4340 C 395.588 -4.29678 2.16635 0
M  V30 4341 C 397.94 -4.46236 2.69301 0
M  V30 4342 C 395.268 -4.7511 3.44221 0
M  V30 4343 C 397.62 -4.93089 3.9629 0
M  V30 4344 C 396.284 -5.07082 4.34078 0
M  V30 4345 H 395.554 -0.7313 0.119507 0
M  V30 4346 H 398.201 -1.64645 0.977968 0
M  V30 4347 H 396.506 -3.90451 -0.324878 0
M  V30 4348 H 398.203 -4.00966 0.0520699 0
M  V30 4349 H 394.793 -4.02026 1.48569 0
M  V30 4350 H 398.977 -4.3363 2.41409 0
M  V30 4351 H 394.233 -4.84129 3.73402 0
M  V30 4352 H 398.407 -5.17084 4.66472 0
M  V30 4353 H 396.034 -5.42046 5.33001 0
M  V30 4354 N 397.609 -0.515225 -1.4894 0
M  V30 4355 C 398.539 0.244628 -2.32215 0
M  V30 4356 C 399.52 0.949136 -1.41157 0
M  V30 4357 O 400.705 0.937783 -1.70057 0
M  V30 4358 C 397.835 1.30096 -3.22013 0
M  V30 4359 C 396.789 0.715486 -4.21977 0
M  V30 4360 C 396.115 1.87339 -5.00808 0
M  V30 4361 C 397.415 -0.302982 -5.2142 0
M  V30 4362 H 399.109 -0.450501 -2.95991 0
M  V30 4363 H 396.655 -0.218098 -1.42339 0
M  V30 4364 H 398.608 1.84037 -3.79089 0
M  V30 4365 H 397.332 2.02547 -2.56207 0
M  V30 4366 H 395.991 0.197715 -3.66066 0
M  V30 4367 H 395.639 2.58592 -4.31438 0
M  V30 4368 H 395.339 1.48764 -5.68457 0
M  V30 4369 H 396.863 2.41686 -5.60732 0
M  V30 4370 H 398.277 0.148802 -5.73107 0
M  V30 4371 H 396.674 -0.60532 -5.97039 0
M  V30 4372 H 397.744 -1.21395 -4.69459 0
M  V30 4373 N 399.087 1.5561 -0.249682 0
M  V30 4374 C 400.019 2.18834 0.681496 0
M  V30 4375 C 401.032 1.16546 1.1367 0
M  V30 4376 O 402.221 1.43397 1.06299 0
M  V30 4377 C 399.321 2.77992 1.9384 0
M  V30 4378 C 398.494 4.05725 1.63419 0
M  V30 4379 C 397.553 4.49174 2.74096 0
M  V30 4380 O 396.579 5.15492 2.41364 0
M  V30 4381 N 397.781 4.17191 4.03649 0
M  V30 4382 H 400.546 2.9937 0.140514 0
M  V30 4383 H 398.107 1.6175 -0.0697541 0
M  V30 4384 H 400.099 3.04015 2.67127 0
M  V30 4385 H 398.669 2.01596 2.38909 0
M  V30 4386 H 397.889 3.87261 0.736358 0
M  V30 4387 H 399.177 4.88999 1.40562 0
M  V30 4388 H 398.575 3.63955 4.33074 0
M  V30 4389 H 397.132 4.48043 4.73393 0
M  V30 4390 N 400.565 -0.0233959 1.57583 0
M  V30 4391 C 401.495 -1.02162 2.09965 0
M  V30 4392 C 402.476 -1.3735 1.00344 0
M  V30 4393 O 403.661 -1.46135 1.27899 0
M  V30 4394 C 400.791 -2.32081 2.58371 0
M  V30 4395 C 399.745 -2.1112 3.72307 0
M  V30 4396 C 399.071 -3.46848 4.06941 0
M  V30 4397 C 400.371 -1.49276 5.00514 0
M  V30 4398 H 402.065 -0.585557 2.93618 0
M  V30 4399 H 399.611 -0.280218 1.41247 0
M  V30 4400 H 401.564 -3.02249 2.93639 0
M  V30 4401 H 400.288 -2.77758 1.71808 0
M  V30 4402 H 398.947 -1.43384 3.37397 0
M  V30 4403 H 398.595 -3.90184 3.17436 0
M  V30 4404 H 398.295 -3.33646 4.83688 0
M  V30 4405 H 399.819 -4.18369 4.44747 0
M  V30 4406 H 401.233 -2.09368 5.33702 0
M  V30 4407 H 399.63 -1.46632 5.8191 0
M  V30 4408 H 400.7 -0.459217 4.82721 0
M  V30 4409 N 402.043 -1.548 -0.295768 0
M  V30 4410 C 403.268 -1.78653 -1.05346 0
M  V30 4411 C 403.693 -0.546894 -1.79974 0
M  V30 4412 O 403.051 0.502763 -1.7419 0
M  V30 4413 C 403.099 -2.99679 -2.00561 0
M  V30 4414 O 402.203 -2.7317 -3.08953 0
M  V30 4415 H 401.544 -0.59116 -0.302367 0
M  V30 4416 H 404.074 -2.01895 -0.331598 0
M  V30 4417 H 404.084 -3.27793 -2.42932 0
M  V30 4418 H 402.759 -3.89562 -1.4565 0
M  V30 4419 H 401.336 -2.56089 -2.71059 0
M  V30 4420 N 403.521 0.559213 -1.47345 0
M  V30 4421 C 404.454 1.68201 -1.5422 0
M  V30 4422 C 405.432 1.57742 -0.394497 0
M  V30 4423 O 406.616 1.78628 -0.60201 0
M  V30 4424 C 403.743 3.0643 -1.44285 0
M  V30 4425 C 402.789 3.3534 -2.63532 0
M  V30 4426 S 403.622 3.24816 -4.25741 0
M  V30 4427 C 404.778 4.65542 -4.18355 0
M  V30 4428 H 405.011 1.62114 -2.49211 0
M  V30 4429 H 402.544 0.739871 -1.35519 0
M  V30 4430 H 404.502 3.86164 -1.3924 0
M  V30 4431 H 403.163 3.09984 -0.506816 0
M  V30 4432 H 402.356 4.36107 -2.52639 0
M  V30 4433 H 401.958 2.63221 -2.65689 0
M  V30 4434 H 404.25 5.56449 -3.86485 0
M  V30 4435 H 405.193 4.81493 -5.19202 0
M  V30 4436 H 405.601 4.43495 -3.49246 0
M  V30 4437 N 404.999 1.35443 0.805782 0
M  V30 4438 C 406.239 1.30127 1.57627 0
M  V30 4439 C 406.603 -0.122567 1.91608 0
M  V30 4440 O 407.804 -0.300107 2.67119 0
M  V30 4441 C 406.075 2.18314 2.82973 0
M  V30 4442 S 407.634 2.30521 3.7337 0
M  V30 4443 H 404.452 0.462439 0.540066 0
M  V30 4444 H 407.054 1.70843 0.95042 0
M  V30 4445 H 405.758 3.20741 2.56034 0
M  V30 4446 H 405.289 1.78558 3.50543 0
M  V30 4447 H 407.304 1.49062 4.73281 0
M  V30 4448 N 406.477 -1.02803 1.19454 0
M  V30 4449 C 407.724 -1.76217 0.997693 0
M  V30 4450 C 408.052 -1.887 -0.47144 0
M  V30 4451 O 407.307 -1.4011 -1.3663 0
M  V30 4452 C 407.606 -3.18941 1.6128 0
M  V30 4453 C 407.272 -3.26463 3.11019 0
M  V30 4454 C 405.934 -3.28223 3.51885 0
M  V30 4455 C 408.286 -3.25542 4.07028 0
M  V30 4456 C 405.614 -3.26719 4.8731 0
M  V30 4457 C 407.966 -3.25579 5.42385 0
M  V30 4458 C 406.63 -3.25637 5.82681 0
M  V30 4459 H 405.9 -0.644823 0.365082 0
M  V30 4460 H 408.547 -1.20655 1.4871 0
M  V30 4461 H 406.852 -3.77587 1.04572 0
M  V30 4462 H 408.549 -3.74415 1.43577 0
M  V30 4463 H 405.139 -3.25822 2.78457 0
M  V30 4464 H 409.323 -3.23362 3.76498 0
M  V30 4465 H 404.579 -3.25089 5.1781 0
M  V30 4466 H 408.753 -3.23817 6.16535 0
M  V30 4467 H 406.38 -3.24226 6.87591 0
M  V30 4468 N 407.956 -0.998596 -1.21925 0
M  V30 4469 C 409.181 -0.696015 -1.95372 0
M  V30 4470 C 409.606 0.733826 -1.73195 0
M  V30 4471 O 408.964 1.50242 -1.01474 0
M  V30 4472 C 409.012 -1.01466 -3.4603 0
M  V30 4473 O 408.116 -0.116415 -4.12236 0
M  V30 4474 H 407.457 -0.259938 -0.611006 0
M  V30 4475 H 409.987 -1.33711 -1.54863 0
M  V30 4476 H 409.997 -0.958855 -3.96573 0
M  V30 4477 H 408.672 -2.05653 -3.61497 0
M  V30 4478 H 407.249 -0.228193 -3.72201 0
M  V30 4479 N 409.434 1.37368 -0.772513 0
M  V30 4480 C 410.382 2.32134 -0.147111 0
M  V30 4481 C 411.376 1.54972 0.684106 0
M  V30 4482 O 412.582 1.70363 0.581083 0
M  V30 4483 H 408.957 0.751449 -0.028786 0
M  V30 4484 H 410.928 2.82464 -0.962112 0
M  V30 4485 C 409.677 3.40226 0.71703 0
M  V30 4486 H 409 3.99706 0.0867951 0
M  V30 4487 H 410.44 4.08897 1.12159 0
M  V30 4488 C 408.899 2.80372 1.86797 0
M  V30 4489 O 409.429 2.71183 2.96349 0
M  V30 4490 N 407.635 2.37904 1.66883 0
M  V30 4491 H 407.182 2.45578 0.777759 0
M  V30 4492 H 407.14 1.98202 2.44056 0
M  V30 4493 N 410.912 0.523116 1.48665 0
M  V30 4494 C 412.158 -0.0134963 2.02796 0
M  V30 4495 C 412.491 -1.34582 1.40004 0
M  V30 4496 O 411.766 -1.86756 0.543381 0
M  V30 4497 C 412.049 -0.14276 3.59817 0
M  V30 4498 C 411.902 1.21425 4.331 0
M  V30 4499 C 413.221 -0.872856 4.31357 0
M  V30 4500 H 410.34 -0.00343074 0.736992 0
M  V30 4501 H 412.982 0.678816 1.7746 0
M  V30 4502 H 411.132 -0.732401 3.81534 0
M  V30 4503 H 412.804 1.84447 4.2282 0
M  V30 4504 H 411.047 1.79791 3.94788 0
M  V30 4505 H 411.718 1.07687 5.41394 0
M  V30 4506 H 414.194 -0.372555 4.14429 0
M  V30 4507 H 413.07 -0.932185 5.40927 0
M  V30 4508 H 413.331 -1.92161 3.98154 0
M  V30 4509 N 412.39 -1.55475 0.257931 0
M  V30 4510 C 413.338 -2.23244 -0.653076 0
M  V30 4511 C 414.332 -1.22366 -1.17144 0
M  V30 4512 O 415.538 -1.40347 -1.12706 0
M  V30 4513 H 411.913 -0.716247 -0.229117 0
M  V30 4514 H 413.884 -2.98343 -0.0584788 0
M  V30 4515 C 412.633 -2.95401 -1.83395 0
M  V30 4516 H 411.956 -3.72802 -1.44424 0
M  V30 4517 H 413.396 -3.46165 -2.44838 0
M  V30 4518 C 411.855 -1.99895 -2.71189 0
M  V30 4519 O 412.385 -1.53909 -3.71046 0
M  V30 4520 N 410.591 -1.6676 -2.3799 0
M  V30 4521 H 410.138 -2.04352 -1.56837 0
M  V30 4522 H 410.096 -1.03127 -2.97005 0
M  V30 4523 N 413.868 0.0150385 -1.57593 0
M  V30 4524 C 415.108 0.70768 -1.91758 0
M  V30 4525 C 415.472 1.71764 -0.857974 0
M  V30 4526 O 416.673 2.45956 -1.0844 0
M  V30 4527 C 414.944 1.34736 -3.3103 0
M  V30 4528 S 416.503 2.06721 -3.87056 0
M  V30 4529 H 413.321 0.234119 -0.671349 0
M  V30 4530 H 415.923 -0.0380373 -1.95463 0
M  V30 4531 H 414.627 0.59926 -4.06001 0
M  V30 4532 H 414.158 2.13133 -3.30663 0
M  V30 4533 H 416.173 3.34047 -3.66915 0
M  V30 4534 N 415.346 1.54954 0.287554 0
M  V30 4535 C 416.586 1.76617 1.02887 0
M  V30 4536 C 416.95 0.547759 1.84021 0
M  V30 4537 O 418.151 0.642365 2.61012 0
M  V30 4538 C 416.422 3.02717 1.89993 0
M  V30 4539 S 417.981 3.45438 2.70588 0
M  V30 4540 H 414.799 0.6207 0.346775 0
M  V30 4541 H 417.401 1.93172 0.30082 0
M  V30 4542 H 416.105 3.89503 1.29287 0
M  V30 4543 H 415.636 2.88787 2.67144 0
M  V30 4544 H 417.651 3.03566 3.92508 0
M  V30 4545 N 416.824 -0.551391 1.4764 0
M  V30 4546 C 417.754 -1.66757 1.63445 0
M  V30 4547 C 418.735 -1.63077 0.483742 0
M  V30 4548 O 419.92 -1.80607 0.71377 0
M  V30 4549 C 417.05 -3.05387 1.65396 0
M  V30 4550 C 416.004 -3.23918 2.79752 0
M  V30 4551 C 415.33 -4.63393 2.66779 0
M  V30 4552 C 416.63 -3.08735 4.21284 0
M  V30 4553 H 418.324 -1.53786 2.56886 0
M  V30 4554 H 415.87 -0.738415 1.23626 0
M  V30 4555 H 417.823 -3.83325 1.75043 0
M  V30 4556 H 416.547 -3.19332 0.685195 0
M  V30 4557 H 415.206 -2.48391 2.69625 0
M  V30 4558 H 414.854 -4.74144 1.67918 0
M  V30 4559 H 414.554 -4.7674 3.43501 0
M  V30 4560 H 416.078 -5.43458 2.78364 0
M  V30 4561 H 417.492 -3.76484 4.32357 0
M  V30 4562 H 415.889 -3.33588 4.98838 0
M  V30 4563 H 416.959 -2.0541 4.39243 0
M  V30 4564 N 418.302 -1.35869 -0.798587 0
M  V30 4565 C 419.579 -1.20145 -1.54352 0
M  V30 4566 C 419.959 0.216161 -2.0999 0
M  V30 4567 O 419.307 1.22068 -1.93162 0
M  V30 4568 C 419.517 -2.27602 -2.64572 0
M  V30 4569 C 420.865 -2.63811 -3.32699 0
M  V30 4570 O 421.889 -2.26576 -2.74849 0
M  V30 4571 O 420.748 -3.27866 -4.37226 0
M  V30 4572 H 417.842 -0.467248 -0.682355 0
M  V30 4573 H 420.388 -1.47574 -0.837859 0
M  V30 4574 H 419.16 -3.2265 -2.21388 0
M  V30 4575 H 418.783 -2.01488 -3.42766 0
M  V30 4576 N 419.78 1.02168 -1.19998 0
M  V30 4577 C 421.026 1.75945 -1.00852 0
M  V30 4578 C 421.359 1.88702 0.458828 0
M  V30 4579 O 420.634 1.40911 1.34069 0
M  V30 4580 C 420.917 3.18154 -1.68671 0
M  V30 4581 C 420.77 3.13224 -3.22817 0
M  V30 4582 C 422.089 4.16711 -1.41561 0
M  V30 4583 H 419.208 0.638673 -0.367785 0
M  V30 4584 H 421.85 1.19222 -1.4794 0
M  V30 4585 H 420 3.66586 -1.28636 0
M  V30 4586 H 421.672 2.72635 -3.72112 0
M  V30 4587 H 419.915 2.50751 -3.53986 0
M  V30 4588 H 420.586 4.13728 -3.65422 0
M  V30 4589 H 423.062 3.76913 -1.76284 0
M  V30 4590 H 421.938 5.14391 -1.91553 0
M  V30 4591 H 422.199 4.40774 -0.342193 0
M  V30 4592 N 421.258 1.00505 1.21394 0
M  V30 4593 C 422.505 0.687774 1.90462 0
M  V30 4594 C 422.833 -0.78147 1.7811 0
M  V30 4595 O 422.088 -1.58208 1.1519 0
M  V30 4596 C 422.387 1.0546 3.41486 0
M  V30 4597 C 422.053 2.51812 3.74034 0
M  V30 4598 C 420.715 2.91804 3.82628 0
M  V30 4599 C 423.067 3.46614 3.8924 0
M  V30 4600 C 420.395 4.2556 4.03876 0
M  V30 4601 C 422.747 4.80044 4.11995 0
M  V30 4602 C 421.411 5.19759 4.18816 0
M  V30 4603 H 420.681 0.251674 0.696951 0
M  V30 4604 H 423.328 1.26349 1.43903 0
M  V30 4605 H 421.633 0.397133 3.89782 0
M  V30 4606 H 423.33 0.786976 3.93202 0
M  V30 4607 H 419.92 2.1982 3.67936 0
M  V30 4608 H 424.104 3.16883 3.81967 0
M  V30 4609 H 419.36 4.55901 4.07387 0
M  V30 4610 H 423.534 5.53439 4.22704 0
M  V30 4611 H 421.161 6.23418 4.35033 0
M  V30 4612 N 422.737 -1.36956 0.779787 0
M  V30 4613 C 423.977 -2.01328 0.353043 0
M  V30 4614 C 424.341 -1.60558 -1.05286 0
M  V30 4615 O 425.542 -2.1745 -1.58016 0
M  V30 4616 C 423.813 -3.53874 0.500822 0
M  V30 4617 S 425.372 -4.38506 0.16053 0
M  V30 4618 H 422.19 -0.69799 0.13539 0
M  V30 4619 H 424.792 -1.67016 1.01617 0
M  V30 4620 H 423.496 -3.81034 1.52451 0
M  V30 4621 H 423.027 -3.92994 -0.178574 0
M  V30 4622 H 425.042 -4.85153 -1.04121 0
M  V30 4623 N 424.215 -0.530993 -1.48385 0
M  V30 4624 C 425.445 -0.00133928 -2.066 0
M  V30 4625 C 425.853 1.28599 -1.38777 0
M  V30 4626 O 425.196 1.77599 -0.469495 0
M  V30 4627 C 425.258 0.292137 -3.58311 0
M  V30 4628 C 424.922 -0.901864 -4.48013 0
M  V30 4629 C 425.919 -1.80053 -4.87726 0
M  V30 4630 C 423.604 -1.10915 -4.89901 0
M  V30 4631 C 425.598 -2.89038 -5.68098 0
M  V30 4632 C 423.285 -2.20213 -5.70043 0
M  V30 4633 C 424.283 -3.09107 -6.0905 0
M  V30 4634 O 423.971 -4.16514 -6.87583 0
M  V30 4635 H 423.703 -0.0308475 -0.675296 0
M  V30 4636 H 426.257 -0.736335 -1.91748 0
M  V30 4637 H 424.487 1.08112 -3.7128 0
M  V30 4638 H 426.176 0.763994 -3.98645 0
M  V30 4639 H 426.942 -1.65234 -4.55986 0
M  V30 4640 H 422.821 -0.426498 -4.59023 0
M  V30 4641 H 426.365 -3.58451 -5.98464 0
M  V30 4642 H 422.262 -2.35016 -6.01197 0
M  V30 4643 H 423.03 -4.14237 -7.05939 0
M  V30 4644 N 425.693 1.55336 -0.266172 0
M  V30 4645 C 426.923 2.03506 0.356239 0
M  V30 4646 C 427.331 1.14426 1.50676 0
M  V30 4647 O 426.674 0.155043 1.83045 0
M  V30 4648 C 426.736 3.47848 0.90785 0
M  V30 4649 C 426.4 4.56861 -0.112888 0
M  V30 4650 C 427.397 5.11528 -0.929264 0
M  V30 4651 C 425.082 5.01704 -0.244546 0
M  V30 4652 C 427.076 6.09549 -1.86357 0
M  V30 4653 C 424.763 5.99553 -1.18234 0
M  V30 4654 C 425.761 6.53356 -1.99036 0
M  V30 4655 O 425.449 7.49293 -2.91231 0
M  V30 4656 H 425.181 0.670444 0.08649 0
M  V30 4657 H 427.735 2.01598 -0.39337 0
M  V30 4658 H 425.965 3.46967 1.70737 0
M  V30 4659 H 427.654 3.79407 1.44239 0
M  V30 4660 H 428.42 4.77701 -0.838237 0
M  V30 4661 H 424.299 4.59477 0.374359 0
M  V30 4662 H 427.843 6.51469 -2.49467 0
M  V30 4663 H 423.74 6.32799 -1.27421 0
M  V30 4664 H 424.508 7.66978 -2.8581 0
M  V30 4665 N 427.171 -0.0066808 1.57599 0
M  V30 4666 C 428.418 -0.69292 1.90276 0
M  V30 4667 C 428.746 -1.74148 0.866192 0
M  V30 4668 O 428.001 -1.95268 -0.129933 0
M  V30 4669 C 428.3 -1.37939 3.29708 0
M  V30 4670 C 427.966 -0.464679 4.48499 0
M  V30 4671 C 426.628 -0.212809 4.80729 0
M  V30 4672 C 428.98 0.16551 5.20937 0
M  V30 4673 C 426.308 0.677653 5.82773 0
M  V30 4674 C 428.66 1.04381 6.23929 0
M  V30 4675 C 427.324 1.30492 6.54621 0
M  V30 4676 H 426.594 -0.253558 0.696268 0
M  V30 4677 H 429.241 0.0474123 1.91441 0
M  V30 4678 H 427.546 -2.1936 3.24636 0
M  V30 4679 H 429.243 -1.9163 3.52249 0
M  V30 4680 H 425.833 -0.671153 4.23313 0
M  V30 4681 H 430.017 -0.0160756 4.96297 0
M  V30 4682 H 425.273 0.88803 6.04917 0
M  V30 4683 H 429.447 1.53851 6.79193 0
M  V30 4684 H 427.074 1.99662 7.33512 0
M  V30 4685 N 428.649 -1.55105 -0.279332 0
M  V30 4686 C 429.895 -1.75672 -1.01327 0
M  V30 4687 C 430.228 -0.552739 -1.86168 0
M  V30 4688 O 429.503 0.449827 -1.89227 0
M  V30 4689 C 429.786 -3.05825 -1.90114 0
M  V30 4690 C 429.639 -4.36565 -1.08309 0
M  V30 4691 C 430.958 -3.31975 -2.8893 0
M  V30 4692 H 428.077 -0.639149 -0.366957 0
M  V30 4693 H 430.719 -1.87833 -0.286154 0
M  V30 4694 H 428.869 -2.95588 -2.52111 0
M  V30 4695 H 430.541 -4.58751 -0.484314 0
M  V30 4696 H 428.784 -4.32076 -0.386362 0
M  V30 4697 H 429.455 -5.23946 -1.73737 0
M  V30 4698 H 431.931 -3.41963 -2.37067 0
M  V30 4699 H 430.807 -4.2432 -3.48201 0
M  V30 4700 H 431.068 -2.51309 -3.63725 0
M  V30 4701 N 430.127 0.543554 -1.4793 0
M  V30 4702 C 431.376 1.29649 -1.54512 0
M  V30 4703 C 431.689 1.94382 -0.217973 0
M  V30 4704 O 432.895 2.71017 -0.161908 0
M  V30 4705 C 431.351 2.35175 -2.72435 0
M  V30 4706 C 430.959 1.76572 -4.11736 0
M  V30 4707 C 432.703 3.11564 -2.8832 0
M  V30 4708 C 430.61 2.79958 -5.20939 0
M  V30 4709 H 429.54 0.487541 -0.57517 0
M  V30 4710 H 432.191 0.575708 -1.74235 0
M  V30 4711 H 430.573 3.10229 -2.46118 0
M  V30 4712 H 431.747 1.07799 -4.48013 0
M  V30 4713 H 430.062 1.12722 -4.00852 0
M  V30 4714 H 432.659 3.88794 -3.67074 0
M  V30 4715 H 433.002 3.66594 -1.97268 0
M  V30 4716 H 433.535 2.43623 -3.14472 0
M  V30 4717 H 430.274 2.29766 -6.13912 0
M  V30 4718 H 429.794 3.47101 -4.89164 0
M  V30 4719 H 431.473 3.43198 -5.48474 0
M  V30 4720 N 431.605 1.3629 0.791371 0
M  V30 4721 C 432.552 1.30458 1.90393 0
M  V30 4722 C 433.522 0.173632 1.6519 0
M  V30 4723 O 434.707 0.35983 1.87376 0
M  V30 4724 C 431.847 1.09777 3.27174 0
M  V30 4725 C 430.96 2.31929 3.64462 0
M  V30 4726 C 430.095 2.04276 4.90352 0
M  V30 4727 C 429.134 3.224 5.20312 0
M  V30 4728 N 428.271 2.94424 6.37385 0
M  V30 4729 H 433.111 2.25589 1.94714 0
M  V30 4730 H 430.648 1.12122 0.952216 0
M  V30 4731 H 432.606 0.958133 4.06049 0
M  V30 4732 H 431.236 0.183014 3.22281 0
M  V30 4733 H 430.288 2.56703 2.80727 0
M  V30 4734 H 431.6 3.20085 3.82553 0
M  V30 4735 H 430.754 1.87231 5.77087 0
M  V30 4736 H 429.493 1.13428 4.74326 0
M  V30 4737 H 428.498 3.40005 4.32061 0
M  V30 4738 H 429.723 4.14071 5.38258 0
M  V30 4739 H 427.669 2.06185 6.22755 0
M  V30 4740 H 427.586 3.76118 6.55798 0
M  V30 4741 H 428.854 2.80953 7.27108 0
M  V30 4742 N 433.083 -1.0153 1.20538 0
M  V30 4743 C 433.993 -2.13557 0.971113 0
M  V30 4744 C 435.009 -1.73845 -0.0734366 0
M  V30 4745 O 436.185 -2.01075 0.114299 0
M  V30 4746 C 433.25 -3.42661 0.527639 0
M  V30 4747 C 432.311 -3.96608 1.64319 0
M  V30 4748 C 431.544 -5.1955 1.22078 0
M  V30 4749 O 431.767 -5.70329 0.0900198 0
M  V30 4750 O 430.701 -5.66681 2.02871 0
M  V30 4751 H 434.527 -2.3619 1.90913 0
M  V30 4752 H 432.112 -1.11946 0.989362 0
M  V30 4753 H 433.994 -4.20404 0.289621 0
M  V30 4754 H 432.669 -3.21441 -0.381779 0
M  V30 4755 H 431.576 -3.20139 1.93551 0
M  V30 4756 H 432.909 -4.22219 2.52966 0
M  V30 4757 N 434.561 -1.01147 -1.20859 0
M  V30 4758 C 435.808 -0.697865 -1.90095 0
M  V30 4759 C 436.136 0.772014 -1.78522 0
M  V30 4760 O 435.391 1.57595 -1.16027 0
M  V30 4761 C 435.69 -1.0727 -3.40922 0
M  V30 4762 C 435.356 -2.53792 -3.72693 0
M  V30 4763 C 434.018 -2.93829 -3.81075 0
M  V30 4764 C 436.37 -3.48674 -3.87397 0
M  V30 4765 C 433.698 -4.27696 -4.01613 0
M  V30 4766 C 436.05 -4.82223 -4.09444 0
M  V30 4767 C 434.714 -5.21973 -4.16054 0
M  V30 4768 H 433.984 -0.255367 -0.695607 0
M  V30 4769 H 436.631 -1.27111 -1.43231 0
M  V30 4770 H 434.936 -0.417799 -3.89566 0
M  V30 4771 H 436.633 -0.807818 -3.92779 0
M  V30 4772 H 433.223 -2.21768 -3.66765 0
M  V30 4773 H 437.407 -3.18904 -3.80281 0
M  V30 4774 H 432.663 -4.58055 -4.04964 0
M  V30 4775 H 436.837 -5.55672 -4.19763 0
M  V30 4776 H 434.464 -6.25717 -4.31721 0
M  V30 4777 N 436.039 1.36541 -0.78704 0
M  V30 4778 C 437.455 1.52571 -0.46844 0
M  V30 4779 C 437.655 1.7415 1.01361 0
M  V30 4780 O 436.711 1.77163 1.79915 0
M  V30 4781 C 438.024 2.71299 -1.29682 0
M  V30 4782 C 439.572 2.85169 -1.29027 0
M  V30 4783 C 440.047 4.06898 -2.10233 0
M  V30 4784 N 441.538 4.1404 -2.07666 0
M  V30 4785 C 442.273 5.07301 -2.67271 0
M  V30 4786 N 441.769 6.06021 -3.35724 0
M  V30 4787 N 443.562 4.99898 -2.57018 0
M  V30 4788 H 435.713 1.20788 -1.74711 0
M  V30 4789 H 437.976 0.589364 -0.742532 0
M  V30 4790 H 437.682 2.61868 -2.34773 0
M  V30 4791 H 437.556 3.6539 -0.936479 0
M  V30 4792 H 439.943 2.94062 -0.247284 0
M  V30 4793 H 440.024 1.91992 -1.69035 0
M  V30 4794 H 439.668 3.98766 -3.1456 0
M  V30 4795 H 439.598 4.99218 -1.67597 0
M  V30 4796 H 442.089 3.43357 -1.57843 0
M  V30 4797 H 442.402 6.73741 -3.78541 0
M  V30 4798 H 440.747 6.06253 -3.39826 0
M  V30 4799 H 443.938 4.21724 -2.03142 0
M  V30 4800 H 444.111 5.72392 -3.03761 0
M  V30 4801 N 437.518 0.538854 1.48102 0
M  V30 4802 C 438.451 -0.266495 2.26639 0
M  V30 4803 C 439.429 -0.93687 1.32897 0
M  V30 4804 O 440.613 -0.959507 1.62252 0
M  V30 4805 C 437.74 -1.37814 3.09394 0
M  V30 4806 C 436.786 -0.818247 4.18577 0
M  V30 4807 S 437.619 0.320848 5.34538 0
M  V30 4808 C 438.775 -0.793059 6.20855 0
M  V30 4809 H 439.008 0.399994 2.94597 0
M  V30 4810 H 436.541 0.324808 1.50945 0
M  V30 4811 H 438.499 -2.01488 3.57649 0
M  V30 4812 H 437.16 -2.01639 2.40833 0
M  V30 4813 H 436.353 -1.65247 4.7614 0
M  V30 4814 H 435.955 -0.258036 3.73109 0
M  V30 4815 H 438.247 -1.68961 6.56093 0
M  V30 4816 H 439.19 -0.255204 7.0764 0
M  V30 4817 H 439.598 -1.07746 5.54122 0
M  V30 4818 N 438.996 -1.55193 0.274407 0
M  V30 4819 C 439.944 -2.23924 -0.629362 0
M  V30 4820 C 440.938 -1.23602 -1.1584 0
M  V30 4821 O 442.144 -1.41535 -1.11211 0
M  V30 4822 H 438.519 -0.718637 -0.221507 0
M  V30 4823 H 440.49 -2.98388 -0.0268322 0
M  V30 4824 C 439.239 -2.97329 -1.80252 0
M  V30 4825 H 438.562 -3.74313 -1.40462 0
M  V30 4826 H 440.002 -3.48743 -2.41152 0
M  V30 4827 C 438.461 -2.0276 -2.69054 0
M  V30 4828 O 438.991 -1.57836 -3.69392 0
M  V30 4829 N 437.197 -1.69275 -2.36208 0
M  V30 4830 H 436.744 -2.06004 -1.54661 0
M  V30 4831 H 436.702 -1.06271 -2.95895 0
M  V30 4832 N 440.474 -0.00167713 -1.576 0
M  V30 4833 C 441.723 0.682021 -1.89819 0
M  V30 4834 C 442.036 1.74844 -0.876871 0
M  V30 4835 O 443.242 2.48688 -1.08934 0
M  V30 4836 C 441.698 1.26425 -3.36964 0
M  V30 4837 C 441.306 0.232568 -4.47396 0
M  V30 4838 C 443.05 1.92604 -3.78291 0
M  V30 4839 C 440.957 0.824882 -5.85619 0
M  V30 4840 H 439.887 0.258499 -0.708304 0
M  V30 4841 H 442.538 -0.0624957 -1.83394 0
M  V30 4842 H 440.92 2.05949 -3.38232 0
M  V30 4843 H 442.094 -0.5382 -4.57646 0
M  V30 4844 H 440.409 -0.32888 -4.15099 0
M  V30 4845 H 443.006 2.37827 -4.78897 0
M  V30 4846 H 443.349 2.75732 -3.11894 0
M  V30 4847 H 443.882 1.19812 -3.79328 0
M  V30 4848 H 440.621 0.0323542 -6.55492 0
M  V30 4849 H 440.141 1.56477 -5.79029 0
M  V30 4850 H 441.82 1.32301 -6.33329 0
M  V30 4851 N 441.952 1.55251 0.271103 0
M  V30 4852 C 443.368 1.47133 0.618393 0
M  V30 4853 C 443.568 0.686994 1.89427 0
M  V30 4854 O 442.624 0.206609 2.51653 0
M  V30 4855 C 443.937 2.91361 0.743593 0
M  V30 4856 C 445.485 3.01587 0.837522 0
M  V30 4857 C 445.96 4.47073 0.994483 0
M  V30 4858 N 447.451 4.50909 1.05996 0
M  V30 4859 C 448.186 5.60698 1.20024 0
M  V30 4860 N 447.682 6.80348 1.30759 0
M  V30 4861 N 449.475 5.48444 1.23149 0
M  V30 4862 H 441.626 2.04698 -0.566784 0
M  V30 4863 H 443.889 0.928319 -0.192165 0
M  V30 4864 H 443.595 3.51483 -0.123493 0
M  V30 4865 H 443.469 3.40484 1.62328 0
M  V30 4866 H 445.856 2.4156 1.69507 0
M  V30 4867 H 445.937 2.55713 -0.0668086 0
M  V30 4868 H 445.581 5.07703 0.141582 0
M  V30 4869 H 445.511 4.90605 1.91349 0
M  V30 4870 H 448.002 3.6472 0.989316 0
M  V30 4871 H 448.315 7.59772 1.41303 0
M  V30 4872 H 446.66 6.83156 1.27761 0
M  V30 4873 H 449.851 4.53907 1.14394 0
M  V30 4874 H 450.024 6.34049 1.33738 0
M  V30 4875 N 443.43 -0.535701 1.48216 0
M  V30 4876 C 444.393 -1.623 1.61838 0
M  V30 4877 C 445.393 -1.53087 0.492024 0
M  V30 4878 O 446.583 -1.5686 0.757668 0
M  V30 4879 C 443.715 -3.01907 1.58319 0
M  V30 4880 H 444.908 -1.51564 2.58783 0
M  V30 4881 H 442.461 -0.757317 1.36727 0
M  V30 4882 H 443.196 -3.18155 0.628299 0
M  V30 4883 H 442.981 -3.10003 2.40085 0
M  V30 4884 H 444.471 -3.80969 1.71033 0
M  V30 4885 N 444.908 -1.36708 -0.784132 0
M  V30 4886 C 445.858 -1.2799 -1.88686 0
M  V30 4887 C 446.842 -0.170282 -1.59996 0
M  V30 4888 O 448.034 -0.403571 -1.72338 0
M  V30 4889 C 445.163 -1.07674 -3.25977 0
M  V30 4890 C 444.249 -2.23127 -3.60659 0
M  V30 4891 N 444.64 -3.48467 -3.66612 0
M  V30 4892 C 442.938 -2.15009 -3.90752 0
M  V30 4893 C 443.639 -4.24525 -3.97685 0
M  V30 4894 N 442.615 -3.53524 -4.12943 0
M  V30 4895 H 446.417 -2.22927 -1.91522 0
M  V30 4896 H 443.931 -1.29503 -0.979933 0
M  V30 4897 H 445.928 -0.995151 -4.04849 0
M  V30 4898 H 444.588 -0.13643 -3.24413 0
M  V30 4899 H 445.599 -3.82534 -3.49125 0
M  V30 4900 H 442.276 -1.28963 -3.97083 0
M  V30 4901 H 443.666 -5.32944 -4.0917 0
M  V30 4902 N 446.386 1.0089 -1.21074 0
M  V30 4903 C 447.802 1.2695 -0.967257 0
M  V30 4904 C 448.002 1.9846 0.348673 0
M  V30 4905 O 447.058 2.28459 1.0753 0
M  V30 4906 C 448.371 2.09697 -2.15517 0
M  V30 4907 C 449.919 2.22937 -2.197 0
M  V30 4908 C 450.394 3.09064 -3.37999 0
M  V30 4909 N 451.885 3.16653 -3.38061 0
M  V30 4910 C 452.62 3.8354 -4.26245 0
M  V30 4911 N 452.116 4.52488 -5.2462 0
M  V30 4912 N 453.909 3.80141 -4.14064 0
M  V30 4913 H 446.06 0.529005 -2.05707 0
M  V30 4914 H 448.323 0.296148 -0.900556 0
M  V30 4915 H 448.029 1.64497 -3.10859 0
M  V30 4916 H 447.903 3.10444 -2.14253 0
M  V30 4917 H 450.29 2.67357 -1.24916 0
M  V30 4918 H 450.371 1.21673 -2.2501 0
M  V30 4919 H 450.015 2.65347 -4.33074 0
M  V30 4920 H 449.945 4.10433 -3.29928 0
M  V30 4921 H 452.436 2.67566 -2.66865 0
M  V30 4922 H 452.749 5.01219 -5.88217 0
M  V30 4923 H 451.094 4.51288 -5.28549 0
M  V30 4924 H 454.285 3.25427 -3.36474 0
M  V30 4925 H 454.458 4.31992 -4.82998 0
M  V30 4926 N 447.864 1.01787 1.20321 0
M  V30 4927 C 449.275 0.739307 1.71438 0
M  V30 4928 C 449.626 -0.742041 1.81627 0
M  V30 4929 O 448.751 -1.57903 1.47971 0
M  V30 4930 C 449.346 1.33538 3.11373 0
M  V30 4931 C 447.905 1.10566 3.59795 0
M  V30 4932 C 447.052 1.44028 2.36962 0
M  V30 4933 H 450.003 1.18718 1.05317 0
M  V30 4934 H 450.024 0.726611 3.73498 0
M  V30 4935 H 449.536 2.41352 3.03926 0
M  V30 4936 H 447.637 0.0452405 3.72573 0
M  V30 4937 H 447.75 1.78661 4.44542 0
M  V30 4938 H 446.114 0.85933 2.39766 0
M  V30 4939 H 446.897 2.52901 2.32155 0
M  V30 4940 N 449.342 -1.36122 0.79427 0
M  V30 4941 C 450.567 -2.03891 0.379871 0
M  V30 4942 C 450.992 -1.59488 -0.997251 0
M  V30 4943 O 450.35 -0.765652 -1.64339 0
M  V30 4944 C 450.398 -3.57687 0.457442 0
M  V30 4945 O 449.502 -4.08931 -0.5338 0
M  V30 4946 H 448.843 -0.6443 0.160541 0
M  V30 4947 H 451.373 -1.73976 1.07673 0
M  V30 4948 H 451.383 -4.06721 0.322792 0
M  V30 4949 H 450.058 -3.89357 1.46199 0
M  V30 4950 H 448.635 -3.71154 -0.360409 0
M  V30 4951 N 450.82 -0.546701 -1.47814 0
M  V30 4952 C 452.236 -0.205717 -1.58269 0
M  V30 4953 C 452.436 1.29153 -1.54667 0
M  V30 4954 O 451.492 2.07098 -1.44453 0
M  V30 4955 C 452.805 -0.823065 -2.89216 0
M  V30 4956 C 454.353 -0.793328 -3.02779 0
M  V30 4957 C 454.828 -1.38955 -4.36412 0
M  V30 4958 N 456.319 -1.35227 -4.43021 0
M  V30 4959 C 457.054 -1.78333 -5.44963 0
M  V30 4960 N 456.55 -2.29246 -6.53772 0
M  V30 4961 N 458.343 -1.69467 -5.35945 0
M  V30 4962 H 450.494 -1.5196 -1.48398 0
M  V30 4963 H 452.757 -0.633078 -0.705632 0
M  V30 4964 H 452.463 -1.8749 -2.97558 0
M  V30 4965 H 452.337 -0.309915 -3.75925 0
M  V30 4966 H 454.724 0.249784 -2.94041 0
M  V30 4967 H 454.805 -1.34412 -2.17639 0
M  V30 4968 H 454.449 -2.43168 -4.45906 0
M  V30 4969 H 454.379 -0.814291 -5.20266 0
M  V30 4970 H 456.87 -0.979739 -3.64979 0
M  V30 4971 H 457.183 -2.60089 -7.27718 0
M  V30 4972 H 455.528 -2.3325 -6.5469 0
M  V30 4973 H 458.719 -1.29477 -4.49837 0
M  V30 4974 H 458.892 -2.03381 -6.15256 0
M  V30 4975 N 452.299 1.55045 -0.282633 0
M  V30 4976 C 453.545 2.00056 0.332481 0
M  V30 4977 C 453.878 1.1708 1.54939 0
M  V30 4978 O 453.153 0.2427 1.9298 0
M  V30 4979 C 453.436 3.53086 0.70725 0
M  V30 4980 C 453.289 4.46813 -0.517521 0
M  V30 4981 C 454.608 4.12245 1.54084 0
M  V30 4982 H 451.727 0.727268 0.119373 0
M  V30 4983 H 454.369 1.85932 -0.391076 0
M  V30 4984 H 452.519 3.65253 1.32372 0
M  V30 4985 H 454.191 4.46579 -1.15607 0
M  V30 4986 H 452.434 4.18163 -1.1542 0
M  V30 4987 H 453.105 5.51595 -0.211426 0
M  V30 4988 H 455.581 4.03401 1.02013 0
M  V30 4989 H 454.457 5.19515 1.77186 0
M  V30 4990 H 454.718 3.62951 2.52427 0
M  V30 4991 N 453.777 0.010035 1.57597 0
M  V30 4992 C 454.709 -1.00649 2.05918 0
M  V30 4993 C 455.722 -1.30077 0.978964 0
M  V30 4994 O 456.911 -1.26878 1.25556 0
M  V30 4995 C 454.011 -2.33876 2.45265 0
M  V30 4996 C 453.184 -2.23242 3.7614 0
M  V30 4997 C 452.243 -3.39242 4.02245 0
M  V30 4998 O 451.269 -3.1698 4.72771 0
M  V30 4999 N 452.471 -4.6242 3.50924 0
M  V30 5000 H 455.236 -0.594333 2.93748 0
M  V30 5001 H 452.797 -0.17714 1.60928 0
M  V30 5002 H 454.789 -3.1027 2.59836 0
M  V30 5003 H 453.359 -2.66799 1.62902 0
M  V30 5004 H 452.579 -1.31696 3.71551 0
M  V30 5005 H 453.867 -2.13321 4.61922 0
M  V30 5006 H 453.265 -4.83404 2.93832 0
M  V30 5007 H 451.822 -5.36046 3.70807 0
M  V30 5008 N 455.255 -1.55392 -0.262866 0
M  V30 5009 C 456.185 -1.91978 -1.32917 0
M  V30 5010 C 457.166 -0.7828 -1.51017 0
M  V30 5011 O 458.351 -1.04178 -1.63892 0
M  V30 5012 C 455.481 -2.20055 -2.68687 0
M  V30 5013 C 454.435 -3.35854 -2.65304 0
M  V30 5014 C 453.761 -3.49435 -4.04721 0
M  V30 5015 C 455.061 -4.71977 -2.23685 0
M  V30 5016 H 456.755 -2.81292 -1.02544 0
M  V30 5017 H 454.301 -1.3534 -0.491846 0
M  V30 5018 H 456.254 -2.44237 -3.43404 0
M  V30 5019 H 454.978 -1.27551 -3.00663 0
M  V30 5020 H 453.637 -3.11655 -1.93045 0
M  V30 5021 H 453.285 -2.54379 -4.33936 0
M  V30 5022 H 452.985 -4.27297 -4.0335 0
M  V30 5023 H 454.509 -3.7592 -4.81161 0
M  V30 5024 H 455.923 -4.95637 -2.88127 0
M  V30 5025 H 454.32 -5.52828 -2.33456 0
M  V30 5026 H 455.39 -4.70115 -1.18827 0
M  V30 5027 N 456.733 0.527833 -1.48498 0
M  V30 5028 C 457.979 1.28545 -1.56857 0
M  V30 5029 C 458.312 1.92678 -0.242651 0
M  V30 5030 O 457.587 1.79394 0.751545 0
M  V30 5031 C 457.87 2.37314 -2.70839 0
M  V30 5032 C 457.723 1.77858 -4.13142 0
M  V30 5033 C 459.042 3.39068 -2.80573 0
M  V30 5034 H 456.161 0.466006 -0.570971 0
M  V30 5035 H 458.803 0.587784 -1.8068 0
M  V30 5036 H 456.953 2.96821 -2.50658 0
M  V30 5037 H 458.625 1.22385 -4.44769 0
M  V30 5038 H 456.868 1.08383 -4.20042 0
M  V30 5039 H 457.539 2.56624 -4.88721 0
M  V30 5040 H 460.015 2.89518 -2.98862 0
M  V30 5041 H 458.891 4.12566 -3.6205 0
M  V30 5042 H 459.152 3.9975 -1.88818 0
M  V30 5043 N 458.211 1.37122 0.776871 0
M  V30 5044 C 459.141 1.35164 1.90402 0
M  V30 5045 C 460.122 0.221069 1.68657 0
M  V30 5046 O 461.307 0.420642 1.8959 0
M  V30 5047 C 458.437 1.15274 3.27611 0
M  V30 5048 C 457.391 2.25289 3.63908 0
M  V30 5049 C 456.717 1.90527 4.99603 0
M  V30 5050 C 458.017 3.67446 3.71188 0
M  V30 5051 H 459.711 2.29482 1.92297 0
M  V30 5052 H 457.257 1.10465 0.923773 0
M  V30 5053 H 459.21 1.12536 4.06096 0
M  V30 5054 H 457.934 0.174102 3.26136 0
M  V30 5055 H 456.593 2.27174 2.87728 0
M  V30 5056 H 456.241 0.91206 4.94662 0
M  V30 5057 H 455.941 2.64193 5.24858 0
M  V30 5058 H 457.465 1.89367 5.80493 0
M  V30 5059 H 458.879 3.67719 4.39836 0
M  V30 5060 H 457.276 4.40123 4.07936 0
M  V30 5061 H 458.346 4.01443 2.71977 0
M  V30 5062 N 459.689 -1.00246 1.21608 0
M  V30 5063 C 460.621 -2.09244 0.935401 0
M  V30 5064 C 461.634 -1.62592 -0.0823594 0
M  V30 5065 O 462.823 -1.77865 0.150456 0
M  V30 5066 C 459.923 -3.36724 0.383453 0
M  V30 5067 C 459.096 -4.1245 1.45615 0
M  V30 5068 C 458.155 -5.18219 0.912991 0
M  V30 5069 O 457.181 -5.46337 1.59701 0
M  V30 5070 N 458.383 -5.7987 -0.270478 0
M  V30 5071 H 461.148 -2.33905 1.87373 0
M  V30 5072 H 458.709 -1.16748 1.12167 0
M  V30 5073 H 460.701 -4.047 0.00562157 0
M  V30 5074 H 459.271 -3.09201 -0.459758 0
M  V30 5075 H 458.491 -3.39241 2.00772 0
M  V30 5076 H 459.779 -4.59819 2.17817 0
M  V30 5077 H 459.177 -5.59381 -0.843195 0
M  V30 5078 H 457.734 -6.49126 -0.589794 0
M  V30 5079 N 461.167 -1.02423 -1.1978 0
M  V30 5080 C 462.444 -0.632802 -1.85081 0
M  V30 5081 C 462.824 0.888745 -1.9148 0
M  V30 5082 O 462.172 1.78357 -1.42832 0
M  V30 5083 C 462.382 -1.28947 -3.24305 0
M  V30 5084 C 463.73 -1.40976 -4.00513 0
M  V30 5085 O 464.754 -1.24628 -3.33686 0
M  V30 5086 O 463.613 -1.67467 -5.20209 0
M  V30 5087 H 460.707 -0.219348 -0.79738 0
M  V30 5088 H 463.253 -1.12209 -1.27307 0
M  V30 5089 H 462.025 -2.3288 -3.14456 0
M  V30 5090 H 461.648 -0.787748 -3.89718 0
M  V30 5091 N 462.645 1.35699 -0.801477 0
M  V30 5092 C 463.873 2.03157 -0.391768 0
M  V30 5093 C 464.288 1.60412 0.995668 0
M  V30 5094 O 463.645 0.799228 1.64069 0
M  V30 5095 C 463.696 3.58566 -0.459671 0
M  V30 5096 O 463.417 3.99756 -1.7924 0
M  V30 5097 C 464.918 4.4328 -0.0421205 0
M  V30 5098 H 462.138 0.651688 -0.159825 0
M  V30 5099 H 464.682 1.73426 -1.08368 0
M  V30 5100 H 462.837 3.86963 0.183939 0
M  V30 5101 H 463.251 4.94387 -1.75162 0
M  V30 5102 H 464.725 5.51821 -0.140754 0
M  V30 5103 H 465.202 4.27383 1.01196 0
M  V30 5104 H 465.808 4.20168 -0.658687 0
M  V30 5105 N 464.123 0.554532 1.47522 0
M  V30 5106 C 465.351 0.034257 2.06872 0
M  V30 5107 C 465.766 -1.25826 1.40759 0
M  V30 5108 O 465.123 -1.75425 0.503217 0
M  V30 5109 C 465.174 -0.167827 3.6111 0
M  V30 5110 O 464.895 1.07351 4.24744 0
M  V30 5111 C 466.396 -0.72569 4.3732 0
M  V30 5112 H 463.616 0.0446275 0.669514 0
M  V30 5113 H 466.16 0.767181 1.89564 0
M  V30 5114 H 464.315 -0.850872 3.7794 0
M  V30 5115 H 464.729 0.869563 5.17242 0
M  V30 5116 H 466.203 -0.816394 5.45929 0
M  V30 5117 H 466.68 -1.73635 4.0342 0
M  V30 5118 H 467.286 -0.0784292 4.25228 0
M  V30 5119 N 465.601 -1.54893 0.290851 0
M  V30 5120 C 466.85 -1.99111 -0.322113 0
M  V30 5121 C 467.163 -1.18283 -1.55784 0
M  V30 5122 O 468.369 -1.5272 -2.24475 0
M  V30 5123 C 466.825 -3.54442 -0.624438 0
M  V30 5124 C 466.433 -4.44066 0.592373 0
M  V30 5125 C 468.177 -4.07211 -1.19916 0
M  V30 5126 C 466.084 -5.90812 0.263762 0
M  V30 5127 H 465.014 -0.743712 -0.124133 0
M  V30 5128 H 467.665 -1.79132 0.39797 0
M  V30 5129 H 466.047 -3.70281 -1.40384 0
M  V30 5130 H 467.221 -4.39999 1.36886 0
M  V30 5131 H 465.536 -4.02015 1.08502 0
M  V30 5132 H 468.133 -5.14407 -1.45909 0
M  V30 5133 H 468.476 -3.57196 -2.13815 0
M  V30 5134 H 469.009 -3.94873 -0.481687 0
M  V30 5135 H 465.748 -6.44955 1.17105 0
M  V30 5136 H 465.268 -5.97911 -0.475655 0
M  V30 5137 H 466.947 -6.46852 -0.138354 0
M  V30 5138 N 467.08 -0.0183926 -1.57589 0
M  V30 5139 C 468.305 0.676634 -1.96052 0
M  V30 5140 C 468.73 1.6548 -0.894307 0
M  V30 5141 O 468.088 1.80712 0.145849 0
M  V30 5142 C 468.136 1.36872 -3.33614 0
M  V30 5143 O 467.24 2.48372 -3.29219 0
M  V30 5144 H 466.581 0.1786 -0.63953 0
M  V30 5145 H 469.111 -0.077056 -2.04455 0
M  V30 5146 H 469.121 1.72797 -3.69601 0
M  V30 5147 H 467.796 0.651636 -4.10763 0
M  V30 5148 H 466.373 2.14639 -3.04934 0
M  V30 5149 N 468.558 1.5553 0.254621 0
M  V30 5150 C 469.974 1.4778 0.602753 0
M  V30 5151 C 470.174 0.707047 1.88688 0
M  V30 5152 O 469.23 0.233288 2.5142 0
M  V30 5153 C 470.543 2.92133 0.712648 0
M  V30 5154 C 472.091 3.02458 0.805488 0
M  V30 5155 C 472.566 4.48102 0.947009 0
M  V30 5156 N 474.057 4.52008 1.01207 0
M  V30 5157 C 474.792 5.61939 1.1407 0
M  V30 5158 N 474.288 6.81697 1.23536 0
M  V30 5159 N 476.081 5.49719 1.17325 0
M  V30 5160 H 468.232 2.04085 -0.588463 0
M  V30 5161 H 470.495 0.926229 -0.202001 0
M  V30 5162 H 470.201 3.51332 -0.160766 0
M  V30 5163 H 470.075 3.42187 1.58707 0
M  V30 5164 H 472.462 2.43344 1.66936 0
M  V30 5165 H 472.543 2.55627 -0.0939266 0
M  V30 5166 H 472.187 5.07824 0.087725 0
M  V30 5167 H 472.117 4.92607 1.86135 0
M  V30 5168 H 474.608 3.65749 0.950577 0
M  V30 5169 H 474.921 7.61228 1.33236 0
M  V30 5170 H 473.266 6.84473 1.20508 0
M  V30 5171 H 476.457 4.55095 1.09573 0
M  V30 5172 H 476.63 6.35432 1.27005 0
M  V30 5173 N 470.036 -0.519951 1.48776 0
M  V30 5174 C 471.284 -1.2727 1.56993 0
M  V30 5175 C 471.605 -1.9339 0.25004 0
M  V30 5176 O 470.875 -1.81822 -0.729216 0
M  V30 5177 H 469.455 -0.472732 0.578389 0
M  V30 5178 H 472.117 -0.604234 1.85297 0
M  V30 5179 H 471.213 -2.04669 2.3562 0
M  V30 5180 O 471.553 -1.47171 -0.665045 0
M  V30 5181 H 472.244 -1.41937 -1.31809 0
M  V30 END ATOM
M  V30 BEGIN BOND
M  V30 END BOND
M  V30 END CTAB
M  END
$$$$
