drugbank_target|O00764 Pyridoxal kinase (DB00147; DB00165; DB03909; DB04770; DB04776)
 OpenBabel12092119233D

  0  0  0     0  0            999 V3000
M  V30 BEGIN CTAB
M  V30 COUNTS 4933 4979 0 0 0
M  V30 BEGIN ATOM
M  V30 1 H -0.908 1.98254 -0.117106 0
M  V30 2 N 0 1.576 0 0
M  V30 3 C 0.933 2.03868 1.02534 0
M  V30 4 C 1.911 0.928543 1.3348 0
M  V30 5 O 3.095 1.19667 1.45644 0
M  V30 6 C 0.222 2.43627 2.35294 0
M  V30 7 C -0.732 3.65373 2.2001 0
M  V30 8 S 0.101 5.13292 1.52614 0
M  V30 9 C 1.257 5.56322 2.86805 0
M  V30 10 H 1.49 2.90518 0.631377 0
M  V30 11 H -0.977 1.52953 0.210867 0
M  V30 12 H 0.981 2.67203 3.11629 0
M  V30 13 H -0.358 1.57376 2.7183 0
M  V30 14 H -1.165 3.90944 3.18086 0
M  V30 15 H -1.563 3.418 1.51819 0
M  V30 16 H 0.729 5.58782 3.83104 0
M  V30 17 H 1.672 6.56266 2.65933 0
M  V30 18 H 2.08 4.83886 2.90714 0
M  V30 19 N 1.4781 -0.272755 1.55222 0
M  V30 20 C 2.3881 -1.35918 1.91216 0
M  V30 21 C 3.4041 -1.54026 0.809436 0
M  V30 22 O 4.5801 -1.68148 1.10852 0
M  V30 23 C 1.6451 -2.69834 2.17693 0
M  V30 24 C 0.7061 -2.6047 3.41253 0
M  V30 25 C -0.0609 -3.88 3.66458 0
M  V30 26 O 0.1621 -4.88693 2.94169 0
M  V30 27 O -0.9039 -3.88189 4.59992 0
M  V30 28 H 2.9221 -1.0839 2.83699 0
M  V30 29 H 0.5071 -0.471301 1.41771 0
M  V30 30 H 2.3891 -3.49017 2.36147 0
M  V30 31 H 1.0641 -2.97148 1.28392 0
M  V30 32 H -0.0289 -1.79663 3.28134 0
M  V30 33 H 1.3041 -2.38106 4.30774 0
M  V30 34 N 2.9562 -1.48159 -0.537278 0
M  V30 35 C 3.8662 -1.64807 -1.6696 0
M  V30 36 C 4.8822 -0.530651 -1.65711 0
M  V30 37 O 6.0582 -0.800784 -1.84796 0
M  V30 38 C 3.1232 -1.67708 -3.03438 0
M  V30 39 C 2.1842 -2.91025 -3.156 0
M  V30 40 C 1.4172 -2.93778 -4.45567 0
M  V30 41 O 1.6402 -2.05153 -5.3223 0
M  V30 42 O 0.5742 -3.85868 -4.61941 0
M  V30 43 H 4.4002 -2.6066 -1.55853 0
M  V30 44 H 1.9852 -1.31475 -0.709549 0
M  V30 45 H 3.8672 -1.7218 -3.84619 0
M  V30 46 H 2.5422 -0.750278 -3.14885 0
M  V30 47 H 1.4492 -2.92089 -2.33741 0
M  V30 48 H 2.7822 -3.83065 -3.09066 0
M  V30 49 N 4.4343 0.785586 -1.36625 0
M  V30 50 C 5.3443 1.92964 -1.33425 0
M  V30 51 C 6.3603 1.72394 -0.235851 0
M  V30 52 O 7.5363 1.95866 -0.468878 0
M  V30 53 C 4.6013 3.27884 -1.12662 0
M  V30 54 C 3.6623 3.61204 -2.32013 0
M  V30 55 C 2.8953 4.89687 -2.12231 0
M  V30 56 O 3.1183 5.59704 -1.09945 0
M  V30 57 O 2.0523 5.21752 -3.00098 0
M  V30 58 H 5.8783 1.98613 -2.29753 0
M  V30 59 H 3.4633 0.926384 -1.17211 0
M  V30 60 H 5.3453 4.08614 -1.03016 0
M  V30 61 H 4.0203 3.23118 -0.193991 0
M  V30 62 H 2.9273 2.80765 -2.47228 0
M  V30 63 H 4.2603 3.70698 -3.23796 0
M  V30 64 N 5.9124 1.20967 1.01018 0
M  V30 65 C 7.1524 1.03511 1.76252 0
M  V30 66 C 7.5164 -0.42458 1.87247 0
M  V30 67 O 8.7174 -0.719508 2.58991 0
M  V30 68 C 6.9884 1.70726 3.13986 0
M  V30 69 S 8.5474 1.68458 4.05176 0
M  V30 70 H 5.3654 0.371037 0.606508 0
M  V30 71 H 7.9674 1.53628 1.20908 0
M  V30 72 H 6.6714 2.76128 3.03614 0
M  V30 73 H 6.2024 1.20767 3.74405 0
M  V30 74 H 8.2174 0.721987 4.90919 0
M  V30 75 N 7.3905 -1.2043 1.01659 0
M  V30 76 C 8.8065 -1.41852 0.731442 0
M  V30 77 C 9.0065 -1.89358 -0.688898 0
M  V30 78 O 8.0625 -2.06247 -1.45666 0
M  V30 79 C 9.3755 -2.44019 1.75714 0
M  V30 80 C 10.9235 -2.57785 1.77527 0
M  V30 81 C 11.3985 -3.63194 2.79023 0
M  V30 82 N 12.8895 -3.70678 2.77763 0
M  V30 83 C 13.6245 -4.51897 3.52954 0
M  V30 84 N 13.1205 -5.36921 4.37821 0
M  V30 85 N 14.9135 -4.4643 3.41551 0
M  V30 86 H 7.0645 -0.879093 1.93354 0
M  V30 87 H 9.3275 -0.448425 0.835236 0
M  V30 88 H 9.0335 -2.1611 2.77469 0
M  V30 89 H 8.9075 -3.43007 1.56927 0
M  V30 90 H 11.2945 -2.85023 0.764569 0
M  V30 91 H 11.3755 -1.58992 2.00387 0
M  V30 92 H 11.0195 -3.36699 3.80258 0
M  V30 93 H 10.9495 -4.61609 2.53425 0
M  V30 94 H 13.4405 -3.09944 2.16201 0
M  V30 95 H 13.7535 -5.95981 4.91962 0
M  V30 96 H 12.0985 -5.36424 4.41899 0
M  V30 97 H 15.2895 -3.79042 2.74672 0
M  V30 98 H 15.4625 -5.09491 4.00404 0
M  V30 99 N 8.8686 -0.792821 -1.36206 0
M  V30 100 C 10.1146 -0.36733 -1.99446 0
M  V30 101 C 10.4476 1.05917 -1.62774 0
M  V30 102 O 9.7226 1.7324 -0.88421 0
M  V30 103 C 10.0056 -0.535044 -3.56103 0
M  V30 104 C 9.8586 -2.00548 -4.02617 0
M  V30 105 C 11.1776 0.0478191 -4.40074 0
M  V30 106 H 8.2966 -0.134941 -0.724541 0
M  V30 107 H 10.9386 -0.999794 -1.61568 0
M  V30 108 H 9.0886 0.00336329 -3.885 0
M  V30 109 H 10.7606 -2.60521 -3.80692 0
M  V30 110 H 9.0036 -2.50686 -3.54032 0
M  V30 111 H 9.6746 -2.07377 -5.11565 0
M  V30 112 H 12.1506 -0.411822 -4.14057 0
M  V30 113 H 11.0266 -0.0995336 -5.4881 0
M  V30 114 H 11.2876 1.14025 -4.27142 0
M  V30 115 N 10.3467 1.47872 -0.545128 0
M  V30 116 C 11.2767 2.32661 0.197793 0
M  V30 117 C 12.2577 1.43041 0.920504 0
M  V30 118 O 13.4427 1.71912 0.90333 0
M  V30 119 C 10.5727 3.24569 1.23582 0
M  V30 120 C 9.5267 4.23333 0.630323 0
M  V30 121 C 8.8527 5.0448 1.77211 0
M  V30 122 C 10.1527 5.20704 -0.407974 0
M  V30 123 H 11.8467 2.95024 -0.510045 0
M  V30 124 H 9.3927 1.4187 -0.246731 0
M  V30 125 H 11.3457 3.8272 1.76362 0
M  V30 126 H 10.0697 2.60236 1.97344 0
M  V30 127 H 8.7287 3.6639 0.123922 0
M  V30 128 H 8.3767 4.36561 2.49847 0
M  V30 129 H 8.0767 5.71339 1.37281 0
M  V30 130 H 9.6007 5.65487 2.3034 0
M  V30 131 H 11.0147 5.7329 0.033305 0
M  V30 132 H 9.4117 5.95699 -0.725486 0
M  V30 133 H 10.4817 4.66917 -1.30828 0
M  V30 134 N 11.8248 0.280983 1.55075 0
M  V30 135 C 13.0498 -0.340154 2.04592 0
M  V30 136 C 13.4748 -1.48246 1.15779 0
M  V30 137 O 12.8328 -1.80614 0.15761 0
M  V30 138 C 12.8808 -0.793104 3.5177 0
M  V30 139 O 11.9848 -1.89981 3.66034 0
M  V30 140 H 11.3258 -0.0694289 0.66036 0
M  V30 141 H 13.8558 0.416993 2.00306 0
M  V30 142 H 13.8658 -1.08729 3.93245 0
M  V30 143 H 12.5408 0.0426163 4.15878 0
M  V30 144 H 11.1178 -1.60771 3.36463 0
M  V30 145 N 13.3029 -1.57598 0.00835791 0
M  V30 146 C 14.5519 -1.90107 -0.673968 0
M  V30 147 C 14.8649 -0.884275 -1.7447 0
M  V30 148 O 16.0709 -1.09987 -2.48224 0
M  V30 149 C 14.5269 -3.37497 -1.24995 0
M  V30 150 C 14.1349 -4.47491 -0.2136 0
M  V30 151 C 15.8789 -3.79104 -1.90999 0
M  V30 152 C 13.7859 -5.85963 -0.80005 0
M  V30 153 H 12.7159 -0.709393 -0.255495 0
M  V30 154 H 15.3669 -1.83365 0.0702693 0
M  V30 155 H 13.7489 -3.39102 -2.04513 0
M  V30 156 H 14.9229 -4.57414 0.557596 0
M  V30 157 H 13.2379 -4.14956 0.346474 0
M  V30 158 H 15.8349 -4.79901 -2.35795 0
M  V30 159 H 16.1779 -3.1306 -2.74407 0
M  V30 160 H 16.7109 -3.79833 -1.18203 0
M  V30 161 H 13.4499 -6.555 -0.00456708 0
M  V30 162 H 12.9699 -5.79687 -1.54021 0
M  V30 163 H 14.6489 -6.33884 -1.29615 0
M  V30 164 N 14.781 0.264519 -1.55364 0
M  V30 165 C 15.713 1.34965 -1.85248 0
M  V30 166 C 16.726 1.45136 -0.737525 0
M  V30 167 O 17.915 1.46801 -1.01547 0
M  V30 168 C 15.015 2.73008 -2.00797 0
M  V30 169 C 14.188 2.85324 -3.31525 0
M  V30 170 C 13.247 4.04097 -3.37034 0
M  V30 171 O 12.273 3.94455 -4.10358 0
M  V30 172 N 13.475 5.16458 -2.65049 0
M  V30 173 H 16.24 1.09672 -2.78913 0
M  V30 174 H 13.801 0.454635 -1.55386 0
M  V30 175 H 15.793 3.50772 -2.01844 0
M  V30 176 H 14.363 2.91087 -1.1396 0
M  V30 177 H 13.583 1.94377 -3.42945 0
M  V30 178 H 14.871 2.9049 -4.17724 0
M  V30 179 H 14.269 5.27181 -2.05175 0
M  V30 180 H 12.826 5.92422 -2.71809 0
M  V30 181 N 16.2591 1.48442 0.529413 0
M  V30 182 C 17.4841 1.60406 1.31471 0
M  V30 183 C 17.9091 0.264738 1.86228 0
M  V30 184 O 17.2671 -0.763668 1.64432 0
M  V30 185 C 17.3151 2.65419 2.44101 0
M  V30 186 O 16.4191 2.22618 3.47153 0
M  V30 187 H 15.7601 0.537863 0.389357 0
M  V30 188 H 18.2901 1.94432 0.636965 0
M  V30 189 H 18.3001 2.86709 2.90279 0
M  V30 190 H 16.9751 3.62652 2.03608 0
M  V30 191 H 15.5521 2.11543 3.0709 0
M  V30 192 N 17.7372 -0.778329 1.37039 0
M  V30 193 C 18.6872 -1.88142 1.28789 0
M  V30 194 C 19.6712 -1.59923 0.177063 0
M  V30 195 O 20.8632 -1.72165 0.410873 0
M  V30 196 C 17.9922 -3.25518 1.09055 0
M  V30 197 C 17.0782 -3.5971 2.24654 0
M  V30 198 N 17.4692 -3.65131 3.50018 0
M  V30 199 C 15.7672 -3.89837 2.16663 0
M  V30 200 C 16.4682 -3.95882 4.26207 0
M  V30 201 N 15.4442 -4.11441 3.55271 0
M  V30 202 H 19.2462 -1.90575 2.23737 0
M  V30 203 H 16.7602 -0.974435 1.29917 0
M  V30 204 H 18.7572 -4.04423 1.0123 0
M  V30 205 H 17.4172 -3.24353 0.15018 0
M  V30 206 H 18.4282 -3.475 3.84011 0
M  V30 207 H 15.1052 -3.96533 1.30645 0
M  V30 208 H 16.4952 -4.06907 5.34674 0
M  V30 209 N 19.2153 -1.21501 -1.00376 0
M  V30 210 C 20.4613 -1.03452 -1.74429 0
M  V30 211 C 20.7943 0.430764 -1.89362 0
M  V30 212 O 20.0693 1.31962 -1.42886 0
M  V30 213 C 20.3523 -1.73375 -3.15615 0
M  V30 214 C 20.2053 -3.27431 -3.08397 0
M  V30 215 C 21.5243 -1.47732 -4.14564 0
M  V30 216 H 18.6433 -0.377226 -0.633143 0
M  V30 217 H 21.2853 -1.49693 -1.17013 0
M  V30 218 H 19.4353 -1.34064 -3.64636 0
M  V30 219 H 21.1073 -3.76119 -2.67081 0
M  V30 220 H 19.3503 -3.5767 -2.45468 0
M  V30 221 H 20.0213 -3.71524 -4.08258 0
M  V30 222 H 22.4973 -1.8186 -3.74254 0
M  V30 223 H 21.3733 -1.99169 -5.11491 0
M  V30 224 H 21.6343 -0.407589 -4.40217 0
M  V30 225 N 20.6934 1.19889 -1.02296 0
M  V30 226 C 21.9424 1.88743 -0.711257 0
M  V30 227 C 22.2554 1.80112 0.762817 0
M  V30 228 O 23.4614 2.44161 1.18733 0
M  V30 229 C 21.9174 3.38525 -1.22185 0
M  V30 230 C 21.5254 3.55727 -2.72328 0
M  V30 231 C 23.2694 4.12893 -0.985864 0
M  V30 232 C 21.1764 4.99369 -3.16835 0
M  V30 233 H 20.1064 0.706885 -0.262353 0
M  V30 234 H 22.7574 1.35586 -1.23648 0
M  V30 235 H 21.1394 3.91044 -0.624571 0
M  V30 236 H 22.3134 3.13564 -3.3766 0
M  V30 237 H 20.6284 2.94739 -2.9414 0
M  V30 238 H 23.2254 5.18813 -1.29374 0
M  V30 239 H 23.5684 4.16228 0.0775055 0
M  V30 240 H 24.1014 3.66494 -1.54684 0
M  V30 241 H 20.8404 5.01193 -4.22476 0
M  V30 242 H 20.3604 5.42317 -2.56228 0
M  V30 243 H 22.0394 5.67988 -3.09837 0
M  V30 244 N 22.1715 0.800033 1.35784 0
M  V30 245 C 23.5875 0.482977 1.52117 0
M  V30 246 C 23.7875 -0.996948 1.75109 0
M  V30 247 O 22.8435 -1.78216 1.78872 0
M  V30 248 C 24.1565 1.32264 2.70049 0
M  V30 249 C 25.7045 1.31742 2.83924 0
M  V30 250 C 26.1795 2.14106 4.04874 0
M  V30 251 N 27.6705 2.11607 4.12039 0
M  V30 252 C 28.4055 2.72099 5.04727 0
M  V30 253 N 27.9015 3.41492 6.02789 0
M  V30 254 N 29.6945 2.61776 4.97423 0
M  V30 255 H 21.8455 1.75856 1.19115 0
M  V30 256 H 24.1085 0.748122 0.582252 0
M  V30 257 H 23.8145 2.37261 2.59616 0
M  V30 258 H 23.6885 0.971303 3.6448 0
M  V30 259 H 26.0755 0.275333 2.93813 0
M  V30 260 H 26.1565 1.70859 1.9037 0
M  V30 261 H 25.8005 3.18351 3.95746 0
M  V30 262 H 25.7305 1.72353 4.97596 0
M  V30 263 H 28.2215 1.61112 3.41835 0
M  V30 264 H 28.5345 3.84953 6.70098 0
M  V30 265 H 26.8795 3.45596 6.02983 0
M  V30 266 H 30.0705 2.07157 4.19766 0
M  V30 267 H 30.2435 3.0921 5.69468 0
M  V30 268 N 23.6496 -1.47581 0.552962 0
M  V30 269 C 24.8976 -2.02082 0.0272703 0
M  V30 270 C 25.2186 -1.4301 -1.32563 0
M  V30 271 O 24.4886 -0.603745 -1.86365 0
M  V30 272 H 23.0686 -0.746966 0.00709182 0
M  V30 273 H 25.7306 -1.81033 0.722008 0
M  V30 274 H 24.8266 -3.12034 -0.0639951 0
M  V30 275 N 25.1277 -0.289203 -1.54924 0
M  V30 276 C 26.3577 0.325989 -2.04012 0
M  V30 277 C 26.7657 1.48961 -1.1665 0
M  V30 278 O 26.1087 1.82794 -0.1822 0
M  V30 279 C 26.1707 0.856112 -3.49158 0
M  V30 280 C 25.8347 -0.180697 -4.56643 0
M  V30 281 C 26.8317 -1.0051 -5.10092 0
M  V30 282 C 24.5167 -0.318998 -5.01286 0
M  V30 283 C 26.5107 -1.95385 -6.06715 0
M  V30 284 C 24.1977 -1.27121 -5.97732 0
M  V30 285 C 25.1957 -2.08713 -6.50329 0
M  V30 286 O 24.8837 -3.02322 -7.44887 0
M  V30 287 H 24.6157 0.0765276 -0.671654 0
M  V30 288 H 27.1697 -0.423254 -2.00992 0
M  V30 289 H 25.3997 1.65567 -3.49463 0
M  V30 290 H 27.0887 1.38591 -3.81507 0
M  V30 291 H 27.8547 -0.90906 -4.76404 0
M  V30 292 H 23.7337 0.306108 -4.59983 0
M  V30 293 H 27.2777 -2.59111 -6.47694 0
M  V30 294 H 23.1747 -1.36801 -6.30837 0
M  V30 295 H 23.9427 -2.97165 -7.6265 0
M  V30 296 N 26.6058 1.57591 -0.0167156 0
M  V30 297 C 27.8518 1.91567 0.665582 0
M  V30 298 C 28.1848 0.892298 1.72487 0
M  V30 299 O 27.4598 -0.0867127 1.94307 0
M  V30 300 C 27.7428 3.36069 1.29342 0
M  V30 301 C 27.5958 4.49135 0.244541 0
M  V30 302 C 28.9148 3.803 2.21495 0
M  V30 303 H 26.0338 0.69666 0.240488 0
M  V30 304 H 28.6758 1.89866 -0.0714356 0
M  V30 305 H 26.8258 3.3765 1.92158 0
M  V30 306 H 28.4978 4.59689 -0.385228 0
M  V30 307 H 26.7408 4.3165 -0.431379 0
M  V30 308 H 27.4118 5.47242 0.723207 0
M  V30 309 H 29.8878 3.80377 1.68678 0
M  V30 310 H 28.7638 4.82127 2.62382 0
M  V30 311 H 29.0248 3.15104 3.101 0
M  V30 312 N 28.0839 -0.256276 1.55502 0
M  V30 313 C 29.3319 -0.983672 1.76545 0
M  V30 314 C 29.6529 -1.86206 0.578982 0
M  V30 315 O 28.9229 -1.91656 -0.405577 0
M  V30 316 H 27.5029 -0.366191 0.651086 0
M  V30 317 H 30.1649 -0.276479 1.92929 0
M  V30 318 H 29.2609 -1.61087 2.67315 0
M  V30 319 N 29.562 -1.4872 -0.521534 0
M  V30 320 C 30.51 -1.64328 -1.64618 0
M  V30 321 C 31.504 -0.50953 -1.61555 0
M  V30 322 O 32.71 -0.688525 -1.66311 0
M  V30 323 H 29.085 -0.517805 -0.545328 0
M  V30 324 H 31.056 -2.58767 -1.48601 0
M  V30 325 C 29.805 -1.70805 -3.02855 0
M  V30 326 H 29.128 -2.5741 -3.05909 0
M  V30 327 H 30.568 -1.85766 -3.81139 0
M  V30 328 C 29.027 -0.448479 -3.33902 0
M  V30 329 O 29.557 0.434928 -3.99339 0
M  V30 330 N 27.763 -0.317616 -2.88859 0
M  V30 331 H 27.31 -1.03748 -2.35784 0
M  V30 332 H 27.268 0.524113 -3.10001 0
M  V30 333 N 31.0401 0.771051 -1.3745 0
M  V30 334 C 32.4561 1.07171 -1.18265 0
M  V30 335 C 32.6561 2.01491 -0.019287 0
M  V30 336 O 31.7121 2.44244 0.640408 0
M  V30 337 C 33.0251 1.66854 -2.50161 0
M  V30 338 C 34.5731 1.79109 -2.56689 0
M  V30 339 C 35.0481 2.42205 -3.88717 0
M  V30 340 N 36.5391 2.49655 -3.90162 0
M  V30 341 C 37.2741 2.9933 -4.8907 0
M  V30 342 N 36.7701 3.49172 -5.98374 0
M  V30 343 N 38.5631 2.9821 -4.76474 0
M  V30 344 H 30.7141 0.144796 -2.11906 0
M  V30 345 H 32.9771 0.126863 -0.939473 0
M  V30 346 H 32.6831 1.05017 -3.35655 0
M  V30 347 H 32.5571 2.6614 -2.673 0
M  V30 348 H 34.9441 2.40077 -1.71601 0
M  V30 349 H 35.0251 0.785757 -2.43433 0
M  V30 350 H 34.6691 1.81875 -4.74219 0
M  V30 351 H 34.5991 3.43345 -3.99276 0
M  V30 352 H 37.0901 2.14383 -3.11205 0
M  V30 353 H 37.4031 3.8548 -6.69795 0
M  V30 354 H 35.7481 3.47275 -6.02018 0
M  V30 355 H 38.9391 2.58572 -3.90203 0
M  V30 356 H 39.1121 3.36613 -5.53711 0
M  V30 357 N 32.5182 1.22032 0.997298 0
M  V30 358 C 33.4812 0.987909 2.06816 0
M  V30 359 C 34.4812 -0.0440084 1.6074 0
M  V30 360 O 35.6712 0.194053 1.73116 0
M  V30 361 C 32.8032 0.49132 3.37341 0
M  V30 362 H 33.9962 1.93803 2.28868 0
M  V30 363 H 31.5492 1.03838 1.16822 0
M  V30 364 H 32.2842 -0.463364 3.20973 0
M  V30 365 H 32.0692 1.23575 3.72118 0
M  V30 366 H 33.5592 0.348824 4.16141 0
M  V30 367 N 33.9963 -1.19345 1.0293 0
M  V30 368 C 34.9593 -2.20793 0.615069 0
M  V30 369 C 35.9593 -1.57553 -0.321533 0
M  V30 370 O 37.1493 -1.73862 -0.108483 0
M  V30 371 C 34.2813 -3.40754 -0.0999222 0
M  V30 372 H 35.4743 -2.58955 1.51269 0
M  V30 373 H 33.0273 -1.3303 0.820534 0
M  V30 374 H 33.7623 -3.0811 -1.01187 0
M  V30 375 H 33.5473 -3.87889 0.57309 0
M  V30 376 H 35.0373 -4.15898 -0.376645 0
M  V30 377 N 35.4744 -0.807222 -1.35358 0
M  V30 378 C 36.7024 -0.400377 -2.02989 0
M  V30 379 C 37.1174 0.988859 -1.60832 0
M  V30 380 O 36.4744 1.63729 -0.806175 0
M  V30 381 C 36.5254 -0.474867 -3.58368 0
M  V30 382 O 36.2464 -1.80933 -3.98992 0
M  V30 383 C 37.7474 -0.0609112 -4.43258 0
M  V30 384 H 34.9674 -0.162587 -0.651004 0
M  V30 385 H 37.5114 -1.09102 -1.72965 0
M  V30 386 H 35.6664 0.167534 -3.87038 0
M  V30 387 H 36.0804 -1.77256 -4.9364 0
M  V30 388 H 37.5544 -0.164145 -5.51756 0
M  V30 389 H 38.0314 0.993831 -4.27808 0
M  V30 390 H 38.6374 -0.676492 -4.19885 0
M  V30 391 N 36.9525 1.47285 -0.560781 0
M  V30 392 C 38.1995 2.02464 -0.038062 0
M  V30 393 C 38.5275 1.43474 1.31322 0
M  V30 394 O 37.7825 0.581311 1.86867 0
M  V30 395 C 38.0815 3.57258 0.100784 0
M  V30 396 C 37.7475 4.35184 -1.18007 0
M  V30 397 C 36.4095 4.56194 -1.53103 0
M  V30 398 C 38.7615 4.80098 -2.02867 0
M  V30 399 C 36.0895 5.19367 -2.729 0
M  V30 400 C 38.4415 5.44593 -3.21871 0
M  V30 401 C 37.1055 5.63835 -3.57276 0
M  V30 402 H 36.3755 0.740869 -0.0139279 0
M  V30 403 H 39.0225 1.76916 -0.733012 0
M  V30 404 H 37.3275 3.81819 0.878724 0
M  V30 405 H 39.0245 3.97606 0.520639 0
M  V30 406 H 35.6145 4.19113 -0.8968 0
M  V30 407 H 39.7985 4.63642 -1.7706 0
M  V30 408 H 35.0545 5.32459 -3.00496 0
M  V30 409 H 39.2285 5.78358 -3.87911 0
M  V30 410 H 36.8555 6.12557 -4.50197 0
M  V30 411 N 38.4306 0.297415 1.54768 0
M  V30 412 C 39.8416 -0.195947 1.85669 0
M  V30 413 C 40.1926 -1.53707 1.21937 0
M  V30 414 O 39.3176 -2.10164 0.515754 0
M  V30 415 C 39.9126 -0.362318 3.36857 0
M  V30 416 C 38.4716 -0.799901 3.67802 0
M  V30 417 C 37.6186 0.0938578 2.77141 0
M  V30 418 H 40.5696 0.518538 1.4999 0
M  V30 419 H 40.5906 -1.19745 3.61167 0
M  V30 420 H 40.1026 0.613921 3.83214 0
M  V30 421 H 38.2036 -1.78682 3.26961 0
M  V30 422 H 38.3166 -0.621773 4.75048 0
M  V30 423 H 36.6806 -0.426254 2.51108 0
M  V30 424 H 37.4636 1.06639 3.26318 0
M  V30 425 N 39.9087 -1.5758 0.0250728 0
M  V30 426 C 40.8387 -2.13007 -0.956575 0
M  V30 427 C 41.8197 -1.0452 -1.342 0
M  V30 428 O 43.0047 -1.32332 -1.42133 0
M  V30 429 C 40.1347 -2.65386 -2.24026 0
M  V30 430 C 39.0887 -3.78623 -1.99571 0
M  V30 431 C 38.4147 -4.17414 -3.3417 0
M  V30 432 C 39.7147 -5.04867 -1.33814 0
M  V30 433 H 41.4087 -2.9528 -0.494991 0
M  V30 434 H 38.9547 -1.42042 -0.236651 0
M  V30 435 H 40.9077 -3.02794 -2.93076 0
M  V30 436 H 39.6317 -1.80268 -2.72343 0
M  V30 437 H 38.2907 -3.41646 -1.32941 0
M  V30 438 H 37.9387 -3.29284 -3.80238 0
M  V30 439 H 37.6387 -4.93719 -3.18615 0
M  V30 440 H 39.1627 -4.57402 -4.04495 0
M  V30 441 H 40.5767 -5.39888 -1.92857 0
M  V30 442 H 38.9737 -5.86144 -1.28669 0
M  V30 443 H 40.0437 -4.83904 -0.310561 0
M  V30 444 N 41.3868 0.248026 -1.55636 0
M  V30 445 C 42.3188 1.32993 -1.8667 0
M  V30 446 C 43.3318 1.44345 -0.752877 0
M  V30 447 O 44.5208 1.45715 -1.03098 0
M  V30 448 C 41.6208 2.70863 -2.03682 0
M  V30 449 C 40.7938 2.81792 -3.34532 0
M  V30 450 C 39.8528 4.005 -3.41301 0
M  V30 451 O 38.8788 3.9008 -4.14519 0
M  V30 452 N 40.0808 5.13618 -2.70512 0
M  V30 453 H 42.8458 1.06707 -2.8006 0
M  V30 454 H 40.4068 0.438129 -1.55859 0
M  V30 455 H 42.3988 3.48612 -2.05553 0
M  V30 456 H 40.9688 2.89862 -1.17041 0
M  V30 457 H 40.1888 1.90729 -3.44987 0
M  V30 458 H 41.4768 2.86043 -4.20781 0
M  V30 459 H 40.8748 5.24975 -2.10755 0
M  V30 460 H 39.4318 5.89505 -2.78077 0
M  V30 461 N 42.8649 1.48995 0.513639 0
M  V30 462 C 44.1109 1.58076 1.27042 0
M  V30 463 C 44.4439 0.261026 1.92438 0
M  V30 464 O 43.7189 -0.734393 1.80103 0
M  V30 465 C 44.0019 2.73091 2.34719 0
M  V30 466 C 43.8549 4.14821 1.73907 0
M  V30 467 C 45.1739 2.83796 3.36375 0
M  V30 468 H 42.2929 0.575391 0.460536 0
M  V30 469 H 44.9349 1.81232 0.570516 0
M  V30 470 H 43.0849 2.53479 2.94416 0
M  V30 471 H 44.7569 4.45917 1.18135 0
M  V30 472 H 42.9999 4.21058 1.0437 0
M  V30 473 H 43.6709 4.91147 2.51949 0
M  V30 474 H 46.1469 3.01611 2.86653 0
M  V30 475 H 45.0229 3.65971 4.09093 0
M  V30 476 H 45.2839 1.92624 3.9793 0
M  V30 477 N 44.343 -0.763751 1.37857 0
M  V30 478 C 45.273 -1.89103 1.36975 0
M  V30 479 C 46.254 -1.68439 0.237152 0
M  V30 480 O 47.439 -1.8918 0.438713 0
M  V30 481 C 44.569 -3.26496 1.18395 0
M  V30 482 C 43.523 -3.61741 2.28751 0
M  V30 483 C 42.849 -4.97762 1.95286 0
M  V30 484 C 44.149 -3.67665 3.70972 0
M  V30 485 H 45.843 -1.90099 2.31307 0
M  V30 486 H 43.389 -0.91319 1.11341 0
M  V30 487 H 45.342 -4.05003 1.16406 0
M  V30 488 H 44.066 -3.25955 0.205215 0
M  V30 489 H 42.725 -2.85547 2.29909 0
M  V30 490 H 42.373 -4.93769 0.959221 0
M  V30 491 H 42.073 -5.22313 2.69189 0
M  V30 492 H 43.597 -5.7866 1.94898 0
M  V30 493 H 45.011 -4.36307 3.719 0
M  V30 494 H 43.408 -4.03718 4.43995 0
M  V30 495 H 44.478 -2.68134 4.0402 0
M  V30 496 N 45.8211 -1.22559 -0.990812 0
M  V30 497 C 47.0691 -1.04933 -1.72724 0
M  V30 498 C 47.3901 0.416158 -1.90508 0
M  V30 499 O 46.6601 1.29918 -1.46622 0
M  V30 500 H 45.2401 -0.385296 -0.639965 0
M  V30 501 H 47.9021 -1.54105 -1.19322 0
M  V30 502 H 46.9981 -1.52886 -2.72089 0
M  V30 503 N 47.2992 1.18797 -1.03562 0
M  V30 504 C 48.5462 1.8865 -0.736023 0
M  V30 505 C 48.8742 1.80041 0.735889 0
M  V30 506 O 48.1292 1.19179 1.55225 0
M  V30 507 C 48.4282 3.38692 -1.14117 0
M  V30 508 C 48.0942 3.67504 -2.6125 0
M  V30 509 C 46.7562 3.75078 -3.01447 0
M  V30 510 C 49.1082 3.80293 -3.56408 0
M  V30 511 C 46.4362 3.92915 -4.35701 0
M  V30 512 C 48.7882 3.99645 -4.90374 0
M  V30 513 C 47.4522 4.05453 -5.30249 0
M  V30 514 H 46.7222 0.690321 -0.26933 0
M  V30 515 H 49.3692 1.40641 -1.29971 0
M  V30 516 H 47.6742 3.88645 -0.496202 0
M  V30 517 H 49.3712 3.91072 -0.886789 0
M  V30 518 H 45.9612 3.62223 -2.29113 0
M  V30 519 H 50.1452 3.73779 -3.26501 0
M  V30 520 H 45.4012 3.95653 -4.66121 0
M  V30 521 H 49.5752 4.08482 -5.64017 0
M  V30 522 H 47.2022 4.19027 -6.34288 0
M  V30 523 N 48.7773 0.814389 1.34928 0
M  V30 524 C 49.6873 0.231978 2.3345 0
M  V30 525 C 50.7033 -0.629139 1.62228 0
M  V30 526 O 51.8793 -0.539052 1.94052 0
M  V30 527 C 48.9443 -0.603482 3.41407 0
M  V30 528 C 48.0053 0.279037 4.28392 0
M  V30 529 C 47.2383 -0.516643 5.31193 0
M  V30 530 O 47.4613 -1.75068 5.4287 0
M  V30 531 O 46.3953 0.0965652 6.01823 0
M  V30 532 H 50.2213 1.04721 2.85074 0
M  V30 533 H 47.8063 0.576343 1.37836 0
M  V30 534 H 49.6883 -1.07908 4.0735 0
M  V30 535 H 48.3633 -1.39618 2.92042 0
M  V30 536 H 47.2703 0.801948 3.65403 0
M  V30 537 H 48.6033 1.03588 4.81176 0
M  V30 538 N 50.2554 -1.46986 0.568584 0
M  V30 539 C 51.5044 -2.01646 0.0465894 0
M  V30 540 C 51.8174 -1.44721 -1.31587 0
M  V30 541 O 53.0234 -1.91113 -1.92842 0
M  V30 542 C 51.4794 -3.59885 0.032752 0
M  V30 543 C 51.0874 -4.25804 1.39266 0
M  V30 544 C 52.8314 -4.22255 -0.436038 0
M  V30 545 C 50.7384 -5.76081 1.33732 0
M  V30 546 H 49.6684 -0.753876 0.013647 0
M  V30 547 H 52.3194 -1.68864 0.718131 0
M  V30 548 H 50.7014 -3.8968 -0.704669 0
M  V30 549 H 51.8754 -4.07637 2.1487 0
M  V30 550 H 50.1904 -3.7547 1.80032 0
M  V30 551 H 52.7874 -5.32394 -0.49602 0
M  V30 552 H 53.1304 -3.90212 -1.45053 0
M  V30 553 H 53.6634 -3.97033 0.246877 0
M  V30 554 H 50.4024 -6.12761 2.32817 0
M  V30 555 H 49.9224 -5.96553 0.623267 0
M  V30 556 H 51.6014 -6.38518 1.0442 0
M  V30 557 N 51.7335 -0.305618 -1.54608 0
M  V30 558 C 53.0105 0.355652 -1.92339 0
M  V30 559 C 53.3905 1.71324 -1.23335 0
M  V30 560 O 52.7385 2.25473 -0.370702 0
M  V30 561 C 52.9485 0.46572 -3.45879 0
M  V30 562 C 54.2965 0.734426 -4.182 0
M  V30 563 O 55.3205 0.54935 -3.51938 0
M  V30 564 O 54.1795 1.09024 -5.35515 0
M  V30 565 H 51.2735 0.199666 -0.802535 0
M  V30 566 H 53.8195 -0.354017 -1.65966 0
M  V30 567 H 52.5915 -0.488461 -3.88239 0
M  V30 568 H 52.2145 1.22367 -3.78301 0
M  V30 569 N 53.2116 1.57565 -0.0334293 0
M  V30 570 C 54.1746 2.09393 0.932048 0
M  V30 571 C 55.1746 1.00986 1.25134 0
M  V30 572 O 56.3646 1.27129 1.19096 0
M  V30 573 C 53.4966 2.56338 2.2473 0
M  V30 574 H 54.6896 2.95984 0.483085 0
M  V30 575 H 52.2426 1.54819 0.21468 0
M  V30 576 H 52.9776 1.7309 2.74245 0
M  V30 577 H 52.7626 3.35542 2.02865 0
M  V30 578 H 54.2526 2.96646 2.93923 0
M  V30 579 N 54.6897 -0.239769 1.55765 0
M  V30 580 C 55.9357 -0.968234 1.78194 0
M  V30 581 C 56.2687 -1.84701 0.599938 0
M  V30 582 O 55.5437 -1.9031 -0.401524 0
M  V30 583 C 55.8267 -1.8227 3.10564 0
M  V30 584 C 55.6797 -0.971633 4.3918 0
M  V30 585 C 56.9987 -2.80388 3.39221 0
M  V30 586 H 54.1177 -0.350572 0.648281 0
M  V30 587 H 56.7597 -0.238259 1.885 0
M  V30 588 H 54.9097 -2.44507 3.01908 0
M  V30 589 H 56.5817 -0.367408 4.59835 0
M  V30 590 H 54.8247 -0.276276 4.32919 0
M  V30 591 H 55.4957 -1.60346 5.28198 0
M  V30 592 H 57.9717 -2.28287 3.47885 0
M  V30 593 H 56.8477 -3.3729 4.33044 0
M  V30 594 H 57.1087 -3.57212 2.60484 0
M  V30 595 N 56.1678 -1.49265 -0.50573 0
M  V30 596 C 57.1158 -1.66065 -1.62866 0
M  V30 597 C 58.1098 -0.526636 -1.61006 0
M  V30 598 O 59.3158 -0.706126 -1.65571 0
M  V30 599 H 55.6908 -0.52356 -0.539805 0
M  V30 600 H 57.6618 -2.60329 -1.45848 0
M  V30 601 C 56.4108 -1.74008 -3.01026 0
M  V30 602 H 55.7338 -2.6064 -3.03161 0
M  V30 603 H 57.1738 -1.89798 -3.79147 0
M  V30 604 C 55.6328 -0.483868 -3.33407 0
M  V30 605 O 56.1628 0.392548 -3.99777 0
M  V30 606 N 54.3688 -0.348236 -2.88506 0
M  V30 607 H 53.9158 -1.06242 -2.34671 0
M  V30 608 H 53.8738 0.491204 -3.10539 0
M  V30 609 N 57.6459 0.756429 -1.3826 0
M  V30 610 C 58.8709 1.55077 -1.37717 0
M  V30 611 C 59.2959 1.88073 0.03164 0
M  V30 612 O 58.6539 1.50364 1.01293 0
M  V30 613 C 58.7019 2.8283 -2.23695 0
M  V30 614 O 57.8059 3.77862 -1.6521 0
M  V30 615 H 57.1469 0.469152 -0.469885 0
M  V30 616 H 59.6769 0.935019 -1.81985 0
M  V30 617 H 59.6869 3.31783 -2.37453 0
M  V30 618 H 58.3619 2.58144 -3.2609 0
M  V30 619 H 56.9389 3.36555 -1.60578 0
M  V30 620 N 59.124 1.23083 0.984299 0
M  V30 621 C 60.37 1.06214 1.72761 0
M  V30 622 C 60.703 -0.400584 1.90024 0
M  V30 623 O 59.978 -1.29672 1.44967 0
M  V30 624 C 60.261 1.78375 3.12817 0
M  V30 625 C 60.114 3.32296 3.03149 0
M  V30 626 C 61.433 1.54309 4.12161 0
M  V30 627 H 58.552 0.387251 0.627061 0
M  V30 628 H 61.194 1.51536 1.14616 0
M  V30 629 H 59.344 1.39848 3.62457 0
M  V30 630 H 61.016 3.8032 2.61064 0
M  V30 631 H 59.259 3.6153 2.39747 0
M  V30 632 H 59.93 3.77972 4.02295 0
M  V30 633 H 62.406 1.87791 3.71314 0
M  V30 634 H 61.282 2.07281 5.08258 0
M  V30 635 H 61.543 0.477572 4.39513 0
M  V30 636 N 60.6021 -1.18246 1.0419 0
M  V30 637 C 61.5341 -2.2142 0.592088 0
M  V30 638 C 62.5471 -1.59233 -0.338909 0
M  V30 639 O 63.7361 -1.78002 -0.133231 0
M  V30 640 C 60.8361 -3.38546 -0.154854 0
M  V30 641 C 60.0091 -4.3031 0.784328 0
M  V30 642 C 59.0681 -5.26138 0.0804583 0
M  V30 643 O 58.0941 -5.64738 0.711292 0
M  V30 644 N 59.2961 -5.68261 -1.18574 0
M  V30 645 H 62.0611 -2.60636 1.47949 0
M  V30 646 H 59.6221 -1.33044 0.922544 0
M  V30 647 H 61.6141 -3.99678 -0.635606 0
M  V30 648 H 60.1841 -2.98012 -0.943811 0
M  V30 649 H 59.4041 -3.66764 1.44491 0
M  V30 650 H 60.6921 -4.8852 1.42218 0
M  V30 651 H 60.0901 -5.38957 -1.71876 0
M  V30 652 H 58.6471 -6.31584 -1.61074 0
M  V30 653 N 62.0802 -0.821533 -1.34494 0
M  V30 654 C 63.3272 -0.408946 -1.98328 0
M  V30 655 C 63.6552 1.02764 -1.65136 0
M  V30 656 O 62.9102 1.73026 -0.914349 0
M  V30 657 C 63.2092 -0.556512 -3.53041 0
M  V30 658 C 62.8752 -1.95861 -4.0614 0
M  V30 659 C 61.5372 -2.34217 -4.20352 0
M  V30 660 C 63.8892 -2.87523 -4.34718 0
M  V30 661 C 61.2172 -3.63572 -4.6047 0
M  V30 662 C 63.5692 -4.1634 -4.76281 0
M  V30 663 C 62.2332 -4.54675 -4.88699 0
M  V30 664 H 61.5032 -0.149644 -0.725732 0
M  V30 665 H 64.1502 -1.04521 -1.6046 0
M  V30 666 H 62.4552 0.163148 -3.9146 0
M  V30 667 H 64.1522 -0.217826 -4.00408 0
M  V30 668 H 60.7422 -1.65066 -3.95539 0
M  V30 669 H 64.9262 -2.59133 -4.23277 0
M  V30 670 H 60.1822 -3.93101 -4.68275 0
M  V30 671 H 64.3562 -4.87455 -4.97354 0
M  V30 672 H 61.9832 -5.54959 -5.19542 0
M  V30 673 N 63.5583 1.46682 -0.576371 0
M  V30 674 C 64.7833 2.07304 -0.0630475 0
M  V30 675 C 65.2083 1.42329 1.2298 0
M  V30 676 O 64.5663 0.504865 1.74129 0
M  V30 677 C 64.6143 3.60472 0.095895 0
M  V30 678 O 63.7183 3.95927 1.15394 0
M  V30 679 H 63.0593 0.661288 -0.0599463 0
M  V30 680 H 65.5893 1.88417 -0.797511 0
M  V30 681 H 65.5993 4.06865 0.304071 0
M  V30 682 H 64.2743 4.07157 -0.84828 0
M  V30 683 H 62.8513 3.61252 0.924724 0
M  V30 684 N 65.0364 0.313813 1.54444 0
M  V30 685 C 65.9844 -0.572171 2.25453 0
M  V30 686 C 66.9784 -1.12657 1.2651 0
M  V30 687 O 68.1844 -1.07573 1.44319 0
M  V30 688 H 64.5594 -0.203146 0.724041 0
M  V30 689 H 66.5304 0.0491145 2.9836 0
M  V30 690 C 65.2794 -1.72626 3.0182 0
M  V30 691 H 64.6024 -1.30891 3.77767 0
M  V30 692 H 66.0424 -2.32199 3.54767 0
M  V30 693 C 64.5014 -2.63806 2.09542 0
M  V30 694 O 65.0314 -3.65256 1.67185 0
M  V30 695 N 63.2374 -2.31824 1.75232 0
M  V30 696 H 62.7844 -1.49368 2.09873 0
M  V30 697 H 62.7424 -2.93095 1.13767 0
M  V30 698 N 66.5145 -1.57545 0.0417849 0
M  V30 699 C 67.4645 -2.07483 -0.945247 0
M  V30 700 C 68.4485 -0.977983 -1.27767 0
M  V30 701 O 69.6405 -1.24142 -1.26166 0
M  V30 702 C 66.7695 -2.61576 -2.22335 0
M  V30 703 C 65.8555 -3.78213 -1.91874 0
M  V30 704 N 66.2465 -4.88344 -1.31733 0
M  V30 705 C 64.5445 -3.8694 -2.21796 0
M  V30 706 C 65.2455 -5.69462 -1.1869 0
M  V30 707 N 64.2215 -5.16771 -1.68666 0
M  V30 708 H 68.0235 -2.90029 -0.475441 0
M  V30 709 H 65.5375 -1.61581 -0.162911 0
M  V30 710 H 67.5345 -2.95651 -2.93932 0
M  V30 711 H 66.1945 -1.80465 -2.69931 0
M  V30 712 H 67.2055 -5.08335 -0.990729 0
M  V30 713 H 63.8825 -3.16757 -2.71977 0
M  V30 714 H 65.2725 -6.68023 -0.720793 0
M  V30 715 N 67.9926 0.231505 -1.5589 0
M  V30 716 C 69.2206 0.974505 -1.82513 0
M  V30 717 C 69.6356 1.78344 -0.619591 0
M  V30 718 O 68.9926 1.77792 0.411848 0
M  V30 719 C 69.0436 1.90007 -3.07538 0
M  V30 720 O 68.7646 1.12385 -4.2344 0
M  V30 721 C 70.2656 2.75779 -3.47075 0
M  V30 722 H 67.4856 0.286065 -0.606966 0
M  V30 723 H 70.0296 0.249739 -2.02969 0
M  V30 724 H 68.1846 2.57891 -2.89086 0
M  V30 725 H 68.5986 1.75125 -4.944 0
M  V30 726 H 70.0726 3.36443 -4.37619 0
M  V30 727 H 70.5496 3.47672 -2.68367 0
M  V30 728 H 71.1556 2.13323 -3.67931 0
M  V30 729 N 69.4707 1.49531 0.497807 0
M  V30 730 C 70.7187 1.58865 1.24926 0
M  V30 731 C 71.0397 0.278721 1.92998 0
M  V30 732 O 70.3097 -0.702144 1.82885 0
M  V30 733 H 68.8897 0.585343 0.464094 0
M  V30 734 H 71.5517 1.86174 0.57666 0
M  V30 735 H 70.6477 2.38633 2.01149 0
M  V30 736 N 70.9488 -0.749086 1.3866 0
M  V30 737 C 72.1788 -1.53611 1.38157 0
M  V30 738 C 72.5868 -1.89177 -0.0293595 0
M  V30 739 O 71.9298 -1.53606 -1.00752 0
M  V30 740 C 71.9918 -2.86087 2.17702 0
M  V30 741 C 71.6558 -2.73034 3.66472 0
M  V30 742 C 72.6528 -2.42526 4.59866 0
M  V30 743 C 70.3378 -2.90345 4.09884 0
M  V30 744 C 72.3318 -2.29492 5.94653 0
M  V30 745 C 70.0188 -2.7693 5.4475 0
M  V30 746 C 71.0168 -2.46547 6.36949 0
M  V30 747 O 70.7048 -2.33199 7.69333 0
M  V30 748 H 70.4368 -0.481773 0.474205 0
M  V30 749 H 72.9908 -0.934465 1.82912 0
M  V30 750 H 71.2208 -3.48458 1.67672 0
M  V30 751 H 72.9098 -3.47625 2.09551 0
M  V30 752 H 73.6758 -2.28816 4.27631 0
M  V30 753 H 69.5548 -3.1299 3.38464 0
M  V30 754 H 73.0988 -2.05698 6.66584 0
M  V30 755 H 68.9958 -2.90215 5.76581 0
M  V30 756 H 69.7638 -2.48376 7.79905 0
M  V30 757 N 72.4269 -1.23603 -0.977757 0
M  V30 758 C 73.3899 -1.02069 -2.05218 0
M  V30 759 C 74.3899 0.0184305 -1.60789 0
M  V30 760 O 75.5799 -0.221569 -1.72785 0
M  V30 761 C 72.7119 -0.544926 -3.36517 0
M  V30 762 H 73.9049 -1.9742 -2.25755 0
M  V30 763 H 71.4579 -1.05684 -1.15155 0
M  V30 764 H 72.1929 0.412241 -3.21669 0
M  V30 765 H 71.9779 -1.2948 -3.70105 0
M  V30 766 H 73.4679 -0.414985 -4.15533 0
M  V30 767 N 73.905 1.17692 -1.04816 0
M  V30 768 C 74.855 2.1952 -0.616042 0
M  V30 769 C 75.839 1.57147 0.345485 0
M  V30 770 O 77.031 1.76245 0.163325 0
M  V30 771 C 74.16 3.43298 0.0116917 0
M  V30 772 C 73.246 4.12777 -0.973435 0
M  V30 773 N 73.637 4.5814 -2.14339 0
M  V30 774 C 71.935 4.38747 -0.80108 0
M  V30 775 C 72.636 5.11713 -2.7663 0
M  V30 776 N 71.612 5.03686 -2.04453 0
M  V30 777 H 75.414 2.52293 -1.5075 0
M  V30 778 H 72.928 1.3398 -0.917776 0
M  V30 779 H 74.925 4.15519 0.339006 0
M  V30 780 H 73.585 3.12018 0.898593 0
M  V30 781 H 74.596 4.52349 -2.52191 0
M  V30 782 H 71.273 4.17485 0.0350934 0
M  V30 783 H 72.663 5.56962 -3.75823 0
M  V30 784 N 75.3831 0.828654 1.34056 0
M  V30 785 C 76.6291 0.429279 1.98818 0
M  V30 786 C 76.9841 -0.998011 1.64492 0
M  V30 787 O 76.2771 -1.68652 0.909228 0
M  V30 788 C 76.4711 0.575226 3.52741 0
M  V30 789 C 76.3001 2.01515 4.02022 0
M  V30 790 C 75.0701 2.64825 4.30344 0
M  V30 791 C 77.2681 2.98261 4.18981 0
M  V30 792 N 75.2501 3.99998 4.65698 0
M  V30 793 C 76.6211 4.18356 4.57578 0
M  V30 794 C 78.6761 2.94802 4.01243 0
M  V30 795 C 77.3791 5.35454 4.80293 0
M  V30 796 C 79.4051 4.11121 4.25128 0
M  V30 797 C 78.7671 5.29969 4.64018 0
M  V30 798 H 74.8661 0.205304 0.754569 0
M  V30 799 H 77.4501 1.07457 1.62361 0
M  V30 800 H 75.6211 -0.0401962 3.88379 0
M  V30 801 H 77.3531 0.148292 4.04428 0
M  V30 802 H 74.1081 2.16027 4.21461 0
M  V30 803 H 74.5321 4.69653 4.87601 0
M  V30 804 H 79.1741 2.04054 3.70299 0
M  V30 805 H 76.8921 6.26755 5.10102 0
M  V30 806 H 80.4781 4.0985 4.12934 0
M  V30 807 H 79.3581 6.18479 4.82134 0
M  V30 808 N 76.8612 -1.46375 0.584142 0
M  V30 809 C 77.8082 -2.30323 -0.148286 0
M  V30 810 C 78.7782 -1.40703 -0.882713 0
M  V30 811 O 79.9632 -1.69651 -0.873099 0
M  V30 812 C 77.1032 -3.25196 -1.15507 0
M  V30 813 C 76.2162 -4.29915 -0.423943 0
M  V30 814 C 75.3512 -5.11914 -1.41838 0
M  V30 815 C 74.3902 -6.08381 -0.673736 0
M  V30 816 N 73.5272 -6.83242 -1.6163 0
M  V30 817 H 78.3672 -2.92427 0.573644 0
M  V30 818 H 75.9042 -1.44118 0.294703 0
M  V30 819 H 77.8622 -3.78646 -1.75166 0
M  V30 820 H 76.4922 -2.64898 -1.8447 0
M  V30 821 H 75.5442 -3.7931 0.287714 0
M  V30 822 H 76.8562 -4.98549 0.158128 0
M  V30 823 H 76.0102 -5.69648 -2.08773 0
M  V30 824 H 74.7492 -4.43243 -2.03438 0
M  V30 825 H 73.7542 -5.49799 0.00938483 0
M  V30 826 H 74.9792 -6.79071 -0.0631082 0
M  V30 827 H 72.9252 -6.1728 -2.22038 0
M  V30 828 H 72.8422 -7.48144 -1.08707 0
M  V30 829 H 74.1102 -7.45534 -2.27596 0
M  V30 830 N 78.3393 -0.321999 -1.54275 0
M  V30 831 C 79.5873 0.280489 -2.00144 0
M  V30 832 C 79.9083 1.52777 -1.21178 0
M  V30 833 O 79.1783 1.9338 -0.313187 0
M  V30 834 H 77.7583 0.106632 -0.73935 0
M  V30 835 H 80.4203 -0.438184 -1.8991 0
M  V30 836 H 79.5163 0.537972 -3.07428 0
M  V30 837 N 79.8174 1.5752 -0.0501392 0
M  V30 838 C 80.7494 2.08413 0.95376 0
M  V30 839 C 81.7624 1.01175 1.27544 0
M  V30 840 O 82.9514 1.28744 1.23641 0
M  V30 841 C 80.0514 2.51138 2.27559 0
M  V30 842 C 79.2244 3.817 2.13598 0
M  V30 843 C 78.2834 4.10749 3.28895 0
M  V30 844 O 77.3094 4.80685 3.04845 0
M  V30 845 N 78.5114 3.62579 4.5334 0
M  V30 846 H 81.2764 2.95165 0.519383 0
M  V30 847 H 78.8374 1.61327 0.136127 0
M  V30 848 H 80.8294 2.67648 3.03557 0
M  V30 849 H 79.3994 1.6964 2.62567 0
M  V30 850 H 78.6194 3.74782 1.22197 0
M  V30 851 H 79.9074 4.67201 2.01496 0
M  V30 852 H 79.3054 3.06039 4.75769 0
M  V30 853 H 77.8624 3.84329 5.26436 0
M  V30 854 N 81.2955 -0.223234 1.56011 0
M  V30 855 C 82.5415 -0.949279 1.79211 0
M  V30 856 C 82.8745 -1.84054 0.619494 0
M  V30 857 O 82.1495 -1.90726 -0.381317 0
M  V30 858 C 82.4325 -1.78965 3.12479 0
M  V30 859 C 82.2855 -0.924997 4.40186 0
M  V30 860 C 83.6045 -2.76774 3.42175 0
M  V30 861 H 80.7235 -0.343676 0.651963 0
M  V30 862 H 83.3655 -0.218253 1.88742 0
M  V30 863 H 81.5155 -2.41291 3.04485 0
M  V30 864 H 83.1875 -0.318615 4.60198 0
M  V30 865 H 81.4305 -0.230344 4.33188 0
M  V30 866 H 82.1015 -1.54735 5.29869 0
M  V30 867 H 84.5775 -2.24584 3.50287 0
M  V30 868 H 83.4535 -3.32678 4.36597 0
M  V30 869 H 83.7145 -3.54429 2.64258 0
M  V30 870 N 82.7736 -1.49793 -0.48987 0
M  V30 871 C 83.7036 -1.70201 -1.59856 0
M  V30 872 C 84.6846 -0.55076 -1.60937 0
M  V30 873 O 85.8696 -0.787841 -1.77501 0
M  V30 874 C 82.9996 -1.77882 -2.98287 0
M  V30 875 C 81.9536 -2.92907 -3.12073 0
M  V30 876 C 81.2796 -2.85712 -4.51965 0
M  V30 877 C 82.5796 -4.3369 -2.91051 0
M  V30 878 H 84.2736 -2.63025 -1.43032 0
M  V30 879 H 81.8196 -1.26574 -0.686664 0
M  V30 880 H 83.7726 -1.90744 -3.75759 0
M  V30 881 H 82.4966 -0.816653 -3.16225 0
M  V30 882 H 81.1556 -2.79665 -2.37029 0
M  V30 883 H 80.8036 -1.8738 -4.66795 0
M  V30 884 H 80.5036 -3.62921 -4.62128 0
M  V30 885 H 82.0276 -3.00598 -5.31482 0
M  V30 886 H 83.4416 -4.47555 -3.58284 0
M  V30 887 H 81.8386 -5.12205 -3.12675 0
M  V30 888 H 82.9086 -4.47362 -1.87071 0
M  V30 889 N 84.2517 0.741722 -1.39055 0
M  V30 890 C 85.1997 1.87702 -1.3737 0
M  V30 891 C 86.1937 1.67427 -0.257812 0
M  V30 892 O 87.3997 1.7485 -0.427489 0
M  V30 893 H 83.7747 0.617757 -0.428812 0
M  V30 894 H 85.7457 1.86239 -2.33147 0
M  V30 895 C 84.4947 3.25315 -1.22741 0
M  V30 896 H 83.8177 3.41509 -2.07873 0
M  V30 897 H 85.2577 4.04964 -1.25618 0
M  V30 898 C 83.7167 3.36838 0.0647316 0
M  V30 899 O 84.2467 3.88073 1.03741 0
M  V30 900 N 82.4527 2.90329 0.125544 0
M  V30 901 H 81.9997 2.48823 -0.666682 0
M  V30 902 H 81.9577 2.98418 0.989639 0
M  V30 903 N 85.7298 1.2412 0.971189 0
M  V30 904 C 86.9548 1.10667 1.75407 0
M  V30 905 C 87.3798 -0.337048 1.85056 0
M  V30 906 O 86.7378 -1.24396 1.31892 0
M  V30 907 C 86.7858 1.74726 3.15441 0
M  V30 908 O 85.8898 1.01566 3.99697 0
M  V30 909 H 85.2308 0.387341 0.539317 0
M  V30 910 H 87.7608 1.64358 1.2185 0
M  V30 911 H 87.7708 1.80341 3.6598 0
M  V30 912 H 86.4458 2.79773 3.07734 0
M  V30 913 H 85.0228 1.03713 3.58187 0
M  V30 914 N 87.2079 -1.17134 1.05439 0
M  V30 915 C 88.4849 -1.83411 0.679699 0
M  V30 916 C 88.8649 -1.9368 -0.839726 0
M  V30 917 O 88.2129 -1.47325 -1.74664 0
M  V30 918 C 88.4229 -3.20918 1.37159 0
M  V30 919 C 89.7709 -3.96796 1.51123 0
M  V30 920 O 90.7949 -3.30406 1.3308 0
M  V30 921 O 89.6539 -5.15778 1.80651 0
M  V30 922 H 86.7479 -0.79154 0.239569 0
M  V30 923 H 89.2939 -1.24411 1.15413 0
M  V30 924 H 88.0659 -3.08428 2.40807 0
M  V30 925 H 87.6889 -3.87587 0.886674 0
M  V30 926 N 88.686 -0.835752 -1.33615 0
M  V30 927 C 89.596 -0.269088 -2.33052 0
M  V30 928 C 90.612 0.603251 -1.63208 0
M  V30 929 O 91.788 0.508112 -1.94885 0
M  V30 930 C 88.853 0.549091 -3.42324 0
M  V30 931 C 87.914 -0.347156 -4.27894 0
M  V30 932 C 87.147 0.43207 -5.31948 0
M  V30 933 O 87.37 1.66409 -5.45586 0
M  V30 934 O 86.304 -0.192298 -6.01593 0
M  V30 935 H 90.13 -1.09243 -2.83372 0
M  V30 936 H 87.715 -0.598198 -1.36901 0
M  V30 937 H 89.597 1.01414 -4.09015 0
M  V30 938 H 88.272 1.34955 -2.94226 0
M  V30 939 H 87.179 -0.859979 -3.64081 0
M  V30 940 H 88.512 -1.1123 -4.79467 0
M  V30 941 N 90.1641 1.46063 -0.591896 0
M  V30 942 C 91.0941 2.33172 0.123673 0
M  V30 943 C 92.0751 1.45897 0.87453 0
M  V30 944 O 93.2601 1.74698 0.848181 0
M  V30 945 C 90.3901 3.28336 1.13194 0
M  V30 946 C 89.3441 4.25124 0.495324 0
M  V30 947 C 88.6701 5.09863 1.61071 0
M  V30 948 C 89.9701 5.19143 -0.573425 0
M  V30 949 H 91.6641 2.93252 -0.603646 0
M  V30 950 H 89.2101 1.41014 -0.291741 0
M  V30 951 H 91.1631 3.88137 1.64097 0
M  V30 952 H 89.8871 2.66383 1.88965 0
M  V30 953 H 88.5461 3.66599 0.00729452 0
M  V30 954 H 88.1941 4.44288 2.35832 0
M  V30 955 H 87.8941 5.75417 1.19035 0
M  V30 956 H 89.4181 5.72529 2.12233 0
M  V30 957 H 90.8321 5.73106 -0.1491 0
M  V30 958 H 89.2291 5.93089 -0.914636 0
M  V30 959 H 90.2991 4.62519 -1.45617 0
M  V30 960 N 91.6422 0.330177 1.54103 0
M  V30 961 C 92.5742 -0.566902 2.22079 0
M  V30 962 C 93.5872 -1.07462 1.22294 0
M  V30 963 O 94.7762 -0.987065 1.48726 0
M  V30 964 C 91.8762 -1.79138 2.87685 0
M  V30 965 C 91.0492 -1.42123 4.13666 0
M  V30 966 C 90.1082 -2.50394 4.62806 0
M  V30 967 O 89.1342 -2.14261 5.27334 0
M  V30 968 N 90.3362 -3.81433 4.37595 0
M  V30 969 H 93.1012 0.0151844 2.99696 0
M  V30 970 H 90.6622 0.153681 1.61169 0
M  V30 971 H 92.6542 -2.50975 3.1748 0
M  V30 972 H 91.2242 -2.28115 2.13734 0
M  V30 973 H 90.4442 -0.534201 3.90564 0
M  V30 974 H 91.7322 -1.14971 4.9564 0
M  V30 975 H 91.1302 -4.13584 3.8596 0
M  V30 976 H 89.6872 -4.4948 4.72029 0
M  V30 977 N 93.1203 -1.57491 0.0584922 0
M  V30 978 C 94.0303 -2.15448 -0.928414 0
M  V30 979 C 95.0463 -1.11416 -1.3365 0
M  V30 980 O 96.2223 -1.4362 -1.41193 0
M  V30 981 C 93.2873 -2.69393 -2.18239 0
M  V30 982 C 92.3483 -3.88249 -1.83196 0
M  V30 983 C 91.5813 -4.39613 -3.02616 0
M  V30 984 O 91.8043 -3.90023 -4.16219 0
M  V30 985 O 90.7383 -5.31111 -2.83204 0
M  V30 986 H 94.5643 -3.00112 -0.465483 0
M  V30 987 H 92.1493 -1.48499 -0.163826 0
M  V30 988 H 94.0313 -3.04026 -2.91798 0
M  V30 989 H 92.7063 -1.87796 -2.63656 0
M  V30 990 H 91.6133 -3.58492 -1.06931 0
M  V30 991 H 92.9463 -4.71098 -1.42573 0
M  V30 992 N 94.5984 0.214957 -1.56127 0
M  V30 993 C 95.5284 1.2695 -1.95974 0
M  V30 994 C 96.5094 1.48539 -0.828868 0
M  V30 995 O 97.6944 1.60611 -1.09168 0
M  V30 996 C 94.8244 2.61794 -2.28214 0
M  V30 997 C 93.7784 2.54851 -3.43853 0
M  V30 998 C 93.1044 3.93785 -3.61715 0
M  V30 999 C 94.4044 2.09065 -4.78632 0
M  V30 1000 H 96.0984 0.93846 -2.84312 0
M  V30 1001 H 93.6444 0.449996 -1.36788 0
M  V30 1002 H 95.5974 3.35731 -2.54682 0
M  V30 1003 H 94.3214 2.96599 -1.36736 0
M  V30 1004 H 92.9804 1.8337 -3.17444 0
M  V30 1005 H 92.6284 4.25908 -2.67602 0
M  V30 1006 H 92.3284 3.90019 -4.39498 0
M  V30 1007 H 93.8524 4.69374 -3.90539 0
M  V30 1008 H 95.2664 2.7275 -5.04262 0
M  V30 1009 H 93.6634 2.16346 -5.59745 0
M  V30 1010 H 94.7334 1.04315 -4.73547 0
M  V30 1011 N 96.0765 1.50051 0.48192 0
M  V30 1012 C 97.3065 1.63999 1.2565 0
M  V30 1013 C 97.7145 0.318288 1.86504 0
M  V30 1014 O 97.0575 -0.708534 1.69486 0
M  V30 1015 C 97.1195 2.66504 2.4128 0
M  V30 1016 C 96.7835 4.10352 2.01148 0
M  V30 1017 C 97.7805 4.96562 1.54021 0
M  V30 1018 C 95.4655 4.56203 2.10199 0
M  V30 1019 C 97.4595 6.26668 1.16473 0
M  V30 1020 C 95.1465 5.86318 1.72264 0
M  V30 1021 C 96.1445 6.71375 1.25477 0
M  V30 1022 O 95.8325 7.99062 0.880626 0
M  V30 1023 H 95.5645 0.55456 0.386574 0
M  V30 1024 H 98.1185 1.96954 0.582944 0
M  V30 1025 H 96.3485 2.28769 3.11772 0
M  V30 1026 H 98.0375 2.69783 3.03268 0
M  V30 1027 H 98.8035 4.62358 1.46458 0
M  V30 1028 H 94.6825 3.90152 2.45566 0
M  V30 1029 H 98.2265 6.93011 0.798841 0
M  V30 1030 H 94.1235 6.20046 1.79482 0
M  V30 1031 H 94.8915 8.12239 1.01043 0
M  V30 1032 N 97.5546 -0.734337 1.39446 0
M  V30 1033 C 98.4646 -1.87879 1.40495 0
M  V30 1034 C 99.4806 -1.714 0.299672 0
M  V30 1035 O 100.657 -1.93991 0.541249 0
M  V30 1036 C 97.7216 -3.23477 1.24754 0
M  V30 1037 C 96.7826 -3.52344 2.45259 0
M  V30 1038 C 96.0156 -4.81473 2.30259 0
M  V30 1039 O 96.2386 -5.55237 1.30643 0
M  V30 1040 O 95.1726 -5.10254 3.19256 0
M  V30 1041 H 98.9986 -1.89949 2.36966 0
M  V30 1042 H 96.5836 -0.882243 1.20569 0
M  V30 1043 H 98.4656 -4.04509 1.18111 0
M  V30 1044 H 97.1406 -3.22176 0.313781 0
M  V30 1045 H 96.0476 -2.71396 2.57478 0
M  V30 1046 H 97.3806 -3.58426 3.37331 0
M  V30 1047 N 99.0327 -1.24633 -0.964593 0
M  V30 1048 C 100.281 -1.08573 -1.70459 0
M  V30 1049 C 100.602 0.375655 -1.91347 0
M  V30 1050 O 99.8717 1.26779 -1.49345 0
M  V30 1051 H 98.4517 -0.398784 -0.631649 0
M  V30 1052 H 101.114 -1.56601 -1.16026 0
M  V30 1053 H 100.21 -1.58623 -2.68785 0
M  V30 1054 N 100.511 1.16574 -1.06058 0
M  V30 1055 C 101.441 2.23057 -0.690488 0
M  V30 1056 C 102.422 1.67141 0.315901 0
M  V30 1057 O 103.607 1.93253 0.191556 0
M  V30 1058 C 100.737 3.47222 -0.073625 0
M  V30 1059 C 99.6908 4.16016 -1.00573 0
M  V30 1060 C 99.0168 5.34104 -0.252289 0
M  V30 1061 C 100.317 4.67264 -2.33371 0
M  V30 1062 H 102.011 2.54271 -1.58072 0
M  V30 1063 H 99.5568 1.22218 -0.76149 0
M  V30 1064 H 101.51 4.20939 0.19714 0
M  V30 1065 H 100.234 3.15302 0.85161 0
M  V30 1066 H 98.8928 3.44223 -1.2612 0
M  V30 1067 H 98.5408 4.98437 0.675988 0
M  V30 1068 H 98.2408 5.81072 -0.873455 0
M  V30 1069 H 99.7648 6.10599 0.0109857 0
M  V30 1070 H 101.179 5.32573 -2.12223 0
M  V30 1071 H 99.5758 5.24843 -2.90963 0
M  V30 1072 H 100.646 3.83602 -2.96611 0
M  V30 1073 N 101.989 0.842826 1.3317 0
M  V30 1074 C 103.405 0.531128 1.50503 0
M  V30 1075 C 103.605 -0.940734 1.78192 0
M  V30 1076 O 102.661 -1.72436 1.84451 0
M  V30 1077 C 103.974 1.40789 2.65705 0
M  V30 1078 C 105.522 1.40708 2.79589 0
M  V30 1079 C 105.997 2.26878 3.97857 0
M  V30 1080 N 107.488 2.24609 4.05099 0
M  V30 1081 C 108.223 2.88019 4.95815 0
M  V30 1082 N 107.719 3.60496 5.9162 0
M  V30 1083 N 109.512 2.77469 4.88843 0
M  V30 1084 H 101.663 1.79557 1.1346 0
M  V30 1085 H 103.926 0.766267 0.558156 0
M  V30 1086 H 103.632 2.454 2.51936 0
M  V30 1087 H 103.506 1.08677 3.61205 0
M  V30 1088 H 105.893 0.368668 2.92788 0
M  V30 1089 H 105.974 1.76829 1.84838 0
M  V30 1090 H 105.618 3.3078 3.85418 0
M  V30 1091 H 105.548 1.88096 4.91861 0
M  V30 1092 H 108.039 1.71906 3.36536 0
M  V30 1093 H 108.352 4.06076 6.57512 0
M  V30 1094 H 106.697 3.64604 5.91683 0
M  V30 1095 H 109.888 2.20406 4.12963 0
M  V30 1096 H 110.061 3.2717 5.59342 0
M  V30 1097 N 103.467 -1.45747 0.599634 0
M  V30 1098 C 104.397 -2.33235 -0.111306 0
M  V30 1099 C 105.378 -1.46359 -0.866781 0
M  V30 1100 O 106.563 -1.75146 -0.838904 0
M  V30 1101 C 103.693 -3.28932 -1.11451 0
M  V30 1102 C 102.647 -4.25381 -0.472772 0
M  V30 1103 C 101.973 -5.1071 -1.58365 0
M  V30 1104 C 103.273 -5.18831 0.600948 0
M  V30 1105 H 104.967 -2.92927 0.61919 0
M  V30 1106 H 102.513 -1.40857 0.299215 0
M  V30 1107 H 104.466 -3.89002 -1.62036 0
M  V30 1108 H 103.19 -2.67381 -1.8755 0
M  V30 1109 H 101.849 -3.66598 0.0121472 0
M  V30 1110 H 101.497 -4.45533 -2.33473 0
M  V30 1111 H 101.197 -5.7604 -1.15982 0
M  V30 1112 H 102.721 -5.73647 -2.09194 0
M  V30 1113 H 104.135 -5.73019 0.179491 0
M  V30 1114 H 102.532 -5.92595 0.946076 0
M  V30 1115 H 103.602 -4.6174 1.48068 0
M  V30 1116 N 104.945 -0.338344 -1.53925 0
M  V30 1117 C 105.893 0.536231 -2.26335 0
M  V30 1118 C 106.887 1.1063 -1.28286 0
M  V30 1119 O 108.093 1.05264 -1.46012 0
M  V30 1120 H 104.468 0.191602 -0.727181 0
M  V30 1121 H 106.439 -0.0965747 -2.98244 0
M  V30 1122 C 105.188 1.67803 -3.04528 0
M  V30 1123 H 104.511 1.24864 -3.79801 0
M  V30 1124 H 105.951 2.26526 -3.58416 0
M  V30 1125 C 104.41 2.60439 -2.13712 0
M  V30 1126 O 104.94 3.6255 -1.72975 0
M  V30 1127 N 103.146 2.29006 -1.78898 0
M  V30 1128 H 102.693 1.46011 -2.12223 0
M  V30 1129 H 102.651 2.91248 -1.18416 0
M  V30 1130 N 106.423 1.57458 -0.0668435 0
M  V30 1131 C 107.371 2.13639 0.919851 0
M  V30 1132 C 108.365 1.07204 1.31163 0
M  V30 1133 O 109.571 1.25591 1.28945 0
M  V30 1134 H 105.946 0.683048 0.314562 0
M  V30 1135 H 107.917 2.95415 0.421047 0
M  V30 1136 C 106.666 2.70892 2.17975 0
M  V30 1137 H 105.989 3.5246 1.88711 0
M  V30 1138 H 107.429 3.13803 2.85138 0
M  V30 1139 C 105.888 1.65414 2.93496 0
M  V30 1140 O 106.418 1.07619 3.87015 0
M  V30 1141 N 104.624 1.36564 2.56512 0
M  V30 1142 H 104.171 1.83751 1.80536 0
M  V30 1143 H 104.129 0.66223 3.07347 0
M  V30 1144 N 107.901 -0.206675 1.56239 0
M  V30 1145 C 108.834 -1.28383 1.88661 0
M  V30 1146 C 109.812 -1.44504 0.745481 0
M  V30 1147 O 110.996 -1.60079 0.995336 0
M  V30 1148 C 108.123 -2.65211 2.10667 0
M  V30 1149 C 107.169 -2.66025 3.33366 0
M  V30 1150 S 108.002 -2.18609 4.88846 0
M  V30 1151 C 109.158 -3.57283 5.13906 0
M  V30 1152 H 109.391 -1.00691 2.7973 0
M  V30 1153 H 106.924 -0.409627 1.48867 0
M  V30 1154 H 108.882 -3.43979 2.24029 0
M  V30 1155 H 107.543 -2.90121 1.20369 0
M  V30 1156 H 106.736 -3.66607 3.45855 0
M  V30 1157 H 106.338 -1.95331 3.18938 0
M  V30 1158 H 108.63 -4.53074 5.03717 0
M  V30 1159 H 109.573 -3.49699 6.15724 0
M  V30 1160 H 109.981 -3.51659 4.41583 0
M  V30 1161 N 109.379 -1.50304 -0.473955 0
M  V30 1162 C 110.327 -1.69482 -1.59307 0
M  V30 1163 C 111.321 -0.560669 -1.59853 0
M  V30 1164 O 112.527 -0.741087 -1.64036 0
M  V30 1165 H 108.902 -0.534892 -0.528578 0
M  V30 1166 H 110.873 -2.63364 -1.40293 0
M  V30 1167 C 109.622 -1.80354 -2.97267 0
M  V30 1168 H 108.945 -2.67012 -2.97564 0
M  V30 1169 H 110.385 -1.97798 -3.75036 0
M  V30 1170 C 108.844 -0.55448 -3.32306 0
M  V30 1171 O 109.374 0.307661 -4.0052 0
M  V30 1172 N 107.58 -0.409354 -2.87702 0
M  V30 1173 H 107.127 -1.11196 -2.32364 0
M  V30 1174 H 107.085 0.425223 -3.11511 0
M  V30 1175 N 110.857 0.726932 -1.39834 0
M  V30 1176 C 111.804 1.841 -1.39197 0
M  V30 1177 C 112.774 1.642 -0.250502 0
M  V30 1178 O 113.959 1.85494 -0.446846 0
M  V30 1179 C 111.099 3.21697 -1.24919 0
M  V30 1180 C 110.212 3.53247 -2.48678 0
M  V30 1181 C 109.347 4.80289 -2.26928 0
M  V30 1182 C 108.386 5.04707 -3.4632 0
M  V30 1183 N 107.523 6.22956 -3.23836 0
M  V30 1184 H 112.363 1.83979 -2.34427 0
M  V30 1185 H 109.9 0.898876 -1.16442 0
M  V30 1186 H 111.858 4.01137 -1.1465 0
M  V30 1187 H 110.488 3.21076 -0.333153 0
M  V30 1188 H 109.54 2.68447 -2.69519 0
M  V30 1189 H 110.852 3.67205 -3.37582 0
M  V30 1190 H 110.006 5.67725 -2.13947 0
M  V30 1191 H 108.745 4.68519 -1.35431 0
M  V30 1192 H 107.75 4.1573 -3.5979 0
M  V30 1193 H 108.975 5.18357 -4.38729 0
M  V30 1194 H 106.921 6.12459 -2.35011 0
M  V30 1195 H 106.838 6.37539 -4.063 0
M  V30 1196 H 108.106 7.1321 -3.14566 0
M  V30 1197 N 112.336 1.25143 0.95797 0
M  V30 1198 C 113.566 1.12261 1.73439 0
M  V30 1199 C 113.974 -0.326715 1.86358 0
M  V30 1200 O 113.317 -1.2367 1.35836 0
M  V30 1201 C 113.379 1.69966 3.16784 0
M  V30 1202 C 113.043 3.18936 3.27305 0
M  V30 1203 C 114.04 4.15968 3.11877 0
M  V30 1204 C 111.725 3.59083 3.51234 0
M  V30 1205 C 113.719 5.51126 3.20217 0
M  V30 1206 C 111.406 4.9438 3.5921 0
M  V30 1207 C 112.404 5.90211 3.43716 0
M  V30 1208 O 112.092 7.23046 3.51368 0
M  V30 1209 H 111.824 0.392476 0.550399 0
M  V30 1210 H 114.378 1.65927 1.21068 0
M  V30 1211 H 112.608 1.10744 3.70503 0
M  V30 1212 H 114.297 1.52232 3.76272 0
M  V30 1213 H 115.063 3.86292 2.93264 0
M  V30 1214 H 110.942 2.84989 3.62356 0
M  V30 1215 H 114.486 6.25905 3.0804 0
M  V30 1216 H 110.383 5.23723 3.77339 0
M  V30 1217 H 111.151 7.31097 3.6802 0
M  V30 1218 N 113.814 -1.1601 1.06675 0
M  V30 1219 C 115.091 -1.82679 0.699114 0
M  V30 1220 C 115.471 -1.94559 -0.819137 0
M  V30 1221 O 114.819 -1.49169 -1.73092 0
M  V30 1222 C 115.029 -3.19445 1.40555 0
M  V30 1223 C 116.377 -3.95171 1.55323 0
M  V30 1224 O 117.401 -3.28976 1.36577 0
M  V30 1225 O 116.26 -5.13833 1.86112 0
M  V30 1226 H 113.354 -0.788954 0.247951 0
M  V30 1227 H 115.9 -1.23179 1.16726 0
M  V30 1228 H 114.672 -3.05856 2.44065 0
M  V30 1229 H 114.295 -3.86625 0.927733 0
M  V30 1230 N 115.292 -0.849877 -1.32721 0
M  V30 1231 C 116.522 -0.46408 -2.0132 0
M  V30 1232 C 116.93 0.94246 -1.64056 0
M  V30 1233 O 116.273 1.6257 -0.855379 0
M  V30 1234 C 116.335 -0.517887 -3.5575 0
M  V30 1235 C 115.999 -1.88248 -4.16427 0
M  V30 1236 C 116.996 -2.84726 -4.35002 0
M  V30 1237 C 114.681 -2.17832 -4.52609 0
M  V30 1238 C 116.675 -4.08945 -4.8892 0
M  V30 1239 C 114.362 -3.42304 -5.06232 0
M  V30 1240 C 115.36 -4.37677 -5.24335 0
M  V30 1241 O 115.048 -5.59946 -5.76815 0
M  V30 1242 H 114.78 -0.181327 -0.651227 0
M  V30 1243 H 117.334 -1.14713 -1.70382 0
M  V30 1244 H 115.564 0.221997 -3.86062 0
M  V30 1245 H 117.253 -0.148366 -4.05629 0
M  V30 1246 H 118.019 -2.63174 -4.07388 0
M  V30 1247 H 113.898 -1.44385 -4.37806 0
M  V30 1248 H 117.442 -4.83396 -5.02966 0
M  V30 1249 H 113.339 -3.63709 -5.33278 0
M  V30 1250 H 114.107 -5.61838 -5.95214 0
M  V30 1251 N 116.77 1.45427 -0.607355 0
M  V30 1252 C 118.016 2.0254 -0.102607 0
M  V30 1253 C 118.349 1.47478 1.26348 0
M  V30 1254 O 117.624 0.64939 1.83339 0
M  V30 1255 C 117.907 3.60044 -0.0634347 0
M  V30 1256 C 117.76 4.2544 -1.46017 0
M  V30 1257 C 119.079 4.35646 0.624514 0
M  V30 1258 H 116.198 0.73598 -0.0387607 0
M  V30 1259 H 118.84 1.73284 -0.779282 0
M  V30 1260 H 116.99 3.85101 0.512808 0
M  V30 1261 H 118.662 4.11569 -2.08347 0
M  V30 1262 H 116.905 3.83849 -2.02094 0
M  V30 1263 H 117.576 5.34342 -1.385 0
M  V30 1264 H 120.052 4.15882 0.134723 0
M  V30 1265 H 118.928 5.45376 0.621028 0
M  V30 1266 H 119.189 4.08501 1.69055 0
M  V30 1267 N 118.248 0.346503 1.53744 0
M  V30 1268 C 119.178 -0.501193 2.28058 0
M  V30 1269 C 120.159 -1.10014 1.29734 0
M  V30 1270 O 121.344 -1.12097 1.58581 0
M  V30 1271 C 118.474 -1.65078 3.05559 0
M  V30 1272 C 117.428 -1.18003 4.11411 0
M  V30 1273 C 116.754 -2.41837 4.76884 0
M  V30 1274 C 118.054 -0.278394 5.21558 0
M  V30 1275 H 119.748 0.11875 2.99164 0
M  V30 1276 H 117.294 0.0585531 1.43881 0
M  V30 1277 H 119.247 -2.25028 3.56287 0
M  V30 1278 H 117.971 -2.29767 2.32109 0
M  V30 1279 H 116.63 -0.603331 3.61601 0
M  V30 1280 H 116.278 -3.0494 4.00026 0
M  V30 1281 H 115.978 -2.1102 5.48402 0
M  V30 1282 H 117.502 -3.02508 5.30397 0
M  V30 1283 H 118.916 -0.784823 5.67903 0
M  V30 1284 H 117.313 -0.0619707 6.00068 0
M  V30 1285 H 118.383 0.684677 4.80042 0
M  V30 1286 N 119.726 -1.57421 0.075193 0
M  V30 1287 C 120.954 -1.97946 -0.602076 0
M  V30 1288 C 121.369 -0.953674 -1.62943 0
M  V30 1289 O 120.726 0.0592551 -1.82404 0
M  V30 1290 C 120.777 -3.38546 -1.26762 0
M  V30 1291 O 120.498 -4.37195 -0.281376 0
M  V30 1292 C 121.999 -3.93966 -2.03239 0
M  V30 1293 H 119.219 -0.650918 -0.162931 0
M  V30 1294 H 121.763 -2.03959 0.148601 0
M  V30 1295 H 119.918 -3.33609 -1.96936 0
M  V30 1296 H 120.332 -5.18975 -0.759267 0
M  V30 1297 H 121.806 -4.94555 -2.45193 0
M  V30 1298 H 122.283 -3.30693 -2.8903 0
M  V30 1299 H 122.889 -4.02315 -1.37924 0
M  V30 1300 N 121.204 0.198386 -1.56346 0
M  V30 1301 C 122.452 0.91747 -1.80075 0
M  V30 1302 C 122.773 1.83929 -0.647692 0
M  V30 1303 O 122.043 1.93029 0.334166 0
M  V30 1304 H 120.623 0.341774 -0.664228 0
M  V30 1305 H 123.285 0.204684 -1.93822 0
M  V30 1306 H 122.381 1.51055 -2.7311 0
M  V30 1307 N 122.682 1.50554 0.465978 0
M  V30 1308 C 123.912 1.65323 1.23903 0
M  V30 1309 C 124.32 0.338051 1.86155 0
M  V30 1310 O 123.663 -0.690518 1.70228 0
M  V30 1311 C 123.725 2.69048 2.3844 0
M  V30 1312 C 123.389 4.12462 1.96784 0
M  V30 1313 C 124.386 4.98168 1.48745 0
M  V30 1314 C 122.071 4.58407 2.05349 0
M  V30 1315 C 124.065 6.27868 1.0982 0
M  V30 1316 C 121.752 5.88112 1.66035 0
M  V30 1317 C 122.75 6.72668 1.18349 0
M  V30 1318 O 122.438 7.99951 0.795825 0
M  V30 1319 H 122.17 0.558629 0.38067 0
M  V30 1320 H 124.724 1.97561 0.562022 0
M  V30 1321 H 122.954 2.32062 3.09328 0
M  V30 1322 H 124.643 2.72985 3.0039 0
M  V30 1323 H 125.409 4.63885 1.41546 0
M  V30 1324 H 121.288 3.92735 2.41414 0
M  V30 1325 H 124.832 6.93819 0.725293 0
M  V30 1326 H 120.729 6.21914 1.72895 0
M  V30 1327 H 121.497 8.13265 0.924222 0
M  V30 1328 N 124.16 -0.719506 1.40217 0
M  V30 1329 C 125.388 -1.50864 1.41589 0
M  V30 1330 C 125.803 -1.88794 0.0145275 0
M  V30 1331 O 125.16 -1.55174 -0.960594 0
M  V30 1332 C 125.211 -2.78646 2.30302 0
M  V30 1333 O 124.932 -2.42321 3.64983 0
M  V30 1334 C 126.433 -3.72569 2.40224 0
M  V30 1335 H 123.653 -0.465709 0.48307 0
M  V30 1336 H 126.197 -0.88785 1.84221 0
M  V30 1337 H 124.352 -3.37019 1.91042 0
M  V30 1338 H 124.766 -3.24514 4.12057 0
M  V30 1339 H 126.24 -4.5908 3.06512 0
M  V30 1340 H 126.717 -4.15403 1.42608 0
M  V30 1341 H 127.323 -3.20109 2.80019 0
M  V30 1342 N 125.638 -1.25649 -0.95132 0
M  V30 1343 C 127.054 -1.02542 -1.223 0
M  V30 1344 C 127.254 0.255715 -1.99871 0
M  V30 1345 O 126.31 0.967558 -2.33226 0
M  V30 1346 C 127.623 -2.25065 -1.99415 0
M  V30 1347 C 129.171 -2.29861 -2.12446 0
M  V30 1348 C 129.646 -3.52048 -2.92961 0
M  V30 1349 N 131.137 -3.52465 -3.00538 0
M  V30 1350 C 131.872 -4.43672 -3.63239 0
M  V30 1351 N 131.368 -5.45157 -4.27523 0
M  V30 1352 N 133.161 -4.31346 -3.60412 0
M  V30 1353 H 125.312 -2.07951 -0.432471 0
M  V30 1354 H 127.575 -0.91339 -0.253816 0
M  V30 1355 H 127.281 -3.18194 -1.49817 0
M  V30 1356 H 127.155 -2.28502 -3.00111 0
M  V30 1357 H 129.542 -1.37252 -2.61239 0
M  V30 1358 H 129.623 -2.3044 -1.11044 0
M  V30 1359 H 129.267 -4.44981 -2.44856 0
M  V30 1360 H 129.197 -3.48715 -3.94596 0
M  V30 1361 H 131.688 -2.79056 -2.54826 0
M  V30 1362 H 132.001 -6.10958 -4.73234 0
M  V30 1363 H 130.346 -5.49025 -4.26141 0
M  V30 1364 H 133.537 -3.51288 -3.09377 0
M  V30 1365 H 133.71 -5.02624 -4.0899 0
M  V30 1366 N 127.117 1.15442 -1.07289 0
M  V30 1367 C 128.394 1.82306 -0.708792 0
M  V30 1368 C 128.774 1.94991 0.808807 0
M  V30 1369 O 128.122 1.50085 1.72298 0
M  V30 1370 C 128.332 3.18695 -1.42247 0
M  V30 1371 C 129.68 3.94341 -1.57417 0
M  V30 1372 O 130.704 3.28247 -1.38319 0
M  V30 1373 O 129.563 5.12839 -1.88834 0
M  V30 1374 H 126.657 0.787628 -0.252132 0
M  V30 1375 H 129.203 1.22559 -1.17377 0
M  V30 1376 H 127.975 3.04557 -2.45684 0
M  V30 1377 H 127.598 3.86128 -0.948223 0
M  V30 1378 N 128.595 0.856903 1.32268 0
M  V30 1379 C 129.542 0.301172 2.28827 0
M  V30 1380 C 130.512 -0.593104 1.5515 0
M  V30 1381 O 131.697 -0.527537 1.83362 0
M  V30 1382 C 128.837 -0.502523 3.41422 0
M  V30 1383 C 127.95 0.417797 4.29975 0
M  V30 1384 C 127.085 -0.398749 5.29701 0
M  V30 1385 C 126.124 0.518827 6.09897 0
M  V30 1386 N 125.261 -0.260674 7.01616 0
M  V30 1387 H 130.101 1.12983 2.75751 0
M  V30 1388 H 127.638 0.568582 1.35667 0
M  V30 1389 H 129.596 -0.984141 4.05426 0
M  V30 1390 H 128.226 -1.29599 2.95642 0
M  V30 1391 H 127.278 1.01781 3.66531 0
M  V30 1392 H 128.59 1.12191 4.86019 0
M  V30 1393 H 127.744 -0.943435 5.9932 0
M  V30 1394 H 126.483 -1.13622 4.7428 0
M  V30 1395 H 125.488 1.07538 5.39181 0
M  V30 1396 H 126.713 1.25495 6.67404 0
M  V30 1397 H 124.659 -0.981198 6.4862 0
M  V30 1398 H 124.576 0.384364 7.55022 0
M  V30 1399 H 125.844 -0.787014 7.75517 0
M  V30 1400 N 130.073 -1.45103 0.615059 0
M  V30 1401 C 131.298 -2.07064 0.117988 0
M  V30 1402 C 131.723 -1.4554 -1.19163 0
M  V30 1403 O 131.081 -0.550855 -1.72729 0
M  V30 1404 C 131.129 -3.606 -0.000288387 0
M  V30 1405 O 130.233 -3.98847 -1.04856 0
M  V30 1406 H 129.574 -0.659467 0.0774581 0
M  V30 1407 H 132.104 -1.86236 0.847186 0
M  V30 1408 H 132.114 -4.07529 -0.196091 0
M  V30 1409 H 130.789 -4.04765 0.955932 0
M  V30 1410 H 129.366 -3.63577 -0.828619 0
M  V30 1411 N 131.551 -0.354651 -1.53558 0
M  V30 1412 C 132.798 0.238443 -2.01091 0
M  V30 1413 C 133.126 1.49663 -1.24222 0
M  V30 1414 O 132.381 1.93049 -0.321003 0
M  V30 1415 C 132.68 0.587121 -3.52545 0
M  V30 1416 C 132.346 -0.575472 -4.47213 0
M  V30 1417 C 131.008 -0.894497 -4.72813 0
M  V30 1418 C 133.36 -1.35489 -5.03281 0
M  V30 1419 C 130.688 -1.99511 -5.51736 0
M  V30 1420 C 133.04 -2.44583 -5.83405 0
M  V30 1421 C 131.704 -2.77033 -6.07296 0
M  V30 1422 H 130.974 0.0872526 -0.735845 0
M  V30 1423 H 133.621 -0.484859 -1.8526 0
M  V30 1424 H 131.926 1.39129 -3.66265 0
M  V30 1425 H 133.623 1.05809 -3.86789 0
M  V30 1426 H 130.213 -0.316774 -4.27428 0
M  V30 1427 H 134.397 -1.12167 -4.83459 0
M  V30 1428 H 129.653 -2.25063 -5.68469 0
M  V30 1429 H 133.827 -3.05401 -6.25862 0
M  V30 1430 H 131.454 -3.6244 -6.68237 0
M  V30 1431 N 133.029 1.57378 -0.0835403 0
M  V30 1432 C 133.959 2.1641 0.87686 0
M  V30 1433 C 134.94 1.09429 1.30228 0
M  V30 1434 O 136.125 1.37516 1.37124 0
M  V30 1435 C 133.255 2.73517 2.14022 0
M  V30 1436 C 132.209 3.85769 1.85381 0
M  V30 1437 C 131.535 4.29529 3.18448 0
M  V30 1438 C 132.835 5.09486 1.14984 0
M  V30 1439 H 134.529 2.96914 0.385059 0
M  V30 1440 H 132.075 1.42823 0.18377 0
M  V30 1441 H 134.028 3.13463 2.81636 0
M  V30 1442 H 132.752 1.90252 2.65465 0
M  V30 1443 H 131.411 3.46345 1.20169 0
M  V30 1444 H 131.059 3.43169 3.67755 0
M  V30 1445 H 130.759 5.05204 3.00071 0
M  V30 1446 H 132.283 4.72099 3.8724 0
M  V30 1447 H 133.697 5.46674 1.72687 0
M  V30 1448 H 132.094 5.90515 1.06826 0
M  V30 1449 H 133.164 4.84724 0.130749 0
M  V30 1450 N 134.507 -0.190092 1.56449 0
M  V30 1451 C 135.47 -1.21925 1.9408 0
M  V30 1452 C 136.47 -1.38176 0.822431 0
M  V30 1453 O 137.66 -1.35903 1.08977 0
M  V30 1454 C 134.792 -2.58773 2.21922 0
M  V30 1455 H 135.985 -0.897464 2.86157 0
M  V30 1456 H 133.538 -0.43181 1.50217 0
M  V30 1457 H 134.273 -2.95998 1.32499 0
M  V30 1458 H 134.058 -2.48348 3.03424 0
M  V30 1459 H 135.548 -3.32978 2.52022 0
M  V30 1460 N 135.985 -1.50799 -0.457987 0
M  V30 1461 C 136.918 -1.65273 -1.57353 0
M  V30 1462 C 137.896 -0.500578 -1.54703 0
M  V30 1463 O 139.08 -0.721781 -1.74134 0
M  V30 1464 C 136.207 -1.64737 -2.95938 0
M  V30 1465 C 135.253 -2.8567 -3.16693 0
M  V30 1466 S 136.086 -4.46791 -2.95191 0
M  V30 1467 C 137.242 -4.48968 -4.36095 0
M  V30 1468 H 137.475 -2.59633 -1.44838 0
M  V30 1469 H 135.008 -1.40225 -0.64625 0
M  V30 1470 H 136.966 -1.65112 -3.7583 0
M  V30 1471 H 135.627 -0.715899 -3.05833 0
M  V30 1472 H 134.82 -2.81637 -4.17967 0
M  V30 1473 H 134.422 -2.8293 -2.44594 0
M  V30 1474 H 136.714 -4.23337 -5.28954 0
M  V30 1475 H 137.657 -5.50664 -4.45168 0
M  V30 1476 H 138.065 -3.78522 -4.18786 0
M  V30 1477 N 137.463 0.71206 -1.40597 0
M  V30 1478 C 138.709 1.47416 -1.39271 0
M  V30 1479 C 139.042 1.942 0.00388791 0
M  V30 1480 O 138.317 1.68403 0.973179 0
M  V30 1481 C 138.6 2.69774 -2.38525 0
M  V30 1482 C 138.453 2.28861 -3.87224 0
M  V30 1483 C 139.772 3.71939 -2.35264 0
M  V30 1484 H 136.891 0.534713 -0.5072 0
M  V30 1485 H 139.533 0.812375 -1.71757 0
M  V30 1486 H 137.683 3.26238 -2.10953 0
M  V30 1487 H 139.355 1.77852 -4.25636 0
M  V30 1488 H 137.598 1.60824 -4.02887 0
M  V30 1489 H 138.269 3.16584 -4.52193 0
M  V30 1490 H 140.745 3.25113 -2.59694 0
M  V30 1491 H 139.621 4.55186 -3.06753 0
M  V30 1492 H 139.882 4.20484 -1.36549 0
M  V30 1493 N 138.941 1.26152 0.944643 0
M  V30 1494 C 140.187 1.11657 1.69294 0
M  V30 1495 C 140.52 -0.339926 1.91202 0
M  V30 1496 O 139.795 -1.24994 1.49019 0
M  V30 1497 C 140.078 1.88236 3.06984 0
M  V30 1498 C 139.931 3.41772 2.92424 0
M  V30 1499 C 141.25 1.67343 4.07043 0
M  V30 1500 H 138.369 0.407004 0.614424 0
M  V30 1501 H 141.011 1.55106 1.09737 0
M  V30 1502 H 139.161 1.51308 3.57824 0
M  V30 1503 H 140.833 3.88433 2.48832 0
M  V30 1504 H 139.076 3.68974 2.28124 0
M  V30 1505 H 139.747 3.90579 3.90067 0
M  V30 1506 H 142.223 1.99509 3.65151 0
M  V30 1507 H 141.099 2.23346 5.01406 0
M  V30 1508 H 141.36 0.617158 4.37771 0
M  V30 1509 N 140.419 -1.14872 1.07899 0
M  V30 1510 C 141.696 -1.81928 0.71845 0
M  V30 1511 C 142.076 -1.95417 -0.798455 0
M  V30 1512 O 141.424 -1.50997 -1.715 0
M  V30 1513 C 141.634 -3.17937 1.43935 0
M  V30 1514 C 142.982 -3.93501 1.59506 0
M  V30 1515 O 144.006 -3.27509 1.40058 0
M  V30 1516 O 142.865 -5.1183 1.91551 0
M  V30 1517 H 139.959 -0.78628 0.256305 0
M  V30 1518 H 142.505 -1.21934 1.18026 0
M  V30 1519 H 141.277 -3.0325 2.47295 0
M  V30 1520 H 140.9 -3.85619 0.968687 0
M  V30 1521 N 141.898 -0.863906 -1.31812 0
M  V30 1522 C 143.147 -0.46801 -1.96195 0
M  V30 1523 C 143.46 0.983474 -1.69077 0
M  V30 1524 O 144.666 1.48523 -2.27273 0
M  V30 1525 C 143.122 -0.785995 -3.51212 0
M  V30 1526 C 142.73 -2.25383 -3.87178 0
M  V30 1527 C 144.474 -0.458274 -4.22019 0
M  V30 1528 C 142.381 -2.51455 -5.3528 0
M  V30 1529 H 141.311 -0.171283 -0.734287 0
M  V30 1530 H 143.962 -1.05597 -1.50072 0
M  V30 1531 H 142.344 -0.127359 -3.95795 0
M  V30 1532 H 143.518 -2.95502 -3.53575 0
M  V30 1533 H 141.833 -2.54698 -3.2942 0
M  V30 1534 H 144.43 -0.630369 -5.30971 0
M  V30 1535 H 144.773 0.600834 -4.11941 0
M  V30 1536 H 145.306 -1.07319 -3.8305 0
M  V30 1537 H 142.045 -3.56025 -5.50387 0
M  V30 1538 H 141.565 -1.85923 -5.70257 0
M  V30 1539 H 143.244 -2.35874 -6.02472 0
M  V30 1540 N 143.376 1.44774 -0.622745 0
M  V30 1541 C 144.622 2.0242 -0.124083 0
M  V30 1542 C 144.955 1.4881 1.24777 0
M  V30 1543 O 144.23 0.668799 1.8264 0
M  V30 1544 C 144.513 3.59957 -0.101619 0
M  V30 1545 C 144.366 4.23867 -1.50521 0
M  V30 1546 C 145.685 4.36284 0.578272 0
M  V30 1547 H 142.804 0.735528 -0.0465645 0
M  V30 1548 H 145.446 1.72447 -0.797617 0
M  V30 1549 H 143.596 3.85623 0.471934 0
M  V30 1550 H 145.268 4.09336 -2.12701 0
M  V30 1551 H 143.511 3.81684 -2.06154 0
M  V30 1552 H 144.182 5.32843 -1.4416 0
M  V30 1553 H 146.658 4.16001 0.0906057 0
M  V30 1554 H 145.534 5.46004 0.563149 0
M  V30 1555 H 145.795 4.10271 1.64713 0
M  V30 1556 N 144.854 0.36279 1.53368 0
M  V30 1557 C 145.786 -0.519668 2.23231 0
M  V30 1558 C 146.799 -1.04844 1.24546 0
M  V30 1559 O 147.988 -0.955296 1.50786 0
M  V30 1560 C 145.088 -1.72995 2.9142 0
M  V30 1561 C 144.261 -1.33316 4.16588 0
M  V30 1562 C 143.32 -2.40521 4.68013 0
M  V30 1563 O 142.346 -2.03027 5.3176 0
M  V30 1564 N 143.548 -3.72065 4.45587 0
M  V30 1565 H 146.313 0.078751 2.99597 0
M  V30 1566 H 143.874 0.187833 1.60807 0
M  V30 1567 H 145.866 -2.44184 3.22733 0
M  V30 1568 H 144.436 -2.2353 2.18525 0
M  V30 1569 H 143.656 -0.451236 3.91609 0
M  V30 1570 H 144.944 -1.04432 4.97967 0
M  V30 1571 H 144.342 -4.05304 3.94646 0
M  V30 1572 H 142.899 -4.39366 4.81457 0
M  V30 1573 N 146.332 -1.57332 0.0918853 0
M  V30 1574 C 147.242 -2.17368 -0.882505 0
M  V30 1575 C 148.258 -1.14226 -1.31257 0
M  V30 1576 O 149.434 -1.46582 -1.38115 0
M  V30 1577 C 146.499 -2.73962 -2.12476 0
M  V30 1578 C 145.56 -3.92048 -1.7492 0
M  V30 1579 C 144.793 -4.45933 -2.93223 0
M  V30 1580 O 145.016 -3.98764 -4.07852 0
M  V30 1581 O 143.95 -5.36999 -2.71875 0
M  V30 1582 H 147.776 -3.01031 -0.40172 0
M  V30 1583 H 145.361 -1.48813 -0.132291 0
M  V30 1584 H 147.243 -3.10147 -2.85283 0
M  V30 1585 H 145.918 -1.93347 -2.59613 0
M  V30 1586 H 144.825 -3.6068 -0.993025 0
M  V30 1587 H 146.158 -4.74017 -1.32548 0
M  V30 1588 N 147.81 0.181792 -1.56548 0
M  V30 1589 C 148.74 1.22765 -1.98623 0
M  V30 1590 C 149.721 1.46747 -0.860189 0
M  V30 1591 O 150.906 1.58259 -1.12551 0
M  V30 1592 C 148.036 2.56894 -2.33715 0
M  V30 1593 C 146.99 2.475 -3.49182 0
M  V30 1594 C 146.316 3.86023 -3.69986 0
M  V30 1595 C 147.616 1.98866 -4.82959 0
M  V30 1596 H 149.31 0.877942 -2.86239 0
M  V30 1597 H 146.856 0.42088 -1.37712 0
M  V30 1598 H 148.809 3.30253 -2.61746 0
M  V30 1599 H 147.533 2.93632 -1.42997 0
M  V30 1600 H 146.192 1.76596 -3.21262 0
M  V30 1601 H 145.84 4.20136 -2.76576 0
M  V30 1602 H 145.54 3.80609 -4.47672 0
M  V30 1603 H 147.064 4.60984 -4.00407 0
M  V30 1604 H 148.478 2.61992 -5.09934 0
M  V30 1605 H 146.875 2.04424 -5.64208 0
M  V30 1606 H 147.945 0.942465 -4.75653 0
M  V30 1607 N 149.288 1.51039 0.449983 0
M  V30 1608 C 150.235 1.71439 1.54523 0
M  V30 1609 C 151.205 0.555871 1.56522 0
M  V30 1610 O 152.39 0.788871 1.73728 0
M  V30 1611 C 149.53 1.83384 2.92343 0
M  V30 1612 C 148.643 3.10873 2.9997 0
M  V30 1613 C 147.778 3.13488 4.28834 0
M  V30 1614 C 146.817 4.35343 4.30282 0
M  V30 1615 N 145.954 4.35579 5.5065 0
M  V30 1616 H 150.794 2.64934 1.36433 0
M  V30 1617 H 148.331 1.31312 0.662982 0
M  V30 1618 H 150.289 1.88291 3.72293 0
M  V30 1619 H 148.919 0.933086 3.0902 0
M  V30 1620 H 147.971 3.15336 2.12761 0
M  V30 1621 H 149.283 4.00814 2.96901 0
M  V30 1622 H 148.437 3.17241 5.17149 0
M  V30 1623 H 147.176 2.21414 4.34543 0
M  V30 1624 H 146.181 4.3178 3.40362 0
M  V30 1625 H 147.406 5.28668 4.26248 0
M  V30 1626 H 145.352 3.46369 5.57104 0
M  V30 1627 H 145.269 5.19313 5.49409 0
M  V30 1628 H 146.537 4.43507 6.41032 0
M  V30 1629 N 150.766 -0.704594 1.40972 0
M  V30 1630 C 151.698 -1.82974 1.38033 0
M  V30 1631 C 152.711 -1.60305 0.283931 0
M  V30 1632 O 153.9 -1.69975 0.545042 0
M  V30 1633 C 151 -3.19578 1.12795 0
M  V30 1634 C 150.173 -3.69352 2.34302 0
M  V30 1635 C 149.232 -4.84601 2.05058 0
M  V30 1636 O 148.258 -4.96682 2.7802 0
M  V30 1637 N 149.46 -5.71194 1.03528 0
M  V30 1638 H 152.225 -1.85991 2.35005 0
M  V30 1639 H 149.786 -0.886567 1.35468 0
M  V30 1640 H 151.778 -3.9429 0.911987 0
M  V30 1641 H 150.348 -3.11642 0.24452 0
M  V30 1642 H 149.568 -2.85649 2.71659 0
M  V30 1643 H 150.856 -3.99345 3.1528 0
M  V30 1644 H 150.254 -5.64054 0.431217 0
M  V30 1645 H 148.811 -6.45843 0.879205 0
M  V30 1646 N 152.244 -1.26651 -0.937939 0
M  V30 1647 C 153.176 -1.04283 -2.04102 0
M  V30 1648 C 154.189 -0.00221014 -1.628 0
M  V30 1649 O 155.378 -0.242645 -1.76843 0
M  V30 1650 C 152.478 -0.557846 -3.34277 0
M  V30 1651 C 151.651 -1.66843 -4.04329 0
M  V30 1652 C 150.71 -1.18095 -5.12777 0
M  V30 1653 O 149.736 -1.87865 -5.37304 0
M  V30 1654 N 150.938 -0.0311006 -5.80492 0
M  V30 1655 H 153.703 -1.9927 -2.23856 0
M  V30 1656 H 151.264 -1.1808 -1.10764 0
M  V30 1657 H 153.256 -0.215836 -4.04124 0
M  V30 1658 H 151.826 0.298523 -3.11171 0
M  V30 1659 H 151.046 -2.18123 -3.28353 0
M  V30 1660 H 152.334 -2.41408 -4.47883 0
M  V30 1661 H 151.732 0.551486 -5.63005 0
M  V30 1662 H 150.289 0.251809 -6.51313 0
M  V30 1663 N 153.722 1.14298 -1.08507 0
M  V30 1664 C 154.67 2.21483 -0.710483 0
M  V30 1665 C 155.664 1.66998 0.284234 0
M  V30 1666 O 156.87 1.79401 0.146692 0
M  V30 1667 H 153.245 0.721578 -0.211729 0
M  V30 1668 H 155.216 2.50348 -1.62384 0
M  V30 1669 C 153.965 3.4743 -0.137007 0
M  V30 1670 H 153.288 3.89686 -0.893592 0
M  V30 1671 H 154.728 4.2391 0.0872789 0
M  V30 1672 C 153.187 3.17548 1.12538 0
M  V30 1673 O 153.717 3.35437 2.21009 0
M  V30 1674 N 151.923 2.71499 1.03617 0
M  V30 1675 H 151.47 2.57143 0.153403 0
M  V30 1676 H 151.428 2.51881 1.88158 0
M  V30 1677 N 155.201 0.870884 1.31352 0
M  V30 1678 C 156.612 0.534714 1.78879 0
M  V30 1679 C 156.963 -0.948423 1.71754 0
M  V30 1680 O 156.088 -1.74055 1.28584 0
M  V30 1681 C 156.683 0.963839 3.24801 0
M  V30 1682 C 155.242 0.679311 3.70219 0
M  V30 1683 C 154.389 1.15465 2.52117 0
M  V30 1684 H 157.34 1.05651 1.18421 0
M  V30 1685 H 157.361 0.286892 3.79417 0
M  V30 1686 H 156.873 2.04332 3.29955 0
M  V30 1687 H 154.974 -0.388769 3.70566 0
M  V30 1688 H 155.087 1.25698 4.62317 0
M  V30 1689 H 153.451 0.574383 2.48139 0
M  V30 1690 H 154.234 2.24157 2.60016 0
M  V30 1691 N 156.679 -1.44442 0.630414 0
M  V30 1692 C 158.095 -1.56832 0.295973 0
M  V30 1693 C 158.295 -1.61806 -1.20088 0
M  V30 1694 O 157.351 -1.5607 -1.9849 0
M  V30 1695 C 158.664 -2.84031 0.987264 0
M  V30 1696 C 160.212 -2.97742 0.96534 0
M  V30 1697 C 160.687 -4.27743 1.63708 0
M  V30 1698 N 162.178 -4.34555 1.60364 0
M  V30 1699 C 162.913 -5.33862 2.09234 0
M  V30 1700 N 162.409 -6.39578 2.66292 0
M  V30 1701 N 164.202 -5.25366 1.99867 0
M  V30 1702 H 156.353 -1.39457 1.60205 0
M  V30 1703 H 158.616 -0.668237 0.672431 0
M  V30 1704 H 158.322 -2.86338 2.04215 0
M  V30 1705 H 158.196 -3.73534 0.524588 0
M  V30 1706 H 160.583 -2.94989 -0.0810639 0
M  V30 1707 H 160.664 -2.09589 1.4665 0
M  V30 1708 H 160.308 -4.31255 2.68293 0
M  V30 1709 H 160.238 -5.14752 1.11076 0
M  V30 1710 H 162.729 -3.58772 1.18705 0
M  V30 1711 H 163.042 -7.11637 3.01317 0
M  V30 1712 H 161.387 -6.40265 2.70343 0
M  V30 1713 H 164.578 -4.41688 1.55013 0
M  V30 1714 H 164.751 -6.02606 2.38265 0
M  V30 1715 N 158.157 -0.370918 -1.53173 0
M  V30 1716 C 159.087 0.464847 -2.28826 0
M  V30 1717 C 160.068 1.07936 -1.31468 0
M  V30 1718 O 161.253 1.0956 -1.60344 0
M  V30 1719 C 158.383 1.60196 -3.08147 0
M  V30 1720 C 157.337 1.11443 -4.13237 0
M  V30 1721 C 156.663 2.3422 -4.80672 0
M  V30 1722 C 157.963 0.195384 -5.21934 0
M  V30 1723 H 159.657 -0.166329 -2.98938 0
M  V30 1724 H 157.203 -0.0814359 -1.4377 0
M  V30 1725 H 159.156 2.19332 -3.59822 0
M  V30 1726 H 157.88 2.26045 -2.35735 0
M  V30 1727 H 156.539 0.545727 -3.62515 0
M  V30 1728 H 156.187 2.98537 -4.04827 0
M  V30 1729 H 155.887 2.02269 -5.51689 0
M  V30 1730 H 157.411 2.94032 -5.35143 0
M  V30 1731 H 158.825 0.694375 -5.69079 0
M  V30 1732 H 157.222 -0.0335027 -6.00091 0
M  V30 1733 H 158.292 -0.760961 -4.78892 0
M  V30 1734 N 159.635 1.57281 -0.100228 0
M  V30 1735 C 160.881 1.94826 0.563101 0
M  V30 1736 C 161.214 0.982475 1.67514 0
M  V30 1737 O 160.489 0.0164069 1.94493 0
M  V30 1738 C 160.772 3.42453 1.11346 0
M  V30 1739 C 160.625 4.498 0.00612081 0
M  V30 1740 C 161.944 3.91506 2.01024 0
M  V30 1741 H 159.063 0.708428 0.203221 0
M  V30 1742 H 161.705 1.8922 -0.171979 0
M  V30 1743 H 159.855 3.47361 1.7399 0
M  V30 1744 H 161.527 4.57 -0.628357 0
M  V30 1745 H 159.77 4.28756 -0.659581 0
M  V30 1746 H 160.441 5.50306 0.432109 0
M  V30 1747 H 162.917 3.88784 1.48278 0
M  V30 1748 H 161.793 4.95358 2.36457 0
M  V30 1749 H 162.054 3.31099 2.92961 0
M  V30 1750 N 161.113 -0.173488 1.56642 0
M  V30 1751 C 162.343 -0.904781 1.85734 0
M  V30 1752 C 162.751 -1.76431 0.68328 0
M  V30 1753 O 162.094 -1.802 -0.356865 0
M  V30 1754 C 162.156 -1.83382 3.09211 0
M  V30 1755 C 161.82 -1.15411 4.42187 0
M  V30 1756 C 162.817 -0.520609 5.17287 0
M  V30 1757 C 160.502 -1.15151 4.88923 0
M  V30 1758 C 162.496 0.106412 6.37311 0
M  V30 1759 C 160.183 -0.520664 6.08878 0
M  V30 1760 C 161.181 0.107196 6.82916 0
M  V30 1761 O 160.869 0.728102 8.00596 0
M  V30 1762 H 160.601 -0.268408 0.62043 0
M  V30 1763 H 163.155 -0.179096 2.04618 0
M  V30 1764 H 161.385 -2.59976 2.86268 0
M  V30 1765 H 163.074 -2.43476 3.24768 0
M  V30 1766 H 163.84 -0.514606 4.82262 0
M  V30 1767 H 159.719 -1.62961 4.31236 0
M  V30 1768 H 163.263 0.597081 6.9504 0
M  V30 1769 H 159.16 -0.524242 6.43368 0
M  V30 1770 H 159.928 0.627138 8.16094 0
M  V30 1771 N 162.591 -1.51276 -0.441967 0
M  V30 1772 C 163.837 -1.63958 -1.19355 0
M  V30 1773 C 164.17 -0.352543 -1.90973 0
M  V30 1774 O 163.445 0.647627 -1.83401 0
M  V30 1775 C 163.728 -2.83979 -2.21422 0
M  V30 1776 C 163.581 -4.22646 -1.53918 0
M  V30 1777 C 164.9 -2.99521 -3.22451 0
M  V30 1778 H 162.019 -0.596709 -0.432559 0
M  V30 1779 H 164.661 -1.83748 -0.483398 0
M  V30 1780 H 162.811 -2.67237 -2.81987 0
M  V30 1781 H 164.483 -4.51045 -0.967256 0
M  V30 1782 H 162.726 -4.25558 -0.841615 0
M  V30 1783 H 163.397 -5.02609 -2.28229 0
M  V30 1784 H 165.873 -3.14944 -2.71937 0
M  V30 1785 H 164.749 -3.85072 -3.91166 0
M  V30 1786 H 165.01 -2.11391 -3.88287 0
M  V30 1787 N 164.069 0.697108 -1.41344 0
M  V30 1788 C 165.309 1.46939 -1.42085 0
M  V30 1789 C 165.673 1.9198 -0.0280397 0
M  V30 1790 O 166.874 2.6865 0.0897504 0
M  V30 1791 C 165.145 2.64985 -2.39828 0
M  V30 1792 S 166.704 3.54147 -2.59085 0
M  V30 1793 H 163.522 0.502146 -0.503359 0
M  V30 1794 H 166.124 0.813546 -1.77769 0
M  V30 1795 H 164.828 2.30098 -3.39828 0
M  V30 1796 H 164.359 3.35464 -2.05493 0
M  V30 1797 H 166.374 4.60137 -1.85711 0
M  V30 1798 N 165.547 1.27147 0.931209 0
M  V30 1799 C 166.824 1.0401 1.65654 0
M  V30 1800 C 167.204 -0.426297 2.06751 0
M  V30 1801 O 166.552 -1.40879 1.79904 0
M  V30 1802 C 166.762 1.99834 2.86125 0
M  V30 1803 C 168.11 2.29007 3.57549 0
M  V30 1804 O 169.134 1.97779 2.96246 0
M  V30 1805 O 167.993 2.82222 4.67989 0
M  V30 1806 H 165.087 0.396239 0.725895 0
M  V30 1807 H 167.633 1.38397 0.982056 0
M  V30 1808 H 166.405 2.98744 2.52721 0
M  V30 1809 H 166.028 1.65987 3.61295 0
M  V30 1810 N 167.025 -1.13721 1.09112 0
M  V30 1811 C 168.436 -1.6648 0.845068 0
M  V30 1812 C 168.787 -1.85911 -0.62701 0
M  V30 1813 O 167.912 -1.57556 -1.48341 0
M  V30 1814 C 168.507 -3.02413 1.52748 0
M  V30 1815 C 167.066 -3.52176 1.32849 0
M  V30 1816 C 166.213 -2.27492 1.58564 0
M  V30 1817 H 169.164 -0.976872 1.25072 0
M  V30 1818 H 169.185 -3.68223 0.958752 0
M  V30 1819 H 168.697 -2.88238 2.59885 0
M  V30 1820 H 166.798 -3.7156 0.278137 0
M  V30 1821 H 166.911 -4.32499 2.0611 0
M  V30 1822 H 165.275 -2.33923 1.00758 0
M  V30 1823 H 166.058 -2.15886 2.66924 0
M  V30 1824 N 168.503 -0.877838 -1.30888 0
M  V30 1825 C 169.749 -0.493426 -1.96706 0
M  V30 1826 C 170.082 0.953504 -1.6918 0
M  V30 1827 O 169.357 1.67266 -0.992594 0
M  V30 1828 C 169.64 -0.760429 -3.51979 0
M  V30 1829 C 169.493 -2.25747 -3.89048 0
M  V30 1830 C 170.812 -0.232148 -4.39487 0
M  V30 1831 H 167.931 -0.180746 -0.714493 0
M  V30 1832 H 170.573 -1.10052 -1.54882 0
M  V30 1833 H 168.723 -0.243715 -3.87735 0
M  V30 1834 H 170.395 -2.84204 -3.63354 0
M  V30 1835 H 168.638 -2.72694 -3.37373 0
M  V30 1836 H 169.309 -2.39491 -4.97341 0
M  V30 1837 H 171.785 -0.674314 -4.106 0
M  V30 1838 H 170.661 -0.448355 -5.47066 0
M  V30 1839 H 170.922 0.866297 -4.33529 0
M  V30 1840 N 169.982 1.44106 -0.638065 0
M  V30 1841 C 170.912 2.33448 0.0494287 0
M  V30 1842 C 171.893 1.48606 0.827672 0
M  V30 1843 O 173.078 1.77308 0.792173 0
M  V30 1844 C 170.208 3.31771 1.02691 0
M  V30 1845 C 169.162 4.26485 0.359823 0
M  V30 1846 C 168.488 5.14729 1.44769 0
M  V30 1847 C 169.788 5.17056 -0.738296 0
M  V30 1848 H 171.482 2.91183 -0.696636 0
M  V30 1849 H 169.028 1.40014 -0.336456 0
M  V30 1850 H 170.981 3.93161 1.51666 0
M  V30 1851 H 169.705 2.7226 1.80395 0
M  V30 1852 H 168.364 3.66437 -0.10934 0
M  V30 1853 H 168.012 4.51566 2.21578 0
M  V30 1854 H 167.712 5.78913 1.00668 0
M  V30 1855 H 169.236 5.78991 1.93911 0
M  V30 1856 H 170.65 5.72342 -0.331354 0
M  V30 1857 H 169.047 5.89879 -1.10286 0
M  V30 1858 H 170.117 4.57652 -1.60258 0
M  V30 1859 N 171.46 0.379036 1.52974 0
M  V30 1860 C 172.708 -0.206014 2.01047 0
M  V30 1861 C 173.029 -1.48175 1.26765 0
M  V30 1862 O 172.299 -1.92085 0.384743 0
M  V30 1863 H 170.879 -0.0791184 0.742798 0
M  V30 1864 H 173.541 0.508366 1.88153 0
M  V30 1865 H 172.637 -0.423501 3.09213 0
M  V30 1866 N 172.938 -1.57226 0.108567 0
M  V30 1867 C 174.215 -1.86333 -0.594939 0
M  V30 1868 C 174.595 -1.00788 -1.85486 0
M  V30 1869 O 173.943 -0.0839293 -2.28346 0
M  V30 1870 C 174.153 -3.37265 -0.897405 0
M  V30 1871 C 175.501 -4.05629 -1.25501 0
M  V30 1872 O 176.525 -3.42224 -0.987998 0
M  V30 1873 O 175.384 -5.17531 -1.75567 0
M  V30 1874 H 172.478 -0.771018 -0.2991 0
M  V30 1875 H 175.024 -1.69102 0.142283 0
M  V30 1876 H 173.796 -3.913 -0.00413806 0
M  V30 1877 H 173.419 -3.59889 -1.69014 0
M  V30 1878 N 174.416 0.165178 -1.56732 0
M  V30 1879 C 175.363 1.2044 -1.96883 0
M  V30 1880 C 176.333 1.43664 -0.833657 0
M  V30 1881 O 177.518 1.56302 -1.09427 0
M  V30 1882 C 174.658 2.53727 -2.33916 0
M  V30 1883 C 173.771 2.3783 -3.6064 0
M  V30 1884 C 172.906 3.64026 -3.86857 0
M  V30 1885 C 171.945 3.43088 -5.06909 0
M  V30 1886 N 171.082 4.61369 -5.29229 0
M  V30 1887 H 175.922 0.854996 -2.85471 0
M  V30 1888 H 173.459 0.41076 -1.41249 0
M  V30 1889 H 175.417 3.31419 -2.53411 0
M  V30 1890 H 174.047 2.8665 -1.48431 0
M  V30 1891 H 173.099 1.51282 -3.49024 0
M  V30 1892 H 174.411 2.18308 -4.4849 0
M  V30 1893 H 173.565 4.50152 -4.06753 0
M  V30 1894 H 172.304 3.86533 -2.97394 0
M  V30 1895 H 171.309 2.55349 -4.86906 0
M  V30 1896 H 172.534 3.21997 -5.97909 0
M  V30 1897 H 170.48 4.84084 -4.42718 0
M  V30 1898 H 170.397 4.44783 -6.11313 0
M  V30 1899 H 171.665 5.48761 -5.53608 0
M  V30 1900 N 175.894 1.51508 0.433938 0
M  V30 1901 C 177.14 1.65549 1.18173 0
M  V30 1902 C 177.495 0.368751 1.88833 0
M  V30 1903 O 176.788 -0.635616 1.8075 0
M  V30 1904 C 176.982 2.79928 2.22205 0
M  V30 1905 C 176.811 4.19601 1.61756 0
M  V30 1906 C 175.581 4.85489 1.40101 0
M  V30 1907 C 177.779 5.02574 1.09194 0
M  V30 1908 N 175.761 6.09266 0.752859 0
M  V30 1909 C 177.132 6.17381 0.569255 0
M  V30 1910 C 179.187 4.88079 0.984025 0
M  V30 1911 C 177.89 7.19282 -0.0507472 0
M  V30 1912 C 179.916 5.90191 0.377912 0
M  V30 1913 C 179.278 7.04272 -0.134216 0
M  V30 1914 H 175.377 0.659653 0.419979 0
M  V30 1915 H 177.961 1.88746 0.477818 0
M  V30 1916 H 176.132 2.5839 2.89982 0
M  V30 1917 H 177.864 2.83132 2.89168 0
M  V30 1918 H 174.619 4.43417 1.66369 0
M  V30 1919 H 175.043 6.75528 0.446123 0
M  V30 1920 H 179.685 4.00131 1.36583 0
M  V30 1921 H 177.403 8.06876 -0.444676 0
M  V30 1922 H 180.989 5.81045 0.296269 0
M  V30 1923 H 179.869 7.81933 -0.59585 0
M  V30 1924 N 177.372 -0.689602 1.41712 0
M  V30 1925 C 178.649 -1.44457 1.31877 0
M  V30 1926 C 179.029 -2.11039 -0.0508537 0
M  V30 1927 O 178.377 -2.02138 -1.06547 0
M  V30 1928 C 178.587 -2.45913 2.47645 0
M  V30 1929 C 179.935 -3.10991 2.89084 0
M  V30 1930 O 180.959 -2.56238 2.47428 0
M  V30 1931 O 179.818 -4.10174 3.61137 0
M  V30 1932 H 176.912 -0.64362 0.519309 0
M  V30 1933 H 179.458 -0.719576 1.53689 0
M  V30 1934 H 178.23 -1.95409 3.39015 0
M  V30 1935 H 177.853 -3.25913 2.27742 0
M  V30 1936 N 178.85 -1.27639 -0.924453 0
M  V30 1937 C 180.098 -1.13941 -1.66918 0
M  V30 1938 C 180.419 0.314589 -1.92446 0
M  V30 1939 O 179.689 1.21964 -1.53303 0
M  V30 1940 H 178.269 -0.418678 -0.618642 0
M  V30 1941 H 180.931 -1.60213 -1.10985 0
M  V30 1942 H 180.027 -1.67094 -2.63602 0
M  V30 1943 N 180.328 1.1314 -1.09713 0
M  V30 1944 C 181.238 2.22242 -0.751367 0
M  V30 1945 C 182.254 1.72224 0.247938 0
M  V30 1946 O 183.43 2.01205 0.0885463 0
M  V30 1947 C 180.495 3.46231 -0.180274 0
M  V30 1948 C 179.556 4.11125 -1.2359 0
M  V30 1949 C 178.789 5.29195 -0.691966 0
M  V30 1950 O 179.012 5.68342 0.48414 0
M  V30 1951 O 177.946 5.84214 -1.44838 0
M  V30 1952 H 181.772 2.54197 -1.66186 0
M  V30 1953 H 179.357 1.21331 -0.871735 0
M  V30 1954 H 181.239 4.21185 0.134739 0
M  V30 1955 H 179.914 3.1597 0.703185 0
M  V30 1956 H 178.821 3.37985 -1.60366 0
M  V30 1957 H 180.154 4.45524 -2.09211 0
M  V30 1958 N 181.806 0.884767 1.30421 0
M  V30 1959 C 183.054 0.502112 1.95763 0
M  V30 1960 C 183.375 -0.951815 1.70192 0
M  V30 1961 O 182.645 -1.6692 1.0254 0
M  V30 1962 H 181.225 0.182694 0.724315 0
M  V30 1963 H 183.887 1.1278 1.58955 0
M  V30 1964 H 182.983 0.672188 3.04775 0
M  V30 1965 N 183.284 -1.43765 0.645699 0
M  V30 1966 C 184.509 -2.06767 0.161883 0
M  V30 1967 C 184.934 -1.48034 -1.16049 0
M  V30 1968 O 184.292 -0.587369 -1.71522 0
M  V30 1969 C 184.34 -3.60519 0.0762003 0
M  V30 1970 O 183.444 -4.00982 -0.963721 0
M  V30 1971 H 182.785 -0.657675 0.091429 0
M  V30 1972 H 185.315 -1.84397 0.886499 0
M  V30 1973 H 185.325 -4.07853 -0.109604 0
M  V30 1974 H 184 -4.02646 1.04157 0
M  V30 1975 H 182.577 -3.65253 -0.751312 0
M  V30 1976 N 184.763 -0.387143 -1.52771 0
M  V30 1977 C 185.696 0.493123 -2.22808 0
M  V30 1978 C 186.674 1.0658 -1.22798 0
M  V30 1979 O 187.858 1.11785 -1.51777 0
M  V30 1980 C 184.985 1.68238 -2.93962 0
M  V30 1981 C 184.031 1.23515 -4.08223 0
M  V30 1982 S 184.864 0.21848 -5.35054 0
M  V30 1983 C 186.02 1.41357 -6.09729 0
M  V30 1984 H 186.253 -0.101625 -2.97126 0
M  V30 1985 H 183.786 -0.171323 -1.53447 0
M  V30 1986 H 185.744 2.36443 -3.35567 0
M  V30 1987 H 184.405 2.24842 -2.19328 0
M  V30 1988 H 183.598 2.12304 -4.57103 0
M  V30 1989 H 183.2 0.632044 -3.68621 0
M  V30 1990 H 185.492 2.34101 -6.3577 0
M  V30 1991 H 186.435 0.965736 -7.01484 0
M  V30 1992 H 186.843 1.6294 -5.40473 0
M  V30 1993 N 186.241 1.57166 -0.116904 0
M  V30 1994 C 187.471 1.99184 0.548586 0
M  V30 1995 C 187.879 0.995436 1.60897 0
M  V30 1996 O 187.222 -0.0201293 1.83689 0
M  V30 1997 C 187.284 3.37611 1.23526 0
M  V30 1998 C 186.948 4.55857 0.323077 0
M  V30 1999 C 187.945 5.18056 -0.437476 0
M  V30 2000 C 185.63 5.01751 0.234761 0
M  V30 2001 C 187.624 6.24536 -1.2741 0
M  V30 2002 C 185.311 6.08093 -0.605496 0
M  V30 2003 C 186.309 6.69352 -1.35856 0
M  V30 2004 O 185.997 7.7364 -2.18487 0
M  V30 2005 H 185.729 0.659148 0.149999 0
M  V30 2006 H 188.283 2.0443 -0.199428 0
M  V30 2007 H 186.513 3.29113 2.0303 0
M  V30 2008 H 188.202 3.63932 1.79745 0
M  V30 2009 H 188.968 4.83516 -0.379105 0
M  V30 2010 H 184.847 4.53817 0.810601 0
M  V30 2011 H 188.391 6.72281 -1.86237 0
M  V30 2012 H 184.288 6.42063 -0.665268 0
M  V30 2013 H 185.056 7.90727 -2.11406 0
M  V30 2014 N 187.719 -0.156864 1.56817 0
M  V30 2015 C 188.965 -0.872416 1.83076 0
M  V30 2016 C 189.298 -1.81261 0.697001 0
M  V30 2017 O 188.573 -1.92171 -0.30008 0
M  V30 2018 C 188.856 -1.65551 3.19789 0
M  V30 2019 C 188.709 -0.737467 4.43713 0
M  V30 2020 C 190.028 -2.62012 3.53606 0
M  V30 2021 H 187.147 -0.315715 0.665953 0
M  V30 2022 H 189.789 -0.138004 1.89498 0
M  V30 2023 H 187.939 -2.28159 3.14445 0
M  V30 2024 H 189.611 -0.123143 4.61136 0
M  V30 2025 H 187.854 -0.0464067 4.33775 0
M  V30 2026 H 188.525 -1.32122 5.35955 0
M  V30 2027 H 191.001 -2.09525 3.59497 0
M  V30 2028 H 189.877 -3.13861 4.50314 0
M  V30 2029 H 190.138 -3.42902 2.79053 0
M  V30 2030 N 189.197 -1.51736 -0.425897 0
M  V30 2031 C 190.608 -1.5732 -1.00536 0
M  V30 2032 C 190.959 -0.403537 -1.92005 0
M  V30 2033 O 190.084 0.478256 -2.11049 0
M  V30 2034 C 190.679 -2.85119 -1.8301 0
M  V30 2035 C 189.238 -2.93236 -2.35987 0
M  V30 2036 C 188.385 -2.52098 -1.15508 0
M  V30 2037 H 191.336 -1.57348 -0.206739 0
M  V30 2038 H 191.357 -2.69526 -2.68581 0
M  V30 2039 H 190.869 -3.7023 -1.16411 0
M  V30 2040 H 188.97 -2.12581 -3.06007 0
M  V30 2041 H 189.083 -3.9713 -2.68001 0
M  V30 2042 H 187.447 -2.05558 -1.50393 0
M  V30 2043 H 188.23 -3.39565 -0.505014 0
M  V30 2044 N 190.675 0.682077 -1.42076 0
M  V30 2045 C 191.585 1.82535 -1.47371 0
M  V30 2046 C 192.601 1.7017 -0.363079 0
M  V30 2047 O 193.777 1.91848 -0.612875 0
M  V30 2048 C 190.842 3.18624 -1.36674 0
M  V30 2049 C 189.903 3.42999 -2.58167 0
M  V30 2050 C 189.136 4.72595 -2.4797 0
M  V30 2051 O 189.359 5.50006 -1.5116 0
M  V30 2052 O 188.293 4.98054 -3.37974 0
M  V30 2053 H 192.119 1.81023 -2.43853 0
M  V30 2054 H 189.704 0.836887 -1.2376 0
M  V30 2055 H 191.586 3.99847 -1.33043 0
M  V30 2056 H 190.261 3.20789 -0.433138 0
M  V30 2057 H 189.168 2.61653 -2.67373 0
M  V30 2058 H 190.501 3.45659 -3.50401 0
M  V30 2059 N 192.153 1.28127 0.917671 0
M  V30 2060 C 193.43 1.05761 1.64542 0
M  V30 2061 C 193.81 -0.404344 2.07191 0
M  V30 2062 O 193.158 -1.38963 1.81388 0
M  V30 2063 C 193.368 2.02857 2.83989 0
M  V30 2064 C 194.716 2.32786 3.551 0
M  V30 2065 O 195.74 2.0091 2.94132 0
M  V30 2066 O 194.599 2.87169 4.64969 0
M  V30 2067 H 191.693 0.403916 0.721652 0
M  V30 2068 H 194.239 1.39431 0.967322 0
M  V30 2069 H 193.011 3.01407 2.49538 0
M  V30 2070 H 192.634 1.69809 3.59514 0
M  V30 2071 N 193.631 -1.12557 1.10312 0
M  V30 2072 C 194.561 -2.20341 0.772798 0
M  V30 2073 C 195.542 -1.68198 -0.25365 0
M  V30 2074 O 196.727 -1.93831 -0.119699 0
M  V30 2075 C 193.857 -3.46709 0.202443 0
M  V30 2076 C 192.811 -4.11996 1.15943 0
M  V30 2077 C 192.137 -5.328 0.450345 0
M  V30 2078 C 193.437 -4.5828 2.50552 0
M  V30 2079 H 195.131 -2.48229 1.674 0
M  V30 2080 H 192.677 -1.19308 0.806326 0
M  V30 2081 H 194.63 -4.2138 -0.0407752 0
M  V30 2082 H 193.354 -3.18245 -0.734001 0
M  V30 2083 H 192.013 -3.39305 1.38808 0
M  V30 2084 H 191.661 -5.00602 -0.490531 0
M  V30 2085 H 191.361 -5.7743 1.08851 0
M  V30 2086 H 192.885 -6.10219 0.215642 0
M  V30 2087 H 194.299 -5.2433 2.31843 0
M  V30 2088 H 192.696 -5.13683 3.10242 0
M  V30 2089 H 193.766 -3.72329 3.10643 0
M  V30 2090 N 195.109 -0.891671 -1.2995 0
M  V30 2091 C 196.039 -0.379797 -2.30391 0
M  V30 2092 C 197.02 0.540919 -1.6127 0
M  V30 2093 O 198.205 0.453352 -1.88834 0
M  V30 2094 C 195.335 0.400654 -3.44981 0
M  V30 2095 C 194.289 -0.428905 -4.25846 0
M  V30 2096 C 193.615 0.478557 -5.32554 0
M  V30 2097 C 194.915 -1.67458 -4.94727 0
M  V30 2098 H 196.609 -1.21914 -2.73454 0
M  V30 2099 H 194.155 -0.587675 -1.31462 0
M  V30 2100 H 196.108 0.769434 -4.14316 0
M  V30 2101 H 194.832 1.27371 -3.0074 0
M  V30 2102 H 193.491 -0.779911 -3.58208 0
M  V30 2103 H 193.139 1.34951 -4.84559 0
M  V30 2104 H 192.839 -0.0727433 -5.87555 0
M  V30 2105 H 194.363 0.843705 -6.04743 0
M  V30 2106 H 195.777 -1.376 -5.56542 0
M  V30 2107 H 194.174 -2.16659 -5.59624 0
M  V30 2108 H 195.244 -2.41518 -4.20473 0
M  V30 2109 N 196.587 1.43421 -0.653314 0
M  V30 2110 C 197.998 1.85065 -0.246537 0
M  V30 2111 C 198.349 1.54688 1.2069 0
M  V30 2112 O 197.474 0.995896 1.92122 0
M  V30 2113 C 198.069 3.35922 -0.440666 0
M  V30 2114 C 196.628 3.76297 -0.0882064 0
M  V30 2115 C 195.775 2.67147 -0.743484 0
M  V30 2116 H 198.726 1.33572 -0.856979 0
M  V30 2117 H 198.747 3.79204 0.313798 0
M  V30 2118 H 198.259 3.58 -1.49858 0
M  V30 2119 H 196.36 3.5983 0.96711 0
M  V30 2120 H 196.473 4.76338 -0.513738 0
M  V30 2121 H 194.837 2.54086 -0.176712 0
M  V30 2122 H 195.62 2.92053 -1.80443 0
M  V30 2123 N 198.065 0.39524 1.52563 0
M  V30 2124 C 199.311 -0.185318 2.01952 0
M  V30 2125 C 199.644 -1.45964 1.28095 0
M  V30 2126 O 198.919 -1.90689 0.38315 0
M  V30 2127 C 199.202 -0.447193 3.57312 0
M  V30 2128 C 199.055 0.842828 4.41833 0
M  V30 2129 C 200.374 -1.23529 4.22408 0
M  V30 2130 H 197.493 -0.0658788 0.73405 0
M  V30 2131 H 200.135 0.525975 1.82575 0
M  V30 2132 H 198.285 -1.05312 3.73954 0
M  V30 2133 H 199.957 1.4795 4.36931 0
M  V30 2134 H 198.2 1.45686 4.08605 0
M  V30 2135 H 198.871 0.614165 5.48573 0
M  V30 2136 H 201.347 -0.722445 4.0978 0
M  V30 2137 H 200.223 -1.38727 5.3108 0
M  V30 2138 H 200.484 -2.25213 3.80436 0
M  V30 2139 N 199.544 -1.57102 0.125237 0
M  V30 2140 C 200.774 -1.99472 -0.538015 0
M  V30 2141 C 201.182 -1.00395 -1.60366 0
M  V30 2142 O 200.525 0.0103875 -1.83697 0
M  V30 2143 C 200.587 -3.38262 -1.21734 0
M  V30 2144 C 200.251 -4.56021 -0.298897 0
M  V30 2145 C 201.248 -5.17817 0.464943 0
M  V30 2146 C 198.933 -5.01869 -0.208149 0
M  V30 2147 C 200.927 -6.23852 1.3072 0
M  V30 2148 C 198.614 -6.07763 0.637736 0
M  V30 2149 C 199.612 -6.68622 1.39403 0
M  V30 2150 O 199.3 -7.7247 2.22586 0
M  V30 2151 H 199.032 -0.659934 -0.146501 0
M  V30 2152 H 201.586 -2.04321 0.210267 0
M  V30 2153 H 199.816 -3.30185 -2.01282 0
M  V30 2154 H 201.505 -3.6488 -1.77813 0
M  V30 2155 H 202.271 -4.83308 0.404741 0
M  V30 2156 H 198.15 -4.54241 -0.786522 0
M  V30 2157 H 201.694 -6.71284 1.898 0
M  V30 2158 H 197.591 -6.41701 0.699309 0
M  V30 2159 H 198.359 -7.89595 2.15596 0
M  V30 2160 N 201.022 0.148545 -1.56898 0
M  V30 2161 C 201.969 1.18345 -1.98149 0
M  V30 2162 C 202.939 1.42772 -0.848848 0
M  V30 2163 O 204.124 1.55132 -1.11079 0
M  V30 2164 C 201.264 2.51231 -2.36594 0
M  V30 2165 C 200.377 2.33991 -3.63142 0
M  V30 2166 C 199.512 3.59902 -3.90697 0
M  V30 2167 C 198.551 3.37692 -5.1052 0
M  V30 2168 N 197.688 4.5573 -5.34092 0
M  V30 2169 H 202.528 0.82467 -2.86362 0
M  V30 2170 H 200.065 0.395756 -1.41676 0
M  V30 2171 H 202.023 3.28713 -2.56912 0
M  V30 2172 H 200.653 2.85059 -1.51463 0
M  V30 2173 H 199.705 1.47572 -3.50609 0
M  V30 2174 H 201.017 2.13539 -4.5078 0
M  V30 2175 H 200.171 4.45813 -4.11505 0
M  V30 2176 H 198.91 3.83357 -3.01477 0
M  V30 2177 H 197.915 2.5017 -4.89587 0
M  V30 2178 H 199.14 3.15637 -6.0129 0
M  V30 2179 H 197.086 4.79361 -4.47827 0
M  V30 2180 H 197.003 4.38274 -6.15996 0
M  V30 2181 H 198.271 5.42858 -5.59397 0
M  V30 2182 N 202.5 1.5196 0.417844 0
M  V30 2183 C 203.41 1.77554 1.53336 0
M  V30 2184 C 204.426 0.660655 1.6097 0
M  V30 2185 O 205.602 0.945099 1.77848 0
M  V30 2186 C 202.667 1.91291 2.89152 0
M  V30 2187 C 201.728 3.15183 2.91475 0
M  V30 2188 C 200.961 3.28256 4.20813 0
M  V30 2189 O 201.184 2.46798 5.14244 0
M  V30 2190 O 200.118 4.21356 4.29817 0
M  V30 2191 H 203.944 2.7222 1.34647 0
M  V30 2192 H 201.529 1.36698 0.602828 0
M  V30 2193 H 203.411 2.02199 3.69721 0
M  V30 2194 H 202.086 0.998129 3.07927 0
M  V30 2195 H 200.993 3.09739 2.09791 0
M  V30 2196 H 202.326 4.06414 2.77648 0
M  V30 2197 N 203.978 -0.674533 1.42435 0
M  V30 2198 C 204.925 -1.78807 1.45934 0
M  V30 2199 C 205.895 -1.63157 0.311271 0
M  V30 2200 O 207.08 -1.83707 0.515383 0
M  V30 2201 C 204.22 -3.16839 1.36773 0
M  V30 2202 C 203.333 -3.43774 2.61617 0
M  V30 2203 C 202.468 -4.71536 2.44597 0
M  V30 2204 C 201.507 -4.91505 3.64814 0
M  V30 2205 N 200.644 -6.10508 3.46734 0
M  V30 2206 H 205.484 -1.75151 2.41093 0
M  V30 2207 H 203.021 -0.85504 1.19697 0
M  V30 2208 H 204.979 -3.96606 1.29459 0
M  V30 2209 H 203.609 -3.19619 0.452089 0
M  V30 2210 H 202.661 -2.58259 2.79297 0
M  V30 2211 H 203.973 -3.54423 3.50978 0
M  V30 2212 H 203.127 -5.59393 2.3487 0
M  V30 2213 H 201.866 -4.6317 1.52726 0
M  V30 2214 H 200.871 -4.0209 3.74972 0
M  V30 2215 H 202.096 -5.01716 4.57665 0
M  V30 2216 H 200.042 -6.03315 2.5758 0
M  V30 2217 H 199.959 -6.2202 4.29682 0
M  V30 2218 H 201.227 -7.01044 3.40819 0
M  V30 2219 N 205.456 -1.28612 -0.910864 0
M  V30 2220 C 206.702 -1.16106 -1.66274 0
M  V30 2221 C 207.035 0.289113 -1.92036 0
M  V30 2222 O 206.31 1.21 -1.52281 0
M  V30 2223 C 206.593 -1.96309 -3.01885 0
M  V30 2224 C 206.446 -3.49405 -2.8326 0
M  V30 2225 C 207.765 -1.78076 -4.02463 0
M  V30 2226 H 204.884 -0.423152 -0.603417 0
M  V30 2227 H 207.526 -1.57961 -1.05586 0
M  V30 2228 H 205.676 -1.60742 -3.53687 0
M  V30 2229 H 207.348 -3.94894 -2.38446 0
M  V30 2230 H 205.591 -3.74893 -2.18261 0
M  V30 2231 H 206.262 -4.00784 -3.79574 0
M  V30 2232 H 208.738 -2.0912 -3.59733 0
M  V30 2233 H 207.614 -2.36561 -4.95308 0
M  V30 2234 H 207.875 -0.733008 -4.35981 0
M  V30 2235 N 206.934 1.1197 -1.10907 0
M  V30 2236 C 208.18 1.8386 -0.855773 0
M  V30 2237 C 208.513 1.84134 0.617103 0
M  V30 2238 O 207.788 1.29041 1.45529 0
M  V30 2239 C 208.071 3.31305 -1.411 0
M  V30 2240 C 207.924 3.39456 -2.9511 0
M  V30 2241 C 209.243 4.2721 -1.05736 0
M  V30 2242 H 206.362 0.667545 -0.312334 0
M  V30 2243 H 209.004 1.31331 -1.37303 0
M  V30 2244 H 207.154 3.76169 -0.97105 0
M  V30 2245 H 208.826 3.03191 -3.47668 0
M  V30 2246 H 207.069 2.79849 -3.31462 0
M  V30 2247 H 207.74 4.43209 -3.29044 0
M  V30 2248 H 210.216 3.90497 -1.43706 0
M  V30 2249 H 209.092 5.28775 -1.47269 0
M  V30 2250 H 209.353 4.42088 0.0325958 0
M  V30 2251 N 208.412 0.89855 1.29475 0
M  V30 2252 C 209.823 0.572537 1.77705 0
M  V30 2253 C 210.174 -0.911778 1.73727 0
M  V30 2254 O 209.299 -1.71288 1.32247 0
M  V30 2255 C 209.894 1.03252 3.22683 0
M  V30 2256 C 208.453 0.757687 3.68695 0
M  V30 2257 C 207.6 1.20787 2.49612 0
M  V30 2258 H 210.551 1.08139 1.16153 0
M  V30 2259 H 210.572 0.367307 3.78723 0
M  V30 2260 H 210.084 2.11285 3.25546 0
M  V30 2261 H 208.185 -0.310079 3.71308 0
M  V30 2262 H 208.298 1.35476 4.59547 0
M  V30 2263 H 206.662 0.626888 2.46865 0
M  V30 2264 H 207.445 2.29622 2.55203 0
M  V30 2265 N 209.89 -1.43072 0.660911 0
M  V30 2266 C 210.82 -2.33497 -0.0122829 0
M  V30 2267 C 211.801 -1.49903 -0.803925 0
M  V30 2268 O 212.986 -1.78546 -0.763864 0
M  V30 2269 C 210.116 -3.33363 -0.973994 0
M  V30 2270 C 209.07 -4.27003 -0.291928 0
M  V30 2271 C 208.396 -5.16967 -1.36562 0
M  V30 2272 C 209.696 -5.15816 0.820462 0
M  V30 2273 H 211.39 -2.90038 0.742873 0
M  V30 2274 H 208.936 -1.39461 0.358688 0
M  V30 2275 H 210.889 -3.95524 -1.45392 0
M  V30 2276 H 209.613 -2.75095 -1.7604 0
M  V30 2277 H 208.272 -3.66217 0.167623 0
M  V30 2278 H 207.92 -4.55034 -2.14366 0
M  V30 2279 H 207.62 -5.80441 -0.914454 0
M  V30 2280 H 209.144 -5.82003 -1.84675 0
M  V30 2281 H 210.558 -5.71742 0.422366 0
M  V30 2282 H 208.955 -5.8805 1.19656 0
M  V30 2283 H 210.025 -4.55045 1.67518 0
M  V30 2284 N 211.368 -0.403325 -1.52352 0
M  V30 2285 C 212.331 0.413051 -2.25447 0
M  V30 2286 C 213.331 0.978513 -1.276 0
M  V30 2287 O 214.521 0.858305 -1.51587 0
M  V30 2288 C 211.653 1.58087 -3.02029 0
M  V30 2289 H 212.846 -0.227094 -2.99039 0
M  V30 2290 H 210.399 -0.155722 -1.55522 0
M  V30 2291 H 211.134 2.25804 -2.32772 0
M  V30 2292 H 210.919 1.18195 -3.73861 0
M  V30 2293 H 212.409 2.1585 -3.57489 0
M  V30 2294 N 212.846 1.57033 -0.133567 0
M  V30 2295 C 214.123 1.87256 0.56522 0
M  V30 2296 C 214.503 1.03726 1.83859 0
M  V30 2297 O 213.851 0.120247 2.28183 0
M  V30 2298 C 214.061 3.3865 0.843636 0
M  V30 2299 C 215.409 4.07574 1.19032 0
M  V30 2300 O 216.433 3.43752 0.933429 0
M  V30 2301 O 215.292 5.20259 1.67312 0
M  V30 2302 H 212.386 0.775678 0.286796 0
M  V30 2303 H 214.932 1.68855 -0.169168 0
M  V30 2304 H 213.704 3.91257 -0.0581149 0
M  V30 2305 H 213.327 3.62532 1.63268 0
M  V30 2306 N 214.325 -0.140222 1.56975 0
M  V30 2307 C 215.574 -0.850152 1.82908 0
M  V30 2308 C 215.887 -1.82028 0.715892 0
M  V30 2309 O 217.093 -2.57485 0.861016 0
M  V30 2310 C 215.549 -1.5625 3.24213 0
M  V30 2311 C 215.157 -0.63443 4.43485 0
M  V30 2312 C 216.901 -2.25881 3.59413 0
M  V30 2313 C 214.808 -1.34879 5.75814 0
M  V30 2314 H 213.738 -0.321221 0.682153 0
M  V30 2315 H 216.389 -0.102874 1.83211 0
M  V30 2316 H 214.771 -2.35565 3.18316 0
M  V30 2317 H 215.945 0.12398 4.60633 0
M  V30 2318 H 214.26 -0.0461836 4.16374 0
M  V30 2319 H 216.857 -2.79978 4.5554 0
M  V30 2320 H 217.2 -3.02693 2.85802 0
M  V30 2321 H 217.733 -1.53477 3.67001 0
M  V30 2322 H 214.472 -0.622385 6.52539 0
M  V30 2323 H 213.992 -2.07974 5.6259 0
M  V30 2324 H 215.671 -1.88784 6.18845 0
M  V30 2325 N 215.803 -1.52179 -0.40978 0
M  V30 2326 C 217.052 -1.65434 -1.15388 0
M  V30 2327 C 217.365 -0.390056 -1.91671 0
M  V30 2328 O 218.571 -0.402399 -2.68501 0
M  V30 2329 C 217.027 -2.92279 -2.10003 0
M  V30 2330 C 216.635 -4.25813 -1.39239 0
M  V30 2331 C 218.379 -3.14897 -2.84675 0
M  V30 2332 C 216.286 -5.43782 -2.32498 0
M  V30 2333 H 215.216 -0.616267 -0.434432 0
M  V30 2334 H 217.867 -1.78666 -0.418401 0
M  V30 2335 H 216.249 -2.72744 -2.871 0
M  V30 2336 H 217.423 -4.55828 -0.675099 0
M  V30 2337 H 215.738 -4.09292 -0.766097 0
M  V30 2338 H 218.335 -4.0021 -3.54593 0
M  V30 2339 H 218.678 -2.29103 -3.47588 0
M  V30 2340 H 219.211 -3.34901 -2.14677 0
M  V30 2341 H 215.95 -6.3192 -1.74233 0
M  V30 2342 H 215.47 -5.18106 -3.02201 0
M  V30 2343 H 217.149 -5.76834 -2.93038 0
M  V30 2344 N 217.281 0.66697 -1.42791 0
M  V30 2345 C 218.509 1.45505 -1.47091 0
M  V30 2346 C 218.924 1.8861 -0.0845873 0
M  V30 2347 O 218.281 1.58632 0.90234 0
M  V30 2348 C 218.332 2.69906 -2.40485 0
M  V30 2349 O 218.053 2.28608 -3.73725 0
M  V30 2350 C 219.554 3.63396 -2.53886 0
M  V30 2351 H 216.774 0.447459 -0.500022 0
M  V30 2352 H 219.318 0.818866 -1.8739 0
M  V30 2353 H 217.473 3.29696 -2.03419 0
M  V30 2354 H 217.887 3.08997 -4.23817 0
M  V30 2355 H 219.361 4.47387 -3.2334 0
M  V30 2356 H 219.838 4.09824 -1.57927 0
M  V30 2357 H 220.444 3.09495 -2.91706 0
M  V30 2358 N 218.759 1.29093 0.90403 0
M  V30 2359 C 220.17 1.15186 1.46932 0
M  V30 2360 C 220.521 -0.254587 1.94541 0
M  V30 2361 O 219.646 -1.14972 1.83332 0
M  V30 2362 C 220.241 2.08492 2.67051 0
M  V30 2363 C 218.8 1.98621 3.19729 0
M  V30 2364 C 217.947 1.9967 1.92425 0
M  V30 2365 H 220.898 1.41641 0.715789 0
M  V30 2366 H 220.919 1.65461 3.42641 0
M  V30 2367 H 220.431 3.10847 2.3237 0
M  V30 2368 H 218.532 0.993389 3.59114 0
M  V30 2369 H 218.645 2.86068 3.8432 0
M  V30 2370 H 217.009 1.44208 2.09943 0
M  V30 2371 H 217.792 3.03721 1.60026 0
M  V30 2372 N 220.237 -1.11381 1.11499 0
M  V30 2373 C 221.185 -2.19522 0.768956 0
M  V30 2374 C 222.179 -1.67693 -0.239857 0
M  V30 2375 O 223.385 -1.79727 -0.0990755 0
M  V30 2376 H 219.76 -0.715711 0.230786 0
M  V30 2377 H 221.731 -2.45954 1.68964 0
M  V30 2378 C 220.48 -3.46945 0.229073 0
M  V30 2379 H 219.803 -3.8718 0.996596 0
M  V30 2380 H 221.243 -4.23993 0.0251441 0
M  V30 2381 C 219.702 -3.2042 -1.04079 0
M  V30 2382 O 220.232 -3.41178 -2.12038 0
M  V30 2383 N 218.438 -2.74151 -0.963823 0
M  V30 2384 H 217.985 -2.57459 -0.0851722 0
M  V30 2385 H 217.943 -2.56781 -1.81414 0
M  V30 2386 N 221.715 -0.905404 -1.28997 0
M  V30 2387 C 222.647 -0.344748 -2.26592 0
M  V30 2388 C 223.66 0.512135 -1.54535 0
M  V30 2389 O 224.849 0.328368 -1.75454 0
M  V30 2390 C 221.949 0.526587 -3.34784 0
M  V30 2391 C 221.122 -0.305871 -4.36329 0
M  V30 2392 C 220.181 0.499209 -5.23827 0
M  V30 2393 O 219.207 -0.0853004 -5.69136 0
M  V30 2394 N 220.409 1.80408 -5.51755 0
M  V30 2395 H 223.174 -1.18359 -2.75338 0
M  V30 2396 H 220.735 -0.770481 -1.42391 0
M  V30 2397 H 222.727 1.07171 -3.90252 0
M  V30 2398 H 221.297 1.26613 -2.85811 0
M  V30 2399 H 220.517 -1.0324 -3.80441 0
M  V30 2400 H 221.805 -0.875773 -5.01206 0
M  V30 2401 H 221.203 2.3016 -5.16762 0
M  V30 2402 H 219.76 2.29621 -6.10014 0
M  V30 2403 N 223.193 1.4272 -0.668489 0
M  V30 2404 C 224.44 2.01624 -0.18814 0
M  V30 2405 C 224.768 1.5282 1.20317 0
M  V30 2406 O 224.023 0.718323 1.8204 0
M  V30 2407 C 224.322 3.57021 -0.164499 0
M  V30 2408 C 223.988 4.25232 -1.49962 0
M  V30 2409 C 222.65 4.4358 -1.8652 0
M  V30 2410 C 225.002 4.63727 -2.37921 0
M  V30 2411 C 222.33 4.97694 -3.10674 0
M  V30 2412 C 224.682 5.19218 -3.6138 0
M  V30 2413 C 223.346 5.3578 -3.98115 0
M  V30 2414 H 222.616 0.737795 -0.0688454 0
M  V30 2415 H 225.263 1.70991 -0.862225 0
M  V30 2416 H 223.568 3.87285 0.593079 0
M  V30 2417 H 225.265 4.00372 0.224271 0
M  V30 2418 H 221.855 4.11306 -1.20522 0
M  V30 2419 H 226.039 4.4923 -2.10964 0
M  V30 2420 H 221.295 5.08702 -3.39164 0
M  V30 2421 H 225.469 5.4799 -4.29743 0
M  V30 2422 H 223.096 5.77475 -4.94395 0
M  V30 2423 N 224.671 0.411399 1.52136 0
M  V30 2424 C 225.581 -0.419774 2.30814 0
M  V30 2425 C 226.597 -1.0515 1.38634 0
M  V30 2426 O 227.773 -1.05252 1.71709 0
M  V30 2427 C 224.838 -1.52019 3.11594 0
M  V30 2428 C 223.899 -0.91129 4.19516 0
M  V30 2429 C 223.132 -1.95927 4.96436 0
M  V30 2430 O 223.355 -3.17775 4.73683 0
M  V30 2431 O 222.289 -1.56423 5.81219 0
M  V30 2432 H 226.115 0.221805 3.02889 0
M  V30 2433 H 223.7 0.174547 1.48377 0
M  V30 2434 H 225.582 -2.15898 3.61892 0
M  V30 2435 H 224.257 -2.14633 2.42311 0
M  V30 2436 H 223.164 -0.235157 3.7336 0
M  V30 2437 H 224.497 -0.32904 4.91099 0
M  V30 2438 N 226.149 -1.5696 0.141893 0
M  V30 2439 C 227.112 -2.15316 -0.785587 0
M  V30 2440 C 228.112 -1.09366 -1.1788 0
M  V30 2441 O 229.302 -1.35031 -1.10056 0
M  V30 2442 C 226.434 -2.71211 -2.06537 0
M  V30 2443 H 227.627 -2.98608 -0.278041 0
M  V30 2444 H 225.18 -1.5593 -0.107519 0
M  V30 2445 H 225.915 -1.91571 -2.6167 0
M  V30 2446 H 225.7 -3.4872 -1.79268 0
M  V30 2447 H 227.19 -3.16189 -2.72789 0
M  V30 2448 N 227.627 0.131896 -1.57047 0
M  V30 2449 C 228.537 1.1815 -2.02676 0
M  V30 2450 C 229.553 1.46113 -0.944824 0
M  V30 2451 O 230.729 1.57485 -1.25541 0
M  V30 2452 C 227.794 2.49139 -2.41103 0
M  V30 2453 C 226.855 2.28688 -3.63318 0
M  V30 2454 C 226.088 3.53431 -3.99903 0
M  V30 2455 O 226.311 4.60223 -3.36973 0
M  V30 2456 O 225.245 3.45198 -4.93074 0
M  V30 2457 H 229.071 0.824069 -2.92306 0
M  V30 2458 H 226.656 0.341745 -1.45439 0
M  V30 2459 H 228.538 3.26338 -2.66611 0
M  V30 2460 H 227.213 2.84382 -1.54624 0
M  V30 2461 H 226.12 1.4939 -3.42977 0
M  V30 2462 H 227.453 1.98355 -4.50462 0
M  V30 2463 N 229.106 1.52395 0.401703 0
M  V30 2464 C 230.036 1.79231 1.49661 0
M  V30 2465 C 231.017 0.643654 1.57452 0
M  V30 2466 O 232.202 0.889989 1.72606 0
M  V30 2467 C 229.332 1.94971 2.87409 0
M  V30 2468 C 228.286 3.10604 2.94465 0
M  V30 2469 C 227.612 3.11577 4.34538 0
M  V30 2470 C 228.912 4.49921 2.6527 0
M  V30 2471 H 230.606 2.70917 1.27454 0
M  V30 2472 H 228.152 1.30362 0.6117 0
M  V30 2473 H 230.105 2.12328 3.63999 0
M  V30 2474 H 228.829 0.999632 3.10926 0
M  V30 2475 H 227.488 2.93009 2.20321 0
M  V30 2476 H 227.136 2.14277 4.55076 0
M  V30 2477 H 226.836 3.89247 4.40183 0
M  V30 2478 H 228.36 3.31073 5.13053 0
M  V30 2479 H 229.774 4.67683 3.31581 0
M  V30 2480 H 228.171 5.29564 2.82281 0
M  V30 2481 H 229.241 4.57507 1.60671 0
M  V30 2482 N 230.584 -0.659388 1.43143 0
M  V30 2483 C 231.514 -1.78422 1.50625 0
M  V30 2484 C 232.495 -1.66216 0.361443 0
M  V30 2485 O 233.68 -1.85404 0.577834 0
M  V30 2486 C 230.81 -3.16815 1.42287 0
M  V30 2487 C 229.764 -3.43777 2.54954 0
M  V30 2488 C 229.09 -4.81905 2.31671 0
M  V30 2489 C 230.39 -3.39134 3.97222 0
M  V30 2490 H 232.084 -1.72417 2.44771 0
M  V30 2491 H 229.63 -0.828084 1.17808 0
M  V30 2492 H 231.583 -3.95253 1.46127 0
M  V30 2493 H 230.307 -3.23534 0.446435 0
M  V30 2494 H 228.966 -2.67707 2.50457 0
M  V30 2495 H 228.614 -4.85294 1.32284 0
M  V30 2496 H 228.314 -5.00906 3.07192 0
M  V30 2497 H 229.838 -5.62609 2.37284 0
M  V30 2498 H 231.252 -4.07518 4.03239 0
M  V30 2499 H 229.649 -3.69671 4.72719 0
M  V30 2500 H 230.719 -2.37426 4.22797 0
M  V30 2501 N 232.062 -1.29571 -0.897171 0
M  V30 2502 C 233.287 -1.20705 -1.68656 0
M  V30 2503 C 233.712 0.228582 -1.86706 0
M  V30 2504 O 233.07 1.16494 -1.3892 0
M  V30 2505 C 233.118 -1.9282 -3.04717 0
M  V30 2506 O 232.222 -1.24697 -3.93096 0
M  V30 2507 H 231.563 -0.418126 -0.515816 0
M  V30 2508 H 234.093 -1.71183 -1.12061 0
M  V30 2509 H 234.103 -2.01372 -3.54843 0
M  V30 2510 H 232.778 -2.97239 -2.90899 0
M  V30 2511 H 231.355 -1.2442 -3.51531 0
M  V30 2512 N 233.54 1.10788 -1.12088 0
M  V30 2513 C 234.788 1.8231 -0.872205 0
M  V30 2514 C 235.109 1.85419 0.603709 0
M  V30 2515 O 234.379 1.32963 1.43867 0
M  V30 2516 H 232.959 0.675137 -0.319686 0
M  V30 2517 H 235.621 1.34068 -1.41463 0
M  V30 2518 H 234.717 2.85955 -1.25045 0
M  V30 2519 N 235.018 0.912232 1.28515 0
M  V30 2520 C 236.434 0.610159 1.47476 0
M  V30 2521 C 236.634 -0.844955 1.82928 0
M  V30 2522 O 235.69 -1.62416 1.93332 0
M  V30 2523 C 237.003 1.54675 2.57868 0
M  V30 2524 C 238.551 1.55331 2.71738 0
M  V30 2525 C 239.026 2.47649 3.85272 0
M  V30 2526 N 240.517 2.45767 3.92623 0
M  V30 2527 C 241.252 3.13896 4.79851 0
M  V30 2528 N 240.748 3.9135 5.71679 0
M  V30 2529 N 242.541 3.02991 4.73448 0
M  V30 2530 H 234.692 1.85318 1.03783 0
M  V30 2531 H 236.955 0.794777 0.516753 0
M  V30 2532 H 236.661 2.5841 2.38574 0
M  V30 2533 H 236.535 1.27671 3.54937 0
M  V30 2534 H 238.922 0.52335 2.90422 0
M  V30 2535 H 239.003 1.86378 1.75205 0
M  V30 2536 H 238.647 3.50745 3.67342 0
M  V30 2537 H 238.577 2.13904 4.81199 0
M  V30 2538 H 241.068 1.89503 3.26951 0
M  V30 2539 H 241.381 4.40359 6.35062 0
M  V30 2540 H 239.726 3.95455 5.71524 0
M  V30 2541 H 242.917 2.41987 4.007 0
M  V30 2542 H 243.09 3.5636 5.41213 0
M  V30 2543 N 236.496 -1.42363 0.676048 0
M  V30 2544 C 237.443 -2.308 -0.00150904 0
M  V30 2545 C 238.413 -1.46032 -0.791444 0
M  V30 2546 O 239.598 -1.74861 -0.76344 0
M  V30 2547 C 236.738 -3.31883 -0.945919 0
M  V30 2548 C 235.851 -4.31741 -0.149675 0
M  V30 2549 C 234.986 -5.19898 -1.08995 0
M  V30 2550 C 234.025 -6.11434 -0.285465 0
M  V30 2551 N 233.162 -6.92138 -1.17851 0
M  V30 2552 H 238.002 -2.88187 0.758455 0
M  V30 2553 H 235.539 -1.41952 0.38576 0
M  V30 2554 H 237.497 -3.89019 -1.50731 0
M  V30 2555 H 236.127 -2.76093 -1.6725 0
M  V30 2556 H 235.179 -3.76713 0.528359 0
M  V30 2557 H 236.491 -4.96534 0.474866 0
M  V30 2558 H 235.645 -5.81772 -1.72123 0
M  V30 2559 H 234.384 -4.55284 -1.74837 0
M  V30 2560 H 233.389 -5.48627 0.359018 0
M  V30 2561 H 234.614 -6.78097 0.368883 0
M  V30 2562 H 232.56 -6.30152 -1.82332 0
M  V30 2563 H 232.477 -7.53542 -0.609082 0
M  V30 2564 H 233.745 -7.58499 -1.79722 0
M  V30 2565 N 237.974 -0.419461 -1.51915 0
M  V30 2566 C 239.223 0.154346 -2.01109 0
M  V30 2567 C 239.536 1.45338 -1.30905 0
M  V30 2568 O 240.742 2.10906 -1.7097 0
M  V30 2569 C 239.198 0.325615 -3.58424 0
M  V30 2570 C 238.806 -0.961934 -4.37551 0
M  V30 2571 C 240.55 0.854155 -4.15818 0
M  V30 2572 C 238.457 -0.757287 -5.86531 0
M  V30 2573 H 237.387 0.0614563 -0.751491 0
M  V30 2574 H 240.038 -0.54649 -1.75173 0
M  V30 2575 H 238.42 1.08903 -3.80731 0
M  V30 2576 H 239.594 -1.7323 -4.26999 0
M  V30 2577 H 237.909 -1.41766 -3.91524 0
M  V30 2578 H 240.506 1.02346 -5.24814 0
M  V30 2579 H 240.849 1.83172 -3.73837 0
M  V30 2580 H 241.382 0.149528 -3.97519 0
M  V30 2581 H 238.121 -1.70671 -6.32892 0
M  V30 2582 H 237.641 -0.0264061 -5.99794 0
M  V30 2583 H 239.32 -0.403482 -6.45741 0
M  V30 2584 N 239.452 1.56882 -0.150215 0
M  V30 2585 C 240.402 2.13501 0.800071 0
M  V30 2586 C 241.386 1.06368 1.20726 0
M  V30 2587 O 242.578 1.32538 1.17314 0
M  V30 2588 C 239.707 2.76271 2.03787 0
M  V30 2589 C 238.793 3.90533 1.65364 0
M  V30 2590 N 239.184 4.96259 0.977794 0
M  V30 2591 C 237.482 4.013 1.94613 0
M  V30 2592 C 238.183 5.76286 0.791794 0
M  V30 2593 N 237.159 5.27163 1.32666 0
M  V30 2594 H 240.961 2.92615 0.274517 0
M  V30 2595 H 238.475 1.62319 0.0512144 0
M  V30 2596 H 240.472 3.15197 2.72867 0
M  V30 2597 H 239.132 1.98631 2.56857 0
M  V30 2598 H 240.143 5.13953 0.638193 0
M  V30 2599 H 236.82 3.3474 2.4951 0
M  V30 2600 H 238.21 6.71401 0.258894 0
M  V30 2601 N 240.93 -0.123565 1.57115 0
M  V30 2602 C 242.155 -0.850398 1.89164 0
M  V30 2603 C 242.58 -1.7286 0.741688 0
M  V30 2604 O 241.938 -1.78665 -0.307958 0
M  V30 2605 C 241.986 -1.66353 3.19936 0
M  V30 2606 O 241.09 -2.77004 3.0552 0
M  V30 2607 H 240.431 -0.235454 0.620852 0
M  V30 2608 H 242.961 -0.107335 2.04318 0
M  V30 2609 H 242.971 -2.05372 3.52543 0
M  V30 2610 H 241.646 -1.01881 4.03228 0
M  V30 2611 H 240.223 -2.41221 2.84371 0
M  V30 2612 N 242.408 -1.52605 -0.393616 0
M  V30 2613 C 243.34 -1.73303 -1.49995 0
M  V30 2614 C 244.353 -0.613473 -1.50799 0
M  V30 2615 O 245.542 -0.889049 -1.54784 0
M  V30 2616 C 242.642 -1.77245 -2.88855 0
M  V30 2617 C 241.815 -3.06483 -3.12069 0
M  V30 2618 C 240.874 -3.02033 -4.30886 0
M  V30 2619 O 239.9 -3.75907 -4.27414 0
M  V30 2620 N 241.102 -2.20897 -5.36828 0
M  V30 2621 H 243.867 -2.68756 -1.32629 0
M  V30 2622 H 241.428 -1.51036 -0.583083 0
M  V30 2623 H 243.42 -1.7178 -3.66434 0
M  V30 2624 H 241.99 -0.891993 -2.99603 0
M  V30 2625 H 241.21 -3.25474 -2.22396 0
M  V30 2626 H 242.498 -3.91947 -3.2443 0
M  V30 2627 H 241.896 -1.60336 -5.42502 0
M  V30 2628 H 240.453 -2.21275 -6.13091 0
M  V30 2629 N 243.887 0.651787 -1.4349 0
M  V30 2630 C 244.797 1.79368 -1.5121 0
M  V30 2631 C 245.813 1.69361 -0.399093 0
M  V30 2632 O 246.989 1.90505 -0.653431 0
M  V30 2633 C 244.054 3.15653 -1.43401 0
M  V30 2634 C 243.115 3.37446 -2.65384 0
M  V30 2635 C 242.348 4.67229 -2.57939 0
M  V30 2636 O 242.571 5.46676 -1.62792 0
M  V30 2637 O 241.505 4.90773 -3.48462 0
M  V30 2638 H 245.331 1.7581 -2.47638 0
M  V30 2639 H 242.916 0.810447 -1.25507 0
M  V30 2640 H 244.798 3.96935 -1.41494 0
M  V30 2641 H 243.473 3.19798 -0.501085 0
M  V30 2642 H 242.38 2.55923 -2.72863 0
M  V30 2643 H 243.713 3.38148 -3.57654 0
M  V30 2644 N 245.365 1.30045 0.890287 0
M  V30 2645 C 246.275 1.17885 2.02831 0
M  V30 2646 C 247.291 0.0999609 1.73713 0
M  V30 2647 O 248.467 0.313867 1.98939 0
M  V30 2648 C 245.532 0.866079 3.35708 0
M  V30 2649 C 244.593 2.02979 3.78283 0
M  V30 2650 C 243.826 1.73184 5.0482 0
M  V30 2651 O 244.049 0.657237 5.66601 0
M  V30 2652 O 242.983 2.58267 5.43674 0
M  V30 2653 H 246.809 2.13474 2.16015 0
M  V30 2654 H 244.394 1.09587 1.01543 0
M  V30 2655 H 246.276 0.706623 4.15433 0
M  V30 2656 H 244.951 -0.0599443 3.23644 0
M  V30 2657 H 243.858 2.24454 2.99285 0
M  V30 2658 H 245.191 2.93734 3.94944 0
M  V30 2659 N 246.843 -1.10192 1.12674 0
M  V30 2660 C 247.806 -2.14786 0.799979 0
M  V30 2661 C 248.806 -1.59711 -0.18685 0
M  V30 2662 O 249.996 -1.74156 0.0392558 0
M  V30 2663 C 247.128 -3.40374 0.189228 0
M  V30 2664 H 248.321 -2.45203 1.72671 0
M  V30 2665 H 245.874 -1.25597 0.930326 0
M  V30 2666 H 246.609 -3.15577 -0.747107 0
M  V30 2667 H 246.394 -3.81637 0.899766 0
M  V30 2668 H 247.884 -4.17594 -0.0228143 0
M  V30 2669 N 248.321 -0.919034 -1.28029 0
M  V30 2670 C 249.251 -0.428581 -2.29533 0
M  V30 2671 C 250.232 0.50659 -1.62381 0
M  V30 2672 O 251.417 0.413195 -1.89753 0
M  V30 2673 C 248.547 0.327388 -3.45753 0
M  V30 2674 C 247.501 -0.519137 -4.2484 0
M  V30 2675 C 246.827 0.365486 -5.33449 0
M  V30 2676 C 248.127 -1.77914 -4.91064 0
M  V30 2677 H 249.821 -1.27687 -2.70807 0
M  V30 2678 H 247.367 -0.615428 -1.30186 0
M  V30 2679 H 249.32 0.681378 -4.15855 0
M  V30 2680 H 248.044 1.20963 -3.03374 0
M  V30 2681 H 246.703 -0.855717 -3.56473 0
M  V30 2682 H 246.351 1.24642 -4.87312 0
M  V30 2683 H 246.051 -0.197356 -5.87268 0
M  V30 2684 H 247.575 0.715241 -6.06396 0
M  V30 2685 H 248.989 -1.49374 -5.53498 0
M  V30 2686 H 247.386 -2.2848 -5.54903 0
M  V30 2687 H 248.456 -2.50382 -4.15255 0
M  V30 2688 N 249.799 1.42003 -0.683588 0
M  V30 2689 C 251.215 1.55625 -0.353976 0
M  V30 2690 C 251.415 1.66151 1.14 0
M  V30 2691 O 250.471 1.63329 1.92561 0
M  V30 2692 C 251.784 2.80171 -1.092 0
M  V30 2693 C 253.332 2.93954 -1.07518 0
M  V30 2694 C 253.807 4.21372 -1.79471 0
M  V30 2695 N 255.298 4.28303 -1.76381 0
M  V30 2696 C 256.033 5.25729 -2.28904 0
M  V30 2697 N 255.529 6.29254 -2.89846 0
M  V30 2698 N 257.322 5.17586 -2.19228 0
M  V30 2699 H 249.473 1.33415 -1.6527 0
M  V30 2700 H 251.736 0.64282 -0.696769 0
M  V30 2701 H 251.442 2.78561 -2.14701 0
M  V30 2702 H 251.316 3.7133 -0.662862 0
M  V30 2703 H 253.703 2.95086 -0.028475 0
M  V30 2704 H 253.784 2.04002 -1.54328 0
M  V30 2705 H 253.428 4.21001 -2.84114 0
M  V30 2706 H 253.358 5.10275 -1.30104 0
M  V30 2707 H 255.849 3.54119 -1.31939 0
M  V30 2708 H 256.162 6.99964 -3.27522 0
M  V30 2709 H 254.507 6.29791 -2.93919 0
M  V30 2710 H 257.698 4.35631 -1.71299 0
M  V30 2711 H 257.871 5.93348 -2.60466 0
M  V30 2712 N 251.277 0.427512 1.51691 0
M  V30 2713 C 252.523 -0.142439 2.02299 0
M  V30 2714 C 252.856 -1.43214 1.31162 0
M  V30 2715 O 252.131 -1.89833 0.423511 0
M  V30 2716 C 252.414 -0.371301 3.58181 0
M  V30 2717 C 252.267 0.936358 4.39946 0
M  V30 2718 C 253.586 -1.14542 4.24933 0
M  V30 2719 H 250.705 -0.0502937 0.735282 0
M  V30 2720 H 253.347 0.564584 1.81418 0
M  V30 2721 H 251.497 -0.973559 3.76104 0
M  V30 2722 H 253.169 1.57184 4.33694 0
M  V30 2723 H 251.412 1.5432 4.05423 0
M  V30 2724 H 252.083 0.730388 5.47147 0
M  V30 2725 H 254.559 -0.635362 4.11221 0
M  V30 2726 H 253.435 -1.27431 5.33903 0
M  V30 2727 H 253.696 -2.17093 3.85127 0
M  V30 2728 N 252.755 -1.56801 0.158532 0
M  V30 2729 C 253.688 -2.13148 -0.815065 0
M  V30 2730 C 254.666 -1.0581 -1.23462 0
M  V30 2731 O 255.85 -1.3371 -1.32868 0
M  V30 2732 C 252.977 -2.6606 -2.09594 0
M  V30 2733 C 252.023 -3.85651 -1.82141 0
M  V30 2734 S 252.856 -5.26041 -1.00207 0
M  V30 2735 C 254.012 -5.8235 -2.29389 0
M  V30 2736 H 254.245 -2.95396 -0.335937 0
M  V30 2737 H 251.778 -1.54299 -0.0559391 0
M  V30 2738 H 253.736 -2.97195 -2.8317 0
M  V30 2739 H 252.397 -1.83921 -2.54621 0
M  V30 2740 H 251.59 -4.20958 -2.77147 0
M  V30 2741 H 251.192 -3.55338 -1.16667 0
M  V30 2742 H 253.484 -5.94485 -3.24952 0
M  V30 2743 H 254.427 -6.79688 -1.9857 0
M  V30 2744 H 254.835 -5.10675 -2.40564 0
M  V30 2745 N 254.233 0.115231 -1.57178 0
M  V30 2746 C 255.51 0.852873 -1.76027 0
M  V30 2747 C 255.89 1.97892 -0.73498 0
M  V30 2748 O 255.238 2.27232 0.24036 0
M  V30 2749 C 255.448 1.36608 -3.21153 0
M  V30 2750 C 256.796 1.81692 -3.83762 0
M  V30 2751 O 257.82 1.46278 -3.24779 0
M  V30 2752 O 256.679 2.47104 -4.87444 0
M  V30 2753 H 253.773 0.405296 -0.720877 0
M  V30 2754 H 256.319 0.0986785 -1.69413 0
M  V30 2755 H 255.091 0.558357 -3.87296 0
M  V30 2756 H 254.714 2.18287 -3.3232 0
M  V30 2757 N 255.711 1.52812 0.385517 0
M  V30 2758 C 256.644 1.72592 1.49289 0
M  V30 2759 C 257.622 0.573819 1.52138 0
M  V30 2760 O 258.806 0.80404 1.70492 0
M  V30 2761 C 255.933 1.78669 2.87741 0
M  V30 2762 C 254.979 3.00455 3.02703 0
M  V30 2763 S 255.812 4.60366 2.73538 0
M  V30 2764 C 256.968 4.69263 4.14177 0
M  V30 2765 H 257.201 2.66248 1.32285 0
M  V30 2766 H 254.734 1.43148 0.578611 0
M  V30 2767 H 256.692 1.82855 3.67524 0
M  V30 2768 H 255.353 0.861 3.02069 0
M  V30 2769 H 254.546 3.01258 4.04054 0
M  V30 2770 H 254.148 2.94278 2.30817 0
M  V30 2771 H 256.44 4.48092 5.08153 0
M  V30 2772 H 257.383 5.71276 4.18388 0
M  V30 2773 H 257.791 3.98072 4.00249 0
M  V30 2774 N 257.189 -0.644168 1.43834 0
M  V30 2775 C 258.119 -1.76814 1.52509 0
M  V30 2776 C 259.1 -1.65823 0.379052 0
M  V30 2777 O 260.285 -1.84781 0.597466 0
M  V30 2778 C 257.415 -3.15288 1.4564 0
M  V30 2779 C 256.369 -3.41053 2.58586 0
M  V30 2780 C 255.695 -4.79421 2.36769 0
M  V30 2781 C 256.995 -3.34902 4.00797 0
M  V30 2782 H 258.689 -1.69812 2.46586 0
M  V30 2783 H 256.235 -0.815542 1.1868 0
M  V30 2784 H 258.188 -3.93681 1.50311 0
M  V30 2785 H 256.912 -3.23043 0.480725 0
M  V30 2786 H 255.571 -2.65035 2.53282 0
M  V30 2787 H 255.219 -4.83863 1.37424 0
M  V30 2788 H 254.919 -4.9762 3.12487 0
M  V30 2789 H 256.443 -5.6006 2.43238 0
M  V30 2790 H 257.857 -4.03218 4.07539 0
M  V30 2791 H 256.254 -3.64637 4.76613 0
M  V30 2792 H 257.324 -2.32928 4.25291 0
M  V30 2793 N 258.668 -1.30515 -0.883378 0
M  V30 2794 C 259.618 -1.13641 -1.9766 0
M  V30 2795 C 260.602 -0.0511314 -1.60819 0
M  V30 2796 O 261.794 -0.274623 -1.74857 0
M  V30 2797 C 258.923 -0.831976 -3.33066 0
M  V30 2798 C 258.009 -1.95759 -3.76217 0
M  V30 2799 N 258.4 -3.20313 -3.9145 0
M  V30 2800 C 256.698 -1.85431 -4.05625 0
M  V30 2801 C 257.399 -3.93856 -4.2808 0
M  V30 2802 N 256.375 -3.21919 -4.38029 0
M  V30 2803 H 260.177 -2.08106 -2.07531 0
M  V30 2804 H 257.691 -1.21877 -1.0733 0
M  V30 2805 H 259.688 -0.692102 -4.11115 0
M  V30 2806 H 258.348 0.104588 -3.24532 0
M  V30 2807 H 259.359 -3.55583 -3.76538 0
M  V30 2808 H 256.036 -0.991531 -4.05555 0
M  V30 2809 H 257.426 -5.01125 -4.47575 0
M  V30 2810 N 260.146 1.09593 -1.13257 0
M  V30 2811 C 261.371 1.8604 -0.916732 0
M  V30 2812 C 261.796 1.80504 0.529146 0
M  V30 2813 O 261.154 1.18127 1.37534 0
M  V30 2814 C 261.202 3.32017 -1.40703 0
M  V30 2815 O 260.306 4.08141 -0.591153 0
M  V30 2816 H 259.647 0.576943 -0.328683 0
M  V30 2817 H 262.177 1.38405 -1.50682 0
M  V30 2818 H 262.187 3.82865 -1.4099 0
M  V30 2819 H 260.862 3.35361 -2.45979 0
M  V30 2820 H 259.439 3.67084 -0.656005 0
M  V30 2821 N 261.624 0.925811 1.2754 0
M  V30 2822 C 262.557 0.367836 2.25216 0
M  V30 2823 C 263.535 -0.534738 1.53556 0
M  V30 2824 O 264.719 -0.475672 1.824 0
M  V30 2825 C 261.846 -0.47298 3.35381 0
M  V30 2826 C 260.892 0.365898 4.24928 0
M  V30 2827 S 261.725 1.78025 5.05042 0
M  V30 2828 C 262.881 0.947068 6.18693 0
M  V30 2829 H 263.114 1.19568 2.72196 0
M  V30 2830 H 260.647 0.727867 1.36167 0
M  V30 2831 H 262.605 -0.952242 3.99303 0
M  V30 2832 H 261.266 -1.27533 2.87044 0
M  V30 2833 H 260.459 -0.277582 5.03235 0
M  V30 2834 H 260.061 0.779261 3.65792 0
M  V30 2835 H 262.353 0.182201 6.77255 0
M  V30 2836 H 263.296 1.70309 6.87314 0
M  V30 2837 H 263.704 0.489913 5.6237 0
M  V30 2838 N 263.102 -1.41638 0.69111 0
M  V30 2839 C 264.35 -2.00902 0.219758 0
M  V30 2840 C 264.671 -1.54994 -1.18329 0
M  V30 2841 O 263.941 -0.778628 -1.79762 0
M  V30 2842 H 262.521 -0.74289 0.0782558 0
M  V30 2843 H 265.183 -1.73327 0.891271 0
M  V30 2844 H 264.279 -3.11224 0.233708 0
M  V30 2845 N 264.58 -0.43555 -1.51462 0
M  V30 2846 C 265.991 0.0279871 -1.86679 0
M  V30 2847 C 266.342 1.42104 -1.35281 0
M  V30 2848 O 265.467 2.04667 -0.702878 0
M  V30 2849 C 266.062 0.0575626 -3.38751 0
M  V30 2850 C 264.621 0.465507 -3.7351 0
M  V30 2851 C 263.768 -0.342996 -2.75171 0
M  V30 2852 H 266.719 -0.651473 -1.44712 0
M  V30 2853 H 266.74 0.867421 -3.70481 0
M  V30 2854 H 266.252 -0.956448 -3.7613 0
M  V30 2855 H 264.353 1.48519 -3.41721 0
M  V30 2856 H 264.466 0.191546 -4.78717 0
M  V30 2857 H 262.83 0.198442 -2.53926 0
M  V30 2858 H 263.613 -1.35585 -3.15391 0
M  V30 2859 N 266.058 1.56714 -0.166846 0
M  V30 2860 C 267.335 1.88412 0.525373 0
M  V30 2861 C 267.715 1.07602 1.81618 0
M  V30 2862 O 267.063 0.168621 2.27877 0
M  V30 2863 C 267.273 3.40363 0.771613 0
M  V30 2864 C 268.621 4.10007 1.1036 0
M  V30 2865 O 269.645 3.45655 0.860304 0
M  V30 2866 O 268.504 5.2369 1.56239 0
M  V30 2867 H 265.598 0.781587 0.270278 0
M  V30 2868 H 268.144 1.68458 -0.204946 0
M  V30 2869 H 266.916 3.91046 -0.141093 0
M  V30 2870 H 266.539 3.65914 1.55541 0
M  V30 2871 N 267.536 -0.106894 1.57237 0
M  V30 2872 C 268.764 -0.826389 1.8968 0
M  V30 2873 C 269.179 -1.72856 0.759353 0
M  V30 2874 O 268.536 -1.80503 -0.269263 0
M  V30 2875 C 268.587 -1.64967 3.21665 0
M  V30 2876 O 268.308 -0.783804 4.31031 0
M  V30 2877 C 269.809 -2.47326 3.67892 0
M  V30 2878 H 267.029 -0.236927 0.627779 0
M  V30 2879 H 269.573 -0.0876593 2.04312 0
M  V30 2880 H 267.728 -2.34103 3.08666 0
M  V30 2881 H 268.142 -1.35284 5.06753 0
M  V30 2882 H 269.616 -3.00604 4.6297 0
M  V30 2883 H 270.093 -3.25247 2.95146 0
M  V30 2884 H 270.699 -1.83411 3.83719 0
M  V30 2885 N 269.014 -1.53014 -0.377408 0
M  V30 2886 C 270.26 -1.68872 -1.12294 0
M  V30 2887 C 270.593 -0.433224 -1.89306 0
M  V30 2888 O 269.868 0.569258 -1.85983 0
M  V30 2889 C 270.151 -2.93115 -2.09179 0
M  V30 2890 C 270.004 -4.28794 -1.35853 0
M  V30 2891 C 271.323 -3.12928 -3.09458 0
M  V30 2892 H 268.442 -0.614518 -0.406862 0
M  V30 2893 H 271.084 -1.85633 -0.40503 0
M  V30 2894 H 269.234 -2.78956 -2.70399 0
M  V30 2895 H 270.906 -4.54742 -0.775082 0
M  V30 2896 H 269.149 -4.28744 -0.660364 0
M  V30 2897 H 269.82 -5.11837 -2.06706 0
M  V30 2898 H 272.296 -3.26194 -2.58334 0
M  V30 2899 H 271.172 -4.01316 -3.74482 0
M  V30 2900 H 271.433 -2.27669 -3.78971 0
M  V30 2901 N 270.492 0.636531 -1.44174 0
M  V30 2902 C 271.738 1.39826 -1.4689 0
M  V30 2903 C 272.071 1.93947 -0.0990585 0
M  V30 2904 O 271.346 1.73325 0.882544 0
M  V30 2905 C 271.629 2.56751 -2.5249 0
M  V30 2906 C 271.482 2.08014 -3.98811 0
M  V30 2907 C 272.801 3.58946 -2.54649 0
M  V30 2908 H 269.92 0.507075 -0.53483 0
M  V30 2909 H 272.562 0.720188 -1.75822 0
M  V30 2910 H 270.712 3.14597 -2.2795 0
M  V30 2911 H 272.384 1.5504 -4.34466 0
M  V30 2912 H 270.627 1.39242 -4.10846 0
M  V30 2913 H 271.298 2.92169 -4.68339 0
M  V30 2914 H 273.774 3.1089 -2.76563 0
M  V30 2915 H 272.65 4.38286 -3.3045 0
M  V30 2916 H 272.911 4.12655 -1.58646 0
M  V30 2917 N 271.97 1.30982 0.876444 0
M  V30 2918 C 273.219 1.19658 1.62373 0
M  V30 2919 C 273.532 -0.245636 1.94052 0
M  V30 2920 O 274.738 -0.48049 2.67214 0
M  V30 2921 C 273.194 2.09433 2.92687 0
M  V30 2922 C 272.802 3.58613 2.68516 0
M  V30 2923 C 274.546 2.06893 3.70669 0
M  V30 2924 C 272.453 4.40416 3.94699 0
M  V30 2925 H 271.383 0.444268 0.609214 0
M  V30 2926 H 274.034 1.55791 0.969605 0
M  V30 2927 H 272.416 1.66191 3.59439 0
M  V30 2928 H 273.59 4.10058 2.10212 0
M  V30 2929 H 271.905 3.63063 2.03898 0
M  V30 2930 H 274.502 2.65258 4.64265 0
M  V30 2931 H 274.845 1.05448 4.02724 0
M  V30 2932 H 275.378 2.48301 3.10792 0
M  V30 2933 H 272.117 5.42591 3.67798 0
M  V30 2934 H 271.637 3.93731 4.52477 0
M  V30 2935 H 273.316 4.52294 4.62644 0
M  V30 2936 N 273.449 -1.08991 1.13837 0
M  V30 2937 C 274.677 -1.85011 0.926202 0
M  V30 2938 C 275.092 -1.8135 -0.525127 0
M  V30 2939 O 274.449 -1.21287 -1.36366 0
M  V30 2940 C 274.5 -3.32802 1.41155 0
M  V30 2941 O 274.221 -3.36444 2.80601 0
M  V30 2942 C 275.722 -4.25649 1.23847 0
M  V30 2943 H 272.942 -0.584249 0.32999 0
M  V30 2944 H 275.486 -1.37688 1.51202 0
M  V30 2945 H 273.641 -3.77536 0.868631 0
M  V30 2946 H 274.055 -4.28657 3.02248 0
M  V30 2947 H 275.529 -5.27485 1.62675 0
M  V30 2948 H 276.006 -4.38828 0.18065 0
M  V30 2949 H 276.612 -3.86735 1.76964 0
M  V30 2950 N 274.927 -0.932562 -1.27047 0
M  V30 2951 C 276.152 -0.591474 -1.98787 0
M  V30 2952 C 276.577 0.824601 -1.69062 0
M  V30 2953 O 275.935 1.5541 -0.933677 0
M  V30 2954 C 275.983 -0.829808 -3.50922 0
M  V30 2955 O 275.087 0.102266 -4.12273 0
M  V30 2956 H 274.428 -0.227185 -0.623926 0
M  V30 2957 H 276.958 -1.25314 -1.61733 0
M  V30 2958 H 276.968 -0.747292 -4.01098 0
M  V30 2959 H 275.643 -1.86201 -3.7189 0
M  V30 2960 H 274.22 -0.0305761 -3.72887 0
M  V30 2961 N 276.405 1.4127 -0.698611 0
M  V30 2962 C 277.63 2.06024 -0.238512 0
M  V30 2963 C 278.055 1.5224 1.10475 0
M  V30 2964 O 277.413 0.650623 1.69223 0
M  V30 2965 C 277.461 3.59988 -0.209952 0
M  V30 2966 O 276.565 4.04282 0.814235 0
M  V30 2967 H 275.906 0.653829 -0.115775 0
M  V30 2968 H 278.436 1.8098 -0.954326 0
M  V30 2969 H 278.446 4.07979 -0.0418436 0
M  V30 2970 H 277.121 3.98503 -1.1903 0
M  V30 2971 H 275.698 3.6779 0.615234 0
M  V30 2972 N 277.883 0.443576 1.51229 0
M  V30 2973 C 279.16 -0.181038 1.9476 0
M  V30 2974 C 279.54 -1.59523 1.38259 0
M  V30 2975 O 278.888 -2.2122 0.572198 0
M  V30 2976 C 279.098 -0.152422 3.48667 0
M  V30 2977 C 280.446 -0.354923 4.23114 0
M  V30 2978 O 281.47 -0.230257 3.55455 0
M  V30 2979 O 280.329 -0.603674 5.43156 0
M  V30 2980 H 277.423 -0.1266 0.817252 0
M  V30 2981 H 279.969 0.502004 1.62105 0
M  V30 2982 H 278.741 0.836022 3.82265 0
M  V30 2983 H 278.364 -0.878107 3.87782 0
M  V30 2984 N 279.361 -1.56624 0.175154 0
M  V30 2985 C 280.291 -2.21155 -0.749195 0
M  V30 2986 C 281.272 -1.16836 -1.23626 0
M  V30 2987 O 282.457 -1.45277 -1.28873 0
M  V30 2988 C 279.587 -2.8553 -1.97711 0
M  V30 2989 C 278.541 -3.95921 -1.62575 0
M  V30 2990 C 277.867 -4.47365 -2.92864 0
M  V30 2991 C 279.167 -5.15323 -0.850838 0
M  V30 2992 H 280.861 -2.98653 -0.211295 0
M  V30 2993 H 278.407 -1.43651 -0.100188 0
M  V30 2994 H 280.36 -3.2935 -2.62881 0
M  V30 2995 H 279.084 -2.05406 -2.53921 0
M  V30 2996 H 277.743 -3.52762 -0.997719 0
M  V30 2997 H 277.391 -3.64027 -3.47122 0
M  V30 2998 H 277.091 -5.21839 -2.70106 0
M  V30 2999 H 278.615 -4.93873 -3.59056 0
M  V30 3000 H 280.029 -5.55812 -1.40521 0
M  V30 3001 H 278.426 -5.95739 -0.722154 0
M  V30 3002 H 279.496 -4.84661 0.152082 0
M  V30 3003 N 280.839 0.0985539 -1.57292 0
M  V30 3004 C 282.25 0.653457 -1.74891 0
M  V30 3005 C 282.601 1.7929 -0.796838 0
M  V30 3006 O 281.726 2.16385 0.0254886 0
M  V30 3007 C 282.321 1.19216 -3.17133 0
M  V30 3008 C 280.88 1.69316 -3.36168 0
M  V30 3009 C 280.027 0.601294 -2.70702 0
M  V30 3010 H 282.978 -0.127497 -1.58187 0
M  V30 3011 H 282.999 2.06154 -3.19814 0
M  V30 3012 H 282.511 0.362635 -3.86402 0
M  V30 3013 H 280.612 2.5468 -2.71972 0
M  V30 3014 H 280.725 1.78853 -4.44464 0
M  V30 3015 H 279.089 1.0399 -2.32504 0
M  V30 3016 H 279.872 -0.217592 -3.4261 0
M  V30 3017 N 282.317 1.53212 0.369288 0
M  V30 3018 C 283.542 1.73423 1.1375 0
M  V30 3019 C 283.967 0.460404 1.82378 0
M  V30 3020 O 283.325 -0.585298 1.71592 0
M  V30 3021 C 283.373 2.89769 2.1463 0
M  V30 3022 O 282.477 2.58119 3.21634 0
M  V30 3023 H 281.818 0.576061 0.330227 0
M  V30 3024 H 284.348 2.00083 0.427547 0
M  V30 3025 H 284.358 3.15829 2.58294 0
M  V30 3026 H 283.033 3.8217 1.64071 0
M  V30 3027 H 281.61 2.42864 2.82969 0
M  V30 3028 N 283.795 -0.628877 1.44509 0
M  V30 3029 C 285.206 -1.21054 1.42137 0
M  V30 3030 C 285.557 -1.95715 0.137881 0
M  V30 3031 O 284.682 -2.02554 -0.761645 0
M  V30 3032 C 285.277 -2.20189 2.57493 0
M  V30 3033 C 283.836 -2.73777 2.58308 0
M  V30 3034 C 282.983 -1.48813 2.33987 0
M  V30 3035 H 285.934 -0.41942 1.53057 0
M  V30 3036 H 285.955 -3.02833 2.30375 0
M  V30 3037 H 285.467 -1.6582 3.50892 0
M  V30 3038 H 283.568 -3.32142 1.68856 0
M  V30 3039 H 283.681 -3.19662 3.56865 0
M  V30 3040 H 282.045 -1.77024 1.83124 0
M  V30 3041 H 282.828 -0.963442 3.29504 0
M  V30 3042 N 285.273 -1.31445 -0.869486 0
M  V30 3043 C 286.205 -1.14955 -1.98287 0
M  V30 3044 C 287.218 -0.0885037 -1.62559 0
M  V30 3045 O 288.407 -0.336044 -1.75308 0
M  V30 3046 C 285.507 -0.734255 -3.3085 0
M  V30 3047 C 284.68 -1.88042 -3.94917 0
M  V30 3048 C 283.739 -1.4511 -5.05796 0
M  V30 3049 O 282.765 -2.16082 -5.2659 0
M  V30 3050 N 283.967 -0.338763 -5.79511 0
M  V30 3051 H 286.732 -2.10856 -2.12979 0
M  V30 3052 H 284.293 -1.23786 -1.04349 0
M  V30 3053 H 286.285 -0.42975 -4.02412 0
M  V30 3054 H 284.855 0.133158 -3.12316 0
M  V30 3055 H 284.075 -2.35222 -3.1633 0
M  V30 3056 H 285.363 -2.6481 -4.34457 0
M  V30 3057 H 284.761 0.252274 -5.65137 0
M  V30 3058 H 283.318 -0.0937925 -6.51733 0
M  V30 3059 N 286.751 1.08385 -1.14413 0
M  V30 3060 C 287.999 1.80419 -0.910679 0
M  V30 3061 C 288.32 1.86658 0.564243 0
M  V30 3062 O 287.59 1.35985 1.41014 0
M  V30 3063 H 286.17 0.668204 -0.333934 0
M  V30 3064 H 288.832 1.31037 -1.44275 0
M  V30 3065 H 287.928 2.83238 -1.31082 0
M  V30 3066 N 288.23 0.939286 1.26551 0
M  V30 3067 C 289.455 0.602008 1.98471 0
M  V30 3068 C 289.88 -0.815624 1.69497 0
M  V30 3069 O 289.238 -1.54912 0.941905 0
M  V30 3070 C 289.286 0.848407 3.50477 0
M  V30 3071 O 288.39 -0.0804009 4.12322 0
M  V30 3072 H 287.731 0.23049 0.622712 0
M  V30 3073 H 290.261 1.2617 1.61066 0
M  V30 3074 H 290.271 0.768553 4.00696 0
M  V30 3075 H 288.946 1.88171 3.70897 0
M  V30 3076 H 287.523 0.0503508 3.72866 0
M  V30 3077 N 289.708 -1.40897 0.706093 0
M  V30 3078 C 290.656 -2.32572 0.0361893 0
M  V30 3079 C 291.65 -1.51532 -0.757266 0
M  V30 3080 O 292.856 -1.67396 -0.661703 0
M  V30 3081 H 289.231 -0.751966 -0.00709935 0
M  V30 3082 H 291.202 -2.86733 0.826249 0
M  V30 3083 C 289.951 -3.36418 -0.87854 0
M  V30 3084 H 289.274 -3.98836 -0.277401 0
M  V30 3085 H 290.714 -4.0308 -1.3154 0
M  V30 3086 C 289.173 -2.71141 -1.99961 0
M  V30 3087 O 289.703 -2.56735 -3.0895 0
M  V30 3088 N 287.909 -2.29671 -1.78043 0
M  V30 3089 H 287.456 -2.41588 -0.894042 0
M  V30 3090 H 287.414 -1.86332 -2.53235 0
M  V30 3091 N 291.186 -0.45159 -1.50991 0
M  V30 3092 C 292.416 0.108177 -2.06317 0
M  V30 3093 C 292.824 1.35774 -1.31765 0
M  V30 3094 O 292.167 1.79838 -0.374694 0
M  V30 3095 C 292.229 0.481659 -3.56259 0
M  V30 3096 C 291.893 -0.663114 -4.52163 0
M  V30 3097 C 292.89 -1.53947 -4.96585 0
M  V30 3098 C 290.575 -0.8479 -4.95092 0
M  V30 3099 C 292.569 -2.58518 -5.82621 0
M  V30 3100 C 290.256 -1.89686 -5.80915 0
M  V30 3101 C 291.254 -2.76388 -6.24579 0
M  V30 3102 O 290.942 -3.79482 -7.08695 0
M  V30 3103 H 290.674 0.00499183 -0.675982 0
M  V30 3104 H 293.228 -0.633659 -1.95381 0
M  V30 3105 H 291.458 1.27641 -3.65027 0
M  V30 3106 H 293.147 0.974233 -3.94035 0
M  V30 3107 H 293.913 -1.4083 -4.64103 0
M  V30 3108 H 289.792 -0.18258 -4.60638 0
M  V30 3109 H 293.336 -3.26224 -6.16623 0
M  V30 3110 H 289.233 -2.02817 -6.12809 0
M  V30 3111 H 290.001 -3.76234 -7.26905 0
M  V30 3112 N 292.664 1.56529 -0.183458 0
M  V30 3113 C 293.594 2.21549 0.737456 0
M  V30 3114 C 294.575 1.17489 1.23005 0
M  V30 3115 O 295.76 1.45959 1.281 0
M  V30 3116 C 292.89 2.86575 1.96194 0
M  V30 3117 C 291.844 3.96778 1.60473 0
M  V30 3118 C 291.17 4.48911 2.90487 0
M  V30 3119 C 292.47 5.15767 0.823497 0
M  V30 3120 H 294.164 2.98761 0.195453 0
M  V30 3121 H 291.71 1.43702 0.0925686 0
M  V30 3122 H 293.663 3.30739 2.61131 0
M  V30 3123 H 292.387 2.06749 2.52828 0
M  V30 3124 H 291.046 3.53286 0.978997 0
M  V30 3125 H 290.694 3.65862 3.45186 0
M  V30 3126 H 290.394 5.23265 2.67335 0
M  V30 3127 H 291.918 4.95771 3.56432 0
M  V30 3128 H 293.332 5.56549 1.37571 0
M  V30 3129 H 291.729 5.96114 0.690551 0
M  V30 3130 H 292.799 4.84574 -0.177782 0
M  V30 3131 N 294.142 -0.090211 1.57342 0
M  V30 3132 C 295.391 -0.791531 1.8552 0
M  V30 3133 C 295.704 -1.79659 0.773441 0
M  V30 3134 O 296.91 -2.54616 0.942497 0
M  V30 3135 C 295.366 -1.45856 3.2902 0
M  V30 3136 C 294.974 -0.493017 4.45279 0
M  V30 3137 C 296.718 -2.14332 3.66418 0
M  V30 3138 C 294.625 -1.16491 5.79814 0
M  V30 3139 H 293.555 -0.299356 0.692027 0
M  V30 3140 H 296.206 -0.0445343 1.83446 0
M  V30 3141 H 294.588 -2.25318 3.2565 0
M  V30 3142 H 295.762 0.270464 4.60006 0
M  V30 3143 H 294.077 0.0863061 4.16311 0
M  V30 3144 H 296.674 -2.65344 4.64216 0
M  V30 3145 H 297.017 -2.93447 2.95287 0
M  V30 3146 H 297.55 -1.41724 3.71698 0
M  V30 3147 H 294.289 -0.41447 6.54188 0
M  V30 3148 H 293.809 -1.8997 5.68921 0
M  V30 3149 H 295.488 -1.69001 6.24538 0
M  V30 3150 N 295.62 -1.53406 -0.361157 0
M  V30 3151 C 296.866 -1.70054 -1.10496 0
M  V30 3152 C 297.199 -0.453278 -1.88836 0
M  V30 3153 O 296.474 0.5495 -1.86576 0
M  V30 3154 C 296.757 -2.95317 -2.06058 0
M  V30 3155 C 296.61 -4.3021 -1.31298 0
M  V30 3156 C 297.929 -3.16193 -3.06121 0
M  V30 3157 H 295.048 -0.618799 -0.400321 0
M  V30 3158 H 297.69 -1.86052 -0.385318 0
M  V30 3159 H 295.84 -2.81809 -2.67425 0
M  V30 3160 H 297.512 -4.55538 -0.726807 0
M  V30 3161 H 295.755 -4.29421 -0.614853 0
M  V30 3162 H 296.426 -5.14 -2.01265 0
M  V30 3163 H 298.902 -3.28916 -2.5486 0
M  V30 3164 H 297.778 -4.05266 -3.70204 0
M  V30 3165 H 298.039 -2.31676 -3.76535 0
M  V30 3166 N 297.098 0.621204 -1.44841 0
M  V30 3167 C 298.028 1.74366 -1.55303 0
M  V30 3168 C 299.009 1.65199 -0.405385 0
M  V30 3169 O 300.194 1.83807 -0.626787 0
M  V30 3170 C 297.324 3.12931 -1.50637 0
M  V30 3171 C 296.278 3.36896 -2.63979 0
M  V30 3172 C 295.604 4.75594 -2.44366 0
M  V30 3173 C 296.904 3.28483 -4.06074 0
M  V30 3174 H 298.598 1.65867 -2.49256 0
M  V30 3175 H 296.144 0.796558 -1.19962 0
M  V30 3176 H 298.097 3.9124 -1.56555 0
M  V30 3177 H 296.821 3.22237 -0.532057 0
M  V30 3178 H 295.48 2.60972 -2.57467 0
M  V30 3179 H 295.128 4.81616 -1.45105 0
M  V30 3180 H 294.828 4.92586 -3.20364 0
M  V30 3181 H 296.352 5.5612 -2.52117 0
M  V30 3182 H 297.766 3.96684 -4.13902 0
M  V30 3183 H 296.163 3.57008 -4.82354 0
M  V30 3184 H 297.233 2.26133 -4.28943 0
M  V30 3185 N 298.576 1.31904 0.862503 0
M  V30 3186 C 299.824 1.21776 1.61292 0
M  V30 3187 C 300.145 -0.222413 1.93727 0
M  V30 3188 O 299.415 -1.1451 1.58947 0
M  V30 3189 H 297.995 0.447717 0.597962 0
M  V30 3190 H 300.657 1.65326 1.03215 0
M  V30 3191 H 299.753 1.7948 2.5533 0
M  V30 3192 N 300.054 -1.07777 1.14986 0
M  V30 3193 C 301.279 -1.84558 0.946213 0
M  V30 3194 C 301.704 -1.81323 -0.500362 0
M  V30 3195 O 301.062 -1.20301 -1.35637 0
M  V30 3196 C 301.11 -3.29736 1.45968 0
M  V30 3197 O 300.214 -4.07149 0.65601 0
M  V30 3198 H 299.555 -0.571641 0.33782 0
M  V30 3199 H 302.085 -1.35991 1.52865 0
M  V30 3200 H 302.095 -3.80574 1.47063 0
M  V30 3201 H 300.77 -3.31406 2.51283 0
M  V30 3202 H 299.347 -3.65994 0.714322 0
M  V30 3203 N 301.532 -0.945985 -1.26051 0
M  V30 3204 C 302.464 -0.416662 -2.25381 0
M  V30 3205 C 303.477 0.462712 -1.56086 0
M  V30 3206 O 304.666 0.272383 -1.7641 0
M  V30 3207 C 301.766 0.419812 -3.3629 0
M  V30 3208 C 300.939 -0.444531 -4.35135 0
M  V30 3209 C 299.998 0.332305 -5.2515 0
M  V30 3210 O 299.024 -0.266324 -5.68577 0
M  V30 3211 N 300.226 1.62763 -5.57215 0
M  V30 3212 H 302.991 -1.27059 -2.71433 0
M  V30 3213 H 300.552 -0.815392 -1.39868 0
M  V30 3214 H 302.544 0.947013 -3.93464 0
M  V30 3215 H 301.114 1.17456 -2.89694 0
M  V30 3216 H 300.334 -1.15291 -3.76964 0
M  V30 3217 H 301.622 -1.03478 -4.98166 0
M  V30 3218 H 301.02 2.13603 -5.23823 0
M  V30 3219 H 299.577 2.10097 -6.17011 0
M  V30 3220 N 303.011 1.40521 -0.713556 0
M  V30 3221 C 304.427 1.54839 -0.386907 0
M  V30 3222 C 304.627 1.68532 1.1045 0
M  V30 3223 O 303.683 1.67377 1.89053 0
M  V30 3224 C 304.996 2.77792 -1.15118 0
M  V30 3225 C 306.544 2.91607 -1.13729 0
M  V30 3226 C 307.019 4.1747 -1.88368 0
M  V30 3227 N 308.51 4.24466 -1.85427 0
M  V30 3228 C 309.245 5.20755 -2.40004 0
M  V30 3229 N 308.741 6.22965 -3.03129 0
M  V30 3230 N 310.534 5.1282 -2.30158 0
M  V30 3231 H 302.685 1.29879 -1.68063 0
M  V30 3232 H 304.948 0.627896 -0.710247 0
M  V30 3233 H 304.654 2.73944 -2.20561 0
M  V30 3234 H 304.528 3.6984 -0.741477 0
M  V30 3235 H 306.915 2.94959 -0.0910608 0
M  V30 3236 H 306.996 2.00682 -1.5862 0
M  V30 3237 H 306.64 4.1488 -2.9298 0
M  V30 3238 H 306.57 5.074 -1.40898 0
M  V30 3239 H 309.061 3.51241 -1.3942 0
M  V30 3240 H 309.374 6.92859 -3.42295 0
M  V30 3241 H 307.719 6.23415 -3.07212 0
M  V30 3242 H 310.91 4.31899 -1.80501 0
M  V30 3243 H 311.083 5.87689 -2.72993 0
M  V30 3244 N 304.489 0.459591 1.5075 0
M  V30 3245 C 305.905 0.113092 1.59199 0
M  V30 3246 C 306.105 -1.37951 1.46874 0
M  V30 3247 O 305.161 -2.15168 1.32132 0
M  V30 3248 C 306.474 0.653043 2.93523 0
M  V30 3249 C 308.022 0.615449 3.0689 0
M  V30 3250 C 308.497 1.13275 4.43771 0
M  V30 3251 N 309.988 1.09167 4.50152 0
M  V30 3252 C 310.723 1.46256 5.54434 0
M  V30 3253 N 310.219 1.90739 6.66026 0
M  V30 3254 N 312.012 1.37932 5.44914 0
M  V30 3255 H 304.163 1.43049 1.57005 0
M  V30 3256 H 306.426 0.590861 0.741341 0
M  V30 3257 H 306.132 1.69822 3.07983 0
M  V30 3258 H 306.006 0.0902132 3.77092 0
M  V30 3259 H 308.393 -0.420793 2.92084 0
M  V30 3260 H 308.474 1.21495 2.25106 0
M  V30 3261 H 308.118 2.16757 4.59324 0
M  V30 3262 H 308.048 0.509576 5.24129 0
M  V30 3263 H 310.539 0.76528 3.7007 0
M  V30 3264 H 310.852 2.17218 7.41644 0
M  V30 3265 H 309.197 1.94683 6.67176 0
M  V30 3266 H 312.388 1.0303 4.56621 0
M  V30 3267 H 312.561 1.67164 6.26067 0
M  V30 3268 N 305.967 -1.56429 0.191757 0
M  V30 3269 C 307.383 -1.58754 -0.164137 0
M  V30 3270 C 307.583 -1.20782 -1.61288 0
M  V30 3271 O 306.639 -0.928999 -2.34789 0
M  V30 3272 C 307.952 -3.00396 0.135195 0
M  V30 3273 C 309.5 -3.1291 0.0750351 0
M  V30 3274 C 309.975 -4.56679 0.347632 0
M  V30 3275 N 311.466 -4.62252 0.296131 0
M  V30 3276 C 312.201 -5.71379 0.480948 0
M  V30 3277 N 311.697 -6.88986 0.725933 0
M  V30 3278 N 313.49 -5.60563 0.415435 0
M  V30 3279 H 305.641 -1.79393 1.13718 0
M  V30 3280 H 307.904 -0.832414 0.453643 0
M  V30 3281 H 307.61 -3.32726 1.13958 0
M  V30 3282 H 307.484 -3.72963 -0.563773 0
M  V30 3283 H 309.871 -2.80394 -0.919948 0
M  V30 3284 H 309.952 -2.42736 0.807029 0
M  V30 3285 H 309.596 -4.89907 1.33992 0
M  V30 3286 H 309.526 -5.25039 -0.405212 0
M  V30 3287 H 312.017 -3.7773 0.113259 0
M  V30 3288 H 312.33 -7.68046 0.855857 0
M  V30 3289 H 310.675 -6.90801 0.762788 0
M  V30 3290 H 313.866 -4.67561 0.224486 0
M  V30 3291 H 314.039 -6.45551 0.562889 0
M  V30 3292 N 307.445 0.0818655 -1.57387 0
M  V30 3293 C 308.393 1.11712 -2.04018 0
M  V30 3294 C 309.387 1.40683 -0.94364 0
M  V30 3295 O 310.593 1.40209 -1.12878 0
M  V30 3296 H 306.968 0.377542 -0.650358 0
M  V30 3297 H 308.939 0.697614 -2.90131 0
M  V30 3298 C 307.688 2.42537 -2.49141 0
M  V30 3299 H 307.011 2.21092 -3.33104 0
M  V30 3300 H 308.451 3.13446 -2.85531 0
M  V30 3301 C 306.91 3.0778 -1.37014 0
M  V30 3302 O 307.44 3.95436 -0.706621 0
M  V30 3303 N 305.646 2.68242 -1.11779 0
M  V30 3304 H 305.193 1.97052 -1.65917 0
M  V30 3305 H 305.151 3.1222 -0.369594 0
M  V30 3306 N 308.923 1.53595 0.353017 0
M  V30 3307 C 310.334 1.61937 0.929153 0
M  V30 3308 C 310.685 0.494686 1.89861 0
M  V30 3309 O 309.81 -0.377017 2.1309 0
M  V30 3310 C 310.405 2.93526 1.69199 0
M  V30 3311 C 308.964 3.04161 2.21727 0
M  V30 3312 C 308.111 2.57322 1.03348 0
M  V30 3313 H 311.062 1.58155 0.131431 0
M  V30 3314 H 311.083 2.82034 2.55416 0
M  V30 3315 H 310.595 3.75362 0.986144 0
M  V30 3316 H 308.696 2.26938 2.95516 0
M  V30 3317 H 308.809 4.09465 2.48748 0
M  V30 3318 H 307.173 2.12499 1.40414 0
M  V30 3319 H 307.956 3.41588 0.342428 0
M  V30 3320 N 310.401 -0.613514 1.45168 0
M  V30 3321 C 311.364 -1.7065 1.53007 0
M  V30 3322 C 312.364 -1.5548 0.410184 0
M  V30 3323 O 313.554 -1.60656 0.673455 0
M  V30 3324 C 310.686 -3.09875 1.42093 0
M  V30 3325 H 311.879 -1.65068 2.50385 0
M  V30 3326 H 309.432 -0.828728 1.32521 0
M  V30 3327 H 310.167 -3.21039 0.458769 0
M  V30 3328 H 309.952 -3.22293 2.23315 0
M  V30 3329 H 311.442 -3.895 1.50598 0
M  V30 3330 N 311.879 -1.3236 -0.855495 0
M  V30 3331 C 313.127 -1.22629 -1.60644 0
M  V30 3332 C 313.448 0.212136 -1.93843 0
M  V30 3333 O 312.718 1.13666 -1.59552 0
M  V30 3334 H 311.298 -0.450882 -0.595579 0
M  V30 3335 H 313.96 -1.65871 -1.02337 0
M  V30 3336 H 313.056 -1.80832 -2.54374 0
M  V30 3337 N 313.357 1.07166 -1.15556 0
M  V30 3338 C 314.582 1.84053 -0.955988 0
M  V30 3339 C 315.007 1.81586 0.490739 0
M  V30 3340 O 314.365 1.21018 1.34997 0
M  V30 3341 C 314.413 3.28957 -1.47714 0
M  V30 3342 O 313.517 4.06795 -0.677593 0
M  V30 3343 H 312.858 0.569842 -0.340847 0
M  V30 3344 H 315.388 1.35178 -1.53584 0
M  V30 3345 H 315.398 3.79788 -1.4908 0
M  V30 3346 H 314.073 3.30068 -2.53037 0
M  V30 3347 H 312.65 3.6561 -0.733721 0
M  V30 3348 N 314.835 0.952656 1.25548 0
M  V30 3349 C 316.081 0.607272 1.93494 0
M  V30 3350 C 316.414 -0.853245 1.74452 0
M  V30 3351 O 315.689 -1.61194 1.08843 0
M  V30 3352 C 315.972 0.96435 3.46947 0
M  V30 3353 C 315.825 2.48045 3.75225 0
M  V30 3354 C 317.144 0.487987 4.37386 0
M  V30 3355 H 314.263 0.222096 0.702739 0
M  V30 3356 H 316.905 1.18895 1.48203 0
M  V30 3357 H 315.055 0.469361 3.85654 0
M  V30 3358 H 316.727 3.04905 3.46166 0
M  V30 3359 H 314.97 2.919 3.209 0
M  V30 3360 H 315.641 2.6808 4.82532 0
M  V30 3361 H 318.117 0.912558 4.0597 0
M  V30 3362 H 316.993 0.766547 5.43521 0
M  V30 3363 H 317.254 -0.612063 4.37843 0
M  V30 3364 N 316.313 -1.40141 0.720998 0
M  V30 3365 C 317.559 -2.01084 0.263231 0
M  V30 3366 C 317.892 -1.57052 -1.14229 0
M  V30 3367 O 317.167 -0.793027 -1.77599 0
M  V30 3368 C 317.45 -3.58401 0.349344 0
M  V30 3369 C 317.303 -4.12491 1.79363 0
M  V30 3370 C 318.622 -4.39231 -0.276351 0
M  V30 3371 H 315.741 -0.730572 0.0971228 0
M  V30 3372 H 318.383 -1.66543 0.914518 0
M  V30 3373 H 316.533 -3.87958 -0.205165 0
M  V30 3374 H 318.205 -3.93711 2.40394 0
M  V30 3375 H 316.448 -3.66576 2.31958 0
M  V30 3376 H 317.119 -5.21646 1.80524 0
M  V30 3377 H 319.595 -4.15637 0.196184 0
M  V30 3378 H 318.471 -5.48586 -0.185681 0
M  V30 3379 H 318.732 -4.20643 -1.36059 0
M  V30 3380 N 317.792 -0.46758 -1.50504 0
M  V30 3381 C 318.725 0.374324 -2.25109 0
M  V30 3382 C 319.703 0.99921 -1.28275 0
M  V30 3383 O 320.887 1.03583 -1.57489 0
M  V30 3384 C 318.014 1.52419 -3.02467 0
M  V30 3385 C 317.06 1.01702 -4.14197 0
M  V30 3386 S 317.893 -0.0654477 -5.3546 0
M  V30 3387 C 319.049 1.08837 -6.16365 0
M  V30 3388 H 319.282 -0.258983 -2.9617 0
M  V30 3389 H 316.815 -0.252421 -1.52323 0
M  V30 3390 H 318.773 2.18322 -3.47628 0
M  V30 3391 H 317.434 2.129 -2.30938 0
M  V30 3392 H 316.627 1.87776 -4.67714 0
M  V30 3393 H 316.229 0.435757 -3.71453 0
M  V30 3394 H 318.521 2.00071 -6.47285 0
M  V30 3395 H 319.464 0.592538 -7.05616 0
M  V30 3396 H 319.872 1.34061 -5.4835 0
M  V30 3397 N 319.27 1.56325 -0.20005 0
M  V30 3398 C 320.18 2.22931 0.730668 0
M  V30 3399 C 321.196 1.22997 1.23076 0
M  V30 3400 O 322.372 1.55748 1.27689 0
M  V30 3401 C 319.437 2.87948 1.93098 0
M  V30 3402 C 318.498 4.03166 1.47497 0
M  V30 3403 C 317.731 4.65073 2.61807 0
M  V30 3404 O 317.954 4.25913 3.79413 0
M  V30 3405 O 316.888 5.54452 2.34237 0
M  V30 3406 H 320.714 3.03084 0.193391 0
M  V30 3407 H 318.299 1.49371 0.0294621 0
M  V30 3408 H 320.181 3.29063 2.6324 0
M  V30 3409 H 318.856 2.10771 2.45677 0
M  V30 3410 H 317.763 3.66664 0.742201 0
M  V30 3411 H 319.096 4.82022 0.995796 0
M  V30 3412 N 320.748 -0.0735177 1.57428 0
M  V30 3413 C 322.164 -0.428264 1.53747 0
M  V30 3414 C 322.364 -1.79272 0.91998 0
M  V30 3415 O 321.42 -2.47051 0.521745 0
M  V30 3416 C 322.733 -0.370914 2.98404 0
M  V30 3417 C 324.281 -0.451224 3.0973 0
M  V30 3418 C 324.756 -0.4238 4.56035 0
M  V30 3419 N 326.247 -0.483925 4.60665 0
M  V30 3420 C 326.982 -0.484891 5.71346 0
M  V30 3421 N 326.478 -0.440775 6.91396 0
M  V30 3422 N 328.271 -0.531319 5.59583 0
M  V30 3423 H 320.422 0.819949 1.95935 0
M  V30 3424 H 322.685 0.307493 0.896745 0
M  V30 3425 H 322.391 0.564956 3.47133 0
M  V30 3426 H 322.265 -1.18176 3.5821 0
M  V30 3427 H 324.652 -1.37752 2.60976 0
M  V30 3428 H 324.733 0.388167 2.52838 0
M  V30 3429 H 324.377 0.498638 5.05446 0
M  V30 3430 H 324.307 -1.2807 5.10789 0
M  V30 3431 H 326.798 -0.522338 3.74273 0
M  V30 3432 H 327.111 -0.44539 7.71515 0
M  V30 3433 H 325.456 -0.40749 6.93804 0
M  V30 3434 H 328.647 -0.563464 4.64696 0
M  V30 3435 H 328.82 -0.528603 6.4584 0
M  V30 3436 N 322.226 -1.5378 -0.344866 0
M  V30 3437 C 323.475 -1.7018 -1.08267 0
M  V30 3438 C 323.788 -0.471 -1.89845 0
M  V30 3439 O 324.994 -0.515917 -2.66553 0
M  V30 3440 C 323.45 -3.00923 -1.97417 0
M  V30 3441 C 323.058 -4.31335 -1.21053 0
M  V30 3442 C 324.802 -3.26688 -2.71063 0
M  V30 3443 C 322.709 -5.53153 -2.09225 0
M  V30 3444 H 321.639 -0.634138 -0.407903 0
M  V30 3445 H 324.29 -1.8028 -0.342246 0
M  V30 3446 H 322.672 -2.84676 -2.75274 0
M  V30 3447 H 323.846 -4.58281 -0.481159 0
M  V30 3448 H 322.161 -4.12173 -0.591813 0
M  V30 3449 H 324.758 -4.1489 -3.37299 0
M  V30 3450 H 325.101 -2.43639 -3.37558 0
M  V30 3451 H 325.634 -3.43705 -2.0028 0
M  V30 3452 H 322.373 -6.38741 -1.47274 0
M  V30 3453 H 321.893 -5.30458 -2.79955 0
M  V30 3454 H 323.572 -5.88744 -2.68308 0
M  V30 3455 N 323.704 0.605807 -1.45491 0
M  V30 3456 C 325.12 0.926751 -1.29936 0
M  V30 3457 C 325.32 1.99896 -0.253706 0
M  V30 3458 O 324.376 2.50038 0.351737 0
M  V30 3459 C 325.689 1.36599 -2.67883 0
M  V30 3460 C 327.237 1.4801 -2.75793 0
M  V30 3461 C 327.712 1.95309 -4.14268 0
M  V30 3462 N 329.203 2.0254 -4.16571 0
M  V30 3463 C 329.938 2.40363 -5.20589 0
M  V30 3464 N 329.434 2.77143 -6.34952 0
M  V30 3465 N 331.227 2.40718 -5.07948 0
M  V30 3466 H 323.378 -0.102862 -2.12151 0
M  V30 3467 H 325.641 0.016639 -0.947854 0
M  V30 3468 H 325.347 0.652306 -3.45598 0
M  V30 3469 H 325.221 2.33215 -2.96463 0
M  V30 3470 H 327.608 2.1847 -1.98381 0
M  V30 3471 H 327.689 0.497041 -2.50925 0
M  V30 3472 H 327.333 1.25436 -4.92167 0
M  V30 3473 H 327.263 2.94532 -4.3653 0
M  V30 3474 H 329.754 1.76699 -3.34045 0
M  V30 3475 H 330.067 3.0489 -7.10114 0
M  V30 3476 H 328.412 2.74834 -6.3835 0
M  V30 3477 H 331.603 2.11392 -4.1765 0
M  V30 3478 H 331.776 2.69869 -5.89131 0
M  V30 3479 N 325.182 1.32811 0.848464 0
M  V30 3480 C 326.115 1.16601 1.96162 0
M  V30 3481 C 327.093 0.0638855 1.62474 0
M  V30 3482 O 328.277 0.224348 1.8716 0
M  V30 3483 C 325.404 0.786333 3.29446 0
M  V30 3484 C 324.45 1.89459 3.8211 0
M  V30 3485 S 325.283 3.50395 4.04949 0
M  V30 3486 C 326.439 3.14413 5.41198 0
M  V30 3487 H 326.672 2.10832 2.09612 0
M  V30 3488 H 324.205 1.17543 1.00115 0
M  V30 3489 H 326.163 0.574044 4.06466 0
M  V30 3490 H 324.824 -0.137218 3.138 0
M  V30 3491 H 324.017 1.58207 4.78526 0
M  V30 3492 H 323.619 2.06304 3.11953 0
M  V30 3493 H 325.911 2.64642 6.23675 0
M  V30 3494 H 326.854 4.09874 5.77416 0
M  V30 3495 H 327.262 2.51266 5.05495 0
M  V30 3496 N 326.66 -1.06551 1.16123 0
M  V30 3497 C 327.937 -1.76097 0.85142 0
M  V30 3498 C 328.317 -2.00802 -0.6513 0
M  V30 3499 O 327.665 -1.63302 -1.59827 0
M  V30 3500 C 327.875 -3.06384 1.67122 0
M  V30 3501 C 329.223 -3.80585 1.88255 0
M  V30 3502 O 330.247 -3.16218 1.63966 0
M  V30 3503 O 329.106 -4.96212 2.2899 0
M  V30 3504 H 326.2 -0.765102 0.313923 0
M  V30 3505 H 328.746 -1.12844 1.26745 0
M  V30 3506 H 327.518 -2.84071 2.69108 0
M  V30 3507 H 327.141 -3.77371 1.25206 0
M  V30 3508 N 328.138 -0.959301 -1.25041 0
M  V30 3509 C 329.387 -0.612254 -1.92183 0
M  V30 3510 C 329.7 0.855347 -1.75907 0
M  V30 3511 O 330.906 1.31256 -2.37664 0
M  V30 3512 C 329.362 -1.04435 -3.44414 0
M  V30 3513 C 328.97 -2.53482 -3.69393 0
M  V30 3514 C 330.714 -0.770055 -4.17457 0
M  V30 3515 C 328.621 -2.90468 -5.15153 0
M  V30 3516 H 327.551 -0.225279 -0.719559 0
M  V30 3517 H 330.202 -1.16438 -1.41825 0
M  V30 3518 H 328.584 -0.4206 -3.9376 0
M  V30 3519 H 329.758 -3.20916 -3.30681 0
M  V30 3520 H 328.073 -2.78432 -3.0962 0
M  V30 3521 H 330.67 -1.02249 -5.24832 0
M  V30 3522 H 331.013 0.293611 -4.15263 0
M  V30 3523 H 331.546 -1.35437 -3.74034 0
M  V30 3524 H 328.285 -3.95871 -5.22462 0
M  V30 3525 H 327.805 -2.27711 -5.54894 0
M  V30 3526 H 329.484 -2.79914 -5.83315 0
M  V30 3527 N 329.616 1.39756 -0.72842 0
M  V30 3528 C 331.032 1.5442 -0.403308 0
M  V30 3529 C 331.232 1.69694 1.08656 0
M  V30 3530 O 330.288 1.69373 1.87267 0
M  V30 3531 C 331.601 2.76555 -1.18058 0
M  V30 3532 C 333.149 2.90384 -1.16815 0
M  V30 3533 C 333.624 4.15449 -1.92785 0
M  V30 3534 N 335.115 4.22475 -1.89918 0
M  V30 3535 C 335.85 5.1818 -2.45514 0
M  V30 3536 N 335.346 6.19714 -3.09719 0
M  V30 3537 N 337.139 5.1035 -2.35584 0
M  V30 3538 H 329.29 1.28089 -1.69431 0
M  V30 3539 H 331.553 0.620327 -0.716867 0
M  V30 3540 H 331.259 2.7159 -2.23455 0
M  V30 3541 H 331.133 3.69033 -0.780662 0
M  V30 3542 H 333.52 2.94846 -0.12234 0
M  V30 3543 H 333.601 1.98988 -1.6074 0
M  V30 3544 H 333.245 4.11749 -2.97364 0
M  V30 3545 H 333.175 5.05877 -1.46272 0
M  V30 3546 H 335.666 3.49743 -1.43138 0
M  V30 3547 H 335.979 6.8919 -3.49625 0
M  V30 3548 H 334.324 6.20121 -3.13807 0
M  V30 3549 H 337.515 4.2996 -1.85072 0
M  V30 3550 H 337.688 5.84761 -2.79211 0
M  V30 3551 N 331.094 0.475555 1.50254 0
M  V30 3552 C 332.041 -0.316293 2.28622 0
M  V30 3553 C 333.011 -0.983227 1.33873 0
M  V30 3554 O 334.196 -0.994805 1.62814 0
M  V30 3555 C 331.336 -1.38975 3.1588 0
M  V30 3556 C 330.449 -0.737146 4.25664 0
M  V30 3557 C 329.584 -1.78887 5.00173 0
M  V30 3558 C 328.623 -1.11676 6.01826 0
M  V30 3559 N 327.76 -2.11154 6.69596 0
M  V30 3560 H 332.6 0.358297 2.95838 0
M  V30 3561 H 330.137 0.188541 1.45887 0
M  V30 3562 H 332.095 -2.02383 3.64825 0
M  V30 3563 H 330.725 -2.03344 2.50701 0
M  V30 3564 H 329.777 0.0096065 3.80399 0
M  V30 3565 H 331.089 -0.206816 4.98371 0
M  V30 3566 H 330.243 -2.49865 5.52859 0
M  V30 3567 H 328.982 -2.35302 4.27182 0
M  V30 3568 H 327.987 -0.392633 5.48396 0
M  V30 3569 H 329.212 -0.55945 6.76792 0
M  V30 3570 H 327.158 -2.66577 5.99394 0
M  V30 3571 H 327.075 -1.63118 7.38193 0
M  V30 3572 H 328.343 -2.81497 7.26897 0
M  V30 3573 N 332.573 -1.56217 0.208337 0
M  V30 3574 C 333.819 -1.98242 -0.427552 0
M  V30 3575 C 334.152 -1.09554 -1.60348 0
M  V30 3576 O 333.427 -0.15035 -1.93918 0
M  V30 3577 C 333.71 -3.4931 -0.874907 0
M  V30 3578 C 333.563 -4.48773 0.303751 0
M  V30 3579 C 334.882 -4.04424 -1.73577 0
M  V30 3580 H 332.001 -0.720744 -0.153936 0
M  V30 3581 H 334.643 -1.87586 0.30192 0
M  V30 3582 H 332.793 -3.58522 -1.49648 0
M  V30 3583 H 334.465 -4.51586 0.941682 0
M  V30 3584 H 332.708 -4.23194 0.953375 0
M  V30 3585 H 333.379 -5.51976 -0.0519883 0
M  V30 3586 H 335.855 -3.98075 -1.21143 0
M  V30 3587 H 334.731 -5.1047 -2.01771 0
M  V30 3588 H 334.992 -3.50494 -2.69456 0
M  V30 3589 N 334.051 0.0651679 -1.57465 0
M  V30 3590 C 335.328 0.79644 -1.78651 0
M  V30 3591 C 335.708 1.95454 -0.797566 0
M  V30 3592 O 335.056 2.27882 0.167946 0
M  V30 3593 C 335.266 1.26322 -3.25337 0
M  V30 3594 C 336.614 1.6939 -3.89348 0
M  V30 3595 O 337.638 1.35872 -3.29268 0
M  V30 3596 O 336.497 2.31471 -4.95059 0
M  V30 3597 H 333.591 0.382157 -0.733407 0
M  V30 3598 H 336.137 0.0447311 -1.69641 0
M  V30 3599 H 334.909 0.434859 -3.88876 0
M  V30 3600 H 334.532 2.07604 -3.39096 0
M  V30 3601 N 335.529 1.53961 0.336706 0
M  V30 3602 C 336.492 1.81724 1.39675 0
M  V30 3603 C 337.492 0.688532 1.45313 0
M  V30 3604 O 338.682 0.956829 1.45569 0
M  V30 3605 C 335.814 1.96543 2.78538 0
M  V30 3606 H 337.007 2.76424 1.16318 0
M  V30 3607 H 334.56 1.45478 0.571474 0
M  V30 3608 H 335.295 1.0401 3.07168 0
M  V30 3609 H 335.08 2.78665 2.75841 0
M  V30 3610 H 336.57 2.19516 3.5525 0
M  V30 3611 N 337.007 -0.598083 1.45811 0
M  V30 3612 C 338.253 -1.35882 1.50545 0
M  V30 3613 C 338.586 -1.93616 0.150445 0
M  V30 3614 O 337.861 -1.75604 -0.83628 0
M  V30 3615 C 338.144 -2.49966 2.59208 0
M  V30 3616 C 337.997 -1.97367 4.04186 0
M  V30 3617 C 339.316 -3.52068 2.64076 0
M  V30 3618 H 336.435 -0.492717 0.548087 0
M  V30 3619 H 339.077 -0.673319 1.77669 0
M  V30 3620 H 337.227 -3.08443 2.3621 0
M  V30 3621 H 338.899 -1.43466 4.38423 0
M  V30 3622 H 337.142 -1.283 4.14393 0
M  V30 3623 H 337.813 -2.79649 4.75921 0
M  V30 3624 H 340.289 -3.03448 2.84708 0
M  V30 3625 H 339.165 -4.2937 3.41954 0
M  V30 3626 H 339.426 -4.08304 1.69531 0
M  V30 3627 N 338.485 -1.33259 -0.841409 0
M  V30 3628 C 339.732 -1.24572 -1.5965 0
M  V30 3629 C 340.06 0.189137 -1.93578 0
M  V30 3630 O 339.315 1.14566 -1.5866 0
M  V30 3631 C 339.614 -2.06381 -2.9179 0
M  V30 3632 C 339.28 -3.556 -2.77235 0
M  V30 3633 C 337.942 -3.96282 -2.72973 0
M  V30 3634 C 340.294 -4.50433 -2.62221 0
M  V30 3635 C 337.622 -5.30017 -2.51592 0
M  V30 3636 C 339.974 -5.84327 -2.42374 0
M  V30 3637 C 338.638 -6.24194 -2.36512 0
M  V30 3638 H 337.908 -0.455842 -0.5842 0
M  V30 3639 H 340.555 -1.6482 -0.975016 0
M  V30 3640 H 338.86 -1.58903 -3.5813 0
M  V30 3641 H 340.557 -1.97019 -3.49263 0
M  V30 3642 H 337.147 -3.23298 -2.81384 0
M  V30 3643 H 341.331 -4.19914 -2.64549 0
M  V30 3644 H 336.587 -5.59947 -2.45499 0
M  V30 3645 H 340.761 -6.57414 -2.29739 0
M  V30 3646 H 338.388 -7.27759 -2.19706 0
M  V30 3647 N 339.963 1.05934 -1.16686 0
M  V30 3648 C 341.209 1.79065 -0.95203 0
M  V30 3649 C 341.542 1.87147 0.518629 0
M  V30 3650 O 340.817 1.36574 1.38484 0
M  V30 3651 C 341.1 3.23359 -1.58464 0
M  V30 3652 C 340.953 3.23336 -3.12689 0
M  V30 3653 C 342.272 4.21004 -1.28232 0
M  V30 3654 H 339.391 0.65005 -0.34728 0
M  V30 3655 H 342.033 1.23868 -1.44072 0
M  V30 3656 H 340.183 3.70493 -1.16908 0
M  V30 3657 H 341.855 2.84336 -3.6325 0
M  V30 3658 H 340.098 2.61886 -3.4583 0
M  V30 3659 H 340.769 4.25144 -3.52075 0
M  V30 3660 H 343.245 3.8233 -1.64203 0
M  V30 3661 H 342.121 5.20225 -1.75092 0
M  V30 3662 H 342.382 4.41639 -0.201791 0
M  V30 3663 N 341.441 0.965919 1.2453 0
M  V30 3664 C 342.689 0.625593 1.92174 0
M  V30 3665 C 343.01 -0.841652 1.75901 0
M  V30 3666 O 342.28 -1.60061 1.12948 0
M  V30 3667 H 340.86 0.228388 0.71123 0
M  V30 3668 H 343.522 1.2266 1.51461 0
M  V30 3669 H 342.618 0.864653 2.99884 0
M  V30 3670 N 342.919 -1.39368 0.735821 0
M  V30 3671 C 344.147 -2.04795 0.294393 0
M  V30 3672 C 344.562 -1.55478 -1.07107 0
M  V30 3673 O 343.919 -0.720038 -1.67695 0
M  V30 3674 C 343.97 -3.6035 0.288071 0
M  V30 3675 O 343.691 -4.07852 1.59963 0
M  V30 3676 C 345.192 -4.42976 -0.169422 0
M  V30 3677 H 342.412 -0.658571 0.128551 0
M  V30 3678 H 344.956 -1.78399 0.999701 0
M  V30 3679 H 343.111 -3.85645 -0.368355 0
M  V30 3680 H 343.525 -5.02181 1.51375 0
M  V30 3681 H 344.999 -5.51864 -0.122687 0
M  V30 3682 H 345.476 -4.22068 -1.21472 0
M  V30 3683 H 346.082 -4.22832 0.457469 0
M  V30 3684 N 344.397 -0.483516 -1.5 0
M  V30 3685 C 345.645 0.067027 -2.01989 0
M  V30 3686 C 345.966 1.3909 -1.36671 0
M  V30 3687 O 345.236 1.88978 -0.516152 0
M  V30 3688 H 343.816 0.0277606 -0.746484 0
M  V30 3689 H 346.478 -0.636773 -1.84204 0
M  V30 3690 H 345.574 0.209484 -3.11396 0
M  V30 3691 N 345.875 1.56104 -0.216619 0
M  V30 3692 C 347.152 1.89988 0.465165 0
M  V30 3693 C 347.532 1.13326 1.78102 0
M  V30 3694 O 346.88 0.241033 2.27225 0
M  V30 3695 C 347.09 3.42646 0.662939 0
M  V30 3696 C 348.438 4.13311 0.972602 0
M  V30 3697 O 349.462 3.48217 0.749901 0
M  V30 3698 O 348.321 5.28396 1.39499 0
M  V30 3699 H 345.415 0.78979 0.245276 0
M  V30 3700 H 347.961 1.67721 -0.258436 0
M  V30 3701 H 346.733 3.90399 -0.26543 0
M  V30 3702 H 346.356 3.70677 1.43821 0
M  V30 3703 N 347.353 -0.0568162 1.57498 0
M  V30 3704 C 348.283 -1.06593 2.0775 0
M  V30 3705 C 349.264 -1.39448 0.974082 0
M  V30 3706 O 350.449 -1.48815 1.24771 0
M  V30 3707 C 347.579 -2.37509 2.5339 0
M  V30 3708 C 346.533 -2.1897 3.67745 0
M  V30 3709 C 345.859 -3.55402 3.99492 0
M  V30 3710 C 347.159 -1.59859 4.97235 0
M  V30 3711 H 348.853 -0.647706 2.9231 0
M  V30 3712 H 346.399 -0.310116 1.40621 0
M  V30 3713 H 348.352 -3.08409 2.87162 0
M  V30 3714 H 347.076 -2.8134 1.65878 0
M  V30 3715 H 345.735 -1.50508 3.3428 0
M  V30 3716 H 345.383 -3.9683 3.09088 0
M  V30 3717 H 345.083 -3.43831 4.76502 0
M  V30 3718 H 346.607 -4.27708 4.35773 0
M  V30 3719 H 348.021 -2.20642 5.29141 0
M  V30 3720 H 346.418 -1.58942 5.78669 0
M  V30 3721 H 347.488 -0.561506 4.81638 0
M  V30 3722 N 348.832 -1.54138 -0.328536 0
M  V30 3723 C 350.079 -1.72105 -1.06706 0
M  V30 3724 C 350.407 -0.492111 -1.88171 0
M  V30 3725 O 349.662 0.526153 -1.88494 0
M  V30 3726 C 349.961 -2.9457 -2.02393 0
M  V30 3727 C 349.627 -4.29544 -1.37122 0
M  V30 3728 C 348.289 -4.6624 -1.19052 0
M  V30 3729 C 350.641 -5.1333 -0.902331 0
M  V30 3730 C 347.969 -5.84325 -0.527331 0
M  V30 3731 C 350.321 -6.32094 -0.252988 0
M  V30 3732 C 348.985 -6.67473 -0.0600901 0
M  V30 3733 H 348.255 -0.629775 -0.390466 0
M  V30 3734 H 350.902 -1.88372 -0.34473 0
M  V30 3735 H 349.207 -2.72969 -2.81061 0
M  V30 3736 H 350.904 -3.05665 -2.59557 0
M  V30 3737 H 347.494 -4.0067 -1.52188 0
M  V30 3738 H 351.678 -4.855 -1.02974 0
M  V30 3739 H 346.934 -6.103 -0.366634 0
M  V30 3740 H 351.108 -6.96299 0.118366 0
M  V30 3741 H 348.735 -7.58832 0.455828 0
M  V30 3742 N 350.31 0.590341 -1.46126 0
M  V30 3743 C 351.273 1.68194 -1.55703 0
M  V30 3744 C 352.273 1.54808 -0.434868 0
M  V30 3745 O 353.463 1.59564 -0.698928 0
M  V30 3746 C 350.595 3.07575 -1.47005 0
M  V30 3747 H 351.788 1.61064 -2.52979 0
M  V30 3748 H 349.341 0.807541 -1.33823 0
M  V30 3749 H 350.076 3.20268 -0.509785 0
M  V30 3750 H 349.861 3.187 -2.28414 0
M  V30 3751 H 351.351 3.87055 -1.56776 0
M  V30 3752 N 351.788 1.33704 0.83433 0
M  V30 3753 C 352.751 1.24244 1.92603 0
M  V30 3754 C 353.751 0.160383 1.59998 0
M  V30 3755 O 354.941 0.412228 1.69252 0
M  V30 3756 C 352.073 0.91555 3.28376 0
M  V30 3757 H 353.266 2.21287 2.02416 0
M  V30 3758 H 350.819 1.17827 1.02696 0
M  V30 3759 H 351.554 -0.0521886 3.24258 0
M  V30 3760 H 351.339 1.69811 3.53422 0
M  V30 3761 H 352.829 0.874231 4.08347 0
M  V30 3762 N 353.266 -1.05314 1.17247 0
M  V30 3763 C 354.199 -2.12512 0.831507 0
M  V30 3764 C 355.177 -1.61351 -0.201168 0
M  V30 3765 O 356.361 -1.88317 -0.0829831 0
M  V30 3766 C 353.488 -3.37848 0.24015 0
M  V30 3767 C 352.534 -4.07832 1.24801 0
M  V30 3768 S 353.367 -4.56537 2.79882 0
M  V30 3769 C 354.523 -5.85122 2.22223 0
M  V30 3770 H 354.756 -2.41106 1.7394 0
M  V30 3771 H 352.289 -1.17896 0.996988 0
M  V30 3772 H 354.247 -4.10391 -0.0945588 0
M  V30 3773 H 352.908 -3.07392 -0.645668 0
M  V30 3774 H 352.101 -4.97883 0.78287 0
M  V30 3775 H 351.703 -3.41348 1.52831 0
M  V30 3776 H 353.995 -6.58408 1.59703 0
M  V30 3777 H 354.938 -6.36381 3.10523 0
M  V30 3778 H 355.346 -5.39626 1.65722 0
M  V30 3779 N 354.744 -0.972509 -1.24016 0
M  V30 3780 C 355.674 -0.525548 -2.27509 0
M  V30 3781 C 356.655 0.437262 -1.64384 0
M  V30 3782 O 357.84 0.332343 -1.91335 0
M  V30 3783 C 354.97 0.180448 -3.46831 0
M  V30 3784 C 353.924 -0.698859 -4.22256 0
M  V30 3785 C 353.25 0.138903 -5.3452 0
M  V30 3786 C 354.55 -1.98582 -4.83076 0
M  V30 3787 H 356.244 -1.39058 -2.65148 0
M  V30 3788 H 353.79 -0.67009 -1.27459 0
M  V30 3789 H 355.743 0.504387 -4.18371 0
M  V30 3790 H 354.467 1.07987 -3.08231 0
M  V30 3791 H 353.126 -1.00614 -3.52523 0
M  V30 3792 H 352.774 1.03862 -4.9216 0
M  V30 3793 H 352.474 -0.446259 -5.85903 0
M  V30 3794 H 353.998 0.457404 -6.08884 0
M  V30 3795 H 355.412 -1.72715 -5.46665 0
M  V30 3796 H 353.809 -2.5181 -5.44713 0
M  V30 3797 H 354.879 -2.67769 -4.04262 0
M  V30 3798 N 356.222 1.38976 -0.743202 0
M  V30 3799 C 357.152 2.33171 -0.123873 0
M  V30 3800 C 358.133 1.54336 0.71516 0
M  V30 3801 O 359.318 1.82696 0.658467 0
M  V30 3802 C 356.448 3.38474 0.777978 0
M  V30 3803 C 355.402 4.27979 0.0424758 0
M  V30 3804 C 354.728 5.2405 1.06189 0
M  V30 3805 C 356.028 5.10155 -1.1198 0
M  V30 3806 H 357.722 2.85213 -0.910709 0
M  V30 3807 H 355.268 1.37133 -0.439388 0
M  V30 3808 H 357.221 4.03328 1.22084 0
M  V30 3809 H 355.945 2.84891 1.59702 0
M  V30 3810 H 354.604 3.64616 -0.380853 0
M  V30 3811 H 354.252 4.66758 1.87472 0
M  V30 3812 H 353.952 5.84785 0.574485 0
M  V30 3813 H 355.476 5.9178 1.50428 0
M  V30 3814 H 356.89 5.68307 -0.75499 0
M  V30 3815 H 355.287 5.80073 -1.53738 0
M  V30 3816 H 356.357 4.44504 -1.93764 0
M  V30 3817 N 357.7 0.491464 1.49741 0
M  V30 3818 C 358.663 -0.280906 2.27472 0
M  V30 3819 C 359.663 -0.902454 1.33088 0
M  V30 3820 O 360.853 -0.768465 1.56334 0
M  V30 3821 C 357.985 -1.40209 3.10732 0
M  V30 3822 H 359.178 0.401056 2.97206 0
M  V30 3823 H 356.731 0.246131 1.5435 0
M  V30 3824 H 357.466 -2.11849 2.45541 0
M  V30 3825 H 357.251 -0.961969 3.80117 0
M  V30 3826 H 358.741 -1.9464 3.69466 0
M  V30 3827 N 359.178 -1.55987 0.224894 0
M  V30 3828 C 360.424 -1.99433 -0.39973 0
M  V30 3829 C 360.779 -1.11004 -1.57149 0
M  V30 3830 O 360.072 -0.160725 -1.90925 0
M  V30 3831 C 360.266 -3.46394 -0.880106 0
M  V30 3832 C 360.095 -4.4904 0.243565 0
M  V30 3833 C 358.865 -5.00272 0.711056 0
M  V30 3834 C 361.063 -5.03195 1.06299 0
M  V30 3835 N 359.045 -5.86628 1.80944 0
M  V30 3836 C 360.416 -5.86508 2.01017 0
M  V30 3837 C 362.471 -4.8555 1.10205 0
M  V30 3838 C 361.174 -6.54062 2.99324 0
M  V30 3839 C 363.2 -5.53866 2.07332 0
M  V30 3840 C 362.562 -6.3695 3.00789 0
M  V30 3841 H 358.661 -0.773815 -0.112847 0
M  V30 3842 H 361.245 -1.91754 0.337432 0
M  V30 3843 H 359.416 -3.54515 -1.58662 0
M  V30 3844 H 361.148 -3.76752 -1.47783 0
M  V30 3845 H 357.903 -4.72655 0.29906 0
M  V30 3846 H 358.327 -6.34507 2.36073 0
M  V30 3847 H 362.969 -4.20966 0.39343 0
M  V30 3848 H 360.687 -7.17827 3.71147 0
M  V30 3849 H 364.273 -5.42178 2.11032 0
M  V30 3850 H 363.153 -6.8888 3.74718 0
M  V30 3851 N 360.656 0.0484629 -1.57525 0
M  V30 3852 C 361.884 0.755421 -1.92616 0
M  V30 3853 C 362.299 1.69919 -0.822984 0
M  V30 3854 O 361.656 1.81378 0.202085 0
M  V30 3855 C 361.707 1.52915 -3.27566 0
M  V30 3856 O 361.428 0.62329 -4.33644 0
M  V30 3857 C 362.929 2.33502 -3.76818 0
M  V30 3858 H 360.149 0.213465 -0.63614 0
M  V30 3859 H 362.693 0.0117698 -2.04497 0
M  V30 3860 H 360.848 2.22486 -3.17142 0
M  V30 3861 H 361.262 1.16383 -5.11425 0
M  V30 3862 H 362.736 2.83214 -4.73808 0
M  V30 3863 H 363.213 3.14068 -3.07014 0
M  V30 3864 H 363.819 1.69043 -3.90262 0
M  V30 3865 N 362.134 1.5431 0.320358 0
M  V30 3866 C 363.084 1.803 1.39556 0
M  V30 3867 C 364.068 0.659166 1.46778 0
M  V30 3868 O 365.26 0.91926 1.51257 0
M  V30 3869 C 362.389 2.03665 2.76361 0
M  V30 3870 C 361.475 3.24178 2.73439 0
M  V30 3871 N 361.866 4.4516 2.40137 0
M  V30 3872 C 360.164 3.25816 3.04565 0
M  V30 3873 C 360.865 5.27109 2.4603 0
M  V30 3874 N 359.841 4.64368 2.82601 0
M  V30 3875 H 363.643 2.71416 1.12742 0
M  V30 3876 H 361.157 1.53548 0.528856 0
M  V30 3877 H 363.154 2.20425 3.53862 0
M  V30 3878 H 361.814 1.13805 3.04103 0
M  V30 3879 H 362.825 4.72104 2.12927 0
M  V30 3880 H 359.502 2.46001 3.37328 0
M  V30 3881 H 360.892 6.33728 2.23246 0
M  V30 3882 N 363.613 -0.582584 1.46437 0
M  V30 3883 C 364.56 -1.69164 1.5701 0
M  V30 3884 C 365.53 -1.60847 0.414403 0
M  V30 3885 O 366.715 -1.80058 0.631171 0
M  V30 3886 C 363.855 -3.075 1.56646 0
M  V30 3887 C 362.968 -3.2644 2.82951 0
M  V30 3888 C 362.103 -4.55026 2.7409 0
M  V30 3889 C 361.142 -4.6731 3.95333 0
M  V30 3890 N 360.279 -5.87221 3.84858 0
M  V30 3891 H 365.119 -1.59464 2.51744 0
M  V30 3892 H 362.656 -0.777186 1.24893 0
M  V30 3893 H 364.614 -3.8757 1.5442 0
M  V30 3894 H 363.244 -3.16096 0.654439 0
M  V30 3895 H 362.296 -2.39974 2.95155 0
M  V30 3896 H 363.608 -3.31385 3.72808 0
M  V30 3897 H 362.762 -5.43324 2.6997 0
M  V30 3898 H 361.501 -4.52519 1.81873 0
M  V30 3899 H 360.506 -3.77429 3.99784 0
M  V30 3900 H 361.731 -4.71595 4.88646 0
M  V30 3901 H 359.677 -5.85712 2.95427 0
M  V30 3902 H 359.594 -5.93435 4.6837 0
M  V30 3903 H 360.862 -6.7795 3.84713 0
M  V30 3904 N 365.091 -1.34144 -0.827227 0
M  V30 3905 C 366.041 -1.21923 -1.92663 0
M  V30 3906 C 367.025 -0.119294 -1.60457 0
M  V30 3907 O 368.217 -0.348539 -1.73534 0
M  V30 3908 C 365.346 -0.972492 -3.29238 0
M  V30 3909 C 364.432 -2.1154 -3.67576 0
M  V30 3910 N 364.823 -3.36627 -3.77512 0
M  V30 3911 C 363.121 -2.02468 -3.97395 0
M  V30 3912 C 363.822 -4.11658 -4.1099 0
M  V30 3913 N 362.798 -3.40207 -4.23981 0
M  V30 3914 H 366.6 -2.16721 -1.98517 0
M  V30 3915 H 364.114 -1.2632 -1.02064 0
M  V30 3916 H 366.111 -0.865847 -4.0781 0
M  V30 3917 H 364.771 -0.0331509 -3.24683 0
M  V30 3918 H 365.782 -3.71234 -3.61118 0
M  V30 3919 H 362.459 -1.16265 -4.00985 0
M  V30 3920 H 363.849 -5.19657 -4.25918 0
M  V30 3921 N 366.569 1.04691 -1.17803 0
M  V30 3922 C 367.98 1.59238 -0.974689 0
M  V30 3923 C 368.331 1.90306 0.477292 0
M  V30 3924 O 367.456 1.68846 1.35352 0
M  V30 3925 C 368.051 2.89318 -1.76296 0
M  V30 3926 C 366.61 3.40506 -1.60414 0
M  V30 3927 C 365.757 2.14172 -1.76141 0
M  V30 3928 H 368.708 0.874395 -1.32439 0
M  V30 3929 H 368.729 3.5944 -1.24833 0
M  V30 3930 H 368.241 2.66675 -2.81968 0
M  V30 3931 H 366.342 3.68175 -0.572519 0
M  V30 3932 H 366.455 4.14753 -2.39827 0
M  V30 3933 H 364.819 2.25176 -1.19028 0
M  V30 3934 H 365.602 1.93992 -2.83235 0
M  V30 3935 N 368.047 0.979072 1.23499 0
M  V30 3936 C 368.995 0.510604 2.26926 0
M  V30 3937 C 369.989 -0.431691 1.63807 0
M  V30 3938 O 371.195 -0.30573 1.77385 0
M  V30 3939 H 367.57 0.146688 0.737554 0
M  V30 3940 H 369.541 1.39466 2.63803 0
M  V30 3941 C 368.29 -0.172658 3.47271 0
M  V30 3942 H 367.613 0.543331 3.96091 0
M  V30 3943 H 369.053 -0.464101 4.21452 0
M  V30 3944 C 367.512 -1.40345 3.06276 0
M  V30 3945 O 368.042 -2.49978 3.14442 0
M  V30 3946 N 366.248 -1.27362 2.61203 0
M  V30 3947 H 365.795 -0.381584 2.54758 0
M  V30 3948 H 365.753 -2.09822 2.34141 0
M  V30 3949 N 369.525 -1.3858 0.750561 0
M  V30 3950 C 370.473 -2.32339 0.110162 0
M  V30 3951 C 371.467 -1.53864 -0.708674 0
M  V30 3952 O 372.673 -1.69417 -0.608112 0
M  V30 3953 H 369.048 -0.751812 0.0168275 0
M  V30 3954 H 371.019 -2.83959 0.917053 0
M  V30 3955 C 369.768 -3.39043 -0.771067 0
M  V30 3956 H 369.091 -3.99517 -0.150374 0
M  V30 3957 H 370.531 -4.07061 -1.1865 0
M  V30 3958 C 368.99 -2.77365 -1.91234 0
M  V30 3959 O 369.52 -2.66434 -3.00626 0
M  V30 3960 N 367.726 -2.35219 -1.70646 0
M  V30 3961 H 367.273 -2.4431 -0.81673 0
M  V30 3962 H 367.231 -1.94294 -2.47178 0
M  V30 3963 N 371.003 -0.499398 -1.49478 0
M  V30 3964 C 371.933 0.269244 -2.31943 0
M  V30 3965 C 372.914 0.964054 -1.40143 0
M  V30 3966 O 374.099 0.955767 -1.69052 0
M  V30 3967 C 371.229 1.33504 -3.20615 0
M  V30 3968 C 370.183 0.760202 -4.21195 0
M  V30 3969 C 369.509 1.9264 -4.98792 0
M  V30 3970 C 370.809 -0.247661 -5.21712 0
M  V30 3971 H 372.503 -0.419082 -2.96452 0
M  V30 3972 H 370.049 -0.202988 -1.42562 0
M  V30 3973 H 372.002 1.88048 -3.77115 0
M  V30 3974 H 370.726 2.05253 -2.54045 0
M  V30 3975 H 369.385 0.23653 -3.65836 0
M  V30 3976 H 369.033 2.63154 -4.28671 0
M  V30 3977 H 368.733 1.54785 -5.66847 0
M  V30 3978 H 370.257 2.4762 -5.58137 0
M  V30 3979 H 371.671 0.209579 -5.72917 0
M  V30 3980 H 370.068 -0.541962 -5.97648 0
M  V30 3981 H 371.138 -1.16409 -4.7072 0
M  V30 3982 N 372.481 1.55866 -0.233164 0
M  V30 3983 C 373.428 2.20796 0.67215 0
M  V30 3984 C 374.398 1.16731 1.18166 0
M  V30 3985 O 375.583 1.45129 1.23864 0
M  V30 3986 C 372.723 2.90072 1.86955 0
M  V30 3987 C 371.836 4.08759 1.39786 0
M  V30 3988 C 370.971 4.65787 2.55374 0
M  V30 3989 C 370.01 5.76752 2.04998 0
M  V30 3990 N 369.147 6.28021 3.13901 0
M  V30 3991 H 373.987 2.9779 0.111749 0
M  V30 3992 H 371.524 1.47036 0.0434007 0
M  V30 3993 H 373.482 3.28428 2.57276 0
M  V30 3994 H 372.112 2.15575 2.40265 0
M  V30 3995 H 371.164 3.7581 0.589173 0
M  V30 3996 H 372.476 4.88906 0.98856 0
M  V30 3997 H 371.63 5.06646 3.33758 0
M  V30 3998 H 370.369 3.84828 2.99598 0
M  V30 3999 H 369.374 5.35383 1.25079 0
M  V30 4000 H 370.599 6.59553 1.61759 0
M  V30 4001 H 368.545 5.49971 3.57586 0
M  V30 4002 H 368.462 7.03323 2.7726 0
M  V30 4003 H 369.73 6.73538 3.92386 0
M  V30 4004 N 373.959 -0.0401083 1.57549 0
M  V30 4005 C 375.205 -0.734211 1.89043 0
M  V30 4006 C 375.538 -1.75591 0.829535 0
M  V30 4007 O 374.813 -1.93868 -0.156706 0
M  V30 4008 C 375.096 -1.41374 3.31188 0
M  V30 4009 C 374.949 -0.406299 4.47961 0
M  V30 4010 C 376.268 -2.35061 3.72068 0
M  V30 4011 H 373.387 -0.265447 0.687537 0
M  V30 4012 H 376.029 0.00294087 1.9 0
M  V30 4013 H 374.179 -2.04206 3.30503 0
M  V30 4014 H 375.851 0.219255 4.60779 0
M  V30 4015 H 374.094 0.275485 4.32924 0
M  V30 4016 H 374.765 -0.920022 5.44279 0
M  V30 4017 H 377.241 -1.82282 3.74049 0
M  V30 4018 H 376.117 -2.79593 4.72355 0
M  V30 4019 H 376.378 -3.21258 3.0372 0
M  V30 4020 N 375.437 -1.54477 -0.31217 0
M  V30 4021 C 376.4 -1.83923 -1.36766 0
M  V30 4022 C 377.4 -0.711563 -1.44199 0
M  V30 4023 O 378.59 -0.979866 -1.44029 0
M  V30 4024 C 375.722 -2.0095 -2.75376 0
M  V30 4025 H 376.915 -2.78239 -1.11906 0
M  V30 4026 H 374.468 -1.46369 -0.548257 0
M  V30 4027 H 375.203 -1.08883 -3.05475 0
M  V30 4028 H 374.988 -2.83018 -2.71373 0
M  V30 4029 H 376.478 -2.2514 -3.51713 0
M  V30 4030 N 376.915 0.57481 -1.46744 0
M  V30 4031 C 378.155 1.34369 -1.54027 0
M  V30 4032 C 378.519 1.91051 -0.190642 0
M  V30 4033 O 379.72 2.68444 -0.138255 0
M  V30 4034 C 377.991 2.43706 -2.61423 0
M  V30 4035 S 379.55 3.30915 -2.88167 0
M  V30 4036 H 376.368 0.45768 -0.544105 0
M  V30 4037 H 378.97 0.659959 -1.84024 0
M  V30 4038 H 377.674 2.0047 -3.58106 0
M  V30 4039 H 377.205 3.16842 -2.33184 0
M  V30 4040 H 379.22 4.42742 -2.24039 0
M  V30 4041 N 378.394 1.34581 0.820102 0
M  V30 4042 C 379.304 1.28471 1.96297 0
M  V30 4043 C 380.32 0.191902 1.72939 0
M  V30 4044 O 381.496 0.418879 1.96996 0
M  V30 4045 C 378.561 1.04281 3.30645 0
M  V30 4046 C 377.622 2.22745 3.66992 0
M  V30 4047 C 376.855 1.997 4.9493 0
M  V30 4048 O 377.078 0.956656 5.6232 0
M  V30 4049 O 376.012 2.86723 5.2922 0
M  V30 4050 H 379.838 2.24624 2.04396 0
M  V30 4051 H 377.423 1.14816 0.955913 0
M  V30 4052 H 379.305 0.925841 4.11104 0
M  V30 4053 H 377.98 0.111697 3.23507 0
M  V30 4054 H 376.887 2.40003 2.86966 0
M  V30 4055 H 378.22 3.14257 3.78819 0
M  V30 4056 N 379.872 -1.04064 1.18357 0
M  V30 4057 C 380.819 -2.12077 0.910603 0
M  V30 4058 C 381.789 -1.65421 -0.15 0
M  V30 4059 O 382.974 -1.90797 -0.0103614 0
M  V30 4060 C 380.114 -3.42252 0.442472 0
M  V30 4061 C 379.227 -4.0252 1.5685 0
M  V30 4062 C 378.362 -5.20657 1.05309 0
M  V30 4063 C 377.401 -5.72955 2.1538 0
M  V30 4064 N 376.538 -6.8238 1.65233 0
M  V30 4065 H 381.378 -2.34764 1.83548 0
M  V30 4066 H 378.915 -1.15157 0.915279 0
M  V30 4067 H 380.873 -4.16921 0.152534 0
M  V30 4068 H 379.503 -3.19712 -0.445428 0
M  V30 4069 H 378.555 -3.25178 1.97391 0
M  V30 4070 H 379.867 -4.37362 2.39824 0
M  V30 4071 H 379.021 -6.0244 0.717677 0
M  V30 4072 H 377.76 -4.87318 0.19293 0
M  V30 4073 H 376.765 -4.89793 2.49766 0
M  V30 4074 H 377.99 -6.08337 3.01832 0
M  V30 4075 H 375.936 -6.50917 0.815064 0
M  V30 4076 H 375.853 -7.16286 2.41805 0
M  V30 4077 H 377.121 -7.67788 1.34619 0
M  V30 4078 N 381.35 -0.985608 -1.22978 0
M  V30 4079 C 382.578 -0.675582 -1.95559 0
M  V30 4080 C 382.993 0.758413 -1.72897 0
M  V30 4081 O 382.35 1.51094 -1.02357 0
M  V30 4082 C 382.401 -0.96293 -3.48439 0
M  V30 4083 O 382.122 -2.34057 -3.70336 0
M  V30 4084 C 383.623 -0.669585 -4.38214 0
M  V30 4085 H 380.843 -0.250523 -0.622478 0
M  V30 4086 H 383.387 -1.3184 -1.56328 0
M  V30 4087 H 381.542 -0.366033 -3.85667 0
M  V30 4088 H 381.956 -2.43424 -4.64591 0
M  V30 4089 H 383.43 -0.920967 -5.44263 0
M  V30 4090 H 383.907 0.396383 -4.37408 0
M  V30 4091 H 384.513 -1.2472 -4.06602 0
M  V30 4092 N 382.828 1.3818 -0.7579 0
M  V30 4093 C 384.074 2.00316 -0.316453 0
M  V30 4094 C 384.407 1.60026 1.10025 0
M  V30 4095 O 383.682 0.839835 1.75434 0
M  V30 4096 C 383.965 3.57349 -0.444245 0
M  V30 4097 C 383.818 4.07591 -1.90236 0
M  V30 4098 C 385.137 4.3981 0.1598 0
M  V30 4099 H 382.256 0.727741 -0.116459 0
M  V30 4100 H 384.898 1.6406 -0.958352 0
M  V30 4101 H 383.048 3.88365 0.102233 0
M  V30 4102 H 384.72 3.87199 -2.50748 0
M  V30 4103 H 382.963 3.60297 -2.41595 0
M  V30 4104 H 383.634 5.16677 -1.94291 0
M  V30 4105 H 386.11 4.14971 -0.306314 0
M  V30 4106 H 384.986 5.48885 0.0401675 0
M  V30 4107 H 385.247 4.24102 1.24859 0
M  V30 4108 N 384.306 0.507319 1.49211 0
M  V30 4109 C 385.531 -0.033725 2.07373 0
M  V30 4110 C 385.956 -1.29485 1.36437 0
M  V30 4111 O 385.314 -1.76294 0.423087 0
M  V30 4112 C 385.362 -0.263945 3.59633 0
M  V30 4113 O 384.466 -1.33737 3.90113 0
M  V30 4114 H 383.807 0.0290331 0.663365 0
M  V30 4115 H 386.337 0.708749 1.91932 0
M  V30 4116 H 386.347 -0.493536 4.05004 0
M  V30 4117 H 385.022 0.657424 4.10671 0
M  V30 4118 H 383.599 -1.09224 3.56545 0
M  V30 4119 N 385.784 -1.5574 0.241426 0
M  V30 4120 C 387.012 -2.03208 -0.389134 0
M  V30 4121 C 387.427 -1.12082 -1.51931 0
M  V30 4122 O 386.784 -0.134183 -1.82006 0
M  V30 4123 C 386.835 -3.50064 -0.902087 0
M  V30 4124 O 386.556 -4.37717 0.18305 0
M  V30 4125 C 388.057 -4.13268 -1.60389 0
M  V30 4126 H 385.277 -0.664509 -0.0931053 0
M  V30 4127 H 387.821 -2.0124 0.36369 0
M  V30 4128 H 385.976 -3.52583 -1.60511 0
M  V30 4129 H 386.39 -5.24097 -0.205579 0
M  V30 4130 H 387.864 -5.17733 -1.91458 0
M  V30 4131 H 388.341 -3.59434 -2.52397 0
M  V30 4132 H 388.947 -4.14655 -0.945576 0
M  V30 4133 N 387.262 0.0317525 -1.57568 0
M  V30 4134 C 388.192 1.03274 -2.0942 0
M  V30 4135 C 389.173 1.3788 -0.996143 0
M  V30 4136 O 390.358 1.46811 -1.27122 0
M  V30 4137 C 387.488 2.33448 -2.57137 0
M  V30 4138 C 386.442 2.13091 -3.71182 0
M  V30 4139 C 385.768 3.49001 -4.05095 0
M  V30 4140 C 387.068 1.51928 -4.99715 0
M  V30 4141 H 388.762 0.60112 -2.93303 0
M  V30 4142 H 386.308 0.287705 -1.41097 0
M  V30 4143 H 388.261 3.03802 -2.92032 0
M  V30 4144 H 386.985 2.78665 -1.70333 0
M  V30 4145 H 385.644 1.45171 -3.36632 0
M  V30 4146 H 385.292 3.91862 -3.15362 0
M  V30 4147 H 384.992 3.36207 -4.81911 0
M  V30 4148 H 386.516 4.20721 -4.42522 0
M  V30 4149 H 387.93 2.12196 -5.32584 0
M  V30 4150 H 386.327 1.49716 -5.81124 0
M  V30 4151 H 387.397 0.484811 -4.8247 0
M  V30 4152 N 388.74 1.54641 0.303973 0
M  V30 4153 C 389.69 1.8177 1.37636 0
M  V30 4154 C 390.674 0.674697 1.46071 0
M  V30 4155 O 391.866 0.935251 1.50273 0
M  V30 4156 C 388.995 2.06584 2.74186 0
M  V30 4157 C 388.081 3.2706 2.69986 0
M  V30 4158 N 388.472 4.47682 2.35402 0
M  V30 4159 C 386.77 3.29028 3.01092 0
M  V30 4160 C 387.471 5.29689 2.40426 0
M  V30 4161 N 386.447 4.67339 2.7766 0
M  V30 4162 H 390.249 2.72596 1.09857 0
M  V30 4163 H 387.763 1.541 0.51254 0
M  V30 4164 H 389.76 2.24166 3.51504 0
M  V30 4165 H 388.42 1.17024 3.02879 0
M  V30 4166 H 389.431 4.74336 2.07908 0
M  V30 4167 H 386.108 2.49565 3.34699 0
M  V30 4168 H 387.498 6.3606 2.16512 0
M  V30 4169 N 390.218 -0.567019 1.47046 0
M  V30 4170 C 391.168 -1.67018 1.55207 0
M  V30 4171 C 392.152 -1.55543 0.411714 0
M  V30 4172 O 393.344 -1.64192 0.661064 0
M  V30 4173 C 390.473 -3.05801 1.56014 0
M  V30 4174 C 389.559 -3.22515 2.75399 0
M  V30 4175 N 389.95 -3.09329 4.00186 0
M  V30 4176 C 388.248 -3.53493 2.71954 0
M  V30 4177 C 388.949 -3.2847 4.80086 0
M  V30 4178 N 387.925 -3.54352 4.12233 0
M  V30 4179 H 391.727 -1.55377 2.4947 0
M  V30 4180 H 389.241 -0.771503 1.42904 0
M  V30 4181 H 391.238 -3.84996 1.59949 0
M  V30 4182 H 389.898 -3.18561 0.628396 0
M  V30 4183 H 390.909 -2.86863 4.31196 0
M  V30 4184 H 387.586 -3.7284 1.87873 0
M  V30 4185 H 388.976 -3.23326 5.88991 0
M  V30 4186 N 391.696 -1.35014 -0.812953 0
M  V30 4187 C 392.942 -1.2812 -1.57204 0
M  V30 4188 C 393.275 0.145869 -1.93651 0
M  V30 4189 O 392.55 1.0937 -1.60836 0
M  V30 4190 C 392.833 -2.18162 -2.86492 0
M  V30 4191 C 392.686 -3.69454 -2.56561 0
M  V30 4192 C 394.005 -2.07439 -3.88145 0
M  V30 4193 H 391.124 -0.466746 -0.570366 0
M  V30 4194 H 393.766 -1.65357 -0.935783 0
M  V30 4195 H 391.916 -1.86535 -3.40789 0
M  V30 4196 H 393.588 -4.11493 -2.08497 0
M  V30 4197 H 391.831 -3.9005 -1.89851 0
M  V30 4198 H 392.502 -4.27835 -3.48799 0
M  V30 4199 H 394.978 -2.35228 -3.4323 0
M  V30 4200 H 393.854 -2.7265 -4.76396 0
M  V30 4201 H 394.115 -1.05439 -4.29343 0
M  V30 4202 N 393.175 1.03435 -1.18907 0
M  V30 4203 C 394.105 2.13503 -0.945448 0
M  V30 4204 C 395.086 1.69682 0.119189 0
M  V30 4205 O 396.271 1.94169 -0.034707 0
M  V30 4206 C 393.401 3.44004 -0.477316 0
M  V30 4207 C 392.355 4.0148 -1.48316 0
M  V30 4208 C 391.681 5.27537 -0.872311 0
M  V30 4209 C 392.981 4.36921 -2.86177 0
M  V30 4210 H 394.675 2.34141 -1.86597 0
M  V30 4211 H 392.221 1.12523 -0.898584 0
M  V30 4212 H 394.174 4.20372 -0.294204 0
M  V30 4213 H 392.898 3.23072 0.478786 0
M  V30 4214 H 391.557 3.27201 -1.65332 0
M  V30 4215 H 391.205 5.02917 0.0911752 0
M  V30 4216 H 390.905 5.66954 -1.54393 0
M  V30 4217 H 392.429 6.06576 -0.699871 0
M  V30 4218 H 393.843 5.04248 -2.72776 0
M  V30 4219 H 392.24 4.87405 -3.50081 0
M  V30 4220 H 393.31 3.46466 -3.39248 0
M  V30 4221 N 394.653 0.992116 1.22453 0
M  V30 4222 C 395.585 0.500024 2.23679 0
M  V30 4223 C 396.598 -0.404463 1.57696 0
M  V30 4224 O 397.787 -0.206722 1.77299 0
M  V30 4225 C 394.887 -0.294711 3.37616 0
M  V30 4226 C 394.06 0.605723 4.33186 0
M  V30 4227 C 393.119 -0.13717 5.26021 0
M  V30 4228 O 392.145 0.477164 5.67196 0
M  V30 4229 N 393.347 -1.4197 5.62872 0
M  V30 4230 H 396.112 1.37045 2.66531 0
M  V30 4231 H 393.673 0.866741 1.36745 0
M  V30 4232 H 395.665 -0.800329 3.96707 0
M  V30 4233 H 394.235 -1.06623 2.93854 0
M  V30 4234 H 393.455 1.29202 3.72425 0
M  V30 4235 H 394.743 1.21896 4.93983 0
M  V30 4236 H 394.141 -1.94015 5.31389 0
M  V30 4237 H 392.698 -1.87052 6.24383 0
M  V30 4238 N 396.131 -1.37776 0.765217 0
M  V30 4239 C 397.547 -1.53297 0.444108 0
M  V30 4240 C 397.747 -1.72515 -1.04119 0
M  V30 4241 O 396.803 -1.74278 -1.82711 0
M  V30 4242 C 398.116 -2.73328 1.25349 0
M  V30 4243 C 399.664 -2.87185 1.24473 0
M  V30 4244 C 400.139 -4.10191 2.03733 0
M  V30 4245 N 401.63 -4.17291 2.01053 0
M  V30 4246 C 402.365 -5.11488 2.59166 0
M  V30 4247 N 401.861 -6.11285 3.26041 0
M  V30 4248 N 403.654 -5.03924 2.49032 0
M  V30 4249 H 395.805 -1.23552 1.72768 0
M  V30 4250 H 398.068 -0.601103 0.733062 0
M  V30 4251 H 397.774 -2.6557 2.30577 0
M  V30 4252 H 397.648 -3.66834 0.87823 0
M  V30 4253 H 400.035 -2.94418 0.20047 0
M  V30 4254 H 400.116 -1.94657 1.65959 0
M  V30 4255 H 399.76 -4.0372 3.08176 0
M  V30 4256 H 399.69 -5.01821 1.59633 0
M  V30 4257 H 402.181 -3.45825 1.5236 0
M  V30 4258 H 402.494 -6.79678 3.67774 0
M  V30 4259 H 400.839 -6.11583 3.30138 0
M  V30 4260 H 404.03 -4.24902 1.96407 0
M  V30 4261 H 404.203 -5.77152 2.94617 0
M  V30 4262 N 397.609 -0.515225 -1.4894 0
M  V30 4263 C 398.837 0.0206034 -2.0689 0
M  V30 4264 C 399.252 1.29514 -1.37374 0
M  V30 4265 O 398.609 1.76698 -0.456529 0
M  V30 4266 C 398.66 0.26351 -3.60538 0
M  V30 4267 O 398.381 -0.960517 -4.27441 0
M  V30 4268 C 399.882 0.841383 -4.35242 0
M  V30 4269 H 397.102 -0.0268608 -0.670462 0
M  V30 4270 H 399.646 -0.716651 -1.91532 0
M  V30 4271 H 397.801 0.950777 -3.75552 0
M  V30 4272 H 398.215 -0.73212 -5.19365 0
M  V30 4273 H 399.689 0.96085 -5.43573 0
M  V30 4274 H 400.166 1.8427 -3.98674 0
M  V30 4275 H 400.772 0.191143 -4.2487 0
M  V30 4276 N 399.087 1.5561 -0.249682 0
M  V30 4277 C 400.336 1.98187 0.37479 0
M  V30 4278 C 400.649 1.14111 1.58865 0
M  V30 4279 O 401.855 1.46714 2.28445 0
M  V30 4280 C 400.311 3.52661 0.718192 0
M  V30 4281 C 399.919 4.45481 -0.474428 0
M  V30 4282 C 401.663 4.03888 1.3067 0
M  V30 4283 C 399.57 5.91303 -0.107026 0
M  V30 4284 H 398.5 0.740159 0.143808 0
M  V30 4285 H 401.151 1.80125 -0.350336 0
M  V30 4286 H 399.533 3.66429 1.50152 0
M  V30 4287 H 400.707 4.43473 -1.25172 0
M  V30 4288 H 399.022 4.04751 -0.978052 0
M  V30 4289 H 401.619 5.10358 1.59496 0
M  V30 4290 H 401.962 3.51401 2.23211 0
M  V30 4291 H 402.495 3.93457 0.586211 0
M  V30 4292 H 399.234 6.47833 -0.999642 0
M  V30 4293 H 398.754 5.9644 0.634013 0
M  V30 4294 H 400.433 6.46258 0.309807 0
M  V30 4295 N 400.565 -0.0233959 1.57583 0
M  V30 4296 C 401.497 -1.04994 2.03737 0
M  V30 4297 C 402.51 -1.32125 0.951152 0
M  V30 4298 O 403.699 -1.29512 1.22837 0
M  V30 4299 C 400.799 -2.39026 2.40249 0
M  V30 4300 C 399.972 -2.31171 3.7132 0
M  V30 4301 C 399.031 -3.47698 3.94959 0
M  V30 4302 O 398.057 -3.26937 4.65941 0
M  V30 4303 N 399.259 -4.6976 3.41037 0
M  V30 4304 H 402.024 -0.656507 2.92421 0
M  V30 4305 H 399.585 -0.211235 1.60516 0
M  V30 4306 H 401.577 -3.15712 2.53196 0
M  V30 4307 H 400.147 -2.70194 1.57207 0
M  V30 4308 H 399.367 -1.39547 3.68674 0
M  V30 4309 H 400.655 -2.23071 4.57293 0
M  V30 4310 H 400.053 -4.89528 2.83512 0
M  V30 4311 H 398.61 -5.43791 3.59353 0
M  V30 4312 N 402.043 -1.548 -0.295768 0
M  V30 4313 C 403.283 -1.76069 -1.03823 0
M  V30 4314 C 403.647 -0.537992 -1.84309 0
M  V30 4315 O 404.848 -0.628514 -2.61349 0
M  V30 4316 C 403.119 -3.01705 -1.91596 0
M  V30 4317 S 404.678 -3.43998 -2.72416 0
M  V30 4318 H 401.496 -0.618852 -0.350062 0
M  V30 4319 H 404.098 -1.93009 -0.31106 0
M  V30 4320 H 402.802 -3.88812 -1.31351 0
M  V30 4321 H 402.333 -2.87366 -2.68671 0
M  V30 4322 H 404.348 -3.0148 -3.94112 0
M  V30 4323 N 403.521 0.559213 -1.47345 0
M  V30 4324 C 404.484 1.64854 -1.59235 0
M  V30 4325 C 405.484 1.53851 -0.467607 0
M  V30 4326 O 406.674 1.58045 -0.732617 0
M  V30 4327 C 403.806 3.04388 -1.53496 0
M  V30 4328 H 404.999 1.55662 -2.56339 0
M  V30 4329 H 402.552 0.778973 -1.35505 0
M  V30 4330 H 403.287 3.19115 -0.577604 0
M  V30 4331 H 403.072 3.13783 -2.35123 0
M  V30 4332 H 404.562 3.83642 -1.6495 0
M  V30 4333 N 404.999 1.35443 0.805782 0
M  V30 4334 C 405.946 1.28431 1.91766 0
M  V30 4335 C 406.916 0.156102 1.65365 0
M  V30 4336 O 408.101 0.339936 1.87747 0
M  V30 4337 C 405.241 1.06301 3.2832 0
M  V30 4338 C 404.354 2.2805 3.66902 0
M  V30 4339 C 403.489 1.99064 4.92491 0
M  V30 4340 C 402.528 3.16863 5.23703 0
M  V30 4341 N 401.665 2.87647 6.40471 0
M  V30 4342 H 406.505 2.23511 1.97096 0
M  V30 4343 H 404.042 1.11105 0.964054 0
M  V30 4344 H 406 0.915012 4.07042 0
M  V30 4345 H 404.63 0.148822 3.22457 0
M  V30 4346 H 403.682 2.53711 2.83434 0
M  V30 4347 H 404.994 3.1601 3.85927 0
M  V30 4348 H 404.148 1.81099 5.7904 0
M  V30 4349 H 402.887 1.0839 4.75503 0
M  V30 4350 H 401.892 3.35404 4.35642 0
M  V30 4351 H 403.117 4.08339 5.4262 0
M  V30 4352 H 401.063 1.99568 6.24907 0
M  V30 4353 H 400.98 3.69141 6.59751 0
M  V30 4354 H 402.248 2.73226 7.30047 0
M  V30 4355 N 406.477 -1.02803 1.19454 0
M  V30 4356 C 407.44 -2.09264 0.934955 0
M  V30 4357 C 408.44 -1.60576 -0.0849015 0
M  V30 4358 O 409.63 -1.73554 0.149933 0
M  V30 4359 C 406.762 -3.38482 0.40531 0
M  V30 4360 H 407.955 -2.33726 1.87916 0
M  V30 4361 H 405.508 -1.19426 1.00832 0
M  V30 4362 H 406.243 -3.19689 -0.544899 0
M  V30 4363 H 406.028 -3.75142 1.14065 0
M  V30 4364 H 407.518 -4.16894 0.242806 0
M  V30 4365 N 407.956 -0.998596 -1.21925 0
M  V30 4366 C 408.888 -0.511879 -2.23411 0
M  V30 4367 C 409.901 0.396094 -1.57908 0
M  V30 4368 O 411.09 0.197316 -1.77406 0
M  V30 4369 C 408.19 0.276802 -3.37768 0
M  V30 4370 C 407.363 -0.628687 -4.32858 0
M  V30 4371 C 406.422 0.109272 -5.26087 0
M  V30 4372 O 405.448 -0.507237 -5.66935 0
M  V30 4373 N 406.65 1.38983 -5.63617 0
M  V30 4374 H 409.415 -1.38457 -2.658 0
M  V30 4375 H 406.976 -0.873981 -1.36283 0
M  V30 4376 H 408.968 0.77928 -3.97126 0
M  V30 4377 H 407.538 1.05063 -2.94415 0
M  V30 4378 H 406.758 -1.31175 -3.71735 0
M  V30 4379 H 408.046 -1.24514 -4.93329 0
M  V30 4380 H 407.444 1.91194 -5.32411 0
M  V30 4381 H 406.001 1.83739 -6.25367 0
M  V30 4382 N 409.434 1.37368 -0.772513 0
M  V30 4383 C 410.397 2.28601 -0.165541 0
M  V30 4384 C 411.397 1.48062 0.627238 0
M  V30 4385 O 412.587 1.68268 0.450715 0
M  V30 4386 C 409.719 3.32023 0.772897 0
M  V30 4387 H 410.912 2.83787 -0.969787 0
M  V30 4388 H 408.465 1.46647 -0.540775 0
M  V30 4389 H 409.2 2.81962 1.60212 0
M  V30 4390 H 408.985 3.91555 0.206585 0
M  V30 4391 H 410.475 4.00197 1.19298 0
M  V30 4392 N 410.912 0.523116 1.48665 0
M  V30 4393 C 412.16 -0.0134497 2.02096 0
M  V30 4394 C 412.481 -1.35418 1.40311 0
M  V30 4395 O 411.751 -1.87543 0.566074 0
M  V30 4396 H 410.331 -0.00795915 0.746958 0
M  V30 4397 H 412.993 0.685388 1.82451 0
M  V30 4398 H 412.089 -0.126849 3.11842 0
M  V30 4399 N 412.39 -1.55475 0.257931 0
M  V30 4400 C 413.3 -2.2549 -0.647425 0
M  V30 4401 C 414.316 -1.2748 -1.18427 0
M  V30 4402 O 415.492 -1.6038 -1.2182 0
M  V30 4403 C 412.557 -2.94916 -1.82278 0
M  V30 4404 C 411.618 -4.08363 -1.32432 0
M  V30 4405 C 410.851 -4.74469 -2.44366 0
M  V30 4406 O 411.074 -4.39701 -3.63344 0
M  V30 4407 O 410.008 -5.62763 -2.13497 0
M  V30 4408 H 413.834 -3.03593 -0.0807707 0
M  V30 4409 H 411.419 -1.49377 0.0259962 0
M  V30 4410 H 413.301 -3.38606 -2.50846 0
M  V30 4411 H 411.976 -2.19744 -2.37685 0
M  V30 4412 H 410.883 -3.69166 -0.605605 0
M  V30 4413 H 412.216 -4.85385 -0.816211 0
M  V30 4414 N 413.868 0.0150385 -1.57593 0
M  V30 4415 C 415.116 0.701613 -1.8953 0
M  V30 4416 C 415.437 1.75139 -0.857396 0
M  V30 4417 O 414.707 1.95607 0.107194 0
M  V30 4418 H 413.287 0.26213 -0.699498 0
M  V30 4419 H 415.949 -0.0223304 -1.94887 0
M  V30 4420 H 415.045 1.18236 -2.88837 0
M  V30 4421 N 415.346 1.54954 0.287554 0
M  V30 4422 C 416.592 1.75132 1.02257 0
M  V30 4423 C 416.925 0.542858 1.86458 0
M  V30 4424 O 416.2 -0.459856 1.88986 0
M  V30 4425 C 416.483 3.04812 1.91733 0
M  V30 4426 C 416.336 4.35985 1.10622 0
M  V30 4427 C 417.655 3.30438 2.90687 0
M  V30 4428 H 414.774 0.637194 0.370341 0
M  V30 4429 H 417.416 1.87678 0.296111 0
M  V30 4430 H 415.566 2.94247 2.53675 0
M  V30 4431 H 417.238 4.58487 0.508636 0
M  V30 4432 H 415.481 4.31865 0.409271 0
M  V30 4433 H 416.152 5.23017 1.76513 0
M  V30 4434 H 418.628 3.40701 2.38877 0
M  V30 4435 H 417.504 4.22467 3.50447 0
M  V30 4436 H 417.765 2.49377 3.65053 0
M  V30 4437 N 416.824 -0.551391 1.4764 0
M  V30 4438 C 418.24 -0.877887 1.33287 0
M  V30 4439 C 418.44 -1.98817 0.327721 0
M  V30 4440 O 417.496 -2.51171 -0.258695 0
M  V30 4441 C 418.809 -1.26563 2.72768 0
M  V30 4442 C 420.357 -1.37673 2.81097 0
M  V30 4443 C 420.832 -1.79799 4.21232 0
M  V30 4444 N 422.323 -1.8694 4.23802 0
M  V30 4445 C 423.058 -2.20876 5.29151 0
M  V30 4446 N 422.554 -2.53386 6.448 0
M  V30 4447 N 424.347 -2.217 5.16532 0
M  V30 4448 H 416.498 0.18153 2.11623 0
M  V30 4449 H 418.761 0.0185514 0.947818 0
M  V30 4450 H 418.467 -0.523591 3.47781 0
M  V30 4451 H 418.341 -2.22052 3.04915 0
M  V30 4452 H 420.728 -2.10956 2.06353 0
M  V30 4453 H 420.809 -0.40357 2.52596 0
M  V30 4454 H 420.453 -1.07083 4.96483 0
M  V30 4455 H 420.383 -2.78128 4.4716 0
M  V30 4456 H 422.874 -1.64179 3.40373 0
M  V30 4457 H 423.187 -2.78325 7.20941 0
M  V30 4458 H 421.532 -2.50953 6.48111 0
M  V30 4459 H 424.723 -1.95745 4.25207 0
M  V30 4460 H 424.896 -2.47818 5.98741 0
M  V30 4461 N 418.302 -1.35869 -0.798587 0
M  V30 4462 C 419.713 -1.26498 -1.37314 0
M  V30 4463 C 420.064 0.0991899 -1.95949 0
M  V30 4464 O 419.189 1.0004 -1.91888 0
M  V30 4465 C 419.784 -2.29054 -2.49639 0
M  V30 4466 C 418.343 -2.234 -3.02935 0
M  V30 4467 C 417.49 -2.14329 -1.75949 0
M  V30 4468 H 420.441 -1.46881 -0.600971 0
M  V30 4469 H 420.462 -1.92166 -3.28409 0
M  V30 4470 H 419.974 -3.2833 -2.06933 0
M  V30 4471 H 418.075 -1.27562 -3.50084 0
M  V30 4472 H 418.188 -3.15703 -3.60372 0
M  V30 4473 H 416.552 -1.60435 -1.9782 0
M  V30 4474 H 417.335 -3.15477 -1.35384 0
M  V30 4475 N 419.78 1.02168 -1.19998 0
M  V30 4476 C 421.005 1.79833 -1.03319 0
M  V30 4477 C 421.43 1.83504 0.413281 0
M  V30 4478 O 420.788 1.26635 1.29743 0
M  V30 4479 C 420.836 3.22396 -1.61533 0
M  V30 4480 O 419.94 4.03555 -0.849519 0
M  V30 4481 H 419.281 0.554872 -0.364709 0
M  V30 4482 H 421.811 1.28542 -1.59179 0
M  V30 4483 H 421.821 3.73124 -1.65054 0
M  V30 4484 H 420.496 3.19039 -2.66809 0
M  V30 4485 H 419.073 3.62169 -0.888129 0
M  V30 4486 N 421.258 1.00505 1.21394 0
M  V30 4487 C 422.669 0.721082 1.72213 0
M  V30 4488 C 423.02 -0.761263 1.80829 0
M  V30 4489 O 422.145 -1.59464 1.46288 0
M  V30 4490 C 422.74 1.30228 3.12772 0
M  V30 4491 C 421.299 1.06743 3.60947 0
M  V30 4492 C 420.446 1.41507 2.38477 0
M  V30 4493 H 423.397 1.17594 1.06571 0
M  V30 4494 H 423.418 0.686955 3.74247 0
M  V30 4495 H 422.93 2.38115 3.06468 0
M  V30 4496 H 421.031 0.00572162 3.726 0
M  V30 4497 H 421.144 1.73936 4.46411 0
M  V30 4498 H 419.508 0.833852 2.40664 0
M  V30 4499 H 420.291 2.50424 2.34824 0
M  V30 4500 N 422.737 -1.36956 0.779787 0
M  V30 4501 C 423.67 -2.27896 0.117681 0
M  V30 4502 C 424.648 -1.46736 -0.700523 0
M  V30 4503 O 425.832 -1.76055 -0.673568 0
M  V30 4504 C 422.959 -3.28136 -0.839296 0
M  V30 4505 C 422.005 -4.26373 -0.10409 0
M  V30 4506 S 422.838 -5.2157 1.21348 0
M  V30 4507 C 423.994 -6.25359 0.260249 0
M  V30 4508 H 424.227 -2.83704 0.888778 0
M  V30 4509 H 421.76 -1.43352 0.57355 0
M  V30 4510 H 423.718 -3.86394 -1.38601 0
M  V30 4511 H 422.379 -2.7126 -1.58356 0
M  V30 4512 H 421.572 -4.97121 -0.82986 0
M  V30 4513 H 421.174 -3.72147 0.371858 0
M  V30 4514 H 423.466 -6.75145 -0.564435 0
M  V30 4515 H 424.409 -7.01885 0.936135 0
M  V30 4516 H 424.817 -5.64345 -0.132127 0
M  V30 4517 N 424.215 -0.530993 -1.48385 0
M  V30 4518 C 425.147 0.268353 -2.27624 0
M  V30 4519 C 426.16 0.903525 -1.35426 0
M  V30 4520 O 427.349 0.781796 -1.60469 0
M  V30 4521 C 424.449 1.39535 -3.08842 0
M  V30 4522 C 423.622 0.861913 -4.28824 0
M  V30 4523 C 422.681 1.87016 -4.91845 0
M  V30 4524 O 421.707 1.4267 -5.5103 0
M  V30 4525 N 422.909 3.20238 -4.84178 0
M  V30 4526 H 425.674 -0.41123 -2.96865 0
M  V30 4527 H 423.235 -0.365387 -1.57723 0
M  V30 4528 H 425.227 2.06803 -3.47871 0
M  V30 4529 H 423.797 1.97859 -2.42014 0
M  V30 4530 H 423.017 0.0132126 -3.94198 0
M  V30 4531 H 424.305 0.484415 -5.06489 0
M  V30 4532 H 423.703 3.58932 -4.37246 0
M  V30 4533 H 422.26 3.83136 -5.27305 0
M  V30 4534 N 425.693 1.55336 -0.266172 0
M  V30 4535 C 426.623 2.25146 0.618981 0
M  V30 4536 C 427.604 1.23845 1.16604 0
M  V30 4537 O 428.789 1.52544 1.20183 0
M  V30 4538 C 425.919 2.96572 1.80728 0
M  V30 4539 C 424.873 4.04726 1.39215 0
M  V30 4540 C 424.199 4.63678 2.66283 0
M  V30 4541 C 425.499 5.19407 0.548942 0
M  V30 4542 H 427.193 2.99377 0.0368116 0
M  V30 4543 H 424.739 1.43991 0.0162651 0
M  V30 4544 H 426.692 3.44116 2.43232 0
M  V30 4545 H 425.416 2.19861 2.41514 0
M  V30 4546 H 424.075 3.57979 0.790351 0
M  V30 4547 H 423.723 3.83646 3.25308 0
M  V30 4548 H 423.423 5.367 2.39222 0
M  V30 4549 H 424.947 5.13967 3.29651 0
M  V30 4550 H 426.361 5.63059 1.07876 0
M  V30 4551 H 424.758 5.98936 0.373593 0
M  V30 4552 H 425.828 4.8295 -0.434394 0
M  V30 4553 N 427.171 -0.0066808 1.57599 0
M  V30 4554 C 428.081 -1.01671 2.11424 0
M  V30 4555 C 429.097 -1.38143 1.05795 0
M  V30 4556 O 430.273 -1.47011 1.37658 0
M  V30 4557 C 427.338 -2.29192 2.60139 0
M  V30 4558 C 426.399 -1.99094 3.80342 0
M  V30 4559 C 425.632 -3.20535 4.26724 0
M  V30 4560 O 425.855 -4.3199 3.72479 0
M  V30 4561 O 424.789 -3.04924 5.18946 0
M  V30 4562 H 428.615 -0.589181 2.9793 0
M  V30 4563 H 426.2 -0.225091 1.47695 0
M  V30 4564 H 428.082 -3.0412 2.917 0
M  V30 4565 H 426.757 -2.71195 1.76733 0
M  V30 4566 H 425.664 -1.21663 3.53764 0
M  V30 4567 H 426.997 -1.61931 4.648 0
M  V30 4568 N 428.649 -1.55105 -0.279332 0
M  V30 4569 C 429.579 -1.90557 -1.34945 0
M  V30 4570 C 430.56 -0.766738 -1.51839 0
M  V30 4571 O 431.745 -1.02434 -1.64988 0
M  V30 4572 C 428.875 -2.17193 -2.71006 0
M  V30 4573 C 427.829 -3.33021 -2.68851 0
M  V30 4574 C 427.155 -3.45123 -4.08405 0
M  V30 4575 C 428.455 -4.69578 -2.28678 0
M  V30 4576 H 430.149 -2.80188 -1.05522 0
M  V30 4577 H 427.695 -1.34811 -0.506173 0
M  V30 4578 H 429.648 -2.40581 -3.45975 0
M  V30 4579 H 428.372 -1.24355 -3.01999 0
M  V30 4580 H 427.031 -3.0959 -1.9634 0
M  V30 4581 H 426.679 -2.49762 -4.3661 0
M  V30 4582 H 426.379 -4.22995 -4.07859 0
M  V30 4583 H 427.903 -3.70796 -4.85121 0
M  V30 4584 H 429.317 -4.92553 -2.93368 0
M  V30 4585 H 427.714 -5.5032 -2.39306 0
M  V30 4586 H 428.784 -4.68828 -1.23807 0
M  V30 4587 N 430.127 0.543554 -1.4793 0
M  V30 4588 C 431.543 0.870806 -1.3375 0
M  V30 4589 C 431.743 1.9864 -0.338261 0
M  V30 4590 O 430.799 2.51305 0.245371 0
M  V30 4591 C 432.112 1.25114 -2.73435 0
M  V30 4592 C 433.66 1.3618 -2.81823 0
M  V30 4593 C 434.135 1.77563 -4.22179 0
M  V30 4594 N 435.626 1.8469 -4.24787 0
M  V30 4595 C 436.361 2.18067 -5.30315 0
M  V30 4596 N 435.857 2.49963 -6.46135 0
M  V30 4597 N 437.65 2.18958 -5.17701 0
M  V30 4598 H 429.801 -0.19275 -2.11524 0
M  V30 4599 H 432.064 -0.0235777 -0.947707 0
M  V30 4600 H 431.77 0.50514 -3.48053 0
M  V30 4601 H 431.644 2.20431 -3.06088 0
M  V30 4602 H 434.031 2.09859 -2.07468 0
M  V30 4603 H 434.112 0.390169 -2.52807 0
M  V30 4604 H 433.756 1.04449 -4.97044 0
M  V30 4605 H 433.686 2.75753 -4.48629 0
M  V30 4606 H 436.177 1.62372 -3.41239 0
M  V30 4607 H 436.49 2.74497 -7.22406 0
M  V30 4608 H 434.835 2.47513 -6.49432 0
M  V30 4609 H 438.026 1.93488 -4.2624 0
M  V30 4610 H 438.199 2.44639 -6.00047 0
M  V30 4611 N 431.605 1.3629 0.791371 0
M  V30 4612 C 432.538 1.24816 1.9104 0
M  V30 4613 C 433.516 0.132739 1.62057 0
M  V30 4614 O 434.7 0.303527 1.8604 0
M  V30 4615 C 431.827 0.925355 3.25814 0
M  V30 4616 C 430.873 2.05495 3.7373 0
M  V30 4617 S 431.706 3.67255 3.89723 0
M  V30 4618 C 432.862 3.37084 5.27376 0
M  V30 4619 H 433.095 2.19533 2.00481 0
M  V30 4620 H 430.628 1.21684 0.950393 0
M  V30 4621 H 432.586 0.745924 4.03666 0
M  V30 4622 H 431.247 -0.00400098 3.141 0
M  V30 4623 H 430.44 1.7836 4.71385 0
M  V30 4624 H 430.042 2.1935 3.02922 0
M  V30 4625 H 432.334 2.90856 6.1189 0
M  V30 4626 H 433.277 4.33995 5.59512 0
M  V30 4627 H 433.685 2.7248 4.94383 0
M  V30 4628 N 433.083 -1.0153 1.20538 0
M  V30 4629 C 434.329 -1.75408 1.01783 0
M  V30 4630 C 434.662 -1.88943 -0.448814 0
M  V30 4631 O 433.937 -1.4162 -1.33319 0
M  V30 4632 C 434.22 -3.17255 1.70356 0
M  V30 4633 C 434.073 -3.11508 3.24473 0
M  V30 4634 C 435.392 -4.15955 1.43769 0
M  V30 4635 H 432.511 -0.636713 0.371167 0
M  V30 4636 H 435.153 -1.18436 1.4857 0
M  V30 4637 H 433.303 -3.65898 1.30578 0
M  V30 4638 H 434.975 -2.70658 3.73553 0
M  V30 4639 H 433.218 -2.4887 3.55311 0
M  V30 4640 H 433.889 -4.11784 3.67611 0
M  V30 4641 H 436.365 -3.75973 1.7828 0
M  V30 4642 H 435.241 -5.13368 1.94279 0
M  V30 4643 H 435.502 -4.40586 0.365564 0
M  V30 4644 N 434.561 -1.01147 -1.20859 0
M  V30 4645 C 435.493 -0.535546 -2.22855 0
M  V30 4646 C 436.506 0.379323 -1.58319 0
M  V30 4647 O 437.695 0.178489 -1.77605 0
M  V30 4648 C 434.795 0.240962 -3.38042 0
M  V30 4649 C 433.968 -0.674562 -4.32167 0
M  V30 4650 C 433.027 0.053467 -5.26173 0
M  V30 4651 O 432.053 -0.567339 -5.66366 0
M  V30 4652 N 433.255 1.32997 -5.65059 0
M  V30 4653 H 436.02 -1.41268 -2.64317 0
M  V30 4654 H 433.581 -0.888386 -1.35349 0
M  V30 4655 H 435.573 0.737115 -3.97931 0
M  V30 4656 H 434.143 1.01935 -2.95513 0
M  V30 4657 H 433.363 -1.35111 -3.70322 0
M  V30 4658 H 434.651 -1.2974 -4.91981 0
M  V30 4659 H 434.049 1.85536 -5.34409 0
M  V30 4660 H 432.606 1.77095 -6.2728 0
M  V30 4661 N 436.039 1.36541 -0.78704 0
M  V30 4662 C 437.264 2.0409 -0.369053 0
M  V30 4663 C 437.689 1.58957 1.00569 0
M  V30 4664 O 437.047 0.756926 1.64743 0
M  V30 4665 C 437.095 3.57924 -0.438466 0
M  V30 4666 O 436.199 4.08642 0.555479 0
M  V30 4667 H 435.54 0.645142 -0.157122 0
M  V30 4668 H 438.07 1.74545 -1.06749 0
M  V30 4669 H 438.08 4.06887 -0.301218 0
M  V30 4670 H 436.755 3.90127 -1.44132 0
M  V30 4671 H 435.332 3.70958 0.380088 0
M  V30 4672 N 437.518 0.538854 1.48102 0
M  V30 4673 C 438.465 -0.219042 2.29758 0
M  V30 4674 C 439.435 -0.925562 1.37922 0
M  V30 4675 O 440.62 -0.924855 1.66886 0
M  V30 4676 C 437.76 -1.25452 3.2149 0
M  V30 4677 C 436.873 -0.555943 4.28408 0
M  V30 4678 C 436.008 -1.57512 5.0731 0
M  V30 4679 C 435.047 -0.860498 6.06021 0
M  V30 4680 N 434.184 -1.82564 6.77949 0
M  V30 4681 H 439.024 0.483449 2.94052 0
M  V30 4682 H 436.561 0.250247 1.44956 0
M  V30 4683 H 438.519 -1.86727 3.7308 0
M  V30 4684 H 437.149 -1.92528 2.591 0
M  V30 4685 H 436.201 0.170938 3.80016 0
M  V30 4686 H 437.513 0.00474616 4.988 0
M  V30 4687 H 436.667 -2.26191 5.62959 0
M  V30 4688 H 435.406 -2.16972 4.36778 0
M  V30 4689 H 434.411 -0.159686 5.49568 0
M  V30 4690 H 435.636 -0.271897 6.78555 0
M  V30 4691 H 433.582 -2.40915 6.10161 0
M  V30 4692 H 433.499 -1.31662 7.44447 0
M  V30 4693 H 434.767 -2.50414 7.38182 0
M  V30 4694 N 438.996 -1.55193 0.274407 0
M  V30 4695 C 440.412 -1.59401 -0.0797543 0
M  V30 4696 C 440.612 -1.29162 -1.54659 0
M  V30 4697 O 439.668 -1.05215 -2.29534 0
M  V30 4698 C 440.981 -2.99257 0.294238 0
M  V30 4699 C 442.529 -3.12072 0.240796 0
M  V30 4700 C 443.004 -4.54194 0.589218 0
M  V30 4701 N 444.495 -4.60033 0.540744 0
M  V30 4702 C 445.23 -5.68027 0.783147 0
M  V30 4703 N 444.726 -6.8417 1.09013 0
M  V30 4704 N 446.519 -5.57572 0.711993 0
M  V30 4705 H 438.67 -1.73113 1.23067 0
M  V30 4706 H 440.933 -0.807197 0.497129 0
M  V30 4707 H 440.639 -3.26217 1.31435 0
M  V30 4708 H 440.513 -3.75427 -0.365281 0
M  V30 4709 H 442.9 -2.84877 -0.770024 0
M  V30 4710 H 442.981 -2.38117 0.934563 0
M  V30 4711 H 442.625 -4.82115 1.59772 0
M  V30 4712 H 442.555 -5.26448 -0.126331 0
M  V30 4713 H 445.046 -3.76599 0.313327 0
M  V30 4714 H 445.359 -7.6243 1.26178 0
M  V30 4715 H 443.704 -6.85787 1.12789 0
M  V30 4716 H 446.895 -4.65714 0.472014 0
M  V30 4717 H 447.068 -6.41659 0.90429 0
M  V30 4718 N 440.474 -0.00167713 -1.576 0
M  V30 4719 C 441.751 0.719951 -1.81868 0
M  V30 4720 C 442.131 1.91895 -0.879747 0
M  V30 4721 O 441.479 2.28389 0.0711423 0
M  V30 4722 C 441.689 1.12409 -3.30402 0
M  V30 4723 C 443.037 1.52724 -3.96182 0
M  V30 4724 O 444.061 1.21784 -3.34734 0
M  V30 4725 O 442.92 2.10265 -5.04431 0
M  V30 4726 H 440.014 0.350707 -0.748955 0
M  V30 4727 H 442.56 -0.0272597 -1.69678 0
M  V30 4728 H 441.332 0.269532 -3.90371 0
M  V30 4729 H 440.955 1.93035 -3.47596 0
M  V30 4730 N 441.952 1.55251 0.271103 0
M  V30 4731 C 443.201 1.75151 1.00025 0
M  V30 4732 C 443.514 0.561041 1.87381 0
M  V30 4733 O 444.72 0.642506 2.63788 0
M  V30 4734 C 443.176 3.09999 1.82835 0
M  V30 4735 C 442.784 4.3662 1.00336 0
M  V30 4736 C 444.528 3.39249 2.55168 0
M  V30 4737 C 442.435 5.62506 1.82595 0
M  V30 4738 H 441.365 0.652877 0.377183 0
M  V30 4739 H 444.016 1.81708 0.255843 0
M  V30 4740 H 442.398 2.97485 2.61378 0
M  V30 4741 H 443.572 4.60055 0.261959 0
M  V30 4742 H 441.887 4.14527 0.394486 0
M  V30 4743 H 444.484 4.3051 3.1712 0
M  V30 4744 H 444.827 2.59467 3.2555 0
M  V30 4745 H 445.36 3.52869 1.83653 0
M  V30 4746 H 442.099 6.45041 1.16631 0
M  V30 4747 H 441.619 5.43211 2.54327 0
M  V30 4748 H 443.298 6.00875 2.39913 0
M  V30 4749 N 443.43 -0.535701 1.48216 0
M  V30 4750 C 444.34 -1.66785 1.64985 0
M  V30 4751 C 445.356 -1.65654 0.532414 0
M  V30 4752 O 446.532 -1.8471 0.80275 0
M  V30 4753 C 443.597 -3.0326 1.68031 0
M  V30 4754 C 442.658 -3.1529 2.9136 0
M  V30 4755 C 441.891 -4.45255 2.94252 0
M  V30 4756 O 442.114 -5.32011 2.05719 0
M  V30 4757 O 441.048 -4.6153 3.86359 0
M  V30 4758 H 444.874 -1.55576 2.60825 0
M  V30 4759 H 442.459 -0.70815 1.31551 0
M  V30 4760 H 444.341 -3.84436 1.72589 0
M  V30 4761 H 443.016 -3.14805 0.753628 0
M  V30 4762 H 441.923 -2.3343 2.92337 0
M  V30 4763 H 443.256 -3.08658 3.83394 0
M  V30 4764 N 444.908 -1.36708 -0.784132 0
M  V30 4765 C 446.185 -1.21776 -1.53069 0
M  V30 4766 C 446.565 0.193876 -2.10208 0
M  V30 4767 O 445.913 1.20012 -1.94446 0
M  V30 4768 C 446.123 -2.30395 -2.62143 0
M  V30 4769 C 447.471 -2.67325 -3.29882 0
M  V30 4770 O 448.495 -2.29478 -2.7243 0
M  V30 4771 O 447.354 -3.32485 -4.33724 0
M  V30 4772 H 444.448 -0.474459 -0.677361 0
M  V30 4773 H 446.994 -1.48454 -0.82216 0
M  V30 4774 H 445.766 -3.2498 -2.17953 0
M  V30 4775 H 445.389 -2.05112 -3.40609 0
M  V30 4776 N 446.386 1.0089 -1.21074 0
M  V30 4777 C 447.797 1.56056 -1.02486 0
M  V30 4778 C 448.148 1.91728 0.416506 0
M  V30 4779 O 447.273 1.73066 1.29912 0
M  V30 4780 C 447.868 2.83563 -1.85411 0
M  V30 4781 C 446.427 3.3523 -1.71166 0
M  V30 4782 C 445.574 2.0846 -1.82865 0
M  V30 4783 H 448.525 0.831818 -1.35154 0
M  V30 4784 H 448.546 3.55286 -1.36205 0
M  V30 4785 H 448.058 2.57569 -2.9031 0
M  V30 4786 H 446.159 3.66167 -0.689361 0
M  V30 4787 H 446.272 4.06913 -2.52901 0
M  V30 4788 H 444.636 2.21275 -1.26132 0
M  V30 4789 H 445.419 1.84883 -2.89263 0
M  V30 4790 N 447.864 1.01787 1.20321 0
M  V30 4791 C 448.774 0.598898 2.26827 0
M  V30 4792 C 449.79 -0.36418 1.70146 0
M  V30 4793 O 450.966 -0.224812 2.00141 0
M  V30 4794 C 448.031 -0.0549769 3.46656 0
M  V30 4795 C 447.092 0.954205 4.18561 0
M  V30 4796 C 446.325 0.331439 5.3267 0
M  V30 4797 O 446.548 -0.86851 5.63749 0
M  V30 4798 O 445.482 1.0488 5.92692 0
M  V30 4799 H 449.308 1.48562 2.64883 0
M  V30 4800 H 446.893 0.787434 1.26964 0
M  V30 4801 H 448.775 -0.420102 4.19301 0
M  V30 4802 H 447.45 -0.915876 3.10473 0
M  V30 4803 H 446.357 1.37072 3.48083 0
M  V30 4804 H 447.69 1.78511 4.58688 0
M  V30 4805 N 449.342 -1.36122 0.79427 0
M  V30 4806 C 450.591 -1.98361 0.365464 0
M  V30 4807 C 450.904 -1.6374 -1.06997 0
M  V30 4808 O 452.11 -2.19251 -1.60129 0
M  V30 4809 C 450.566 -3.54821 0.602496 0
M  V30 4810 C 450.174 -3.98362 2.04967 0
M  V30 4811 C 451.918 -4.2383 0.238437 0
M  V30 4812 C 449.825 -5.47619 2.2331 0
M  V30 4813 H 448.755 -0.742193 0.13291 0
M  V30 4814 H 451.406 -1.55354 0.976589 0
M  V30 4815 H 449.788 -3.95922 -0.078409 0
M  V30 4816 H 450.962 -3.68447 2.76737 0
M  V30 4817 H 449.277 -3.42206 2.37243 0
M  V30 4818 H 451.874 -5.33529 0.353705 0
M  V30 4819 H 452.217 -4.08264 -0.814006 0
M  V30 4820 H 452.75 -3.88108 0.872769 0
M  V30 4821 H 449.489 -5.68138 3.26955 0
M  V30 4822 H 449.009 -5.79145 1.5605 0
M  V30 4823 H 450.688 -6.13911 2.0426 0
M  V30 4824 N 450.82 -0.546701 -1.47814 0
M  V30 4825 C 452.066 -0.0187684 -2.02791 0
M  V30 4826 C 452.399 1.32338 -1.42128 0
M  V30 4827 O 451.674 1.85867 -0.573023 0
M  V30 4828 C 451.957 0.0854985 -3.59998 0
M  V30 4829 C 451.81 -1.283 -4.31114 0
M  V30 4830 C 453.129 0.80412 -4.32691 0
M  V30 4831 H 450.248 -0.0082946 -0.736953 0
M  V30 4832 H 452.89 -0.706962 -1.76358 0
M  V30 4833 H 451.04 0.671609 -3.82651 0
M  V30 4834 H 452.712 -1.91151 -4.19832 0
M  V30 4835 H 450.955 -1.86049 -3.91878 0
M  V30 4836 H 451.626 -1.16287 -5.39612 0
M  V30 4837 H 454.102 0.306576 -4.14969 0
M  V30 4838 H 452.978 0.846011 -5.42341 0
M  V30 4839 H 453.239 1.85802 -4.01161 0
M  V30 4840 N 452.299 1.55045 -0.282633 0
M  V30 4841 C 453.545 2.00056 0.332481 0
M  V30 4842 C 453.878 1.1708 1.54939 0
M  V30 4843 O 453.153 0.2427 1.9298 0
M  V30 4844 C 453.436 3.53086 0.70725 0
M  V30 4845 C 453.289 4.46813 -0.517521 0
M  V30 4846 C 454.608 4.12245 1.54084 0
M  V30 4847 H 451.727 0.727268 0.119373 0
M  V30 4848 H 454.369 1.85932 -0.391076 0
M  V30 4849 H 452.519 3.65253 1.32372 0
M  V30 4850 H 454.191 4.46579 -1.15607 0
M  V30 4851 H 452.434 4.18163 -1.1542 0
M  V30 4852 H 453.105 5.51595 -0.211426 0
M  V30 4853 H 455.581 4.03401 1.02013 0
M  V30 4854 H 454.457 5.19515 1.77186 0
M  V30 4855 H 454.718 3.62951 2.52427 0
M  V30 4856 N 453.777 0.010035 1.57597 0
M  V30 4857 C 454.709 -1.00649 2.05918 0
M  V30 4858 C 455.722 -1.30077 0.978964 0
M  V30 4859 O 456.911 -1.26878 1.25556 0
M  V30 4860 C 454.011 -2.33876 2.45265 0
M  V30 4861 C 453.184 -2.23242 3.7614 0
M  V30 4862 C 452.243 -3.39242 4.02245 0
M  V30 4863 O 451.269 -3.1698 4.72771 0
M  V30 4864 N 452.471 -4.6242 3.50924 0
M  V30 4865 H 455.236 -0.594333 2.93748 0
M  V30 4866 H 452.797 -0.17714 1.60928 0
M  V30 4867 H 454.789 -3.1027 2.59836 0
M  V30 4868 H 453.359 -2.66799 1.62902 0
M  V30 4869 H 452.579 -1.31696 3.71551 0
M  V30 4870 H 453.867 -2.13321 4.61922 0
M  V30 4871 H 453.265 -4.83404 2.93832 0
M  V30 4872 H 451.822 -5.36046 3.70807 0
M  V30 4873 N 455.255 -1.55392 -0.262866 0
M  V30 4874 C 456.218 -1.88181 -1.30846 0
M  V30 4875 C 457.218 -0.757079 -1.41862 0
M  V30 4876 O 458.408 -1.02519 -1.40838 0
M  V30 4877 C 455.54 -2.09609 -2.68844 0
M  V30 4878 H 456.733 -2.81659 -1.02997 0
M  V30 4879 H 454.286 -1.48039 -0.501414 0
M  V30 4880 H 455.021 -1.18547 -3.01856 0
M  V30 4881 H 454.806 -2.91508 -2.62231 0
M  V30 4882 H 456.296 -2.36215 -3.44372 0
M  V30 4883 N 456.733 0.527833 -1.48498 0
M  V30 4884 C 457.961 1.30823 -1.6029 0
M  V30 4885 C 458.376 1.86945 -0.263974 0
M  V30 4886 O 457.733 1.6651 0.747034 0
M  V30 4887 C 457.784 2.45756 -2.65116 0
M  V30 4888 O 457.505 1.91946 -3.93813 0
M  V30 4889 C 459.006 3.37543 -2.87367 0
M  V30 4890 H 456.226 0.397763 -0.540394 0
M  V30 4891 H 458.77 0.636529 -1.94341 0
M  V30 4892 H 456.925 3.08806 -2.33917 0
M  V30 4893 H 457.339 2.67195 -4.51339 0
M  V30 4894 H 458.813 4.14532 -3.6451 0
M  V30 4895 H 459.29 3.92905 -1.9627 0
M  V30 4896 H 459.896 2.80283 -3.19878 0
M  V30 4897 N 458.211 1.37122 0.776871 0
M  V30 4898 C 459.457 1.32243 1.53752 0
M  V30 4899 C 459.79 -0.0944745 1.9397 0
M  V30 4900 O 459.065 -1.05068 1.6368 0
M  V30 4901 C 459.348 2.25681 2.80607 0
M  V30 4902 C 459.201 3.76127 2.46676 0
M  V30 4903 C 460.52 2.17657 3.82509 0
M  V30 4904 H 457.639 0.481704 0.557791 0
M  V30 4905 H 460.281 1.6778 0.891612 0
M  V30 4906 H 458.431 1.95505 3.35723 0
M  V30 4907 H 460.103 4.16877 1.97513 0
M  V30 4908 H 458.346 3.94946 1.79443 0
M  V30 4909 H 459.017 4.36933 3.37333 0
M  V30 4910 H 461.493 2.44245 3.36873 0
M  V30 4911 H 460.369 2.85185 4.69 0
M  V30 4912 H 460.63 1.16785 4.26396 0
M  V30 4913 N 459.689 -1.00246 1.21608 0
M  V30 4914 C 460.619 -2.10921 1.00172 0
M  V30 4915 C 461.6 -1.69938 -0.0741587 0
M  V30 4916 O 462.785 -1.94009 0.0861753 0
M  V30 4917 C 459.915 -3.42618 0.568355 0
M  V30 4918 C 458.869 -3.97407 1.58909 0
M  V30 4919 C 458.195 -5.25038 1.01187 0
M  V30 4920 C 459.495 -4.2918 2.97661 0
M  V30 4921 H 461.189 -2.29112 1.92739 0
M  V30 4922 H 458.735 -1.10101 0.928102 0
M  V30 4923 H 460.688 -4.19444 0.405555 0
M  V30 4924 H 459.412 -3.24227 -0.392961 0
M  V30 4925 H 458.071 -3.22703 1.73949 0
M  V30 4926 H 457.719 -5.02982 0.0421965 0
M  V30 4927 H 457.419 -5.62661 1.6937 0
M  V30 4928 H 458.943 -6.04507 0.860448 0
M  V30 4929 H 460.357 -4.96839 2.86049 0
M  V30 4930 H 458.754 -4.77952 3.6288 0
M  V30 4931 H 459.824 -3.3735 3.48315 0
M  V30 4932 O 461.206 -1.15084 -1.13305 0
M  V30 4933 H 461.897 -0.875834 -1.72768 0
M  V30 END ATOM
M  V30 BEGIN BOND
M  V30 END BOND
M  V30 END CTAB
M  END
$$$$
