drugbank_target|Q15596 Nuclear receptor coactivator 2 (DB00255; DB01645; DB02998; DB06871; DB06898; DB07080; DB07086; DB07087; DB07195; DB07678; DB07707; DB07708; DB07712; DB07863; DB07932; DB08047; DB08048; DB08175; DB08320; DB08398; DB08402; DB08595; DB08601; DB08773; DB13952; DB13953; DB13954; DB13955; DB13956)
 OpenBabel12092120383D

  0  0  0     0  0            999 V3000
M  V30 BEGIN CTAB
M  V30 COUNTS 21991 22220 0 0 0
M  V30 BEGIN ATOM
M  V30 1 H -0.908 1.98254 -0.117106 0
M  V30 2 N 0 1.576 0 0
M  V30 3 C 0.933 2.03868 1.02534 0
M  V30 4 C 1.911 0.928543 1.3348 0
M  V30 5 O 3.095 1.19667 1.45644 0
M  V30 6 C 0.222 2.43627 2.35294 0
M  V30 7 C -0.732 3.65373 2.2001 0
M  V30 8 S 0.101 5.13292 1.52614 0
M  V30 9 C 1.257 5.56322 2.86805 0
M  V30 10 H 1.49 2.90518 0.631377 0
M  V30 11 H -0.977 1.52953 0.210867 0
M  V30 12 H 0.981 2.67203 3.11629 0
M  V30 13 H -0.358 1.57376 2.7183 0
M  V30 14 H -1.165 3.90944 3.18086 0
M  V30 15 H -1.563 3.418 1.51819 0
M  V30 16 H 0.729 5.58782 3.83104 0
M  V30 17 H 1.672 6.56266 2.65933 0
M  V30 18 H 2.08 4.83886 2.90714 0
M  V30 19 N 1.4781 -0.272755 1.55222 0
M  V30 20 C 2.7031 -1.02683 1.80197 0
M  V30 21 C 3.1281 -1.79142 0.573551 0
M  V30 22 O 2.4861 -1.74917 -0.476849 0
M  V30 23 C 2.5341 -1.9609 3.02624 0
M  V30 24 O 1.6381 -3.04863 2.77727 0
M  V30 25 H 0.9791 -0.293557 0.595584 0
M  V30 26 H 3.5091 -0.30159 2.02365 0
M  V30 27 H 3.5191 -2.38039 3.31363 0
M  V30 28 H 2.1941 -1.39851 3.91682 0
M  V30 29 H 0.7711 -2.67228 2.60084 0
M  V30 30 N 2.9562 -1.48159 -0.537278 0
M  V30 31 C 4.2042 -1.55497 -1.29094 0
M  V30 32 C 4.5252 -0.227454 -1.93669 0
M  V30 33 O 3.7952 0.750386 -1.80959 0
M  V30 34 H 2.3752 -0.572832 -0.47945 0
M  V30 35 H 5.0372 -1.84579 -0.625818 0
M  V30 36 H 4.1332 -2.33216 -2.07405 0
M  V30 37 N 4.4343 0.785586 -1.36625 0
M  V30 38 C 5.3673 1.90509 -1.25625 0
M  V30 39 C 6.3453 1.62 -0.139607 0
M  V30 40 O 7.5293 1.8591 -0.31141 0
M  V30 41 C 4.6563 3.25419 -0.939158 0
M  V30 42 C 3.7023 3.72856 -2.07077 0
M  V30 43 S 4.5353 3.88162 -3.68904 0
M  V30 44 C 5.6913 5.25942 -3.39317 0
M  V30 45 H 5.9243 1.99549 -2.20381 0
M  V30 46 H 3.4573 0.945226 -1.22085 0
M  V30 47 H 5.4153 4.03346 -0.763029 0
M  V30 48 H 4.0763 3.14099 -0.00931402 0
M  V30 49 H 3.2693 4.70624 -1.80357 0
M  V30 50 H 2.8713 3.01989 -2.20632 0
M  V30 51 H 5.1633 6.10651 -2.93447 0
M  V30 52 H 6.1063 5.57668 -4.36363 0
M  V30 53 H 6.5143 4.93224 -2.74573 0
M  V30 54 N 5.9124 1.20967 1.01018 0
M  V30 55 C 7.1604 1.02172 1.74371 0
M  V30 56 C 7.4814 -0.446414 1.89821 0
M  V30 57 O 6.7514 -1.32234 1.44537 0
M  V30 58 H 5.3314 0.375066 0.646014 0
M  V30 59 H 7.9934 1.52187 1.21758 0
M  V30 60 H 7.0894 1.48538 2.74487 0
M  V30 61 N 7.3905 -1.2043 1.01659 0
M  V30 62 C 8.3005 -2.2689 0.596484 0
M  V30 63 C 9.3165 -1.70107 -0.36599 0
M  V30 64 O 10.4925 -2.00117 -0.226942 0
M  V30 65 C 7.5575 -3.4665 -0.0586659 0
M  V30 66 C 6.6185 -4.18662 0.949751 0
M  V30 67 C 5.8515 -5.32705 0.32577 0
M  V30 68 O 6.0745 -5.63656 -0.874509 0
M  V30 69 O 5.0085 -5.92803 1.04249 0
M  V30 70 H 8.8345 -2.65041 1.4828 0
M  V30 71 H 6.4195 -1.27048 0.786082 0
M  V30 72 H 8.3015 -4.19256 -0.424564 0
M  V30 73 H 6.9765 -3.10375 -0.91918 0
M  V30 74 H 5.8835 -3.48229 1.36702 0
M  V30 75 H 7.2165 -4.58878 1.78023 0
M  V30 76 N 8.8686 -0.792821 -1.36206 0
M  V30 77 C 9.8166 -0.181555 -2.3189 0
M  V30 78 C 10.8106 0.661025 -1.55971 0
M  V30 79 O 12.0166 0.555728 -1.71206 0
M  V30 80 H 8.3916 -0.0399382 -0.750939 0
M  V30 81 H 10.3626 -1.00394 -2.81005 0
M  V30 82 C 9.1116 0.666444 -3.41253 0
M  V30 83 H 8.4346 0.0274489 -3.99791 0
M  V30 84 H 9.8746 1.06076 -4.10517 0
M  V30 85 C 8.3336 1.82614 -2.83114 0
M  V30 86 O 8.8636 2.9229 -2.75553 0
M  V30 87 N 7.0696 1.63333 -2.40356 0
M  V30 88 H 6.6166 0.741217 -2.46706 0
M  V30 89 H 6.5746 2.41087 -2.01803 0
M  V30 90 N 10.3467 1.47872 -0.545128 0
M  V30 91 C 11.5747 2.06889 -0.021084 0
M  V30 92 C 11.9897 1.39955 1.2672 0
M  V30 93 O 11.3467 0.492036 1.75742 0
M  V30 94 C 11.3977 3.60996 0.190817 0
M  V30 95 O 11.1187 4.25419 -1.04644 0
M  V30 96 C 12.6197 4.36849 0.753521 0
M  V30 97 H 9.8397 0.669785 -0.0403635 0
M  V30 98 H 12.3837 1.90049 -0.755095 0
M  V30 99 H 10.5387 3.77391 0.87492 0
M  V30 100 H 10.9527 5.17785 -0.836611 0
M  V30 101 H 12.4267 5.45399 0.851139 0
M  V30 102 H 12.9037 4.02306 1.762 0
M  V30 103 H 13.5097 4.25169 0.105503 0
M  V30 104 N 11.8248 0.280983 1.55075 0
M  V30 105 C 13.0498 -0.340154 2.04592 0
M  V30 106 C 13.4748 -1.48246 1.15779 0
M  V30 107 O 12.8328 -1.80614 0.15761 0
M  V30 108 C 12.8808 -0.793104 3.5177 0
M  V30 109 O 11.9848 -1.89981 3.66034 0
M  V30 110 H 11.3258 -0.0694289 0.66036 0
M  V30 111 H 13.8558 0.416993 2.00306 0
M  V30 112 H 13.8658 -1.08729 3.93245 0
M  V30 113 H 12.5408 0.0426163 4.15878 0
M  V30 114 H 11.1178 -1.60771 3.36463 0
M  V30 115 N 13.3029 -1.57598 0.00835791 0
M  V30 116 C 14.5799 -1.82172 -0.712235 0
M  V30 117 C 14.9599 -0.887873 -1.9152 0
M  V30 118 O 14.3079 0.06146 -2.28417 0
M  V30 119 C 14.5179 -3.30875 -1.11008 0
M  V30 120 C 15.8659 -3.96826 -1.51044 0
M  V30 121 O 16.8899 -3.35248 -1.20364 0
M  V30 122 O 15.7489 -5.05318 -2.08125 0
M  V30 123 H 12.8429 -0.750435 -0.347529 0
M  V30 124 H 15.3889 -1.69665 0.0344523 0
M  V30 125 H 14.1609 -3.90481 -0.252982 0
M  V30 126 H 13.7839 -3.48412 -1.9156 0
M  V30 127 N 14.781 0.264519 -1.55364 0
M  V30 128 C 16.192 0.834936 -1.6699 0
M  V30 129 C 16.543 1.86718 -0.602552 0
M  V30 130 O 15.668 2.14899 0.254425 0
M  V30 131 C 16.263 1.5212 -3.02729 0
M  V30 132 C 14.822 2.03954 -3.16354 0
M  V30 133 C 13.969 0.884498 -2.62815 0
M  V30 134 H 16.92 0.0406869 -1.58648 0
M  V30 135 H 16.941 2.38853 -2.96191 0
M  V30 136 H 16.453 0.769668 -3.80392 0
M  V30 137 H 14.554 2.82041 -2.43482 0
M  V30 138 H 14.667 2.24902 -4.23032 0
M  V30 139 H 13.031 1.2802 -2.20188 0
M  V30 140 H 13.814 0.14634 -3.42988 0
M  V30 141 N 16.2591 1.48442 0.529413 0
M  V30 142 C 17.4841 1.60406 1.31471 0
M  V30 143 C 17.9091 0.264738 1.86228 0
M  V30 144 O 17.2671 -0.763668 1.64432 0
M  V30 145 C 17.3151 2.65419 2.44101 0
M  V30 146 O 16.4191 2.22618 3.47153 0
M  V30 147 H 15.7601 0.537863 0.389357 0
M  V30 148 H 18.2901 1.94432 0.636965 0
M  V30 149 H 18.3001 2.86709 2.90279 0
M  V30 150 H 16.9751 3.62652 2.03608 0
M  V30 151 H 15.5521 2.11543 3.0709 0
M  V30 152 N 17.7372 -0.778329 1.37039 0
M  V30 153 C 19.1532 -1.07796 1.17695 0
M  V30 154 C 19.3532 -2.01498 0.00860115 0
M  V30 155 O 18.4092 -2.43901 -0.653352 0
M  V30 156 C 19.7222 -1.68178 2.49272 0
M  V30 157 C 21.2702 -1.80467 2.55735 0
M  V30 158 C 21.7452 -2.44263 3.87427 0
M  V30 159 N 23.2362 -2.51721 3.88833 0
M  V30 160 C 23.9712 -3.01919 4.87476 0
M  V30 161 N 23.4672 -3.5234 5.96513 0
M  V30 162 N 25.2602 -3.00733 4.74885 0
M  V30 163 H 17.4112 -0.156032 2.11826 0
M  V30 164 H 19.6742 -0.131844 0.938787 0
M  V30 165 H 19.3802 -1.06796 3.35093 0
M  V30 166 H 19.2542 -2.67554 2.65885 0
M  V30 167 H 21.6412 -2.40984 1.70325 0
M  V30 168 H 21.7222 -0.798656 2.43013 0
M  V30 169 H 21.3662 -1.84388 4.73248 0
M  V30 170 H 21.2962 -3.45458 3.9745 0
M  V30 171 H 23.7872 -2.1603 3.10063 0
M  V30 172 H 24.1002 -3.89027 6.67741 0
M  V30 173 H 22.4452 -3.50462 6.00168 0
M  V30 174 H 25.6362 -2.60638 3.88826 0
M  V30 175 H 25.8092 -3.39545 5.51918 0
M  V30 176 N 19.2153 -1.21501 -1.00376 0
M  V30 177 C 20.1783 -0.976927 -2.07337 0
M  V30 178 C 21.1783 0.0525322 -1.60714 0
M  V30 179 O 22.3683 -0.184869 -1.73216 0
M  V30 180 C 19.5003 -0.473423 -3.37597 0
M  V30 181 H 20.6933 -1.92587 -2.29892 0
M  V30 182 H 18.2463 -1.03217 -1.17371 0
M  V30 183 H 18.9813 0.480379 -3.20722 0
M  V30 184 H 18.7663 -1.216 -3.72768 0
M  V30 185 H 20.2563 -0.32675 -4.1632 0
M  V30 186 N 20.6934 1.19889 -1.02296 0
M  V30 187 C 21.6034 2.26571 -0.608508 0
M  V30 188 C 22.6194 1.70299 0.356964 0
M  V30 189 O 23.7954 2.00235 0.216326 0
M  V30 190 C 20.8604 3.46677 0.0402814 0
M  V30 191 C 19.9214 4.18153 -0.97194 0
M  V30 192 C 19.1544 5.32525 -0.354016 0
M  V30 193 O 19.3774 5.64112 0.844604 0
M  V30 194 O 18.3114 5.92242 -1.07391 0
M  V30 195 H 22.1374 2.64251 -1.49684 0
M  V30 196 H 19.7224 1.26629 -0.792809 0
M  V30 197 H 21.6044 4.19475 0.402324 0
M  V30 198 H 20.2794 3.10858 0.902707 0
M  V30 199 H 19.1864 3.47499 -1.38546 0
M  V30 200 H 20.5194 4.57927 -1.80454 0
M  V30 201 N 22.1715 0.800033 1.35784 0
M  V30 202 C 23.3995 0.389606 2.03199 0
M  V30 203 C 23.8145 -0.997375 1.60306 0
M  V30 204 O 23.1715 -1.64154 0.797481 0
M  V30 205 C 23.2225 0.455855 3.58614 0
M  V30 206 O 22.9435 1.78815 3.99946 0
M  V30 207 C 24.4445 0.0374032 4.43284 0
M  V30 208 H 21.6645 0.159132 0.651857 0
M  V30 209 H 24.2085 1.08183 1.73541 0
M  V30 210 H 22.3635 -0.188057 3.86943 0
M  V30 211 H 22.7775 1.74636 4.94573 0
M  V30 212 H 24.2515 0.134882 5.51835 0
M  V30 213 H 24.7285 -1.01651 4.27275 0
M  V30 214 H 25.3345 0.654215 4.20238 0
M  V30 215 N 23.6496 -1.47581 0.552962 0
M  V30 216 C 25.0656 -1.5818 0.212424 0
M  V30 217 C 25.2656 -1.55213 -1.28496 0
M  V30 218 O 24.3216 -1.45329 -2.06484 0
M  V30 219 C 25.6346 -2.88865 0.835318 0
M  V30 220 C 27.1826 -3.0244 0.806156 0
M  V30 221 C 27.6576 -4.35819 1.40804 0
M  V30 222 N 29.1486 -4.42444 1.37103 0
M  V30 223 C 29.8836 -5.44202 1.80641 0
M  V30 224 N 29.3796 -6.52795 2.32015 0
M  V30 225 N 31.1726 -5.35222 1.71738 0
M  V30 226 H 23.3236 -1.47753 1.52587 0
M  V30 227 H 25.5866 -0.702941 0.636064 0
M  V30 228 H 25.2926 -2.9676 1.88749 0
M  V30 229 H 25.1666 -3.7579 0.325848 0
M  V30 230 H 27.5536 -2.94144 -0.237317 0
M  V30 231 H 27.6346 -2.17068 1.35334 0
M  V30 232 H 27.2786 -4.44871 2.45056 0
M  V30 233 H 27.2086 -5.19916 0.836338 0
M  V30 234 H 29.6996 -3.6456 0.995202 0
M  V30 235 H 30.0126 -7.26609 2.63171 0
M  V30 236 H 28.3576 -6.53696 2.36023 0
M  V30 237 H 31.5486 -4.49284 1.31382 0
M  V30 238 H 31.7216 -6.14389 2.05987 0
M  V30 239 N 25.1277 -0.289203 -1.54924 0
M  V30 240 C 26.0747 0.592115 -2.23075 0
M  V30 241 C 27.0447 1.13881 -1.20915 0
M  V30 242 O 28.2297 1.18551 -1.495 0
M  V30 243 C 25.3697 1.76376 -2.96623 0
M  V30 244 C 24.4827 1.24959 -4.13533 0
M  V30 245 C 23.6177 2.38416 -4.74691 0
M  V30 246 C 22.6567 1.84072 -5.83767 0
M  V30 247 N 21.7937 2.91057 -6.38929 0
M  V30 248 H 26.6337 0.00432038 -2.98 0
M  V30 249 H 24.1707 -0.00963529 -1.47097 0
M  V30 250 H 26.1287 2.45268 -3.3749 0
M  V30 251 H 24.7587 2.32337 -2.24097 0
M  V30 252 H 23.8107 0.453307 -3.77689 0
M  V30 253 H 25.1227 0.811662 -4.92152 0
M  V30 254 H 24.2767 3.15276 -5.18349 0
M  V30 255 H 23.0157 2.8553 -3.95378 0
M  V30 256 H 22.0207 1.05697 -5.39545 0
M  V30 257 H 23.2457 1.37877 -6.64956 0
M  V30 258 H 21.1917 3.37526 -5.62505 0
M  V30 259 H 21.1087 2.51724 -7.12861 0
M  V30 260 H 22.3767 3.6785 -6.87246 0
M  V30 261 N 26.6058 1.57591 -0.0167156 0
M  V30 262 C 28.0218 1.55946 0.339557 0
M  V30 263 C 28.2218 1.02109 1.73713 0
M  V30 264 O 27.2778 0.662303 2.43659 0
M  V30 265 C 28.5908 3.00037 0.199499 0
M  V30 266 C 30.1388 3.11805 0.273193 0
M  V30 267 C 30.6138 4.57713 0.162068 0
M  V30 268 N 32.1048 4.6268 0.219444 0
M  V30 269 C 32.8398 5.73185 0.157054 0
M  V30 270 N 32.3358 6.92786 0.0442936 0
M  V30 271 N 34.1288 5.61707 0.21014 0
M  V30 272 H 26.2798 1.90921 -0.930758 0
M  V30 273 H 28.5428 0.877674 -0.358319 0
M  V30 274 H 28.2488 3.4333 -0.76273 0
M  V30 275 H 28.1228 3.64387 0.974786 0
M  V30 276 H 30.5098 2.68433 1.22587 0
M  V30 277 H 30.5908 2.50201 -0.532256 0
M  V30 278 H 30.2348 5.01763 -0.78714 0
M  V30 279 H 30.1648 5.17283 0.986222 0
M  V30 280 H 32.6558 3.76649 0.307246 0
M  V30 281 H 32.9688 7.728 0.00304069 0
M  V30 282 H 31.3138 6.94999 0.00968457 0
M  V30 283 H 34.5048 4.6716 0.296546 0
M  V30 284 H 34.6778 6.47807 0.158054 0
M  V30 285 N 28.0839 -0.256276 1.55502 0
M  V30 286 C 29.0309 -1.31714 1.89526 0
M  V30 287 C 30.0009 -1.4828 0.748479 0
M  V30 288 O 31.1859 -1.62416 1.00128 0
M  V30 289 C 28.3259 -2.66933 2.18725 0
M  V30 290 C 27.4389 -2.58452 3.4616 0
M  V30 291 C 26.5739 -3.85961 3.64976 0
M  V30 292 C 25.6129 -3.72059 4.86044 0
M  V30 293 N 24.7499 -4.9144 5.01429 0
M  V30 294 H 29.5899 -1.01998 2.80001 0
M  V30 295 H 27.1269 -0.492413 1.38613 0
M  V30 296 H 29.0849 -3.4563 2.33657 0
M  V30 297 H 27.7149 -2.94816 1.31466 0
M  V30 298 H 26.7669 -1.71374 3.3961 0
M  V30 299 H 28.0789 -2.44085 4.34999 0
M  V30 300 H 27.2329 -4.73101 3.79816 0
M  V30 301 H 25.9719 -4.03215 2.74353 0
M  V30 302 H 24.9769 -2.83302 4.7119 0
M  V30 303 H 26.2019 -3.56309 5.78118 0
M  V30 304 H 24.1479 -5.09072 4.13741 0
M  V30 305 H 24.0649 -4.79668 5.84341 0
M  V30 306 H 25.3329 -5.80104 5.20672 0
M  V30 307 N 29.562 -1.4872 -0.521534 0
M  V30 308 C 30.472 -1.66569 -1.65203 0
M  V30 309 C 31.488 -0.548197 -1.65139 0
M  V30 310 O 32.664 -0.820339 -1.83936 0
M  V30 311 C 29.729 -1.70917 -3.01642 0
M  V30 312 C 28.79 -2.94356 -3.12495 0
M  V30 313 C 28.023 -2.98487 -4.42426 0
M  V30 314 O 28.246 -2.10786 -5.30024 0
M  V30 315 O 27.18 -3.90746 -4.57822 0
M  V30 316 H 31.006 -2.62298 -1.5308 0
M  V30 317 H 28.591 -1.3222 -0.695565 0
M  V30 318 H 30.473 -1.7625 -3.82771 0
M  V30 319 H 29.148 -0.783633 -3.14071 0
M  V30 320 H 28.055 -2.94552 -2.3063 0
M  V30 321 H 29.388 -3.86322 -3.04986 0
M  V30 322 N 31.0401 0.771051 -1.3745 0
M  V30 323 C 32.2801 1.54264 -1.34096 0
M  V30 324 C 32.6441 1.91858 0.0737639 0
M  V30 325 O 33.8451 2.67797 0.23203 0
M  V30 326 C 32.1161 2.77326 -2.25445 0
M  V30 327 S 33.6751 3.67383 -2.39948 0
M  V30 328 H 30.4931 0.528122 -0.476034 0
M  V30 329 H 33.0951 0.906633 -1.73206 0
M  V30 330 H 31.7991 2.47788 -3.27153 0
M  V30 331 H 31.3301 3.45886 -1.87421 0
M  V30 332 H 33.3451 4.69334 -1.61059 0
M  V30 333 N 32.5182 1.22032 0.997298 0
M  V30 334 C 33.9292 1.0397 1.55071 0
M  V30 335 C 34.2802 -0.398192 1.92117 0
M  V30 336 O 33.4052 -1.28254 1.74298 0
M  V30 337 C 34.0002 1.88109 2.81781 0
M  V30 338 C 32.5592 1.74357 3.33581 0
M  V30 339 C 31.7062 1.84846 2.06706 0
M  V30 340 H 34.6572 1.35941 0.818883 0
M  V30 341 H 34.6782 1.39589 3.53971 0
M  V30 342 H 34.1902 2.92754 2.54787 0
M  V30 343 H 32.2912 0.72427 3.65493 0
M  V30 344 H 32.4042 2.56772 4.04481 0
M  V30 345 H 30.7682 1.28238 2.20062 0
M  V30 346 H 31.5512 2.91014 1.82114 0
M  V30 347 N 33.9963 -1.19345 1.0293 0
M  V30 348 C 35.2733 -1.84811 0.640642 0
M  V30 349 C 35.6533 -1.91855 -0.88062 0
M  V30 350 O 35.0013 -1.43587 -1.7775 0
M  V30 351 C 35.2113 -3.23755 1.30321 0
M  V30 352 C 36.5593 -3.99912 1.42673 0
M  V30 353 O 37.5833 -3.33155 1.26041 0
M  V30 354 O 36.4423 -5.19494 1.6967 0
M  V30 355 H 33.5363 -0.796443 0.222726 0
M  V30 356 H 36.0823 -1.26831 1.12748 0
M  V30 357 H 34.8543 -3.13466 2.34211 0
M  V30 358 H 34.4773 -3.89381 0.804261 0
M  V30 359 N 35.4744 -0.807222 -1.35358 0
M  V30 360 C 36.4064 -0.175717 -2.28525 0
M  V30 361 C 37.4194 0.625354 -1.5031 0
M  V30 362 O 38.6084 0.457611 -1.72535 0
M  V30 363 C 35.7084 0.773471 -3.29956 0
M  V30 364 C 34.8814 0.0186296 -4.37396 0
M  V30 365 C 33.9404 0.886395 -5.18681 0
M  V30 366 O 32.9664 0.337106 -5.68201 0
M  V30 367 N 34.1684 2.20839 -5.36852 0
M  V30 368 H 36.9334 -0.976091 -2.83359 0
M  V30 369 H 34.4944 -0.662737 -1.47714 0
M  V30 370 H 36.4864 1.35824 -3.81227 0
M  V30 371 H 35.0564 1.47465 -2.75632 0
M  V30 372 H 34.2764 -0.747349 -3.87051 0
M  V30 373 H 35.5644 -0.501577 -5.06322 0
M  V30 374 H 34.9624 2.67858 -4.98265 0
M  V30 375 H 33.5194 2.74237 -5.91301 0
M  V30 376 N 36.9525 1.47285 -0.560781 0
M  V30 377 C 37.8825 2.32857 0.173105 0
M  V30 378 C 38.8635 1.44009 0.905281 0
M  V30 379 O 40.0485 1.7286 0.885046 0
M  V30 380 C 37.1785 3.25861 1.20133 0
M  V30 381 C 36.1325 4.23978 0.585388 0
M  V30 382 C 35.4585 5.06332 1.7185 0
M  V30 383 C 36.7585 5.20242 -0.463178 0
M  V30 384 H 38.4525 2.94466 -0.541307 0
M  V30 385 H 35.9985 1.41601 -0.261764 0
M  V30 386 H 37.9515 3.84569 1.72293 0
M  V30 387 H 36.6755 2.62315 1.94573 0
M  V30 388 H 35.3345 3.66501 0.085054 0
M  V30 389 H 34.9825 4.39186 2.45203 0
M  V30 390 H 34.6825 5.72762 1.31213 0
M  V30 391 H 36.2065 5.67899 2.24329 0
M  V30 392 H 37.6205 5.73293 -0.027502 0
M  V30 393 H 36.0175 5.94896 -0.788627 0
M  V30 394 H 37.0875 4.65504 -1.35773 0
M  V30 395 N 38.4306 0.297415 1.54768 0
M  V30 396 C 39.6786 -0.312295 1.99673 0
M  V30 397 C 39.9996 -1.54686 1.18732 0
M  V30 398 O 39.2696 -1.93854 0.282382 0
M  V30 399 H 37.8496 -0.118381 0.73756 0
M  V30 400 H 40.5116 0.407915 1.90583 0
M  V30 401 H 39.6076 -0.586813 3.06534 0
M  V30 402 N 39.9087 -1.5758 0.0250728 0
M  V30 403 C 41.3197 -1.79476 -0.514323 0
M  V30 404 C 41.6707 -0.934956 -1.72491 0
M  V30 405 O 40.7957 -0.144245 -2.15919 0
M  V30 406 C 41.3907 -3.25503 -0.939842 0
M  V30 407 C 39.9497 -3.48408 -1.42438 0
M  V30 408 C 39.0967 -2.74583 -0.387201 0
M  V30 409 H 42.0477 -1.567 0.25113 0
M  V30 410 H 42.0687 -3.34992 -1.80445 0
M  V30 411 H 41.5807 -3.88056 -0.0585628 0
M  V30 412 H 39.6817 -2.91103 -2.32572 0
M  V30 413 H 39.7947 -4.57119 -1.43455 0
M  V30 414 H 38.1587 -2.39942 -0.854409 0
M  V30 415 H 38.9417 -3.39849 0.485543 0
M  V30 416 N 41.3868 0.248026 -1.55636 0
M  V30 417 C 42.6118 0.998028 -1.81808 0
M  V30 418 C 43.0368 1.78207 -0.601979 0
M  V30 419 O 42.3948 1.75653 0.448961 0
M  V30 420 C 42.4428 1.9125 -3.05705 0
M  V30 421 O 41.5468 3.00406 -2.82542 0
M  V30 422 H 40.8878 0.284045 -0.600179 0
M  V30 423 H 43.4178 0.269357 -2.02819 0
M  V30 424 H 43.4278 2.32737 -3.35108 0
M  V30 425 H 42.1028 1.33602 -3.93857 0
M  V30 426 H 40.6798 2.63056 -2.64303 0
M  V30 427 N 42.8649 1.48995 0.513639 0
M  V30 428 C 44.2759 1.5119 1.09537 0
M  V30 429 C 44.6269 0.290906 1.94031 0
M  V30 430 O 43.7519 -0.60049 2.07902 0
M  V30 431 C 44.3469 2.73964 1.99322 0
M  V30 432 C 42.9059 2.78978 2.52682 0
M  V30 433 C 42.0529 2.44934 1.30009 0
M  V30 434 H 45.0039 1.55875 0.298125 0
M  V30 435 H 45.0249 2.53409 2.83838 0
M  V30 436 H 44.5369 3.62813 1.37799 0
M  V30 437 H 42.6379 1.94378 3.1788 0
M  V30 438 H 42.7509 3.8083 2.90698 0
M  V30 439 H 41.1149 1.9644 1.62122 0
M  V30 440 H 41.8979 3.36043 0.702131 0
M  V30 441 N 44.343 -0.763751 1.37857 0
M  V30 442 C 45.29 -1.87726 1.34267 0
M  V30 443 C 46.26 -1.64807 0.206879 0
M  V30 444 O 47.445 -1.86613 0.397508 0
M  V30 445 C 44.585 -3.24896 1.16346 0
M  V30 446 C 43.698 -3.59716 2.39225 0
M  V30 447 C 42.833 -4.86137 2.14114 0
M  V30 448 C 41.872 -5.13711 3.32817 0
M  V30 449 N 41.009 -6.31323 3.07206 0
M  V30 450 H 45.849 -1.90129 2.29466 0
M  V30 451 H 43.386 -0.929433 1.14017 0
M  V30 452 H 45.344 -4.04036 1.03975 0
M  V30 453 H 43.974 -3.21847 0.247909 0
M  V30 454 H 43.026 -2.75498 2.62307 0
M  V30 455 H 44.338 -3.76027 3.27728 0
M  V30 456 H 43.492 -5.73198 1.9882 0
M  V30 457 H 42.231 -4.71945 1.22961 0
M  V30 458 H 41.236 -4.25123 3.48641 0
M  V30 459 H 42.461 -5.29807 4.24832 0
M  V30 460 H 40.407 -6.18474 2.1869 0
M  V30 461 H 40.324 -6.48087 3.89254 0
M  V30 462 H 41.592 -7.213 2.95546 0
M  V30 463 N 45.8211 -1.22559 -0.990812 0
M  V30 464 C 47.2371 -0.985996 -1.255 0
M  V30 465 C 47.4371 0.319173 -1.98956 0
M  V30 466 O 46.4931 1.04127 -2.3003 0
M  V30 467 C 47.8061 -2.18607 -2.06474 0
M  V30 468 C 49.3541 -2.22985 -2.19651 0
M  V30 469 C 49.8291 -3.4255 -3.04012 0
M  V30 470 N 51.3201 -3.42725 -3.11599 0
M  V30 471 C 52.0551 -4.31892 -3.7717 0
M  V30 472 N 51.5511 -5.31279 -4.44651 0
M  V30 473 N 53.3441 -4.19662 -3.73952 0
M  V30 474 H 45.4951 -2.06469 -0.49841 0
M  V30 475 H 47.7581 -0.904853 -0.282747 0
M  V30 476 H 47.4641 -3.13267 -1.59865 0
M  V30 477 H 47.3381 -2.18838 -3.07229 0
M  V30 478 H 49.7251 -1.28871 -2.65474 0
M  V30 479 H 49.8061 -2.26791 -1.18319 0
M  V30 480 H 49.4501 -4.36965 -2.58889 0
M  V30 481 H 49.3801 -3.35984 -4.0549 0
M  V30 482 H 51.8711 -2.70807 -2.63575 0
M  V30 483 H 52.1841 -5.95593 -4.92431 0
M  V30 484 H 50.5291 -5.3519 -4.43392 0
M  V30 485 H 53.7201 -3.41268 -3.20396 0
M  V30 486 H 53.8931 -4.89358 -4.24774 0
M  V30 487 N 47.2992 1.18797 -1.03562 0
M  V30 488 C 48.2472 2.24297 -0.615905 0
M  V30 489 C 49.2412 1.65643 0.354808 0
M  V30 490 O 50.4472 1.78618 0.22265 0
M  V30 491 H 46.8222 0.729909 -0.180934 0
M  V30 492 H 48.7932 2.5701 -1.5162 0
M  V30 493 C 47.5422 3.47698 0.0104735 0
M  V30 494 H 46.8652 3.93125 -0.727509 0
M  V30 495 H 48.3052 4.23159 0.266995 0
M  V30 496 C 46.7642 3.12489 1.25905 0
M  V30 497 O 47.2942 3.25761 2.35038 0
M  V30 498 N 45.5002 2.6686 1.15039 0
M  V30 499 H 45.0472 2.56261 0.262328 0
M  V30 500 H 45.0052 2.43674 1.98672 0
M  V30 501 N 48.7773 0.814389 1.34928 0
M  V30 502 C 50.0053 0.411136 2.02774 0
M  V30 503 C 50.4203 -0.980316 1.61354 0
M  V30 504 O 49.7773 -1.63299 0.814847 0
M  V30 505 C 49.8283 0.493865 3.58111 0
M  V30 506 O 49.5493 1.83047 3.98027 0
M  V30 507 C 51.0503 0.0844174 4.4322 0
M  V30 508 H 48.2703 0.166037 0.650133 0
M  V30 509 H 50.8143 1.10018 1.72384 0
M  V30 510 H 48.9693 -0.147006 3.87121 0
M  V30 511 H 49.3833 1.79872 4.92693 0
M  V30 512 H 50.8573 0.193404 5.51661 0
M  V30 513 H 51.3343 -0.97113 4.28329 0
M  V30 514 H 51.9403 0.69875 4.19521 0
M  V30 515 N 50.2554 -1.46986 0.568584 0
M  V30 516 C 51.1654 -2.33942 -0.17555 0
M  V30 517 C 52.1814 -1.48891 -0.90041 0
M  V30 518 O 53.3574 -1.81794 -0.86676 0
M  V30 519 C 50.4224 -3.25811 -1.18524 0
M  V30 520 C 49.4834 -4.26757 -0.466582 0
M  V30 521 C 48.7164 -5.14236 -1.42817 0
M  V30 522 O 48.9394 -5.04379 -2.66379 0
M  V30 523 O 47.8734 -5.94412 -0.946453 0
M  V30 524 H 51.6994 -2.98896 0.538036 0
M  V30 525 H 49.2844 -1.4573 0.329097 0
M  V30 526 H 51.1664 -3.82527 -1.76779 0
M  V30 527 H 49.8414 -2.63471 -1.88055 0
M  V30 528 H 48.7484 -3.73769 0.157451 0
M  V30 529 H 50.0814 -4.91843 0.187485 0
M  V30 530 N 51.7335 -0.305618 -1.54608 0
M  V30 531 C 52.6805 0.568421 -2.23691 0
M  V30 532 C 53.6505 1.12592 -1.22116 0
M  V30 533 O 54.8355 1.16959 -1.50749 0
M  V30 534 C 51.9755 1.7322 -2.98477 0
M  V30 535 C 51.0885 1.20566 -4.14835 0
M  V30 536 C 50.2235 2.33368 -4.77193 0
M  V30 537 C 49.2625 1.7787 -5.85686 0
M  V30 538 N 48.3995 2.84263 -6.4198 0
M  V30 539 H 53.2395 -0.0272867 -2.97988 0
M  V30 540 H 50.7765 -0.0252363 -1.47078 0
M  V30 541 H 52.7345 2.41675 -3.40072 0
M  V30 542 H 51.3645 2.29947 -2.26548 0
M  V30 543 H 50.4165 0.413223 -3.78149 0
M  V30 544 H 51.7285 0.759417 -4.92985 0
M  V30 545 H 50.8825 3.09761 -5.21664 0
M  V30 546 H 49.6215 2.8132 -3.98385 0
M  V30 547 H 48.6265 0.99968 -5.40635 0
M  V30 548 H 49.8515 1.30816 -6.66381 0
M  V30 549 H 47.7975 3.31541 -5.66053 0
M  V30 550 H 47.7145 2.44149 -7.15491 0
M  V30 551 H 48.9825 3.6054 -6.91109 0
M  V30 552 N 53.2116 1.57565 -0.0334293 0
M  V30 553 C 54.6276 1.56297 0.322997 0
M  V30 554 C 54.8276 1.03945 1.7262 0
M  V30 555 O 53.8836 0.688109 2.42943 0
M  V30 556 C 55.1966 3.00232 0.167664 0
M  V30 557 C 56.7446 3.12078 0.240107 0
M  V30 558 C 57.2196 4.57859 0.113513 0
M  V30 559 N 58.7106 4.62887 0.170359 0
M  V30 560 C 59.4456 5.73319 0.0962517 0
M  V30 561 N 58.9416 6.92794 -0.0291881 0
M  V30 562 N 60.7346 5.61898 0.150551 0
M  V30 563 H 52.8856 1.89923 -0.950956 0
M  V30 564 H 55.1486 0.873824 -0.367608 0
M  V30 565 H 54.8546 3.42501 -0.799102 0
M  V30 566 H 54.7286 3.654 0.936083 0
M  V30 567 H 57.1156 2.69718 1.19733 0
M  V30 568 H 57.1966 2.49623 -0.558763 0
M  V30 569 H 56.8406 5.009 -0.840314 0
M  V30 570 H 56.7706 5.18299 0.931302 0
M  V30 571 H 59.2616 3.76954 0.26728 0
M  V30 572 H 59.5746 7.7276 -0.0789252 0
M  V30 573 H 57.9196 6.94971 -0.0640299 0
M  V30 574 H 61.1106 4.67448 0.246981 0
M  V30 575 H 61.2836 6.47938 0.0893365 0
M  V30 576 N 54.6897 -0.239769 1.55765 0
M  V30 577 C 55.6377 -1.31668 1.91745 0
M  V30 578 C 56.6317 -1.49462 0.797338 0
M  V30 579 O 57.8377 -1.50852 0.982021 0
M  V30 580 H 54.2127 -0.441048 0.609082 0
M  V30 581 H 56.1837 -0.985923 2.81642 0
M  V30 582 C 54.9327 -2.66368 2.2348 0
M  V30 583 H 54.2557 -2.53478 3.09175 0
M  V30 584 H 55.6957 -3.40578 2.52553 0
M  V30 585 C 54.1547 -3.20002 1.05359 0
M  V30 586 O 54.6847 -4.00538 0.305261 0
M  V30 587 N 52.8907 -2.78126 0.842292 0
M  V30 588 H 52.4377 -2.12742 1.45253 0
M  V30 589 H 52.3957 -3.14354 0.053652 0
M  V30 590 N 56.1678 -1.49265 -0.50573 0
M  V30 591 C 57.5838 -1.35923 -0.836486 0
M  V30 592 C 57.7838 -0.388704 -1.97715 0
M  V30 593 O 56.8398 0.181336 -2.51848 0
M  V30 594 C 58.1528 -2.76531 -1.18115 0
M  V30 595 C 59.7008 -2.85197 -1.28964 0
M  V30 596 C 60.1758 -4.26561 -1.66761 0
M  V30 597 N 61.6668 -4.2935 -1.73819 0
M  V30 598 C 62.4018 -5.35693 -2.045 0
M  V30 599 N 61.8978 -6.52287 -2.33438 0
M  V30 600 N 63.6908 -5.23105 -2.05711 0
M  V30 601 H 55.8418 -2.10965 0.246519 0
M  V30 602 H 58.1048 -0.9468 0.0476887 0
M  V30 603 H 57.8108 -3.49226 -0.416398 0
M  V30 604 H 57.6848 -3.11599 -2.1257 0
M  V30 605 H 60.0718 -2.12742 -2.04511 0
M  V30 606 H 60.1528 -2.53718 -0.325704 0
M  V30 607 H 59.7968 -4.99541 -0.917656 0
M  V30 608 H 59.7268 -4.55502 -2.64246 0
M  V30 609 H 62.2178 -3.4526 -1.53635 0
M  V30 610 H 62.5308 -7.29158 -2.56024 0
M  V30 611 H 60.8758 -6.55521 -2.30905 0
M  V30 612 H 64.0668 -4.31026 -1.82577 0
M  V30 613 H 64.2398 -6.06078 -2.29289 0
M  V30 614 N 57.6459 0.756429 -1.3826 0
M  V30 615 C 58.5559 1.9009 -1.37488 0
M  V30 616 C 59.5719 1.71855 -0.272366 0
M  V30 617 O 60.7479 1.94827 -0.510318 0
M  V30 618 C 57.8129 3.25421 -1.19592 0
M  V30 619 C 56.8739 3.56202 -2.39622 0
M  V30 620 C 56.1069 4.85075 -2.2257 0
M  V30 621 O 56.3299 5.57246 -1.21793 0
M  V30 622 O 55.2639 5.15269 -3.11098 0
M  V30 623 H 59.0899 1.93695 -2.33914 0
M  V30 624 H 56.6749 0.901313 -1.1915 0
M  V30 625 H 58.5569 4.06337 -1.11661 0
M  V30 626 H 57.2319 3.22634 -0.262486 0
M  V30 627 H 56.1389 2.75458 -2.53128 0
M  V30 628 H 57.4719 3.63747 -3.31586 0
M  V30 629 N 59.124 1.23083 0.984299 0
M  V30 630 C 60.056 0.96636 2.07832 0
M  V30 631 C 61.069 -0.0582135 1.62696 0
M  V30 632 O 62.258 0.176843 1.77622 0
M  V30 633 C 59.358 0.433397 3.36117 0
M  V30 634 C 58.531 1.51722 4.10243 0
M  V30 635 C 57.59 0.989821 5.16807 0
M  V30 636 O 56.616 1.67794 5.43906 0
M  V30 637 N 57.818 -0.184367 5.80207 0
M  V30 638 H 60.583 1.90824 2.31098 0
M  V30 639 H 58.144 1.13888 1.1507 0
M  V30 640 H 60.136 0.065699 4.04647 0
M  V30 641 H 58.706 -0.413806 3.09849 0
M  V30 642 H 57.926 2.05786 3.36223 0
M  V30 643 H 59.214 2.24619 4.56534 0
M  V30 644 H 58.612 -0.760062 5.60571 0
M  V30 645 H 57.169 -0.493366 6.4993 0
M  V30 646 N 60.6021 -1.18246 1.0419 0
M  V30 647 C 61.5121 -2.25574 0.644476 0
M  V30 648 C 62.5281 -1.70845 -0.329826 0
M  V30 649 O 63.7041 -2.00554 -0.184443 0
M  V30 650 C 60.7691 -3.46697 0.014877 0
M  V30 651 C 59.8301 -4.16554 1.03834 0
M  V30 652 C 59.0631 -5.31894 0.438692 0
M  V30 653 O 59.2861 -5.65385 -0.754752 0
M  V30 654 O 58.2201 -5.90459 1.168 0
M  V30 655 H 62.0461 -2.61836 1.53869 0
M  V30 656 H 59.6311 -1.25352 0.812854 0
M  V30 657 H 61.5131 -4.20062 -0.335538 0
M  V30 658 H 60.1881 -3.12255 -0.853138 0
M  V30 659 H 59.0951 -3.45251 1.44057 0
M  V30 660 H 60.4281 -4.54998 1.87716 0
M  V30 661 N 62.0802 -0.821533 -1.34494 0
M  V30 662 C 63.0282 -0.230702 -2.31453 0
M  V30 663 C 64.0222 0.627793 -1.57338 0
M  V30 664 O 65.2282 0.519288 -1.72347 0
M  V30 665 H 61.6032 -0.0558577 -0.749923 0
M  V30 666 H 63.5742 -1.06332 -2.78812 0
M  V30 667 C 62.3232 0.59391 -3.4259 0
M  V30 668 H 61.6462 -0.0573588 -3.99759 0
M  V30 669 H 63.0862 0.973446 -4.12674 0
M  V30 670 C 61.5452 1.76568 -2.86924 0
M  V30 671 O 62.0752 2.8638 -2.81691 0
M  V30 672 N 60.2812 1.58198 -2.43766 0
M  V30 673 H 59.8282 0.68872 -2.48222 0
M  V30 674 H 59.7862 2.36752 -2.06871 0
M  V30 675 N 63.5583 1.46682 -0.576371 0
M  V30 676 C 64.5053 2.30241 0.160499 0
M  V30 677 C 65.4753 1.40233 0.890162 0
M  V30 678 O 66.6603 1.69186 0.882084 0
M  V30 679 C 63.8003 3.24578 1.1723 0
M  V30 680 C 62.9133 4.29684 0.446736 0
M  V30 681 C 62.0483 5.11154 1.44551 0
M  V30 682 C 61.0873 6.08015 0.70599 0
M  V30 683 N 60.2243 6.82376 1.65251 0
M  V30 684 H 65.0643 2.92727 -0.558127 0
M  V30 685 H 62.6013 1.44272 -0.287056 0
M  V30 686 H 64.5593 3.77711 1.77172 0
M  V30 687 H 63.1893 2.63916 1.85872 0
M  V30 688 H 62.2413 3.79458 -0.267594 0
M  V30 689 H 63.5533 4.98626 -0.131686 0
M  V30 690 H 62.7073 5.68533 2.11791 0
M  V30 691 H 61.4463 4.42158 2.05786 0
M  V30 692 H 60.4513 5.49796 0.0197725 0
M  V30 693 H 61.6763 6.79028 0.09912 0
M  V30 694 H 59.6223 6.16094 2.25308 0
M  V30 695 H 59.5393 7.47556 1.12673 0
M  V30 696 H 60.8073 7.44316 2.31546 0
M  V30 697 N 65.0364 0.313813 1.54444 0
M  V30 698 C 66.2664 -0.293491 2.04505 0
M  V30 699 C 66.6744 -1.47086 1.19005 0
M  V30 700 O 66.0174 -1.82481 0.211257 0
M  V30 701 C 66.0794 -0.800455 3.50475 0
M  V30 702 C 65.7434 0.253322 4.56297 0
M  V30 703 C 66.7404 1.08612 5.08428 0
M  V30 704 C 64.4254 0.398708 5.00715 0
M  V30 705 C 66.4194 2.05013 6.0353 0
M  V30 706 C 64.1064 1.36614 5.95634 0
M  V30 707 C 65.1044 2.19033 6.46926 0
M  V30 708 O 64.7924 3.14134 7.39983 0
M  V30 709 H 64.5244 -0.0658325 0.672787 0
M  V30 710 H 67.0784 0.455177 2.00293 0
M  V30 711 H 65.3084 -1.59987 3.52053 0
M  V30 712 H 66.9974 -1.32504 3.83663 0
M  V30 713 H 67.7634 0.984736 4.74898 0
M  V30 714 H 63.6424 -0.23289 4.60411 0
M  V30 715 H 67.1864 2.69382 6.4349 0
M  V30 716 H 63.0834 1.4682 6.28581 0
M  V30 717 H 63.8514 3.0926 7.57826 0
M  V30 718 N 66.5145 -1.57545 0.0417849 0
M  V30 719 C 67.7635 -1.91494 -0.633492 0
M  V30 720 C 68.0765 -0.921084 -1.72556 0
M  V30 721 O 69.2825 -1.15228 -2.45835 0
M  V30 722 C 67.7385 -3.40072 -1.17808 0
M  V30 723 C 67.3465 -4.47843 -0.118633 0
M  V30 724 C 69.0905 -3.8307 -1.82915 0
M  V30 725 C 66.9975 -5.87529 -0.675578 0
M  V30 726 H 65.9275 -0.714653 -0.24039 0
M  V30 727 H 68.5785 -1.83175 0.109148 0
M  V30 728 H 66.9605 -3.43364 -1.97274 0
M  V30 729 H 68.1345 -4.56128 0.654494 0
M  V30 730 H 66.4495 -4.14128 0.434414 0
M  V30 731 H 69.0465 -4.84794 -2.25563 0
M  V30 732 H 69.3895 -3.1881 -2.67705 0
M  V30 733 H 69.9225 -3.82255 -1.10119 0
M  V30 734 H 66.6615 -6.55362 0.134475 0
M  V30 735 H 66.1815 -5.82824 -1.4169 0
M  V30 736 H 67.8605 -6.36491 -1.1614 0
M  V30 737 N 67.9926 0.231505 -1.5589 0
M  V30 738 C 68.9026 1.308 -1.94752 0
M  V30 739 C 69.9186 1.51826 -0.849989 0
M  V30 740 O 71.0946 1.6515 -1.15271 0
M  V30 741 C 68.1596 2.63968 -2.24771 0
M  V30 742 C 67.2206 2.51331 -3.48039 0
M  V30 743 C 66.4536 3.78148 -3.76616 0
M  V30 744 O 66.6766 4.80722 -3.07022 0
M  V30 745 O 65.6106 3.75857 -4.70123 0
M  V30 746 H 69.4366 1.0083 -2.86474 0
M  V30 747 H 67.0216 0.433547 -1.42971 0
M  V30 748 H 68.9036 3.42633 -2.45318 0
M  V30 749 H 67.5786 2.9364 -1.36225 0
M  V30 750 H 66.4856 1.709 -3.32782 0
M  V30 751 H 67.8186 2.26601 -4.36936 0
M  V30 752 N 69.4707 1.49531 0.497807 0
M  V30 753 C 70.3807 1.69176 1.62532 0
M  V30 754 C 71.3967 0.5744 1.64246 0
M  V30 755 O 72.5727 0.849497 1.82608 0
M  V30 756 C 69.6377 1.75695 2.98885 0
M  V30 757 C 68.6987 2.9929 3.07773 0
M  V30 758 C 67.9317 3.05488 4.37622 0
M  V30 759 O 68.1547 2.19192 5.26603 0
M  V30 760 O 67.0887 3.9798 4.51548 0
M  V30 761 H 70.9147 2.647 1.48887 0
M  V30 762 H 68.4997 1.3331 0.674441 0
M  V30 763 H 70.3817 1.82317 3.79919 0
M  V30 764 H 69.0567 0.8335 3.12785 0
M  V30 765 H 67.9637 2.98183 2.25915 0
M  V30 766 H 69.2967 3.91125 2.98801 0
M  V30 767 N 70.9488 -0.749086 1.3866 0
M  V30 768 C 71.8788 -1.8764 1.38973 0
M  V30 769 C 72.8598 -1.68178 0.255004 0
M  V30 770 O 74.0448 -1.88704 0.458754 0
M  V30 771 C 71.1748 -3.25222 1.21851 0
M  V30 772 C 70.1288 -3.59295 2.32575 0
M  V30 773 C 69.4548 -4.95663 2.00555 0
M  V30 774 C 70.7548 -3.63709 3.7485 0
M  V30 775 H 72.4488 -1.87635 2.3331 0
M  V30 776 H 69.9948 -0.901329 1.12303 0
M  V30 777 H 71.9478 -4.03746 1.20695 0
M  V30 778 H 70.6718 -3.25719 0.239775 0
M  V30 779 H 69.3308 -2.83093 2.32925 0
M  V30 780 H 68.9788 -4.92724 1.01154 0
M  V30 781 H 68.6788 -5.19429 2.74714 0
M  V30 782 H 70.2028 -5.7656 2.01024 0
M  V30 783 H 71.6168 -4.32338 3.76506 0
M  V30 784 H 70.0138 -3.98986 4.48252 0
M  V30 785 H 71.0838 -2.63834 4.06841 0
M  V30 786 N 72.4269 -1.23603 -0.977757 0
M  V30 787 C 73.3899 -1.02069 -2.05218 0
M  V30 788 C 74.3899 0.0184305 -1.60789 0
M  V30 789 O 75.5799 -0.221569 -1.72785 0
M  V30 790 C 72.7119 -0.544926 -3.36517 0
M  V30 791 H 73.9049 -1.9742 -2.25755 0
M  V30 792 H 71.4579 -1.05684 -1.15155 0
M  V30 793 H 72.1929 0.412241 -3.21669 0
M  V30 794 H 71.9779 -1.2948 -3.70105 0
M  V30 795 H 73.4679 -0.414985 -4.15533 0
M  V30 796 N 73.905 1.17692 -1.04816 0
M  V30 797 C 74.815 2.25229 -0.65643 0
M  V30 798 C 75.831 1.71018 0.320761 0
M  V30 799 O 77.007 2.00649 0.173805 0
M  V30 800 C 74.072 3.46684 -0.0332629 0
M  V30 801 C 73.133 4.15997 -1.06042 0
M  V30 802 C 72.366 5.31654 -0.466893 0
M  V30 803 O 72.589 5.65777 0.724758 0
M  V30 804 O 71.523 5.89831 -1.1993 0
M  V30 805 H 75.349 2.61016 -1.55255 0
M  V30 806 H 72.934 1.24919 -0.81949 0
M  V30 807 H 74.816 4.20234 0.313256 0
M  V30 808 H 73.491 3.12703 0.836566 0
M  V30 809 H 72.398 3.44482 -1.45886 0
M  V30 810 H 73.731 4.53996 -1.90127 0
M  V30 811 N 75.3831 0.828654 1.34056 0
M  V30 812 C 76.3131 0.269443 2.3194 0
M  V30 813 C 77.2941 -0.617247 1.58506 0
M  V30 814 O 78.4791 -0.542931 1.86456 0
M  V30 815 C 75.6091 -0.564793 3.42677 0
M  V30 816 C 74.5631 0.225241 4.27407 0
M  V30 817 C 73.8891 -0.7321 5.29664 0
M  V30 818 C 75.1891 1.43663 5.02154 0
M  V30 819 H 76.8831 1.08728 2.7896 0
M  V30 820 H 74.4291 0.524283 1.34117 0
M  V30 821 H 76.3821 -0.966233 4.10173 0
M  V30 822 H 75.1061 -1.41574 2.9432 0
M  V30 823 H 73.7651 0.608117 3.61521 0
M  V30 824 H 73.4131 -1.57916 4.77568 0
M  V30 825 H 73.1131 -0.20767 5.87233 0
M  V30 826 H 74.6371 -1.13128 6.00029 0
M  V30 827 H 76.0511 1.1089 5.62473 0
M  V30 828 H 74.4481 1.89711 5.69324 0
M  V30 829 H 75.5181 2.21181 4.31517 0
M  V30 830 N 76.8612 -1.46375 0.584142 0
M  V30 831 C 78.1102 -2.01585 0.0679741 0
M  V30 832 C 78.4232 -1.46109 -1.30045 0
M  V30 833 O 79.6292 -1.93148 -1.90804 0
M  V30 834 C 78.0852 -3.5983 0.0709207 0
M  V30 835 C 77.6932 -4.24303 1.43775 0
M  V30 836 C 79.4372 -4.22693 -0.391228 0
M  V30 837 C 77.3442 -5.74631 1.39834 0
M  V30 838 H 76.2742 -0.753689 0.0216421 0
M  V30 839 H 78.9252 -1.68093 0.736001 0
M  V30 840 H 77.3072 -3.90405 -0.663299 0
M  V30 841 H 78.4812 -4.05335 2.19181 0
M  V30 842 H 76.7962 -3.73539 1.84004 0
M  V30 843 H 79.3932 -5.3289 -0.439524 0
M  V30 844 H 79.7362 -3.91728 -1.40906 0
M  V30 845 H 80.2692 -3.96749 0.288974 0
M  V30 846 H 77.0082 -6.10258 2.39303 0
M  V30 847 H 76.5282 -5.95858 0.686505 0
M  V30 848 H 78.2072 -6.37375 1.11187 0
M  V30 849 N 78.3393 -0.321999 -1.54275 0
M  V30 850 C 79.5863 0.281044 -2.0054 0
M  V30 851 C 79.9143 1.52265 -1.21019 0
M  V30 852 O 79.1693 1.93687 -0.279982 0
M  V30 853 C 79.4683 0.661769 -3.5122 0
M  V30 854 C 79.1343 -0.480482 -4.48333 0
M  V30 855 C 77.7963 -0.794005 -4.74604 0
M  V30 856 C 80.1483 -1.24783 -5.06042 0
M  V30 857 C 77.4763 -1.87763 -5.55844 0
M  V30 858 C 79.8283 -2.32153 -5.88462 0
M  V30 859 C 78.4923 -2.64089 -6.13036 0
M  V30 860 H 77.7623 0.102841 -0.733829 0
M  V30 861 H 80.4093 -0.445453 -1.86247 0
M  V30 862 H 78.7143 1.46867 -3.63232 0
M  V30 863 H 80.4113 1.13989 -3.84457 0
M  V30 864 H 77.0013 -0.226039 -4.28004 0
M  V30 865 H 81.1853 -1.01887 -4.85729 0
M  V30 866 H 76.4413 -2.12954 -5.73115 0
M  V30 867 H 80.6153 -2.92057 -6.32199 0
M  V30 868 H 78.2423 -3.48185 -6.75775 0
M  V30 869 N 79.8174 1.5752 -0.0501392 0
M  V30 870 C 80.7804 2.1037 0.909786 0
M  V30 871 C 81.7804 1.02308 1.24056 0
M  V30 872 O 82.9704 1.28385 1.17741 0
M  V30 873 C 80.1024 2.58708 2.21998 0
M  V30 874 H 81.2954 2.96479 0.451665 0
M  V30 875 H 78.8484 1.55038 0.198248 0
M  V30 876 H 79.5834 1.75989 2.72394 0
M  V30 877 H 79.3684 3.37675 1.99295 0
M  V30 878 H 80.8584 2.99747 2.9076 0
M  V30 879 N 81.2955 -0.223234 1.56011 0
M  V30 880 C 82.2435 -1.29627 1.93131 0
M  V30 881 C 83.2375 -1.48608 0.813146 0
M  V30 882 O 84.4435 -1.49802 0.997966 0
M  V30 883 H 80.8185 -0.434563 0.613726 0
M  V30 884 H 82.7895 -0.955995 2.82672 0
M  V30 885 C 81.5385 -2.63983 2.26292 0
M  V30 886 H 80.8615 -2.50185 3.11846 0
M  V30 887 H 82.3015 -3.3788 2.56151 0
M  V30 888 C 80.7605 -3.18866 1.08747 0
M  V30 889 O 81.2905 -4.00192 0.347727 0
M  V30 890 N 79.4965 -2.77217 0.871743 0
M  V30 891 H 79.0435 -2.1119 1.47501 0
M  V30 892 H 79.0015 -3.1428 0.0869905 0
M  V30 893 N 82.7736 -1.49793 -0.48987 0
M  V30 894 C 84.0206 -1.59841 -1.24327 0
M  V30 895 C 84.3486 -0.290135 -1.92324 0
M  V30 896 O 83.6036 0.722749 -1.81865 0
M  V30 897 C 83.9026 -2.71488 -2.32441 0
M  V30 898 C 83.5686 -4.12614 -1.81826 0
M  V30 899 C 82.2306 -4.51017 -1.67742 0
M  V30 900 C 84.5826 -5.00892 -1.4407 0
M  V30 901 C 81.9106 -5.75459 -1.14297 0
M  V30 902 C 84.2626 -6.25863 -0.920742 0
M  V30 903 C 82.9266 -6.63086 -0.766383 0
M  V30 904 H 82.1966 -0.584899 -0.454944 0
M  V30 905 H 84.8436 -1.83663 -0.542215 0
M  V30 906 H 83.1486 -2.4168 -3.0838 0
M  V30 907 H 84.8456 -2.76469 -2.90458 0
M  V30 908 H 81.4356 -3.82307 -1.93751 0
M  V30 909 H 85.6196 -4.7187 -1.53794 0
M  V30 910 H 80.8756 -6.02989 -1.01068 0
M  V30 911 H 85.0496 -6.9364 -0.619448 0
M  V30 912 H 82.6766 -7.59393 -0.350083 0
M  V30 913 N 84.2517 0.741722 -1.39055 0
M  V30 914 C 85.1997 1.87702 -1.3737 0
M  V30 915 C 86.1937 1.67427 -0.257812 0
M  V30 916 O 87.3997 1.7485 -0.427489 0
M  V30 917 H 83.7747 0.617757 -0.428812 0
M  V30 918 H 85.7457 1.86239 -2.33147 0
M  V30 919 C 84.4947 3.25315 -1.22741 0
M  V30 920 H 83.8177 3.41509 -2.07873 0
M  V30 921 H 85.2577 4.04964 -1.25618 0
M  V30 922 C 83.7167 3.36838 0.0647316 0
M  V30 923 O 84.2467 3.88073 1.03741 0
M  V30 924 N 82.4527 2.90329 0.125544 0
M  V30 925 H 81.9997 2.48823 -0.666682 0
M  V30 926 H 81.9577 2.98418 0.989639 0
M  V30 927 N 85.7298 1.2412 0.971189 0
M  V30 928 C 87.0068 0.986867 1.6888 0
M  V30 929 C 87.3868 -0.491857 2.0529 0
M  V30 930 O 86.7348 -1.46531 1.75331 0
M  V30 931 C 86.9448 1.9063 2.92338 0
M  V30 932 C 88.2928 2.17515 3.64654 0
M  V30 933 O 89.3168 1.88254 3.02388 0
M  V30 934 O 88.1758 2.6719 4.7673 0
M  V30 935 H 85.2698 0.372944 0.738134 0
M  V30 936 H 87.8158 1.35203 1.02559 0
M  V30 937 H 86.5878 2.90552 2.62097 0
M  V30 938 H 86.2108 1.54408 3.66393 0
M  V30 939 N 87.2079 -1.17134 1.05439 0
M  V30 940 C 88.4569 -1.86791 0.761049 0
M  V30 941 C 88.7699 -1.82072 -0.714795 0
M  V30 942 O 89.9759 -2.47223 -1.12218 0
M  V30 943 C 88.4319 -3.35166 1.31117 0
M  V30 944 C 88.0399 -3.48381 2.81664 0
M  V30 945 C 89.7839 -4.10134 1.09499 0
M  V30 946 C 87.6909 -4.90793 3.29964 0
M  V30 947 H 86.6209 -0.699681 0.281002 0
M  V30 948 H 89.2719 -1.3226 1.27199 0
M  V30 949 H 87.6539 -3.8925 0.72803 0
M  V30 950 H 88.8279 -3.04502 3.45855 0
M  V30 951 H 87.1429 -2.86836 3.01851 0
M  V30 952 H 89.7399 -5.152 1.43084 0
M  V30 953 H 90.0829 -4.16287 0.0328772 0
M  V30 954 H 90.6159 -3.62264 1.64346 0
M  V30 955 H 87.3549 -4.89816 4.35616 0
M  V30 956 H 86.8749 -5.35333 2.70516 0
M  V30 957 H 88.5539 -5.59573 3.24787 0
M  V30 958 N 88.686 -0.835752 -1.33615 0
M  V30 959 C 89.963 -0.352017 -1.92406 0
M  V30 960 C 90.343 1.16225 -1.76224 0
M  V30 961 O 89.691 1.97526 -1.14873 0
M  V30 962 C 89.901 -0.795485 -3.39813 0
M  V30 963 C 91.249 -0.801703 -4.16963 0
M  V30 964 O 92.273 -0.738889 -3.48452 0
M  V30 965 O 91.132 -0.886607 -5.3926 0
M  V30 966 H 88.226 -0.0989641 -0.821057 0
M  V30 967 H 90.772 -0.921397 -1.42507 0
M  V30 968 H 89.544 -1.83795 -3.45449 0
M  V30 969 H 89.167 -0.202505 -3.97084 0
M  V30 970 N 90.1641 1.46063 -0.591896 0
M  V30 971 C 91.1121 2.32124 0.148739 0
M  V30 972 C 92.1061 1.45035 0.875286 0
M  V30 973 O 93.3121 1.61609 0.792632 0
M  V30 974 H 89.6871 0.749024 0.066832 0
M  V30 975 H 91.6581 2.92392 -0.595783 0
M  V30 976 C 90.4071 3.28373 1.1431 0
M  V30 977 H 89.7301 3.95371 0.59346 0
M  V30 978 H 91.1701 3.91352 1.63155 0
M  V30 979 C 89.6291 2.54393 2.20875 0
M  V30 980 O 90.1591 2.31373 3.28374 0
M  V30 981 N 88.3651 2.14797 1.95731 0
M  V30 982 H 87.9121 2.33719 1.08319 0
M  V30 983 H 87.8701 1.65619 2.67241 0
M  V30 984 N 91.6422 0.330177 1.54103 0
M  V30 985 C 92.8892 -0.270405 2.00686 0
M  V30 986 C 93.2172 -1.51621 1.21825 0
M  V30 987 O 92.4722 -1.93536 0.29025 0
M  V30 988 C 92.7712 -0.643134 3.51566 0
M  V30 989 C 92.4372 0.504251 4.48072 0
M  V30 990 C 91.0992 0.819163 4.74176 0
M  V30 991 C 93.4512 1.27465 5.05373 0
M  V30 992 C 90.7792 1.90708 5.5484 0
M  V30 993 C 93.1312 2.35271 5.87223 0
M  V30 994 C 91.7952 2.67336 6.11627 0
M  V30 995 H 91.0652 -0.0989482 0.734364 0
M  V30 996 H 93.7122 0.455324 1.86008 0
M  V30 997 H 92.0172 -1.44938 3.64006 0
M  V30 998 H 93.7142 -1.11949 3.85056 0
M  V30 999 H 90.3042 0.248733 4.27878 0
M  V30 1000 H 94.4882 1.04462 4.85182 0
M  V30 1001 H 89.7442 2.15991 5.71977 0
M  V30 1002 H 93.9182 2.95405 6.30641 0
M  V30 1003 H 91.5452 3.51763 6.73919 0
M  V30 1004 N 93.1203 -1.57491 0.0584922 0
M  V30 1005 C 94.0683 -2.13148 -0.931168 0
M  V30 1006 C 95.0623 -1.06507 -1.31729 0
M  V30 1007 O 96.2683 -1.24906 -1.29609 0
M  V30 1008 H 92.6433 -0.68137 -0.31818 0
M  V30 1009 H 94.6143 -2.95187 -0.436707 0
M  V30 1010 C 93.3633 -2.69732 -2.19408 0
M  V30 1011 H 92.6863 -3.51454 -1.90578 0
M  V30 1012 H 94.1263 -3.12287 -2.86798 0
M  V30 1013 C 92.5853 -1.63855 -2.94369 0
M  V30 1014 O 93.1153 -1.05565 -3.87581 0
M  V30 1015 N 91.3213 -1.35202 -2.57233 0
M  V30 1016 H 90.8683 -1.82791 -1.81508 0
M  V30 1017 H 90.8263 -0.645922 -3.07693 0
M  V30 1018 N 94.5984 0.214957 -1.56127 0
M  V30 1019 C 95.8454 0.938372 -1.79446 0
M  V30 1020 C 96.1734 1.8407 -0.628378 0
M  V30 1021 O 95.4284 1.91837 0.386925 0
M  V30 1022 C 95.7274 1.80314 -3.0858 0
M  V30 1023 C 95.3934 1.05349 -4.3842 0
M  V30 1024 C 94.0554 0.846435 -4.73697 0
M  V30 1025 C 96.4074 0.524588 -5.18553 0
M  V30 1026 C 93.7354 0.098683 -5.86617 0
M  V30 1027 C 96.0874 -0.209853 -6.32252 0
M  V30 1028 C 94.7514 -0.428102 -6.66126 0
M  V30 1029 H 94.0214 0.343375 -0.656639 0
M  V30 1030 H 96.6684 0.206077 -1.90388 0
M  V30 1031 H 94.9734 2.6035 -2.92789 0
M  V30 1032 H 96.6704 2.36513 -3.23825 0
M  V30 1033 H 93.2604 1.22486 -4.10725 0
M  V30 1034 H 97.4444 0.672008 -4.91729 0
M  V30 1035 H 92.7004 -0.0805753 -6.11347 0
M  V30 1036 H 96.8744 -0.627157 -6.9357 0
M  V30 1037 H 94.5014 -1.00944 -7.53468 0
M  V30 1038 N 96.0765 1.50051 0.48192 0
M  V30 1039 C 97.0235 1.68122 1.58125 0
M  V30 1040 C 97.9935 0.522545 1.57666 0
M  V30 1041 O 99.1785 0.751844 1.75362 0
M  V30 1042 C 96.3185 1.77142 2.96167 0
M  V30 1043 C 95.4315 3.0444 3.06497 0
M  V30 1044 C 94.5665 3.04321 4.35387 0
M  V30 1045 C 93.6055 4.26118 4.3942 0
M  V30 1046 N 92.7425 4.238 5.59766 0
M  V30 1047 H 97.5825 2.6198 1.42022 0
M  V30 1048 H 95.1195 1.29877 0.690687 0
M  V30 1049 H 97.0775 1.80352 3.76203 0
M  V30 1050 H 95.7075 0.867329 3.1093 0
M  V30 1051 H 94.7595 3.10752 2.19402 0
M  V30 1052 H 96.0715 3.94426 3.05336 0
M  V30 1053 H 95.2255 3.062 5.23762 0
M  V30 1054 H 93.9645 2.12147 4.39141 0
M  V30 1055 H 92.9695 4.24463 3.49444 0
M  V30 1056 H 94.1945 5.19507 4.37366 0
M  V30 1057 H 92.1405 3.34474 5.64326 0
M  V30 1058 H 92.0575 5.07542 5.60301 0
M  V30 1059 H 93.3255 4.2981 6.50295 0
M  V30 1060 N 97.5546 -0.734337 1.39446 0
M  V30 1061 C 98.9656 -1.31264 1.32766 0
M  V30 1062 C 99.3166 -1.96198 -0.00767497 0
M  V30 1063 O 98.4416 -1.96346 -0.909796 0
M  V30 1064 C 99.0366 -2.38682 2.4045 0
M  V30 1065 C 97.5956 -2.92184 2.37288 0
M  V30 1066 C 96.7426 -1.6576 2.22304 0
M  V30 1067 H 99.6936 -0.531799 1.49525 0
M  V30 1068 H 99.7146 -3.19087 2.07276 0
M  V30 1069 H 99.2266 -1.91392 3.37625 0
M  V30 1070 H 97.3276 -3.43752 1.43754 0
M  V30 1071 H 97.4406 -3.45253 3.3217 0
M  V30 1072 H 95.8046 -1.9012 1.69489 0
M  V30 1073 H 96.5876 -1.20521 3.21449 0
M  V30 1074 N 99.0327 -1.24633 -0.964593 0
M  V30 1075 C 100.31 -0.995809 -1.68354 0
M  V30 1076 C 100.69 0.480964 -2.05548 0
M  V30 1077 O 100.038 1.45599 -1.76105 0
M  V30 1078 C 100.248 -1.92177 -2.91323 0
M  V30 1079 C 101.596 -2.19446 -3.63495 0
M  V30 1080 O 102.62 -1.89855 -3.01386 0
M  V30 1081 O 101.479 -2.69714 -4.75307 0
M  V30 1082 H 98.5727 -0.376854 -0.736146 0
M  V30 1083 H 101.119 -1.35745 -1.0184 0
M  V30 1084 H 99.8907 -2.91938 -2.60553 0
M  V30 1085 H 99.5137 -1.56349 -3.65569 0
M  V30 1086 N 100.511 1.16574 -1.06058 0
M  V30 1087 C 101.458 2.20883 -0.669263 0
M  V30 1088 C 102.428 1.62729 0.332918 0
M  V30 1089 O 103.613 1.895 0.222346 0
M  V30 1090 C 100.753 3.45049 -0.0593572 0
M  V30 1091 C 99.8658 4.17458 -1.11143 0
M  V30 1092 C 99.0008 5.29135 -0.467916 0
M  V30 1093 C 98.0398 5.93343 -1.50369 0
M  V30 1094 N 97.1768 6.96516 -0.883706 0
M  V30 1095 H 102.017 2.53709 -1.5632 0
M  V30 1096 H 99.5538 1.24616 -0.781625 0
M  V30 1097 H 101.512 4.16033 0.311771 0
M  V30 1098 H 100.142 3.12781 0.797992 0
M  V30 1099 H 99.1938 3.45101 -1.60029 0
M  V30 1100 H 100.506 4.61307 -1.89731 0
M  V30 1101 H 99.6598 6.06684 -0.0436871 0
M  V30 1102 H 98.3988 4.86443 0.349864 0
M  V30 1103 H 97.4038 5.14517 -1.93784 0
M  V30 1104 H 98.6288 6.38114 -2.32352 0
M  V30 1105 H 96.5748 6.55943 -0.086595 0
M  V30 1106 H 96.4918 7.38723 -1.607 0
M  V30 1107 H 97.7598 7.77993 -0.484543 0
M  V30 1108 N 101.989 0.842826 1.3317 0
M  V30 1109 C 103.229 0.446574 1.99462 0
M  V30 1110 C 103.593 -0.976818 1.65295 0
M  V30 1111 O 104.794 -1.477 2.24584 0
M  V30 1112 C 103.065 0.665353 3.51152 0
M  V30 1113 S 104.624 0.364911 4.3728 0
M  V30 1114 H 101.442 0.167803 0.690915 0
M  V30 1115 H 104.044 1.09297 1.62094 0
M  V30 1116 H 102.748 1.7006 3.73507 0
M  V30 1117 H 102.279 0.00494568 3.934 0
M  V30 1118 H 104.294 -0.813761 4.89482 0
M  V30 1119 N 103.467 -1.45747 0.599634 0
M  V30 1120 C 104.43 -2.28917 -0.113835 0
M  V30 1121 C 105.43 -1.3933 -0.802729 0
M  V30 1122 O 106.62 -1.61534 -0.652103 0
M  V30 1123 C 103.752 -3.20152 -1.17114 0
M  V30 1124 H 104.945 -2.93478 0.617289 0
M  V30 1125 H 102.498 -1.52137 0.358327 0
M  V30 1126 H 103.233 -2.60374 -1.93329 0
M  V30 1127 H 103.018 -3.86133 -0.681468 0
M  V30 1128 H 104.508 -3.82708 -1.67105 0
M  V30 1129 N 104.945 -0.338344 -1.53925 0
M  V30 1130 C 106.194 0.260732 -2.00008 0
M  V30 1131 C 106.507 1.52073 -1.23017 0
M  V30 1132 O 107.713 2.19672 -1.5955 0
M  V30 1133 C 106.169 0.51515 -3.56194 0
M  V30 1134 C 105.777 -0.728645 -4.42035 0
M  V30 1135 C 107.521 1.07337 -4.10706 0
M  V30 1136 C 105.428 -0.445315 -5.89721 0
M  V30 1137 H 104.358 0.101205 -0.747177 0
M  V30 1138 H 107.009 -0.452866 -1.77824 0
M  V30 1139 H 105.391 1.28932 -3.74423 0
M  V30 1140 H 106.565 -1.50352 -4.35581 0
M  V30 1141 H 104.88 -1.20813 -3.98489 0
M  V30 1142 H 107.477 1.30022 -5.18651 0
M  V30 1143 H 107.82 2.0273 -3.63602 0
M  V30 1144 H 108.353 0.360034 -3.96167 0
M  V30 1145 H 105.092 -1.36883 -6.41049 0
M  V30 1146 H 104.612 0.291569 -5.99091 0
M  V30 1147 H 106.291 -0.0606218 -6.46972 0
M  V30 1148 N 106.423 1.57458 -0.0668435 0
M  V30 1149 C 107.353 2.15468 0.899764 0
M  V30 1150 C 108.334 1.08042 1.31381 0
M  V30 1151 O 109.519 1.36054 1.38574 0
M  V30 1152 C 106.649 2.71232 2.16911 0
M  V30 1153 C 105.603 3.83781 1.89463 0
M  V30 1154 C 104.929 4.26127 3.22986 0
M  V30 1155 C 106.229 5.08238 1.20381 0
M  V30 1156 H 107.923 2.96488 0.416529 0
M  V30 1157 H 105.469 1.4262 0.198908 0
M  V30 1158 H 107.422 3.10458 2.84945 0
M  V30 1159 H 106.146 1.87426 2.67468 0
M  V30 1160 H 104.805 3.45051 1.23836 0
M  V30 1161 H 104.453 3.39249 3.71374 0
M  V30 1162 H 104.153 5.01993 3.05413 0
M  V30 1163 H 105.677 4.67966 3.92225 0
M  V30 1164 H 107.091 5.44811 1.78475 0
M  V30 1165 H 105.488 5.89349 1.13083 0
M  V30 1166 H 106.558 4.84558 0.182153 0
M  V30 1167 N 107.901 -0.206675 1.56239 0
M  V30 1168 C 108.848 -1.25617 1.93621 0
M  V30 1169 C 109.818 -1.45824 0.795274 0
M  V30 1170 O 111.003 -1.59148 1.05245 0
M  V30 1171 C 108.143 -2.59839 2.27107 0
M  V30 1172 C 107.256 -2.47308 3.54207 0
M  V30 1173 C 106.391 -3.74155 3.7707 0
M  V30 1174 C 105.43 -3.56407 4.97635 0
M  V30 1175 N 104.567 -4.75238 5.1681 0
M  V30 1176 H 109.407 -0.930383 2.83104 0
M  V30 1177 H 106.944 -0.448065 1.4011 0
M  V30 1178 H 108.902 -3.38021 2.44535 0
M  V30 1179 H 107.532 -2.90485 1.40778 0
M  V30 1180 H 106.584 -1.60483 3.4489 0
M  V30 1181 H 107.896 -2.30122 4.42544 0
M  V30 1182 H 107.05 -4.60778 3.94675 0
M  V30 1183 H 105.789 -3.94282 2.87042 0
M  V30 1184 H 104.794 -2.68168 4.79964 0
M  V30 1185 H 106.019 -3.37736 5.89161 0
M  V30 1186 H 103.965 -4.95651 4.29728 0
M  V30 1187 H 103.882 -4.60835 5.99306 0
M  V30 1188 H 105.15 -5.63246 5.38864 0
M  V30 1189 N 109.379 -1.50304 -0.473955 0
M  V30 1190 C 110.289 -1.7174 -1.5982 0
M  V30 1191 C 111.305 -0.600457 -1.63311 0
M  V30 1192 O 112.481 -0.878441 -1.81233 0
M  V30 1193 C 109.546 -1.80427 -2.96052 0
M  V30 1194 C 108.607 -3.04148 -3.02972 0
M  V30 1195 C 107.84 -3.12411 -4.32706 0
M  V30 1196 O 108.063 -2.27542 -5.23049 0
M  V30 1197 O 106.997 -4.05113 -4.45159 0
M  V30 1198 H 110.823 -2.67035 -1.44657 0
M  V30 1199 H 108.408 -1.34366 -0.653148 0
M  V30 1200 H 110.29 -1.88338 -3.7697 0
M  V30 1201 H 108.965 -0.883156 -3.11419 0
M  V30 1202 H 107.872 -3.0174 -2.21142 0
M  V30 1203 H 109.205 -3.95829 -2.92541 0
M  V30 1204 N 110.857 0.726932 -1.39834 0
M  V30 1205 C 112.085 1.51613 -1.40787 0
M  V30 1206 C 112.5 1.88799 -0.00451505 0
M  V30 1207 O 111.857 1.54662 0.968809 0
M  V30 1208 C 111.908 2.79863 -2.28821 0
M  V30 1209 O 111.629 2.44253 -3.63692 0
M  V30 1210 C 113.13 3.73837 -2.38245 0
M  V30 1211 H 110.35 0.468264 -0.480593 0
M  V30 1212 H 112.894 0.897607 -1.83748 0
M  V30 1213 H 111.049 3.38027 -1.89252 0
M  V30 1214 H 111.463 3.26695 -4.1033 0
M  V30 1215 H 112.937 4.60699 -3.04073 0
M  V30 1216 H 113.414 4.16153 -1.40403 0
M  V30 1217 H 114.02 3.21589 -2.78317 0
M  V30 1218 N 112.336 1.25143 0.95797 0
M  V30 1219 C 113.582 1.09855 1.70469 0
M  V30 1220 C 113.915 -0.360187 1.90831 0
M  V30 1221 O 113.19 -1.26568 1.47685 0
M  V30 1222 C 113.473 1.8497 3.08963 0
M  V30 1223 C 113.326 3.38652 2.96032 0
M  V30 1224 C 114.645 1.63016 4.08795 0
M  V30 1225 H 111.764 0.400465 0.618706 0
M  V30 1226 H 114.406 1.53933 1.11376 0
M  V30 1227 H 112.556 1.47505 3.59409 0
M  V30 1228 H 114.228 3.85772 2.52938 0
M  V30 1229 H 112.471 3.66534 2.32025 0
M  V30 1230 H 113.142 3.8642 3.94187 0
M  V30 1231 H 115.618 1.95625 3.67247 0
M  V30 1232 H 114.494 2.18015 5.03747 0
M  V30 1233 H 114.755 0.570692 4.38401 0
M  V30 1234 N 113.814 -1.1601 1.06675 0
M  V30 1235 C 114.761 -2.20525 0.680967 0
M  V30 1236 C 115.731 -1.62904 -0.324283 0
M  V30 1237 O 116.916 -1.89615 -0.212294 0
M  V30 1238 C 114.056 -3.45013 0.0776551 0
M  V30 1239 C 113.169 -4.16863 1.13355 0
M  V30 1240 C 112.304 -5.2888 0.49597 0
M  V30 1241 C 111.343 -5.92537 1.53513 0
M  V30 1242 N 110.48 -6.96038 0.920631 0
M  V30 1243 H 115.32 -2.52876 1.57663 0
M  V30 1244 H 112.857 -1.24199 0.788223 0
M  V30 1245 H 114.815 -4.16193 -0.289704 0
M  V30 1246 H 113.445 -3.132 -0.781393 0
M  V30 1247 H 112.497 -3.44248 1.61857 0
M  V30 1248 H 113.809 -4.60294 1.92174 0
M  V30 1249 H 112.963 -6.06653 0.0758604 0
M  V30 1250 H 111.702 -4.86622 -0.324062 0
M  V30 1251 H 110.707 -5.13482 1.9651 0
M  V30 1252 H 111.932 -6.36873 2.35733 0
M  V30 1253 H 109.878 -6.55888 0.12138 0
M  V30 1254 H 109.795 -7.3786 1.64616 0
M  V30 1255 H 111.063 -7.77725 0.525795 0
M  V30 1256 N 115.292 -0.849877 -1.32721 0
M  V30 1257 C 116.224 -0.248332 -2.27851 0
M  V30 1258 C 117.237 0.577218 -1.52224 0
M  V30 1259 O 118.426 0.402489 -1.73903 0
M  V30 1260 C 115.526 0.668107 -3.32249 0
M  V30 1261 C 114.699 -0.120534 -4.37234 0
M  V30 1262 C 113.758 0.720932 -5.21238 0
M  V30 1263 O 112.784 0.156166 -5.68986 0
M  V30 1264 N 113.986 2.03647 -5.43607 0
M  V30 1265 H 116.751 -1.06575 -2.80111 0
M  V30 1266 H 114.312 -0.709395 -1.45531 0
M  V30 1267 H 116.304 1.23627 -3.85355 0
M  V30 1268 H 114.874 1.38621 -2.80184 0
M  V30 1269 H 114.094 -0.870108 -3.84477 0
M  V30 1270 H 115.382 -0.662406 -5.0447 0
M  V30 1271 H 114.78 2.51871 -5.06535 0
M  V30 1272 H 113.337 2.55287 -5.99727 0
M  V30 1273 N 116.77 1.45427 -0.607355 0
M  V30 1274 C 118.019 2.01452 -0.100036 0
M  V30 1275 C 118.332 1.48159 1.27704 0
M  V30 1276 O 119.538 1.96159 1.87707 0
M  V30 1277 C 117.994 3.59672 -0.128158 0
M  V30 1278 C 117.602 4.21962 -1.50507 0
M  V30 1279 C 119.346 4.23262 0.323932 0
M  V30 1280 C 117.253 5.72333 -1.48959 0
M  V30 1281 H 116.183 0.75325 -0.0336299 0
M  V30 1282 H 118.834 1.66901 -0.76265 0
M  V30 1283 H 117.216 3.91411 0.601105 0
M  V30 1284 H 118.39 4.01796 -2.25602 0
M  V30 1285 H 116.705 3.70565 -1.89923 0
M  V30 1286 H 119.302 5.33522 0.354691 0
M  V30 1287 H 119.645 3.93921 1.34656 0
M  V30 1288 H 120.178 3.96239 -0.352056 0
M  V30 1289 H 116.917 6.06373 -2.48981 0
M  V30 1290 H 116.437 5.94691 -0.781214 0
M  V30 1291 H 118.116 6.35525 -1.21313 0
M  V30 1292 N 118.248 0.346503 1.53744 0
M  V30 1293 C 119.664 -0.00530975 1.59599 0
M  V30 1294 C 119.864 -1.48465 1.36236 0
M  V30 1295 O 118.92 -2.24376 1.15808 0
M  V30 1296 C 120.233 0.433516 2.97559 0
M  V30 1297 C 121.781 0.386111 3.10609 0
M  V30 1298 C 122.256 0.800451 4.50951 0
M  V30 1299 N 123.747 0.754753 4.5701 0
M  V30 1300 C 124.482 1.04727 5.63755 0
M  V30 1301 N 123.978 1.4081 6.7834 0
M  V30 1302 N 125.771 0.971316 5.53644 0
M  V30 1303 H 117.922 1.31009 1.67184 0
M  V30 1304 H 120.185 0.534242 0.783128 0
M  V30 1305 H 119.891 1.46509 3.19731 0
M  V30 1306 H 119.765 -0.189753 3.76722 0
M  V30 1307 H 122.152 -0.636295 2.88158 0
M  V30 1308 H 122.233 1.04462 2.33498 0
M  V30 1309 H 121.877 1.82088 4.74137 0
M  V30 1310 H 121.807 0.119386 5.26465 0
M  V30 1311 H 124.298 0.488662 3.74727 0
M  V30 1312 H 124.611 1.61607 7.55714 0
M  V30 1313 H 122.956 1.44657 6.79779 0
M  V30 1314 H 126.147 0.688748 4.63005 0
M  V30 1315 H 126.32 1.20263 6.36742 0
M  V30 1316 N 119.726 -1.57421 0.075193 0
M  V30 1317 C 120.658 -2.09904 -0.920483 0
M  V30 1318 C 121.671 -1.03191 -1.25918 0
M  V30 1319 O 122.86 -1.30695 -1.21577 0
M  V30 1320 C 119.96 -2.54726 -2.23534 0
M  V30 1321 C 119.133 -3.8505 -2.07498 0
M  V30 1322 C 118.192 -4.15929 -3.22319 0
M  V30 1323 O 117.218 -4.85474 -2.9716 0
M  V30 1324 N 118.42 -3.69745 -4.47514 0
M  V30 1325 H 121.185 -2.95954 -0.472359 0
M  V30 1326 H 118.746 -1.61523 -0.110444 0
M  V30 1327 H 120.738 -2.72443 -2.9926 0
M  V30 1328 H 119.308 -1.73795 -2.59835 0
M  V30 1329 H 118.528 -3.76679 -1.16219 0
M  V30 1330 H 119.816 -4.70348 -1.94038 0
M  V30 1331 H 119.214 -3.13569 -4.7084 0
M  V30 1332 H 117.771 -3.92655 -5.20255 0
M  V30 1333 N 121.204 0.198386 -1.56346 0
M  V30 1334 C 122.453 0.917451 -1.79627 0
M  V30 1335 C 122.766 1.8456 -0.64784 0
M  V30 1336 O 123.972 2.60504 -0.764859 0
M  V30 1337 C 122.428 1.68175 -3.18191 0
M  V30 1338 C 122.036 0.798589 -4.40825 0
M  V30 1339 C 123.78 2.39065 -3.50782 0
M  V30 1340 C 121.687 1.56157 -5.70411 0
M  V30 1341 H 120.617 0.346317 -0.669762 0
M  V30 1342 H 123.268 0.170801 -1.82703 0
M  V30 1343 H 121.65 2.47216 -3.09354 0
M  V30 1344 H 122.824 0.0470665 -4.60776 0
M  V30 1345 H 121.139 0.200686 -4.15916 0
M  V30 1346 H 123.736 2.96692 -4.44835 0
M  V30 1347 H 124.079 3.13091 -2.74371 0
M  V30 1348 H 124.612 1.66993 -3.61052 0
M  V30 1349 H 121.351 0.864142 -6.49779 0
M  V30 1350 H 120.871 2.2871 -5.54483 0
M  V30 1351 H 122.55 2.11622 -6.11412 0
M  V30 1352 N 122.682 1.50554 0.465978 0
M  V30 1353 C 123.629 1.6979 1.56333 0
M  V30 1354 C 124.599 0.539239 1.57103 0
M  V30 1355 O 125.784 0.770401 1.74555 0
M  V30 1356 C 122.924 1.80273 2.94271 0
M  V30 1357 C 122.037 3.07674 3.0325 0
M  V30 1358 C 121.172 3.08922 4.32135 0
M  V30 1359 C 120.211 4.30755 4.34875 0
M  V30 1360 N 119.348 4.29714 5.55239 0
M  V30 1361 H 124.188 2.63472 1.39235 0
M  V30 1362 H 121.725 1.30602 0.676873 0
M  V30 1363 H 123.683 1.84332 3.74269 0
M  V30 1364 H 122.313 0.900258 3.09992 0
M  V30 1365 H 121.365 3.13062 2.16094 0
M  V30 1366 H 122.677 3.97642 3.01135 0
M  V30 1367 H 121.831 3.11738 5.20485 0
M  V30 1368 H 120.57 2.16792 4.36866 0
M  V30 1369 H 119.575 4.28146 3.44922 0
M  V30 1370 H 120.8 5.24117 4.31831 0
M  V30 1371 H 118.746 3.4044 5.60746 0
M  V30 1372 H 118.663 5.13456 5.54886 0
M  V30 1373 H 119.931 4.36683 6.457 0
M  V30 1374 N 124.16 -0.719506 1.40217 0
M  V30 1375 C 125.07 -1.86378 1.42479 0
M  V30 1376 C 126.086 -1.71073 0.317834 0
M  V30 1377 O 127.262 -1.93406 0.561794 0
M  V30 1378 C 124.327 -3.22136 1.28178 0
M  V30 1379 C 123.388 -3.49723 2.48982 0
M  V30 1380 C 122.621 -4.79004 2.35353 0
M  V30 1381 O 122.844 -5.53821 1.36524 0
M  V30 1382 O 121.778 -5.06839 3.2465 0
M  V30 1383 H 125.604 -1.87425 2.38968 0
M  V30 1384 H 123.189 -0.869405 1.21498 0
M  V30 1385 H 125.071 -4.03234 1.22395 0
M  V30 1386 H 123.746 -3.21825 0.347934 0
M  V30 1387 H 122.653 -2.6865 2.60342 0
M  V30 1388 H 123.986 -3.54828 3.41113 0
M  V30 1389 N 125.638 -1.25649 -0.95132 0
M  V30 1390 C 126.57 -1.02112 -2.05197 0
M  V30 1391 C 127.583 0.0150571 -1.62793 0
M  V30 1392 O 128.772 -0.223874 -1.77091 0
M  V30 1393 C 125.872 -0.522361 -3.3485 0
M  V30 1394 C 125.045 -1.62546 -4.06076 0
M  V30 1395 C 124.104 -1.12649 -5.14001 0
M  V30 1396 O 123.13 -1.82156 -5.39266 0
M  V30 1397 N 124.332 0.03047 -5.80492 0
M  V30 1398 H 127.097 -1.96885 -2.25957 0
M  V30 1399 H 124.658 -1.16899 -1.1201 0
M  V30 1400 H 126.65 -0.172961 -4.0433 0
M  V30 1401 H 125.22 0.33151 -3.10837 0
M  V30 1402 H 124.44 -2.14628 -3.30649 0
M  V30 1403 H 125.728 -2.36644 -4.50419 0
M  V30 1404 H 125.126 0.611169 -5.62389 0
M  V30 1405 H 123.683 0.320875 -6.5101 0
M  V30 1406 N 127.117 1.15442 -1.07289 0
M  V30 1407 C 128.027 2.23786 -0.704057 0
M  V30 1408 C 129.043 1.7166 0.284413 0
M  V30 1409 O 130.219 2.00972 0.131205 0
M  V30 1410 C 127.284 3.46535 -0.106792 0
M  V30 1411 C 126.345 4.13654 -1.14842 0
M  V30 1412 C 125.578 5.30544 -0.57956 0
M  V30 1413 O 125.801 5.67187 0.604585 0
M  V30 1414 O 124.735 5.87154 -1.32414 0
M  V30 1415 H 128.561 2.57664 -1.60757 0
M  V30 1416 H 126.146 1.23152 -0.845803 0
M  V30 1417 H 128.028 4.20804 0.224048 0
M  V30 1418 H 126.703 3.14407 0.770049 0
M  V30 1419 H 125.61 3.4131 -1.5316 0
M  V30 1420 H 126.943 4.49861 -1.99714 0
M  V30 1421 N 128.595 0.856903 1.32268 0
M  V30 1422 C 129.542 0.301172 2.28827 0
M  V30 1423 C 130.512 -0.593104 1.5515 0
M  V30 1424 O 131.697 -0.527537 1.83362 0
M  V30 1425 C 128.837 -0.502523 3.41422 0
M  V30 1426 C 127.95 0.417797 4.29975 0
M  V30 1427 C 127.085 -0.398749 5.29701 0
M  V30 1428 C 126.124 0.518827 6.09897 0
M  V30 1429 N 125.261 -0.260674 7.01616 0
M  V30 1430 H 130.101 1.12983 2.75751 0
M  V30 1431 H 127.638 0.568582 1.35667 0
M  V30 1432 H 129.596 -0.984141 4.05426 0
M  V30 1433 H 128.226 -1.29599 2.95642 0
M  V30 1434 H 127.278 1.01781 3.66531 0
M  V30 1435 H 128.59 1.12191 4.86019 0
M  V30 1436 H 127.744 -0.943435 5.9932 0
M  V30 1437 H 126.483 -1.13622 4.7428 0
M  V30 1438 H 125.488 1.07538 5.39181 0
M  V30 1439 H 126.713 1.25495 6.67404 0
M  V30 1440 H 124.659 -0.981198 6.4862 0
M  V30 1441 H 124.576 0.384364 7.55022 0
M  V30 1442 H 125.844 -0.787014 7.75517 0
M  V30 1443 N 130.073 -1.45103 0.615059 0
M  V30 1444 C 131.036 -2.29025 -0.0895485 0
M  V30 1445 C 132.036 -1.40174 -0.787906 0
M  V30 1446 O 133.226 -1.62217 -0.634933 0
M  V30 1447 C 130.358 -3.21376 -1.13711 0
M  V30 1448 H 131.551 -2.92807 0.648382 0
M  V30 1449 H 129.104 -1.51749 0.374444 0
M  V30 1450 H 129.839 -2.6241 -1.90556 0
M  V30 1451 H 129.624 -3.86834 -0.640475 0
M  V30 1452 H 131.114 -3.84459 -1.63036 0
M  V30 1453 N 131.551 -0.354651 -1.53558 0
M  V30 1454 C 132.514 0.484566 -2.24019 0
M  V30 1455 C 133.514 1.01861 -1.24422 0
M  V30 1456 O 134.704 0.906097 -1.4878 0
M  V30 1457 C 131.836 1.67615 -2.96847 0
M  V30 1458 H 133.029 -0.131843 -2.9961 0
M  V30 1459 H 130.582 -0.106165 -1.55939 0
M  V30 1460 H 131.317 2.33095 -2.25471 0
M  V30 1461 H 131.102 1.30029 -3.69912 0
M  V30 1462 H 132.592 2.27114 -3.50441 0
M  V30 1463 N 133.029 1.57378 -0.0835403 0
M  V30 1464 C 133.992 2.12252 0.864959 0
M  V30 1465 C 134.992 1.04916 1.21858 0
M  V30 1466 O 136.182 1.30853 1.14991 0
M  V30 1467 C 133.314 2.63358 2.16461 0
M  V30 1468 H 134.507 2.97371 0.388676 0
M  V30 1469 H 132.06 1.55423 0.165317 0
M  V30 1470 H 132.795 1.81727 2.686 0
M  V30 1471 H 132.58 3.41826 1.92087 0
M  V30 1472 H 134.07 3.05847 2.84337 0
M  V30 1473 N 134.507 -0.190092 1.56449 0
M  V30 1474 C 135.47 -1.21925 1.9408 0
M  V30 1475 C 136.47 -1.38176 0.822431 0
M  V30 1476 O 137.66 -1.35903 1.08977 0
M  V30 1477 C 134.792 -2.58773 2.21922 0
M  V30 1478 H 135.985 -0.897464 2.86157 0
M  V30 1479 H 133.538 -0.43181 1.50217 0
M  V30 1480 H 134.273 -2.95998 1.32499 0
M  V30 1481 H 134.058 -2.48348 3.03424 0
M  V30 1482 H 135.548 -3.32978 2.52022 0
M  V30 1483 N 135.985 -1.50799 -0.457987 0
M  V30 1484 C 136.933 -1.71162 -1.575 0
M  V30 1485 C 137.927 -0.577592 -1.59249 0
M  V30 1486 O 139.133 -0.758443 -1.63241 0
M  V30 1487 H 135.508 -0.540468 -0.522875 0
M  V30 1488 H 137.479 -2.64837 -1.37492 0
M  V30 1489 C 136.228 -1.83496 -2.95338 0
M  V30 1490 H 135.551 -2.70153 -2.94716 0
M  V30 1491 H 136.991 -2.01765 -3.72917 0
M  V30 1492 C 135.45 -0.589694 -3.31699 0
M  V30 1493 O 135.98 0.265163 -4.00824 0
M  V30 1494 N 134.186 -0.439845 -2.87252 0
M  V30 1495 H 133.733 -1.13655 -2.31172 0
M  V30 1496 H 133.691 0.392159 -3.11945 0
M  V30 1497 N 137.463 0.71206 -1.40597 0
M  V30 1498 C 138.712 1.46754 -1.38369 0
M  V30 1499 C 139.025 1.95598 0.0097839 0
M  V30 1500 O 140.231 2.71059 0.154677 0
M  V30 1501 C 138.687 2.65289 -2.43207 0
M  V30 1502 C 138.295 2.23301 -3.88382 0
M  V30 1503 C 140.039 3.43008 -2.50091 0
M  V30 1504 C 137.946 3.38696 -4.84808 0
M  V30 1505 H 136.876 0.55118 -0.514506 0
M  V30 1506 H 139.527 0.774616 -1.66349 0
M  V30 1507 H 137.909 3.36769 -2.08332 0
M  V30 1508 H 139.083 1.59218 -4.32419 0
M  V30 1509 H 137.398 1.58618 -3.85006 0
M  V30 1510 H 139.995 4.28881 -3.1932 0
M  V30 1511 H 140.338 3.87065 -1.53253 0
M  V30 1512 H 140.871 2.78574 -2.83974 0
M  V30 1513 H 137.61 2.99668 -5.82992 0
M  V30 1514 H 137.13 4.01683 -4.45433 0
M  V30 1515 H 138.809 4.04712 -5.04794 0
M  V30 1516 N 138.941 1.26152 0.944643 0
M  V30 1517 C 140.218 1.02247 1.66748 0
M  V30 1518 C 140.598 -0.448202 2.06287 0
M  V30 1519 O 139.946 -1.42779 1.78399 0
M  V30 1520 C 140.156 1.96788 2.88228 0
M  V30 1521 C 141.504 2.25201 3.59958 0
M  V30 1522 O 142.528 1.94626 2.98327 0
M  V30 1523 O 141.387 2.77242 4.70956 0
M  V30 1524 H 138.481 0.388517 0.730057 0
M  V30 1525 H 141.027 1.37348 0.99668 0
M  V30 1526 H 139.799 2.96047 2.55875 0
M  V30 1527 H 139.422 1.62145 3.63035 0
M  V30 1528 N 140.419 -1.14872 1.07899 0
M  V30 1529 C 141.329 -2.2341 0.715915 0
M  V30 1530 C 142.345 -1.71808 -0.275306 0
M  V30 1531 O 143.521 -2.01039 -0.120545 0
M  V30 1532 C 140.586 -3.46474 0.125168 0
M  V30 1533 C 139.647 -4.13039 1.17034 0
M  V30 1534 C 138.88 -5.30229 0.607688 0
M  V30 1535 O 139.103 -5.675 -0.574497 0
M  V30 1536 O 138.037 -5.86444 1.35526 0
M  V30 1537 H 141.863 -2.56808 1.62121 0
M  V30 1538 H 139.448 -1.22702 0.852322 0
M  V30 1539 H 141.33 -4.20917 -0.201729 0
M  V30 1540 H 140.005 -3.14811 -0.753364 0
M  V30 1541 H 138.912 -3.40493 1.54968 0
M  V30 1542 H 140.245 -4.48796 2.02097 0
M  V30 1543 N 141.898 -0.863906 -1.31812 0
M  V30 1544 C 143.144 -0.472535 -1.97218 0
M  V30 1545 C 143.477 0.971394 -1.68159 0
M  V30 1546 O 142.752 1.68309 -0.974798 0
M  V30 1547 C 143.035 -0.723054 -3.52766 0
M  V30 1548 C 142.888 -2.21608 -3.91421 0
M  V30 1549 C 144.207 -0.185522 -4.39709 0
M  V30 1550 H 141.326 -0.173158 -0.71637 0
M  V30 1551 H 143.968 -1.08403 -1.56041 0
M  V30 1552 H 142.118 -0.202577 -3.87971 0
M  V30 1553 H 143.79 -2.80334 -3.66347 0
M  V30 1554 H 142.033 -2.691 -3.40246 0
M  V30 1555 H 142.704 -2.34203 -4.99853 0
M  V30 1556 H 145.18 -0.630726 -4.11292 0
M  V30 1557 H 144.056 -0.390306 -5.47511 0
M  V30 1558 H 144.317 0.912229 -4.32586 0
M  V30 1559 N 143.376 1.44774 -0.622745 0
M  V30 1560 C 144.308 2.28856 0.125485 0
M  V30 1561 C 145.321 1.40811 0.817069 0
M  V30 1562 O 146.51 1.65044 0.679918 0
M  V30 1563 C 143.61 3.16963 1.19949 0
M  V30 1564 C 142.783 4.33374 0.592064 0
M  V30 1565 C 141.842 5.02577 1.55893 0
M  V30 1566 O 140.868 5.58873 1.07933 0
M  V30 1567 N 142.07 5.03256 2.89334 0
M  V30 1568 H 144.835 2.93713 -0.596068 0
M  V30 1569 H 142.396 1.55129 -0.463303 0
M  V30 1570 H 144.388 3.60123 1.84644 0
M  V30 1571 H 142.958 2.53913 1.82337 0
M  V30 1572 H 142.178 3.93509 -0.233322 0
M  V30 1573 H 143.466 5.08527 0.166738 0
M  V30 1574 H 142.864 4.58836 3.30887 0
M  V30 1575 H 141.421 5.50232 3.49412 0
M  V30 1576 N 144.854 0.36279 1.53368 0
M  V30 1577 C 145.801 -0.485008 2.25646 0
M  V30 1578 C 146.771 -1.07982 1.2621 0
M  V30 1579 O 147.956 -1.11284 1.54986 0
M  V30 1580 C 145.096 -1.62023 3.04701 0
M  V30 1581 C 144.209 -1.05086 4.19024 0
M  V30 1582 C 143.344 -2.15496 4.85525 0
M  V30 1583 C 142.383 -1.5601 5.91884 0
M  V30 1584 N 141.52 -2.60241 6.52088 0
M  V30 1585 H 146.36 0.137864 2.97681 0
M  V30 1586 H 143.897 0.0798061 1.46883 0
M  V30 1587 H 145.855 -2.28887 3.48807 0
M  V30 1588 H 144.485 -2.2138 2.34927 0
M  V30 1589 H 143.537 -0.27259 3.79422 0
M  V30 1590 H 144.849 -0.575926 4.95464 0
M  V30 1591 H 144.003 -2.90186 5.32801 0
M  V30 1592 H 142.742 -2.66341 4.08551 0
M  V30 1593 H 141.747 -0.798338 5.43973 0
M  V30 1594 H 142.972 -1.05994 6.70777 0
M  V30 1595 H 140.918 -3.10304 5.77968 0
M  V30 1596 H 140.835 -2.17426 7.24059 0
M  V30 1597 H 142.103 -3.34641 7.04014 0
M  V30 1598 N 146.332 -1.57332 0.0918853 0
M  V30 1599 C 147.557 -1.98995 -0.584442 0
M  V30 1600 C 147.982 -0.970528 -1.61128 0
M  V30 1601 O 147.34 0.0613904 -1.81196 0
M  V30 1602 C 147.388 -3.39636 -1.21161 0
M  V30 1603 O 146.492 -3.40447 -2.32744 0
M  V30 1604 H 145.833 -0.647165 -0.148572 0
M  V30 1605 H 148.363 -2.03873 0.172347 0
M  V30 1606 H 148.373 -3.7726 -1.55367 0
M  V30 1607 H 147.048 -4.13356 -0.459313 0
M  V30 1608 H 145.625 -3.14614 -2.0018 0
M  V30 1609 N 147.81 0.181792 -1.56548 0
M  V30 1610 C 149.087 0.926765 -1.72251 0
M  V30 1611 C 149.467 2.00831 -0.650386 0
M  V30 1612 O 148.815 2.26008 0.336521 0
M  V30 1613 C 149.025 1.50106 -3.1507 0
M  V30 1614 C 150.373 1.97805 -3.75711 0
M  V30 1615 O 151.397 1.59922 -3.18282 0
M  V30 1616 O 150.256 2.67555 -4.76525 0
M  V30 1617 H 147.35 0.435506 -0.703039 0
M  V30 1618 H 149.896 0.170443 -1.68842 0
M  V30 1619 H 148.668 0.72212 -3.84579 0
M  V30 1620 H 148.291 2.32186 -3.22763 0
M  V30 1621 N 149.288 1.51039 0.449983 0
M  V30 1622 C 150.534 1.63322 1.20223 0
M  V30 1623 C 150.867 0.34241 1.91158 0
M  V30 1624 O 150.142 -0.657344 1.83055 0
M  V30 1625 C 150.425 2.82801 2.22925 0
M  V30 1626 C 150.278 4.21823 1.56157 0
M  V30 1627 C 151.597 2.97807 3.24035 0
M  V30 1628 H 148.716 0.594407 0.435718 0
M  V30 1629 H 151.358 1.83489 0.493136 0
M  V30 1630 H 149.508 2.65738 2.834 0
M  V30 1631 H 151.18 4.50526 0.991162 0
M  V30 1632 H 149.423 4.25105 0.864172 0
M  V30 1633 H 150.094 5.01391 2.30891 0
M  V30 1634 H 152.57 3.13497 2.73603 0
M  V30 1635 H 151.446 3.82992 3.93202 0
M  V30 1636 H 151.707 2.09328 3.89402 0
M  V30 1637 N 150.766 -0.704594 1.40972 0
M  V30 1638 C 151.991 -1.49858 1.43378 0
M  V30 1639 C 152.416 -1.88061 0.038184 0
M  V30 1640 O 151.774 -1.5402 -0.956425 0
M  V30 1641 C 151.822 -2.74333 2.34038 0
M  V30 1642 O 150.926 -3.7147 1.7912 0
M  V30 1643 H 150.267 -0.45139 0.486974 0
M  V30 1644 H 152.797 -0.866832 1.8533 0
M  V30 1645 H 152.807 -3.22741 2.49604 0
M  V30 1646 H 151.482 -2.45863 3.35446 0
M  V30 1647 H 150.059 -3.30363 1.72958 0
M  V30 1648 N 152.244 -1.26651 -0.937939 0
M  V30 1649 C 153.469 -1.15279 -1.72411 0
M  V30 1650 C 153.894 0.287866 -1.85884 0
M  V30 1651 O 153.252 1.20855 -1.35143 0
M  V30 1652 C 153.3 -1.83028 -3.10698 0
M  V30 1653 O 152.404 -1.12128 -3.96864 0
M  V30 1654 H 151.745 -0.401504 -0.528858 0
M  V30 1655 H 154.275 -1.67531 -1.1745 0
M  V30 1656 H 154.285 -1.89981 -3.6107 0
M  V30 1657 H 152.96 -2.87833 -3.00208 0
M  V30 1658 H 151.537 -1.13173 -3.55312 0
M  V30 1659 N 153.722 1.14298 -1.08507 0
M  V30 1660 C 154.95 1.89219 -0.836876 0
M  V30 1661 C 155.365 1.78638 0.611054 0
M  V30 1662 O 154.722 1.14643 1.41998 0
M  V30 1663 C 154.773 3.39158 -1.25116 0
M  V30 1664 O 154.494 3.49449 -2.64229 0
M  V30 1665 C 155.995 4.31073 -1.03398 0
M  V30 1666 H 153.215 0.599328 -0.301739 0
M  V30 1667 H 155.759 1.44746 -1.44461 0
M  V30 1668 H 153.914 3.81251 -0.687514 0
M  V30 1669 H 154.328 4.42589 -2.81452 0
M  V30 1670 H 155.802 5.34646 -1.37323 0
M  V30 1671 H 156.279 4.3919 0.0289259 0
M  V30 1672 H 156.885 3.94738 -1.58311 0
M  V30 1673 N 155.201 0.870884 1.31352 0
M  V30 1674 C 156.449 0.48132 1.96285 0
M  V30 1675 C 156.77 -0.969813 1.69173 0
M  V30 1676 O 156.04 -1.67998 1.00764 0
M  V30 1677 H 154.62 0.175002 0.726212 0
M  V30 1678 H 157.282 1.11087 1.60143 0
M  V30 1679 H 156.378 0.639825 3.05471 0
M  V30 1680 N 156.679 -1.44442 0.630414 0
M  V30 1681 C 157.611 -2.2892 -0.113347 0
M  V30 1682 C 158.624 -1.41243 -0.80959 0
M  V30 1683 O 159.813 -1.65402 -0.671156 0
M  V30 1684 C 156.913 -3.17594 -1.18266 0
M  V30 1685 C 156.086 -4.33682 -0.569073 0
M  V30 1686 C 155.145 -5.03397 -1.53226 0
M  V30 1687 O 154.171 -5.59438 -1.04967 0
M  V30 1688 N 155.373 -5.04783 -2.86661 0
M  V30 1689 H 158.138 -2.93392 0.611636 0
M  V30 1690 H 155.699 -1.54881 0.471523 0
M  V30 1691 H 157.691 -3.61097 -1.82732 0
M  V30 1692 H 156.261 -2.54876 -1.80988 0
M  V30 1693 H 155.481 -3.9338 0.254187 0
M  V30 1694 H 156.769 -5.08608 -0.139767 0
M  V30 1695 H 156.167 -4.60584 -3.28449 0
M  V30 1696 H 154.724 -5.52077 -3.46489 0
M  V30 1697 N 158.157 -0.370918 -1.53173 0
M  V30 1698 C 159.405 0.216673 -2.00935 0
M  V30 1699 C 159.726 1.48845 -1.25977 0
M  V30 1700 O 158.996 1.92286 -0.374551 0
M  V30 1701 H 157.576 0.0830565 -0.742368 0
M  V30 1702 H 160.238 -0.49838 -1.8842 0
M  V30 1703 H 159.334 0.439893 -3.08984 0
M  V30 1704 N 159.635 1.57281 -0.100228 0
M  V30 1705 C 160.881 1.94826 0.563101 0
M  V30 1706 C 161.214 0.982475 1.67514 0
M  V30 1707 O 160.489 0.0164069 1.94493 0
M  V30 1708 C 160.772 3.42453 1.11346 0
M  V30 1709 C 160.625 4.498 0.00612081 0
M  V30 1710 C 161.944 3.91506 2.01024 0
M  V30 1711 H 159.063 0.708428 0.203221 0
M  V30 1712 H 161.705 1.8922 -0.171979 0
M  V30 1713 H 159.855 3.47361 1.7399 0
M  V30 1714 H 161.527 4.57 -0.628357 0
M  V30 1715 H 159.77 4.28756 -0.659581 0
M  V30 1716 H 160.441 5.50306 0.432109 0
M  V30 1717 H 162.917 3.88784 1.48278 0
M  V30 1718 H 161.793 4.95358 2.36457 0
M  V30 1719 H 162.054 3.31099 2.92961 0
M  V30 1720 N 161.113 -0.173488 1.56642 0
M  V30 1721 C 162.362 -0.888758 1.81063 0
M  V30 1722 C 162.675 -1.83506 0.67712 0
M  V30 1723 O 163.881 -2.59254 0.806206 0
M  V30 1724 C 162.337 -1.63091 3.20826 0
M  V30 1725 C 161.945 -0.728357 4.4204 0
M  V30 1726 C 163.689 -2.33454 3.54541 0
M  V30 1727 C 161.596 -1.47062 5.72823 0
M  V30 1728 H 160.526 -0.335618 0.675186 0
M  V30 1729 H 163.177 -0.141712 1.82952 0
M  V30 1730 H 161.559 -2.42263 3.13248 0
M  V30 1731 H 162.733 0.0262449 4.60793 0
M  V30 1732 H 161.048 -0.134492 4.16183 0
M  V30 1733 H 163.645 -2.89578 4.49498 0
M  V30 1734 H 163.988 -3.08687 2.79317 0
M  V30 1735 H 164.521 -1.61227 3.63663 0
M  V30 1736 H 161.26 -0.760658 6.51072 0
M  V30 1737 H 160.78 -2.1986 5.58052 0
M  V30 1738 H 162.459 -2.01868 6.14702 0
M  V30 1739 N 162.591 -1.51276 -0.441967 0
M  V30 1740 C 163.868 -1.54252 -1.20273 0
M  V30 1741 C 164.248 -0.30408 -2.08898 0
M  V30 1742 O 163.596 0.711084 -2.17154 0
M  V30 1743 C 163.806 -2.85406 -2.00859 0
M  V30 1744 C 165.154 -3.37181 -2.58059 0
M  V30 1745 O 166.178 -2.86925 -2.11074 0
M  V30 1746 O 165.037 -4.24858 -3.43741 0
M  V30 1747 H 162.131 -0.619969 -0.547328 0
M  V30 1748 H 164.677 -1.63586 -0.451413 0
M  V30 1749 H 163.449 -3.67003 -1.35736 0
M  V30 1750 H 163.072 -2.79213 -2.83065 0
M  V30 1751 N 164.069 0.697108 -1.41344 0
M  V30 1752 C 165.016 1.81106 -1.43071 0
M  V30 1753 C 165.986 1.63632 -0.285275 0
M  V30 1754 O 167.171 1.84504 -0.486091 0
M  V30 1755 C 164.311 3.18975 -1.31715 0
M  V30 1756 C 163.424 3.47892 -2.56115 0
M  V30 1757 C 162.559 4.75367 -2.37064 0
M  V30 1758 C 161.598 4.97247 -3.56948 0
M  V30 1759 N 160.735 6.15947 -3.36977 0
M  V30 1760 H 165.575 1.78965 -2.38276 0
M  V30 1761 H 163.112 0.873975 -1.18322 0
M  V30 1762 H 165.07 3.98615 -1.23133 0
M  V30 1763 H 163.7 3.20297 -0.401183 0
M  V30 1764 H 162.752 2.62669 -2.75153 0
M  V30 1765 H 164.064 3.59962 -3.45295 0
M  V30 1766 H 163.218 5.63059 -2.25941 0
M  V30 1767 H 161.957 4.65541 -1.45338 0
M  V30 1768 H 160.962 4.08004 -3.68527 0
M  V30 1769 H 162.187 5.08934 -4.49626 0
M  V30 1770 H 160.133 6.07336 -2.47949 0
M  V30 1771 H 160.05 6.28777 -4.19732 0
M  V30 1772 H 161.318 7.06377 -3.29623 0
M  V30 1773 N 165.547 1.27147 0.931209 0
M  V30 1774 C 166.824 1.0401 1.65654 0
M  V30 1775 C 167.204 -0.426297 2.06751 0
M  V30 1776 O 166.552 -1.40879 1.79904 0
M  V30 1777 C 166.762 1.99834 2.86125 0
M  V30 1778 C 168.11 2.29007 3.57549 0
M  V30 1779 O 169.134 1.97779 2.96246 0
M  V30 1780 O 167.993 2.82222 4.67989 0
M  V30 1781 H 165.087 0.396239 0.725895 0
M  V30 1782 H 167.633 1.38397 0.982056 0
M  V30 1783 H 166.405 2.98744 2.52721 0
M  V30 1784 H 166.028 1.65987 3.61295 0
M  V30 1785 N 167.025 -1.13721 1.09112 0
M  V30 1786 C 167.988 -2.17222 0.731241 0
M  V30 1787 C 168.988 -1.59035 -0.237566 0
M  V30 1788 O 170.178 -1.74192 -0.0161704 0
M  V30 1789 C 167.31 -3.40804 0.0808443 0
M  V30 1790 H 168.503 -2.50573 1.64783 0
M  V30 1791 H 166.056 -1.28493 0.889897 0
M  V30 1792 H 166.791 -3.1304 -0.847127 0
M  V30 1793 H 166.576 -3.84306 0.777896 0
M  V30 1794 H 168.066 -4.1731 -0.155657 0
M  V30 1795 N 168.503 -0.877838 -1.30888 0
M  V30 1796 C 169.433 -0.35534 -2.3078 0
M  V30 1797 C 170.414 0.557994 -1.60687 0
M  V30 1798 O 171.599 0.473355 -1.88343 0
M  V30 1799 C 168.729 0.437221 -3.44537 0
M  V30 1800 C 167.683 -0.383715 -4.26276 0
M  V30 1801 C 167.009 0.535014 -5.32017 0
M  V30 1802 C 168.309 -1.62201 -4.96476 0
M  V30 1803 H 170.003 -1.19007 -2.74732 0
M  V30 1804 H 167.549 -0.573698 -1.32078 0
M  V30 1805 H 169.502 0.813334 -4.13477 0
M  V30 1806 H 168.226 1.30553 -2.99372 0
M  V30 1807 H 166.885 -0.741874 -3.59015 0
M  V30 1808 H 166.533 1.40083 -4.831 0
M  V30 1809 H 166.233 -0.0104211 -5.87599 0
M  V30 1810 H 167.757 0.907799 -6.03814 0
M  V30 1811 H 169.171 -1.31689 -5.5797 0
M  V30 1812 H 167.568 -2.10711 -5.61891 0
M  V30 1813 H 168.638 -2.37044 -4.23011 0
M  V30 1814 N 169.982 1.44106 -0.638065 0
M  V30 1815 C 171.23 2.01579 -0.145043 0
M  V30 1816 C 171.551 1.50496 1.24 0
M  V30 1817 O 170.821 0.711374 1.82527 0
M  V30 1818 H 169.401 0.745282 -0.05063 0
M  V30 1819 H 172.063 1.76516 -0.826327 0
M  V30 1820 H 171.159 3.11877 -0.118039 0
M  V30 1821 N 171.46 0.379036 1.52974 0
M  V30 1822 C 172.871 -0.0972525 1.86447 0
M  V30 1823 C 173.222 -1.47027 1.29914 0
M  V30 1824 O 172.347 -2.07135 0.626433 0
M  V30 1825 C 172.942 -0.183248 3.38304 0
M  V30 1826 C 171.501 -0.603812 3.71525 0
M  V30 1827 C 170.648 0.240632 2.76254 0
M  V30 1828 H 173.599 0.597316 1.4703 0
M  V30 1829 H 173.62 -1.00432 3.67006 0
M  V30 1830 H 173.132 0.816191 3.79421 0
M  V30 1831 H 171.233 -1.61099 3.35973 0
M  V30 1832 H 171.346 -0.369086 4.77676 0
M  V30 1833 H 169.71 -0.292548 2.53014 0
M  V30 1834 H 170.493 1.23786 3.20206 0
M  V30 1835 N 172.938 -1.57226 0.108567 0
M  V30 1836 C 173.871 -2.10447 -0.882464 0
M  V30 1837 C 174.849 -1.01829 -1.26766 0
M  V30 1838 O 176.033 -1.29415 -1.37054 0
M  V30 1839 C 173.16 -2.59258 -2.17952 0
M  V30 1840 C 172.206 -3.79662 -1.94318 0
M  V30 1841 S 173.039 -5.22586 -1.16892 0
M  V30 1842 C 174.195 -5.74758 -2.47799 0
M  V30 1843 H 174.428 -2.94178 -0.429745 0
M  V30 1844 H 171.961 -1.54043 -0.105 0
M  V30 1845 H 173.919 -2.88036 -2.92482 0
M  V30 1846 H 172.58 -1.75728 -2.60343 0
M  V30 1847 H 171.773 -4.11928 -2.90399 0
M  V30 1848 H 171.375 -3.51446 -1.27913 0
M  V30 1849 H 173.667 -5.83846 -3.43701 0
M  V30 1850 H 174.61 -6.73027 -2.20093 0
M  V30 1851 H 175.018 -5.02763 -2.56689 0
M  V30 1852 N 174.416 0.165178 -1.56732 0
M  V30 1853 C 175.349 1.23336 -1.91998 0
M  V30 1854 C 176.327 1.42476 -0.783531 0
M  V30 1855 O 177.511 1.57384 -1.03743 0
M  V30 1856 C 174.638 2.59533 -2.17625 0
M  V30 1857 C 173.684 2.57093 -3.40302 0
M  V30 1858 S 174.517 2.05571 -4.9447 0
M  V30 1859 C 175.673 3.43532 -5.23198 0
M  V30 1860 H 175.906 0.932387 -2.82301 0
M  V30 1861 H 173.439 0.370013 -1.49901 0
M  V30 1862 H 175.397 3.37918 -2.3307 0
M  V30 1863 H 174.058 2.86827 -1.28019 0
M  V30 1864 H 173.251 3.57308 -3.55453 0
M  V30 1865 H 172.853 1.86806 -3.24005 0
M  V30 1866 H 175.145 4.39559 -5.15552 0
M  V30 1867 H 176.088 3.33251 -6.2478 0
M  V30 1868 H 176.496 3.39828 -4.50752 0
M  V30 1869 N 175.894 1.51508 0.433938 0
M  V30 1870 C 176.824 1.76016 1.53429 0
M  V30 1871 C 177.805 0.610112 1.58782 0
M  V30 1872 O 178.99 0.853177 1.74455 0
M  V30 1873 C 176.12 1.88831 2.9148 0
M  V30 1874 C 175.074 3.04288 3.00987 0
M  V30 1875 C 174.4 3.0229 4.4105 0
M  V30 1876 C 175.7 4.44193 2.74754 0
M  V30 1877 H 177.394 2.68152 1.33171 0
M  V30 1878 H 174.94 1.29035 0.639214 0
M  V30 1879 H 176.893 2.04559 3.6842 0
M  V30 1880 H 175.617 0.933455 3.12976 0
M  V30 1881 H 174.276 2.8827 2.26486 0
M  V30 1882 H 173.924 2.04576 4.59519 0
M  V30 1883 H 173.624 3.79822 4.4834 0
M  V30 1884 H 175.148 3.20116 5.1996 0
M  V30 1885 H 176.562 4.60544 3.41426 0
M  V30 1886 H 174.959 5.23457 2.9345 0
M  V30 1887 H 176.029 4.53996 1.70339 0
M  V30 1888 N 177.372 -0.689602 1.41712 0
M  V30 1889 C 178.282 -1.83314 1.46401 0
M  V30 1890 C 179.298 -1.7036 0.35405 0
M  V30 1891 O 180.474 -1.92171 0.602692 0
M  V30 1892 C 177.539 -3.19344 1.34982 0
M  V30 1893 C 176.6 -3.44363 2.56344 0
M  V30 1894 C 175.833 -4.73904 2.45461 0
M  V30 1895 O 176.056 -5.508 1.48241 0
M  V30 1896 O 174.99 -4.99839 3.35328 0
M  V30 1897 H 178.816 -1.82314 2.42889 0
M  V30 1898 H 176.401 -0.843438 1.23315 0
M  V30 1899 H 178.283 -4.00547 1.3092 0
M  V30 1900 H 176.958 -3.21014 0.41612 0
M  V30 1901 H 175.865 -2.63067 2.65982 0
M  V30 1902 H 177.198 -3.47512 3.48563 0
M  V30 1903 N 178.85 -1.27639 -0.924453 0
M  V30 1904 C 179.813 -1.10681 -2.00705 0
M  V30 1905 C 180.813 -0.0497823 -1.60723 0
M  V30 1906 O 182.003 -0.294654 -1.7169 0
M  V30 1907 C 179.135 -0.687164 -3.33902 0
M  V30 1908 H 180.328 -2.06817 -2.17179 0
M  V30 1909 H 177.881 -1.10473 -1.10569 0
M  V30 1910 H 178.616 0.275439 -3.23128 0
M  V30 1911 H 178.401 -1.45061 -3.6428 0
M  V30 1912 H 179.891 -0.590853 -4.13399 0
M  V30 1913 N 180.328 1.1314 -1.09713 0
M  V30 1914 C 181.258 2.20748 -0.761102 0
M  V30 1915 C 182.239 1.68061 0.262566 0
M  V30 1916 O 183.424 1.93765 0.129977 0
M  V30 1917 C 180.554 3.46812 -0.184054 0
M  V30 1918 C 179.508 4.12606 -1.13757 0
M  V30 1919 C 178.834 5.33031 -0.422083 0
M  V30 1920 C 180.134 4.59603 -2.48118 0
M  V30 1921 H 181.828 2.49113 -1.66082 0
M  V30 1922 H 179.374 1.19734 -0.799987 0
M  V30 1923 H 181.327 4.21353 0.0631215 0
M  V30 1924 H 180.051 3.17851 0.750868 0
M  V30 1925 H 178.71 3.40036 -1.37007 0
M  V30 1926 H 178.358 5.00335 0.517072 0
M  V30 1927 H 178.058 5.77999 -1.05788 0
M  V30 1928 H 179.582 6.10325 -0.183277 0
M  V30 1929 H 180.996 5.25552 -2.29059 0
M  V30 1930 H 179.393 5.15321 -3.07514 0
M  V30 1931 H 180.463 3.73971 -3.08665 0
M  V30 1932 N 181.806 0.884767 1.30421 0
M  V30 1933 C 183.083 0.423185 1.90967 0
M  V30 1934 C 183.463 -1.09605 1.80416 0
M  V30 1935 O 182.811 -1.93126 1.22125 0
M  V30 1936 C 183.021 0.921056 3.36627 0
M  V30 1937 C 184.369 0.955903 4.137 0
M  V30 1938 O 185.393 0.867706 3.4547 0
M  V30 1939 O 184.252 1.08614 5.35598 0
M  V30 1940 H 181.346 0.129369 0.816819 0
M  V30 1941 H 183.892 0.973653 1.3899 0
M  V30 1942 H 182.664 1.96489 3.3839 0
M  V30 1943 H 182.287 0.349741 3.96059 0
M  V30 1944 N 183.284 -1.43765 0.645699 0
M  V30 1945 C 184.532 -2.01499 0.155731 0
M  V30 1946 C 184.853 -1.51151 -1.232 0
M  V30 1947 O 184.123 -0.721044 -1.82148 0
M  V30 1948 H 182.703 -0.745003 0.0545817 0
M  V30 1949 H 185.365 -1.76075 0.835677 0
M  V30 1950 H 184.461 -3.1181 0.134577 0
M  V30 1951 N 184.763 -0.387143 -1.52771 0
M  V30 1952 C 186.01 0.195735 -2.01552 0
M  V30 1953 C 186.338 1.46995 -1.27369 0
M  V30 1954 O 185.593 1.92325 -0.361879 0
M  V30 1955 C 185.892 0.512209 -3.53711 0
M  V30 1956 C 185.558 -0.670202 -4.45891 0
M  V30 1957 C 184.22 -0.994586 -4.70809 0
M  V30 1958 C 186.572 -1.46134 -5.00294 0
M  V30 1959 C 183.9 -2.11169 -5.4738 0
M  V30 1960 C 186.252 -2.56903 -5.78086 0
M  V30 1961 C 184.916 -2.89852 -6.01284 0
M  V30 1962 H 184.186 0.0716246 -0.73753 0
M  V30 1963 H 186.833 -0.524046 -1.8419 0
M  V30 1964 H 185.138 1.31329 -3.69134 0
M  V30 1965 H 186.835 0.975804 -3.88946 0
M  V30 1966 H 183.425 -0.407366 -4.2666 0
M  V30 1967 H 187.609 -1.22397 -4.80971 0
M  V30 1968 H 182.865 -2.3707 -5.63567 0
M  V30 1969 H 187.039 -3.18608 -6.19243 0
M  V30 1970 H 184.666 -3.76533 -6.60399 0
M  V30 1971 N 186.241 1.57166 -0.116904 0
M  V30 1972 C 187.488 1.95123 0.541603 0
M  V30 1973 C 187.816 1.00006 1.6682 0
M  V30 1974 O 187.071 0.0235658 1.95686 0
M  V30 1975 C 187.37 3.39508 1.11664 0
M  V30 1976 C 187.036 4.50762 0.111606 0
M  V30 1977 C 185.698 4.80918 -0.164758 0
M  V30 1978 C 188.05 5.18036 -0.573438 0
M  V30 1979 C 185.378 5.75666 -1.13249 0
M  V30 1980 C 187.73 6.13824 -1.52978 0
M  V30 1981 C 186.394 6.42374 -1.81415 0
M  V30 1982 H 185.664 0.714005 0.198187 0
M  V30 1983 H 188.311 1.9048 -0.197365 0
M  V30 1984 H 186.616 3.40835 1.93232 0
M  V30 1985 H 188.313 3.66189 1.63422 0
M  V30 1986 H 184.903 4.27272 0.337192 0
M  V30 1987 H 189.087 4.94896 -0.373092 0
M  V30 1988 H 184.343 5.96092 -1.35958 0
M  V30 1989 H 188.517 6.65039 -2.06629 0
M  V30 1990 H 186.144 7.15599 -2.56557 0
M  V30 1991 N 187.719 -0.156864 1.56817 0
M  V30 1992 C 188.966 -0.871125 1.82805 0
M  V30 1993 C 189.294 -1.81611 0.696262 0
M  V30 1994 O 188.549 -1.93141 -0.315459 0
M  V30 1995 C 188.848 -1.68737 3.1506 0
M  V30 1996 C 188.514 -0.890045 4.42028 0
M  V30 1997 C 187.176 -0.670042 4.76512 0
M  V30 1998 C 189.528 -0.331769 5.20143 0
M  V30 1999 C 186.856 0.119104 5.86579 0
M  V30 2000 C 189.208 0.444365 6.31037 0
M  V30 2001 C 187.872 0.675035 6.64078 0
M  V30 2002 H 187.142 -0.318767 0.668931 0
M  V30 2003 H 189.789 -0.135274 1.91022 0
M  V30 2004 H 188.094 -2.49304 3.0225 0
M  V30 2005 H 189.791 -2.24331 3.3238 0
M  V30 2006 H 186.381 -1.07157 4.14988 0
M  V30 2007 H 190.565 -0.489043 4.93885 0
M  V30 2008 H 185.821 0.307417 6.10627 0
M  V30 2009 H 189.995 0.884139 6.90765 0
M  V30 2010 H 187.622 1.28839 7.49203 0
M  V30 2011 N 189.197 -1.51736 -0.425897 0
M  V30 2012 C 190.443 -1.65214 -1.1761 0
M  V30 2013 C 190.776 -0.372778 -1.90589 0
M  V30 2014 O 190.051 0.628139 -1.84078 0
M  V30 2015 C 190.334 -2.86312 -2.18398 0
M  V30 2016 C 190.187 -4.24254 -1.49426 0
M  V30 2017 C 191.506 -3.02925 -3.19256 0
M  V30 2018 H 188.625 -0.601263 -0.426206 0
M  V30 2019 H 191.267 -1.8425 -0.463882 0
M  V30 2020 H 189.417 -2.70213 -2.79137 0
M  V30 2021 H 191.089 -4.52046 -0.919362 0
M  V30 2022 H 189.332 -4.26426 -0.796432 0
M  V30 2023 H 190.003 -5.05001 -2.22885 0
M  V30 2024 H 192.479 -3.1781 -2.68581 0
M  V30 2025 H 191.355 -3.89199 -3.8706 0
M  V30 2026 H 191.616 -2.15497 -3.86023 0
M  V30 2027 N 190.675 0.682077 -1.42076 0
M  V30 2028 C 191.921 1.44428 -1.42367 0
M  V30 2029 C 192.254 1.94164 -0.0373056 0
M  V30 2030 O 191.529 1.70429 0.937239 0
M  V30 2031 C 191.812 2.64654 -2.44194 0
M  V30 2032 C 191.665 2.20596 -3.91991 0
M  V30 2033 C 192.984 3.66865 -2.431 0
M  V30 2034 H 190.103 0.523834 -0.518428 0
M  V30 2035 H 192.745 0.77576 -1.73442 0
M  V30 2036 H 190.895 3.2169 -2.17826 0
M  V30 2037 H 192.567 1.68783 -4.29313 0
M  V30 2038 H 190.81 1.52242 -4.06208 0
M  V30 2039 H 191.481 3.06921 -4.58807 0
M  V30 2040 H 193.957 3.19531 -2.66532 0
M  V30 2041 H 192.833 4.48577 -3.16339 0
M  V30 2042 H 193.094 4.17493 -1.45437 0
M  V30 2043 N 192.153 1.28127 0.917671 0
M  V30 2044 C 193.101 1.11569 2.04096 0
M  V30 2045 C 194.095 0.0360242 1.69362 0
M  V30 2046 O 195.301 0.194501 1.78946 0
M  V30 2047 H 191.676 0.344097 0.668656 0
M  V30 2048 H 193.647 2.06711 2.15205 0
M  V30 2049 C 192.396 0.790197 3.38602 0
M  V30 2050 H 191.719 1.61293 3.6582 0
M  V30 2051 H 193.159 0.714271 4.1794 0
M  V30 2052 C 191.618 -0.505897 3.3308 0
M  V30 2053 O 192.148 -1.53736 3.71117 0
M  V30 2054 N 190.354 -0.505193 2.86175 0
M  V30 2055 H 189.901 0.334621 2.55417 0
M  V30 2056 H 189.859 -1.37243 2.82863 0
M  V30 2057 N 193.631 -1.12557 1.10312 0
M  V30 2058 C 194.561 -2.20341 0.772798 0
M  V30 2059 C 195.542 -1.68198 -0.25365 0
M  V30 2060 O 196.727 -1.93831 -0.119699 0
M  V30 2061 C 193.857 -3.46709 0.202443 0
M  V30 2062 C 192.811 -4.11996 1.15943 0
M  V30 2063 C 192.137 -5.328 0.450345 0
M  V30 2064 C 193.437 -4.5828 2.50552 0
M  V30 2065 H 195.131 -2.48229 1.674 0
M  V30 2066 H 192.677 -1.19308 0.806326 0
M  V30 2067 H 194.63 -4.2138 -0.0407752 0
M  V30 2068 H 193.354 -3.18245 -0.734001 0
M  V30 2069 H 192.013 -3.39305 1.38808 0
M  V30 2070 H 191.661 -5.00602 -0.490531 0
M  V30 2071 H 191.361 -5.7743 1.08851 0
M  V30 2072 H 192.885 -6.10219 0.215642 0
M  V30 2073 H 194.299 -5.2433 2.31843 0
M  V30 2074 H 192.696 -5.13683 3.10242 0
M  V30 2075 H 193.766 -3.72329 3.10643 0
M  V30 2076 N 195.109 -0.891671 -1.2995 0
M  V30 2077 C 196.019 -0.367691 -2.31701 0
M  V30 2078 C 197.035 0.533486 -1.6562 0
M  V30 2079 O 198.211 0.424997 -1.96865 0
M  V30 2080 C 195.276 0.403406 -3.44345 0
M  V30 2081 C 194.337 -0.528328 -4.26037 0
M  V30 2082 C 193.57 0.206063 -5.33302 0
M  V30 2083 O 193.793 1.43119 -5.52153 0
M  V30 2084 O 192.727 -0.447281 -6.00236 0
M  V30 2085 H 196.553 -1.21163 -2.78484 0
M  V30 2086 H 194.138 -0.655725 -1.34241 0
M  V30 2087 H 196.02 0.839753 -4.12948 0
M  V30 2088 H 194.695 1.22354 -2.99685 0
M  V30 2089 H 193.602 -1.01362 -3.60106 0
M  V30 2090 H 194.935 -1.31465 -4.74318 0
M  V30 2091 N 196.587 1.43421 -0.653314 0
M  V30 2092 C 197.835 2.01414 -0.166415 0
M  V30 2093 C 198.156 1.51803 1.22397 0
M  V30 2094 O 197.426 0.730693 1.81763 0
M  V30 2095 H 196.006 0.744703 -0.0585319 0
M  V30 2096 H 198.668 1.75629 -0.845003 0
M  V30 2097 H 197.764 3.11734 -0.151111 0
M  V30 2098 N 198.065 0.39524 1.52563 0
M  V30 2099 C 199.013 -0.451859 2.28169 0
M  V30 2100 C 200.007 -1.05792 1.32304 0
M  V30 2101 O 201.213 -0.997718 1.49818 0
M  V30 2102 H 197.588 -0.164481 0.733792 0
M  V30 2103 H 199.559 0.207199 2.9768 0
M  V30 2104 C 198.308 -1.56385 3.10546 0
M  V30 2105 H 197.631 -1.10682 3.84174 0
M  V30 2106 H 199.071 -2.13067 3.66577 0
M  V30 2107 C 197.53 -2.52328 2.23231 0
M  V30 2108 O 198.06 -3.5588 1.86312 0
M  V30 2109 N 196.266 -2.22209 1.87274 0
M  V30 2110 H 195.813 -1.38033 2.17496 0
M  V30 2111 H 195.771 -2.86652 1.29143 0
M  V30 2112 N 199.544 -1.57102 0.125237 0
M  V30 2113 C 200.79 -1.95697 -0.532035 0
M  V30 2114 C 201.123 -1.009 -1.6593 0
M  V30 2115 O 200.398 -0.047347 -1.94442 0
M  V30 2116 C 200.681 -3.44181 -1.05884 0
M  V30 2117 C 200.534 -4.49752 0.0654392 0
M  V30 2118 C 201.853 -3.94655 -1.9477 0
M  V30 2119 H 198.972 -0.711571 -0.191925 0
M  V30 2120 H 201.614 -1.88923 0.20206 0
M  V30 2121 H 199.764 -3.50085 -1.68442 0
M  V30 2122 H 201.436 -4.55943 0.700982 0
M  V30 2123 H 199.679 -4.27653 0.727709 0
M  V30 2124 H 200.35 -5.50924 -0.344505 0
M  V30 2125 H 202.826 -3.91094 -1.42074 0
M  V30 2126 H 201.702 -4.99057 -2.28546 0
M  V30 2127 H 201.963 -3.35718 -2.87656 0
M  V30 2128 N 201.022 0.148545 -1.56898 0
M  V30 2129 C 202.268 0.862694 -1.83536 0
M  V30 2130 C 202.601 1.80889 -0.706604 0
M  V30 2131 O 201.876 1.92328 0.289885 0
M  V30 2132 C 202.159 1.63853 -3.20662 0
M  V30 2133 C 202.012 0.713925 -4.44098 0
M  V30 2134 C 203.331 2.60133 -3.54991 0
M  V30 2135 H 200.45 0.312179 -0.667618 0
M  V30 2136 H 203.092 0.127953 -1.89569 0
M  V30 2137 H 201.242 2.26489 -3.1565 0
M  V30 2138 H 202.914 0.098686 -4.61194 0
M  V30 2139 H 201.157 0.0234019 -4.33794 0
M  V30 2140 H 201.828 1.29278 -5.36648 0
M  V30 2141 H 204.304 2.07616 -3.60603 0
M  V30 2142 H 203.18 3.11468 -4.51972 0
M  V30 2143 H 203.441 3.41417 -2.80868 0
M  V30 2144 N 202.5 1.5196 0.417844 0
M  V30 2145 C 203.747 1.65591 1.16559 0
M  V30 2146 C 204.075 0.381565 1.90721 0
M  V30 2147 O 203.33 -0.635156 1.85106 0
M  V30 2148 C 203.629 2.82269 2.19223 0
M  V30 2149 C 203.295 4.20819 1.61933 0
M  V30 2150 C 201.957 4.58506 1.46033 0
M  V30 2151 C 204.309 5.07196 1.20008 0
M  V30 2152 C 201.637 5.80257 0.867113 0
M  V30 2153 C 203.989 6.29544 0.621086 0
M  V30 2154 C 202.653 6.65987 0.449144 0
M  V30 2155 H 201.923 0.605939 0.42652 0
M  V30 2156 H 204.57 1.86041 0.45397 0
M  V30 2157 H 202.875 2.56118 2.96498 0
M  V30 2158 H 204.572 2.90012 2.76936 0
M  V30 2159 H 201.162 3.91116 1.7529 0
M  V30 2160 H 205.346 4.7867 1.31105 0
M  V30 2161 H 200.602 6.07124 0.721833 0
M  V30 2162 H 204.776 6.95805 0.287798 0
M  V30 2163 H 202.403 7.60199 -0.012632 0
M  V30 2164 N 203.978 -0.674533 1.42435 0
M  V30 2165 C 205.224 -1.43671 1.43131 0
M  V30 2166 C 205.557 -1.94142 0.0476021 0
M  V30 2167 O 204.832 -1.70924 -0.928188 0
M  V30 2168 C 205.115 -2.63355 2.45594 0
M  V30 2169 C 204.968 -2.18514 3.93156 0
M  V30 2170 C 206.287 -3.65571 2.45043 0
M  V30 2171 H 203.406 -0.521077 0.521198 0
M  V30 2172 H 206.048 -0.766551 1.7385 0
M  V30 2173 H 204.198 -3.2053 2.19528 0
M  V30 2174 H 205.87 -1.66504 4.30202 0
M  V30 2175 H 204.113 -1.50086 4.07009 0
M  V30 2176 H 204.784 -3.04484 4.60428 0
M  V30 2177 H 207.26 -3.18113 2.68223 0
M  V30 2178 H 206.136 -4.46893 3.18713 0
M  V30 2179 H 206.397 -4.16716 1.47649 0
M  V30 2180 N 205.456 -1.28612 -0.910864 0
M  V30 2181 C 206.681 -1.1891 -1.69927 0
M  V30 2182 C 207.106 0.248372 -1.86453 0
M  V30 2183 O 206.464 1.17961 -1.37676 0
M  V30 2184 C 206.512 -1.89578 -3.06745 0
M  V30 2185 O 205.616 -1.20521 -3.94396 0
M  V30 2186 H 204.957 -0.412632 -0.520222 0
M  V30 2187 H 207.487 -1.69985 -1.1387 0
M  V30 2188 H 207.497 -1.97597 -3.56958 0
M  V30 2189 H 206.172 -2.94136 -2.94035 0
M  V30 2190 H 204.749 -1.20684 -3.52831 0
M  V30 2191 N 206.934 1.1197 -1.10907 0
M  V30 2192 C 207.844 2.21433 -0.774896 0
M  V30 2193 C 208.86 1.72478 0.229657 0
M  V30 2194 O 210.036 2.01288 0.0672008 0
M  V30 2195 C 207.101 3.4602 -0.216986 0
M  V30 2196 C 206.162 4.09791 -1.27944 0
M  V30 2197 C 205.395 5.28431 -0.748055 0
M  V30 2198 O 205.618 5.68823 0.423833 0
M  V30 2199 O 204.552 5.82644 -1.51027 0
M  V30 2200 H 208.378 2.5242 -1.68873 0
M  V30 2201 H 205.963 1.20399 -0.884555 0
M  V30 2202 H 207.845 4.21304 0.090059 0
M  V30 2203 H 206.52 3.16698 0.669633 0
M  V30 2204 H 205.427 3.36265 -1.63941 0
M  V30 2205 H 206.76 4.4328 -2.13925 0
M  V30 2206 N 208.412 0.89855 1.29475 0
M  V30 2207 C 209.36 0.365253 2.29714 0
M  V30 2208 C 210.354 -0.534993 1.6073 0
M  V30 2209 O 211.56 -0.417921 1.75081 0
M  V30 2210 H 207.935 0.0994853 0.74539 0
M  V30 2211 H 209.906 1.22406 2.72138 0
M  V30 2212 C 208.655 -0.393159 3.4547 0
M  V30 2213 H 207.978 0.290332 3.98744 0
M  V30 2214 H 209.418 -0.731189 4.17648 0
M  V30 2215 C 207.877 -1.59539 2.9673 0
M  V30 2216 O 208.407 -2.69469 2.97908 0
M  V30 2217 N 206.613 -1.43716 2.52575 0
M  V30 2218 H 206.16 -0.542828 2.51816 0
M  V30 2219 H 206.118 -2.24288 2.20323 0
M  V30 2220 N 209.89 -1.43072 0.660911 0
M  V30 2221 C 211.136 -2.0202 0.177708 0
M  V30 2222 C 211.469 -1.52066 -1.20787 0
M  V30 2223 O 210.744 -0.716987 -1.80802 0
M  V30 2224 C 211.027 -3.59561 0.197019 0
M  V30 2225 C 210.88 -4.19727 1.61706 0
M  V30 2226 C 212.199 -4.37664 -0.462396 0
M  V30 2227 H 209.318 -0.734034 0.0660494 0
M  V30 2228 H 211.96 -1.70272 0.843058 0
M  V30 2229 H 210.11 -3.86739 -0.369527 0
M  V30 2230 H 211.782 -4.03553 2.23479 0
M  V30 2231 H 210.025 -3.76084 2.16201 0
M  V30 2232 H 210.696 -5.28834 1.58237 0
M  V30 2233 H 213.172 -4.16095 0.0197215 0
M  V30 2234 H 212.048 -5.47305 -0.418188 0
M  V30 2235 H 212.309 -4.14493 -1.53778 0
M  V30 2236 N 211.368 -0.403325 -1.52352 0
M  V30 2237 C 212.596 0.174012 -2.06167 0
M  V30 2238 C 213.011 1.39347 -1.27388 0
M  V30 2239 O 212.368 1.79597 -0.324201 0
M  V30 2240 C 212.419 0.530223 -3.5759 0
M  V30 2241 O 212.14 -0.640806 -4.33388 0
M  V30 2242 C 213.641 1.16192 -4.27802 0
M  V30 2243 H 210.861 0.0229464 -0.670608 0
M  V30 2244 H 213.405 -0.572604 -1.9632 0
M  V30 2245 H 211.56 1.22673 -3.67464 0
M  V30 2246 H 211.974 -0.344851 -5.23365 0
M  V30 2247 H 213.448 1.36141 -5.34948 0
M  V30 2248 H 213.925 2.13335 -3.83907 0
M  V30 2249 H 214.531 0.505775 -4.22282 0
M  V30 2250 N 212.846 1.57033 -0.133567 0
M  V30 2251 C 213.778 2.13176 0.841944 0
M  V30 2252 C 214.791 1.07794 1.22001 0
M  V30 2253 O 215.98 1.35117 1.16643 0
M  V30 2254 C 213.08 2.62847 2.13926 0
M  V30 2255 C 212.253 3.92486 1.93064 0
M  V30 2256 C 211.312 4.27605 3.0666 0
M  V30 2257 O 210.338 4.96168 2.78937 0
M  V30 2258 N 211.54 3.861 4.33483 0
M  V30 2259 H 214.305 2.97503 0.362192 0
M  V30 2260 H 211.866 1.61821 0.05042 0
M  V30 2261 H 213.858 2.83363 2.88942 0
M  V30 2262 H 212.428 1.83319 2.53205 0
M  V30 2263 H 211.648 3.80732 1.02159 0
M  V30 2264 H 212.936 4.77225 1.76447 0
M  V30 2265 H 212.334 3.30828 4.58878 0
M  V30 2266 H 210.891 4.11694 5.05323 0
M  V30 2267 N 214.325 -0.140222 1.56975 0
M  V30 2268 C 215.555 -0.865181 1.87612 0
M  V30 2269 C 215.963 -1.74942 0.72055 0
M  V30 2270 O 215.306 -1.80917 -0.318561 0
M  V30 2271 C 215.368 -1.76782 3.13031 0
M  V30 2272 C 215.032 -1.06005 4.44536 0
M  V30 2273 C 216.029 -0.410768 5.18275 0
M  V30 2274 C 213.714 -1.04754 4.91255 0
M  V30 2275 C 215.708 0.241572 6.36942 0
M  V30 2276 C 213.395 -0.391394 6.09845 0
M  V30 2277 C 214.393 0.252029 6.82535 0
M  V30 2278 O 214.081 0.897757 7.98871 0
M  V30 2279 H 213.813 -0.255188 0.625983 0
M  V30 2280 H 216.367 -0.135653 2.04952 0
M  V30 2281 H 214.597 -2.53846 2.91718 0
M  V30 2282 H 216.286 -2.36533 3.29859 0
M  V30 2283 H 217.052 -0.412195 4.83245 0
M  V30 2284 H 212.931 -1.53777 4.34596 0
M  V30 2285 H 216.475 0.744375 6.93617 0
M  V30 2286 H 212.372 -0.387656 6.44335 0
M  V30 2287 H 213.14 0.800102 8.1458 0
M  V30 2288 N 215.803 -1.52179 -0.40978 0
M  V30 2289 C 216.733 -1.78435 -1.5061 0
M  V30 2290 C 217.714 -0.635295 -1.57791 0
M  V30 2291 O 218.899 -0.880823 -1.73076 0
M  V30 2292 C 216.029 -1.93444 -2.88439 0
M  V30 2293 C 214.983 -3.09038 -2.96108 0
M  V30 2294 C 214.309 -3.09268 -4.36185 0
M  V30 2295 C 215.609 -4.48508 -2.67652 0
M  V30 2296 H 217.303 -2.70237 -1.28889 0
M  V30 2297 H 214.849 -1.30036 -0.618605 0
M  V30 2298 H 216.802 -2.10394 -3.65119 0
M  V30 2299 H 215.526 -0.983129 -3.11452 0
M  V30 2300 H 214.185 -2.91837 -2.21872 0
M  V30 2301 H 213.833 -2.11861 -4.56206 0
M  V30 2302 H 213.533 -3.86907 -4.42241 0
M  V30 2303 H 215.057 -3.28348 -5.14801 0
M  V30 2304 H 216.471 -4.65918 -3.34056 0
M  V30 2305 H 214.868 -5.28059 -2.85085 0
M  V30 2306 H 215.938 -4.56649 -1.63095 0
M  V30 2307 N 217.281 0.66697 -1.42791 0
M  V30 2308 C 218.697 0.981027 -1.25889 0
M  V30 2309 C 218.897 2.00793 -0.168695 0
M  V30 2310 O 217.953 2.48321 0.45747 0
M  V30 2311 C 219.266 1.47838 -2.61848 0
M  V30 2312 C 220.814 1.59575 -2.69267 0
M  V30 2313 C 221.289 2.12704 -4.05612 0
M  V30 2314 N 222.78 2.20026 -4.07606 0
M  V30 2315 C 223.515 2.62227 -5.09926 0
M  V30 2316 N 223.011 3.03824 -6.22626 0
M  V30 2317 N 224.804 2.62045 -4.97281 0
M  V30 2318 H 216.955 -0.0127891 -2.12396 0
M  V30 2319 H 219.218 0.0568258 -0.946295 0
M  V30 2320 H 218.924 0.798299 -3.4252 0
M  V30 2321 H 218.798 2.45579 -2.86305 0
M  V30 2322 H 221.185 2.26687 -1.88936 0
M  V30 2323 H 221.266 0.60302 -2.48591 0
M  V30 2324 H 220.91 1.46198 -4.86404 0
M  V30 2325 H 220.84 3.12782 -4.23645 0
M  V30 2326 H 223.331 1.90708 -3.2625 0
M  V30 2327 H 223.644 3.34734 -6.96544 0
M  V30 2328 H 221.989 3.01662 -6.26119 0
M  V30 2329 H 225.18 2.28916 -4.08308 0
M  V30 2330 H 225.353 2.94613 -5.77154 0
M  V30 2331 N 218.759 1.29093 0.90403 0
M  V30 2332 C 219.989 1.19516 1.68522 0
M  V30 2333 C 220.397 -0.24738 1.87576 0
M  V30 2334 O 219.74 -1.17798 1.40959 0
M  V30 2335 C 219.802 1.83249 3.0929 0
M  V30 2336 C 219.466 3.32531 3.13484 0
M  V30 2337 C 220.463 4.28821 2.93953 0
M  V30 2338 C 218.148 3.73656 3.35688 0
M  V30 2339 C 220.142 5.64212 2.96553 0
M  V30 2340 C 217.829 5.0917 3.37919 0
M  V30 2341 C 218.827 6.04258 3.18373 0
M  V30 2342 O 218.515 7.37298 3.20385 0
M  V30 2343 H 218.247 0.415467 0.533257 0
M  V30 2344 H 220.801 1.70912 1.13922 0
M  V30 2345 H 219.031 1.26358 3.65473 0
M  V30 2346 H 220.72 1.68054 3.69476 0
M  V30 2347 H 221.486 3.98382 2.76616 0
M  V30 2348 H 217.365 3.00101 3.49943 0
M  V30 2349 H 220.909 6.38407 2.81216 0
M  V30 2350 H 216.806 5.39256 3.54787 0
M  V30 2351 H 217.574 7.46048 3.36681 0
M  V30 2352 N 220.237 -1.11381 1.11499 0
M  V30 2353 C 221.185 -2.19522 0.768956 0
M  V30 2354 C 222.179 -1.67693 -0.239857 0
M  V30 2355 O 223.385 -1.79727 -0.0990755 0
M  V30 2356 H 219.76 -0.715711 0.230786 0
M  V30 2357 H 221.731 -2.45954 1.68964 0
M  V30 2358 C 220.48 -3.46945 0.229073 0
M  V30 2359 H 219.803 -3.8718 0.996596 0
M  V30 2360 H 221.243 -4.23993 0.0251441 0
M  V30 2361 C 219.702 -3.2042 -1.04079 0
M  V30 2362 O 220.232 -3.41178 -2.12038 0
M  V30 2363 N 218.438 -2.74151 -0.963823 0
M  V30 2364 H 217.985 -2.57459 -0.0851722 0
M  V30 2365 H 217.943 -2.56781 -1.81414 0
M  V30 2366 N 221.715 -0.905404 -1.28997 0
M  V30 2367 C 222.647 -0.344748 -2.26592 0
M  V30 2368 C 223.66 0.512135 -1.54535 0
M  V30 2369 O 224.849 0.328368 -1.75454 0
M  V30 2370 C 221.949 0.526587 -3.34784 0
M  V30 2371 C 221.122 -0.305871 -4.36329 0
M  V30 2372 C 220.181 0.499209 -5.23827 0
M  V30 2373 O 219.207 -0.0853004 -5.69136 0
M  V30 2374 N 220.409 1.80408 -5.51755 0
M  V30 2375 H 223.174 -1.18359 -2.75338 0
M  V30 2376 H 220.735 -0.770481 -1.42391 0
M  V30 2377 H 222.727 1.07171 -3.90252 0
M  V30 2378 H 221.297 1.26613 -2.85811 0
M  V30 2379 H 220.517 -1.0324 -3.80441 0
M  V30 2380 H 221.805 -0.875773 -5.01206 0
M  V30 2381 H 221.203 2.3016 -5.16762 0
M  V30 2382 H 219.76 2.29621 -6.10014 0
M  V30 2383 N 223.193 1.4272 -0.668489 0
M  V30 2384 C 224.103 2.34596 0.0139753 0
M  V30 2385 C 225.119 1.5474 0.795703 0
M  V30 2386 O 226.295 1.87334 0.739466 0
M  V30 2387 C 223.36 3.33202 0.957982 0
M  V30 2388 C 222.421 4.28957 0.17149 0
M  V30 2389 C 221.654 5.22853 1.07053 0
M  V30 2390 O 221.877 5.21531 2.31001 0
M  V30 2391 O 220.811 5.9952 0.534727 0
M  V30 2392 H 224.637 2.9448 -0.742661 0
M  V30 2393 H 222.222 1.43117 -0.428705 0
M  V30 2394 H 224.104 3.93796 1.50008 0
M  V30 2395 H 222.779 2.758 1.69458 0
M  V30 2396 H 221.686 3.71796 -0.414558 0
M  V30 2397 H 223.019 4.89383 -0.52586 0
M  V30 2398 N 224.671 0.411399 1.52136 0
M  V30 2399 C 225.581 -0.419774 2.30814 0
M  V30 2400 C 226.597 -1.0515 1.38634 0
M  V30 2401 O 227.773 -1.05252 1.71709 0
M  V30 2402 C 224.838 -1.52019 3.11594 0
M  V30 2403 C 223.899 -0.91129 4.19516 0
M  V30 2404 C 223.132 -1.95927 4.96436 0
M  V30 2405 O 223.355 -3.17775 4.73683 0
M  V30 2406 O 222.289 -1.56423 5.81219 0
M  V30 2407 H 226.115 0.221805 3.02889 0
M  V30 2408 H 223.7 0.174547 1.48377 0
M  V30 2409 H 225.582 -2.15898 3.61892 0
M  V30 2410 H 224.257 -2.14633 2.42311 0
M  V30 2411 H 223.164 -0.235157 3.7336 0
M  V30 2412 H 224.497 -0.32904 4.91099 0
M  V30 2413 N 226.149 -1.5696 0.141893 0
M  V30 2414 C 227.079 -2.19516 -0.795936 0
M  V30 2415 C 228.06 -1.14187 -1.26077 0
M  V30 2416 O 229.245 -1.42511 -1.31925 0
M  V30 2417 C 226.375 -2.81272 -2.03723 0
M  V30 2418 C 225.329 -3.92384 -1.70936 0
M  V30 2419 C 224.655 -4.41052 -3.02287 0
M  V30 2420 C 225.955 -5.13403 -0.959954 0
M  V30 2421 H 227.649 -2.98138 -0.274596 0
M  V30 2422 H 225.195 -1.43406 -0.130636 0
M  V30 2423 H 227.148 -3.237 -2.69808 0
M  V30 2424 H 225.872 -1.99973 -2.58221 0
M  V30 2425 H 224.531 -3.50566 -1.07232 0
M  V30 2426 H 224.179 -3.56582 -3.54765 0
M  V30 2427 H 223.879 -5.15993 -2.81114 0
M  V30 2428 H 225.403 -4.86146 -3.69451 0
M  V30 2429 H 226.817 -5.52706 -1.52279 0
M  V30 2430 H 225.214 -5.94073 -0.848357 0
M  V30 2431 H 226.284 -4.84875 0.0492434 0
M  V30 2432 N 227.627 0.131896 -1.57047 0
M  V30 2433 C 228.56 1.19236 -1.94571 0
M  V30 2434 C 229.538 1.40782 -0.813576 0
M  V30 2435 O 230.722 1.55148 -1.07058 0
M  V30 2436 C 227.849 2.54858 -2.23081 0
M  V30 2437 C 226.895 2.49817 -3.45679 0
M  V30 2438 S 227.728 1.95036 -4.98719 0
M  V30 2439 C 228.884 3.32357 -5.30367 0
M  V30 2440 H 229.117 0.872297 -2.84215 0
M  V30 2441 H 226.65 0.338134 -1.50652 0
M  V30 2442 H 228.608 3.32898 -2.40185 0
M  V30 2443 H 227.269 2.84047 -1.34074 0
M  V30 2444 H 226.462 3.49688 -3.62952 0
M  V30 2445 H 226.064 1.79892 -3.27895 0
M  V30 2446 H 228.356 4.28525 -5.2476 0
M  V30 2447 H 229.299 3.19923 -6.31708 0
M  V30 2448 H 229.707 3.3019 -4.57859 0
M  V30 2449 N 229.106 1.52395 0.401703 0
M  V30 2450 C 230.054 1.7689 1.51039 0
M  V30 2451 C 231.048 0.636298 1.56996 0
M  V30 2452 O 232.254 0.818507 1.60314 0
M  V30 2453 H 228.629 0.559502 0.502456 0
M  V30 2454 H 230.6 2.69757 1.27568 0
M  V30 2455 C 229.349 1.94331 2.88324 0
M  V30 2456 H 228.672 2.80905 2.84486 0
M  V30 2457 H 230.112 2.15466 3.65172 0
M  V30 2458 C 228.571 0.712396 3.29282 0
M  V30 2459 O 229.101 -0.116218 4.01532 0
M  V30 2460 N 227.307 0.546154 2.85422 0
M  V30 2461 H 226.854 1.22156 2.26794 0
M  V30 2462 H 226.812 -0.276113 3.13185 0
M  V30 2463 N 230.584 -0.659388 1.43143 0
M  V30 2464 C 231.531 -1.77249 1.47822 0
M  V30 2465 C 232.501 -1.62818 0.328558 0
M  V30 2466 O 233.686 -1.83151 0.534838 0
M  V30 2467 C 230.826 -3.15371 1.40126 0
M  V30 2468 C 229.939 -3.4098 2.65249 0
M  V30 2469 C 229.074 -4.68915 2.49584 0
M  V30 2470 C 228.113 -4.87608 3.70006 0
M  V30 2471 N 227.25 -6.06796 3.53189 0
M  V30 2472 H 232.09 -1.72584 2.42938 0
M  V30 2473 H 229.627 -0.842297 1.20598 0
M  V30 2474 H 231.585 -3.9521 1.33659 0
M  V30 2475 H 230.215 -3.19121 0.485964 0
M  V30 2476 H 229.267 -2.55282 2.8202 0
M  V30 2477 H 230.579 -3.50681 3.54717 0
M  V30 2478 H 229.733 -5.56871 2.4079 0
M  V30 2479 H 228.472 -4.61524 1.5763 0
M  V30 2480 H 227.477 -3.9809 3.79215 0
M  V30 2481 H 228.702 -4.96834 4.62961 0
M  V30 2482 H 226.648 -6.00549 2.63965 0
M  V30 2483 H 226.565 -6.17428 4.36255 0
M  V30 2484 H 227.833 -6.9739 3.48236 0
M  V30 2485 N 232.062 -1.29571 -0.897171 0
M  V30 2486 C 233.287 -1.20705 -1.68656 0
M  V30 2487 C 233.712 0.228582 -1.86706 0
M  V30 2488 O 233.07 1.16494 -1.3892 0
M  V30 2489 C 233.118 -1.9282 -3.04717 0
M  V30 2490 O 232.222 -1.24697 -3.93096 0
M  V30 2491 H 231.563 -0.418126 -0.515816 0
M  V30 2492 H 234.093 -1.71183 -1.12061 0
M  V30 2493 H 234.103 -2.01372 -3.54843 0
M  V30 2494 H 232.778 -2.97239 -2.90899 0
M  V30 2495 H 231.355 -1.2442 -3.51531 0
M  V30 2496 N 233.54 1.10788 -1.12088 0
M  V30 2497 C 234.786 1.82942 -0.875226 0
M  V30 2498 C 235.119 1.84779 0.597538 0
M  V30 2499 O 234.394 1.30578 1.44152 0
M  V30 2500 C 234.677 3.29789 -1.44606 0
M  V30 2501 C 234.53 3.36307 -2.98693 0
M  V30 2502 C 235.849 4.26064 -1.10261 0
M  V30 2503 H 232.968 0.664195 -0.319397 0
M  V30 2504 H 235.61 1.29867 -1.38689 0
M  V30 2505 H 233.76 3.75118 -1.01089 0
M  V30 2506 H 235.432 2.99487 -3.50864 0
M  V30 2507 H 233.675 2.76318 -3.34411 0
M  V30 2508 H 234.346 4.39694 -3.33726 0
M  V30 2509 H 236.822 3.88951 -1.4784 0
M  V30 2510 H 235.698 5.27183 -1.52869 0
M  V30 2511 H 235.959 4.42098 -0.0142953 0
M  V30 2512 N 235.018 0.912232 1.28515 0
M  V30 2513 C 236.248 0.559604 1.98877 0
M  V30 2514 C 236.656 -0.863113 1.68366 0
M  V30 2515 O 235.999 -1.58304 0.931969 0
M  V30 2516 C 236.061 0.68703 3.52874 0
M  V30 2517 C 235.725 2.07901 4.06972 0
M  V30 2518 C 236.722 3.05157 4.20922 0
M  V30 2519 C 234.407 2.39178 4.417 0
M  V30 2520 C 236.401 4.31806 4.68852 0
M  V30 2521 C 234.088 3.66068 4.89324 0
M  V30 2522 C 235.086 4.62195 5.02856 0
M  V30 2523 O 234.774 5.86829 5.49442 0
M  V30 2524 H 234.506 0.212191 0.641834 0
M  V30 2525 H 237.06 1.22712 1.64715 0
M  V30 2526 H 235.29 -0.0375486 3.86682 0
M  V30 2527 H 236.979 0.341727 4.04459 0
M  V30 2528 H 237.745 2.82311 3.94367 0
M  V30 2529 H 233.624 1.65109 4.30418 0
M  V30 2530 H 237.168 5.06842 4.79329 0
M  V30 2531 H 233.065 3.88739 5.15318 0
M  V30 2532 H 233.833 5.89597 5.6773 0
M  V30 2533 N 236.496 -1.42363 0.676048 0
M  V30 2534 C 237.721 -2.06377 0.205705 0
M  V30 2535 C 238.146 -1.50463 -1.12883 0
M  V30 2536 O 237.504 -0.623619 -1.70237 0
M  V30 2537 C 237.552 -3.60277 0.152655 0
M  V30 2538 O 236.656 -4.02935 -0.87845 0
M  V30 2539 H 235.997 -0.655588 0.105359 0
M  V30 2540 H 238.527 -1.82475 0.925412 0
M  V30 2541 H 238.537 -4.07993 -0.0230675 0
M  V30 2542 H 237.212 -4.00346 1.12675 0
M  V30 2543 H 235.789 -3.66764 -0.673668 0
M  V30 2544 N 237.974 -0.419461 -1.51915 0
M  V30 2545 C 239.223 0.154346 -2.01109 0
M  V30 2546 C 239.536 1.45338 -1.30905 0
M  V30 2547 O 240.742 2.10906 -1.7097 0
M  V30 2548 C 239.198 0.325615 -3.58424 0
M  V30 2549 C 238.806 -0.961934 -4.37551 0
M  V30 2550 C 240.55 0.854155 -4.15818 0
M  V30 2551 C 238.457 -0.757287 -5.86531 0
M  V30 2552 H 237.387 0.0614563 -0.751491 0
M  V30 2553 H 240.038 -0.54649 -1.75173 0
M  V30 2554 H 238.42 1.08903 -3.80731 0
M  V30 2555 H 239.594 -1.7323 -4.26999 0
M  V30 2556 H 237.909 -1.41766 -3.91524 0
M  V30 2557 H 240.506 1.02346 -5.24814 0
M  V30 2558 H 240.849 1.83172 -3.73837 0
M  V30 2559 H 241.382 0.149528 -3.97519 0
M  V30 2560 H 238.121 -1.70671 -6.32892 0
M  V30 2561 H 237.641 -0.0264061 -5.99794 0
M  V30 2562 H 239.32 -0.403482 -6.45741 0
M  V30 2563 N 239.452 1.56882 -0.150215 0
M  V30 2564 C 240.382 2.19935 0.784284 0
M  V30 2565 C 241.363 1.14854 1.25469 0
M  V30 2566 O 242.548 1.43209 1.31168 0
M  V30 2567 C 239.678 2.82349 2.02229 0
M  V30 2568 C 238.632 3.93285 1.68853 0
M  V30 2569 C 237.958 4.42649 2.99944 0
M  V30 2570 C 239.258 5.13904 0.932714 0
M  V30 2571 H 240.952 2.9828 0.258781 0
M  V30 2572 H 238.498 1.43473 0.123029 0
M  V30 2573 H 240.451 3.25126 2.68088 0
M  V30 2574 H 239.175 2.0134 2.57157 0
M  V30 2575 H 237.834 3.5113 1.05371 0
M  V30 2576 H 237.482 3.58458 3.52869 0
M  V30 2577 H 237.182 5.17476 2.78374 0
M  V30 2578 H 238.706 4.88099 3.66868 0
M  V30 2579 H 240.12 5.53506 1.49345 0
M  V30 2580 H 238.517 5.94515 0.81684 0
M  V30 2581 H 239.587 4.84842 -0.0749568 0
M  V30 2582 N 240.93 -0.123565 1.57115 0
M  V30 2583 C 241.88 -1.1575 1.96433 0
M  V30 2584 C 242.864 -1.37313 0.838686 0
M  V30 2585 O 244.056 -1.38482 1.10235 0
M  V30 2586 C 241.185 -2.48526 2.36833 0
M  V30 2587 C 240.271 -2.30457 3.5602 0
M  V30 2588 N 240.662 -1.8219 4.71848 0
M  V30 2589 C 238.96 -2.61129 3.61563 0
M  V30 2590 C 239.661 -1.77721 5.53886 0
M  V30 2591 N 238.637 -2.21899 4.96248 0
M  V30 2592 H 242.439 -0.776797 2.83449 0
M  V30 2593 H 239.953 -0.331364 1.58983 0
M  V30 2594 H 241.95 -3.233 2.63216 0
M  V30 2595 H 240.61 -2.87358 1.5118 0
M  V30 2596 H 241.621 -1.51805 4.95152 0
M  V30 2597 H 238.298 -3.03678 2.86507 0
M  V30 2598 H 239.688 -1.41697 6.56789 0
M  V30 2599 N 242.408 -1.52605 -0.393616 0
M  V30 2600 C 243.654 -1.67672 -1.14079 0
M  V30 2601 C 243.987 -0.413121 -1.89755 0
M  V30 2602 O 243.262 0.588952 -1.85369 0
M  V30 2603 C 243.545 -2.9088 -2.12276 0
M  V30 2604 C 243.398 -4.27329 -1.40394 0
M  V30 2605 C 244.717 -3.09628 -3.12759 0
M  V30 2606 H 241.836 -0.610168 -0.413356 0
M  V30 2607 H 244.478 -1.85193 -0.424696 0
M  V30 2608 H 242.628 -2.76073 -2.73342 0
M  V30 2609 H 244.3 -4.53894 -0.82327 0
M  V30 2610 H 242.543 -4.2802 -0.705801 0
M  V30 2611 H 243.214 -5.09615 -2.12123 0
M  V30 2612 H 245.69 -3.23436 -2.61779 0
M  V30 2613 H 244.566 -3.97322 -3.78717 0
M  V30 2614 H 244.827 -2.23637 -3.81365 0
M  V30 2615 N 243.887 0.651787 -1.4349 0
M  V30 2616 C 245.135 1.40888 -1.44897 0
M  V30 2617 C 245.456 1.94856 -0.0749086 0
M  V30 2618 O 244.726 1.74518 0.889956 0
M  V30 2619 H 243.306 0.522887 -0.533478 0
M  V30 2620 H 245.968 0.768609 -1.79104 0
M  V30 2621 H 245.064 2.25052 -2.16236 0
M  V30 2622 N 245.365 1.30045 0.890287 0
M  V30 2623 C 246.642 1.09227 1.62262 0
M  V30 2624 C 247.022 -0.360305 2.08002 0
M  V30 2625 O 246.37 -1.35084 1.84295 0
M  V30 2626 C 246.58 2.08835 2.79623 0
M  V30 2627 C 247.928 2.40266 3.50082 0
M  V30 2628 O 248.952 2.07104 2.89804 0
M  V30 2629 O 247.811 2.96967 4.58773 0
M  V30 2630 H 244.905 0.419132 0.712922 0
M  V30 2631 H 247.451 1.41451 0.937529 0
M  V30 2632 H 246.223 3.06633 2.43089 0
M  V30 2633 H 245.846 1.77397 3.55832 0
M  V30 2634 N 246.843 -1.10192 1.12674 0
M  V30 2635 C 247.793 -2.14754 0.765801 0
M  V30 2636 C 248.777 -1.59154 -0.236409 0
M  V30 2637 O 249.969 -1.76951 -0.0415261 0
M  V30 2638 C 247.098 -3.42563 0.224827 0
M  V30 2639 C 246.184 -4.05091 1.25548 0
M  V30 2640 N 246.575 -4.42287 2.4539 0
M  V30 2641 C 244.873 -4.32186 1.10142 0
M  V30 2642 C 245.574 -4.91441 3.11224 0
M  V30 2643 N 244.55 -4.88405 2.38666 0
M  V30 2644 H 248.352 -2.41309 1.67772 0
M  V30 2645 H 245.866 -1.27339 1.00789 0
M  V30 2646 H 247.863 -4.16868 -0.0519578 0
M  V30 2647 H 246.523 -3.17467 -0.681515 0
M  V30 2648 H 247.534 -4.33902 2.82754 0
M  V30 2649 H 244.211 -4.16735 0.252587 0
M  V30 2650 H 245.601 -5.29749 4.13298 0
M  V30 2651 N 248.321 -0.919034 -1.28029 0
M  V30 2652 C 249.549 -0.570971 -1.98866 0
M  V30 2653 C 249.964 0.848996 -1.68634 0
M  V30 2654 O 249.321 1.56307 -0.942036 0
M  V30 2655 C 249.372 -0.776876 -3.53054 0
M  V30 2656 O 249.093 -2.14097 -3.82222 0
M  V30 2657 C 250.594 -0.436356 -4.41147 0
M  V30 2658 H 247.814 -0.217175 -0.634883 0
M  V30 2659 H 250.358 -1.23368 -1.63097 0
M  V30 2660 H 248.513 -0.161085 -3.87065 0
M  V30 2661 H 248.927 -2.18455 -4.76841 0
M  V30 2662 H 250.401 -0.63117 -5.4838 0
M  V30 2663 H 250.878 0.627686 -4.34692 0
M  V30 2664 H 251.484 -1.02991 -4.12641 0
M  V30 2665 N 249.799 1.42003 -0.683588 0
M  V30 2666 C 250.709 2.34597 -0.0109075 0
M  V30 2667 C 251.725 1.55576 0.779245 0
M  V30 2668 O 252.901 1.88107 0.719555 0
M  V30 2669 C 249.966 3.34199 0.922588 0
M  V30 2670 C 249.027 4.29115 0.125984 0
M  V30 2671 C 248.26 5.23959 1.01502 0
M  V30 2672 O 248.483 5.23952 2.25456 0
M  V30 2673 O 247.417 6.00053 0.47111 0
M  V30 2674 H 251.243 2.93675 -0.773853 0
M  V30 2675 H 248.828 1.42654 -0.443861 0
M  V30 2676 H 250.71 3.95365 1.45823 0
M  V30 2677 H 249.385 2.77582 1.66523 0
M  V30 2678 H 248.292 3.71335 -0.453969 0
M  V30 2679 H 249.625 4.88798 -0.577736 0
M  V30 2680 N 251.277 0.427512 1.51691 0
M  V30 2681 C 252.524 -0.142229 2.02 0
M  V30 2682 C 252.852 -1.43566 1.31221 0
M  V30 2683 O 252.107 -1.91298 0.412744 0
M  V30 2684 C 252.406 -0.418249 3.54944 0
M  V30 2685 C 252.072 0.788187 4.43958 0
M  V30 2686 C 250.734 1.11906 4.68007 0
M  V30 2687 C 253.086 1.59347 4.96244 0
M  V30 2688 C 250.414 2.25608 5.41588 0
M  V30 2689 C 252.766 2.7214 5.71072 0
M  V30 2690 C 251.43 3.05692 5.93387 0
M  V30 2691 H 250.7 -0.0520451 0.73917 0
M  V30 2692 H 253.347 0.572697 1.82736 0
M  V30 2693 H 251.652 -1.21496 3.72486 0
M  V30 2694 H 253.349 -0.872339 3.91397 0
M  V30 2695 H 249.939 0.520344 4.2543 0
M  V30 2696 H 254.123 1.35106 4.77556 0
M  V30 2697 H 249.379 2.51929 5.57083 0
M  V30 2698 H 253.553 3.34914 6.10578 0
M  V30 2699 H 251.18 3.9391 6.50184 0
M  V30 2700 N 252.755 -1.56801 0.158532 0
M  V30 2701 C 254.001 -1.96781 -0.490405 0
M  V30 2702 C 254.334 -1.04397 -1.63753 0
M  V30 2703 O 253.609 -0.0885805 -1.94298 0
M  V30 2704 C 253.892 -3.4635 -0.985594 0
M  V30 2705 C 253.745 -4.49512 0.160824 0
M  V30 2706 C 255.064 -3.98697 -1.86355 0
M  V30 2707 H 252.183 -0.715482 -0.176788 0
M  V30 2708 H 254.825 -1.88451 0.242088 0
M  V30 2709 H 252.975 -3.53579 -1.60978 0
M  V30 2710 H 254.647 -4.54353 0.797537 0
M  V30 2711 H 252.89 -4.26013 0.818256 0
M  V30 2712 H 253.561 -5.51531 -0.227569 0
M  V30 2713 H 256.037 -3.94019 -1.33746 0
M  V30 2714 H 254.913 -5.03792 -2.17909 0
M  V30 2715 H 255.174 -3.41744 -2.8047 0
M  V30 2716 N 254.233 0.115231 -1.57178 0
M  V30 2717 C 255.18 1.14115 -2.00615 0
M  V30 2718 C 256.15 1.40939 -0.878941 0
M  V30 2719 O 257.335 1.52741 -1.14345 0
M  V30 2720 C 254.475 2.46156 -2.4187 0
M  V30 2721 C 253.588 2.26236 -3.68024 0
M  V30 2722 C 252.723 3.51534 -3.98243 0
M  V30 2723 C 251.762 3.26787 -5.17568 0
M  V30 2724 N 250.899 4.44298 -5.43639 0
M  V30 2725 H 255.739 0.763743 -2.88047 0
M  V30 2726 H 253.276 0.365615 -1.42484 0
M  V30 2727 H 255.234 3.23189 -2.63827 0
M  V30 2728 H 253.864 2.81783 -1.57475 0
M  V30 2729 H 252.916 1.40102 -3.5366 0
M  V30 2730 H 254.228 2.03929 -4.55208 0
M  V30 2731 H 253.382 4.36984 -4.20868 0
M  V30 2732 H 252.121 3.76876 -3.09541 0
M  V30 2733 H 251.126 2.39729 -4.94783 0
M  V30 2734 H 252.351 3.02812 -6.0785 0
M  V30 2735 H 250.297 4.69754 -4.57895 0
M  V30 2736 H 250.214 4.25109 -6.25154 0
M  V30 2737 H 251.482 5.3087 -5.70786 0
M  V30 2738 N 255.711 1.52812 0.385517 0
M  V30 2739 C 256.659 1.78482 1.49155 0
M  V30 2740 C 257.653 0.652914 1.56312 0
M  V30 2741 O 258.859 0.835464 1.59436 0
M  V30 2742 H 255.234 0.5648 0.496493 0
M  V30 2743 H 257.205 2.71095 1.24699 0
M  V30 2744 C 255.954 1.97378 2.86247 0
M  V30 2745 H 255.277 2.83907 2.81491 0
M  V30 2746 H 256.717 2.19327 3.62866 0
M  V30 2747 C 255.176 0.74728 3.28508 0
M  V30 2748 O 255.706 -0.0736232 4.01633 0
M  V30 2749 N 253.912 0.576396 2.84826 0
M  V30 2750 H 253.459 1.24555 2.25486 0
M  V30 2751 H 253.417 -0.24288 3.1346 0
M  V30 2752 N 257.189 -0.644168 1.43834 0
M  V30 2753 C 258.119 -1.76814 1.52509 0
M  V30 2754 C 259.1 -1.65823 0.379052 0
M  V30 2755 O 260.285 -1.84781 0.597466 0
M  V30 2756 C 257.415 -3.15288 1.4564 0
M  V30 2757 C 256.369 -3.41053 2.58586 0
M  V30 2758 C 255.695 -4.79421 2.36769 0
M  V30 2759 C 256.995 -3.34902 4.00797 0
M  V30 2760 H 258.689 -1.69812 2.46586 0
M  V30 2761 H 256.235 -0.815542 1.1868 0
M  V30 2762 H 258.188 -3.93681 1.50311 0
M  V30 2763 H 256.912 -3.23043 0.480725 0
M  V30 2764 H 255.571 -2.65035 2.53282 0
M  V30 2765 H 255.219 -4.83863 1.37424 0
M  V30 2766 H 254.919 -4.9762 3.12487 0
M  V30 2767 H 256.443 -5.6006 2.43238 0
M  V30 2768 H 257.857 -4.03218 4.07539 0
M  V30 2769 H 256.254 -3.64637 4.76613 0
M  V30 2770 H 257.324 -2.32928 4.25291 0
M  V30 2771 N 258.668 -1.30515 -0.883378 0
M  V30 2772 C 259.598 -1.19607 -2.00541 0
M  V30 2773 C 260.579 -0.086346 -1.69881 0
M  V30 2774 O 261.764 -0.268654 -1.92333 0
M  V30 2775 C 258.894 -0.888758 -3.35736 0
M  V30 2776 C 257.848 -1.95659 -3.8066 0
M  V30 2777 C 257.174 -1.50224 -5.13164 0
M  V30 2778 C 258.474 -3.36788 -3.99213 0
M  V30 2779 H 260.168 -2.13476 -2.09925 0
M  V30 2780 H 257.714 -1.02775 -1.00863 0
M  V30 2781 H 259.667 -0.799094 -4.13754 0
M  V30 2782 H 258.391 0.0856125 -3.26488 0
M  V30 2783 H 257.05 -2.03591 -3.04871 0
M  V30 2784 H 256.698 -0.516092 -5.00345 0
M  V30 2785 H 256.398 -2.2165 -5.44192 0
M  V30 2786 H 257.922 -1.42639 -5.93706 0
M  V30 2787 H 259.336 -3.31605 -4.67665 0
M  V30 2788 H 257.733 -4.06314 -4.41621 0
M  V30 2789 H 258.803 -3.78561 -3.03017 0
M  V30 2790 N 260.146 1.09593 -1.13257 0
M  V30 2791 C 261.557 1.63229 -0.906274 0
M  V30 2792 C 261.908 1.8811 0.557578 0
M  V30 2793 O 261.033 1.62953 1.42391 0
M  V30 2794 C 261.628 2.96535 -1.63867 0
M  V30 2795 C 260.187 3.47003 -1.45828 0
M  V30 2796 C 259.334 2.2145 -1.66898 0
M  V30 2797 H 262.285 0.92978 -1.28611 0
M  V30 2798 H 262.306 3.64411 -1.09476 0
M  V30 2799 H 261.818 2.78394 -2.70404 0
M  V30 2800 H 259.919 3.70272 -0.415848 0
M  V30 2801 H 260.032 4.24551 -2.2202 0
M  V30 2802 H 258.396 2.30022 -1.09371 0
M  V30 2803 H 259.179 2.0583 -2.74752 0
M  V30 2804 N 261.624 0.925811 1.2754 0
M  V30 2805 C 262.571 0.422045 2.26908 0
M  V30 2806 C 263.541 -0.510029 1.58076 0
M  V30 2807 O 264.726 -0.429599 1.85901 0
M  V30 2808 C 261.866 -0.320837 3.43605 0
M  V30 2809 C 260.979 0.64513 4.27156 0
M  V30 2810 C 260.114 -0.117405 5.3107 0
M  V30 2811 C 259.153 0.841391 6.0629 0
M  V30 2812 N 258.29 0.111604 7.02011 0
M  V30 2813 H 263.13 1.27441 2.69375 0
M  V30 2814 H 260.667 0.639697 1.32462 0
M  V30 2815 H 262.625 -0.76785 4.10073 0
M  V30 2816 H 261.255 -1.13745 3.02096 0
M  V30 2817 H 260.307 1.21067 3.6062 0
M  V30 2818 H 261.619 1.37797 4.79389 0
M  V30 2819 H 260.773 -0.624422 6.03478 0
M  V30 2820 H 259.512 -0.883219 4.79636 0
M  V30 2821 H 258.517 1.35967 5.32722 0
M  V30 2822 H 259.742 1.60696 6.59813 0
M  V30 2823 H 257.688 -0.635999 6.5291 0
M  V30 2824 H 257.605 0.784044 7.51923 0
M  V30 2825 H 258.873 -0.374823 7.78598 0
M  V30 2826 N 263.102 -1.41638 0.69111 0
M  V30 2827 C 264.327 -2.06148 0.227583 0
M  V30 2828 C 264.752 -1.51652 -1.11281 0
M  V30 2829 O 264.11 -0.64164 -1.69566 0
M  V30 2830 C 264.158 -3.60095 0.190858 0
M  V30 2831 O 263.262 -4.03845 -0.835664 0
M  V30 2832 H 262.603 -0.654434 0.112306 0
M  V30 2833 H 265.133 -1.81484 0.944714 0
M  V30 2834 H 265.143 -4.07995 0.020207 0
M  V30 2835 H 263.818 -3.99129 1.16915 0
M  V30 2836 H 262.395 -3.67458 -0.63473 0
M  V30 2837 N 264.58 -0.43555 -1.51462 0
M  V30 2838 C 265.829 0.133007 -2.01261 0
M  V30 2839 C 266.142 1.43942 -1.32439 0
M  V30 2840 O 267.348 2.09081 -1.73198 0
M  V30 2841 C 265.804 0.287581 -3.58749 0
M  V30 2842 C 265.412 -1.00829 -4.36506 0
M  V30 2843 C 267.156 0.810004 -4.167 0
M  V30 2844 C 265.063 -0.819454 -5.85695 0
M  V30 2845 H 263.993 0.0534822 -0.752101 0
M  V30 2846 H 266.644 -0.565038 -1.74584 0
M  V30 2847 H 265.026 1.04859 -3.81865 0
M  V30 2848 H 266.2 -1.77749 -4.25138 0
M  V30 2849 H 264.515 -1.45911 -3.89999 0
M  V30 2850 H 267.112 0.967743 -5.2587 0
M  V30 2851 H 267.455 1.79196 -3.75758 0
M  V30 2852 H 267.988 0.107357 -3.97655 0
M  V30 2853 H 264.727 -1.77374 -6.31046 0
M  V30 2854 H 264.247 -0.0900208 -5.99732 0
M  V30 2855 H 265.926 -0.471949 -6.45276 0
M  V30 2856 N 266.058 1.56714 -0.166846 0
M  V30 2857 C 267.304 1.97039 0.479962 0
M  V30 2858 C 267.637 1.05264 1.63197 0
M  V30 2859 O 266.912 0.0988833 1.94248 0
M  V30 2860 C 267.195 3.46867 0.967212 0
M  V30 2861 C 267.048 4.49421 -0.18466 0
M  V30 2862 C 268.367 3.9968 1.84238 0
M  V30 2863 H 265.486 0.71641 0.172992 0
M  V30 2864 H 268.128 1.8832 -0.252079 0
M  V30 2865 H 266.278 3.54428 1.59101 0
M  V30 2866 H 267.95 4.53924 -0.821621 0
M  V30 2867 H 266.193 4.25573 -0.840837 0
M  V30 2868 H 266.864 5.51644 0.198317 0
M  V30 2869 H 269.34 3.94723 1.31655 0
M  V30 2870 H 268.216 5.04941 2.15234 0
M  V30 2871 H 268.477 3.43226 2.78654 0
M  V30 2872 N 267.536 -0.106894 1.57237 0
M  V30 2873 C 268.484 -1.14944 2.02215 0
M  V30 2874 C 269.478 -1.42167 0.92114 0
M  V30 2875 O 270.684 -1.41987 1.10634 0
M  V30 2876 H 267.059 -0.387841 0.64427 0
M  V30 2877 H 269.03 -0.743683 2.88984 0
M  V30 2878 C 267.779 -2.4647 2.4525 0
M  V30 2879 H 267.102 -2.26363 3.29545 0
M  V30 2880 H 268.542 -3.17948 2.80508 0
M  V30 2881 C 267.001 -3.09921 1.321 0
M  V30 2882 O 267.531 -3.9651 0.643622 0
M  V30 2883 N 265.737 -2.69986 1.07497 0
M  V30 2884 H 265.284 -1.99667 1.62761 0
M  V30 2885 H 265.242 -3.12769 0.319876 0
M  V30 2886 N 269.014 -1.53014 -0.377408 0
M  V30 2887 C 270.262 -1.6829 -1.11906 0
M  V30 2888 C 270.583 -0.431206 -1.90173 0
M  V30 2889 O 269.853 0.554595 -1.87886 0
M  V30 2890 H 268.433 -0.620371 -0.416112 0
M  V30 2891 H 271.095 -1.90167 -0.426893 0
M  V30 2892 H 270.191 -2.53862 -1.8155 0
M  V30 2893 N 270.492 0.636531 -1.44174 0
M  V30 2894 C 271.74 1.39343 -1.46383 0
M  V30 2895 C 272.061 1.94766 -0.0955715 0
M  V30 2896 O 271.331 1.75452 0.871395 0
M  V30 2897 H 269.911 0.517199 -0.538994 0
M  V30 2898 H 272.573 0.74957 -1.7991 0
M  V30 2899 H 271.669 2.22746 -2.18611 0
M  V30 2900 N 271.97 1.30982 0.876444 0
M  V30 2901 C 273.195 1.23373 1.66715 0
M  V30 2902 C 273.62 -0.19885 1.87046 0
M  V30 2903 O 272.978 -1.1427 1.40756 0
M  V30 2904 C 273.026 1.97644 3.01611 0
M  V30 2905 O 272.13 1.30935 3.91062 0
M  V30 2906 H 271.471 0.426279 0.509099 0
M  V30 2907 H 274.001 1.72944 1.09323 0
M  V30 2908 H 274.011 2.06992 3.51594 0
M  V30 2909 H 272.686 3.01829 2.86133 0
M  V30 2910 H 271.263 1.29996 3.49507 0
M  V30 2911 N 273.449 -1.08991 1.13837 0
M  V30 2912 C 274.695 -1.81699 0.91417 0
M  V30 2913 C 275.05 -1.84264 -0.553594 0
M  V30 2914 O 274.343 -1.30313 -1.4046 0
M  V30 2915 C 274.537 -3.27042 1.44147 0
M  V30 2916 C 274.366 -3.38637 2.95897 0
M  V30 2917 C 273.136 -3.50177 3.64286 0
M  V30 2918 C 275.334 -3.30791 3.93804 0
M  V30 2919 N 273.316 -3.50501 5.04006 0
M  V30 2920 C 274.687 -3.38037 5.19741 0
M  V30 2921 C 276.742 -3.14488 3.86007 0
M  V30 2922 C 275.445 -3.30659 6.38793 0
M  V30 2923 C 277.471 -3.08438 5.04599 0
M  V30 2924 C 276.833 -3.1628 6.29402 0
M  V30 2925 H 272.932 -0.678967 0.387979 0
M  V30 2926 H 275.516 -1.30224 1.4474 0
M  V30 2927 H 273.687 -3.76976 0.935091 0
M  V30 2928 H 275.419 -3.87785 1.1578 0
M  V30 2929 H 272.174 -3.53815 3.1482 0
M  V30 2930 H 272.598 -3.54236 5.76928 0
M  V30 2931 H 277.24 -3.07291 2.90399 0
M  V30 2932 H 274.958 -3.36618 7.34652 0
M  V30 2933 H 278.544 -2.96952 5.0031 0
M  V30 2934 H 277.424 -3.1162 7.19627 0
M  V30 2935 N 274.927 -0.932562 -1.27047 0
M  V30 2936 C 276.152 -0.591474 -1.98787 0
M  V30 2937 C 276.577 0.824601 -1.69062 0
M  V30 2938 O 275.935 1.5541 -0.933677 0
M  V30 2939 C 275.983 -0.829808 -3.50922 0
M  V30 2940 O 275.087 0.102266 -4.12273 0
M  V30 2941 H 274.428 -0.227185 -0.623926 0
M  V30 2942 H 276.958 -1.25314 -1.61733 0
M  V30 2943 H 276.968 -0.747292 -4.01098 0
M  V30 2944 H 275.643 -1.86201 -3.7189 0
M  V30 2945 H 274.22 -0.0305761 -3.72887 0
M  V30 2946 N 276.405 1.4127 -0.698611 0
M  V30 2947 C 277.653 2.00782 -0.230409 0
M  V30 2948 C 277.974 1.5562 1.17505 0
M  V30 2949 O 277.244 0.78815 1.79346 0
M  V30 2950 H 275.824 0.742464 -0.0821944 0
M  V30 2951 H 278.486 1.72852 -0.90045 0
M  V30 2952 H 277.582 3.11095 -0.25021 0
M  V30 2953 N 277.883 0.443576 1.51229 0
M  V30 2954 C 278.793 -0.370721 2.31652 0
M  V30 2955 C 279.809 -1.02186 1.40833 0
M  V30 2956 O 280.985 -1.01586 1.73903 0
M  V30 2957 C 278.05 -1.45376 3.14749 0
M  V30 2958 C 277.111 -0.822099 4.21355 0
M  V30 2959 C 276.344 -1.85353 5.0048 0
M  V30 2960 O 276.567 -3.07656 4.80316 0
M  V30 2961 O 275.501 -1.4406 5.84406 0
M  V30 2962 H 279.327 0.286002 3.0235 0
M  V30 2963 H 276.912 0.20598 1.47973 0
M  V30 2964 H 278.794 -2.08173 3.66391 0
M  V30 2965 H 277.469 -2.09445 2.46809 0
M  V30 2966 H 276.376 -0.155909 3.73775 0
M  V30 2967 H 277.709 -0.224797 4.91686 0
M  V30 2968 N 279.361 -1.56624 0.175154 0
M  V30 2969 C 280.772 -1.83561 -0.340916 0
M  V30 2970 C 281.123 -1.09511 -1.62794 0
M  V30 2971 O 280.248 -0.349389 -2.13561 0
M  V30 2972 C 280.843 -3.32979 -0.625313 0
M  V30 2973 C 279.402 -3.60399 -1.08581 0
M  V30 2974 C 278.549 -2.77024 -0.123722 0
M  V30 2975 H 281.5 -1.53593 0.399344 0
M  V30 2976 H 281.521 -3.50666 -1.47694 0
M  V30 2977 H 281.033 -3.86847 0.311575 0
M  V30 2978 H 279.134 -3.11945 -2.03767 0
M  V30 2979 H 279.247 -4.68711 -0.992317 0
M  V30 2980 H 277.611 -2.46993 -0.621821 0
M  V30 2981 H 278.394 -3.33674 0.807256 0
M  V30 2982 N 280.839 0.0985539 -1.57292 0
M  V30 2983 C 282.25 0.653457 -1.74891 0
M  V30 2984 C 282.601 1.7929 -0.796838 0
M  V30 2985 O 281.726 2.16385 0.0254886 0
M  V30 2986 C 282.321 1.19216 -3.17133 0
M  V30 2987 C 280.88 1.69316 -3.36168 0
M  V30 2988 C 280.027 0.601294 -2.70702 0
M  V30 2989 H 282.978 -0.127497 -1.58187 0
M  V30 2990 H 282.999 2.06154 -3.19814 0
M  V30 2991 H 282.511 0.362635 -3.86402 0
M  V30 2992 H 280.612 2.5468 -2.71972 0
M  V30 2993 H 280.725 1.78853 -4.44464 0
M  V30 2994 H 279.089 1.0399 -2.32504 0
M  V30 2995 H 279.872 -0.217592 -3.4261 0
M  V30 2996 N 282.317 1.53212 0.369288 0
M  V30 2997 C 283.733 1.42902 0.710712 0
M  V30 2998 C 283.933 0.565135 1.93413 0
M  V30 2999 O 282.989 0.0461484 2.52458 0
M  V30 3000 C 284.302 2.86042 0.927382 0
M  V30 3001 C 285.85 2.9565 1.02762 0
M  V30 3002 C 286.325 4.39843 1.27679 0
M  V30 3003 N 287.816 4.43256 1.34457 0
M  V30 3004 C 288.551 5.51929 1.55439 0
M  V30 3005 N 288.047 6.70655 1.73762 0
M  V30 3006 N 289.84 5.39502 1.57779 0
M  V30 3007 H 281.991 2.07888 -0.435457 0
M  V30 3008 H 284.254 0.938661 -0.132739 0
M  V30 3009 H 283.96 3.51557 0.100287 0
M  V30 3010 H 283.834 3.29472 1.83653 0
M  V30 3011 H 286.221 2.30291 1.84527 0
M  V30 3012 H 286.302 2.5562 0.0959504 0
M  V30 3013 H 285.946 5.05774 0.464175 0
M  V30 3014 H 285.876 4.77443 2.22162 0
M  V30 3015 H 288.367 3.5769 1.21926 0
M  V30 3016 H 288.68 7.49248 1.89335 0
M  V30 3017 H 287.025 6.73648 1.70948 0
M  V30 3018 H 290.216 4.45713 1.43029 0
M  V30 3019 H 290.389 6.2426 1.7379 0
M  V30 3020 N 283.795 -0.628877 1.44509 0
M  V30 3021 C 285.211 -0.947305 1.28446 0
M  V30 3022 C 285.411 -2.00275 0.221872 0
M  V30 3023 O 284.467 -2.49447 -0.391471 0
M  V30 3024 C 285.78 -1.40843 2.65676 0
M  V30 3025 C 287.328 -1.52379 2.73404 0
M  V30 3026 C 287.803 -2.01875 4.11109 0
M  V30 3027 N 289.294 -2.09142 4.13296 0
M  V30 3028 C 290.029 -2.48615 5.16699 0
M  V30 3029 N 289.525 -2.87209 6.30462 0
M  V30 3030 N 291.318 -2.48768 5.04054 0
M  V30 3031 H 283.469 0.0690977 2.12288 0
M  V30 3032 H 285.732 -0.0317164 0.947469 0
M  V30 3033 H 285.438 -0.707206 3.44516 0
M  V30 3034 H 285.312 -2.37902 2.92716 0
M  V30 3035 H 287.699 -2.21598 1.9488 0
M  V30 3036 H 287.78 -0.536898 2.50102 0
M  V30 3037 H 287.424 -1.3325 4.90109 0
M  V30 3038 H 287.354 -3.0144 4.31789 0
M  V30 3039 H 289.845 -1.81991 3.31191 0
M  V30 3040 H 290.158 -3.16149 7.05174 0
M  V30 3041 H 288.503 -2.84955 6.33897 0
M  V30 3042 H 291.694 -2.18009 4.14234 0
M  V30 3043 H 291.867 -2.79207 5.84763 0
M  V30 3044 N 285.273 -1.31445 -0.869486 0
M  V30 3045 C 286.221 -1.19067 -1.99814 0
M  V30 3046 C 287.215 -0.0988569 -1.69111 0
M  V30 3047 O 288.421 -0.260781 -1.78101 0
M  V30 3048 H 284.796 -0.368677 -0.655425 0
M  V30 3049 H 286.767 -2.14555 -2.07385 0
M  V30 3050 C 285.516 -0.915323 -3.35436 0
M  V30 3051 H 284.839 -1.74759 -3.59582 0
M  V30 3052 H 286.279 -0.868895 -4.15001 0
M  V30 3053 C 284.738 0.381928 -3.34728 0
M  V30 3054 O 285.268 1.39857 -3.76567 0
M  V30 3055 N 283.474 0.398633 -2.87853 0
M  V30 3056 H 283.021 -0.429186 -2.54 0
M  V30 3057 H 282.979 1.26651 -2.87762 0
M  V30 3058 N 286.751 1.08385 -1.14413 0
M  V30 3059 C 287.976 1.85057 -0.936413 0
M  V30 3060 C 288.401 1.81055 0.509971 0
M  V30 3061 O 287.759 1.1958 1.36273 0
M  V30 3062 C 287.807 3.30505 -1.44217 0
M  V30 3063 O 286.911 4.07491 -0.634409 0
M  V30 3064 H 286.252 0.573425 -0.334784 0
M  V30 3065 H 288.782 1.36799 -1.52142 0
M  V30 3066 H 288.792 3.81348 -1.45043 0
M  V30 3067 H 287.467 3.32734 -2.49522 0
M  V30 3068 H 286.044 3.66368 -0.694902 0
M  V30 3069 N 288.23 0.939286 1.26551 0
M  V30 3070 C 289.18 0.418284 2.2413 0
M  V30 3071 C 290.164 -0.483935 1.5345 0
M  V30 3072 O 291.356 -0.319489 1.74093 0
M  V30 3073 C 288.485 -0.31709 3.41832 0
M  V30 3074 C 287.571 0.602311 4.19801 0
M  V30 3075 N 287.962 1.72726 4.75394 0
M  V30 3076 C 286.26 0.407534 4.44134 0
M  V30 3077 C 286.961 2.30004 5.34297 0
M  V30 3078 N 285.937 1.58828 5.1988 0
M  V30 3079 H 289.739 1.27705 2.64705 0
M  V30 3080 H 287.253 0.794929 1.41614 0
M  V30 3081 H 289.25 -0.707364 4.10855 0
M  V30 3082 H 287.91 -1.17264 3.02786 0
M  V30 3083 H 288.921 2.10944 4.72994 0
M  V30 3084 H 285.598 -0.406406 4.15517 0
M  V30 3085 H 286.988 3.24778 5.88191 0
M  V30 3086 N 289.708 -1.40897 0.706093 0
M  V30 3087 C 290.936 -2.05373 0.250887 0
M  V30 3088 C 291.351 -1.53172 -1.10381 0
M  V30 3089 O 290.708 -0.684305 -1.69185 0
M  V30 3090 C 290.759 -3.6088 0.211571 0
M  V30 3091 O 290.48 -4.11153 1.51276 0
M  V30 3092 C 291.981 -4.42517 -0.263346 0
M  V30 3093 H 289.201 -0.66115 0.114552 0
M  V30 3094 H 291.745 -1.80479 0.961635 0
M  V30 3095 H 289.9 -3.84777 -0.450073 0
M  V30 3096 H 290.314 -5.05279 1.40689 0
M  V30 3097 H 291.788 -5.51479 -0.239718 0
M  V30 3098 H 292.265 -4.19396 -1.30397 0
M  V30 3099 H 292.871 -4.23708 0.367677 0
M  V30 3100 N 291.186 -0.45159 -1.50991 0
M  V30 3101 C 292.433 0.110074 -2.02201 0
M  V30 3102 C 292.761 1.4146 -1.33489 0
M  V30 3103 O 292.016 1.90617 -0.443125 0
M  V30 3104 C 292.315 0.361728 -3.55565 0
M  V30 3105 C 291.981 -0.858717 -4.42648 0
M  V30 3106 C 290.643 -1.19338 -4.66167 0
M  V30 3107 C 292.995 -1.67221 -4.93646 0
M  V30 3108 C 290.323 -2.34195 -5.37931 0
M  V30 3109 C 292.675 -2.8119 -5.6667 0
M  V30 3110 C 291.339 -3.15094 -5.88449 0
M  V30 3111 H 290.609 0.040279 -0.739904 0
M  V30 3112 H 293.256 -0.601696 -1.81802 0
M  V30 3113 H 291.561 1.15554 -3.74372 0
M  V30 3114 H 293.258 0.80996 -3.92735 0
M  V30 3115 H 289.848 -0.58796 -4.24548 0
M  V30 3116 H 294.032 -1.42686 -4.75347 0
M  V30 3117 H 289.288 -2.6076 -5.53005 0
M  V30 3118 H 293.462 -3.44585 -6.05173 0
M  V30 3119 H 291.089 -4.04204 -6.43835 0
M  V30 3120 N 292.664 1.56529 -0.183458 0
M  V30 3121 C 293.612 2.19873 0.758845 0
M  V30 3122 C 294.606 1.16638 1.22849 0
M  V30 3123 O 295.812 1.3481 1.19274 0
M  V30 3124 H 292.187 0.7045 0.263029 0
M  V30 3125 H 294.158 2.97724 0.200755 0
M  V30 3126 C 292.907 2.86314 1.9728 0
M  V30 3127 H 292.23 3.65487 1.62047 0
M  V30 3128 H 293.67 3.3409 2.61075 0
M  V30 3129 C 292.129 1.86729 2.80418 0
M  V30 3130 O 292.659 1.36031 3.77966 0
M  V30 3131 N 290.865 1.55216 2.45675 0
M  V30 3132 H 290.412 1.96636 1.66409 0
M  V30 3133 H 290.37 0.888388 3.01588 0
M  V30 3134 N 294.142 -0.090211 1.57342 0
M  V30 3135 C 295.382 -0.798365 1.88163 0
M  V30 3136 C 295.746 -1.75662 0.775046 0
M  V30 3137 O 296.947 -2.50849 0.965816 0
M  V30 3138 C 295.218 -1.50376 3.24225 0
M  V30 3139 S 296.777 -2.24952 3.76752 0
M  V30 3140 H 293.595 -0.265883 0.659414 0
M  V30 3141 H 296.197 -0.055264 1.95422 0
M  V30 3142 H 294.901 -0.792286 4.0268 0
M  V30 3143 H 294.432 -2.28666 3.20118 0
M  V30 3144 H 296.447 -3.51173 3.5056 0
M  V30 3145 N 295.62 -1.53406 -0.361157 0
M  V30 3146 C 297.036 -1.43277 -0.703124 0
M  V30 3147 C 297.236 -0.575384 -1.9311 0
M  V30 3148 O 296.292 -0.0595362 -2.5243 0
M  V30 3149 C 297.605 -2.8653 -0.9122 0
M  V30 3150 C 299.153 -2.96191 -1.01193 0
M  V30 3151 C 299.628 -4.40514 -1.25345 0
M  V30 3152 N 301.119 -4.43962 -1.32105 0
M  V30 3153 C 301.854 -5.52746 -1.5251 0
M  V30 3154 N 301.35 -6.71567 -1.70203 0
M  V30 3155 N 303.143 -5.40331 -1.54916 0
M  V30 3156 H 295.294 -2.07654 0.446475 0
M  V30 3157 H 297.557 -0.937944 0.137715 0
M  V30 3158 H 297.263 -3.51605 -0.0816414 0
M  V30 3159 H 297.137 -3.30441 -1.81903 0
M  V30 3160 H 299.524 -2.31266 -1.83303 0
M  V30 3161 H 299.605 -2.55667 -0.0823929 0
M  V30 3162 H 299.249 -5.06014 -0.437346 0
M  V30 3163 H 299.179 -4.78614 -2.19627 0
M  V30 3164 H 301.67 -3.58332 -1.20028 0
M  V30 3165 H 301.983 -7.50241 -1.85359 0
M  V30 3166 H 300.328 -6.74545 -1.67373 0
M  V30 3167 H 303.519 -4.46465 -1.40663 0
M  V30 3168 H 303.692 -6.25173 -1.70477 0
M  V30 3169 N 297.098 0.621204 -1.44841 0
M  V30 3170 C 298.031 1.7459 -1.46947 0
M  V30 3171 C 299.009 1.59273 -0.327238 0
M  V30 3172 O 300.193 1.81021 -0.525706 0
M  V30 3173 C 297.32 3.12274 -1.31159 0
M  V30 3174 C 296.366 3.46216 -2.49072 0
M  V30 3175 S 297.199 3.4258 -4.11581 0
M  V30 3176 C 298.355 4.82867 -3.98233 0
M  V30 3177 H 298.588 1.72538 -2.42111 0
M  V30 3178 H 296.121 0.796683 -1.32259 0
M  V30 3179 H 298.079 3.91722 -1.22737 0
M  V30 3180 H 296.74 3.11855 -0.374885 0
M  V30 3181 H 295.933 4.4643 -2.33915 0
M  V30 3182 H 295.535 2.74253 -2.54286 0
M  V30 3183 H 297.827 5.7234 -3.62537 0
M  V30 3184 H 298.77 5.0308 -4.98313 0
M  V30 3185 H 299.178 4.57908 -3.30121 0
M  V30 3186 N 298.576 1.31904 0.862503 0
M  V30 3187 C 299.506 1.22782 1.98612 0
M  V30 3188 C 300.487 0.113362 1.69722 0
M  V30 3189 O 301.672 0.299218 1.91881 0
M  V30 3190 C 298.802 0.942058 3.34279 0
M  V30 3191 C 297.756 2.0169 3.77499 0
M  V30 3192 C 297.082 1.58369 5.10709 0
M  V30 3193 C 298.382 3.43096 3.93805 0
M  V30 3194 H 300.076 2.16788 2.06502 0
M  V30 3195 H 297.622 1.04366 0.992154 0
M  V30 3196 H 299.575 0.864818 4.1243 0
M  V30 3197 H 298.299 -0.0336603 3.26583 0
M  V30 3198 H 296.958 2.08416 3.01593 0
M  V30 3199 H 296.606 0.595628 4.99461 0
M  V30 3200 H 296.306 2.30279 5.40597 0
M  V30 3201 H 297.83 1.52067 5.91361 0
M  V30 3202 H 299.244 3.39003 4.62331 0
M  V30 3203 H 297.641 4.13288 4.35101 0
M  V30 3204 H 298.711 3.83334 2.96957 0
M  V30 3205 N 300.054 -1.07777 1.14986 0
M  V30 3206 C 301.3 -1.80557 0.923422 0
M  V30 3207 C 301.633 -1.86298 -0.548337 0
M  V30 3208 O 300.908 -1.34354 -1.40639 0
M  V30 3209 C 301.191 -3.25839 1.53299 0
M  V30 3210 C 301.044 -3.28269 3.07505 0
M  V30 3211 C 302.363 -4.22991 1.21518 0
M  V30 3212 H 299.482 -0.655493 0.336894 0
M  V30 3213 H 302.124 -1.26144 1.42083 0
M  V30 3214 H 300.274 -3.72306 1.10999 0
M  V30 3215 H 301.946 -2.90079 3.58681 0
M  V30 3216 H 300.189 -2.67355 3.4162 0
M  V30 3217 H 300.86 -4.30691 3.45266 0
M  V30 3218 H 303.336 -3.84894 1.581 0
M  V30 3219 H 302.212 -5.22945 1.66793 0
M  V30 3220 H 302.473 -4.41904 0.131505 0
M  V30 3221 N 301.532 -0.945985 -1.26051 0
M  V30 3222 C 302.479 -0.45809 -2.26208 0
M  V30 3223 C 303.449 0.484816 -1.58867 0
M  V30 3224 O 304.634 0.399969 -1.86561 0
M  V30 3225 C 301.774 0.266131 -3.44072 0
M  V30 3226 C 300.887 -0.713005 -4.26075 0
M  V30 3227 C 300.022 0.0329013 -5.3119 0
M  V30 3228 C 299.061 -0.93774 -6.04874 0
M  V30 3229 N 298.198 -0.223274 -7.01745 0
M  V30 3230 H 303.038 -1.3171 -2.67313 0
M  V30 3231 H 300.575 -0.66069 -1.31428 0
M  V30 3232 H 302.533 0.702514 -4.11243 0
M  V30 3233 H 301.163 1.08925 -3.03867 0
M  V30 3234 H 300.215 -1.26789 -3.58648 0
M  V30 3235 H 301.527 -1.45406 -4.77136 0
M  V30 3236 H 300.681 0.528335 -6.04395 0
M  V30 3237 H 299.42 0.806801 -4.8098 0
M  V30 3238 H 298.425 -1.44425 -5.30492 0
M  V30 3239 H 299.65 -1.71172 -6.57173 0
M  V30 3240 H 297.596 0.532046 -6.53839 0
M  V30 3241 H 297.513 -0.90357 -7.50581 0
M  V30 3242 H 298.781 0.250907 -7.79096 0
M  V30 3243 N 303.011 1.40521 -0.713556 0
M  V30 3244 C 304.422 1.83853 -0.324807 0
M  V30 3245 C 304.773 1.59667 1.14021 0
M  V30 3246 O 303.898 1.07649 1.87725 0
M  V30 3247 C 304.493 3.33751 -0.582746 0
M  V30 3248 C 303.052 3.75584 -0.247727 0
M  V30 3249 C 302.199 2.63753 -0.856121 0
M  V30 3250 H 305.15 1.29817 -0.91286 0
M  V30 3251 H 305.171 3.80194 0.152682 0
M  V30 3252 H 304.683 3.51322 -1.64908 0
M  V30 3253 H 302.784 3.63608 0.813624 0
M  V30 3254 H 302.897 4.7373 -0.715307 0
M  V30 3255 H 301.261 2.53108 -0.28432 0
M  V30 3256 H 302.044 2.84137 -1.92668 0
M  V30 3257 N 304.489 0.459591 1.5075 0
M  V30 3258 C 305.419 -0.330644 2.31147 0
M  V30 3259 C 306.4 -1.00087 1.37538 0
M  V30 3260 O 307.585 -1.00025 1.66459 0
M  V30 3261 C 304.715 -1.41958 3.16962 0
M  V30 3262 C 303.669 -0.871608 4.19031 0
M  V30 3263 C 302.995 -2.05797 4.9351 0
M  V30 3264 C 304.295 0.109251 5.22186 0
M  V30 3265 H 305.989 0.340336 2.97459 0
M  V30 3266 H 303.535 0.165119 1.4305 0
M  V30 3267 H 305.488 -1.9798 3.71997 0
M  V30 3268 H 304.212 -2.11917 2.48513 0
M  V30 3269 H 302.871 -0.333442 3.6508 0
M  V30 3270 H 302.519 -2.74427 4.21544 0
M  V30 3271 H 302.219 -1.6976 5.62544 0
M  V30 3272 H 303.743 -2.62331 5.51375 0
M  V30 3273 H 305.157 -0.361405 5.7216 0
M  V30 3274 H 303.554 0.383316 5.98875 0
M  V30 3275 H 304.624 1.03887 4.73641 0
M  V30 3276 N 305.967 -1.56429 0.191757 0
M  V30 3277 C 307.378 -1.83912 -0.321428 0
M  V30 3278 C 307.729 -1.11231 -1.61623 0
M  V30 3279 O 306.854 -0.37202 -2.13178 0
M  V30 3280 C 307.449 -3.33624 -0.589961 0
M  V30 3281 C 306.008 -3.6153 -1.04753 0
M  V30 3282 C 305.155 -2.7714 -0.0943327 0
M  V30 3283 H 308.106 -1.53161 0.415612 0
M  V30 3284 H 308.127 -3.52213 -1.43966 0
M  V30 3285 H 307.639 -3.86495 0.352588 0
M  V30 3286 H 305.74 -3.14089 -2.00447 0
M  V30 3287 H 305.853 -4.69737 -0.942549 0
M  V30 3288 H 304.217 -2.47638 -0.595589 0
M  V30 3289 H 305 -3.32799 0.842601 0
M  V30 3290 N 307.445 0.0818655 -1.57387 0
M  V30 3291 C 308.722 0.815343 -1.77796 0
M  V30 3292 C 309.102 1.96289 -0.77679 0
M  V30 3293 O 308.45 2.27691 0.192106 0
M  V30 3294 C 308.66 1.29765 -3.23978 0
M  V30 3295 C 310.008 1.7351 -3.8753 0
M  V30 3296 O 311.032 1.39356 -3.27808 0
M  V30 3297 O 309.891 2.36708 -4.92576 0
M  V30 3298 H 306.985 0.389914 -0.729312 0
M  V30 3299 H 309.531 0.0627213 -1.69584 0
M  V30 3300 H 308.303 0.47608 -3.88393 0
M  V30 3301 H 307.926 2.11189 -3.36875 0
M  V30 3302 N 308.923 1.53595 0.353017 0
M  V30 3303 C 310.148 1.7462 1.11904 0
M  V30 3304 C 310.573 0.479721 1.8188 0
M  V30 3305 O 309.931 -0.567066 1.72204 0
M  V30 3306 C 309.979 2.92029 2.11545 0
M  V30 3307 O 309.083 2.61516 3.18878 0
M  V30 3308 H 308.424 0.579531 0.324099 0
M  V30 3309 H 310.954 2.00525 0.406301 0
M  V30 3310 H 310.964 3.18551 2.5493 0
M  V30 3311 H 309.639 3.83888 1.60008 0
M  V30 3312 H 308.216 2.45852 2.80377 0
M  V30 3313 N 310.401 -0.613514 1.45168 0
M  V30 3314 C 311.311 -1.75296 1.55912 0
M  V30 3315 C 312.327 -1.68244 0.443856 0
M  V30 3316 O 313.503 -1.88706 0.70371 0
M  V30 3317 C 310.568 -3.1174 1.5172 0
M  V30 3318 C 309.629 -3.30291 2.74238 0
M  V30 3319 C 308.862 -4.60226 2.70236 0
M  V30 3320 O 309.085 -5.42168 1.77229 0
M  V30 3321 O 308.019 -4.81361 3.61352 0
M  V30 3322 H 311.845 -1.69183 2.52212 0
M  V30 3323 H 309.43 -0.776886 1.27612 0
M  V30 3324 H 311.312 -3.93044 1.51968 0
M  V30 3325 H 309.987 -3.18357 0.585697 0
M  V30 3326 H 308.894 -2.48598 2.79553 0
M  V30 3327 H 310.227 -3.28547 3.66494 0
M  V30 3328 N 311.879 -1.3236 -0.855495 0
M  V30 3329 C 312.789 -1.23221 -1.99634 0
M  V30 3330 C 313.805 -0.145983 -1.73387 0
M  V30 3331 O 314.981 -0.366502 -1.98037 0
M  V30 3332 C 312.046 -0.954782 -3.33294 0
M  V30 3333 C 311.107 -2.12937 -3.72769 0
M  V30 3334 C 310.34 -1.86508 -5.00051 0
M  V30 3335 O 310.563 -0.807231 -5.64659 0
M  V30 3336 O 309.497 -2.72591 -5.36636 0
M  V30 3337 H 313.323 -2.19126 -2.1028 0
M  V30 3338 H 310.908 -1.12241 -0.986018 0
M  V30 3339 H 312.79 -0.816519 -4.13414 0
M  V30 3340 H 311.465 -0.0258854 -3.2369 0
M  V30 3341 H 310.372 -2.3231 -2.93228 0
M  V30 3342 H 311.705 -3.04102 -3.87018 0
M  V30 3343 N 313.357 1.07166 -1.15556 0
M  V30 3344 C 314.267 2.17947 -0.868116 0
M  V30 3345 C 315.283 1.73297 0.156297 0
M  V30 3346 O 316.459 2.01392 -0.0182327 0
M  V30 3347 C 313.524 3.44789 -0.36355 0
M  V30 3348 C 312.585 4.03996 -1.45209 0
M  V30 3349 C 311.818 5.24783 -0.971508 0
M  V30 3350 O 312.041 5.70109 0.182194 0
M  V30 3351 O 310.975 5.75715 -1.75603 0
M  V30 3352 H 314.801 2.4503 -1.79427 0
M  V30 3353 H 312.386 1.16539 -0.934824 0
M  V30 3354 H 314.268 4.21307 -0.0887113 0
M  V30 3355 H 312.943 3.19253 0.534708 0
M  V30 3356 H 311.85 3.29009 -1.78056 0
M  V30 3357 H 313.183 4.33808 -2.32533 0
M  V30 3358 N 314.835 0.952656 1.25548 0
M  V30 3359 C 316.083 0.605176 1.92826 0
M  V30 3360 C 316.404 -0.860261 1.74999 0
M  V30 3361 O 315.674 -1.6125 1.11244 0
M  V30 3362 H 314.254 0.220832 0.713612 0
M  V30 3363 H 316.916 1.21047 1.52754 0
M  V30 3364 H 316.012 0.832798 3.00784 0
M  V30 3365 N 316.313 -1.40141 0.720998 0
M  V30 3366 C 317.263 -2.27949 0.0482544 0
M  V30 3367 C 318.247 -1.43538 -0.727021 0
M  V30 3368 O 319.439 -1.6658 -0.598332 0
M  V30 3369 C 316.568 -3.32126 -0.868729 0
M  V30 3370 C 315.654 -4.24008 -0.0883515 0
M  V30 3371 N 316.045 -4.97154 0.931226 0
M  V30 3372 C 314.343 -4.4485 -0.320105 0
M  V30 3373 C 315.044 -5.64587 1.4006 0
M  V30 3374 N 314.02 -5.38787 0.721752 0
M  V30 3375 H 317.822 -2.81948 0.829609 0
M  V30 3376 H 315.336 -1.52656 0.554067 0
M  V30 3377 H 317.333 -3.93884 -1.36605 0
M  V30 3378 H 315.993 -2.79687 -1.6494 0
M  V30 3379 H 317.004 -5.01 1.31222 0
M  V30 3380 H 313.681 -4.03378 -1.07668 0
M  V30 3381 H 315.071 -6.33175 2.24808 0
M  V30 3382 N 317.792 -0.46758 -1.50504 0
M  V30 3383 C 319.069 0.15003 -1.95024 0
M  V30 3384 C 319.449 1.57304 -1.40779 0
M  V30 3385 O 318.797 2.20281 -0.607319 0
M  V30 3386 C 319.007 0.0969324 -3.48865 0
M  V30 3387 C 320.355 0.287565 -4.23625 0
M  V30 3388 O 321.379 0.173678 -3.55776 0
M  V30 3389 O 320.238 0.517186 -5.44047 0
M  V30 3390 H 317.332 0.113582 -0.819163 0
M  V30 3391 H 319.878 -0.52773 -1.61286 0
M  V30 3392 H 318.65 -0.896732 -3.80886 0
M  V30 3393 H 318.273 0.816303 -3.8913 0
M  V30 3394 N 319.27 1.56325 -0.20005 0
M  V30 3395 C 320.218 2.20666 0.735482 0
M  V30 3396 C 321.212 1.17934 1.21605 0
M  V30 3397 O 322.418 1.36068 1.17837 0
M  V30 3398 H 318.793 0.70725 0.255542 0
M  V30 3399 H 320.764 2.9792 0.169166 0
M  V30 3400 C 319.513 2.88391 1.94232 0
M  V30 3401 H 318.836 3.67185 1.58161 0
M  V30 3402 H 320.276 3.3684 2.57517 0
M  V30 3403 C 318.735 1.89692 2.78421 0
M  V30 3404 O 319.265 1.40032 3.76502 0
M  V30 3405 N 317.471 1.57813 2.44015 0
M  V30 3406 H 317.018 1.9839 1.64314 0
M  V30 3407 H 316.976 0.920325 3.00628 0
M  V30 3408 N 320.748 -0.0735177 1.57428 0
M  V30 3409 C 321.68 -1.11423 2.00294 0
M  V30 3410 C 322.693 -1.35084 0.908637 0
M  V30 3411 O 323.882 -1.33355 1.18654 0
M  V30 3412 C 320.982 -2.46548 2.32523 0
M  V30 3413 C 320.155 -2.42867 3.63778 0
M  V30 3414 C 319.214 -3.60087 3.83697 0
M  V30 3415 O 318.24 -3.41595 4.55304 0
M  V30 3416 N 319.442 -4.80372 3.25919 0
M  V30 3417 H 322.207 -0.749206 2.90184 0
M  V30 3418 H 319.768 -0.262195 1.59763 0
M  V30 3419 H 321.76 -3.23607 2.43024 0
M  V30 3420 H 320.33 -2.75059 1.48531 0
M  V30 3421 H 319.55 -1.51206 3.64047 0
M  V30 3422 H 320.838 -2.37506 4.49965 0
M  V30 3423 H 320.236 -4.983 2.67795 0
M  V30 3424 H 318.793 -5.54948 3.41871 0
M  V30 3425 N 322.226 -1.5378 -0.344866 0
M  V30 3426 C 323.136 -1.84667 -1.4469 0
M  V30 3427 C 324.152 -0.736704 -1.57635 0
M  V30 3428 O 325.328 -1.02888 -1.73136 0
M  V30 3429 C 322.393 -2.04869 -2.79696 0
M  V30 3430 C 321.454 -3.28731 -2.76106 0
M  V30 3431 C 320.687 -3.4796 -4.04673 0
M  V30 3432 O 320.91 -2.71052 -5.01883 0
M  V30 3433 O 319.844 -4.41383 -4.09224 0
M  V30 3434 H 323.67 -2.78334 -1.21506 0
M  V30 3435 H 321.255 -1.39418 -0.536921 0
M  V30 3436 H 323.137 -2.19609 -3.59652 0
M  V30 3437 H 321.812 -1.14391 -3.02814 0
M  V30 3438 H 320.719 -3.19396 -1.94774 0
M  V30 3439 H 322.052 -4.19198 -2.57941 0
M  V30 3440 N 323.704 0.605807 -1.45491 0
M  V30 3441 C 324.667 1.69836 -1.5391 0
M  V30 3442 C 325.667 1.55261 -0.418424 0
M  V30 3443 O 326.857 1.60296 -0.681965 0
M  V30 3444 C 323.989 3.09117 -1.43734 0
M  V30 3445 H 325.182 1.63738 -2.51257 0
M  V30 3446 H 322.735 0.821689 -1.32959 0
M  V30 3447 H 323.47 3.20791 -0.475788 0
M  V30 3448 H 323.255 3.21104 -2.25021 0
M  V30 3449 H 324.745 3.88696 -1.52661 0
M  V30 3450 N 325.182 1.32811 0.848464 0
M  V30 3451 C 326.132 1.18842 1.94578 0
M  V30 3452 C 327.116 0.0937517 1.60627 0
M  V30 3453 O 328.308 0.320887 1.74067 0
M  V30 3454 C 325.437 0.91999 3.30743 0
M  V30 3455 C 324.523 2.05665 3.70894 0
M  V30 3456 N 324.914 3.30579 3.8282 0
M  V30 3457 C 323.212 1.9612 4.00566 0
M  V30 3458 C 323.913 4.05067 4.17487 0
M  V30 3459 N 322.889 3.33419 4.2934 0
M  V30 3460 H 326.691 2.13536 2.0194 0
M  V30 3461 H 324.205 1.2468 1.0406 0
M  V30 3462 H 326.202 0.800859 4.09136 0
M  V30 3463 H 324.862 -0.0185076 3.24695 0
M  V30 3464 H 325.873 3.65441 3.66978 0
M  V30 3465 H 322.55 1.09871 4.02784 0
M  V30 3466 H 323.94 5.12815 4.34131 0
M  V30 3467 N 326.66 -1.06551 1.16123 0
M  V30 3468 C 327.592 -2.13908 0.823171 0
M  V30 3469 C 328.605 -1.61926 -0.16843 0
M  V30 3470 O 329.794 -1.78412 0.055962 0
M  V30 3471 C 326.894 -3.38283 0.204424 0
M  V30 3472 C 326.067 -4.19589 1.23548 0
M  V30 3473 C 325.126 -5.2233 0.637011 0
M  V30 3474 O 324.152 -5.54034 1.30516 0
M  V30 3475 N 325.354 -5.77621 -0.577474 0
M  V30 3476 H 328.119 -2.43508 1.74711 0
M  V30 3477 H 325.68 -1.2253 1.05821 0
M  V30 3478 H 327.672 -4.0416 -0.208909 0
M  V30 3479 H 326.242 -3.06329 -0.623012 0
M  V30 3480 H 325.462 -3.49406 1.82507 0
M  V30 3481 H 326.75 -4.70718 1.93137 0
M  V30 3482 H 326.148 -5.54125 -1.13853 0
M  V30 3483 H 324.705 -6.45087 -0.933053 0
M  V30 3484 N 328.138 -0.959301 -1.25041 0
M  V30 3485 C 329.085 -0.482057 -2.2571 0
M  V30 3486 C 330.055 0.467939 -1.59372 0
M  V30 3487 O 331.24 0.380159 -1.86974 0
M  V30 3488 C 328.38 0.229623 -3.44335 0
M  V30 3489 C 327.493 -0.758156 -4.25295 0
M  V30 3490 C 326.628 -0.0234403 -5.31195 0
M  V30 3491 C 325.667 -1.00184 -6.03846 0
M  V30 3492 N 324.804 -0.29769 -7.01469 0
M  V30 3493 H 329.644 -1.34538 -2.65901 0
M  V30 3494 H 327.181 -0.674592 -1.3072 0
M  V30 3495 H 329.139 0.658856 -4.11965 0
M  V30 3496 H 327.769 1.05696 -3.05005 0
M  V30 3497 H 326.821 -1.30586 -3.57284 0
M  V30 3498 H 328.133 -1.50458 -4.75567 0
M  V30 3499 H 327.287 0.464201 -6.04922 0
M  V30 3500 H 326.026 0.755741 -4.81809 0
M  V30 3501 H 325.031 -1.50044 -5.2893 0
M  V30 3502 H 326.256 -1.78133 -6.55321 0
M  V30 3503 H 324.202 0.462668 -6.54366 0
M  V30 3504 H 324.119 -0.983128 -7.4958 0
M  V30 3505 H 325.387 0.16826 -7.79318 0
M  V30 3506 N 329.616 1.39756 -0.72842 0
M  V30 3507 C 330.846 2.04651 -0.283117 0
M  V30 3508 C 331.254 1.5502 1.08469 0
M  V30 3509 O 330.597 0.707343 1.69536 0
M  V30 3510 C 330.659 3.58947 -0.199309 0
M  V30 3511 C 330.323 4.31525 -1.5045 0
M  V30 3512 C 331.32 4.5861 -2.44894 0
M  V30 3513 C 329.005 4.70195 -1.76698 0
M  V30 3514 C 330.999 5.23366 -3.63822 0
M  V30 3515 C 328.686 5.3468 -2.95906 0
M  V30 3516 C 329.684 5.61198 -3.89289 0
M  V30 3517 O 329.372 6.24347 -5.06404 0
M  V30 3518 H 329.104 0.664777 -0.122666 0
M  V30 3519 H 331.658 1.79913 -0.990987 0
M  V30 3520 H 329.888 3.82556 0.56461 0
M  V30 3521 H 331.577 4.0534 0.213125 0
M  V30 3522 H 332.343 4.29187 -2.25883 0
M  V30 3523 H 328.222 4.48916 -1.04859 0
M  V30 3524 H 331.766 5.4398 -4.36728 0
M  V30 3525 H 327.663 5.63524 -3.14819 0
M  V30 3526 H 328.431 6.42842 -5.06652 0
M  V30 3527 N 331.094 0.475555 1.50254 0
M  V30 3528 C 332.004 -0.321501 2.32387 0
M  V30 3529 C 333.02 -0.991755 1.42969 0
M  V30 3530 O 334.196 -0.978747 1.76018 0
M  V30 3531 C 331.261 -1.38667 3.17762 0
M  V30 3532 C 330.322 -0.732538 4.23004 0
M  V30 3533 C 329.555 -1.74695 5.04299 0
M  V30 3534 O 329.778 -2.97399 4.86734 0
M  V30 3535 O 328.712 -1.31631 5.8733 0
M  V30 3536 H 332.538 0.350071 3.01676 0
M  V30 3537 H 330.123 0.237321 1.47503 0
M  V30 3538 H 332.005 -2.00354 3.70724 0
M  V30 3539 H 330.68 -2.04163 2.51196 0
M  V30 3540 H 329.587 -0.0765902 3.74022 0
M  V30 3541 H 330.92 -0.120452 4.92053 0
M  V30 3542 N 332.573 -1.56217 0.208337 0
M  V30 3543 C 333.801 -2.02337 -0.43215 0
M  V30 3544 C 334.216 -1.08834 -1.54275 0
M  V30 3545 O 333.573 -0.0955462 -1.8225 0
M  V30 3546 C 333.624 -3.48072 -0.976138 0
M  V30 3547 O 333.345 -4.38007 0.0901621 0
M  V30 3548 C 334.846 -4.09773 -1.69119 0
M  V30 3549 H 332.066 -0.662385 -0.10718 0
M  V30 3550 H 334.61 -2.01966 0.320923 0
M  V30 3551 H 332.765 -3.49099 -1.67954 0
M  V30 3552 H 333.179 -5.23543 -0.316701 0
M  V30 3553 H 334.653 -5.13556 -2.02397 0
M  V30 3554 H 335.13 -3.53999 -2.59964 0
M  V30 3555 H 335.736 -4.12556 -1.03332 0
M  V30 3556 N 334.051 0.0651679 -1.57465 0
M  V30 3557 C 334.984 1.10876 -1.99453 0
M  V30 3558 C 335.962 1.37205 -0.872555 0
M  V30 3559 O 337.146 1.50468 -1.13542 0
M  V30 3560 C 334.273 2.45167 -2.3369 0
M  V30 3561 C 333.319 2.3493 -3.55964 0
M  V30 3562 S 334.152 1.73708 -5.06543 0
M  V30 3563 C 335.308 3.09563 -5.43987 0
M  V30 3564 H 335.541 0.750967 -2.87659 0
M  V30 3565 H 333.074 0.273933 -1.51951 0
M  V30 3566 H 335.032 3.22412 -2.54088 0
M  V30 3567 H 333.693 2.78105 -1.46001 0
M  V30 3568 H 332.886 3.3398 -3.77457 0
M  V30 3569 H 332.488 1.65823 -3.3523 0
M  V30 3570 H 334.78 4.05882 -5.42463 0
M  V30 3571 H 335.723 2.92843 -6.44708 0
M  V30 3572 H 336.131 3.10474 -4.71451 0
M  V30 3573 N 335.529 1.53961 0.336706 0
M  V30 3574 C 336.461 1.78751 1.4346 0
M  V30 3575 C 337.474 0.669019 1.48418 0
M  V30 3576 O 338.663 0.945884 1.51378 0
M  V30 3577 C 335.763 1.87844 2.82078 0
M  V30 3578 C 334.936 3.17854 3.00479 0
M  V30 3579 C 333.995 3.17816 4.19379 0
M  V30 3580 O 333.021 3.91511 4.13168 0
M  V30 3581 N 334.223 2.40669 5.2826 0
M  V30 3582 H 336.988 2.73493 1.22563 0
M  V30 3583 H 334.549 1.53096 0.526625 0
M  V30 3584 H 336.541 1.85261 3.59806 0
M  V30 3585 H 335.111 1.00257 2.96086 0
M  V30 3586 H 334.331 3.33504 2.10163 0
M  V30 3587 H 335.619 4.03718 3.0966 0
M  V30 3588 H 335.017 1.8036 5.36178 0
M  V30 3589 H 333.574 2.43877 6.04456 0
M  V30 3590 N 337.007 -0.598083 1.45811 0
M  V30 3591 C 338.247 -1.36802 1.5187 0
M  V30 3592 C 338.611 -1.9133 0.160224 0
M  V30 3593 O 339.812 -2.6863 0.0955302 0
M  V30 3594 C 338.083 -2.47835 2.57513 0
M  V30 3595 S 339.642 -3.35458 2.82866 0
M  V30 3596 H 336.46 -0.466278 0.536755 0
M  V30 3597 H 339.062 -0.689152 1.82951 0
M  V30 3598 H 337.766 -2.06141 3.54872 0
M  V30 3599 H 337.297 -3.20512 2.28114 0
M  V30 3600 H 339.312 -4.46251 2.16967 0
M  V30 3601 N 338.485 -1.33259 -0.841409 0
M  V30 3602 C 339.732 -1.24572 -1.5965 0
M  V30 3603 C 340.06 0.189137 -1.93578 0
M  V30 3604 O 339.315 1.14566 -1.5866 0
M  V30 3605 C 339.614 -2.06381 -2.9179 0
M  V30 3606 C 339.28 -3.556 -2.77235 0
M  V30 3607 C 337.942 -3.96282 -2.72973 0
M  V30 3608 C 340.294 -4.50433 -2.62221 0
M  V30 3609 C 337.622 -5.30017 -2.51592 0
M  V30 3610 C 339.974 -5.84327 -2.42374 0
M  V30 3611 C 338.638 -6.24194 -2.36512 0
M  V30 3612 H 337.908 -0.455842 -0.5842 0
M  V30 3613 H 340.555 -1.6482 -0.975016 0
M  V30 3614 H 338.86 -1.58903 -3.5813 0
M  V30 3615 H 340.557 -1.97019 -3.49263 0
M  V30 3616 H 337.147 -3.23298 -2.81384 0
M  V30 3617 H 341.331 -4.19914 -2.64549 0
M  V30 3618 H 336.587 -5.59947 -2.45499 0
M  V30 3619 H 340.761 -6.57414 -2.29739 0
M  V30 3620 H 338.388 -7.27759 -2.19706 0
M  V30 3621 N 339.963 1.05934 -1.16686 0
M  V30 3622 C 340.926 2.11669 -0.879144 0
M  V30 3623 C 341.926 1.60294 0.127445 0
M  V30 3624 O 343.116 1.7389 -0.103865 0
M  V30 3625 C 340.248 3.39438 -0.315425 0
M  V30 3626 H 341.441 2.38626 -1.81653 0
M  V30 3627 H 338.994 1.22058 -0.976299 0
M  V30 3628 H 339.729 3.18132 0.629468 0
M  V30 3629 H 339.514 3.78034 -1.04079 0
M  V30 3630 H 341.004 4.17391 -0.132189 0
M  V30 3631 N 341.441 0.965919 1.2453 0
M  V30 3632 C 342.687 0.62776 1.92839 0
M  V30 3633 C 343.02 -0.834694 1.75347 0
M  V30 3634 O 342.295 -1.60031 1.10546 0
M  V30 3635 C 342.578 1.00109 3.45905 0
M  V30 3636 C 342.431 2.52011 3.72573 0
M  V30 3637 C 343.75 0.53435 4.36844 0
M  V30 3638 H 340.869 0.229537 0.700344 0
M  V30 3639 H 343.511 1.2046 1.46933 0
M  V30 3640 H 341.661 0.510238 3.85135 0
M  V30 3641 H 343.333 3.08559 3.42912 0
M  V30 3642 H 341.576 2.95287 3.17786 0
M  V30 3643 H 342.247 2.73183 4.79661 0
M  V30 3644 H 344.723 0.955565 4.04979 0
M  V30 3645 H 343.599 0.824152 5.42678 0
M  V30 3646 H 343.86 -0.565589 4.38467 0
M  V30 3647 N 342.919 -1.39368 0.735821 0
M  V30 3648 C 344.144 -2.05319 0.293052 0
M  V30 3649 C 344.569 -1.55115 -1.064 0
M  V30 3650 O 343.927 -0.695261 -1.67439 0
M  V30 3651 C 343.975 -3.59305 0.305323 0
M  V30 3652 O 343.079 -4.06299 -0.706761 0
M  V30 3653 H 342.42 -0.650529 0.13307 0
M  V30 3654 H 344.95 -1.78386 1.00197 0
M  V30 3655 H 344.96 -4.07724 0.149997 0
M  V30 3656 H 343.635 -3.95207 1.29553 0
M  V30 3657 H 342.212 -3.69292 -0.517504 0
M  V30 3658 N 344.397 -0.483516 -1.5 0
M  V30 3659 C 345.329 0.340634 -2.26655 0
M  V30 3660 C 346.342 0.946152 -1.32483 0
M  V30 3661 O 347.531 0.832453 -1.579 0
M  V30 3662 C 344.631 1.4929 -3.04246 0
M  V30 3663 C 343.804 0.997903 -4.25865 0
M  V30 3664 C 342.863 2.02569 -4.85646 0
M  V30 3665 O 341.889 1.60128 -5.46212 0
M  V30 3666 N 343.091 3.3548 -4.73744 0
M  V30 3667 H 345.856 -0.316577 -2.98023 0
M  V30 3668 H 343.417 -0.315024 -1.58806 0
M  V30 3669 H 345.409 2.17766 -3.41116 0
M  V30 3670 H 343.979 2.05458 -2.35597 0
M  V30 3671 H 343.199 0.138617 -3.93956 0
M  V30 3672 H 344.487 0.645305 -5.04691 0
M  V30 3673 H 343.885 3.72661 -4.25605 0
M  V30 3674 H 342.442 3.99718 -5.14848 0
M  V30 3675 N 345.875 1.56104 -0.216619 0
M  V30 3676 C 347.286 1.844 0.292128 0
M  V30 3677 C 347.637 1.13788 1.59833 0
M  V30 3678 O 346.762 0.405888 2.12559 0
M  V30 3679 C 347.357 3.3452 0.53681 0
M  V30 3680 C 345.916 3.63151 0.989876 0
M  V30 3681 C 345.063 2.77255 0.0502302 0
M  V30 3682 H 348.014 1.52481 -0.439926 0
M  V30 3683 H 348.035 3.54459 1.38345 0
M  V30 3684 H 347.547 3.85885 -0.414031 0
M  V30 3685 H 345.648 3.17238 1.95425 0
M  V30 3686 H 345.761 4.71177 0.867698 0
M  V30 3687 H 344.125 2.48555 0.556117 0
M  V30 3688 H 344.908 3.31416 -0.89544 0
M  V30 3689 N 347.353 -0.0568162 1.57498 0
M  V30 3690 C 348.3 -1.06591 2.04712 0
M  V30 3691 C 349.27 -1.3758 0.930644 0
M  V30 3692 O 350.455 -1.48392 1.19935 0
M  V30 3693 C 347.595 -2.3701 2.50839 0
M  V30 3694 C 346.708 -2.12421 3.76167 0
M  V30 3695 C 345.843 -3.36511 4.11015 0
M  V30 3696 C 344.882 -3.07353 5.2934 0
M  V30 3697 N 344.019 -4.23816 5.59754 0
M  V30 3698 H 348.859 -0.65631 2.90683 0
M  V30 3699 H 346.396 -0.312481 1.43743 0
M  V30 3700 H 348.354 -3.13175 2.7564 0
M  V30 3701 H 346.984 -2.75744 1.67825 0
M  V30 3702 H 346.036 -1.2688 3.58616 0
M  V30 3703 H 347.348 -1.86894 4.62463 0
M  V30 3704 H 346.502 -4.21062 4.36797 0
M  V30 3705 H 345.241 -3.65128 3.23315 0
M  V30 3706 H 344.246 -2.212 5.03339 0
M  V30 3707 H 345.471 -2.80043 6.1867 0
M  V30 3708 H 343.417 -4.52436 4.75014 0
M  V30 3709 H 343.334 -4.01614 6.40501 0
M  V30 3710 H 344.602 -5.0932 5.90096 0
M  V30 3711 N 348.832 -1.54138 -0.328536 0
M  V30 3712 C 350.057 -1.76378 -1.09112 0
M  V30 3713 C 350.482 -0.508596 -1.81094 0
M  V30 3714 O 349.84 0.539598 -1.73084 0
M  V30 3715 C 349.888 -2.95358 -2.06872 0
M  V30 3716 O 348.992 -2.66556 -3.14677 0
M  V30 3717 H 348.333 -0.584614 -0.314838 0
M  V30 3718 H 350.863 -2.01146 -0.374348 0
M  V30 3719 H 350.873 -3.22566 -2.4983 0
M  V30 3720 H 349.548 -3.86385 -1.5388 0
M  V30 3721 H 348.125 -2.50282 -2.7643 0
M  V30 3722 N 350.31 0.590341 -1.46126 0
M  V30 3723 C 351.559 1.34499 -1.50309 0
M  V30 3724 C 351.872 1.94977 -0.156021 0
M  V30 3725 O 353.078 2.71395 -0.0756037 0
M  V30 3726 C 351.534 2.43723 -2.64815 0
M  V30 3727 C 351.142 1.89582 -4.0591 0
M  V30 3728 C 352.886 3.20579 -2.78262 0
M  V30 3729 C 350.793 2.9639 -5.11769 0
M  V30 3730 H 349.723 0.505593 -0.559368 0
M  V30 3731 H 352.374 0.630848 -1.72315 0
M  V30 3732 H 350.756 3.17902 -2.36124 0
M  V30 3733 H 351.93 1.21997 -4.44357 0
M  V30 3734 H 350.245 1.25418 -3.97063 0
M  V30 3735 H 352.842 4.00276 -3.54519 0
M  V30 3736 H 353.185 3.72684 -1.85505 0
M  V30 3737 H 353.718 2.53505 -3.06562 0
M  V30 3738 H 350.457 2.49181 -6.06291 0
M  V30 3739 H 349.977 3.62487 -4.77873 0
M  V30 3740 H 351.656 3.60474 -5.37278 0
M  V30 3741 N 351.788 1.33704 0.83433 0
M  V30 3742 C 352.735 1.24335 1.94447 0
M  V30 3743 C 353.705 0.120991 1.65659 0
M  V30 3744 O 354.89 0.300035 1.88426 0
M  V30 3745 C 352.03 0.993124 3.30501 0
M  V30 3746 C 351.143 2.20217 3.71657 0
M  V30 3747 C 350.278 1.88572 4.96602 0
M  V30 3748 C 349.317 3.05683 5.30306 0
M  V30 3749 N 348.454 2.73997 6.46429 0
M  V30 3750 H 353.294 2.1928 2.01792 0
M  V30 3751 H 350.831 1.09035 0.987404 0
M  V30 3752 H 352.789 0.828467 4.08892 0
M  V30 3753 H 351.419 0.0803902 3.227 0
M  V30 3754 H 350.471 2.47642 2.88752 0
M  V30 3755 H 351.783 3.07752 3.92543 0
M  V30 3756 H 350.937 1.68776 5.82752 0
M  V30 3757 H 349.676 0.982799 4.77695 0
M  V30 3758 H 348.681 3.26088 4.42659 0
M  V30 3759 H 349.906 3.96737 5.51159 0
M  V30 3760 H 347.852 1.86268 6.28999 0
M  V30 3761 H 347.769 3.55064 6.67432 0
M  V30 3762 H 349.037 2.57679 7.35678 0
M  V30 3763 N 353.266 -1.05314 1.17247 0
M  V30 3764 C 354.176 -2.16538 0.90268 0
M  V30 3765 C 355.192 -1.73523 -0.128707 0
M  V30 3766 O 356.368 -2.01337 0.0502701 0
M  V30 3767 C 353.433 -3.44167 0.418356 0
M  V30 3768 C 352.494 -4.01635 1.51618 0
M  V30 3769 C 351.727 -5.23171 1.05487 0
M  V30 3770 O 351.95 -5.70327 -0.0914715 0
M  V30 3771 O 350.884 -5.72848 1.8474 0
M  V30 3772 H 354.71 -2.42145 1.83302 0
M  V30 3773 H 352.295 -1.15037 0.953246 0
M  V30 3774 H 354.177 -4.21112 0.155726 0
M  V30 3775 H 352.852 -3.20063 -0.48385 0
M  V30 3776 H 351.759 -3.26135 1.83268 0
M  V30 3777 H 353.092 -4.30053 2.39405 0
M  V30 3778 N 354.744 -0.972509 -1.24016 0
M  V30 3779 C 355.654 -0.5143 -2.28893 0
M  V30 3780 C 356.67 0.427078 -1.68677 0
M  V30 3781 O 357.846 0.298939 -1.99169 0
M  V30 3782 C 354.911 0.183598 -3.46214 0
M  V30 3783 C 353.972 -0.798202 -4.21814 0
M  V30 3784 C 353.205 -0.133514 -5.33533 0
M  V30 3785 O 353.428 1.07714 -5.60137 0
M  V30 3786 O 352.362 -0.828103 -5.96176 0
M  V30 3787 H 356.188 -1.38629 -2.70214 0
M  V30 3788 H 353.773 -0.739769 -1.29799 0
M  V30 3789 H 355.655 0.575433 -4.17453 0
M  V30 3790 H 354.33 1.03048 -3.0686 0
M  V30 3791 H 353.237 -1.24059 -3.52931 0
M  V30 3792 H 354.57 -1.61364 -4.64997 0
M  V30 3793 N 356.222 1.38976 -0.743202 0
M  V30 3794 C 357.47 1.99948 -0.29417 0
M  V30 3795 C 357.791 1.59279 1.12495 0
M  V30 3796 O 357.061 0.844808 1.76748 0
M  V30 3797 H 355.641 0.739473 -0.105774 0
M  V30 3798 H 358.303 1.699 -0.954986 0
M  V30 3799 H 357.399 3.10142 -0.349056 0
M  V30 3800 N 357.7 0.491464 1.49741 0
M  V30 3801 C 358.61 -0.296835 2.32715 0
M  V30 3802 C 359.626 -0.976536 1.44013 0
M  V30 3803 O 360.802 -0.960023 1.77047 0
M  V30 3804 C 357.867 -1.35288 3.19215 0
M  V30 3805 C 356.928 -0.687632 4.23757 0
M  V30 3806 C 356.161 -1.69336 5.06123 0
M  V30 3807 O 356.384 -2.92219 4.89861 0
M  V30 3808 O 355.318 -1.25394 5.88693 0
M  V30 3809 H 359.144 0.382048 3.01287 0
M  V30 3810 H 356.729 0.252953 1.47243 0
M  V30 3811 H 358.611 -1.96411 3.72828 0
M  V30 3812 H 357.286 -2.01487 2.53347 0
M  V30 3813 H 356.193 -0.0369159 3.74082 0
M  V30 3814 H 357.526 -0.0682566 4.92153 0
M  V30 3815 N 359.178 -1.55987 0.224894 0
M  V30 3816 C 360.455 -1.90232 -0.455083 0
M  V30 3817 C 360.835 -1.14269 -1.77499 0
M  V30 3818 O 360.183 -0.253079 -2.27094 0
M  V30 3819 C 360.393 -3.42993 -0.644758 0
M  V30 3820 C 361.741 -4.13821 -0.950669 0
M  V30 3821 O 362.765 -3.4861 -0.731423 0
M  V30 3822 O 361.624 -5.29128 -1.36695 0
M  V30 3823 H 358.718 -0.79108 -0.241084 0
M  V30 3824 H 361.264 -1.67581 0.267327 0
M  V30 3825 H 360.036 -3.90252 0.28613 0
M  V30 3826 H 359.659 -3.71434 -1.41853 0
M  V30 3827 N 360.656 0.0484629 -1.57525 0
M  V30 3828 C 361.586 1.0549 -2.08313 0
M  V30 3829 C 362.567 1.38929 -0.981463 0
M  V30 3830 O 363.752 1.48151 -1.25558 0
M  V30 3831 C 360.882 2.36162 -2.54646 0
M  V30 3832 C 359.836 2.17016 -3.68901 0
M  V30 3833 C 359.162 3.53278 -4.01371 0
M  V30 3834 C 360.462 1.57219 -4.98076 0
M  V30 3835 H 362.156 0.632195 -2.92649 0
M  V30 3836 H 359.702 0.302654 -1.40784 0
M  V30 3837 H 361.655 3.06882 -2.88793 0
M  V30 3838 H 360.379 2.80456 -1.67368 0
M  V30 3839 H 359.038 1.48733 -3.35073 0
M  V30 3840 H 358.686 3.95185 -3.11188 0
M  V30 3841 H 358.386 3.41299 -4.78318 0
M  V30 3842 H 359.91 4.25391 -4.38035 0
M  V30 3843 H 361.324 2.17832 -5.30304 0
M  V30 3844 H 359.721 1.55871 -5.79503 0
M  V30 3845 H 360.791 0.535956 -4.81929 0
M  V30 3846 N 362.134 1.5431 0.320358 0
M  V30 3847 C 363.066 1.80262 1.41556 0
M  V30 3848 C 364.079 0.684723 1.477 0
M  V30 3849 O 365.268 0.961886 1.50366 0
M  V30 3850 C 362.368 1.90825 2.8007 0
M  V30 3851 C 361.541 3.21023 2.97091 0
M  V30 3852 C 360.6 3.22247 4.15985 0
M  V30 3853 O 359.626 3.95871 4.08992 0
M  V30 3854 N 360.828 2.46258 5.25678 0
M  V30 3855 H 363.593 2.74778 1.19655 0
M  V30 3856 H 361.154 1.53646 0.510358 0
M  V30 3857 H 363.146 1.89067 3.57821 0
M  V30 3858 H 361.716 1.03392 2.95006 0
M  V30 3859 H 360.936 3.35715 2.06614 0
M  V30 3860 H 362.224 4.0698 3.05361 0
M  V30 3861 H 361.622 1.86037 5.34235 0
M  V30 3862 H 360.179 2.50275 6.01835 0
M  V30 3863 N 363.613 -0.582584 1.46437 0
M  V30 3864 C 364.838 -1.37168 1.55563 0
M  V30 3865 C 365.263 -1.87061 0.19743 0
M  V30 3866 O 364.621 -1.61572 -0.822451 0
M  V30 3867 C 364.669 -2.53511 2.56446 0
M  V30 3868 O 363.773 -3.54953 2.09958 0
M  V30 3869 H 363.114 -0.408494 0.523477 0
M  V30 3870 H 365.644 -0.706646 1.9201 0
M  V30 3871 H 365.654 -3.00426 2.76058 0
M  V30 3872 H 364.329 -2.16549 3.55076 0
M  V30 3873 H 362.906 -3.14516 2.00334 0
M  V30 3874 N 365.091 -1.34144 -0.827227 0
M  V30 3875 C 366.331 -1.27603 -1.59677 0
M  V30 3876 C 366.695 0.153035 -1.91389 0
M  V30 3877 O 367.896 0.342566 -2.66608 0
M  V30 3878 C 366.167 -2.13784 -2.86411 0
M  V30 3879 S 367.726 -2.24552 -3.76991 0
M  V30 3880 H 364.544 -0.453789 -0.547354 0
M  V30 3881 H 367.146 -1.69309 -0.977479 0
M  V30 3882 H 365.85 -3.16627 -2.61104 0
M  V30 3883 H 365.381 -1.72959 -3.5334 0
M  V30 3884 H 367.396 -1.41514 -4.75593 0
M  V30 3885 N 366.569 1.04691 -1.17803 0
M  V30 3886 C 367.499 2.14494 -0.92275 0
M  V30 3887 C 368.48 1.69546 0.137179 0
M  V30 3888 O 369.665 1.94195 -0.0141108 0
M  V30 3889 C 366.795 3.44491 -0.440803 0
M  V30 3890 C 365.749 4.03031 -1.4405 0
M  V30 3891 C 365.075 5.28432 -0.81631 0
M  V30 3892 C 366.375 4.39932 -2.81527 0
M  V30 3893 H 368.069 2.36107 -1.84103 0
M  V30 3894 H 365.615 1.1347 -0.886599 0
M  V30 3895 H 367.568 4.2066 -0.249602 0
M  V30 3896 H 366.292 3.22546 0.513025 0
M  V30 3897 H 364.951 3.28937 -1.61853 0
M  V30 3898 H 364.599 5.02792 0.144511 0
M  V30 3899 H 364.299 5.68559 -1.48371 0
M  V30 3900 H 365.823 6.07284 -0.635496 0
M  V30 3901 H 367.237 5.07113 -2.67412 0
M  V30 3902 H 365.634 4.9109 -3.44892 0
M  V30 3903 H 366.704 3.50045 -3.35554 0
M  V30 3904 N 368.047 0.979072 1.23499 0
M  V30 3905 C 369.296 0.642751 1.91185 0
M  V30 3906 C 369.609 -0.827253 1.77245 0
M  V30 3907 O 370.815 -1.27458 2.39722 0
M  V30 3908 C 369.271 1.09901 3.42709 0
M  V30 3909 C 368.879 2.59327 3.65313 0
M  V30 3910 C 370.623 0.836371 4.16179 0
M  V30 3911 C 368.53 2.98627 5.10467 0
M  V30 3912 H 367.46 0.236698 0.715884 0
M  V30 3913 H 370.111 1.1868 1.39955 0
M  V30 3914 H 368.493 0.48319 3.93041 0
M  V30 3915 H 369.667 3.26136 3.25533 0
M  V30 3916 H 367.982 2.83323 3.05151 0
M  V30 3917 H 370.579 1.10586 5.23139 0
M  V30 3918 H 370.922 -0.227509 4.15678 0
M  V30 3919 H 371.455 1.41371 3.71832 0
M  V30 3920 H 368.194 4.04133 5.16098 0
M  V30 3921 H 367.714 2.3651 5.51201 0
M  V30 3922 H 369.393 2.89159 5.78788 0
M  V30 3923 N 369.525 -1.3858 0.750561 0
M  V30 3924 C 370.765 -2.02032 0.310258 0
M  V30 3925 C 371.129 -1.58288 -1.08668 0
M  V30 3926 O 372.33 -2.14049 -1.62593 0
M  V30 3927 C 370.601 -3.54856 0.425647 0
M  V30 3928 S 372.16 -4.38748 0.0674797 0
M  V30 3929 H 368.978 -0.700705 0.120554 0
M  V30 3930 H 371.58 -1.69134 0.980512 0
M  V30 3931 H 370.284 -3.84182 1.44335 0
M  V30 3932 H 369.815 -3.92527 -0.261894 0
M  V30 3933 H 371.83 -4.82835 -1.14388 0
M  V30 3934 N 371.003 -0.499398 -1.49478 0
M  V30 3935 C 372.249 0.0457576 -2.02748 0
M  V30 3936 C 372.582 1.36793 -1.37846 0
M  V30 3937 O 371.857 1.87596 -0.513601 0
M  V30 3938 C 372.14 0.199986 -3.59544 0
M  V30 3939 C 371.993 -1.1452 -4.34977 0
M  V30 3940 C 373.312 0.94137 -4.29914 0
M  V30 3941 H 370.431 0.0151552 -0.736844 0
M  V30 3942 H 373.073 -0.650498 -1.78518 0
M  V30 3943 H 371.223 0.793007 -3.8032 0
M  V30 3944 H 372.895 -1.77697 -4.25701 0
M  V30 3945 H 371.138 -1.73488 -3.97598 0
M  V30 3946 H 371.809 -0.990607 -5.43039 0
M  V30 3947 H 374.285 0.43844 -4.13784 0
M  V30 3948 H 373.161 1.01812 -5.39375 0
M  V30 3949 H 373.422 1.98471 -3.95046 0
M  V30 3950 N 372.481 1.55866 -0.233164 0
M  V30 3951 C 373.444 2.1953 0.658715 0
M  V30 3952 C 374.444 1.16053 1.11303 0
M  V30 3953 O 375.634 1.41218 1.01996 0
M  V30 3954 C 372.766 2.82791 1.90373 0
M  V30 3955 H 373.959 2.99721 0.10347 0
M  V30 3956 H 371.512 1.56291 0.0164245 0
M  V30 3957 H 372.247 2.06501 2.50056 0
M  V30 3958 H 372.032 3.58578 1.58632 0
M  V30 3959 H 373.522 3.31556 2.53891 0
M  V30 3960 N 373.959 -0.0401083 1.57549 0
M  V30 3961 C 375.375 -0.395556 1.54621 0
M  V30 3962 C 375.575 -1.77281 0.957799 0
M  V30 3963 O 374.631 -2.45888 0.574031 0
M  V30 3964 C 375.944 -0.307535 2.99123 0
M  V30 3965 C 377.492 -0.385425 3.10618 0
M  V30 3966 C 377.967 -0.326973 4.56831 0
M  V30 3967 N 379.458 -0.386102 4.61588 0
M  V30 3968 C 380.193 -0.363591 5.72246 0
M  V30 3969 N 379.689 -0.29402 6.92176 0
M  V30 3970 N 381.482 -0.412503 5.60584 0
M  V30 3971 H 373.633 0.861325 1.94152 0
M  V30 3972 H 375.896 0.326445 0.890021 0
M  V30 3973 H 375.602 0.638461 3.45856 0
M  V30 3974 H 375.476 -1.10552 3.60636 0
M  V30 3975 H 377.863 -1.32185 2.63839 0
M  V30 3976 H 377.944 0.44171 2.51957 0
M  V30 3977 H 377.588 0.605738 5.04275 0
M  V30 3978 H 377.518 -1.17207 5.13391 0
M  V30 3979 H 380.009 -0.442832 3.75296 0
M  V30 3980 H 380.322 -0.28164 7.72287 0
M  V30 3981 H 378.667 -0.260232 6.94513 0
M  V30 3982 H 381.858 -0.464769 4.65787 0
M  V30 3983 H 382.031 -0.391492 6.46816 0
M  V30 3984 N 375.437 -1.54477 -0.31217 0
M  V30 3985 C 376.853 -1.45442 -0.657185 0
M  V30 3986 C 377.053 -0.63653 -1.91182 0
M  V30 3987 O 376.109 -0.139815 -2.52113 0
M  V30 3988 C 377.422 -2.89287 -0.82058 0
M  V30 3989 C 378.97 -2.9926 -0.917188 0
M  V30 3990 C 379.445 -4.44279 -1.11267 0
M  V30 3991 N 380.936 -4.4794 -1.17914 0
M  V30 3992 C 381.671 -5.57318 -1.34848 0
M  V30 3993 N 381.167 -6.76642 -1.48752 0
M  V30 3994 N 382.96 -5.44986 -1.37647 0
M  V30 3995 H 375.111 -2.06129 0.512313 0
M  V30 3996 H 377.374 -0.933088 0.167485 0
M  V30 3997 H 377.08 -3.51687 0.0302604 0
M  V30 3998 H 376.954 -3.36061 -1.71298 0
M  V30 3999 H 379.341 -2.36981 -1.75852 0
M  V30 4000 H 379.422 -2.558 -0.00101257 0
M  V30 4001 H 379.066 -5.07149 -0.27614 0
M  V30 4002 H 378.996 -4.85359 -2.04289 0
M  V30 4003 H 381.487 -3.61969 -1.08567 0
M  V30 4004 H 381.8 -7.55758 -1.61397 0
M  V30 4005 H 380.145 -6.79529 -1.45828 0
M  V30 4006 H 383.336 -4.50715 -1.26388 0
M  V30 4007 H 383.509 -6.3028 -1.50501 0
M  V30 4008 N 376.915 0.57481 -1.46744 0
M  V30 4009 C 378.161 1.3347 -1.52688 0
M  V30 4010 C 378.494 1.93353 -0.181229 0
M  V30 4011 O 377.769 1.76912 0.808237 0
M  V30 4012 C 378.052 2.45811 -2.63152 0
M  V30 4013 C 377.905 1.90912 -4.07275 0
M  V30 4014 C 379.224 3.47822 -2.69644 0
M  V30 4015 H 376.343 0.483935 -0.555856 0
M  V30 4016 H 378.985 0.644968 -1.78718 0
M  V30 4017 H 377.135 3.04646 -2.41088 0
M  V30 4018 H 378.807 1.36473 -4.4065 0
M  V30 4019 H 377.05 1.21691 -4.16382 0
M  V30 4020 H 377.721 2.72042 -4.80309 0
M  V30 4021 H 380.197 2.9888 -2.895 0
M  V30 4022 H 379.073 4.23876 -3.48742 0
M  V30 4023 H 379.334 4.05555 -1.76005 0
M  V30 4024 N 378.394 1.34581 0.820102 0
M  V30 4025 C 379.805 1.24298 1.39309 0
M  V30 4026 C 380.156 -0.130351 1.95767 0
M  V30 4027 O 379.281 -1.0308 1.90272 0
M  V30 4028 C 379.876 2.25054 2.53251 0
M  V30 4029 C 378.435 2.18552 3.0645 0
M  V30 4030 C 377.582 2.11503 1.79337 0
M  V30 4031 H 380.533 1.45906 0.624262 0
M  V30 4032 H 380.554 1.86917 3.31425 0
M  V30 4033 H 380.066 3.24996 2.1213 0
M  V30 4034 H 378.167 1.21976 3.52069 0
M  V30 4035 H 378.28 3.0993 3.65349 0
M  V30 4036 H 376.644 1.57268 2.00347 0
M  V30 4037 H 377.427 3.13284 1.40386 0
M  V30 4038 N 379.872 -1.04064 1.18357 0
M  V30 4039 C 380.805 -2.11618 0.854 0
M  V30 4040 C 381.783 -1.61555 -0.184043 0
M  V30 4041 O 382.967 -1.88395 -0.0630048 0
M  V30 4042 C 380.094 -3.37574 0.27597 0
M  V30 4043 C 379.14 -4.06485 1.2912 0
M  V30 4044 S 379.973 -4.53543 2.84709 0
M  V30 4045 C 381.129 -5.82732 2.28417 0
M  V30 4046 H 381.362 -2.39247 1.76488 0
M  V30 4047 H 378.895 -1.16832 1.00944 0
M  V30 4048 H 380.853 -4.10468 -0.051026 0
M  V30 4049 H 379.514 -3.0806 -0.613028 0
M  V30 4050 H 378.707 -4.97024 0.835633 0
M  V30 4051 H 378.309 -3.39708 1.56443 0
M  V30 4052 H 380.601 -6.56677 1.66677 0
M  V30 4053 H 381.544 -6.33052 3.17256 0
M  V30 4054 H 381.952 -5.37838 1.71436 0
M  V30 4055 N 381.35 -0.985608 -1.22978 0
M  V30 4056 C 382.297 -0.529825 -2.24636 0
M  V30 4057 C 383.267 0.434028 -1.60329 0
M  V30 4058 O 384.452 0.340414 -1.87739 0
M  V30 4059 C 381.592 0.156533 -3.44745 0
M  V30 4060 C 380.705 -0.848197 -4.23591 0
M  V30 4061 C 379.84 -0.136109 -5.31026 0
M  V30 4062 C 378.879 -1.1297 -6.01585 0
M  V30 4063 N 378.016 -0.446415 -7.00679 0
M  V30 4064 H 382.856 -1.40148 -2.62988 0
M  V30 4065 H 380.393 -0.702168 -1.29259 0
M  V30 4066 H 382.351 0.571324 -4.1327 0
M  V30 4067 H 380.981 0.992025 -3.07179 0
M  V30 4068 H 380.033 -1.38135 -3.54433 0
M  V30 4069 H 381.345 -1.60512 -4.72268 0
M  V30 4070 H 380.499 0.335784 -6.0577 0
M  V30 4071 H 379.238 0.653373 -4.83304 0
M  V30 4072 H 378.243 -1.6123 -5.25628 0
M  V30 4073 H 379.468 -1.91993 -6.51395 0
M  V30 4074 H 377.414 0.323763 -6.55201 0
M  V30 4075 H 377.331 -1.1419 -7.47326 0
M  V30 4076 H 378.599 0.00291697 -7.795 0
M  V30 4077 N 382.828 1.3818 -0.7579 0
M  V30 4078 C 383.738 2.3421 -0.135247 0
M  V30 4079 C 384.754 1.59487 0.695683 0
M  V30 4080 O 385.93 1.91657 0.618832 0
M  V30 4081 C 382.995 3.3862 0.744139 0
M  V30 4082 C 382.056 4.2918 -0.101658 0
M  V30 4083 C 381.289 5.28603 0.735851 0
M  V30 4084 O 381.512 5.35166 1.97366 0
M  V30 4085 O 380.446 6.01707 0.152372 0
M  V30 4086 H 384.272 2.8916 -0.928436 0
M  V30 4087 H 381.857 1.40101 -0.518855 0
M  V30 4088 H 383.739 4.02539 1.2466 0
M  V30 4089 H 382.414 2.86019 1.51575 0
M  V30 4090 H 381.321 3.68407 -0.650167 0
M  V30 4091 H 382.654 4.85048 -0.836024 0
M  V30 4092 N 384.306 0.507319 1.49211 0
M  V30 4093 C 385.722 0.163682 1.58758 0
M  V30 4094 C 385.922 -1.33208 1.51188 0
M  V30 4095 O 384.978 -2.10855 1.38911 0
M  V30 4096 C 386.291 0.746095 2.91297 0
M  V30 4097 C 387.839 0.712773 3.04776 0
M  V30 4098 C 388.314 1.27336 4.39943 0
M  V30 4099 N 389.805 1.23433 4.46451 0
M  V30 4100 C 390.54 1.63821 5.495 0
M  V30 4101 N 390.036 2.11832 6.5962 0
M  V30 4102 N 391.829 1.55198 5.4025 0
M  V30 4103 H 383.98 1.47972 1.52375 0
M  V30 4104 H 386.243 0.614147 0.722168 0
M  V30 4105 H 385.949 1.79534 3.02424 0
M  V30 4106 H 385.823 0.210137 3.76614 0
M  V30 4107 H 388.21 -0.327656 2.93275 0
M  V30 4108 H 388.291 1.28595 2.21127 0
M  V30 4109 H 387.935 2.3126 4.52196 0
M  V30 4110 H 387.865 0.676066 5.22242 0
M  V30 4111 H 390.356 0.882627 3.67448 0
M  V30 4112 H 390.669 2.40703 7.34358 0
M  V30 4113 H 389.014 2.1581 6.60644 0
M  V30 4114 H 392.205 1.17505 4.53112 0
M  V30 4115 H 392.378 1.86997 6.20432 0
M  V30 4116 N 385.784 -1.5574 0.241426 0
M  V30 4117 C 387.195 -1.84842 -0.262755 0
M  V30 4118 C 387.546 -1.16317 -1.58003 0
M  V30 4119 O 386.671 -0.439653 -2.11887 0
M  V30 4120 C 387.266 -3.35332 -0.483523 0
M  V30 4121 C 385.825 -3.6468 -0.931977 0
M  V30 4122 C 384.972 -2.77299 -0.0061151 0
M  V30 4123 H 387.923 -1.51761 0.464129 0
M  V30 4124 H 387.944 -3.56615 -1.32688 0
M  V30 4125 H 387.456 -3.85178 0.47537 0
M  V30 4126 H 385.557 -3.20307 -1.90353 0
M  V30 4127 H 385.67 -4.72498 -0.792628 0
M  V30 4128 H 384.034 -2.49408 -0.516503 0
M  V30 4129 H 384.817 -3.2995 0.948052 0
M  V30 4130 N 387.262 0.0317525 -1.57568 0
M  V30 4131 C 388.508 0.724175 -1.8943 0
M  V30 4132 C 388.841 1.75149 -0.838836 0
M  V30 4133 O 388.116 1.93948 0.146422 0
M  V30 4134 C 388.399 1.39615 -3.31933 0
M  V30 4135 C 388.252 0.382537 -4.4817 0
M  V30 4136 C 389.571 2.33084 -3.73309 0
M  V30 4137 H 386.69 0.261797 -0.688935 0
M  V30 4138 H 389.332 -0.013017 -1.89996 0
M  V30 4139 H 387.482 2.02451 -3.31581 0
M  V30 4140 H 389.154 -0.243689 -4.60656 0
M  V30 4141 H 387.397 -0.29844 -4.32772 0
M  V30 4142 H 388.068 0.891145 -5.44759 0
M  V30 4143 H 390.544 1.80295 -3.7501 0
M  V30 4144 H 389.42 2.77084 -4.73831 0
M  V30 4145 H 389.681 3.19643 -3.05419 0
M  V30 4146 N 388.74 1.54641 0.303973 0
M  V30 4147 C 389.67 1.88386 1.3796 0
M  V30 4148 C 390.651 0.742485 1.5304 0
M  V30 4149 O 391.836 0.997959 1.66597 0
M  V30 4150 C 388.966 2.12854 2.74427 0
M  V30 4151 C 387.92 3.28702 2.74115 0
M  V30 4152 C 387.246 3.38582 4.13844 0
M  V30 4153 C 388.546 4.65881 2.3612 0
M  V30 4154 H 390.24 2.78474 1.09966 0
M  V30 4155 H 387.786 1.33988 0.527556 0
M  V30 4156 H 389.739 2.35047 3.49758 0
M  V30 4157 H 388.463 1.19535 3.03939 0
M  V30 4158 H 387.122 3.06428 2.0124 0
M  V30 4159 H 386.77 2.42784 4.40528 0
M  V30 4160 H 386.47 4.16453 4.14537 0
M  V30 4161 H 387.994 3.63031 4.90959 0
M  V30 4162 H 389.408 4.87823 3.01167 0
M  V30 4163 H 387.805 5.46444 2.48031 0
M  V30 4164 H 388.875 4.66799 1.3125 0
M  V30 4165 N 390.218 -0.567019 1.47046 0
M  V30 4166 C 391.629 -1.14916 1.47143 0
M  V30 4167 C 391.98 -1.94954 0.220767 0
M  V30 4168 O 391.105 -2.05602 -0.67505 0
M  V30 4169 C 391.7 -2.09069 2.666 0
M  V30 4170 C 390.259 -2.62575 2.69687 0
M  V30 4171 C 389.406 -1.38755 2.40088 0
M  V30 4172 H 392.357 -0.354126 1.54699 0
M  V30 4173 H 392.378 -2.92789 2.43011 0
M  V30 4174 H 391.89 -1.50789 3.57609 0
M  V30 4175 H 389.991 -3.24681 1.82792 0
M  V30 4176 H 390.104 -3.04239 3.70102 0
M  V30 4177 H 388.468 -1.69098 1.90468 0
M  V30 4178 H 389.251 -0.822822 3.33293 0
M  V30 4179 N 391.696 -1.35014 -0.812953 0
M  V30 4180 C 392.921 -1.31187 -1.60639 0
M  V30 4181 C 393.346 0.109382 -1.87782 0
M  V30 4182 O 392.704 1.07424 -1.46047 0
M  V30 4183 C 392.752 -2.11809 -2.91838 0
M  V30 4184 O 391.856 -1.49444 -3.8437 0
M  V30 4185 H 391.197 -0.450084 -0.488181 0
M  V30 4186 H 393.727 -1.77963 -1.00947 0
M  V30 4187 H 393.737 -2.23531 -3.41318 0
M  V30 4188 H 392.412 -3.15137 -2.71407 0
M  V30 4189 H 390.989 -1.46524 -3.42907 0
M  V30 4190 N 393.175 1.03435 -1.18907 0
M  V30 4191 C 394.4 1.80919 -1.01406 0
M  V30 4192 C 394.825 1.83055 0.432721 0
M  V30 4193 O 394.183 1.25252 1.31079 0
M  V30 4194 C 394.231 3.24091 -1.58105 0
M  V30 4195 O 393.335 4.04434 -0.806669 0
M  V30 4196 H 392.676 0.558709 -0.358803 0
M  V30 4197 H 395.206 1.30223 -1.57807 0
M  V30 4198 H 395.216 3.74853 -1.61087 0
M  V30 4199 H 393.891 3.21851 -2.6341 0
M  V30 4200 H 392.468 3.63091 -0.849666 0
M  V30 4201 N 394.653 0.992116 1.22453 0
M  V30 4202 C 395.563 0.55065 2.28046 0
M  V30 4203 C 396.579 -0.400189 1.69335 0
M  V30 4204 O 397.755 -0.267215 1.99619 0
M  V30 4205 C 394.82 -0.128496 3.46462 0
M  V30 4206 C 393.881 0.865208 4.20491 0
M  V30 4207 C 393.114 0.218377 5.33253 0
M  V30 4208 O 393.337 -0.987894 5.6178 0
M  V30 4209 O 392.271 0.922845 5.94783 0
M  V30 4210 H 396.097 1.4291 2.67975 0
M  V30 4211 H 393.682 0.760326 1.28606 0
M  V30 4212 H 395.564 -0.508947 4.18315 0
M  V30 4213 H 394.239 -0.981526 3.0846 0
M  V30 4214 H 393.146 1.29658 3.50913 0
M  V30 4215 H 394.479 1.68741 4.62371 0
M  V30 4216 N 396.131 -1.37776 0.765217 0
M  V30 4217 C 397.356 -2.04651 0.336537 0
M  V30 4218 C 397.781 -1.57337 -1.03086 0
M  V30 4219 O 397.139 -0.730621 -1.65927 0
M  V30 4220 C 397.187 -3.58577 0.381468 0
M  V30 4221 O 396.291 -4.07706 -0.62042 0
M  V30 4222 H 395.632 -0.64756 0.146838 0
M  V30 4223 H 398.162 -1.76221 1.03959 0
M  V30 4224 H 398.172 -4.07314 0.236448 0
M  V30 4225 H 396.847 -3.9237 1.37907 0
M  V30 4226 H 395.424 -3.70306 -0.439056 0
M  V30 4227 N 397.609 -0.515225 -1.4894 0
M  V30 4228 C 398.856 0.024215 -2.02486 0
M  V30 4229 C 399.184 1.35671 -1.39368 0
M  V30 4230 O 398.439 1.88566 -0.523574 0
M  V30 4231 C 398.738 0.210595 -3.56779 0
M  V30 4232 C 398.404 -1.04569 -4.38607 0
M  V30 4233 C 397.066 -1.39002 -4.60686 0
M  V30 4234 C 399.418 -1.88008 -4.86109 0
M  V30 4235 C 396.746 -2.568 -5.27514 0
M  V30 4236 C 399.098 -3.04972 -5.54234 0
M  V30 4237 C 397.762 -3.39768 -5.74555 0
M  V30 4238 H 397.032 0.00886088 -0.740947 0
M  V30 4239 H 399.679 -0.678263 -1.79086 0
M  V30 4240 H 397.984 0.99572 -3.78936 0
M  V30 4241 H 399.681 0.642659 -3.95817 0
M  V30 4242 H 396.271 -0.767497 -4.21672 0
M  V30 4243 H 400.455 -1.62719 -4.68867 0
M  V30 4244 H 395.711 -2.8398 -5.41447 0
M  V30 4245 H 399.885 -3.69943 -5.90013 0
M  V30 4246 H 397.512 -4.31148 -6.26112 0
M  V30 4247 N 399.087 1.5561 -0.249682 0
M  V30 4248 C 400.315 2.03411 0.378352 0
M  V30 4249 C 400.73 1.12886 1.51335 0
M  V30 4250 O 400.087 0.143833 1.81932 0
M  V30 4251 C 400.138 3.50537 0.88351 0
M  V30 4252 O 399.859 4.37614 -0.20626 0
M  V30 4253 C 401.36 4.14113 1.58195 0
M  V30 4254 H 398.58 0.664994 0.08958 0
M  V30 4255 H 401.124 2.01044 -0.374357 0
M  V30 4256 H 399.279 3.5343 1.58639 0
M  V30 4257 H 399.693 5.24199 0.177782 0
M  V30 4258 H 401.167 5.18741 1.8871 0
M  V30 4259 H 401.644 3.60767 2.50487 0
M  V30 4260 H 402.25 4.15151 0.923573 0
M  V30 4261 N 400.565 -0.0233959 1.57583 0
M  V30 4262 C 401.793 -0.724682 1.93794 0
M  V30 4263 C 402.208 -1.68588 0.849912 0
M  V30 4264 O 401.565 -1.81676 -0.173204 0
M  V30 4265 C 401.616 -1.47684 3.29957 0
M  V30 4266 O 401.337 -0.554222 4.3458 0
M  V30 4267 C 402.838 -2.27477 3.80485 0
M  V30 4268 H 400.058 -0.203317 0.639455 0
M  V30 4269 H 402.602 0.0207653 2.04489 0
M  V30 4270 H 400.757 -2.17412 3.20641 0
M  V30 4271 H 401.171 -1.08232 5.13212 0
M  V30 4272 H 402.645 -2.7564 4.78254 0
M  V30 4273 H 403.122 -3.09144 3.11972 0
M  V30 4274 H 403.728 -1.62813 3.92902 0
M  V30 4275 N 402.043 -1.548 -0.295768 0
M  V30 4276 C 403.459 -1.4613 -0.641722 0
M  V30 4277 C 403.659 -0.656771 -1.90496 0
M  V30 4278 O 402.715 -0.166547 -2.5195 0
M  V30 4279 C 404.028 -2.90141 -0.789852 0
M  V30 4280 C 405.576 -3.00216 -0.885396 0
M  V30 4281 C 406.051 -4.45434 -1.06548 0
M  V30 4282 N 407.542 -4.49166 -1.13156 0
M  V30 4283 C 408.277 -5.58717 -1.28929 0
M  V30 4284 N 407.773 -6.78182 -1.41567 0
M  V30 4285 N 409.566 -5.46415 -1.31859 0
M  V30 4286 H 401.717 -2.05574 0.534147 0
M  V30 4287 H 403.98 -0.931259 0.177372 0
M  V30 4288 H 403.686 -3.51635 0.0675598 0
M  V30 4289 H 403.56 -3.37859 -1.67724 0
M  V30 4290 H 405.947 -2.38833 -1.73329 0
M  V30 4291 H 406.028 -2.55787 0.0261185 0
M  V30 4292 H 405.672 -5.07413 -0.222335 0
M  V30 4293 H 405.602 -4.87499 -1.9913 0
M  V30 4294 H 408.093 -3.631 -1.04721 0
M  V30 4295 H 408.406 -7.57428 -1.53372 0
M  V30 4296 H 406.751 -6.81037 -1.38613 0
M  V30 4297 H 409.942 -4.5203 -1.21601 0
M  V30 4298 H 410.115 -6.31841 -1.43808 0
M  V30 4299 N 403.521 0.559213 -1.47345 0
M  V30 4300 C 404.453 1.68161 -1.55738 0
M  V30 4301 C 405.466 1.56636 -0.443744 0
M  V30 4302 O 406.655 1.6363 -0.713258 0
M  V30 4303 C 403.755 3.06611 -1.4437 0
M  V30 4304 C 402.928 3.4391 -2.70268 0
M  V30 4305 C 401.987 4.61515 -2.52765 0
M  V30 4306 O 401.013 4.66197 -3.26572 0
M  V30 4307 N 402.215 5.57883 -1.6046 0
M  V30 4308 H 404.98 1.61408 -2.52522 0
M  V30 4309 H 402.541 0.7458 -1.43699 0
M  V30 4310 H 404.533 3.83117 -1.30398 0
M  V30 4311 H 403.103 3.07602 -0.556766 0
M  V30 4312 H 402.323 2.56873 -2.99015 0
M  V30 4313 H 403.611 3.65605 -3.53851 0
M  V30 4314 H 403.009 5.56855 -0.996422 0
M  V30 4315 H 401.566 6.33723 -1.52441 0
M  V30 4316 N 404.999 1.35443 0.805782 0
M  V30 4317 C 406.276 1.19325 1.54987 0
M  V30 4318 C 406.656 -0.227294 2.09873 0
M  V30 4319 O 406.004 -1.2309 1.92512 0
M  V30 4320 C 406.214 2.26196 2.65775 0
M  V30 4321 C 407.562 2.62043 3.34094 0
M  V30 4322 O 408.586 2.25115 2.76046 0
M  V30 4323 O 407.445 3.25542 4.38958 0
M  V30 4324 H 404.539 0.463623 0.684823 0
M  V30 4325 H 407.085 1.47127 0.845674 0
M  V30 4326 H 405.857 3.21471 2.23096 0
M  V30 4327 H 405.48 1.99667 3.43829 0
M  V30 4328 N 406.477 -1.02803 1.19454 0
M  V30 4329 C 407.407 -2.12999 0.956758 0
M  V30 4330 C 408.388 -1.69743 -0.110188 0
M  V30 4331 O 409.573 -1.94148 0.0450038 0
M  V30 4332 C 406.703 -3.43746 0.495553 0
M  V30 4333 C 405.657 -4.00688 1.50443 0
M  V30 4334 C 404.983 -5.27067 0.900275 0
M  V30 4335 C 406.283 -4.35397 2.8849 0
M  V30 4336 H 407.977 -2.33148 1.87836 0
M  V30 4337 H 405.523 -1.12045 0.904539 0
M  V30 4338 H 407.476 -4.2021 0.316493 0
M  V30 4339 H 406.2 -3.23321 -0.461646 0
M  V30 4340 H 404.859 -3.2632 1.67065 0
M  V30 4341 H 404.507 -5.02959 -0.064503 0
M  V30 4342 H 404.207 -5.66127 1.57397 0
M  V30 4343 H 405.731 -6.06196 0.73203 0
M  V30 4344 H 407.145 -5.02795 2.75446 0
M  V30 4345 H 405.542 -4.85541 3.52661 0
M  V30 4346 H 406.612 -3.44662 3.41081 0
M  V30 4347 N 407.956 -0.998596 -1.21925 0
M  V30 4348 C 408.888 -0.511879 -2.23411 0
M  V30 4349 C 409.901 0.396094 -1.57908 0
M  V30 4350 O 411.09 0.197316 -1.77406 0
M  V30 4351 C 408.19 0.276802 -3.37768 0
M  V30 4352 C 407.363 -0.628687 -4.32858 0
M  V30 4353 C 406.422 0.109272 -5.26087 0
M  V30 4354 O 405.448 -0.507237 -5.66935 0
M  V30 4355 N 406.65 1.38983 -5.63617 0
M  V30 4356 H 409.415 -1.38457 -2.658 0
M  V30 4357 H 406.976 -0.873981 -1.36283 0
M  V30 4358 H 408.968 0.77928 -3.97126 0
M  V30 4359 H 407.538 1.05063 -2.94415 0
M  V30 4360 H 406.758 -1.31175 -3.71735 0
M  V30 4361 H 408.046 -1.24514 -4.93329 0
M  V30 4362 H 407.444 1.91194 -5.32411 0
M  V30 4363 H 406.001 1.83739 -6.25367 0
M  V30 4364 N 409.434 1.37368 -0.772513 0
M  V30 4365 C 410.682 1.99279 -0.336516 0
M  V30 4366 C 411.003 1.6163 1.09091 0
M  V30 4367 O 410.273 0.882109 1.74916 0
M  V30 4368 H 408.853 0.737063 -0.121435 0
M  V30 4369 H 411.515 1.67836 -0.990809 0
M  V30 4370 H 410.611 3.09332 -0.414763 0
M  V30 4371 N 410.912 0.523116 1.48665 0
M  V30 4372 C 411.859 -0.243398 2.29513 0
M  V30 4373 C 412.829 -0.940139 1.36933 0
M  V30 4374 O 414.014 -0.942503 1.65896 0
M  V30 4375 C 411.154 -1.28855 3.20141 0
M  V30 4376 C 410.267 -0.60135 4.27794 0
M  V30 4377 C 409.402 -1.62884 5.05611 0
M  V30 4378 C 408.441 -0.924726 6.05075 0
M  V30 4379 N 407.578 -1.89744 6.75975 0
M  V30 4380 H 412.418 0.452234 2.94549 0
M  V30 4381 H 409.955 0.234858 1.45213 0
M  V30 4382 H 411.913 -1.90674 3.71079 0
M  V30 4383 H 410.543 -1.95266 2.57043 0
M  V30 4384 H 409.595 0.130623 3.80176 0
M  V30 4385 H 410.907 -0.0481585 4.98777 0
M  V30 4386 H 410.061 -2.32149 5.60528 0
M  V30 4387 H 408.8 -2.21592 4.34452 0
M  V30 4388 H 407.805 -0.217966 5.49368 0
M  V30 4389 H 409.03 -0.343851 6.78229 0
M  V30 4390 H 406.976 -2.47373 6.07571 0
M  V30 4391 H 406.893 -1.3955 7.43009 0
M  V30 4392 H 408.161 -2.58229 7.35485 0
M  V30 4393 N 412.39 -1.55475 0.257931 0
M  V30 4394 C 413.639 -1.98383 -0.364275 0
M  V30 4395 C 413.952 -1.14952 -1.58258 0
M  V30 4396 O 415.158 -1.47924 -2.27664 0
M  V30 4397 C 413.614 -3.53037 -0.699479 0
M  V30 4398 C 413.222 -4.45223 0.498046 0
M  V30 4399 C 414.966 -4.04575 -1.28526 0
M  V30 4400 C 412.873 -5.91238 0.138383 0
M  V30 4401 H 411.803 -0.740911 -0.13988 0
M  V30 4402 H 414.454 -1.79936 0.359883 0
M  V30 4403 H 412.836 -3.6722 -1.48207 0
M  V30 4404 H 414.01 -4.42803 1.27522 0
M  V30 4405 H 412.325 -4.04226 0.999503 0
M  V30 4406 H 414.922 -5.11196 -1.56788 0
M  V30 4407 H 415.265 -3.5258 -2.21344 0
M  V30 4408 H 415.798 -3.93762 -0.565337 0
M  V30 4409 H 412.537 -6.47294 1.03398 0
M  V30 4410 H 412.057 -5.96768 -0.602374 0
M  V30 4411 H 413.736 -6.46413 -0.27553 0
M  V30 4412 N 413.868 0.0150385 -1.57593 0
M  V30 4413 C 415.096 0.714395 -1.94175 0
M  V30 4414 C 415.511 1.68135 -0.858841 0
M  V30 4415 O 414.868 1.81766 0.163567 0
M  V30 4416 C 414.919 1.45933 -3.30735 0
M  V30 4417 O 414.64 0.531167 -4.34868 0
M  V30 4418 C 416.141 2.25456 -3.81686 0
M  V30 4419 H 413.361 0.199923 -0.640525 0
M  V30 4420 H 415.905 -0.0316096 -2.04476 0
M  V30 4421 H 414.06 2.15709 -3.21789 0
M  V30 4422 H 414.474 1.05509 -5.13778 0
M  V30 4423 H 415.948 2.731 -4.79709 0
M  V30 4424 H 416.425 3.07485 -3.13607 0
M  V30 4425 H 417.031 1.60727 -3.9376 0
M  V30 4426 N 415.346 1.54954 0.287554 0
M  V30 4427 C 416.571 1.79209 1.04397 0
M  V30 4428 C 416.996 0.556431 1.79682 0
M  V30 4429 O 416.354 -0.493518 1.74454 0
M  V30 4430 C 416.402 3.00739 1.98969 0
M  V30 4431 O 415.506 2.74805 3.075 0
M  V30 4432 H 414.847 0.592755 0.299227 0
M  V30 4433 H 417.377 2.02068 0.320886 0
M  V30 4434 H 417.387 3.29077 2.4119 0
M  V30 4435 H 416.062 3.90329 1.43582 0
M  V30 4436 H 414.639 2.57523 2.69697 0
M  V30 4437 N 416.824 -0.551391 1.4764 0
M  V30 4438 C 417.754 -1.66757 1.63445 0
M  V30 4439 C 418.735 -1.63077 0.483742 0
M  V30 4440 O 419.92 -1.80607 0.71377 0
M  V30 4441 C 417.05 -3.05387 1.65396 0
M  V30 4442 C 416.004 -3.23918 2.79752 0
M  V30 4443 C 415.33 -4.63393 2.66779 0
M  V30 4444 C 416.63 -3.08735 4.21284 0
M  V30 4445 H 418.324 -1.53786 2.56886 0
M  V30 4446 H 415.87 -0.738415 1.23626 0
M  V30 4447 H 417.823 -3.83325 1.75043 0
M  V30 4448 H 416.547 -3.19332 0.685195 0
M  V30 4449 H 415.206 -2.48391 2.69625 0
M  V30 4450 H 414.854 -4.74144 1.67918 0
M  V30 4451 H 414.554 -4.7674 3.43501 0
M  V30 4452 H 416.078 -5.43458 2.78364 0
M  V30 4453 H 417.492 -3.76484 4.32357 0
M  V30 4454 H 415.889 -3.33588 4.98838 0
M  V30 4455 H 416.959 -2.0541 4.39243 0
M  V30 4456 N 418.302 -1.35869 -0.798587 0
M  V30 4457 C 419.579 -1.20145 -1.54352 0
M  V30 4458 C 419.959 0.216161 -2.0999 0
M  V30 4459 O 419.307 1.22068 -1.93162 0
M  V30 4460 C 419.517 -2.27602 -2.64572 0
M  V30 4461 C 420.865 -2.63811 -3.32699 0
M  V30 4462 O 421.889 -2.26576 -2.74849 0
M  V30 4463 O 420.748 -3.27866 -4.37226 0
M  V30 4464 H 417.842 -0.467248 -0.682355 0
M  V30 4465 H 420.388 -1.47574 -0.837859 0
M  V30 4466 H 419.16 -3.2265 -2.21388 0
M  V30 4467 H 418.783 -2.01488 -3.42766 0
M  V30 4468 N 419.78 1.02168 -1.19998 0
M  V30 4469 C 421.008 1.79296 -1.03249 0
M  V30 4470 C 421.423 1.84103 0.418502 0
M  V30 4471 O 420.78 1.29031 1.29063 0
M  V30 4472 C 420.831 3.24007 -1.60319 0
M  V30 4473 O 420.552 3.19512 -2.99739 0
M  V30 4474 C 422.053 4.17704 -1.48453 0
M  V30 4475 H 419.273 0.564016 -0.363493 0
M  V30 4476 H 421.817 1.28639 -1.58973 0
M  V30 4477 H 419.972 3.7183 -1.08727 0
M  V30 4478 H 420.386 4.10306 -3.26725 0
M  V30 4479 H 421.86 5.17104 -1.93153 0
M  V30 4480 H 422.337 4.37029 -0.436193 0
M  V30 4481 H 422.943 3.7576 -1.99211 0
M  V30 4482 N 421.258 1.00505 1.21394 0
M  V30 4483 C 422.483 0.706367 1.95001 0
M  V30 4484 C 422.908 -0.72463 1.73582 0
M  V30 4485 O 422.266 -1.49702 1.0227 0
M  V30 4486 C 422.314 1.03299 3.45487 0
M  V30 4487 O 421.418 0.138275 4.12168 0
M  V30 4488 H 420.759 0.263175 0.609619 0
M  V30 4489 H 423.289 1.34531 1.54151 0
M  V30 4490 H 423.299 0.979872 3.96059 0
M  V30 4491 H 421.974 2.07567 3.60401 0
M  V30 4492 H 420.551 0.247928 3.72075 0
M  V30 4493 N 422.737 -1.36956 0.779787 0
M  V30 4494 C 423.965 -2.03755 0.359398 0
M  V30 4495 C 424.38 -1.58807 -1.02106 0
M  V30 4496 O 423.737 -0.773024 -1.6532 0
M  V30 4497 C 423.788 -3.59251 0.402568 0
M  V30 4498 O 423.509 -4.02557 1.72858 0
M  V30 4499 C 425.01 -4.43291 -0.0284068 0
M  V30 4500 H 422.23 -0.654148 0.149437 0
M  V30 4501 H 424.774 -1.75128 1.05595 0
M  V30 4502 H 422.929 -3.86621 -0.245478 0
M  V30 4503 H 423.343 -4.97111 1.67275 0
M  V30 4504 H 424.817 -5.51975 0.0529466 0
M  V30 4505 H 425.294 -4.25719 -1.07982 0
M  V30 4506 H 425.9 -4.21163 0.591758 0
M  V30 4507 N 424.215 -0.530993 -1.48385 0
M  V30 4508 C 425.148 0.278511 -2.26494 0
M  V30 4509 C 426.126 0.943905 -1.32398 0
M  V30 4510 O 427.31 0.968098 -1.61741 0
M  V30 4511 C 424.437 1.39453 -3.08659 0
M  V30 4512 C 423.483 0.840434 -4.18137 0
M  V30 4513 S 424.316 -0.292496 -5.34701 0
M  V30 4514 C 425.472 0.825973 -6.20426 0
M  V30 4515 H 425.705 -0.384365 -2.94805 0
M  V30 4516 H 423.238 -0.316799 -1.51115 0
M  V30 4517 H 425.196 2.03382 -3.56575 0
M  V30 4518 H 423.857 2.02913 -2.3976 0
M  V30 4519 H 423.05 1.67769 -4.75257 0
M  V30 4520 H 422.652 0.277819 -3.72967 0
M  V30 4521 H 424.944 1.72438 -6.55188 0
M  V30 4522 H 425.887 0.292728 -7.07495 0
M  V30 4523 H 426.295 1.10683 -5.53543 0
M  V30 4524 N 425.693 1.55336 -0.266172 0
M  V30 4525 C 427.109 1.59356 0.0882065 0
M  V30 4526 C 427.309 1.2834 1.55342 0
M  V30 4527 O 426.365 1.03996 2.30089 0
M  V30 4528 C 427.678 2.99409 -0.278364 0
M  V30 4529 C 429.226 3.12196 -0.224243 0
M  V30 4530 C 429.701 4.545 -0.565123 0
M  V30 4531 N 431.192 4.60313 -0.51634 0
M  V30 4532 C 431.927 5.68434 -0.753013 0
M  V30 4533 N 431.423 6.84738 -1.05383 0
M  V30 4534 N 433.216 5.57942 -0.682414 0
M  V30 4535 H 425.367 1.73764 -1.22147 0
M  V30 4536 H 427.63 0.809822 -0.492841 0
M  V30 4537 H 427.336 3.2691 -1.29703 0
M  V30 4538 H 427.21 3.75228 0.385186 0
M  V30 4539 H 429.597 2.84464 0.78512 0
M  V30 4540 H 429.678 2.38609 -0.921922 0
M  V30 4541 H 429.322 4.82956 -1.57213 0
M  V30 4542 H 429.252 5.26374 0.154248 0
M  V30 4543 H 431.743 3.7676 -0.29335 0
M  V30 4544 H 432.056 7.63088 -1.22133 0
M  V30 4545 H 430.401 6.86375 -1.09151 0
M  V30 4546 H 433.592 4.65958 -0.44731 0
M  V30 4547 H 433.765 6.4213 -0.870248 0
M  V30 4548 N 427.171 -0.0066808 1.57599 0
M  V30 4549 C 428.134 -0.985035 2.06953 0
M  V30 4550 C 429.134 -1.27663 0.977687 0
M  V30 4551 O 430.324 -1.22293 1.24057 0
M  V30 4552 C 427.456 -2.3118 2.50536 0
M  V30 4553 H 428.649 -0.558255 2.94658 0
M  V30 4554 H 426.202 -0.254011 1.54222 0
M  V30 4555 H 426.937 -2.78561 1.66054 0
M  V30 4556 H 426.722 -2.11338 3.3027 0
M  V30 4557 H 428.212 -3.01377 2.8907 0
M  V30 4558 N 428.649 -1.55105 -0.279332 0
M  V30 4559 C 429.612 -1.86783 -1.32834 0
M  V30 4560 C 430.612 -0.74199 -1.42657 0
M  V30 4561 O 431.802 -1.0102 -1.41918 0
M  V30 4562 C 428.934 -2.06746 -2.71052 0
M  V30 4563 H 430.127 -2.8055 -1.05979 0
M  V30 4564 H 427.68 -1.47499 -0.517087 0
M  V30 4565 H 428.415 -1.15339 -3.03097 0
M  V30 4566 H 428.2 -2.88711 -2.65309 0
M  V30 4567 H 429.69 -2.32549 -3.46858 0
M  V30 4568 N 430.127 0.543554 -1.4793 0
M  V30 4569 C 431.06 1.66556 -1.55995 0
M  V30 4570 C 432.038 1.57315 -0.411205 0
M  V30 4571 O 433.222 1.7798 -0.620922 0
M  V30 4572 C 430.349 3.04883 -1.47527 0
M  V30 4573 C 429.395 3.32526 -2.67074 0
M  V30 4574 S 430.228 3.20282 -4.29162 0
M  V30 4575 C 431.384 4.61079 -4.23269 0
M  V30 4576 H 431.617 1.59462 -2.50917 0
M  V30 4577 H 429.15 0.725456 -1.36296 0
M  V30 4578 H 431.108 3.84665 -1.43328 0
M  V30 4579 H 429.769 3.09429 -0.539665 0
M  V30 4580 H 428.962 4.33403 -2.5725 0
M  V30 4581 H 428.564 2.60389 -2.68466 0
M  V30 4582 H 430.856 5.52318 -3.92365 0
M  V30 4583 H 431.799 4.75959 -5.24279 0
M  V30 4584 H 432.207 4.39766 -3.5393 0
M  V30 4585 N 431.605 1.3629 0.791371 0
M  V30 4586 C 432.552 1.30458 1.90393 0
M  V30 4587 C 433.522 0.173632 1.6519 0
M  V30 4588 O 434.707 0.35983 1.87376 0
M  V30 4589 C 431.847 1.09777 3.27174 0
M  V30 4590 C 430.96 2.31929 3.64462 0
M  V30 4591 C 430.095 2.04276 4.90352 0
M  V30 4592 C 429.134 3.224 5.20312 0
M  V30 4593 N 428.271 2.94424 6.37385 0
M  V30 4594 H 433.111 2.25589 1.94714 0
M  V30 4595 H 430.648 1.12122 0.952216 0
M  V30 4596 H 432.606 0.958133 4.06049 0
M  V30 4597 H 431.236 0.183014 3.22281 0
M  V30 4598 H 430.288 2.56703 2.80727 0
M  V30 4599 H 431.6 3.20085 3.82553 0
M  V30 4600 H 430.754 1.87231 5.77087 0
M  V30 4601 H 429.493 1.13428 4.74326 0
M  V30 4602 H 428.498 3.40005 4.32061 0
M  V30 4603 H 429.723 4.14071 5.38258 0
M  V30 4604 H 427.669 2.06185 6.22755 0
M  V30 4605 H 427.586 3.76118 6.55798 0
M  V30 4606 H 428.854 2.80953 7.27108 0
M  V30 4607 N 433.083 -1.0153 1.20538 0
M  V30 4608 C 434.494 -1.56598 1.01657 0
M  V30 4609 C 434.845 -1.91505 -0.426668 0
M  V30 4610 O 433.97 -1.72375 -1.30827 0
M  V30 4611 C 434.565 -2.84542 1.83905 0
M  V30 4612 C 433.124 -3.36133 1.69386 0
M  V30 4613 C 432.271 -2.09427 1.81757 0
M  V30 4614 H 435.222 -0.838974 1.34711 0
M  V30 4615 H 435.243 -3.56004 1.34319 0
M  V30 4616 H 434.755 -2.59105 2.8894 0
M  V30 4617 H 432.856 -3.66528 0.669933 0
M  V30 4618 H 432.969 -4.08248 2.50739 0
M  V30 4619 H 431.333 -2.21941 1.24957 0
M  V30 4620 H 432.116 -1.86414 2.88279 0
M  V30 4621 N 434.561 -1.01147 -1.20859 0
M  V30 4622 C 435.809 -0.696486 -1.89719 0
M  V30 4623 C 436.13 0.775788 -1.78904 0
M  V30 4624 O 435.4 1.55759 -1.18811 0
M  V30 4625 H 433.98 -0.254628 -0.702263 0
M  V30 4626 H 436.642 -1.28197 -1.46804 0
M  V30 4627 H 435.738 -0.975357 -2.96468 0
M  V30 4628 N 436.039 1.36541 -0.78704 0
M  V30 4629 C 437.285 2.00044 -0.367938 0
M  V30 4630 C 437.64 1.61345 1.04812 0
M  V30 4631 O 436.933 0.856936 1.71368 0
M  V30 4632 C 437.127 3.54343 -0.466485 0
M  V30 4633 C 436.956 4.08029 -1.89058 0
M  V30 4634 C 435.726 4.38284 -2.51466 0
M  V30 4635 C 437.924 4.27954 -2.85236 0
M  V30 4636 N 435.906 4.77778 -3.85488 0
M  V30 4637 C 437.277 4.70227 -4.04088 0
M  V30 4638 C 439.332 4.10119 -2.82324 0
M  V30 4639 C 438.035 4.96532 -5.20432 0
M  V30 4640 C 440.061 4.37569 -3.97854 0
M  V30 4641 C 439.423 4.80095 -5.15449 0
M  V30 4642 H 435.522 0.760525 -0.182004 0
M  V30 4643 H 438.106 1.65589 -1.02413 0
M  V30 4644 H 436.277 3.88072 0.159606 0
M  V30 4645 H 438.009 4.04693 -0.0238577 0
M  V30 4646 H 434.764 4.27905 -2.02965 0
M  V30 4647 H 435.188 5.01813 -4.54437 0
M  V30 4648 H 439.83 3.76399 -1.92571 0
M  V30 4649 H 437.548 5.29134 -6.10773 0
M  V30 4650 H 441.134 4.25341 -3.96958 0
M  V30 4651 H 440.014 5.00925 -6.0336 0
M  V30 4652 N 437.518 0.538854 1.48102 0
M  V30 4653 C 438.428 -0.222648 2.33541 0
M  V30 4654 C 439.444 -0.930225 1.47047 0
M  V30 4655 O 440.62 -0.903211 1.80011 0
M  V30 4656 C 437.685 -1.25064 3.23357 0
M  V30 4657 C 436.746 -0.552469 4.2573 0
M  V30 4658 C 435.979 -1.53149 5.11254 0
M  V30 4659 O 436.202 -2.76487 4.9891 0
M  V30 4660 O 435.136 -1.06602 5.92385 0
M  V30 4661 H 438.962 0.477707 2.99919 0
M  V30 4662 H 436.547 0.299669 1.46364 0
M  V30 4663 H 438.429 -1.8445 3.78888 0
M  V30 4664 H 437.104 -1.93325 2.59629 0
M  V30 4665 H 436.011 0.082114 3.7401 0
M  V30 4666 H 437.344 0.0883526 4.92121 0
M  V30 4667 N 438.996 -1.55193 0.274407 0
M  V30 4668 C 440.273 -1.91584 -0.394331 0
M  V30 4669 C 440.653 -1.19858 -1.73774 0
M  V30 4670 O 440.001 -0.3252 -2.26174 0
M  V30 4671 C 440.211 -3.4487 -0.535311 0
M  V30 4672 C 441.559 -4.16636 -0.818534 0
M  V30 4673 O 442.583 -3.5076 -0.620146 0
M  V30 4674 O 441.442 -5.33209 -1.19792 0
M  V30 4675 H 438.536 -0.798349 -0.215794 0
M  V30 4676 H 441.082 -1.66646 0.320507 0
M  V30 4677 H 439.854 -3.89145 0.410141 0
M  V30 4678 H 439.477 -3.75759 -1.29964 0
M  V30 4679 N 440.474 -0.00167713 -1.576 0
M  V30 4680 C 441.404 0.988091 -2.11563 0
M  V30 4681 C 442.385 1.35736 -1.02517 0
M  V30 4682 O 443.57 1.44082 -1.30208 0
M  V30 4683 C 440.7 2.27941 -2.62031 0
M  V30 4684 C 439.654 2.0517 -3.75619 0
M  V30 4685 C 438.98 3.4033 -4.12407 0
M  V30 4686 C 440.28 1.41294 -5.02825 0
M  V30 4687 H 441.974 0.538771 -2.94513 0
M  V30 4688 H 439.52 0.257712 -1.41675 0
M  V30 4689 H 441.473 2.97539 -2.9841 0
M  V30 4690 H 440.197 2.74989 -1.76205 0
M  V30 4691 H 438.856 1.37998 -3.39635 0
M  V30 4692 H 438.504 3.85085 -3.23603 0
M  V30 4693 H 438.204 3.25909 -4.88935 0
M  V30 4694 H 439.728 4.1124 -4.51347 0
M  V30 4695 H 441.142 2.00851 -5.36965 0
M  V30 4696 H 439.539 1.37356 -5.84169 0
M  V30 4697 H 440.609 0.382362 -4.8339 0
M  V30 4698 N 441.952 1.55251 0.271103 0
M  V30 4699 C 443.198 1.76207 1.00394 0
M  V30 4700 C 443.531 0.562604 1.85872 0
M  V30 4701 O 442.806 -0.439785 1.89463 0
M  V30 4702 C 443.089 3.06828 1.8849 0
M  V30 4703 C 442.942 4.37134 1.05992 0
M  V30 4704 C 444.261 3.33503 2.87165 0
M  V30 4705 H 441.38 0.641086 0.363562 0
M  V30 4706 H 444.022 1.87982 0.276189 0
M  V30 4707 H 442.172 2.96921 2.5054 0
M  V30 4708 H 443.844 4.59001 0.459978 0
M  V30 4709 H 442.087 4.32275 0.363443 0
M  V30 4710 H 442.758 5.2486 1.70955 0
M  V30 4711 H 445.234 3.43215 2.3525 0
M  V30 4712 H 444.11 4.2616 3.45946 0
M  V30 4713 H 444.371 2.53235 3.62387 0
M  V30 4714 N 443.43 -0.535701 1.48216 0
M  V30 4715 C 444.846 -0.863701 1.3421 0
M  V30 4716 C 445.046 -1.98458 0.34879 0
M  V30 4717 O 444.102 -2.51432 -0.23204 0
M  V30 4718 C 445.415 -1.23662 2.74095 0
M  V30 4719 C 446.963 -1.34683 2.82541 0
M  V30 4720 C 447.438 -1.75322 4.23115 0
M  V30 4721 N 448.929 -1.82434 4.2576 0
M  V30 4722 C 449.664 -2.15252 5.31464 0
M  V30 4723 N 449.16 -2.46533 6.47452 0
M  V30 4724 N 450.953 -2.16209 5.18855 0
M  V30 4725 H 443.104 0.203965 2.11418 0
M  V30 4726 H 445.367 0.0286033 0.947568 0
M  V30 4727 H 445.073 -0.486674 3.48316 0
M  V30 4728 H 444.947 -2.18805 3.07253 0
M  V30 4729 H 447.334 -2.08756 2.08579 0
M  V30 4730 H 447.415 -0.376756 2.5301 0
M  V30 4731 H 447.059 -1.01812 4.97591 0
M  V30 4732 H 446.989 -2.7337 4.50085 0
M  V30 4733 H 449.48 -1.6056 3.42095 0
M  V30 4734 H 449.793 -2.70662 7.23852 0
M  V30 4735 H 448.138 -2.44065 6.50736 0
M  V30 4736 H 451.329 -1.91224 4.2726 0
M  V30 4737 H 451.502 -2.41453 6.01335 0
M  V30 4738 N 444.908 -1.36708 -0.784132 0
M  V30 4739 C 446.324 -1.17237 -1.08294 0
M  V30 4740 C 446.524 -5.93947e-05 -2.015 0
M  V30 4741 O 445.58 0.663686 -2.43622 0
M  V30 4742 C 446.893 -2.48557 -1.69233 0
M  V30 4743 C 448.441 -2.54968 -1.8155 0
M  V30 4744 C 448.916 -3.86388 -2.45904 0
M  V30 4745 N 450.407 -3.87762 -2.53367 0
M  V30 4746 C 451.142 -4.86191 -3.03983 0
M  V30 4747 N 450.638 -5.95015 -3.54866 0
M  V30 4748 N 452.431 -4.73606 -3.02743 0
M  V30 4749 H 444.582 -2.11758 -0.16501 0
M  V30 4750 H 446.845 -0.93822 -0.135822 0
M  V30 4751 H 446.551 -3.34638 -1.08215 0
M  V30 4752 H 446.425 -2.64748 -2.68679 0
M  V30 4753 H 448.812 -1.69302 -2.41704 0
M  V30 4754 H 448.893 -2.42672 -0.80895 0
M  V30 4755 H 448.537 -4.72462 -1.86392 0
M  V30 4756 H 448.467 -3.95982 -3.4714 0
M  V30 4757 H 450.958 -3.09145 -2.17343 0
M  V30 4758 H 451.271 -6.66086 -3.91854 0
M  V30 4759 H 449.616 -5.98676 -3.53003 0
M  V30 4760 H 452.807 -3.87717 -2.62284 0
M  V30 4761 H 452.98 -5.50473 -3.41881 0
M  V30 4762 N 446.386 1.0089 -1.21074 0
M  V30 4763 C 447.626 1.76142 -1.03699 0
M  V30 4764 C 447.99 1.87292 0.422587 0
M  V30 4765 O 449.191 2.59068 0.716752 0
M  V30 4766 C 447.462 3.13805 -1.7106 0
M  V30 4767 S 449.021 4.04996 -1.68889 0
M  V30 4768 H 445.839 0.606113 -0.371683 0
M  V30 4769 H 448.441 1.20744 -1.53756 0
M  V30 4770 H 447.145 3.0332 -2.76451 0
M  V30 4771 H 446.676 3.74276 -1.21166 0
M  V30 4772 H 448.691 4.90842 -0.727211 0
M  V30 4773 N 447.864 1.01787 1.20321 0
M  V30 4774 C 449.113 0.703249 1.89043 0
M  V30 4775 C 449.426 -0.770445 1.79787 0
M  V30 4776 O 450.632 -1.19767 2.43656 0
M  V30 4777 C 449.088 1.20749 3.3904 0
M  V30 4778 C 448.696 2.70817 3.56878 0
M  V30 4779 C 450.44 0.968352 4.13308 0
M  V30 4780 C 448.347 3.14716 5.00708 0
M  V30 4781 H 447.277 0.259354 0.707991 0
M  V30 4782 H 449.928 1.23072 1.36108 0
M  V30 4783 H 448.31 0.607989 3.91305 0
M  V30 4784 H 449.484 3.36327 3.14993 0
M  V30 4785 H 447.799 2.92888 2.95983 0
M  V30 4786 H 450.396 1.27173 5.19356 0
M  V30 4787 H 450.739 -0.095149 4.16191 0
M  V30 4788 H 451.272 1.53129 3.67146 0
M  V30 4789 H 448.011 4.20347 5.02979 0
M  V30 4790 H 447.531 2.53927 5.43398 0
M  V30 4791 H 449.21 3.07426 5.69296 0
M  V30 4792 N 449.342 -1.36122 0.79427 0
M  V30 4793 C 450.274 -2.28683 0.153903 0
M  V30 4794 C 451.287 -1.49707 -0.639669 0
M  V30 4795 O 452.476 -1.7209 -0.474054 0
M  V30 4796 C 449.576 -3.29202 -0.804921 0
M  V30 4797 C 448.749 -4.37358 -0.060366 0
M  V30 4798 C 447.808 -5.17811 -0.935849 0
M  V30 4799 O 446.834 -5.67853 -0.391309 0
M  V30 4800 N 448.036 -5.34721 -2.25951 0
M  V30 4801 H 450.801 -2.84278 0.949008 0
M  V30 4802 H 448.362 -1.4834 0.648611 0
M  V30 4803 H 450.354 -3.79914 -1.39455 0
M  V30 4804 H 448.924 -2.74212 -1.50088 0
M  V30 4805 H 448.144 -3.87746 0.710382 0
M  V30 4806 H 449.432 -5.06777 0.45324 0
M  V30 4807 H 448.83 -4.95687 -2.72601 0
M  V30 4808 H 447.387 -5.88657 -2.79867 0
M  V30 4809 N 450.82 -0.546701 -1.47814 0
M  V30 4810 C 451.767 0.206854 -2.29871 0
M  V30 4811 C 452.737 0.918235 -1.38411 0
M  V30 4812 O 453.922 0.915991 -1.67375 0
M  V30 4813 C 451.062 1.23746 -3.22151 0
M  V30 4814 C 450.175 0.533216 -4.28697 0
M  V30 4815 C 449.31 1.5482 -5.08138 0
M  V30 4816 C 448.349 0.828347 -6.06469 0
M  V30 4817 N 447.486 1.78966 -6.78908 0
M  V30 4818 H 452.326 -0.499037 -2.93792 0
M  V30 4819 H 449.863 -0.25793 -1.44821 0
M  V30 4820 H 451.821 1.84746 -3.74065 0
M  V30 4821 H 450.451 1.91151 -2.60117 0
M  V30 4822 H 449.503 -0.191089 -3.7992 0
M  V30 4823 H 450.815 -0.0311987 -4.9879 0
M  V30 4824 H 449.969 2.23202 -5.6415 0
M  V30 4825 H 448.708 2.14652 -4.37922 0
M  V30 4826 H 447.713 0.130539 -5.49645 0
M  V30 4827 H 448.938 0.235907 -6.7869 0
M  V30 4828 H 446.884 2.37675 -6.1143 0
M  V30 4829 H 446.801 1.27712 -7.45135 0
M  V30 4830 H 448.069 2.46496 -7.395 0
M  V30 4831 N 452.299 1.55045 -0.282633 0
M  V30 4832 C 453.546 1.9976 0.33199 0
M  V30 4833 C 453.874 1.17105 1.55295 0
M  V30 4834 O 453.129 0.230599 1.94337 0
M  V30 4835 C 453.428 3.49422 0.750938 0
M  V30 4836 C 453.094 4.4941 -0.366228 0
M  V30 4837 C 451.756 4.76471 -0.672964 0
M  V30 4838 C 454.108 5.09054 -1.11864 0
M  V30 4839 C 451.436 5.60442 -1.73556 0
M  V30 4840 C 453.788 5.9418 -2.17102 0
M  V30 4841 C 452.452 6.19558 -2.48402 0
M  V30 4842 H 451.722 0.730974 0.121484 0
M  V30 4843 H 454.369 1.8732 -0.39791 0
M  V30 4844 H 452.674 3.59377 1.56063 0
M  V30 4845 H 454.371 3.81432 1.23736 0
M  V30 4846 H 450.961 4.2844 -0.117041 0
M  V30 4847 H 455.145 4.88165 -0.894925 0
M  V30 4848 H 450.401 5.78349 -1.983 0
M  V30 4849 H 454.575 6.39427 -2.75873 0
M  V30 4850 H 452.202 6.84417 -3.30874 0
M  V30 4851 N 453.777 0.010035 1.57597 0
M  V30 4852 C 454.727 -0.986858 2.05536 0
M  V30 4853 C 455.711 -1.29711 0.952042 0
M  V30 4854 O 456.903 -1.28641 1.21575 0
M  V30 4855 C 454.032 -2.2756 2.57043 0
M  V30 4856 C 453.118 -1.99455 3.74271 0
M  V30 4857 N 453.509 -1.41546 4.85591 0
M  V30 4858 C 451.807 -2.29547 3.82393 0
M  V30 4859 C 452.508 -1.3014 5.66956 0
M  V30 4860 N 451.484 -1.79044 5.13268 0
M  V30 4861 H 455.286 -0.533778 2.89012 0
M  V30 4862 H 452.8 -0.195432 1.6122 0
M  V30 4863 H 454.797 -2.99829 2.89669 0
M  V30 4864 H 453.457 -2.73512 1.7499 0
M  V30 4865 H 454.468 -1.09294 5.06236 0
M  V30 4866 H 451.145 -2.78304 3.11213 0
M  V30 4867 H 452.535 -0.855237 6.66435 0
M  V30 4868 N 455.255 -1.55392 -0.262866 0
M  V30 4869 C 456.218 -1.88181 -1.30846 0
M  V30 4870 C 457.218 -0.757079 -1.41862 0
M  V30 4871 O 458.408 -1.02519 -1.40838 0
M  V30 4872 C 455.54 -2.09609 -2.68844 0
M  V30 4873 H 456.733 -2.81659 -1.02997 0
M  V30 4874 H 454.286 -1.48039 -0.501414 0
M  V30 4875 H 455.021 -1.18547 -3.01856 0
M  V30 4876 H 454.806 -2.91508 -2.62231 0
M  V30 4877 H 456.296 -2.36215 -3.44372 0
M  V30 4878 N 456.733 0.527833 -1.48498 0
M  V30 4879 C 457.665 1.6482 -1.5927 0
M  V30 4880 C 458.678 1.55659 -0.476869 0
M  V30 4881 O 459.867 1.62081 -0.747806 0
M  V30 4882 C 456.967 3.0348 -1.50842 0
M  V30 4883 C 456.14 3.381 -2.77502 0
M  V30 4884 C 455.199 4.5605 -2.62497 0
M  V30 4885 O 454.225 4.59165 -3.36387 0
M  V30 4886 N 455.427 5.54353 -1.72257 0
M  V30 4887 H 458.192 1.56015 -2.55889 0
M  V30 4888 H 455.753 0.715152 -1.45249 0
M  V30 4889 H 457.745 3.80264 -1.38496 0
M  V30 4890 H 456.315 3.06352 -0.621887 0
M  V30 4891 H 455.535 2.50473 -3.04396 0
M  V30 4892 H 456.823 3.58017 -3.61527 0
M  V30 4893 H 456.221 5.54617 -1.11431 0
M  V30 4894 H 454.778 6.30347 -1.65849 0
M  V30 4895 N 458.211 1.37122 0.776871 0
M  V30 4896 C 459.161 1.28989 1.88005 0
M  V30 4897 C 460.145 0.178765 1.59904 0
M  V30 4898 O 461.337 0.412705 1.72121 0
M  V30 4899 C 458.466 1.09402 3.25402 0
M  V30 4900 C 457.552 2.25036 3.59471 0
M  V30 4901 N 457.943 3.50407 3.64759 0
M  V30 4902 C 456.241 2.17078 3.89607 0
M  V30 4903 C 456.942 4.26628 3.95428 0
M  V30 4904 N 455.918 3.55709 4.11062 0
M  V30 4905 H 459.72 2.2394 1.90337 0
M  V30 4906 H 457.234 1.30021 0.973052 0
M  V30 4907 H 459.231 1.01661 4.04315 0
M  V30 4908 H 457.891 0.153632 3.24336 0
M  V30 4909 H 458.902 3.8438 3.47091 0
M  V30 4910 H 455.579 1.31067 3.96393 0
M  V30 4911 H 456.969 5.35107 4.06338 0
M  V30 4912 N 459.689 -1.00246 1.21608 0
M  V30 4913 C 460.599 -2.12515 0.993709 0
M  V30 4914 C 461.615 -1.73913 -0.0549939 0
M  V30 4915 O 462.791 -2.00943 0.135619 0
M  V30 4916 C 459.856 -3.42083 0.563953 0
M  V30 4917 C 458.917 -3.94843 1.68516 0
M  V30 4918 C 458.15 -5.18226 1.27582 0
M  V30 4919 O 458.373 -5.70201 0.150506 0
M  V30 4920 O 457.307 -5.64497 2.0887 0
M  V30 4921 H 461.133 -2.34152 1.93407 0
M  V30 4922 H 458.718 -1.10891 1.00118 0
M  V30 4923 H 460.6 -4.20073 0.334194 0
M  V30 4924 H 459.275 -3.21828 -0.347665 0
M  V30 4925 H 458.182 -3.18068 1.96935 0
M  V30 4926 H 459.515 -4.19512 2.5743 0
M  V30 4927 N 461.167 -1.02423 -1.1978 0
M  V30 4928 C 462.415 -0.716569 -1.8897 0
M  V30 4929 C 462.736 0.756769 -1.79716 0
M  V30 4930 O 462.006 1.5449 -1.20456 0
M  V30 4931 H 460.586 -0.262062 -0.699523 0
M  V30 4932 H 463.248 -1.29747 -1.45436 0
M  V30 4933 H 462.344 -1.00675 -2.95417 0
M  V30 4934 N 462.645 1.35699 -0.801477 0
M  V30 4935 C 463.555 2.33661 -0.209691 0
M  V30 4936 C 464.571 1.6162 0.644591 0
M  V30 4937 O 465.747 1.93529 0.557545 0
M  V30 4938 C 462.812 3.40816 0.636033 0
M  V30 4939 C 461.873 4.28639 -0.238147 0
M  V30 4940 C 461.106 5.30676 0.567307 0
M  V30 4941 O 461.329 5.41174 1.8024 0
M  V30 4942 O 460.263 6.01887 -0.0391336 0
M  V30 4943 H 464.089 2.8606 -1.01996 0
M  V30 4944 H 461.674 1.38379 -0.563164 0
M  V30 4945 H 463.556 4.06301 1.11791 0
M  V30 4946 H 462.231 2.90696 1.42399 0
M  V30 4947 H 461.138 3.66152 -0.767044 0
M  V30 4948 H 462.471 4.82143 -0.989915 0
M  V30 4949 N 464.123 0.554532 1.47522 0
M  V30 4950 C 465.348 0.0322661 2.07375 0
M  V30 4951 C 465.773 -1.25079 1.40488 0
M  V30 4952 O 465.131 -1.74859 0.47896 0
M  V30 4953 C 465.179 -0.149397 3.6029 0
M  V30 4954 O 464.283 -1.21259 3.9417 0
M  V30 4955 H 463.624 0.0501228 0.662106 0
M  V30 4956 H 466.154 0.769452 1.8958 0
M  V30 4957 H 466.164 -0.364437 4.06369 0
M  V30 4958 H 464.839 0.787743 4.08372 0
M  V30 4959 H 463.416 -0.97825 3.5984 0
M  V30 4960 N 465.601 -1.54893 0.290851 0
M  V30 4961 C 466.847 -2.0023 -0.321867 0
M  V30 4962 C 467.18 -1.179 -1.54316 0
M  V30 4963 O 466.455 -0.25293 -1.92848 0
M  V30 4964 C 466.738 -3.53456 -0.688515 0
M  V30 4965 C 466.591 -4.46532 0.541209 0
M  V30 4966 C 467.91 -4.13057 -1.51895 0
M  V30 4967 H 465.029 -0.727891 -0.115515 0
M  V30 4968 H 467.671 -1.85722 0.400931 0
M  V30 4969 H 465.821 -3.6595 -1.30433 0
M  V30 4970 H 467.493 -4.4596 1.17973 0
M  V30 4971 H 465.736 -4.17545 1.17636 0
M  V30 4972 H 466.407 -5.51475 0.240675 0
M  V30 4973 H 468.883 -4.03937 -0.99872 0
M  V30 4974 H 467.759 -5.20448 -1.74429 0
M  V30 4975 H 468.02 -3.64284 -2.50498 0
M  V30 4976 N 467.08 -0.0183926 -1.57589 0
M  V30 4977 C 468.305 0.676634 -1.96052 0
M  V30 4978 C 468.73 1.6548 -0.894307 0
M  V30 4979 O 468.088 1.80712 0.145849 0
M  V30 4980 C 468.136 1.36872 -3.33614 0
M  V30 4981 O 467.24 2.48372 -3.29219 0
M  V30 4982 H 466.581 0.1786 -0.63953 0
M  V30 4983 H 469.111 -0.077056 -2.04455 0
M  V30 4984 H 469.121 1.72797 -3.69601 0
M  V30 4985 H 467.796 0.651636 -4.10763 0
M  V30 4986 H 466.373 2.14639 -3.04934 0
M  V30 4987 N 468.558 1.5553 0.254621 0
M  V30 4988 C 469.788 1.80784 1.00004 0
M  V30 4989 C 470.196 0.59071 1.79742 0
M  V30 4990 O 469.539 -0.449988 1.78103 0
M  V30 4991 C 469.601 2.99268 1.99196 0
M  V30 4992 C 469.265 4.35595 1.38224 0
M  V30 4993 C 470.262 5.13884 0.788611 0
M  V30 4994 C 467.947 4.82281 1.40393 0
M  V30 4995 C 469.941 6.37004 0.224783 0
M  V30 4996 C 467.628 6.05351 0.836243 0
M  V30 4997 C 468.626 6.82551 0.24769 0
M  V30 4998 O 468.314 8.03297 -0.311249 0
M  V30 4999 H 468.046 0.60565 0.300274 0
M  V30 5000 H 470.6 2.03411 0.285143 0
M  V30 5001 H 468.83 2.72377 2.74496 0
M  V30 5002 H 470.519 3.11682 2.60018 0
M  V30 5003 H 471.285 4.78938 0.764423 0
M  V30 5004 H 467.164 4.22189 1.85142 0
M  V30 5005 H 470.708 6.97203 -0.235235 0
M  V30 5006 H 466.605 6.39776 0.857733 0
M  V30 5007 H 467.373 8.1825 -0.20237 0
M  V30 5008 N 470.036 -0.519951 1.48776 0
M  V30 5009 C 470.999 -1.60574 1.6355 0
M  V30 5010 C 471.999 -1.52557 0.508234 0
M  V30 5011 O 473.189 -1.56047 0.774262 0
M  V30 5012 C 470.321 -3.00211 1.61512 0
M  V30 5013 H 471.514 -1.4881 2.60376 0
M  V30 5014 H 469.067 -0.742772 1.37523 0
M  V30 5015 H 469.802 -3.17471 0.662009 0
M  V30 5016 H 469.587 -3.07439 2.43359 0
M  V30 5017 H 471.077 -3.79134 1.75064 0
M  V30 5018 N 471.514 -1.37532 -0.769588 0
M  V30 5019 C 472.461 -1.3347 -1.88293 0
M  V30 5020 C 473.431 -0.199891 -1.64893 0
M  V30 5021 O 474.616 -0.389594 -1.8678 0
M  V30 5022 C 471.756 -1.14968 -3.25387 0
M  V30 5023 C 470.869 -2.37698 -3.60727 0
M  V30 5024 C 470.004 -2.12051 -4.8704 0
M  V30 5025 C 469.043 -3.30636 -5.15117 0
M  V30 5026 N 468.18 -3.04527 -6.3262 0
M  V30 5027 H 473.02 -2.28658 -1.911 0
M  V30 5028 H 470.557 -1.13622 -0.934257 0
M  V30 5029 H 472.515 -1.02261 -4.04473 0
M  V30 5030 H 471.145 -0.234263 -3.21949 0
M  V30 5031 H 470.197 -2.61137 -2.76608 0
M  V30 5032 H 471.509 -3.26131 -3.77413 0
M  V30 5033 H 470.663 -1.96388 -5.74035 0
M  V30 5034 H 469.402 -1.20959 -4.72462 0
M  V30 5035 H 468.407 -3.46836 -4.26597 0
M  V30 5036 H 469.632 -4.22582 -5.31603 0
M  V30 5037 H 467.578 -2.16067 -6.19396 0
M  V30 5038 H 467.495 -3.86503 -6.49732 0
M  V30 5039 H 468.763 -2.92485 -7.22546 0
M  V30 5040 N 472.992 0.995999 -1.22138 0
M  V30 5041 C 474.408 1.25917 -0.980667 0
M  V30 5042 C 474.608 1.98819 0.327604 0
M  V30 5043 O 473.664 2.29587 1.05101 0
M  V30 5044 C 474.977 2.07399 -2.17729 0
M  V30 5045 C 476.525 2.20594 -2.22052 0
M  V30 5046 C 477 3.05462 -3.41258 0
M  V30 5047 N 478.491 3.13049 -3.41401 0
M  V30 5048 C 479.226 3.78997 -4.30289 0
M  V30 5049 N 478.722 4.46899 -5.2939 0
M  V30 5050 N 480.515 3.75728 -4.18073 0
M  V30 5051 H 472.666 0.507158 -2.06256 0
M  V30 5052 H 474.929 0.28658 -0.903646 0
M  V30 5053 H 474.635 1.61191 -3.12586 0
M  V30 5054 H 474.509 3.08154 -2.17534 0
M  V30 5055 H 476.896 2.66017 -1.27745 0
M  V30 5056 H 476.977 1.1928 -2.26287 0
M  V30 5057 H 476.621 2.60739 -4.35864 0
M  V30 5058 H 476.551 4.06911 -3.34262 0
M  V30 5059 H 479.042 2.64721 -2.69688 0
M  V30 5060 H 479.355 4.94952 -5.935 0
M  V30 5061 H 477.7 4.45657 -5.33306 0
M  V30 5062 H 480.891 3.2184 -3.39907 0
M  V30 5063 H 481.064 4.26845 -4.87553 0
M  V30 5064 N 474.47 1.03057 1.19235 0
M  V30 5065 C 475.42 0.583386 2.2041 0
M  V30 5066 C 476.404 -0.368776 1.56617 0
M  V30 5067 O 477.596 -0.189471 1.75983 0
M  V30 5068 C 474.725 -0.0626534 3.43243 0
M  V30 5069 C 473.811 0.91205 4.14177 0
M  V30 5070 N 474.202 2.07514 4.61272 0
M  V30 5071 C 472.5 0.735859 4.39888 0
M  V30 5072 C 473.201 2.69003 5.15764 0
M  V30 5073 N 472.177 1.96954 5.06666 0
M  V30 5074 H 475.979 1.46988 2.54503 0
M  V30 5075 H 473.493 0.897785 1.35328 0
M  V30 5076 H 475.49 -0.400653 4.1497 0
M  V30 5077 H 474.15 -0.944813 3.1065 0
M  V30 5078 H 475.161 2.45448 4.56043 0
M  V30 5079 H 471.838 -0.0970656 4.17387 0
M  V30 5080 H 473.228 3.67514 5.6248 0
M  V30 5081 N 475.948 -1.35272 0.808662 0
M  V30 5082 C 476.898 -2.27181 0.193124 0
M  V30 5083 C 477.882 -1.47871 -0.634265 0
M  V30 5084 O 479.074 -1.70048 -0.491182 0
M  V30 5085 C 476.203 -3.36979 -0.655751 0
M  V30 5086 C 475.289 -4.23712 0.181481 0
M  V30 5087 N 475.68 -4.90225 1.24551 0
M  V30 5088 C 473.978 -4.45985 -0.0365493 0
M  V30 5089 C 474.679 -5.54537 1.75682 0
M  V30 5090 N 473.655 -5.33107 1.06294 0
M  V30 5091 H 477.457 -2.76101 1.00724 0
M  V30 5092 H 474.971 -1.48823 0.650029 0
M  V30 5093 H 476.968 -4.01774 -1.11279 0
M  V30 5094 H 475.628 -2.89611 -1.46819 0
M  V30 5095 H 476.639 -4.91641 1.62818 0
M  V30 5096 H 473.316 -4.09409 -0.817964 0
M  V30 5097 H 474.706 -6.17597 2.64621 0
M  V30 5098 N 477.426 -0.562348 -1.47226 0
M  V30 5099 C 478.376 0.202967 -2.27095 0
M  V30 5100 C 479.36 0.880611 -1.34663 0
M  V30 5101 O 480.552 0.778069 -1.58981 0
M  V30 5102 C 477.681 1.22906 -3.20545 0
M  V30 5103 C 476.767 0.554566 -4.20459 0
M  V30 5104 N 477.158 -0.378295 -5.04383 0
M  V30 5105 C 475.456 0.807854 -4.38623 0
M  V30 5106 C 476.157 -0.770583 -5.76573 0
M  V30 5107 N 475.133 -0.124263 -5.43458 0
M  V30 5108 H 478.935 -0.514196 -2.89367 0
M  V30 5109 H 476.449 -0.382655 -1.57827 0
M  V30 5110 H 478.446 1.79134 -3.76453 0
M  V30 5111 H 477.106 1.94726 -2.59831 0
M  V30 5112 H 478.117 -0.75274 -5.124 0
M  V30 5113 H 474.794 1.51418 -3.89075 0
M  V30 5114 H 476.184 -1.53742 -6.54074 0
M  V30 5115 N 478.904 1.54736 -0.299062 0
M  V30 5116 C 479.814 2.27127 0.587413 0
M  V30 5117 C 480.83 1.30575 1.15005 0
M  V30 5118 O 482.006 1.63554 1.17525 0
M  V30 5119 C 479.071 2.99645 1.74395 0
M  V30 5120 C 478.132 4.11731 1.21559 0
M  V30 5121 C 477.365 4.80781 2.317 0
M  V30 5122 O 477.588 4.4918 3.51558 0
M  V30 5123 O 476.522 5.68226 1.98501 0
M  V30 5124 H 480.348 3.037 0.000250109 0
M  V30 5125 H 477.933 1.49256 -0.0655919 0
M  V30 5126 H 479.815 3.45138 2.4178 0
M  V30 5127 H 478.49 2.25969 2.31775 0
M  V30 5128 H 477.397 3.70641 0.507514 0
M  V30 5129 H 478.73 4.87379 0.687233 0
M  V30 5130 N 480.382 0.0267497 1.57577 0
M  V30 5131 C 481.628 -0.653371 1.91987 0
M  V30 5132 C 481.961 -1.71915 0.903263 0
M  V30 5133 O 481.236 -1.94358 -0.0743387 0
M  V30 5134 C 481.519 -1.272 3.36886 0
M  V30 5135 C 481.372 -0.215938 4.49281 0
M  V30 5136 C 482.691 -2.19069 3.81703 0
M  V30 5137 H 479.81 -0.236047 0.698177 0
M  V30 5138 H 482.452 0.0835236 1.89816 0
M  V30 5139 H 480.602 -1.90005 3.38866 0
M  V30 5140 H 482.274 0.41449 4.59434 0
M  V30 5141 H 480.517 0.458855 4.31366 0
M  V30 5142 H 481.188 -0.688347 5.47691 0
M  V30 5143 H 483.664 -1.66253 3.81444 0
M  V30 5144 H 482.54 -2.59307 4.83788 0
M  V30 5145 H 482.801 -3.08087 3.17072 0
M  V30 5146 N 481.861 -1.55662 -0.24637 0
M  V30 5147 C 482.791 -1.93377 -1.30873 0
M  V30 5148 C 483.772 -0.798773 -1.50179 0
M  V30 5149 O 484.957 -1.0591 -1.62778 0
M  V30 5150 C 482.087 -2.22893 -2.66338 0
M  V30 5151 C 481.041 -3.38649 -2.61727 0
M  V30 5152 C 480.367 -3.53708 -4.00992 0
M  V30 5153 C 481.667 -4.74323 -2.18666 0
M  V30 5154 H 483.361 -2.82363 -0.995552 0
M  V30 5155 H 480.907 -1.35854 -0.477464 0
M  V30 5156 H 482.86 -2.47866 -3.40794 0
M  V30 5157 H 481.584 -1.30733 -2.99293 0
M  V30 5158 H 480.243 -3.13685 -1.89729 0
M  V30 5159 H 479.891 -2.58967 -4.31214 0
M  V30 5160 H 479.591 -4.31551 -3.98795 0
M  V30 5161 H 481.115 -3.81003 -4.77147 0
M  V30 5162 H 482.529 -4.98665 -2.82854 0
M  V30 5163 H 480.926 -5.55273 -2.27579 0
M  V30 5164 H 481.996 -4.71349 -1.13834 0
M  V30 5165 N 483.339 0.512053 -1.4905 0
M  V30 5166 C 484.755 0.84224 -1.35567 0
M  V30 5167 C 484.955 1.97878 -0.380319 0
M  V30 5168 O 484.011 2.51769 0.19201 0
M  V30 5169 C 485.324 1.19286 -2.76028 0
M  V30 5170 C 486.872 1.30171 -2.84648 0
M  V30 5171 C 487.347 1.68568 -4.25851 0
M  V30 5172 N 488.838 1.75638 -4.28609 0
M  V30 5173 C 489.573 2.06769 -5.34821 0
M  V30 5174 N 489.069 2.36201 -6.51292 0
M  V30 5175 N 490.862 2.07927 -5.22229 0
M  V30 5176 H 483.013 -0.237574 -2.11067 0
M  V30 5177 H 485.276 -0.0436747 -0.946993 0
M  V30 5178 H 484.982 0.431199 -3.49047 0
M  V30 5179 H 484.856 2.13889 -3.10695 0
M  V30 5180 H 487.243 2.05411 -2.11873 0
M  V30 5181 H 487.324 0.336457 -2.53578 0
M  V30 5182 H 486.968 0.938824 -4.99148 0
M  V30 5183 H 486.898 2.66174 -4.54377 0
M  V30 5184 H 489.389 1.55097 -3.44606 0
M  V30 5185 H 489.702 2.59112 -7.28066 0
M  V30 5186 H 488.047 2.33681 -6.54536 0
M  V30 5187 H 491.238 1.84403 -4.30248 0
M  V30 5188 H 491.411 2.31856 -6.05101 0
M  V30 5189 N 484.817 1.37938 0.762283 0
M  V30 5190 C 485.749 1.30349 1.88525 0
M  V30 5191 C 486.762 0.217402 1.61342 0
M  V30 5192 O 487.951 0.474291 1.72084 0
M  V30 5193 C 485.051 0.994844 3.23969 0
M  V30 5194 C 484.224 2.18829 3.78725 0
M  V30 5195 C 483.283 1.84844 4.92665 0
M  V30 5196 O 482.309 2.57244 5.07754 0
M  V30 5197 N 483.511 0.798201 5.74986 0
M  V30 5198 H 486.276 2.27114 1.95549 0
M  V30 5199 H 483.837 1.31686 0.941825 0
M  V30 5200 H 485.829 0.748168 3.97724 0
M  V30 5201 H 484.399 0.115446 3.12387 0
M  V30 5202 H 483.619 2.59615 2.96637 0
M  V30 5203 H 484.907 2.98497 4.1204 0
M  V30 5204 H 484.305 0.197611 5.65355 0
M  V30 5205 H 482.862 0.611396 6.48926 0
M  V30 5206 N 486.295 -0.989507 1.22664 0
M  V30 5207 C 487.543 -1.72612 1.05117 0
M  V30 5208 C 487.864 -1.90552 -0.414131 0
M  V30 5209 O 487.134 -1.4676 -1.29762 0
M  V30 5210 H 485.714 -0.639555 0.385977 0
M  V30 5211 H 488.376 -1.19158 1.54232 0
M  V30 5212 H 487.472 -2.71926 1.53175 0
M  V30 5213 N 487.773 -1.03688 -1.18687 0
M  V30 5214 C 488.703 -0.645407 -2.24403 0
M  V30 5215 C 489.684 0.349511 -1.66471 0
M  V30 5216 O 490.869 0.230453 -1.92828 0
M  V30 5217 C 487.999 -0.00365337 -3.473 0
M  V30 5218 C 486.953 -0.921705 -4.17958 0
M  V30 5219 C 486.279 -0.144629 -5.34504 0
M  V30 5220 C 487.579 -2.23909 -4.71871 0
M  V30 5221 H 489.273 -1.52917 -2.57404 0
M  V30 5222 H 486.819 -0.736711 -1.23728 0
M  V30 5223 H 488.772 0.281908 -4.20456 0
M  V30 5224 H 487.496 0.914963 -3.13522 0
M  V30 5225 H 486.155 -1.19159 -3.46694 0
M  V30 5226 H 485.803 0.776274 -4.96974 0
M  V30 5227 H 485.503 -0.756206 -5.82714 0
M  V30 5228 H 487.027 0.134004 -6.10453 0
M  V30 5229 H 488.441 -2.0145 -5.36741 0
M  V30 5230 H 486.838 -2.8033 -5.30599 0
M  V30 5231 H 487.908 -2.88822 -3.895 0
M  V30 5232 N 489.251 1.34841 -0.815825 0
M  V30 5233 C 490.214 2.27959 -0.238185 0
M  V30 5234 C 491.214 1.49983 0.579816 0
M  V30 5235 O 492.404 1.69617 0.396953 0
M  V30 5236 C 489.536 3.34314 0.666876 0
M  V30 5237 H 490.729 2.80558 -1.05958 0
M  V30 5238 H 488.282 1.44852 -0.587156 0
M  V30 5239 H 489.017 2.86916 1.5116 0
M  V30 5240 H 488.802 3.92014 0.0819106 0
M  V30 5241 H 490.292 4.0379 1.06506 0
M  V30 5242 N 490.729 0.570148 1.46925 0
M  V30 5243 C 491.976 0.0509529 2.02436 0
M  V30 5244 C 492.304 -1.30405 1.44308 0
M  V30 5245 O 491.559 -1.86493 0.593198 0
M  V30 5246 C 491.858 -0.0780336 3.57315 0
M  V30 5247 C 491.524 1.20775 4.34424 0
M  V30 5248 C 490.186 1.56004 4.5521 0
M  V30 5249 C 492.538 2.0592 4.78797 0
M  V30 5250 C 489.866 2.76201 5.17619 0
M  V30 5251 C 492.218 3.25332 5.42533 0
M  V30 5252 C 490.882 3.60859 5.61549 0
M  V30 5253 H 490.152 0.018645 0.740765 0
M  V30 5254 H 492.799 0.744262 1.76445 0
M  V30 5255 H 491.104 -0.854394 3.82371 0
M  V30 5256 H 492.801 -0.495312 3.97929 0
M  V30 5257 H 489.391 0.923469 4.18533 0
M  V30 5258 H 493.575 1.80008 4.62505 0
M  V30 5259 H 488.831 3.0388 5.30535 0
M  V30 5260 H 493.005 3.91586 5.75876 0
M  V30 5261 H 490.632 4.54088 6.09678 0
M  V30 5262 N 492.207 -1.54576 0.307264 0
M  V30 5263 C 493.432 -2.05139 -0.305379 0
M  V30 5264 C 493.857 -1.18278 -1.46259 0
M  V30 5265 O 493.215 -0.188243 -1.8032 0
M  V30 5266 C 493.263 -3.53066 -0.733283 0
M  V30 5267 O 492.367 -3.69206 -1.83741 0
M  V30 5268 H 491.708 -0.661444 -0.0582105 0
M  V30 5269 H 494.238 -1.99569 0.450931 0
M  V30 5270 H 494.248 -3.95034 -1.02039 0
M  V30 5271 H 492.923 -4.15746 0.113198 0
M  V30 5272 H 491.5 -3.39143 -1.55037 0
M  V30 5273 N 493.685 -0.035106 -1.57561 0
M  V30 5274 C 494.617 0.973604 -2.07494 0
M  V30 5275 C 495.63 1.28504 -0.999534 0
M  V30 5276 O 496.819 1.24864 -1.27559 0
M  V30 5277 C 493.919 2.29945 -2.48955 0
M  V30 5278 C 493.092 2.1723 -3.79644 0
M  V30 5279 C 492.151 3.328 -4.07592 0
M  V30 5280 O 491.177 3.09418 -4.77754 0
M  V30 5281 N 492.379 4.56779 -3.58236 0
M  V30 5282 H 495.144 0.547525 -2.94656 0
M  V30 5283 H 492.705 0.151515 -1.61189 0
M  V30 5284 H 494.697 3.06097 -2.64739 0
M  V30 5285 H 493.267 2.64173 -1.67126 0
M  V30 5286 H 492.487 1.25768 -3.73599 0
M  V30 5287 H 493.775 2.05945 -4.65257 0
M  V30 5288 H 493.173 4.78668 -3.01485 0
M  V30 5289 H 491.73 5.30079 -3.79288 0
M  V30 5290 N 495.163 1.55791 0.238111 0
M  V30 5291 C 496.412 1.77234 0.962868 0
M  V30 5292 C 496.725 0.600661 1.86149 0
M  V30 5293 O 497.931 0.698315 2.62366 0
M  V30 5294 C 496.387 3.13808 1.76218 0
M  V30 5295 C 495.995 4.3865 0.910518 0
M  V30 5296 C 497.739 3.44585 2.47914 0
M  V30 5297 C 495.646 5.66252 1.70623 0
M  V30 5298 H 494.576 0.660731 0.36325 0
M  V30 5299 H 497.227 1.8221 0.217242 0
M  V30 5300 H 495.609 3.02963 2.55009 0
M  V30 5301 H 496.783 4.60507 0.164316 0
M  V30 5302 H 495.098 4.15271 0.30647 0
M  V30 5303 H 497.695 4.3714 3.07917 0
M  V30 5304 H 498.038 2.66314 3.19973 0
M  V30 5305 H 498.571 3.56685 1.76127 0
M  V30 5306 H 495.31 6.47369 1.02923 0
M  V30 5307 H 494.83 5.48483 2.42748 0
M  V30 5308 H 496.509 6.05829 2.27114 0
M  V30 5309 N 496.642 -0.504142 1.49319 0
M  V30 5310 C 497.872 -1.28071 1.62116 0
M  V30 5311 C 498.28 -1.86955 0.290566 0
M  V30 5312 O 497.623 -1.68415 -0.733616 0
M  V30 5313 C 497.685 -2.4521 2.62893 0
M  V30 5314 C 497.349 -2.07218 4.0732 0
M  V30 5315 C 498.346 -1.61375 4.94221 0
M  V30 5316 C 496.031 -2.16949 4.53033 0
M  V30 5317 C 498.025 -1.25763 6.2487 0
M  V30 5318 C 495.712 -1.80949 5.83696 0
M  V30 5319 C 496.71 -1.3543 6.69438 0
M  V30 5320 O 496.398 -0.99915 7.97667 0
M  V30 5321 H 496.13 -0.394763 0.54876 0
M  V30 5322 H 498.684 -0.612118 1.96067 0
M  V30 5323 H 496.914 -3.15134 2.24115 0
M  V30 5324 H 498.603 -3.0724 2.65252 0
M  V30 5325 H 499.369 -1.53306 4.60133 0
M  V30 5326 H 495.248 -2.5133 3.86463 0
M  V30 5327 H 498.792 -0.901631 6.91749 0
M  V30 5328 H 494.689 -1.88667 6.17313 0
M  V30 5329 H 495.457 -1.13089 8.1065 0
M  V30 5330 N 498.12 -1.38341 -0.754957 0
M  V30 5331 C 499.536 -1.19508 -1.05783 0
M  V30 5332 C 499.736 -0.0428005 -2.01455 0
M  V30 5333 O 498.792 0.611861 -2.44975 0
M  V30 5334 C 500.105 -2.52091 -1.63923 0
M  V30 5335 C 501.653 -2.58762 -1.76101 0
M  V30 5336 C 502.128 -3.91517 -2.37652 0
M  V30 5337 N 503.619 -3.93049 -2.45085 0
M  V30 5338 C 504.354 -4.9253 -2.93602 0
M  V30 5339 N 503.85 -6.02408 -3.42165 0
M  V30 5340 N 505.643 -4.79921 -2.92629 0
M  V30 5341 H 497.794 -2.1206 -0.120056 0
M  V30 5342 H 500.057 -0.94089 -0.11589 0
M  V30 5343 H 499.763 -3.36858 -1.01093 0
M  V30 5344 H 499.637 -2.70388 -2.63003 0
M  V30 5345 H 502.024 -1.74391 -2.38058 0
M  V30 5346 H 502.105 -2.44333 -0.757294 0
M  V30 5347 H 501.749 -4.76309 -1.76329 0
M  V30 5348 H 501.679 -4.03256 -3.38662 0
M  V30 5349 H 504.17 -3.13685 -2.10736 0
M  V30 5350 H 504.483 -6.74248 -3.77637 0
M  V30 5351 H 502.828 -6.0603 -3.40225 0
M  V30 5352 H 506.019 -3.93194 -2.54001 0
M  V30 5353 H 506.192 -5.57601 -3.30128 0
M  V30 5354 N 499.598 0.982988 -1.23187 0
M  V30 5355 C 500.845 1.72392 -1.06241 0
M  V30 5356 C 501.173 1.9032 0.40108 0
M  V30 5357 O 500.428 1.45084 1.31336 0
M  V30 5358 C 500.727 3.12736 -1.73006 0
M  V30 5359 C 500.393 3.14695 -3.22921 0
M  V30 5360 C 499.055 3.14937 -3.63824 0
M  V30 5361 C 501.407 3.10211 -4.1883 0
M  V30 5362 C 498.735 3.08408 -4.99101 0
M  V30 5363 C 501.087 3.05224 -5.54095 0
M  V30 5364 C 499.751 3.03787 -5.94365 0
M  V30 5365 H 499.021 0.630829 -0.388762 0
M  V30 5366 H 501.668 1.15053 -1.53085 0
M  V30 5367 H 499.973 3.73446 -1.18514 0
M  V30 5368 H 501.67 3.68828 -1.57374 0
M  V30 5369 H 498.26 3.15262 -2.90358 0
M  V30 5370 H 502.444 3.09166 -3.8824 0
M  V30 5371 H 497.7 3.05646 -5.29519 0
M  V30 5372 H 501.874 3.00712 -6.28128 0
M  V30 5373 H 499.501 2.98483 -6.99151 0
M  V30 5374 N 501.076 1.04316 1.18135 0
M  V30 5375 C 502.301 0.768047 1.92655 0
M  V30 5376 C 502.726 -0.66904 1.758 0
M  V30 5377 O 502.084 -1.46372 1.06981 0
M  V30 5378 C 502.132 1.14239 3.42026 0
M  V30 5379 O 501.236 0.269333 4.1152 0
M  V30 5380 H 500.577 0.282436 0.600937 0
M  V30 5381 H 503.107 1.39367 1.49793 0
M  V30 5382 H 503.117 1.10538 3.92741 0
M  V30 5383 H 501.792 2.18928 3.53615 0
M  V30 5384 H 500.369 0.366175 3.71098 0
M  V30 5385 N 502.554 -1.34406 0.822964 0
M  V30 5386 C 503.484 -2.32052 0.259608 0
M  V30 5387 C 504.465 -1.58243 -0.623961 0
M  V30 5388 O 505.65 -1.86224 -0.55083 0
M  V30 5389 C 502.78 -3.42434 -0.579314 0
M  V30 5390 C 501.734 -4.27499 0.20712 0
M  V30 5391 C 501.06 -5.29349 -0.754547 0
M  V30 5392 C 502.36 -5.02758 1.41533 0
M  V30 5393 H 504.054 -2.79418 1.07545 0
M  V30 5394 H 501.6 -1.34338 0.518593 0
M  V30 5395 H 503.553 -4.0976 -0.983612 0
M  V30 5396 H 502.277 -2.93717 -1.4282 0
M  V30 5397 H 500.936 -3.61776 0.592787 0
M  V30 5398 H 500.584 -4.76895 -1.59939 0
M  V30 5399 H 500.284 -5.8714 -0.232561 0
M  V30 5400 H 501.808 -5.99544 -1.1567 0
M  V30 5401 H 503.222 -5.62938 1.08504 0
M  V30 5402 H 501.619 -5.70123 1.87296 0
M  V30 5403 H 502.689 -4.32451 2.1935 0
M  V30 5404 N 504.032 -0.577932 -1.46621 0
M  V30 5405 C 505.257 -0.0652536 -2.07297 0
M  V30 5406 C 505.682 1.22828 -1.4246 0
M  V30 5407 O 505.04 1.74075 -0.506718 0
M  V30 5408 C 505.088 0.0920589 -3.60482 0
M  V30 5409 O 504.192 1.14972 -3.96049 0
M  V30 5410 H 503.533 -0.06065 -0.661224 0
M  V30 5411 H 506.063 -0.799515 -1.88332 0
M  V30 5412 H 506.073 0.299741 -4.06897 0
M  V30 5413 H 504.748 -0.852612 -4.07067 0
M  V30 5414 H 503.325 0.920879 -3.61351 0
M  V30 5415 N 505.51 1.54411 -0.315457 0
M  V30 5416 C 506.787 1.92562 0.343398 0
M  V30 5417 C 507.167 1.24423 1.70535 0
M  V30 5418 O 506.515 0.385051 2.25232 0
M  V30 5419 C 506.725 3.46168 0.443687 0
M  V30 5420 C 508.073 4.18659 0.707783 0
M  V30 5421 O 509.097 3.52281 0.52693 0
M  V30 5422 O 507.956 5.36198 1.05612 0
M  V30 5423 H 505.05 0.80379 0.194552 0
M  V30 5424 H 507.596 1.65738 -0.364577 0
M  V30 5425 H 506.368 3.8792 -0.513172 0
M  V30 5426 H 505.991 3.79073 1.19956 0
M  V30 5427 N 506.988 0.0434614 1.5754 0
M  V30 5428 C 508.236 -0.630786 1.92004 0
M  V30 5429 C 508.557 -1.71836 0.921807 0
M  V30 5430 O 507.827 -1.9587 -0.034522 0
M  V30 5431 H 506.407 -0.235988 0.708745 0
M  V30 5432 H 509.069 0.0946462 1.9467 0
M  V30 5433 H 508.165 -1.07434 2.93026 0
M  V30 5434 N 508.466 -1.55915 -0.229846 0
M  V30 5435 C 509.694 -1.82617 -0.972562 0
M  V30 5436 C 510.109 -0.621488 -1.78278 0
M  V30 5437 O 509.466 0.409956 -1.77836 0
M  V30 5438 C 509.517 -3.0774 -1.89679 0
M  V30 5439 O 509.238 -4.23559 -1.11934 0
M  V30 5440 C 510.739 -3.47368 -2.75409 0
M  V30 5441 H 507.959 -0.60727 -0.285419 0
M  V30 5442 H 510.503 -2.02996 -0.247579 0
M  V30 5443 H 508.658 -2.89361 -2.57583 0
M  V30 5444 H 509.072 -4.94586 -1.74599 0
M  V30 5445 H 510.546 -4.37977 -3.35977 0
M  V30 5446 H 511.023 -2.68737 -3.47386 0
M  V30 5447 H 511.629 -3.68158 -2.12931 0
M  V30 5448 N 509.944 0.496216 -1.49584 0
M  V30 5449 C 510.874 1.60576 -1.69521 0
M  V30 5450 C 511.855 1.61169 -0.543933 0
M  V30 5451 O 513.04 1.77834 -0.78031 0
M  V30 5452 C 510.17 2.99038 -1.76616 0
M  V30 5453 C 509.124 3.13312 -2.91581 0
M  V30 5454 C 508.45 4.53172 -2.83794 0
M  V30 5455 C 509.75 2.92886 -4.32452 0
M  V30 5456 H 511.444 1.44146 -2.62416 0
M  V30 5457 H 508.99 0.692024 -1.26282 0
M  V30 5458 H 510.943 3.76564 -1.8915 0
M  V30 5459 H 509.667 3.16568 -0.80324 0
M  V30 5460 H 508.326 2.38213 -2.78658 0
M  V30 5461 H 507.974 4.67585 -1.854 0
M  V30 5462 H 507.674 4.63662 -3.60958 0
M  V30 5463 H 509.198 5.32752 -2.98342 0
M  V30 5464 H 510.612 3.60178 -4.46032 0
M  V30 5465 H 509.009 3.14844 -5.10875 0
M  V30 5466 H 510.079 1.88966 -4.46565 0
M  V30 5467 N 511.423 1.38739 0.74761 0
M  V30 5468 C 512.669 1.35475 1.50912 0
M  V30 5469 C 513.002 -0.0533093 1.94127 0
M  V30 5470 O 512.277 -1.01572 1.65871 0
M  V30 5471 C 512.56 2.31582 2.75757 0
M  V30 5472 C 512.413 3.81274 2.38642 0
M  V30 5473 C 513.732 2.25722 3.77806 0
M  V30 5474 H 510.851 0.493427 0.547447 0
M  V30 5475 H 513.493 1.69634 0.855823 0
M  V30 5476 H 511.643 2.02582 3.31501 0
M  V30 5477 H 513.315 4.20972 1.88626 0
M  V30 5478 H 511.558 3.98664 1.71025 0
M  V30 5479 H 512.229 4.4399 3.27989 0
M  V30 5480 H 514.705 2.51336 3.31616 0
M  V30 5481 H 513.581 2.95069 4.62845 0
M  V30 5482 H 513.842 1.25803 4.23823 0
M  V30 5483 N 512.901 -0.976442 1.23707 0
M  V30 5484 C 513.864 -2.0511 1.02287 0
M  V30 5485 C 514.864 -1.60791 -0.0167195 0
M  V30 5486 O 516.054 -1.72761 0.223408 0
M  V30 5487 C 513.186 -3.36458 0.548507 0
M  V30 5488 H 514.379 -2.25545 1.9766 0
M  V30 5489 H 511.932 -1.15042 1.05806 0
M  V30 5490 H 512.667 -3.21713 -0.408818 0
M  V30 5491 H 512.452 -3.69967 1.29874 0
M  V30 5492 H 513.942 -4.15489 0.419406 0
M  V30 5493 N 514.379 -1.04941 -1.1758 0
M  V30 5494 C 515.342 -0.652456 -2.19717 0
M  V30 5495 C 516.342 0.294745 -1.58076 0
M  V30 5496 O 517.532 0.0789579 -1.74021 0
M  V30 5497 C 514.664 0.0420712 -3.40874 0
M  V30 5498 H 515.857 -1.55642 -2.5635 0
M  V30 5499 H 513.41 -0.842995 -1.31618 0
M  V30 5500 H 514.145 0.95943 -3.09783 0
M  V30 5501 H 513.93 -0.638844 -3.86861 0
M  V30 5502 H 515.42 0.306 -4.16477 0
M  V30 5503 N 515.857 1.33968 -0.830081 0
M  V30 5504 C 516.789 2.28194 -0.21448 0
M  V30 5505 C 517.802 1.5135 0.599752 0
M  V30 5506 O 518.991 1.73286 0.42826 0
M  V30 5507 C 516.091 3.31221 0.717356 0
M  V30 5508 C 515.264 4.37365 -0.055613 0
M  V30 5509 C 514.323 5.2011 0.798231 0
M  V30 5510 O 513.349 5.68691 0.240616 0
M  V30 5511 N 514.551 5.40523 2.11695 0
M  V30 5512 H 517.316 2.81662 -1.02405 0
M  V30 5513 H 514.877 1.46568 -0.687713 0
M  V30 5514 H 516.869 3.83477 1.29334 0
M  V30 5515 H 515.439 2.78095 1.42765 0
M  V30 5516 H 514.659 3.85727 -0.812936 0
M  V30 5517 H 515.947 5.05397 -0.587444 0
M  V30 5518 H 515.345 5.0274 2.59363 0
M  V30 5519 H 513.902 5.95871 2.64162 0
M  V30 5520 N 517.335 0.585699 1.46312 0
M  V30 5521 C 518.563 0.0781299 2.06752 0
M  V30 5522 C 518.978 -1.22812 1.43396 0
M  V30 5523 O 518.335 -1.74318 0.540314 0
M  V30 5524 C 518.386 -0.0911927 3.61385 0
M  V30 5525 O 518.107 1.16336 4.22371 0
M  V30 5526 C 519.608 -0.632765 4.38761 0
M  V30 5527 H 516.828 0.0588188 0.668417 0
M  V30 5528 H 519.372 0.807218 1.87894 0
M  V30 5529 H 517.527 -0.770514 3.7966 0
M  V30 5530 H 517.941 0.979082 5.15281 0
M  V30 5531 H 519.415 -0.70041 5.47538 0
M  V30 5532 H 519.892 -1.65039 4.07012 0
M  V30 5533 H 520.498 0.0117856 4.25298 0
M  V30 5534 N 518.813 -1.54241 0.323641 0
M  V30 5535 C 519.76 -2.24339 -0.542277 0
M  V30 5536 C 520.73 -1.23421 -1.11159 0
M  V30 5537 O 521.915 -1.52104 -1.15192 0
M  V30 5538 C 519.055 -3.00479 -1.69725 0
M  V30 5539 C 518.168 -4.16214 -1.15716 0
M  V30 5540 C 517.303 -4.79884 -2.27783 0
M  V30 5541 C 516.342 -5.87722 -1.71023 0
M  V30 5542 N 515.479 -6.45254 -2.76752 0
M  V30 5543 H 520.319 -2.97935 0.0620613 0
M  V30 5544 H 517.856 -1.47039 0.0423993 0
M  V30 5545 H 519.814 -3.42869 -2.3769 0
M  V30 5546 H 518.444 -2.29217 -2.27288 0
M  V30 5547 H 517.496 -3.78605 -0.369063 0
M  V30 5548 H 518.808 -4.93838 -0.701832 0
M  V30 5549 H 517.962 -5.25243 -3.03651 0
M  V30 5550 H 516.701 -4.01641 -2.76652 0
M  V30 5551 H 515.706 -5.41765 -0.936518 0
M  V30 5552 H 516.931 -6.67863 -1.2303 0
M  V30 5553 H 514.877 -5.69884 -3.24912 0
M  V30 5554 H 514.794 -7.18292 -2.35782 0
M  V30 5555 H 516.062 -6.95269 -3.5245 0
M  V30 5556 N 520.291 -0.0518155 -1.57515 0
M  V30 5557 C 521.516 0.634896 -1.97443 0
M  V30 5558 C 521.941 1.63546 -0.929207 0
M  V30 5559 O 521.299 1.80981 0.107484 0
M  V30 5560 C 521.347 1.29765 -3.36442 0
M  V30 5561 O 520.451 2.41333 -3.34413 0
M  V30 5562 H 519.792 0.164994 -0.643174 0
M  V30 5563 H 522.322 -0.120407 -2.04245 0
M  V30 5564 H 522.332 1.64918 -3.73184 0
M  V30 5565 H 521.007 0.564361 -4.12053 0
M  V30 5566 H 519.584 2.08122 -3.09418 0
M  V30 5567 N 521.769 1.56035 0.221574 0
M  V30 5568 C 522.716 1.92413 1.27459 0
M  V30 5569 C 523.686 0.781323 1.46576 0
M  V30 5570 O 524.871 1.03721 1.60145 0
M  V30 5571 C 522.011 2.24617 2.61995 0
M  V30 5572 C 521.124 3.51831 2.50677 0
M  V30 5573 C 520.259 3.73482 3.77736 0
M  V30 5574 C 519.298 4.94211 3.6114 0
M  V30 5575 N 518.435 5.12252 4.80148 0
M  V30 5576 H 523.275 2.82203 0.957355 0
M  V30 5577 H 520.812 1.39676 0.461415 0
M  V30 5578 H 522.77 2.41298 3.40339 0
M  V30 5579 H 521.4 1.38 2.91815 0
M  V30 5580 H 520.452 3.43343 1.63767 0
M  V30 5581 H 521.764 4.40328 2.34334 0
M  V30 5582 H 520.918 3.9026 4.64523 0
M  V30 5583 H 519.657 2.83266 3.97003 0
M  V30 5584 H 518.662 4.77384 2.72736 0
M  V30 5585 H 519.887 5.85912 3.43343 0
M  V30 5586 H 517.833 4.24978 4.99729 0
M  V30 5587 H 517.75 5.94881 4.66532 0
M  V30 5588 H 519.018 5.33465 5.68362 0
M  V30 5589 N 523.247 -0.488276 1.49845 0
M  V30 5590 C 524.177 -1.59675 1.70371 0
M  V30 5591 C 525.158 -1.60878 0.552473 0
M  V30 5592 O 526.343 -1.77417 0.78973 0
M  V30 5593 C 523.473 -2.98098 1.782 0
M  V30 5594 C 522.427 -3.11761 2.93239 0
M  V30 5595 C 521.753 -4.51661 2.86193 0
M  V30 5596 C 523.053 -2.90589 4.33999 0
M  V30 5597 H 524.747 -1.42752 2.63177 0
M  V30 5598 H 522.293 -0.685317 1.26647 0
M  V30 5599 H 524.246 -3.75555 1.91144 0
M  V30 5600 H 522.97 -3.16138 0.820018 0
M  V30 5601 H 521.629 -2.36732 2.79917 0
M  V30 5602 H 521.277 -4.66595 1.87877 0
M  V30 5603 H 520.977 -4.61742 3.63412 0
M  V30 5604 H 522.501 -5.31162 3.01163 0
M  V30 5605 H 523.915 -3.57807 4.47936 0
M  V30 5606 H 522.312 -3.1213 5.12538 0
M  V30 5607 H 523.382 -1.86595 4.4756 0
M  V30 5608 N 524.725 -1.39134 -0.740242 0
M  V30 5609 C 525.974 -1.35384 -1.49512 0
M  V30 5610 C 526.287 0.04919 -1.95538 0
M  V30 5611 O 527.493 0.209257 -2.70692 0
M  V30 5612 C 525.949 -2.37812 -2.70136 0
M  V30 5613 C 525.557 -3.83804 -2.31081 0
M  V30 5614 C 527.301 -2.4313 -3.47977 0
M  V30 5615 C 525.208 -4.77886 -3.48395 0
M  V30 5616 H 524.138 -0.503297 -0.561434 0
M  V30 5617 H 526.789 -1.64754 -0.807974 0
M  V30 5618 H 525.171 -2.01505 -3.40899 0
M  V30 5619 H 526.345 -4.29123 -1.67898 0
M  V30 5620 H 524.66 -3.81732 -1.66343 0
M  V30 5621 H 527.257 -3.10614 -4.35228 0
M  V30 5622 H 527.6 -1.45423 -3.90074 0
M  V30 5623 H 528.133 -2.78304 -2.84239 0
M  V30 5624 H 524.872 -5.76836 -3.11353 0
M  V30 5625 H 524.392 -4.3725 -4.10576 0
M  V30 5626 H 526.071 -4.96538 -4.148 0
M  V30 5627 N 526.204 0.969867 -1.24223 0
M  V30 5628 C 527.62 1.23809 -1.00716 0
M  V30 5629 C 527.82 1.99469 0.285358 0
M  V30 5630 O 526.876 2.31764 1.00207 0
M  V30 5631 C 528.189 2.02734 -2.2208 0
M  V30 5632 C 529.737 2.15834 -2.26681 0
M  V30 5633 C 530.212 2.98154 -3.47661 0
M  V30 5634 N 531.703 3.05737 -3.47964 0
M  V30 5635 C 532.438 3.69785 -4.38231 0
M  V30 5636 N 531.934 4.35569 -5.3875 0
M  V30 5637 N 533.727 3.66775 -4.25949 0
M  V30 5638 H 525.878 0.463294 -2.07286 0
M  V30 5639 H 528.141 0.267348 -0.909521 0
M  V30 5640 H 527.847 1.54524 -3.15935 0
M  V30 5641 H 527.721 3.0347 -2.24021 0
M  V30 5642 H 530.108 2.63248 -1.33359 0
M  V30 5643 H 530.189 1.14453 -2.28767 0
M  V30 5644 H 529.833 2.51435 -4.41297 0
M  V30 5645 H 529.763 3.99729 -3.42818 0
M  V30 5646 H 532.254 2.58941 -2.75242 0
M  V30 5647 H 532.567 4.82251 -6.03866 0
M  V30 5648 H 530.912 4.34244 -5.42639 0
M  V30 5649 H 534.103 3.14558 -3.46657 0
M  V30 5650 H 534.276 4.16407 -4.96497 0
M  V30 5651 N 527.682 1.05563 1.17022 0
M  V30 5652 C 528.907 0.788437 1.91829 0
M  V30 5653 C 529.332 -0.650356 1.76499 0
M  V30 5654 O 528.69 -1.45229 1.08527 0
M  V30 5655 C 528.738 1.1786 3.40795 0
M  V30 5656 O 527.842 0.312965 4.11211 0
M  V30 5657 H 527.183 0.288794 0.597908 0
M  V30 5658 H 529.713 1.40948 1.48307 0
M  V30 5659 H 529.723 1.14697 3.91546 0
M  V30 5660 H 528.398 2.22666 3.51273 0
M  V30 5661 H 526.975 0.405515 3.70689 0
M  V30 5662 N 529.16 -1.33526 0.837174 0
M  V30 5663 C 530.092 -2.28077 0.226579 0
M  V30 5664 C 531.105 -1.51666 -0.591717 0
M  V30 5665 O 532.294 -1.73511 -0.419064 0
M  V30 5666 C 529.394 -3.31597 -0.69978 0
M  V30 5667 C 528.567 -4.37329 0.0788067 0
M  V30 5668 C 527.626 -5.20526 -0.770637 0
M  V30 5669 O 526.652 -5.68811 -0.210453 0
M  V30 5670 N 527.854 -5.41639 -2.08825 0
M  V30 5671 H 530.619 -2.81115 1.03897 0
M  V30 5672 H 528.18 -1.46201 0.695476 0
M  V30 5673 H 530.172 -3.84158 -1.27298 0
M  V30 5674 H 528.742 -2.78848 -1.41288 0
M  V30 5675 H 527.962 -3.8529 0.833381 0
M  V30 5676 H 529.25 -5.05079 0.614238 0
M  V30 5677 H 528.648 -5.04108 -2.56693 0
M  V30 5678 H 527.205 -5.97263 -2.60998 0
M  V30 5679 N 530.638 -0.59345 -1.46 0
M  V30 5680 C 531.866 -0.0890934 -2.06708 0
M  V30 5681 C 532.281 1.2205 -1.44046 0
M  V30 5682 O 531.638 1.74029 -0.549551 0
M  V30 5683 C 531.689 0.0720263 -3.61428 0
M  V30 5684 O 531.41 -1.18574 -4.21748 0
M  V30 5685 C 532.911 0.609487 -4.3909 0
M  V30 5686 H 530.131 -0.0623628 -0.668096 0
M  V30 5687 H 532.675 -0.817171 -1.87464 0
M  V30 5688 H 530.83 0.750369 -3.80063 0
M  V30 5689 H 531.244 -1.0064 -5.14754 0
M  V30 5690 H 532.718 0.671363 -5.47902 0
M  V30 5691 H 533.195 1.62878 -4.07882 0
M  V30 5692 H 533.801 -0.03434 -4.25286 0
M  V30 5693 N 532.116 1.54067 -0.331816 0
M  V30 5694 C 533.344 2.05131 0.269996 0
M  V30 5695 C 533.759 1.20749 1.45138 0
M  V30 5696 O 533.116 0.240069 1.80914 0
M  V30 5697 C 533.167 3.54728 0.696456 0
M  V30 5698 O 532.888 4.35906 -0.43794 0
M  V30 5699 C 534.389 4.21916 1.36021 0
M  V30 5700 H 531.609 0.668807 0.0542042 0
M  V30 5701 H 534.153 1.98777 -0.4804 0
M  V30 5702 H 532.308 3.61342 1.39681 0
M  V30 5703 H 532.722 5.24404 -0.100334 0
M  V30 5704 H 534.196 5.28015 1.60947 0
M  V30 5705 H 534.673 3.73538 2.31011 0
M  V30 5706 H 535.279 4.19463 0.702212 0
M  V30 5707 N 533.594 0.0601682 1.57485 0
M  V30 5708 C 534.542 -0.928899 2.13247 0
M  V30 5709 C 535.536 -1.31616 1.06647 0
M  V30 5710 O 536.742 -1.29476 1.25043 0
M  V30 5711 H 533.117 -0.317455 0.681708 0
M  V30 5712 H 535.088 -0.433566 2.95233 0
M  V30 5713 C 533.837 -2.19121 2.69965 0
M  V30 5714 H 533.16 -1.90204 3.51657 0
M  V30 5715 H 534.6 -2.86465 3.12592 0
M  V30 5716 C 533.059 -2.94195 1.64168 0
M  V30 5717 O 533.589 -3.87468 1.05978 0
M  V30 5718 N 531.795 -2.57089 1.35476 0
M  V30 5719 H 531.342 -1.81314 1.82984 0
M  V30 5720 H 531.3 -3.07624 0.649196 0
M  V30 5721 N 535.072 -1.5615 -0.213296 0
M  V30 5722 C 535.982 -1.96265 -1.28519 0
M  V30 5723 C 536.998 -0.86765 -1.50824 0
M  V30 5724 O 538.174 -1.17191 -1.63793 0
M  V30 5725 C 535.239 -2.27836 -2.61327 0
M  V30 5726 C 534.3 -3.50949 -2.47252 0
M  V30 5727 C 533.533 -3.81004 -3.73727 0
M  V30 5728 O 533.756 -3.12612 -4.77106 0
M  V30 5729 O 532.69 -4.74477 -3.70344 0
M  V30 5730 H 536.516 -2.87631 -0.974795 0
M  V30 5731 H 534.101 -1.43467 -0.416832 0
M  V30 5732 H 535.983 -2.49299 -3.39747 0
M  V30 5733 H 534.658 -1.39643 -2.9203 0
M  V30 5734 H 533.565 -3.34754 -1.67004 0
M  V30 5735 H 534.898 -4.39551 -2.21486 0
M  V30 5736 N 536.55 0.480323 -1.50102 0
M  V30 5737 C 537.961 1.06142 -1.53593 0
M  V30 5738 C 538.312 1.93335 -0.334055 0
M  V30 5739 O 537.437 2.09188 0.55403 0
M  V30 5740 C 538.032 1.9317 -2.78336 0
M  V30 5741 C 536.591 2.46405 -2.84538 0
M  V30 5742 C 535.738 1.24521 -2.4777 0
M  V30 5743 H 538.689 0.26333 -1.565 0
M  V30 5744 H 538.71 2.78123 -2.59669 0
M  V30 5745 H 538.222 1.29683 -3.65792 0
M  V30 5746 H 536.323 3.13472 -2.01411 0
M  V30 5747 H 536.436 2.82143 -3.87211 0
M  V30 5748 H 534.8 1.57706 -2.00003 0
M  V30 5749 H 535.583 0.627102 -3.37524 0
M  V30 5750 N 538.028 1.39524 0.732853 0
M  V30 5751 C 538.96 1.34318 1.85718 0
M  V30 5752 C 539.973 0.251576 1.60844 0
M  V30 5753 O 541.162 0.510685 1.71039 0
M  V30 5754 C 538.262 1.06334 3.21786 0
M  V30 5755 C 537.435 2.26813 3.73998 0
M  V30 5756 C 536.494 1.95253 4.88634 0
M  V30 5757 O 535.52 2.67957 5.02183 0
M  V30 5758 N 536.722 0.919984 5.73164 0
M  V30 5759 H 539.487 2.3121 1.90688 0
M  V30 5760 H 537.048 1.33654 0.91368 0
M  V30 5761 H 539.04 0.832363 3.96048 0
M  V30 5762 H 537.61 0.181682 3.12072 0
M  V30 5763 H 536.83 2.65849 2.91064 0
M  V30 5764 H 538.118 3.0717 4.05616 0
M  V30 5765 H 537.516 0.317487 5.64808 0
M  V30 5766 H 536.073 0.748905 6.47483 0
M  V30 5767 N 539.506 -0.963266 1.24736 0
M  V30 5768 C 540.436 -2.07628 1.06832 0
M  V30 5769 C 541.417 -1.70088 -0.0200566 0
M  V30 5770 O 542.602 -1.93636 0.147854 0
M  V30 5771 C 539.732 -3.40636 0.677069 0
M  V30 5772 C 538.686 -3.9215 1.71471 0
M  V30 5773 C 538.012 -5.21553 1.1784 0
M  V30 5774 C 539.312 -4.19493 3.11164 0
M  V30 5775 H 541.006 -2.22864 1.9993 0
M  V30 5776 H 538.552 -1.07093 0.96266 0
M  V30 5777 H 540.505 -4.17941 0.538792 0
M  V30 5778 H 539.229 -3.25313 -0.289612 0
M  V30 5779 H 537.888 -3.17005 1.84128 0
M  V30 5780 H 537.536 -5.02593 0.202195 0
M  V30 5781 H 537.236 -5.56988 1.87185 0
M  V30 5782 H 538.76 -6.01463 1.05233 0
M  V30 5783 H 540.174 -4.87487 3.01711 0
M  V30 5784 H 538.571 -4.66165 3.77902 0
M  V30 5785 H 539.641 -3.26097 3.58871 0
M  V30 5786 N 540.985 -1.06182 -1.16461 0
M  V30 5787 C 542.231 -0.779015 -1.87241 0
M  V30 5788 C 542.564 0.692715 -1.81425 0
M  V30 5789 O 541.839 1.5074 -1.22913 0
M  V30 5790 C 542.122 -1.2728 -3.36856 0
M  V30 5791 C 541.975 -2.80821 -3.51368 0
M  V30 5792 C 543.294 -0.879799 -4.31216 0
M  V30 5793 H 540.413 -0.284464 -0.679889 0
M  V30 5794 H 543.055 -1.31755 -1.36896 0
M  V30 5795 H 541.205 -0.814673 -3.79862 0
M  V30 5796 H 542.877 -3.34833 -3.17308 0
M  V30 5797 H 541.12 -3.19606 -2.93316 0
M  V30 5798 H 541.791 -3.10435 -4.56436 0
M  V30 5799 H 544.267 -1.27436 -3.96105 0
M  V30 5800 H 543.143 -1.25278 -5.34412 0
M  V30 5801 H 543.404 0.215372 -4.41575 0
M  V30 5802 N 542.463 1.3308 -0.844243 0
M  V30 5803 C 543.712 1.96868 -0.438833 0
M  V30 5804 C 544.025 1.67599 1.00846 0
M  V30 5805 O 545.231 2.25043 1.51881 0
M  V30 5806 C 543.687 3.5234 -0.73377 0
M  V30 5807 C 543.295 3.90481 -2.1961 0
M  V30 5808 C 545.039 4.22653 -0.395574 0
M  V30 5809 C 542.946 5.38954 -2.43481 0
M  V30 5810 H 541.876 0.736749 -0.160364 0
M  V30 5811 H 544.527 1.51623 -1.03358 0
M  V30 5812 H 542.909 3.95941 -0.068589 0
M  V30 5813 H 544.083 3.57922 -2.90221 0
M  V30 5814 H 542.398 3.33165 -2.4978 0
M  V30 5815 H 544.995 5.31848 -0.551477 0
M  V30 5816 H 545.338 4.11004 0.661921 0
M  V30 5817 H 545.871 3.84601 -1.01621 0
M  V30 5818 H 542.61 5.55612 -3.47816 0
M  V30 5819 H 542.13 5.72954 -1.77437 0
M  V30 5820 H 543.809 6.05907 -2.26905 0
M  V30 5821 N 543.941 0.601185 1.45683 0
M  V30 5822 C 545.166 0.0982245 2.07167 0
M  V30 5823 C 545.591 -1.20546 1.44396 0
M  V30 5824 O 544.949 -1.73247 0.534347 0
M  V30 5825 C 544.997 -0.0346976 3.60583 0
M  V30 5826 O 544.101 -1.08657 3.97828 0
M  V30 5827 H 543.442 0.0711618 0.660176 0
M  V30 5828 H 545.972 0.829376 1.87036 0
M  V30 5829 H 545.982 -0.234969 4.07323 0
M  V30 5830 H 544.657 0.917265 4.05659 0
M  V30 5831 H 543.234 -0.863275 3.6277 0
M  V30 5832 N 545.419 -1.53889 0.339982 0
M  V30 5833 C 546.349 -2.27843 -0.510856 0
M  V30 5834 C 547.33 -1.29267 -1.10563 0
M  V30 5835 O 548.515 -1.58104 -1.12768 0
M  V30 5836 C 545.645 -3.04857 -1.66372 0
M  V30 5837 C 544.599 -4.10907 -1.19746 0
M  V30 5838 C 543.925 -4.75855 -2.43857 0
M  V30 5839 C 545.225 -5.21435 -0.300501 0
M  V30 5840 H 546.919 -2.99212 0.106067 0
M  V30 5841 H 544.465 -1.43904 0.0524533 0
M  V30 5842 H 546.418 -3.5533 -2.26537 0
M  V30 5843 H 545.142 -2.31133 -2.30749 0
M  V30 5844 H 543.801 -3.61342 -0.618654 0
M  V30 5845 H 543.449 -3.9873 -3.06633 0
M  V30 5846 H 543.149 -5.47502 -2.13343 0
M  V30 5847 H 544.673 -5.2911 -3.04754 0
M  V30 5848 H 546.087 -5.67565 -0.80889 0
M  V30 5849 H 544.484 -6.00036 -0.0874076 0
M  V30 5850 H 545.554 -4.80328 0.664321 0
M  V30 5851 N 546.897 -0.0685191 -1.57451 0
M  V30 5852 C 547.847 0.909895 -2.09057 0
M  V30 5853 C 548.831 1.26088 -0.999528 0
M  V30 5854 O 550.023 1.24041 -1.26265 0
M  V30 5855 C 547.152 2.17863 -2.65312 0
M  V30 5856 C 546.238 1.85427 -3.81415 0
M  V30 5857 N 546.629 1.23426 -4.9051 0
M  V30 5858 C 544.927 2.15196 -3.90649 0
M  V30 5859 C 545.628 1.09008 -5.71395 0
M  V30 5860 N 544.604 1.59871 -5.1956 0
M  V30 5861 H 548.406 0.426145 -2.90794 0
M  V30 5862 H 545.92 0.135462 -1.61834 0
M  V30 5863 H 547.917 2.88872 -3.00597 0
M  V30 5864 H 546.577 2.66829 -1.85021 0
M  V30 5865 H 547.588 0.904305 -5.09944 0
M  V30 5866 H 544.265 2.66562 -3.21327 0
M  V30 5867 H 545.655 0.607305 -6.6915 0
M  V30 5868 N 548.375 1.56261 0.205012 0
M  V30 5869 C 549.308 1.88797 1.28183 0
M  V30 5870 C 550.286 0.747018 1.44424 0
M  V30 5871 O 551.47 0.997039 1.59973 0
M  V30 5872 C 548.597 2.10949 2.64987 0
M  V30 5873 C 547.643 3.33649 2.6567 0
M  V30 5874 S 548.476 4.89078 2.18088 0
M  V30 5875 C 549.632 5.14286 3.56736 0
M  V30 5876 H 549.865 2.79837 1.00393 0
M  V30 5877 H 547.398 1.48911 0.408042 0
M  V30 5878 H 549.356 2.24395 3.4374 0
M  V30 5879 H 548.017 1.20678 2.89993 0
M  V30 5880 H 547.21 3.46245 3.66239 0
M  V30 5881 H 546.812 3.19146 1.94992 0
M  V30 5882 H 549.104 5.04198 4.52537 0
M  V30 5883 H 550.047 6.16096 3.49043 0
M  V30 5884 H 550.455 4.41957 3.51189 0
M  V30 5885 N 549.853 -0.472356 1.50355 0
M  V30 5886 C 550.783 -1.57859 1.72055 0
M  V30 5887 C 551.764 -1.60283 0.569505 0
M  V30 5888 O 552.949 -1.7657 0.808503 0
M  V30 5889 C 550.079 -2.96191 1.81351 0
M  V30 5890 C 549.033 -3.08633 2.96529 0
M  V30 5891 C 548.359 -4.486 2.90968 0
M  V30 5892 C 549.659 -2.85969 4.37057 0
M  V30 5893 H 551.353 -1.39953 2.64676 0
M  V30 5894 H 548.899 -0.671846 1.27367 0
M  V30 5895 H 550.852 -3.73507 1.95117 0
M  V30 5896 H 549.576 -3.15251 0.853502 0
M  V30 5897 H 548.235 -2.33749 2.82413 0
M  V30 5898 H 547.883 -4.64577 1.92815 0
M  V30 5899 H 547.583 -4.57861 3.68289 0
M  V30 5900 H 549.107 -5.27938 3.0678 0
M  V30 5901 H 550.521 -3.53036 4.51706 0
M  V30 5902 H 548.918 -3.06677 5.15819 0
M  V30 5903 H 549.988 -1.81838 4.49514 0
M  V30 5904 N 551.331 -1.39911 -0.725443 0
M  V30 5905 C 552.281 -1.35878 -1.83088 0
M  V30 5906 C 553.265 -0.237989 -1.5913 0
M  V30 5907 O 554.457 -0.476302 -1.70471 0
M  V30 5908 C 551.586 -1.21403 -3.21117 0
M  V30 5909 C 550.672 -2.38223 -3.50871 0
M  V30 5910 N 551.063 -3.63703 -3.51502 0
M  V30 5911 C 549.361 -2.31388 -3.81281 0
M  V30 5912 C 550.062 -4.4101 -3.79322 0
M  V30 5913 N 549.038 -3.7072 -3.97577 0
M  V30 5914 H 552.84 -2.3085 -1.81895 0
M  V30 5915 H 550.354 -1.33543 -0.924125 0
M  V30 5916 H 552.351 -1.16597 -4.00263 0
M  V30 5917 H 551.011 -0.273902 -3.23543 0
M  V30 5918 H 552.022 -3.96998 -3.32586 0
M  V30 5919 H 548.699 -1.45689 -3.91256 0
M  V30 5920 H 550.089 -5.49819 -3.86198 0
M  V30 5921 N 552.809 0.956637 -1.25245 0
M  V30 5922 C 554.225 1.22733 -1.02023 0
M  V30 5923 C 554.425 1.99761 0.264186 0
M  V30 5924 O 553.481 2.32814 0.977436 0
M  V30 5925 C 554.794 2.00367 -2.24217 0
M  V30 5926 C 556.342 2.13418 -2.28958 0
M  V30 5927 C 556.817 2.9445 -3.50803 0
M  V30 5928 N 558.308 3.02029 -3.51187 0
M  V30 5929 C 559.043 3.65116 -4.42129 0
M  V30 5930 N 558.539 4.2983 -5.43339 0
M  V30 5931 N 560.332 3.62237 -4.29815 0
M  V30 5932 H 552.483 0.441282 -2.07765 0
M  V30 5933 H 554.746 0.257686 -0.912306 0
M  V30 5934 H 554.452 1.51165 -3.17556 0
M  V30 5935 H 554.326 3.01077 -2.27228 0
M  V30 5936 H 556.713 2.61819 -1.36143 0
M  V30 5937 H 556.794 1.1202 -2.29968 0
M  V30 5938 H 556.438 2.46741 -4.43939 0
M  V30 5939 H 556.368 3.9607 -3.47039 0
M  V30 5940 H 558.859 2.56007 -2.77973 0
M  V30 5941 H 559.172 4.75819 -6.08947 0
M  V30 5942 H 557.517 4.28465 -5.47214 0
M  V30 5943 H 560.708 3.10863 -3.49974 0
M  V30 5944 H 560.881 4.11117 -5.00886 0
M  V30 5945 N 554.287 1.06798 1.15896 0
M  V30 5946 C 555.197 0.694564 2.24083 0
M  V30 5947 C 556.213 -0.291687 1.71538 0
M  V30 5948 O 557.389 -0.139723 2.00915 0
M  V30 5949 C 554.454 0.0921014 3.46578 0
M  V30 5950 C 553.515 1.13087 4.14137 0
M  V30 5951 C 552.748 0.557064 5.30785 0
M  V30 5952 O 552.971 -0.628623 5.66925 0
M  V30 5953 O 551.905 1.29924 5.8771 0
M  V30 5954 H 555.731 1.59663 2.58344 0
M  V30 5955 H 553.316 0.840575 1.2351 0
M  V30 5956 H 555.198 -0.241884 4.20705 0
M  V30 5957 H 553.873 -0.78337 3.14078 0
M  V30 5958 H 552.78 1.51712 3.41957 0
M  V30 5959 H 554.113 1.97805 4.50704 0
M  V30 5960 N 555.766 -1.3263 0.851289 0
M  V30 5961 C 556.698 -2.27824 0.250757 0
M  V30 5962 C 557.711 -1.52285 -0.575598 0
M  V30 5963 O 558.9 -1.73946 -0.400638 0
M  V30 5964 C 556 -3.3232 -0.664571 0
M  V30 5965 C 555.173 -4.37221 0.125187 0
M  V30 5966 C 554.232 -5.21314 -0.715385 0
M  V30 5967 O 553.258 -5.69002 -0.150111 0
M  V30 5968 N 554.46 -5.43823 -2.03069 0
M  V30 5969 H 557.225 -2.79997 1.06873 0
M  V30 5970 H 554.786 -1.45455 0.710943 0
M  V30 5971 H 556.778 -3.85486 -1.23216 0
M  V30 5972 H 555.348 -2.80331 -1.38323 0
M  V30 5973 H 554.568 -3.84384 0.874199 0
M  V30 5974 H 555.856 -5.04399 0.667774 0
M  V30 5975 H 555.254 -5.06803 -2.51332 0
M  V30 5976 H 553.811 -5.99998 -2.54648 0
M  V30 5977 N 557.244 -0.608902 -1.45362 0
M  V30 5978 C 558.192 0.121639 -2.32282 0
M  V30 5979 C 559.186 0.858301 -1.46046 0
M  V30 5980 O 560.392 0.773718 -1.62523 0
M  V30 5981 H 556.767 0.058086 -0.749753 0
M  V30 5982 H 558.738 -0.629866 -2.91677 0
M  V30 5983 C 557.487 1.1047 -3.29684 0
M  V30 5984 H 556.81 0.547278 -3.96036 0
M  V30 5985 H 558.25 1.58576 -3.9323 0
M  V30 5986 C 556.709 2.17891 -2.56954 0
M  V30 5987 O 557.239 3.25652 -2.35189 0
M  V30 5988 N 555.445 1.93211 -2.17066 0
M  V30 5989 H 554.992 1.05584 -2.34967 0
M  V30 5990 H 554.95 2.6529 -1.68727 0
M  V30 5991 N 558.722 1.53707 -0.348139 0
M  V30 5992 C 559.968 2.01286 0.247332 0
M  V30 5993 C 560.301 1.23546 1.49834 0
M  V30 5994 O 559.576 0.324331 1.91777 0
M  V30 5995 C 559.859 3.55768 0.556858 0
M  V30 5996 C 559.712 4.44216 -0.706564 0
M  V30 5997 C 561.031 4.1841 1.3646 0
M  V30 5998 H 558.15 0.731677 0.0884201 0
M  V30 5999 H 560.792 1.84106 -0.469584 0
M  V30 6000 H 558.942 3.70539 1.16761 0
M  V30 6001 H 560.614 4.41274 -1.34444 0
M  V30 6002 H 558.857 4.12892 -1.33052 0
M  V30 6003 H 559.528 5.50202 -0.445186 0
M  V30 6004 H 562.004 4.07365 0.848113 0
M  V30 6005 H 560.88 5.26563 1.54992 0
M  V30 6006 H 561.141 3.7333 2.36805 0
M  V30 6007 N 560.2 0.0768682 1.57412 0
M  V30 6008 C 561.44 -0.594676 1.95558 0
M  V30 6009 C 561.804 -1.66469 0.956658 0
M  V30 6010 O 563.005 -2.39215 1.22595 0
M  V30 6011 C 561.276 -1.15206 3.38323 0
M  V30 6012 S 562.835 -1.83803 3.9845 0
M  V30 6013 H 559.653 -0.194579 0.683857 0
M  V30 6014 H 562.255 0.151933 1.94909 0
M  V30 6015 H 560.959 -0.36153 4.08805 0
M  V30 6016 H 560.49 -1.93491 3.42527 0
M  V30 6017 H 562.505 -3.12087 3.85767 0
M  V30 6018 N 561.678 -1.56367 -0.196722 0
M  V30 6019 C 562.924 -1.80796 -0.918725 0
M  V30 6020 C 563.257 -0.650645 -1.82976 0
M  V30 6021 O 562.532 0.348889 -1.91345 0
M  V30 6022 C 562.815 -3.15472 -1.73636 0
M  V30 6023 C 562.668 -4.41693 -0.85015 0
M  V30 6024 C 563.987 -3.46824 -2.70927 0
M  V30 6025 H 561.106 -0.657702 -0.332561 0
M  V30 6026 H 563.748 -1.89086 -0.186186 0
M  V30 6027 H 561.898 -3.08536 -2.36088 0
M  V30 6028 H 563.57 -4.60673 -0.240459 0
M  V30 6029 H 561.813 -4.33517 -0.156785 0
M  V30 6030 H 562.484 -5.32419 -1.45719 0
M  V30 6031 H 564.96 -3.54049 -2.18607 0
M  V30 6032 H 563.836 -4.4218 -3.25219 0
M  V30 6033 H 564.097 -2.70236 -3.49893 0
M  V30 6034 N 563.156 0.464375 -1.50603 0
M  V30 6035 C 564.089 1.58052 -1.64605 0
M  V30 6036 C 565.067 1.54914 -0.494016 0
M  V30 6037 O 566.251 1.74438 -0.714393 0
M  V30 6038 C 563.378 2.96634 -1.63481 0
M  V30 6039 C 562.424 3.17901 -2.84325 0
M  V30 6040 S 563.257 2.97083 -4.45536 0
M  V30 6041 C 564.413 4.37994 -4.47115 0
M  V30 6042 H 564.646 1.45937 -2.59017 0
M  V30 6043 H 562.179 0.652189 -1.39949 0
M  V30 6044 H 564.137 3.76527 -1.63517 0
M  V30 6045 H 562.798 3.06134 -0.702928 0
M  V30 6046 H 561.991 4.19158 -2.79862 0
M  V30 6047 H 561.593 2.45792 -2.81891 0
M  V30 6048 H 563.885 5.30743 -4.21091 0
M  V30 6049 H 564.828 4.47499 -5.48772 0
M  V30 6050 H 565.236 4.20386 -3.76743 0
M  V30 6051 N 564.634 1.40294 0.718013 0
M  V30 6052 C 565.582 1.40536 1.85344 0
M  V30 6053 C 566.576 0.286192 1.66965 0
M  V30 6054 O 567.782 0.457105 1.74099 0
M  V30 6055 H 564.157 0.439236 0.61039 0
M  V30 6056 H 566.128 2.36275 1.82255 0
M  V30 6057 C 564.877 1.28245 3.23185 0
M  V30 6058 H 564.2 2.1364 3.37932 0
M  V30 6059 H 565.64 1.32474 4.02774 0
M  V30 6060 C 564.099 -0.0075503 3.36899 0
M  V30 6061 O 564.629 -0.971391 3.89778 0
M  V30 6062 N 562.835 -0.0762479 2.905 0
M  V30 6063 H 562.382 0.708819 2.47656 0
M  V30 6064 H 562.34 -0.938846 3.00055 0
M  V30 6065 N 566.112 -0.949982 1.2575 0
M  V30 6066 C 567.523 -1.50989 1.09815 0
M  V30 6067 C 567.874 -1.93497 -0.324556 0
M  V30 6068 O 566.999 -1.79068 -1.21506 0
M  V30 6069 C 567.594 -2.74394 1.98729 0
M  V30 6070 C 566.153 -3.26682 1.86965 0
M  V30 6071 C 565.3 -1.99498 1.92603 0
M  V30 6072 H 568.251 -0.766387 1.38968 0
M  V30 6073 H 568.272 -3.48383 1.53001 0
M  V30 6074 H 567.784 -2.43425 3.02268 0
M  V30 6075 H 565.885 -3.62461 0.863279 0
M  V30 6076 H 565.998 -3.94383 2.72027 0
M  V30 6077 H 564.362 -2.15005 1.36546 0
M  V30 6078 H 565.145 -1.70871 2.97755 0
M  V30 6079 N 567.59 -1.07411 -1.15328 0
M  V30 6080 C 568.867 -0.710732 -1.82231 0
M  V30 6081 C 569.247 0.806732 -1.95077 0
M  V30 6082 O 568.595 1.72139 -1.50268 0
M  V30 6083 C 568.805 -1.42586 -3.18544 0
M  V30 6084 C 570.153 -1.57836 -3.94174 0
M  V30 6085 O 571.177 -1.38669 -3.281 0
M  V30 6086 O 570.036 -1.8938 -5.12638 0
M  V30 6087 H 567.13 -0.25297 -0.78736 0
M  V30 6088 H 569.676 -1.17508 -1.22434 0
M  V30 6089 H 568.448 -2.46008 -3.04296 0
M  V30 6090 H 568.071 -0.952332 -3.86026 0
M  V30 6091 N 569.068 1.32177 -0.85831 0
M  V30 6092 C 569.998 2.31282 -0.321041 0
M  V30 6093 C 570.979 1.59841 0.581786 0
M  V30 6094 O 572.164 1.87619 0.501262 0
M  V30 6095 C 569.294 3.4385 0.48832 0
M  V30 6096 C 568.248 4.26799 -0.320391 0
M  V30 6097 C 567.574 5.31164 0.613934 0
M  V30 6098 C 568.874 4.98829 -1.54813 0
M  V30 6099 H 570.568 2.76469 -1.14915 0
M  V30 6100 H 568.114 1.32916 -0.554028 0
M  V30 6101 H 570.067 4.12224 0.874626 0
M  V30 6102 H 568.791 2.97401 1.34983 0
M  V30 6103 H 567.45 3.60077 -0.688497 0
M  V30 6104 H 567.098 4.80967 1.47239 0
M  V30 6105 H 566.798 5.8755 0.0768097 0
M  V30 6106 H 568.322 6.024 0.997336 0
M  V30 6107 H 569.736 5.59864 -1.23392 0
M  V30 6108 H 568.133 5.64957 -2.02346 0
M  V30 6109 H 569.203 4.26483 -2.30739 0
M  V30 6110 N 570.547 0.616602 1.45037 0
M  V30 6111 C 571.775 0.121968 2.0654 0
M  V30 6112 C 572.19 -1.19743 1.45969 0
M  V30 6113 O 571.547 -1.73133 0.577168 0
M  V30 6114 C 571.598 -0.0145171 3.61497 0
M  V30 6115 O 571.319 1.25269 4.19809 0
M  V30 6116 C 572.82 -0.539555 4.40004 0
M  V30 6117 H 570.04 0.0729837 0.667019 0
M  V30 6118 H 572.584 0.846891 1.8614 0
M  V30 6119 H 570.739 -0.689809 3.81209 0
M  V30 6120 H 571.153 1.08816 5.13088 0
M  V30 6121 H 572.627 -0.584112 5.48901 0
M  V30 6122 H 573.104 -1.56368 4.10421 0
M  V30 6123 H 573.71 0.101995 4.25178 0
M  V30 6124 N 572.025 -1.5352 0.356285 0
M  V30 6125 C 573.273 -2.00719 -0.235837 0
M  V30 6126 C 573.594 -1.24551 -1.5004 0
M  V30 6127 O 572.864 -0.356185 -1.92635 0
M  V30 6128 H 571.444 -0.741542 -0.0901366 0
M  V30 6129 H 574.106 -1.88887 0.480378 0
M  V30 6130 H 573.202 -3.08551 -0.469357 0
M  V30 6131 N 573.503 -0.0852151 -1.57369 0
M  V30 6132 C 574.435 0.907099 -2.10486 0
M  V30 6133 C 575.448 1.25259 -1.03991 0
M  V30 6134 O 576.637 1.20743 -1.31467 0
M  V30 6135 C 573.737 2.21908 -2.56145 0
M  V30 6136 C 572.91 2.05042 -3.86363 0
M  V30 6137 C 571.969 3.19664 -4.17973 0
M  V30 6138 O 570.995 2.94062 -4.87356 0
M  V30 6139 N 572.197 4.45151 -3.72587 0
M  V30 6140 H 574.962 0.453505 -2.96249 0
M  V30 6141 H 572.523 0.100157 -1.6159 0
M  V30 6142 H 574.515 2.97519 -2.74343 0
M  V30 6143 H 573.085 2.58723 -1.75446 0
M  V30 6144 H 572.305 1.13819 -3.77411 0
M  V30 6145 H 573.593 1.91039 -4.71574 0
M  V30 6146 H 572.991 4.68834 -3.16561 0
M  V30 6147 H 571.548 5.17744 -3.9596 0
M  V30 6148 N 574.981 1.5647 0.188427 0
M  V30 6149 C 576.209 1.85131 0.923803 0
M  V30 6150 C 576.624 0.668537 1.76567 0
M  V30 6151 O 575.981 -0.362662 1.7886 0
M  V30 6152 C 576.032 3.12661 1.81453 0
M  V30 6153 O 575.753 4.26378 1.00665 0
M  V30 6154 C 577.254 3.54548 2.66103 0
M  V30 6155 H 574.474 0.614624 0.269218 0
M  V30 6156 H 577.018 2.03581 0.193671 0
M  V30 6157 H 575.173 2.96088 2.49821 0
M  V30 6158 H 575.587 4.99041 1.61425 0
M  V30 6159 H 577.061 4.4673 3.24247 0
M  V30 6160 H 577.538 2.77853 3.40139 0
M  V30 6161 H 578.144 3.73674 2.03096 0
M  V30 6162 N 576.459 -0.456382 1.50847 0
M  V30 6163 C 577.392 -1.57177 1.65441 0
M  V30 6164 C 578.37 -1.54649 0.502224 0
M  V30 6165 O 579.554 -1.74057 0.723633 0
M  V30 6166 C 576.681 -2.95763 1.65052 0
M  V30 6167 C 575.727 -3.16389 2.86007 0
M  V30 6168 S 576.56 -2.94716 4.47105 0
M  V30 6169 C 577.716 -4.35617 4.49432 0
M  V30 6170 H 577.949 -1.44561 2.59787 0
M  V30 6171 H 575.482 -0.644758 1.40293 0
M  V30 6172 H 577.44 -3.75654 1.65512 0
M  V30 6173 H 576.101 -3.05756 0.719153 0
M  V30 6174 H 575.294 -4.17667 2.82081 0
M  V30 6175 H 574.896 -2.44293 2.8319 0
M  V30 6176 H 577.188 -5.28503 4.239 0
M  V30 6177 H 578.131 -4.44582 5.51137 0
M  V30 6178 H 578.539 -4.18382 3.78967 0
M  V30 6179 N 577.937 -1.40673 -0.710563 0
M  V30 6180 C 579.185 -1.38947 -1.46759 0
M  V30 6181 C 579.506 0.00572879 -1.94999 0
M  V30 6182 O 578.776 0.961358 -1.70689 0
M  V30 6183 H 577.356 -0.5114 -0.544499 0
M  V30 6184 H 580.018 -1.75773 -0.842012 0
M  V30 6185 H 579.114 -2.06745 -2.33801 0
M  V30 6186 N 579.415 0.9433 -1.26252 0
M  V30 6187 C 580.362 2.0417 -1.07625 0
M  V30 6188 C 581.332 1.6609 0.0180738 0
M  V30 6189 O 582.517 1.90276 -0.141289 0
M  V30 6190 C 579.657 3.37653 -0.713043 0
M  V30 6191 C 578.77 3.88783 -1.8834 0
M  V30 6192 C 577.905 5.10642 -1.4635 0
M  V30 6193 C 576.944 5.54028 -2.60229 0
M  V30 6194 N 576.081 6.67092 -2.18936 0
M  V30 6195 H 580.921 2.19436 -2.01623 0
M  V30 6196 H 578.458 1.07519 -1.00389 0
M  V30 6197 H 580.416 4.14391 -0.483358 0
M  V30 6198 H 579.046 3.22241 0.18996 0
M  V30 6199 H 578.098 3.08464 -2.22608 0
M  V30 6200 H 579.41 4.16922 -2.73821 0
M  V30 6201 H 578.564 5.94832 -1.19414 0
M  V30 6202 H 577.303 4.84244 -0.579568 0
M  V30 6203 H 576.308 4.68396 -2.87898 0
M  V30 6204 H 577.533 5.82429 -3.49219 0
M  V30 6205 H 575.479 6.42381 -1.32974 0
M  V30 6206 H 575.396 6.94806 -2.97961 0
M  V30 6207 H 576.664 7.54662 -1.95206 0
M  V30 6208 N 580.893 1.08022 1.14757 0
M  V30 6209 C 582.304 0.829144 1.67279 0
M  V30 6210 C 582.655 -0.644721 1.85305 0
M  V30 6211 O 581.78 -1.49838 1.56133 0
M  V30 6212 C 582.375 1.49855 3.03857 0
M  V30 6213 C 580.934 1.29482 3.53428 0
M  V30 6214 C 580.081 1.56386 2.28995 0
M  V30 6215 H 583.032 1.24134 0.988762 0
M  V30 6216 H 583.053 0.923572 3.69121 0
M  V30 6217 H 582.565 2.57123 2.90705 0
M  V30 6218 H 580.666 0.242669 3.71809 0
M  V30 6219 H 580.779 2.01974 4.34446 0
M  V30 6220 H 579.143 0.985217 2.34874 0
M  V30 6221 H 579.926 2.64851 2.18423 0
M  V30 6222 N 582.371 -1.3172 0.865308 0
M  V30 6223 C 583.301 -2.31109 0.333302 0
M  V30 6224 C 584.282 -1.60148 -0.573301 0
M  V30 6225 O 585.467 -1.87882 -0.491305 0
M  V30 6226 C 582.597 -3.44104 -0.470078 0
M  V30 6227 C 581.551 -4.26623 0.343021 0
M  V30 6228 C 580.877 -5.31482 -0.585756 0
M  V30 6229 C 582.177 -4.98001 1.57456 0
M  V30 6230 H 583.871 -2.75855 1.1638 0
M  V30 6231 H 581.417 -1.3262 0.561069 0
M  V30 6232 H 583.37 -4.12682 -0.852752 0
M  V30 6233 H 582.094 -2.98112 -1.33404 0
M  V30 6234 H 580.753 -3.59707 0.707583 0
M  V30 6235 H 580.401 -4.81741 -1.44686 0
M  V30 6236 H 580.101 -5.87582 -0.0456494 0
M  V30 6237 H 581.625 -6.0292 -0.965375 0
M  V30 6238 H 583.039 -5.59201 1.26359 0
M  V30 6239 H 581.436 -5.63876 2.05339 0
M  V30 6240 H 582.506 -4.25253 2.32997 0
M  V30 6241 N 583.85 -0.624285 -1.44708 0
M  V30 6242 C 584.798 0.0969952 -2.32398 0
M  V30 6243 C 585.792 0.842762 -1.46949 0
M  V30 6244 O 586.998 0.756436 -1.63334 0
M  V30 6245 H 583.373 0.0501306 -0.750327 0
M  V30 6246 H 585.344 -0.660767 -2.90992 0
M  V30 6247 C 584.093 1.06967 -3.30837 0
M  V30 6248 H 583.416 0.505242 -3.96595 0
M  V30 6249 H 584.856 1.54397 -3.94889 0
M  V30 6250 C 583.315 2.15153 -2.5925 0
M  V30 6251 O 583.845 3.23139 -2.3863 0
M  V30 6252 N 582.051 1.90898 -2.19103 0
M  V30 6253 H 581.598 1.03086 -2.36074 0
M  V30 6254 H 581.556 2.63485 -1.71531 0
M  V30 6255 N 585.328 1.53329 -0.364422 0
M  V30 6256 C 586.739 1.86345 0.115039 0
M  V30 6257 C 587.09 1.28505 1.4826 0
M  V30 6258 O 586.215 0.606639 2.07723 0
M  V30 6259 C 586.81 3.38114 0.215522 0
M  V30 6260 C 585.369 3.70932 0.639237 0
M  V30 6261 C 584.516 2.76471 -0.214261 0
M  V30 6262 H 587.467 1.47593 -0.583258 0
M  V30 6263 H 587.488 3.66031 1.0393 0
M  V30 6264 H 587 3.80182 -0.779948 0
M  V30 6265 H 585.101 3.3442 1.64298 0
M  V30 6266 H 585.214 4.77302 0.41465 0
M  V30 6267 H 583.578 2.52724 0.316678 0
M  V30 6268 H 584.361 3.21373 -1.20725 0
M  V30 6269 N 586.806 0.0935595 1.57322 0
M  V30 6270 C 588.055 -0.570191 1.93473 0
M  V30 6271 C 588.368 -1.69434 0.977318 0
M  V30 6272 O 589.574 -2.41914 1.23248 0
M  V30 6273 C 588.03 -1.06564 3.43762 0
M  V30 6274 C 587.638 0.0286723 4.47991 0
M  V30 6275 C 589.382 -1.70221 3.88877 0
M  V30 6276 C 587.289 -0.482046 5.89432 0
M  V30 6277 H 586.219 -0.216764 0.72217 0
M  V30 6278 H 588.87 0.169313 1.82717 0
M  V30 6279 H 587.252 -1.85878 3.49664 0
M  V30 6280 H 588.426 0.804106 4.5373 0
M  V30 6281 H 586.741 0.570336 4.12476 0
M  V30 6282 H 589.338 -2.09502 4.91948 0
M  V30 6283 H 589.681 -2.57078 3.27439 0
M  V30 6284 H 590.214 -0.974919 3.85668 0
M  V30 6285 H 586.953 0.349871 6.54566 0
M  V30 6286 H 586.473 -1.22452 5.87167 0
M  V30 6287 H 588.152 -0.951508 6.39965 0
M  V30 6288 N 588.284 -1.56567 -0.180126 0
M  V30 6289 C 589.509 -1.85975 -0.918041 0
M  V30 6290 C 589.934 -0.678888 -1.75422 0
M  V30 6291 O 589.292 0.372168 -1.77439 0
M  V30 6292 C 589.34 -3.13731 -1.77779 0
M  V30 6293 O 588.444 -2.95335 -2.87838 0
M  V30 6294 H 587.785 -0.61196 -0.257683 0
M  V30 6295 H 590.315 -2.03798 -0.180923 0
M  V30 6296 H 590.325 -3.4491 -2.17948 0
M  V30 6297 H 589 -3.99293 -1.16352 0
M  V30 6298 H 587.577 -2.7549 -2.51316 0
M  V30 6299 N 589.762 0.448376 -1.51087 0
M  V30 6300 C 590.987 1.22605 -1.6728 0
M  V30 6301 C 591.412 1.84524 -0.365045 0
M  V30 6302 O 590.77 1.6832 0.673642 0
M  V30 6303 C 590.818 2.29393 -2.78229 0
M  V30 6304 O 589.922 3.34608 -2.41063 0
M  V30 6305 H 589.263 0.359705 -0.558129 0
M  V30 6306 H 591.793 0.530903 -1.97592 0
M  V30 6307 H 591.803 2.74352 -3.01986 0
M  V30 6308 H 590.478 1.83701 -3.73131 0
M  V30 6309 H 589.055 2.95202 -2.27838 0
M  V30 6310 N 591.24 1.41047 0.703093 0
M  V30 6311 C 592.188 1.42494 1.83843 0
M  V30 6312 C 593.182 0.303885 1.66652 0
M  V30 6313 O 594.388 0.475544 1.73605 0
M  V30 6314 H 590.763 0.445685 0.605697 0
M  V30 6315 H 592.734 2.38194 1.79739 0
M  V30 6316 C 591.483 1.31666 3.21807 0
M  V30 6317 H 590.806 2.17212 3.35647 0
M  V30 6318 H 592.246 1.36738 4.01346 0
M  V30 6319 C 590.705 0.0281828 3.36888 0
M  V30 6320 O 591.235 -0.929995 3.90786 0
M  V30 6321 N 589.441 -0.0454322 2.90564 0
M  V30 6322 H 588.988 0.735046 2.4689 0
M  V30 6323 H 588.946 -0.906968 3.01034 0
M  V30 6324 N 592.718 -0.936591 1.26751 0
M  V30 6325 C 593.943 -1.72288 1.15462 0
M  V30 6326 C 594.368 -1.85915 -0.285887 0
M  V30 6327 O 593.726 -1.35272 -1.20711 0
M  V30 6328 C 593.774 -3.10503 1.83359 0
M  V30 6329 O 592.878 -3.96745 1.1255 0
M  V30 6330 H 592.219 -0.52843 0.402067 0
M  V30 6331 H 594.749 -1.17271 1.67656 0
M  V30 6332 H 594.759 -3.60867 1.90365 0
M  V30 6333 H 593.434 -2.99901 2.88153 0
M  V30 6334 H 592.011 -3.55191 1.13551 0
M  V30 6335 N 594.196 -1.08629 -1.14182 0
M  V30 6336 C 595.607 -0.838003 -1.66836 0
M  V30 6337 C 595.958 0.634885 -1.85644 0
M  V30 6338 O 595.083 1.49008 -1.56926 0
M  V30 6339 C 595.678 -1.51465 -3.03058 0
M  V30 6340 C 594.237 -1.31355 -3.52736 0
M  V30 6341 C 593.384 -1.57599 -2.28162 0
M  V30 6342 H 596.335 -1.24656 -0.982165 0
M  V30 6343 H 596.356 -0.943134 -3.68626 0
M  V30 6344 H 595.868 -2.58661 -2.89337 0
M  V30 6345 H 593.969 -0.262384 -3.71675 0
M  V30 6346 H 594.082 -2.04275 -4.33369 0
M  V30 6347 H 592.446 -0.997659 -2.34348 0
M  V30 6348 H 593.229 -2.66006 -2.17015 0
M  V30 6349 N 595.674 1.31259 -0.872281 0
M  V30 6350 C 596.637 2.26744 -0.334656 0
M  V30 6351 C 597.637 1.52307 0.515681 0
M  V30 6352 O 598.827 1.71148 0.324656 0
M  V30 6353 C 595.959 3.36841 0.524482 0
M  V30 6354 H 597.152 2.75812 -1.17762 0
M  V30 6355 H 594.705 1.42232 -0.648064 0
M  V30 6356 H 595.44 2.93069 1.38855 0
M  V30 6357 H 595.225 3.92009 -0.0844299 0
M  V30 6358 H 596.715 4.07944 0.892838 0
M  V30 6359 N 597.152 0.631951 1.44375 0
M  V30 6360 C 598.102 -0.0943862 2.27805 0
M  V30 6361 C 599.086 -0.815359 1.38711 0
M  V30 6362 O 600.278 -0.701331 1.62513 0
M  V30 6363 C 597.407 -1.07472 3.26044 0
M  V30 6364 C 596.493 -0.353329 4.22626 0
M  V30 6365 N 596.884 0.618512 5.02004 0
M  V30 6366 C 595.182 -0.597662 4.41977 0
M  V30 6367 C 595.883 1.0448 5.7224 0
M  V30 6368 N 594.859 0.383413 5.42246 0
M  V30 6369 H 598.661 0.651672 2.86584 0
M  V30 6370 H 596.175 0.45752 1.55822 0
M  V30 6371 H 598.172 -1.60969 3.84571 0
M  V30 6372 H 596.832 -1.82107 2.68825 0
M  V30 6373 H 597.843 0.996356 5.08226 0
M  V30 6374 H 594.52 -1.32682 3.95856 0
M  V30 6375 H 595.91 1.84773 6.45994 0
M  V30 6376 N 598.631 -1.53133 0.372548 0
M  V30 6377 C 599.563 -2.23557 -0.505444 0
M  V30 6378 C 600.576 -1.25211 -1.04049 0
M  V30 6379 O 601.765 -1.51391 -0.945675 0
M  V30 6380 C 598.865 -2.92516 -1.71136 0
M  V30 6381 C 598.038 -4.17428 -1.30661 0
M  V30 6382 C 597.097 -4.69535 -2.37536 0
M  V30 6383 O 596.123 -5.33042 -1.99637 0
M  V30 6384 N 597.325 -4.47947 -3.6922 0
M  V30 6385 H 600.09 -2.9954 0.0978259 0
M  V30 6386 H 597.651 -1.60684 0.198068 0
M  V30 6387 H 599.643 -3.24281 -2.42124 0
M  V30 6388 H 598.213 -2.19944 -2.22134 0
M  V30 6389 H 597.433 -3.91888 -0.426292 0
M  V30 6390 H 598.721 -4.98622 -1.01259 0
M  V30 6391 H 598.119 -3.97219 -4.02783 0
M  V30 6392 H 596.676 -4.84245 -4.36292 0
M  V30 6393 N 600.109 -0.101901 -1.5727 0
M  V30 6394 C 601.072 0.840129 -2.13247 0
M  V30 6395 C 602.072 1.20625 -1.06331 0
M  V30 6396 O 603.262 1.13456 -1.32186 0
M  V30 6397 C 600.394 2.13372 -2.65867 0
M  V30 6398 H 601.587 0.353945 -2.97804 0
M  V30 6399 H 599.14 0.147167 -1.55606 0
M  V30 6400 H 599.875 2.66461 -1.84849 0
M  V30 6401 H 599.66 1.88085 -3.44044 0
M  V30 6402 H 601.15 2.80748 -3.09145 0
M  V30 6403 N 601.587 1.56661 0.17182 0
M  V30 6404 C 602.517 1.99401 1.21498 0
M  V30 6405 C 603.498 0.869516 1.46197 0
M  V30 6406 O 604.683 1.13556 1.57539 0
M  V30 6407 C 601.813 2.35346 2.55401 0
M  V30 6408 C 600.767 3.5075 2.45272 0
M  V30 6409 C 600.093 3.72437 3.8366 0
M  V30 6410 C 601.393 4.84216 1.95787 0
M  V30 6411 H 603.087 2.86792 0.859699 0
M  V30 6412 H 600.633 1.37977 0.412103 0
M  V30 6413 H 602.586 2.63843 3.2858 0
M  V30 6414 H 601.31 1.44864 2.92715 0
M  V30 6415 H 599.969 3.2238 1.74547 0
M  V30 6416 H 599.617 2.79246 4.18367 0
M  V30 6417 H 599.317 4.50087 3.77751 0
M  V30 6418 H 600.841 4.03334 4.58426 0
M  V30 6419 H 602.255 5.11592 2.5874 0
M  V30 6420 H 600.652 5.65498 2.00827 0
M  V30 6421 H 601.722 4.76243 0.912159 0
M  V30 6422 N 603.065 -0.440357 1.51323 0
M  V30 6423 C 604.305 -1.19956 1.65499 0
M  V30 6424 C 604.669 -1.88559 0.361878 0
M  V30 6425 O 605.87 -2.66109 0.379383 0
M  V30 6426 C 604.141 -2.1918 2.82303 0
M  V30 6427 S 605.7 -3.03627 3.1679 0
M  V30 6428 H 602.518 -0.406833 0.583102 0
M  V30 6429 H 605.12 -0.491596 1.89218 0
M  V30 6430 H 603.824 -1.67414 3.74701 0
M  V30 6431 H 603.355 -2.94561 2.60763 0
M  V30 6432 H 605.37 -4.20773 2.62991 0
M  V30 6433 N 604.543 -1.41418 -0.695603 0
M  V30 6434 C 605.768 -1.44329 -1.48942 0
M  V30 6435 C 606.193 -0.0501579 -1.88033 0
M  V30 6436 O 605.551 0.946598 -1.54626 0
M  V30 6437 C 605.599 -2.3578 -2.72837 0
M  V30 6438 O 604.703 -1.81482 -3.70322 0
M  V30 6439 H 604.044 -0.489838 -0.44828 0
M  V30 6440 H 606.574 -1.85878 -0.855014 0
M  V30 6441 H 606.584 -2.51654 -3.21145 0
M  V30 6442 H 605.259 -3.37005 -2.43722 0
M  V30 6443 H 603.836 -1.75058 -3.29255 0
M  V30 6444 N 606.021 0.929856 -1.27246 0
M  V30 6445 C 607.269 1.674 -1.13233 0
M  V30 6446 C 607.59 1.92311 0.322744 0
M  V30 6447 O 606.86 1.52784 1.22612 0
M  V30 6448 H 605.44 0.620411 -0.416052 0
M  V30 6449 H 608.102 1.11663 -1.59741 0
M  V30 6450 H 607.198 2.64308 -1.65975 0
M  V30 6451 N 607.499 1.09233 1.13605 0
M  V30 6452 C 608.447 0.724572 2.21027 0
M  V30 6453 C 609.441 -0.273595 1.67176 0
M  V30 6454 O 610.647 -0.135266 1.79491 0
M  V30 6455 H 607.022 0.216319 0.720215 0
M  V30 6456 H 608.993 1.63975 2.49309 0
M  V30 6457 C 607.742 0.159126 3.47336 0
M  V30 6458 H 607.065 0.918387 3.89109 0
M  V30 6459 H 608.505 -0.0602851 4.23957 0
M  V30 6460 C 606.964 -1.10514 3.18258 0
M  V30 6461 O 607.494 -2.18869 3.36837 0
M  V30 6462 N 605.7 -1.01886 2.72154 0
M  V30 6463 H 605.247 -0.137027 2.57235 0
M  V30 6464 H 605.205 -1.8655 2.53074 0
M  V30 6465 N 608.977 -1.30795 0.87923 0
M  V30 6466 C 610.388 -1.78535 0.546093 0
M  V30 6467 C 610.739 -1.72354 -0.937467 0
M  V30 6468 O 609.864 -1.2969 -1.73233 0
M  V30 6469 C 610.459 -3.24181 0.9845 0
M  V30 6470 C 609.018 -3.69779 0.702871 0
M  V30 6471 C 608.165 -2.51377 1.17068 0
M  V30 6472 H 611.116 -1.17746 1.06403 0
M  V30 6473 H 611.137 -3.79227 0.311045 0
M  V30 6474 H 610.649 -3.28647 2.06429 0
M  V30 6475 H 608.75 -3.70806 -0.365166 0
M  V30 6476 H 608.863 -4.61507 1.28639 0
M  V30 6477 H 607.227 -2.47768 0.590172 0
M  V30 6478 H 608.01 -2.58584 2.25808 0
M  V30 6479 N 610.455 -0.639598 -1.44038 0
M  V30 6480 C 611.703 -0.147188 -2.01563 0
M  V30 6481 C 612.024 1.2384 -1.50628 0
M  V30 6482 O 611.294 1.82452 -0.713316 0
M  V30 6483 H 609.874 -0.0514231 -0.745228 0
M  V30 6484 H 612.536 -0.828205 -1.76428 0
M  V30 6485 H 611.632 -0.121358 -3.11864 0
M  V30 6486 N 611.933 1.52934 -0.380664 0
M  V30 6487 C 612.865 2.23822 0.493581 0
M  V30 6488 C 613.878 1.25761 1.03383 0
M  V30 6489 O 615.067 1.5189 0.937633 0
M  V30 6490 C 612.167 2.9342 1.69582 0
M  V30 6491 C 611.34 4.18115 1.28445 0
M  V30 6492 C 610.399 4.70788 2.35042 0
M  V30 6493 O 609.425 5.34093 1.96807 0
M  V30 6494 N 610.627 4.49899 3.66839 0
M  V30 6495 H 613.392 2.99484 -0.11371 0
M  V30 6496 H 610.953 1.60577 -0.206587 0
M  V30 6497 H 612.945 3.2556 2.40401 0
M  V30 6498 H 611.515 2.21119 2.20965 0
M  V30 6499 H 610.735 3.92109 0.405503 0
M  V30 6500 H 612.023 4.99152 0.986132 0
M  V30 6501 H 611.421 3.99349 4.0067 0
M  V30 6502 H 609.978 4.86551 4.33718 0
M  V30 6503 N 613.412 0.11024 1.57214 0
M  V30 6504 C 614.689 -0.592956 1.86396 0
M  V30 6505 C 615.069 -1.85379 1.00985 0
M  V30 6506 O 614.417 -2.28337 0.0863592 0
M  V30 6507 C 614.627 -0.893816 3.3736 0
M  V30 6508 C 615.975 -1.25069 4.05762 0
M  V30 6509 O 616.999 -0.984356 3.42329 0
M  V30 6510 O 615.858 -1.75017 5.17718 0
M  V30 6511 H 612.952 -0.29828 0.771335 0
M  V30 6512 H 615.498 0.144083 1.69087 0
M  V30 6513 H 614.27 2.6031e-05 3.913 0
M  V30 6514 H 613.893 -1.68631 3.60068 0
M  V30 6515 N 614.89 -1.56749 -0.16351 0
M  V30 6516 C 615.823 -1.9213 -1.23132 0
M  V30 6517 C 616.801 -0.785047 -1.42393 0
M  V30 6518 O 617.985 -1.0391 -1.57273 0
M  V30 6519 C 615.112 -2.17901 -2.59301 0
M  V30 6520 C 614.158 -3.40576 -2.5673 0
M  V30 6521 S 614.991 -4.94689 -2.05045 0
M  V30 6522 C 616.147 -5.23564 -3.42975 0
M  V30 6523 H 616.38 -2.824 -0.929383 0
M  V30 6524 H 613.913 -1.4994 -0.368418 0
M  V30 6525 H 615.871 -2.33429 -3.3767 0
M  V30 6526 H 614.532 -1.28324 -2.86691 0
M  V30 6527 H 613.725 -3.55833 -3.5693 0
M  V30 6528 H 613.327 -3.24204 -1.86462 0
M  V30 6529 H 615.619 -5.16019 -4.3901 0
M  V30 6530 H 616.562 -6.25134 -3.32586 0
M  V30 6531 H 616.97 -4.51113 -3.39348 0
M  V30 6532 N 616.368 0.432326 -1.51554 0
M  V30 6533 C 617.596 1.20364 -1.68286 0
M  V30 6534 C 618.011 1.84888 -0.38233 0
M  V30 6535 O 617.368 1.70924 0.639627 0
M  V30 6536 C 617.419 2.28398 -2.80208 0
M  V30 6537 O 617.14 1.66512 -4.05223 0
M  V30 6538 C 618.641 3.18584 -3.08251 0
M  V30 6539 H 615.861 0.36259 -0.564596 0
M  V30 6540 H 618.405 0.511647 -1.97996 0
M  V30 6541 H 616.56 2.93305 -2.53083 0
M  V30 6542 H 616.974 2.37951 -4.67418 0
M  V30 6543 H 618.448 3.90511 -3.90135 0
M  V30 6544 H 618.925 3.79628 -2.2086 0
M  V30 6545 H 619.531 2.59372 -3.37055 0
M  V30 6546 N 617.846 1.41785 0.688094 0
M  V30 6547 C 618.776 1.47 1.8142 0
M  V30 6548 C 619.757 0.327881 1.6691 0
M  V30 6549 O 620.942 0.540362 1.86531 0
M  V30 6550 C 618.072 1.35876 3.19617 0
M  V30 6551 C 617.026 2.47976 3.48844 0
M  V30 6552 C 616.352 2.21915 4.86475 0
M  V30 6553 C 617.652 3.90309 3.47068 0
M  V30 6554 H 619.346 2.41247 1.77314 0
M  V30 6555 H 616.892 1.16116 0.851651 0
M  V30 6556 H 618.845 1.38134 3.98117 0
M  V30 6557 H 617.569 0.38116 3.24368 0
M  V30 6558 H 616.228 2.45013 2.72698 0
M  V30 6559 H 615.876 1.2248 4.8786 0
M  V30 6560 H 615.576 2.97037 5.06994 0
M  V30 6561 H 617.1 2.25901 5.67275 0
M  V30 6562 H 618.514 3.94947 4.1556 0
M  V30 6563 H 616.911 4.65175 3.7912 0
M  V30 6564 H 617.981 4.17927 2.45896 0
M  V30 6565 N 619.324 -0.923095 1.27737 0
M  V30 6566 C 620.549 -1.71054 1.17283 0
M  V30 6567 C 620.974 -1.86208 -0.266153 0
M  V30 6568 O 620.332 -1.36545 -1.1927 0
M  V30 6569 C 620.38 -3.0854 1.86642 0
M  V30 6570 O 619.484 -3.95528 1.16752 0
M  V30 6571 H 618.825 -0.524136 0.407649 0
M  V30 6572 H 621.355 -1.15487 1.6889 0
M  V30 6573 H 621.365 -3.58828 1.94182 0
M  V30 6574 H 620.04 -2.96828 2.91317 0
M  V30 6575 H 618.617 -3.53967 1.17312 0
M  V30 6576 N 620.802 -1.09834 -1.13024 0
M  V30 6577 C 622.027 -0.85909 -1.88771 0
M  V30 6578 C 622.452 0.584402 -1.78791 0
M  V30 6579 O 621.81 1.41101 -1.13842 0
M  V30 6580 C 621.858 -1.30427 -3.36186 0
M  V30 6581 O 620.962 -0.465368 -4.09766 0
M  V30 6582 H 620.303 -0.310786 -0.586778 0
M  V30 6583 H 622.833 -1.46355 -1.42973 0
M  V30 6584 H 622.843 -1.2915 -3.8702 0
M  V30 6585 H 621.518 -2.3555 -3.42767 0
M  V30 6586 H 620.095 -0.542814 -3.68928 0
M  V30 6587 N 622.28 1.30327 -0.886154 0
M  V30 6588 C 623.228 2.30052 -0.343317 0
M  V30 6589 C 624.222 1.60212 0.550305 0
M  V30 6590 O 625.428 1.74674 0.434609 0
M  V30 6591 H 621.803 0.746306 -0.0923681 0
M  V30 6592 H 623.774 2.73294 -1.19804 0
M  V30 6593 C 622.523 3.45079 0.426107 0
M  V30 6594 H 621.846 3.99003 -0.25227 0
M  V30 6595 H 623.286 4.16931 0.771009 0
M  V30 6596 C 621.745 2.95195 1.62363 0
M  V30 6597 O 622.275 2.95323 2.723 0
M  V30 6598 N 620.481 2.51192 1.4612 0
M  V30 6599 H 620.028 2.51286 0.566832 0
M  V30 6600 H 619.986 2.18173 2.2638 0
M  V30 6601 N 623.758 0.647228 1.43697 0
M  V30 6602 C 625.007 0.155552 2.01099 0
M  V30 6603 C 625.32 -1.23569 1.51624 0
M  V30 6604 O 626.526 -1.82226 2.01261 0
M  V30 6605 C 624.982 0.227296 3.59182 0
M  V30 6606 C 624.59 1.62086 4.17651 0
M  V30 6607 C 626.334 -0.207085 4.23995 0
M  V30 6608 C 624.241 1.64685 5.68008 0
M  V30 6609 H 623.171 0.0543895 0.752036 0
M  V30 6610 H 625.822 0.808386 1.64734 0
M  V30 6611 H 624.204 -0.492937 3.9292 0
M  V30 6612 H 625.378 2.36597 3.95422 0
M  V30 6613 H 623.693 2.0007 3.65186 0
M  V30 6614 H 626.29 -0.207426 5.34298 0
M  V30 6615 H 626.633 -1.23742 3.97484 0
M  V30 6616 H 627.166 0.461193 3.95118 0
M  V30 6617 H 623.905 2.65608 5.99277 0
M  V30 6618 H 623.425 0.944914 5.9231 0
M  V30 6619 H 625.104 1.38792 6.31938 0
M  V30 6620 N 625.236 -1.5273 0.388769 0
M  V30 6621 C 626.184 -2.27975 -0.461527 0
M  V30 6622 C 627.178 -1.31854 -1.06352 0
M  V30 6623 O 628.384 -1.49394 -1.00406 0
M  V30 6624 H 624.759 -0.733088 -0.16759 0
M  V30 6625 H 626.73 -2.97765 0.194579 0
M  V30 6626 C 625.479 -3.09881 -1.577 0
M  V30 6627 H 624.802 -3.83701 -1.12309 0
M  V30 6628 H 626.242 -3.6567 -2.14619 0
M  V30 6629 C 624.701 -2.22159 -2.53272 0
M  V30 6630 O 625.231 -1.84802 -3.56667 0
M  V30 6631 N 623.437 -1.8633 -2.23001 0
M  V30 6632 H 622.984 -2.16909 -1.38954 0
M  V30 6633 H 622.942 -1.27927 -2.87197 0
M  V30 6634 N 626.714 -0.118576 -1.57153 0
M  V30 6635 C 627.961 0.539526 -1.9518 0
M  V30 6636 C 628.289 1.66714 -1.00184 0
M  V30 6637 O 627.544 1.95683 -0.0256482 0
M  V30 6638 C 627.843 1.11303 -3.39627 0
M  V30 6639 C 627.509 0.106809 -4.50773 0
M  V30 6640 C 626.171 -0.169876 -4.809 0
M  V30 6641 C 628.523 -0.57895 -5.17975 0
M  V30 6642 C 625.851 -1.13861 -5.75545 0
M  V30 6643 C 628.203 -1.53631 -6.13661 0
M  V30 6644 C 626.867 -1.82099 -6.42181 0
M  V30 6645 H 626.137 0.197427 -0.714215 0
M  V30 6646 H 628.784 -0.199391 -1.90459 0
M  V30 6647 H 627.089 1.92869 -3.4104 0
M  V30 6648 H 628.786 1.63032 -3.66363 0
M  V30 6649 H 625.376 0.332645 -4.27307 0
M  V30 6650 H 629.56 -0.378359 -4.94856 0
M  V30 6651 H 624.816 -1.36592 -5.95947 0
M  V30 6652 H 628.99 -2.07337 -6.64819 0
M  V30 6653 H 626.617 -2.57319 -7.15326 0
M  V30 6654 N 628.193 1.56834 0.155195 0
M  V30 6655 C 629.604 1.72421 0.716082 0
M  V30 6656 C 629.955 0.731685 1.82046 0
M  V30 6657 O 629.08 -0.103481 2.16152 0
M  V30 6658 C 629.675 3.12629 1.30571 0
M  V30 6659 C 628.234 3.29846 1.81325 0
M  V30 6660 C 627.381 2.68359 0.698494 0
M  V30 6661 H 630.332 1.58544 -0.0703861 0
M  V30 6662 H 630.353 3.12174 2.1755 0
M  V30 6663 H 629.865 3.84844 0.501701 0
M  V30 6664 H 627.966 2.62614 2.64319 0
M  V30 6665 H 628.079 4.37727 1.9476 0
M  V30 6666 H 626.443 2.28604 1.12305 0
M  V30 6667 H 627.226 3.43171 -0.0939366 0
M  V30 6668 N 629.671 -0.424282 1.51781 0
M  V30 6669 C 630.92 -1.16961 1.64326 0
M  V30 6670 C 631.233 -1.92035 0.371749 0
M  V30 6671 O 632.439 -2.68873 0.37676 0
M  V30 6672 C 630.895 -2.12782 2.90262 0
M  V30 6673 C 630.503 -1.43295 4.24465 0
M  V30 6674 C 632.247 -2.87667 3.12166 0
M  V30 6675 C 630.154 -2.37676 5.41538 0
M  V30 6676 H 629.084 -0.440293 0.612093 0
M  V30 6677 H 631.735 -0.435431 1.78259 0
M  V30 6678 H 630.117 -2.8969 2.69992 0
M  V30 6679 H 631.291 -0.718564 4.55163 0
M  V30 6680 H 629.606 -0.805118 4.08542 0
M  V30 6681 H 632.203 -3.58395 3.96808 0
M  V30 6682 H 632.546 -3.49758 2.25776 0
M  V30 6683 H 633.079 -2.17863 3.32837 0
M  V30 6684 H 629.818 -1.80255 6.30229 0
M  V30 6685 H 629.338 -3.07132 5.15199 0
M  V30 6686 H 631.017 -2.98529 5.74012 0
M  V30 6687 N 631.149 -1.42148 -0.680565 0
M  V30 6688 C 632.097 -1.45401 -1.81552 0
M  V30 6689 C 633.091 -0.33036 -1.66147 0
M  V30 6690 O 634.297 -0.503103 -1.72826 0
M  V30 6691 H 630.672 -0.455265 -0.59853 0
M  V30 6692 H 632.643 -2.41024 -1.75926 0
M  V30 6693 C 631.392 -1.36769 -3.19671 0
M  V30 6694 H 630.715 -2.22525 -3.32149 0
M  V30 6695 H 632.155 -1.43106 -3.9912 0
M  V30 6696 C 630.614 -0.0817752 -3.36801 0
M  V30 6697 O 631.144 0.867707 -3.92216 0
M  V30 6698 N 629.35 -0.000799811 -2.906 0
M  V30 6699 H 628.897 -0.774231 -2.4569 0
M  V30 6700 H 628.855 0.858961 -3.02439 0
M  V30 6701 N 632.627 0.916307 -1.28225 0
M  V30 6702 C 633.875 1.6619 -1.15002 0
M  V30 6703 C 634.196 1.92642 0.302329 0
M  V30 6704 O 633.466 1.54076 1.20985 0
M  V30 6705 H 632.046 0.615964 -0.422608 0
M  V30 6706 H 634.708 1.09963 -1.60917 0
M  V30 6707 H 633.804 2.62533 -1.68769 0
M  V30 6708 N 634.105 1.10431 1.1244 0
M  V30 6709 C 635.516 0.864439 1.65482 0
M  V30 6710 C 635.867 -0.60527 1.8663 0
M  V30 6711 O 634.992 -1.46492 1.59276 0
M  V30 6712 C 635.587 1.56267 3.0061 0
M  V30 6713 C 634.146 1.3695 3.50602 0
M  V30 6714 C 633.293 1.61209 2.25626 0
M  V30 6715 H 636.244 1.26203 0.962209 0
M  V30 6716 H 636.265 1.00166 3.67079 0
M  V30 6717 H 635.777 2.63231 2.85186 0
M  V30 6718 H 633.878 0.321481 3.71211 0
M  V30 6719 H 633.991 2.11143 4.30064 0
M  V30 6720 H 632.355 1.03482 2.32731 0
M  V30 6721 H 633.138 2.69425 2.12756 0
M  V30 6722 N 635.583 -1.29855 0.893053 0
M  V30 6723 C 636.53 -2.27909 0.364161 0
M  V30 6724 C 637.5 -1.56726 -0.550093 0
M  V30 6725 O 638.685 -1.84747 -0.47677 0
M  V30 6726 C 635.825 -3.42678 -0.408178 0
M  V30 6727 C 634.938 -4.28659 0.536212 0
M  V30 6728 C 634.073 -5.30599 -0.252521 0
M  V30 6729 C 633.112 -6.08234 0.686822 0
M  V30 6730 N 632.249 -7.02068 -0.0670902 0
M  V30 6731 H 637.089 -2.72531 1.20544 0
M  V30 6732 H 634.626 -1.34047 0.605779 0
M  V30 6733 H 636.584 -4.07986 -0.871962 0
M  V30 6734 H 635.214 -2.99103 -1.21397 0
M  V30 6735 H 634.266 -3.63584 1.1185 0
M  V30 6736 H 635.578 -4.8274 1.25552 0
M  V30 6737 H 634.732 -6.01694 -0.777801 0
M  V30 6738 H 633.471 -4.77233 -1.005 0
M  V30 6739 H 632.476 -5.3601 1.22366 0
M  V30 6740 H 633.701 -6.63689 1.43852 0
M  V30 6741 H 631.647 -6.5108 -0.801955 0
M  V30 6742 H 631.564 -7.53675 0.59243 0
M  V30 6743 H 632.832 -7.77392 -0.572851 0
M  V30 6744 N 637.061 -0.65484 -1.43351 0
M  V30 6745 C 637.971 0.0363603 -2.34572 0
M  V30 6746 C 638.987 0.810432 -1.53974 0
M  V30 6747 O 640.163 0.757308 -1.86619 0
M  V30 6748 C 637.228 0.989733 -3.32273 0
M  V30 6749 C 636.289 0.212414 -4.28774 0
M  V30 6750 C 635.522 1.12038 -5.21808 0
M  V30 6751 O 635.745 2.35967 -5.19303 0
M  V30 6752 O 634.679 0.59191 -5.98982 0
M  V30 6753 H 638.505 -0.714527 -2.95175 0
M  V30 6754 H 636.09 -0.415029 -1.4352 0
M  V30 6755 H 637.972 1.53759 -3.92347 0
M  V30 6756 H 636.647 1.72082 -2.74171 0
M  V30 6757 H 635.554 -0.379062 -3.72175 0
M  V30 6758 H 636.887 -0.479138 -4.89862 0
M  V30 6759 N 638.539 1.52521 -0.396863 0
M  V30 6760 C 639.471 2.24333 0.469814 0
M  V30 6761 C 640.484 1.2685 1.02043 0
M  V30 6762 O 641.673 1.52876 0.92147 0
M  V30 6763 C 638.773 2.95202 1.66461 0
M  V30 6764 C 637.946 4.19454 1.24003 0
M  V30 6765 C 637.005 4.73255 2.30036 0
M  V30 6766 O 636.031 5.36151 1.91131 0
M  V30 6767 N 637.233 4.53765 3.62047 0
M  V30 6768 H 639.998 2.99347 -0.145468 0
M  V30 6769 H 637.559 1.60348 -0.223606 0
M  V30 6770 H 639.551 3.28092 2.36934 0
M  V30 6771 H 638.121 2.2345 2.18607 0
M  V30 6772 H 637.341 3.92517 0.363892 0
M  V30 6773 H 638.629 5.0017 0.933135 0
M  V30 6774 H 638.027 4.03576 3.96412 0
M  V30 6775 H 636.584 4.91124 4.28533 0
M  V30 6776 N 640.017 0.126909 1.57088 0
M  V30 6777 C 640.95 -0.857844 2.11462 0
M  V30 6778 C 641.928 -1.25569 1.03301 0
M  V30 6779 O 643.112 -1.35535 1.31006 0
M  V30 6780 C 640.239 -2.14912 2.61784 0
M  V30 6781 C 639.285 -1.89874 3.81903 0
M  V30 6782 S 640.118 -1.10785 5.23915 0
M  V30 6783 C 641.274 -2.41075 5.7761 0
M  V30 6784 H 641.507 -0.395384 2.94659 0
M  V30 6785 H 639.04 -0.0870151 1.54155 0
M  V30 6786 H 640.998 -2.89101 2.91429 0
M  V30 6787 H 639.659 -2.58275 1.78754 0
M  V30 6788 H 638.852 -2.85572 4.15289 0
M  V30 6789 H 638.454 -1.23802 3.52915 0
M  V30 6790 H 640.746 -3.36864 5.87817 0
M  V30 6791 H 641.689 -2.12223 6.75549 0
M  V30 6792 H 642.097 -2.50804 5.05725 0
M  V30 6793 N 641.495 -1.56914 -0.146875 0
M  V30 6794 C 642.743 -1.82994 -0.85777 0
M  V30 6795 C 643.064 -0.707814 -1.817 0
M  V30 6796 O 642.334 0.270521 -1.94023 0
M  V30 6797 H 640.914 -0.675106 -0.319751 0
M  V30 6798 H 643.576 -1.9439 -0.140849 0
M  V30 6799 H 642.672 -2.77928 -1.41994 0
M  V30 6800 N 642.974 0.416227 -1.52004 0
M  V30 6801 C 643.907 1.52736 -1.6955 0
M  V30 6802 C 644.885 1.53264 -0.54305 0
M  V30 6803 O 646.069 1.72077 -0.769527 0
M  V30 6804 C 643.196 2.91283 -1.72835 0
M  V30 6805 C 642.242 3.08695 -2.94295 0
M  V30 6806 S 643.075 2.82758 -4.54762 0
M  V30 6807 C 644.231 4.23548 -4.60823 0
M  V30 6808 H 644.464 1.37623 -2.63528 0
M  V30 6809 H 641.997 0.607335 -1.41954 0
M  V30 6810 H 643.955 3.71134 -1.75413 0
M  V30 6811 H 642.616 3.03742 -0.799966 0
M  V30 6812 H 641.809 4.10042 -2.93056 0
M  V30 6813 H 641.411 2.36699 -2.89568 0
M  V30 6814 H 643.703 5.17078 -4.37763 0
M  V30 6815 H 644.646 4.29813 -5.62731 0
M  V30 6816 H 645.054 4.08188 -3.89927 0
M  V30 6817 N 644.452 1.42507 0.673017 0
M  V30 6818 C 645.863 1.38347 1.25367 0
M  V30 6819 C 646.214 0.0776327 1.96046 0
M  V30 6820 O 645.339 -0.823571 2.00116 0
M  V30 6821 C 645.934 2.506 2.28002 0
M  V30 6822 C 644.493 2.49767 2.81591 0
M  V30 6823 C 643.64 2.293 1.55938 0
M  V30 6824 H 646.591 1.51695 0.466288 0
M  V30 6825 H 646.612 2.20953 3.09774 0
M  V30 6826 H 646.124 3.45627 1.76532 0
M  V30 6827 H 644.225 1.58563 3.37177 0
M  V30 6828 H 644.338 3.46867 3.30485 0
M  V30 6829 H 642.702 1.77594 1.82572 0
M  V30 6830 H 643.485 3.26385 1.06431 0
M  V30 6831 N 645.93 -0.909495 1.28709 0
M  V30 6832 C 646.863 -2.01388 1.07323 0
M  V30 6833 C 647.841 -1.62596 -0.0119757 0
M  V30 6834 O 649.025 -1.88003 0.136796 0
M  V30 6835 C 646.152 -3.32755 0.631797 0
M  V30 6836 C 645.198 -3.90532 1.71428 0
M  V30 6837 S 646.031 -4.20853 3.31124 0
M  V30 6838 C 647.187 -5.55276 2.88825 0
M  V30 6839 H 647.42 -2.19219 2.00824 0
M  V30 6840 H 644.953 -1.05489 1.12745 0
M  V30 6841 H 646.911 -4.08702 0.38381 0
M  V30 6842 H 645.572 -3.12818 -0.283451 0
M  V30 6843 H 644.765 -4.85385 1.35712 0
M  V30 6844 H 644.367 -3.21237 1.91528 0
M  V30 6845 H 646.659 -6.35341 2.3526 0
M  V30 6846 H 647.602 -5.95907 3.82492 0
M  V30 6847 H 648.01 -5.16666 2.27412 0
M  V30 6848 N 647.408 -1.11026 -1.11852 0
M  V30 6849 C 648.656 -0.854769 -1.83134 0
M  V30 6850 C 648.977 0.621375 -1.84835 0
M  V30 6851 O 648.247 1.45129 -1.31584 0
M  V30 6852 H 646.827 -0.313229 -0.678157 0
M  V30 6853 H 649.489 -1.40178 -1.35411 0
M  V30 6854 H 648.585 -1.22311 -2.87135 0
M  V30 6855 N 648.886 1.2938 -0.899927 0
M  V30 6856 C 650.302 1.48052 -0.596059 0
M  V30 6857 C 650.502 1.82114 0.862372 0
M  V30 6858 O 649.558 1.91774 1.64253 0
M  V30 6859 C 650.871 2.59332 -1.52208 0
M  V30 6860 C 652.419 2.73208 -1.5273 0
M  V30 6861 C 652.894 3.87617 -2.43961 0
M  V30 6862 N 654.385 3.9495 -2.42009 0
M  V30 6863 C 655.12 4.82824 -3.09303 0
M  V30 6864 N 654.616 5.75387 -3.85877 0
M  V30 6865 N 656.409 4.76317 -2.98459 0
M  V30 6866 H 648.56 1.05546 -1.8432 0
M  V30 6867 H 650.823 0.524314 -0.78981 0
M  V30 6868 H 650.529 2.41029 -2.56121 0
M  V30 6869 H 650.403 3.56139 -1.24278 0
M  V30 6870 H 652.79 2.90908 -0.495614 0
M  V30 6871 H 652.871 1.76975 -1.84698 0
M  V30 6872 H 652.515 3.70672 -3.47224 0
M  V30 6873 H 652.445 4.83218 -2.09303 0
M  V30 6874 H 654.936 3.28744 -1.86375 0
M  V30 6875 H 655.249 6.39235 -4.34279 0
M  V30 6876 H 653.594 5.75272 -3.89984 0
M  V30 6877 H 656.785 4.0299 -2.38152 0
M  V30 6878 H 656.958 5.44589 -3.51179 0
M  V30 6879 N 650.364 0.662433 1.43002 0
M  V30 6880 C 651.611 0.179591 2.01702 0
M  V30 6881 C 651.939 -1.20964 1.52309 0
M  V30 6882 O 651.194 -1.82343 0.7106 0
M  V30 6883 C 651.493 0.149363 3.57088 0
M  V30 6884 C 651.159 1.48158 4.25864 0
M  V30 6885 C 649.821 1.84638 4.44367 0
M  V30 6886 C 652.173 2.35953 4.64732 0
M  V30 6887 C 649.501 3.08561 4.99006 0
M  V30 6888 C 651.853 3.59176 5.20745 0
M  V30 6889 C 650.517 3.95841 5.37463 0
M  V30 6890 H 649.787 0.0657172 0.73808 0
M  V30 6891 H 652.434 0.854968 1.71355 0
M  V30 6892 H 650.739 -0.609491 3.8703 0
M  V30 6893 H 652.436 -0.241241 4.00274 0
M  V30 6894 H 649.026 1.18777 4.11813 0
M  V30 6895 H 653.21 2.09058 4.50121 0
M  V30 6896 H 648.466 3.37005 5.10135 0
M  V30 6897 H 652.64 4.27417 5.49807 0
M  V30 6898 H 650.267 4.91942 5.79566 0
M  V30 6899 N 651.842 -1.52309 0.404946 0
M  V30 6900 C 653.09 -2.01368 -0.17186 0
M  V30 6901 C 653.411 -1.29261 -1.46002 0
M  V30 6902 O 652.681 -0.41729 -1.91404 0
M  V30 6903 H 651.261 -0.744034 -0.0664993 0
M  V30 6904 H 653.923 -1.87263 0.540228 0
M  V30 6905 H 653.019 -3.09888 -0.370957 0
M  V30 6906 N 653.32 -0.135238 -1.57019 0
M  V30 6907 C 654.568 0.51777 -1.95355 0
M  V30 6908 C 654.889 1.6617 -1.02042 0
M  V30 6909 O 654.159 1.95738 -0.0797343 0
M  V30 6910 H 652.739 0.194264 -0.721298 0
M  V30 6911 H 655.401 -0.207983 -1.93787 0
M  V30 6912 H 654.497 0.901675 -2.98791 0
M  V30 6913 N 654.798 1.5699 0.138552 0
M  V30 6914 C 656.023 1.88344 0.86841 0
M  V30 6915 C 656.448 0.725159 1.7356 0
M  V30 6916 O 655.806 -0.324992 1.78363 0
M  V30 6917 C 655.854 3.18334 1.69398 0
M  V30 6918 O 654.958 3.02863 2.79907 0
M  V30 6919 H 654.299 0.618577 0.241367 0
M  V30 6920 H 656.829 2.04207 0.126826 0
M  V30 6921 H 656.839 3.50567 2.08726 0
M  V30 6922 H 655.514 4.02238 1.05725 0
M  V30 6923 H 654.091 2.82056 2.43924 0
M  V30 6924 N 656.276 -0.40816 1.52223 0
M  V30 6925 C 657.524 -1.15274 1.66001 0
M  V30 6926 C 657.845 -1.91003 0.392803 0
M  V30 6927 O 657.115 -1.8673 -0.592336 0
M  V30 6928 H 655.695 -0.428526 0.611861 0
M  V30 6929 H 658.357 -0.46512 1.89269 0
M  V30 6930 H 657.453 -1.86628 2.50153 0
M  V30 6931 N 657.755 -1.42862 -0.66545 0
M  V30 6932 C 659.003 -1.43546 -1.42264 0
M  V30 6933 C 659.324 -0.0563116 -1.94919 0
M  V30 6934 O 658.594 0.906568 -1.73661 0
M  V30 6935 H 657.174 -0.528464 -0.527953 0
M  V30 6936 H 659.836 -1.78363 -0.785665 0
M  V30 6937 H 658.932 -2.14079 -2.27105 0
M  V30 6938 N 659.233 0.902656 -1.29189 0
M  V30 6939 C 660.166 2.00816 -1.0839 0
M  V30 6940 C 661.144 1.626 0.00335266 0
M  V30 6941 O 662.328 1.87928 -0.146765 0
M  V30 6942 C 659.455 3.32415 -0.649435 0
M  V30 6943 C 658.501 3.89617 -1.73496 0
M  V30 6944 S 659.334 4.19091 -3.33351 0
M  V30 6945 C 660.49 5.53736 -2.91766 0
M  V30 6946 H 660.723 2.18151 -2.01984 0
M  V30 6947 H 658.256 1.0489 -1.13303 0
M  V30 6948 H 660.214 4.08492 -0.405479 0
M  V30 6949 H 658.875 3.12964 0.266857 0
M  V30 6950 H 658.068 4.84658 -1.38284 0
M  V30 6951 H 657.67 3.20217 -1.93229 0
M  V30 6952 H 659.962 6.34085 -2.38627 0
M  V30 6953 H 660.905 5.93871 -3.85647 0
M  V30 6954 H 661.313 5.15453 -2.30149 0
M  V30 6955 N 660.711 1.11618 1.11262 0
M  V30 6956 C 661.659 0.771291 2.1944 0
M  V30 6957 C 662.653 -0.238073 1.67719 0
M  V30 6958 O 663.859 -0.0971628 1.79738 0
M  V30 6959 H 660.234 0.231548 0.715465 0
M  V30 6960 H 662.205 1.69226 2.45775 0
M  V30 6961 C 660.954 0.232765 3.4692 0
M  V30 6962 H 660.277 1.00072 3.87073 0
M  V30 6963 H 661.717 0.0296561 4.2399 0
M  V30 6964 C 660.176 -1.03738 3.20531 0
M  V30 6965 O 660.706 -2.11675 3.41404 0
M  V30 6966 N 658.912 -0.960906 2.74253 0
M  V30 6967 H 658.459 -0.0824323 2.57468 0
M  V30 6968 H 658.417 -1.8114 2.56974 0
M  V30 6969 N 662.189 -1.289 0.906776 0
M  V30 6970 C 663.139 -2.25122 0.361109 0
M  V30 6971 C 664.123 -1.52169 -0.52283 0
M  V30 6972 O 665.315 -1.73223 -0.363691 0
M  V30 6973 C 662.444 -3.40915 -0.403982 0
M  V30 6974 C 661.53 -4.21198 0.495279 0
M  V30 6975 N 661.921 -4.79636 1.60572 0
M  V30 6976 C 660.219 -4.45027 0.294372 0
M  V30 6977 C 660.92 -5.39977 2.16332 0
M  V30 6978 N 659.896 -5.23753 1.45546 0
M  V30 6979 H 663.698 -2.67869 1.20927 0
M  V30 6980 H 661.212 -1.43592 0.758632 0
M  V30 6981 H 663.209 -4.08922 -0.811695 0
M  V30 6982 H 661.869 -2.99703 -1.24932 0
M  V30 6983 H 662.88 -4.78209 1.98838 0
M  V30 6984 H 659.557 -4.14348 -0.512021 0
M  V30 6985 H 660.947 -5.96266 3.09704 0
M  V30 6986 N 663.667 -0.670007 -1.42649 0
M  V30 6987 C 664.913 -0.190568 -2.01903 0
M  V30 6988 C 665.246 1.19817 -1.52832 0
M  V30 6989 O 664.521 1.80342 -0.728485 0
M  V30 6990 C 664.804 -0.21991 -3.59428 0
M  V30 6991 C 664.657 -1.64376 -4.18689 0
M  V30 6992 C 665.976 0.434519 -4.3795 0
M  V30 6993 H 663.095 -0.0707219 -0.733599 0
M  V30 6994 H 665.737 -0.853883 -1.69732 0
M  V30 6995 H 663.887 0.344894 -3.86966 0
M  V30 6996 H 665.559 -2.26044 -4.02122 0
M  V30 6997 H 663.802 -2.18591 -3.747 0
M  V30 6998 H 664.473 -1.61601 -5.27815 0
M  V30 6999 H 666.949 -0.0462156 -4.16074 0
M  V30 7000 H 665.825 0.38333 -5.4756 0
M  V30 7001 H 666.086 1.51135 -4.15464 0
M  V30 7002 N 665.145 1.52092 -0.413018 0
M  V30 7003 C 666.37 2.06756 0.163338 0
M  V30 7004 C 666.795 1.28073 1.37764 0
M  V30 7005 O 666.153 0.312015 1.78595 0
M  V30 7006 C 666.201 3.57278 0.488322 0
M  V30 7007 O 665.305 3.80986 1.57871 0
M  V30 7008 H 664.646 0.663882 0.0125068 0
M  V30 7009 H 667.176 1.95988 -0.587339 0
M  V30 7010 H 667.186 4.01125 0.745836 0
M  V30 7011 H 665.861 4.13978 -0.399327 0
M  V30 7012 H 664.438 3.49017 1.31306 0
M  V30 7013 N 666.623 0.143563 1.56945 0
M  V30 7014 C 667.871 -0.507402 1.95627 0
M  V30 7015 C 668.192 -1.65626 1.02922 0
M  V30 7016 O 667.462 -1.95693 0.0901136 0
M  V30 7017 H 666.042 -0.190436 0.722318 0
M  V30 7018 H 668.704 0.218257 1.93674 0
M  V30 7019 H 667.8 -0.885816 2.99265 0
M  V30 7020 N 668.101 -1.57061 -0.130224 0
M  V30 7021 C 669.034 -1.94698 -1.19029 0
M  V30 7022 C 670.012 -0.815074 -1.40696 0
M  V30 7023 O 671.196 -1.07223 -1.55034 0
M  V30 7024 C 668.323 -2.23352 -2.5462 0
M  V30 7025 C 667.369 -3.45945 -2.49448 0
M  V30 7026 S 668.202 -4.98927 -1.94505 0
M  V30 7027 C 669.358 -5.30721 -3.31792 0
M  V30 7028 H 669.591 -2.84308 -0.869272 0
M  V30 7029 H 667.124 -1.50688 -0.336531 0
M  V30 7030 H 669.082 -2.40539 -3.32643 0
M  V30 7031 H 667.743 -1.34376 -2.83905 0
M  V30 7032 H 666.936 -3.63324 -3.49302 0
M  V30 7033 H 666.538 -3.28086 -1.79543 0
M  V30 7034 H 668.83 -5.25215 -4.27966 0
M  V30 7035 H 669.773 -6.32048 -3.19251 0
M  V30 7036 H 670.181 -4.5821 -3.29703 0
M  V30 7037 N 669.579 0.400081 -1.52437 0
M  V30 7038 C 670.511 1.50729 -1.72666 0
M  V30 7039 C 671.524 1.51058 -0.607075 0
M  V30 7040 O 672.713 1.5516 -0.88248 0
M  V30 7041 C 669.813 2.89604 -1.76019 0
M  V30 7042 C 668.986 3.13365 -3.05157 0
M  V30 7043 C 668.045 4.32163 -3.00203 0
M  V30 7044 O 667.071 4.29004 -3.74092 0
M  V30 7045 N 668.273 5.3776 -2.18619 0
M  V30 7046 H 671.038 1.33767 -2.68191 0
M  V30 7047 H 668.599 0.58948 -1.50787 0
M  V30 7048 H 670.591 3.67159 -1.70225 0
M  V30 7049 H 669.161 2.99979 -0.879284 0
M  V30 7050 H 668.381 2.23774 -3.24529 0
M  V30 7051 H 669.669 3.26089 -3.90568 0
M  V30 7052 H 669.067 5.43177 -1.58035 0
M  V30 7053 H 667.624 6.14023 -2.18674 0
M  V30 7054 N 671.057 1.43213 0.657864 0
M  V30 7055 C 672.02 1.47687 1.75275 0
M  V30 7056 C 673.02 0.362179 1.56668 0
M  V30 7057 O 674.21 0.623734 1.62651 0
M  V30 7058 C 671.342 1.32497 3.14098 0
M  V30 7059 H 672.535 2.4519 1.7269 0
M  V30 7060 H 670.088 1.2991 0.869087 0
M  V30 7061 H 670.823 0.359831 3.22298 0
M  V30 7062 H 670.608 2.13299 3.29008 0
M  V30 7063 H 672.098 1.38549 3.93946 0
M  V30 7064 N 672.536 -0.895792 1.29666 0
M  V30 7065 C 673.764 -1.68001 1.20761 0
M  V30 7066 C 674.179 -1.87379 -0.231187 0
M  V30 7067 O 673.536 -1.41359 -1.15429 0
M  V30 7068 C 673.587 -3.06236 1.92098 0
M  V30 7069 O 673.308 -2.8774 3.30359 0
M  V30 7070 C 674.809 -4.00652 1.89717 0
M  V30 7071 H 672.029 -0.524591 0.418384 0
M  V30 7072 H 674.573 -1.11995 1.71106 0
M  V30 7073 H 672.728 -3.59007 1.45578 0
M  V30 7074 H 673.142 -3.75359 3.66342 0
M  V30 7075 H 674.616 -4.95051 2.44189 0
M  V30 7076 H 675.093 -4.30424 0.873595 0
M  V30 7077 H 675.699 -3.53815 2.35998 0
M  V30 7078 N 674.014 -1.12206 -1.10668 0
M  V30 7079 C 675.242 -0.898635 -1.86366 0
M  V30 7080 C 675.657 0.551991 -1.80551 0
M  V30 7081 O 675.014 1.38152 -1.19249 0
M  V30 7082 C 675.065 -1.36199 -3.34861 0
M  V30 7083 O 674.786 -2.75576 -3.40573 0
M  V30 7084 C 676.287 -1.17515 -4.2744 0
M  V30 7085 H 673.507 -0.321281 -0.589084 0
M  V30 7086 H 676.051 -1.49142 -1.39918 0
M  V30 7087 H 674.206 -0.81249 -3.78784 0
M  V30 7088 H 674.62 -2.95851 -4.33096 0
M  V30 7089 H 676.094 -1.54827 -5.29842 0
M  V30 7090 H 676.571 -0.115486 -4.39048 0
M  V30 7091 H 677.177 -1.71203 -3.89319 0
M  V30 7092 N 675.492 1.28418 -0.913599 0
M  V30 7093 C 676.903 1.77024 -0.593237 0
M  V30 7094 C 677.254 1.74779 0.891441 0
M  V30 7095 O 676.379 1.34237 1.69733 0
M  V30 7096 C 676.974 3.21456 -1.07011 0
M  V30 7097 C 675.533 3.67786 -0.800664 0
M  V30 7098 C 674.68 2.48185 -1.23691 0
M  V30 7099 H 677.631 1.14883 -1.09487 0
M  V30 7100 H 677.652 3.78269 -0.411481 0
M  V30 7101 H 677.164 3.23058 -2.1507 0
M  V30 7102 H 675.265 3.71644 0.266725 0
M  V30 7103 H 675.378 4.57934 -1.4083 0
M  V30 7104 H 673.742 2.46116 -0.655655 0
M  V30 7105 H 674.525 2.52506 -2.32585 0
M  V30 7106 N 676.97 0.677563 1.42291 0
M  V30 7107 C 677.902 -0.0380218 2.29168 0
M  V30 7108 C 678.915 -0.762714 1.43828 0
M  V30 7109 O 680.104 -0.616413 1.67519 0
M  V30 7110 C 677.204 -1.07761 3.21311 0
M  V30 7111 C 676.377 -0.42618 4.35319 0
M  V30 7112 C 675.436 -1.36592 5.08162 0
M  V30 7113 O 674.462 -0.865174 5.62586 0
M  V30 7114 N 675.664 -2.69909 5.13935 0
M  V30 7115 H 678.429 0.707766 2.91223 0
M  V30 7116 H 675.99 0.52219 1.53247 0
M  V30 7117 H 677.982 -1.70761 3.6691 0
M  V30 7118 H 676.552 -1.72511 2.60689 0
M  V30 7119 H 675.772 0.383385 3.92331 0
M  V30 7120 H 677.06 0.0275277 5.08793 0
M  V30 7121 H 676.458 -3.13129 4.71134 0
M  V30 7122 H 675.015 -3.2815 5.6317 0
M  V30 7123 N 678.448 -1.51871 0.421078 0
M  V30 7124 C 679.696 -2.01539 -0.150492 0
M  V30 7125 C 680.017 -1.30803 -1.44623 0
M  V30 7126 O 679.287 -0.437568 -1.90951 0
M  V30 7127 H 677.867 -0.744698 -0.0586041 0
M  V30 7128 H 680.529 -1.8668 0.560059 0
M  V30 7129 H 679.625 -3.10264 -0.338068 0
M  V30 7130 N 679.926 -0.151884 -1.56866 0
M  V30 7131 C 681.151 0.508044 -2.01081 0
M  V30 7132 C 681.576 1.57306 -1.03134 0
M  V30 7133 O 680.934 1.81298 -0.0078309 0
M  V30 7134 C 680.982 1.08106 -3.44014 0
M  V30 7135 O 680.086 2.19577 -3.49084 0
M  V30 7136 H 679.427 0.123757 -0.652365 0
M  V30 7137 H 681.957 -0.250055 -2.03066 0
M  V30 7138 H 681.967 1.40851 -3.82916 0
M  V30 7139 H 680.642 0.301168 -4.14808 0
M  V30 7140 H 679.219 1.88023 -3.22027 0
M  V30 7141 N 681.404 1.57128 0.121893 0
M  V30 7142 C 682.352 2.01109 1.16868 0
M  V30 7143 C 683.346 0.907532 1.43039 0
M  V30 7144 O 684.552 1.09274 1.43036 0
M  V30 7145 H 680.927 0.640539 0.393971 0
M  V30 7146 H 682.898 2.88261 0.771224 0
M  V30 7147 C 681.647 2.42887 2.48799 0
M  V30 7148 H 680.97 3.2737 2.29498 0
M  V30 7149 H 682.41 2.77461 3.20611 0
M  V30 7150 C 680.869 1.29137 3.11168 0
M  V30 7151 O 681.399 0.605756 3.97106 0
M  V30 7152 N 679.605 1.04916 2.71 0
M  V30 7153 H 679.152 1.60848 2.01211 0
M  V30 7154 H 679.11 0.290016 3.1306 0
M  V30 7155 N 682.882 -0.391992 1.52647 0
M  V30 7156 C 684.112 -1.15692 1.71169 0
M  V30 7157 C 684.52 -1.84285 0.428444 0
M  V30 7158 O 683.863 -1.73393 -0.606669 0
M  V30 7159 C 683.925 -2.25033 2.80357 0
M  V30 7160 C 683.589 -1.76433 4.21569 0
M  V30 7161 C 684.586 -1.2427 5.0483 0
M  V30 7162 C 682.271 -1.82746 4.67877 0
M  V30 7163 C 684.265 -0.790657 6.32477 0
M  V30 7164 C 681.952 -1.37153 5.9551 0
M  V30 7165 C 682.95 -0.853997 6.7764 0
M  V30 7166 O 682.638 -0.404708 8.02881 0
M  V30 7167 H 682.37 -0.35297 0.576531 0
M  V30 7168 H 684.924 -0.464994 2.00067 0
M  V30 7169 H 683.154 -2.97641 2.46874 0
M  V30 7170 H 684.843 -2.86718 2.87311 0
M  V30 7171 H 685.609 -1.18752 4.70237 0
M  V30 7172 H 681.488 -2.21971 4.04042 0
M  V30 7173 H 685.032 -0.386024 6.96531 0
M  V30 7174 H 680.929 -1.42356 6.29607 0
M  V30 7175 H 681.697 -0.526459 8.16805 0
M  V30 7176 N 684.36 -1.4356 -0.65026 0
M  V30 7177 C 685.323 -1.48615 -1.74489 0
M  V30 7178 C 686.323 -0.370483 -1.56474 0
M  V30 7179 O 687.513 -0.632351 -1.62317 0
M  V30 7180 C 684.645 -1.34161 -3.13391 0
M  V30 7181 H 685.838 -2.46103 -1.71387 0
M  V30 7182 H 683.391 -1.30369 -0.862186 0
M  V30 7183 H 684.126 -0.376918 -3.22102 0
M  V30 7184 H 683.911 -2.1504 -3.27872 0
M  V30 7185 H 685.401 -1.40637 -3.93206 0
M  V30 7186 N 685.838 0.888903 -1.30139 0
M  V30 7187 C 686.768 2.01046 -1.18755 0
M  V30 7188 C 687.749 1.69916 -0.0791438 0
M  V30 7189 O 688.934 1.92445 -0.260498 0
M  V30 7190 C 686.064 3.36109 -0.874518 0
M  V30 7191 C 685.018 3.81486 -1.94043 0
M  V30 7192 C 684.344 5.13796 -1.48047 0
M  V30 7193 C 685.644 4.00637 -3.35093 0
M  V30 7194 H 687.338 2.10828 -2.12584 0
M  V30 7195 H 684.884 1.01298 -1.02346 0
M  V30 7196 H 686.837 4.14089 -0.781548 0
M  V30 7197 H 685.561 3.26449 0.0994519 0
M  V30 7198 H 684.22 3.05731 -2.02297 0
M  V30 7199 H 683.868 5.0056 -0.494878 0
M  V30 7200 H 683.568 5.45127 -2.19341 0
M  V30 7201 H 685.092 5.94305 -1.40121 0
M  V30 7202 H 686.506 4.69067 -3.2962 0
M  V30 7203 H 684.903 4.43339 -4.04438 0
M  V30 7204 H 685.973 3.0462 -3.77273 0
M  V30 7205 N 687.317 1.12792 1.10072 0
M  V30 7206 C 688.264 0.79921 2.16521 0
M  V30 7207 C 689.234 -0.235726 1.64419 0
M  V30 7208 O 690.419 -0.109457 1.90486 0
M  V30 7209 C 687.559 0.264091 3.44088 0
M  V30 7210 C 686.672 1.35729 4.10124 0
M  V30 7211 C 685.807 0.781212 5.25424 0
M  V30 7212 C 684.846 1.85327 5.8337 0
M  V30 7213 N 683.983 1.29564 6.90042 0
M  V30 7214 H 688.823 1.71105 2.43981 0
M  V30 7215 H 686.36 0.854225 1.19756 0
M  V30 7216 H 688.318 -0.0642423 4.17151 0
M  V30 7217 H 686.948 -0.610901 3.16967 0
M  V30 7218 H 686 1.80234 3.34993 0
M  V30 7219 H 687.312 2.16782 4.4923 0
M  V30 7220 H 686.466 0.403769 6.05355 0
M  V30 7221 H 685.205 -0.0604686 4.87663 0
M  V30 7222 H 684.21 2.23986 5.02106 0
M  V30 7223 H 685.435 2.69824 6.23195 0
M  V30 7224 H 683.381 0.475844 6.54272 0
M  V30 7225 H 683.298 2.04271 7.2788 0
M  V30 7226 H 684.566 0.945545 7.73744 0
M  V30 7227 N 688.795 -1.27931 0.920396 0
M  V30 7228 C 689.728 -2.2537 0.358285 0
M  V30 7229 C 690.706 -1.53328 -0.541242 0
M  V30 7230 O 691.89 -1.82196 -0.483399 0
M  V30 7231 C 689.017 -3.35178 -0.487193 0
M  V30 7232 C 688.063 -4.25079 0.347881 0
M  V30 7233 S 688.896 -5.05792 1.75883 0
M  V30 7234 C 690.052 -6.19089 0.920832 0
M  V30 7235 H 690.285 -2.72701 1.18413 0
M  V30 7236 H 687.818 -1.36474 0.722088 0
M  V30 7237 H 689.776 -3.98895 -0.96916 0
M  V30 7238 H 688.437 -2.865 -1.28749 0
M  V30 7239 H 687.63 -5.03113 -0.298912 0
M  V30 7240 H 687.232 -3.66119 0.763748 0
M  V30 7241 H 689.524 -6.77326 0.15349 0
M  V30 7242 H 690.467 -6.8803 1.67394 0
M  V30 7243 H 690.875 -5.62573 0.466069 0
M  V30 7244 N 690.273 -0.685099 -1.4193 0
M  V30 7245 C 691.221 -0.00165985 -2.326 0
M  V30 7246 C 692.215 0.779678 -1.50391 0
M  V30 7247 O 693.421 0.68648 -1.66395 0
M  V30 7248 H 689.796 0.0182616 -0.751778 0
M  V30 7249 H 691.767 -0.783592 -2.87928 0
M  V30 7250 C 690.516 0.928385 -3.35077 0
M  V30 7251 H 689.839 0.336578 -3.98381 0
M  V30 7252 H 691.279 1.37509 -4.01083 0
M  V30 7253 C 689.738 2.03964 -2.68142 0
M  V30 7254 O 690.268 3.12727 -2.5212 0
M  V30 7255 N 688.474 1.81433 -2.27003 0
M  V30 7256 H 688.021 0.929807 -2.40234 0
M  V30 7257 H 687.979 2.55973 -1.82552 0
M  V30 7258 N 691.751 1.51645 -0.429126 0
M  V30 7259 C 692.976 2.06917 0.141399 0
M  V30 7260 C 693.401 1.29527 1.36398 0
M  V30 7261 O 692.759 0.33094 1.78254 0
M  V30 7262 C 692.807 3.57776 0.4504 0
M  V30 7263 O 691.911 3.82639 1.53821 0
M  V30 7264 H 691.252 0.663978 0.0054647 0
M  V30 7265 H 693.782 1.95355 -0.608093 0
M  V30 7266 H 693.792 4.01894 0.703249 0
M  V30 7267 H 692.467 4.13532 -0.443213 0
M  V30 7268 H 691.044 3.5039 1.27597 0
M  V30 7269 N 693.229 0.160201 1.56784 0
M  V30 7270 C 694.64 -0.358417 1.83227 0
M  V30 7271 C 694.991 -1.63831 1.07952 0
M  V30 7272 O 694.116 -2.13885 0.328995 0
M  V30 7273 C 694.711 -0.657058 3.32368 0
M  V30 7274 C 693.27 -1.12015 3.59346 0
M  V30 7275 C 692.417 -0.15015 2.76893 0
M  V30 7276 H 695.368 0.384669 1.53967 0
M  V30 7277 H 695.389 -1.51033 3.49241 0
M  V30 7278 H 694.901 0.274647 3.87127 0
M  V30 7279 H 693.002 -2.06734 3.09987 0
M  V30 7280 H 693.115 -1.037 4.67743 0
M  V30 7281 H 691.479 -0.645361 2.46388 0
M  V30 7282 H 692.262 0.775379 3.34429 0
M  V30 7283 N 694.707 -1.5719 -0.113559 0
M  V30 7284 C 695.932 -1.89702 -0.838336 0
M  V30 7285 C 696.357 -0.752679 -1.72384 0
M  V30 7286 O 695.715 0.296575 -1.78858 0
M  V30 7287 C 695.763 -3.20989 -1.64312 0
M  V30 7288 O 694.867 -3.07278 -2.75053 0
M  V30 7289 H 694.208 -0.622339 -0.231496 0
M  V30 7290 H 696.738 -2.04382 -0.0943228 0
M  V30 7291 H 696.748 -3.53843 -2.03123 0
M  V30 7292 H 695.423 -4.03869 -0.993119 0
M  V30 7293 H 694 -2.85901 -2.39406 0
M  V30 7294 N 696.185 0.383891 -1.52853 0
M  V30 7295 C 697.117 1.48889 -1.74255 0
M  V30 7296 C 698.13 1.50405 -0.623063 0
M  V30 7297 O 699.319 1.54215 -0.898887 0
M  V30 7298 C 696.419 2.87721 -1.79081 0
M  V30 7299 C 695.592 3.10111 -3.08464 0
M  V30 7300 C 694.651 4.28954 -3.0477 0
M  V30 7301 O 693.677 4.25012 -3.78621 0
M  V30 7302 N 694.879 5.35411 -2.24311 0
M  V30 7303 H 697.644 1.30915 -2.69595 0
M  V30 7304 H 695.205 0.573454 -1.51404 0
M  V30 7305 H 697.197 3.65333 -1.7411 0
M  V30 7306 H 695.767 2.99029 -0.911052 0
M  V30 7307 H 694.987 2.20319 -3.26884 0
M  V30 7308 H 696.275 3.21928 -3.94005 0
M  V30 7309 H 695.673 5.41471 -1.63787 0
M  V30 7310 H 694.23 6.1167 -2.25175 0
M  V30 7311 N 697.663 1.43903 0.642637 0
M  V30 7312 C 698.888 1.49758 1.43483 0
M  V30 7313 C 699.313 0.119911 1.87717 0
M  V30 7314 O 698.671 -0.888558 1.58033 0
M  V30 7315 C 698.719 2.45744 2.63898 0
M  V30 7316 O 697.823 1.95101 3.63331 0
M  V30 7317 H 697.164 0.506138 0.429791 0
M  V30 7318 H 699.694 1.88923 0.785438 0
M  V30 7319 H 699.704 2.63399 3.11584 0
M  V30 7320 H 698.379 3.45818 2.31046 0
M  V30 7321 H 696.956 1.87158 3.22531 0
M  V30 7322 N 699.141 -0.881989 1.30609 0
M  V30 7323 C 700.366 -1.67236 1.22665 0
M  V30 7324 C 700.791 -1.8696 -0.206777 0
M  V30 7325 O 700.149 -1.4027 -1.14865 0
M  V30 7326 C 700.197 -3.02446 1.96363 0
M  V30 7327 O 699.301 -3.91614 1.29276 0
M  V30 7328 H 698.642 -0.510902 0.424117 0
M  V30 7329 H 701.172 -1.10055 1.72479 0
M  V30 7330 H 701.182 -3.52468 2.055 0
M  V30 7331 H 699.857 -2.8741 3.00613 0
M  V30 7332 H 698.434 -3.50055 1.28514 0
M  V30 7333 N 700.619 -1.13374 -1.09472 0
M  V30 7334 C 702.03 -0.90801 -1.63132 0
M  V30 7335 C 702.381 0.555576 -1.8817 0
M  V30 7336 O 701.506 1.42218 -1.63104 0
M  V30 7337 C 702.101 -1.64182 -2.96361 0
M  V30 7338 C 700.66 -1.46197 -3.46848 0
M  V30 7339 C 699.807 -1.67134 -2.21273 0
M  V30 7340 H 702.758 -1.2871 -0.928411 0
M  V30 7341 H 702.779 -1.09863 -3.64294 0
M  V30 7342 H 702.291 -2.707 -2.78106 0
M  V30 7343 H 700.392 -0.419788 -3.70228 0
M  V30 7344 H 700.505 -2.22472 -4.24315 0
M  V30 7345 H 698.869 -1.09616 -2.29905 0
M  V30 7346 H 699.652 -2.74971 -2.05538 0
M  V30 7347 N 702.098 1.27442 -0.927168 0
M  V30 7348 C 703.346 1.94007 -0.566203 0
M  V30 7349 C 703.667 1.7323 0.895345 0
M  V30 7350 O 702.937 1.07973 1.63459 0
M  V30 7351 H 701.517 0.717917 -0.206409 0
M  V30 7352 H 704.179 1.55161 -1.17945 0
M  V30 7353 H 703.275 3.02401 -0.772028 0
M  V30 7354 N 703.576 0.692616 1.41565 0
M  V30 7355 C 704.509 -0.025063 2.28186 0
M  V30 7356 C 705.487 -0.790912 1.42068 0
M  V30 7357 O 706.671 -0.782344 1.71498 0
M  V30 7358 C 703.798 -1.04285 3.22246 0
M  V30 7359 C 702.844 -0.370515 4.24888 0
M  V30 7360 S 703.677 0.884942 5.28137 0
M  V30 7361 C 704.833 -0.131324 6.25762 0
M  V30 7362 H 705.066 0.709626 2.88707 0
M  V30 7363 H 702.599 0.482783 1.46658 0
M  V30 7364 H 704.557 -1.62493 3.7697 0
M  V30 7365 H 703.218 -1.7501 2.60827 0
M  V30 7366 H 702.411 -1.13911 4.90959 0
M  V30 7367 H 702.013 0.138411 3.73744 0
M  V30 7368 H 704.305 -0.985527 6.70294 0
M  V30 7369 H 705.248 0.495384 7.06365 0
M  V30 7370 H 705.656 -0.484777 5.62415 0
M  V30 7371 N 705.054 -1.51416 0.437162 0
M  V30 7372 C 706.002 -2.29328 -0.388765 0
M  V30 7373 C 706.996 -1.35171 -1.02104 0
M  V30 7374 O 708.202 -1.52513 -0.956024 0
M  V30 7375 H 704.577 -0.738048 -0.144183 0
M  V30 7376 H 706.548 -2.96995 0.289212 0
M  V30 7377 C 705.297 -3.14741 -1.47761 0
M  V30 7378 H 704.62 -3.8708 -1.00045 0
M  V30 7379 H 706.06 -3.72313 -2.02877 0
M  V30 7380 C 704.519 -2.30105 -2.46076 0
M  V30 7381 O 705.049 -1.96055 -3.50607 0
M  V30 7382 N 703.255 -1.93331 -2.1696 0
M  V30 7383 H 702.802 -2.2122 -1.31983 0
M  V30 7384 H 702.76 -1.36999 -2.82982 0
M  V30 7385 N 706.532 -0.168513 -1.56696 0
M  V30 7386 C 707.943 0.348694 -1.83415 0
M  V30 7387 C 708.294 1.63257 -1.0882 0
M  V30 7388 O 707.419 2.13707 -0.340333 0
M  V30 7389 C 708.014 0.639423 -3.32711 0
M  V30 7390 C 706.573 1.10108 -3.59935 0
M  V30 7391 C 705.72 0.135464 -2.76969 0
M  V30 7392 H 708.671 -0.392829 -1.53761 0
M  V30 7393 H 708.692 1.49179 -3.50037 0
M  V30 7394 H 708.204 -0.295173 -3.86976 0
M  V30 7395 H 706.305 2.05088 -3.11079 0
M  V30 7396 H 706.418 1.01218 -4.68286 0
M  V30 7397 H 704.782 0.632286 -2.46727 0
M  V30 7398 H 705.565 -0.793104 -3.34013 0
M  V30 7399 N 708.01 1.57248 0.105221 0
M  V30 7400 C 709.258 1.85204 0.808951 0
M  V30 7401 C 709.579 0.75574 1.7976 0
M  V30 7402 O 708.849 -0.218984 1.94672 0
M  V30 7403 H 707.429 0.683346 0.301739 0
M  V30 7404 H 710.091 1.94695 0.0892605 0
M  V30 7405 H 709.187 2.81595 1.34575 0
M  V30 7406 N 709.488 -0.375779 1.53054 0
M  V30 7407 C 710.42 -1.47963 1.75042 0
M  V30 7408 C 711.433 -1.50073 0.631031 0
M  V30 7409 O 712.622 -1.53736 0.907052 0
M  V30 7410 C 709.722 -2.86767 1.80604 0
M  V30 7411 C 708.895 -3.08471 3.10104 0
M  V30 7412 C 707.954 -4.27332 3.07041 0
M  V30 7413 O 706.98 -4.22998 3.80869 0
M  V30 7414 N 708.182 -5.34214 2.27147 0
M  V30 7415 H 710.947 -1.29484 2.70285 0
M  V30 7416 H 708.508 -0.565416 1.51706 0
M  V30 7417 H 710.5 -3.64404 1.76045 0
M  V30 7418 H 709.07 -2.98542 0.926897 0
M  V30 7419 H 708.29 -2.18583 3.28048 0
M  V30 7420 H 709.578 -3.19834 3.95706 0
M  V30 7421 H 708.976 -5.40594 1.66656 0
M  V30 7422 H 707.533 -6.10467 2.28415 0
M  V30 7423 N 710.966 -1.44241 -0.634997 0
M  V30 7424 C 712.377 -1.41622 -1.21655 0
M  V30 7425 C 712.728 -0.129584 -1.95772 0
M  V30 7426 O 711.853 0.770225 -2.02229 0
M  V30 7427 C 712.448 -2.56557 -2.21278 0
M  V30 7428 C 711.007 -2.57145 -2.7487 0
M  V30 7429 C 710.154 -2.33354 -1.49804 0
M  V30 7430 H 713.105 -1.52878 -0.425905 0
M  V30 7431 H 713.126 -2.29089 -3.03807 0
M  V30 7432 H 712.638 -3.50186 -1.67306 0
M  V30 7433 H 710.739 -1.67447 -3.32855 0
M  V30 7434 H 710.852 -3.55507 -3.21172 0
M  V30 7435 H 709.216 -1.82372 -1.77799 0
M  V30 7436 H 709.999 -3.29092 -0.977402 0
M  V30 7437 N 712.444 0.87505 -1.31075 0
M  V30 7438 C 713.672 1.66058 -1.23419 0
M  V30 7439 C 714.087 1.87723 0.201347 0
M  V30 7440 O 713.444 1.43178 1.13165 0
M  V30 7441 C 713.495 3.03142 -1.96945 0
M  V30 7442 O 713.216 2.82448 -3.34895 0
M  V30 7443 C 714.717 3.97583 -1.96067 0
M  V30 7444 H 711.937 0.517868 -0.426677 0
M  V30 7445 H 714.481 1.09258 -1.72867 0
M  V30 7446 H 712.636 3.56645 -1.51271 0
M  V30 7447 H 713.05 3.69483 -3.72267 0
M  V30 7448 H 714.524 4.91104 -2.52034 0
M  V30 7449 H 715.001 4.2898 -0.941961 0
M  V30 7450 H 715.607 3.50015 -2.41597 0
M  V30 7451 N 713.922 1.13953 1.08869 0
M  V30 7452 C 715.147 0.928559 1.85452 0
M  V30 7453 C 715.572 -0.517642 1.80837 0
M  V30 7454 O 714.93 -1.36779 1.19001 0
M  V30 7455 C 714.978 1.42814 3.31114 0
M  V30 7456 O 714.082 0.617129 4.07756 0
M  V30 7457 H 713.423 0.33235 0.574839 0
M  V30 7458 H 715.953 1.5156 1.37443 0
M  V30 7459 H 715.963 1.43425 3.8196 0
M  V30 7460 H 714.638 2.48109 3.33788 0
M  V30 7461 H 713.215 0.679365 3.66659 0
M  V30 7462 N 715.4 -1.26948 0.933913 0
M  V30 7463 C 716.333 -2.24977 0.382169 0
M  V30 7464 C 717.311 -1.53893 -0.524949 0
M  V30 7465 O 718.495 -1.82699 -0.464048 0
M  V30 7466 C 715.622 -3.35676 -0.451615 0
M  V30 7467 C 714.668 -4.24686 0.392947 0
M  V30 7468 S 715.501 -5.03898 1.81237 0
M  V30 7469 C 716.657 -6.18078 0.986443 0
M  V30 7470 H 716.89 -2.71429 1.21299 0
M  V30 7471 H 714.423 -1.35701 0.736523 0
M  V30 7472 H 716.381 -3.99901 -0.926797 0
M  V30 7473 H 715.042 -2.8785 -1.25703 0
M  V30 7474 H 714.235 -5.03402 -0.245533 0
M  V30 7475 H 713.837 -3.65288 0.802537 0
M  V30 7476 H 716.129 -6.77125 0.225321 0
M  V30 7477 H 717.072 -6.86216 1.74682 0
M  V30 7478 H 717.48 -5.62047 0.525711 0
M  V30 7479 N 716.879 -0.700114 -1.41195 0
M  V30 7480 C 717.809 -0.0521132 -2.33442 0
M  V30 7481 C 718.79 0.76228 -1.52063 0
M  V30 7482 O 719.975 0.714336 -1.80585 0
M  V30 7483 C 717.105 0.881693 -3.35922 0
M  V30 7484 C 716.059 0.174062 -4.27646 0
M  V30 7485 C 715.385 1.22254 -5.20536 0
M  V30 7486 C 716.685 -0.962396 -5.13357 0
M  V30 7487 H 718.379 -0.822574 -2.87879 0
M  V30 7488 H 715.925 -0.397011 -1.38419 0
M  V30 7489 H 717.878 1.34429 -3.99383 0
M  V30 7490 H 716.602 1.68387 -2.79845 0
M  V30 7491 H 715.261 -0.268551 -3.65615 0
M  V30 7492 H 714.909 2.01736 -4.60773 0
M  V30 7493 H 714.609 0.754038 -5.82742 0
M  V30 7494 H 716.133 1.68555 -5.86874 0
M  V30 7495 H 717.547 -0.579875 -5.7036 0
M  V30 7496 H 715.944 -1.35828 -5.84526 0
M  V30 7497 H 717.014 -1.80003 -4.50252 0
M  V30 7498 N 718.357 1.51182 -0.445186 0
M  V30 7499 C 719.582 2.07056 0.119445 0
M  V30 7500 C 720.007 1.30966 1.35016 0
M  V30 7501 O 719.365 0.349827 1.77893 0
M  V30 7502 C 719.413 3.58234 0.412428 0
M  V30 7503 O 718.517 3.84249 1.49754 0
M  V30 7504 H 717.858 0.663998 -0.00157797 0
M  V30 7505 H 720.388 1.94699 -0.628779 0
M  V30 7506 H 720.398 4.02617 0.660583 0
M  V30 7507 H 719.073 4.13038 -0.487049 0
M  V30 7508 H 717.65 3.51724 1.23873 0
M  V30 7509 N 719.835 0.176821 1.56605 0
M  V30 7510 C 721.246 -0.338963 1.83597 0
M  V30 7511 C 721.597 -1.62677 1.09684 0
M  V30 7512 O 720.722 -2.13524 0.351661 0
M  V30 7513 C 721.317 -0.62177 3.33046 0
M  V30 7514 C 719.876 -1.08198 3.60514 0
M  V30 7515 C 719.023 -0.120774 2.77037 0
M  V30 7516 H 721.974 0.400978 1.53551 0
M  V30 7517 H 721.995 -1.47321 3.50823 0
M  V30 7518 H 721.507 0.315692 3.86814 0
M  V30 7519 H 719.608 -2.03435 3.12162 0
M  V30 7520 H 719.721 -0.987329 4.68816 0
M  V30 7521 H 718.085 -0.619192 2.47059 0
M  V30 7522 H 718.868 0.810806 3.33588 0
M  V30 7523 N 721.313 -1.57302 -0.09688 0
M  V30 7524 C 722.729 -1.53094 -0.451041 0
M  V30 7525 C 722.929 -0.893265 -1.80618 0
M  V30 7526 O 721.985 -0.485013 -2.47798 0
M  V30 7527 C 723.298 -2.9782 -0.415172 0
M  V30 7528 C 724.846 -3.09026 -0.497155 0
M  V30 7529 C 725.321 -4.55356 -0.491452 0
M  V30 7530 N 726.812 -4.59896 -0.552258 0
M  V30 7531 C 727.547 -5.70563 -0.569654 0
M  V30 7532 N 727.043 -6.90666 -0.543365 0
M  V30 7533 N 728.836 -5.58733 -0.614331 0
M  V30 7534 H 720.987 -1.97131 0.790771 0
M  V30 7535 H 723.25 -0.901211 0.294147 0
M  V30 7536 H 722.956 -3.47933 0.513362 0
M  V30 7537 H 722.83 -3.56416 -1.23481 0
M  V30 7538 H 725.217 -2.58902 -1.41611 0
M  V30 7539 H 725.298 -2.53386 0.35059 0
M  V30 7540 H 724.942 -5.06131 0.423549 0
M  V30 7541 H 724.872 -5.08832 -1.35639 0
M  V30 7542 H 727.363 -3.73456 -0.577842 0
M  V30 7543 H 727.676 -7.70769 -0.559873 0
M  V30 7544 H 726.021 -6.93123 -0.510441 0
M  V30 7545 H 729.212 -4.63809 -0.632387 0
M  V30 7546 H 729.385 -6.44984 -0.62442 0
M  V30 7547 N 722.791 0.367657 -1.53252 0
M  V30 7548 C 723.741 1.45035 -1.75923 0
M  V30 7549 C 724.725 1.48736 -0.613719 0
M  V30 7550 O 725.917 1.54012 -0.872313 0
M  V30 7551 C 723.046 2.82493 -1.9507 0
M  V30 7552 C 722.132 2.83279 -3.15617 0
M  V30 7553 N 722.523 2.53712 -4.37566 0
M  V30 7554 C 720.821 3.1444 -3.16297 0
M  V30 7555 C 721.522 2.62123 -5.19294 0
M  V30 7556 N 720.498 2.96747 -4.55458 0
M  V30 7557 H 724.3 1.21035 -2.6782 0
M  V30 7558 H 721.814 0.575822 -1.51849 0
M  V30 7559 H 723.811 3.60473 -2.0944 0
M  V30 7560 H 722.471 3.07459 -1.044 0
M  V30 7561 H 723.482 2.27344 -4.65333 0
M  V30 7562 H 720.159 3.44733 -2.35511 0
M  V30 7563 H 721.549 2.42628 -6.26563 0
M  V30 7564 N 724.269 1.44576 0.627338 0
M  V30 7565 C 725.685 1.28546 0.945938 0
M  V30 7566 C 725.885 0.224003 2.00251 0
M  V30 7567 O 724.941 -0.388817 2.49488 0
M  V30 7568 C 726.254 2.65825 1.40561 0
M  V30 7569 C 727.802 2.73566 1.52088 0
M  V30 7570 C 728.277 4.11323 2.01438 0
M  V30 7571 N 729.768 4.13519 2.08702 0
M  V30 7572 C 730.503 5.16964 2.48065 0
M  V30 7573 N 729.999 6.30768 2.86538 0
M  V30 7574 N 731.792 5.04319 2.48232 0
M  V30 7575 H 723.943 2.1228 -0.0713567 0
M  V30 7576 H 726.206 0.947503 0.0307081 0
M  V30 7577 H 725.912 3.44591 0.703539 0
M  V30 7578 H 725.786 2.92969 2.37591 0
M  V30 7579 H 728.173 1.95116 2.21391 0
M  V30 7580 H 728.254 2.50159 0.534237 0
M  V30 7581 H 727.898 4.9025 1.32729 0
M  V30 7582 H 727.828 4.32109 3.0098 0
M  V30 7583 H 730.319 3.31385 1.81638 0
M  V30 7584 H 730.632 7.0551 3.15398 0
M  V30 7585 H 728.977 6.342 2.84281 0
M  V30 7586 H 732.168 4.14465 2.17569 0
M  V30 7587 H 732.341 5.85059 2.78585 0
M  V30 7588 N 725.747 -0.868086 1.31537 0
M  V30 7589 C 726.68 -1.97871 1.13676 0
M  V30 7590 C 727.658 -1.62551 0.0397589 0
M  V30 7591 O 728.842 -1.87473 0.196539 0
M  V30 7592 C 725.969 -3.30577 0.73734 0
M  V30 7593 C 725.015 -3.8488 1.83765 0
M  V30 7594 S 725.848 -4.10106 3.44345 0
M  V30 7595 C 727.004 -5.45806 3.06344 0
M  V30 7596 H 727.237 -2.12719 2.07697 0
M  V30 7597 H 724.77 -1.01849 1.16044 0
M  V30 7598 H 726.728 -4.07274 0.513641 0
M  V30 7599 H 725.389 -3.13562 -0.183787 0
M  V30 7600 H 724.582 -4.80821 1.51085 0
M  V30 7601 H 724.184 -3.14981 2.01651 0
M  V30 7602 H 726.476 -6.27535 2.55354 0
M  V30 7603 H 727.419 -5.83437 4.01257 0
M  V30 7604 H 727.827 -5.0917 2.43734 0
M  V30 7605 N 727.225 -1.14528 -1.08264 0
M  V30 7606 C 728.45 -0.938381 -1.84957 0
M  V30 7607 C 728.875 0.508044 -1.81109 0
M  V30 7608 O 728.233 1.36146 -1.19724 0
M  V30 7609 C 728.281 -1.44568 -3.30352 0
M  V30 7610 O 727.385 -0.638745 -4.07423 0
M  V30 7611 H 726.726 -0.335394 -0.573068 0
M  V30 7612 H 729.256 -1.52287 -1.36637 0
M  V30 7613 H 729.266 -1.45449 -3.81194 0
M  V30 7614 H 727.941 -2.49876 -3.32468 0
M  V30 7615 H 726.518 -0.698801 -3.66294 0
M  V30 7616 N 728.703 1.26451 -0.940633 0
M  V30 7617 C 730.114 1.75726 -0.630653 0
M  V30 7618 C 730.465 1.76631 0.854167 0
M  V30 7619 O 729.59 1.37807 1.66848 0
M  V30 7620 C 730.185 3.19114 -1.13805 0
M  V30 7621 C 728.744 3.66005 -0.878497 0
M  V30 7622 C 727.891 2.45505 -1.28928 0
M  V30 7623 H 730.842 1.12535 -1.119 0
M  V30 7624 H 730.863 3.77311 -0.491625 0
M  V30 7625 H 730.375 3.18424 -2.21874 0
M  V30 7626 H 728.476 3.72126 0.187833 0
M  V30 7627 H 728.589 4.54844 -1.50512 0
M  V30 7628 H 726.953 2.4467 -0.707713 0
M  V30 7629 H 727.736 2.47516 -2.37888 0
M  V30 7630 N 730.181 0.707592 1.40822 0
M  V30 7631 C 731.429 0.243189 2.00632 0
M  V30 7632 C 731.75 -1.16512 1.56365 0
M  V30 7633 O 731.02 -1.78841 0.799553 0
M  V30 7634 H 729.6 0.0869203 0.741926 0
M  V30 7635 H 732.262 0.911438 1.72275 0
M  V30 7636 H 731.358 0.270014 3.1093 0
M  V30 7637 N 731.66 -1.50943 0.453197 0
M  V30 7638 C 732.906 -2.02512 -0.108082 0
M  V30 7639 C 733.239 -1.33574 -1.40967 0
M  V30 7640 O 732.514 -0.455671 -1.89087 0
M  V30 7641 C 732.797 -3.58759 -0.310453 0
M  V30 7642 C 732.65 -4.38293 1.0109 0
M  V30 7643 C 733.969 -4.26816 -1.07313 0
M  V30 7644 H 731.088 -0.73603 -0.0378064 0
M  V30 7645 H 733.73 -1.80433 0.595295 0
M  V30 7646 H 731.88 -3.77702 -0.909582 0
M  V30 7647 H 733.552 -4.30964 1.64523 0
M  V30 7648 H 731.795 -4.02745 1.61179 0
M  V30 7649 H 732.466 -5.45828 0.82315 0
M  V30 7650 H 734.942 -4.1224 -0.565473 0
M  V30 7651 H 733.818 -5.35989 -1.1835 0
M  V30 7652 H 734.079 -3.88757 -2.10525 0
M  V30 7653 N 733.138 -0.185124 -1.56509 0
M  V30 7654 C 734.101 0.72591 -2.17401 0
M  V30 7655 C 735.101 1.14819 -1.12575 0
M  V30 7656 O 736.291 1.0629 -1.38015 0
M  V30 7657 C 733.423 1.98979 -2.76803 0
M  V30 7658 H 734.616 0.195588 -2.99262 0
M  V30 7659 H 732.169 0.0644772 -1.56167 0
M  V30 7660 H 732.904 2.56287 -1.98714 0
M  V30 7661 H 732.689 1.69583 -3.53531 0
M  V30 7662 H 734.179 2.63966 -3.23592 0
M  V30 7663 N 734.616 1.57351 0.0885366 0
M  V30 7664 C 735.864 1.86051 0.789262 0
M  V30 7665 C 736.185 0.774763 1.78948 0
M  V30 7666 O 735.455 -0.198324 1.94894 0
M  V30 7667 H 734.035 0.686508 0.294475 0
M  V30 7668 H 736.697 1.94779 0.0686055 0
M  V30 7669 H 735.793 2.83007 1.31581 0
M  V30 7670 N 736.094 -0.359525 1.53444 0
M  V30 7671 C 737.319 -1.12644 1.74144 0
M  V30 7672 C 737.744 -1.82082 0.472007 0
M  V30 7673 O 737.102 -1.71962 -0.57436 0
M  V30 7674 C 737.15 -2.12781 2.9113 0
M  V30 7675 O 736.254 -3.19984 2.60162 0
M  V30 7676 H 735.595 -0.326553 0.578152 0
M  V30 7677 H 738.125 -0.414798 2.00351 0
M  V30 7678 H 738.135 -2.56278 3.17467 0
M  V30 7679 H 736.81 -1.61634 3.83207 0
M  V30 7680 H 735.387 -2.81417 2.44661 0
M  V30 7681 N 737.572 -1.44907 -0.619662 0
M  V30 7682 C 738.983 -1.42905 -1.20146 0
M  V30 7683 C 739.334 -0.150341 -1.95623 0
M  V30 7684 O 738.459 0.748732 -2.03034 0
M  V30 7685 C 739.054 -2.58889 -2.18545 0
M  V30 7686 C 737.613 -2.60046 -2.72127 0
M  V30 7687 C 736.76 -2.3493 -1.4732 0
M  V30 7688 H 739.711 -1.53321 -0.409666 0
M  V30 7689 H 739.732 -2.32298 -3.0136 0
M  V30 7690 H 739.244 -3.51941 -1.63583 0
M  V30 7691 H 737.345 -1.70968 -3.3106 0
M  V30 7692 H 737.458 -3.58893 -3.17384 0
M  V30 7693 H 735.822 -1.84248 -1.75855 0
M  V30 7694 H 736.605 -3.3011 -0.942442 0
M  V30 7695 N 739.05 0.861098 -1.31996 0
M  V30 7696 C 740.466 1.14827 -1.10846 0
M  V30 7697 C 740.666 2.0117 0.11528 0
M  V30 7698 O 739.722 2.39423 0.802048 0
M  V30 7699 C 741.035 1.83183 -2.38462 0
M  V30 7700 C 742.583 1.95847 -2.44158 0
M  V30 7701 C 743.058 2.67617 -3.71679 0
M  V30 7702 N 744.549 2.75147 -3.72624 0
M  V30 7703 C 745.284 3.31314 -4.67994 0
M  V30 7704 N 744.78 3.88343 -5.73726 0
M  V30 7705 N 746.573 3.29356 -4.55501 0
M  V30 7706 H 738.724 0.285951 -2.10466 0
M  V30 7707 H 740.987 0.189303 -0.928907 0
M  V30 7708 H 740.693 1.27193 -3.27895 0
M  V30 7709 H 740.567 2.83393 -2.48935 0
M  V30 7710 H 742.954 2.50999 -1.55189 0
M  V30 7711 H 743.035 0.94653 -2.37644 0
M  V30 7712 H 742.679 2.13131 -4.61018 0
M  V30 7713 H 742.609 3.69237 -3.75462 0
M  V30 7714 H 745.1 2.34682 -2.96197 0
M  V30 7715 H 745.413 4.29338 -6.42564 0
M  V30 7716 H 743.758 3.86693 -5.77489 0
M  V30 7717 H 746.949 2.84047 -3.72069 0
M  V30 7718 H 747.122 3.7283 -5.30001 0
M  V30 7719 N 740.528 1.15101 1.07655 0
M  V30 7720 C 741.777 0.918528 1.79572 0
M  V30 7721 C 742.09 -0.555922 1.87534 0
M  V30 7722 O 743.296 -0.905893 2.55941 0
M  V30 7723 C 741.752 1.59394 3.22679 0
M  V30 7724 C 741.36 3.1052 3.22927 0
M  V30 7725 C 743.104 1.44289 3.99225 0
M  V30 7726 C 741.011 3.70862 4.60668 0
M  V30 7727 H 739.941 0.340006 0.672987 0
M  V30 7728 H 742.592 1.38079 1.20857 0
M  V30 7729 H 740.974 1.05936 3.81567 0
M  V30 7730 H 742.148 3.70708 2.737 0
M  V30 7731 H 740.463 3.25351 2.59876 0
M  V30 7732 H 743.06 1.86766 5.01022 0
M  V30 7733 H 743.403 0.389975 4.14469 0
M  V30 7734 H 743.936 1.94826 3.46825 0
M  V30 7735 H 740.675 4.7604 4.50628 0
M  V30 7736 H 740.195 3.15456 5.10145 0
M  V30 7737 H 741.874 3.71607 5.29639 0
M  V30 7738 N 742.006 -1.2595 0.947325 0
M  V30 7739 C 743.417 -1.75389 0.639963 0
M  V30 7740 C 743.768 -1.77081 -0.844788 0
M  V30 7741 O 742.893 -1.3869 -1.66114 0
M  V30 7742 C 743.488 -3.18506 1.15496 0
M  V30 7743 C 742.047 -3.65534 0.897894 0
M  V30 7744 C 741.194 -2.44818 1.30228 0
M  V30 7745 H 744.145 -1.1194 1.12495 0
M  V30 7746 H 744.166 -3.77045 0.511627 0
M  V30 7747 H 743.678 -3.17243 2.23559 0
M  V30 7748 H 741.779 -3.72221 -0.168096 0
M  V30 7749 H 741.892 -4.54039 1.52922 0
M  V30 7750 H 740.256 -2.44291 0.720678 0
M  V30 7751 H 741.039 -2.46251 2.39198 0
M  V30 7752 N 743.484 -0.715051 -1.40445 0
M  V30 7753 C 744.895 -0.326763 -1.83818 0
M  V30 7754 C 745.246 1.13851 -1.59789 0
M  V30 7755 O 744.371 1.87611 -1.07848 0
M  V30 7756 C 744.966 -0.586297 -3.33688 0
M  V30 7757 C 743.525 -0.251724 -3.75557 0
M  V30 7758 C 742.672 -0.858928 -2.63662 0
M  V30 7759 H 745.623 -0.914241 -1.2972 0
M  V30 7760 H 745.644 0.148636 -3.8021 0
M  V30 7761 H 745.156 -1.65281 -3.51146 0
M  V30 7762 H 743.257 0.809754 -3.63695 0
M  V30 7763 H 743.37 -0.720348 -4.73654 0
M  V30 7764 H 741.734 -0.287013 -2.53078 0
M  V30 7765 H 742.517 -1.9297 -2.83932 0
M  V30 7766 N 744.962 1.50701 -0.461195 0
M  V30 7767 C 746.187 2.07171 0.0974773 0
M  V30 7768 C 746.612 1.32391 1.3362 0
M  V30 7769 O 745.97 0.368676 1.77512 0
M  V30 7770 C 746.018 3.58651 0.374409 0
M  V30 7771 O 745.122 3.85816 1.4567 0
M  V30 7772 H 744.463 0.663944 -0.00862047 0
M  V30 7773 H 746.993 1.94021 -0.649394 0
M  V30 7774 H 747.003 4.03295 0.617843 0
M  V30 7775 H 745.678 4.12498 -0.530829 0
M  V30 7776 H 744.255 3.53018 1.20136 0
M  V30 7777 N 746.441 0.193421 1.56409 0
M  V30 7778 C 747.373 -0.759944 2.16235 0
M  V30 7779 C 748.386 -1.17797 1.12373 0
M  V30 7780 O 749.575 -1.11399 1.39472 0
M  V30 7781 C 746.675 -2.03735 2.70823 0
M  V30 7782 C 745.848 -1.77939 3.9957 0
M  V30 7783 C 744.907 -2.90111 4.39001 0
M  V30 7784 O 743.933 -2.59791 5.06456 0
M  V30 7785 N 745.135 -4.18426 4.02368 0
M  V30 7786 H 747.9 -0.248348 2.98669 0
M  V30 7787 H 745.461 0.0113966 1.61896 0
M  V30 7788 H 747.453 -2.77914 2.94187 0
M  V30 7789 H 746.023 -2.46022 1.92852 0
M  V30 7790 H 745.243 -0.875491 3.84355 0
M  V30 7791 H 746.531 -1.58099 4.83614 0
M  V30 7792 H 745.929 -4.45913 3.48106 0
M  V30 7793 H 744.486 -4.89237 4.30686 0
M  V30 7794 N 747.919 -1.57396 -0.0801906 0
M  V30 7795 C 749.166 -1.86836 -0.780927 0
M  V30 7796 C 749.494 -0.784012 -1.77999 0
M  V30 7797 O 748.749 0.220881 -1.94449 0
M  V30 7798 C 749.048 -3.22915 -1.53169 0
M  V30 7799 C 748.714 -4.45843 -0.67339 0
M  V30 7800 C 747.376 -4.79213 -0.436829 0
M  V30 7801 C 749.728 -5.21142 -0.0776786 0
M  V30 7802 C 747.056 -5.853 0.405062 0
M  V30 7803 C 749.408 -6.28119 0.751619 0
M  V30 7804 C 748.072 -6.59995 0.998131 0
M  V30 7805 H 747.342 -0.683682 -0.285761 0
M  V30 7806 H 749.989 -1.91454 -0.0419435 0
M  V30 7807 H 748.294 -3.14049 -2.34265 0
M  V30 7808 H 749.991 -3.42926 -2.07853 0
M  V30 7809 H 746.581 -4.19721 -0.867891 0
M  V30 7810 H 750.765 -4.95682 -0.247572 0
M  V30 7811 H 746.021 -6.084 0.60488 0
M  V30 7812 H 750.195 -6.8563 1.22 0
M  V30 7813 H 747.822 -7.42027 1.65227 0
M  V30 7814 N 749.397 0.351382 -1.53633 0
M  V30 7815 C 750.622 1.11718 -1.74739 0
M  V30 7816 C 751.047 1.81829 -0.481657 0
M  V30 7817 O 750.405 1.72264 0.565233 0
M  V30 7818 C 750.453 2.11234 -2.92254 0
M  V30 7819 O 749.557 3.186 -2.61855 0
M  V30 7820 H 748.898 0.323482 -0.579875 0
M  V30 7821 H 751.428 0.404167 -2.00568 0
M  V30 7822 H 751.438 2.54591 -3.18822 0
M  V30 7823 H 750.113 1.59599 -3.84058 0
M  V30 7824 H 748.69 2.80115 -2.4615 0
M  V30 7825 N 750.875 1.45233 0.611969 0
M  V30 7826 C 752.286 1.4354 1.19387 0
M  V30 7827 C 752.637 0.160713 1.95541 0
M  V30 7828 O 751.762 -0.737954 2.03429 0
M  V30 7829 C 752.357 2.60045 2.17169 0
M  V30 7830 C 750.916 2.61486 2.70744 0
M  V30 7831 C 750.063 2.35708 1.46072 0
M  V30 7832 H 753.014 1.53536 0.401529 0
M  V30 7833 H 753.035 2.33893 3.00124 0
M  V30 7834 H 752.547 3.52803 1.61714 0
M  V30 7835 H 750.648 1.72721 3.30149 0
M  V30 7836 H 750.761 3.60572 3.15476 0
M  V30 7837 H 749.125 1.85178 1.74875 0
M  V30 7838 H 749.908 3.30606 0.924922 0
M  V30 7839 N 752.353 -0.854086 1.3245 0
M  V30 7840 C 753.316 -1.94427 1.21371 0
M  V30 7841 C 754.316 -1.60219 0.136613 0
M  V30 7842 O 755.506 -1.69846 0.387057 0
M  V30 7843 C 752.638 -3.29698 0.866701 0
M  V30 7844 H 753.831 -2.05679 2.18257 0
M  V30 7845 H 751.384 -1.04434 1.1629 0
M  V30 7846 H 752.119 -3.24145 -0.100319 0
M  V30 7847 H 751.904 -3.55903 1.64545 0
M  V30 7848 H 753.394 -4.09599 0.813515 0
M  V30 7849 N 753.831 -1.1567 -1.07043 0
M  V30 7850 C 755.079 -0.931673 -1.79344 0
M  V30 7851 C 755.4 0.542421 -1.87304 0
M  V30 7852 O 754.67 1.39418 -1.37621 0
M  V30 7853 H 753.25 -0.34171 -0.664262 0
M  V30 7854 H 755.912 -1.45795 -1.29344 0
M  V30 7855 H 755.008 -1.34379 -2.81689 0
M  V30 7856 N 755.309 1.25446 -0.953992 0
M  V30 7857 C 756.534 1.97755 -0.625129 0
M  V30 7858 C 756.959 1.70437 0.795787 0
M  V30 7859 O 756.317 0.95992 1.53803 0
M  V30 7860 C 756.365 3.49463 -0.889251 0
M  V30 7861 O 755.469 4.12387 0.0322757 0
M  V30 7862 H 754.81 0.61998 -0.237742 0
M  V30 7863 H 757.34 1.59582 -1.28041 0
M  V30 7864 H 757.35 3.99772 -0.815263 0
M  V30 7865 H 756.025 3.68676 -1.92487 0
M  V30 7866 H 754.602 3.72782 -0.0938625 0
M  V30 7867 N 756.787 0.722489 1.40064 0
M  V30 7868 C 757.717 0.0892452 2.33329 0
M  V30 7869 C 758.698 -0.737992 1.53257 0
M  V30 7870 O 759.883 -0.685516 1.81698 0
M  V30 7871 C 757.013 -0.828139 3.37282 0
M  V30 7872 C 755.967 -0.106005 4.27869 0
M  V30 7873 C 755.293 -1.13957 5.22415 0
M  V30 7874 C 756.593 1.04395 5.11761 0
M  V30 7875 H 758.287 0.868269 2.86534 0
M  V30 7876 H 755.833 0.418982 1.3777 0
M  V30 7877 H 757.786 -1.28058 4.01471 0
M  V30 7878 H 756.51 -1.63914 2.82489 0
M  V30 7879 H 755.169 0.326683 3.65142 0
M  V30 7880 H 754.817 -1.9438 4.63924 0
M  V30 7881 H 754.517 -0.661233 5.83868 0
M  V30 7882 H 756.041 -1.59197 5.89482 0
M  V30 7883 H 757.455 0.670541 5.69365 0
M  V30 7884 H 755.852 1.4511 5.82291 0
M  V30 7885 H 756.922 1.87144 4.47331 0
M  V30 7886 N 758.265 -1.50454 0.469181 0
M  V30 7887 C 759.215 -2.25381 -0.344582 0
M  V30 7888 C 760.199 -1.28892 -0.963098 0
M  V30 7889 O 761.391 -1.53805 -0.875964 0
M  V30 7890 C 758.52 -3.12232 -1.4271 0
M  V30 7891 C 757.606 -4.16168 -0.816411 0
M  V30 7892 N 757.997 -5.05762 0.0621424 0
M  V30 7893 C 756.295 -4.32712 -1.08056 0
M  V30 7894 C 756.996 -5.80264 0.408519 0
M  V30 7895 N 755.972 -5.43171 -0.215827 0
M  V30 7896 H 759.774 -2.92016 0.332237 0
M  V30 7897 H 757.288 -1.59911 0.283209 0
M  V30 7898 H 759.285 -3.64514 -2.02324 0
M  V30 7899 H 757.945 -2.47145 -2.10593 0
M  V30 7900 H 758.956 -5.16105 0.430841 0
M  V30 7901 H 755.633 -3.78844 -1.75452 0
M  V30 7902 H 757.023 -6.62408 1.12539 0
M  V30 7903 N 759.743 -0.201713 -1.56304 0
M  V30 7904 C 760.968 0.443815 -2.02596 0
M  V30 7905 C 761.393 1.53945 -1.08086 0
M  V30 7906 O 760.751 1.81182 -0.0655056 0
M  V30 7907 C 760.799 0.971066 -3.47279 0
M  V30 7908 O 759.903 2.0836 -3.55893 0
M  V30 7909 H 759.244 0.10294 -0.655972 0
M  V30 7910 H 761.774 -0.314533 -2.02168 0
M  V30 7911 H 761.784 1.28598 -3.87204 0
M  V30 7912 H 760.459 0.169048 -4.15556 0
M  V30 7913 H 759.036 1.77683 -3.27846 0
M  V30 7914 N 761.222 1.57436 0.0718424 0
M  V30 7915 C 762.633 1.75975 0.623678 0
M  V30 7916 C 762.984 0.827155 1.77912 0
M  V30 7917 O 762.109 0.0112425 2.16397 0
M  V30 7918 C 762.704 3.1911 1.13816 0
M  V30 7919 C 761.263 3.38994 1.63586 0
M  V30 7920 C 760.41 2.71684 0.555261 0
M  V30 7921 H 763.361 1.57948 -0.154328 0
M  V30 7922 H 763.382 3.23267 2.00696 0
M  V30 7923 H 762.894 3.86962 0.296998 0
M  V30 7924 H 760.995 2.76256 2.50027 0
M  V30 7925 H 761.108 4.47436 1.71283 0
M  V30 7926 H 759.472 2.34236 1.00029 0
M  V30 7927 H 760.255 3.42191 -0.275712 0
M  V30 7928 N 762.7 -0.34323 1.53817 0
M  V30 7929 C 763.946 -1.08504 1.71332 0
M  V30 7930 C 764.279 -1.88294 0.475285 0
M  V30 7931 O 763.554 -1.87205 -0.527688 0
M  V30 7932 C 763.837 -2.02597 2.97702 0
M  V30 7933 C 763.69 -1.26268 4.31713 0
M  V30 7934 C 765.009 -3.0241 3.19744 0
M  V30 7935 H 762.128 -0.393072 0.623429 0
M  V30 7936 H 764.77 -0.363579 1.86489 0
M  V30 7937 H 762.92 -2.64118 2.8491 0
M  V30 7938 H 764.592 -0.673594 4.56356 0
M  V30 7939 H 762.835 -0.564696 4.30109 0
M  V30 7940 H 763.506 -1.95253 5.16314 0
M  V30 7941 H 765.982 -2.51004 3.31868 0
M  V30 7942 H 764.858 -3.65449 4.09558 0
M  V30 7943 H 765.119 -3.73806 2.36054 0
M  V30 7944 N 764.178 -1.45556 -0.604258 0
M  V30 7945 C 765.426 -1.4945 -1.36048 0
M  V30 7946 C 765.747 -0.138933 -1.94504 0
M  V30 7947 O 765.017 0.832097 -1.7735 0
M  V30 7948 H 763.597 -0.550381 -0.505064 0
M  V30 7949 H 766.259 -1.81535 -0.709308 0
M  V30 7950 H 765.355 -2.23519 -2.17821 0
M  V30 7951 N 765.656 0.84705 -1.32902 0
M  V30 7952 C 766.902 1.60414 -1.24078 0
M  V30 7953 C 767.235 1.93217 0.195105 0
M  V30 7954 O 766.51 1.58001 1.13428 0
M  V30 7955 C 766.793 2.91951 -2.108 0
M  V30 7956 C 766.646 2.6588 -3.62805 0
M  V30 7957 C 767.965 3.93299 -1.97494 0
M  V30 7958 H 765.084 0.58206 -0.452079 0
M  V30 7959 H 767.726 0.977562 -1.62922 0
M  V30 7960 H 765.876 3.45425 -1.77802 0
M  V30 7961 H 767.548 2.18902 -4.06054 0
M  V30 7962 H 765.791 1.99716 -3.85092 0
M  V30 7963 H 766.462 3.59574 -4.1882 0
M  V30 7964 H 768.938 3.49105 -2.26417 0
M  V30 7965 H 767.814 4.8318 -2.60438 0
M  V30 7966 H 768.075 4.31887 -0.944782 0
M  V30 7967 N 767.134 1.16236 1.06428 0
M  V30 7968 C 768.374 0.95369 1.80787 0
M  V30 7969 C 768.738 -0.509495 1.85117 0
M  V30 7970 O 769.939 -0.836822 2.55442 0
M  V30 7971 C 768.21 1.56235 3.21443 0
M  V30 7972 S 769.769 1.49812 4.12434 0
M  V30 7973 H 766.587 0.343004 0.622792 0
M  V30 7974 H 769.189 1.47957 1.27785 0
M  V30 7975 H 767.893 2.62 3.15886 0
M  V30 7976 H 767.424 1.03574 3.79521 0
M  V30 7977 H 769.439 0.49745 4.937 0
M  V30 7978 N 768.612 -1.24939 0.960631 0
M  V30 7979 C 769.837 -1.9742 0.635608 0
M  V30 7980 C 770.262 -1.70857 -0.786737 0
M  V30 7981 O 769.62 -0.968063 -1.53291 0
M  V30 7982 C 769.668 -3.48987 0.907771 0
M  V30 7983 O 768.772 -4.12399 -0.0104053 0
M  V30 7984 H 768.113 -0.61871 0.241027 0
M  V30 7985 H 770.643 -1.58901 1.28886 0
M  V30 7986 H 770.653 -3.99334 0.836453 0
M  V30 7987 H 769.328 -3.6765 1.94439 0
M  V30 7988 H 767.905 -3.72727 0.113631 0
M  V30 7989 N 770.09 -0.729906 -1.39679 0
M  V30 7990 C 771.315 -0.284345 -2.05442 0
M  V30 7991 C 771.74 1.07056 -1.54663 0
M  V30 7992 O 771.098 1.67732 -0.688157 0
M  V30 7993 C 771.146 -0.290089 -3.59431 0
M  V30 7994 O 770.25 0.723978 -4.05995 0
M  V30 7995 H 769.591 -0.130311 -0.651088 0
M  V30 7996 H 772.121 -0.994403 -1.78809 0
M  V30 7997 H 772.131 -0.132712 -4.07784 0
M  V30 7998 H 770.806 -1.27877 -3.95753 0
M  V30 7999 H 769.383 0.533154 -3.69069 0
M  V30 8000 N 771.568 1.50203 -0.477153 0
M  V30 8001 C 772.796 2.0677 0.0732489 0
M  V30 8002 C 773.211 1.34033 1.32968 0
M  V30 8003 O 772.568 0.411412 1.77802 0
M  V30 8004 C 772.619 3.59751 0.35518 0
M  V30 8005 O 772.34 4.29747 -0.851425 0
M  V30 8006 C 773.841 4.3296 0.951877 0
M  V30 8007 H 771.061 0.670929 -0.00978923 0
M  V30 8008 H 773.605 1.93293 -0.667676 0
M  V30 8009 H 771.76 3.7301 1.04605 0
M  V30 8010 H 772.174 5.2106 -0.599708 0
M  V30 8011 H 773.648 5.40952 1.09888 0
M  V30 8012 H 774.125 3.93856 1.94356 0
M  V30 8013 H 774.731 4.24246 0.299208 0
M  V30 8014 N 773.046 0.209999 1.56195 0
M  V30 8015 C 774.294 -0.423974 1.97603 0
M  V30 8016 C 774.615 -1.61112 1.09854 0
M  V30 8017 O 773.885 -1.95134 0.173032 0
M  V30 8018 H 772.465 -0.159629 0.729745 0
M  V30 8019 H 775.127 0.300205 1.92574 0
M  V30 8020 H 774.223 -0.75809 3.02753 0
M  V30 8021 N 774.524 -1.57472 -0.0634922 0
M  V30 8022 C 775.472 -2.05307 -1.09323 0
M  V30 8023 C 776.466 -0.959995 -1.39572 0
M  V30 8024 O 777.672 -1.14507 -1.38882 0
M  V30 8025 H 774.047 -0.65472 -0.369927 0
M  V30 8026 H 776.018 -2.90925 -0.663707 0
M  V30 8027 C 774.767 -2.51954 -2.39613 0
M  V30 8028 H 774.09 -3.35662 -2.1719 0
M  V30 8029 H 775.53 -2.89169 -3.10092 0
M  V30 8030 C 773.989 -1.40596 -3.06161 0
M  V30 8031 O 774.519 -0.752722 -3.94585 0
M  V30 8032 N 772.725 -1.14902 -2.66919 0
M  V30 8033 H 772.272 -1.68205 -1.95102 0
M  V30 8034 H 772.23 -0.406006 -3.11767 0
M  V30 8035 N 776.003 0.335068 -1.53997 0
M  V30 8036 C 777.228 1.09859 -1.75914 0
M  V30 8037 C 777.653 1.81308 -0.500915 0
M  V30 8038 O 777.011 1.72854 0.54693 0
M  V30 8039 C 777.059 2.08122 -2.94478 0
M  V30 8040 O 776.163 3.15805 -2.65219 0
M  V30 8041 H 775.504 0.317313 -0.583274 0
M  V30 8042 H 778.034 0.382872 -2.00986 0
M  V30 8043 H 778.044 2.51195 -3.21504 0
M  V30 8044 H 776.719 1.55517 -3.8573 0
M  V30 8045 H 775.296 2.77489 -2.49107 0
M  V30 8046 N 777.481 1.45874 0.596531 0
M  V30 8047 C 778.431 1.5181 1.70111 0
M  V30 8048 C 779.415 0.380293 1.56341 0
M  V30 8049 O 780.607 0.627849 1.6549 0
M  V30 8050 C 777.736 1.49822 3.08883 0
M  V30 8051 C 776.822 2.68845 3.27998 0
M  V30 8052 N 777.213 3.93873 3.17329 0
M  V30 8053 C 775.511 2.64777 3.589 0
M  V30 8054 C 776.212 4.73371 3.38076 0
M  V30 8055 N 775.188 4.0501 3.62585 0
M  V30 8056 H 778.99 2.46289 1.60372 0
M  V30 8057 H 776.504 1.41321 0.800138 0
M  V30 8058 H 778.501 1.5216 3.8814 0
M  V30 8059 H 777.161 0.564086 3.19763 0
M  V30 8060 H 778.172 4.25329 2.95492 0
M  V30 8061 H 774.849 1.80323 3.7655 0
M  V30 8062 H 776.239 5.82357 3.35127 0
M  V30 8063 N 778.959 -0.83999 1.33349 0
M  V30 8064 C 780.184 -1.63249 1.27924 0
M  V30 8065 C 780.609 -1.87523 -0.147193 0
M  V30 8066 O 779.967 -1.43853 -1.10345 0
M  V30 8067 C 780.015 -2.96046 2.05886 0
M  V30 8068 O 779.119 -3.87303 1.4167 0
M  V30 8069 H 778.46 -0.49715 0.440157 0
M  V30 8070 H 780.99 -1.04512 1.75893 0
M  V30 8071 H 781 -3.45752 2.16609 0
M  V30 8072 H 779.675 -2.77701 3.09605 0
M  V30 8073 H 778.252 -3.45789 1.39585 0
M  V30 8074 N 780.437 -1.16799 -1.0581 0
M  V30 8075 C 781.667 -0.975454 -1.82122 0
M  V30 8076 C 782.075 0.479584 -1.83021 0
M  V30 8077 O 781.418 1.34471 -1.25153 0
M  V30 8078 C 781.48 -1.43209 -3.29744 0
M  V30 8079 C 781.144 -2.908 -3.5254 0
M  V30 8080 C 782.141 -3.88775 -3.45181 0
M  V30 8081 C 779.826 -3.28832 -3.79703 0
M  V30 8082 C 781.82 -5.22782 -3.64661 0
M  V30 8083 C 779.507 -4.63007 -3.98832 0
M  V30 8084 C 780.505 -5.59791 -3.91309 0
M  V30 8085 O 780.193 -6.9154 -4.09911 0
M  V30 8086 H 779.925 -0.345655 -0.580947 0
M  V30 8087 H 782.479 -1.55355 -1.34365 0
M  V30 8088 H 780.709 -0.797504 -3.78387 0
M  V30 8089 H 782.398 -1.2062 -3.87564 0
M  V30 8090 H 783.164 -3.60738 -3.2418 0
M  V30 8091 H 779.043 -2.54073 -3.84666 0
M  V30 8092 H 782.587 -5.98312 -3.58705 0
M  V30 8093 H 778.484 -4.90752 -4.19324 0
M  V30 8094 H 779.252 -6.98188 -4.27172 0
M  V30 8095 N 781.915 1.24427 -0.967243 0
M  V30 8096 C 783.143 1.96541 -0.646477 0
M  V30 8097 C 783.558 1.71753 0.783996 0
M  V30 8098 O 782.915 1.00102 1.52597 0
M  V30 8099 C 782.966 3.4983 -0.911098 0
M  V30 8100 O 782.687 3.7377 -2.28534 0
M  V30 8101 C 784.188 4.3916 -0.604458 0
M  V30 8102 H 781.408 0.626129 -0.241255 0
M  V30 8103 H 783.952 1.58268 -1.29505 0
M  V30 8104 H 782.107 3.86168 -0.308741 0
M  V30 8105 H 782.521 4.68154 -2.365 0
M  V30 8106 H 783.995 5.4557 -0.840069 0
M  V30 8107 H 784.472 4.36771 0.461273 0
M  V30 8108 H 785.078 4.08409 -1.1867 0
M  V30 8109 N 783.393 0.737304 1.3929 0
M  V30 8110 C 784.341 0.0879867 2.32434 0
M  V30 8111 C 785.335 -0.723324 1.53181 0
M  V30 8112 O 786.541 -0.624251 1.68829 0
M  V30 8113 H 782.916 0.00965277 0.751938 0
M  V30 8114 H 784.887 0.889915 2.84821 0
M  V30 8115 C 783.636 -0.803384 3.38291 0
M  V30 8116 H 782.959 -0.18849 3.99355 0
M  V30 8117 H 784.399 -1.22528 4.0591 0
M  V30 8118 C 782.858 -1.93872 2.75527 0
M  V30 8119 O 783.388 -3.03154 2.63553 0
M  V30 8120 N 781.594 -1.72883 2.3358 0
M  V30 8121 H 781.141 -0.840005 2.43519 0
M  V30 8122 H 781.099 -2.49021 1.91927 0
M  V30 8123 N 784.871 -1.49948 0.485112 0
M  V30 8124 C 786.096 -2.073 -0.0645059 0
M  V30 8125 C 786.521 -1.345 -1.31497 0
M  V30 8126 O 785.879 -0.39687 -1.76903 0
M  V30 8127 C 785.927 -3.59201 -0.317304 0
M  V30 8128 O 785.031 -3.88085 -1.39514 0
M  V30 8129 H 784.372 -0.663723 0.0191822 0
M  V30 8130 H 786.902 -1.92963 0.680179 0
M  V30 8131 H 786.912 -4.04227 -0.553604 0
M  V30 8132 H 785.587 -4.11602 0.596387 0
M  V30 8133 H 784.164 -3.54885 -1.14504 0
M  V30 8134 N 786.349 -0.21828 -1.56081 0
M  V30 8135 C 787.574 0.422302 -2.03055 0
M  V30 8136 C 787.999 1.5279 -1.09713 0
M  V30 8137 O 787.357 1.81102 -0.0847187 0
M  V30 8138 C 787.405 0.934177 -3.48289 0
M  V30 8139 O 786.509 2.04574 -3.58083 0
M  V30 8140 H 785.85 0.0959764 -0.657027 0
M  V30 8141 H 788.38 -0.335958 -2.01823 0
M  V30 8142 H 788.39 1.24484 -3.88546 0
M  V30 8143 H 787.065 0.124963 -4.15712 0
M  V30 8144 H 785.642 1.74196 -3.29712 0
M  V30 8145 N 787.827 1.57504 0.0551401 0
M  V30 8146 C 788.757 2.07864 1.06372 0
M  V30 8147 C 789.738 0.975565 1.39344 0
M  V30 8148 O 790.923 1.24929 1.48682 0
M  V30 8149 C 788.053 2.53643 2.3724 0
M  V30 8150 C 787.007 3.67978 2.18578 0
M  V30 8151 C 786.333 3.9987 3.54976 0
M  V30 8152 C 787.633 4.97405 1.59329 0
M  V30 8153 H 789.327 2.92379 0.644595 0
M  V30 8154 H 786.873 1.40654 0.308619 0
M  V30 8155 H 788.826 2.8749 3.08103 0
M  V30 8156 H 787.55 1.66177 2.81163 0
M  V30 8157 H 786.209 3.3444 1.50152 0
M  V30 8158 H 785.857 3.0951 3.965 0
M  V30 8159 H 785.557 4.76867 3.43324 0
M  V30 8160 H 787.081 4.36228 4.27244 0
M  V30 8161 H 788.495 5.29375 2.20078 0
M  V30 8162 H 786.892 5.78837 1.58327 0
M  V30 8163 H 787.962 4.81697 0.55638 0
M  V30 8164 N 789.305 -0.326896 1.54172 0
M  V30 8165 C 790.253 -1.42232 1.84046 0
M  V30 8166 C 791.247 -1.53705 0.712115 0
M  V30 8167 O 792.453 -1.56131 0.895724 0
M  V30 8168 H 788.828 -0.474568 0.583343 0
M  V30 8169 H 790.799 -1.14259 2.75658 0
M  V30 8170 C 789.548 -2.78502 2.08163 0
M  V30 8171 H 788.871 -2.70447 2.94446 0
M  V30 8172 H 790.311 -3.54228 2.33021 0
M  V30 8173 C 788.77 -3.25415 0.872152 0
M  V30 8174 O 789.3 -4.01621 0.0797648 0
M  V30 8175 N 787.506 -2.82418 0.684716 0
M  V30 8176 H 787.053 -2.20566 1.33072 0
M  V30 8177 H 787.011 -3.14159 -0.123031 0
M  V30 8178 N 790.784 -1.46188 -0.588786 0
M  V30 8179 C 791.747 -1.55882 -1.68029 0
M  V30 8180 C 792.747 -0.436515 -1.54762 0
M  V30 8181 O 793.937 -0.700626 -1.59489 0
M  V30 8182 C 791.069 -1.47332 -3.07418 0
M  V30 8183 H 792.262 -2.5315 -1.60795 0
M  V30 8184 H 789.815 -1.33908 -0.806116 0
M  V30 8185 H 790.55 -0.513193 -3.20214 0
M  V30 8186 H 790.335 -2.28753 -3.18456 0
M  V30 8187 H 791.825 -1.57187 -3.86887 0
M  V30 8188 N 792.262 0.832906 -1.33792 0
M  V30 8189 C 793.192 1.95828 -1.27176 0
M  V30 8190 C 794.173 1.69427 -0.15114 0
M  V30 8191 O 795.358 1.91167 -0.341886 0
M  V30 8192 C 792.488 3.32098 -1.01629 0
M  V30 8193 C 791.442 3.72912 -2.10049 0
M  V30 8194 C 790.768 5.07054 -1.69706 0
M  V30 8195 C 792.068 3.86064 -3.51783 0
M  V30 8196 H 793.762 2.01622 -2.21334 0
M  V30 8197 H 791.308 0.96866 -1.0655 0
M  V30 8198 H 793.261 4.10402 -0.956474 0
M  V30 8199 H 791.985 3.26577 -0.0390956 0
M  V30 8200 H 790.644 2.96876 -2.15082 0
M  V30 8201 H 790.292 4.9801 -0.706737 0
M  V30 8202 H 789.992 5.35333 -2.42264 0
M  V30 8203 H 791.516 5.87827 -1.65202 0
M  V30 8204 H 792.93 4.54665 -3.49218 0
M  V30 8205 H 791.327 4.25787 -4.22878 0
M  V30 8206 H 792.397 2.88344 -3.89854 0
M  V30 8207 N 793.74 1.17359 1.05189 0
M  V30 8208 C 794.672 0.848078 2.12933 0
M  V30 8209 C 795.685 -0.149521 1.62112 0
M  V30 8210 O 796.874 0.0767797 1.78335 0
M  V30 8211 C 793.974 0.243889 3.38021 0
M  V30 8212 C 793.147 1.28436 4.18118 0
M  V30 8213 C 792.206 0.697926 5.21551 0
M  V30 8214 O 791.232 1.36973 5.52473 0
M  V30 8215 N 792.434 -0.510024 5.78255 0
M  V30 8216 H 795.199 1.7754 2.41453 0
M  V30 8217 H 792.76 1.07244 1.21286 0
M  V30 8218 H 794.752 -0.161727 4.04377 0
M  V30 8219 H 793.322 -0.58722 3.07035 0
M  V30 8220 H 792.542 1.86573 3.47252 0
M  V30 8221 H 793.83 1.98617 4.68432 0
M  V30 8222 H 793.228 -1.07378 5.55416 0
M  V30 8223 H 791.785 -0.857705 6.46132 0
M  V30 8224 N 795.218 -1.23913 0.973828 0
M  V30 8225 C 796.181 -2.23367 0.51378 0
M  V30 8226 C 797.181 -1.55923 -0.39302 0
M  V30 8227 O 798.371 -1.73187 -0.187626 0
M  V30 8228 C 795.503 -3.39944 -0.255152 0
M  V30 8229 H 796.696 -2.65581 1.39307 0
M  V30 8230 H 794.249 -1.36632 0.759039 0
M  V30 8231 H 794.984 -3.03177 -1.15127 0
M  V30 8232 H 794.769 -3.90098 0.395673 0
M  V30 8233 H 796.259 -4.13749 -0.565842 0
M  V30 8234 N 796.696 -0.74468 -1.38897 0
M  V30 8235 C 797.626 -0.126355 -2.33158 0
M  V30 8236 C 798.607 0.713517 -1.54412 0
M  V30 8237 O 799.792 0.656523 -1.82766 0
M  V30 8238 C 796.922 0.774375 -3.38557 0
M  V30 8239 C 795.876 0.0379214 -4.27983 0
M  V30 8240 C 795.202 1.05631 -5.24162 0
M  V30 8241 C 796.502 -1.12523 -5.10035 0
M  V30 8242 H 798.196 -0.913744 -2.85116 0
M  V30 8243 H 795.742 -0.440847 -1.37086 0
M  V30 8244 H 797.695 1.21655 -4.03458 0
M  V30 8245 H 796.419 1.59399 -2.85061 0
M  V30 8246 H 795.078 -0.384733 -3.64576 0
M  V30 8247 H 794.726 1.86975 -4.66958 0
M  V30 8248 H 794.426 0.568261 -5.84846 0
M  V30 8249 H 795.95 1.49799 -5.9194 0
M  V30 8250 H 797.364 -0.761037 -5.68226 0
M  V30 8251 H 795.761 -1.54355 -5.79909 0
M  V30 8252 H 796.831 -1.94237 -4.44297 0
M  V30 8253 N 798.174 1.49689 -0.493057 0
M  V30 8254 C 799.399 2.07331 0.0535114 0
M  V30 8255 C 799.824 1.35196 1.30781 0
M  V30 8256 O 799.182 0.406246 1.7669 0
M  V30 8257 C 799.23 3.59364 0.29825 0
M  V30 8258 O 798.334 3.88819 1.37454 0
M  V30 8259 H 797.675 0.663612 -0.0227018 0
M  V30 8260 H 800.205 1.926 -0.690402 0
M  V30 8261 H 800.215 4.04515 0.532159 0
M  V30 8262 H 798.89 4.1128 -0.618207 0
M  V30 8263 H 797.467 3.55487 1.12621 0
M  V30 8264 N 799.652 0.226554 1.55963 0
M  V30 8265 C 800.562 -0.692725 2.24139 0
M  V30 8266 C 801.578 -1.20971 1.25068 0
M  V30 8267 O 802.754 -1.25027 1.57893 0
M  V30 8268 C 799.819 -1.88183 2.91184 0
M  V30 8269 C 798.88 -1.40633 4.05612 0
M  V30 8270 C 798.113 -2.53875 4.6945 0
M  V30 8271 O 798.336 -3.72129 4.32292 0
M  V30 8272 O 797.27 -2.24792 5.58348 0
M  V30 8273 H 801.096 -0.141921 3.03368 0
M  V30 8274 H 798.681 -0.0041049 1.49399 0
M  V30 8275 H 800.563 -2.57617 3.33484 0
M  V30 8276 H 799.238 -2.42064 2.14911 0
M  V30 8277 H 798.145 -0.67986 3.67871 0
M  V30 8278 H 799.478 -0.913838 4.83642 0
M  V30 8279 N 801.13 -1.57531 -0.0467866 0
M  V30 8280 C 802.378 -1.88078 -0.739656 0
M  V30 8281 C 802.699 -0.821936 -1.76831 0
M  V30 8282 O 801.969 0.146582 -1.95351 0
M  V30 8283 H 800.549 -0.694075 -0.276169 0
M  V30 8284 H 803.211 -1.94893 -0.0169391 0
M  V30 8285 H 802.307 -2.86396 -1.24031 0
M  V30 8286 N 802.608 0.318715 -1.54344 0
M  V30 8287 C 803.558 1.39364 -1.80448 0
M  V30 8288 C 804.542 1.46708 -0.660728 0
M  V30 8289 O 805.734 1.51159 -0.920869 0
M  V30 8290 C 802.863 2.76144 -2.03959 0
M  V30 8291 C 801.949 2.73094 -3.24469 0
M  V30 8292 N 802.34 2.39663 -4.45416 0
M  V30 8293 C 800.638 3.04218 -3.2614 0
M  V30 8294 C 801.339 2.45469 -5.27371 0
M  V30 8295 N 800.315 2.82107 -4.64668 0
M  V30 8296 H 804.117 1.12453 -2.71535 0
M  V30 8297 H 801.631 0.527221 -1.53604 0
M  V30 8298 H 803.628 3.53627 -2.20802 0
M  V30 8299 H 802.288 3.03982 -1.14129 0
M  V30 8300 H 803.299 2.12424 -4.72331 0
M  V30 8301 H 799.976 3.37066 -2.4636 0
M  V30 8302 H 801.366 2.22571 -6.33965 0
M  V30 8303 N 804.086 1.46499 0.581025 0
M  V30 8304 C 805.334 1.51596 1.33653 0
M  V30 8305 C 805.655 0.169859 1.94259 0
M  V30 8306 O 804.925 -0.803776 1.78651 0
M  V30 8307 H 803.505 0.558346 0.496244 0
M  V30 8308 H 806.167 1.8264 0.680338 0
M  V30 8309 H 805.263 2.26956 2.14237 0
M  V30 8310 N 805.565 -0.825799 1.34232 0
M  V30 8311 C 806.811 -1.58419 1.26614 0
M  V30 8312 C 807.144 -1.93503 -0.164341 0
M  V30 8313 O 806.419 -1.59785 -1.109 0
M  V30 8314 C 806.702 -2.8856 2.15418 0
M  V30 8315 C 806.555 -2.60075 3.66989 0
M  V30 8316 C 807.874 -3.90107 2.03726 0
M  V30 8317 H 804.993 -0.574794 0.461282 0
M  V30 8318 H 807.635 -0.951519 1.64457 0
M  V30 8319 H 805.785 -3.42553 1.83275 0
M  V30 8320 H 807.457 -2.12414 4.09485 0
M  V30 8321 H 805.7 -1.93565 3.88221 0
M  V30 8322 H 806.371 -3.52866 4.24488 0
M  V30 8323 H 808.847 -3.45459 2.31942 0
M  V30 8324 H 807.723 -4.78976 2.68092 0
M  V30 8325 H 807.984 -4.30329 1.01337 0
M  V30 8326 N 807.043 -1.17915 -1.04565 0
M  V30 8327 C 808.268 -0.996749 -1.81878 0
M  V30 8328 C 808.693 0.450169 -1.82634 0
M  V30 8329 O 808.051 1.32268 -1.23995 0
M  V30 8330 C 808.099 -1.55005 -3.25585 0
M  V30 8331 O 807.203 -0.76804 -4.05185 0
M  V30 8332 H 806.544 -0.353456 -0.562108 0
M  V30 8333 H 809.074 -1.56557 -1.31723 0
M  V30 8334 H 809.084 -1.57503 -3.76373 0
M  V30 8335 H 807.759 -2.60327 -3.2435 0
M  V30 8336 H 806.336 -0.81498 -3.63885 0
M  V30 8337 N 808.521 1.23394 -0.980386 0
M  V30 8338 C 809.451 2.2717 -0.540024 0
M  V30 8339 C 810.432 1.64659 0.426787 0
M  V30 8340 O 811.617 1.91543 0.320153 0
M  V30 8341 C 808.747 3.46939 0.15836 0
M  V30 8342 C 807.701 4.21802 -0.725732 0
M  V30 8343 C 807.027 5.34597 0.104866 0
M  V30 8344 C 808.327 4.81802 -2.01654 0
M  V30 8345 H 810.021 2.64257 -1.40743 0
M  V30 8346 H 807.567 1.2703 -0.678193 0
M  V30 8347 H 809.52 4.18683 0.477737 0
M  V30 8348 H 808.244 3.08912 1.06022 0
M  V30 8349 H 806.903 3.51875 -1.02857 0
M  V30 8350 H 806.551 4.92812 1.00726 0
M  V30 8351 H 806.251 5.85607 -0.483557 0
M  V30 8352 H 807.775 6.09163 0.418624 0
M  V30 8353 H 809.189 5.45554 -1.76193 0
M  V30 8354 H 807.586 5.43098 -2.55273 0
M  V30 8355 H 808.656 4.02549 -2.70338 0
M  V30 8356 N 809.999 0.752036 1.385 0
M  V30 8357 C 811.247 0.306895 1.99756 0
M  V30 8358 C 811.568 -1.11478 1.59992 0
M  V30 8359 O 810.838 -1.76206 0.856045 0
M  V30 8360 H 809.418 0.11048 0.738785 0
M  V30 8361 H 812.08 0.965785 1.69289 0
M  V30 8362 H 811.176 0.368797 3.09913 0
M  V30 8363 N 811.477 -1.49425 0.500989 0
M  V30 8364 C 812.702 -2.07356 -0.0425154 0
M  V30 8365 C 813.127 -1.35887 -1.30063 0
M  V30 8366 O 812.485 -0.41561 -1.76472 0
M  V30 8367 C 812.533 -3.59518 -0.279188 0
M  V30 8368 O 811.637 -3.89542 -1.3539 0
M  V30 8369 H 810.978 -0.663482 0.0262207 0
M  V30 8370 H 813.508 -1.92231 0.700607 0
M  V30 8371 H 813.518 -4.04791 -0.5107 0
M  V30 8372 H 812.193 -4.10946 0.640009 0
M  V30 8373 H 810.77 -3.56079 -1.10734 0
M  V30 8374 N 812.955 -0.234822 -1.55841 0
M  V30 8375 C 814.18 0.400741 -2.03492 0
M  V30 8376 C 814.605 1.51618 -1.11327 0
M  V30 8377 O 813.963 1.81002 -0.103922 0
M  V30 8378 C 814.011 0.897184 -3.49261 0
M  V30 8379 O 813.115 2.00764 -3.60233 0
M  V30 8380 H 812.456 0.0890023 -0.658008 0
M  V30 8381 H 814.986 -0.357345 -2.01455 0
M  V30 8382 H 814.996 1.20356 -3.89844 0
M  V30 8383 H 813.671 0.0808639 -4.15821 0
M  V30 8384 H 812.248 1.70689 -3.31541 0
M  V30 8385 N 814.433 1.57553 0.0384317 0
M  V30 8386 C 815.363 2.0898 1.04161 0
M  V30 8387 C 816.344 0.99029 1.38301 0
M  V30 8388 O 817.529 1.26499 1.47349 0
M  V30 8389 C 814.659 2.56145 2.34536 0
M  V30 8390 C 813.613 3.70275 2.14663 0
M  V30 8391 C 812.939 4.03612 3.50715 0
M  V30 8392 C 814.239 4.99067 1.54045 0
M  V30 8393 H 815.933 2.93046 0.613548 0
M  V30 8394 H 813.479 1.40973 0.293684 0
M  V30 8395 H 815.432 2.90741 3.05037 0
M  V30 8396 H 814.156 1.6915 2.79385 0
M  V30 8397 H 812.815 3.36013 1.46597 0
M  V30 8398 H 812.463 3.13698 3.93195 0
M  V30 8399 H 812.163 4.80482 3.38247 0
M  V30 8400 H 813.687 4.40735 4.22593 0
M  V30 8401 H 815.101 5.3168 2.14451 0
M  V30 8402 H 813.498 5.80484 1.52178 0
M  V30 8403 H 814.568 4.8226 0.505259 0
M  V30 8404 N 815.911 -0.310526 1.54511 0
M  V30 8405 C 816.874 -1.3657 1.84068 0
M  V30 8406 C 817.874 -1.44123 0.713097 0
M  V30 8407 O 819.064 -1.43924 0.981399 0
M  V30 8408 C 816.196 -2.75162 2.01243 0
M  V30 8409 H 817.389 -1.1161 2.78358 0
M  V30 8410 H 814.942 -0.546699 1.46427 0
M  V30 8411 H 815.677 -3.05359 1.09208 0
M  V30 8412 H 815.462 -2.71071 2.83307 0
M  V30 8413 H 816.952 -3.51473 2.25514 0
M  V30 8414 N 817.389 -1.46805 -0.573248 0
M  V30 8415 C 818.614 -1.56433 -1.36175 0
M  V30 8416 C 819.039 -0.209336 -1.86932 0
M  V30 8417 O 818.397 0.812146 -1.62092 0
M  V30 8418 C 818.445 -2.58055 -2.51873 0
M  V30 8419 O 817.549 -2.12214 -3.53609 0
M  V30 8420 H 816.89 -0.526068 -0.405153 0
M  V30 8421 H 819.42 -1.92456 -0.694405 0
M  V30 8422 H 819.43 -2.77966 -2.98662 0
M  V30 8423 H 818.105 -3.56448 -2.14284 0
M  V30 8424 H 816.682 -2.02333 -3.13234 0
M  V30 8425 N 818.867 0.818669 -1.34668 0
M  V30 8426 C 820.278 1.39177 -1.24446 0
M  V30 8427 C 820.629 1.9578 0.128268 0
M  V30 8428 O 819.754 1.90382 1.02877 0
M  V30 8429 C 820.349 2.53012 -2.25323 0
M  V30 8430 C 818.908 3.06218 -2.18878 0
M  V30 8431 C 818.055 1.79112 -2.11694 0
M  V30 8432 H 821.006 0.622709 -1.45973 0
M  V30 8433 H 821.027 3.31226 -1.8727 0
M  V30 8434 H 820.539 2.11784 -3.25221 0
M  V30 8435 H 818.64 3.51939 -1.22351 0
M  V30 8436 H 818.753 3.65019 -3.10319 0
M  V30 8437 H 817.117 2.0018 -1.57481 0
M  V30 8438 H 817.9 1.40053 -3.13433 0
M  V30 8439 N 820.346 1.18468 1.03938 0
M  V30 8440 C 821.623 0.890435 1.74157 0
M  V30 8441 C 822.003 -0.606409 2.02203 0
M  V30 8442 O 821.351 -1.5615 1.66822 0
M  V30 8443 C 821.561 1.73906 3.02585 0
M  V30 8444 C 822.909 1.96686 3.76297 0
M  V30 8445 O 823.933 1.70969 3.12487 0
M  V30 8446 O 822.792 2.39986 4.90988 0
M  V30 8447 H 819.886 0.330889 0.757919 0
M  V30 8448 H 822.432 1.29228 1.09992 0
M  V30 8449 H 821.204 2.75369 2.78006 0
M  V30 8450 H 820.827 1.33581 3.74489 0
M  V30 8451 N 821.824 -1.22873 0.986916 0
M  V30 8452 C 822.754 -2.2688 0.552064 0
M  V30 8453 C 823.735 -1.64883 -0.418048 0
M  V30 8454 O 824.92 -1.9171 -0.30999 0
M  V30 8455 C 822.05 -3.47018 -0.139959 0
M  V30 8456 C 821.004 -4.21411 0.748091 0
M  V30 8457 C 820.33 -5.34645 -0.0765132 0
M  V30 8458 C 821.63 -4.80726 2.04206 0
M  V30 8459 H 823.324 -2.63507 1.42143 0
M  V30 8460 H 820.87 -1.26668 0.68492 0
M  V30 8461 H 822.823 -4.18931 -0.455527 0
M  V30 8462 H 821.547 -3.0947 -1.04382 0
M  V30 8463 H 820.206 -3.51325 1.04721 0
M  V30 8464 H 819.854 -4.93339 -0.981109 0
M  V30 8465 H 819.554 -5.85342 0.514606 0
M  V30 8466 H 821.078 -6.09377 -0.386313 0
M  V30 8467 H 822.492 -5.44612 1.79083 0
M  V30 8468 H 820.889 -5.41737 2.5815 0
M  V30 8469 H 821.959 -4.01109 2.72469 0
M  V30 8470 N 823.302 -0.75937 -1.38099 0
M  V30 8471 C 824.249 -0.135508 -2.30402 0
M  V30 8472 C 825.219 0.703356 -1.50473 0
M  V30 8473 O 826.404 0.658287 -1.79084 0
M  V30 8474 C 823.544 0.747228 -3.36913 0
M  V30 8475 C 822.657 -0.106893 -4.31868 0
M  V30 8476 C 821.792 0.779388 -5.25451 0
M  V30 8477 C 820.831 -0.0780179 -6.1205 0
M  V30 8478 N 819.968 0.765545 -6.97914 0
M  V30 8479 H 824.808 -0.9282 -2.83176 0
M  V30 8480 H 822.345 -0.46935 -1.39411 0
M  V30 8481 H 824.303 1.27371 -3.97281 0
M  V30 8482 H 822.933 1.50565 -2.85535 0
M  V30 8483 H 821.985 -0.751063 -3.72912 0
M  V30 8484 H 823.297 -0.768798 -4.9284 0
M  V30 8485 H 822.451 1.37282 -5.90964 0
M  V30 8486 H 821.19 1.47501 -4.6486 0
M  V30 8487 H 820.195 -0.684078 -5.45528 0
M  V30 8488 H 821.42 -0.770786 -6.74712 0
M  V30 8489 H 819.366 1.44601 -6.39864 0
M  V30 8490 H 819.283 0.160666 -7.55829 0
M  V30 8491 H 820.551 1.34377 -7.6783 0
M  V30 8492 N 824.78 1.49157 -0.508906 0
M  V30 8493 C 825.713 2.26056 0.312103 0
M  V30 8494 C 826.691 1.30982 0.963456 0
M  V30 8495 O 827.875 1.60286 0.992002 0
M  V30 8496 C 825.002 3.06555 1.4402 0
M  V30 8497 C 824.048 4.16844 0.902414 0
M  V30 8498 S 824.881 5.35076 -0.213087 0
M  V30 8499 C 826.037 6.19132 0.917985 0
M  V30 8500 H 826.27 2.95343 -0.340559 0
M  V30 8501 H 823.803 1.51569 -0.294331 0
M  V30 8502 H 825.761 3.53517 2.08653 0
M  V30 8503 H 824.422 2.36722 2.0645 0
M  V30 8504 H 823.615 4.72714 1.74806 0
M  V30 8505 H 823.217 3.72513 0.333156 0
M  V30 8506 H 825.509 6.52556 1.82145 0
M  V30 8507 H 826.452 7.06982 0.397724 0
M  V30 8508 H 826.86 5.51839 1.18889 0
M  V30 8509 N 826.258 0.243083 1.55714 0
M  V30 8510 C 827.506 -0.381964 1.98458 0
M  V30 8511 C 827.827 -1.58745 1.13247 0
M  V30 8512 O 827.097 -1.94723 0.214384 0
M  V30 8513 H 825.677 -0.144114 0.732967 0
M  V30 8514 H 828.339 0.340985 1.91894 0
M  V30 8515 H 827.435 -0.693702 3.04293 0
M  V30 8516 N 827.736 -1.57571 -0.0300757 0
M  V30 8517 C 828.684 -2.0758 -1.04944 0
M  V30 8518 C 829.678 -0.989384 -1.37505 0
M  V30 8519 O 830.884 -1.17427 -1.36422 0
M  V30 8520 H 827.259 -0.662419 -0.355956 0
M  V30 8521 H 829.23 -2.92268 -0.601848 0
M  V30 8522 C 827.979 -2.5698 -2.34215 0
M  V30 8523 H 827.302 -3.40193 -2.10021 0
M  V30 8524 H 828.742 -2.95682 -3.03888 0
M  V30 8525 C 827.201 -1.47059 -3.03109 0
M  V30 8526 O 827.731 -0.83625 -3.92899 0
M  V30 8527 N 825.937 -1.20538 -2.64422 0
M  V30 8528 H 825.484 -1.72305 -1.9149 0
M  V30 8529 H 825.442 -0.472045 -3.10836 0
M  V30 8530 N 829.214 0.302327 -1.54673 0
M  V30 8531 C 830.144 1.37759 -1.88533 0
M  V30 8532 C 831.125 1.52961 -0.744113 0
M  V30 8533 O 832.31 1.6649 -0.999731 0
M  V30 8534 C 829.44 2.74201 -2.13146 0
M  V30 8535 C 828.394 2.73765 -3.28993 0
M  V30 8536 C 827.72 4.13483 -3.39022 0
M  V30 8537 C 829.02 2.35624 -4.66132 0
M  V30 8538 H 830.714 1.0967 -2.78591 0
M  V30 8539 H 828.26 0.52613 -1.34044 0
M  V30 8540 H 830.213 3.49508 -2.35419 0
M  V30 8541 H 828.937 3.03812 -1.19858 0
M  V30 8542 H 827.596 2.00914 -3.06642 0
M  V30 8543 H 827.244 4.40269 -2.43253 0
M  V30 8544 H 826.944 4.14093 -4.16894 0
M  V30 8545 H 828.468 4.90572 -3.63553 0
M  V30 8546 H 829.882 3.00647 -4.88143 0
M  V30 8547 H 828.279 2.47449 -5.46707 0
M  V30 8548 H 829.349 1.30753 -4.66939 0
M  V30 8549 N 830.692 1.47107 0.565454 0
M  V30 8550 C 831.624 1.55024 1.6882 0
M  V30 8551 C 832.637 0.4371 1.56822 0
M  V30 8552 O 833.826 0.706315 1.63931 0
M  V30 8553 C 830.926 1.43069 3.0722 0
M  V30 8554 C 830.099 2.68807 3.45053 0
M  V30 8555 C 829.158 2.50806 4.62583 0
M  V30 8556 O 828.184 3.24593 4.67577 0
M  V30 8557 N 829.386 1.58093 5.58558 0
M  V30 8558 H 832.151 2.51836 1.62477 0
M  V30 8559 H 829.712 1.43382 0.751885 0
M  V30 8560 H 831.704 1.28773 3.83666 0
M  V30 8561 H 830.274 0.543721 3.07835 0
M  V30 8562 H 829.494 2.97923 2.58138 0
M  V30 8563 H 830.782 3.52298 3.67101 0
M  V30 8564 H 830.18 0.972807 5.57273 0
M  V30 8565 H 828.737 1.49753 6.34364 0
M  V30 8566 N 832.17 -0.811516 1.35101 0
M  V30 8567 C 833.118 -1.94449 1.27642 0
M  V30 8568 C 834.112 -1.68522 0.172287 0
M  V30 8569 O 835.318 -1.76799 0.337967 0
M  V30 8570 H 831.693 -0.638776 0.396824 0
M  V30 8571 H 833.664 -1.97861 2.23369 0
M  V30 8572 C 832.413 -3.31139 1.06029 0
M  V30 8573 H 831.736 -3.51644 1.90227 0
M  V30 8574 H 833.176 -4.10831 1.0485 0
M  V30 8575 C 831.635 -3.36072 -0.236039 0
M  V30 8576 O 832.165 -3.82292 -1.23353 0
M  V30 8577 N 830.371 -2.89314 -0.273107 0
M  V30 8578 H 829.918 -2.51893 0.539211 0
M  V30 8579 H 829.876 -2.92996 -1.1402 0
M  V30 8580 N 833.648 -1.19017 -1.03309 0
M  V30 8581 C 834.873 -1.01598 -1.80811 0
M  V30 8582 C 835.298 0.430773 -1.83101 0
M  V30 8583 O 834.656 1.30946 -1.25391 0
M  V30 8584 C 834.704 -1.5845 -3.23923 0
M  V30 8585 O 833.808 -0.810972 -4.04348 0
M  V30 8586 H 833.149 -0.359398 -0.558327 0
M  V30 8587 H 835.679 -1.57945 -1.30055 0
M  V30 8588 H 835.689 -1.61486 -3.74682 0
M  V30 8589 H 834.364 -2.63752 -3.21571 0
M  V30 8590 H 832.941 -0.85353 -3.63 0
M  V30 8591 N 835.127 1.22348 -0.993418 0
M  V30 8592 C 836.538 1.72893 -0.704616 0
M  V30 8593 C 836.889 1.80095 0.778483 0
M  V30 8594 O 836.014 1.4476 1.60853 0
M  V30 8595 C 836.609 3.14 -1.27237 0
M  V30 8596 C 835.168 3.61949 -1.03294 0
M  V30 8597 C 834.315 2.39816 -1.39225 0
M  V30 8598 H 837.266 1.07688 -1.16572 0
M  V30 8599 H 837.287 3.74886 -0.651212 0
M  V30 8600 H 836.799 3.08727 -2.3518 0
M  V30 8601 H 834.9 3.72588 0.0298329 0
M  V30 8602 H 835.013 4.48051 -1.69668 0
M  V30 8603 H 833.377 2.41448 -0.810849 0
M  V30 8604 H 834.16 2.37203 -2.48172 0
M  V30 8605 N 836.605 0.766683 1.37694 0
M  V30 8606 C 837.851 0.329201 2.0011 0
M  V30 8607 C 838.184 -1.09004 1.60723 0
M  V30 8608 O 837.459 -1.74895 0.850989 0
M  V30 8609 C 837.742 0.466989 3.57059 0
M  V30 8610 C 837.595 1.92828 4.06371 0
M  V30 8611 C 838.914 -0.131792 4.39903 0
M  V30 8612 H 836.033 0.12109 0.726984 0
M  V30 8613 H 838.675 0.968779 1.63446 0
M  V30 8614 H 836.825 -0.0775023 3.88423 0
M  V30 8615 H 838.497 2.53208 3.85595 0
M  V30 8616 H 836.74 2.43884 3.58752 0
M  V30 8617 H 837.411 1.97577 5.15429 0
M  V30 8618 H 839.887 0.332731 4.14768 0
M  V30 8619 H 838.763 -0.005217 5.489 0
M  V30 8620 H 839.024 -1.22156 4.24889 0
M  V30 8621 N 838.083 -1.48885 0.516809 0
M  V30 8622 C 839.031 -2.31066 -0.266656 0
M  V30 8623 C 840.025 -1.40393 -0.94795 0
M  V30 8624 O 841.231 -1.57366 -0.873836 0
M  V30 8625 H 837.606 -0.744654 -0.104858 0
M  V30 8626 H 839.577 -2.95045 0.446236 0
M  V30 8627 C 838.326 -3.22131 -1.3087 0
M  V30 8628 H 837.649 -3.91839 -0.793865 0
M  V30 8629 H 839.089 -3.82544 -1.82856 0
M  V30 8630 C 837.548 -2.42825 -2.33533 0
M  V30 8631 O 838.078 -2.14364 -3.39722 0
M  V30 8632 N 836.284 -2.04559 -2.06407 0
M  V30 8633 H 835.831 -2.27905 -1.20071 0
M  V30 8634 H 835.789 -1.51807 -2.75322 0
M  V30 8635 N 839.561 -0.251338 -1.55583 0
M  V30 8636 C 840.494 0.687092 -2.1761 0
M  V30 8637 C 841.472 1.16963 -1.12953 0
M  V30 8638 O 842.656 1.24696 -1.41362 0
M  V30 8639 C 839.783 1.93429 -2.78034 0
M  V30 8640 C 838.829 1.58925 -3.95784 0
M  V30 8641 S 839.662 0.688019 -5.31062 0
M  V30 8642 C 840.818 1.94413 -5.94941 0
M  V30 8643 H 841.051 0.159982 -2.96869 0
M  V30 8644 H 838.584 -0.0357593 -1.54359 0
M  V30 8645 H 840.542 2.65028 -3.13481 0
M  V30 8646 H 839.203 2.43253 -1.98713 0
M  V30 8647 H 838.396 2.51668 -4.36668 0
M  V30 8648 H 837.998 0.953664 -3.61637 0
M  V30 8649 H 840.29 2.89087 -6.12727 0
M  V30 8650 H 841.233 1.5787 -6.90277 0
M  V30 8651 H 841.641 2.09824 -5.24056 0
M  V30 8652 N 841.039 1.57585 0.0217189 0
M  V30 8653 C 841.987 2.08134 1.03842 0
M  V30 8654 C 842.981 0.996662 1.36978 0
M  V30 8655 O 844.187 1.18149 1.35797 0
M  V30 8656 H 840.562 0.664298 0.352438 0
M  V30 8657 H 842.533 2.92583 0.58634 0
M  V30 8658 C 841.282 2.58218 2.32849 0
M  V30 8659 H 840.605 3.41302 2.08214 0
M  V30 8660 H 842.045 2.97289 3.02316 0
M  V30 8661 C 840.504 1.48664 3.02325 0
M  V30 8662 O 841.034 0.857075 3.9245 0
M  V30 8663 N 839.24 1.21938 2.63779 0
M  V30 8664 H 838.787 1.73319 1.90574 0
M  V30 8665 H 838.745 0.488523 3.10581 0
M  V30 8666 N 842.517 -0.29412 1.54831 0
M  V30 8667 C 843.928 -0.866651 1.65366 0
M  V30 8668 C 844.279 -1.87834 0.56681 0
M  V30 8669 O 843.404 -2.14374 -0.295389 0
M  V30 8670 C 843.999 -1.57869 2.99771 0
M  V30 8671 C 842.558 -2.09954 3.12404 0
M  V30 8672 C 841.705 -0.934492 2.6108 0
M  V30 8673 H 844.656 -0.0709551 1.58541 0
M  V30 8674 H 844.677 -2.44462 2.91579 0
M  V30 8675 H 844.189 -0.84212 3.78853 0
M  V30 8676 H 842.29 -2.86637 2.38055 0
M  V30 8677 H 842.403 -2.32934 4.18663 0
M  V30 8678 H 840.767 -1.32199 2.17705 0
M  V30 8679 H 841.55 -0.211768 3.42646 0
M  V30 8680 N 843.995 -1.47404 -0.557645 0
M  V30 8681 C 845.406 -1.47872 -1.13977 0
M  V30 8682 C 845.757 -0.233176 -1.94809 0
M  V30 8683 O 844.882 0.661945 -2.06027 0
M  V30 8684 C 845.477 -2.67926 -2.07368 0
M  V30 8685 C 844.036 -2.71354 -2.60852 0
M  V30 8686 C 843.183 -2.40967 -1.37223 0
M  V30 8687 H 846.134 -1.54921 -0.344268 0
M  V30 8688 H 846.155 -2.44871 -2.91236 0
M  V30 8689 H 845.667 -3.58562 -1.48509 0
M  V30 8690 H 843.768 -1.84855 -3.23511 0
M  V30 8691 H 843.881 -3.72032 -3.01876 0
M  V30 8692 H 842.245 -1.91541 -1.67882 0
M  V30 8693 H 843.028 -3.33811 -0.801583 0
M  V30 8694 N 845.473 0.80434 -1.35529 0
M  V30 8695 C 846.884 1.37849 -1.25915 0
M  V30 8696 C 847.235 1.95905 0.107495 0
M  V30 8697 O 846.36 1.91462 1.00852 0
M  V30 8698 C 846.955 2.50608 -2.27994 0
M  V30 8699 C 845.514 3.03879 -2.22114 0
M  V30 8700 C 844.661 1.76856 -2.13582 0
M  V30 8701 H 847.612 0.607192 -1.46625 0
M  V30 8702 H 847.633 3.29221 -1.90772 0
M  V30 8703 H 847.145 2.08323 -3.27449 0
M  V30 8704 H 845.246 3.50622 -1.26077 0
M  V30 8705 H 845.359 3.61707 -3.14173 0
M  V30 8706 H 843.723 1.98498 -1.59595 0
M  V30 8707 H 844.506 1.36721 -3.14901 0
M  V30 8708 N 846.951 1.19563 1.02676 0
M  V30 8709 C 847.881 0.959024 2.12897 0
M  V30 8710 C 848.862 -0.108382 1.69754 0
M  V30 8711 O 850.047 0.0470698 1.94143 0
M  V30 8712 C 847.177 0.499211 3.43693 0
M  V30 8713 C 846.131 1.5087 4.00528 0
M  V30 8714 C 845.457 0.905884 5.2697 0
M  V30 8715 C 846.757 2.88954 4.3509 0
M  V30 8716 H 848.451 1.88084 2.32948 0
M  V30 8717 H 845.997 0.905731 1.11949 0
M  V30 8718 H 847.95 0.320965 4.20176 0
M  V30 8719 H 846.674 -0.458205 3.2337 0
M  V30 8720 H 845.333 1.67413 3.26142 0
M  V30 8721 H 844.981 -0.0591506 5.02965 0
M  V30 8722 H 844.681 1.58 5.65959 0
M  V30 8723 H 846.205 0.73848 6.06118 0
M  V30 8724 H 847.619 2.75981 5.02501 0
M  V30 8725 H 846.016 3.53177 4.85166 0
M  V30 8726 H 847.086 3.41447 3.44299 0
M  V30 8727 N 848.429 -1.21819 0.999893 0
M  V30 8728 C 849.654 -1.95298 0.698094 0
M  V30 8729 C 850.079 -1.73273 -0.731982 0
M  V30 8730 O 849.437 -1.01634 -1.50134 0
M  V30 8731 C 849.485 -3.45922 1.01834 0
M  V30 8732 O 848.589 -4.12223 0.120801 0
M  V30 8733 H 847.93 -0.610729 0.260588 0
M  V30 8734 H 850.46 -1.5472 1.33876 0
M  V30 8735 H 850.47 -3.96471 0.963074 0
M  V30 8736 H 849.145 -3.61278 2.06037 0
M  V30 8737 H 847.722 -3.72177 0.232153 0
M  V30 8738 N 849.908 -0.773975 -1.37286 0
M  V30 8739 C 850.855 -0.159938 -2.30245 0
M  V30 8740 C 851.825 0.687356 -1.51211 0
M  V30 8741 O 853.01 0.639255 -1.79773 0
M  V30 8742 C 850.15 0.711452 -3.37687 0
M  V30 8743 C 849.263 -0.152692 -4.3173 0
M  V30 8744 C 848.398 0.723613 -5.26248 0
M  V30 8745 C 847.437 -0.14293 -6.11933 0
M  V30 8746 N 846.574 0.691479 -6.98687 0
M  V30 8747 H 851.414 -0.958182 -2.82175 0
M  V30 8748 H 848.951 -0.48411 -1.38906 0
M  V30 8749 H 850.909 1.2315 -3.9861 0
M  V30 8750 H 849.539 1.47528 -2.87116 0
M  V30 8751 H 848.591 -0.790574 -3.72094 0
M  V30 8752 H 849.903 -0.821027 -4.91997 0
M  V30 8753 H 849.057 1.31006 -5.92387 0
M  V30 8754 H 847.796 1.42562 -4.66398 0
M  V30 8755 H 846.801 -0.7419 -5.44771 0
M  V30 8756 H 848.026 -0.842305 -6.73856 0
M  V30 8757 H 845.972 1.37806 -6.41362 0
M  V30 8758 H 845.889 0.0804911 -7.55957 0
M  V30 8759 H 847.157 1.26225 -7.69212 0
M  V30 8760 N 851.386 1.48609 -0.524698 0
M  V30 8761 C 852.319 2.26374 0.288109 0
M  V30 8762 C 853.297 1.31997 0.949509 0
M  V30 8763 O 854.481 1.61329 0.974946 0
M  V30 8764 C 851.608 3.08065 1.4076 0
M  V30 8765 C 850.654 4.17777 0.858152 0
M  V30 8766 S 851.487 5.3482 -0.269827 0
M  V30 8767 C 852.643 6.2007 0.852266 0
M  V30 8768 H 852.876 2.94965 -0.371865 0
M  V30 8769 H 850.409 1.51248 -0.31039 0
M  V30 8770 H 852.367 3.5571 2.04892 0
M  V30 8771 H 851.028 2.38898 2.03928 0
M  V30 8772 H 850.221 4.74542 1.69783 0
M  V30 8773 H 849.823 3.72846 0.293627 0
M  V30 8774 H 852.115 6.54451 1.75213 0
M  V30 8775 H 853.058 7.07364 0.322717 0
M  V30 8776 H 853.466 5.53068 1.13029 0
M  V30 8777 N 852.864 0.259585 1.55447 0
M  V30 8778 C 854.112 -0.360893 1.98852 0
M  V30 8779 C 854.433 -1.57535 1.14924 0
M  V30 8780 O 853.703 -1.94485 0.235025 0
M  V30 8781 H 852.283 -0.136332 0.734454 0
M  V30 8782 H 854.945 0.361319 1.91522 0
M  V30 8783 H 854.041 -0.661388 3.05012 0
M  V30 8784 N 854.342 -1.57594 -0.0133615 0
M  V30 8785 C 855.567 -1.94649 -0.715996 0
M  V30 8786 C 855.992 -0.860786 -1.67249 0
M  V30 8787 O 855.35 0.182228 -1.80382 0
M  V30 8788 C 855.398 -3.30789 -1.43566 0
M  V30 8789 O 854.502 -3.24148 -2.54955 0
M  V30 8790 H 853.843 -0.635801 -0.191449 0
M  V30 8791 H 856.373 -2.04569 0.0358478 0
M  V30 8792 H 856.383 -3.66045 -1.80208 0
M  V30 8793 H 855.058 -4.09367 -0.734263 0
M  V30 8794 H 853.635 -3.00548 -2.20739 0
M  V30 8795 N 855.82 0.285905 -1.54985 0
M  V30 8796 C 856.75 1.35752 -1.89983 0
M  V30 8797 C 857.731 1.52163 -0.760295 0
M  V30 8798 O 858.916 1.65421 -1.01733 0
M  V30 8799 C 856.046 2.71925 -2.16042 0
M  V30 8800 C 855 2.70261 -3.31878 0
M  V30 8801 C 854.326 4.09864 -3.43388 0
M  V30 8802 C 855.626 2.30667 -4.68604 0
M  V30 8803 H 857.32 1.06709 -2.79738 0
M  V30 8804 H 854.866 0.511884 -1.34595 0
M  V30 8805 H 856.819 3.46992 -2.39113 0
M  V30 8806 H 855.543 3.02523 -1.23074 0
M  V30 8807 H 854.202 1.97651 -3.08755 0
M  V30 8808 H 853.85 4.37664 -2.47909 0
M  V30 8809 H 853.55 4.09648 -4.21262 0
M  V30 8810 H 855.074 4.86689 -3.68736 0
M  V30 8811 H 856.488 2.95453 -4.91305 0
M  V30 8812 H 854.885 2.41637 -5.49301 0
M  V30 8813 H 855.955 1.25793 -4.68299 0
M  V30 8814 N 857.298 1.47698 0.54982 0
M  V30 8815 C 858.575 1.45185 1.31075 0
M  V30 8816 C 858.955 0.152768 2.10547 0
M  V30 8817 O 858.303 -0.865706 2.11466 0
M  V30 8818 C 858.513 2.70192 2.20902 0
M  V30 8819 C 859.861 3.1771 2.81683 0
M  V30 8820 O 860.885 2.70971 2.312 0
M  V30 8821 O 859.744 3.98986 3.7346 0
M  V30 8822 H 856.838 0.57892 0.590577 0
M  V30 8823 H 859.384 1.59908 0.568112 0
M  V30 8824 H 858.156 3.56269 1.61828 0
M  V30 8825 H 857.779 2.58091 3.02448 0
M  V30 8826 N 858.776 -0.797141 1.35954 0
M  V30 8827 C 860.001 -1.59097 1.33053 0
M  V30 8828 C 860.426 -1.87897 -0.0874592 0
M  V30 8829 O 859.784 -1.47291 -1.05712 0
M  V30 8830 C 859.832 -2.89346 2.152 0
M  V30 8831 O 858.936 -3.826 1.5392 0
M  V30 8832 H 858.277 -0.482895 0.45575 0
M  V30 8833 H 860.807 -0.988633 1.79129 0
M  V30 8834 H 860.817 -3.38686 2.27499 0
M  V30 8835 H 859.492 -2.6771 3.18283 0
M  V30 8836 H 858.069 -3.41174 1.50516 0
M  V30 8837 N 860.254 -1.20106 -1.0204 0
M  V30 8838 C 861.201 -0.946468 -2.10501 0
M  V30 8839 C 862.171 0.121902 -1.65652 0
M  V30 8840 O 863.356 -0.0220244 -1.90787 0
M  V30 8841 C 860.496 -0.500499 -3.41451 0
M  V30 8842 C 859.609 -1.63659 -3.998 0
M  V30 8843 C 858.744 -1.14131 -5.18794 0
M  V30 8844 C 857.783 -2.25074 -5.69217 0
M  V30 8845 N 856.92 -1.76791 -6.79477 0
M  V30 8846 H 861.76 -1.87506 -2.31615 0
M  V30 8847 H 859.297 -0.934693 -1.13587 0
M  V30 8848 H 861.255 -0.223276 -4.16602 0
M  V30 8849 H 859.885 0.391099 -3.20422 0
M  V30 8850 H 858.937 -2.02882 -3.21781 0
M  V30 8851 H 860.249 -2.47213 -4.33229 0
M  V30 8852 H 859.403 -0.819826 -6.01135 0
M  V30 8853 H 858.142 -0.275615 -4.86921 0
M  V30 8854 H 857.147 -2.58043 -4.85483 0
M  V30 8855 H 858.372 -3.12114 -6.03127 0
M  V30 8856 H 856.318 -0.925428 -6.4944 0
M  V30 8857 H 856.235 -2.53928 -7.12079 0
M  V30 8858 H 857.503 -1.47631 -7.65392 0
M  V30 8859 N 861.732 1.21287 -1.00634 0
M  V30 8860 C 863.009 1.86 -0.605257 0
M  V30 8861 C 863.389 1.90139 0.917072 0
M  V30 8862 O 862.737 1.40169 1.80458 0
M  V30 8863 C 862.947 3.26183 -1.24119 0
M  V30 8864 C 864.295 4.02562 -1.35015 0
M  V30 8865 O 865.319 3.35499 -1.19661 0
M  V30 8866 O 864.178 5.22638 -1.59726 0
M  V30 8867 H 861.272 0.800549 -0.207486 0
M  V30 8868 H 863.818 1.28959 -1.10307 0
M  V30 8869 H 862.59 3.17878 -2.28186 0
M  V30 8870 H 862.213 3.90845 -0.729807 0
M  V30 8871 N 863.21 0.781244 1.36873 0
M  V30 8872 C 864.45 0.355185 2.0129 0
M  V30 8873 C 864.814 -1.05115 1.6067 0
M  V30 8874 O 866.015 -1.57785 2.17618 0
M  V30 8875 C 864.286 0.504587 3.5382 0
M  V30 8876 S 865.845 0.165196 4.38489 0
M  V30 8877 H 862.663 0.136133 0.697846 0
M  V30 8878 H 865.265 1.01794 1.66908 0
M  V30 8879 H 863.969 1.52857 3.80871 0
M  V30 8880 H 863.5 -0.174392 3.93013 0
M  V30 8881 H 865.515 -1.03605 4.85263 0
M  V30 8882 N 864.689 -1.48329 0.532571 0
M  V30 8883 C 865.936 -2.025 -0.000582356 0
M  V30 8884 C 866.264 -1.40942 -1.34036 0
M  V30 8885 O 865.519 -0.545545 -1.87942 0
M  V30 8886 C 865.818 -3.57 -0.168943 0
M  V30 8887 C 865.484 -4.37357 1.0968 0
M  V30 8888 C 864.146 -4.59033 1.44369 0
M  V30 8889 C 866.498 -4.83882 1.93669 0
M  V30 8890 C 863.826 -5.24481 2.62939 0
M  V30 8891 C 866.178 -5.50637 3.11419 0
M  V30 8892 C 864.842 -5.70551 3.46451 0
M  V30 8893 H 864.112 -0.741 -0.000213099 0
M  V30 8894 H 866.759 -1.78282 0.699117 0
M  V30 8895 H 865.064 -3.80072 -0.951429 0
M  V30 8896 H 866.761 -3.9654 -0.596422 0
M  V30 8897 H 863.351 -4.20748 0.816655 0
M  V30 8898 H 867.535 -4.66936 1.6818 0
M  V30 8899 H 862.791 -5.38096 2.9028 0
M  V30 8900 H 866.965 -5.85655 3.76803 0
M  V30 8901 H 864.592 -6.21037 4.38425 0
M  V30 8902 N 866.167 -0.267825 -1.55308 0
M  V30 8903 C 867.415 0.350343 -1.9904 0
M  V30 8904 C 867.736 1.56924 -1.15758 0
M  V30 8905 O 867.006 1.94358 -0.245336 0
M  V30 8906 H 865.586 0.132435 -0.735167 0
M  V30 8907 H 868.248 -0.371471 -1.91327 0
M  V30 8908 H 867.344 0.645203 -3.05358 0
M  V30 8909 N 867.645 1.57599 0.00500368 0
M  V30 8910 C 868.575 2.11143 0.99705 0
M  V30 8911 C 869.556 1.0194 1.3617 0
M  V30 8912 O 870.741 1.29596 1.44632 0
M  V30 8913 C 867.871 2.61062 2.2905 0
M  V30 8914 C 866.825 3.74745 2.0676 0
M  V30 8915 C 866.151 4.10961 3.42075 0
M  V30 8916 C 867.451 5.02222 1.43424 0
M  V30 8917 H 869.145 2.94281 0.551251 0
M  V30 8918 H 866.691 1.41565 0.263715 0
M  V30 8919 H 868.644 2.97146 2.98801 0
M  V30 8920 H 867.368 1.75038 2.75734 0
M  V30 8921 H 866.027 3.39047 1.39436 0
M  V30 8922 H 865.675 3.21968 3.86453 0
M  V30 8923 H 865.375 4.87549 3.27979 0
M  V30 8924 H 866.899 4.49599 4.1315 0
M  V30 8925 H 868.313 5.36109 2.03125 0
M  V30 8926 H 866.71 5.83581 1.39831 0
M  V30 8927 H 867.78 4.83224 0.40285 0
M  V30 8928 N 869.123 -0.277682 1.55134 0
M  V30 8929 C 870.353 -1.02677 1.79279 0
M  V30 8930 C 870.761 -1.80599 0.563962 0
M  V30 8931 O 870.104 -1.77416 -0.476378 0
M  V30 8932 C 870.166 -2.03617 2.96277 0
M  V30 8933 C 869.83 -1.44676 4.33495 0
M  V30 8934 C 870.827 -0.864811 5.12657 0
M  V30 8935 C 868.512 -1.47537 4.80144 0
M  V30 8936 C 870.506 -0.319322 6.366 0
M  V30 8937 C 868.193 -0.926016 6.04043 0
M  V30 8938 C 869.191 -0.348988 6.82108 0
M  V30 8939 O 868.879 0.191964 8.03671 0
M  V30 8940 H 868.611 -0.309232 0.601125 0
M  V30 8941 H 871.165 -0.315308 2.02965 0
M  V30 8942 H 869.395 -2.78509 2.68272 0
M  V30 8943 H 871.084 -2.64616 3.07788 0
M  V30 8944 H 871.85 -0.835438 4.7775 0
M  V30 8945 H 867.729 -1.91389 4.19394 0
M  V30 8946 H 871.273 0.131709 6.97476 0
M  V30 8947 H 867.17 -0.952613 6.38432 0
M  V30 8948 H 867.938 0.0808779 8.1846 0
M  V30 8949 N 870.601 -1.47988 -0.541979 0
M  V30 8950 C 871.849 -1.55086 -1.29587 0
M  V30 8951 C 872.17 -0.221304 -1.9374 0
M  V30 8952 O 871.44 0.756128 -1.80719 0
M  V30 8953 H 870.02 -0.571307 -0.481266 0
M  V30 8954 H 872.682 -1.8438 -0.631675 0
M  V30 8955 H 871.778 -2.32556 -2.08144 0
M  V30 8956 N 872.079 0.78992 -1.36375 0
M  V30 8957 C 872.989 1.93386 -1.32812 0
M  V30 8958 C 874.005 1.72468 -0.230377 0
M  V30 8959 O 875.181 1.96014 -0.462657 0
M  V30 8960 C 872.246 3.2824 -1.11621 0
M  V30 8961 C 871.307 3.61939 -2.30865 0
M  V30 8962 C 870.54 4.90359 -2.10675 0
M  V30 8963 O 870.763 5.6005 -1.08168 0
M  V30 8964 O 869.697 5.22702 -2.9844 0
M  V30 8965 H 873.523 1.99342 -2.29121 0
M  V30 8966 H 871.108 0.9301 -1.16917 0
M  V30 8967 H 872.99 4.08939 -1.01719 0
M  V30 8968 H 871.665 3.23178 -0.183732 0
M  V30 8969 H 870.572 2.81549 -2.46335 0
M  V30 8970 H 871.905 3.71725 -3.22617 0
M  V30 8971 N 873.557 1.20646 1.01402 0
M  V30 8972 C 874.968 1.01823 1.56489 0
M  V30 8973 C 875.319 -0.42463 1.9155 0
M  V30 8974 O 874.444 -1.30644 1.72514 0
M  V30 8975 C 875.039 1.84208 2.84347 0
M  V30 8976 C 873.598 1.69743 3.35953 0
M  V30 8977 C 872.745 1.8198 2.09233 0
M  V30 8978 H 875.696 1.348 0.837539 0
M  V30 8979 H 875.717 1.34698 3.55861 0
M  V30 8980 H 875.229 2.89215 2.58798 0
M  V30 8981 H 873.33 0.673833 3.66456 0
M  V30 8982 H 873.443 2.51173 4.07981 0
M  V30 8983 H 871.807 1.25193 2.21808 0
M  V30 8984 H 872.59 2.88477 1.86107 0
M  V30 8985 N 875.035 -1.20752 1.01276 0
M  V30 8986 C 876.26 -1.94547 0.718769 0
M  V30 8987 C 876.685 -1.7404 -0.713563 0
M  V30 8988 O 876.043 -1.03221 -1.49047 0
M  V30 8989 C 876.091 -3.44823 1.05497 0
M  V30 8990 O 875.195 -4.12072 0.164516 0
M  V30 8991 H 874.536 -0.607931 0.267051 0
M  V30 8992 H 877.066 -1.53292 1.35509 0
M  V30 8993 H 877.076 -3.95427 1.00507 0
M  V30 8994 H 875.751 -3.59072 2.09858 0
M  V30 8995 H 874.328 -3.71909 0.271615 0
M  V30 8996 N 876.513 -0.788492 -1.36457 0
M  V30 8997 C 877.423 -0.187385 -2.3385 0
M  V30 8998 C 878.439 0.659984 -1.60998 0
M  V30 8999 O 879.615 0.575986 -1.92988 0
M  V30 9000 C 876.68 0.668525 -3.40194 0
M  V30 9001 C 875.741 -0.197234 -4.28847 0
M  V30 9002 C 874.974 0.61792 -5.30111 0
M  V30 9003 O 875.197 1.85396 -5.3943 0
M  V30 9004 O 874.131 0.0183016 -6.01897 0
M  V30 9005 H 877.957 -0.992617 -2.87021 0
M  V30 9006 H 875.542 -0.549934 -1.3891 0
M  V30 9007 H 877.424 1.15663 -4.05216 0
M  V30 9008 H 876.099 1.45166 -2.89324 0
M  V30 9009 H 875.006 -0.73207 -3.66867 0
M  V30 9010 H 876.339 -0.943863 -4.83065 0
M  V30 9011 N 877.991 1.48044 -0.54043 0
M  V30 9012 C 879.239 2.02097 -0.0101367 0
M  V30 9013 C 879.56 1.41881 1.33771 0
M  V30 9014 O 878.83 0.587923 1.8687 0
M  V30 9015 H 877.41 0.747 -0.000758716 0
M  V30 9016 H 880.072 1.81639 -0.706634 0
M  V30 9017 H 879.168 3.11969 0.0904474 0
M  V30 9018 N 879.47 0.276058 1.55163 0
M  V30 9019 C 880.698 -0.343772 2.04024 0
M  V30 9020 C 881.113 -1.49397 1.15438 0
M  V30 9021 O 880.47 -1.81662 0.174692 0
M  V30 9022 C 880.521 -0.823885 3.51986 0
M  V30 9023 O 880.242 0.280507 4.37201 0
M  V30 9024 C 881.743 -1.51143 4.16738 0
M  V30 9025 H 878.963 -0.07828 0.666418 0
M  V30 9026 H 881.507 0.408427 2.0038 0
M  V30 9027 H 879.662 -1.52617 3.56071 0
M  V30 9028 H 880.076 -0.0887831 5.24425 0
M  V30 9029 H 881.55 -1.79878 5.2187 0
M  V30 9030 H 882.027 -2.44327 3.64967 0
M  V30 9031 H 882.633 -0.852975 4.16659 0
M  V30 9032 N 880.948 -1.576 0.00335426 0
M  V30 9033 C 882.176 -1.94996 -0.691685 0
M  V30 9034 C 882.591 -0.878405 -1.67121 0
M  V30 9035 O 881.948 0.142343 -1.81944 0
M  V30 9036 C 881.999 -3.32416 -1.42063 0
M  V30 9037 O 881.72 -4.35458 -0.48038 0
M  V30 9038 C 883.221 -3.84291 -2.20987 0
M  V30 9039 H 880.441 -0.642814 -0.192434 0
M  V30 9040 H 882.985 -2.04425 0.0554706 0
M  V30 9041 H 881.14 -3.24285 -2.11939 0
M  V30 9042 H 881.554 -5.14975 -0.995054 0
M  V30 9043 H 883.028 -4.82863 -2.67483 0
M  V30 9044 H 883.505 -3.17174 -3.03805 0
M  V30 9045 H 884.111 -3.95609 -1.56121 0
M  V30 9046 N 882.426 0.269451 -1.5528 0
M  V30 9047 C 883.674 0.998604 -1.75705 0
M  V30 9048 C 883.995 1.86691 -0.563175 0
M  V30 9049 O 883.265 1.91305 0.421811 0
M  V30 9050 H 881.845 0.371698 -0.647958 0
M  V30 9051 H 884.507 0.292826 -1.92688 0
M  V30 9052 H 883.603 1.63348 -2.6594 0
M  V30 9053 N 883.904 1.48273 0.534124 0
M  V30 9054 C 884.836 1.5857 1.65494 0
M  V30 9055 C 885.849 0.470266 1.5586 0
M  V30 9056 O 887.038 0.740928 1.62396 0
M  V30 9057 C 884.138 1.49554 3.04117 0
M  V30 9058 C 883.311 2.76066 3.39273 0
M  V30 9059 C 882.37 2.60562 4.57159 0
M  V30 9060 O 881.396 3.34438 4.60587 0
M  V30 9061 N 882.598 1.69906 5.55079 0
M  V30 9062 H 885.363 2.55226 1.57099 0
M  V30 9063 H 882.924 1.44944 0.721303 0
M  V30 9064 H 884.916 1.36882 3.80848 0
M  V30 9065 H 883.486 0.608895 3.06613 0
M  V30 9066 H 882.706 3.03332 2.51761 0
M  V30 9067 H 883.994 3.60006 3.59546 0
M  V30 9068 H 883.392 1.09079 5.55084 0
M  V30 9069 H 881.949 1.63175 6.31044 0
M  V30 9070 N 885.382 -0.782676 1.36792 0
M  V30 9071 C 886.345 -1.8772 1.31507 0
M  V30 9072 C 887.345 -1.59269 0.221349 0
M  V30 9073 O 888.535 -1.67555 0.476544 0
M  V30 9074 C 885.667 -3.24641 1.04025 0
M  V30 9075 H 886.86 -1.9382 2.28853 0
M  V30 9076 H 884.413 -0.981226 1.21662 0
M  V30 9077 H 885.148 -3.24221 0.0716439 0
M  V30 9078 H 884.933 -3.46681 1.8318 0
M  V30 9079 H 886.423 -4.04711 1.02949 0
M  V30 9080 N 886.86 -1.21182 -1.00761 0
M  V30 9081 C 887.77 -0.984691 -2.12934 0
M  V30 9082 C 888.786 0.0623657 -1.73888 0
M  V30 9083 O 889.962 -0.1271 -2.00999 0
M  V30 9084 C 887.027 -0.549447 -3.42319 0
M  V30 9085 C 886.088 -1.66841 -3.95553 0
M  V30 9086 C 885.321 -1.25384 -5.18763 0
M  V30 9087 O 885.544 -0.126333 -5.7026 0
M  V30 9088 O 884.478 -2.06475 -5.65377 0
M  V30 9089 H 888.304 -1.92413 -2.3497 0
M  V30 9090 H 885.889 -0.99647 -1.11314 0
M  V30 9091 H 887.771 -0.316384 -4.20211 0
M  V30 9092 H 886.446 0.361304 -3.21677 0
M  V30 9093 H 885.353 -1.95585 -3.189 0
M  V30 9094 H 886.686 -2.55649 -4.206 0
M  V30 9095 N 888.338 1.20213 -1.01915 0
M  V30 9096 C 889.563 1.94163 -0.729076 0
M  V30 9097 C 889.988 1.74416 0.704323 0
M  V30 9098 O 889.346 1.0401 1.48498 0
M  V30 9099 C 889.394 3.44258 -1.07324 0
M  V30 9100 O 888.498 4.11979 -0.186367 0
M  V30 9101 H 887.839 0.606506 -0.270272 0
M  V30 9102 H 890.369 1.52571 -1.3632 0
M  V30 9103 H 890.379 3.94888 -1.02603 0
M  V30 9104 H 889.054 3.57954 -2.11759 0
M  V30 9105 H 887.631 3.7176 -0.291334 0
M  V30 9106 N 889.816 0.795718 1.36037 0
M  V30 9107 C 891.041 0.38204 2.03851 0
M  V30 9108 C 891.466 -0.995553 1.59594 0
M  V30 9109 O 890.824 -1.64258 0.767401 0
M  V30 9110 C 890.872 0.461248 3.57638 0
M  V30 9111 O 889.976 -0.529448 4.08987 0
M  V30 9112 H 889.317 0.161227 0.644129 0
M  V30 9113 H 891.847 1.07858 1.73861 0
M  V30 9114 H 891.857 0.32712 4.06687 0
M  V30 9115 H 890.532 1.46613 3.89201 0
M  V30 9116 H 889.109 -0.35646 3.71192 0
M  V30 9117 N 891.294 -1.47756 0.548274 0
M  V30 9118 C 892.534 -2.04387 0.0231354 0
M  V30 9119 C 892.898 -1.41438 -1.29843 0
M  V30 9120 O 894.099 -1.89064 -1.91072 0
M  V30 9121 C 892.37 -3.57316 -0.077482 0
M  V30 9122 S 893.929 -4.35339 -0.550038 0
M  V30 9123 H 890.747 -0.710694 0.0208428 0
M  V30 9124 H 893.349 -1.81239 0.732984 0
M  V30 9125 H 892.053 -4.00658 0.88888 0
M  V30 9126 H 891.584 -3.84947 -0.811157 0
M  V30 9127 H 893.599 -4.61957 -1.81135 0
M  V30 9128 N 892.772 -0.284283 -1.55015 0
M  V30 9129 C 893.722 0.613913 -2.19579 0
M  V30 9130 C 894.706 1.11153 -1.16335 0
M  V30 9131 O 895.898 1.05508 -1.42116 0
M  V30 9132 C 893.027 1.79329 -2.92739 0
M  V30 9133 C 892.113 1.31242 -4.03282 0
M  V30 9134 N 892.504 0.548344 -5.02819 0
M  V30 9135 C 890.802 1.5946 -4.1652 0
M  V30 9136 C 891.503 0.294358 -5.80955 0
M  V30 9137 N 890.479 0.869406 -5.36603 0
M  V30 9138 H 894.281 0.0224088 -2.93891 0
M  V30 9139 H 891.795 -0.0882619 -1.6216 0
M  V30 9140 H 893.792 2.44814 -3.37449 0
M  V30 9141 H 892.452 2.38865 -2.1994 0
M  V30 9142 H 893.463 0.194812 -5.17533 0
M  V30 9143 H 890.14 2.19866 -3.54916 0
M  V30 9144 H 891.53 -0.318195 -6.71146 0
M  V30 9145 N 894.251 1.57596 -0.0117121 0
M  V30 9146 C 895.662 1.79033 0.529521 0
M  V30 9147 C 896.013 0.920299 1.73277 0
M  V30 9148 O 895.138 0.125934 2.16033 0
M  V30 9149 C 895.733 3.24695 0.967405 0
M  V30 9150 C 894.292 3.47188 1.45387 0
M  V30 9151 C 893.439 2.74245 0.410466 0
M  V30 9152 H 896.39 1.56908 -0.237836 0
M  V30 9153 H 896.411 3.33451 1.83278 0
M  V30 9154 H 895.923 3.87992 0.0914605 0
M  V30 9155 H 894.024 2.89121 2.35032 0
M  V30 9156 H 894.137 4.55886 1.47325 0
M  V30 9157 H 892.501 2.39209 0.874721 0
M  V30 9158 H 893.284 3.40248 -0.456713 0
M  V30 9159 N 895.729 -0.261212 1.5542 0
M  V30 9160 C 896.977 -0.989272 1.76232 0
M  V30 9161 C 897.298 -1.86389 0.573067 0
M  V30 9162 O 896.568 -1.91526 -0.41166 0
M  V30 9163 H 895.148 -0.368256 0.64992 0
M  V30 9164 H 897.81 -0.282603 1.9284 0
M  V30 9165 H 896.906 -1.61935 2.66802 0
M  V30 9166 N 897.207 -1.48554 -0.526253 0
M  V30 9167 C 898.117 -1.66044 -1.65731 0
M  V30 9168 C 899.133 -0.542951 -1.65312 0
M  V30 9169 O 900.309 -0.814495 -1.84195 0
M  V30 9170 C 897.374 -1.69959 -3.02184 0
M  V30 9171 C 896.435 -2.93362 -3.13428 0
M  V30 9172 C 895.668 -2.97081 -4.43372 0
M  V30 9173 O 895.891 -2.09103 -5.3069 0
M  V30 9174 O 894.825 -3.8929 -4.59061 0
M  V30 9175 H 898.651 -2.61811 -1.53912 0
M  V30 9176 H 896.236 -1.31999 -0.699759 0
M  V30 9177 H 898.118 -1.75033 -3.83329 0
M  V30 9178 H 896.793 -0.773658 -3.14319 0
M  V30 9179 H 895.7 -2.93818 -2.31564 0
M  V30 9180 H 897.033 -3.85352 -3.06211 0
M  V30 9181 N 898.685 0.775411 -1.37205 0
M  V30 9182 C 899.617 1.89761 -1.28544 0
M  V30 9183 C 900.63 1.61542 -0.201996 0
M  V30 9184 O 901.819 1.72528 -0.457848 0
M  V30 9185 C 898.919 3.24904 -0.963885 0
M  V30 9186 C 898.092 3.80796 -2.15205 0
M  V30 9187 C 897.151 4.94407 -1.80135 0
M  V30 9188 O 896.177 5.10185 -2.52388 0
M  V30 9189 N 897.379 5.75722 -0.743298 0
M  V30 9190 H 900.144 1.97708 -2.25237 0
M  V30 9191 H 897.705 0.954348 -1.30782 0
M  V30 9192 H 899.697 3.9842 -0.710182 0
M  V30 9193 H 898.267 3.12483 -0.085632 0
M  V30 9194 H 897.487 2.99101 -2.56773 0
M  V30 9195 H 898.775 4.1487 -2.94552 0
M  V30 9196 H 898.173 5.65518 -0.143655 0
M  V30 9197 H 896.73 6.4948 -0.549446 0
M  V30 9198 N 900.163 1.21714 1.00117 0
M  V30 9199 C 901.11 0.979837 2.08968 0
M  V30 9200 C 902.08 -0.0955324 1.65825 0
M  V30 9201 O 903.265 0.0523742 1.90728 0
M  V30 9202 C 900.405 0.554758 3.40612 0
M  V30 9203 C 899.518 1.69999 3.97145 0
M  V30 9204 C 898.653 1.2237 5.16913 0
M  V30 9205 C 897.692 2.34101 5.65564 0
M  V30 9206 N 896.829 1.87579 6.76579 0
M  V30 9207 H 901.669 1.91167 2.28602 0
M  V30 9208 H 899.206 0.952645 1.12085 0
M  V30 9209 H 901.164 0.289526 4.16194 0
M  V30 9210 H 899.794 -0.340073 3.21004 0
M  V30 9211 H 898.846 2.07976 3.18512 0
M  V30 9212 H 900.158 2.54074 4.29241 0
M  V30 9213 H 899.312 0.915358 5.99755 0
M  V30 9214 H 898.051 0.353045 4.8642 0
M  V30 9215 H 897.056 2.65734 4.81316 0
M  V30 9216 H 898.281 3.21669 5.98085 0
M  V30 9217 H 896.227 1.02863 6.47885 0
M  V30 9218 H 896.144 2.65225 7.07949 0
M  V30 9219 H 897.412 1.5979 7.62947 0
M  V30 9220 N 901.641 -1.19671 1.02551 0
M  V30 9221 C 902.551 -2.26441 0.613329 0
M  V30 9222 C 903.567 -1.70375 -0.353339 0
M  V30 9223 O 904.743 -2.0028 -0.212064 0
M  V30 9224 C 901.808 -3.46684 -0.0329028 0
M  V30 9225 C 900.869 -4.17945 0.980837 0
M  V30 9226 C 900.102 -5.32448 0.36535 0
M  V30 9227 O 900.325 -5.64291 -0.832596 0
M  V30 9228 O 899.259 -5.92012 1.08652 0
M  V30 9229 H 903.085 -2.63932 1.50246 0
M  V30 9230 H 900.67 -1.2646 0.795502 0
M  V30 9231 H 902.552 -4.1956 -0.393395 0
M  V30 9232 H 901.227 -3.1105 -0.896089 0
M  V30 9233 H 900.134 -3.47204 1.39286 0
M  V30 9234 H 901.467 -4.57542 1.81428 0
M  V30 9235 N 903.119 -0.802921 -1.35613 0
M  V30 9236 C 904.347 -0.39393 -2.03115 0
M  V30 9237 C 904.762 0.993961 -1.60517 0
M  V30 9238 O 904.119 1.63984 -0.800973 0
M  V30 9239 C 904.17 -0.463486 -3.58516 0
M  V30 9240 O 903.891 -1.79666 -3.99565 0
M  V30 9241 C 905.392 -0.0468377 -4.43275 0
M  V30 9242 H 902.612 -0.160519 -0.651517 0
M  V30 9243 H 905.156 -1.08552 -1.73311 0
M  V30 9244 H 903.311 0.179821 -3.86982 0
M  V30 9245 H 903.725 -1.75688 -4.942 0
M  V30 9246 H 905.199 -0.146626 -5.51805 0
M  V30 9247 H 905.676 1.00741 -4.2749 0
M  V30 9248 H 906.282 -0.663158 -4.20098 0
M  V30 9249 N 904.597 1.47463 -0.556102 0
M  V30 9250 C 905.545 2.31692 0.205299 0
M  V30 9251 C 906.539 1.42857 0.910394 0
M  V30 9252 O 907.745 1.59628 0.831806 0
M  V30 9253 H 904.12 0.747172 0.0850775 0
M  V30 9254 H 906.091 2.93758 -0.524305 0
M  V30 9255 C 904.84 3.25487 1.22283 0
M  V30 9256 H 904.163 3.93806 0.689697 0
M  V30 9257 H 905.603 3.87257 1.7265 0
M  V30 9258 C 904.062 2.48931 2.27013 0
M  V30 9259 O 904.592 2.23296 3.33919 0
M  V30 9260 N 902.798 2.0996 2.00911 0
M  V30 9261 H 902.345 2.31008 1.13986 0
M  V30 9262 H 902.303 1.59053 2.712 0
M  V30 9263 N 906.075 0.2925 1.54862 0
M  V30 9264 C 907.352 -0.371946 1.92031 0
M  V30 9265 C 907.732 -1.72363 1.21878 0
M  V30 9266 O 907.08 -2.25779 0.351573 0
M  V30 9267 C 907.29 -0.495027 3.45471 0
M  V30 9268 C 908.638 -0.769855 4.17562 0
M  V30 9269 O 909.662 -0.579168 3.5146 0
M  V30 9270 O 908.521 -1.13561 5.34571 0
M  V30 9271 H 905.615 -0.206463 0.800813 0
M  V30 9272 H 908.161 0.339933 1.6626 0
M  V30 9273 H 906.933 0.455528 3.88639 0
M  V30 9274 H 906.556 -1.2557 3.7725 0
M  V30 9275 N 907.553 -1.57587 0.0200696 0
M  V30 9276 C 908.964 -1.79312 -0.520019 0
M  V30 9277 C 909.315 -0.929475 -1.72787 0
M  V30 9278 O 908.44 -0.137389 -2.15963 0
M  V30 9279 C 909.035 -3.25203 -0.950172 0
M  V30 9280 C 907.594 -3.47954 -1.43543 0
M  V30 9281 C 906.741 -2.74459 -0.395917 0
M  V30 9282 H 909.692 -1.56779 0.246153 0
M  V30 9283 H 909.713 -3.34418 -1.81508 0
M  V30 9284 H 909.225 -3.88035 -0.070883 0
M  V30 9285 H 907.326 -2.90363 -2.33495 0
M  V30 9286 H 907.439 -4.56661 -1.44905 0
M  V30 9287 H 905.803 -2.39669 -0.862022 0
M  V30 9288 H 906.586 -3.40001 0.47475 0
M  V30 9289 N 909.032 0.252966 -1.55557 0
M  V30 9290 C 909.98 1.33289 -1.90622 0
M  V30 9291 C 910.974 1.50133 -0.784638 0
M  V30 9292 O 912.18 1.51679 -0.969196 0
M  V30 9293 H 908.555 0.446196 -0.605321 0
M  V30 9294 H 910.526 1.00977 -2.80796 0
M  V30 9295 C 909.275 2.68254 -2.21213 0
M  V30 9296 H 908.598 2.5609 -3.07014 0
M  V30 9297 H 910.038 3.42707 -2.49656 0
M  V30 9298 C 908.497 3.20884 -1.02642 0
M  V30 9299 O 909.027 4.00783 -0.271292 0
M  V30 9300 N 907.233 2.7883 -0.818682 0
M  V30 9301 H 906.78 2.13966 -1.43444 0
M  V30 9302 H 906.738 3.14388 -0.0269989 0
M  V30 9303 N 910.51 1.48831 0.518367 0
M  V30 9304 C 911.44 1.67119 1.63075 0
M  V30 9305 C 912.421 0.519948 1.61958 0
M  V30 9306 O 913.606 0.753824 1.78972 0
M  V30 9307 C 910.736 1.72158 3.01627 0
M  V30 9308 C 909.69 2.86898 3.17606 0
M  V30 9309 C 909.016 2.77035 4.57335 0
M  V30 9310 C 910.316 4.28057 2.99274 0
M  V30 9311 H 912.01 2.60248 1.48025 0
M  V30 9312 H 909.556 1.2524 0.710694 0
M  V30 9313 H 911.509 1.83539 3.7933 0
M  V30 9314 H 910.233 0.756157 3.17726 0
M  V30 9315 H 908.892 2.75091 2.42323 0
M  V30 9316 H 908.54 1.78438 4.70286 0
M  V30 9317 H 908.24 3.54036 4.6897 0
M  V30 9318 H 909.764 2.904 5.37122 0
M  V30 9319 H 911.178 4.40636 3.6676 0
M  V30 9320 H 909.575 5.06145 3.22393 0
M  V30 9321 H 910.645 4.4371 1.95574 0
M  V30 9322 N 911.988 -0.768124 1.37614 0
M  V30 9323 C 913.399 -1.34462 1.29525 0
M  V30 9324 C 913.75 -1.96121 -0.0555168 0
M  V30 9325 O 912.875 -1.94069 -0.957406 0
M  V30 9326 C 913.47 -2.44475 2.34558 0
M  V30 9327 C 912.029 -2.97883 2.30093 0
M  V30 9328 C 911.176 -1.71131 2.18196 0
M  V30 9329 H 914.127 -0.568103 1.48183 0
M  V30 9330 H 914.148 -3.24047 1.99434 0
M  V30 9331 H 913.66 -1.99568 3.32858 0
M  V30 9332 H 911.761 -3.47156 1.35328 0
M  V30 9333 H 911.874 -3.53251 3.23652 0
M  V30 9334 H 910.238 -1.94197 1.64802 0
M  V30 9335 H 911.021 -1.28323 3.18415 0
M  V30 9336 N 913.466 -1.22244 -0.994698 0
M  V30 9337 C 914.877 -1.043 -1.5485 0
M  V30 9338 C 915.228 0.394102 -1.92201 0
M  V30 9339 O 914.353 1.27883 -1.74571 0
M  V30 9340 C 914.948 -1.88708 -2.8138 0
M  V30 9341 C 913.507 -1.75067 -3.3321 0
M  V30 9342 C 912.654 -1.85286 -2.06312 0
M  V30 9343 H 915.605 -1.36115 -0.815988 0
M  V30 9344 H 915.626 -1.40342 -3.53673 0
M  V30 9345 H 915.138 -2.93296 -2.54164 0
M  V30 9346 H 913.239 -0.732047 -3.65338 0
M  V30 9347 H 913.352 -2.57632 -4.03934 0
M  V30 9348 H 911.716 -1.28706 -2.19788 0
M  V30 9349 H 912.499 -2.91401 -1.81494 0
M  V30 9350 N 914.944 1.19125 -1.03184 0
M  V30 9351 C 915.907 2.20662 -0.619766 0
M  V30 9352 C 916.907 1.57621 0.318179 0
M  V30 9353 O 918.097 1.73885 0.104783 0
M  V30 9354 C 915.229 3.40774 0.0926696 0
M  V30 9355 H 916.422 2.58633 -1.5182 0
M  V30 9356 H 913.975 1.32855 -0.823364 0
M  V30 9357 H 914.71 3.08324 1.00531 0
M  V30 9358 H 914.495 3.87766 -0.581344 0
M  V30 9359 H 915.985 4.15977 0.367792 0
M  V30 9360 N 916.422 0.810101 1.35185 0
M  V30 9361 C 917.668 0.392698 1.98962 0
M  V30 9362 C 918.001 -1.03835 1.64109 0
M  V30 9363 O 917.276 -1.721 0.9062 0
M  V30 9364 C 917.559 0.580349 3.55393 0
M  V30 9365 C 917.412 2.05658 4.00031 0
M  V30 9366 C 918.731 0.00822618 4.40099 0
M  V30 9367 H 915.85 0.144157 0.722764 0
M  V30 9368 H 918.492 1.02029 1.60281 0
M  V30 9369 H 916.642 0.0461106 3.88473 0
M  V30 9370 H 918.314 2.65348 3.77344 0
M  V30 9371 H 916.557 2.55174 3.50811 0
M  V30 9372 H 917.228 2.13875 5.08883 0
M  V30 9373 H 919.704 0.464517 4.13499 0
M  V30 9374 H 918.58 0.169414 5.48638 0
M  V30 9375 H 918.841 -1.08576 4.2856 0
M  V30 9376 N 917.9 -1.47166 0.563914 0
M  V30 9377 C 919.125 -2.0735 0.0454698 0
M  V30 9378 C 919.55 -1.41281 -1.24182 0
M  V30 9379 O 918.908 -0.490084 -1.7455 0
M  V30 9380 C 918.956 -3.60378 -0.126453 0
M  V30 9381 O 918.06 -3.94934 -1.18746 0
M  V30 9382 H 917.401 -0.661773 0.0543377 0
M  V30 9383 H 919.931 -1.89086 0.781508 0
M  V30 9384 H 919.941 -4.06593 -0.338554 0
M  V30 9385 H 918.616 -4.07862 0.81373 0
M  V30 9386 H 917.193 -3.60455 -0.955318 0
M  V30 9387 N 919.378 -0.300708 -1.54705 0
M  V30 9388 C 920.603 0.314073 -2.05008 0
M  V30 9389 C 921.028 1.46759 -1.17657 0
M  V30 9390 O 920.386 1.80398 -0.180598 0
M  V30 9391 C 920.434 0.748243 -3.52752 0
M  V30 9392 O 919.538 1.85305 -3.68424 0
M  V30 9393 H 918.879 0.0610139 -0.661191 0
M  V30 9394 H 921.409 -0.442467 -1.99758 0
M  V30 9395 H 921.419 1.03713 -3.94598 0
M  V30 9396 H 920.094 -0.095573 -4.1579 0
M  V30 9397 H 918.671 1.56473 -3.38483 0
M  V30 9398 N 920.856 1.57574 -0.0284266 0
M  V30 9399 C 921.766 2.13637 0.96936 0
M  V30 9400 C 922.782 1.08845 1.35752 0
M  V30 9401 O 923.958 1.40899 1.43908 0
M  V30 9402 C 921.023 2.65179 2.2334 0
M  V30 9403 C 920.084 3.84683 1.90572 0
M  V30 9404 C 919.317 4.33758 3.1095 0
M  V30 9405 O 919.54 3.82009 4.23586 0
M  V30 9406 O 918.474 5.2561 2.93288 0
M  V30 9407 H 922.3 2.99169 0.52267 0
M  V30 9408 H 919.885 1.48159 0.192135 0
M  V30 9409 H 921.767 2.98402 2.97547 0
M  V30 9410 H 920.442 1.82731 2.67191 0
M  V30 9411 H 919.349 3.56386 1.13753 0
M  V30 9412 H 920.682 4.68292 1.51538 0
M  V30 9413 N 922.334 -0.244713 1.55689 0
M  V30 9414 C 923.75 -0.593331 1.48161 0
M  V30 9415 C 923.95 -1.88234 0.719047 0
M  V30 9416 O 923.006 -2.51266 0.249292 0
M  V30 9417 C 924.319 -0.694032 2.92581 0
M  V30 9418 C 925.867 -0.786213 3.02965 0
M  V30 9419 C 926.342 -0.918457 4.48696 0
M  V30 9420 N 927.833 -0.983272 4.52643 0
M  V30 9421 C 928.568 -1.1049 5.62654 0
M  V30 9422 N 928.064 -1.19193 6.8247 0
M  V30 9423 N 929.857 -1.13823 5.50455 0
M  V30 9424 H 922.008 0.601446 2.03707 0
M  V30 9425 H 924.271 0.207894 0.924924 0
M  V30 9426 H 923.977 0.183133 3.51223 0
M  V30 9427 H 923.851 -1.56525 3.4319 0
M  V30 9428 H 926.238 -1.65383 2.44402 0
M  V30 9429 H 926.319 0.110202 2.55563 0
M  V30 9430 H 925.963 -0.0553881 5.0787 0
M  V30 9431 H 925.893 -1.82994 4.93782 0
M  V30 9432 H 928.384 -0.927269 3.66347 0
M  V30 9433 H 928.697 -1.28387 7.62061 0
M  V30 9434 H 927.042 -1.16147 6.85226 0
M  V30 9435 H 930.233 -1.06673 4.55783 0
M  V30 9436 H 930.406 -1.22957 6.36228 0
M  V30 9437 N 923.813 -1.49104 -0.510467 0
M  V30 9438 C 924.776 -1.64569 -1.59529 0
M  V30 9439 C 925.776 -0.517937 -1.5223 0
M  V30 9440 O 926.966 -0.784183 -1.55551 0
M  V30 9441 C 924.098 -1.6342 -2.99177 0
M  V30 9442 H 925.291 -2.61318 -1.4715 0
M  V30 9443 H 922.844 -1.37993 -0.734001 0
M  V30 9444 H 923.579 -0.68221 -3.17043 0
M  V30 9445 H 923.364 -2.45312 -3.05883 0
M  V30 9446 H 924.854 -1.77474 -3.78011 0
M  V30 9447 N 925.291 0.760815 -1.38019 0
M  V30 9448 C 926.568 1.5098 -1.24356 0
M  V30 9449 C 926.948 2.10507 0.158169 0
M  V30 9450 O 926.296 1.96455 1.16695 0
M  V30 9451 C 926.506 2.58195 -2.34811 0
M  V30 9452 C 927.854 3.25297 -2.72886 0
M  V30 9453 O 928.878 2.68496 -2.34069 0
M  V30 9454 O 927.737 4.28018 -3.39799 0
M  V30 9455 H 924.831 0.66921 -0.485888 0
M  V30 9456 H 927.377 0.796844 -1.49828 0
M  V30 9457 H 926.149 2.12406 -3.28633 0
M  V30 9458 H 925.772 3.37079 -2.10864 0
M  V30 9459 N 926.769 1.22769 0.988202 0
M  V30 9460 C 928.017 1.05301 1.725 0
M  V30 9461 C 928.338 -0.412103 1.90596 0
M  V30 9462 O 927.608 -1.29606 1.46898 0
M  V30 9463 H 926.188 0.386658 0.639144 0
M  V30 9464 H 928.85 1.54359 1.18993 0
M  V30 9465 H 927.946 1.53465 2.71763 0
M  V30 9466 N 928.247 -1.18576 1.03814 0
M  V30 9467 C 929.179 -2.21607 0.585055 0
M  V30 9468 C 930.192 -1.59125 -0.343963 0
M  V30 9469 O 931.381 -1.77959 -0.138882 0
M  V30 9470 C 928.481 -3.38495 -0.165602 0
M  V30 9471 C 927.654 -4.30557 0.770662 0
M  V30 9472 C 926.713 -5.26161 0.0637534 0
M  V30 9473 O 925.739 -5.64961 0.693359 0
M  V30 9474 N 926.941 -5.67882 -1.20377 0
M  V30 9475 H 929.706 -2.61104 1.47121 0
M  V30 9476 H 927.267 -1.33336 0.918316 0
M  V30 9477 H 929.259 -3.99474 -0.648292 0
M  V30 9478 H 927.829 -2.97711 -0.953268 0
M  V30 9479 H 927.049 -3.67221 1.43326 0
M  V30 9480 H 928.337 -4.88969 1.40667 0
M  V30 9481 H 927.735 -5.38409 -1.73586 0
M  V30 9482 H 926.292 -6.31069 -1.63079 0
M  V30 9483 N 929.725 -0.817259 -1.34754 0
M  V30 9484 C 930.95 -0.414423 -2.03217 0
M  V30 9485 C 931.375 0.970037 -1.61158 0
M  V30 9486 O 930.733 1.63016 -0.793436 0
M  V30 9487 C 930.781 -0.518087 -3.56859 0
M  V30 9488 O 929.885 0.464314 -4.09778 0
M  V30 9489 H 929.226 -0.171454 -0.641482 0
M  V30 9490 H 931.756 -1.10611 -1.72123 0
M  V30 9491 H 931.766 -0.391779 -4.06115 0
M  V30 9492 H 930.441 -1.52786 -3.86819 0
M  V30 9493 H 929.018 0.297361 -3.71712 0
M  V30 9494 N 931.203 1.46865 -0.571711 0
M  V30 9495 C 932.619 1.57897 -0.23255 0
M  V30 9496 C 932.819 1.56836 1.26509 0
M  V30 9497 O 931.875 1.47947 2.04617 0
M  V30 9498 C 933.188 2.87778 -0.872036 0
M  V30 9499 C 934.736 3.01389 -0.844605 0
M  V30 9500 C 935.211 4.33991 -1.46343 0
M  V30 9501 N 936.702 4.40662 -1.42727 0
M  V30 9502 C 937.437 5.41858 -1.87557 0
M  V30 9503 N 936.933 6.49787 -2.4031 0
M  V30 9504 N 938.726 5.32992 -1.7854 0
M  V30 9505 H 930.877 1.45798 -1.54457 0
M  V30 9506 H 933.14 0.694785 -0.644964 0
M  V30 9507 H 932.846 2.94332 -1.92513 0
M  V30 9508 H 932.72 3.75345 -0.373677 0
M  V30 9509 H 935.107 2.94423 0.19984 0
M  V30 9510 H 935.188 2.15327 -1.38087 0
M  V30 9511 H 934.832 4.41714 -2.50701 0
M  V30 9512 H 934.762 5.18809 -0.902479 0
M  V30 9513 H 937.253 3.63263 -1.04155 0
M  V30 9514 H 937.566 7.23199 -2.72403 0
M  V30 9515 H 935.911 6.50637 -2.44329 0
M  V30 9516 H 939.102 4.47575 -1.37093 0
M  V30 9517 H 939.275 6.11716 -2.13794 0
M  V30 9518 N 932.681 0.308908 1.54543 0
M  V30 9519 C 933.611 -0.556657 2.26768 0
M  V30 9520 C 934.592 -1.13145 1.27013 0
M  V30 9521 O 935.777 -1.15931 1.558 0
M  V30 9522 C 932.907 -1.72481 3.01443 0
M  V30 9523 C 931.861 -1.28001 4.08411 0
M  V30 9524 C 931.187 -2.53395 4.70845 0
M  V30 9525 C 932.487 -0.405497 5.20724 0
M  V30 9526 H 934.181 0.0457618 2.99365 0
M  V30 9527 H 931.727 0.0234495 1.43981 0
M  V30 9528 H 933.68 -2.3365 3.50693 0
M  V30 9529 H 932.404 -2.35359 2.26437 0
M  V30 9530 H 931.063 -0.69133 3.60022 0
M  V30 9531 H 930.711 -3.14604 3.92471 0
M  V30 9532 H 930.411 -2.2433 5.43093 0
M  V30 9533 H 931.935 -3.15352 5.22863 0
M  V30 9534 H 933.349 -0.923076 5.6582 0
M  V30 9535 H 931.746 -0.208282 5.99738 0
M  V30 9536 H 932.816 0.567412 4.81569 0
M  V30 9537 N 934.159 -1.57557 0.0367827 0
M  V30 9538 C 935.109 -2.07182 -0.95183 0
M  V30 9539 C 936.093 -0.973921 -1.28076 0
M  V30 9540 O 937.285 -1.23741 -1.26559 0
M  V30 9541 C 934.414 -2.60869 -2.23164 0
M  V30 9542 C 933.5 -3.77602 -1.93074 0
M  V30 9543 N 933.891 -4.87923 -1.33283 0
M  V30 9544 C 932.189 -3.86234 -2.23023 0
M  V30 9545 C 932.89 -5.69083 -1.20498 0
M  V30 9546 N 931.866 -5.16233 -1.70306 0
M  V30 9547 H 935.668 -2.89876 -0.484647 0
M  V30 9548 H 933.182 -1.61528 -0.16804 0
M  V30 9549 H 935.179 -2.94716 -2.9487 0
M  V30 9550 H 933.839 -1.79607 -2.70502 0
M  V30 9551 H 934.85 -5.08018 -1.00686 0
M  V30 9552 H 931.527 -3.15891 -2.72981 0
M  V30 9553 H 932.917 -6.6779 -0.741999 0
M  V30 9554 N 935.637 0.236453 -1.55816 0
M  V30 9555 C 936.914 0.986463 -1.68903 0
M  V30 9556 C 937.294 2.02984 -0.579722 0
M  V30 9557 O 936.642 2.24693 0.415389 0
M  V30 9558 C 936.852 1.61038 -3.09625 0
M  V30 9559 C 938.2 2.10829 -3.6856 0
M  V30 9560 O 939.224 1.7096 -3.12492 0
M  V30 9561 O 938.083 2.84064 -4.66873 0
M  V30 9562 H 935.177 0.459837 -0.687371 0
M  V30 9563 H 937.723 0.229412 -1.68142 0
M  V30 9564 H 936.495 0.856232 -3.81817 0
M  V30 9565 H 936.118 2.43336 -3.14441 0
M  V30 9566 N 937.115 1.49373 0.502552 0
M  V30 9567 C 938.34 1.62752 1.28556 0
M  V30 9568 C 938.765 0.298285 1.8572 0
M  V30 9569 O 938.123 -0.733885 1.65782 0
M  V30 9570 C 938.171 2.69778 2.39274 0
M  V30 9571 O 937.275 2.28843 3.43081 0
M  V30 9572 H 936.616 0.544799 0.379592 0
M  V30 9573 H 939.146 1.9555 0.601792 0
M  V30 9574 H 939.156 2.91899 2.8506 0
M  V30 9575 H 937.831 3.66266 1.97033 0
M  V30 9576 H 936.408 2.17047 3.03224 0
M  V30 9577 N 938.594 -0.753485 1.38421 0
M  V30 9578 C 939.541 -1.86723 1.35659 0
M  V30 9579 C 940.511 -1.64648 0.219121 0
M  V30 9580 O 941.696 -1.86313 0.411366 0
M  V30 9581 C 938.836 -3.24023 1.18758 0
M  V30 9582 C 937.949 -3.57928 2.41892 0
M  V30 9583 C 937.084 -4.84532 2.17721 0
M  V30 9584 C 936.123 -5.11224 3.36626 0
M  V30 9585 N 935.26 -6.29023 3.11889 0
M  V30 9586 H 940.1 -1.88419 2.30873 0
M  V30 9587 H 937.637 -0.920934 1.14705 0
M  V30 9588 H 939.595 -4.03252 1.06974 0
M  V30 9589 H 938.225 -3.21654 0.27182 0
M  V30 9590 H 937.277 -2.73541 2.64347 0
M  V30 9591 H 938.589 -3.73581 3.30513 0
M  V30 9592 H 937.743 -5.71704 2.03074 0
M  V30 9593 H 936.482 -4.71018 1.26465 0
M  V30 9594 H 935.487 -4.2252 3.51791 0
M  V30 9595 H 936.712 -5.26635 4.28757 0
M  V30 9596 H 934.658 -6.16832 2.2328 0
M  V30 9597 H 934.575 -6.45177 3.9406 0
M  V30 9598 H 935.843 -7.19083 3.00898 0
M  V30 9599 N 940.072 -1.23292 -0.981677 0
M  V30 9600 C 941.32 -1.06214 -1.71939 0
M  V30 9601 C 941.641 0.401989 -1.90812 0
M  V30 9602 O 940.911 1.28825 -1.47584 0
M  V30 9603 H 939.491 -0.390042 -0.637084 0
M  V30 9604 H 942.153 -1.54988 -1.18173 0
M  V30 9605 H 941.249 -1.54904 -2.70945 0
M  V30 9606 N 941.55 1.18024 -1.04442 0
M  V30 9607 C 942.482 2.21294 -0.596799 0
M  V30 9608 C 943.495 1.59305 0.33552 0
M  V30 9609 O 944.684 1.7803 0.129443 0
M  V30 9610 C 941.784 3.38578 0.147648 0
M  V30 9611 C 940.957 4.30143 -0.793484 0
M  V30 9612 C 940.016 5.2612 -0.0916561 0
M  V30 9613 O 939.042 5.64586 -0.72331 0
M  V30 9614 N 940.244 5.68512 1.17364 0
M  V30 9615 H 943.009 2.6032 -1.48504 0
M  V30 9616 H 940.57 1.32847 -0.925374 0
M  V30 9617 H 942.562 3.99812 0.627098 0
M  V30 9618 H 941.132 2.98212 0.937466 0
M  V30 9619 H 940.352 3.66456 -1.45272 0
M  V30 9620 H 941.64 4.88216 -1.43258 0
M  V30 9621 H 941.038 5.39322 1.70729 0
M  V30 9622 H 939.595 6.31925 1.5973 0
M  V30 9623 N 943.028 0.824394 1.34319 0
M  V30 9624 C 944.256 0.426194 2.02463 0
M  V30 9625 C 944.671 -0.968298 1.62078 0
M  V30 9626 O 944.028 -1.62689 0.82696 0
M  V30 9627 C 944.079 0.520465 3.57734 0
M  V30 9628 O 943.8 1.86 3.96656 0
M  V30 9629 C 945.301 0.117353 4.43145 0
M  V30 9630 H 942.521 0.170864 0.648881 0
M  V30 9631 H 945.065 1.11296 1.71562 0
M  V30 9632 H 943.22 -0.118233 3.8722 0
M  V30 9633 H 943.634 1.83528 4.91343 0
M  V30 9634 H 945.108 0.234395 5.51502 0
M  V30 9635 H 945.585 -0.939271 4.29039 0
M  V30 9636 H 946.191 0.729908 4.1899 0
M  V30 9637 N 944.506 -1.46559 0.579492 0
M  V30 9638 C 945.453 -2.30275 -0.155598 0
M  V30 9639 C 946.423 -1.40422 -0.887175 0
M  V30 9640 O 947.608 -1.69373 -0.878481 0
M  V30 9641 C 944.748 -3.24827 -1.16539 0
M  V30 9642 C 943.861 -4.29778 -0.43759 0
M  V30 9643 C 942.996 -5.11461 -1.43462 0
M  V30 9644 C 942.035 -6.08164 -0.693048 0
M  V30 9645 N 941.172 -6.82726 -1.63799 0
M  V30 9646 H 946.012 -2.92607 0.564356 0
M  V30 9647 H 943.549 -1.44211 0.290126 0
M  V30 9648 H 945.507 -3.78088 -1.76368 0
M  V30 9649 H 944.137 -2.64311 -1.8531 0
M  V30 9650 H 943.189 -3.794 0.27567 0
M  V30 9651 H 944.501 -4.98597 0.142298 0
M  V30 9652 H 943.655 -5.68982 -2.1058 0
M  V30 9653 H 942.394 -4.42595 -2.04844 0
M  V30 9654 H 941.399 -5.49799 -0.00807093 0
M  V30 9655 H 942.624 -6.79047 -0.0846678 0
M  V30 9656 H 940.57 -6.16572 -2.23997 0
M  V30 9657 H 940.487 -7.47795 -1.11082 0
M  V30 9658 H 941.755 -7.44807 -2.29962 0
M  V30 9659 N 945.984 -0.3171 -1.54377 0
M  V30 9660 C 946.914 0.544623 -2.2706 0
M  V30 9661 C 947.895 1.12469 -1.27611 0
M  V30 9662 O 949.08 1.15103 -1.56413 0
M  V30 9663 C 946.21 1.70879 -3.02353 0
M  V30 9664 C 945.164 1.25833 -4.09084 0
M  V30 9665 C 944.49 2.50894 -4.72182 0
M  V30 9666 C 945.79 0.377876 -5.20931 0
M  V30 9667 H 947.484 -0.0616372 -2.99337 0
M  V30 9668 H 945.03 -0.0310848 -1.43966 0
M  V30 9669 H 946.983 2.31787 -3.51927 0
M  V30 9670 H 945.707 2.34155 -2.27682 0
M  V30 9671 H 944.366 0.672228 -3.60384 0
M  V30 9672 H 944.014 3.12518 -3.94134 0
M  V30 9673 H 943.714 2.21447 -5.44275 0
M  V30 9674 H 945.238 3.12575 -5.24528 0
M  V30 9675 H 946.652 0.893056 -5.66302 0
M  V30 9676 H 945.049 0.176474 -5.9984 0
M  V30 9677 H 946.119 -0.592943 -4.81261 0
M  V30 9678 N 947.462 1.57535 -0.0451378 0
M  V30 9679 C 948.392 2.14208 0.929372 0
M  V30 9680 C 949.373 1.06221 1.32858 0
M  V30 9681 O 950.558 1.34132 1.40436 0
M  V30 9682 C 947.688 2.68217 2.20629 0
M  V30 9683 C 946.642 3.81134 1.94734 0
M  V30 9684 C 945.968 4.21636 3.28828 0
M  V30 9685 C 947.268 5.06531 1.27374 0
M  V30 9686 H 948.962 2.95886 0.457348 0
M  V30 9687 H 946.508 1.42332 0.218544 0
M  V30 9688 H 948.461 3.06502 2.89196 0
M  V30 9689 H 947.185 1.83722 2.70026 0
M  V30 9690 H 945.844 3.43312 1.28579 0
M  V30 9691 H 945.492 3.34099 3.76014 0
M  V30 9692 H 945.192 4.97736 3.12302 0
M  V30 9693 H 946.716 4.62516 3.98637 0
M  V30 9694 H 948.13 5.423 1.85967 0
M  V30 9695 H 946.527 5.87735 1.21194 0
M  V30 9696 H 947.597 4.84261 0.248913 0
M  V30 9697 N 948.94 -0.228186 1.55939 0
M  V30 9698 C 949.872 -1.30605 1.88348 0
M  V30 9699 C 950.885 -1.43375 0.771198 0
M  V30 9700 O 952.074 -1.44391 1.04945 0
M  V30 9701 C 949.174 -2.68248 2.07115 0
M  V30 9702 C 948.347 -2.77509 3.38094 0
M  V30 9703 C 947.406 -3.96121 3.46373 0
M  V30 9704 O 946.432 -3.8477 4.19453 0
M  V30 9705 N 947.634 -5.10132 2.77031 0
M  V30 9706 H 950.399 -1.03132 2.81396 0
M  V30 9707 H 947.96 -0.418245 1.56404 0
M  V30 9708 H 949.952 -3.45966 2.09976 0
M  V30 9709 H 948.522 -2.88348 1.20723 0
M  V30 9710 H 947.742 -1.8632 3.47388 0
M  V30 9711 H 949.03 -2.80662 4.2439 0
M  V30 9712 H 948.428 -5.22249 2.17424 0
M  V30 9713 H 946.985 -5.85916 2.85561 0
M  V30 9714 N 950.418 -1.49637 -0.494624 0
M  V30 9715 C 951.348 -1.69692 -1.60396 0
M  V30 9716 C 952.329 -0.545648 -1.61111 0
M  V30 9717 O 953.514 -0.782202 -1.77751 0
M  V30 9718 C 950.644 -1.76934 -2.9885 0
M  V30 9719 C 949.598 -2.91915 -3.13001 0
M  V30 9720 C 948.924 -2.84276 -4.5287 0
M  V30 9721 C 950.224 -4.32764 -2.92426 0
M  V30 9722 H 951.918 -2.6257 -1.43866 0
M  V30 9723 H 949.464 -1.26355 -0.690679 0
M  V30 9724 H 951.417 -1.8955 -3.76362 0
M  V30 9725 H 950.141 -0.806609 -3.16483 0
M  V30 9726 H 948.8 -2.78911 -2.37916 0
M  V30 9727 H 948.448 -1.85897 -4.67388 0
M  V30 9728 H 948.148 -3.61452 -4.63278 0
M  V30 9729 H 949.672 -2.98909 -5.32434 0
M  V30 9730 H 951.086 -4.46415 -3.59703 0
M  V30 9731 H 949.483 -5.1121 -3.143 0
M  V30 9732 H 950.553 -4.46765 -1.88491 0
M  V30 9733 N 951.896 0.746133 -1.38819 0
M  V30 9734 C 952.826 1.87344 -1.39372 0
M  V30 9735 C 953.807 1.68123 -0.258583 0
M  V30 9736 O 954.992 1.88606 -0.462769 0
M  V30 9737 C 952.122 3.24962 -1.22543 0
M  V30 9738 C 951.076 3.58799 -2.33339 0
M  V30 9739 C 950.402 4.95235 -2.01609 0
M  V30 9740 C 951.702 3.62911 -3.75624 0
M  V30 9741 H 953.396 1.87138 -2.33709 0
M  V30 9742 H 950.942 0.898937 -1.12495 0
M  V30 9743 H 952.895 4.03488 -1.21554 0
M  V30 9744 H 951.619 3.25667 -0.246707 0
M  V30 9745 H 950.278 2.82596 -2.33527 0
M  V30 9746 H 949.926 4.92508 -1.02202 0
M  V30 9747 H 949.626 5.18843 -2.75819 0
M  V30 9748 H 951.15 5.76131 -2.02251 0
M  V30 9749 H 952.564 4.31535 -3.77426 0
M  V30 9750 H 950.961 3.98031 -4.491 0
M  V30 9751 H 952.031 2.62967 -4.07402 0
M  V30 9752 N 953.375 1.23811 0.975125 0
M  V30 9753 C 954.603 1.10019 1.75224 0
M  V30 9754 C 955.018 -0.34791 1.85567 0
M  V30 9755 O 954.375 -1.24043 1.33864 0
M  V30 9756 C 954.426 1.72572 3.1765 0
M  V30 9757 O 954.147 3.11719 3.07836 0
M  V30 9758 C 955.648 1.64292 4.11732 0
M  V30 9759 H 952.868 0.38476 0.549728 0
M  V30 9760 H 955.412 1.63768 1.22476 0
M  V30 9761 H 953.567 1.22843 3.67408 0
M  V30 9762 H 953.981 3.42152 3.97533 0
M  V30 9763 H 955.455 2.12754 5.09352 0
M  V30 9764 H 955.932 0.602722 4.35045 0
M  V30 9765 H 956.538 2.13411 3.6788 0
M  V30 9766 N 954.853 -1.17469 1.05066 0
M  V30 9767 C 956.081 -1.9162 0.780334 0
M  V30 9768 C 956.496 -1.76745 -0.663817 0
M  V30 9769 O 955.853 -1.10377 -1.45338 0
M  V30 9770 C 955.904 -3.42723 1.14992 0
M  V30 9771 O 955.625 -3.57139 2.53739 0
M  V30 9772 C 957.126 -4.33952 0.905549 0
M  V30 9773 H 954.346 -0.608022 0.283814 0
M  V30 9774 H 956.89 -1.4897 1.401 0
M  V30 9775 H 955.045 -3.83124 0.57403 0
M  V30 9776 H 955.459 -4.5075 2.68189 0
M  V30 9777 H 956.933 -5.38487 1.21391 0
M  V30 9778 H 957.41 -4.38911 -0.159295 0
M  V30 9779 H 958.016 -3.99263 1.46522 0
M  V30 9780 N 956.331 -0.831506 -1.3388 0
M  V30 9781 C 957.278 -0.257449 -2.2936 0
M  V30 9782 C 958.248 0.622604 -1.5399 0
M  V30 9783 O 959.433 0.562432 -1.82322 0
M  V30 9784 C 956.573 0.567587 -3.404 0
M  V30 9785 C 955.686 -0.335666 -4.30694 0
M  V30 9786 C 954.821 0.499762 -5.28844 0
M  V30 9787 C 953.86 -0.402343 -6.10776 0
M  V30 9788 N 952.997 0.39452 -7.00991 0
M  V30 9789 H 957.837 -1.077 -2.77857 0
M  V30 9790 H 955.374 -0.542589 -1.36727 0
M  V30 9791 H 957.332 1.06133 -4.03474 0
M  V30 9792 H 955.962 1.35217 -2.93115 0
M  V30 9793 H 955.014 -0.94768 -3.68406 0
M  V30 9794 H 956.326 -1.02896 -4.88072 0
M  V30 9795 H 955.48 1.05763 -5.9741 0
M  V30 9796 H 954.219 1.22652 -4.72025 0
M  V30 9797 H 953.224 -0.972288 -5.41135 0
M  V30 9798 H 954.449 -1.12735 -6.69677 0
M  V30 9799 H 952.395 1.1048 -6.4663 0
M  V30 9800 H 952.312 -0.240209 -7.55618 0
M  V30 9801 H 953.58 0.934867 -7.73874 0
M  V30 9802 N 957.809 1.4625 -0.587256 0
M  V30 9803 C 959.034 2.07252 -0.0784517 0
M  V30 9804 C 959.459 1.43239 1.21919 0
M  V30 9805 O 958.817 0.517791 1.73749 0
M  V30 9806 C 958.865 3.60534 0.0691037 0
M  V30 9807 O 957.969 3.96773 1.12448 0
M  V30 9808 H 957.31 0.660825 -0.064859 0
M  V30 9809 H 959.84 1.87819 -0.811491 0
M  V30 9810 H 959.85 4.0708 0.273826 0
M  V30 9811 H 958.525 4.06516 -0.878514 0
M  V30 9812 H 957.102 3.6193 0.897852 0
M  V30 9813 N 959.287 0.325282 1.54207 0
M  V30 9814 C 960.564 -0.33113 1.92777 0
M  V30 9815 C 960.944 -1.69739 1.25506 0
M  V30 9816 O 960.292 -2.24983 0.399385 0
M  V30 9817 C 960.502 -0.421636 3.46444 0
M  V30 9818 C 961.85 -0.681111 4.19101 0
M  V30 9819 O 962.874 -0.504488 3.52609 0
M  V30 9820 O 961.733 -1.02196 5.3686 0
M  V30 9821 H 958.827 -0.18943 0.805013 0
M  V30 9822 H 961.373 0.375123 1.65502 0
M  V30 9823 H 960.145 0.537862 3.87586 0
M  V30 9824 H 959.768 -1.1754 3.79829 0
M  V30 9825 N 960.765 -1.57509 0.0534917 0
M  V30 9826 C 961.697 -2.08616 -0.949322 0
M  V30 9827 C 962.71 -1.01446 -1.27328 0
M  V30 9828 O 963.899 -1.29007 -1.23367 0
M  V30 9829 C 960.999 -2.51622 -2.27024 0
M  V30 9830 C 960.172 -3.82154 -2.12785 0
M  V30 9831 C 959.231 -4.11448 -3.2802 0
M  V30 9832 O 958.257 -4.81333 -3.03822 0
M  V30 9833 N 959.459 -3.63543 -4.52567 0
M  V30 9834 H 962.224 -2.95275 -0.5131 0
M  V30 9835 H 959.785 -1.61355 -0.132693 0
M  V30 9836 H 961.777 -2.68293 -3.02986 0
M  V30 9837 H 960.347 -1.70198 -2.62205 0
M  V30 9838 H 959.567 -3.75041 -1.21399 0
M  V30 9839 H 960.855 -4.67629 -2.00501 0
M  V30 9840 H 960.253 -3.07051 -4.75117 0
M  V30 9841 H 958.81 -3.85448 -5.25617 0
M  V30 9842 N 962.243 0.219913 -1.56058 0
M  V30 9843 C 963.176 1.29978 -1.87566 0
M  V30 9844 C 964.154 1.45131 -0.733203 0
M  V30 9845 O 965.338 1.60917 -0.981729 0
M  V30 9846 C 962.465 2.66988 -2.08411 0
M  V30 9847 C 961.511 2.68842 -3.31099 0
M  V30 9848 S 962.344 2.22745 -4.86975 0
M  V30 9849 C 963.5 3.61627 -5.10859 0
M  V30 9850 H 963.733 1.03059 -2.78866 0
M  V30 9851 H 961.266 0.422233 -1.48514 0
M  V30 9852 H 963.224 3.45866 -2.21104 0
M  V30 9853 H 961.885 2.91131 -1.17905 0
M  V30 9854 H 961.078 3.69526 -3.42734 0
M  V30 9855 H 960.68 1.98028 -3.17271 0
M  V30 9856 H 962.972 4.57328 -4.99857 0
M  V30 9857 H 963.915 3.54906 -6.12737 0
M  V30 9858 H 964.323 3.55391 -4.38586 0
M  V30 9859 N 963.721 1.49897 0.486681 0
M  V30 9860 C 964.631 1.70379 1.6127 0
M  V30 9861 C 965.647 0.58659 1.63814 0
M  V30 9862 O 966.823 0.863044 1.81971 0
M  V30 9863 C 963.888 1.77911 2.97571 0
M  V30 9864 C 962.949 3.01569 3.0554 0
M  V30 9865 C 962.182 3.08732 4.35339 0
M  V30 9866 O 962.405 2.23099 5.2496 0
M  V30 9867 O 961.339 4.01325 4.48578 0
M  V30 9868 H 965.165 2.65799 1.46916 0
M  V30 9869 H 962.75 1.33808 0.664516 0
M  V30 9870 H 964.632 1.85135 3.78554 0
M  V30 9871 H 963.307 0.856722 3.12157 0
M  V30 9872 H 962.214 2.99854 2.23693 0
M  V30 9873 H 963.547 3.93335 2.95886 0
M  V30 9874 N 965.199 -0.738761 1.39212 0
M  V30 9875 C 966.61 -1.31684 1.32348 0
M  V30 9876 C 966.961 -1.96195 -0.0139041 0
M  V30 9877 O 966.086 -1.96056 -0.916025 0
M  V30 9878 C 966.681 -2.39444 2.39691 0
M  V30 9879 C 965.24 -2.92935 2.36359 0
M  V30 9880 C 964.387 -1.66465 2.21776 0
M  V30 9881 H 967.338 -0.536543 1.49355 0
M  V30 9882 H 967.359 -3.19744 2.06262 0
M  V30 9883 H 966.871 -1.92463 3.37016 0
M  V30 9884 H 964.972 -3.44207 1.42662 0
M  V30 9885 H 965.085 -3.46306 3.31073 0
M  V30 9886 H 963.449 -1.90657 1.68884 0
M  V30 9887 H 964.232 -1.21541 3.21065 0
M  V30 9888 N 966.677 -1.24326 -0.968545 0
M  V30 9889 C 967.902 -1.1104 -1.75171 0
M  V30 9890 C 968.327 0.333109 -1.85127 0
M  V30 9891 O 967.685 1.24115 -1.32156 0
M  V30 9892 C 967.733 -1.75397 -3.15068 0
M  V30 9893 O 966.837 -1.02417 -3.9948 0
M  V30 9894 H 966.178 -0.388488 -0.538491 0
M  V30 9895 H 968.708 -1.64617 -1.215 0
M  V30 9896 H 968.718 -1.8112 -3.65595 0
M  V30 9897 H 967.393 -2.80427 -3.07138 0
M  V30 9898 H 965.97 -1.04475 -3.57966 0
M  V30 9899 N 968.156 1.1691 -1.05688 0
M  V30 9900 C 969.567 1.68915 -0.795273 0
M  V30 9901 C 969.918 1.83968 0.681925 0
M  V30 9902 O 969.043 1.53083 1.52953 0
M  V30 9903 C 969.638 3.06814 -1.43703 0
M  V30 9904 C 968.197 3.55965 -1.22335 0
M  V30 9905 C 967.344 2.32099 -1.51741 0
M  V30 9906 H 970.295 1.01357 -1.22116 0
M  V30 9907 H 970.316 3.70907 -0.849016 0
M  V30 9908 H 969.828 2.95826 -2.51214 0
M  V30 9909 H 967.929 3.72222 -0.16771 0
M  V30 9910 H 968.042 4.38427 -1.9318 0
M  V30 9911 H 966.406 2.36811 -0.937696 0
M  V30 9912 H 967.189 2.23715 -2.60397 0
M  V30 9913 N 969.634 0.838594 1.33437 0
M  V30 9914 C 970.564 0.286672 2.31734 0
M  V30 9915 C 971.545 -0.605451 1.5896 0
M  V30 9916 O 972.73 -0.529059 1.86854 0
M  V30 9917 C 969.86 -0.539311 3.43087 0
M  V30 9918 C 968.814 0.256997 4.27228 0
M  V30 9919 C 968.14 -0.692718 5.30194 0
M  V30 9920 C 969.44 1.47391 5.01072 0
M  V30 9921 H 971.134 1.10798 2.78144 0
M  V30 9922 H 968.68 0.534235 1.33723 0
M  V30 9923 H 970.633 -0.935724 4.1088 0
M  V30 9924 H 969.357 -1.39383 2.95364 0
M  V30 9925 H 968.016 0.634967 3.61059 0
M  V30 9926 H 967.664 -1.54363 4.78729 0
M  V30 9927 H 967.364 -0.164023 5.87371 0
M  V30 9928 H 968.888 -1.08665 6.00853 0
M  V30 9929 H 970.302 1.15067 5.61634 0
M  V30 9930 H 968.699 1.93937 5.67898 0
M  V30 9931 H 969.769 2.24382 4.29861 0
M  V30 9932 N 971.112 -1.45937 0.595003 0
M  V30 9933 C 972.075 -2.2888 -0.121102 0
M  V30 9934 C 973.075 -1.39075 -0.807149 0
M  V30 9935 O 974.265 -1.61326 -0.657228 0
M  V30 9936 C 971.397 -3.19778 -1.1813 0
M  V30 9937 H 972.59 -2.93673 0.607968 0
M  V30 9938 H 970.143 -1.5225 0.353495 0
M  V30 9939 H 970.878 -2.59759 -1.94154 0
M  V30 9940 H 970.663 -3.85914 -0.693724 0
M  V30 9941 H 972.153 -3.82176 -1.68319 0
M  V30 9942 N 972.59 -0.333456 -1.54032 0
M  V30 9943 C 973.815 0.270517 -2.05628 0
M  V30 9944 C 974.24 1.44231 -1.20744 0
M  V30 9945 O 973.598 1.79975 -0.218822 0
M  V30 9946 C 973.646 0.673251 -3.54259 0
M  V30 9947 O 972.75 1.77448 -3.72271 0
M  V30 9948 H 972.091 0.0469753 -0.662336 0
M  V30 9949 H 974.621 -0.484739 -1.98775 0
M  V30 9950 H 974.631 0.953194 -3.96709 0
M  V30 9951 H 973.306 -0.183747 -4.15494 0
M  V30 9952 H 971.883 1.49259 -3.41725 0
M  V30 9953 N 974.068 1.57479 -0.061844 0
M  V30 9954 C 975.293 1.97843 0.622311 0
M  V30 9955 C 975.718 0.939602 1.62951 0
M  V30 9956 O 975.076 -0.095958 1.81046 0
M  V30 9957 C 975.124 3.37262 1.2762 0
M  V30 9958 O 974.228 3.35943 2.39199 0
M  V30 9959 H 973.569 0.644212 0.160896 0
M  V30 9960 H 976.099 2.04165 -0.133409 0
M  V30 9961 H 976.109 3.74226 1.62539 0
M  V30 9962 H 974.784 4.12404 0.538112 0
M  V30 9963 H 973.361 3.10737 2.06148 0
M  V30 9964 N 975.546 -0.211634 1.56173 0
M  V30 9965 C 976.476 -1.26533 1.96244 0
M  V30 9966 C 977.457 -1.48362 0.832028 0
M  V30 9967 O 978.642 -1.60378 1.0951 0
M  V30 9968 C 975.772 -2.61307 2.2877 0
M  V30 9969 C 974.726 -2.54119 3.44395 0
M  V30 9970 C 974.052 -3.93014 3.62552 0
M  V30 9971 C 975.352 -2.08046 4.79076 0
M  V30 9972 H 977.046 -0.932407 2.84511 0
M  V30 9973 H 974.592 -0.447084 1.36884 0
M  V30 9974 H 976.545 -3.35188 2.55396 0
M  V30 9975 H 975.269 -2.96307 1.37367 0
M  V30 9976 H 973.928 -1.82694 3.17834 0
M  V30 9977 H 973.576 -4.25338 2.68508 0
M  V30 9978 H 973.276 -3.89083 4.40327 0
M  V30 9979 H 974.8 -4.68542 3.91537 0
M  V30 9980 H 976.214 -2.71676 5.04842 0
M  V30 9981 H 974.611 -2.15154 5.60204 0
M  V30 9982 H 975.681 -1.03306 4.73768 0
M  V30 9983 N 977.024 -1.50153 -0.478725 0
M  V30 9984 C 978.249 -1.64776 -1.2595 0
M  V30 9985 C 978.674 -0.327794 -1.85222 0
M  V30 9986 O 978.032 0.707418 -1.66929 0
M  V30 9987 C 978.08 -2.73551 -2.34952 0
M  V30 9988 O 977.184 -2.34273 -3.39397 0
M  V30 9989 H 976.525 -0.550769 -0.370877 0
M  V30 9990 H 979.055 -1.96482 -0.570605 0
M  V30 9991 H 979.065 -2.96397 -2.8038 0
M  V30 9992 H 977.74 -3.69354 -1.91181 0
M  V30 9993 H 976.317 -2.21844 -2.99733 0
M  V30 9994 N 978.502 0.731368 -1.39602 0
M  V30 9995 C 979.779 1.48308 -1.27531 0
M  V30 9996 C 980.159 2.10795 0.113482 0
M  V30 9997 O 979.507 1.98886 1.12501 0
M  V30 9998 C 979.717 2.53156 -2.40235 0
M  V30 9999 C 981.065 3.19436 -2.79725 0
M  V30 10000 O 982.089 2.6347 -2.39712 0
M  V30 10001 O 980.948 4.20714 -3.48801 0
M  V30 10002 H 978.042 0.658753 -0.499973 0
M  V30 10003 H 980.588 0.764884 -1.51485 0
M  V30 10004 H 979.36 2.05387 -3.33064 0
M  V30 10005 H 978.983 3.3253 -2.17966 0
M  V30 10006 N 979.98 1.24838 0.961938 0
M  V30 10007 C 981.208 1.11871 1.74047 0
M  V30 10008 C 981.623 -0.328209 1.85925 0
M  V30 10009 O 980.98 -1.22616 1.35173 0
M  V30 10010 C 981.031 1.75931 3.15801 0
M  V30 10011 O 980.752 3.14967 3.04512 0
M  V30 10012 C 982.253 1.68649 4.09966 0
M  V30 10013 H 979.473 0.390569 0.545616 0
M  V30 10014 H 982.017 1.65058 1.20732 0
M  V30 10015 H 980.172 1.26733 3.66084 0
M  V30 10016 H 980.586 3.46349 3.93882 0
M  V30 10017 H 982.06 2.18144 5.07067 0
M  V30 10018 H 982.537 0.648831 4.34381 0
M  V30 10019 H 983.143 2.17301 3.65596 0
M  V30 10020 N 981.458 -1.16348 1.06306 0
M  V30 10021 C 982.406 -2.22799 0.668087 0
M  V30 10022 C 983.4 -1.66426 -0.316051 0
M  V30 10023 O 984.606 -1.79089 -0.180902 0
M  V30 10024 H 980.981 -0.725487 0.19792 0
M  V30 10025 H 982.952 -2.53401 1.57577 0
M  V30 10026 C 981.701 -3.47628 0.0706797 0
M  V30 10027 H 981.024 -3.9132 0.819064 0
M  V30 10028 H 982.464 -4.23666 -0.16816 0
M  V30 10029 C 980.923 -3.15343 -1.18577 0
M  V30 10030 O 981.453 -3.31158 -2.27371 0
M  V30 10031 N 979.659 -2.69472 -1.08779 0
M  V30 10032 H 979.206 -2.56803 -0.202447 0
M  V30 10033 H 979.164 -2.48244 -1.92931 0
M  V30 10034 N 982.937 -0.845659 -1.3299 0
M  V30 10035 C 983.884 -0.281761 -2.29074 0
M  V30 10036 C 984.854 0.606237 -1.54641 0
M  V30 10037 O 986.039 0.543063 -1.82908 0
M  V30 10038 C 983.179 0.531451 -3.40983 0
M  V30 10039 C 982.292 -0.381328 -4.30314 0
M  V30 10040 C 981.427 0.443643 -5.29344 0
M  V30 10041 C 980.466 -0.467101 -6.10315 0
M  V30 10042 N 979.603 0.320148 -7.0137 0
M  V30 10043 H 984.443 -1.10641 -2.76699 0
M  V30 10044 H 981.98 -0.55706 -1.36144 0
M  V30 10045 H 983.938 1.01848 -4.04577 0
M  V30 10046 H 982.568 1.32101 -2.94532 0
M  V30 10047 H 981.62 -0.986701 -3.6738 0
M  V30 10048 H 982.932 -1.08067 -4.86953 0
M  V30 10049 H 982.086 0.994212 -5.98498 0
M  V30 10050 H 980.825 1.17639 -4.73299 0
M  V30 10051 H 979.83 -1.02963 -5.40073 0
M  V30 10052 H 981.055 -1.19832 -6.68444 0
M  V30 10053 H 979.001 1.03615 -6.47765 0
M  V30 10054 H 978.918 -0.320338 -7.55321 0
M  V30 10055 H 980.186 0.852735 -7.74822 0
M  V30 10056 N 984.415 1.45619 -0.602734 0
M  V30 10057 C 985.692 1.9558 -0.0282472 0
M  V30 10058 C 986.072 1.54523 1.43826 0
M  V30 10059 O 985.42 0.805456 2.13833 0
M  V30 10060 C 985.63 3.48298 -0.221263 0
M  V30 10061 C 986.978 4.24483 -0.0995249 0
M  V30 10062 O 988.002 3.55879 -0.151132 0
M  V30 10063 O 986.861 5.46497 0.0194454 0
M  V30 10064 H 983.955 0.826104 0.0384897 0
M  V30 10065 H 986.501 1.55808 -0.672456 0
M  V30 10066 H 985.273 3.71134 -1.23997 0
M  V30 10067 H 984.896 3.94948 0.458437 0
M  V30 10068 N 985.893 0.34162 1.53853 0
M  V30 10069 C 987.118 -0.259608 2.05769 0
M  V30 10070 C 987.543 -1.43588 1.21507 0
M  V30 10071 O 986.901 -1.79856 0.228364 0
M  V30 10072 C 986.949 -0.654455 3.54611 0
M  V30 10073 O 986.053 -1.75472 3.73207 0
M  V30 10074 H 985.394 -0.0434621 0.662576 0
M  V30 10075 H 987.924 0.495274 1.98515 0
M  V30 10076 H 987.934 -0.932142 3.97209 0
M  V30 10077 H 986.609 0.205779 4.15391 0
M  V30 10078 H 985.186 -1.47444 3.42512 0
M  V30 10079 N 987.371 -1.57444 0.0701946 0
M  V30 10080 C 988.599 -1.97754 -0.608358 0
M  V30 10081 C 989.014 -0.948496 -1.63245 0
M  V30 10082 O 988.371 0.065046 -1.82384 0
M  V30 10083 C 988.422 -3.38142 -1.27836 0
M  V30 10084 O 988.143 -4.37104 -0.295255 0
M  V30 10085 C 989.644 -3.93318 -2.04489 0
M  V30 10086 H 986.864 -0.650398 -0.164997 0
M  V30 10087 H 989.408 -2.04006 0.142124 0
M  V30 10088 H 987.563 -3.32982 -1.97994 0
M  V30 10089 H 987.977 -5.18732 -0.77574 0
M  V30 10090 H 989.451 -4.93774 -2.46762 0
M  V30 10091 H 989.928 -3.29774 -2.90079 0
M  V30 10092 H 990.534 -4.01875 -1.39201 0
M  V30 10093 N 988.849 0.203349 -1.56283 0
M  V30 10094 C 990.097 0.923183 -1.79782 0
M  V30 10095 C 990.418 1.84134 -0.64185 0
M  V30 10096 O 989.688 1.92922 0.340292 0
M  V30 10097 H 988.268 0.343881 -0.66314 0
M  V30 10098 H 990.93 0.210837 -1.93756 0
M  V30 10099 H 990.026 1.51921 -2.72629 0
M  V30 10100 N 990.327 1.50405 0.470755 0
M  V30 10101 C 991.552 1.65442 1.25075 0
M  V30 10102 C 991.977 0.337612 1.85045 0
M  V30 10103 O 991.335 -0.698555 1.67302 0
M  V30 10104 C 991.383 2.74793 2.33498 0
M  V30 10105 O 990.487 2.36069 3.3815 0
M  V30 10106 H 989.828 0.552728 0.367951 0
M  V30 10107 H 992.358 1.96782 0.560177 0
M  V30 10108 H 992.368 2.97879 2.78804 0
M  V30 10109 H 991.043 3.70363 1.8922 0
M  V30 10110 H 989.62 2.2343 2.98552 0
M  V30 10111 N 991.805 -0.723954 1.39988 0
M  V30 10112 C 992.735 -1.85103 1.42335 0
M  V30 10113 C 993.716 -1.6769 0.285297 0
M  V30 10114 O 994.901 -1.87846 0.492716 0
M  V30 10115 C 992.031 -3.22972 1.27697 0
M  V30 10116 C 990.985 -3.55041 2.39018 0
M  V30 10117 C 990.311 -4.91965 2.09462 0
M  V30 10118 C 991.611 -3.56889 3.8135 0
M  V30 10119 H 993.305 -1.83396 2.36656 0
M  V30 10120 H 990.851 -0.880926 1.13911 0
M  V30 10121 H 992.804 -4.01503 1.27958 0
M  V30 10122 H 991.528 -3.25233 0.298487 0
M  V30 10123 H 990.187 -2.78845 2.37993 0
M  V30 10124 H 989.835 -4.90819 1.10025 0
M  V30 10125 H 989.535 -5.14389 2.84038 0
M  V30 10126 H 991.059 -5.7284 2.11391 0
M  V30 10127 H 992.473 -4.25476 3.84243 0
M  V30 10128 H 990.87 -3.90836 4.55376 0
M  V30 10129 H 991.94 -2.56452 4.11534 0
M  V30 10130 N 993.283 -1.25346 -0.955304 0
M  V30 10131 C 994.694 -1.09173 -1.51453 0
M  V30 10132 C 995.045 0.332755 -1.93358 0
M  V30 10133 O 994.17 1.22264 -1.78551 0
M  V30 10134 C 994.765 -1.97564 -2.75234 0
M  V30 10135 C 993.324 -1.85579 -3.27471 0
M  V30 10136 C 992.471 -1.91755 -2.00313 0
M  V30 10137 H 995.422 -1.38642 -0.772271 0
M  V30 10138 H 995.443 -1.51523 -3.49029 0
M  V30 10139 H 994.955 -3.01233 -2.44704 0
M  V30 10140 H 993.056 -0.847906 -3.62824 0
M  V30 10141 H 993.169 -2.70353 -3.95533 0
M  V30 10142 H 991.533 -1.35633 -2.15582 0
M  V30 10143 H 992.316 -2.97028 -1.72132 0
M  V30 10144 N 994.761 1.15782 -1.06922 0
M  V30 10145 C 996.009 1.86097 -0.788192 0
M  V30 10146 C 996.33 1.82475 0.687606 0
M  V30 10147 O 995.6 1.26266 1.49778 0
M  V30 10148 H 994.18 0.689008 -0.288577 0
M  V30 10149 H 996.842 1.40377 -1.35205 0
M  V30 10150 H 995.938 2.91358 -1.1188 0
M  V30 10151 N 996.239 0.8527 1.3254 0
M  V30 10152 C 997.464 0.468157 2.02047 0
M  V30 10153 C 997.889 -0.926967 1.63673 0
M  V30 10154 O 997.247 -1.60855 0.836378 0
M  V30 10155 C 997.295 0.612519 3.5536 0
M  V30 10156 O 996.399 -0.355506 4.10865 0
M  V30 10157 H 995.74 0.188401 0.636711 0
M  V30 10158 H 998.27 1.15135 1.6913 0
M  V30 10159 H 998.28 0.499315 4.04933 0
M  V30 10160 H 996.955 1.62988 3.82632 0
M  V30 10161 H 995.532 -0.198703 3.7237 0
M  V30 10162 N 997.718 -1.45297 0.610449 0
M  V30 10163 C 998.966 -2.01819 0.106548 0
M  V30 10164 C 999.287 -1.48102 -1.26849 0
M  V30 10165 O 998.557 -0.676411 -1.83852 0
M  V30 10166 H 997.137 -0.746113 0.0363982 0
M  V30 10167 H 999.799 -1.78061 0.792491 0
M  V30 10168 H 998.895 -3.12045 0.0585 0
M  V30 10169 N 999.196 -0.349774 -1.5367 0
M  V30 10170 C 1000.42 0.248692 -2.05904 0
M  V30 10171 C 1000.85 1.42942 -1.22267 0
M  V30 10172 O 1000.2 1.79732 -0.237899 0
M  V30 10173 C 1000.25 0.635639 -3.54953 0
M  V30 10174 O 999.356 1.7349 -3.74132 0
M  V30 10175 H 998.697 0.0399477 -0.662797 0
M  V30 10176 H 1001.23 -0.505795 -1.9825 0
M  V30 10177 H 1001.24 0.911064 -3.97698 0
M  V30 10178 H 999.912 -0.227805 -4.15276 0
M  V30 10179 H 998.489 1.45626 -3.43289 0
M  V30 10180 N 1000.67 1.57404 -0.0785433 0
M  V30 10181 C 1001.9 1.98074 0.597862 0
M  V30 10182 C 1002.32 0.95714 1.6274 0
M  V30 10183 O 1001.67 -0.0553728 1.82416 0
M  V30 10184 C 1001.72 3.38815 1.26041 0
M  V30 10185 O 1001.45 4.37254 0.27207 0
M  V30 10186 C 1002.95 3.94397 2.024 0
M  V30 10187 H 1000.17 0.651263 0.161546 0
M  V30 10188 H 1002.71 2.03927 -0.152941 0
M  V30 10189 H 1000.87 3.34028 1.96225 0
M  V30 10190 H 1001.28 5.19136 0.74822 0
M  V30 10191 H 1002.75 4.95075 2.4414 0
M  V30 10192 H 1003.23 3.31308 2.88326 0
M  V30 10193 H 1003.84 4.02607 1.37068 0
M  V30 10194 N 1002.15 -0.195058 1.56388 0
M  V30 10195 C 1003.1 -1.24584 1.90952 0
M  V30 10196 C 1004.09 -1.40993 0.77522 0
M  V30 10197 O 1005.28 -1.43363 1.03808 0
M  V30 10198 C 1002.41 -2.59064 2.25258 0
M  V30 10199 C 1001.49 -2.46447 3.45145 0
M  V30 10200 N 1001.88 -2.0351 4.63052 0
M  V30 10201 C 1000.18 -2.77339 3.49283 0
M  V30 10202 C 1000.88 -2.02785 5.45209 0
M  V30 10203 N 999.859 -2.4429 4.85616 0
M  V30 10204 H 1003.66 -0.9052 2.79613 0
M  V30 10205 H 1001.17 -0.403493 1.57308 0
M  V30 10206 H 1003.17 -3.34963 2.48205 0
M  V30 10207 H 1001.83 -2.93951 1.37924 0
M  V30 10208 H 1002.84 -1.74219 4.87717 0
M  V30 10209 H 999.52 -3.16423 2.72365 0
M  V30 10210 H 1000.91 -1.71489 6.49647 0
M  V30 10211 N 1003.63 -1.50653 -0.462772 0
M  V30 10212 C 1004.88 -1.61737 -1.21184 0
M  V30 10213 C 1005.2 -0.32369 -1.92295 0
M  V30 10214 O 1004.47 0.659269 -1.84473 0
M  V30 10215 H 1003.05 -0.596015 -0.450306 0
M  V30 10216 H 1005.71 -1.87469 -0.533051 0
M  V30 10217 H 1004.81 -2.43262 -1.95525 0
M  V30 10218 N 1005.11 0.71652 -1.4037 0
M  V30 10219 C 1006.34 1.50563 -1.4191 0
M  V30 10220 C 1006.75 1.88791 -0.0185456 0
M  V30 10221 O 1006.11 1.55378 0.957289 0
M  V30 10222 C 1006.16 2.78155 -2.30894 0
M  V30 10223 O 1005.88 2.41543 -3.65497 0
M  V30 10224 C 1007.38 3.72057 -2.41016 0
M  V30 10225 H 1004.6 0.464679 -0.48406 0
M  V30 10226 H 1007.15 0.883927 -1.8441 0
M  V30 10227 H 1005.3 3.36611 -1.91759 0
M  V30 10228 H 1005.71 3.23636 -4.12747 0
M  V30 10229 H 1007.19 4.58426 -3.07489 0
M  V30 10230 H 1007.67 4.15098 -1.43492 0
M  V30 10231 H 1008.27 3.19512 -2.80699 0
M  V30 10232 N 1006.59 1.25851 0.948643 0
M  V30 10233 C 1007.81 1.13813 1.73382 0
M  V30 10234 C 1008.24 -0.303615 1.85633 0
M  V30 10235 O 1007.59 -1.21997 1.34114 0
M  V30 10236 C 1007.64 1.80388 3.12238 0
M  V30 10237 O 1006.75 1.08759 3.978 0
M  V30 10238 H 1006.09 0.397006 0.532243 0
M  V30 10239 H 1008.62 1.66529 1.18866 0
M  V30 10240 H 1008.63 1.86913 3.62667 0
M  V30 10241 H 1007.3 2.85278 3.02637 0
M  V30 10242 H 1005.88 1.10157 3.56258 0
M  V30 10243 N 1008.06 -1.15214 1.07534 0
M  V30 10244 C 1008.99 -2.2216 0.718837 0
M  V30 10245 C 1009.98 -1.6753 -0.29459 0
M  V30 10246 O 1011.16 -1.93481 -0.166931 0
M  V30 10247 C 1008.29 -3.471 0.117836 0
M  V30 10248 C 1007.24 -4.14701 1.05862 0
M  V30 10249 C 1006.57 -5.3374 0.320284 0
M  V30 10250 C 1007.87 -4.64254 2.39302 0
M  V30 10251 H 1009.56 -2.52237 1.61297 0
M  V30 10252 H 1007.11 -1.21239 0.776992 0
M  V30 10253 H 1009.06 -4.21156 -0.143519 0
M  V30 10254 H 1007.79 -3.16361 -0.811389 0
M  V30 10255 H 1006.45 -3.42589 1.30493 0
M  V30 10256 H 1006.09 -4.99257 -0.61246 0
M  V30 10257 H 1005.79 -5.79912 0.947381 0
M  V30 10258 H 1007.32 -6.10563 0.0667721 0
M  V30 10259 H 1008.73 -5.29827 2.18988 0
M  V30 10260 H 1007.13 -5.21095 2.97623 0
M  V30 10261 H 1008.2 -3.79793 3.01472 0
M  V30 10262 N 1009.54 -0.859717 -1.32086 0
M  V30 10263 C 1010.49 -0.306042 -2.28762 0
M  V30 10264 C 1011.46 0.589801 -1.55276 0
M  V30 10265 O 1012.64 0.523633 -1.83474 0
M  V30 10266 C 1009.78 0.495256 -3.41528 0
M  V30 10267 C 1008.9 -0.426947 -4.29885 0
M  V30 10268 C 1008.03 0.387474 -5.29785 0
M  V30 10269 C 1007.07 -0.531807 -6.09785 0
M  V30 10270 N 1006.21 0.245741 -7.0167 0
M  V30 10271 H 1011.05 -1.1357 -2.7551 0
M  V30 10272 H 1008.59 -0.571468 -1.35546 0
M  V30 10273 H 1010.54 0.97551 -4.05635 0
M  V30 10274 H 1009.17 1.28969 -2.95917 0
M  V30 10275 H 1008.23 -1.02561 -3.66313 0
M  V30 10276 H 1009.54 -1.13226 -4.85779 0
M  V30 10277 H 1008.69 0.930677 -5.99519 0
M  V30 10278 H 1007.43 1.12612 -4.74521 0
M  V30 10279 H 1006.44 -1.08685 -5.3895 0
M  V30 10280 H 1007.66 -1.26915 -6.67135 0
M  V30 10281 H 1005.61 0.967391 -6.48828 0
M  V30 10282 H 1005.52 -0.400432 -7.54939 0
M  V30 10283 H 1006.79 0.770507 -7.75683 0
M  V30 10284 N 1011.02 1.44971 -0.618145 0
M  V30 10285 C 1011.93 2.34403 0.0960457 0
M  V30 10286 C 1012.95 1.51862 0.849355 0
M  V30 10287 O 1014.12 1.84632 0.804557 0
M  V30 10288 C 1011.19 3.29646 1.07397 0
M  V30 10289 C 1010.25 4.28095 0.321466 0
M  V30 10290 C 1009.48 5.18787 1.25281 0
M  V30 10291 O 1009.7 5.1313 2.49106 0
M  V30 10292 O 1008.64 5.97282 0.744156 0
M  V30 10293 H 1012.46 2.96898 -0.639176 0
M  V30 10294 H 1010.05 1.44529 -0.37837 0
M  V30 10295 H 1011.93 3.88307 1.63694 0
M  V30 10296 H 1010.61 2.69702 1.79004 0
M  V30 10297 H 1009.51 3.73019 -0.284223 0
M  V30 10298 H 1010.85 4.90923 -0.354315 0
M  V30 10299 N 1012.5 0.357919 1.53482 0
M  V30 10300 C 1013.45 -0.49217 2.25491 0
M  V30 10301 C 1014.42 -1.08382 1.25867 0
M  V30 10302 O 1015.6 -1.11775 1.54632 0
M  V30 10303 C 1012.74 -1.6299 3.04185 0
M  V30 10304 C 1011.85 -1.06416 4.18688 0
M  V30 10305 C 1010.99 -2.17037 4.84839 0
M  V30 10306 C 1010.03 -1.57889 5.91386 0
M  V30 10307 N 1009.16 -2.6231 6.51259 0
M  V30 10308 H 1014 0.128412 2.97723 0
M  V30 10309 H 1011.54 0.0751423 1.46908 0
M  V30 10310 H 1013.5 -2.29993 3.48079 0
M  V30 10311 H 1012.13 -2.22125 2.34223 0
M  V30 10312 H 1011.18 -0.284635 3.79334 0
M  V30 10313 H 1012.49 -0.591654 4.95279 0
M  V30 10314 H 1011.65 -2.91876 5.31877 0
M  V30 10315 H 1010.39 -2.67636 4.07703 0
M  V30 10316 H 1009.39 -0.815605 5.43717 0
M  V30 10317 H 1010.62 -1.08123 6.70437 0
M  V30 10318 H 1008.56 -3.12137 5.7698 0
M  V30 10319 H 1008.48 -2.19724 7.23365 0
M  V30 10320 H 1009.75 -3.36875 7.02948 0
M  V30 10321 N 1013.98 -1.5736 0.0868897 0
M  V30 10322 C 1014.93 -2.10105 -0.885435 0
M  V30 10323 C 1015.91 -1.01417 -1.24913 0
M  V30 10324 O 1017.1 -1.27704 -1.22558 0
M  V30 10325 C 1014.23 -2.67837 -2.14752 0
M  V30 10326 C 1013.32 -3.83553 -1.80963 0
M  V30 10327 N 1013.71 -4.91917 -1.17693 0
M  V30 10328 C 1012.01 -3.93134 -2.10622 0
M  V30 10329 C 1012.71 -5.72628 -1.02332 0
M  V30 10330 N 1011.68 -5.2139 -1.53796 0
M  V30 10331 H 1015.49 -2.91272 -0.392179 0
M  V30 10332 H 1013 -1.61981 -0.116566 0
M  V30 10333 H 1015 -3.03948 -2.85344 0
M  V30 10334 H 1013.66 -1.88122 -2.64651 0
M  V30 10335 H 1014.67 -5.10964 -0.844731 0
M  V30 10336 H 1011.34 -3.24416 -2.62793 0
M  V30 10337 H 1012.73 -6.69813 -0.529171 0
M  V30 10338 N 1015.45 0.186762 -1.56489 0
M  V30 10339 C 1016.4 1.23141 -1.95205 0
M  V30 10340 C 1017.37 1.44799 -0.81378 0
M  V30 10341 O 1018.56 1.57795 -1.07263 0
M  V30 10342 C 1015.7 2.56926 -2.30397 0
M  V30 10343 C 1014.81 2.42777 -3.57328 0
M  V30 10344 C 1013.94 3.69323 -3.81804 0
M  V30 10345 C 1012.98 3.50041 -5.02133 0
M  V30 10346 N 1012.12 4.68619 -5.2282 0
M  V30 10347 H 1016.96 0.894256 -2.84266 0
M  V30 10348 H 1014.5 0.430187 -1.40669 0
M  V30 10349 H 1016.46 3.3488 -2.4882 0
M  V30 10350 H 1015.09 2.88668 -1.44466 0
M  V30 10351 H 1014.14 1.56078 -3.46906 0
M  V30 10352 H 1015.45 2.24468 -4.45439 0
M  V30 10353 H 1014.6 4.55715 -4.00511 0
M  V30 10354 H 1013.34 3.90595 -2.92039 0
M  V30 10355 H 1012.35 2.62034 -4.8334 0
M  V30 10356 H 1013.57 3.30206 -5.93414 0
M  V30 10357 H 1011.52 4.90139 -4.36005 0
M  V30 10358 H 1011.44 4.53165 -6.05126 0
M  V30 10359 H 1012.7 5.56338 -5.45993 0
M  V30 10360 N 1016.93 1.50896 0.454776 0
M  V30 10361 C 1018.18 1.61936 1.20248 0
M  V30 10362 C 1018.49 0.332983 1.92745 0
M  V30 10363 O 1019.7 0.322512 2.69578 0
M  V30 10364 C 1018.16 2.85916 2.18587 0
M  V30 10365 C 1017.76 4.21492 1.51818 0
M  V30 10366 C 1019.51 3.06307 2.93898 0
M  V30 10367 C 1017.42 5.3664 2.48539 0
M  V30 10368 H 1016.35 0.603098 0.452536 0
M  V30 10369 H 1019 1.77345 0.471257 0
M  V30 10370 H 1017.38 2.64101 2.95071 0
M  V30 10371 H 1018.55 4.53623 0.810123 0
M  V30 10372 H 1016.87 4.06837 0.887265 0
M  V30 10373 H 1019.46 3.89507 3.66317 0
M  V30 10374 H 1019.81 2.18683 3.54236 0
M  V30 10375 H 1020.34 3.2838 2.24525 0
M  V30 10376 H 1017.08 6.26469 1.92916 0
M  V30 10377 H 1016.6 5.08907 3.17449 0
M  V30 10378 H 1018.28 5.67881 3.10033 0
M  V30 10379 N 1018.41 -0.709066 1.40748 0
M  V30 10380 C 1019.34 -1.83583 1.4429 0
M  V30 10381 C 1020.32 -1.67378 0.303067 0
M  V30 10382 O 1021.51 -1.87312 0.512612 0
M  V30 10383 C 1018.64 -3.21599 1.31116 0
M  V30 10384 C 1017.59 -3.52486 2.4277 0
M  V30 10385 C 1016.92 -4.89716 2.14668 0
M  V30 10386 C 1018.22 -3.52824 3.85113 0
M  V30 10387 H 1019.91 -1.80876 2.38588 0
M  V30 10388 H 1017.46 -0.868795 1.14839 0
M  V30 10389 H 1019.41 -4.00123 1.32209 0
M  V30 10390 H 1018.13 -3.24898 0.332965 0
M  V30 10391 H 1016.79 -2.76305 2.40937 0
M  V30 10392 H 1016.44 -4.89625 1.15224 0
M  V30 10393 H 1016.14 -5.11347 2.89478 0
M  V30 10394 H 1017.66 -5.70566 2.17455 0
M  V30 10395 H 1019.08 -4.21377 3.88734 0
M  V30 10396 H 1017.48 -3.85984 4.59496 0
M  V30 10397 H 1018.55 -2.52073 4.14231 0
M  V30 10398 N 1019.89 -1.26353 -0.941956 0
M  V30 10399 C 1020.84 -1.04513 -2.02635 0
M  V30 10400 C 1021.82 0.0222314 -1.60885 0
M  V30 10401 O 1023.02 -0.194629 -1.75927 0
M  V30 10402 C 1020.14 -0.679282 -3.36512 0
M  V30 10403 C 1019.23 -1.78406 -3.8475 0
M  V30 10404 N 1019.62 -3.02136 -4.05645 0
M  V30 10405 C 1017.92 -1.66748 -4.13656 0
M  V30 10406 C 1018.62 -3.73932 -4.45589 0
M  V30 10407 N 1017.6 -3.01616 -4.52248 0
M  V30 10408 H 1021.4 -1.9843 -2.16801 0
M  V30 10409 H 1018.91 -1.16858 -1.12774 0
M  V30 10410 H 1020.91 -0.503975 -4.13843 0
M  V30 10411 H 1019.57 0.252418 -3.23717 0
M  V30 10412 H 1020.58 -3.38049 -3.92356 0
M  V30 10413 H 1017.26 -0.805627 -4.09653 0
M  V30 10414 H 1018.65 -4.80201 -4.69954 0
M  V30 10415 N 1021.37 1.14642 -1.08144 0
M  V30 10416 C 1022.78 1.37604 -0.808537 0
M  V30 10417 C 1022.98 1.92868 0.583452 0
M  V30 10418 O 1022.04 2.13964 1.34073 0
M  V30 10419 C 1023.35 2.3396 -1.889 0
M  V30 10420 C 1024.9 2.47605 -1.9147 0
M  V30 10421 C 1025.38 3.47258 -2.98623 0
M  V30 10422 N 1026.87 3.548 -2.97777 0
M  V30 10423 C 1027.6 4.31751 -3.77331 0
M  V30 10424 N 1027.1 5.11966 -4.66757 0
M  V30 10425 N 1028.89 4.2692 -3.65645 0
M  V30 10426 H 1021.04 0.771154 -1.97906 0
M  V30 10427 H 1023.3 0.401694 -0.858688 0
M  V30 10428 H 1023.01 2.00484 -2.88962 0
M  V30 10429 H 1022.88 3.33833 -1.756 0
M  V30 10430 H 1025.27 2.80375 -0.920548 0
M  V30 10431 H 1025.35 1.47702 -2.08848 0
M  V30 10432 H 1025 3.15223 -3.98243 0
M  V30 10433 H 1024.93 4.46935 -2.7849 0
M  V30 10434 H 1027.42 2.97553 -2.3296 0
M  V30 10435 H 1027.73 5.67951 -5.24072 0
M  V30 10436 H 1026.08 5.11245 -4.70801 0
M  V30 10437 H 1029.27 3.63322 -2.95152 0
M  V30 10438 H 1029.44 4.8664 -4.27885 0
M  V30 10439 N 1022.85 0.866709 1.31628 0
M  V30 10440 C 1023.78 0.335762 2.31073 0
M  V30 10441 C 1024.76 -0.571597 1.60209 0
M  V30 10442 O 1025.94 -0.489306 1.87935 0
M  V30 10443 C 1023.07 -0.466416 3.44154 0
M  V30 10444 C 1022.03 0.347561 4.26586 0
M  V30 10445 C 1021.35 -0.5801 5.31544 0
M  V30 10446 C 1022.65 1.57986 4.97833 0
M  V30 10447 H 1024.35 1.16673 2.75731 0
M  V30 10448 H 1021.89 0.56248 1.3256 0
M  V30 10449 H 1023.84 -0.84836 4.12772 0
M  V30 10450 H 1022.57 -1.33086 2.98254 0
M  V30 10451 H 1021.23 0.71141 3.59631 0
M  V30 10452 H 1020.88 -1.44174 4.81895 0
M  V30 10453 H 1020.58 -0.0393965 5.87587 0
M  V30 10454 H 1022.1 -0.958958 6.03023 0
M  V30 10455 H 1023.51 1.26954 5.59067 0
M  V30 10456 H 1021.91 2.05939 5.63657 0
M  V30 10457 H 1022.98 2.3345 4.25005 0
M  V30 10458 N 1024.32 -1.44642 0.625825 0
M  V30 10459 C 1025.25 -2.33397 -0.0692188 0
M  V30 10460 C 1026.23 -1.47898 -0.840241 0
M  V30 10461 O 1027.42 -1.7663 -0.807176 0
M  V30 10462 C 1024.55 -3.30888 -1.055 0
M  V30 10463 C 1023.5 -4.26164 -0.395968 0
M  V30 10464 C 1022.83 -5.13483 -1.49128 0
M  V30 10465 C 1024.13 -5.17663 0.694433 0
M  V30 10466 H 1025.82 -2.91763 0.671925 0
M  V30 10467 H 1023.37 -1.40294 0.324573 0
M  V30 10468 H 1025.32 -3.91861 -1.54993 0
M  V30 10469 H 1024.05 -2.7072 -1.82696 0
M  V30 10470 H 1022.71 -3.66516 0.0782691 0
M  V30 10471 H 1022.35 -4.49672 -2.25399 0
M  V30 10472 H 1022.05 -5.78038 -1.05573 0
M  V30 10473 H 1023.58 -5.77327 -1.98813 0
M  V30 10474 H 1024.99 -5.72602 0.282818 0
M  V30 10475 H 1023.39 -5.90793 1.05281 0
M  V30 10476 H 1024.46 -4.58994 1.56372 0
M  V30 10477 N 1025.8 -0.366053 -1.5329 0
M  V30 10478 C 1026.73 0.514916 -2.23341 0
M  V30 10479 C 1027.75 1.04579 -1.24768 0
M  V30 10480 O 1028.94 0.952084 -1.50989 0
M  V30 10481 C 1026.04 1.72374 -2.91788 0
M  V30 10482 C 1025.21 1.32429 -4.16871 0
M  V30 10483 C 1024.27 2.39524 -4.68524 0
M  V30 10484 O 1023.29 2.01895 -5.32191 0
M  V30 10485 N 1024.5 3.71116 -4.46378 0
M  V30 10486 H 1027.26 -0.0851272 -2.99579 0
M  V30 10487 H 1024.82 -0.191255 -1.60766 0
M  V30 10488 H 1026.81 2.43496 -3.23252 0
M  V30 10489 H 1025.38 2.23064 -2.19 0
M  V30 10490 H 1024.6 0.442901 -3.91704 0
M  V30 10491 H 1025.89 1.03372 -4.98188 0
M  V30 10492 H 1025.29 4.04463 -3.95508 0
M  V30 10493 H 1023.85 4.38341 -4.82391 0
M  V30 10494 N 1027.28 1.57312 -0.0952337 0
M  V30 10495 C 1028.56 1.85822 0.610715 0
M  V30 10496 C 1028.94 0.992114 1.86334 0
M  V30 10497 O 1028.28 0.0645669 2.28409 0
M  V30 10498 C 1028.49 3.36492 0.925967 0
M  V30 10499 C 1029.84 4.0455 1.28936 0
M  V30 10500 O 1030.87 3.41374 1.01698 0
M  V30 10501 O 1029.73 5.16024 1.79949 0
M  V30 10502 H 1026.82 0.768454 0.305626 0
M  V30 10503 H 1029.37 1.69217 -0.127941 0
M  V30 10504 H 1028.14 3.91282 0.0373127 0
M  V30 10505 H 1027.76 3.58443 1.7206 0
M  V30 10506 N 1028.76 -0.17846 1.56586 0
M  V30 10507 C 1029.98 -0.916061 1.86073 0
M  V30 10508 C 1030.41 -1.75349 0.680754 0
M  V30 10509 O 1029.77 -1.77479 -0.37028 0
M  V30 10510 C 1029.81 -1.77445 3.1392 0
M  V30 10511 O 1028.92 -2.87524 2.95641 0
M  V30 10512 H 1028.26 -0.257031 0.612234 0
M  V30 10513 H 1030.79 -0.178755 2.03818 0
M  V30 10514 H 1030.8 -2.1758 3.45142 0
M  V30 10515 H 1029.47 -1.15927 3.99417 0
M  V30 10516 H 1028.05 -2.51023 2.75757 0
M  V30 10517 N 1030.24 -1.51135 -0.446768 0
M  V30 10518 C 1031.46 -1.67411 -1.22427 0
M  V30 10519 C 1031.89 -0.367009 -1.84485 0
M  V30 10520 O 1031.24 0.67185 -1.68392 0
M  V30 10521 C 1031.29 -2.78473 -2.29096 0
M  V30 10522 O 1030.4 -2.41419 -3.34351 0
M  V30 10523 H 1029.74 -0.558512 -0.359111 0
M  V30 10524 H 1032.27 -1.97648 -0.5288 0
M  V30 10525 H 1032.28 -3.02277 -2.7403 0
M  V30 10526 H 1030.95 -3.73326 -1.83304 0
M  V30 10527 H 1029.53 -2.28152 -2.9496 0
M  V30 10528 N 1031.71 0.701592 -1.41122 0
M  V30 10529 C 1032.94 1.49553 -1.43696 0
M  V30 10530 C 1033.36 1.88053 -0.0421865 0
M  V30 10531 O 1032.72 1.54223 0.953144 0
M  V30 10532 C 1032.77 2.73834 -2.34622 0
M  V30 10533 O 1031.87 3.71088 -1.7991 0
M  V30 10534 H 1031.21 0.450352 -0.487933 0
M  V30 10535 H 1033.74 0.862886 -1.85514 0
M  V30 10536 H 1033.75 3.22209 -2.5029 0
M  V30 10537 H 1032.43 2.45149 -3.35969 0
M  V30 10538 H 1031.01 3.29994 -1.73661 0
M  V30 10539 N 1033.19 1.2685 0.935242 0
M  V30 10540 C 1034.6 1.11569 1.49697 0
M  V30 10541 C 1034.95 -0.301952 1.93863 0
M  V30 10542 O 1034.08 -1.19408 1.80473 0
M  V30 10543 C 1034.67 2.01918 2.72056 0
M  V30 10544 C 1033.23 1.90765 3.24477 0
M  V30 10545 C 1032.38 1.94918 1.97237 0
M  V30 10546 H 1035.33 1.39853 0.750116 0
M  V30 10547 H 1035.35 1.57056 3.46574 0
M  V30 10548 H 1034.86 3.05088 2.39881 0
M  V30 10549 H 1032.96 0.905521 3.61429 0
M  V30 10550 H 1033.08 2.76611 3.91182 0
M  V30 10551 H 1031.44 1.39046 2.13397 0
M  V30 10552 H 1032.22 2.99729 1.67385 0
M  V30 10553 N 1034.67 -1.14067 1.0875 0
M  V30 10554 C 1035.92 -1.85459 0.82053 0
M  V30 10555 C 1036.25 -1.82923 -0.65213 0
M  V30 10556 O 1035.52 -1.26241 -1.47965 0
M  V30 10557 C 1035.81 -3.33937 1.34752 0
M  V30 10558 C 1035.66 -3.45026 2.88578 0
M  V30 10559 C 1036.98 -4.2915 0.975636 0
M  V30 10560 H 1034.1 -0.673384 0.299538 0
M  V30 10561 H 1036.74 -1.33927 1.34772 0
M  V30 10562 H 1034.89 -3.77953 0.899086 0
M  V30 10563 H 1036.56 -3.09771 3.41818 0
M  V30 10564 H 1034.81 -2.86124 3.26061 0
M  V30 10565 H 1035.48 -4.49408 3.20526 0
M  V30 10566 H 1037.95 -3.93168 1.36228 0
M  V30 10567 H 1036.83 -5.31489 1.37152 0
M  V30 10568 H 1037.09 -4.41945 -0.116956 0
M  V30 10569 N 1036.15 -0.873678 -1.31166 0
M  V30 10570 C 1037.43 -0.40698 -1.91319 0
M  V30 10571 C 1037.81 1.1113 -1.79481 0
M  V30 10572 O 1037.15 1.94155 -1.20483 0
M  V30 10573 C 1037.36 -0.892484 -3.37396 0
M  V30 10574 C 1038.71 -0.920795 -4.14496 0
M  V30 10575 O 1039.74 -0.838386 -3.46193 0
M  V30 10576 O 1038.59 -1.04069 -5.365 0
M  V30 10577 H 1035.69 -0.122439 -0.817886 0
M  V30 10578 H 1038.23 -0.961835 -1.3981 0
M  V30 10579 H 1037.01 -1.93613 -3.40044 0
M  V30 10580 H 1036.63 -0.31615 -3.96341 0
M  V30 10581 N 1037.63 1.44308 -0.633487 0
M  V30 10582 C 1038.56 2.33431 0.0568402 0
M  V30 10583 C 1039.54 1.48342 0.832386 0
M  V30 10584 O 1040.72 1.77056 0.797798 0
M  V30 10585 C 1037.85 3.31443 1.03743 0
M  V30 10586 C 1036.81 4.26368 0.373362 0
M  V30 10587 C 1036.13 5.14267 1.46403 0
M  V30 10588 C 1037.43 5.17287 -0.721876 0
M  V30 10589 H 1039.13 2.91402 -0.687388 0
M  V30 10590 H 1036.67 1.4012 -0.332009 0
M  V30 10591 H 1038.63 3.92677 1.52913 0
M  V30 10592 H 1037.35 2.71686 1.81258 0
M  V30 10593 H 1036.01 3.6647 -0.0977053 0
M  V30 10594 H 1035.66 4.50861 2.23011 0
M  V30 10595 H 1035.36 5.7859 1.02506 0
M  V30 10596 H 1036.88 5.78373 1.95748 0
M  V30 10597 H 1038.29 5.72444 -0.313181 0
M  V30 10598 H 1036.69 5.90226 -1.08413 0
M  V30 10599 H 1037.76 4.58159 -1.58804 0
M  V30 10600 N 1039.1 0.374177 1.53094 0
M  V30 10601 C 1040.07 -0.455999 2.24618 0
M  V30 10602 C 1041.07 -1.00269 1.25709 0
M  V30 10603 O 1042.26 -0.887077 1.49922 0
M  V30 10604 C 1039.39 -1.63822 2.98957 0
M  V30 10605 H 1040.58 0.169986 2.99418 0
M  V30 10606 H 1038.14 0.126015 1.55791 0
M  V30 10607 H 1038.87 -2.30205 2.28421 0
M  V30 10608 H 1038.66 -1.25308 3.71538 0
M  V30 10609 H 1040.15 -2.22633 3.53305 0
M  V30 10610 N 1040.58 -1.57259 0.103575 0
M  V30 10611 C 1041.53 -2.14487 -0.852295 0
M  V30 10612 C 1042.5 -1.06567 -1.27407 0
M  V30 10613 O 1043.68 -1.34398 -1.35432 0
M  V30 10614 C 1040.82 -2.73632 -2.10284 0
M  V30 10615 C 1039.94 -3.95811 -1.73083 0
M  V30 10616 C 1039.07 -4.43093 -2.92988 0
M  V30 10617 C 1038.11 -5.5784 -2.51953 0
M  V30 10618 N 1037.25 -5.99936 -3.64721 0
M  V30 10619 H 1042.09 -2.95849 -0.35743 0
M  V30 10620 H 1039.63 -1.46175 -0.164748 0
M  V30 10621 H 1041.58 -3.06046 -2.83534 0
M  V30 10622 H 1040.21 -1.94985 -2.57256 0
M  V30 10623 H 1039.27 -3.69656 -0.897688 0
M  V30 10624 H 1040.58 -4.79066 -1.38916 0
M  V30 10625 H 1039.73 -4.77335 -3.74481 0
M  V30 10626 H 1038.47 -3.58756 -3.30372 0
M  V30 10627 H 1037.48 -5.23217 -1.6889 0
M  V30 10628 H 1038.7 -6.43932 -2.15705 0
M  V30 10629 H 1036.65 -5.18543 -4.01807 0
M  V30 10630 H 1036.56 -6.78008 -3.34427 0
M  V30 10631 H 1037.83 -6.38812 -4.46699 0
M  V30 10632 N 1042.06 0.170153 -1.56679 0
M  V30 10633 C 1042.99 1.21285 -1.9953 0
M  V30 10634 C 1043.97 1.46104 -0.871071 0
M  V30 10635 O 1045.16 1.57419 -1.13724 0
M  V30 10636 C 1042.29 2.5515 -2.35618 0
M  V30 10637 C 1041.24 2.44898 -3.51011 0
M  V30 10638 C 1040.57 3.83263 -3.72845 0
M  V30 10639 C 1041.87 1.95271 -4.84424 0
M  V30 10640 H 1043.56 0.856646 -2.86883 0
M  V30 10641 H 1041.11 0.410634 -1.38021 0
M  V30 10642 H 1043.06 3.28299 -2.64193 0
M  V30 10643 H 1041.78 2.92561 -1.45175 0
M  V30 10644 H 1040.44 1.74203 -3.22566 0
M  V30 10645 H 1040.09 4.18069 -2.79691 0
M  V30 10646 H 1039.79 3.77272 -4.50488 0
M  V30 10647 H 1041.31 4.57996 -4.03822 0
M  V30 10648 H 1042.73 2.58195 -5.11867 0
M  V30 10649 H 1041.13 2.00225 -5.65712 0
M  V30 10650 H 1042.2 0.90709 -4.7634 0
M  V30 10651 N 1043.54 1.5137 0.438746 0
M  V30 10652 C 1044.77 1.67774 1.21077 0
M  V30 10653 C 1045.18 0.374489 1.85049 0
M  V30 10654 O 1044.54 -0.646867 1.70651 0
M  V30 10655 C 1044.59 2.79238 2.29584 0
M  V30 10656 O 1044.31 4.04513 1.68228 0
M  V30 10657 C 1045.81 3.06898 3.19888 0
M  V30 10658 H 1043.03 0.563054 0.364981 0
M  V30 10659 H 1045.58 1.97777 0.520035 0
M  V30 10660 H 1043.73 2.51837 2.94375 0
M  V30 10661 H 1044.14 4.66405 2.3993 0
M  V30 10662 H 1045.62 3.88476 3.92162 0
M  V30 10663 H 1046.1 2.19249 3.80561 0
M  V30 10664 H 1046.7 3.35952 2.60799 0
M  V30 10665 N 1045.02 -0.694098 1.41492 0
M  V30 10666 C 1045.98 -1.78976 1.43179 0
M  V30 10667 C 1046.98 -1.57539 0.322191 0
M  V30 10668 O 1048.17 -1.64185 0.582138 0
M  V30 10669 C 1045.3 -3.17368 1.2446 0
M  V30 10670 H 1046.49 -1.78874 2.40716 0
M  V30 10671 H 1044.05 -0.901867 1.27656 0
M  V30 10672 H 1044.78 -3.23109 0.277691 0
M  V30 10673 H 1044.57 -3.3433 2.04856 0
M  V30 10674 H 1046.06 -3.97345 1.28479 0
M  V30 10675 N 1046.49 -1.27344 -0.928501 0
M  V30 10676 C 1047.4 -1.11812 -2.06241 0
M  V30 10677 C 1048.42 -0.048347 -1.73933 0
M  V30 10678 O 1049.6 -0.25467 -1.99783 0
M  V30 10679 C 1046.66 -0.766036 -3.38131 0
M  V30 10680 C 1045.72 -1.91659 -3.84142 0
M  V30 10681 C 1044.96 -1.58121 -5.09738 0
M  V30 10682 O 1045.18 -0.488742 -5.68302 0
M  V30 10683 O 1044.11 -2.42013 -5.51102 0
M  V30 10684 H 1047.94 -2.06967 -2.22258 0
M  V30 10685 H 1045.52 -1.06524 -1.04752 0
M  V30 10686 H 1047.41 -0.582982 -4.17348 0
M  V30 10687 H 1046.08 0.155998 -3.23324 0
M  V30 10688 H 1044.99 -2.1547 -3.05816 0
M  V30 10689 H 1046.32 -2.8188 -4.0349 0
M  V30 10690 N 1047.97 1.13488 -1.09353 0
M  V30 10691 C 1048.94 2.17066 -0.735863 0
M  V30 10692 C 1049.94 1.59086 0.234181 0
M  V30 10693 O 1051.13 1.74196 0.012463 0
M  V30 10694 C 1048.26 3.40786 -0.0880975 0
M  V30 10695 H 1049.45 2.50221 -1.65316 0
M  V30 10696 H 1047 1.28304 -0.89263 0
M  V30 10697 H 1047.74 3.1322 0.840462 0
M  V30 10698 H 1047.52 3.8414 -0.786073 0
M  V30 10699 H 1049.01 4.17342 0.146775 0
M  V30 10700 N 1049.45 0.880621 1.30701 0
M  V30 10701 C 1050.68 0.511682 2.00473 0
M  V30 10702 C 1051.09 -0.898684 1.6604 0
M  V30 10703 O 1050.45 -1.59035 0.895218 0
M  V30 10704 C 1050.5 0.671723 3.55204 0
M  V30 10705 O 1050.22 2.02656 3.8841 0
M  V30 10706 C 1051.72 0.3052 4.42248 0
M  V30 10707 H 1048.94 0.198231 0.64105 0
M  V30 10708 H 1051.49 1.18472 1.66687 0
M  V30 10709 H 1049.64 0.0461066 3.87373 0
M  V30 10710 H 1050.06 2.04202 4.83117 0
M  V30 10711 H 1051.53 0.468095 5.50012 0
M  V30 10712 H 1052.01 -0.756456 4.32637 0
M  V30 10713 H 1052.61 0.906959 4.15517 0
M  V30 10714 N 1050.93 -1.4397 0.641131 0
M  V30 10715 C 1052.18 -2.01548 0.149333 0
M  V30 10716 C 1052.5 -1.50759 -1.23679 0
M  V30 10717 O 1051.77 -0.715257 -1.82376 0
M  V30 10718 H 1050.35 -0.745173 0.0522161 0
M  V30 10719 H 1053.01 -1.7634 0.830082 0
M  V30 10720 H 1052.11 -3.11851 0.124676 0
M  V30 10721 N 1052.41 -0.382291 -1.52893 0
M  V30 10722 C 1053.35 0.456234 -2.26246 0
M  V30 10723 C 1054.32 1.06366 -1.27575 0
M  V30 10724 O 1055.51 1.09301 -1.5639 0
M  V30 10725 C 1052.65 1.5813 -3.06739 0
M  V30 10726 C 1051.76 0.997416 -4.20328 0
M  V30 10727 C 1050.9 2.09296 -4.8823 0
M  V30 10728 C 1049.94 1.4846 -5.93823 0
M  V30 10729 N 1049.07 2.51916 -6.55349 0
M  V30 10730 H 1053.91 -0.175761 -2.97481 0
M  V30 10731 H 1051.45 -0.0985046 -1.4677 0
M  V30 10732 H 1053.41 2.24426 -3.51694 0
M  V30 10733 H 1052.04 2.18371 -2.37727 0
M  V30 10734 H 1051.09 0.224251 -3.79738 0
M  V30 10735 H 1052.4 0.512784 -4.96157 0
M  V30 10736 H 1051.56 2.83377 -5.36453 0
M  V30 10737 H 1050.3 2.61116 -4.1191 0
M  V30 10738 H 1049.3 0.729001 -5.44946 0
M  V30 10739 H 1050.53 0.97443 -6.72073 0
M  V30 10740 H 1048.47 3.02919 -5.81873 0
M  V30 10741 H 1048.39 2.08188 -7.26769 0
M  V30 10742 H 1049.66 3.25649 -7.08218 0
M  V30 10743 N 1053.89 1.57202 -0.111913 0
M  V30 10744 C 1055.16 1.86459 0.590972 0
M  V30 10745 C 1055.54 1.01182 1.85271 0
M  V30 10746 O 1054.89 0.0887891 2.28327 0
M  V30 10747 C 1055.1 3.37455 0.890225 0
M  V30 10748 C 1056.45 4.05895 1.24638 0
M  V30 10749 O 1057.47 3.42433 0.980713 0
M  V30 10750 O 1056.33 5.17903 1.74466 0
M  V30 10751 H 1053.43 0.771652 0.297459 0
M  V30 10752 H 1055.97 1.69072 -0.145882 0
M  V30 10753 H 1054.74 3.913 -0.00419012 0
M  V30 10754 H 1054.37 3.60248 1.68248 0
M  V30 10755 N 1055.36 -0.161842 1.56767 0
M  V30 10756 C 1056.29 -1.20226 2.0017 0
M  V30 10757 C 1057.27 -1.4564 0.878807 0
M  V30 10758 O 1058.46 -1.56813 1.14557 0
M  V30 10759 C 1055.59 -2.53897 2.36968 0
M  V30 10760 C 1054.54 -2.43033 3.52305 0
M  V30 10761 C 1053.87 -3.81281 3.74872 0
M  V30 10762 C 1055.17 -1.927 4.85453 0
M  V30 10763 H 1056.86 -0.84142 2.87333 0
M  V30 10764 H 1054.41 -0.403309 1.38237 0
M  V30 10765 H 1056.36 -3.26893 2.6593 0
M  V30 10766 H 1055.09 -2.91787 1.46724 0
M  V30 10767 H 1053.75 -1.7249 3.23485 0
M  V30 10768 H 1053.39 -4.1658 2.81904 0
M  V30 10769 H 1053.09 -3.74877 4.52483 0
M  V30 10770 H 1054.62 -4.55848 4.06245 0
M  V30 10771 H 1056.03 -2.55477 5.13229 0
M  V30 10772 H 1054.43 -1.97222 5.66766 0
M  V30 10773 H 1055.5 -0.881816 4.76814 0
M  V30 10774 N 1056.84 -1.516 -0.430713 0
M  V30 10775 C 1058.07 -1.687 -1.20644 0
M  V30 10776 C 1058.49 -0.386555 -1.84085 0
M  V30 10777 O 1057.85 0.653952 -1.69095 0
M  V30 10778 C 1057.9 -2.80887 -2.2613 0
M  V30 10779 O 1057 -2.44952 -3.31772 0
M  V30 10780 H 1056.34 -0.562289 -0.353167 0
M  V30 10781 H 1058.87 -1.98198 -0.507807 0
M  V30 10782 H 1058.88 -3.05167 -2.70809 0
M  V30 10783 H 1057.56 -3.75249 -1.79334 0
M  V30 10784 H 1056.13 -2.31267 -2.92523 0
M  V30 10785 N 1058.32 0.686584 -1.41858 0
M  V30 10786 C 1059.25 1.81202 -1.40352 0
M  V30 10787 C 1060.26 1.5993 -0.304322 0
M  V30 10788 O 1061.45 1.69267 -0.566643 0
M  V30 10789 C 1058.55 3.18116 -1.16856 0
M  V30 10790 C 1057.73 3.66339 -2.38987 0
M  V30 10791 C 1056.79 4.8195 -2.11212 0
M  V30 10792 O 1055.81 4.93102 -2.84323 0
M  V30 10793 N 1057.01 5.69829 -1.10793 0
M  V30 10794 H 1059.78 1.82983 -2.37355 0
M  V30 10795 H 1057.34 0.869244 -1.36586 0
M  V30 10796 H 1059.33 3.93097 -0.962125 0
M  V30 10797 H 1057.9 3.11306 -0.284186 0
M  V30 10798 H 1057.12 2.82166 -2.75274 0
M  V30 10799 H 1058.41 3.95297 -3.2034 0
M  V30 10800 H 1057.81 5.63459 -0.503012 0
M  V30 10801 H 1056.36 6.44671 -0.961379 0
M  V30 10802 N 1059.8 1.27835 0.921735 0
M  V30 10803 C 1060.71 1.12904 2.05645 0
M  V30 10804 C 1061.72 0.0575704 1.73905 0
M  V30 10805 O 1062.9 0.265261 1.99645 0
M  V30 10806 C 1059.96 0.783957 3.3772 0
M  V30 10807 C 1059.03 1.93694 3.8312 0
M  V30 10808 C 1058.26 1.60823 5.08893 0
M  V30 10809 O 1058.48 0.518873 5.68035 0
M  V30 10810 O 1057.42 2.44932 5.49811 0
M  V30 10811 H 1061.24 2.08143 2.21157 0
M  V30 10812 H 1058.83 1.07078 1.04185 0
M  V30 10813 H 1060.71 0.605107 4.17033 0
M  V30 10814 H 1059.38 -0.138849 3.23402 0
M  V30 10815 H 1058.29 2.17089 3.04669 0
M  V30 10816 H 1059.62 2.84016 4.0199 0
M  V30 10817 N 1061.28 -1.12907 1.09954 0
M  V30 10818 C 1062.5 -1.88679 0.861099 0
M  V30 10819 C 1062.93 -1.78853 -0.582499 0
M  V30 10820 O 1062.28 -1.13992 -1.4098 0
M  V30 10821 C 1062.33 -3.36047 1.30785 0
M  V30 10822 O 1061.44 -4.09716 0.469728 0
M  V30 10823 H 1060.78 -0.586447 0.31141 0
M  V30 10824 H 1063.31 -1.42818 1.46507 0
M  V30 10825 H 1063.32 -3.86882 1.29562 0
M  V30 10826 H 1061.99 -3.42516 2.35914 0
M  V30 10827 H 1060.57 -3.6887 0.54674 0
M  V30 10828 N 1062.75 -0.88754 -1.30232 0
M  V30 10829 C 1063.98 -0.521562 -2.00735 0
M  V30 10830 C 1064.4 0.883247 -1.66073 0
M  V30 10831 O 1063.76 1.58581 -0.878731 0
M  V30 10832 C 1063.81 -0.706521 -3.53611 0
M  V30 10833 O 1062.91 0.246447 -4.11663 0
M  V30 10834 H 1062.25 -0.205216 -0.631492 0
M  V30 10835 H 1064.78 -1.19579 -1.66018 0
M  V30 10836 H 1064.79 -0.606501 -4.03467 0
M  V30 10837 H 1063.47 -1.73076 -3.78177 0
M  V30 10838 H 1062.05 0.0999062 -3.72766 0
M  V30 10839 N 1064.23 1.43628 -0.648757 0
M  V30 10840 C 1065.46 2.06732 -0.166284 0
M  V30 10841 C 1065.88 1.48281 1.15734 0
M  V30 10842 O 1065.24 0.591018 1.71396 0
M  V30 10843 C 1065.29 3.60502 -0.0838732 0
M  V30 10844 O 1064.39 4.01186 0.955185 0
M  V30 10845 H 1063.73 0.657479 -0.0928285 0
M  V30 10846 H 1066.26 1.84208 -0.890421 0
M  V30 10847 H 1066.27 4.07875 0.100923 0
M  V30 10848 H 1064.95 4.02424 -1.05014 0
M  V30 10849 H 1063.53 3.65412 0.743537 0
M  V30 10850 N 1065.71 0.390394 1.52688 0
M  V30 10851 C 1066.94 -0.191485 2.06012 0
M  V30 10852 C 1067.35 -1.40422 1.26202 0
M  V30 10853 O 1066.71 -1.79866 0.308963 0
M  V30 10854 C 1066.76 -0.560521 3.57128 0
M  V30 10855 O 1066.48 0.60404 4.33916 0
M  V30 10856 C 1067.98 -1.19814 4.26801 0
M  V30 10857 H 1065.2 -0.0286311 0.670389 0
M  V30 10858 H 1067.75 0.555939 1.96798 0
M  V30 10859 H 1065.9 -1.25784 3.66411 0
M  V30 10860 H 1066.32 0.300467 5.23639 0
M  V30 10861 H 1067.79 -1.40672 5.33775 0
M  V30 10862 H 1068.27 -2.16582 3.82085 0
M  V30 10863 H 1068.87 -0.541558 4.21838 0
M  V30 10864 N 1067.19 -1.57141 0.120249 0
M  V30 10865 C 1068.15 -2.14213 -0.815185 0
M  V30 10866 C 1069.15 -1.07731 -1.19376 0
M  V30 10867 O 1070.34 -1.33502 -1.11906 0
M  V30 10868 C 1067.47 -2.68339 -2.10255 0
M  V30 10869 H 1068.67 -2.98197 -0.319166 0
M  V30 10870 H 1066.22 -1.55767 -0.128997 0
M  V30 10871 H 1066.95 -1.87946 -2.64285 0
M  V30 10872 H 1066.74 -3.46216 -1.84057 0
M  V30 10873 H 1068.23 -3.124 -2.77121 0
M  V30 10874 N 1068.67 0.153526 -1.5685 0
M  V30 10875 C 1070.08 0.714247 -1.72498 0
M  V30 10876 C 1070.43 1.81968 -0.733621 0
M  V30 10877 O 1069.55 2.16163 0.10118 0
M  V30 10878 C 1070.15 1.30238 -3.12767 0
M  V30 10879 C 1068.71 1.80974 -3.30038 0
M  V30 10880 C 1067.85 0.695638 -2.68433 0
M  V30 10881 H 1070.81 -0.0720733 -1.58536 0
M  V30 10882 H 1070.83 2.17217 -3.12405 0
M  V30 10883 H 1070.34 0.497605 -3.84897 0
M  V30 10884 H 1068.44 2.64039 -2.62895 0
M  V30 10885 H 1068.55 1.94294 -4.37934 0
M  V30 10886 H 1066.92 1.12061 -2.28723 0
M  V30 10887 H 1067.7 -0.0975885 -3.43161 0
M  V30 10888 N 1070.14 1.51827 0.422667 0
M  V30 10889 C 1071.39 1.64893 1.16853 0
M  V30 10890 C 1071.71 0.37456 1.91369 0
M  V30 10891 O 1070.98 -0.610128 1.86157 0
M  V30 10892 H 1069.56 0.607744 0.434345 0
M  V30 10893 H 1072.23 1.88816 0.483159 0
M  V30 10894 H 1071.32 2.48361 1.89006 0
M  V30 10895 N 1071.62 -0.679052 1.4222 0
M  V30 10896 C 1072.85 -1.47248 1.46058 0
M  V30 10897 C 1073.27 -1.87962 0.0720987 0
M  V30 10898 O 1072.63 -1.5572 -0.928488 0
M  V30 10899 C 1072.68 -2.70067 2.38948 0
M  V30 10900 O 1071.78 -3.68178 1.85791 0
M  V30 10901 H 1071.12 -0.442533 0.495036 0
M  V30 10902 H 1073.65 -0.833263 1.86863 0
M  V30 10903 H 1073.66 -3.18187 2.55385 0
M  V30 10904 H 1072.34 -2.39773 3.39826 0
M  V30 10905 H 1070.92 -3.2719 1.78889 0
M  V30 10906 N 1073.1 -1.28322 -0.914942 0
M  V30 10907 C 1074.01 -1.13993 -2.05043 0
M  V30 10908 C 1075.03 -0.0667921 -1.73872 0
M  V30 10909 O 1076.2 -0.275845 -1.99502 0
M  V30 10910 C 1073.27 -0.801856 -3.373 0
M  V30 10911 C 1072.33 -1.95723 -3.82088 0
M  V30 10912 C 1071.56 -1.63519 -5.08033 0
M  V30 10913 O 1071.78 -0.54899 -5.67752 0
M  V30 10914 O 1070.72 -2.47844 -5.48504 0
M  V30 10915 H 1074.54 -2.09313 -2.2005 0
M  V30 10916 H 1072.13 -1.0763 -1.03616 0
M  V30 10917 H 1074.01 -0.627214 -4.16706 0
M  V30 10918 H 1072.69 0.121696 -3.23471 0
M  V30 10919 H 1071.59 -2.18702 -3.03514 0
M  V30 10920 H 1072.93 -2.86144 -4.00478 0
M  V30 10921 N 1074.58 1.12322 -1.10551 0
M  V30 10922 C 1075.82 1.8413 -0.849932 0
M  V30 10923 C 1076.16 1.83938 0.622946 0
M  V30 10924 O 1075.43 1.28579 1.45937 0
M  V30 10925 C 1075.72 3.31751 -1.40048 0
M  V30 10926 C 1075.57 3.40391 -2.9403 0
M  V30 10927 C 1076.89 4.27543 -1.04379 0
M  V30 10928 H 1074.01 0.668533 -0.310213 0
M  V30 10929 H 1076.65 1.31766 -1.36886 0
M  V30 10930 H 1074.8 3.76475 -0.959102 0
M  V30 10931 H 1076.47 3.04294 -3.46703 0
M  V30 10932 H 1074.71 2.809 -3.30571 0
M  V30 10933 H 1075.38 4.44252 -3.27635 0
M  V30 10934 H 1077.86 3.90951 -1.42466 0
M  V30 10935 H 1076.74 5.2924 -1.4559 0
M  V30 10936 H 1077 4.42075 0.0466316 0
M  V30 10937 N 1076.06 0.894434 1.2976 0
M  V30 10938 C 1077.28 0.532916 1.99919 0
M  V30 10939 C 1077.7 -0.881022 1.66983 0
M  V30 10940 O 1077.06 -1.58076 0.912035 0
M  V30 10941 C 1077.11 0.70936 3.54472 0
M  V30 10942 O 1076.83 2.06764 3.86239 0
M  V30 10943 C 1078.33 0.352089 4.419 0
M  V30 10944 H 1075.55 0.205019 0.638912 0
M  V30 10945 H 1078.09 1.20233 1.65421 0
M  V30 10946 H 1076.25 0.0871901 3.87302 0
M  V30 10947 H 1076.66 2.09315 4.80924 0
M  V30 10948 H 1078.14 0.526405 5.49484 0
M  V30 10949 H 1078.61 -0.710527 4.33415 0
M  V30 10950 H 1079.22 0.950979 4.14532 0
M  V30 10951 N 1077.53 -1.43282 0.656365 0
M  V30 10952 C 1078.78 -2.00996 0.168354 0
M  V30 10953 C 1079.1 -1.52408 -1.22601 0
M  V30 10954 O 1080.3 -2.02417 -1.80941 0
M  V30 10955 C 1078.76 -3.5903 0.250161 0
M  V30 10956 C 1078.37 -4.1661 1.64742 0
M  V30 10957 C 1080.11 -4.24118 -0.180084 0
M  V30 10958 C 1078.02 -5.66948 1.68299 0
M  V30 10959 H 1076.95 -0.751674 0.0591769 0
M  V30 10960 H 1079.6 -1.64216 0.818859 0
M  V30 10961 H 1077.98 -3.93226 -0.467908 0
M  V30 10962 H 1079.15 -3.93908 2.3911 0
M  V30 10963 H 1077.47 -3.63905 2.02391 0
M  V30 10964 H 1080.07 -5.34419 -0.173401 0
M  V30 10965 H 1080.41 -3.98264 -1.21208 0
M  V30 10966 H 1080.94 -3.94816 0.486343 0
M  V30 10967 H 1077.68 -5.97573 2.69419 0
M  V30 10968 H 1077.2 -5.91697 0.98261 0
M  V30 10969 H 1078.88 -6.31041 1.42813 0
M  V30 10970 N 1079.01 -0.398486 -1.52479 0
M  V30 10971 C 1079.96 0.432212 -2.26717 0
M  V30 10972 C 1080.93 1.05007 -1.28696 0
M  V30 10973 O 1082.12 1.07636 -1.57541 0
M  V30 10974 C 1079.26 1.54868 -3.08399 0
M  V30 10975 C 1078.37 0.952779 -4.21362 0
M  V30 10976 C 1077.5 2.04106 -4.90423 0
M  V30 10977 C 1076.54 1.42153 -5.95364 0
M  V30 10978 N 1075.68 2.44951 -6.57984 0
M  V30 10979 H 1080.52 -0.207303 -2.97278 0
M  V30 10980 H 1078.06 -0.114066 -1.46657 0
M  V30 10981 H 1080.01 2.20684 -3.54054 0
M  V30 10982 H 1078.64 2.15837 -2.4003 0
M  V30 10983 H 1077.7 0.183962 -3.79955 0
M  V30 10984 H 1079.01 0.460131 -4.96673 0
M  V30 10985 H 1078.16 2.77672 -5.39429 0
M  V30 10986 H 1076.9 2.56733 -4.14656 0
M  V30 10987 H 1075.91 0.671161 -5.45688 0
M  V30 10988 H 1077.13 0.903093 -6.73068 0
M  V30 10989 H 1075.08 2.9673 -5.85053 0
M  V30 10990 H 1074.99 2.00468 -7.28937 0
M  V30 10991 H 1076.26 3.18119 -7.11632 0
M  V30 10992 N 1080.49 1.57075 -0.12858 0
M  V30 10993 C 1081.42 2.12907 0.848708 0
M  V30 10994 C 1082.44 1.07406 1.22343 0
M  V30 10995 O 1083.63 1.34746 1.17071 0
M  V30 10996 C 1080.73 2.62167 2.1476 0
M  V30 10997 C 1079.9 3.91871 1.94309 0
M  V30 10998 C 1078.96 4.26629 3.08016 0
M  V30 10999 O 1077.98 4.9528 2.80511 0
M  V30 11000 N 1079.19 3.84721 4.34706 0
M  V30 11001 H 1081.95 2.97387 0.371636 0
M  V30 11002 H 1079.51 1.61805 0.0555574 0
M  V30 11003 H 1081.5 2.82444 2.89841 0
M  V30 11004 H 1080.07 1.82514 2.53786 0
M  V30 11005 H 1079.29 3.80406 1.03367 0
M  V30 11006 H 1080.58 4.76662 1.77962 0
M  V30 11007 H 1079.98 3.2937 4.59926 0
M  V30 11008 H 1078.54 4.10087 5.06628 0
M  V30 11009 N 1081.97 -0.145205 1.5693 0
M  V30 11010 C 1082.88 -1.19864 2.01667 0
M  V30 11011 C 1083.9 -1.46909 0.932402 0
M  V30 11012 O 1085.07 -1.58543 1.24201 0
M  V30 11013 C 1082.14 -2.51174 2.38982 0
M  V30 11014 C 1081.2 -2.3176 3.61366 0
M  V30 11015 C 1080.43 -3.56809 3.96892 0
M  V30 11016 O 1080.65 -4.63063 3.33059 0
M  V30 11017 O 1079.59 -3.49366 4.9013 0
M  V30 11018 H 1083.41 -0.848821 2.91597 0
M  V30 11019 H 1081 -0.354063 1.45144 0
M  V30 11020 H 1082.88 -3.28587 2.63835 0
M  V30 11021 H 1081.56 -2.85683 1.52207 0
M  V30 11022 H 1080.46 -1.52293 3.41698 0
M  V30 11023 H 1081.8 -2.02167 4.48764 0
M  V30 11024 N 1083.45 -1.52049 -0.414609 0
M  V30 11025 C 1084.86 -1.58062 -0.993638 0
M  V30 11026 C 1085.21 -0.417795 -1.917 0
M  V30 11027 O 1084.33 0.462558 -2.11399 0
M  V30 11028 C 1084.93 -2.86471 -1.80886 0
M  V30 11029 C 1083.49 -2.94981 -2.33801 0
M  V30 11030 C 1082.64 -2.52949 -1.13631 0
M  V30 11031 H 1085.59 -1.57497 -0.19504 0
M  V30 11032 H 1085.61 -2.71515 -2.66571 0
M  V30 11033 H 1085.12 -3.71085 -1.13657 0
M  V30 11034 H 1083.22 -2.14849 -3.04419 0
M  V30 11035 H 1083.33 -3.99111 -2.65042 0
M  V30 11036 H 1081.7 -2.0667 -1.48861 0
M  V30 11037 H 1082.48 -3.39931 -0.479765 0
M  V30 11038 N 1084.93 0.6715 -1.42579 0
M  V30 11039 C 1086.17 1.43366 -1.43436 0
M  V30 11040 C 1086.5 1.94131 -0.0517339 0
M  V30 11041 O 1085.78 1.71121 0.924548 0
M  V30 11042 C 1086.06 2.62832 -2.46154 0
M  V30 11043 C 1085.92 2.17677 -3.9362 0
M  V30 11044 C 1087.23 3.65049 -2.4582 0
M  V30 11045 H 1084.35 0.519967 -0.522306 0
M  V30 11046 H 1087 0.762849 -1.74013 0
M  V30 11047 H 1085.15 3.20062 -2.2021 0
M  V30 11048 H 1086.82 1.65588 -4.30556 0
M  V30 11049 H 1085.06 1.49219 -4.07328 0
M  V30 11050 H 1085.73 3.03503 -4.61075 0
M  V30 11051 H 1088.21 3.17541 -2.68899 0
M  V30 11052 H 1087.08 4.46213 -3.19664 0
M  V30 11053 H 1087.34 4.16401 -1.48536 0
M  V30 11054 N 1086.4 1.28806 0.908124 0
M  V30 11055 C 1087.63 1.19271 1.69674 0
M  V30 11056 C 1088.05 -0.244403 1.86505 0
M  V30 11057 O 1087.41 -1.17668 1.37927 0
M  V30 11058 C 1087.46 1.9023 3.06341 0
M  V30 11059 O 1086.56 1.2136 3.94139 0
M  V30 11060 H 1085.9 0.413738 0.519343 0
M  V30 11061 H 1088.43 1.70227 1.13508 0
M  V30 11062 H 1088.44 1.98356 3.56537 0
M  V30 11063 H 1087.12 2.94762 2.93408 0
M  V30 11064 H 1085.7 1.21435 3.52573 0
M  V30 11065 N 1087.88 -1.11734 1.11145 0
M  V30 11066 C 1089.29 -1.64928 0.874959 0
M  V30 11067 C 1089.64 -1.87012 -0.593375 0
M  V30 11068 O 1088.77 -1.60206 -1.45475 0
M  V30 11069 C 1089.36 -2.99608 1.58178 0
M  V30 11070 C 1087.92 -3.49723 1.39179 0
M  V30 11071 C 1087.07 -2.24595 1.62642 0
M  V30 11072 H 1090.02 -0.954154 1.26813 0
M  V30 11073 H 1090.04 -3.66434 1.02501 0
M  V30 11074 H 1089.55 -2.83504 2.65042 0
M  V30 11075 H 1087.65 -3.70998 0.345111 0
M  V30 11076 H 1087.77 -4.28711 2.13878 0
M  V30 11077 H 1086.13 -2.32067 1.04961 0
M  V30 11078 H 1086.91 -2.11036 2.70774 0
M  V30 11079 N 1089.36 -0.901303 -1.29284 0
M  V30 11080 C 1090.31 -0.378666 -2.27672 0
M  V30 11081 C 1091.28 0.540102 -1.57074 0
M  V30 11082 O 1092.46 0.464997 -1.85047 0
M  V30 11083 C 1089.6 0.38635 -3.42931 0
M  V30 11084 C 1088.71 -0.563496 -4.28309 0
M  V30 11085 C 1087.85 0.218731 -5.30749 0
M  V30 11086 C 1086.89 -0.725536 -6.07785 0
M  V30 11087 N 1086.03 0.0223854 -7.02096 0
M  V30 11088 H 1090.87 -1.22277 -2.71758 0
M  V30 11089 H 1088.4 -0.614302 -1.33659 0
M  V30 11090 H 1090.36 0.845967 -4.08533 0
M  V30 11091 H 1088.99 1.1949 -2.9987 0
M  V30 11092 H 1088.04 -1.14163 -3.62865 0
M  V30 11093 H 1089.35 -1.28623 -4.81931 0
M  V30 11094 H 1088.51 0.739473 -6.02177 0
M  V30 11095 H 1087.25 0.97459 -4.77863 0
M  V30 11096 H 1086.25 -1.25776 -5.3522 0
M  V30 11097 H 1087.48 -1.48075 -6.6276 0
M  V30 11098 H 1085.42 0.760482 -6.51577 0
M  V30 11099 H 1085.34 -0.640408 -7.53283 0
M  V30 11100 H 1086.61 0.523339 -7.77741 0
M  V30 11101 N 1090.84 1.42931 -0.663954 0
M  V30 11102 C 1091.78 2.3079 0.0210764 0
M  V30 11103 C 1092.75 1.45356 0.803796 0
M  V30 11104 O 1093.94 1.74207 0.778237 0
M  V30 11105 C 1091.08 3.31069 0.974023 0
M  V30 11106 C 1090.19 4.31598 0.186273 0
M  V30 11107 C 1089.33 5.18955 1.13399 0
M  V30 11108 C 1088.37 6.1117 0.337292 0
M  V30 11109 N 1087.5 6.91114 1.23715 0
M  V30 11110 H 1092.34 2.88819 -0.733995 0
M  V30 11111 H 1089.88 1.42274 -0.373711 0
M  V30 11112 H 1091.84 3.87727 1.54024 0
M  V30 11113 H 1090.47 2.74665 1.69585 0
M  V30 11114 H 1089.52 3.77147 -0.496402 0
M  V30 11115 H 1090.83 4.96919 -0.432753 0
M  V30 11116 H 1089.99 5.80292 1.77049 0
M  V30 11117 H 1088.73 4.53785 1.78691 0
M  V30 11118 H 1087.73 5.48911 -0.312492 0
M  V30 11119 H 1088.96 6.78386 -0.31138 0
M  V30 11120 H 1086.9 6.28583 1.87668 0
M  V30 11121 H 1086.82 7.52999 0.672946 0
M  V30 11122 H 1088.09 7.56948 1.86146 0
M  V30 11123 N 1092.32 0.406567 1.52266 0
M  V30 11124 C 1093.26 -0.420182 2.26943 0
M  V30 11125 C 1094.23 -1.04323 1.29251 0
M  V30 11126 O 1095.42 -1.06799 1.5811 0
M  V30 11127 C 1092.56 -1.5323 3.09216 0
M  V30 11128 C 1091.67 -0.930419 4.21862 0
M  V30 11129 C 1090.81 -2.01502 4.91498 0
M  V30 11130 C 1089.84 -1.38994 5.9611 0
M  V30 11131 N 1088.98 -2.41458 6.59274 0
M  V30 11132 H 1093.82 0.223066 2.97164 0
M  V30 11133 H 1091.36 0.121842 1.46595 0
M  V30 11134 H 1093.32 -2.18803 3.5522 0
M  V30 11135 H 1091.95 -2.14561 2.41171 0
M  V30 11136 H 1091 -0.163809 3.80047 0
M  V30 11137 H 1092.31 -0.433785 4.9691 0
M  V30 11138 H 1091.46 -2.74807 5.40894 0
M  V30 11139 H 1090.2 -2.5453 4.16012 0
M  V30 11140 H 1089.21 -0.642213 5.46036 0
M  V30 11141 H 1090.43 -0.867386 6.73538 0
M  V30 11142 H 1088.38 -2.93623 5.86619 0
M  V30 11143 H 1088.3 -1.96599 7.2999 0
M  V30 11144 H 1089.56 -3.14341 7.13309 0
M  V30 11145 N 1093.79 -1.57004 0.136909 0
M  V30 11146 C 1094.7 -2.19807 -0.819887 0
M  V30 11147 C 1095.72 -1.17939 -1.27932 0
M  V30 11148 O 1096.9 -1.50478 -1.3386 0
M  V30 11149 C 1093.96 -2.79935 -2.04542 0
M  V30 11150 C 1093.02 -3.96897 -1.6362 0
M  V30 11151 C 1092.26 -4.54148 -2.80331 0
M  V30 11152 O 1092.48 -4.10282 -3.96264 0
M  V30 11153 O 1091.41 -5.44565 -2.56384 0
M  V30 11154 H 1095.24 -3.02058 -0.315337 0
M  V30 11155 H 1092.82 -1.49131 -0.0896151 0
M  V30 11156 H 1094.71 -3.18191 -2.76283 0
M  V30 11157 H 1093.38 -2.00703 -2.53969 0
M  V30 11158 H 1092.29 -3.63376 -0.889316 0
M  V30 11159 H 1093.62 -4.77618 -1.18918 0
M  V30 11160 N 1095.27 0.136881 -1.57004 0
M  V30 11161 C 1096.22 1.18782 -1.99984 0
M  V30 11162 C 1097.21 1.43899 -0.893841 0
M  V30 11163 O 1098.42 1.44072 -1.07904 0
M  V30 11164 H 1094.8 0.400065 -0.636751 0
M  V30 11165 H 1096.77 0.798696 -2.87512 0
M  V30 11166 C 1095.52 2.51105 -2.40502 0
M  V30 11167 H 1094.84 2.32611 -3.25165 0
M  V30 11168 H 1096.28 3.23244 -2.74389 0
M  V30 11169 C 1094.74 3.12386 -1.26161 0
M  V30 11170 O 1095.27 3.97666 -0.567836 0
M  V30 11171 N 1093.47 2.71989 -1.02326 0
M  V30 11172 H 1093.02 2.02736 -1.58921 0
M  V30 11173 H 1092.98 3.13322 -0.26013 0
M  V30 11174 N 1096.75 1.52266 0.40654 0
M  V30 11175 C 1097.71 1.75168 1.47814 0
M  V30 11176 C 1098.71 0.621575 1.48301 0
M  V30 11177 O 1099.9 0.889476 1.4978 0
M  V30 11178 C 1097.04 1.83642 2.87208 0
M  V30 11179 H 1098.23 2.70834 1.28798 0
M  V30 11180 H 1095.78 1.42722 0.637196 0
M  V30 11181 H 1096.52 0.898994 3.1159 0
M  V30 11182 H 1096.3 2.65801 2.88257 0
M  V30 11183 H 1097.79 2.03093 3.64888 0
M  V30 11184 N 1098.23 -0.663929 1.42933 0
M  V30 11185 C 1099.16 -1.78899 1.50058 0
M  V30 11186 C 1100.14 -1.66329 0.356164 0
M  V30 11187 O 1101.32 -1.85587 0.571944 0
M  V30 11188 C 1098.45 -3.17265 1.41281 0
M  V30 11189 C 1097.41 -3.44584 2.53861 0
M  V30 11190 C 1096.73 -4.82638 2.3014 0
M  V30 11191 C 1098.03 -3.40394 3.96143 0
M  V30 11192 H 1099.73 -1.73194 2.44222 0
M  V30 11193 H 1097.27 -0.83182 1.17545 0
M  V30 11194 H 1099.23 -3.95715 1.44872 0
M  V30 11195 H 1097.95 -3.23675 0.43616 0
M  V30 11196 H 1096.61 -2.685 2.49606 0
M  V30 11197 H 1096.26 -4.85711 1.30743 0
M  V30 11198 H 1095.96 -5.01879 3.056 0
M  V30 11199 H 1097.48 -5.63359 2.35497 0
M  V30 11200 H 1098.9 -4.08796 4.01943 0
M  V30 11201 H 1097.29 -3.7117 4.71543 0
M  V30 11202 H 1098.36 -2.38767 4.22041 0
M  V30 11203 N 1099.71 -1.29285 -0.901281 0
M  V30 11204 C 1100.64 -1.16832 -2.0217 0
M  V30 11205 C 1101.62 -0.0629265 -1.69984 0
M  V30 11206 O 1102.8 -0.242123 -1.92685 0
M  V30 11207 C 1099.93 -0.842406 -3.36929 0
M  V30 11208 C 1098.89 -1.90394 -3.8332 0
M  V30 11209 C 1098.21 -1.43138 -5.15185 0
M  V30 11210 C 1099.51 -3.31254 -4.03817 0
M  V30 11211 H 1101.21 -2.10562 -2.12847 0
M  V30 11212 H 1098.75 -1.01375 -1.0227 0
M  V30 11213 H 1100.71 -0.741999 -4.14816 0
M  V30 11214 H 1099.43 0.130598 -3.26339 0
M  V30 11215 H 1098.09 -1.99371 -3.07647 0
M  V30 11216 H 1097.74 -0.447091 -5.01009 0
M  V30 11217 H 1097.44 -2.14129 -5.47195 0
M  V30 11218 H 1098.96 -1.34444 -5.95615 0
M  V30 11219 H 1100.37 -3.25129 -4.72191 0
M  V30 11220 H 1098.77 -4.00189 -4.47178 0
M  V30 11221 H 1099.84 -3.74349 -3.08206 0
M  V30 11222 N 1101.18 1.11143 -1.11736 0
M  V30 11223 C 1102.6 1.34962 -0.851905 0
M  V30 11224 C 1102.8 1.94627 0.521797 0
M  V30 11225 O 1101.86 2.18121 1.27198 0
M  V30 11226 C 1103.17 2.27832 -1.96248 0
M  V30 11227 C 1104.72 2.41388 -1.9925 0
M  V30 11228 C 1105.19 3.37582 -3.09519 0
M  V30 11229 N 1106.68 3.45147 -3.08914 0
M  V30 11230 C 1107.42 4.19527 -3.90876 0
M  V30 11231 N 1106.91 4.96858 -4.82809 0
M  V30 11232 N 1108.71 4.15071 -3.79042 0
M  V30 11233 H 1100.86 0.707801 -2.0026 0
M  V30 11234 H 1103.12 0.374172 -0.871033 0
M  V30 11235 H 1102.83 1.91189 -2.95194 0
M  V30 11236 H 1102.7 3.28078 -1.86132 0
M  V30 11237 H 1105.09 2.77304 -1.00928 0
M  V30 11238 H 1105.17 1.40983 -2.13442 0
M  V30 11239 H 1104.81 3.02393 -4.0807 0
M  V30 11240 H 1104.74 4.37849 -2.92568 0
M  V30 11241 H 1107.23 2.89991 -2.42309 0
M  V30 11242 H 1107.55 5.5099 -5.41876 0
M  V30 11243 H 1105.89 4.96008 -4.86828 0
M  V30 11244 H 1109.08 3.53748 -3.06562 0
M  V30 11245 H 1109.26 4.72781 -4.4315 0
M  V30 11246 N 1102.66 0.908147 1.28804 0
M  V30 11247 C 1103.89 0.553287 1.99054 0
M  V30 11248 C 1104.3 -0.868455 1.68091 0
M  V30 11249 O 1103.64 -1.58599 0.926939 0
M  V30 11250 C 1103.71 0.675823 3.5309 0
M  V30 11251 C 1103.37 2.06608 4.0763 0
M  V30 11252 C 1104.37 3.03819 4.21889 0
M  V30 11253 C 1102.05 2.37775 4.42457 0
M  V30 11254 C 1104.05 4.30316 4.7022 0
M  V30 11255 C 1101.73 3.64512 4.90484 0
M  V30 11256 C 1102.73 4.60597 5.04321 0
M  V30 11257 O 1102.42 5.85082 5.51302 0
M  V30 11258 H 1102.15 0.210152 0.642504 0
M  V30 11259 H 1104.7 1.22188 1.65104 0
M  V30 11260 H 1102.93 -0.0498253 3.86668 0
M  V30 11261 H 1104.62 0.328884 4.04565 0
M  V30 11262 H 1105.39 2.81057 3.95262 0
M  V30 11263 H 1101.27 1.63742 4.3094 0
M  V30 11264 H 1104.81 5.05318 4.80936 0
M  V30 11265 H 1100.71 3.87101 5.1655 0
M  V30 11266 H 1101.48 5.87791 5.69599 0
M  V30 11267 N 1104.14 -1.42577 0.671525 0
M  V30 11268 C 1105.07 -2.33499 0.00506984 0
M  V30 11269 C 1106.05 -1.50497 -0.792763 0
M  V30 11270 O 1107.24 -1.79109 -0.750574 0
M  V30 11271 C 1104.37 -3.34077 -0.949194 0
M  V30 11272 C 1103.32 -4.27208 -0.260187 0
M  V30 11273 C 1102.65 -5.17968 -1.32716 0
M  V30 11274 C 1103.95 -5.15192 0.858772 0
M  V30 11275 H 1105.64 -2.89477 0.764407 0
M  V30 11276 H 1103.19 -1.39191 0.369043 0
M  V30 11277 H 1105.14 -3.96594 -1.42448 0
M  V30 11278 H 1103.86 -2.76396 -1.73991 0
M  V30 11279 H 1102.52 -3.66082 0.194834 0
M  V30 11280 H 1102.17 -4.56615 -2.10979 0
M  V30 11281 H 1101.87 -5.81104 -0.871293 0
M  V30 11282 H 1103.39 -5.83359 -1.80345 0
M  V30 11283 H 1104.81 -5.71412 0.464844 0
M  V30 11284 H 1103.21 -5.87144 1.24023 0
M  V30 11285 H 1104.28 -4.53787 1.70895 0
M  V30 11286 N 1105.62 -0.414636 -1.52048 0
M  V30 11287 C 1106.55 0.399119 -2.30064 0
M  V30 11288 C 1107.53 1.04126 -1.34506 0
M  V30 11289 O 1108.71 1.04923 -1.63416 0
M  V30 11290 C 1105.84 1.51305 -3.12608 0
M  V30 11291 C 1104.8 0.995621 -4.16259 0
M  V30 11292 C 1104.12 2.20357 -4.87183 0
M  V30 11293 C 1105.42 0.0458178 -5.2228 0
M  V30 11294 H 1107.12 -0.251879 -2.98339 0
M  V30 11295 H 1104.66 -0.122579 -1.43477 0
M  V30 11296 H 1106.62 2.08936 -3.65956 0
M  V30 11297 H 1105.34 2.19201 -2.42113 0
M  V30 11298 H 1104 0.441676 -3.6393 0
M  V30 11299 H 1103.65 2.8682 -4.13211 0
M  V30 11300 H 1103.35 1.86385 -5.57256 0
M  V30 11301 H 1104.87 2.78584 -5.43345 0
M  V30 11302 H 1106.29 0.531102 -5.70835 0
M  V30 11303 H 1104.68 -0.20536 -5.99749 0
M  V30 11304 H 1105.75 -0.897807 -4.76516 0
M  V30 11305 N 1107.1 1.56929 -0.145233 0
M  V30 11306 C 1108.37 1.8767 0.551288 0
M  V30 11307 C 1108.75 1.05089 1.83083 0
M  V30 11308 O 1108.1 0.137201 2.28088 0
M  V30 11309 C 1108.31 3.39268 0.818445 0
M  V30 11310 C 1109.66 4.08447 1.16 0
M  V30 11311 O 1110.68 3.44436 0.907857 0
M  V30 11312 O 1109.54 5.21488 1.63441 0
M  V30 11313 H 1106.64 0.777788 0.281024 0
M  V30 11314 H 1109.18 1.68724 -0.181712 0
M  V30 11315 H 1107.95 3.91203 -0.0871897 0
M  V30 11316 H 1107.58 3.63735 1.60569 0
M  V30 11317 N 1108.58 -0.128553 1.57075 0
M  V30 11318 C 1109.52 -1.15812 1.9964 0
M  V30 11319 C 1110.49 -1.41679 0.86696 0
M  V30 11320 O 1111.68 -1.53705 1.13046 0
M  V30 11321 C 1108.82 -2.48198 2.39774 0
M  V30 11322 C 1107.93 -2.29348 3.66092 0
M  V30 11323 C 1107.07 -3.54898 3.95248 0
M  V30 11324 C 1106.1 -3.31164 5.14779 0
M  V30 11325 N 1105.24 -4.48891 5.39853 0
M  V30 11326 H 1110.08 -0.788136 2.87389 0
M  V30 11327 H 1107.62 -0.377682 1.42169 0
M  V30 11328 H 1109.58 -3.25414 2.61077 0
M  V30 11329 H 1108.21 -2.83108 1.5508 0
M  V30 11330 H 1107.26 -1.43095 3.5246 0
M  V30 11331 H 1108.57 -2.07781 4.53463 0
M  V30 11332 H 1107.72 -4.40536 4.17148 0
M  V30 11333 H 1106.46 -3.79487 3.06335 0
M  V30 11334 H 1105.47 -2.43915 4.92733 0
M  V30 11335 H 1106.69 -3.07954 6.05261 0
M  V30 11336 H 1104.64 -4.73619 4.53895 0
M  V30 11337 H 1104.56 -4.30394 6.21528 0
M  V30 11338 H 1105.82 -5.35691 5.66265 0
M  V30 11339 N 1110.05 -1.5248 -0.398459 0
M  V30 11340 C 1111.33 -1.57634 -1.15805 0
M  V30 11341 C 1111.71 -0.363785 -2.07942 0
M  V30 11342 O 1111.06 0.648598 -2.19101 0
M  V30 11343 C 1111.27 -2.91042 -1.92602 0
M  V30 11344 C 1112.62 -3.44433 -2.48296 0
M  V30 11345 O 1113.64 -2.92853 -2.0277 0
M  V30 11346 O 1112.5 -4.34529 -3.31432 0
M  V30 11347 H 1109.59 -0.63539 -0.529347 0
M  V30 11348 H 1112.14 -1.64812 -0.404376 0
M  V30 11349 H 1110.91 -3.7074 -1.25169 0
M  V30 11350 H 1110.53 -2.87206 -2.74952 0
M  V30 11351 N 1111.53 0.65634 -1.43283 0
M  V30 11352 C 1112.81 1.41339 -1.35213 0
M  V30 11353 C 1113.19 2.111 0.00158494 0
M  V30 11354 O 1112.54 2.0457 1.018 0
M  V30 11355 C 1112.75 2.40066 -2.53317 0
M  V30 11356 C 1114.09 3.04159 -2.96264 0
M  V30 11357 O 1115.12 2.50393 -2.53341 0
M  V30 11358 O 1113.98 4.01633 -3.70612 0
M  V30 11359 H 1111.07 0.631325 -0.534189 0
M  V30 11360 H 1113.62 0.68351 -1.55326 0
M  V30 11361 H 1112.39 1.87444 -3.43483 0
M  V30 11362 H 1112.01 3.20509 -2.35287 0
M  V30 11363 N 1113.01 1.29761 0.894412 0
M  V30 11364 C 1114.24 1.2094 1.67872 0
M  V30 11365 C 1114.65 -0.229192 1.87404 0
M  V30 11366 O 1114.01 -1.15278 1.41482 0
M  V30 11367 C 1114.06 1.92424 3.06032 0
M  V30 11368 O 1113.78 3.30665 2.87388 0
M  V30 11369 C 1115.28 1.90144 4.0045 0
M  V30 11370 H 1112.5 0.418942 0.524145 0
M  V30 11371 H 1115.05 1.71226 1.11813 0
M  V30 11372 H 1113.2 1.4596 3.58851 0
M  V30 11373 H 1113.62 3.66741 3.74969 0
M  V30 11374 H 1115.09 2.44716 4.94791 0
M  V30 11375 H 1115.57 0.878175 4.30331 0
M  V30 11376 H 1116.17 2.36375 3.53563 0
M  V30 11377 N 1114.49 -1.10549 1.12324 0
M  V30 11378 C 1115.43 -2.16858 0.790024 0
M  V30 11379 C 1116.4 -1.64317 -0.242694 0
M  V30 11380 O 1117.59 -1.90438 -0.117531 0
M  V30 11381 C 1114.73 -3.44197 0.249503 0
M  V30 11382 C 1113.84 -4.10696 1.33989 0
M  V30 11383 C 1112.98 -5.25751 0.758932 0
M  V30 11384 C 1112.02 -5.8415 1.82853 0
M  V30 11385 N 1111.15 -6.90585 1.26637 0
M  V30 11386 H 1115.99 -2.44705 1.7007 0
M  V30 11387 H 1113.53 -1.20117 0.849141 0
M  V30 11388 H 1115.49 -4.1712 -0.0819251 0
M  V30 11389 H 1114.12 -3.16705 -0.624332 0
M  V30 11390 H 1113.17 -3.35754 1.78812 0
M  V30 11391 H 1114.48 -4.50144 2.14875 0
M  V30 11392 H 1113.64 -6.05521 0.378104 0
M  V30 11393 H 1112.38 -4.87632 -0.0811405 0
M  V30 11394 H 1111.38 -5.03051 2.21856 0
M  V30 11395 H 1112.61 -6.24333 2.6718 0
M  V30 11396 H 1110.55 -6.54468 0.448105 0
M  V30 11397 H 1110.47 -7.28739 2.01184 0
M  V30 11398 H 1111.74 -7.74138 0.912737 0
M  V30 11399 N 1115.97 -0.914965 -1.28321 0
M  V30 11400 C 1117.24 -0.46764 -1.89928 0
M  V30 11401 C 1117.62 1.05364 -1.82925 0
M  V30 11402 O 1116.97 1.90223 -1.26599 0
M  V30 11403 C 1117.18 -0.999372 -3.34385 0
M  V30 11404 C 1118.53 -1.0522 -4.11356 0
M  V30 11405 O 1119.55 -0.9481 -3.4335 0
M  V30 11406 O 1118.41 -1.21085 -5.32917 0
M  V30 11407 H 1115.51 -0.148398 -0.813577 0
M  V30 11408 H 1118.05 -1.00583 -1.36679 0
M  V30 11409 H 1116.82 -2.04333 -3.33712 0
M  V30 11410 H 1116.45 -0.442083 -3.95135 0
M  V30 11411 N 1117.44 1.42219 -0.679077 0
M  V30 11412 C 1118.69 2.00703 -0.200309 0
M  V30 11413 C 1119.01 1.54339 1.20161 0
M  V30 11414 O 1120.21 2.0527 1.77698 0
M  V30 11415 C 1118.67 3.58586 -0.307248 0
M  V30 11416 C 1118.28 4.13937 -1.71349 0
M  V30 11417 C 1120.02 4.24351 0.112588 0
M  V30 11418 C 1117.93 5.64198 -1.77297 0
M  V30 11419 H 1116.86 0.750638 -0.0711279 0
M  V30 11420 H 1119.51 1.62893 -0.844881 0
M  V30 11421 H 1117.89 3.93921 0.40529 0
M  V30 11422 H 1119.06 3.90054 -2.45346 0
M  V30 11423 H 1117.38 3.60639 -2.08155 0
M  V30 11424 H 1119.98 5.34627 0.0883578 0
M  V30 11425 H 1120.32 4.00142 1.14857 0
M  V30 11426 H 1120.85 3.93992 -0.549093 0
M  V30 11427 H 1117.59 5.93211 -2.78892 0
M  V30 11428 H 1117.11 5.90058 -1.07662 0
M  V30 11429 H 1118.79 6.2869 -1.52835 0
M  V30 11430 N 1118.92 0.422693 1.51826 0
M  V30 11431 C 1120.17 -0.148348 2.01555 0
M  V30 11432 C 1120.49 -1.44483 1.30956 0
M  V30 11433 O 1119.76 -1.90904 0.439599 0
M  V30 11434 H 1118.34 -0.0578116 0.74476 0
M  V30 11435 H 1121 0.562046 1.8662 0
M  V30 11436 H 1120.1 -0.334766 3.10299 0
M  V30 11437 N 1120.4 -1.5685 0.153553 0
M  V30 11438 C 1121.33 -2.20101 -0.779601 0
M  V30 11439 C 1122.31 -1.15121 -1.25225 0
M  V30 11440 O 1123.5 -1.43487 -1.30862 0
M  V30 11441 C 1120.63 -2.82778 -2.01628 0
M  V30 11442 C 1119.58 -3.93643 -1.68015 0
M  V30 11443 C 1118.91 -4.43286 -2.99001 0
M  V30 11444 C 1120.21 -5.14102 -0.921774 0
M  V30 11445 H 1121.9 -2.98334 -0.252432 0
M  V30 11446 H 1119.45 -1.43499 -0.119975 0
M  V30 11447 H 1121.4 -3.25696 -2.67395 0
M  V30 11448 H 1120.12 -2.01887 -2.56728 0
M  V30 11449 H 1118.78 -3.51354 -1.04624 0
M  V30 11450 H 1118.43 -3.59208 -3.52106 0
M  V30 11451 H 1118.13 -5.18068 -2.77272 0
M  V30 11452 H 1119.65 -4.88878 -3.65828 0
M  V30 11453 H 1121.07 -5.53823 -1.48167 0
M  V30 11454 H 1119.46 -5.94687 -0.804185 0
M  V30 11455 H 1120.53 -4.84825 0.0852757 0
M  V30 11456 N 1121.88 0.120221 -1.57141 0
M  V30 11457 C 1123.29 0.677497 -1.73974 0
M  V30 11458 C 1123.64 1.80371 -0.772055 0
M  V30 11459 O 1122.76 2.16329 0.0553062 0
M  V30 11460 C 1123.36 1.23575 -3.1546 0
M  V30 11461 C 1121.92 1.73933 -3.33803 0
M  V30 11462 C 1121.07 0.638542 -2.69848 0
M  V30 11463 H 1124.02 -0.105685 -1.58348 0
M  V30 11464 H 1124.04 2.10542 -3.16942 0
M  V30 11465 H 1123.55 0.415851 -3.85866 0
M  V30 11466 H 1121.65 2.58404 -2.68437 0
M  V30 11467 H 1121.76 1.84961 -4.41957 0
M  V30 11468 H 1120.13 1.07185 -2.31049 0
M  V30 11469 H 1120.91 -0.170356 -3.42877 0
M  V30 11470 N 1123.36 1.52689 0.390367 0
M  V30 11471 C 1124.27 1.8029 1.50108 0
M  V30 11472 C 1125.28 0.689582 1.59752 0
M  V30 11473 O 1126.46 0.977024 1.76114 0
M  V30 11474 C 1123.52 1.96475 2.85654 0
M  V30 11475 C 1122.58 3.2039 2.85743 0
M  V30 11476 C 1121.82 3.35793 4.14824 0
M  V30 11477 O 1122.04 2.56033 5.09709 0
M  V30 11478 O 1120.97 4.2904 4.22147 0
M  V30 11479 H 1124.8 2.74605 1.29715 0
M  V30 11480 H 1122.39 1.37763 0.578074 0
M  V30 11481 H 1124.27 2.08835 3.66013 0
M  V30 11482 H 1122.94 1.05351 3.06077 0
M  V30 11483 H 1121.85 3.13473 2.0417 0
M  V30 11484 H 1123.18 4.11356 2.70272 0
M  V30 11485 N 1124.83 -0.648732 1.43629 0
M  V30 11486 C 1126.08 -1.40446 1.44768 0
M  V30 11487 C 1126.4 -1.95447 0.0773445 0
M  V30 11488 O 1127.6 -2.71479 -0.0337942 0
M  V30 11489 C 1126.06 -2.54194 2.54781 0
M  V30 11490 C 1125.67 -2.05781 3.97942 0
M  V30 11491 C 1127.41 -3.31529 2.65121 0
M  V30 11492 C 1125.32 -3.16767 4.99412 0
M  V30 11493 H 1124.25 -0.527717 0.538545 0
M  V30 11494 H 1126.9 -0.699756 1.69634 0
M  V30 11495 H 1125.28 -3.27156 2.23125 0
M  V30 11496 H 1126.45 -1.398 4.39081 0
M  V30 11497 H 1124.77 -1.41312 3.91688 0
M  V30 11498 H 1127.37 -4.14233 3.38105 0
M  V30 11499 H 1127.71 -3.79855 1.70341 0
M  V30 11500 H 1128.24 -2.65649 2.961 0
M  V30 11501 H 1124.98 -2.73404 5.9576 0
M  V30 11502 H 1124.5 -3.81445 4.62882 0
M  V30 11503 H 1126.18 -3.81827 5.22319 0
M  V30 11504 N 1126.31 -1.30234 -0.887518 0
M  V30 11505 C 1127.54 -1.21829 -1.67229 0
M  V30 11506 C 1127.96 0.219251 -1.87523 0
M  V30 11507 O 1127.31 1.14526 -1.42091 0
M  V30 11508 C 1127.36 -1.94044 -3.05007 0
M  V30 11509 O 1127.08 -3.32185 -2.85631 0
M  V30 11510 C 1128.59 -1.92265 -3.99436 0
M  V30 11511 H 1125.81 -0.421716 -0.521916 0
M  V30 11512 H 1128.35 -1.71816 -1.10903 0
M  V30 11513 H 1126.5 -1.47861 -3.58072 0
M  V30 11514 H 1126.92 -3.68724 -3.73018 0
M  V30 11515 H 1128.39 -2.47336 -4.93486 0
M  V30 11516 H 1128.87 -0.900984 -4.29859 0
M  V30 11517 H 1129.48 -2.38247 -3.52305 0
M  V30 11518 N 1127.79 1.09952 -1.12909 0
M  V30 11519 C 1129.2 1.63516 -0.901087 0
M  V30 11520 C 1129.55 1.87932 0.563547 0
M  V30 11521 O 1128.68 1.625 1.42908 0
M  V30 11522 C 1129.27 2.97054 -1.62924 0
M  V30 11523 C 1127.83 3.47464 -1.44725 0
M  V30 11524 C 1126.98 2.21979 -1.66194 0
M  V30 11525 H 1129.93 0.933858 -1.28315 0
M  V30 11526 H 1129.95 3.64757 -1.08318 0
M  V30 11527 H 1129.46 2.79251 -2.69519 0
M  V30 11528 H 1127.56 3.70402 -0.40409 0
M  V30 11529 H 1127.68 4.25254 -2.20671 0
M  V30 11530 H 1126.04 2.30368 -1.0864 0
M  V30 11531 H 1126.82 2.06702 -2.74097 0
M  V30 11532 N 1129.27 0.921757 1.27833 0
M  V30 11533 C 1130.22 0.414838 2.27041 0
M  V30 11534 C 1131.19 -0.515045 1.57913 0
M  V30 11535 O 1132.37 -0.435499 1.85763 0
M  V30 11536 C 1129.51 -0.331744 3.43502 0
M  V30 11537 C 1128.62 0.631565 4.27358 0
M  V30 11538 C 1127.76 -0.134265 5.3103 0
M  V30 11539 C 1126.8 0.822138 6.06554 0
M  V30 11540 N 1125.93 0.0893149 7.02043 0
M  V30 11541 H 1130.77 1.26585 2.69778 0
M  V30 11542 H 1128.31 0.635488 1.32665 0
M  V30 11543 H 1130.27 -0.780866 4.09827 0
M  V30 11544 H 1128.9 -1.14704 3.01733 0
M  V30 11545 H 1127.95 1.19922 3.61003 0
M  V30 11546 H 1129.26 1.36274 4.79824 0
M  V30 11547 H 1128.42 -0.643579 6.03277 0
M  V30 11548 H 1127.16 -0.898443 4.79353 0
M  V30 11549 H 1126.16 1.34275 5.33151 0
M  V30 11550 H 1127.39 1.586 6.6032 0
M  V30 11551 H 1125.33 -0.656725 6.52704 0
M  V30 11552 H 1125.25 0.760167 7.52169 0
M  V30 11553 H 1126.52 -0.399541 7.78475 0
M  V30 11554 N 1130.75 -1.41857 0.686609 0
M  V30 11555 C 1131.68 -2.33481 0.0298353 0
M  V30 11556 C 1132.66 -1.51329 -0.776756 0
M  V30 11557 O 1133.84 -1.79895 -0.731535 0
M  V30 11558 C 1130.97 -3.35065 -0.913707 0
M  V30 11559 C 1129.93 -4.2746 -0.214861 0
M  V30 11560 C 1129.25 -5.19346 -1.27215 0
M  V30 11561 C 1130.55 -5.14252 0.913367 0
M  V30 11562 H 1132.25 -2.8865 0.795067 0
M  V30 11563 H 1129.79 -1.38792 0.383785 0
M  V30 11564 H 1131.75 -3.98082 -1.38234 0
M  V30 11565 H 1130.47 -2.78226 -1.7105 0
M  V30 11566 H 1129.13 -3.65855 0.233651 0
M  V30 11567 H 1128.78 -4.58827 -2.06124 0
M  V30 11568 H 1128.48 -5.81996 -0.80961 0
M  V30 11569 H 1130 -5.85239 -1.74147 0
M  V30 11570 H 1131.41 -5.70887 0.525424 0
M  V30 11571 H 1129.81 -5.85796 1.30244 0
M  V30 11572 H 1130.88 -4.51949 1.75699 0
M  V30 11573 N 1132.22 -0.430739 -1.51599 0
M  V30 11574 C 1133.13 0.390347 -2.3133 0
M  V30 11575 C 1134.15 1.03376 -1.39962 0
M  V30 11576 O 1135.33 1.03057 -1.73035 0
M  V30 11577 C 1132.39 1.48039 -3.13505 0
M  V30 11578 C 1131.45 0.857792 -4.20643 0
M  V30 11579 C 1130.69 1.89589 -4.9889 0
M  V30 11580 O 1130.91 3.11717 -4.77691 0
M  V30 11581 O 1129.84 1.49009 -5.83164 0
M  V30 11582 H 1133.67 -0.260358 -3.02582 0
M  V30 11583 H 1131.25 -0.193428 -1.48143 0
M  V30 11584 H 1133.14 2.11272 -3.64612 0
M  V30 11585 H 1131.81 2.1153 -2.45024 0
M  V30 11586 H 1130.72 0.187592 -3.73629 0
M  V30 11587 H 1132.05 0.266474 -4.91478 0
M  V30 11588 N 1133.7 1.56767 -0.161869 0
M  V30 11589 C 1135.12 1.58412 0.194403 0
M  V30 11590 C 1135.32 1.17682 1.63564 0
M  V30 11591 O 1134.37 0.884024 2.36519 0
M  V30 11592 C 1135.69 3.00599 -0.0778438 0
M  V30 11593 C 1137.24 3.12996 -0.015307 0
M  V30 11594 C 1137.71 4.57259 -0.260418 0
M  V30 11595 N 1139.2 4.62733 -0.207863 0
M  V30 11596 C 1139.94 5.72193 -0.371821 0
M  V30 11597 N 1139.43 6.90246 -0.594318 0
M  V30 11598 N 1141.23 5.61253 -0.308384 0
M  V30 11599 H 1133.38 1.81531 -1.10274 0
M  V30 11600 H 1135.64 0.840919 -0.437675 0
M  V30 11601 H 1135.35 3.3484 -1.07587 0
M  V30 11602 H 1135.22 3.71819 0.634845 0
M  V30 11603 H 1137.61 2.78588 0.97329 0
M  V30 11604 H 1137.69 2.44232 -0.760559 0
M  V30 11605 H 1137.33 4.92375 -1.24618 0
M  V30 11606 H 1137.26 5.2417 0.505334 0
M  V30 11607 H 1139.75 3.77878 -0.0411541 0
M  V30 11608 H 1140.07 7.6954 -0.70913 0
M  V30 11609 H 1138.41 6.92131 -0.630819 0
M  V30 11610 H 1141.6 4.67905 -0.135217 0
M  V30 11611 H 1141.77 6.46507 -0.439592 0
M  V30 11612 N 1135.18 -0.111886 1.57202 0
M  V30 11613 C 1136.11 -1.13796 2.03894 0
M  V30 11614 C 1137.09 -1.4277 0.924696 0
M  V30 11615 O 1138.28 -1.53089 1.19488 0
M  V30 11616 C 1135.41 -2.46229 2.44925 0
M  V30 11617 C 1134.36 -2.31702 3.59859 0
M  V30 11618 C 1133.69 -3.69161 3.86813 0
M  V30 11619 C 1134.99 -1.77158 4.91337 0
M  V30 11620 H 1136.68 -0.749581 2.89865 0
M  V30 11621 H 1134.23 -0.359126 1.3945 0
M  V30 11622 H 1136.18 -3.18267 2.76195 0
M  V30 11623 H 1134.9 -2.86971 1.55933 0
M  V30 11624 H 1133.56 -1.62112 3.28809 0
M  V30 11625 H 1133.21 -4.07401 2.95015 0
M  V30 11626 H 1132.91 -3.60292 4.6418 0
M  V30 11627 H 1134.43 -4.42693 4.20542 0
M  V30 11628 H 1135.85 -2.3902 5.21097 0
M  V30 11629 H 1134.25 -1.79091 5.72753 0
M  V30 11630 H 1135.32 -0.729675 4.79379 0
M  V30 11631 N 1136.66 -1.52894 -0.382264 0
M  V30 11632 C 1137.94 -1.58853 -1.14127 0
M  V30 11633 C 1138.32 -0.38582 -2.07544 0
M  V30 11634 O 1137.66 0.625323 -2.19777 0
M  V30 11635 C 1137.87 -2.93068 -1.89504 0
M  V30 11636 C 1139.22 -3.47048 -2.44629 0
M  V30 11637 O 1140.25 -2.94987 -1.99652 0
M  V30 11638 O 1139.1 -4.3802 -3.26804 0
M  V30 11639 H 1136.2 -0.640969 -0.522578 0
M  V30 11640 H 1138.74 -1.65231 -0.386873 0
M  V30 11641 H 1137.52 -3.72047 -1.2123 0
M  V30 11642 H 1137.14 -2.90106 -2.7189 0
M  V30 11643 N 1138.14 0.641106 -1.43971 0
M  V30 11644 C 1139.36 1.43324 -1.4991 0
M  V30 11645 C 1139.79 1.87705 -0.121908 0
M  V30 11646 O 1139.15 1.58127 0.886875 0
M  V30 11647 C 1139.19 2.63637 -2.46025 0
M  V30 11648 O 1138.3 3.63123 -1.95488 0
M  V30 11649 H 1137.64 0.429252 -0.506595 0
M  V30 11650 H 1140.17 0.783427 -1.89007 0
M  V30 11651 H 1140.18 3.11304 -2.63731 0
M  V30 11652 H 1138.85 2.30678 -3.46064 0
M  V30 11653 H 1137.43 3.22332 -1.87501 0
M  V30 11654 N 1139.62 1.30703 0.880598 0
M  V30 11655 C 1140.56 1.17455 1.98678 0
M  V30 11656 C 1141.53 0.0629569 1.65981 0
M  V30 11657 O 1142.72 0.233926 1.89361 0
M  V30 11658 C 1139.86 0.876882 3.33774 0
M  V30 11659 C 1138.97 2.07078 3.79134 0
M  V30 11660 C 1138.11 1.71082 5.02896 0
M  V30 11661 C 1137.14 2.86942 5.40676 0
M  V30 11662 N 1136.28 2.51212 6.55619 0
M  V30 11663 H 1141.12 2.12086 2.09341 0
M  V30 11664 H 1138.66 1.05514 1.02495 0
M  V30 11665 H 1140.62 0.684899 4.1154 0
M  V30 11666 H 1139.25 -0.0325633 3.22784 0
M  V30 11667 H 1138.3 2.37388 2.97239 0
M  V30 11668 H 1139.61 2.9383 4.0307 0
M  V30 11669 H 1138.76 1.48284 5.883 0
M  V30 11670 H 1137.5 0.815064 4.80841 0
M  V30 11671 H 1136.51 3.10401 4.53797 0
M  V30 11672 H 1137.73 3.77211 5.64703 0
M  V30 11673 H 1135.68 1.64147 6.35131 0
M  V30 11674 H 1135.6 3.31495 6.79446 0
M  V30 11675 H 1136.86 2.31781 7.44243 0
M  V30 11676 N 1141.09 -1.09351 1.1349 0
M  V30 11677 C 1142.32 -1.85304 0.920324 0
M  V30 11678 C 1142.74 -1.81182 -0.530883 0
M  V30 11679 O 1142.09 -1.20853 -1.36751 0
M  V30 11680 C 1142.14 -3.33249 1.40098 0
M  V30 11681 O 1141.87 -3.37333 2.79531 0
M  V30 11682 C 1143.37 -4.2604 1.22495 0
M  V30 11683 H 1140.59 -0.585294 0.328134 0
M  V30 11684 H 1143.13 -1.38168 1.50765 0
M  V30 11685 H 1141.29 -3.7781 0.85664 0
M  V30 11686 H 1141.7 -4.29614 3.00885 0
M  V30 11687 H 1143.17 -5.27999 1.61 0
M  V30 11688 H 1143.65 -4.38883 0.166717 0
M  V30 11689 H 1144.26 -3.87295 1.75735 0
M  V30 11690 N 1142.57 -0.928524 -1.27343 0
M  V30 11691 C 1143.85 -0.487758 -1.89421 0
M  V30 11692 C 1144.23 1.03418 -1.84032 0
M  V30 11693 O 1143.58 1.8887 -1.2861 0
M  V30 11694 C 1143.79 -1.03478 -3.33307 0
M  V30 11695 C 1145.13 -1.09577 -4.10217 0
M  V30 11696 O 1146.16 -0.984463 -3.42326 0
M  V30 11697 O 1145.02 -1.2673 -5.31603 0
M  V30 11698 H 1142.11 -0.157018 -0.811957 0
M  V30 11699 H 1144.66 -1.02027 -1.35605 0
M  V30 11700 H 1143.43 -2.07861 -3.31526 0
M  V30 11701 H 1143.05 -0.483967 -3.94644 0
M  V30 11702 N 1144.05 1.41491 -0.694123 0
M  V30 11703 C 1145.46 1.84283 -0.299439 0
M  V30 11704 C 1145.81 1.58081 1.16211 0
M  V30 11705 O 1144.94 1.05051 1.89191 0
M  V30 11706 C 1145.53 3.34522 -0.536696 0
M  V30 11707 C 1144.09 3.7589 -0.195944 0
M  V30 11708 C 1143.24 2.64908 -0.819692 0
M  V30 11709 H 1146.19 1.31063 -0.894884 0
M  V30 11710 H 1146.21 3.79947 0.205062 0
M  V30 11711 H 1145.72 3.53561 -1.6005 0
M  V30 11712 H 1143.82 3.62452 0.863655 0
M  V30 11713 H 1143.94 4.74671 -0.649954 0
M  V30 11714 H 1142.3 2.53476 -0.249412 0
M  V30 11715 H 1143.08 2.86765 -1.88734 0
M  V30 11716 N 1145.53 0.438773 1.51369 0
M  V30 11717 C 1146.49 -0.36032 2.2635 0
M  V30 11718 C 1147.49 -0.948465 1.29849 0
M  V30 11719 O 1148.68 -0.822692 1.53549 0
M  V30 11720 C 1145.81 -1.50994 3.05636 0
M  V30 11721 H 1147.01 0.296826 2.98427 0
M  V30 11722 H 1144.56 0.191978 1.55117 0
M  V30 11723 H 1145.29 -2.2031 2.37979 0
M  V30 11724 H 1145.08 -1.09437 3.76518 0
M  V30 11725 H 1146.57 -2.07447 3.6243 0
M  V30 11726 N 1147.01 -1.56678 0.170181 0
M  V30 11727 C 1148.23 -2.0166 -0.484543 0
M  V30 11728 C 1148.66 -1.04962 -1.56091 0
M  V30 11729 O 1148.01 -0.0289887 -1.81277 0
M  V30 11730 C 1148.06 -3.45252 -1.04084 0
M  V30 11731 O 1147.17 -3.51623 -2.15488 0
M  V30 11732 H 1146.51 -0.653765 -0.116135 0
M  V30 11733 H 1149.04 -2.02761 0.273737 0
M  V30 11734 H 1149.05 -3.84534 -1.36373 0
M  V30 11735 H 1147.72 -4.15131 -0.252738 0
M  V30 11736 H 1146.3 -3.242 -1.84252 0
M  V30 11737 N 1148.48 0.103547 -1.57259 0
M  V30 11738 C 1149.43 1.14513 -2.02459 0
M  V30 11739 C 1150.43 1.4197 -0.924163 0
M  V30 11740 O 1151.63 1.41751 -1.10936 0
M  V30 11741 H 1148.01 0.386469 -0.645094 0
M  V30 11742 H 1149.98 0.737531 -2.89142 0
M  V30 11743 C 1148.73 2.45948 -2.45775 0
M  V30 11744 H 1148.05 2.25662 -3.30026 0
M  V30 11745 H 1149.49 3.17351 -2.81184 0
M  V30 11746 C 1147.95 3.09639 -1.32759 0
M  V30 11747 O 1148.48 3.96372 -0.652059 0
M  V30 11748 N 1146.68 2.69757 -1.08072 0
M  V30 11749 H 1146.23 1.9932 -1.63185 0
M  V30 11750 H 1146.19 3.127 -0.326532 0
M  V30 11751 N 1149.96 1.53094 0.37415 0
M  V30 11752 C 1151.19 1.72758 1.13852 0
M  V30 11753 C 1151.6 0.452638 1.83294 0
M  V30 11754 O 1150.96 -0.573906 1.73241 0
M  V30 11755 C 1151.01 2.88724 2.17534 0
M  V30 11756 O 1150.73 4.11284 1.5092 0
M  V30 11757 C 1152.23 3.2019 3.06584 0
M  V30 11758 H 1149.45 0.578028 0.340771 0
M  V30 11759 H 1152 1.99805 0.435683 0
M  V30 11760 H 1150.15 2.64096 2.83429 0
M  V30 11761 H 1150.57 4.76162 2.19932 0
M  V30 11762 H 1152.04 4.04759 3.75332 0
M  V30 11763 H 1152.52 2.35193 3.70919 0
M  V30 11764 H 1153.12 3.46712 2.46315 0
M  V30 11765 N 1151.44 -0.633461 1.44309 0
M  V30 11766 C 1152.39 -1.74554 1.50995 0
M  V30 11767 C 1153.36 -1.62199 0.357873 0
M  V30 11768 O 1154.54 -1.82156 0.567787 0
M  V30 11769 C 1151.68 -3.12792 1.45791 0
M  V30 11770 C 1150.79 -3.3614 2.71356 0
M  V30 11771 C 1149.93 -4.64337 2.58002 0
M  V30 11772 C 1148.97 -4.80855 3.78741 0
M  V30 11773 N 1148.11 -6.00327 3.64077 0
M  V30 11774 H 1152.95 -1.68174 2.46011 0
M  V30 11775 H 1150.48 -0.820407 1.22097 0
M  V30 11776 H 1152.44 -3.92735 1.40765 0
M  V30 11777 H 1151.07 -3.18193 0.543445 0
M  V30 11778 H 1150.12 -2.50154 2.86579 0
M  V30 11779 H 1151.43 -3.44226 3.60985 0
M  V30 11780 H 1150.59 -5.52437 2.50795 0
M  V30 11781 H 1149.33 -4.58605 1.65929 0
M  V30 11782 H 1148.33 -3.91185 3.86334 0
M  V30 11783 H 1149.56 -4.88403 4.71847 0
M  V30 11784 H 1147.5 -5.9569 2.74754 0
M  V30 11785 H 1147.42 -6.09459 4.47321 0
M  V30 11786 H 1148.69 -6.90995 3.60758 0
M  V30 11787 N 1152.92 -1.31168 -0.873655 0
M  V30 11788 C 1153.85 -1.21094 -1.99646 0
M  V30 11789 C 1154.83 -0.0989684 -1.69812 0
M  V30 11790 O 1156.01 -0.282939 -1.92128 0
M  V30 11791 C 1153.14 -0.913684 -3.35066 0
M  V30 11792 C 1152.1 -1.98482 -3.79195 0
M  V30 11793 C 1151.42 -1.54033 -5.12033 0
M  V30 11794 C 1152.72 -3.39745 -3.96699 0
M  V30 11795 H 1154.42 -2.1503 -2.08333 0
M  V30 11796 H 1151.96 -1.03521 -1.00097 0
M  V30 11797 H 1153.92 -0.829821 -4.13149 0
M  V30 11798 H 1152.64 0.0613471 -3.26542 0
M  V30 11799 H 1151.3 -2.05851 -3.03349 0
M  V30 11800 H 1150.95 -0.553261 -4.99948 0
M  V30 11801 H 1150.65 -2.25688 -5.4253 0
M  V30 11802 H 1152.17 -1.47047 -5.92629 0
M  V30 11803 H 1153.59 -3.35071 -4.65188 0
M  V30 11804 H 1151.98 -4.09585 -4.38589 0
M  V30 11805 H 1153.05 -3.80802 -3.00196 0
M  V30 11806 N 1154.4 1.08748 -1.14068 0
M  V30 11807 C 1155.65 1.8044 -0.901352 0
M  V30 11808 C 1155.96 1.86995 0.573791 0
M  V30 11809 O 1157.16 2.55065 0.930275 0
M  V30 11810 C 1155.62 3.24185 -1.56308 0
M  V30 11811 C 1155.23 3.25875 -3.07424 0
M  V30 11812 C 1156.97 4.00584 -1.40473 0
M  V30 11813 C 1154.88 4.64186 -3.66449 0
M  V30 11814 H 1153.81 0.676201 -0.333569 0
M  V30 11815 H 1156.46 1.22169 -1.3692 0
M  V30 11816 H 1154.84 3.82561 -1.0229 0
M  V30 11817 H 1156.02 2.77225 -3.6808 0
M  V30 11818 H 1154.33 2.62969 -3.22856 0
M  V30 11819 H 1156.93 5.02781 -1.81976 0
M  V30 11820 H 1157.27 4.14823 -0.350408 0
M  V30 11821 H 1157.8 3.48668 -1.91508 0
M  V30 11822 H 1154.54 4.5515 -4.71719 0
M  V30 11823 H 1154.06 5.13132 -3.10574 0
M  V30 11824 H 1155.74 5.33161 -3.66536 0
M  V30 11825 N 1155.87 0.935264 1.26849 0
M  V30 11826 C 1156.84 0.44485 2.24842 0
M  V30 11827 C 1157.84 -0.440781 1.54641 0
M  V30 11828 O 1159.03 -0.240793 1.72528 0
M  V30 11829 C 1156.16 -0.359566 3.38998 0
M  V30 11830 H 1157.35 1.31074 2.6974 0
M  V30 11831 H 1154.91 0.716665 1.38901 0
M  V30 11832 H 1155.64 -1.24396 2.99493 0
M  V30 11833 H 1155.43 0.275529 3.91131 0
M  V30 11834 H 1156.92 -0.692804 4.11813 0
M  V30 11835 N 1157.35 -1.41121 0.701616 0
M  V30 11836 C 1158.29 -2.28198 -0.010533 0
M  V30 11837 C 1159.26 -1.42569 -0.78185 0
M  V30 11838 O 1160.45 -1.71993 -0.771408 0
M  V30 11839 C 1157.57 -3.22903 -1.02231 0
M  V30 11840 C 1156.62 -4.25115 -0.343454 0
M  V30 11841 S 1157.45 -5.27563 0.918553 0
M  V30 11842 C 1158.61 -6.25833 -0.0914763 0
M  V30 11843 H 1158.84 -2.88249 0.727995 0
M  V30 11844 H 1156.38 -1.46348 0.492112 0
M  V30 11845 H 1158.33 -3.77997 -1.60089 0
M  V30 11846 H 1156.99 -2.61936 -1.73345 0
M  V30 11847 H 1156.19 -4.91674 -1.10782 0
M  V30 11848 H 1155.79 -3.73648 0.162206 0
M  V30 11849 H 1158.08 -6.70908 -0.942826 0
M  V30 11850 H 1159.02 -7.06035 0.540351 0
M  V30 11851 H 1159.43 -5.62712 -0.448956 0
M  V30 11852 N 1158.83 -0.446794 -1.51134 0
M  V30 11853 C 1159.78 0.359865 -2.27977 0
M  V30 11854 C 1160.75 1.0086 -1.31972 0
M  V30 11855 O 1161.93 1.02569 -1.60886 0
M  V30 11856 C 1159.07 1.44978 -3.1317 0
M  V30 11857 C 1158.19 0.818243 -4.2418 0
M  V30 11858 C 1157.32 1.884 -4.96668 0
M  V30 11859 C 1156.36 1.2314 -5.99586 0
M  V30 11860 N 1155.5 2.23894 -6.65444 0
M  V30 11861 H 1160.34 -0.301775 -2.96468 0
M  V30 11862 H 1157.87 -0.160666 -1.4622 0
M  V30 11863 H 1159.83 2.09308 -3.60896 0
M  V30 11864 H 1158.46 2.08092 -2.46775 0
M  V30 11865 H 1157.51 0.0629889 -3.80348 0
M  V30 11866 H 1158.83 0.301885 -4.97886 0
M  V30 11867 H 1157.98 2.6037 -5.4799 0
M  V30 11868 H 1156.72 2.43411 -4.22614 0
M  V30 11869 H 1155.72 0.497215 -5.47547 0
M  V30 11870 H 1156.95 0.688505 -6.75601 0
M  V30 11871 H 1154.89 2.77967 -5.94197 0
M  V30 11872 H 1154.81 1.77176 -7.34945 0
M  V30 11873 H 1156.08 2.95318 -7.21393 0
M  V30 11874 N 1160.31 1.56586 -0.178487 0
M  V30 11875 C 1161.54 2.01475 0.470684 0
M  V30 11876 C 1161.95 1.0587 1.56323 0
M  V30 11877 O 1161.31 0.060749 1.82399 0
M  V30 11878 C 1161.36 3.46145 1.04238 0
M  V30 11879 O 1161.08 4.381 -0.0065582 0
M  V30 11880 C 1162.58 4.06471 1.76908 0
M  V30 11881 H 1159.8 0.660219 0.119801 0
M  V30 11882 H 1162.35 2.02542 -0.282322 0
M  V30 11883 H 1160.5 3.45831 1.74585 0
M  V30 11884 H 1160.91 5.22843 0.416554 0
M  V30 11885 H 1162.39 5.096 2.12161 0
M  V30 11886 H 1162.87 3.48974 2.66672 0
M  V30 11887 H 1163.47 4.10509 1.11186 0
M  V30 11888 N 1161.79 -0.095206 1.57312 0
M  V30 11889 C 1162.7 -1.13388 2.05379 0
M  V30 11890 C 1163.71 -1.43868 0.978668 0
M  V30 11891 O 1164.89 -1.54512 1.29182 0
M  V30 11892 C 1161.95 -2.43444 2.46852 0
M  V30 11893 C 1161.01 -2.20146 3.68557 0
M  V30 11894 C 1160.25 -3.44001 4.08043 0
M  V30 11895 O 1160.47 -4.52233 3.47623 0
M  V30 11896 O 1159.4 -3.33596 5.00997 0
M  V30 11897 H 1163.23 -0.755622 2.9415 0
M  V30 11898 H 1160.82 -0.307707 1.46197 0
M  V30 11899 H 1162.7 -3.20027 2.74155 0
M  V30 11900 H 1161.37 -2.80696 1.61219 0
M  V30 11901 H 1160.28 -1.41345 3.46371 0
M  V30 11902 H 1161.61 -1.87787 4.54969 0
M  V30 11903 N 1163.26 -1.53291 -0.366026 0
M  V30 11904 C 1164.21 -1.79697 -1.44836 0
M  V30 11905 C 1165.18 -0.641321 -1.5322 0
M  V30 11906 O 1166.37 -0.883453 -1.69115 0
M  V30 11907 C 1163.51 -1.99223 -2.81788 0
M  V30 11908 C 1162.62 -3.26938 -2.82375 0
M  V30 11909 C 1161.75 -3.36654 -4.10898 0
M  V30 11910 C 1160.79 -4.58404 -4.05626 0
M  V30 11911 N 1159.93 -4.65275 -5.25798 0
M  V30 11912 H 1164.77 -2.72053 -1.21619 0
M  V30 11913 H 1162.31 -1.34768 -0.589577 0
M  V30 11914 H 1164.27 -2.0853 -3.61346 0
M  V30 11915 H 1162.9 -1.10204 -3.03406 0
M  V30 11916 H 1161.95 -3.26587 -1.95052 0
M  V30 11917 H 1163.26 -4.16573 -2.74351 0
M  V30 11918 H 1162.41 -3.4527 -4.98872 0
M  V30 11919 H 1161.15 -2.45035 -4.21674 0
M  V30 11920 H 1160.16 -4.49888 -3.16039 0
M  V30 11921 H 1161.38 -5.51364 -3.96453 0
M  V30 11922 H 1159.33 -3.76557 -5.3716 0
M  V30 11923 H 1159.25 -5.48814 -5.19942 0
M  V30 11924 H 1160.51 -4.78175 -6.15605 0
M  V30 11925 N 1164.74 0.6258 -1.44643 0
M  V30 11926 C 1165.65 1.76611 -1.5442 0
M  V30 11927 C 1166.67 1.68614 -0.429576 0
M  V30 11928 O 1167.84 1.89296 -0.687686 0
M  V30 11929 C 1164.91 3.13015 -1.49071 0
M  V30 11930 C 1163.97 3.32604 -2.71428 0
M  V30 11931 C 1163.2 4.62501 -2.66325 0
M  V30 11932 O 1163.43 5.43651 -1.72626 0
M  V30 11933 O 1162.36 4.84408 -3.57258 0
M  V30 11934 H 1166.19 1.71315 -2.50769 0
M  V30 11935 H 1163.77 0.787677 -1.26949 0
M  V30 11936 H 1165.65 3.94318 -1.48631 0
M  V30 11937 H 1164.33 3.18842 -0.558686 0
M  V30 11938 H 1163.24 2.50959 -2.77435 0
M  V30 11939 H 1164.57 3.31642 -3.63695 0
M  V30 11940 N 1166.22 1.31629 0.866686 0
M  V30 11941 C 1167.13 1.21524 2.00671 0
M  V30 11942 C 1168.15 0.131277 1.73504 0
M  V30 11943 O 1169.32 0.349699 1.98341 0
M  V30 11944 C 1166.39 0.926491 3.34091 0
M  V30 11945 C 1165.45 2.09769 3.7456 0
M  V30 11946 C 1164.68 1.82262 5.01614 0
M  V30 11947 O 1164.9 0.759329 5.65323 0
M  V30 11948 O 1163.84 2.68031 5.38928 0
M  V30 11949 H 1167.66 2.17335 2.1213 0
M  V30 11950 H 1165.25 1.11401 0.995499 0
M  V30 11951 H 1167.13 0.78144 4.14091 0
M  V30 11952 H 1165.81 -0.00155829 3.237 0
M  V30 11953 H 1164.71 2.29816 2.95187 0
M  V30 11954 H 1166.05 3.0081 3.89582 0
M  V30 11955 N 1167.7 -1.08142 1.14644 0
M  V30 11956 C 1168.63 -2.14476 0.779437 0
M  V30 11957 C 1169.61 -1.60812 -0.240454 0
M  V30 11958 O 1170.79 -1.88059 -0.128881 0
M  V30 11959 C 1167.92 -3.38333 0.157692 0
M  V30 11960 C 1166.97 -4.10754 1.14819 0
M  V30 11961 S 1167.8 -4.63227 2.68666 0
M  V30 11962 C 1168.96 -5.90367 2.07888 0
M  V30 11963 H 1169.19 -2.45276 1.68009 0
M  V30 11964 H 1166.72 -1.20292 0.967942 0
M  V30 11965 H 1168.68 -4.10038 -0.194607 0
M  V30 11966 H 1167.34 -3.05726 -0.720435 0
M  V30 11967 H 1166.53 -4.99644 0.661226 0
M  V30 11968 H 1166.14 -3.44974 1.44462 0
M  V30 11969 H 1168.43 -6.62107 1.43599 0
M  V30 11970 H 1169.37 -6.43764 2.94913 0
M  V30 11971 H 1169.78 -5.43507 1.52514 0
M  V30 11972 N 1169.18 -0.941978 -1.26351 0
M  V30 11973 C 1170.4 -0.606231 -1.98342 0
M  V30 11974 C 1170.83 0.812014 -1.6967 0
M  V30 11975 O 1170.19 1.54712 -0.9452 0
M  V30 11976 C 1170.23 -0.855864 -3.50296 0
M  V30 11977 O 1169.34 0.0716251 -4.12338 0
M  V30 11978 H 1168.68 -0.231815 -0.62222 0
M  V30 11979 H 1171.21 -1.26513 -1.60797 0
M  V30 11980 H 1171.22 -0.777079 -4.00531 0
M  V30 11981 H 1169.89 -1.8896 -3.70496 0
M  V30 11982 H 1168.47 -0.0582866 -3.72854 0
M  V30 11983 N 1170.66 1.40747 -0.709091 0
M  V30 11984 C 1171.9 2.01003 -0.24581 0
M  V30 11985 C 1172.23 1.56203 1.15891 0
M  V30 11986 O 1171.49 0.770166 1.79908 0
M  V30 11987 C 1171.78 3.56404 -0.266685 0
M  V30 11988 C 1171.45 4.20762 -1.6208 0
M  V30 11989 C 1170.11 4.38056 -1.99148 0
M  V30 11990 C 1172.46 4.56723 -2.51105 0
M  V30 11991 C 1169.79 4.88591 -3.248 0
M  V30 11992 C 1172.14 5.08654 -3.76103 0
M  V30 11993 C 1170.81 5.24158 -4.13297 0
M  V30 11994 H 1170.08 0.73552 -0.0899481 0
M  V30 11995 H 1172.73 1.68451 -0.910844 0
M  V30 11996 H 1171.03 3.88825 0.481915 0
M  V30 11997 H 1172.73 4.0085 0.109509 0
M  V30 11998 H 1169.32 4.07685 -1.32252 0
M  V30 11999 H 1173.5 4.43004 -2.23744 0
M  V30 12000 H 1168.76 4.98779 -3.53595 0
M  V30 12001 H 1172.93 5.35457 -4.45262 0
M  V30 12002 H 1170.56 5.63079 -5.10731 0
M  V30 12003 N 1172.13 0.454803 1.50895 0
M  V30 12004 C 1173.04 -0.353495 2.31921 0
M  V30 12005 C 1174.06 -1.01136 1.41589 0
M  V30 12006 O 1175.24 -1.00291 1.74653 0
M  V30 12007 C 1172.3 -1.43032 3.15821 0
M  V30 12008 C 1171.36 -0.790763 4.21954 0
M  V30 12009 C 1170.59 -1.81628 5.01843 0
M  V30 12010 O 1170.82 -3.04078 4.8259 0
M  V30 12011 O 1169.75 -1.39713 5.8546 0
M  V30 12012 H 1173.58 0.308463 3.02129 0
M  V30 12013 H 1171.16 0.216971 1.47816 0
M  V30 12014 H 1173.04 -2.05444 3.67927 0
M  V30 12015 H 1171.72 -2.07605 2.48358 0
M  V30 12016 H 1170.63 -0.128127 3.73881 0
M  V30 12017 H 1171.96 -0.188251 4.9184 0
M  V30 12018 N 1173.61 -1.56489 0.186789 0
M  V30 12019 C 1175.02 -1.83809 -0.327265 0
M  V30 12020 C 1175.37 -1.10718 -1.61976 0
M  V30 12021 O 1174.5 -0.36525 -2.13295 0
M  V30 12022 C 1175.09 -3.33435 -0.600551 0
M  V30 12023 C 1173.65 -3.61195 -1.059 0
M  V30 12024 C 1172.8 -2.77108 -0.103131 0
M  V30 12025 H 1175.75 -1.53292 0.410747 0
M  V30 12026 H 1175.77 -3.51754 -1.45084 0
M  V30 12027 H 1175.28 -3.86605 0.340315 0
M  V30 12028 H 1173.38 -3.13451 -2.01443 0
M  V30 12029 H 1173.5 -4.69435 -0.957458 0
M  V30 12030 H 1171.86 -2.47448 -0.603449 0
M  V30 12031 H 1172.64 -3.33065 0.832031 0
M  V30 12032 N 1175.09 0.086862 -1.5736 0
M  V30 12033 C 1176.34 0.787281 -1.86135 0
M  V30 12034 C 1176.66 1.78866 -0.776667 0
M  V30 12035 O 1175.93 1.94915 0.19625 0
M  V30 12036 H 1174.51 0.293744 -0.686821 0
M  V30 12037 H 1177.17 0.0665326 -1.94786 0
M  V30 12038 H 1176.27 1.3128 -2.83147 0
M  V30 12039 N 1176.57 1.53483 0.357892 0
M  V30 12040 C 1177.84 1.60649 1.11585 0
M  V30 12041 C 1178.22 0.418789 2.06904 0
M  V30 12042 O 1177.57 -0.590279 2.20744 0
M  V30 12043 C 1177.78 2.96046 1.84818 0
M  V30 12044 C 1179.13 3.50895 2.39076 0
M  V30 12045 O 1180.15 2.98126 1.94934 0
M  V30 12046 O 1179.01 4.43163 3.19794 0
M  V30 12047 H 1176.11 0.649202 0.512315 0
M  V30 12048 H 1178.65 1.65826 0.360537 0
M  V30 12049 H 1177.43 3.73929 1.15296 0
M  V30 12050 H 1177.05 2.94395 2.6724 0
M  V30 12051 N 1178.05 -0.61812 1.44973 0
M  V30 12052 C 1178.98 -1.74299 1.48837 0
M  V30 12053 C 1179.99 -1.58296 0.38028 0
M  V30 12054 O 1181.18 -1.66371 0.646757 0
M  V30 12055 C 1178.28 -3.12179 1.31901 0
M  V30 12056 C 1177.45 -3.54519 2.56193 0
M  V30 12057 C 1176.51 -4.71324 2.33966 0
M  V30 12058 O 1175.54 -4.78975 3.07525 0
M  V30 12059 N 1176.74 -5.63894 1.37854 0
M  V30 12060 H 1179.5 -1.7145 2.45815 0
M  V30 12061 H 1177.07 -0.803087 1.40578 0
M  V30 12062 H 1179.06 -3.88059 1.14858 0
M  V30 12063 H 1177.63 -3.09595 0.43239 0
M  V30 12064 H 1176.85 -2.68711 2.88423 0
M  V30 12065 H 1178.14 -3.79563 3.38835 0
M  V30 12066 H 1177.53 -5.60418 0.771273 0
M  V30 12067 H 1176.09 -6.3935 1.26787 0
M  V30 12068 N 1179.52 -1.32087 -0.859693 0
M  V30 12069 C 1180.93 -1.20107 -1.42938 0
M  V30 12070 C 1181.29 0.188411 -1.95293 0
M  V30 12071 O 1180.41 1.08683 -1.87128 0
M  V30 12072 C 1181.01 -2.17436 -2.59821 0
M  V30 12073 C 1179.56 -2.09359 -3.12803 0
M  V30 12074 C 1178.71 -2.06086 -1.85537 0
M  V30 12075 H 1181.66 -1.43989 -0.667302 0
M  V30 12076 H 1181.68 -1.76996 -3.36828 0
M  V30 12077 H 1181.2 -3.18555 -2.21685 0
M  V30 12078 H 1179.3 -1.1147 -3.55535 0
M  V30 12079 H 1179.41 -2.98947 -3.74389 0
M  V30 12080 H 1177.77 -1.51251 -2.04928 0
M  V30 12081 H 1178.56 -3.08978 -1.49625 0
M  V30 12082 N 1181 1.07532 -1.15215 0
M  V30 12083 C 1182.25 1.79737 -0.924062 0
M  V30 12084 C 1182.57 1.87072 0.550356 0
M  V30 12085 O 1181.84 1.37029 1.4 0
M  V30 12086 H 1180.42 0.665704 -0.338891 0
M  V30 12087 H 1183.08 1.29961 -1.45245 0
M  V30 12088 H 1182.18 2.82256 -1.33184 0
M  V30 12089 N 1182.48 0.948665 1.2585 0
M  V30 12090 C 1183.71 0.616741 1.98018 0
M  V30 12091 C 1184.13 -0.803005 1.70098 0
M  V30 12092 O 1183.49 -1.54208 0.953392 0
M  V30 12093 C 1183.54 0.874429 3.49837 0
M  V30 12094 O 1182.64 -0.0497568 4.1237 0
M  V30 12095 H 1181.98 0.235112 0.620982 0
M  V30 12096 H 1184.51 1.27364 1.60124 0
M  V30 12097 H 1184.52 0.798309 4.00114 0
M  V30 12098 H 1183.2 1.90922 3.69488 0
M  V30 12099 H 1181.77 0.0780591 3.72818 0
M  V30 12100 N 1183.96 -1.40369 0.716545 0
M  V30 12101 C 1184.87 -2.34508 0.065658 0
M  V30 12102 C 1185.88 -1.57352 -0.742723 0
M  V30 12103 O 1187.06 -1.89735 -0.675456 0
M  V30 12104 C 1184.13 -3.36262 -0.844337 0
M  V30 12105 C 1183.19 -4.29292 -0.0257971 0
M  V30 12106 C 1182.42 -5.26185 -0.892452 0
M  V30 12107 O 1182.64 -5.29071 -2.13166 0
M  V30 12108 O 1181.58 -6.0099 -0.330933 0
M  V30 12109 H 1185.4 -2.91789 0.842184 0
M  V30 12110 H 1182.99 -1.41579 0.477034 0
M  V30 12111 H 1184.87 -3.98661 -1.36555 0
M  V30 12112 H 1183.54 -2.81393 -1.59999 0
M  V30 12113 H 1182.45 -3.70175 0.540512 0
M  V30 12114 H 1183.78 -4.87316 0.69166 0
M  V30 12115 N 1185.44 -0.462799 -1.50652 0
M  V30 12116 C 1186.37 0.325724 -2.31217 0
M  V30 12117 C 1187.35 0.997942 -1.3775 0
M  V30 12118 O 1188.53 0.996707 -1.66671 0
M  V30 12119 C 1185.66 1.41283 -3.17264 0
M  V30 12120 C 1184.62 0.862687 -4.19216 0
M  V30 12121 C 1183.94 2.04746 -4.93946 0
M  V30 12122 C 1185.24 -0.120365 -5.22161 0
M  V30 12123 H 1186.94 -0.346666 -2.97386 0
M  V30 12124 H 1184.48 -0.168163 -1.43015 0
M  V30 12125 H 1186.44 1.97188 -3.72418 0
M  V30 12126 H 1185.16 2.11387 -2.48964 0
M  V30 12127 H 1183.82 0.325671 -3.65151 0
M  V30 12128 H 1183.47 2.73529 -4.22127 0
M  V30 12129 H 1183.17 1.68562 -5.62904 0
M  V30 12130 H 1184.69 2.61157 -5.51932 0
M  V30 12131 H 1186.1 0.349226 -5.72235 0
M  V30 12132 H 1184.5 -0.396061 -5.98792 0
M  V30 12133 H 1185.57 -1.04895 -4.73418 0
M  V30 12134 N 1186.91 1.56388 -0.195085 0
M  V30 12135 C 1188.19 1.89329 0.491303 0
M  V30 12136 C 1188.57 1.10861 1.79647 0
M  V30 12137 O 1187.92 0.209696 2.27536 0
M  V30 12138 C 1188.13 3.417 0.710096 0
M  V30 12139 C 1189.48 4.11931 1.02947 0
M  V30 12140 O 1190.5 3.4715 0.797817 0
M  V30 12141 O 1189.36 5.26423 1.46767 0
M  V30 12142 H 1186.45 0.786335 0.256137 0
M  V30 12143 H 1189 1.68061 -0.235298 0
M  V30 12144 H 1187.77 3.90727 -0.211604 0
M  V30 12145 H 1187.4 3.6866 1.48916 0
M  V30 12146 N 1188.39 -0.0785156 1.57404 0
M  V30 12147 C 1189.34 -1.11278 2.04255 0
M  V30 12148 C 1190.33 -1.40482 0.946633 0
M  V30 12149 O 1191.54 -1.39968 1.13177 0
M  V30 12150 H 1187.92 -0.376157 0.65116 0
M  V30 12151 H 1189.89 -0.691437 2.90279 0
M  V30 12152 C 1188.64 -2.42006 2.49656 0
M  V30 12153 H 1187.96 -2.20383 3.33574 0
M  V30 12154 H 1189.4 -3.12837 2.86197 0
M  V30 12155 C 1187.86 -3.07488 1.37669 0
M  V30 12156 O 1188.39 -3.95285 0.715036 0
M  V30 12157 N 1186.59 -2.68004 1.1235 0
M  V30 12158 H 1186.14 -1.96698 1.66336 0
M  V30 12159 H 1186.1 -3.12141 0.376238 0
M  V30 12160 N 1189.87 -1.5367 -0.349747 0
M  V30 12161 C 1190.8 -1.84208 -1.43492 0
M  V30 12162 C 1191.78 -0.696725 -1.55177 0
M  V30 12163 O 1192.97 -0.948061 -1.69486 0
M  V30 12164 C 1190.1 -2.04613 -2.80625 0
M  V30 12165 C 1189.05 -3.20419 -2.83753 0
M  V30 12166 C 1188.38 -3.26147 -4.23713 0
M  V30 12167 C 1189.68 -4.58666 -2.49846 0
M  V30 12168 H 1191.37 -2.75087 -1.18185 0
M  V30 12169 H 1188.92 -1.32363 -0.567101 0
M  V30 12170 H 1190.87 -2.2456 -3.56582 0
M  V30 12171 H 1189.59 -1.10459 -3.07354 0
M  V30 12172 H 1188.25 -3.00318 -2.10249 0
M  V30 12173 H 1187.9 -2.29599 -4.47541 0
M  V30 12174 H 1187.6 -4.03963 -4.26717 0
M  V30 12175 H 1189.12 -3.48296 -5.0152 0
M  V30 12176 H 1190.54 -4.78668 -3.15516 0
M  V30 12177 H 1188.94 -5.3884 -2.64144 0
M  V30 12178 H 1190.01 -4.62697 -1.4505 0
M  V30 12179 N 1191.35 0.610423 -1.45298 0
M  V30 12180 C 1192.26 1.74964 -1.56285 0
M  V30 12181 C 1193.27 1.68149 -0.447436 0
M  V30 12182 O 1194.45 1.88556 -0.707725 0
M  V30 12183 C 1191.52 3.11417 -1.52383 0
M  V30 12184 C 1190.58 3.29707 -2.7494 0
M  V30 12185 C 1189.81 4.5965 -2.71215 0
M  V30 12186 O 1190.03 5.41789 -1.78383 0
M  V30 12187 O 1188.97 4.80591 -3.62375 0
M  V30 12188 H 1192.79 1.68646 -2.52571 0
M  V30 12189 H 1190.38 0.774168 -1.27777 0
M  V30 12190 H 1192.26 3.9272 -1.52805 0
M  V30 12191 H 1190.93 3.18232 -0.592472 0
M  V30 12192 H 1189.84 2.48003 -2.80081 0
M  V30 12193 H 1191.17 3.27766 -3.67192 0
M  V30 12194 N 1192.83 1.32541 0.852676 0
M  V30 12195 C 1193.74 1.23646 1.99371 0
M  V30 12196 C 1194.75 0.149673 1.73355 0
M  V30 12197 O 1195.93 0.370716 1.97959 0
M  V30 12198 C 1192.99 0.961873 3.3309 0
M  V30 12199 C 1192.05 2.1373 3.72315 0
M  V30 12200 C 1191.29 1.87572 4.99652 0
M  V30 12201 O 1191.51 0.819247 5.64486 0
M  V30 12202 O 1190.44 2.73732 5.36054 0
M  V30 12203 H 1194.27 2.19573 2.09813 0
M  V30 12204 H 1191.86 1.12451 0.983627 0
M  V30 12205 H 1193.74 0.825316 4.13239 0
M  V30 12206 H 1192.41 0.0327745 3.23683 0
M  V30 12207 H 1191.32 2.32933 2.92733 0
M  V30 12208 H 1192.65 3.04925 3.86369 0
M  V30 12209 N 1194.3 -1.0692 1.15784 0
M  V30 12210 C 1195.55 -1.78983 0.929944 0
M  V30 12211 C 1195.87 -1.87884 -0.543969 0
M  V30 12212 O 1197.07 -2.56513 -0.889578 0
M  V30 12213 C 1195.53 -3.21657 1.61446 0
M  V30 12214 C 1195.14 -3.20943 3.12569 0
M  V30 12215 C 1196.88 -3.98299 1.46828 0
M  V30 12216 C 1194.79 -4.58298 3.73788 0
M  V30 12217 H 1193.72 -0.670809 0.344284 0
M  V30 12218 H 1196.37 -1.19975 1.38846 0
M  V30 12219 H 1194.75 -3.80885 1.08364 0
M  V30 12220 H 1195.92 -2.71334 3.72444 0
M  V30 12221 H 1194.24 -2.57799 3.26999 0
M  V30 12222 H 1196.84 -4.99822 1.89952 0
M  V30 12223 H 1197.18 -4.14213 0.416358 0
M  V30 12224 H 1197.71 -3.45577 1.97031 0
M  V30 12225 H 1194.45 -4.47588 4.789 0
M  V30 12226 H 1193.97 -5.08126 3.18698 0
M  V30 12227 H 1195.65 -5.27262 3.74972 0
M  V30 12228 N 1195.78 -0.955326 -1.25345 0
M  V30 12229 C 1196.71 -0.494145 -2.28211 0
M  V30 12230 C 1197.69 0.459875 -1.63766 0
M  V30 12231 O 1198.88 0.358679 -1.90859 0
M  V30 12232 C 1196.01 0.228228 -3.46549 0
M  V30 12233 C 1194.96 -0.640601 -4.23179 0
M  V30 12234 C 1194.29 0.212553 -5.34277 0
M  V30 12235 C 1195.59 -1.91906 -4.85767 0
M  V30 12236 H 1197.28 -1.35391 -2.67039 0
M  V30 12237 H 1194.83 -0.652462 -1.2837 0
M  V30 12238 H 1196.78 0.561995 -4.17636 0
M  V30 12239 H 1195.51 1.12224 -3.06714 0
M  V30 12240 H 1194.16 -0.957462 -3.53876 0
M  V30 12241 H 1193.81 1.10634 -4.90682 0
M  V30 12242 H 1193.51 -0.365473 -5.86462 0
M  V30 12243 H 1195.04 0.541271 -6.08196 0
M  V30 12244 H 1196.45 -1.65165 -5.48993 0
M  V30 12245 H 1194.85 -2.44279 -5.48131 0
M  V30 12246 H 1195.92 -2.62173 -4.07914 0
M  V30 12247 N 1197.26 1.39987 -0.723979 0
M  V30 12248 C 1198.54 1.94637 -0.1939 0
M  V30 12249 C 1198.92 1.66156 1.30212 0
M  V30 12250 O 1198.27 0.983783 2.06238 0
M  V30 12251 C 1198.48 3.4517 -0.515652 0
M  V30 12252 C 1199.82 4.22113 -0.458919 0
M  V30 12253 O 1200.85 3.53318 -0.452198 0
M  V30 12254 O 1199.71 5.44695 -0.443783 0
M  V30 12255 H 1196.8 0.826394 -0.0316615 0
M  V30 12256 H 1199.35 1.49548 -0.802085 0
M  V30 12257 H 1198.12 3.5929 -1.55004 0
M  V30 12258 H 1197.74 3.97413 0.122067 0
M  V30 12259 N 1198.74 0.470782 1.50404 0
M  V30 12260 C 1200.02 -0.145879 1.95055 0
M  V30 12261 C 1200.4 -1.57004 1.41114 0
M  V30 12262 O 1199.74 -2.20152 0.612006 0
M  V30 12263 C 1199.95 -0.0895071 3.48885 0
M  V30 12264 C 1201.3 -0.278548 4.23685 0
M  V30 12265 O 1202.33 -0.166105 3.55812 0
M  V30 12266 O 1201.19 -0.505606 5.44156 0
M  V30 12267 H 1198.28 -0.111838 0.819403 0
M  V30 12268 H 1200.83 0.531162 1.61173 0
M  V30 12269 H 1199.6 0.904836 3.80695 0
M  V30 12270 H 1199.22 -0.808019 3.89303 0
M  V30 12271 N 1200.22 -1.56282 0.203376 0
M  V30 12272 C 1201.15 -2.2247 -0.709183 0
M  V30 12273 C 1202.13 -1.19046 -1.21499 0
M  V30 12274 O 1203.31 -1.47578 -1.26231 0
M  V30 12275 C 1200.44 -2.8905 -1.92529 0
M  V30 12276 C 1199.4 -3.98789 -1.55407 0
M  V30 12277 C 1198.72 -4.52574 -2.84747 0
M  V30 12278 C 1200.02 -5.16774 -0.75775 0
M  V30 12279 H 1201.72 -2.98986 -0.157392 0
M  V30 12280 H 1199.26 -1.43808 -0.0742613 0
M  V30 12281 H 1201.22 -3.34038 -2.56898 0
M  V30 12282 H 1199.94 -2.09952 -2.50175 0
M  V30 12283 H 1198.6 -3.54504 -0.933928 0
M  V30 12284 H 1198.25 -3.70229 -3.40499 0
M  V30 12285 H 1197.95 -5.26627 -2.6065 0
M  V30 12286 H 1199.47 -5.00269 -3.5009 0
M  V30 12287 H 1200.89 -5.58256 -1.30472 0
M  V30 12288 H 1199.28 -5.96945 -0.614583 0
M  V30 12289 H 1200.35 -4.84308 0.239476 0
M  V30 12290 N 1201.7 0.070167 -1.57444 0
M  V30 12291 C 1202.63 1.10996 -2.0053 0
M  V30 12292 C 1203.64 1.3489 -0.91151 0
M  V30 12293 O 1204.83 1.33102 -1.18938 0
M  V30 12294 C 1201.93 2.46053 -2.33048 0
M  V30 12295 C 1201.1 2.42092 -3.64294 0
M  V30 12296 C 1200.16 3.5927 -3.84463 0
M  V30 12297 O 1199.19 3.40625 -4.5603 0
M  V30 12298 N 1200.39 4.79677 -3.26941 0
M  V30 12299 H 1203.15 0.743029 -2.90343 0
M  V30 12300 H 1200.72 0.258794 -1.59818 0
M  V30 12301 H 1202.71 3.23089 -2.43712 0
M  V30 12302 H 1201.28 2.74742 -1.49116 0
M  V30 12303 H 1200.5 1.5043 -3.64368 0
M  V30 12304 H 1201.79 2.36548 -4.50469 0
M  V30 12305 H 1201.18 4.97729 -2.68855 0
M  V30 12306 H 1199.74 5.54219 -3.43051 0
M  V30 12307 N 1203.17 1.53854 0.341593 0
M  V30 12308 C 1204.12 1.8268 1.43982 0
M  V30 12309 C 1205.12 0.697415 1.54378 0
M  V30 12310 O 1206.32 0.880785 1.56978 0
M  V30 12311 H 1202.7 0.578788 0.480113 0
M  V30 12312 H 1204.67 2.74556 1.16884 0
M  V30 12313 C 1203.42 2.05496 2.80476 0
M  V30 12314 H 1202.74 2.91852 2.73244 0
M  V30 12315 H 1204.18 2.2963 3.56435 0
M  V30 12316 C 1202.64 0.841061 3.26233 0
M  V30 12317 O 1203.17 0.0414376 4.01679 0
M  V30 12318 N 1201.37 0.657736 2.83059 0
M  V30 12319 H 1200.92 1.30962 2.21826 0
M  V30 12320 H 1200.88 -0.153003 3.14027 0
M  V30 12321 N 1204.65 -0.602709 1.4562 0
M  V30 12322 C 1205.88 -1.39299 1.53657 0
M  V30 12323 C 1206.3 -1.87315 0.171632 0
M  V30 12324 O 1205.66 -1.60423 -0.844639 0
M  V30 12325 C 1205.71 -2.57021 2.52928 0
M  V30 12326 O 1204.81 -3.57812 2.05047 0
M  V30 12327 H 1204.15 -0.41567 0.517798 0
M  V30 12328 H 1206.68 -0.73304 1.91018 0
M  V30 12329 H 1206.69 -3.04202 2.71892 0
M  V30 12330 H 1205.37 -2.21422 3.52058 0
M  V30 12331 H 1203.94 -3.17247 1.95981 0
M  V30 12332 N 1206.13 -1.32992 -0.845635 0
M  V30 12333 C 1207.06 -1.18513 -1.96182 0
M  V30 12334 C 1208.07 -0.11781 -1.62373 0
M  V30 12335 O 1209.26 -0.36761 -1.74674 0
M  V30 12336 C 1206.36 -0.793812 -3.29472 0
M  V30 12337 C 1205.54 -1.95134 -3.91461 0
M  V30 12338 C 1204.6 -1.54209 -5.03096 0
M  V30 12339 O 1203.62 -2.25545 -5.22607 0
M  V30 12340 N 1204.82 -0.443235 -5.78805 0
M  V30 12341 H 1207.59 -2.14663 -2.09141 0
M  V30 12342 H 1205.15 -1.25648 -1.02099 0
M  V30 12343 H 1207.14 -0.502263 -4.01571 0
M  V30 12344 H 1205.71 0.0768031 -3.12506 0
M  V30 12345 H 1204.93 -2.40889 -3.12035 0
M  V30 12346 H 1206.22 -2.72604 -4.2961 0
M  V30 12347 H 1205.62 0.150298 -5.655 0
M  V30 12348 H 1204.17 -0.211331 -6.51457 0
M  V30 12349 N 1207.61 1.06304 -1.1635 0
M  V30 12350 C 1208.54 2.15745 -0.893103 0
M  V30 12351 C 1209.52 1.69341 0.160531 0
M  V30 12352 O 1210.7 1.94196 0.0126526 0
M  V30 12353 C 1207.83 3.45066 -0.393287 0
M  V30 12354 C 1206.79 4.04978 -1.38482 0
M  V30 12355 C 1206.11 5.29507 -0.743409 0
M  V30 12356 C 1207.41 4.4377 -2.75438 0
M  V30 12357 H 1209.11 2.38622 -1.80831 0
M  V30 12358 H 1206.65 1.14681 -0.870878 0
M  V30 12359 H 1208.61 4.20964 -0.191607 0
M  V30 12360 H 1207.33 3.21808 0.557426 0
M  V30 12361 H 1205.99 3.31136 -1.57304 0
M  V30 12362 H 1205.64 5.02545 0.213787 0
M  V30 12363 H 1205.34 5.7055 -1.40521 0
M  V30 12364 H 1206.86 6.08102 -0.551746 0
M  V30 12365 H 1208.28 5.1075 -2.60398 0
M  V30 12366 H 1206.67 4.95797 -3.38091 0
M  V30 12367 H 1207.74 3.54636 -3.30699 0
M  V30 12368 N 1209.09 0.96196 1.24836 0
M  V30 12369 C 1210.5 0.660388 1.7463 0
M  V30 12370 C 1210.85 -0.824064 1.78055 0
M  V30 12371 O 1209.97 -1.64485 1.40619 0
M  V30 12372 C 1210.57 1.19205 3.17137 0
M  V30 12373 C 1209.13 0.940493 3.64461 0
M  V30 12374 C 1208.27 1.33076 2.43282 0
M  V30 12375 H 1211.22 1.13794 1.1062 0
M  V30 12376 H 1211.25 0.555595 3.76422 0
M  V30 12377 H 1210.76 2.27247 3.14612 0
M  V30 12378 H 1208.86 -0.124645 3.72391 0
M  V30 12379 H 1208.97 1.5821 4.52224 0
M  V30 12380 H 1207.34 0.749139 2.43434 0
M  V30 12381 H 1208.12 2.42055 2.43442 0
M  V30 12382 N 1210.56 -1.39601 0.731392 0
M  V30 12383 C 1211.5 -2.29147 0.0494974 0
M  V30 12384 C 1212.51 -1.46635 -0.707248 0
M  V30 12385 O 1213.7 -1.6975 -0.552008 0
M  V30 12386 C 1210.8 -3.25191 -0.954152 0
M  V30 12387 C 1209.97 -4.36629 -0.259674 0
M  V30 12388 C 1209.03 -5.13007 -1.17092 0
M  V30 12389 O 1208.06 -5.65479 -0.64976 0
M  V30 12390 N 1209.26 -5.23865 -2.50092 0
M  V30 12391 H 1212.02 -2.88308 0.818433 0
M  V30 12392 H 1209.58 -1.51142 0.580316 0
M  V30 12393 H 1211.58 -3.73161 -1.56629 0
M  V30 12394 H 1210.15 -2.67085 -1.62432 0
M  V30 12395 H 1209.37 -3.90582 0.532888 0
M  V30 12396 H 1210.65 -5.08317 0.221753 0
M  V30 12397 H 1210.05 -4.82745 -2.94913 0
M  V30 12398 H 1208.61 -5.75288 -3.0641 0
M  V30 12399 N 1212.04 -0.478751 -1.50152 0
M  V30 12400 C 1212.97 0.301182 -2.31549 0
M  V30 12401 C 1213.95 0.983276 -1.38801 0
M  V30 12402 O 1215.14 0.978973 -1.67719 0
M  V30 12403 C 1212.27 1.3791 -3.18745 0
M  V30 12404 C 1211.22 0.818175 -4.20107 0
M  V30 12405 C 1210.55 1.99496 -4.9609 0
M  V30 12406 C 1211.85 -0.17574 -5.22004 0
M  V30 12407 H 1213.54 -0.378188 -2.97002 0
M  V30 12408 H 1211.09 -0.183323 -1.42828 0
M  V30 12409 H 1213.04 1.93227 -3.74488 0
M  V30 12410 H 1211.77 2.08735 -2.51192 0
M  V30 12411 H 1210.42 0.286924 -3.65475 0
M  V30 12412 H 1210.07 2.69036 -4.25004 0
M  V30 12413 H 1209.77 1.62582 -5.6466 0
M  V30 12414 H 1211.3 2.55288 -5.54671 0
M  V30 12415 H 1212.71 0.288513 -5.72574 0
M  V30 12416 H 1211.11 -0.459549 -5.98338 0
M  V30 12417 H 1212.18 -1.09911 -4.72279 0
M  V30 12418 N 1213.52 1.56172 -0.211661 0
M  V30 12419 C 1214.77 1.98039 0.422706 0
M  V30 12420 C 1215.1 1.09904 1.60472 0
M  V30 12421 O 1214.35 0.141771 1.95186 0
M  V30 12422 C 1214.65 3.45636 0.909442 0
M  V30 12423 C 1214.32 4.50613 -0.160982 0
M  V30 12424 C 1212.98 4.79043 -0.455064 0
M  V30 12425 C 1215.33 5.13624 -0.885426 0
M  V30 12426 C 1212.66 5.67771 -1.47828 0
M  V30 12427 C 1215.01 6.03459 -1.8979 0
M  V30 12428 C 1213.67 6.30238 -2.19901 0
M  V30 12429 H 1212.94 0.724676 0.154679 0
M  V30 12430 H 1215.59 1.8894 -0.312106 0
M  V30 12431 H 1213.9 3.51889 1.72283 0
M  V30 12432 H 1215.59 3.75395 1.40995 0
M  V30 12433 H 1212.18 4.28528 0.0783864 0
M  V30 12434 H 1216.37 4.91737 -0.671463 0
M  V30 12435 H 1211.62 5.86787 -1.7173 0
M  V30 12436 H 1215.8 6.51338 -2.46438 0
M  V30 12437 H 1213.42 6.98788 -2.9933 0
M  V30 12438 N 1215 -0.0618163 1.57479 0
M  V30 12439 C 1216.41 -0.612461 1.76368 0
M  V30 12440 C 1216.76 -1.77381 0.838466 0
M  V30 12441 O 1215.89 -2.16386 0.0250211 0
M  V30 12442 C 1216.48 -1.11782 3.19829 0
M  V30 12443 C 1215.04 -1.61424 3.40028 0
M  V30 12444 C 1214.19 -0.53795 2.72032 0
M  V30 12445 H 1217.14 0.164382 1.57846 0
M  V30 12446 H 1217.16 -1.98634 3.24538 0
M  V30 12447 H 1216.67 -0.272353 3.87143 0
M  V30 12448 H 1214.77 -2.48263 2.77842 0
M  V30 12449 H 1214.88 -1.68431 4.48517 0
M  V30 12450 H 1213.25 -0.985355 2.34868 0
M  V30 12451 H 1214.03 0.297495 3.42009 0
M  V30 12452 N 1216.48 -1.54033 -0.333429 0
M  V30 12453 C 1217.75 -1.62404 -1.09015 0
M  V30 12454 C 1218.13 -0.451653 -2.06212 0
M  V30 12455 O 1217.48 0.555086 -2.21655 0
M  V30 12456 C 1217.69 -2.98949 -1.80085 0
M  V30 12457 C 1219.04 -3.54655 -2.33464 0
M  V30 12458 O 1220.06 -3.0119 -1.90166 0
M  V30 12459 O 1218.92 -4.48195 -3.12703 0
M  V30 12460 H 1216.02 -0.65727 -0.501921 0
M  V30 12461 H 1218.56 -1.66378 -0.33411 0
M  V30 12462 H 1217.33 -3.75716 -1.09332 0
M  V30 12463 H 1216.96 -2.98609 -2.62523 0
M  V30 12464 N 1217.95 0.594978 -1.45938 0
M  V30 12465 C 1219.18 1.37994 -1.5416 0
M  V30 12466 C 1219.6 1.87954 -0.17848 0
M  V30 12467 O 1218.95 1.62932 0.822161 0
M  V30 12468 C 1219.01 2.57586 -2.53637 0
M  V30 12469 O 1218.73 2.09698 -3.84653 0
M  V30 12470 C 1220.23 3.50292 -2.71681 0
M  V30 12471 H 1217.45 0.421983 -0.5217 0
M  V30 12472 H 1219.99 0.724459 -1.91238 0
M  V30 12473 H 1218.15 3.19149 -2.19597 0
M  V30 12474 H 1218.56 2.87492 -4.3869 0
M  V30 12475 H 1220.03 4.30717 -3.45234 0
M  V30 12476 H 1220.51 4.01444 -1.78156 0
M  V30 12477 H 1221.12 2.94573 -3.06768 0
M  V30 12478 N 1219.43 1.33438 0.838571 0
M  V30 12479 C 1220.85 1.12779 1.12929 0
M  V30 12480 C 1221.05 -0.0811188 2.01337 0
M  V30 12481 O 1220.1 -0.761294 2.4075 0
M  V30 12482 C 1221.42 2.41537 1.7911 0
M  V30 12483 C 1222.97 2.47447 1.91674 0
M  V30 12484 C 1223.44 3.76167 2.6127 0
M  V30 12485 N 1224.93 3.7724 2.68783 0
M  V30 12486 C 1225.67 4.7355 3.23323 0
M  V30 12487 N 1225.16 5.80235 3.78549 0
M  V30 12488 N 1226.96 4.61025 3.21578 0
M  V30 12489 H 1219.11 2.10921 0.250187 0
M  V30 12490 H 1221.37 0.931986 0.17351 0
M  V30 12491 H 1221.08 3.30006 1.21609 0
M  V30 12492 H 1220.95 2.53709 2.79127 0
M  V30 12493 H 1223.34 1.59427 2.48328 0
M  V30 12494 H 1223.42 2.39216 0.906058 0
M  V30 12495 H 1223.06 4.64569 2.05275 0
M  V30 12496 H 1222.99 3.81675 3.62811 0
M  V30 12497 H 1225.48 3.00138 2.29621 0
M  V30 12498 H 1225.8 6.49759 4.1837 0
M  V30 12499 H 1224.14 5.83969 3.76836 0
M  V30 12500 H 1227.33 3.76836 2.77691 0
M  V30 12501 H 1227.5 5.36253 3.63781 0
M  V30 12502 N 1220.91 -1.05686 1.16912 0
M  V30 12503 C 1222.32 -1.60059 0.961153 0
M  V30 12504 C 1222.67 -1.89894 -0.493409 0
M  V30 12505 O 1221.8 -1.67692 -1.36778 0
M  V30 12506 C 1222.39 -2.90803 1.73837 0
M  V30 12507 C 1220.95 -3.41854 1.57522 0
M  V30 12508 C 1220.1 -2.15658 1.74319 0
M  V30 12509 H 1223.05 -0.885592 1.31693 0
M  V30 12510 H 1223.07 -3.60485 1.21781 0
M  V30 12511 H 1222.58 -2.69056 2.79697 0
M  V30 12512 H 1220.68 -3.68647 0.541284 0
M  V30 12513 H 1220.8 -4.16771 2.36302 0
M  V30 12514 H 1219.16 -2.26177 1.17115 0
M  V30 12515 H 1219.94 -1.96386 2.8158 0
M  V30 12516 N 1222.39 -0.968567 -1.24324 0
M  V30 12517 C 1223.64 -0.629682 -1.9204 0
M  V30 12518 C 1223.96 0.837906 -1.7608 0
M  V30 12519 O 1223.23 1.5982 -1.13289 0
M  V30 12520 H 1221.81 -0.229901 -0.710742 0
M  V30 12521 H 1224.47 -1.22982 -1.512 0
M  V30 12522 H 1223.57 -0.871034 -2.99699 0
M  V30 12523 N 1223.87 1.39211 -0.738786 0
M  V30 12524 C 1224.83 2.28937 -0.109746 0
M  V30 12525 C 1225.83 1.46488 0.663157 0
M  V30 12526 O 1227.02 1.67119 0.491614 0
M  V30 12527 C 1224.15 3.30039 0.853633 0
M  V30 12528 H 1225.34 2.86068 -0.900295 0
M  V30 12529 H 1222.9 1.47922 -0.504853 0
M  V30 12530 H 1223.63 2.77971 1.6704 0
M  V30 12531 H 1223.42 3.90935 0.302007 0
M  V30 12532 H 1224.91 3.97169 1.29022 0
M  V30 12533 N 1225.34 0.486708 1.49896 0
M  V30 12534 C 1226.76 0.0353906 1.86666 0
M  V30 12535 C 1227.11 -1.3743 1.40026 0
M  V30 12536 O 1226.23 -2.02163 0.77194 0
M  V30 12537 C 1226.83 0.0574475 3.38751 0
M  V30 12538 C 1225.39 -0.338464 3.74875 0
M  V30 12539 C 1224.53 0.436196 2.73848 0
M  V30 12540 H 1227.48 0.700215 1.42417 0
M  V30 12541 H 1227.5 -0.741175 3.73212 0
M  V30 12542 H 1227.02 1.08356 3.72667 0
M  V30 12543 H 1225.12 -1.36835 3.46565 0
M  V30 12544 H 1225.23 -0.0289519 4.79091 0
M  V30 12545 H 1223.59 -0.112141 2.54453 0
M  V30 12546 H 1224.38 1.46212 3.10608 0
M  V30 12547 N 1226.82 -1.56058 0.219941 0
M  V30 12548 C 1227.79 -2.18964 -0.677303 0
M  V30 12549 C 1228.79 -1.15105 -1.12283 0
M  V30 12550 O 1229.98 -1.40348 -1.03189 0
M  V30 12551 C 1227.11 -2.81167 -1.92764 0
M  V30 12552 H 1228.3 -2.99623 -0.128877 0
M  V30 12553 H 1225.85 -1.56272 -0.0296744 0
M  V30 12554 H 1226.59 -2.04374 -2.51797 0
M  V30 12555 H 1226.37 -3.5722 -1.61666 0
M  V30 12556 H 1227.86 -3.29391 -2.56693 0
M  V30 12557 N 1228.3 0.053464 -1.57509 0
M  V30 12558 C 1229.55 0.747622 -1.87763 0
M  V30 12559 C 1229.87 1.77178 -0.814433 0
M  V30 12560 O 1229.14 1.95287 0.154862 0
M  V30 12561 H 1227.72 0.279109 -0.692898 0
M  V30 12562 H 1230.38 0.0252006 -1.94884 0
M  V30 12563 H 1229.48 1.25244 -2.85868 0
M  V30 12564 N 1229.78 1.54207 0.325255 0
M  V30 12565 C 1231 1.7661 1.08736 0
M  V30 12566 C 1231.43 0.512449 1.80985 0
M  V30 12567 O 1230.79 -0.535913 1.73198 0
M  V30 12568 C 1230.84 2.95797 2.06243 0
M  V30 12569 O 1229.94 2.67225 3.14109 0
M  V30 12570 H 1229.28 0.585282 0.313593 0
M  V30 12571 H 1231.81 2.01225 0.370066 0
M  V30 12572 H 1231.82 3.23097 2.49143 0
M  V30 12573 H 1230.5 3.86712 1.53058 0
M  V30 12574 H 1229.07 2.50869 2.75897 0
M  V30 12575 N 1231.26 -0.58723 1.46251 0
M  V30 12576 C 1232.5 -1.3476 1.51551 0
M  V30 12577 C 1232.84 -1.93499 0.16483 0
M  V30 12578 O 1232.11 -1.7622 -0.823207 0
M  V30 12579 C 1232.39 -2.48033 2.61059 0
M  V30 12580 C 1232.25 -1.94358 4.05642 0
M  V30 12581 C 1233.57 -3.50096 2.66685 0
M  V30 12582 H 1230.69 -0.48863 0.551733 0
M  V30 12583 H 1233.33 -0.660097 1.78165 0
M  V30 12584 H 1231.48 -3.06679 2.38496 0
M  V30 12585 H 1233.15 -1.40204 4.39478 0
M  V30 12586 H 1231.39 -1.25217 4.15335 0
M  V30 12587 H 1232.06 -2.76105 4.77986 0
M  V30 12588 H 1234.54 -3.01324 2.86955 0
M  V30 12589 H 1233.42 -4.26817 3.45135 0
M  V30 12590 H 1233.68 -4.07032 1.7256 0
M  V30 12591 N 1232.74 -1.33881 -0.831482 0
M  V30 12592 C 1234.01 -1.16346 -1.57236 0
M  V30 12593 C 1234.39 0.267304 -2.09401 0
M  V30 12594 O 1233.74 1.26742 -1.90128 0
M  V30 12595 C 1233.95 -2.21082 -2.70044 0
M  V30 12596 C 1235.3 -2.5562 -3.39033 0
M  V30 12597 O 1236.32 -2.19806 -2.80292 0
M  V30 12598 O 1235.18 -3.17106 -4.45091 0
M  V30 12599 H 1232.28 -0.450469 -0.693546 0
M  V30 12600 H 1234.82 -1.45487 -0.873597 0
M  V30 12601 H 1233.59 -3.17155 -2.2919 0
M  V30 12602 H 1233.22 -1.9307 -3.47577 0
M  V30 12603 N 1234.21 1.05064 -1.1747 0
M  V30 12604 C 1235.16 2.12841 -0.89259 0
M  V30 12605 C 1236.13 1.65288 0.16402 0
M  V30 12606 O 1237.32 1.90782 0.026537 0
M  V30 12607 C 1234.46 3.42614 -0.41344 0
M  V30 12608 C 1233.57 4.03835 -1.53432 0
M  V30 12609 C 1232.7 5.21531 -1.00891 0
M  V30 12610 C 1231.74 5.74761 -2.10515 0
M  V30 12611 N 1230.88 6.83756 -1.59442 0
M  V30 12612 H 1235.72 2.36312 -1.81551 0
M  V30 12613 H 1233.26 1.15929 -0.905483 0
M  V30 12614 H 1235.21 4.17035 -0.117181 0
M  V30 12615 H 1233.84 3.19323 0.472517 0
M  V30 12616 H 1232.9 3.2684 -1.94627 0
M  V30 12617 H 1234.21 4.3938 -2.36108 0
M  V30 12618 H 1233.36 6.03027 -0.666575 0
M  V30 12619 H 1232.1 4.87464 -0.151608 0
M  V30 12620 H 1231.11 4.91893 -2.45604 0
M  V30 12621 H 1232.33 6.10875 -2.96663 0
M  V30 12622 H 1230.28 6.51584 -0.759849 0
M  V30 12623 H 1230.19 7.18311 -2.35724 0
M  V30 12624 H 1231.46 7.68901 -1.28105 0
M  V30 12625 N 1235.69 0.975146 1.23809 0
M  V30 12626 C 1236.62 0.469151 2.24347 0
M  V30 12627 C 1237.64 -0.426156 1.57123 0
M  V30 12628 O 1238.83 -0.231136 1.76997 0
M  V30 12629 C 1235.93 -0.34121 3.37178 0
M  V30 12630 C 1235.1 0.545968 4.33979 0
M  V30 12631 C 1234.16 -0.209648 5.25782 0
M  V30 12632 O 1233.18 0.398953 5.678 0
M  V30 12633 N 1234.39 -1.49713 5.60862 0
M  V30 12634 H 1237.15 1.33359 2.68394 0
M  V30 12635 H 1234.71 0.847814 1.37927 0
M  V30 12636 H 1236.7 -0.854924 3.95567 0
M  V30 12637 H 1235.27 -1.10663 2.92357 0
M  V30 12638 H 1234.49 1.24057 3.7417 0
M  V30 12639 H 1235.78 1.15077 4.95615 0
M  V30 12640 H 1235.18 -2.0132 5.28665 0
M  V30 12641 H 1233.74 -1.95639 6.21746 0
M  V30 12642 N 1237.17 -1.38817 0.746158 0
M  V30 12643 C 1238.13 -2.28876 0.121886 0
M  V30 12644 C 1239.13 -1.46838 -0.655379 0
M  V30 12645 O 1240.32 -1.67377 -0.482744 0
M  V30 12646 C 1237.45 -3.30487 -0.836118 0
M  V30 12647 H 1238.65 -2.85586 0.915453 0
M  V30 12648 H 1236.2 -1.47652 0.512691 0
M  V30 12649 H 1236.94 -2.78853 -1.65563 0
M  V30 12650 H 1236.72 -3.9109 -0.281271 0
M  V30 12651 H 1238.21 -3.97848 -1.26914 0
M  V30 12652 N 1238.65 -0.49465 -1.49636 0
M  V30 12653 C 1239.9 0.0539277 -2.01628 0
M  V30 12654 C 1240.21 1.38634 -1.37986 0
M  V30 12655 O 1241.42 2.02123 -1.81269 0
M  V30 12656 C 1239.87 0.146582 -3.59601 0
M  V30 12657 C 1239.48 -1.1788 -4.32213 0
M  V30 12658 C 1241.22 0.645862 -4.19558 0
M  V30 12659 C 1239.13 -1.04866 -5.82028 0
M  V30 12660 H 1238.06 0.0239278 -0.75362 0
M  V30 12661 H 1240.71 -0.633112 -1.72232 0
M  V30 12662 H 1239.09 0.897931 -3.85685 0
M  V30 12663 H 1240.27 -1.94295 -4.17835 0
M  V30 12664 H 1238.58 -1.61102 -3.83973 0
M  V30 12665 H 1241.18 0.76064 -5.29262 0
M  V30 12666 H 1241.52 1.64313 -3.82501 0
M  V30 12667 H 1242.06 -0.04877 -3.9777 0
M  V30 12668 H 1238.79 -2.02 -6.23599 0
M  V30 12669 H 1238.31 -0.325293 -5.98917 0
M  V30 12670 H 1239.99 -0.724799 -6.42927 0
M  V30 12671 N 1240.13 1.55939 -0.228214 0
M  V30 12672 C 1241.37 1.97652 0.402067 0
M  V30 12673 C 1241.69 1.11911 1.60422 0
M  V30 12674 O 1242.89 1.43552 2.30445 0
M  V30 12675 C 1241.35 3.51638 0.766724 0
M  V30 12676 C 1240.96 4.46092 -0.412991 0
M  V30 12677 C 1242.7 4.02049 1.36224 0
M  V30 12678 C 1240.61 5.91394 -0.0255281 0
M  V30 12679 H 1239.54 0.738107 0.153994 0
M  V30 12680 H 1242.19 1.8059 -0.32548 0
M  V30 12681 H 1240.57 3.64325 1.55188 0
M  V30 12682 H 1241.75 4.45156 -1.19049 0
M  V30 12683 H 1240.06 4.0606 -0.92218 0
M  V30 12684 H 1242.66 5.08111 1.66514 0
M  V30 12685 H 1243 3.48292 2.28032 0
M  V30 12686 H 1243.53 3.92612 0.640378 0
M  V30 12687 H 1240.27 6.49149 -0.910269 0
M  V30 12688 H 1239.79 5.95509 0.716149 0
M  V30 12689 H 1241.47 6.4577 0.398839 0
M  V30 12690 N 1241.6 -0.0451101 1.57535 0
M  V30 12691 C 1242.55 -1.0692 2.06569 0
M  V30 12692 C 1243.55 -1.38443 0.976218 0
M  V30 12693 O 1244.75 -1.37536 1.1612 0
M  V30 12694 H 1241.13 -0.36226 0.658993 0
M  V30 12695 H 1243.1 -0.629709 2.9168 0
M  V30 12696 C 1241.85 -2.36656 2.54733 0
M  V30 12697 H 1241.17 -2.13257 3.38174 0
M  V30 12698 H 1242.61 -3.06696 2.92769 0
M  V30 12699 C 1241.07 -3.04499 1.4416 0
M  V30 12700 O 1241.6 -3.93679 0.798721 0
M  V30 12701 N 1239.81 -2.6556 1.18009 0
M  V30 12702 H 1239.35 -1.93126 1.7047 0
M  V30 12703 H 1239.31 -3.11272 0.442363 0
M  V30 12704 N 1243.08 -1.54377 -0.317073 0
M  V30 12705 C 1244.36 -1.63551 -1.07287 0
M  V30 12706 C 1244.74 -0.473499 -2.05721 0
M  V30 12707 O 1244.09 0.531545 -2.22232 0
M  V30 12708 C 1244.3 -3.00842 -1.76904 0
M  V30 12709 C 1245.65 -3.57111 -2.29689 0
M  V30 12710 O 1246.67 -3.0319 -1.86961 0
M  V30 12711 O 1245.53 -4.51486 -3.07932 0
M  V30 12712 H 1242.62 -0.662557 -0.494922 0
M  V30 12713 H 1245.17 -1.66723 -0.316444 0
M  V30 12714 H 1243.94 -3.76854 -1.05341 0
M  V30 12715 H 1243.56 -3.01377 -2.59341 0
M  V30 12716 N 1244.56 0.579466 -1.4656 0
M  V30 12717 C 1245.49 1.69846 -1.60233 0
M  V30 12718 C 1246.47 1.6397 -0.452533 0
M  V30 12719 O 1247.66 1.81936 -0.679174 0
M  V30 12720 C 1244.79 3.08488 -1.59538 0
M  V30 12721 C 1243.74 3.29197 -2.7352 0
M  V30 12722 C 1243.07 4.684 -2.57887 0
M  V30 12723 C 1244.37 3.16718 -4.15315 0
M  V30 12724 H 1246.06 1.5866 -2.53904 0
M  V30 12725 H 1243.61 0.761873 -1.22194 0
M  V30 12726 H 1245.56 3.86595 -1.67696 0
M  V30 12727 H 1244.28 3.20581 -0.62413 0
M  V30 12728 H 1242.94 2.53491 -2.64836 0
M  V30 12729 H 1242.59 4.77262 -1.58839 0
M  V30 12730 H 1242.29 4.83208 -3.34341 0
M  V30 12731 H 1243.81 5.48671 -2.67942 0
M  V30 12732 H 1245.23 3.84666 -4.25094 0
M  V30 12733 H 1243.63 3.43047 -4.92381 0
M  V30 12734 H 1244.7 2.13755 -4.35244 0
M  V30 12735 N 1246.04 1.3432 0.824371 0
M  V30 12736 C 1246.97 1.2012 1.94027 0
M  V30 12737 C 1247.95 0.0931808 1.62333 0
M  V30 12738 O 1249.13 0.258069 1.86725 0
M  V30 12739 C 1246.26 0.845628 3.27974 0
M  V30 12740 C 1245.31 1.9632 3.7863 0
M  V30 12741 S 1246.14 3.57642 3.98563 0
M  V30 12742 C 1247.3 3.24124 5.35439 0
M  V30 12743 H 1247.53 2.14579 2.05775 0
M  V30 12744 H 1245.06 1.1933 0.979783 0
M  V30 12745 H 1247.02 0.647266 4.05365 0
M  V30 12746 H 1245.68 -0.0805948 3.13997 0
M  V30 12747 H 1244.87 1.66812 4.75594 0
M  V30 12748 H 1244.48 2.11897 3.08181 0
M  V30 12749 H 1246.77 2.75848 6.188 0
M  V30 12750 H 1247.71 4.20222 5.69929 0
M  V30 12751 H 1248.12 2.60343 5.00881 0
M  V30 12752 N 1247.52 -1.0444 1.18026 0
M  V30 12753 C 1248.45 -2.12388 0.86162 0
M  V30 12754 C 1249.46 -1.62204 -0.139196 0
M  V30 12755 O 1250.65 -1.78282 0.0881334 0
M  V30 12756 C 1247.75 -3.37859 0.265407 0
M  V30 12757 C 1246.92 -4.17292 1.31096 0
M  V30 12758 C 1245.98 -5.21096 0.731121 0
M  V30 12759 O 1245.01 -5.5159 1.40488 0
M  V30 12760 N 1246.21 -5.78568 -0.473194 0
M  V30 12761 H 1248.98 -2.40317 1.79074 0
M  V30 12762 H 1246.54 -1.20601 1.08014 0
M  V30 12763 H 1248.53 -4.04472 -0.135976 0
M  V30 12764 H 1247.1 -3.07403 -0.567658 0
M  V30 12765 H 1246.32 -3.46057 1.8878 0
M  V30 12766 H 1247.61 -4.67158 2.01596 0
M  V30 12767 H 1247 -5.56088 -1.03839 0
M  V30 12768 H 1245.56 -6.46665 -0.816545 0
M  V30 12769 N 1248.99 -0.981699 -1.2329 0
M  V30 12770 C 1249.92 -0.542441 -2.27112 0
M  V30 12771 C 1250.91 0.425034 -1.64704 0
M  V30 12772 O 1252.09 0.318114 -1.91577 0
M  V30 12773 C 1249.22 0.154668 -3.46955 0
M  V30 12774 C 1248.17 -0.73022 -4.21725 0
M  V30 12775 C 1247.5 0.0991766 -5.34608 0
M  V30 12776 C 1248.8 -2.02166 -4.81587 0
M  V30 12777 H 1250.49 -1.41024 -2.64107 0
M  V30 12778 H 1248.04 -0.679544 -1.26957 0
M  V30 12779 H 1249.99 0.473281 -4.18734 0
M  V30 12780 H 1248.72 1.05693 -3.09025 0
M  V30 12781 H 1247.38 -1.03231 -3.51765 0
M  V30 12782 H 1247.02 1.00201 -4.92919 0
M  V30 12783 H 1246.72 -0.489788 -5.85555 0
M  V30 12784 H 1248.25 0.412141 -6.09207 0
M  V30 12785 H 1249.66 -1.76773 -5.45366 0
M  V30 12786 H 1248.06 -2.55851 -5.42826 0
M  V30 12787 H 1249.13 -2.70766 -4.02261 0
M  V30 12788 N 1250.47 1.3842 -0.753509 0
M  V30 12789 C 1251.7 2.04403 -0.320449 0
M  V30 12790 C 1252.12 1.5683 1.05118 0
M  V30 12791 O 1251.47 0.741335 1.66765 0
M  V30 12792 C 1251.52 3.59954 -0.333937 0
M  V30 12793 O 1251.24 4.05782 -1.65144 0
M  V30 12794 C 1252.75 4.43156 0.112997 0
M  V30 12795 H 1249.97 0.656881 -0.136927 0
M  V30 12796 H 1252.51 1.77112 -1.02234 0
M  V30 12797 H 1250.66 3.86083 0.319215 0
M  V30 12798 H 1251.08 5.00213 -1.57757 0
M  V30 12799 H 1252.55 5.51975 0.0523995 0
M  V30 12800 H 1253.03 4.23581 1.16087 0
M  V30 12801 H 1253.64 4.22216 -0.511278 0
M  V30 12802 N 1251.95 0.502579 1.49372 0
M  V30 12803 C 1252.91 -0.263993 2.27675 0
M  V30 12804 C 1253.91 -0.892538 1.33755 0
M  V30 12805 O 1255.1 -0.756826 1.56901 0
M  V30 12806 C 1252.24 -1.37895 3.11765 0
M  V30 12807 H 1253.43 0.423132 2.969 0
M  V30 12808 H 1250.98 0.257595 1.54163 0
M  V30 12809 H 1251.72 -2.10018 2.47109 0
M  V30 12810 H 1251.5 -0.933694 3.80821 0
M  V30 12811 H 1252.99 -1.91889 3.70902 0
M  V30 12812 N 1253.43 -1.55816 0.23648 0
M  V30 12813 C 1254.34 -2.24576 -0.678439 0
M  V30 12814 C 1255.35 -1.25836 -1.20172 0
M  V30 12815 O 1256.53 -1.58686 -1.24019 0
M  V30 12816 C 1253.6 -2.92376 -1.86325 0
M  V30 12817 C 1252.66 -4.06499 -1.38047 0
M  V30 12818 C 1251.89 -4.71057 -2.50881 0
M  V30 12819 O 1252.11 -4.34652 -3.69369 0
M  V30 12820 O 1251.05 -5.59768 -2.21232 0
M  V30 12821 H 1254.87 -3.03452 -0.122601 0
M  V30 12822 H 1252.46 -1.49399 0.00540803 0
M  V30 12823 H 1254.34 -3.35117 -2.55488 0
M  V30 12824 H 1253.01 -2.16448 -2.40691 0
M  V30 12825 H 1251.92 -3.68296 -0.656422 0
M  V30 12826 H 1253.25 -4.84214 -0.883024 0
M  V30 12827 N 1254.91 0.036755 -1.57557 0
M  V30 12828 C 1255.85 1.05823 -2.07133 0
M  V30 12829 C 1256.85 1.37923 -0.983546 0
M  V30 12830 O 1258.05 1.36918 -1.16848 0
M  V30 12831 H 1254.43 0.358761 -0.660905 0
M  V30 12832 H 1256.4 0.614232 -2.9201 0
M  V30 12833 C 1255.15 2.35302 -2.55985 0
M  V30 12834 H 1254.47 2.11461 -3.393 0
M  V30 12835 H 1255.91 3.05139 -2.94391 0
M  V30 12836 C 1254.37 3.0373 -1.45773 0
M  V30 12837 O 1254.9 3.9325 -0.819587 0
M  V30 12838 N 1253.11 2.64931 -1.19416 0
M  V30 12839 H 1252.65 1.92219 -1.71492 0
M  V30 12840 H 1252.61 3.11033 -0.458865 0
M  V30 12841 N 1256.39 1.54543 0.308881 0
M  V30 12842 C 1257.61 1.77753 1.06857 0
M  V30 12843 C 1258.04 0.531616 1.80431 0
M  V30 12844 O 1257.39 -0.517513 1.73757 0
M  V30 12845 C 1257.44 2.97968 2.03094 0
M  V30 12846 O 1256.55 2.70541 3.11257 0
M  V30 12847 H 1255.89 0.588576 0.307368 0
M  V30 12848 H 1258.42 2.01607 0.348703 0
M  V30 12849 H 1258.43 3.25722 2.45702 0
M  V30 12850 H 1257.1 3.88314 1.48948 0
M  V30 12851 H 1255.68 2.53781 2.7322 0
M  V30 12852 N 1257.86 -0.571685 1.46866 0
M  V30 12853 C 1259.27 -1.15383 1.46778 0
M  V30 12854 C 1259.63 -1.95023 0.214576 0
M  V30 12855 O 1258.75 -2.05386 -0.681574 0
M  V30 12856 C 1259.35 -2.09915 2.65935 0
M  V30 12857 C 1257.9 -2.6343 2.68852 0
M  V30 12858 C 1257.05 -1.39517 2.39646 0
M  V30 12859 H 1260 -0.359036 1.54585 0
M  V30 12860 H 1260.02 -2.9356 2.42081 0
M  V30 12861 H 1259.54 -1.51923 3.57129 0
M  V30 12862 H 1257.64 -3.2526 1.8176 0
M  V30 12863 H 1257.75 -3.05412 3.69134 0
M  V30 12864 H 1256.11 -1.69702 1.8993 0
M  V30 12865 H 1256.9 -0.833399 3.33031 0
M  V30 12866 N 1259.34 -1.34755 -0.817236 0
M  V30 12867 C 1260.59 -1.2762 -1.5761 0
M  V30 12868 C 1260.92 0.152017 -1.93604 0
M  V30 12869 O 1260.2 1.09881 -1.60488 0
M  V30 12870 C 1260.48 -2.17251 -2.87183 0
M  V30 12871 C 1260.33 -3.68638 -2.57733 0
M  V30 12872 C 1261.65 -2.06206 -3.88802 0
M  V30 12873 H 1258.77 -0.464933 -0.571845 0
M  V30 12874 H 1261.41 -1.6506 -0.941028 0
M  V30 12875 H 1259.56 -1.85452 -3.41379 0
M  V30 12876 H 1261.23 -4.10829 -2.09802 0
M  V30 12877 H 1259.48 -3.89445 -1.91089 0
M  V30 12878 H 1260.15 -4.26726 -3.50156 0
M  V30 12879 H 1262.62 -2.34137 -3.43975 0
M  V30 12880 H 1261.5 -2.71136 -4.77259 0
M  V30 12881 H 1261.76 -1.04075 -4.29675 0
M  V30 12882 N 1260.82 1.03812 -1.18578 0
M  V30 12883 C 1262.05 1.80702 -1.00769 0
M  V30 12884 C 1262.46 1.83509 0.443833 0
M  V30 12885 O 1261.82 1.2724 1.30829 0
M  V30 12886 C 1261.87 3.26185 -1.55838 0
M  V30 12887 O 1261.59 3.23612 -2.95308 0
M  V30 12888 C 1263.09 4.1971 -1.42682 0
M  V30 12889 H 1260.31 0.568972 -0.355685 0
M  V30 12890 H 1262.86 1.30817 -1.57185 0
M  V30 12891 H 1261.01 3.73293 -1.03592 0
M  V30 12892 H 1261.43 4.14769 -3.2104 0
M  V30 12893 H 1262.9 5.19716 -1.86008 0
M  V30 12894 H 1263.38 4.37588 -0.375924 0
M  V30 12895 H 1263.98 3.78469 -1.94013 0
M  V30 12896 N 1262.3 0.988223 1.22768 0
M  V30 12897 C 1263.71 0.697281 1.7319 0
M  V30 12898 C 1264.06 -0.786111 1.79763 0
M  V30 12899 O 1263.18 -1.61465 1.44077 0
M  V30 12900 C 1263.78 1.25905 3.14537 0
M  V30 12901 C 1262.34 1.01759 3.62384 0
M  V30 12902 C 1261.49 1.38207 2.40404 0
M  V30 12903 H 1264.44 1.16114 1.08181 0
M  V30 12904 H 1264.46 0.635315 3.75159 0
M  V30 12905 H 1263.97 2.33869 3.09721 0
M  V30 12906 H 1262.07 -0.045627 3.72572 0
M  V30 12907 H 1262.18 1.67767 4.48766 0
M  V30 12908 H 1260.55 0.800607 2.4179 0
M  V30 12909 H 1261.33 2.47165 2.38253 0
M  V30 12910 N 1263.78 -1.38018 0.760839 0
M  V30 12911 C 1265.02 -2.00248 0.320716 0
M  V30 12912 C 1265.35 -1.60259 -1.09684 0
M  V30 12913 O 1264.63 -0.843567 -1.75255 0
M  V30 12914 C 1264.91 -3.57254 0.451849 0
M  V30 12915 C 1264.77 -4.07185 1.91103 0
M  V30 12916 C 1266.08 -4.39843 -0.150439 0
M  V30 12917 H 1263.2 -0.727491 0.118007 0
M  V30 12918 H 1265.85 -1.63855 0.961842 0
M  V30 12919 H 1264 -3.88386 -0.0939672 0
M  V30 12920 H 1265.67 -3.86665 2.51571 0
M  V30 12921 H 1263.91 -3.59782 2.42362 0
M  V30 12922 H 1264.58 -5.16262 1.9539 0
M  V30 12923 H 1267.06 -4.14905 0.315145 0
M  V30 12924 H 1265.93 -5.48893 -0.0284853 0
M  V30 12925 H 1266.19 -4.24367 -1.23956 0
M  V30 12926 N 1265.25 -0.510493 -1.49103 0
M  V30 12927 C 1266.5 0.0305831 -2.02077 0
M  V30 12928 C 1266.82 1.36602 -1.39157 0
M  V30 12929 O 1266.09 1.88016 -0.550154 0
M  V30 12930 H 1264.67 0.0142916 -0.746863 0
M  V30 12931 H 1267.33 -0.669895 -1.83026 0
M  V30 12932 H 1266.43 0.153283 -3.11723 0
M  V30 12933 N 1266.73 1.55688 -0.24474 0
M  V30 12934 C 1267.69 2.20014 0.642382 0
M  V30 12935 C 1268.69 1.16877 1.10437 0
M  V30 12936 O 1269.88 1.41972 1.00943 0
M  V30 12937 C 1267.02 2.84198 1.88267 0
M  V30 12938 H 1268.21 2.9979 0.0811937 0
M  V30 12939 H 1265.76 1.56299 0.00480917 0
M  V30 12940 H 1266.5 2.08354 2.48514 0
M  V30 12941 H 1266.28 3.59747 1.55963 0
M  V30 12942 H 1267.77 3.33434 2.5142 0
M  V30 12943 N 1268.21 -0.0283989 1.57574 0
M  V30 12944 C 1269.14 -1.05641 2.03403 0
M  V30 12945 C 1270.15 -1.32426 0.946953 0
M  V30 12946 O 1271.34 -1.29902 1.22425 0
M  V30 12947 C 1268.44 -2.39788 2.39489 0
M  V30 12948 C 1267.62 -2.32348 3.70585 0
M  V30 12949 C 1266.68 -3.4895 3.93853 0
M  V30 12950 O 1265.7 -3.28414 4.64901 0
M  V30 12951 N 1266.9 -4.7084 3.39543 0
M  V30 12952 H 1269.67 -0.665788 2.92211 0
M  V30 12953 H 1267.23 -0.21633 1.60448 0
M  V30 12954 H 1269.22 -3.16514 2.52193 0
M  V30 12955 H 1267.79 -2.70692 1.56348 0
M  V30 12956 H 1267.01 -1.40717 3.68229 0
M  V30 12957 H 1268.3 -2.24521 4.56582 0
M  V30 12958 H 1267.7 -4.90425 2.81956 0
M  V30 12959 H 1266.25 -5.44929 3.57625 0
M  V30 12960 N 1269.69 -1.54705 -0.300681 0
M  V30 12961 C 1270.63 -1.85678 -1.37084 0
M  V30 12962 C 1271.6 -0.70573 -1.50362 0
M  V30 12963 O 1272.79 -0.954385 -1.65215 0
M  V30 12964 C 1269.93 -2.10995 -2.73084 0
M  V30 12965 C 1269.04 -3.38621 -2.68254 0
M  V30 12966 C 1268.18 -3.53779 -3.9625 0
M  V30 12967 C 1267.22 -4.75195 -3.85818 0
M  V30 12968 N 1266.35 -4.87157 -5.05591 0
M  V30 12969 H 1271.19 -2.76967 -1.09971 0
M  V30 12970 H 1268.73 -1.37147 -0.531887 0
M  V30 12971 H 1270.69 -2.23669 -3.52176 0
M  V30 12972 H 1269.32 -1.22973 -2.98458 0
M  V30 12973 H 1268.37 -3.34566 -1.81025 0
M  V30 12974 H 1269.68 -4.27834 -2.56436 0
M  V30 12975 H 1268.84 -3.66119 -4.83779 0
M  V30 12976 H 1267.58 -2.62699 -4.10902 0
M  V30 12977 H 1266.58 -4.62888 -2.96673 0
M  V30 12978 H 1267.81 -5.67683 -3.72711 0
M  V30 12979 H 1265.75 -3.99001 -5.20706 0
M  V30 12980 H 1265.67 -5.70372 -4.96197 0
M  V30 12981 H 1266.94 -5.03854 -5.9477 0
M  V30 12982 N 1271.17 0.563888 -1.47167 0
M  V30 12983 C 1272.39 1.34693 -1.57052 0
M  V30 12984 C 1272.81 1.87534 -0.218308 0
M  V30 12985 O 1272.17 1.64639 0.787416 0
M  V30 12986 C 1272.22 2.52148 -2.59044 0
M  V30 12987 O 1271.94 2.01492 -3.89015 0
M  V30 12988 C 1273.44 3.4445 -2.7905 0
M  V30 12989 H 1270.66 0.410822 -0.530534 0
M  V30 12990 H 1273.2 0.683731 -1.92731 0
M  V30 12991 H 1271.36 3.14419 -2.26317 0
M  V30 12992 H 1271.77 2.78122 -4.44689 0
M  V30 12993 H 1273.25 4.23297 -3.54293 0
M  V30 12994 H 1273.72 3.97575 -1.86631 0
M  V30 12995 H 1274.33 2.88 -3.12948 0
M  V30 12996 N 1272.64 1.35187 0.810078 0
M  V30 12997 C 1273.61 1.27698 1.90331 0
M  V30 12998 C 1274.61 0.189216 1.59683 0
M  V30 12999 O 1275.8 0.442689 1.68481 0
M  V30 13000 C 1272.93 0.974631 3.26671 0
M  V30 13001 H 1274.12 2.24902 1.98392 0
M  V30 13002 H 1271.68 1.1966 1.00554 0
M  V30 13003 H 1272.41 0.0063068 3.24299 0
M  V30 13004 H 1272.2 1.76158 3.50301 0
M  V30 13005 H 1273.69 0.947743 4.06703 0
M  V30 13006 N 1274.12 -1.03182 1.19127 0
M  V30 13007 C 1275.05 -2.13301 0.94999 0
M  V30 13008 C 1276.03 -1.69707 -0.115577 0
M  V30 13009 O 1277.22 -1.94161 0.0388395 0
M  V30 13010 C 1274.35 -3.43902 0.484637 0
M  V30 13011 C 1273.3 -4.01164 1.4917 0
M  V30 13012 C 1272.63 -5.2735 0.883537 0
M  V30 13013 C 1273.93 -4.36311 2.87107 0
M  V30 13014 H 1275.62 -2.33743 1.87095 0
M  V30 13015 H 1273.17 -1.12332 0.900977 0
M  V30 13016 H 1275.12 -4.20308 0.30315 0
M  V30 13017 H 1273.85 -3.23173 -0.471909 0
M  V30 13018 H 1272.5 -3.26849 1.66028 0
M  V30 13019 H 1272.15 -5.02936 -0.0804712 0
M  V30 13020 H 1271.85 -5.66624 1.55599 0
M  V30 13021 H 1273.38 -6.06425 0.71278 0
M  V30 13022 H 1274.79 -5.03666 2.73848 0
M  V30 13023 H 1273.19 -4.86659 3.51117 0
M  V30 13024 H 1274.26 -3.45743 3.39985 0
M  V30 13025 N 1275.6 -0.99472 -1.22242 0
M  V30 13026 C 1277.02 -0.705762 -1.43147 0
M  V30 13027 C 1277.22 0.722908 -1.88086 0
M  V30 13028 O 1276.27 1.49359 -2.03588 0
M  V30 13029 C 1277.59 -1.71288 -2.47145 0
M  V30 13030 C 1279.13 -1.72853 -2.60942 0
M  V30 13031 C 1279.61 -2.72433 -3.68163 0
M  V30 13032 N 1281.1 -2.71039 -3.75623 0
M  V30 13033 C 1281.83 -3.44753 -4.58184 0
M  V30 13034 N 1281.33 -4.28075 -5.44724 0
M  V30 13035 N 1283.12 -3.33451 -4.52512 0
M  V30 13036 H 1275.27 -1.91738 -0.913792 0
M  V30 13037 H 1277.54 -0.82702 -0.463403 0
M  V30 13038 H 1277.24 -2.7353 -2.21075 0
M  V30 13039 H 1277.12 -1.50721 -3.45779 0
M  V30 13040 H 1279.5 -0.713085 -2.86355 0
M  V30 13041 H 1279.59 -1.9749 -1.62577 0
M  V30 13042 H 1279.23 -3.74129 -3.43497 0
M  V30 13043 H 1279.16 -2.45066 -4.66101 0
M  V30 13044 H 1281.65 -2.10581 -3.1379 0
M  V30 13045 H 1281.96 -4.81143 -6.04749 0
M  V30 13046 H 1280.31 -4.32161 -5.44299 0
M  V30 13047 H 1283.5 -2.67797 -3.8393 0
M  V30 13048 H 1283.67 -3.91158 -5.16623 0
M  V30 13049 N 1277.08 1.37613 -0.768148 0
M  V30 13050 C 1278.33 1.99023 -0.327543 0
M  V30 13051 C 1278.64 1.61669 1.10103 0
M  V30 13052 O 1279.85 2.16155 1.64284 0
M  V30 13053 C 1278.3 3.55906 -0.534674 0
M  V30 13054 C 1277.91 4.02201 -1.97327 0
M  V30 13055 C 1279.65 4.24208 -0.157512 0
M  V30 13056 C 1277.56 5.51781 -2.12819 0
M  V30 13057 H 1276.49 0.744595 -0.118722 0
M  V30 13058 H 1279.14 1.5719 -0.946764 0
M  V30 13059 H 1277.52 3.95701 0.153951 0
M  V30 13060 H 1278.7 3.73661 -2.69655 0
M  V30 13061 H 1277.01 3.46671 -2.30669 0
M  V30 13062 H 1279.61 5.34107 -0.251824 0
M  V30 13063 H 1279.95 4.06636 0.89177 0
M  V30 13064 H 1280.49 3.89703 -0.798546 0
M  V30 13065 H 1277.23 5.74274 -3.16053 0
M  V30 13066 H 1276.75 5.82017 -1.4497 0
M  V30 13067 H 1278.42 6.17697 -1.92508 0
M  V30 13068 N 1278.56 0.518393 1.4883 0
M  V30 13069 C 1279.78 -0.0183131 2.07392 0
M  V30 13070 C 1280.21 -1.28468 1.37396 0
M  V30 13071 O 1279.56 -1.75975 0.436177 0
M  V30 13072 C 1279.61 -0.237211 3.59819 0
M  V30 13073 O 1278.72 -1.30835 3.91096 0
M  V30 13074 H 1278.06 0.0339621 0.663131 0
M  V30 13075 H 1280.59 0.722993 1.914 0
M  V30 13076 H 1280.6 -0.463424 4.0536 0
M  V30 13077 H 1279.27 0.687925 4.10171 0
M  V30 13078 H 1277.85 -1.06571 3.57347 0
M  V30 13079 N 1280.03 -1.55556 0.252993 0
M  V30 13080 C 1280.97 -2.18978 -0.676837 0
M  V30 13081 C 1281.98 -1.16788 -1.13421 0
M  V30 13082 O 1283.17 -1.43623 -1.05993 0
M  V30 13083 C 1280.27 -2.78404 -1.93248 0
M  V30 13084 C 1279.44 -4.06072 -1.62555 0
M  V30 13085 C 1278.5 -4.49757 -2.7314 0
M  V30 13086 O 1277.53 -5.16005 -2.40266 0
M  V30 13087 N 1278.73 -4.18049 -4.0276 0
M  V30 13088 H 1281.49 -2.994 -0.134142 0
M  V30 13089 H 1279.05 -1.61734 0.0731965 0
M  V30 13090 H 1281.05 -3.04583 -2.6648 0
M  V30 13091 H 1279.62 -2.02104 -2.3848 0
M  V30 13092 H 1278.84 -3.87417 -0.728115 0
M  V30 13093 H 1280.12 -4.89297 -1.39521 0
M  V30 13094 H 1279.52 -3.64876 -4.32298 0
M  V30 13095 H 1278.08 -4.4905 -4.72438 0
M  V30 13096 N 1281.51 0.0200419 -1.57587 0
M  V30 13097 C 1282.74 0.724241 -1.94344 0
M  V30 13098 C 1283.16 1.67612 -0.853688 0
M  V30 13099 O 1282.52 1.80303 0.189873 0
M  V30 13100 C 1282.57 1.44967 -3.30177 0
M  V30 13101 O 1281.67 2.56326 -3.23064 0
M  V30 13102 H 1281.01 0.194142 -0.634984 0
M  V30 13103 H 1283.54 -0.0271756 -2.04582 0
M  V30 13104 H 1283.55 1.81758 -3.65278 0
M  V30 13105 H 1282.23 0.75161 -4.09052 0
M  V30 13106 H 1280.81 2.22011 -2.99609 0
M  V30 13107 N 1282.99 1.54862 0.292472 0
M  V30 13108 C 1284.22 1.7855 1.04534 0
M  V30 13109 C 1284.63 0.549161 1.80637 0
M  V30 13110 O 1283.99 -0.481268 1.7604 0
M  V30 13111 C 1284.04 2.99849 2.01923 0
M  V30 13112 O 1283.76 4.18706 1.28907 0
M  V30 13113 C 1285.26 3.35991 2.8918 0
M  V30 13114 H 1282.48 0.595279 0.309652 0
M  V30 13115 H 1285.03 2.01834 0.329159 0
M  V30 13116 H 1283.18 2.78749 2.69032 0
M  V30 13117 H 1283.6 4.87151 1.94383 0
M  V30 13118 H 1285.07 4.24085 3.53349 0
M  V30 13119 H 1285.55 2.54524 3.57931 0
M  V30 13120 H 1286.15 3.59281 2.27591 0
M  V30 13121 N 1284.47 -0.556076 1.47464 0
M  V30 13122 C 1285.72 -1.3132 1.54147 0
M  V30 13123 C 1286.04 -1.93425 0.204221 0
M  V30 13124 O 1285.3 -1.78467 -0.803002 0
M  V30 13125 C 1285.6 -2.44298 2.6087 0
M  V30 13126 C 1285.26 -2.00016 4.04109 0
M  V30 13127 C 1283.93 -1.87656 4.43101 0
M  V30 13128 C 1286.28 -1.66228 4.93981 0
M  V30 13129 C 1283.61 -1.39805 5.698 0
M  V30 13130 C 1285.96 -1.19848 6.21144 0
M  V30 13131 C 1284.62 -1.06084 6.59016 0
M  V30 13132 H 1283.89 -0.480534 0.564064 0
M  V30 13133 H 1286.54 -0.623449 1.81067 0
M  V30 13134 H 1284.84 -3.18834 2.27711 0
M  V30 13135 H 1286.54 -3.02479 2.63263 0
M  V30 13136 H 1283.13 -2.1058 3.73302 0
M  V30 13137 H 1287.31 -1.7465 4.64555 0
M  V30 13138 H 1282.57 -1.27814 5.97891 0
M  V30 13139 H 1286.74 -0.927657 6.90194 0
M  V30 13140 H 1284.37 -0.687834 7.57082 0
M  V30 13141 N 1285.95 -1.35615 -0.802897 0
M  V30 13142 C 1286.9 -1.28877 -1.93632 0
M  V30 13143 C 1287.89 -0.183014 -1.68408 0
M  V30 13144 O 1289.1 -0.349218 -1.7658 0
M  V30 13145 H 1285.47 -0.400883 -0.636236 0
M  V30 13146 H 1287.44 -2.24624 -1.96435 0
M  V30 13147 C 1286.19 -1.08136 -3.30457 0
M  V30 13148 H 1285.51 -1.92463 -3.50426 0
M  V30 13149 H 1286.95 -1.07464 -4.10155 0
M  V30 13150 C 1285.41 0.214635 -3.36216 0
M  V30 13151 O 1285.94 1.20916 -3.8307 0
M  V30 13152 N 1284.15 0.25468 -2.89482 0
M  V30 13153 H 1283.7 -0.555239 -2.51545 0
M  V30 13154 H 1283.65 1.12152 -2.93716 0
M  V30 13155 N 1287.43 1.02549 -1.19673 0
M  V30 13156 C 1288.37 2.13015 -0.934209 0
M  V30 13157 C 1289.37 1.69035 0.111208 0
M  V30 13158 O 1290.57 1.79959 -0.0383449 0
M  V30 13159 H 1286.95 0.696015 -0.284722 0
M  V30 13160 H 1288.92 2.32346 -1.87238 0
M  V30 13161 C 1287.67 3.44185 -0.493124 0
M  V30 13162 H 1286.99 3.78447 -1.28911 0
M  V30 13163 H 1288.43 4.22565 -0.348577 0
M  V30 13164 C 1286.89 3.27427 0.793277 0
M  V30 13165 O 1287.42 3.56362 1.85388 0
M  V30 13166 N 1285.63 2.80706 0.751837 0
M  V30 13167 H 1285.17 2.57359 -0.111517 0
M  V30 13168 H 1285.13 2.69874 1.61292 0
M  V30 13169 N 1288.9 1.00119 1.21713 0
M  V30 13170 C 1290.31 0.715611 1.72441 0
M  V30 13171 C 1290.67 -0.767 1.80587 0
M  V30 13172 O 1289.79 -1.59928 1.45781 0
M  V30 13173 C 1290.39 1.29234 3.13184 0
M  V30 13174 C 1288.94 1.05597 3.61284 0
M  V30 13175 C 1288.09 1.40749 2.38925 0
M  V30 13176 H 1291.04 1.17255 1.06943 0
M  V30 13177 H 1291.06 0.67507 3.74464 0
M  V30 13178 H 1290.58 2.37141 3.07223 0
M  V30 13179 H 1288.68 -0.00610816 3.72599 0
M  V30 13180 H 1288.79 1.72517 4.46961 0
M  V30 13181 H 1287.15 0.826207 2.40927 0
M  V30 13182 H 1287.94 2.49678 2.35618 0
M  V30 13183 N 1290.38 -1.37203 0.775435 0
M  V30 13184 C 1291.8 -1.52962 0.455488 0
M  V30 13185 C 1292 -1.73284 -1.02834 0
M  V30 13186 O 1291.05 -1.75631 -1.81411 0
M  V30 13187 C 1292.37 -2.72389 1.27377 0
M  V30 13188 C 1293.91 -2.86252 1.26604 0
M  V30 13189 C 1294.39 -4.08666 2.06775 0
M  V30 13190 N 1295.88 -4.15786 2.04148 0
M  V30 13191 C 1296.62 -5.09548 2.6296 0
M  V30 13192 N 1296.11 -6.08845 3.30574 0
M  V30 13193 N 1297.9 -5.02059 2.5277 0
M  V30 13194 H 1290.06 -1.22265 1.73681 0
M  V30 13195 H 1292.32 -0.595638 0.737509 0
M  V30 13196 H 1292.02 -2.63849 2.32544 0
M  V30 13197 H 1291.9 -3.66171 0.905467 0
M  V30 13198 H 1294.29 -2.94261 0.222345 0
M  V30 13199 H 1294.37 -1.93418 1.67401 0
M  V30 13200 H 1294.01 -4.01419 3.11168 0
M  V30 13201 H 1293.94 -5.00621 1.63358 0
M  V30 13202 H 1296.43 -3.44683 1.54926 0
M  V30 13203 H 1296.74 -6.76926 3.72815 0
M  V30 13204 H 1295.09 -6.09113 3.34674 0
M  V30 13205 H 1298.28 -4.23431 1.99559 0
M  V30 13206 H 1298.45 -5.74947 2.98898 0
M  V30 13207 N 1291.86 -0.526279 -1.48553 0
M  V30 13208 C 1293.27 -0.0848694 -1.86507 0
M  V30 13209 C 1293.62 1.3367 -1.43621 0
M  V30 13210 O 1292.75 2.00046 -0.825268 0
M  V30 13211 C 1293.34 -0.147241 -3.3848 0
M  V30 13212 C 1291.9 0.238954 -3.75641 0
M  V30 13213 C 1291.05 -0.508648 -2.72595 0
M  V30 13214 H 1294 -0.737728 -1.40511 0
M  V30 13215 H 1294.02 0.641964 -3.75045 0
M  V30 13216 H 1293.53 -1.18199 -3.69663 0
M  V30 13217 H 1291.63 1.27598 -3.50071 0
M  V30 13218 H 1291.75 -0.0980808 -4.79 0
M  V30 13219 H 1290.11 0.0446382 -2.54661 0
M  V30 13220 H 1290.89 -1.54395 -3.06622 0
M  V30 13221 N 1293.34 1.5542 -0.261239 0
M  V30 13222 C 1294.59 1.9889 0.358777 0
M  V30 13223 C 1294.91 1.15092 1.57413 0
M  V30 13224 O 1294.18 0.237095 1.9446 0
M  V30 13225 H 1292.76 0.734599 0.13555 0
M  V30 13226 H 1295.42 1.91483 -0.363357 0
M  V30 13227 H 1294.51 3.05082 0.658142 0
M  V30 13228 N 1294.82 -0.0116844 1.57596 0
M  V30 13229 C 1295.75 -1.03477 2.04512 0
M  V30 13230 C 1296.76 -1.31414 0.960945 0
M  V30 13231 O 1297.95 -1.28596 1.23796 0
M  V30 13232 C 1295.05 -2.37234 2.42019 0
M  V30 13233 C 1294.22 -2.28405 3.73028 0
M  V30 13234 C 1293.28 -3.44753 3.97532 0
M  V30 13235 O 1292.31 -3.23465 4.68358 0
M  V30 13236 N 1293.51 -4.67212 3.44518 0
M  V30 13237 H 1296.27 -0.634758 2.92901 0
M  V30 13238 H 1293.84 -0.1993 1.60669 0
M  V30 13239 H 1295.83 -3.13821 2.55535 0
M  V30 13240 H 1294.4 -2.69018 1.5921 0
M  V30 13241 H 1293.62 -1.36804 3.697 0
M  V30 13242 H 1294.91 -2.19666 4.58938 0
M  V30 13243 H 1294.3 -4.87407 2.87142 0
M  V30 13244 H 1292.86 -5.41105 3.63384 0
M  V30 13245 N 1296.29 -1.55015 -0.284256 0
M  V30 13246 C 1297.22 -1.90128 -1.3555 0
M  V30 13247 C 1298.2 -0.761914 -1.52082 0
M  V30 13248 O 1299.39 -1.01909 -1.65312 0
M  V30 13249 C 1296.52 -2.16332 -2.71695 0
M  V30 13250 C 1295.47 -3.32166 -2.69907 0
M  V30 13251 C 1294.8 -3.43824 -4.09498 0
M  V30 13252 C 1296.1 -4.6885 -2.30168 0
M  V30 13253 H 1297.79 -2.79852 -1.06411 0
M  V30 13254 H 1295.34 -1.34649 -0.510451 0
M  V30 13255 H 1297.29 -2.39482 -3.46737 0
M  V30 13256 H 1296.02 -1.23395 -3.02392 0
M  V30 13257 H 1294.68 -3.08965 -1.97322 0
M  V30 13258 H 1294.32 -2.48375 -4.374 0
M  V30 13259 H 1294.02 -4.21698 -4.092 0
M  V30 13260 H 1295.55 -3.69254 -4.86296 0
M  V30 13261 H 1296.96 -4.91619 -2.9493 0
M  V30 13262 H 1295.36 -5.49558 -2.41052 0
M  V30 13263 H 1296.43 -4.68433 -1.25294 0
M  V30 13264 N 1297.77 0.548248 -1.47757 0
M  V30 13265 C 1299.02 1.30243 -1.54535 0
M  V30 13266 C 1299.34 1.93832 -0.213089 0
M  V30 13267 O 1298.61 1.80397 0.763782 0
M  V30 13268 H 1297.19 0.483684 -0.569262 0
M  V30 13269 H 1299.85 0.639485 -1.8411 0
M  V30 13270 H 1298.95 2.09128 -2.31672 0
M  V30 13271 N 1299.25 1.36039 0.795694 0
M  V30 13272 C 1300.67 1.16315 1.09284 0
M  V30 13273 C 1300.87 -0.017024 2.01493 0
M  V30 13274 O 1299.92 -0.684316 2.4305 0
M  V30 13275 C 1301.23 2.47113 1.71335 0
M  V30 13276 C 1302.78 2.5342 1.83705 0
M  V30 13277 C 1303.26 3.84289 2.49171 0
M  V30 13278 N 1304.75 3.856 2.56645 0
M  V30 13279 C 1305.48 4.83597 3.08094 0
M  V30 13280 N 1304.98 5.91985 3.59897 0
M  V30 13281 N 1306.77 4.71023 3.06748 0
M  V30 13282 H 1298.92 2.11611 0.182957 0
M  V30 13283 H 1301.19 0.937035 0.143771 0
M  V30 13284 H 1300.89 3.33708 1.11049 0
M  V30 13285 H 1300.77 2.62461 2.70914 0
M  V30 13286 H 1303.15 1.67247 2.43131 0
M  V30 13287 H 1303.23 2.41977 0.829495 0
M  V30 13288 H 1302.88 4.70865 1.90391 0
M  V30 13289 H 1302.81 3.93025 3.50484 0
M  V30 13290 H 1305.3 3.07291 2.19956 0
M  V30 13291 H 1305.61 6.6274 3.97487 0
M  V30 13292 H 1303.96 5.95662 3.58066 0
M  V30 13293 H 1307.15 3.8548 2.65561 0
M  V30 13294 H 1307.32 5.47555 3.46536 0
M  V30 13295 N 1300.73 -1.01913 1.20215 0
M  V30 13296 C 1301.66 -2.12282 0.97256 0
M  V30 13297 C 1302.64 -1.6982 -0.0975709 0
M  V30 13298 O 1303.82 -1.94109 0.0594307 0
M  V30 13299 C 1300.95 -3.43369 0.521085 0
M  V30 13300 C 1299.91 -3.99559 1.53417 0
M  V30 13301 C 1299.23 -5.26383 0.93942 0
M  V30 13302 C 1300.53 -4.33241 2.91718 0
M  V30 13303 H 1302.23 -2.31746 1.89563 0
M  V30 13304 H 1299.77 -1.1137 0.912841 0
M  V30 13305 H 1301.73 -4.19963 0.347713 0
M  V30 13306 H 1300.45 -3.23655 -0.437605 0
M  V30 13307 H 1299.11 -3.25069 1.69486 0
M  V30 13308 H 1298.76 -5.02993 -0.0271236 0
M  V30 13309 H 1298.46 -5.64942 1.616 0
M  V30 13310 H 1299.98 -6.05635 0.777059 0
M  V30 13311 H 1301.4 -5.00734 2.79175 0
M  V30 13312 H 1299.79 -4.82907 3.56259 0
M  V30 13313 H 1300.86 -3.42118 3.43633 0
M  V30 13314 N 1302.21 -1.00763 -1.2118 0
M  V30 13315 C 1303.14 -0.590493 -2.2591 0
M  V30 13316 C 1304.12 0.390002 -1.65569 0
M  V30 13317 O 1305.3 0.277406 -1.92208 0
M  V30 13318 C 1302.43 0.0810388 -3.47205 0
M  V30 13319 C 1301.39 -0.81951 -4.20081 0
M  V30 13320 C 1300.71 -0.014244 -5.34698 0
M  V30 13321 C 1302.01 -2.12336 -4.7719 0
M  V30 13322 H 1303.71 -1.46595 -2.61056 0
M  V30 13323 H 1301.25 -0.706321 -1.25487 0
M  V30 13324 H 1303.21 0.384355 -4.19644 0
M  V30 13325 H 1301.93 0.991145 -3.11197 0
M  V30 13326 H 1300.59 -1.10669 -3.49497 0
M  V30 13327 H 1300.24 0.897233 -4.94933 0
M  V30 13328 H 1299.94 -0.613883 -5.84384 0
M  V30 13329 H 1301.46 0.282827 -6.09945 0
M  V30 13330 H 1302.87 -1.88301 -5.41494 0
M  V30 13331 H 1301.27 -2.67308 -5.37277 0
M  V30 13332 H 1302.34 -2.79238 -3.96427 0
M  V30 13333 N 1303.68 1.3679 -0.7827 0
M  V30 13334 C 1305.1 1.82006 -0.41603 0
M  V30 13335 C 1305.45 1.65151 1.05922 0
M  V30 13336 O 1304.57 1.1687 1.82127 0
M  V30 13337 C 1305.17 3.30432 -0.748353 0
M  V30 13338 C 1303.73 3.73883 -0.4346 0
M  V30 13339 C 1302.87 2.59159 -0.986505 0
M  V30 13340 H 1305.82 1.25107 -0.976423 0
M  V30 13341 H 1305.84 3.80482 -0.036985 0
M  V30 13342 H 1305.36 3.42667 -1.82212 0
M  V30 13343 H 1303.46 3.67211 0.631401 0
M  V30 13344 H 1303.57 4.69577 -0.950511 0
M  V30 13345 H 1301.93 2.51377 -0.410108 0
M  V30 13346 H 1302.72 2.74182 -2.06589 0
M  V30 13347 N 1305.16 0.53415 1.48272 0
M  V30 13348 C 1306.11 -0.239672 2.31362 0
M  V30 13349 C 1307.1 -0.931501 1.4149 0
M  V30 13350 O 1308.31 -0.855411 1.58375 0
M  V30 13351 H 1304.69 -0.09616 0.745827 0
M  V30 13352 H 1306.66 0.480638 2.94504 0
M  V30 13353 C 1305.41 -1.27102 3.23636 0
M  V30 13354 H 1304.73 -0.748082 3.92739 0
M  V30 13355 H 1306.17 -1.78379 3.84652 0
M  V30 13356 C 1304.63 -2.30683 2.45534 0
M  V30 13357 O 1305.16 -3.37197 2.18314 0
M  V30 13358 N 1303.36 -2.04006 2.06954 0
M  V30 13359 H 1302.91 -1.17403 2.29291 0
M  V30 13360 H 1302.87 -2.73531 1.5501 0
M  V30 13361 N 1306.64 -1.55279 0.269478 0
M  V30 13362 C 1307.57 -2.19684 -0.653573 0
M  V30 13363 C 1308.59 -1.17985 -1.12176 0
M  V30 13364 O 1309.77 -1.44739 -1.04464 0
M  V30 13365 C 1306.87 -2.80438 -1.90284 0
M  V30 13366 C 1306.05 -4.07774 -1.58239 0
M  V30 13367 C 1305.11 -4.52629 -2.68354 0
M  V30 13368 O 1304.13 -5.18524 -2.3478 0
M  V30 13369 N 1305.33 -4.22297 -3.98303 0
M  V30 13370 H 1308.1 -2.99525 -0.102379 0
M  V30 13371 H 1305.66 -1.61648 0.0903465 0
M  V30 13372 H 1307.65 -3.07392 -2.63234 0
M  V30 13373 H 1306.22 -2.04622 -2.36323 0
M  V30 13374 H 1305.44 -3.88168 -0.686983 0
M  V30 13375 H 1306.73 -4.90749 -1.34323 0
M  V30 13376 H 1306.13 -3.69441 -4.28404 0
M  V30 13377 H 1304.69 -4.54035 -4.67649 0
M  V30 13378 N 1308.12 0.00332656 -1.576 0
M  V30 13379 C 1309.07 1.01406 -2.09331 0
M  V30 13380 C 1310.06 1.35806 -1.01258 0
M  V30 13381 O 1311.27 1.34409 -1.19726 0
M  V30 13382 H 1307.64 0.344661 -0.668366 0
M  V30 13383 H 1309.61 0.552154 -2.93247 0
M  V30 13384 C 1308.36 2.29819 -2.60918 0
M  V30 13385 H 1307.68 2.04216 -3.43709 0
M  V30 13386 H 1309.12 2.98826 -3.00797 0
M  V30 13387 C 1307.58 3.0057 -1.52182 0
M  V30 13388 O 1308.11 3.91423 -0.902817 0
M  V30 13389 N 1306.32 2.62338 -1.25009 0
M  V30 13390 H 1305.87 1.88538 -1.75531 0
M  V30 13391 H 1305.82 3.0999 -0.524736 0
M  V30 13392 N 1309.6 1.55164 0.276031 0
M  V30 13393 C 1310.53 1.90844 1.34539 0
M  V30 13394 C 1311.51 0.769968 1.51676 0
M  V30 13395 O 1312.69 1.02785 1.64769 0
M  V30 13396 C 1309.82 2.17769 2.70543 0
M  V30 13397 C 1308.78 3.33592 2.68142 0
M  V30 13398 C 1308.1 3.45991 4.07669 0
M  V30 13399 C 1309.4 4.70064 2.27678 0
M  V30 13400 H 1311.1 2.80412 1.04926 0
M  V30 13401 H 1308.64 1.34918 0.503303 0
M  V30 13402 H 1310.6 2.41317 3.45462 0
M  V30 13403 H 1309.32 1.24997 3.01734 0
M  V30 13404 H 1307.98 3.10007 1.95681 0
M  V30 13405 H 1307.63 2.50691 4.36077 0
M  V30 13406 H 1307.33 4.23862 4.06958 0
M  V30 13407 H 1308.85 3.71828 4.84331 0
M  V30 13408 H 1310.26 4.93176 2.92319 0
M  V30 13409 H 1308.66 5.50829 2.38134 0
M  V30 13410 H 1309.73 4.69091 1.22808 0
M  V30 13411 N 1311.07 -0.540404 1.48045 0
M  V30 13412 C 1312.49 -1.12243 1.49192 0
M  V30 13413 C 1312.84 -1.94524 0.255895 0
M  V30 13414 O 1311.96 -2.06786 -0.637855 0
M  V30 13415 C 1312.56 -2.04227 2.70327 0
M  V30 13416 C 1311.12 -2.57668 2.7438 0
M  V30 13417 C 1310.26 -1.34402 2.42552 0
M  V30 13418 H 1313.21 -0.326165 1.55312 0
M  V30 13419 H 1313.23 -2.88359 2.48253 0
M  V30 13420 H 1312.75 -1.44314 3.60271 0
M  V30 13421 H 1310.85 -3.21331 1.88618 0
M  V30 13422 H 1310.96 -2.97514 3.7553 0
M  V30 13423 H 1309.32 -1.65635 1.93487 0
M  V30 13424 H 1310.11 -0.762571 3.34723 0
M  V30 13425 N 1312.55 -1.36459 -0.788468 0
M  V30 13426 C 1313.48 -1.33545 -1.91541 0
M  V30 13427 C 1314.46 -0.206762 -1.68839 0
M  V30 13428 O 1315.65 -0.404553 -1.89939 0
M  V30 13429 C 1312.78 -1.12492 -3.28577 0
M  V30 13430 C 1311.73 -2.22196 -3.65805 0
M  V30 13431 C 1311.06 -1.86285 -5.01201 0
M  V30 13432 C 1312.36 -3.64286 -3.7429 0
M  V30 13433 H 1314.05 -2.27844 -1.94236 0
M  V30 13434 H 1311.6 -1.09677 -0.933105 0
M  V30 13435 H 1313.55 -1.09089 -4.07035 0
M  V30 13436 H 1312.28 -0.146446 -3.26272 0
M  V30 13437 H 1310.93 -2.24727 -2.89644 0
M  V30 13438 H 1310.58 -0.87009 -4.95417 0
M  V30 13439 H 1310.28 -2.59734 -5.27079 0
M  V30 13440 H 1311.81 -1.84439 -5.82078 0
M  V30 13441 H 1313.22 -3.63977 -4.42937 0
M  V30 13442 H 1311.62 -4.36648 -4.11653 0
M  V30 13443 H 1312.69 -3.99123 -2.75371 0
M  V30 13444 N 1314.03 1.01274 -1.20754 0
M  V30 13445 C 1315.31 1.7213 -0.929008 0
M  V30 13446 C 1315.69 2.03503 0.561217 0
M  V30 13447 O 1315.04 1.70259 1.52395 0
M  V30 13448 C 1315.25 2.98636 -1.80603 0
M  V30 13449 C 1316.59 3.71823 -2.0502 0
M  V30 13450 O 1317.62 3.08601 -1.77888 0
M  V30 13451 O 1316.48 4.8552 -2.50864 0
M  V30 13452 H 1313.57 0.750361 -0.347689 0
M  V30 13453 H 1316.12 1.07086 -1.31646 0
M  V30 13454 H 1314.89 2.71803 -2.81494 0
M  V30 13455 H 1314.51 3.7142 -1.4189 0
M  V30 13456 N 1315.51 1.01404 1.20644 0
M  V30 13457 C 1316.76 0.697244 1.89265 0
M  V30 13458 C 1317.07 -0.776149 1.79542 0
M  V30 13459 O 1318.28 -1.2054 2.43274 0
M  V30 13460 C 1316.73 1.19672 3.39421 0
M  V30 13461 C 1316.34 2.69683 3.57736 0
M  V30 13462 C 1318.09 0.955225 4.13613 0
M  V30 13463 C 1315.99 3.13124 5.01704 0
M  V30 13464 H 1314.92 0.257105 0.708811 0
M  V30 13465 H 1317.57 1.22639 1.36499 0
M  V30 13466 H 1315.96 0.595562 3.91496 0
M  V30 13467 H 1317.13 3.35326 3.16059 0
M  V30 13468 H 1315.44 2.91946 2.96911 0
M  V30 13469 H 1318.04 1.25524 5.19757 0
M  V30 13470 H 1318.38 -0.108362 4.16159 0
M  V30 13471 H 1318.92 1.51962 3.67631 0
M  V30 13472 H 1315.66 4.18748 5.04311 0
M  V30 13473 H 1315.18 2.522 5.44201 0
M  V30 13474 H 1316.86 3.05617 5.70269 0
M  V30 13475 N 1316.99 -1.36373 0.789944 0
M  V30 13476 C 1318.22 -2.03482 0.37453 0
M  V30 13477 C 1318.63 -1.59562 -1.00923 0
M  V30 13478 O 1317.99 -0.785289 -1.64741 0
M  V30 13479 C 1318.04 -3.58942 0.429255 0
M  V30 13480 O 1317.76 -4.01261 1.75845 0
M  V30 13481 C 1319.26 -4.433 0.00453729 0
M  V30 13482 H 1316.48 -0.653019 0.154295 0
M  V30 13483 H 1319.02 -1.74339 1.06894 0
M  V30 13484 H 1317.18 -3.86793 -0.21674 0
M  V30 13485 H 1317.59 -4.95854 1.70964 0
M  V30 13486 H 1319.07 -5.5192 0.0939653 0
M  V30 13487 H 1319.54 -4.26509 -1.04816 0
M  V30 13488 H 1320.15 -4.20712 0.623041 0
M  V30 13489 N 1318.47 -0.542005 -1.47987 0
M  V30 13490 C 1319.4 0.202703 -2.32618 0
M  V30 13491 C 1320.38 0.923521 -1.42846 0
M  V30 13492 O 1321.56 0.906957 -1.7172 0
M  V30 13493 C 1318.69 1.24267 -3.24307 0
M  V30 13494 C 1317.65 0.639257 -4.23199 0
M  V30 13495 C 1316.97 1.78275 -5.04105 0
M  V30 13496 C 1318.27 -0.396982 -5.20789 0
M  V30 13497 H 1319.97 -0.503817 -2.95131 0
M  V30 13498 H 1317.51 -0.243736 -1.41922 0
M  V30 13499 H 1319.46 1.7717 -3.82347 0
M  V30 13500 H 1318.19 1.97893 -2.59819 0
M  V30 13501 H 1316.85 0.131655 -3.66364 0
M  V30 13502 H 1316.5 2.50768 -4.36032 0
M  V30 13503 H 1316.2 1.38487 -5.71047 0
M  V30 13504 H 1317.72 2.31533 -5.65 0
M  V30 13505 H 1319.13 0.0454057 -5.73282 0
M  V30 13506 H 1317.53 -0.712911 -5.9585 0
M  V30 13507 H 1318.6 -1.29843 -4.67193 0
M  V30 13508 N 1319.94 1.55134 -0.277709 0
M  V30 13509 C 1320.88 2.20028 0.641913 0
M  V30 13510 C 1321.89 1.18578 1.11549 0
M  V30 13511 O 1323.08 1.45291 1.03695 0
M  V30 13512 C 1320.18 2.81443 1.88794 0
M  V30 13513 C 1319.35 4.08607 1.56074 0
M  V30 13514 C 1318.41 4.54045 2.6595 0
M  V30 13515 O 1317.44 5.19762 2.32026 0
M  V30 13516 N 1318.64 4.24403 3.96058 0
M  V30 13517 H 1321.4 2.99575 0.0864929 0
M  V30 13518 H 1318.96 1.61598 -0.0989178 0
M  V30 13519 H 1320.96 3.08784 2.616 0
M  V30 13520 H 1319.53 2.05873 2.35234 0
M  V30 13521 H 1318.75 3.88527 0.666388 0
M  V30 13522 H 1320.03 4.91455 1.31719 0
M  V30 13523 H 1319.43 3.71708 4.26439 0
M  V30 13524 H 1317.99 4.56509 4.65234 0
M  V30 13525 N 1321.42 0.00503138 1.57599 0
M  V30 13526 C 1322.65 -0.693231 1.95471 0
M  V30 13527 C 1323.07 -1.66233 0.880246 0
M  V30 13528 O 1322.43 -1.80582 -0.161164 0
M  V30 13529 C 1322.48 -1.39696 3.32442 0
M  V30 13530 O 1321.58 -2.51154 3.27101 0
M  V30 13531 H 1320.92 -0.184015 0.637992 0
M  V30 13532 H 1323.45 0.0597194 2.04513 0
M  V30 13533 H 1323.46 -1.75924 3.68123 0
M  V30 13534 H 1322.14 -0.686438 4.10196 0
M  V30 13535 H 1320.71 -2.17216 3.03103 0
M  V30 13536 N 1322.9 -1.55308 -0.267798 0
M  V30 13537 C 1324.31 -1.66814 -0.838459 0
M  V30 13538 C 1324.66 -0.598609 -1.86845 0
M  V30 13539 O 1323.79 0.25896 -2.14845 0
M  V30 13540 C 1324.38 -3.02408 -1.52758 0
M  V30 13541 C 1322.94 -3.15923 -2.04621 0
M  V30 13542 C 1322.09 -2.62628 -0.890044 0
M  V30 13543 H 1325.04 -1.58639 -0.0440354 0
M  V30 13544 H 1325.06 -2.95687 -2.39478 0
M  V30 13545 H 1324.57 -3.80228 -0.777695 0
M  V30 13546 H 1322.67 -2.42886 -2.82555 0
M  V30 13547 H 1322.79 -4.22556 -2.25794 0
M  V30 13548 H 1321.15 -2.19918 -1.28485 0
M  V30 13549 H 1321.93 -3.42956 -0.153579 0
M  V30 13550 N 1324.38 0.532545 -1.4833 0
M  V30 13551 C 1325.61 1.31331 -1.59874 0
M  V30 13552 C 1326.02 1.87028 -0.258037 0
M  V30 13553 O 1325.38 1.66272 0.752317 0
M  V30 13554 C 1325.43 2.46596 -2.64334 0
M  V30 13555 O 1325.15 1.93195 -3.93201 0
M  V30 13556 C 1326.65 3.38454 -2.86294 0
M  V30 13557 H 1323.87 0.399476 -0.539129 0
M  V30 13558 H 1326.41 0.642696 -1.94138 0
M  V30 13559 H 1324.57 3.09548 -2.32936 0
M  V30 13560 H 1324.98 2.68627 -4.50489 0
M  V30 13561 H 1326.46 4.15687 -3.63192 0
M  V30 13562 H 1326.93 3.93526 -1.95022 0
M  V30 13563 H 1327.54 2.81297 -3.18986 0
M  V30 13564 N 1325.86 1.36875 0.78122 0
M  V30 13565 C 1327.1 1.31299 1.53639 0
M  V30 13566 C 1327.42 -0.104942 1.94717 0
M  V30 13567 O 1326.69 -1.04696 1.65576 0
M  V30 13568 H 1325.27 0.483032 0.569815 0
M  V30 13569 H 1327.94 1.71261 0.930359 0
M  V30 13570 H 1327.03 1.94581 2.44018 0
M  V30 13571 N 1327.33 -1.00632 1.21289 0
M  V30 13572 C 1328.3 -2.07543 0.972548 0
M  V30 13573 C 1329.3 -1.60703 -0.0559244 0
M  V30 13574 O 1330.49 -1.73255 0.181213 0
M  V30 13575 C 1327.62 -3.37696 0.466297 0
M  V30 13576 H 1328.81 -2.30298 1.92101 0
M  V30 13577 H 1326.36 -1.17588 1.02969 0
M  V30 13578 H 1327.1 -3.2062 -0.487148 0
M  V30 13579 H 1326.88 -3.73024 1.20813 0
M  V30 13580 H 1328.37 -4.16388 0.317962 0
M  V30 13581 N 1328.81 -1.02043 -1.20104 0
M  V30 13582 C 1330.06 -0.710566 -1.89197 0
M  V30 13583 C 1330.38 0.762471 -1.79475 0
M  V30 13584 O 1329.65 1.54871 -1.19965 0
M  V30 13585 H 1328.23 -0.259839 -0.700352 0
M  V30 13586 H 1330.89 -1.29285 -1.45848 0
M  V30 13587 H 1329.99 -0.997363 -2.95735 0
M  V30 13588 N 1330.29 1.35952 -0.797165 0
M  V30 13589 C 1331.7 1.81554 -0.435311 0
M  V30 13590 C 1332.05 1.66266 1.04164 0
M  V30 13591 O 1331.18 1.18796 1.80877 0
M  V30 13592 C 1331.77 3.29619 -0.783358 0
M  V30 13593 C 1330.33 3.73401 -0.47423 0
M  V30 13594 C 1329.48 2.58098 -1.01394 0
M  V30 13595 H 1332.43 1.24064 -0.989638 0
M  V30 13596 H 1332.45 3.80421 -0.0773381 0
M  V30 13597 H 1331.96 3.40715 -1.85836 0
M  V30 13598 H 1330.06 3.6786 0.592418 0
M  V30 13599 H 1330.18 4.68542 -1.00026 0
M  V30 13600 H 1328.54 2.50927 -0.436747 0
M  V30 13601 H 1329.32 2.71976 -2.09485 0
M  V30 13602 N 1331.77 0.549846 1.47697 0
M  V30 13603 C 1333.02 0.0230503 2.02487 0
M  V30 13604 C 1333.34 -1.32382 1.42497 0
M  V30 13605 O 1332.6 -1.87293 0.567441 0
M  V30 13606 C 1332.9 -0.127268 3.57173 0
M  V30 13607 C 1332.56 1.14777 4.36047 0
M  V30 13608 C 1331.23 1.49716 4.57317 0
M  V30 13609 C 1333.58 1.99302 4.81589 0
M  V30 13610 C 1330.91 2.69042 5.21376 0
M  V30 13611 C 1333.26 3.17824 5.46965 0
M  V30 13612 C 1331.92 3.53086 5.66469 0
M  V30 13613 H 1331.19 0.00843471 0.740952 0
M  V30 13614 H 1333.84 0.719876 1.77454 0
M  V30 13615 H 1332.14 -0.907008 3.81157 0
M  V30 13616 H 1333.84 -0.550103 3.97209 0
M  V30 13617 H 1330.43 0.865703 4.19766 0
M  V30 13618 H 1334.61 1.73618 4.64942 0
M  V30 13619 H 1329.87 2.9654 5.34672 0
M  V30 13620 H 1334.04 3.83612 5.81218 0
M  V30 13621 H 1331.67 4.45643 6.15878 0
M  V30 13622 N 1333.25 -1.54984 0.285932 0
M  V30 13623 C 1334.66 -1.85519 -0.209707 0
M  V30 13624 C 1335.01 -1.20794 -1.54606 0
M  V30 13625 O 1334.13 -0.500159 -2.10541 0
M  V30 13626 C 1334.73 -3.36579 -0.387283 0
M  V30 13627 C 1333.29 -3.67199 -0.827148 0
M  V30 13628 C 1332.43 -2.77203 0.073308 0
M  V30 13629 H 1335.39 -1.5037 0.507404 0
M  V30 13630 H 1335.41 -3.60269 -1.2242 0
M  V30 13631 H 1334.92 -3.83658 0.585493 0
M  V30 13632 H 1333.02 -3.25627 -1.81101 0
M  V30 13633 H 1333.13 -4.74574 -0.656976 0
M  V30 13634 H 1331.5 -2.50785 -0.444859 0
M  V30 13635 H 1332.28 -3.27099 1.04216 0
M  V30 13636 N 1334.72 -0.0133892 -1.57594 0
M  V30 13637 C 1336.14 0.527615 -1.7909 0
M  V30 13638 C 1336.49 1.73179 -0.922142 0
M  V30 13639 O 1335.61 2.1602 -0.128233 0
M  V30 13640 C 1336.21 0.963949 -3.24798 0
M  V30 13641 C 1334.77 1.45017 -3.47343 0
M  V30 13642 C 1333.91 0.407548 -2.74289 0
M  V30 13643 H 1336.86 -0.239505 -1.56882 0
M  V30 13644 H 1336.88 1.82924 -3.33645 0
M  V30 13645 H 1336.4 0.0873315 -3.88002 0
M  V30 13646 H 1334.5 2.34724 -2.89371 0
M  V30 13647 H 1334.61 1.4684 -4.56043 0
M  V30 13648 H 1332.97 0.872174 -2.39301 0
M  V30 13649 H 1333.76 -0.460333 -3.402 0
M  V30 13650 N 1336.2 1.55448 0.259558 0
M  V30 13651 C 1337.45 1.7589 0.987201 0
M  V30 13652 C 1337.76 0.574951 1.86959 0
M  V30 13653 O 1338.97 0.662091 2.63303 0
M  V30 13654 C 1337.43 3.11349 1.80526 0
M  V30 13655 C 1337.03 4.37353 0.970882 0
M  V30 13656 C 1338.78 3.41136 2.5264 0
M  V30 13657 C 1336.69 5.63847 1.7841 0
M  V30 13658 H 1335.62 0.655662 0.372321 0
M  V30 13659 H 1338.27 1.81893 0.242332 0
M  V30 13660 H 1336.65 2.9942 2.5916 0
M  V30 13661 H 1337.82 4.60237 0.227763 0
M  V30 13662 H 1336.14 4.14809 0.363669 0
M  V30 13663 H 1338.73 4.32855 3.13912 0
M  V30 13664 H 1339.08 2.61879 3.23612 0
M  V30 13665 H 1339.61 3.54224 1.81026 0
M  V30 13666 H 1336.35 6.4589 1.11834 0
M  V30 13667 H 1335.87 5.45086 2.50283 0
M  V30 13668 H 1337.55 6.02641 2.35441 0
M  V30 13669 N 1337.68 -0.524672 1.4861 0
M  V30 13670 C 1339.1 -0.853703 1.34848 0
M  V30 13671 C 1339.3 -1.98194 0.363529 0
M  V30 13672 O 1338.35 -2.51597 -0.213348 0
M  V30 13673 C 1339.67 -1.21622 2.75006 0
M  V30 13674 C 1341.21 -1.3258 2.83534 0
M  V30 13675 C 1341.69 -1.72172 4.24406 0
M  V30 13676 N 1343.18 -1.79265 4.27105 0
M  V30 13677 C 1343.91 -2.11296 5.33049 0
M  V30 13678 N 1343.41 -2.41714 6.49266 0
M  V30 13679 N 1345.2 -2.12347 5.20447 0
M  V30 13680 H 1337.35 0.219671 2.11261 0
M  V30 13681 H 1339.62 0.0356444 0.94733 0
M  V30 13682 H 1339.32 -0.460776 3.48669 0
M  V30 13683 H 1339.2 -2.16516 3.0887 0
M  V30 13684 H 1341.58 -2.072 2.10124 0
M  V30 13685 H 1341.67 -0.357943 2.53283 0
M  V30 13686 H 1341.31 -0.981108 4.98334 0
M  V30 13687 H 1341.24 -2.70017 4.52104 0
M  V30 13688 H 1343.73 -1.58013 3.43279 0
M  V30 13689 H 1344.04 -2.65276 7.25843 0
M  V30 13690 H 1342.39 -2.39222 6.52532 0
M  V30 13691 H 1345.58 -1.88044 4.28669 0
M  V30 13692 H 1345.75 -2.36978 6.03113 0
M  V30 13693 N 1339.16 -1.37287 -0.77395 0
M  V30 13694 C 1340.11 -1.32955 -1.90855 0
M  V30 13695 C 1341.1 -0.218695 -1.67982 0
M  V30 13696 O 1342.31 -0.386594 -1.75799 0
M  V30 13697 H 1338.68 -0.414289 -0.62759 0
M  V30 13698 H 1340.65 -2.2874 -1.91626 0
M  V30 13699 C 1339.4 -1.15121 -3.28089 0
M  V30 13700 H 1338.72 -1.99852 -3.46264 0
M  V30 13701 H 1340.16 -1.1614 -4.07784 0
M  V30 13702 C 1338.62 0.14327 -3.36595 0
M  V30 13703 O 1339.15 1.12763 -3.85548 0
M  V30 13704 N 1337.36 0.193219 -2.89957 0
M  V30 13705 H 1336.91 -0.608471 -2.50311 0
M  V30 13706 H 1336.86 1.05897 -2.96029 0
M  V30 13707 N 1340.64 0.999871 -1.21821 0
M  V30 13708 C 1341.86 1.7794 -1.06546 0
M  V30 13709 C 1342.29 1.84219 0.380115 0
M  V30 13710 O 1341.64 1.28955 1.27438 0
M  V30 13711 C 1341.69 3.1943 -1.67322 0
M  V30 13712 O 1340.8 4.01957 -0.922171 0
M  V30 13713 H 1340.14 0.548204 -0.374658 0
M  V30 13714 H 1342.67 1.2565 -1.61472 0
M  V30 13715 H 1342.68 3.70086 -1.71757 0
M  V30 13716 H 1341.35 3.14175 -2.7252 0
M  V30 13717 H 1339.93 3.60509 -0.95331 0
M  V30 13718 N 1342.11 1.02678 1.19562 0
M  V30 13719 C 1343.34 0.741424 1.93695 0
M  V30 13720 C 1343.76 -0.693203 1.74861 0
M  V30 13721 O 1343.12 -1.47833 1.04953 0
M  V30 13722 C 1343.17 1.09514 3.43568 0
M  V30 13723 O 1342.27 0.212596 4.11852 0
M  V30 13724 H 1341.62 0.274128 0.604773 0
M  V30 13725 H 1344.15 1.37289 1.517 0
M  V30 13726 H 1344.16 1.05115 3.94227 0
M  V30 13727 H 1342.83 2.14034 3.56598 0
M  V30 13728 H 1341.41 0.315 3.71567 0
M  V30 13729 N 1343.59 -1.35528 0.804364 0
M  V30 13730 C 1345 -1.81321 0.444933 0
M  V30 13731 C 1345.35 -1.66816 -1.03281 0
M  V30 13732 O 1344.48 -1.19753 -1.80245 0
M  V30 13733 C 1345.07 -3.29199 0.800827 0
M  V30 13734 C 1343.63 -3.73144 0.494026 0
M  V30 13735 C 1342.78 -2.57557 1.02761 0
M  V30 13736 H 1345.73 -1.23537 0.996203 0
M  V30 13737 H 1345.75 -3.80375 0.0975117 0
M  V30 13738 H 1345.26 -3.39725 1.8764 0
M  V30 13739 H 1343.37 -3.68169 -0.572901 0
M  V30 13740 H 1343.48 -4.68005 1.0251 0
M  V30 13741 H 1341.84 -2.50692 0.450048 0
M  V30 13742 H 1342.63 -2.70861 2.10925 0
M  V30 13743 N 1345.07 -0.557671 -1.47404 0
M  V30 13744 C 1346.3 -0.0386038 -2.06564 0
M  V30 13745 C 1346.71 1.26075 -1.41074 0
M  V30 13746 O 1346.05 1.76723 -0.501453 0
M  V30 13747 C 1346.11 0.22746 -3.5878 0
M  V30 13748 C 1345.78 -0.982526 -4.46313 0
M  V30 13749 C 1346.78 -1.88821 -4.84399 0
M  V30 13750 C 1344.46 -1.19733 -4.87821 0
M  V30 13751 C 1346.45 -2.99238 -5.62793 0
M  V30 13752 C 1344.14 -2.30459 -5.65979 0
M  V30 13753 C 1345.14 -3.20042 -6.03375 0
M  V30 13754 O 1344.83 -4.28849 -6.79959 0
M  V30 13755 H 1344.56 -0.0430229 -0.67463 0
M  V30 13756 H 1347.11 -0.770801 -1.90389 0
M  V30 13757 H 1345.34 1.01397 -3.73169 0
M  V30 13758 H 1347.03 0.691966 -3.99958 0
M  V30 13759 H 1347.8 -1.73431 -4.52931 0
M  V30 13760 H 1343.68 -0.509223 -4.58179 0
M  V30 13761 H 1347.22 -3.69187 -5.91901 0
M  V30 13762 H 1343.12 -2.45821 -5.9686 0
M  V30 13763 H 1343.89 -4.26903 -6.98353 0
M  V30 13764 N 1346.55 1.54831 -0.294147 0
M  V30 13765 C 1347.77 2.04873 0.32276 0
M  V30 13766 C 1348.2 1.17034 1.47257 0
M  V30 13767 O 1347.56 0.172949 1.80473 0
M  V30 13768 C 1347.61 3.52431 0.76319 0
M  V30 13769 O 1346.71 3.67635 1.86865 0
M  V30 13770 H 1346.05 0.660926 0.0638162 0
M  V30 13771 H 1348.58 1.99944 -0.433995 0
M  V30 13772 H 1348.59 3.94155 1.05385 0
M  V30 13773 H 1347.27 4.15827 -0.0779464 0
M  V30 13774 H 1345.84 3.37816 1.57907 0
M  V30 13775 N 1348.03 0.0217466 1.57585 0
M  V30 13776 C 1349.27 -0.659463 1.91778 0
M  V30 13777 C 1349.61 -1.72201 0.897801 0
M  V30 13778 O 1348.88 -1.94333 -0.080509 0
M  V30 13779 C 1349.16 -1.28269 3.36481 0
M  V30 13780 C 1349.02 -0.230201 4.49211 0
M  V30 13781 C 1350.34 -2.20279 3.81005 0
M  V30 13782 H 1347.46 -0.238263 0.697424 0
M  V30 13783 H 1350.1 0.0774967 1.89842 0
M  V30 13784 H 1348.25 -1.9108 3.38262 0
M  V30 13785 H 1349.92 0.399901 4.59563 0
M  V30 13786 H 1348.16 0.445157 4.3151 0
M  V30 13787 H 1348.83 -0.705732 5.4747 0
M  V30 13788 H 1351.31 -1.67463 3.80914 0
M  V30 13789 H 1350.19 -2.60842 4.82962 0
M  V30 13790 H 1350.45 -3.09092 3.16093 0
M  V30 13791 N 1349.51 -1.55583 -0.251311 0
M  V30 13792 C 1350.75 -1.76411 -0.977859 0
M  V30 13793 C 1351.07 -0.584857 -1.86651 0
M  V30 13794 O 1352.27 -0.676046 -2.62948 0
M  V30 13795 C 1350.73 -3.12302 -1.78872 0
M  V30 13796 C 1350.34 -4.37862 -0.947674 0
M  V30 13797 C 1352.08 -3.42471 -2.50827 0
M  V30 13798 C 1349.99 -5.64786 -1.75417 0
M  V30 13799 H 1348.92 -0.657628 -0.368839 0
M  V30 13800 H 1351.57 -1.82019 -0.232682 0
M  V30 13801 H 1349.95 -3.0079 -2.57569 0
M  V30 13802 H 1351.13 -4.60351 -0.203352 0
M  V30 13803 H 1349.44 -4.14996 -0.341666 0
M  V30 13804 H 1352.04 -4.34514 -3.11612 0
M  V30 13805 H 1352.38 -2.63592 -3.22219 0
M  V30 13806 H 1352.91 -3.55179 -1.79145 0
M  V30 13807 H 1349.65 -6.46474 -1.08407 0
M  V30 13808 H 1349.17 -5.46405 -2.47389 0
M  V30 13809 H 1350.85 -6.03881 -2.32242 0
M  V30 13810 N 1350.98 0.516783 -1.48886 0
M  V30 13811 C 1352.39 1.09856 -1.50959 0
M  V30 13812 C 1352.75 1.94092 -0.28681 0
M  V30 13813 O 1351.87 2.07774 0.604877 0
M  V30 13814 C 1352.47 1.999 -2.73542 0
M  V30 13815 C 1351.02 2.5327 -2.78444 0
M  V30 13816 C 1350.17 1.30526 -2.44659 0
M  V30 13817 H 1353.12 0.301415 -1.55811 0
M  V30 13818 H 1353.14 2.84373 -2.52809 0
M  V30 13819 H 1352.66 1.38564 -3.62521 0
M  V30 13820 H 1350.76 3.1829 -1.93707 0
M  V30 13821 H 1350.87 2.91502 -3.80215 0
M  V30 13822 H 1349.23 1.62536 -1.96097 0
M  V30 13823 H 1350.02 0.709223 -3.35894 0
M  V30 13824 N 1352.46 1.37696 0.766659 0
M  V30 13825 C 1353.39 1.2975 1.88938 0
M  V30 13826 C 1354.41 0.212278 1.6141 0
M  V30 13827 O 1355.6 0.468825 1.72233 0
M  V30 13828 C 1352.7 0.984553 3.24283 0
M  V30 13829 C 1351.87 2.17625 3.79418 0
M  V30 13830 C 1350.93 1.83279 4.9325 0
M  V30 13831 O 1349.95 2.55631 5.08568 0
M  V30 13832 N 1351.16 0.779941 5.75237 0
M  V30 13833 H 1353.92 2.26492 1.96269 0
M  V30 13834 H 1351.48 1.31387 0.946001 0
M  V30 13835 H 1353.47 0.735536 3.9796 0
M  V30 13836 H 1352.04 0.105527 3.12422 0
M  V30 13837 H 1351.26 2.58672 2.9746 0
M  V30 13838 H 1352.55 2.97187 4.12986 0
M  V30 13839 H 1351.95 0.179661 5.65415 0
M  V30 13840 H 1350.51 0.59079 6.49117 0
M  V30 13841 N 1353.94 -0.993397 1.22349 0
M  V30 13842 C 1355.35 -1.54739 1.04465 0
M  V30 13843 C 1355.7 -1.92243 -0.392057 0
M  V30 13844 O 1354.83 -1.74707 -1.27697 0
M  V30 13845 C 1355.42 -2.81179 1.89007 0
M  V30 13846 C 1353.98 -3.33023 1.75421 0
M  V30 13847 C 1353.13 -2.06114 1.85505 0
M  V30 13848 H 1356.08 -0.814539 1.36202 0
M  V30 13849 H 1356.1 -3.53523 1.40718 0
M  V30 13850 H 1355.61 -2.53851 2.93566 0
M  V30 13851 H 1353.71 -3.6526 0.735935 0
M  V30 13852 H 1353.83 -4.03659 2.58062 0
M  V30 13853 H 1352.19 -2.19651 1.2894 0
M  V30 13854 H 1352.97 -1.81184 2.91594 0
M  V30 13855 N 1355.42 -1.03311 -1.19015 0
M  V30 13856 C 1356.67 -0.730593 -1.88432 0
M  V30 13857 C 1356.99 0.743392 -1.80274 0
M  V30 13858 O 1356.26 1.5359 -1.21601 0
M  V30 13859 H 1354.84 -0.267253 -0.697556 0
M  V30 13860 H 1357.5 -1.30824 -1.44468 0
M  V30 13861 H 1356.59 -1.02867 -2.9466 0
M  V30 13862 N 1356.9 1.35099 -0.81154 0
M  V30 13863 C 1357.83 2.2756 -0.170838 0
M  V30 13864 C 1358.81 1.48331 0.666085 0
M  V30 13865 O 1359.99 1.77579 0.632294 0
M  V30 13866 C 1357.12 3.30006 0.762483 0
M  V30 13867 C 1356.16 4.265 0.00454934 0
M  V30 13868 S 1357 5.18595 -1.33488 0
M  V30 13869 C 1358.15 6.24581 -0.406132 0
M  V30 13870 H 1358.39 2.81553 -0.95475 0
M  V30 13871 H 1355.92 1.41974 -0.606851 0
M  V30 13872 H 1357.88 3.89523 1.29545 0
M  V30 13873 H 1356.54 2.74882 1.51982 0
M  V30 13874 H 1355.73 4.98922 0.71361 0
M  V30 13875 H 1355.33 3.71178 -0.458613 0
M  V30 13876 H 1357.62 6.76278 0.406707 0
M  V30 13877 H 1358.57 6.99509 -1.09969 0
M  V30 13878 H 1358.98 5.645 0.000376348 0
M  V30 13879 N 1358.37 0.56548 1.47106 0
M  V30 13880 C 1359.31 -0.225573 2.27082 0
M  V30 13881 C 1360.28 -0.912747 1.34565 0
M  V30 13882 O 1361.47 -0.930085 1.63956 0
M  V30 13883 C 1358.6 -1.32211 3.1183 0
M  V30 13884 C 1357.64 -0.742615 4.19985 0
M  V30 13885 S 1358.47 0.417211 5.33872 0
M  V30 13886 C 1359.63 -0.680945 6.22185 0
M  V30 13887 H 1359.86 0.453066 2.93828 0
M  V30 13888 H 1357.4 0.351982 1.50334 0
M  V30 13889 H 1359.35 -1.95004 3.61225 0
M  V30 13890 H 1358.02 -1.97262 2.44431 0
M  V30 13891 H 1357.21 -1.56632 4.79043 0
M  V30 13892 H 1356.81 -0.190696 3.73514 0
M  V30 13893 H 1359.1 -1.57099 6.59034 0
M  V30 13894 H 1360.05 -0.127524 7.07985 0
M  V30 13895 H 1360.45 -0.977339 5.55975 0
M  V30 13896 N 1359.85 -1.54672 0.302354 0
M  V30 13897 C 1361.1 -1.99771 -0.305919 0
M  V30 13898 C 1361.42 -1.19225 -1.54306 0
M  V30 13899 O 1360.69 -0.288569 -1.93763 0
M  V30 13900 H 1359.27 -0.737934 -0.116026 0
M  V30 13901 H 1361.93 -1.90452 0.413997 0
M  V30 13902 H 1361.03 -3.06719 -0.577024 0
M  V30 13903 N 1361.33 -0.0301034 -1.57571 0
M  V30 13904 C 1362.28 0.969425 -2.11435 0
M  V30 13905 C 1363.27 1.33627 -1.04116 0
M  V30 13906 O 1364.48 1.31839 -1.2255 0
M  V30 13907 H 1360.85 0.330407 -0.675526 0
M  V30 13908 H 1362.82 0.489828 -2.94352 0
M  V30 13909 C 1361.57 2.24233 -2.65734 0
M  V30 13910 H 1360.9 1.9688 -3.47963 0
M  V30 13911 H 1362.34 2.92378 -3.07068 0
M  V30 13912 C 1360.8 2.97274 -1.58524 0
M  V30 13913 O 1361.33 3.8942 -0.985641 0
M  V30 13914 N 1359.53 2.59627 -1.30545 0
M  V30 13915 H 1359.08 1.84773 -1.79491 0
M  V30 13916 H 1359.04 3.08807 -0.590372 0
M  V30 13917 N 1362.81 1.55714 0.243056 0
M  V30 13918 C 1363.74 1.87093 1.32396 0
M  V30 13919 C 1364.75 0.757482 1.44104 0
M  V30 13920 O 1365.94 1.03563 1.45386 0
M  V30 13921 C 1363.04 2.04546 2.70212 0
M  V30 13922 C 1362.22 3.3543 2.80723 0
M  V30 13923 C 1361.27 3.42578 3.99408 0
M  V30 13924 O 1360.3 4.15762 3.88755 0
M  V30 13925 N 1361.5 2.7215 5.12752 0
M  V30 13926 H 1364.27 2.80399 1.05813 0
M  V30 13927 H 1361.83 1.55998 0.433151 0
M  V30 13928 H 1363.82 2.06665 3.47954 0
M  V30 13929 H 1362.39 1.17966 2.89487 0
M  V30 13930 H 1361.61 3.45594 1.89626 0
M  V30 13931 H 1362.9 4.21692 2.84698 0
M  V30 13932 H 1362.3 2.1243 5.24299 0
M  V30 13933 H 1360.85 2.79957 5.88615 0
M  V30 13934 N 1364.29 -0.50888 1.49158 0
M  V30 13935 C 1365.53 -1.261 1.57934 0
M  V30 13936 C 1365.86 -1.93199 0.264405 0
M  V30 13937 O 1365.13 -1.82359 -0.715684 0
M  V30 13938 H 1363.71 -0.468421 0.581886 0
M  V30 13939 H 1366.37 -0.590447 1.85741 0
M  V30 13940 H 1365.46 -2.02913 2.37135 0
M  V30 13941 N 1365.76 -1.381 -0.759346 0
M  V30 13942 C 1366.7 -1.29241 -1.88075 0
M  V30 13943 C 1367.68 -0.170526 -1.61703 0
M  V30 13944 O 1368.86 -0.346865 -1.85281 0
M  V30 13945 C 1365.99 -1.00115 -3.23566 0
M  V30 13946 C 1365.03 -2.14161 -3.68832 0
M  V30 13947 S 1365.87 -3.76251 -3.81045 0
M  V30 13948 C 1367.02 -3.49301 -5.19365 0
M  V30 13949 H 1367.25 -2.24152 -1.95303 0
M  V30 13950 H 1364.79 -1.23869 -0.921734 0
M  V30 13951 H 1366.75 -0.839934 -4.01815 0
M  V30 13952 H 1365.41 -0.0693088 -3.14024 0
M  V30 13953 H 1364.6 -1.89313 -4.67094 0
M  V30 13954 H 1364.2 -2.2636 -2.9772 0
M  V30 13955 H 1366.49 -3.05058 -6.04935 0
M  V30 13956 H 1367.44 -4.46935 -5.49231 0
M  V30 13957 H 1367.84 -2.83944 -4.87889 0
M  V30 13958 N 1367.24 0.986894 -1.22875 0
M  V30 13959 C 1368.49 1.72152 -1.05103 0
M  V30 13960 C 1368.8 1.91185 0.413248 0
M  V30 13961 O 1370.01 2.62031 0.710759 0
M  V30 13962 C 1368.47 3.09771 -1.8322 0
M  V30 13963 C 1368.07 2.98648 -3.33936 0
M  V30 13964 C 1369.82 3.87238 -1.73917 0
M  V30 13965 C 1367.73 4.31459 -4.04471 0
M  V30 13966 H 1366.66 0.645498 -0.389677 0
M  V30 13967 H 1369.31 1.10125 -1.46781 0
M  V30 13968 H 1367.69 3.72515 -1.34345 0
M  V30 13969 H 1368.86 2.45033 -3.9025 0
M  V30 13970 H 1367.18 2.34661 -3.43982 0
M  V30 13971 H 1369.77 4.85549 -2.23933 0
M  V30 13972 H 1370.12 4.1036 -0.700711 0
M  V30 13973 H 1370.65 3.31183 -2.20369 0
M  V30 13974 H 1367.39 4.13534 -5.08596 0
M  V30 13975 H 1366.91 4.84964 -3.52944 0
M  V30 13976 H 1368.59 5.00179 -4.10403 0
M  V30 13977 N 1368.72 1.0394 1.18466 0
M  V30 13978 C 1369.97 0.740576 1.88042 0
M  V30 13979 C 1370.29 -0.733822 1.80666 0
M  V30 13980 O 1369.56 -1.52943 1.22414 0
M  V30 13981 H 1368.14 0.270949 0.696129 0
M  V30 13982 H 1370.8 1.31588 1.43772 0
M  V30 13983 H 1369.9 1.04429 2.94111 0
M  V30 13984 N 1370.2 -1.34667 0.818693 0
M  V30 13985 C 1371.15 -2.31501 0.225816 0
M  V30 13986 C 1372.14 -1.57205 -0.631112 0
M  V30 13987 O 1373.35 -1.72237 -0.522924 0
M  V30 13988 H 1369.72 -0.750039 0.0542747 0
M  V30 13989 H 1371.69 -2.79036 1.05743 0
M  V30 13990 C 1370.44 -3.42464 -0.60114 0
M  V30 13991 H 1369.76 -3.9977 0.0489207 0
M  V30 13992 H 1371.2 -4.12468 -0.982154 0
M  V30 13993 C 1369.66 -2.86551 -1.77173 0
M  V30 13994 O 1370.19 -2.81085 -2.86974 0
M  V30 13995 N 1368.4 -2.43432 -1.58712 0
M  V30 13996 H 1367.95 -2.48077 -0.693958 0
M  V30 13997 H 1367.9 -2.06371 -2.37188 0
M  V30 13998 N 1371.68 -0.573274 -1.46804 0
M  V30 13999 C 1372.61 0.20305 -2.28299 0
M  V30 14000 C 1373.62 0.864367 -1.37958 0
M  V30 14001 O 1374.81 0.735516 -1.62642 0
M  V30 14002 C 1371.91 1.30633 -3.12711 0
M  V30 14003 C 1371.08 0.738741 -4.31116 0
M  V30 14004 C 1370.14 1.72853 -4.96999 0
M  V30 14005 O 1369.17 1.2683 -5.5489 0
M  V30 14006 N 1370.37 3.06239 -4.93151 0
M  V30 14007 H 1373.14 -0.496086 -2.95566 0
M  V30 14008 H 1370.7 -0.410411 -1.56612 0
M  V30 14009 H 1372.69 1.96755 -3.53652 0
M  V30 14010 H 1371.26 1.90846 -2.47581 0
M  V30 14011 H 1370.48 -0.0996941 -3.94074 0
M  V30 14012 H 1371.77 0.339154 -5.07668 0
M  V30 14013 H 1371.16 3.46262 -4.47347 0
M  V30 14014 H 1369.72 3.67876 -5.38062 0
M  V30 14015 N 1373.15 1.5451 -0.310553 0
M  V30 14016 C 1374.4 1.99931 0.29532 0
M  V30 14017 C 1374.72 1.20042 1.53672 0
M  V30 14018 O 1373.99 0.298841 1.93607 0
M  V30 14019 H 1372.57 0.738539 0.112111 0
M  V30 14020 H 1375.24 1.9023 -0.424092 0
M  V30 14021 H 1374.33 3.07021 0.560749 0
M  V30 14022 N 1374.63 0.0384594 1.57553 0
M  V30 14023 C 1375.58 -0.958199 2.11946 0
M  V30 14024 C 1376.58 -1.33073 1.04823 0
M  V30 14025 O 1377.78 -1.31187 1.23247 0
M  V30 14026 H 1374.16 -0.326819 0.677269 0
M  V30 14027 H 1376.13 -0.474211 2.94608 0
M  V30 14028 C 1374.88 -2.22821 2.6692 0
M  V30 14029 H 1374.2 -1.95032 3.49002 0
M  V30 14030 H 1375.64 -2.90746 3.08614 0
M  V30 14031 C 1374.1 -2.96429 1.60098 0
M  V30 14032 O 1374.63 -3.88892 1.00628 0
M  V30 14033 N 1372.83 -2.58931 1.3192 0
M  V30 14034 H 1372.38 -1.83818 1.80468 0
M  V30 14035 H 1372.34 -3.0849 0.60674 0
M  V30 14036 N 1376.11 -1.55841 -0.234795 0
M  V30 14037 C 1377.04 -1.94344 -1.29432 0
M  V30 14038 C 1378.02 -0.809912 -1.49581 0
M  V30 14039 O 1379.21 -1.07117 -1.61986 0
M  V30 14040 C 1376.34 -2.24866 -2.64675 0
M  V30 14041 C 1375.29 -3.40584 -2.59203 0
M  V30 14042 C 1374.62 -3.56678 -3.98353 0
M  V30 14043 C 1375.92 -4.75935 -2.15135 0
M  V30 14044 H 1377.61 -2.83096 -0.97454 0
M  V30 14045 H 1375.16 -1.36205 -0.467355 0
M  V30 14046 H 1377.11 -2.50392 -3.38942 0
M  V30 14047 H 1375.83 -1.32953 -2.98314 0
M  V30 14048 H 1374.49 -3.15087 -1.87393 0
M  V30 14049 H 1374.14 -2.62164 -4.29277 0
M  V30 14050 H 1373.84 -4.34503 -3.95577 0
M  V30 14051 H 1375.37 -3.84538 -4.74302 0
M  V30 14052 H 1376.78 -5.00753 -2.7914 0
M  V30 14053 H 1375.18 -5.56949 -2.23446 0
M  V30 14054 H 1376.25 -4.72182 -1.10328 0
M  V30 14055 N 1377.59 0.500963 -1.49426 0
M  V30 14056 C 1378.84 1.25261 -1.58601 0
M  V30 14057 C 1379.16 1.93056 -0.274647 0
M  V30 14058 O 1378.43 1.82736 0.706003 0
M  V30 14059 H 1377.01 0.465328 -0.584362 0
M  V30 14060 H 1379.67 0.580588 -1.86052 0
M  V30 14061 H 1378.77 2.01652 -2.38208 0
M  V30 14062 N 1379.07 1.38501 0.752011 0
M  V30 14063 C 1380.02 1.35975 1.88716 0
M  V30 14064 C 1381.01 0.245392 1.67613 0
M  V30 14065 O 1382.22 0.414514 1.75162 0
M  V30 14066 H 1378.59 0.424221 0.620919 0
M  V30 14067 H 1380.56 2.3176 1.87962 0
M  V30 14068 C 1379.31 1.20326 3.26216 0
M  V30 14069 H 1378.63 2.05336 3.43041 0
M  V30 14070 H 1380.07 1.22613 4.05884 0
M  V30 14071 C 1378.53 -0.0897029 3.36781 0
M  V30 14072 O 1379.06 -1.06615 3.87293 0
M  V30 14073 N 1377.27 -0.147065 2.90228 0
M  V30 14074 H 1376.82 0.648216 2.49311 0
M  V30 14075 H 1376.77 -1.01174 2.97676 0
M  V30 14076 N 1380.55 -0.980364 1.23396 0
M  V30 14077 C 1381.77 -1.76223 1.09363 0
M  V30 14078 C 1382.2 -1.84801 -0.350759 0
M  V30 14079 O 1381.55 -1.30966 -1.2537 0
M  V30 14080 C 1381.6 -3.16728 1.72383 0
M  V30 14081 O 1380.71 -4.00439 0.986002 0
M  V30 14082 H 1380.05 -0.542174 0.383332 0
M  V30 14083 H 1382.58 -1.23066 1.6345 0
M  V30 14084 H 1382.59 -3.67307 1.77623 0
M  V30 14085 H 1381.26 -3.098 2.77483 0
M  V30 14086 H 1379.84 -3.58946 1.01054 0
M  V30 14087 N 1382.02 -1.04567 -1.17913 0
M  V30 14088 C 1383.25 -0.772146 -1.92491 0
M  V30 14089 C 1383.67 0.665297 -1.75942 0
M  V30 14090 O 1383.03 1.46144 -1.07292 0
M  V30 14091 C 1383.08 -1.14966 -3.41782 0
M  V30 14092 O 1382.18 -0.278091 -4.11461 0
M  V30 14093 H 1381.52 -0.283715 -0.600335 0
M  V30 14094 H 1384.05 -1.39685 -1.49496 0
M  V30 14095 H 1384.06 -1.11374 -3.92505 0
M  V30 14096 H 1382.74 -2.1968 -3.53148 0
M  V30 14097 H 1381.32 -0.374073 -3.71019 0
M  V30 14098 N 1383.5 1.34231 -0.825823 0
M  V30 14099 C 1384.73 2.02417 -0.428348 0
M  V30 14100 C 1385.14 1.62181 0.966573 0
M  V30 14101 O 1384.5 0.828691 1.62601 0
M  V30 14102 C 1384.55 3.57678 -0.524271 0
M  V30 14103 O 1384.27 3.96458 -1.86422 0
M  V30 14104 C 1385.77 4.43132 -0.122069 0
M  V30 14105 H 1382.99 0.648699 -0.171554 0
M  V30 14106 H 1385.54 1.71443 -1.11478 0
M  V30 14107 H 1383.69 3.87232 0.114112 0
M  V30 14108 H 1384.11 4.91147 -1.84051 0
M  V30 14109 H 1385.58 5.51477 -0.240264 0
M  V30 14110 H 1386.06 4.29139 0.934705 0
M  V30 14111 H 1386.66 4.18912 -0.734366 0
M  V30 14112 N 1384.98 0.581051 1.46498 0
M  V30 14113 C 1386.23 0.0658652 2.01993 0
M  V30 14114 C 1386.55 -1.29807 1.45516 0
M  V30 14115 O 1385.82 -1.85177 0.639233 0
M  V30 14116 H 1384.4 0.0213584 0.746695 0
M  V30 14117 H 1387.06 0.756456 1.79621 0
M  V30 14118 H 1386.16 -0.00438128 3.121 0
M  V30 14119 N 1386.46 -1.54343 0.318742 0
M  V30 14120 C 1387.39 -2.20392 -0.591833 0
M  V30 14121 C 1388.37 -1.17931 -1.11942 0
M  V30 14122 O 1389.55 -1.4665 -1.18432 0
M  V30 14123 C 1386.68 -2.8618 -1.81159 0
M  V30 14124 C 1385.73 -4.02319 -1.41568 0
M  V30 14125 S 1386.56 -5.33551 -0.456481 0
M  V30 14126 C 1387.71 -6.02831 -1.68363 0
M  V30 14127 H 1387.95 -2.97284 -0.0307625 0
M  V30 14128 H 1385.48 -1.54057 0.102835 0
M  V30 14129 H 1387.44 -3.24707 -2.51148 0
M  V30 14130 H 1386.1 -2.091 -2.34384 0
M  V30 14131 H 1385.29 -4.47197 -2.32445 0
M  V30 14132 H 1384.89 -3.65441 -0.795535 0
M  V30 14133 H 1387.19 -6.24716 -2.62175 0
M  V30 14134 H 1388.13 -6.96488 -1.27709 0
M  V30 14135 H 1388.54 -5.32682 -1.86841 0
M  V30 14136 N 1387.94 -0.0468143 -1.5753 0
M  V30 14137 C 1389.18 0.627375 -1.91695 0
M  V30 14138 C 1389.5 1.72261 -0.926588 0
M  V30 14139 O 1390.7 2.45466 -1.16012 0
M  V30 14140 C 1389.16 1.16722 -3.40447 0
M  V30 14141 C 1388.77 0.104335 -4.47878 0
M  V30 14142 C 1390.51 1.81691 -3.83652 0
M  V30 14143 C 1388.42 0.656818 -5.87741 0
M  V30 14144 H 1387.35 0.238107 -0.715417 0
M  V30 14145 H 1390 -0.114995 -1.83139 0
M  V30 14146 H 1388.38 1.96177 -3.43992 0
M  V30 14147 H 1389.56 -0.669053 -4.55917 0
M  V30 14148 H 1387.87 -0.447633 -4.13987 0
M  V30 14149 H 1390.47 2.24014 -4.85512 0
M  V30 14150 H 1390.81 2.66686 -3.19663 0
M  V30 14151 H 1391.34 1.08898 -3.82604 0
M  V30 14152 H 1388.08 -0.155397 -6.55316 0
M  V30 14153 H 1387.6 1.39829 -5.83273 0
M  V30 14154 H 1389.28 1.14107 -6.36858 0
M  V30 14155 N 1389.41 1.55964 0.226527 0
M  V30 14156 C 1390.66 1.78392 0.94977 0
M  V30 14157 C 1390.98 0.614444 1.85066 0
M  V30 14158 O 1390.25 -0.368894 1.92395 0
M  V30 14159 H 1388.83 0.657962 0.353688 0
M  V30 14160 H 1391.5 1.93422 0.239577 0
M  V30 14161 H 1390.59 2.70343 1.55952 0
M  V30 14162 N 1390.89 -0.493031 1.4969 0
M  V30 14163 C 1391.84 -1.61449 1.67442 0
M  V30 14164 C 1392.83 -1.60553 0.540296 0
M  V30 14165 O 1394.04 -1.64965 0.720167 0
M  V30 14166 H 1390.42 -0.535337 0.528127 0
M  V30 14167 H 1392.39 -1.43631 2.61558 0
M  V30 14168 C 1391.14 -2.99537 1.76559 0
M  V30 14169 H 1390.46 -3.00936 2.63206 0
M  V30 14170 H 1391.9 -3.77521 1.93013 0
M  V30 14171 C 1390.36 -3.32984 0.512176 0
M  V30 14172 O 1390.89 -4.00096 -0.35857 0
M  V30 14173 N 1389.09 -2.882 0.372734 0
M  V30 14174 H 1388.64 -2.3376 1.08232 0
M  V30 14175 H 1388.6 -3.10945 -0.464804 0
M  V30 14176 N 1392.37 -1.38898 -0.744656 0
M  V30 14177 C 1393.6 -1.3903 -1.53901 0
M  V30 14178 C 1394.02 0.0156607 -1.88093 0
M  V30 14179 O 1393.38 1.00012 -1.51219 0
M  V30 14180 C 1393.43 -2.2609 -2.80919 0
M  V30 14181 O 1392.53 -1.68414 -3.76444 0
M  V30 14182 H 1391.87 -0.473854 -0.465144 0
M  V30 14183 H 1394.4 -1.82773 -0.919525 0
M  V30 14184 H 1394.41 -2.40264 -3.29754 0
M  V30 14185 H 1393.09 -3.28271 -2.55364 0
M  V30 14186 H 1391.66 -1.63431 -3.35179 0
M  V30 14187 N 1393.85 0.973806 -1.23914 0
M  V30 14188 C 1394.81 2.04892 -1.02723 0
M  V30 14189 C 1395.81 1.60795 0.0132972 0
M  V30 14190 O 1397 1.72714 -0.227084 0
M  V30 14191 C 1394.13 3.36341 -0.555667 0
M  V30 14192 H 1395.33 2.25124 -1.98139 0
M  V30 14193 H 1392.88 1.14817 -1.06051 0
M  V30 14194 H 1393.61 3.21799 0.40197 0
M  V30 14195 H 1393.4 3.69689 -1.30661 0
M  V30 14196 H 1394.89 4.15398 -0.428248 0
M  V30 14197 N 1395.33 1.05191 1.17357 0
M  V30 14198 C 1396.55 0.782343 1.92079 0
M  V30 14199 C 1396.98 -0.655957 1.76292 0
M  V30 14200 O 1396.33 -1.45573 1.08065 0
M  V30 14201 C 1396.38 1.16777 3.41168 0
M  V30 14202 O 1395.49 0.299908 4.11308 0
M  V30 14203 H 1394.83 0.286894 0.598822 0
M  V30 14204 H 1397.36 1.40476 1.48754 0
M  V30 14205 H 1397.37 1.13454 3.91909 0
M  V30 14206 H 1396.04 2.2155 3.51978 0
M  V30 14207 H 1394.62 0.393744 3.70815 0
M  V30 14208 N 1396.8 -1.33791 0.83293 0
M  V30 14209 C 1398.22 -1.50893 0.519955 0
M  V30 14210 C 1398.42 -1.7749 -0.953919 0
M  V30 14211 O 1397.48 -1.83168 -1.73798 0
M  V30 14212 C 1398.79 -2.66741 1.38815 0
M  V30 14213 C 1400.34 -2.80625 1.38631 0
M  V30 14214 C 1400.81 -3.99528 2.23922 0
M  V30 14215 N 1402.3 -4.06753 2.21599 0
M  V30 14216 C 1403.04 -4.97937 2.84335 0
M  V30 14217 N 1402.53 -5.94276 3.561 0
M  V30 14218 N 1404.33 -4.90887 2.73837 0
M  V30 14219 H 1396.48 -1.14788 1.7871 0
M  V30 14220 H 1398.74 -0.563822 0.762108 0
M  V30 14221 H 1398.45 -2.53748 2.43525 0
M  V30 14222 H 1398.32 -3.62001 1.05996 0
M  V30 14223 H 1400.71 -2.93053 0.346951 0
M  V30 14224 H 1400.79 -1.86144 1.75454 0
M  V30 14225 H 1400.43 -3.8786 3.27914 0
M  V30 14226 H 1400.36 -4.93242 1.84444 0
M  V30 14227 H 1402.85 -3.37802 1.69406 0
M  V30 14228 H 1403.17 -6.60504 4.01191 0
M  V30 14229 H 1401.51 -5.9437 3.60207 0
M  V30 14230 H 1404.7 -4.14586 2.17338 0
M  V30 14231 H 1404.88 -5.61752 3.23014 0
M  V30 14232 N 1398.28 -0.588812 -1.46187 0
M  V30 14233 C 1399.69 -0.163897 -1.85979 0
M  V30 14234 C 1400.04 1.27458 -1.49161 0
M  V30 14235 O 1399.17 1.96365 -0.909372 0
M  V30 14236 C 1399.76 -0.29067 -3.37551 0
M  V30 14237 C 1398.32 0.0794165 -3.76316 0
M  V30 14238 C 1397.47 -0.623807 -2.70192 0
M  V30 14239 H 1400.42 -0.79666 -1.37255 0
M  V30 14240 H 1400.44 0.482316 -3.77431 0
M  V30 14241 H 1399.95 -1.33771 -3.64317 0
M  V30 14242 H 1398.06 1.12636 -3.55168 0
M  V30 14243 H 1398.17 -0.301153 -4.78153 0
M  V30 14244 H 1396.53 -0.0634124 -2.54621 0
M  V30 14245 H 1397.32 -1.67261 -2.99797 0
M  V30 14246 N 1399.76 1.54172 -0.326923 0
M  V30 14247 C 1400.99 2.05044 0.276508 0
M  V30 14248 C 1401.4 1.20288 1.45521 0
M  V30 14249 O 1400.76 0.234324 1.80989 0
M  V30 14250 C 1400.81 3.54505 0.707714 0
M  V30 14251 O 1400.53 4.36042 -0.424098 0
M  V30 14252 C 1402.03 4.21482 1.3736 0
M  V30 14253 H 1399.25 0.668632 0.0563273 0
M  V30 14254 H 1401.8 1.98929 -0.474087 0
M  V30 14255 H 1399.95 3.60896 1.40828 0
M  V30 14256 H 1400.37 5.24433 -0.0836846 0
M  V30 14257 H 1401.84 5.27501 1.62623 0
M  V30 14258 H 1402.32 3.72802 2.32196 0
M  V30 14259 H 1402.92 4.19238 0.715526 0
M  V30 14260 N 1401.24 0.0551678 1.57503 0
M  V30 14261 C 1402.17 -0.953348 2.07332 0
M  V30 14262 C 1403.15 -1.30148 0.974699 0
M  V30 14263 O 1404.33 -1.41366 1.24692 0
M  V30 14264 C 1401.46 -2.26622 2.51715 0
M  V30 14265 C 1400.51 -2.07085 3.72851 0
M  V30 14266 S 1401.34 -1.34553 5.1832 0
M  V30 14267 C 1402.5 -2.67155 5.6602 0
M  V30 14268 H 1402.73 -0.529294 2.9255 0
M  V30 14269 H 1400.26 -0.157196 1.53598 0
M  V30 14270 H 1402.22 -3.02085 2.77948 0
M  V30 14271 H 1400.88 -2.66155 1.66795 0
M  V30 14272 H 1400.07 -3.04206 4.01839 0
M  V30 14273 H 1399.68 -1.39761 3.46905 0
M  V30 14274 H 1401.97 -3.63309 5.7185 0
M  V30 14275 H 1402.91 -2.42798 6.65173 0
M  V30 14276 H 1403.32 -2.73597 4.93766 0
M  V30 14277 N 1402.72 -1.56081 -0.218252 0
M  V30 14278 C 1404.13 -1.69397 -0.784964 0
M  V30 14279 C 1404.48 -0.65775 -1.84846 0
M  V30 14280 O 1403.6 0.190478 -2.1556 0
M  V30 14281 C 1404.2 -3.07114 -1.4306 0
M  V30 14282 C 1402.76 -3.22273 -1.94466 0
M  V30 14283 C 1401.9 -2.65327 -0.80604 0
M  V30 14284 H 1404.86 -1.58699 0.0064566 0
M  V30 14285 H 1404.88 -3.03156 -2.2995 0
M  V30 14286 H 1404.39 -3.8251 -0.656335 0
M  V30 14287 H 1402.49 -2.51752 -2.74684 0
M  V30 14288 H 1402.6 -4.29526 -2.12237 0
M  V30 14289 H 1400.97 -2.23894 -1.21423 0
M  V30 14290 H 1401.75 -3.43271 -0.0443928 0
M  V30 14291 N 1404.2 0.485086 -1.49949 0
M  V30 14292 C 1405.42 1.26648 -1.64241 0
M  V30 14293 C 1405.85 1.85359 -0.319939 0
M  V30 14294 O 1405.2 1.66628 0.714487 0
M  V30 14295 C 1405.25 2.36109 -2.72552 0
M  V30 14296 O 1404.36 3.40387 -2.32832 0
M  V30 14297 H 1403.7 0.373208 -0.549192 0
M  V30 14298 H 1406.23 0.578929 -1.96239 0
M  V30 14299 H 1406.24 2.81634 -2.95205 0
M  V30 14300 H 1404.91 1.92745 -3.6854 0
M  V30 14301 H 1403.49 3.0067 -2.20571 0
M  V30 14302 N 1405.67 1.39291 0.737279 0
M  V30 14303 C 1406.92 1.36121 1.49384 0
M  V30 14304 C 1407.24 -0.0429406 1.94953 0
M  V30 14305 O 1406.51 -0.993756 1.68823 0
M  V30 14306 H 1405.09 0.500916 0.554159 0
M  V30 14307 H 1407.75 1.74134 0.875402 0
M  V30 14308 H 1406.85 2.02246 2.37704 0
M  V30 14309 N 1407.15 -0.967221 1.24429 0
M  V30 14310 C 1408.06 -2.09582 1.05417 0
M  V30 14311 C 1409.08 -1.73999 -0.00516127 0
M  V30 14312 O 1410.25 -2.00472 0.193115 0
M  V30 14313 C 1407.32 -3.40327 0.661697 0
M  V30 14314 C 1406.38 -3.89854 1.79756 0
M  V30 14315 C 1405.61 -5.1436 1.42372 0
M  V30 14316 O 1405.84 -5.69536 0.313754 0
M  V30 14317 O 1404.77 -5.58283 2.24952 0
M  V30 14318 H 1408.6 -2.28517 2.00034 0
M  V30 14319 H 1406.18 -1.07978 1.03253 0
M  V30 14320 H 1408.06 -4.18943 0.454369 0
M  V30 14321 H 1406.74 -3.22691 -0.255348 0
M  V30 14322 H 1405.64 -3.12297 2.05964 0
M  V30 14323 H 1406.98 -4.11967 2.69339 0
M  V30 14324 N 1408.63 -1.05812 -1.16797 0
M  V30 14325 C 1409.88 -0.782869 -1.8773 0
M  V30 14326 C 1410.23 0.683013 -1.79869 0
M  V30 14327 O 1409.52 1.49357 -1.20012 0
M  V30 14328 C 1409.72 -1.20565 -3.3645 0
M  V30 14329 C 1409.55 -2.71109 -3.58789 0
M  V30 14330 C 1408.32 -3.38506 -3.75155 0
M  V30 14331 C 1410.51 -3.69327 -3.57914 0
M  V30 14332 N 1408.5 -4.77851 -3.85398 0
M  V30 14333 C 1409.87 -4.94431 -3.74082 0
M  V30 14334 C 1411.92 -3.62707 -3.41099 0
M  V30 14335 C 1410.63 -6.13707 -3.75175 0
M  V30 14336 C 1412.65 -4.81429 -3.43483 0
M  V30 14337 C 1412.01 -6.0536 -3.60165 0
M  V30 14338 H 1408.11 -0.338798 -0.704798 0
M  V30 14339 H 1410.7 -1.3513 -1.40171 0
M  V30 14340 H 1408.87 -0.665104 -3.82663 0
M  V30 14341 H 1410.6 -0.879581 -3.95026 0
M  V30 14342 H 1407.35 -2.88907 -3.75273 0
M  V30 14343 H 1407.78 -5.50324 -3.943 0
M  V30 14344 H 1412.42 -2.67851 -3.27133 0
M  V30 14345 H 1410.14 -7.08901 -3.87925 0
M  V30 14346 H 1413.72 -4.77966 -3.31722 0
M  V30 14347 H 1412.6 -6.95688 -3.61923 0
M  V30 14348 N 1410.11 1.33347 -0.840014 0
M  V30 14349 C 1411.07 2.27492 -0.279264 0
M  V30 14350 C 1412.07 1.51004 0.552669 0
M  V30 14351 O 1413.26 1.70305 0.366295 0
M  V30 14352 C 1410.39 3.35462 0.606466 0
M  V30 14353 H 1411.59 2.78601 -1.11001 0
M  V30 14354 H 1409.14 1.4377 -0.613187 0
M  V30 14355 H 1409.87 2.89596 1.45961 0
M  V30 14356 H 1409.66 3.92098 0.0111889 0
M  V30 14357 H 1411.15 4.05645 0.992052 0
M  V30 14358 N 1411.59 0.596556 1.45873 0
M  V30 14359 C 1413 0.173758 1.8589 0
M  V30 14360 C 1413.35 -1.26665 1.49835 0
M  V30 14361 O 1412.47 -1.9588 0.919773 0
M  V30 14362 C 1413.07 0.308567 3.37392 0
M  V30 14363 C 1411.63 -0.0594585 3.76353 0
M  V30 14364 C 1410.77 0.638127 2.69858 0
M  V30 14365 H 1413.72 0.803928 1.36831 0
M  V30 14366 H 1413.75 -0.462294 3.77681 0
M  V30 14367 H 1413.26 1.35701 3.63603 0
M  V30 14368 H 1411.36 -1.1075 3.5576 0
M  V30 14369 H 1411.47 0.326506 4.77986 0
M  V30 14370 H 1409.84 0.0769147 2.54584 0
M  V30 14371 H 1410.62 1.68849 2.98906 0
M  V30 14372 N 1413.06 -1.53996 0.335095 0
M  V30 14373 C 1414 -2.22258 -0.559809 0
M  V30 14374 C 1415.01 -1.22636 -1.07071 0
M  V30 14375 O 1416.2 -1.4904 -0.982312 0
M  V30 14376 C 1413.3 -2.88256 -1.78218 0
M  V30 14377 C 1412.47 -4.14118 -1.40801 0
M  V30 14378 C 1411.53 -4.63603 -2.48915 0
M  V30 14379 O 1410.56 -5.28015 -2.12576 0
M  V30 14380 N 1411.76 -4.3881 -3.80034 0
M  V30 14381 H 1414.52 -2.9969 0.0247521 0
M  V30 14382 H 1412.08 -1.61119 0.158826 0
M  V30 14383 H 1414.08 -3.1828 -2.4996 0
M  V30 14384 H 1412.65 -2.14461 -2.27431 0
M  V30 14385 H 1411.87 -3.90732 -0.521729 0
M  V30 14386 H 1413.15 -4.96005 -1.13388 0
M  V30 14387 H 1412.55 -3.87278 -4.12349 0
M  V30 14388 H 1411.11 -4.73461 -4.47971 0
M  V30 14389 N 1414.54 -0.0635198 -1.57472 0
M  V30 14390 C 1415.77 0.620205 -1.9791 0
M  V30 14391 C 1416.19 1.62851 -0.941335 0
M  V30 14392 O 1415.55 1.81056 0.0940313 0
M  V30 14393 C 1415.6 1.27261 -3.37397 0
M  V30 14394 O 1414.7 2.38841 -3.36197 0
M  V30 14395 H 1414.04 0.16021 -0.644382 0
M  V30 14396 H 1416.57 -0.135582 -2.0415 0
M  V30 14397 H 1416.58 1.6214 -3.74399 0
M  V30 14398 H 1415.26 0.533723 -4.12461 0
M  V30 14399 H 1413.83 2.05817 -3.10956 0
M  V30 14400 N 1416.02 1.56195 0.209972 0
M  V30 14401 C 1417.24 1.84189 0.953364 0
M  V30 14402 C 1417.67 0.645288 1.76685 0
M  V30 14403 O 1417.03 -0.405962 1.76696 0
M  V30 14404 C 1417.08 3.10281 1.83733 0
M  V30 14405 O 1416.18 2.89788 2.93422 0
M  V30 14406 H 1415.52 0.606931 0.269314 0
M  V30 14407 H 1418.05 2.03416 0.219783 0
M  V30 14408 H 1418.06 3.40688 2.2449 0
M  V30 14409 H 1416.74 3.97 1.23951 0
M  V30 14410 H 1415.31 2.70643 2.56528 0
M  V30 14411 N 1417.5 -0.477127 1.50204 0
M  V30 14412 C 1418.46 -1.55824 1.68082 0
M  V30 14413 C 1419.46 -1.51039 0.551719 0
M  V30 14414 O 1420.65 -1.53766 0.818638 0
M  V30 14415 C 1417.78 -2.95462 1.70044 0
M  V30 14416 H 1418.98 -1.41292 2.64531 0
M  V30 14417 H 1416.53 -0.70308 1.39594 0
M  V30 14418 H 1417.26 -3.15445 0.752663 0
M  V30 14419 H 1417.05 -3.00343 2.52065 0
M  V30 14420 H 1418.54 -3.73964 1.85851 0
M  V30 14421 N 1418.98 -1.3968 -0.729882 0
M  V30 14422 C 1420.22 -1.37385 -1.49175 0
M  V30 14423 C 1420.56 0.0285839 -1.94179 0
M  V30 14424 O 1419.83 0.994516 -1.67152 0
M  V30 14425 C 1420.11 -2.35075 -2.72785 0
M  V30 14426 C 1419.97 -3.84282 -2.33767 0
M  V30 14427 C 1421.29 -2.30515 -3.74901 0
M  V30 14428 H 1418.4 -0.500359 -0.541119 0
M  V30 14429 H 1421.05 -1.7071 -0.834152 0
M  V30 14430 H 1419.2 -2.06787 -3.28894 0
M  V30 14431 H 1420.87 -4.2334 -1.8325 0
M  V30 14432 H 1419.11 -4.00809 -1.65935 0
M  V30 14433 H 1419.78 -4.48131 -3.22309 0
M  V30 14434 H 1422.26 -2.55539 -3.28389 0
M  V30 14435 H 1421.13 -3.00939 -4.5905 0
M  V30 14436 H 1421.4 -1.3119 -4.22187 0
M  V30 14437 N 1420.45 0.960609 -1.2494 0
M  V30 14438 C 1421.87 1.23057 -1.01633 0
M  V30 14439 C 1422.07 1.99676 0.270527 0
M  V30 14440 O 1421.13 2.32503 0.984823 0
M  V30 14441 C 1422.44 2.01078 -2.2358 0
M  V30 14442 C 1423.99 2.14144 -2.28279 0
M  V30 14443 C 1424.46 2.95563 -3.49867 0
M  V30 14444 N 1425.95 3.03143 -3.50227 0
M  V30 14445 C 1426.69 3.66518 -4.40967 0
M  V30 14446 N 1426.18 4.31553 -5.41972 0
M  V30 14447 N 1427.98 3.636 -4.28663 0
M  V30 14448 H 1420.13 0.447876 -2.07624 0
M  V30 14449 H 1422.39 0.260581 -0.911483 0
M  V30 14450 H 1422.1 1.52172 -3.17075 0
M  V30 14451 H 1421.97 3.01797 -2.2627 0
M  V30 14452 H 1424.36 2.6225 -1.35311 0
M  V30 14453 H 1424.44 1.1275 -2.29611 0
M  V30 14454 H 1424.08 2.48149 -4.43153 0
M  V30 14455 H 1424.01 3.9717 -3.45779 0
M  V30 14456 H 1426.5 2.56888 -2.77159 0
M  V30 14457 H 1426.82 4.7775 -6.07433 0
M  V30 14458 H 1425.16 4.302 -5.45851 0
M  V30 14459 H 1428.35 3.11973 -3.48985 0
M  V30 14460 H 1428.53 4.12706 -4.99578 0
M  V30 14461 N 1421.93 1.0643 1.16234 0
M  V30 14462 C 1423.18 0.782998 1.87075 0
M  V30 14463 C 1423.51 -0.688852 1.81572 0
M  V30 14464 O 1422.79 -1.50478 1.23234 0
M  V30 14465 C 1423.07 1.27997 3.36584 0
M  V30 14466 C 1422.92 2.81568 3.5077 0
M  V30 14467 C 1424.24 0.888975 4.31028 0
M  V30 14468 H 1421.36 0.28591 0.679282 0
M  V30 14469 H 1424 1.32046 1.36615 0
M  V30 14470 H 1422.15 0.822756 3.79688 0
M  V30 14471 H 1423.82 3.35508 3.16595 0
M  V30 14472 H 1422.07 3.2023 2.92635 0
M  V30 14473 H 1422.74 3.11406 4.55774 0
M  V30 14474 H 1425.21 1.28279 3.95833 0
M  V30 14475 H 1424.09 1.26416 5.34144 0
M  V30 14476 H 1424.35 -0.205973 4.4162 0
M  V30 14477 N 1423.41 -1.329 0.847073 0
M  V30 14478 C 1424.64 -2.0171 0.460497 0
M  V30 14479 C 1425.05 -1.63699 -0.940649 0
M  V30 14480 O 1424.41 -0.854454 -1.61262 0
M  V30 14481 C 1424.46 -3.56799 0.581108 0
M  V30 14482 O 1424.18 -3.93442 1.92705 0
M  V30 14483 C 1425.68 -4.42882 0.192552 0
M  V30 14484 H 1422.9 -0.645887 0.181853 0
M  V30 14485 H 1425.45 -1.69648 1.14192 0
M  V30 14486 H 1423.6 -3.87364 -0.0524924 0
M  V30 14487 H 1424.02 -4.88157 1.91841 0
M  V30 14488 H 1425.49 -5.51025 0.327969 0
M  V30 14489 H 1425.97 -4.30571 -0.866315 0
M  V30 14490 H 1426.57 -4.17691 0.800918 0
M  V30 14491 N 1424.89 -0.604284 -1.45555 0
M  V30 14492 C 1426.13 -0.101149 -2.0415 0
M  V30 14493 C 1426.49 1.24348 -1.46292 0
M  V30 14494 O 1427.69 1.83714 -1.9622 0
M  V30 14495 C 1425.96 -0.0589898 -3.57351 0
M  V30 14496 S 1427.52 0.383434 -4.37122 0
M  V30 14497 H 1424.34 -0.0479603 -0.709381 0
M  V30 14498 H 1426.94 -0.801643 -1.78309 0
M  V30 14499 H 1425.65 -1.04119 -3.96973 0
M  V30 14500 H 1425.18 0.663601 -3.87763 0
M  V30 14501 H 1427.19 1.63367 -4.68536 0
M  V30 14502 N 1426.37 1.53816 -0.343257 0
M  V30 14503 C 1427.33 2.23654 0.501161 0
M  V30 14504 C 1428.33 1.23664 1.02781 0
M  V30 14505 O 1429.52 1.48104 0.917103 0
M  V30 14506 C 1426.65 2.95596 1.69812 0
M  V30 14507 H 1427.84 2.997 -0.109626 0
M  V30 14508 H 1425.4 1.56013 -0.0946011 0
M  V30 14509 H 1426.13 2.23736 2.34761 0
M  V30 14510 H 1425.92 3.68938 1.32768 0
M  V30 14511 H 1427.41 3.48748 2.29706 0
M  V30 14512 N 1427.84 0.0718701 1.57436 0
M  V30 14513 C 1428.81 -0.880671 2.11605 0
M  V30 14514 C 1429.81 -1.22632 1.0401 0
M  V30 14515 O 1431 -1.15958 1.29997 0
M  V30 14516 C 1428.13 -2.18407 2.61746 0
M  V30 14517 H 1429.32 -0.410712 2.97074 0
M  V30 14518 H 1426.88 -0.176836 1.55296 0
M  V30 14519 H 1427.61 -2.6994 1.79731 0
M  V30 14520 H 1427.4 -1.94616 3.40392 0
M  V30 14521 H 1428.89 -2.86596 3.03731 0
M  V30 14522 N 1429.32 -1.56304 -0.201686 0
M  V30 14523 C 1430.55 -1.84341 -0.939465 0
M  V30 14524 C 1430.97 -0.653544 -1.77128 0
M  V30 14525 O 1430.32 0.377813 -1.78546 0
M  V30 14526 C 1430.37 -3.11111 -1.84098 0
M  V30 14527 O 1430.09 -4.25509 -1.04276 0
M  V30 14528 C 1431.6 -3.52279 -2.69099 0
M  V30 14529 H 1428.82 -0.61232 -0.274419 0
M  V30 14530 H 1431.36 -2.03409 -0.210924 0
M  V30 14531 H 1429.51 -2.9396 -2.52322 0
M  V30 14532 H 1429.93 -4.97655 -1.6565 0
M  V30 14533 H 1431.4 -4.43965 -3.28023 0
M  V30 14534 H 1431.88 -2.74959 -3.42482 0
M  V30 14535 H 1432.49 -3.71939 -2.06256 0
M  V30 14536 N 1430.8 0.469154 -1.50455 0
M  V30 14537 C 1432.03 1.24432 -1.653 0
M  V30 14538 C 1432.44 1.85766 -0.33713 0
M  V30 14539 O 1431.8 1.69313 0.681118 0
M  V30 14540 C 1431.85 2.35163 -2.74555 0
M  V30 14541 O 1431.57 1.76344 -4.01042 0
M  V30 14542 C 1433.07 3.26006 -3.00391 0
M  V30 14543 H 1430.29 0.376251 -0.555587 0
M  V30 14544 H 1432.84 0.559777 -1.96689 0
M  V30 14545 H 1430.99 2.99389 -2.45855 0
M  V30 14546 H 1431.41 2.49278 -4.61477 0
M  V30 14547 H 1432.88 3.99909 -3.80496 0
M  V30 14548 H 1433.36 3.84901 -2.11537 0
M  V30 14549 H 1433.96 2.67515 -3.3063 0
M  V30 14550 N 1432.28 1.40065 0.722464 0
M  V30 14551 C 1433.5 1.4146 1.5167 0
M  V30 14552 C 1433.93 0.0142653 1.88095 0
M  V30 14553 O 1433.29 -0.975934 1.52791 0
M  V30 14554 C 1433.33 2.30531 2.77287 0
M  V30 14555 O 1432.44 1.74382 3.73717 0
M  V30 14556 H 1431.78 0.481194 0.457546 0
M  V30 14557 H 1434.31 1.84213 0.890331 0
M  V30 14558 H 1434.32 2.45479 3.25889 0
M  V30 14559 H 1432.99 3.32292 2.50109 0
M  V30 14560 H 1431.57 1.68743 3.32536 0
M  V30 14561 N 1433.76 -0.95397 1.25448 0
M  V30 14562 C 1434.72 -2.03231 1.0597 0
M  V30 14563 C 1435.72 -1.60795 0.0122855 0
M  V30 14564 O 1436.91 -1.7233 0.254533 0
M  V30 14565 C 1434.04 -3.35414 0.609105 0
M  V30 14566 H 1435.24 -2.21943 2.01696 0
M  V30 14567 H 1432.79 -1.13115 1.07864 0
M  V30 14568 H 1433.52 -3.22398 -0.350723 0
M  V30 14569 H 1433.31 -3.67564 1.36526 0
M  V30 14570 H 1434.8 -4.14664 0.49428 0
M  V30 14571 N 1435.24 -1.07045 -1.15668 0
M  V30 14572 C 1436.17 -0.632171 -2.19269 0
M  V30 14573 C 1437.15 0.348973 -1.58811 0
M  V30 14574 O 1438.33 0.256137 -1.86752 0
M  V30 14575 C 1435.46 0.0721491 -3.38623 0
M  V30 14576 C 1434.5 -0.866947 -4.17596 0
M  V30 14577 S 1435.34 -2.36628 -4.80382 0
M  V30 14578 C 1436.49 -1.67367 -6.03108 0
M  V30 14579 H 1436.73 -1.50986 -2.56106 0
M  V30 14580 H 1434.26 -0.884123 -1.2658 0
M  V30 14581 H 1436.22 0.472272 -4.07774 0
M  V30 14582 H 1434.88 0.926138 -3.00136 0
M  V30 14583 H 1434.07 -0.320814 -5.02978 0
M  V30 14584 H 1433.67 -1.20731 -3.53977 0
M  V30 14585 H 1435.96 -0.983606 -6.70322 0
M  V30 14586 H 1436.91 -2.50569 -6.62284 0
M  V30 14587 H 1437.32 -1.15299 -5.526 0
M  V30 14588 N 1436.71 1.32449 -0.85411 0
M  V30 14589 C 1437.66 2.30821 -0.287115 0
M  V30 14590 C 1438.66 1.58823 0.58921 0
M  V30 14591 O 1439.86 1.73563 0.477075 0
M  V30 14592 H 1436.24 0.748336 -0.0741416 0
M  V30 14593 H 1438.21 2.76134 -1.13104 0
M  V30 14594 C 1436.96 3.43937 0.51013 0
M  V30 14595 H 1436.28 3.995 -0.154895 0
M  V30 14596 H 1437.72 4.14927 0.872451 0
M  V30 14597 C 1436.18 2.91147 1.69513 0
M  V30 14598 O 1436.71 2.88595 2.7942 0
M  V30 14599 N 1434.91 2.47554 1.52202 0
M  V30 14600 H 1434.46 2.49829 0.627941 0
M  V30 14601 H 1434.42 2.12587 2.31633 0
M  V30 14602 N 1438.19 0.611994 1.45232 0
M  V30 14603 C 1439.61 0.276005 1.57195 0
M  V30 14604 C 1439.81 -1.22136 1.60266 0
M  V30 14605 O 1438.86 -2.00459 1.53533 0
M  V30 14606 C 1440.18 0.951064 2.85263 0
M  V30 14607 C 1441.72 0.927398 2.98945 0
M  V30 14608 C 1442.2 1.58255 4.2979 0
M  V30 14609 N 1443.69 1.54825 4.36559 0
M  V30 14610 C 1444.43 2.02428 5.3648 0
M  V30 14611 N 1443.92 2.58137 6.42913 0
M  V30 14612 N 1445.71 1.9317 5.27865 0
M  V30 14613 H 1437.87 1.58418 1.41483 0
M  V30 14614 H 1440.13 0.663879 0.676734 0
M  V30 14615 H 1439.83 2.00557 2.88912 0
M  V30 14616 H 1439.71 0.477044 3.74171 0
M  V30 14617 H 1442.1 -0.118571 2.94862 0
M  V30 14618 H 1442.18 1.43973 2.11437 0
M  V30 14619 H 1441.82 2.62787 4.34632 0
M  V30 14620 H 1441.75 1.04521 5.16123 0
M  V30 14621 H 1444.24 1.14133 3.60253 0
M  V30 14622 H 1444.55 2.92243 7.15412 0
M  V30 14623 H 1442.9 2.62179 6.43652 0
M  V30 14624 H 1446.09 1.49384 4.43624 0
M  V30 14625 H 1446.26 2.30582 6.05587 0
M  V30 14626 N 1439.67 -1.53632 0.351409 0
M  V30 14627 C 1441.08 -1.86241 -0.130834 0
M  V30 14628 C 1441.43 -1.27243 -1.49344 0
M  V30 14629 O 1440.56 -0.589006 -2.0823 0
M  V30 14630 C 1441.15 -3.37919 -0.244179 0
M  V30 14631 C 1439.71 -3.70377 -0.670662 0
M  V30 14632 C 1438.86 -2.76643 0.190813 0
M  V30 14633 H 1441.81 -1.48083 0.570724 0
M  V30 14634 H 1441.83 -3.65137 -1.07029 0
M  V30 14635 H 1441.34 -3.8083 0.747688 0
M  V30 14636 H 1439.44 -3.33015 -1.67127 0
M  V30 14637 H 1439.56 -4.76934 -0.455102 0
M  V30 14638 H 1437.92 -2.52446 -0.338092 0
M  V30 14639 H 1438.7 -3.22385 1.17996 0
M  V30 14640 N 1441.15 -0.0802183 -1.57396 0
M  V30 14641 C 1442.39 0.587831 -1.94094 0
M  V30 14642 C 1442.73 1.6875 -0.961093 0
M  V30 14643 O 1442 1.94498 0.00832799 0
M  V30 14644 C 1442.28 1.15692 -3.41009 0
M  V30 14645 C 1442.14 0.0633211 -4.49755 0
M  V30 14646 C 1443.46 2.05987 -3.88918 0
M  V30 14647 H 1440.58 0.212214 -0.705786 0
M  V30 14648 H 1443.22 -0.147902 -1.89423 0
M  V30 14649 H 1441.37 1.78394 -3.4512 0
M  V30 14650 H 1443.04 -0.57019 -4.57763 0
M  V30 14651 H 1441.28 -0.605003 -4.2956 0
M  V30 14652 H 1441.95 0.502056 -5.49712 0
M  V30 14653 H 1444.43 1.5321 -3.86867 0
M  V30 14654 H 1443.31 2.42737 -4.92311 0
M  V30 14655 H 1443.57 2.97147 -3.27347 0
M  V30 14656 N 1442.63 1.56409 0.193394 0
M  V30 14657 C 1443.56 1.91211 1.26377 0
M  V30 14658 C 1444.57 0.802944 1.41622 0
M  V30 14659 O 1445.76 1.08136 1.42017 0
M  V30 14660 C 1442.86 2.13039 2.63567 0
M  V30 14661 C 1442.03 3.44192 2.69909 0
M  V30 14662 C 1441.09 3.55111 3.88307 0
M  V30 14663 O 1440.12 4.2792 3.75331 0
M  V30 14664 N 1441.32 2.88325 5.03834 0
M  V30 14665 H 1444.08 2.83624 0.968383 0
M  V30 14666 H 1441.65 1.57297 0.383302 0
M  V30 14667 H 1443.64 2.1763 3.41202 0
M  V30 14668 H 1442.21 1.27116 2.85588 0
M  V30 14669 H 1441.43 3.51452 1.78535 0
M  V30 14670 H 1442.72 4.30536 2.71139 0
M  V30 14671 H 1442.11 2.29003 5.17276 0
M  V30 14672 H 1440.67 2.98542 5.7941 0
M  V30 14673 N 1444.1 -0.461169 1.50702 0
M  V30 14674 C 1445.35 -1.21012 1.61866 0
M  V30 14675 C 1445.67 -1.9226 0.325736 0
M  V30 14676 O 1444.94 -1.84543 -0.657306 0
M  V30 14677 H 1443.52 -0.449671 0.596494 0
M  V30 14678 H 1446.18 -0.531056 1.87525 0
M  V30 14679 H 1445.28 -1.95266 2.4347 0
M  V30 14680 N 1445.58 -1.40446 -0.715026 0
M  V30 14681 C 1446.83 -1.3848 -1.47199 0
M  V30 14682 C 1447.15 0.0119198 -1.94996 0
M  V30 14683 O 1446.42 0.966772 -1.70383 0
M  V30 14684 H 1445 -0.509669 -0.54612 0
M  V30 14685 H 1447.66 -1.75505 -0.847588 0
M  V30 14686 H 1446.76 -2.06002 -2.34456 0
M  V30 14687 N 1447.06 0.947303 -1.25952 0
M  V30 14688 C 1447.99 2.04485 -1.01297 0
M  V30 14689 C 1448.97 1.62488 0.06024 0
M  V30 14690 O 1450.15 1.88326 -0.0809237 0
M  V30 14691 C 1447.28 3.34484 -0.532733 0
M  V30 14692 C 1446.33 3.95449 -1.59758 0
M  V30 14693 S 1447.16 4.30498 -3.18484 0
M  V30 14694 C 1448.32 5.63605 -2.72213 0
M  V30 14695 H 1448.55 2.25084 -1.94228 0
M  V30 14696 H 1446.08 1.0879 -1.09564 0
M  V30 14697 H 1448.04 4.09661 -0.262309 0
M  V30 14698 H 1446.7 3.11839 0.376192 0
M  V30 14699 H 1445.89 4.892 -1.21243 0
M  V30 14700 H 1445.5 3.26781 -1.81907 0
M  V30 14701 H 1447.79 6.42046 -2.16295 0
M  V30 14702 H 1448.73 6.07 -3.64633 0
M  V30 14703 H 1449.14 5.2319 -2.11974 0
M  V30 14704 N 1448.54 1.07657 1.15099 0
M  V30 14705 C 1449.79 0.796589 1.85303 0
M  V30 14706 C 1450.1 -0.679887 1.83404 0
M  V30 14707 O 1451.31 -1.07475 2.49322 0
M  V30 14708 C 1449.76 1.37495 3.326 0
M  V30 14709 C 1449.37 2.88267 3.42938 0
M  V30 14710 C 1451.11 1.17313 4.07968 0
M  V30 14711 C 1449.02 3.39278 4.84401 0
M  V30 14712 H 1447.95 0.294316 0.694186 0
M  V30 14713 H 1450.6 1.29702 1.29806 0
M  V30 14714 H 1448.98 0.802248 3.87789 0
M  V30 14715 H 1450.16 3.51608 2.9784 0
M  V30 14716 H 1448.47 3.07275 2.81018 0
M  V30 14717 H 1451.07 1.52899 5.12373 0
M  V30 14718 H 1451.41 0.112387 4.16148 0
M  V30 14719 H 1451.95 1.71236 3.59059 0
M  V30 14720 H 1448.69 4.44892 4.81406 0
M  V30 14721 H 1448.21 2.80692 5.30068 0
M  V30 14722 H 1449.88 3.35416 5.53267 0
M  V30 14723 N 1450.02 -1.31994 0.861122 0
M  V30 14724 C 1451.43 -1.49756 0.551844 0
M  V30 14725 C 1451.63 -1.79473 -0.916056 0
M  V30 14726 O 1450.69 -1.86813 -1.69874 0
M  V30 14727 C 1452 -2.63737 1.44442 0
M  V30 14728 C 1453.55 -2.77621 1.44552 0
M  V30 14729 C 1454.02 -3.94689 2.32346 0
M  V30 14730 N 1455.52 -4.01961 2.30177 0
M  V30 14731 C 1456.25 -4.91794 2.94833 0
M  V30 14732 N 1455.75 -5.86589 3.68626 0
M  V30 14733 N 1457.54 -4.84968 2.84188 0
M  V30 14734 H 1449.69 -1.10972 1.81105 0
M  V30 14735 H 1451.95 -0.54753 0.773896 0
M  V30 14736 H 1451.66 -2.48526 2.48853 0
M  V30 14737 H 1451.53 -3.59671 1.13651 0
M  V30 14738 H 1453.92 -2.92251 0.409034 0
M  V30 14739 H 1454 -1.8238 1.79363 0
M  V30 14740 H 1453.65 -3.80817 3.36067 0
M  V30 14741 H 1453.58 -4.89219 1.94865 0
M  V30 14742 H 1456.07 -3.34132 1.76533 0
M  V30 14743 H 1456.38 -6.51846 4.15111 0
M  V30 14744 H 1454.72 -5.86596 3.72734 0
M  V30 14745 H 1457.92 -4.09883 2.26084 0
M  V30 14746 H 1458.09 -5.54774 3.34857 0
M  V30 14747 N 1451.49 -0.619688 -1.44906 0
M  V30 14748 C 1452.44 0.104373 -2.32366 0
M  V30 14749 C 1453.44 0.847423 -1.4668 0
M  V30 14750 O 1454.64 0.761618 -1.63093 0
M  V30 14751 H 1451.02 0.0525126 -0.750164 0
M  V30 14752 H 1452.99 -0.651525 -2.912 0
M  V30 14753 C 1451.74 1.08017 -3.30496 0
M  V30 14754 H 1451.06 0.517831 -3.96432 0
M  V30 14755 H 1452.5 1.5565 -3.94397 0
M  V30 14756 C 1450.96 2.15975 -2.58566 0
M  V30 14757 O 1451.49 3.23895 -2.37603 0
M  V30 14758 N 1449.7 1.91593 -2.18496 0
M  V30 14759 H 1449.24 1.03835 -2.35746 0
M  V30 14760 H 1449.2 2.64028 -1.70694 0
M  V30 14761 N 1452.97 1.53444 -0.359552 0
M  V30 14762 C 1454.38 1.86308 0.120955 0
M  V30 14763 C 1454.73 1.28033 1.48667 0
M  V30 14764 O 1453.86 0.600041 2.07915 0
M  V30 14765 C 1454.45 3.38044 0.226255 0
M  V30 14766 C 1453.01 3.70727 0.65101 0
M  V30 14767 C 1452.16 2.76538 -0.205482 0
M  V30 14768 H 1455.11 1.47778 -0.578569 0
M  V30 14769 H 1455.13 3.65699 1.05092 0
M  V30 14770 H 1454.64 3.80428 -0.767874 0
M  V30 14771 H 1452.75 3.33897 1.65359 0
M  V30 14772 H 1452.86 4.77168 0.429802 0
M  V30 14773 H 1451.22 2.52622 0.3247 0
M  V30 14774 H 1452.01 3.21754 -1.19704 0
M  V30 14775 N 1454.45 0.0885642 1.57351 0
M  V30 14776 C 1455.41 -0.858178 2.12528 0
M  V30 14777 C 1456.41 -1.21522 1.05304 0
M  V30 14778 O 1457.6 -1.14573 1.3122 0
M  V30 14779 C 1454.74 -2.15619 2.64048 0
M  V30 14780 H 1455.93 -0.37918 2.97493 0
M  V30 14781 H 1453.48 -0.160354 1.55475 0
M  V30 14782 H 1454.22 -2.68018 1.82584 0
M  V30 14783 H 1454 -1.90995 3.42437 0
M  V30 14784 H 1455.49 -2.83359 3.06753 0
M  V30 14785 N 1455.93 -1.56509 -0.185096 0
M  V30 14786 C 1456.89 -1.94468 -1.21305 0
M  V30 14787 C 1457.89 -0.826838 -1.37913 0
M  V30 14788 O 1459.08 -1.09411 -1.35554 0
M  V30 14789 C 1456.21 -2.22747 -2.58063 0
M  V30 14790 H 1457.41 -2.86442 -0.888323 0
M  V30 14791 H 1454.96 -1.50354 -0.427012 0
M  V30 14792 H 1455.69 -1.33443 -2.95573 0
M  V30 14793 H 1455.48 -3.04215 -2.47378 0
M  V30 14794 H 1456.97 -2.53084 -3.32172 0
M  V30 14795 N 1457.41 0.45317 -1.50944 0
M  V30 14796 C 1458.63 1.23136 -1.6689 0
M  V30 14797 C 1459.06 1.84639 -0.359185 0
M  V30 14798 O 1458.41 1.68106 0.678983 0
M  V30 14799 C 1458.46 2.30275 -2.77499 0
M  V30 14800 O 1457.57 3.35371 -2.39999 0
M  V30 14801 H 1456.91 0.361475 -0.556984 0
M  V30 14802 H 1459.44 0.537174 -1.97422 0
M  V30 14803 H 1459.45 2.75309 -3.01113 0
M  V30 14804 H 1458.12 1.84885 -3.72546 0
M  V30 14805 H 1456.7 2.95924 -2.26899 0
M  V30 14806 N 1458.88 1.40823 0.707568 0
M  V30 14807 C 1460.13 1.38837 1.46312 0
M  V30 14808 C 1460.45 -0.00353939 1.956 0
M  V30 14809 O 1461.65 -0.146022 2.71107 0
M  V30 14810 C 1460.11 2.44052 2.64512 0
M  V30 14811 C 1459.72 3.89093 2.2206 0
M  V30 14812 C 1461.46 2.51185 3.42208 0
M  V30 14813 C 1459.37 4.85887 3.37147 0
M  V30 14814 H 1458.3 0.516263 0.549535 0
M  V30 14815 H 1460.95 1.66595 0.769302 0
M  V30 14816 H 1459.33 2.09406 3.36103 0
M  V30 14817 H 1460.5 4.32925 1.57837 0
M  V30 14818 H 1458.82 3.8551 1.57388 0
M  V30 14819 H 1461.42 3.20687 4.2786 0
M  V30 14820 H 1461.76 1.54488 3.86574 0
M  V30 14821 H 1462.29 2.84862 2.77666 0
M  V30 14822 H 1459.03 5.83946 2.97805 0
M  V30 14823 H 1458.55 4.46713 4.00259 0
M  V30 14824 H 1460.23 5.06084 4.03098 0
M  V30 14825 N 1460.36 -0.94061 1.26453 0
M  V30 14826 C 1461.77 -1.50169 1.10934 0
M  V30 14827 C 1462.12 -1.93733 -0.310167 0
M  V30 14828 O 1461.25 -1.79966 -1.20172 0
M  V30 14829 C 1461.84 -2.7291 2.00763 0
M  V30 14830 C 1460.4 -3.25283 1.89388 0
M  V30 14831 C 1459.55 -1.98061 1.9408 0
M  V30 14832 H 1462.5 -0.756038 1.39534 0
M  V30 14833 H 1462.52 -3.47237 1.55586 0
M  V30 14834 H 1462.03 -2.41172 3.04069 0
M  V30 14835 H 1460.14 -3.6181 0.890192 0
M  V30 14836 H 1460.25 -3.92351 2.7495 0
M  V30 14837 H 1458.61 -2.13985 1.3814 0
M  V30 14838 H 1459.4 -1.68654 2.99016 0
M  V30 14839 N 1461.84 -1.08266 -1.14527 0
M  V30 14840 C 1462.77 -0.655392 -2.18586 0
M  V30 14841 C 1463.75 0.332109 -1.59172 0
M  V30 14842 O 1464.94 0.236315 -1.87013 0
M  V30 14843 C 1462.06 0.0362295 -3.38681 0
M  V30 14844 C 1461.11 -0.91119 -4.16653 0
M  V30 14845 S 1461.94 -2.4171 -4.77846 0
M  V30 14846 C 1463.1 -1.73755 -6.01299 0
M  V30 14847 H 1463.33 -1.53694 -2.54491 0
M  V30 14848 H 1460.86 -0.897499 -1.25636 0
M  V30 14849 H 1462.82 0.428996 -4.08252 0
M  V30 14850 H 1461.48 0.894253 -3.01101 0
M  V30 14851 H 1460.68 -0.374143 -5.02609 0
M  V30 14852 H 1460.28 -1.24478 -3.52677 0
M  V30 14853 H 1462.57 -1.05465 -6.69241 0
M  V30 14854 H 1463.51 -2.5758 -6.59589 0
M  V30 14855 H 1463.92 -1.21153 -5.51346 0
M  V30 14856 N 1463.32 1.31536 -0.86811 0
M  V30 14857 C 1464.74 1.49461 -0.559778 0
M  V30 14858 C 1464.94 1.79957 0.906525 0
M  V30 14859 O 1463.99 1.87711 1.68881 0
M  V30 14860 C 1465.3 2.62967 -1.45839 0
M  V30 14861 C 1466.85 2.76851 -1.46023 0
M  V30 14862 C 1467.33 3.93451 -2.34436 0
M  V30 14863 N 1468.82 4.00735 -2.32306 0
M  V30 14864 C 1469.55 4.90223 -2.97437 0
M  V30 14865 N 1469.05 5.84626 -3.71731 0
M  V30 14866 N 1470.84 4.83454 -2.86755 0
M  V30 14867 H 1462.99 1.1001 -1.81691 0
M  V30 14868 H 1465.26 0.543418 -0.776789 0
M  V30 14869 H 1464.96 2.47203 -2.50168 0
M  V30 14870 H 1464.84 3.59063 -1.15556 0
M  V30 14871 H 1467.22 2.9203 -0.424527 0
M  V30 14872 H 1467.3 1.81427 -1.80327 0
M  V30 14873 H 1466.95 3.79029 -3.38082 0
M  V30 14874 H 1466.88 4.88179 -1.97457 0
M  V30 14875 H 1469.37 3.33191 -1.78303 0
M  V30 14876 H 1469.68 6.49635 -4.18562 0
M  V30 14877 H 1468.03 5.84611 -3.75839 0
M  V30 14878 H 1471.22 4.08678 -2.28254 0
M  V30 14879 H 1471.39 5.52991 -3.37795 0
M  V30 14880 N 1464.8 0.627364 1.44575 0
M  V30 14881 C 1466.21 0.213149 1.85479 0
M  V30 14882 C 1466.56 -1.23458 1.52488 0
M  V30 14883 O 1465.68 -1.93885 0.961115 0
M  V30 14884 C 1466.28 0.380063 3.36661 0
M  V30 14885 C 1464.84 0.020385 3.76394 0
M  V30 14886 C 1463.99 0.695225 2.68444 0
M  V30 14887 H 1466.94 0.832771 1.35095 0
M  V30 14888 H 1466.96 -0.382078 3.78577 0
M  V30 14889 H 1466.47 1.43383 3.60642 0
M  V30 14890 H 1464.57 -1.03179 3.58029 0
M  V30 14891 H 1464.68 0.42782 4.77186 0
M  V30 14892 H 1463.05 0.130898 2.54363 0
M  V30 14893 H 1463.83 1.75151 2.95257 0
M  V30 14894 N 1466.28 -1.53251 0.367684 0
M  V30 14895 C 1467.5 -2.0618 -0.224645 0
M  V30 14896 C 1467.93 -1.23927 -1.41505 0
M  V30 14897 O 1467.28 -0.258858 -1.79443 0
M  V30 14898 C 1467.33 -3.55671 -0.594171 0
M  V30 14899 O 1466.44 -3.76132 -1.69112 0
M  V30 14900 H 1465.78 -0.663218 -0.0322099 0
M  V30 14901 H 1468.31 -1.97646 0.528897 0
M  V30 14902 H 1468.32 -3.98734 -0.864589 0
M  V30 14903 H 1466.99 -4.14982 0.276254 0
M  V30 14904 H 1465.57 -3.44965 -1.41609 0
M  V30 14905 N 1467.75 -0.0969077 -1.57302 0
M  V30 14906 C 1468.98 0.578086 -1.99181 0
M  V30 14907 C 1469.4 1.60818 -0.975667 0
M  V30 14908 O 1468.76 1.81215 0.0556054 0
M  V30 14909 C 1468.81 1.20076 -3.40021 0
M  V30 14910 O 1467.91 2.31656 -3.41188 0
M  V30 14911 H 1467.25 0.146506 -0.647636 0
M  V30 14912 H 1469.78 -0.178855 -2.03817 0
M  V30 14913 H 1469.79 1.54162 -3.77754 0
M  V30 14914 H 1468.47 0.446114 -4.135 0
M  V30 14915 H 1467.05 1.99175 -3.15252 0
M  V30 14916 N 1469.23 1.56605 0.176793 0
M  V30 14917 C 1470.16 1.9254 1.24342 0
M  V30 14918 C 1471.18 0.81792 1.40762 0
M  V30 14919 O 1472.37 1.09636 1.40862 0
M  V30 14920 C 1469.47 2.15822 2.61293 0
M  V30 14921 C 1468.64 3.47035 2.66243 0
M  V30 14922 C 1467.7 3.5921 3.84519 0
M  V30 14923 O 1466.72 4.31876 3.70771 0
M  V30 14924 N 1467.93 2.93653 5.00748 0
M  V30 14925 H 1470.69 2.84635 0.938246 0
M  V30 14926 H 1468.25 1.57695 0.366597 0
M  V30 14927 H 1470.24 2.21237 3.38875 0
M  V30 14928 H 1468.81 1.30138 2.84223 0
M  V30 14929 H 1468.03 3.53326 1.74798 0
M  V30 14930 H 1469.32 4.33388 2.66557 0
M  V30 14931 H 1468.72 2.34476 5.14818 0
M  V30 14932 H 1467.28 3.04671 5.76211 0
M  V30 14933 N 1470.71 -0.445159 1.51182 0
M  V30 14934 C 1472.12 -1.02528 1.56028 0
M  V30 14935 C 1472.47 -1.92503 0.379087 0
M  V30 14936 O 1471.6 -2.10424 -0.505056 0
M  V30 14937 C 1472.19 -1.86621 2.82768 0
M  V30 14938 C 1470.75 -2.39697 2.90211 0
M  V30 14939 C 1469.9 -1.18705 2.50608 0
M  V30 14940 H 1472.85 -0.226732 1.57072 0
M  V30 14941 H 1472.87 -2.71987 2.66089 0
M  V30 14942 H 1472.38 -1.2111 3.68719 0
M  V30 14943 H 1470.48 -3.08686 2.08672 0
M  V30 14944 H 1470.6 -2.73029 3.9369 0
M  V30 14945 H 1468.96 -1.52995 2.03629 0
M  V30 14946 H 1469.74 -0.548156 3.38895 0
M  V30 14947 N 1472.19 -1.41197 -0.700089 0
M  V30 14948 C 1473.44 -1.40034 -1.45722 0
M  V30 14949 C 1473.76 -0.00876281 -1.94998 0
M  V30 14950 O 1473.03 0.948647 -1.71399 0
M  V30 14951 H 1471.61 -0.515433 -0.540683 0
M  V30 14952 H 1474.27 -1.76394 -0.828926 0
M  V30 14953 H 1473.36 -2.08477 -2.32258 0
M  V30 14954 N 1473.67 0.933891 -1.2695 0
M  V30 14955 C 1474.6 2.03768 -1.04934 0
M  V30 14956 C 1475.61 1.62798 -0.00740752 0
M  V30 14957 O 1476.8 1.76765 -0.248289 0
M  V30 14958 C 1473.9 3.34097 -0.568515 0
M  V30 14959 C 1473.07 4.03794 -1.68133 0
M  V30 14960 C 1472.13 5.12397 -1.19731 0
M  V30 14961 O 1471.16 5.36701 -1.89579 0
M  V30 14962 N 1472.36 5.80479 -0.0496327 0
M  V30 14963 H 1475.12 2.23219 -1.99984 0
M  V30 14964 H 1472.69 1.10386 -1.18433 0
M  V30 14965 H 1474.68 4.04053 -0.228736 0
M  V30 14966 H 1473.25 3.11265 0.288587 0
M  V30 14967 H 1472.47 3.27655 -2.1917 0
M  V30 14968 H 1473.76 4.4711 -2.42837 0
M  V30 14969 H 1473.15 5.63179 0.533509 0
M  V30 14970 H 1471.71 6.5139 0.231014 0
M  V30 14971 N 1475.14 1.08871 1.13951 0
M  V30 14972 C 1476.56 0.817282 1.37086 0
M  V30 14973 C 1476.76 -0.571159 1.93236 0
M  V30 14974 O 1475.82 -1.32708 2.14813 0
M  V30 14975 C 1477.13 1.90386 2.32752 0
M  V30 14976 C 1478.68 1.93043 2.46381 0
M  V30 14977 C 1479.15 3.00828 3.4535 0
M  V30 14978 N 1480.64 3.0003 3.52897 0
M  V30 14979 C 1481.38 3.80073 4.29339 0
M  V30 14980 N 1480.87 4.70008 5.08984 0
M  V30 14981 N 1482.67 3.68355 4.24583 0
M  V30 14982 H 1474.82 1.98393 0.758537 0
M  V30 14983 H 1477.08 0.861229 0.396219 0
M  V30 14984 H 1476.79 2.90233 1.9864 0
M  V30 14985 H 1476.66 1.77722 3.32708 0
M  V30 14986 H 1479.05 0.938382 2.79783 0
M  V30 14987 H 1479.13 2.09785 1.4637 0
M  V30 14988 H 1478.77 4.00242 3.1268 0
M  V30 14989 H 1478.7 2.8133 4.45153 0
M  V30 14990 H 1481.19 2.3485 2.96064 0
M  V30 14991 H 1481.51 5.27678 5.64602 0
M  V30 14992 H 1479.85 4.74047 5.08236 0
M  V30 14993 H 1483.04 2.9746 3.61435 0
M  V30 14994 H 1483.22 4.30974 4.83906 0
M  V30 14995 N 1476.62 -1.31073 0.875073 0
M  V30 14996 C 1477.55 -2.27335 0.291809 0
M  V30 14997 C 1478.57 -1.53298 -0.548036 0
M  V30 14998 O 1479.76 -1.7464 -0.369198 0
M  V30 14999 C 1476.86 -3.33465 -0.604521 0
M  V30 15000 C 1476.03 -4.36924 0.204029 0
M  V30 15001 C 1475.09 -5.2252 -0.621238 0
M  V30 15002 O 1474.11 -5.6918 -0.0474551 0
M  V30 15003 N 1475.32 -5.47397 -1.93227 0
M  V30 15004 H 1478.08 -2.78024 1.11906 0
M  V30 15005 H 1475.64 -1.44149 0.737064 0
M  V30 15006 H 1477.63 -3.87646 -1.16243 0
M  V30 15007 H 1476.2 -2.8278 -1.33244 0
M  V30 15008 H 1475.42 -3.82745 0.943389 0
M  V30 15009 H 1476.71 -5.03112 0.758644 0
M  V30 15010 H 1476.11 -5.11253 -2.4215 0
M  V30 15011 H 1474.67 -6.04493 -2.43785 0
M  V30 15012 N 1478.1 -0.635022 -1.4424 0
M  V30 15013 C 1479.33 -0.14826 -2.06368 0
M  V30 15014 C 1479.74 1.17875 -1.47482 0
M  V30 15015 O 1479.1 1.72384 -0.599168 0
M  V30 15016 C 1479.15 -0.031519 -3.61486 0
M  V30 15017 O 1478.87 -1.30605 -4.18179 0
M  V30 15018 C 1480.37 0.483479 -4.40656 0
M  V30 15019 H 1477.59 -0.081472 -0.666036 0
M  V30 15020 H 1480.14 -0.870526 -1.85046 0
M  V30 15021 H 1478.29 0.641208 -3.82057 0
M  V30 15022 H 1478.71 -1.15341 -5.11661 0
M  V30 15023 H 1480.18 0.514164 -5.496 0
M  V30 15024 H 1480.66 1.51129 -4.12379 0
M  V30 15025 H 1481.26 -0.156131 -4.25013 0
M  V30 15026 N 1479.58 1.53054 -0.375806 0
M  V30 15027 C 1480.51 2.28973 0.45754 0
M  V30 15028 C 1481.49 1.31812 1.07516 0
M  V30 15029 O 1482.67 1.60693 1.09048 0
M  V30 15030 C 1479.8 3.08657 1.59212 0
M  V30 15031 C 1478.76 4.1359 1.10123 0
M  V30 15032 C 1478.08 4.81417 2.32684 0
M  V30 15033 C 1479.38 5.21994 0.17872 0
M  V30 15034 H 1481.08 2.98883 -0.175872 0
M  V30 15035 H 1478.62 1.43743 -0.0860253 0
M  V30 15036 H 1480.58 3.6052 2.18182 0
M  V30 15037 H 1479.3 2.36456 2.25291 0
M  V30 15038 H 1477.96 3.62688 0.534151 0
M  V30 15039 H 1477.61 4.05778 2.97243 0
M  V30 15040 H 1477.31 5.52332 2.00506 0
M  V30 15041 H 1478.83 5.36079 2.92322 0
M  V30 15042 H 1480.25 5.69298 0.676204 0
M  V30 15043 H 1478.64 6.00077 -0.0526605 0
M  V30 15044 H 1479.71 4.78646 -0.776246 0
M  V30 15045 N 1481.06 0.105248 1.57248 0
M  V30 15046 C 1481.99 -0.880221 2.11624 0
M  V30 15047 C 1483 -1.23924 1.05578 0
M  V30 15048 O 1484.19 -1.19059 1.32994 0
M  V30 15049 C 1481.29 -2.18628 2.5895 0
M  V30 15050 C 1480.46 -2.00105 3.88943 0
M  V30 15051 C 1479.52 -3.14315 4.2201 0
M  V30 15052 O 1478.55 -2.87832 4.91061 0
M  V30 15053 N 1479.75 -4.4037 3.78226 0
M  V30 15054 H 1482.52 -0.415742 2.96802 0
M  V30 15055 H 1480.08 -0.0795714 1.61704 0
M  V30 15056 H 1482.07 -2.94002 2.7811 0
M  V30 15057 H 1480.64 -2.56467 1.78727 0
M  V30 15058 H 1479.86 -1.09003 3.7883 0
M  V30 15059 H 1481.15 -1.85018 4.73968 0
M  V30 15060 H 1480.54 -4.64765 3.22506 0
M  V30 15061 H 1479.1 -5.1266 4.02521 0
M  V30 15062 N 1482.53 -1.56697 -0.168486 0
M  V30 15063 C 1483.76 -1.86652 -0.904195 0
M  V30 15064 C 1484.18 -0.691906 -1.74912 0
M  V30 15065 O 1483.54 0.358971 -1.77711 0
M  V30 15066 C 1483.59 -3.15043 -1.75442 0
M  V30 15067 O 1482.69 -2.97466 -2.85636 0
M  V30 15068 H 1482.04 -0.613859 -0.253128 0
M  V30 15069 H 1484.57 -2.03927 -0.165773 0
M  V30 15070 H 1484.58 -3.4652 -2.15378 0
M  V30 15071 H 1483.25 -4.00147 -1.13381 0
M  V30 15072 H 1481.83 -2.7735 -2.49262 0
M  V30 15073 N 1484.01 0.437135 -1.51416 0
M  V30 15074 C 1484.94 1.54894 -1.68939 0
M  V30 15075 C 1485.96 1.52493 -0.570059 0
M  V30 15076 O 1487.15 1.57266 -0.844381 0
M  V30 15077 C 1484.25 2.9381 -1.68904 0
M  V30 15078 C 1483.42 3.20714 -2.97425 0
M  V30 15079 C 1482.48 4.39355 -2.89575 0
M  V30 15080 O 1481.5 4.37999 -3.63519 0
M  V30 15081 N 1482.71 5.42931 -2.05441 0
M  V30 15082 H 1485.47 1.40267 -2.64849 0
M  V30 15083 H 1483.03 0.626075 -1.49305 0
M  V30 15084 H 1485.02 3.71201 -1.61221 0
M  V30 15085 H 1483.59 3.02034 -0.805871 0
M  V30 15086 H 1482.81 2.31621 -3.18975 0
M  V30 15087 H 1484.1 3.35516 -3.825 0
M  V30 15088 H 1483.5 5.4687 -1.44742 0
M  V30 15089 H 1482.06 6.19173 -2.03636 0
M  V30 15090 N 1485.49 1.41566 0.692592 0
M  V30 15091 C 1486.74 1.41292 1.4548 0
M  V30 15092 C 1487.07 0.0229093 1.94186 0
M  V30 15093 O 1486.34 -0.949849 1.6973 0
M  V30 15094 C 1486.63 2.42225 2.66457 0
M  V30 15095 C 1486.48 3.90345 2.23496 0
M  V30 15096 C 1487.8 2.40374 3.68658 0
M  V30 15097 H 1484.92 0.51453 0.527663 0
M  V30 15098 H 1487.56 1.72862 0.788598 0
M  V30 15099 H 1485.71 2.15435 3.23296 0
M  V30 15100 H 1487.38 4.2805 1.71962 0
M  V30 15101 H 1485.63 4.05068 1.55249 0
M  V30 15102 H 1486.3 4.56518 3.10314 0
M  V30 15103 H 1488.77 2.64156 3.21498 0
M  V30 15104 H 1487.65 3.13004 4.5091 0
M  V30 15105 H 1487.91 1.42338 4.1856 0
M  V30 15106 N 1486.97 -0.927146 1.27443 0
M  V30 15107 C 1487.9 -2.02847 1.04538 0
M  V30 15108 C 1488.88 -1.62564 -0.0343819 0
M  V30 15109 O 1490.06 -1.88174 0.110875 0
M  V30 15110 C 1487.19 -3.33594 0.58588 0
M  V30 15111 C 1486.24 -3.92857 1.66029 0
M  V30 15112 S 1487.07 -4.25376 3.25292 0
M  V30 15113 C 1488.23 -5.59203 2.81145 0
M  V30 15114 H 1488.46 -2.21965 1.97784 0
M  V30 15115 H 1485.99 -1.07033 1.11281 0
M  V30 15116 H 1487.95 -4.09192 0.32745 0
M  V30 15117 H 1486.61 -3.12398 -0.326534 0
M  V30 15118 H 1485.8 -4.87209 1.2901 0
M  V30 15119 H 1485.41 -3.23846 1.87082 0
M  V30 15120 H 1487.7 -6.38523 2.26482 0
M  V30 15121 H 1488.64 -6.01122 3.74243 0
M  V30 15122 H 1489.05 -5.19751 2.2027 0
M  V30 15123 N 1488.45 -1.09474 -1.13372 0
M  V30 15124 C 1489.39 -0.729274 -2.20872 0
M  V30 15125 C 1490.39 0.270036 -1.67234 0
M  V30 15126 O 1491.59 0.131445 -1.79519 0
M  V30 15127 H 1487.97 -0.217852 -0.719753 0
M  V30 15128 H 1489.94 -1.64505 -2.48959 0
M  V30 15129 C 1488.69 -0.166518 -3.47301 0
M  V30 15130 H 1488.01 -0.926666 -3.88913 0
M  V30 15131 H 1489.45 0.0512617 -4.23969 0
M  V30 15132 C 1487.91 1.09836 -3.18493 0
M  V30 15133 O 1488.44 2.18152 -3.37302 0
M  V30 15134 N 1486.65 1.01307 -2.7237 0
M  V30 15135 H 1486.19 0.131551 -2.57264 0
M  V30 15136 H 1486.15 1.86011 -2.5347 0
M  V30 15137 N 1489.92 1.30607 -0.882012 0
M  V30 15138 C 1491.17 1.95531 -0.495038 0
M  V30 15139 C 1491.49 1.70418 0.96005 0
M  V30 15140 O 1492.69 2.29301 1.45373 0
M  V30 15141 C 1491.15 3.50094 -0.834382 0
M  V30 15142 C 1490.76 3.84031 -2.30704 0
M  V30 15143 C 1492.5 4.21347 -0.516463 0
M  V30 15144 C 1490.41 5.31759 -2.58817 0
M  V30 15145 H 1489.34 0.731854 -0.181399 0
M  V30 15146 H 1491.99 1.486 -1.07658 0
M  V30 15147 H 1490.37 3.95582 -0.181961 0
M  V30 15148 H 1491.54 3.49463 -3.00353 0
M  V30 15149 H 1489.86 3.25874 -2.5922 0
M  V30 15150 H 1492.46 5.30051 -0.703576 0
M  V30 15151 H 1492.8 4.12731 0.543935 0
M  V30 15152 H 1493.33 3.81533 -1.12595 0
M  V30 15153 H 1490.07 5.45422 -3.63586 0
M  V30 15154 H 1489.59 5.67637 -1.93774 0
M  V30 15155 H 1491.27 5.9916 -2.44165 0
M  V30 15156 N 1491.4 0.642663 1.43901 0
M  V30 15157 C 1492.65 0.151478 2.01532 0
M  V30 15158 C 1492.97 -1.23519 1.50891 0
M  V30 15159 O 1492.24 -1.82299 0.717197 0
M  V30 15160 H 1490.82 0.0530091 0.745117 0
M  V30 15161 H 1493.48 0.831958 1.76251 0
M  V30 15162 H 1492.58 0.127995 3.11837 0
M  V30 15163 N 1492.88 -1.52852 0.383918 0
M  V30 15164 C 1494.29 -1.86477 -0.0912997 0
M  V30 15165 C 1494.64 -1.30382 -1.46611 0
M  V30 15166 O 1493.77 -0.633042 -2.06934 0
M  V30 15167 C 1494.36 -3.38361 -0.172447 0
M  V30 15168 C 1492.92 -3.71716 -0.591948 0
M  V30 15169 C 1492.07 -2.76176 0.24945 0
M  V30 15170 H 1495.02 -1.46839 0.602006 0
M  V30 15171 H 1495.04 -3.67325 -0.992603 0
M  V30 15172 H 1494.55 -3.79158 0.8283 0
M  V30 15173 H 1492.65 -3.36486 -1.60026 0
M  V30 15174 H 1492.77 -4.77792 -0.353835 0
M  V30 15175 H 1491.13 -2.53106 -0.284469 0
M  V30 15176 H 1491.91 -3.19809 1.24808 0
M  V30 15177 N 1494.36 -0.113586 -1.5719 0
M  V30 15178 C 1495.58 0.556928 -1.99783 0
M  V30 15179 C 1496.01 1.59774 -0.992669 0
M  V30 15180 O 1495.37 1.81263 0.0363821 0
M  V30 15181 C 1495.42 1.16463 -3.41275 0
M  V30 15182 O 1494.52 2.28024 -3.43626 0
M  V30 15183 H 1493.86 0.139628 -0.649153 0
M  V30 15184 H 1496.39 -0.200462 -2.03616 0
M  V30 15185 H 1496.4 1.50147 -3.79368 0
M  V30 15186 H 1495.08 0.402232 -4.1395 0
M  V30 15187 H 1493.65 1.9582 -3.17347 0
M  V30 15188 N 1495.84 1.56784 0.160173 0
M  V30 15189 C 1496.75 2.00514 1.21783 0
M  V30 15190 C 1497.76 0.918341 1.47792 0
M  V30 15191 O 1498.94 1.22683 1.59721 0
M  V30 15192 C 1496 2.36575 2.53443 0
M  V30 15193 C 1495.07 3.59138 2.35198 0
M  V30 15194 C 1494.3 3.93469 3.6058 0
M  V30 15195 O 1494.52 3.28625 4.6622 0
M  V30 15196 O 1493.46 4.86774 3.54027 0
M  V30 15197 H 1497.28 2.90774 0.876607 0
M  V30 15198 H 1494.87 1.44799 0.367897 0
M  V30 15199 H 1496.75 2.60687 3.31089 0
M  V30 15200 H 1495.42 1.49474 2.87122 0
M  V30 15201 H 1494.33 3.4023 1.55546 0
M  V30 15202 H 1495.66 4.46815 2.0644 0
M  V30 15203 N 1497.32 -0.429099 1.51646 0
M  V30 15204 C 1498.25 -1.52867 1.76505 0
M  V30 15205 C 1499.23 -1.58586 0.615178 0
M  V30 15206 O 1500.41 -1.74182 0.858742 0
M  V30 15207 C 1497.54 -2.90875 1.8976 0
M  V30 15208 C 1496.5 -3.00014 3.05247 0
M  V30 15209 C 1495.82 -4.40082 3.03696 0
M  V30 15210 C 1497.12 -2.73334 4.45068 0
M  V30 15211 H 1498.82 -1.32315 2.68576 0
M  V30 15212 H 1496.36 -0.635091 1.29238 0
M  V30 15213 H 1498.31 -3.67765 2.05734 0
M  V30 15214 H 1497.04 -3.12677 0.943442 0
M  V30 15215 H 1495.7 -2.25565 2.88991 0
M  V30 15216 H 1495.35 -4.58864 2.06042 0
M  V30 15217 H 1495.05 -4.47125 3.81252 0
M  V30 15218 H 1496.57 -5.18935 3.21774 0
M  V30 15219 H 1497.98 -3.39954 4.61632 0
M  V30 15220 H 1496.38 -2.91777 5.24391 0
M  V30 15221 H 1497.45 -1.68889 4.54538 0
M  V30 15222 N 1498.79 -1.41931 -0.685074 0
M  V30 15223 C 1499.7 -1.46985 -1.82846 0
M  V30 15224 C 1500.72 -0.359487 -1.70246 0
M  V30 15225 O 1501.9 -0.608824 -1.91977 0
M  V30 15226 C 1498.96 -1.36001 -3.18912 0
M  V30 15227 C 1498.02 -2.57442 -3.43543 0
M  V30 15228 C 1497.25 -2.46972 -4.73118 0
M  V30 15229 O 1497.48 -1.49999 -5.50324 0
M  V30 15230 O 1496.41 -3.36922 -4.98766 0
M  V30 15231 H 1500.24 -2.4347 -1.81538 0
M  V30 15232 H 1497.82 -1.23583 -0.839497 0
M  V30 15233 H 1499.7 -1.32198 -4.00127 0
M  V30 15234 H 1498.38 -0.426366 -3.2088 0
M  V30 15235 H 1497.29 -2.66821 -2.62217 0
M  V30 15236 H 1498.62 -3.49671 -3.46398 0
M  V30 15237 N 1500.27 0.920374 -1.27933 0
M  V30 15238 C 1501.2 2.0229 -1.05612 0
M  V30 15239 C 1502.18 1.6258 0.0257603 0
M  V30 15240 O 1503.37 1.88112 -0.120852 0
M  V30 15241 C 1500.49 3.33279 -0.603563 0
M  V30 15242 C 1499.54 3.91971 -1.6811 0
M  V30 15243 S 1500.37 4.23645 -3.27544 0
M  V30 15244 C 1501.53 5.57704 -2.84107 0
M  V30 15245 H 1501.76 2.20913 -1.98959 0
M  V30 15246 H 1499.29 1.06441 -1.11847 0
M  V30 15247 H 1501.25 4.09012 -0.349146 0
M  V30 15248 H 1499.91 3.12567 0.309962 0
M  V30 15249 H 1499.11 4.86518 -1.31592 0
M  V30 15250 H 1498.71 3.22849 -1.88797 0
M  V30 15251 H 1501 6.37313 -2.29866 0
M  V30 15252 H 1501.94 5.99129 -3.77426 0
M  V30 15253 H 1502.35 5.18576 -2.23024 0
M  V30 15254 N 1501.75 1.10074 1.1279 0
M  V30 15255 C 1502.7 0.740977 2.20482 0
M  V30 15256 C 1503.69 -0.261163 1.67375 0
M  V30 15257 O 1504.9 -0.121923 1.79587 0
M  V30 15258 H 1501.27 0.221666 0.718588 0
M  V30 15259 H 1503.24 1.65823 2.48083 0
M  V30 15260 C 1501.99 0.184934 3.47208 0
M  V30 15261 H 1501.32 0.947278 3.88416 0
M  V30 15262 H 1502.76 -0.0287769 4.2399 0
M  V30 15263 C 1501.21 -1.08145 3.19071 0
M  V30 15264 O 1501.74 -2.1636 3.38454 0
M  V30 15265 N 1499.95 -0.998609 2.72903 0
M  V30 15266 H 1499.5 -0.117906 2.5733 0
M  V30 15267 H 1499.46 -1.84664 2.54453 0
M  V30 15268 N 1503.23 -1.30138 0.888926 0
M  V30 15269 C 1504.16 -2.26177 0.303221 0
M  V30 15270 C 1505.14 -1.51962 -0.578471 0
M  V30 15271 O 1506.32 -1.80963 -0.527685 0
M  V30 15272 C 1503.45 -3.3389 -0.568783 0
M  V30 15273 C 1502.5 -4.25801 0.24412 0
M  V30 15274 S 1503.33 -5.09931 1.63496 0
M  V30 15275 C 1504.48 -6.21151 0.76959 0
M  V30 15276 H 1504.72 -2.75507 1.11728 0
M  V30 15277 H 1502.25 -1.38195 0.688594 0
M  V30 15278 H 1504.21 -3.96413 -1.06614 0
M  V30 15279 H 1502.87 -2.83276 -1.35697 0
M  V30 15280 H 1502.06 -5.02234 -0.42151 0
M  V30 15281 H 1501.66 -3.67872 0.67424 0
M  V30 15282 H 1503.96 -6.77499 -0.0117256 0
M  V30 15283 H 1504.9 -6.91907 1.50566 0
M  V30 15284 H 1505.31 -5.63542 0.328744 0
M  V30 15285 N 1504.71 -0.650285 -1.43559 0
M  V30 15286 C 1505.95 -0.162164 -2.01448 0
M  V30 15287 C 1506.27 1.22717 -1.51544 0
M  V30 15288 O 1505.54 1.81917 -0.726855 0
M  V30 15289 H 1504.12 -0.0569599 -0.744825 0
M  V30 15290 H 1506.79 -0.841294 -1.75807 0
M  V30 15291 H 1505.88 -0.144531 -3.11765 0
M  V30 15292 N 1506.18 1.52647 -0.392018 0
M  V30 15293 C 1507.43 2.01215 0.188926 0
M  V30 15294 C 1507.75 1.28019 1.47092 0
M  V30 15295 O 1507.02 0.401048 1.91751 0
M  V30 15296 H 1505.6 0.743444 0.0728049 0
M  V30 15297 H 1508.26 1.87715 -0.524332 0
M  V30 15298 H 1507.36 3.09562 0.397216 0
M  V30 15299 N 1507.66 0.121921 1.57128 0
M  V30 15300 C 1509.07 -0.402991 1.82299 0
M  V30 15301 C 1509.42 -1.66415 1.03925 0
M  V30 15302 O 1508.55 -2.14623 0.27674 0
M  V30 15303 C 1509.14 -0.737913 3.30666 0
M  V30 15304 C 1507.7 -1.20745 3.56508 0
M  V30 15305 C 1506.85 -0.217628 2.76445 0
M  V30 15306 H 1509.8 0.347009 1.5486 0
M  V30 15307 H 1509.82 -1.59505 3.45454 0
M  V30 15308 H 1509.33 0.180162 3.87682 0
M  V30 15309 H 1507.44 -2.14232 3.04853 0
M  V30 15310 H 1507.55 -1.15075 4.65075 0
M  V30 15311 H 1505.91 -0.705253 2.44741 0
M  V30 15312 H 1506.7 0.693596 3.3622 0
M  V30 15313 N 1509.14 -1.56867 -0.151857 0
M  V30 15314 C 1510.07 -1.94494 -1.21263 0
M  V30 15315 C 1511.09 -0.84021 -1.39443 0
M  V30 15316 O 1512.27 -1.11863 -1.391 0
M  V30 15317 C 1509.37 -2.19952 -2.57826 0
M  V30 15318 C 1508.55 -3.51227 -2.60689 0
M  V30 15319 C 1507.61 -3.65282 -3.78756 0
M  V30 15320 O 1506.63 -4.3772 -3.63854 0
M  V30 15321 N 1507.83 -3.01582 -4.96012 0
M  V30 15322 H 1510.6 -2.86092 -0.892845 0
M  V30 15323 H 1508.16 -1.58258 -0.341463 0
M  V30 15324 H 1510.15 -2.266 -3.35312 0
M  V30 15325 H 1508.72 -1.34643 -2.82117 0
M  V30 15326 H 1507.94 -3.56062 -1.69155 0
M  V30 15327 H 1509.23 -4.37574 -2.59628 0
M  V30 15328 H 1508.63 -2.42637 -5.11022 0
M  V30 15329 H 1507.19 -3.13799 -5.71291 0
M  V30 15330 N 1510.62 0.421051 -1.51871 0
M  V30 15331 C 1511.85 1.18938 -1.6893 0
M  V30 15332 C 1512.26 1.85069 -0.393198 0
M  V30 15333 O 1511.6 1.72204 0.639648 0
M  V30 15334 C 1511.66 2.30343 -2.76012 0
M  V30 15335 C 1511.33 1.84446 -4.18125 0
M  V30 15336 C 1512.32 1.33882 -5.02366 0
M  V30 15337 C 1510.01 1.91642 -4.64305 0
M  V30 15338 C 1512 0.911212 -6.30853 0
M  V30 15339 C 1509.69 1.48492 -5.92784 0
M  V30 15340 C 1510.69 0.98316 -6.75887 0
M  V30 15341 O 1510.37 0.557853 -8.01962 0
M  V30 15342 H 1510.11 0.363908 -0.56969 0
M  V30 15343 H 1512.66 0.503089 -1.99144 0
M  V30 15344 H 1510.89 3.02298 -2.41148 0
M  V30 15345 H 1512.58 2.92148 -2.81787 0
M  V30 15346 H 1513.35 1.27704 -4.67885 0
M  V30 15347 H 1509.22 2.29641 -3.99732 0
M  V30 15348 H 1512.77 0.518877 -6.95668 0
M  V30 15349 H 1508.67 1.54345 -6.26776 0
M  V30 15350 H 1509.43 0.682238 -8.15652 0
M  V30 15351 N 1512.1 1.42293 0.677538 0
M  V30 15352 C 1513.32 1.46214 1.47092 0
M  V30 15353 C 1513.75 0.0740989 1.87954 0
M  V30 15354 O 1513.1 -0.926831 1.55819 0
M  V30 15355 C 1513.15 2.39236 2.69812 0
M  V30 15356 O 1512.26 1.86183 3.6798 0
M  V30 15357 H 1511.6 0.495507 0.442006 0
M  V30 15358 H 1514.13 1.86952 0.831274 0
M  V30 15359 H 1514.14 2.55723 3.17915 0
M  V30 15360 H 1512.81 3.40081 2.39411 0
M  V30 15361 H 1511.39 1.79237 3.26999 0
M  V30 15362 N 1513.57 -0.913576 1.28419 0
M  V30 15363 C 1514.51 -2.02073 1.08163 0
M  V30 15364 C 1515.52 -1.62766 0.0333064 0
M  V30 15365 O 1516.71 -1.76347 0.27638 0
M  V30 15366 C 1513.81 -3.33151 0.621596 0
M  V30 15367 C 1512.98 -4.01068 1.74536 0
M  V30 15368 C 1512.04 -5.10428 1.27868 0
M  V30 15369 O 1511.07 -5.33617 1.98094 0
M  V30 15370 N 1512.27 -5.80326 0.141976 0
M  V30 15371 H 1515.03 -2.20009 2.0351 0
M  V30 15372 H 1512.59 -1.08488 1.20174 0
M  V30 15373 H 1514.59 -4.03638 0.292989 0
M  V30 15374 H 1513.16 -3.11685 -0.239031 0
M  V30 15375 H 1512.38 -3.24127 2.24355 0
M  V30 15376 H 1513.66 -4.4319 2.49919 0
M  V30 15377 H 1513.06 -5.63956 -0.443845 0
M  V30 15378 H 1511.62 -6.51676 -0.127354 0
M  V30 15379 N 1515.05 -1.1067 -1.12204 0
M  V30 15380 C 1515.98 -0.715581 -2.17743 0
M  V30 15381 C 1517 0.248892 -1.60886 0
M  V30 15382 O 1518.19 0.0329917 -1.7847 0
M  V30 15383 C 1515.29 -0.0356388 -3.38881 0
M  V30 15384 C 1514.46 -1.0249 -4.25223 0
M  V30 15385 C 1513.52 -0.375998 -5.24855 0
M  V30 15386 O 1512.54 -1.02753 -5.59849 0
M  V30 15387 N 1513.75 0.864525 -5.74026 0
M  V30 15388 H 1516.51 -1.62362 -2.5191 0
M  V30 15389 H 1514.07 -0.995851 -1.2765 0
M  V30 15390 H 1516.06 0.41 -4.02618 0
M  V30 15391 H 1514.63 0.77485 -3.02845 0
M  V30 15392 H 1513.85 -1.64874 -3.58065 0
M  V30 15393 H 1515.14 -1.69446 -4.79756 0
M  V30 15394 H 1514.54 1.41317 -5.47764 0
M  V30 15395 H 1513.1 1.25327 -6.39638 0
M  V30 15396 N 1516.53 1.29665 -0.895815 0
M  V30 15397 C 1517.46 2.26842 -0.327939 0
M  V30 15398 C 1518.48 1.54151 0.523578 0
M  V30 15399 O 1519.66 1.75205 0.341367 0
M  V30 15400 C 1516.76 3.34384 0.551393 0
M  V30 15401 C 1515.94 4.36544 -0.273514 0
M  V30 15402 C 1515 5.23442 0.538031 0
M  V30 15403 O 1514.02 5.69184 -0.0431025 0
M  V30 15404 N 1515.22 5.50402 1.84493 0
M  V30 15405 H 1517.99 2.76208 -1.16315 0
M  V30 15406 H 1515.55 1.42958 -0.759903 0
M  V30 15407 H 1517.54 3.89446 1.10062 0
M  V30 15408 H 1516.11 2.84864 1.28728 0
M  V30 15409 H 1515.33 3.81196 -1.00416 0
M  V30 15410 H 1516.62 5.01842 -0.838589 0
M  V30 15411 H 1516.02 5.15041 2.33985 0
M  V30 15412 H 1514.58 6.08295 2.34137 0
M  V30 15413 N 1518.01 0.657889 1.43212 0
M  V30 15414 C 1518.97 -0.0214783 2.2919 0
M  V30 15415 C 1519.97 -0.745921 1.42452 0
M  V30 15416 O 1521.16 -0.586468 1.64031 0
M  V30 15417 C 1518.29 -1.04115 3.24612 0
M  V30 15418 H 1519.49 0.735072 2.90752 0
M  V30 15419 H 1517.04 0.419354 1.50569 0
M  V30 15420 H 1517.77 -1.82677 2.67954 0
M  V30 15421 H 1517.56 -0.525285 3.88566 0
M  V30 15422 H 1519.05 -1.51544 3.89132 0
M  V30 15423 N 1519.49 -1.52437 0.400108 0
M  V30 15424 C 1520.9 -1.86563 -0.0715162 0
M  V30 15425 C 1521.25 -1.3193 -1.4522 0
M  V30 15426 O 1520.37 -0.654955 -2.06251 0
M  V30 15427 C 1520.97 -3.38525 -0.13655 0
M  V30 15428 C 1519.53 -3.72323 -0.55249 0
M  V30 15429 C 1518.67 -2.75896 0.278729 0
M  V30 15430 H 1521.63 -1.46192 0.617547 0
M  V30 15431 H 1521.65 -3.68357 -0.953588 0
M  V30 15432 H 1521.16 -3.78258 0.868468 0
M  V30 15433 H 1519.26 -3.38164 -1.56448 0
M  V30 15434 H 1519.37 -4.7814 -0.303139 0
M  V30 15435 H 1517.74 -2.53394 -0.257608 0
M  V30 15436 H 1518.52 -3.18467 1.28193 0
M  V30 15437 N 1520.96 -0.130252 -1.57061 0
M  V30 15438 C 1522.38 0.393318 -1.8251 0
M  V30 15439 C 1522.73 1.65862 -1.04806 0
M  V30 15440 O 1521.85 2.14473 -0.288118 0
M  V30 15441 C 1522.45 0.720366 -3.31053 0
M  V30 15442 C 1521.01 1.18852 -3.57143 0
M  V30 15443 C 1520.15 0.202964 -2.76556 0
M  V30 15444 H 1523.1 -0.355217 -1.54674 0
M  V30 15445 H 1523.12 1.57671 -3.46295 0
M  V30 15446 H 1522.64 -0.200719 -3.87581 0
M  V30 15447 H 1520.74 2.12612 -3.05985 0
M  V30 15448 H 1520.85 1.12607 -4.65678 0
M  V30 15449 H 1519.21 0.692264 -2.45112 0
M  V30 15450 H 1520 -0.711417 -3.35848 0
M  V30 15451 N 1522.44 1.56945 0.143535 0
M  V30 15452 C 1523.39 1.99479 1.19628 0
M  V30 15453 C 1524.39 0.887733 1.44276 0
M  V30 15454 O 1525.59 1.07292 1.44528 0
M  V30 15455 H 1521.97 0.635049 0.402761 0
M  V30 15456 H 1523.94 2.87171 0.810877 0
M  V30 15457 C 1522.69 2.39436 2.52123 0
M  V30 15458 H 1522.01 3.24176 2.33987 0
M  V30 15459 H 1523.45 2.73017 3.24404 0
M  V30 15460 C 1521.91 1.24836 3.12918 0
M  V30 15461 O 1522.44 0.550973 3.97903 0
M  V30 15462 N 1520.64 1.01172 2.7242 0
M  V30 15463 H 1520.19 1.5806 2.03408 0
M  V30 15464 H 1520.15 0.246846 3.13429 0
M  V30 15465 N 1523.92 -0.412991 1.52093 0
M  V30 15466 C 1524.85 -1.52187 1.71382 0
M  V30 15467 C 1525.87 -1.51567 0.594247 0
M  V30 15468 O 1527.06 -1.55902 0.869293 0
M  V30 15469 C 1524.16 -2.91086 1.73557 0
M  V30 15470 C 1523.33 -3.15941 3.0249 0
M  V30 15471 C 1522.39 -4.34692 2.96529 0
M  V30 15472 O 1521.41 -4.3216 3.70441 0
M  V30 15473 N 1522.62 -5.39594 2.14052 0
M  V30 15474 H 1525.38 -1.36036 2.67047 0
M  V30 15475 H 1522.94 -0.602243 1.50282 0
M  V30 15476 H 1524.93 -3.68589 1.67106 0
M  V30 15477 H 1523.5 -3.00714 0.85382 0
M  V30 15478 H 1522.72 -2.26517 3.2262 0
M  V30 15479 H 1524.01 -3.29388 3.87789 0
M  V30 15480 H 1523.41 -5.44498 1.53424 0
M  V30 15481 H 1521.97 -6.15855 2.13461 0
M  V30 15482 N 1525.4 -1.4265 -0.669982 0
M  V30 15483 C 1526.63 -1.46784 -1.45816 0
M  V30 15484 C 1527.04 -0.080606 -1.88628 0
M  V30 15485 O 1526.4 0.905687 -1.58441 0
M  V30 15486 C 1526.45 -2.39915 -2.70413 0
M  V30 15487 O 1526.17 -3.73241 -2.29396 0
M  V30 15488 C 1527.67 -2.53118 -3.63931 0
M  V30 15489 H 1524.89 -0.499076 -0.448513 0
M  V30 15490 H 1527.44 -1.87216 -0.822819 0
M  V30 15491 H 1525.59 -2.02722 -3.30125 0
M  V30 15492 H 1526.01 -4.23164 -3.09891 0
M  V30 15493 H 1527.48 -3.22395 -4.48069 0
M  V30 15494 H 1527.96 -1.57062 -4.10156 0
M  V30 15495 H 1528.56 -2.91052 -3.10111 0
M  V30 15496 N 1526.88 0.906753 -1.28902 0
M  V30 15497 C 1527.84 1.99158 -1.1344 0
M  V30 15498 C 1528.84 1.60639 -0.0719551 0
M  V30 15499 O 1530.03 1.71267 -0.318317 0
M  V30 15500 C 1527.16 3.32923 -0.733172 0
M  V30 15501 H 1528.36 2.14305 -2.09794 0
M  V30 15502 H 1525.91 1.09034 -1.11988 0
M  V30 15503 H 1526.64 3.23477 0.230826 0
M  V30 15504 H 1526.43 3.62244 -1.50073 0
M  V30 15505 H 1527.92 4.12544 -0.64784 0
M  V30 15506 N 1528.36 1.11264 1.11616 0
M  V30 15507 C 1529.77 0.876713 1.64835 0
M  V30 15508 C 1530.12 -0.591384 1.87075 0
M  V30 15509 O 1529.24 -1.45304 1.60361 0
M  V30 15510 C 1529.84 1.58496 2.9944 0
M  V30 15511 C 1528.4 1.39551 3.49575 0
M  V30 15512 C 1527.54 1.62881 2.24422 0
M  V30 15513 H 1530.49 1.26915 0.952804 0
M  V30 15514 H 1530.52 1.02891 3.66325 0
M  V30 15515 H 1530.03 2.65344 2.83221 0
M  V30 15516 H 1528.13 0.349059 3.70961 0
M  V30 15517 H 1528.24 2.14334 4.28483 0
M  V30 15518 H 1526.61 1.05208 2.31955 0
M  V30 15519 H 1527.39 2.70999 2.10748 0
M  V30 15520 N 1529.83 -1.29188 0.902679 0
M  V30 15521 C 1531.08 -1.96092 0.540328 0
M  V30 15522 C 1531.43 -1.6984 -0.903997 0
M  V30 15523 O 1530.73 -1.00257 -1.63276 0
M  V30 15524 C 1530.92 -3.48951 0.772542 0
M  V30 15525 C 1530.75 -3.90062 2.23789 0
M  V30 15526 C 1529.52 -4.14782 2.8859 0
M  V30 15527 C 1531.72 -4.01557 3.21335 0
M  V30 15528 N 1529.7 -4.42484 4.25536 0
M  V30 15529 C 1531.07 -4.33346 4.43409 0
M  V30 15530 C 1533.13 -3.84043 3.16884 0
M  V30 15531 C 1531.83 -4.49444 5.61598 0
M  V30 15532 C 1533.86 -4.01353 4.34362 0
M  V30 15533 C 1533.22 -4.33503 5.55207 0
M  V30 15534 H 1529.32 -0.741839 0.247383 0
M  V30 15535 H 1531.9 -1.56066 1.16411 0
M  V30 15536 H 1530.07 -3.87991 0.178119 0
M  V30 15537 H 1531.8 -4.02956 0.375328 0
M  V30 15538 H 1528.56 -4.08655 2.3937 0
M  V30 15539 H 1528.98 -4.60438 4.96312 0
M  V30 15540 H 1533.62 -3.58247 2.24541 0
M  V30 15541 H 1531.34 -4.74075 6.5443 0
M  V30 15542 H 1534.93 -3.89249 4.32408 0
M  V30 15543 H 1533.81 -4.46617 6.44595 0
M  V30 15544 N 1531.31 -0.665475 -1.42861 0
M  V30 15545 C 1532.72 -0.26225 -1.84849 0
M  V30 15546 C 1533.07 1.19372 -1.55707 0
M  V30 15547 O 1532.2 1.91269 -1.01218 0
M  V30 15548 C 1532.79 -0.469189 -3.35535 0
M  V30 15549 C 1531.35 -0.120172 -3.76208 0
M  V30 15550 C 1530.5 -0.766153 -2.66506 0
M  V30 15551 H 1533.45 -0.868296 -1.32839 0
M  V30 15552 H 1533.47 0.281571 -3.79457 0
M  V30 15553 H 1532.98 -1.52894 -3.56714 0
M  V30 15554 H 1531.08 0.936505 -3.60639 0
M  V30 15555 H 1531.2 -0.554188 -4.75884 0
M  V30 15556 H 1529.56 -0.198292 -2.53927 0
M  V30 15557 H 1530.34 -1.82918 -2.9051 0
M  V30 15558 N 1532.79 1.52222 -0.408187 0
M  V30 15559 C 1533.7 2.30725 0.424645 0
M  V30 15560 C 1534.72 1.38412 1.05442 0
M  V30 15561 O 1535.89 1.71486 1.05614 0
M  V30 15562 C 1532.96 3.11273 1.52677 0
M  V30 15563 C 1532.02 4.19323 0.920143 0
M  V30 15564 C 1531.25 4.96021 1.96974 0
M  V30 15565 O 1531.47 4.73011 3.18774 0
M  V30 15566 O 1530.41 5.80887 1.5765 0
M  V30 15567 H 1534.23 3.02935 -0.215411 0
M  V30 15568 H 1531.82 1.48413 -0.171414 0
M  V30 15569 H 1533.7 3.61436 2.16661 0
M  V30 15570 H 1532.38 2.41857 2.15144 0
M  V30 15571 H 1531.28 3.7331 0.243037 0
M  V30 15572 H 1532.62 4.91028 0.339405 0
M  V30 15573 N 1534.27 0.138579 1.5699 0
M  V30 15574 C 1535.49 -0.525074 2.00643 0
M  V30 15575 C 1535.92 -1.58174 1.01796 0
M  V30 15576 O 1535.28 -1.81298 -0.00754003 0
M  V30 15577 C 1535.32 -1.11019 3.43085 0
M  V30 15578 O 1534.43 -2.22529 3.4721 0
M  V30 15579 H 1533.77 -0.129283 0.651292 0
M  V30 15580 H 1536.3 0.23283 2.03271 0
M  V30 15581 H 1536.31 -1.44093 3.81708 0
M  V30 15582 H 1534.98 -0.336325 4.14538 0
M  V30 15583 H 1533.56 -1.90747 3.20422 0
M  V30 15584 N 1535.75 -1.57019 -0.13521 0
M  V30 15585 C 1536.99 -1.83178 -0.844308 0
M  V30 15586 C 1537.31 -0.7217 -1.81799 0
M  V30 15587 O 1538.51 -0.869232 -2.57209 0
M  V30 15588 C 1536.97 -3.2471 -1.55214 0
M  V30 15589 C 1536.58 -4.43685 -0.620268 0
M  V30 15590 C 1538.32 -3.60133 -2.24732 0
M  V30 15591 C 1536.23 -5.76242 -1.3304 0
M  V30 15592 H 1535.16 -0.683175 -0.319041 0
M  V30 15593 H 1537.81 -1.83243 -0.0970242 0
M  V30 15594 H 1536.19 -3.19067 -2.34547 0
M  V30 15595 H 1537.37 -4.60591 0.138685 0
M  V30 15596 H 1535.68 -4.16387 -0.0328906 0
M  V30 15597 H 1538.28 -4.56431 -2.78522 0
M  V30 15598 H 1538.62 -2.86767 -3.01779 0
M  V30 15599 H 1539.15 -3.67489 -1.52305 0
M  V30 15600 H 1535.89 -6.52734 -0.60155 0
M  V30 15601 H 1535.41 -5.63251 -2.06176 0
M  V30 15602 H 1537.09 -6.19445 -1.86808 0
M  V30 15603 N 1537.22 0.404919 -1.52309 0
M  V30 15604 C 1538.15 1.50039 -1.78915 0
M  V30 15605 C 1539.14 1.57587 -0.640329 0
M  V30 15606 O 1540.32 1.72793 -0.886344 0
M  V30 15607 C 1537.45 2.87819 -1.94364 0
M  V30 15608 C 1536.4 2.9512 -3.09981 0
M  V30 15609 C 1535.73 4.35195 -3.10659 0
M  V30 15610 C 1537.03 2.66219 -4.4936 0
M  V30 15611 H 1538.72 1.28025 -2.70647 0
M  V30 15612 H 1536.27 0.61445 -1.30233 0
M  V30 15613 H 1538.22 3.64446 -2.11559 0
M  V30 15614 H 1536.95 3.11136 -0.993067 0
M  V30 15615 H 1535.61 2.20939 -2.92543 0
M  V30 15616 H 1535.25 4.55528 -2.13316 0
M  V30 15617 H 1534.95 4.41003 -3.88317 0
M  V30 15618 H 1536.48 5.1375 -3.29989 0
M  V30 15619 H 1537.89 3.32567 -4.66982 0
M  V30 15620 H 1536.29 2.83398 -5.28967 0
M  V30 15621 H 1537.36 1.61636 -4.57167 0
M  V30 15622 N 1538.7 1.43003 0.662408 0
M  V30 15623 C 1540.11 1.39275 1.24336 0
M  V30 15624 C 1540.46 0.0921999 1.95983 0
M  V30 15625 O 1539.59 -0.808677 2.00722 0
M  V30 15626 C 1540.18 2.52287 2.26134 0
M  V30 15627 C 1538.74 2.51853 2.79727 0
M  V30 15628 C 1537.89 2.30453 1.5423 0
M  V30 15629 H 1540.84 1.52038 0.455002 0
M  V30 15630 H 1540.86 2.23249 3.08123 0
M  V30 15631 H 1540.37 3.46929 1.73959 0
M  V30 15632 H 1538.48 1.61064 3.3599 0
M  V30 15633 H 1538.59 3.49313 3.27898 0
M  V30 15634 H 1536.95 1.78946 1.81247 0
M  V30 15635 H 1537.74 3.27167 1.04003 0
M  V30 15636 N 1540.18 -0.899904 1.29381 0
M  V30 15637 C 1541.43 -1.64502 1.16713 0
M  V30 15638 C 1541.74 -1.93577 -0.280563 0
M  V30 15639 O 1542.95 -2.66305 -0.528563 0
M  V30 15640 C 1541.4 -2.96414 2.04125 0
M  V30 15641 C 1541.01 -2.74935 3.53716 0
M  V30 15642 C 1542.76 -3.74337 2.0018 0
M  V30 15643 C 1540.66 -4.02571 4.33232 0
M  V30 15644 H 1539.59 -0.617121 0.433218 0
M  V30 15645 H 1542.24 -0.997521 1.54019 0
M  V30 15646 H 1540.63 -3.62375 1.59687 0
M  V30 15647 H 1541.8 -2.17567 4.06203 0
M  V30 15648 H 1540.12 -2.10407 3.5933 0
M  V30 15649 H 1542.71 -4.6897 2.56849 0
M  V30 15650 H 1543.06 -4.04559 0.981735 0
M  V30 15651 H 1543.59 -3.15216 2.4266 0
M  V30 15652 H 1540.33 -3.77516 5.35875 0
M  V30 15653 H 1539.85 -4.59499 3.85514 0
M  V30 15654 H 1541.53 -4.70719 4.43884 0
M  V30 15655 N 1541.66 -1.11854 -1.11024 0
M  V30 15656 C 1542.94 -0.781693 -1.79301 0
M  V30 15657 C 1543.32 0.72956 -1.98092 0
M  V30 15658 O 1542.66 1.66109 -1.56908 0
M  V30 15659 C 1542.87 -1.54976 -3.12703 0
M  V30 15660 C 1544.22 -1.73183 -3.87676 0
M  V30 15661 O 1545.25 -1.51437 -3.22406 0
M  V30 15662 O 1544.1 -2.0935 -5.04812 0
M  V30 15663 H 1541.2 -0.283672 -0.776826 0
M  V30 15664 H 1543.74 -1.22222 -1.17728 0
M  V30 15665 H 1542.52 -2.57759 -2.94408 0
M  V30 15666 H 1542.14 -1.10308 -3.81992 0
M  V30 15667 N 1543.14 1.28707 -0.909517 0
M  V30 15668 C 1544.07 2.26481 -0.35198 0
M  V30 15669 C 1545.08 1.54698 0.507199 0
M  V30 15670 O 1546.27 1.75558 0.322765 0
M  V30 15671 C 1543.37 3.3495 0.515897 0
M  V30 15672 C 1542.54 4.36229 -0.3198 0
M  V30 15673 C 1541.6 5.23983 0.482483 0
M  V30 15674 O 1540.63 5.69106 -0.10347 0
M  V30 15675 N 1541.83 5.52328 1.78645 0
M  V30 15676 H 1544.6 2.74959 -1.19238 0
M  V30 15677 H 1542.16 1.42144 -0.775023 0
M  V30 15678 H 1544.15 3.90592 1.05925 0
M  V30 15679 H 1542.72 2.86214 1.257 0
M  V30 15680 H 1541.94 3.80109 -1.04454 0
M  V30 15681 H 1543.23 5.00924 -0.891769 0
M  V30 15682 H 1542.62 5.17494 2.28509 0
M  V30 15683 H 1541.18 6.10744 2.27672 0
M  V30 15684 N 1544.61 0.673042 1.42506 0
M  V30 15685 C 1545.58 0.00283156 2.292 0
M  V30 15686 C 1546.58 -0.73077 1.43235 0
M  V30 15687 O 1547.77 -0.569037 1.64644 0
M  V30 15688 C 1544.9 -1.00666 3.25698 0
M  V30 15689 H 1546.09 0.765869 2.89956 0
M  V30 15690 H 1543.65 0.435301 1.50116 0
M  V30 15691 H 1544.38 -1.79825 2.69877 0
M  V30 15692 H 1544.17 -0.484043 3.89101 0
M  V30 15693 H 1545.66 -1.47409 3.90718 0
M  V30 15694 N 1546.09 -1.52004 0.416254 0
M  V30 15695 C 1547.32 -2.0679 -0.158937 0
M  V30 15696 C 1547.74 -1.28366 -1.37491 0
M  V30 15697 O 1547.1 -0.315815 -1.78528 0
M  V30 15698 C 1547.15 -3.57381 -0.480717 0
M  V30 15699 O 1546.25 -3.81321 -1.5706 0
M  V30 15700 H 1545.59 -0.663907 -0.0110938 0
M  V30 15701 H 1548.12 -1.95863 0.591509 0
M  V30 15702 H 1548.13 -4.01283 -0.737297 0
M  V30 15703 H 1546.81 -4.13893 0.408137 0
M  V30 15704 H 1545.39 -3.49296 -1.30563 0
M  V30 15705 N 1547.57 -0.146903 -1.56914 0
M  V30 15706 C 1548.82 0.504234 -1.96122 0
M  V30 15707 C 1549.15 1.64879 -1.03175 0
M  V30 15708 O 1548.4 1.95605 -0.0609397 0
M  V30 15709 C 1548.7 1.05159 -3.41579 0
M  V30 15710 C 1548.37 0.0254845 -4.50893 0
M  V30 15711 C 1547.03 -0.256589 -4.80515 0
M  V30 15712 C 1549.38 -0.672284 -5.16846 0
M  V30 15713 C 1546.71 -1.24224 -5.73398 0
M  V30 15714 C 1549.06 -1.64675 -6.1079 0
M  V30 15715 C 1547.72 -1.93652 -6.38792 0
M  V30 15716 H 1546.99 0.184512 -0.71766 0
M  V30 15717 H 1549.64 -0.233712 -1.90069 0
M  V30 15718 H 1547.95 1.86687 -3.44464 0
M  V30 15719 H 1549.64 1.56398 -3.69244 0
M  V30 15720 H 1546.23 0.255517 -4.27838 0
M  V30 15721 H 1550.42 -0.467555 -4.94093 0
M  V30 15722 H 1545.67 -1.47319 -5.93386 0
M  V30 15723 H 1549.85 -2.19294 -6.60971 0
M  V30 15724 H 1547.47 -2.70179 -7.10568 0
M  V30 15725 N 1549.05 1.57088 0.126881 0
M  V30 15726 C 1550.01 1.98836 1.14003 0
M  V30 15727 C 1551.01 0.877454 1.34749 0
M  V30 15728 O 1552.2 1.14366 1.314 0
M  V30 15729 C 1549.33 2.32171 2.49618 0
M  V30 15730 H 1550.53 2.89541 0.7814 0
M  V30 15731 H 1548.08 1.51835 0.370915 0
M  V30 15732 H 1548.81 1.44321 2.90417 0
M  V30 15733 H 1548.6 3.13187 2.35916 0
M  V30 15734 H 1550.09 2.65238 3.2255 0
M  V30 15735 N 1550.53 -0.396836 1.52522 0
M  V30 15736 C 1551.75 -1.16857 1.71345 0
M  V30 15737 C 1552.18 -1.83178 0.427465 0
M  V30 15738 O 1551.53 -1.7051 -0.616123 0
M  V30 15739 C 1551.58 -2.19817 2.85855 0
M  V30 15740 O 1550.69 -3.26233 2.52281 0
M  V30 15741 H 1550.03 -0.340554 0.570017 0
M  V30 15742 H 1552.56 -0.463532 1.9928 0
M  V30 15743 H 1552.57 -2.63944 3.11123 0
M  V30 15744 H 1551.24 -1.70931 3.79151 0
M  V30 15745 H 1549.82 -2.87299 2.37726 0
M  V30 15746 N 1552.01 -1.43353 -0.654814 0
M  V30 15747 C 1552.94 -1.44353 -1.7803 0
M  V30 15748 C 1553.95 -0.339872 -1.59213 0
M  V30 15749 O 1555.14 -0.604207 -1.67963 0
M  V30 15750 C 1552.24 -1.23913 -3.15434 0
M  V30 15751 C 1551.41 -2.47088 -3.60924 0
M  V30 15752 C 1550.47 -2.21896 -4.77126 0
M  V30 15753 O 1549.5 -2.95236 -4.86646 0
M  V30 15754 N 1550.7 -1.23459 -5.6722 0
M  V30 15755 H 1553.46 -2.41372 -1.77651 0
M  V30 15756 H 1551.03 -1.38488 -0.838603 0
M  V30 15757 H 1553.02 -1.04945 -3.90856 0
M  V30 15758 H 1551.59 -0.35346 -3.10595 0
M  V30 15759 H 1550.81 -2.81492 -2.75964 0
M  V30 15760 H 1552.1 -3.29066 -3.88064 0
M  V30 15761 H 1551.49 -0.6284 -5.62199 0
M  V30 15762 H 1550.05 -1.10474 -6.4237 0
M  V30 15763 N 1553.48 0.89303 -1.29857 0
M  V30 15764 C 1554.43 2.01928 -1.15447 0
M  V30 15765 C 1555.43 1.69262 -0.0683677 0
M  V30 15766 O 1556.63 1.78542 -0.228646 0
M  V30 15767 H 1553.01 0.661961 -0.356807 0
M  V30 15768 H 1554.98 2.11218 -2.10784 0
M  V30 15769 C 1553.73 3.37031 -0.85473 0
M  V30 15770 H 1553.05 3.62673 -1.68251 0
M  V30 15771 H 1554.49 4.165 -0.793973 0
M  V30 15772 C 1552.95 3.33986 0.442183 0
M  V30 15773 O 1553.48 3.73986 1.4662 0
M  V30 15774 N 1551.68 2.87088 0.450438 0
M  V30 15775 H 1551.23 2.54732 -0.383347 0
M  V30 15776 H 1551.19 2.85433 1.31815 0
M  V30 15777 N 1554.96 1.12442 1.10429 0
M  V30 15778 C 1556.38 0.860481 1.34417 0
M  V30 15779 C 1556.58 -0.509394 1.94955 0
M  V30 15780 O 1555.63 -1.25807 2.18927 0
M  V30 15781 C 1556.95 1.97694 2.26578 0
M  V30 15782 C 1558.49 2.00783 2.40115 0
M  V30 15783 C 1558.97 3.11663 3.35604 0
M  V30 15784 N 1560.46 3.11106 3.43173 0
M  V30 15785 C 1561.2 3.9354 4.1703 0
M  V30 15786 N 1560.69 4.85963 4.93773 0
M  V30 15787 N 1562.48 3.81677 4.12649 0
M  V30 15788 H 1554.64 2.00706 0.695036 0
M  V30 15789 H 1556.9 0.873398 0.368619 0
M  V30 15790 H 1556.6 2.96405 1.89306 0
M  V30 15791 H 1556.48 1.88217 3.26886 0
M  V30 15792 H 1558.87 1.02692 2.76656 0
M  V30 15793 H 1558.95 2.14335 1.39621 0
M  V30 15794 H 1558.59 4.09987 2.99789 0
M  V30 15795 H 1558.52 2.9535 4.35977 0
M  V30 15796 H 1561.01 2.4415 2.88442 0
M  V30 15797 H 1561.32 5.45373 5.47529 0
M  V30 15798 H 1559.67 4.89976 4.92898 0
M  V30 15799 H 1562.86 3.08808 3.51789 0
M  V30 15800 H 1563.03 4.46151 4.6995 0
M  V30 15801 N 1556.44 -1.28223 0.91633 0
M  V30 15802 C 1557.37 -2.26291 0.363986 0
M  V30 15803 C 1558.38 -1.54964 -0.498988 0
M  V30 15804 O 1559.57 -1.75726 -0.31345 0
M  V30 15805 C 1556.67 -3.35219 -0.498126 0
M  V30 15806 C 1555.85 -4.36054 0.34293 0
M  V30 15807 C 1554.91 -5.24232 -0.454688 0
M  V30 15808 O 1553.93 -5.69043 0.133649 0
M  V30 15809 N 1555.13 -5.53268 -1.75714 0
M  V30 15810 H 1557.9 -2.74323 1.20694 0
M  V30 15811 H 1555.46 -1.41731 0.782551 0
M  V30 15812 H 1557.45 -3.91148 -1.03852 0
M  V30 15813 H 1556.02 -2.86876 -1.2418 0
M  V30 15814 H 1555.24 -3.7955 1.06468 0
M  V30 15815 H 1556.53 -5.00444 0.918322 0
M  V30 15816 H 1555.93 -5.18698 -2.25762 0
M  V30 15817 H 1554.48 -6.11943 -2.2443 0
M  V30 15818 N 1557.92 -0.68059 -1.42147 0
M  V30 15819 C 1559.33 -0.281841 -1.8456 0
M  V30 15820 C 1559.68 1.17714 -1.56965 0
M  V30 15821 O 1558.8 1.90185 -1.03241 0
M  V30 15822 C 1559.4 -0.504751 -3.35019 0
M  V30 15823 C 1557.96 -0.160067 -3.76059 0
M  V30 15824 C 1557.11 -0.794377 -2.65678 0
M  V30 15825 H 1560.06 -0.882337 -1.31911 0
M  V30 15826 H 1560.08 0.241308 -3.79734 0
M  V30 15827 H 1559.59 -1.56669 -3.55072 0
M  V30 15828 H 1557.69 0.898202 -3.61612 0
M  V30 15829 H 1557.8 -0.60463 -4.75269 0
M  V30 15830 H 1556.17 -0.225213 -2.53702 0
M  V30 15831 H 1556.95 -1.85989 -2.88553 0
M  V30 15832 N 1559.4 1.51781 -0.424309 0
M  V30 15833 C 1560.64 2.01969 0.146492 0
M  V30 15834 C 1560.97 1.30918 1.43843 0
M  V30 15835 O 1560.23 0.408705 1.91385 0
M  V30 15836 C 1560.52 3.54855 0.42574 0
M  V30 15837 C 1560.19 4.44123 -0.778814 0
M  V30 15838 C 1558.85 4.68242 -1.10918 0
M  V30 15839 C 1561.2 4.96579 -1.58299 0
M  V30 15840 C 1558.53 5.42063 -2.24464 0
M  V30 15841 C 1560.88 5.71645 -2.70934 0
M  V30 15842 C 1559.55 5.94031 -3.04439 0
M  V30 15843 H 1558.82 0.739059 0.0536052 0
M  V30 15844 H 1561.47 1.82856 -0.568838 0
M  V30 15845 H 1559.77 3.72229 1.22282 0
M  V30 15846 H 1561.47 3.91212 0.880598 0
M  V30 15847 H 1558.06 4.25539 -0.511363 0
M  V30 15848 H 1562.24 4.77841 -1.34098 0
M  V30 15849 H 1557.5 5.57614 -2.50753 0
M  V30 15850 H 1561.67 6.11284 -3.33624 0
M  V30 15851 H 1559.3 6.51014 -3.92537 0
M  V30 15852 N 1560.87 0.155222 1.56834 0
M  V30 15853 C 1562.12 -0.49285 1.95998 0
M  V30 15854 C 1562.44 -1.64857 1.0415 0
M  V30 15855 O 1561.71 -1.9562 0.104654 0
M  V30 15856 H 1560.29 -0.185063 0.723713 0
M  V30 15857 H 1562.95 0.232644 1.93507 0
M  V30 15858 H 1562.05 -0.863552 2.99915 0
M  V30 15859 N 1562.35 -1.57153 -0.118549 0
M  V30 15860 C 1563.58 -1.89434 -0.844355 0
M  V30 15861 C 1564 -0.747203 -1.72622 0
M  V30 15862 O 1563.36 0.302252 -1.78763 0
M  V30 15863 C 1563.41 -3.20466 -1.65331 0
M  V30 15864 O 1562.51 -3.06403 -2.76027 0
M  V30 15865 H 1561.85 -0.621601 -0.23347 0
M  V30 15866 H 1564.38 -2.04351 -0.100811 0
M  V30 15867 H 1564.39 -3.53197 -2.04245 0
M  V30 15868 H 1563.07 -4.03551 -1.00594 0
M  V30 15869 H 1561.64 -2.85139 -2.40312 0
M  V30 15870 N 1563.83 0.388742 -1.5273 0
M  V30 15871 C 1565.05 1.15946 -1.71963 0
M  V30 15872 C 1565.48 1.82949 -0.437173 0
M  V30 15873 O 1564.84 1.70834 0.607072 0
M  V30 15874 C 1564.89 2.18298 -2.87016 0
M  V30 15875 O 1563.99 3.24891 -2.54008 0
M  V30 15876 H 1563.33 0.337526 -0.571815 0
M  V30 15877 H 1565.86 0.452957 -1.99523 0
M  V30 15878 H 1565.87 2.6229 -3.12519 0
M  V30 15879 H 1564.55 1.68917 -3.80052 0
M  V30 15880 H 1563.12 2.86034 -2.39246 0
M  V30 15881 N 1565.31 1.43698 0.647203 0
M  V30 15882 C 1566.72 1.40586 1.22851 0
M  V30 15883 C 1567.07 0.112981 1.95874 0
M  V30 15884 O 1566.19 -0.787342 2.01569 0
M  V30 15885 C 1566.79 2.54672 2.23445 0
M  V30 15886 C 1565.35 2.54806 2.7704 0
M  V30 15887 C 1564.5 2.32076 1.51777 0
M  V30 15888 H 1567.45 1.52512 0.43885 0
M  V30 15889 H 1567.47 2.26505 3.05738 0
M  V30 15890 H 1566.98 3.48755 1.70269 0
M  V30 15891 H 1565.08 1.64619 3.34262 0
M  V30 15892 H 1565.19 3.52771 3.24175 0
M  V30 15893 H 1563.56 1.80858 1.79339 0
M  V30 15894 H 1564.34 3.28252 1.00527 0
M  V30 15895 N 1566.79 -0.886131 1.30328 0
M  V30 15896 C 1568.06 -1.61912 1.09744 0
M  V30 15897 C 1568.44 -2.08116 -0.353663 0
M  V30 15898 O 1567.79 -1.84725 -1.34495 0
M  V30 15899 C 1568 -2.78954 2.09727 0
M  V30 15900 C 1569.35 -3.49313 2.41382 0
M  V30 15901 O 1570.37 -2.89141 2.08028 0
M  V30 15902 O 1569.23 -4.57823 2.98431 0
M  V30 15903 H 1566.33 -0.71158 0.421406 0
M  V30 15904 H 1568.87 -0.933009 1.4175 0
M  V30 15905 H 1567.64 -2.42109 3.07407 0
M  V30 15906 H 1567.27 -3.55263 1.78532 0
M  V30 15907 N 1568.26 -1.13026 -1.09832 0
M  V30 15908 C 1569.54 -0.800667 -1.78462 0
M  V30 15909 C 1569.92 0.708508 -1.98855 0
M  V30 15910 O 1569.27 1.64436 -1.58661 0
M  V30 15911 C 1569.48 -1.58284 -3.11042 0
M  V30 15912 C 1570.83 -1.77285 -3.85818 0
M  V30 15913 O 1571.85 -1.54848 -3.20781 0
M  V30 15914 O 1570.71 -2.14693 -5.02563 0
M  V30 15915 H 1567.8 -0.291895 -0.773774 0
M  V30 15916 H 1570.35 -1.23464 -1.16425 0
M  V30 15917 H 1569.12 -2.60867 -2.91657 0
M  V30 15918 H 1568.75 -1.14353 -3.80801 0
M  V30 15919 N 1569.74 1.27735 -0.923117 0
M  V30 15920 C 1570.67 2.29395 -0.435907 0
M  V30 15921 C 1571.65 1.62542 0.501403 0
M  V30 15922 O 1572.84 1.89884 0.407135 0
M  V30 15923 C 1569.97 3.45856 0.316348 0
M  V30 15924 C 1568.92 4.24672 -0.532697 0
M  V30 15925 C 1568.25 5.33563 0.348454 0
M  V30 15926 C 1569.55 4.90494 -1.79481 0
M  V30 15927 H 1571.24 2.70398 -1.28551 0
M  V30 15928 H 1568.79 1.29989 -0.619581 0
M  V30 15929 H 1570.74 4.1607 0.668098 0
M  V30 15930 H 1569.47 3.03758 1.19994 0
M  V30 15931 H 1568.12 3.56198 -0.867093 0
M  V30 15932 H 1567.77 4.87708 1.23086 0
M  V30 15933 H 1567.47 5.87202 -0.216104 0
M  V30 15934 H 1569 6.06622 0.695878 0
M  V30 15935 H 1570.41 5.53019 -1.5114 0
M  V30 15936 H 1568.81 5.5417 -2.30251 0
M  V30 15937 H 1569.88 4.14454 -2.51707 0
M  V30 15938 N 1571.22 0.688118 1.41784 0
M  V30 15939 C 1572.15 0.0323199 2.33478 0
M  V30 15940 C 1573.13 -0.775145 1.51412 0
M  V30 15941 O 1574.32 -0.72962 1.79973 0
M  V30 15942 C 1571.45 -0.910141 3.35162 0
M  V30 15943 C 1570.4 -0.210312 4.27483 0
M  V30 15944 C 1569.73 -1.26662 5.19481 0
M  V30 15945 C 1571.03 0.918839 5.14154 0
M  V30 15946 H 1572.72 0.798138 2.88566 0
M  V30 15947 H 1570.27 0.385262 1.38751 0
M  V30 15948 H 1572.22 -1.3781 3.98229 0
M  V30 15949 H 1570.94 -1.70754 2.78408 0
M  V30 15950 H 1569.6 0.237544 3.6583 0
M  V30 15951 H 1569.25 -2.05635 4.59046 0
M  V30 15952 H 1568.95 -0.803416 5.82082 0
M  V30 15953 H 1570.47 -1.73524 5.85424 0
M  V30 15954 H 1571.89 0.531499 5.70831 0
M  V30 15955 H 1570.29 1.30867 5.85657 0
M  V30 15956 H 1571.36 1.7618 4.51762 0
M  V30 15957 N 1572.7 -1.51554 0.432352 0
M  V30 15958 C 1573.94 -2.03954 -0.135014 0
M  V30 15959 C 1574.3 -1.30972 -1.40393 0
M  V30 15960 O 1575.5 -1.73719 -2.05122 0
M  V30 15961 C 1573.77 -3.55646 -0.35361 0
M  V30 15962 S 1575.33 -4.29781 -0.885096 0
M  V30 15963 H 1572.15 -0.710178 -0.0341871 0
M  V30 15964 H 1574.75 -1.86365 0.590612 0
M  V30 15965 H 1573.46 -4.06333 0.576335 0
M  V30 15966 H 1572.99 -3.7752 -1.10646 0
M  V30 15967 H 1575 -4.46564 -2.16322 0
M  V30 15968 N 1574.18 -0.163538 -1.56749 0
M  V30 15969 C 1575.59 0.354516 -1.83303 0
M  V30 15970 C 1575.94 1.63601 -1.08301 0
M  V30 15971 O 1575.06 2.13814 -0.333546 0
M  V30 15972 C 1575.66 0.649983 -3.32507 0
M  V30 15973 C 1574.22 1.1125 -3.59584 0
M  V30 15974 C 1573.36 0.144257 -2.76925 0
M  V30 15975 H 1576.32 -0.387945 -1.53885 0
M  V30 15976 H 1576.34 1.5029 -3.49562 0
M  V30 15977 H 1575.85 -0.282886 -3.87068 0
M  V30 15978 H 1573.95 2.06074 -3.10426 0
M  V30 15979 H 1574.06 1.02704 -4.67962 0
M  V30 15980 H 1572.43 0.640116 -2.46525 0
M  V30 15981 H 1573.21 -0.782495 -3.34263 0
M  V30 15982 N 1575.65 1.57214 0.110213 0
M  V30 15983 C 1576.6 1.97409 1.14077 0
M  V30 15984 C 1577.59 0.850322 1.36596 0
M  V30 15985 O 1578.78 1.11407 1.3754 0
M  V30 15986 C 1575.91 2.38936 2.46505 0
M  V30 15987 C 1575 3.57965 2.27424 0
M  V30 15988 N 1575.39 4.73379 1.78175 0
M  V30 15989 C 1573.68 3.63768 2.58048 0
M  V30 15990 C 1574.39 5.55376 1.73009 0
M  V30 15991 N 1573.36 4.98115 2.17675 0
M  V30 15992 H 1577.16 2.84098 0.752688 0
M  V30 15993 H 1574.68 1.59259 0.317845 0
M  V30 15994 H 1576.67 2.65953 3.21052 0
M  V30 15995 H 1575.33 1.53616 2.86063 0
M  V30 15996 H 1576.35 4.96424 1.47593 0
M  V30 15997 H 1573.02 2.89076 3.01233 0
M  V30 15998 H 1574.41 6.57969 1.36112 0
M  V30 15999 N 1577.13 -0.380637 1.52934 0
M  V30 16000 C 1578.54 -0.958182 1.60237 0
M  V30 16001 C 1578.89 -1.90722 0.460393 0
M  V30 16002 O 1578.02 -2.12376 -0.415354 0
M  V30 16003 C 1578.61 -1.7446 2.90429 0
M  V30 16004 C 1577.17 -2.27172 3.00116 0
M  V30 16005 C 1576.32 -1.07969 2.55417 0
M  V30 16006 H 1579.27 -0.159908 1.57892 0
M  V30 16007 H 1579.29 -2.60456 2.77385 0
M  V30 16008 H 1578.8 -1.05362 3.73524 0
M  V30 16009 H 1576.91 -2.99557 2.21577 0
M  V30 16010 H 1577.02 -2.56086 4.04916 0
M  V30 16011 H 1575.38 -1.4422 2.09935 0
M  V30 16012 H 1576.17 -0.403925 3.40915 0
M  V30 16013 N 1578.61 -1.44039 -0.639573 0
M  V30 16014 C 1579.57 -1.49907 -1.7338 0
M  V30 16015 C 1580.57 -0.382101 -1.56194 0
M  V30 16016 O 1581.76 -0.644396 -1.61843 0
M  V30 16017 C 1578.9 -1.36486 -3.12385 0
M  V30 16018 H 1580.09 -2.4737 -1.69553 0
M  V30 16019 H 1577.64 -1.31006 -0.852474 0
M  V30 16020 H 1578.38 -0.400845 -3.21813 0
M  V30 16021 H 1578.16 -2.17471 -3.26265 0
M  V30 16022 H 1579.65 -1.43555 -3.9215 0
M  V30 16023 N 1580.09 0.879207 -1.30796 0
M  V30 16024 C 1581.05 1.96707 -1.17639 0
M  V30 16025 C 1582.05 1.6045 -0.106013 0
M  V30 16026 O 1583.24 1.70553 -0.354573 0
M  V30 16027 C 1580.37 3.31292 -0.803625 0
M  V30 16028 H 1581.57 2.09806 -2.14293 0
M  V30 16029 H 1579.12 1.06634 -1.14276 0
M  V30 16030 H 1579.85 3.23894 0.162159 0
M  V30 16031 H 1579.64 3.58979 -1.57723 0
M  V30 16032 H 1581.13 4.11077 -0.735201 0
M  V30 16033 N 1581.57 1.13606 1.09231 0
M  V30 16034 C 1582.48 0.828702 2.19476 0
M  V30 16035 C 1583.49 -0.187499 1.72987 0
M  V30 16036 O 1584.67 -0.0180602 2.01392 0
M  V30 16037 C 1581.73 0.301361 3.45388 0
M  V30 16038 C 1580.8 1.37906 4.06547 0
M  V30 16039 C 1580.03 0.876786 5.26449 0
M  V30 16040 O 1580.25 -0.284896 5.69688 0
M  V30 16041 O 1579.19 1.652 5.78785 0
M  V30 16042 H 1583.01 1.74982 2.48223 0
M  V30 16043 H 1580.6 0.913673 1.18205 0
M  V30 16044 H 1582.48 0.0127792 4.21398 0
M  V30 16045 H 1581.15 -0.592149 3.18238 0
M  V30 16046 H 1580.06 1.72098 3.32164 0
M  V30 16047 H 1581.39 2.24678 4.37927 0
M  V30 16048 N 1583.05 -1.27244 0.929878 0
M  V30 16049 C 1584.27 -1.98912 0.587277 0
M  V30 16050 C 1584.7 -1.68888 -0.828168 0
M  V30 16051 O 1584.05 -0.930394 -1.55606 0
M  V30 16052 C 1584.1 -3.51097 0.822399 0
M  V30 16053 O 1583.21 -4.12251 -0.110968 0
M  V30 16054 H 1582.55 -0.624404 0.225867 0
M  V30 16055 H 1585.08 -1.61997 1.24973 0
M  V30 16056 H 1585.09 -4.01255 0.738824 0
M  V30 16057 H 1583.76 -3.72282 1.85416 0
M  V30 16058 H 1582.34 -3.72893 0.0227053 0
M  V30 16059 N 1584.52 -0.695628 -1.41417 0
M  V30 16060 C 1585.93 -0.3014 -1.84251 0
M  V30 16061 C 1586.29 1.16042 -1.58204 0
M  V30 16062 O 1585.41 1.89079 -1.05253 0
M  V30 16063 C 1586.01 -0.540256 -3.34465 0
M  V30 16064 C 1584.56 -0.199944 -3.75869 0
M  V30 16065 C 1583.71 -0.822511 -2.64821 0
M  V30 16066 H 1586.66 -0.896278 -1.30968 0
M  V30 16067 H 1586.68 0.201019 -3.79969 0
M  V30 16068 H 1586.2 -1.60427 -3.53391 0
M  V30 16069 H 1584.3 0.859798 -3.62544 0
M  V30 16070 H 1584.41 -0.655005 -4.74601 0
M  V30 16071 H 1582.77 -0.252109 -2.53449 0
M  V30 16072 H 1583.56 -1.89039 -2.86564 0
M  V30 16073 N 1586 1.51322 -0.440383 0
M  V30 16074 C 1587.23 2.07017 0.126018 0
M  V30 16075 C 1587.65 1.30537 1.35431 0
M  V30 16076 O 1587.01 0.344178 1.78003 0
M  V30 16077 C 1587.06 3.58101 0.4238 0
M  V30 16078 O 1586.16 3.83772 1.50973 0
M  V30 16079 H 1585.5 0.664 0.000530178 0
M  V30 16080 H 1588.03 1.94897 -0.622594 0
M  V30 16081 H 1588.04 4.02405 0.673363 0
M  V30 16082 H 1586.72 4.13191 -0.473932 0
M  V30 16083 H 1585.29 3.51329 1.24989 0
M  V30 16084 N 1587.48 0.171848 1.5666 0
M  V30 16085 C 1588.76 -0.519355 1.88579 0
M  V30 16086 C 1589.14 -1.81273 1.08182 0
M  V30 16087 O 1588.48 -2.27822 0.175895 0
M  V30 16088 C 1588.69 -0.760743 3.40608 0
M  V30 16089 C 1590.04 -1.09051 4.10357 0
M  V30 16090 O 1591.07 -0.849264 3.45928 0
M  V30 16091 O 1589.93 -1.54566 5.24187 0
M  V30 16092 H 1587.02 -0.267782 0.782446 0
M  V30 16093 H 1589.57 0.210323 1.68392 0
M  V30 16094 H 1588.34 0.153577 3.90999 0
M  V30 16095 H 1587.96 -1.54372 3.66408 0
M  V30 16096 N 1588.96 -1.5727 -0.101874 0
M  V30 16097 C 1589.87 -2.04896 -1.14257 0
M  V30 16098 C 1590.88 -0.972561 -1.44282 0
M  V30 16099 O 1592.06 -1.28526 -1.55058 0
M  V30 16100 C 1589.12 -2.45818 -2.44488 0
M  V30 16101 C 1588.19 -3.6762 -2.21707 0
M  V30 16102 C 1587.42 -4.06581 -3.45728 0
M  V30 16103 O 1587.64 -3.45702 -4.53703 0
M  V30 16104 O 1586.58 -4.99578 -3.35716 0
M  V30 16105 H 1590.4 -2.93827 -0.768085 0
M  V30 16106 H 1587.99 -1.46065 -0.313902 0
M  V30 16107 H 1589.87 -2.72796 -3.21186 0
M  V30 16108 H 1588.54 -1.60028 -2.81377 0
M  V30 16109 H 1587.45 -3.45768 -1.42812 0
M  V30 16110 H 1588.78 -4.54169 -1.89714 0
M  V30 16111 N 1590.44 0.372521 -1.53134 0
M  V30 16112 C 1591.68 1.11368 -1.68646 0
M  V30 16113 C 1592 1.90034 -0.437275 0
M  V30 16114 O 1591.27 1.88062 0.548593 0
M  V30 16115 H 1589.85 0.414129 -0.621696 0
M  V30 16116 H 1592.52 0.42082 -1.90303 0
M  V30 16117 H 1591.61 1.80738 -2.54441 0
M  V30 16118 N 1591.91 1.44376 0.631925 0
M  V30 16119 C 1592.88 1.50825 1.72582 0
M  V30 16120 C 1593.88 0.390379 1.55989 0
M  V30 16121 O 1595.07 0.65297 1.61499 0
M  V30 16122 C 1592.2 1.38141 3.11657 0
M  V30 16123 H 1593.39 2.48265 1.68239 0
M  V30 16124 H 1590.94 1.31456 0.845514 0
M  V30 16125 H 1591.68 0.417905 3.21596 0
M  V30 16126 H 1591.46 2.19198 3.25107 0
M  V30 16127 H 1592.95 1.45633 3.91383 0
M  V30 16128 N 1593.39 -0.872258 1.31261 0
M  V30 16129 C 1594.32 -1.99517 1.21306 0
M  V30 16130 C 1595.3 -1.69801 0.100775 0
M  V30 16131 O 1596.49 -1.92098 0.284984 0
M  V30 16132 C 1593.62 -3.34968 0.917249 0
M  V30 16133 C 1592.57 -3.78984 1.98885 0
M  V30 16134 C 1591.9 -5.11869 1.54578 0
M  V30 16135 C 1593.2 -3.96338 3.40167 0
M  V30 16136 H 1594.89 -2.08104 2.15251 0
M  V30 16137 H 1592.44 -0.999865 1.03628 0
M  V30 16138 H 1594.39 -4.1306 0.834217 0
M  V30 16139 H 1593.11 -3.26549 -0.0578721 0
M  V30 16140 H 1591.77 -3.0313 2.06174 0
M  V30 16141 H 1591.42 -4.99889 0.558581 0
M  V30 16142 H 1591.12 -5.4229 2.26265 0
M  V30 16143 H 1592.65 -5.92472 1.47678 0
M  V30 16144 H 1594.06 -4.64831 3.35566 0
M  V30 16145 H 1592.46 -4.38153 4.10051 0
M  V30 16146 H 1593.53 -2.9979 3.81122 0
M  V30 16147 N 1594.87 -1.14184 -1.08627 0
M  V30 16148 C 1595.8 -0.849455 -2.17501 0
M  V30 16149 C 1596.78 0.194617 -1.68983 0
M  V30 16150 O 1597.97 0.0517757 -1.94131 0
M  V30 16151 C 1595.1 -0.323685 -3.45788 0
M  V30 16152 C 1594.05 -1.30294 -4.07685 0
M  V30 16153 C 1593.38 -0.636575 -5.30897 0
M  V30 16154 C 1594.68 -2.66441 -4.49229 0
M  V30 16155 H 1596.37 -1.75987 -2.42217 0
M  V30 16156 H 1593.92 -0.847595 -1.16412 0
M  V30 16157 H 1595.87 -0.106754 -4.21265 0
M  V30 16158 H 1594.59 0.62215 -3.20619 0
M  V30 16159 H 1593.25 -1.50601 -3.34238 0
M  V30 16160 H 1592.9 0.314995 -5.02013 0
M  V30 16161 H 1592.6 -1.28998 -5.73266 0
M  V30 16162 H 1594.12 -0.429117 -6.0909 0
M  V30 16163 H 1595.54 -2.50055 -5.15893 0
M  V30 16164 H 1593.93 -3.28033 -5.02508 0
M  V30 16165 H 1595 -3.23486 -3.61226 0
M  V30 16166 N 1596.35 1.26749 -0.936613 0
M  V30 16167 C 1597.63 1.89106 -0.49981 0
M  V30 16168 C 1598.01 1.84687 1.02244 0
M  V30 16169 O 1597.35 1.2981 1.88047 0
M  V30 16170 C 1597.56 3.32641 -1.05598 0
M  V30 16171 C 1598.91 4.09511 -1.12187 0
M  V30 16172 O 1599.94 3.41692 -1.00624 0
M  V30 16173 O 1598.79 5.30785 -1.30113 0
M  V30 16174 H 1595.89 0.810941 -0.162185 0
M  V30 16175 H 1598.43 1.34952 -1.02888 0
M  V30 16176 H 1597.21 3.30196 -2.09968 0
M  V30 16177 H 1596.83 3.94327 -0.509086 0
M  V30 16178 N 1597.83 0.703118 1.41046 0
M  V30 16179 C 1598.76 0.00331992 2.292 0
M  V30 16180 C 1599.77 -0.736648 1.4518 0
M  V30 16181 O 1600.96 -0.586097 1.68604 0
M  V30 16182 C 1598.06 -1.01948 3.23203 0
M  V30 16183 C 1597.23 -0.347591 4.36017 0
M  V30 16184 C 1596.29 -1.27404 5.10543 0
M  V30 16185 O 1595.32 -0.763558 5.64055 0
M  V30 16186 N 1596.52 -2.60596 5.1872 0
M  V30 16187 H 1599.29 0.760179 2.89899 0
M  V30 16188 H 1596.85 0.549747 1.52281 0
M  V30 16189 H 1598.84 -1.64115 3.6993 0
M  V30 16190 H 1597.41 -1.6778 2.63758 0
M  V30 16191 H 1596.63 0.454088 3.91576 0
M  V30 16192 H 1597.92 0.119295 5.0866 0
M  V30 16193 H 1597.31 -3.0458 4.76705 0
M  V30 16194 H 1595.87 -3.17939 5.68998 0
M  V30 16195 N 1599.3 -1.51086 0.448402 0
M  V30 16196 C 1600.23 -2.30896 -0.347773 0
M  V30 16197 C 1601.22 -1.36792 -1.01104 0
M  V30 16198 O 1602.4 -1.65713 -1.01257 0
M  V30 16199 C 1599.53 -3.15901 -1.44304 0
M  V30 16200 C 1598.48 -4.18373 -0.90265 0
M  V30 16201 C 1597.81 -4.9197 -2.0945 0
M  V30 16202 C 1599.11 -5.22252 0.0705335 0
M  V30 16203 H 1600.8 -2.97704 0.318273 0
M  V30 16204 H 1598.35 -1.43169 0.154509 0
M  V30 16205 H 1600.3 -3.70519 -2.00733 0
M  V30 16206 H 1599.03 -2.46935 -2.13753 0
M  V30 16207 H 1597.69 -3.64823 -0.3605 0
M  V30 16208 H 1597.33 -4.19497 -2.77545 0
M  V30 16209 H 1597.03 -5.6127 -1.73926 0
M  V30 16210 H 1598.56 -5.49415 -2.66412 0
M  V30 16211 H 1599.97 -5.71876 -0.403814 0
M  V30 16212 H 1598.37 -5.99142 0.338905 0
M  V30 16213 H 1599.44 -4.74398 1.00373 0
M  V30 16214 N 1600.78 -0.180154 -1.56567 0
M  V30 16215 C 1602.01 0.467861 -2.01233 0
M  V30 16216 C 1602.42 1.56754 -1.05948 0
M  V30 16217 O 1601.76 1.83621 -0.0539219 0
M  V30 16218 C 1601.83 1.09819 -3.42316 0
M  V30 16219 C 1601.49 0.139084 -4.56788 0
M  V30 16220 C 1602.49 -0.64592 -5.15872 0
M  V30 16221 C 1600.17 0.0323422 -5.0229 0
M  V30 16222 C 1602.17 -1.52478 -6.18894 0
M  V30 16223 C 1599.85 -0.850092 -6.05158 0
M  V30 16224 C 1600.85 -1.62723 -6.63333 0
M  V30 16225 O 1600.54 -2.4949 -7.64205 0
M  V30 16226 H 1600.27 0.12331 -0.664658 0
M  V30 16227 H 1602.82 -0.28166 -2.0346 0
M  V30 16228 H 1601.05 1.89601 -3.37029 0
M  V30 16229 H 1602.74 1.64931 -3.70881 0
M  V30 16230 H 1603.51 -0.573675 -4.81595 0
M  V30 16231 H 1599.39 0.627034 -4.56716 0
M  V30 16232 H 1602.93 -2.13182 -6.64228 0
M  V30 16233 H 1598.83 -0.923507 -6.3886 0
M  V30 16234 H 1599.6 -2.43104 -7.81564 0
M  V30 16235 N 1602.26 1.57322 0.0935319 0
M  V30 16236 C 1603.19 2.05208 1.11409 0
M  V30 16237 C 1604.17 0.941295 1.41681 0
M  V30 16238 O 1605.36 1.21266 1.51684 0
M  V30 16239 C 1602.49 2.47782 2.43354 0
M  V30 16240 C 1601.44 3.62538 2.27486 0
M  V30 16241 C 1600.77 3.91095 3.64622 0
M  V30 16242 C 1602.07 4.93371 1.71412 0
M  V30 16243 H 1603.76 2.9072 0.715702 0
M  V30 16244 H 1601.31 1.3986 0.342827 0
M  V30 16245 H 1603.26 2.79891 3.15022 0
M  V30 16246 H 1601.98 1.59272 2.85132 0
M  V30 16247 H 1600.64 3.30679 1.58263 0
M  V30 16248 H 1600.29 2.99749 4.0393 0
M  V30 16249 H 1599.99 4.68353 3.5485 0
M  V30 16250 H 1601.51 4.25679 4.37755 0
M  V30 16251 H 1602.93 5.23851 2.32922 0
M  V30 16252 H 1601.33 5.74804 1.72395 0
M  V30 16253 H 1602.4 4.80197 0.67368 0
M  V30 16254 N 1603.74 -0.364395 1.53329 0
M  V30 16255 C 1604.7 -1.42927 1.79178 0
M  V30 16256 C 1605.7 -1.4653 0.662235 0
M  V30 16257 O 1606.89 -1.4727 0.930442 0
M  V30 16258 C 1604.02 -2.82035 1.91492 0
M  V30 16259 H 1605.22 -1.21281 2.74283 0
M  V30 16260 H 1602.77 -0.597596 1.44425 0
M  V30 16261 H 1603.5 -3.08993 0.984579 0
M  V30 16262 H 1603.29 -2.80818 2.73649 0
M  V30 16263 H 1604.78 -3.59148 2.13078 0
M  V30 16264 N 1605.22 -1.44709 -0.62426 0
M  V30 16265 C 1606.15 -1.54934 -1.74693 0
M  V30 16266 C 1607.13 -0.401897 -1.65284 0
M  V30 16267 O 1608.31 -0.622906 -1.83939 0
M  V30 16268 C 1605.44 -1.49976 -3.13248 0
M  V30 16269 C 1604.4 -2.63267 -3.37453 0
M  V30 16270 C 1603.72 -2.43362 -4.76108 0
M  V30 16271 C 1605.02 -4.0538 -3.2934 0
M  V30 16272 H 1606.72 -2.48905 -1.66393 0
M  V30 16273 H 1604.26 -1.19794 -0.799088 0
M  V30 16274 H 1606.22 -1.55729 -3.91569 0
M  V30 16275 H 1604.94 -0.525254 -3.22349 0
M  V30 16276 H 1603.6 -2.56915 -2.61515 0
M  V30 16277 H 1603.25 -1.44088 -4.81921 0
M  V30 16278 H 1602.95 -3.19324 -4.93261 0
M  V30 16279 H 1604.47 -2.50943 -5.56651 0
M  V30 16280 H 1605.88 -4.13064 -3.97556 0
M  V30 16281 H 1604.28 -4.81599 -3.58025 0
M  V30 16282 H 1605.35 -4.28465 -2.27038 0
M  V30 16283 N 1606.69 0.865285 -1.31722 0
M  V30 16284 C 1608.11 1.15179 -1.10481 0
M  V30 16285 C 1608.31 2.01132 0.121667 0
M  V30 16286 O 1607.37 2.39167 0.809645 0
M  V30 16287 C 1608.68 1.8394 -2.3788 0
M  V30 16288 C 1610.23 1.96621 -2.43535 0
M  V30 16289 C 1610.7 2.68796 -3.70827 0
M  V30 16290 N 1612.19 2.76329 -3.71748 0
M  V30 16291 C 1612.93 3.32798 -4.6694 0
M  V30 16292 N 1612.42 3.90162 -5.7249 0
M  V30 16293 N 1614.22 3.30801 -4.54453 0
M  V30 16294 H 1606.37 0.292632 -2.10374 0
M  V30 16295 H 1608.63 0.192252 -0.928301 0
M  V30 16296 H 1608.34 1.28233 -3.27489 0
M  V30 16297 H 1608.21 2.84182 -2.48034 0
M  V30 16298 H 1610.6 2.5149 -1.54392 0
M  V30 16299 H 1610.68 0.954071 -2.37342 0
M  V30 16300 H 1610.32 2.14593 -4.60339 0
M  V30 16301 H 1610.25 3.70427 -3.74288 0
M  V30 16302 H 1612.74 2.35621 -2.95451 0
M  V30 16303 H 1613.06 4.31376 -6.41198 0
M  V30 16304 H 1611.4 3.88525 -5.76258 0
M  V30 16305 H 1614.59 2.85227 -3.71165 0
M  V30 16306 H 1614.77 3.74511 -5.28815 0
M  V30 16307 N 1608.17 1.14759 1.0802 0
M  V30 16308 C 1609.12 0.833824 2.17141 0
M  V30 16309 C 1610.11 -0.189939 1.68332 0
M  V30 16310 O 1611.32 -0.0456447 1.79942 0
M  V30 16311 H 1607.7 0.251944 0.70854 0
M  V30 16312 H 1609.67 1.76196 2.40827 0
M  V30 16313 C 1608.42 0.33203 3.46111 0
M  V30 16314 H 1607.74 1.11117 3.84048 0
M  V30 16315 H 1609.18 0.151078 4.23731 0
M  V30 16316 C 1607.64 -0.945153 3.2337 0
M  V30 16317 O 1608.17 -2.0181 3.47326 0
M  V30 16318 N 1606.37 -0.881963 2.76893 0
M  V30 16319 H 1605.92 -0.00865768 2.57599 0
M  V30 16320 H 1605.88 -1.73706 2.62056 0
M  V30 16321 N 1609.65 -1.26251 0.943322 0
M  V30 16322 C 1610.9 -1.93652 0.592032 0
M  V30 16323 C 1611.23 -1.73996 -0.869234 0
M  V30 16324 O 1610.48 -1.07165 -1.6375 0
M  V30 16325 C 1610.78 -3.46316 0.883167 0
M  V30 16326 C 1610.45 -3.86115 2.32866 0
M  V30 16327 C 1609.11 -3.9669 2.72379 0
M  V30 16328 C 1611.46 -4.06025 3.26792 0
M  V30 16329 C 1608.79 -4.24575 4.04911 0
M  V30 16330 C 1611.14 -4.35399 4.58923 0
M  V30 16331 C 1609.8 -4.4419 4.98248 0
M  V30 16332 H 1609.07 -0.708624 0.21664 0
M  V30 16333 H 1611.72 -1.50019 1.19023 0
M  V30 16334 H 1610.03 -3.91277 0.202452 0
M  V30 16335 H 1611.72 -3.96634 0.590108 0
M  V30 16336 H 1608.31 -3.78431 2.01217 0
M  V30 16337 H 1612.5 -3.9728 2.9746 0
M  V30 16338 H 1607.75 -4.29594 4.35039 0
M  V30 16339 H 1611.93 -4.49751 5.31692 0
M  V30 16340 H 1609.55 -4.65551 6.00971 0
M  V30 16341 N 1611.13 -0.710588 -1.40671 0
M  V30 16342 C 1612.41 -0.175319 -1.94813 0
M  V30 16343 C 1612.79 1.31792 -1.64906 0
M  V30 16344 O 1612.13 2.07167 -0.964058 0
M  V30 16345 C 1612.34 -0.482691 -3.45646 0
M  V30 16346 C 1613.69 -0.418619 -4.22531 0
M  V30 16347 O 1614.72 -0.418463 -3.53733 0
M  V30 16348 O 1613.58 -0.391787 -5.45094 0
M  V30 16349 H 1610.67 -0.0237744 -0.826658 0
M  V30 16350 H 1613.22 -0.787778 -1.50307 0
M  V30 16351 H 1611.99 -1.51569 -3.60753 0
M  V30 16352 H 1611.61 0.159984 -3.97278 0
M  V30 16353 N 1612.61 1.50847 -0.456408 0
M  V30 16354 C 1613.86 2.01835 0.103414 0
M  V30 16355 C 1614.18 1.34142 1.4153 0
M  V30 16356 O 1613.45 0.482015 1.89877 0
M  V30 16357 H 1612.03 0.745863 0.0412074 0
M  V30 16358 H 1614.69 1.85322 -0.603477 0
M  V30 16359 H 1613.78 3.10968 0.265562 0
M  V30 16360 N 1614.09 0.188454 1.56469 0
M  V30 16361 C 1615.02 -0.730379 2.21783 0
M  V30 16362 C 1616 -1.22629 1.17882 0
M  V30 16363 O 1617.18 -1.27634 1.46367 0
M  V30 16364 C 1614.31 -1.95278 2.872 0
M  V30 16365 C 1613.27 -1.59205 3.97288 0
M  V30 16366 C 1612.59 -2.89052 4.49836 0
M  V30 16367 C 1613.89 -0.807027 5.16027 0
M  V30 16368 H 1615.59 -0.185914 2.98822 0
M  V30 16369 H 1613.13 -0.0879804 1.43731 0
M  V30 16370 H 1615.08 -2.60074 3.31571 0
M  V30 16371 H 1613.81 -2.52167 2.07556 0
M  V30 16372 H 1612.47 -0.967713 3.53597 0
M  V30 16373 H 1612.12 -3.44017 3.66963 0
M  V30 16374 H 1611.82 -2.65663 5.24115 0
M  V30 16375 H 1613.34 -3.54847 4.96906 0
M  V30 16376 H 1614.75 -1.35794 5.56986 0
M  V30 16377 H 1613.15 -0.671516 5.96331 0
M  V30 16378 H 1614.22 0.193251 4.84515 0
M  V30 16379 N 1615.56 -1.5737 -0.0851874 0
M  V30 16380 C 1616.47 -2.06097 -1.12078 0
M  V30 16381 C 1617.49 -0.987809 -1.43242 0
M  V30 16382 O 1618.67 -1.30163 -1.53686 0
M  V30 16383 C 1615.73 -2.48397 -2.41867 0
M  V30 16384 C 1614.79 -3.69951 -2.17795 0
M  V30 16385 C 1614.02 -4.10225 -3.41396 0
M  V30 16386 O 1614.25 -3.50495 -4.5001 0
M  V30 16387 O 1613.18 -5.03111 -3.30399 0
M  V30 16388 H 1617.01 -2.94625 -0.736877 0
M  V30 16389 H 1614.59 -1.4639 -0.298392 0
M  V30 16390 H 1616.47 -2.76187 -3.18274 0
M  V30 16391 H 1615.15 -1.63003 -2.79664 0
M  V30 16392 H 1614.06 -3.47263 -1.39136 0
M  V30 16393 H 1615.39 -4.56156 -1.84886 0
M  V30 16394 N 1617.04 0.356258 -1.53521 0
M  V30 16395 C 1617.95 1.46055 -1.83589 0
M  V30 16396 C 1618.97 1.58176 -0.724997 0
M  V30 16397 O 1620.14 1.73894 -1.01601 0
M  V30 16398 C 1617.21 2.81207 -2.0279 0
M  V30 16399 C 1616.27 2.78535 -3.26675 0
M  V30 16400 C 1615.5 4.07241 -3.4495 0
M  V30 16401 O 1615.73 5.03879 -2.67324 0
M  V30 16402 O 1614.66 4.12485 -4.38337 0
M  V30 16403 H 1618.49 1.23566 -2.77426 0
M  V30 16404 H 1616.07 0.547243 -1.39017 0
M  V30 16405 H 1617.95 3.61271 -2.16936 0
M  V30 16406 H 1616.63 3.03654 -1.12143 0
M  V30 16407 H 1615.53 1.97137 -3.17943 0
M  V30 16408 H 1616.87 2.61042 -4.17274 0
M  V30 16409 N 1618.52 1.45038 0.616577 0
M  V30 16410 C 1619.77 1.47861 1.37186 0
M  V30 16411 C 1620.08 0.120862 1.95226 0
M  V30 16412 O 1621.29 0.0266872 2.71487 0
M  V30 16413 C 1619.74 2.6038 2.48455 0
M  V30 16414 C 1619.35 4.02428 1.96866 0
M  V30 16415 C 1621.1 2.7244 3.25541 0
M  V30 16416 C 1619 5.06345 3.05563 0
M  V30 16417 H 1617.93 0.550166 0.51559 0
M  V30 16418 H 1620.58 1.71151 0.661796 0
M  V30 16419 H 1618.97 2.30357 3.22105 0
M  V30 16420 H 1620.14 4.42087 1.29985 0
M  V30 16421 H 1618.45 3.94739 1.32552 0
M  V30 16422 H 1621.05 3.47248 4.06599 0
M  V30 16423 H 1621.39 1.7876 3.75966 0
M  V30 16424 H 1621.93 3.01944 2.58988 0
M  V30 16425 H 1618.67 6.01703 2.60065 0
M  V30 16426 H 1618.19 4.71264 3.7104 0
M  V30 16427 H 1619.87 5.30695 3.70097 0
M  V30 16428 N 1620 -0.858287 1.32179 0
M  V30 16429 C 1621.27 -1.59548 1.13154 0
M  V30 16430 C 1621.65 -2.0882 -0.309439 0
M  V30 16431 O 1621 -1.87536 -1.30547 0
M  V30 16432 C 1621.21 -2.74443 2.15597 0
M  V30 16433 C 1622.56 -3.44115 2.48737 0
M  V30 16434 O 1623.58 -2.84664 2.14114 0
M  V30 16435 O 1622.44 -4.51389 3.08074 0
M  V30 16436 H 1619.54 -0.702481 0.436405 0
M  V30 16437 H 1622.08 -0.902731 1.43697 0
M  V30 16438 H 1620.86 -2.35533 3.12473 0
M  V30 16439 H 1620.48 -3.51397 1.86028 0
M  V30 16440 N 1621.48 -1.1533 -1.07409 0
M  V30 16441 C 1622.89 -0.895817 -1.32088 0
M  V30 16442 C 1623.09 0.457526 -1.96237 0
M  V30 16443 O 1622.15 1.19958 -2.22185 0
M  V30 16444 C 1623.46 -2.03632 -2.21256 0
M  V30 16445 C 1625.01 -2.07079 -2.34707 0
M  V30 16446 C 1625.48 -3.20451 -3.27223 0
M  V30 16447 N 1626.97 -3.20095 -3.34804 0
M  V30 16448 C 1627.71 -4.04458 -4.0645 0
M  V30 16449 N 1627.21 -4.98883 -4.80715 0
M  V30 16450 N 1629 -3.92483 -4.02385 0
M  V30 16451 H 1621.15 -2.02478 -0.641578 0
M  V30 16452 H 1623.41 -0.882864 -0.345332 0
M  V30 16453 H 1623.12 -3.0132 -1.81381 0
M  V30 16454 H 1622.99 -1.96817 -3.21781 0
M  V30 16455 H 1625.38 -1.09991 -2.73836 0
M  V30 16456 H 1625.46 -2.17962 -1.3389 0
M  V30 16457 H 1625.1 -4.17791 -2.88813 0
M  V30 16458 H 1625.03 -3.06805 -4.27993 0
M  V30 16459 H 1627.53 -2.51712 -2.81868 0
M  V30 16460 H 1627.84 -5.59698 -5.32877 0
M  V30 16461 H 1626.18 -5.02872 -4.79734 0
M  V30 16462 H 1629.37 -3.18026 -3.43478 0
M  V30 16463 H 1629.55 -4.58454 -4.57956 0
M  V30 16464 N 1622.95 1.25748 -0.950004 0
M  V30 16465 C 1623.92 2.24307 -0.47106 0
M  V30 16466 C 1624.92 1.55145 0.422704 0
M  V30 16467 O 1626.11 1.72797 0.220642 0
M  V30 16468 C 1623.24 3.39395 0.319979 0
M  V30 16469 H 1624.43 2.68192 -1.34214 0
M  V30 16470 H 1621.98 1.38056 -0.732827 0
M  V30 16471 H 1622.72 3.00925 1.20892 0
M  V30 16472 H 1622.5 3.90783 -0.321157 0
M  V30 16473 H 1623.99 4.12594 0.644697 0
M  V30 16474 N 1624.43 0.718038 1.40292 0
M  V30 16475 C 1625.36 0.0818367 2.33357 0
M  V30 16476 C 1626.34 -0.742854 1.53022 0
M  V30 16477 O 1627.53 -0.691281 1.8148 0
M  V30 16478 C 1624.66 -0.838843 3.37017 0
M  V30 16479 C 1623.61 -0.119589 4.27833 0
M  V30 16480 C 1622.94 -1.15615 5.22051 0
M  V30 16481 C 1624.24 1.02769 5.1209 0
M  V30 16482 H 1625.93 0.859167 2.86808 0
M  V30 16483 H 1623.48 0.414606 1.37902 0
M  V30 16484 H 1625.43 -1.29332 4.01063 0
M  V30 16485 H 1624.15 -1.6481 2.81967 0
M  V30 16486 H 1622.81 0.315088 3.65243 0
M  V30 16487 H 1622.46 -1.95852 4.63304 0
M  V30 16488 H 1622.16 -0.679767 5.83655 0
M  V30 16489 H 1623.69 -1.61068 5.88973 0
M  V30 16490 H 1625.1 0.652461 5.69575 0
M  V30 16491 H 1623.5 1.4326 5.82749 0
M  V30 16492 H 1624.57 1.85723 4.47923 0
M  V30 16493 N 1625.91 -1.50602 0.464402 0
M  V30 16494 C 1627.16 -2.01887 -0.0927084 0
M  V30 16495 C 1627.48 -1.34891 -1.40817 0
M  V30 16496 O 1626.75 -0.492078 -1.89619 0
M  V30 16497 H 1625.33 -0.746071 -0.0372514 0
M  V30 16498 H 1627.99 -1.84999 0.613296 0
M  V30 16499 H 1627.09 -3.11105 -0.249067 0
M  V30 16500 N 1627.39 -0.19675 -1.56367 0
M  V30 16501 C 1628.64 0.441807 -1.96802 0
M  V30 16502 C 1628.95 1.62645 -1.08656 0
M  V30 16503 O 1630.16 2.33291 -1.3888 0
M  V30 16504 C 1628.61 0.837415 -3.50022 0
M  V30 16505 C 1628.22 -0.323031 -4.46834 0
M  V30 16506 C 1629.96 1.44296 -3.99223 0
M  V30 16507 C 1627.87 0.0936285 -5.91326 0
M  V30 16508 H 1626.8 0.168834 -0.734854 0
M  V30 16509 H 1629.45 -0.289029 -1.81209 0
M  V30 16510 H 1627.83 1.62497 -3.61124 0
M  V30 16511 H 1629.01 -1.10056 -4.47464 0
M  V30 16512 H 1627.32 -0.840182 -4.07836 0
M  V30 16513 H 1629.92 1.76718 -5.04653 0
M  V30 16514 H 1630.26 2.35003 -3.43627 0
M  V30 16515 H 1630.8 0.71935 -3.91242 0
M  V30 16516 H 1627.54 -0.779297 -6.50851 0
M  V30 16517 H 1627.06 0.835984 -5.93946 0
M  V30 16518 H 1628.73 0.528864 -6.44835 0
M  V30 16519 N 1628.87 1.57413 0.0768405 0
M  V30 16520 C 1630.28 1.75776 0.629262 0
M  V30 16521 C 1630.63 0.821502 1.78173 0
M  V30 16522 O 1629.75 0.00437198 2.164 0
M  V30 16523 C 1630.35 3.18747 1.14828 0
M  V30 16524 C 1628.91 3.38472 1.64661 0
M  V30 16525 C 1628.05 2.71506 0.563884 0
M  V30 16526 H 1631.01 1.57996 -0.149312 0
M  V30 16527 H 1631.03 3.22628 2.01722 0
M  V30 16528 H 1630.54 3.86866 0.309282 0
M  V30 16529 H 1628.64 2.75461 2.50903 0
M  V30 16530 H 1628.75 4.4689 1.72703 0
M  V30 16531 H 1627.12 2.33917 1.00772 0
M  V30 16532 H 1627.9 3.42277 -0.264847 0
M  V30 16533 N 1630.34 -0.348112 1.53707 0
M  V30 16534 C 1631.25 -1.45079 1.84361 0
M  V30 16535 C 1632.27 -1.5779 0.733375 0
M  V30 16536 O 1633.45 -1.73353 1.02522 0
M  V30 16537 C 1630.51 -2.80127 2.04278 0
M  V30 16538 C 1629.57 -2.76799 3.28148 0
M  V30 16539 C 1628.81 -4.05406 3.47105 0
M  V30 16540 O 1629.03 -5.02454 2.69992 0
M  V30 16541 O 1627.96 -4.10155 4.40519 0
M  V30 16542 H 1631.79 -1.22093 2.78077 0
M  V30 16543 H 1629.37 -0.539863 1.39305 0
M  V30 16544 H 1631.26 -3.60115 2.18849 0
M  V30 16545 H 1629.93 -3.03055 1.13751 0
M  V30 16546 H 1628.84 -1.95448 3.18984 0
M  V30 16547 H 1630.17 -2.58826 4.18653 0
M  V30 16548 N 1631.82 -1.45363 -0.608876 0
M  V30 16549 C 1632.75 -1.56778 -1.7304 0
M  V30 16550 C 1633.73 -0.419405 -1.64848 0
M  V30 16551 O 1634.92 -0.64238 -1.83268 0
M  V30 16552 C 1632.05 -1.5329 -3.1164 0
M  V30 16553 C 1631 -2.66832 -3.34641 0
M  V30 16554 C 1630.33 -2.48398 -4.735 0
M  V30 16555 C 1631.63 -4.0885 -3.25021 0
M  V30 16556 H 1633.32 -2.50656 -1.63743 0
M  V30 16557 H 1630.87 -1.20635 -0.786338 0
M  V30 16558 H 1632.82 -1.59873 -3.89895 0
M  V30 16559 H 1631.55 -0.559414 -3.21773 0
M  V30 16560 H 1630.2 -2.59675 -2.58775 0
M  V30 16561 H 1629.85 -1.49191 -4.80366 0
M  V30 16562 H 1629.55 -3.24537 -4.89846 0
M  V30 16563 H 1631.08 -2.56833 -5.53958 0
M  V30 16564 H 1632.49 -4.17257 -3.93153 0
M  V30 16565 H 1630.89 -4.85369 -3.52897 0
M  V30 16566 H 1631.96 -4.30849 -2.2248 0
M  V30 16567 N 1633.3 0.851265 -1.32632 0
M  V30 16568 C 1634.55 1.60807 -1.23568 0
M  V30 16569 C 1634.88 1.93155 0.201238 0
M  V30 16570 O 1634.15 1.5764 1.13929 0
M  V30 16571 C 1634.44 2.92619 -2.09872 0
M  V30 16572 C 1634.29 2.67031 -3.61959 0
M  V30 16573 C 1635.61 3.93924 -1.96244 0
M  V30 16574 H 1632.73 0.583492 -0.450229 0
M  V30 16575 H 1635.37 0.98273 -1.62611 0
M  V30 16576 H 1633.52 3.45988 -1.76704 0
M  V30 16577 H 1635.19 2.2019 -4.05357 0
M  V30 16578 H 1633.44 2.00938 -3.84456 0
M  V30 16579 H 1634.11 3.60902 -4.17676 0
M  V30 16580 H 1636.58 3.49823 -2.25307 0
M  V30 16581 H 1635.46 4.84005 -2.58902 0
M  V30 16582 H 1635.72 4.32185 -0.931065 0
M  V30 16583 N 1634.78 1.15898 1.06796 0
M  V30 16584 C 1636 0.961859 1.83747 0
M  V30 16585 C 1636.43 -0.48494 1.81741 0
M  V30 16586 O 1635.79 -1.3461 1.21449 0
M  V30 16587 C 1635.83 1.48764 3.28484 0
M  V30 16588 O 1634.94 0.690576 4.06577 0
M  V30 16589 H 1634.28 0.342664 0.568751 0
M  V30 16590 H 1636.81 1.54015 1.34687 0
M  V30 16591 H 1636.82 1.50291 3.79311 0
M  V30 16592 H 1635.49 2.54089 3.29259 0
M  V30 16593 H 1634.07 0.74539 3.65374 0
M  V30 16594 N 1636.26 -1.25243 0.956659 0
M  V30 16595 C 1637.19 -2.25019 0.435795 0
M  V30 16596 C 1638.2 -1.56473 -0.449435 0
M  V30 16597 O 1639.39 -1.76635 -0.257386 0
M  V30 16598 C 1636.49 -3.36634 -0.391226 0
M  V30 16599 C 1635.66 -4.34742 0.481483 0
M  V30 16600 C 1634.72 -5.25413 -0.287678 0
M  V30 16601 O 1633.75 -5.6833 0.314618 0
M  V30 16602 N 1634.95 -5.58578 -1.58023 0
M  V30 16603 H 1637.72 -2.70344 1.2936 0
M  V30 16604 H 1635.28 -1.3917 0.827245 0
M  V30 16605 H 1637.27 -3.94254 -0.913552 0
M  V30 16606 H 1635.84 -2.90682 -1.14991 0
M  V30 16607 H 1635.06 -3.75971 1.18489 0
M  V30 16608 H 1636.35 -4.97269 1.07707 0
M  V30 16609 H 1635.74 -5.25618 -2.09146 0
M  V30 16610 H 1634.3 -6.18774 -2.04848 0
M  V30 16611 N 1637.73 -0.725468 -1.3991 0
M  V30 16612 C 1638.96 -0.277821 -2.05531 0
M  V30 16613 C 1639.38 1.07547 -1.54322 0
M  V30 16614 O 1638.74 1.6795 -0.682828 0
M  V30 16615 C 1638.79 -0.278676 -3.59522 0
M  V30 16616 O 1637.89 0.736864 -4.05764 0
M  V30 16617 H 1637.24 -0.128243 -0.651498 0
M  V30 16618 H 1639.77 -0.988721 -1.79124 0
M  V30 16619 H 1639.78 -0.119765 -4.07824 0
M  V30 16620 H 1638.45 -1.2662 -3.96157 0
M  V30 16621 H 1637.03 0.544869 -3.68898 0
M  V30 16622 N 1639.21 1.50354 -0.472382 0
M  V30 16623 C 1640.14 2.26396 0.357429 0
M  V30 16624 C 1641.16 1.31778 0.955949 0
M  V30 16625 O 1642.35 1.57279 0.844136 0
M  V30 16626 C 1639.45 3.03131 1.51542 0
M  V30 16627 C 1638.62 4.25113 1.02945 0
M  V30 16628 C 1637.68 4.84131 2.06164 0
M  V30 16629 O 1636.7 5.4501 1.64174 0
M  V30 16630 N 1637.91 4.71244 3.38983 0
M  V30 16631 H 1640.67 2.9825 -0.294473 0
M  V30 16632 H 1638.23 1.59035 -0.303242 0
M  V30 16633 H 1640.22 3.39492 2.20289 0
M  V30 16634 H 1638.79 2.34067 2.07199 0
M  V30 16635 H 1638.01 3.93843 0.167821 0
M  V30 16636 H 1639.3 5.04199 0.682705 0
M  V30 16637 H 1638.7 4.22831 3.75807 0
M  V30 16638 H 1637.26 5.11871 4.03524 0
M  V30 16639 N 1640.69 0.205039 1.56261 0
M  V30 16640 C 1641.65 -0.698166 2.18308 0
M  V30 16641 C 1642.65 -1.13376 1.14029 0
M  V30 16642 O 1643.84 -1.04524 1.39357 0
M  V30 16643 C 1640.98 -1.95438 2.79315 0
M  V30 16644 H 1642.17 -0.157462 2.99486 0
M  V30 16645 H 1639.72 -0.0445849 1.56236 0
M  V30 16646 H 1640.46 -2.53736 2.01962 0
M  V30 16647 H 1640.24 -1.65068 3.55662 0
M  V30 16648 H 1641.73 -2.59824 3.26927 0
M  V30 16649 N 1642.17 -1.57451 -0.0684915 0
M  V30 16650 C 1643.42 -1.87689 -0.768156 0
M  V30 16651 C 1643.75 -0.79776 -1.77058 0
M  V30 16652 O 1643.02 0.191614 -1.93554 0
M  V30 16653 C 1643.31 -3.28587 -1.47319 0
M  V30 16654 C 1643.16 -4.47156 -0.486954 0
M  V30 16655 C 1644.48 -3.67772 -2.41727 0
M  V30 16656 H 1641.6 -0.682642 -0.277793 0
M  V30 16657 H 1644.24 -1.89974 -0.0312968 0
M  V30 16658 H 1642.39 -3.26769 -2.10129 0
M  V30 16659 H 1644.06 -4.61099 0.136189 0
M  V30 16660 H 1642.3 -4.33351 0.197429 0
M  V30 16661 H 1642.98 -5.42533 -1.01795 0
M  V30 16662 H 1645.45 -3.70704 -1.88992 0
M  V30 16663 H 1644.33 -4.6724 -2.88059 0
M  V30 16664 H 1644.59 -2.97882 -3.26679 0
M  V30 16665 N 1643.65 0.339955 -1.5389 0
M  V30 16666 C 1644.92 1.09703 -1.6194 0
M  V30 16667 C 1645.3 2.06401 -0.442907 0
M  V30 16668 O 1644.65 2.21418 0.564477 0
M  V30 16669 C 1644.86 1.8135 -2.98183 0
M  V30 16670 C 1646.21 2.34965 -3.53662 0
M  V30 16671 O 1647.23 1.91442 -3.00381 0
M  V30 16672 O 1646.09 3.14601 -4.46865 0
M  V30 16673 H 1643.19 0.504703 -0.655136 0
M  V30 16674 H 1645.73 0.34116 -1.66235 0
M  V30 16675 H 1644.51 1.10924 -3.75249 0
M  V30 16676 H 1644.13 2.63787 -2.97494 0
M  V30 16677 N 1645.13 1.45684 0.601159 0
M  V30 16678 C 1646.54 1.44423 1.18317 0
M  V30 16679 C 1646.89 0.17524 1.95416 0
M  V30 16680 O 1646.01 -0.722816 2.03971 0
M  V30 16681 C 1646.61 2.61651 2.1523 0
M  V30 16682 C 1645.17 2.6349 2.68793 0
M  V30 16683 C 1644.31 2.36787 1.44317 0
M  V30 16684 H 1647.26 1.53831 0.390108 0
M  V30 16685 H 1647.29 2.36117 2.98377 0
M  V30 16686 H 1646.8 3.53995 1.59088 0
M  V30 16687 H 1644.9 1.7517 3.28856 0
M  V30 16688 H 1645.01 3.62906 3.12787 0
M  V30 16689 H 1643.38 1.86472 1.73494 0
M  V30 16690 H 1644.16 3.31284 0.900327 0
M  V30 16691 N 1646.6 -0.84422 1.33082 0
M  V30 16692 C 1647.51 -1.9858 1.24913 0
M  V30 16693 C 1648.53 -1.73256 0.160708 0
M  V30 16694 O 1649.71 -1.97719 0.383313 0
M  V30 16695 C 1646.77 -3.32471 0.983063 0
M  V30 16696 C 1645.83 -3.70946 2.16096 0
M  V30 16697 C 1645.06 -4.98448 1.90749 0
M  V30 16698 O 1645.29 -5.63953 0.855173 0
M  V30 16699 O 1644.22 -5.34301 2.7714 0
M  V30 16700 H 1648.05 -2.0841 2.20905 0
M  V30 16701 H 1645.63 -0.976447 1.13075 0
M  V30 16702 H 1647.51 -4.12705 0.851612 0
M  V30 16703 H 1646.19 -3.23656 0.053384 0
M  V30 16704 H 1645.1 -2.91244 2.34793 0
M  V30 16705 H 1646.43 -3.8442 3.07379 0
M  V30 16706 N 1648.08 -1.16463 -1.0618 0
M  V30 16707 C 1649.01 -0.829995 -2.13644 0
M  V30 16708 C 1650.03 0.16326 -1.61979 0
M  V30 16709 O 1651.22 -0.0616575 -1.78393 0
M  V30 16710 C 1648.32 -0.215222 -3.38216 0
M  V30 16711 C 1647.49 -1.24886 -4.19192 0
M  V30 16712 C 1646.55 -0.653683 -5.22124 0
M  V30 16713 O 1645.57 -1.32285 -5.53615 0
M  V30 16714 N 1646.78 0.559031 -5.77802 0
M  V30 16715 H 1649.54 -1.75487 -2.42949 0
M  V30 16716 H 1647.1 -1.06212 -1.22191 0
M  V30 16717 H 1649.09 0.196005 -4.04225 0
M  V30 16718 H 1647.66 0.613229 -3.06526 0
M  V30 16719 H 1646.88 -1.83622 -3.48822 0
M  V30 16720 H 1648.17 -1.94639 -4.70099 0
M  V30 16721 H 1647.57 1.12083 -5.54485 0
M  V30 16722 H 1646.13 0.912453 -6.45382 0
M  V30 16723 N 1649.56 1.24734 -0.963288 0
M  V30 16724 C 1650.81 1.92686 -0.622766 0
M  V30 16725 C 1651.13 1.75357 0.841442 0
M  V30 16726 O 1650.39 1.09757 1.62025 0
M  V30 16727 C 1650.69 3.44867 -0.938151 0
M  V30 16728 C 1650.35 3.82361 -2.38979 0
M  V30 16729 C 1649.02 3.92307 -2.78655 0
M  V30 16730 C 1651.37 4.00775 -3.3321 0
M  V30 16731 C 1648.7 4.1808 -4.11614 0
M  V30 16732 C 1651.05 4.28043 -4.65792 0
M  V30 16733 C 1649.71 4.36207 -5.05252 0
M  V30 16734 H 1648.98 0.705088 -0.227886 0
M  V30 16735 H 1651.63 1.48107 -1.21395 0
M  V30 16736 H 1649.93 3.90905 -0.264676 0
M  V30 16737 H 1651.63 3.95645 -0.653134 0
M  V30 16738 H 1648.22 3.75182 -2.07212 0
M  V30 16739 H 1652.41 3.92497 -3.03743 0
M  V30 16740 H 1647.66 4.22619 -4.41818 0
M  V30 16741 H 1651.84 4.41236 -5.3878 0
M  V30 16742 H 1649.46 4.55931 -6.08301 0
M  V30 16743 N 1651.04 0.732878 1.39523 0
M  V30 16744 C 1652.26 0.288717 2.05381 0
M  V30 16745 C 1652.69 -1.06727 1.5489 0
M  V30 16746 O 1652.05 -1.67585 0.691726 0
M  V30 16747 C 1652.09 0.297738 3.59369 0
M  V30 16748 O 1651.2 -0.715335 4.06149 0
M  V30 16749 H 1650.54 0.131696 0.650809 0
M  V30 16750 H 1653.07 0.998206 1.78597 0
M  V30 16751 H 1653.08 0.141391 4.07755 0
M  V30 16752 H 1651.75 1.28719 3.9548 0
M  V30 16753 H 1650.33 -0.525298 3.69182 0
M  V30 16754 N 1652.52 -1.50101 0.480349 0
M  V30 16755 C 1653.74 -2.07278 -0.0710872 0
M  V30 16756 C 1654.17 -1.34082 -1.31923 0
M  V30 16757 O 1653.52 -0.391251 -1.77028 0
M  V30 16758 C 1653.57 -3.59099 -0.328706 0
M  V30 16759 O 1652.68 -3.8764 -1.40745 0
M  V30 16760 H 1652.02 -0.66378 0.0170748 0
M  V30 16761 H 1654.55 -1.93178 0.674049 0
M  V30 16762 H 1654.56 -4.04049 -0.566435 0
M  V30 16763 H 1653.23 -4.11789 0.583316 0
M  V30 16764 H 1651.81 -3.54519 -1.15631 0
M  V30 16765 N 1653.99 -0.213323 -1.5615 0
M  V30 16766 C 1654.93 0.732346 -2.17185 0
M  V30 16767 C 1655.94 1.16357 -1.13864 0
M  V30 16768 O 1657.13 1.09614 -1.40879 0
M  V30 16769 C 1654.23 2.0027 -2.73395 0
M  V30 16770 C 1653.4 1.72836 -4.01804 0
M  V30 16771 C 1652.46 2.84497 -4.4266 0
M  V30 16772 O 1651.49 2.5332 -5.09723 0
M  V30 16773 N 1652.69 4.13268 -4.07663 0
M  V30 16774 H 1655.45 0.210294 -2.98961 0
M  V30 16775 H 1653.01 -0.0320124 -1.61868 0
M  V30 16776 H 1655.01 2.74145 -2.97702 0
M  V30 16777 H 1653.58 2.43546 -1.9597 0
M  V30 16778 H 1652.8 0.826474 -3.85439 0
M  V30 16779 H 1654.08 1.51928 -4.85588 0
M  V30 16780 H 1653.48 4.41444 -3.53756 0
M  V30 16781 H 1652.04 4.83713 -4.36881 0
M  V30 16782 N 1655.47 1.57485 0.0601405 0
M  V30 16783 C 1656.75 1.78904 0.790732 0
M  V30 16784 C 1657.13 0.803802 1.95198 0
M  V30 16785 O 1656.48 -0.16067 2.27934 0
M  V30 16786 C 1656.69 3.25738 1.25282 0
M  V30 16787 C 1658.04 3.89887 1.68147 0
M  V30 16788 O 1659.06 3.297 1.3482 0
M  V30 16789 O 1657.92 4.95796 2.29889 0
M  V30 16790 H 1655.01 0.734623 0.379814 0
M  V30 16791 H 1657.56 1.69654 0.0393151 0
M  V30 16792 H 1656.33 3.89013 0.422442 0
M  V30 16793 H 1655.95 3.39757 2.06521 0
M  V30 16794 N 1656.95 -0.331789 1.54068 0
M  V30 16795 C 1658.18 -1.09484 1.76148 0
M  V30 16796 C 1658.6 -1.81201 0.504772 0
M  V30 16797 O 1657.96 -1.7297 -0.54325 0
M  V30 16798 C 1658.01 -2.07495 2.94921 0
M  V30 16799 O 1657.11 -3.15239 2.65891 0
M  V30 16800 H 1656.45 -0.316071 0.583948 0
M  V30 16801 H 1658.98 -0.378593 2.01067 0
M  V30 16802 H 1658.99 -2.5051 3.22038 0
M  V30 16803 H 1657.67 -1.54696 3.8606 0
M  V30 16804 H 1656.24 -2.76958 2.49697 0
M  V30 16805 N 1658.43 -1.46001 -0.593424 0
M  V30 16806 C 1659.38 -1.56106 -1.72434 0
M  V30 16807 C 1660.37 -0.430155 -1.63848 0
M  V30 16808 O 1661.58 -0.606618 -1.6947 0
M  V30 16809 H 1657.95 -0.490601 -0.569925 0
M  V30 16810 H 1659.92 -2.51214 -1.6104 0
M  V30 16811 C 1658.67 -1.55836 -3.10822 0
M  V30 16812 H 1657.99 -2.42189 -3.18095 0
M  V30 16813 H 1659.43 -1.66962 -3.89743 0
M  V30 16814 C 1657.89 -0.285146 -3.35691 0
M  V30 16815 O 1658.42 0.629115 -3.96743 0
M  V30 16816 N 1656.63 -0.176401 -2.90064 0
M  V30 16817 H 1656.18 -0.921281 -2.40562 0
M  V30 16818 H 1656.13 0.674636 -3.07077 0
M  V30 16819 N 1659.91 0.83715 -1.33527 0
M  V30 16820 C 1661.16 1.58747 -1.24428 0
M  V30 16821 C 1661.47 1.94696 0.187885 0
M  V30 16822 O 1662.67 2.68524 0.400903 0
M  V30 16823 C 1661.13 2.86337 -2.18035 0
M  V30 16824 C 1660.74 2.57745 -3.66431 0
M  V30 16825 C 1662.48 3.6436 -2.17812 0
M  V30 16826 C 1660.39 3.81443 -4.51946 0
M  V30 16827 H 1659.32 0.595749 -0.462168 0
M  V30 16828 H 1661.97 0.922901 -1.58603 0
M  V30 16829 H 1660.35 3.54344 -1.76795 0
M  V30 16830 H 1661.53 1.97939 -4.16121 0
M  V30 16831 H 1659.84 1.93023 -3.68959 0
M  V30 16832 H 1662.44 4.56181 -2.78932 0
M  V30 16833 H 1662.78 3.99414 -1.17364 0
M  V30 16834 H 1663.31 3.03279 -2.57423 0
M  V30 16835 H 1660.05 3.51519 -5.53276 0
M  V30 16836 H 1659.57 4.40582 -4.06998 0
M  V30 16837 H 1661.25 4.49004 -4.65837 0
M  V30 16838 N 1661.38 1.17024 1.05561 0
M  V30 16839 C 1662.32 0.827019 2.12687 0
M  V30 16840 C 1663.3 -0.204573 1.61308 0
M  V30 16841 O 1664.48 -0.0869578 1.88299 0
M  V30 16842 C 1661.61 0.233018 3.37897 0
M  V30 16843 C 1660.65 1.2394 4.08094 0
M  V30 16844 S 1661.49 2.78918 4.57127 0
M  V30 16845 C 1662.64 2.20988 5.8559 0
M  V30 16846 H 1662.87 1.73431 2.41472 0
M  V30 16847 H 1660.41 0.994498 1.18106 0
M  V30 16848 H 1662.37 -0.103221 4.1037 0
M  V30 16849 H 1661.03 -0.652154 3.07255 0
M  V30 16850 H 1660.22 0.772359 4.98047 0
M  V30 16851 H 1659.82 1.5211 3.4167 0
M  V30 16852 H 1662.11 1.58313 6.58744 0
M  V30 16853 H 1663.06 3.0918 6.37035 0
M  V30 16854 H 1663.46 1.64583 5.39975 0
M  V30 16855 N 1662.86 -1.24221 0.969889 0
M  V30 16856 C 1663.79 -2.27619 0.520745 0
M  V30 16857 C 1664.77 -1.64291 -0.440731 0
M  V30 16858 O 1665.96 -1.91265 -0.336381 0
M  V30 16859 C 1663.09 -3.46792 -0.187768 0
M  V30 16860 C 1662.04 -4.22402 0.689945 0
M  V30 16861 C 1661.37 -5.34489 -0.150186 0
M  V30 16862 C 1662.67 -4.83494 1.97562 0
M  V30 16863 H 1664.36 -2.65441 1.38498 0
M  V30 16864 H 1661.91 -1.276 0.667398 0
M  V30 16865 H 1663.86 -4.18263 -0.513216 0
M  V30 16866 H 1662.59 -3.08002 -1.08637 0
M  V30 16867 H 1661.24 -3.52734 0.998696 0
M  V30 16868 H 1660.89 -4.9194 -1.049 0
M  V30 16869 H 1660.59 -5.85996 0.433891 0
M  V30 16870 H 1662.12 -6.08786 -0.470255 0
M  V30 16871 H 1663.53 -5.47028 1.71561 0
M  V30 16872 H 1661.93 -5.45243 2.5066 0
M  V30 16873 H 1663 -4.04826 2.66915 0
M  V30 16874 N 1664.34 -0.740267 -1.39132 0
M  V30 16875 C 1665.25 -0.105452 -2.34363 0
M  V30 16876 C 1666.27 0.715908 -1.5859 0
M  V30 16877 O 1667.44 0.643155 -1.90855 0
M  V30 16878 C 1664.51 0.787141 -3.37646 0
M  V30 16879 C 1663.57 -0.047071 -4.29274 0
M  V30 16880 C 1662.8 0.803014 -5.27624 0
M  V30 16881 O 1663.02 2.04155 -5.32613 0
M  V30 16882 O 1661.96 0.228879 -6.01465 0
M  V30 16883 H 1665.78 -0.891588 -2.90318 0
M  V30 16884 H 1663.37 -0.500996 -1.40749 0
M  V30 16885 H 1665.25 1.29769 -4.00921 0
M  V30 16886 H 1663.93 1.552 -2.84068 0
M  V30 16887 H 1662.83 -0.603265 -3.69204 0
M  V30 16888 H 1664.17 -0.774273 -4.86072 0
M  V30 16889 N 1665.82 1.49844 -0.488302 0
M  V30 16890 C 1666.75 2.26762 0.333396 0
M  V30 16891 C 1667.76 1.32785 0.941918 0
M  V30 16892 O 1668.95 1.58165 0.827407 0
M  V30 16893 C 1666.05 3.04721 1.48318 0
M  V30 16894 C 1665.23 4.26181 0.984303 0
M  V30 16895 C 1664.28 4.8629 2.01018 0
M  V30 16896 O 1663.31 5.4672 1.58384 0
M  V30 16897 N 1664.51 4.74813 3.33965 0
M  V30 16898 H 1667.28 2.97921 -0.32609 0
M  V30 16899 H 1664.84 1.58704 -0.320092 0
M  V30 16900 H 1666.83 3.4181 2.16676 0
M  V30 16901 H 1665.4 2.36251 2.04705 0
M  V30 16902 H 1664.62 3.93998 0.126039 0
M  V30 16903 H 1665.91 5.04895 0.62919 0
M  V30 16904 H 1665.31 4.26793 3.71301 0
M  V30 16905 H 1663.86 5.16122 3.98072 0
M  V30 16906 N 1667.3 0.221601 1.56034 0
M  V30 16907 C 1668.24 -0.688502 2.20291 0
M  V30 16908 C 1669.21 -1.19028 1.15851 0
M  V30 16909 O 1670.4 -1.24936 1.44206 0
M  V30 16910 C 1667.54 -1.89101 2.88678 0
M  V30 16911 C 1666.65 -1.42812 4.07711 0
M  V30 16912 C 1665.79 -2.5882 4.63881 0
M  V30 16913 C 1664.83 -2.09268 5.75216 0
M  V30 16914 N 1663.96 -3.18549 6.25676 0
M  V30 16915 H 1668.8 -0.133824 2.97699 0
M  V30 16916 H 1666.34 -0.0543007 1.47 0
M  V30 16917 H 1668.3 -2.59704 3.26512 0
M  V30 16918 H 1666.93 -2.41857 2.13788 0
M  V30 16919 H 1665.98 -0.617019 3.75363 0
M  V30 16920 H 1667.29 -1.02478 4.8816 0
M  V30 16921 H 1666.45 -3.37505 5.04158 0
M  V30 16922 H 1665.18 -3.02443 3.82596 0
M  V30 16923 H 1664.19 -1.29045 5.34441 0
M  V30 16924 H 1665.41 -1.66645 6.58336 0
M  V30 16925 H 1663.36 -3.61653 5.47305 0
M  V30 16926 H 1663.28 -2.82466 7.01248 0
M  V30 16927 H 1664.55 -3.97369 6.7061 0
M  V30 16928 N 1668.77 -1.57515 -0.0517878 0
M  V30 16929 C 1669.74 -2.04049 -1.04387 0
M  V30 16930 C 1670.74 -0.940745 -1.30409 0
M  V30 16931 O 1671.93 -1.20505 -1.25794 0
M  V30 16932 C 1669.06 -2.43816 -2.38257 0
M  V30 16933 H 1670.25 -2.9294 -0.642367 0
M  V30 16934 H 1667.81 -1.53432 -0.29805 0
M  V30 16935 H 1668.54 -1.58013 -2.832 0
M  V30 16936 H 1668.33 -3.24086 -2.20705 0
M  V30 16937 H 1669.82 -2.80325 -3.09528 0
M  V30 16938 N 1670.25 0.323614 -1.54242 0
M  V30 16939 C 1671.66 0.898051 -1.63682 0
M  V30 16940 C 1672.02 1.88882 -0.530861 0
M  V30 16941 O 1671.14 2.13772 0.336245 0
M  V30 16942 C 1671.74 1.63561 -2.96704 0
M  V30 16943 C 1670.29 2.15877 -3.08341 0
M  V30 16944 C 1669.44 0.984145 -2.59249 0
M  V30 16945 H 1672.39 0.101198 -1.58377 0
M  V30 16946 H 1672.41 2.49982 -2.86861 0
M  V30 16947 H 1671.93 0.914265 -3.77177 0
M  V30 16948 H 1670.03 2.91127 -2.32542 0
M  V30 16949 H 1670.14 2.40881 -4.14141 0
M  V30 16950 H 1668.5 1.3633 -2.15143 0
M  V30 16951 H 1669.29 0.277118 -3.4218 0
M  V30 16952 N 1671.73 1.46313 0.585673 0
M  V30 16953 C 1672.98 1.51694 1.34598 0
M  V30 16954 C 1673.31 0.166889 1.93482 0
M  V30 16955 O 1672.59 -0.821331 1.76308 0
M  V30 16956 C 1672.87 2.61322 2.47755 0
M  V30 16957 C 1672.72 4.05848 1.93926 0
M  V30 16958 C 1674.04 2.67058 3.49812 0
M  V30 16959 H 1671.16 0.552253 0.488043 0
M  V30 16960 H 1673.8 1.78235 0.658201 0
M  V30 16961 H 1671.95 2.38822 3.06425 0
M  V30 16962 H 1673.62 4.39626 1.39736 0
M  V30 16963 H 1671.87 4.15468 1.24775 0
M  V30 16964 H 1672.54 4.78279 2.75596 0
M  V30 16965 H 1675.01 2.87276 3.01018 0
M  V30 16966 H 1673.89 3.45589 4.2645 0
M  V30 16967 H 1674.15 1.72993 4.06849 0
M  V30 16968 N 1673.21 -0.830057 1.33969 0
M  V30 16969 C 1674.46 -1.58586 1.25924 0
M  V30 16970 C 1674.78 -1.93732 -0.172685 0
M  V30 16971 O 1674.04 -1.59628 -1.13214 0
M  V30 16972 C 1674.34 -2.90026 2.08853 0
M  V30 16973 C 1674 -2.74204 3.57943 0
M  V30 16974 C 1672.67 -2.69596 3.98587 0
M  V30 16975 C 1675.02 -2.58384 4.52644 0
M  V30 16976 C 1672.35 -2.4708 5.32135 0
M  V30 16977 C 1674.7 -2.37401 5.86365 0
M  V30 16978 C 1673.36 -2.31201 6.26181 0
M  V30 16979 H 1672.63 -0.580306 0.460789 0
M  V30 16980 H 1675.28 -0.960978 1.65643 0
M  V30 16981 H 1673.58 -3.56767 1.6194 0
M  V30 16982 H 1675.28 -3.47576 1.99979 0
M  V30 16983 H 1671.87 -2.78627 3.25676 0
M  V30 16984 H 1676.06 -2.60972 4.22146 0
M  V30 16985 H 1671.31 -2.40733 5.62012 0
M  V30 16986 H 1675.49 -2.24146 6.59342 0
M  V30 16987 H 1673.11 -2.13515 7.29599 0
M  V30 16988 N 1674.69 -1.17582 -1.04939 0
M  V30 16989 C 1676.1 -0.971326 -1.59443 0
M  V30 16990 C 1676.45 0.481308 -1.90205 0
M  V30 16991 O 1675.57 1.35708 -1.6856 0
M  V30 16992 C 1676.17 -1.75685 -2.8969 0
M  V30 16993 C 1674.73 -1.59695 -3.40844 0
M  V30 16994 C 1673.88 -1.75688 -2.14544 0
M  V30 16995 H 1676.83 -1.32254 -0.877188 0
M  V30 16996 H 1676.85 -1.24074 -3.59703 0
M  V30 16997 H 1676.36 -2.81405 -2.67269 0
M  V30 16998 H 1674.46 -0.564746 -3.68295 0
M  V30 16999 H 1674.57 -2.38951 -4.15258 0
M  V30 17000 H 1672.94 -1.18553 -2.25427 0
M  V30 17001 H 1673.72 -2.82825 -1.94589 0
M  V30 17002 N 1676.17 1.23705 -0.976463 0
M  V30 17003 C 1677.1 2.24297 -0.471538 0
M  V30 17004 C 1678.11 1.57169 0.424484 0
M  V30 17005 O 1679.3 1.77022 0.229252 0
M  V30 17006 C 1676.4 3.37214 0.337621 0
M  V30 17007 C 1675.57 4.33921 -0.550586 0
M  V30 17008 C 1674.63 5.25804 0.204053 0
M  V30 17009 O 1673.66 5.67757 -0.404995 0
M  V30 17010 N 1674.86 5.61021 1.49116 0
M  V30 17011 H 1677.62 2.68252 -1.33645 0
M  V30 17012 H 1675.19 1.37836 -0.849281 0
M  V30 17013 H 1677.18 3.95658 0.850714 0
M  V30 17014 H 1675.75 2.92474 1.10351 0
M  V30 17015 H 1674.97 3.74038 -1.24455 0
M  V30 17016 H 1676.26 4.95493 -1.15604 0
M  V30 17017 H 1675.65 5.28879 2.00757 0
M  V30 17018 H 1674.21 6.21954 1.94978 0
M  V30 17019 N 1677.64 0.747635 1.38738 0
M  V30 17020 C 1678.58 0.0762364 2.29073 0
M  V30 17021 C 1679.59 -0.690087 1.4745 0
M  V30 17022 O 1680.78 -0.53216 1.70383 0
M  V30 17023 C 1677.88 -0.916136 3.26282 0
M  V30 17024 C 1677.05 -0.2087 4.36902 0
M  V30 17025 C 1676.11 -1.11097 5.14338 0
M  V30 17026 O 1675.14 -0.583722 5.66199 0
M  V30 17027 N 1676.34 -2.43961 5.26748 0
M  V30 17028 H 1679.1 0.852024 2.87334 0
M  V30 17029 H 1676.66 0.597915 1.50455 0
M  V30 17030 H 1678.66 -1.52263 3.74964 0
M  V30 17031 H 1677.23 -1.59304 2.68963 0
M  V30 17032 H 1676.45 0.578435 3.89933 0
M  V30 17033 H 1677.73 0.281061 5.08023 0
M  V30 17034 H 1677.13 -2.89259 4.86154 0
M  V30 17035 H 1675.69 -2.99676 5.78824 0
M  V30 17036 N 1679.12 -1.49583 0.496242 0
M  V30 17037 C 1680.35 -2.06547 -0.0468437 0
M  V30 17038 C 1680.76 -1.3574 -1.31801 0
M  V30 17039 O 1680.1 -0.427948 -1.78646 0
M  V30 17040 C 1680.16 -3.57532 -0.375622 0
M  V30 17041 C 1679.83 -4.49994 0.797134 0
M  V30 17042 C 1680.83 -4.91793 1.6863 0
M  V30 17043 C 1678.51 -4.92355 0.99459 0
M  V30 17044 C 1680.5 -5.74685 2.7571 0
M  V30 17045 C 1678.19 -5.75024 2.06859 0
M  V30 17046 C 1679.19 -6.16093 2.94819 0
M  V30 17047 O 1678.88 -6.9711 4.00366 0
M  V30 17048 H 1678.61 -0.675832 0.0150901 0
M  V30 17049 H 1681.16 -1.93413 0.691416 0
M  V30 17050 H 1679.39 -3.68658 -1.16741 0
M  V30 17051 H 1681.08 -3.96755 -0.856757 0
M  V30 17052 H 1681.85 -4.59715 1.54554 0
M  V30 17053 H 1677.73 -4.59893 0.31933 0
M  V30 17054 H 1681.27 -6.06661 3.44396 0
M  V30 17055 H 1677.17 -6.06514 2.20931 0
M  V30 17056 H 1677.94 -7.15408 3.9766 0
M  V30 17057 N 1680.6 -0.229873 -1.55915 0
M  V30 17058 C 1681.56 0.663347 -2.19391 0
M  V30 17059 C 1682.56 1.11548 -1.15818 0
M  V30 17060 O 1683.75 1.02294 -1.41002 0
M  V30 17061 C 1680.88 1.9097 -2.82389 0
M  V30 17062 H 1682.08 0.109797 -2.99699 0
M  V30 17063 H 1679.63 0.0197234 -1.56288 0
M  V30 17064 H 1680.37 2.50491 -2.05973 0
M  V30 17065 H 1680.15 1.59388 -3.58243 0
M  V30 17066 H 1681.64 2.5459 -3.31019 0
M  V30 17067 N 1682.08 1.5754 0.0434337 0
M  V30 17068 C 1683.3 1.93247 0.753012 0
M  V30 17069 C 1683.73 0.828712 1.68861 0
M  V30 17070 O 1683.09 -0.216618 1.80001 0
M  V30 17071 C 1683.13 3.27989 1.49852 0
M  V30 17072 O 1682.24 3.19223 2.61094 0
M  V30 17073 H 1681.58 0.632032 0.203547 0
M  V30 17074 H 1684.11 2.046 0.00319776 0
M  V30 17075 H 1684.12 3.62539 1.87161 0
M  V30 17076 H 1682.79 4.07891 0.812251 0
M  V30 17077 H 1681.37 2.9628 2.26434 0
M  V30 17078 N 1683.56 -0.31543 1.54411 0
M  V30 17079 C 1684.49 -1.4098 1.80713 0
M  V30 17080 C 1685.5 -1.47481 0.689435 0
M  V30 17081 O 1686.69 -1.50058 0.966682 0
M  V30 17082 C 1683.79 -2.79459 1.91718 0
M  V30 17083 C 1682.96 -2.96064 3.2197 0
M  V30 17084 C 1682.02 -4.14954 3.23573 0
M  V30 17085 O 1681.05 -4.07726 3.97175 0
M  V30 17086 N 1682.25 -5.24889 2.47935 0
M  V30 17087 H 1685.01 -1.18778 2.75158 0
M  V30 17088 H 1682.58 -0.50545 1.53808 0
M  V30 17089 H 1684.57 -3.57215 1.90209 0
M  V30 17090 H 1683.14 -2.94675 1.04333 0
M  V30 17091 H 1682.36 -2.05541 3.36372 0
M  V30 17092 H 1683.65 -3.0406 4.07952 0
M  V30 17093 H 1683.04 -5.33638 1.87741 0
M  V30 17094 H 1681.6 -6.01033 2.52195 0
M  V30 17095 N 1685.03 -1.46622 -0.577906 0
M  V30 17096 C 1686 -1.57126 -1.66865 0
M  V30 17097 C 1687 -0.448004 -1.54433 0
M  V30 17098 O 1688.19 -0.712459 -1.58964 0
M  V30 17099 C 1685.32 -1.49612 -3.06315 0
M  V30 17100 H 1686.51 -2.54338 -1.58909 0
M  V30 17101 H 1684.07 -1.34504 -0.796142 0
M  V30 17102 H 1684.8 -0.536976 -3.19823 0
M  V30 17103 H 1684.59 -2.31113 -3.16748 0
M  V30 17104 H 1686.08 -1.60058 -3.85709 0
M  V30 17105 N 1686.51 0.822941 -1.34408 0
M  V30 17106 C 1687.44 1.94142 -1.21826 0
M  V30 17107 C 1688.46 1.6215 -0.145353 0
M  V30 17108 O 1689.65 1.74025 -0.397205 0
M  V30 17109 C 1686.75 3.28077 -0.849619 0
M  V30 17110 C 1685.92 3.88092 -2.0175 0
M  V30 17111 C 1684.98 5.00406 -1.62726 0
M  V30 17112 O 1684 5.18703 -2.34383 0
M  V30 17113 N 1685.21 5.7797 -0.541413 0
M  V30 17114 H 1687.97 2.05467 -2.18182 0
M  V30 17115 H 1685.53 0.999521 -1.27362 0
M  V30 17116 H 1687.52 4.00661 -0.57035 0
M  V30 17117 H 1686.09 3.12591 0.0237499 0
M  V30 17118 H 1685.31 3.07902 -2.46151 0
M  V30 17119 H 1686.6 4.24921 -2.79856 0
M  V30 17120 H 1686 5.65674 0.0542929 0
M  V30 17121 H 1684.56 6.51005 -0.321874 0
M  V30 17122 N 1687.99 1.18137 1.04314 0
M  V30 17123 C 1688.92 0.849531 2.11798 0
M  V30 17124 C 1689.9 -0.187452 1.61516 0
M  V30 17125 O 1691.09 -0.0669812 1.88381 0
M  V30 17126 C 1688.21 0.268844 3.37631 0
M  V30 17127 C 1687.26 1.28262 4.06757 0
M  V30 17128 S 1688.09 2.83751 4.54143 0
M  V30 17129 C 1689.25 2.27186 5.83213 0
M  V30 17130 H 1689.48 1.75983 2.39619 0
M  V30 17131 H 1687.01 1.00697 1.17045 0
M  V30 17132 H 1688.97 -0.0596899 4.10457 0
M  V30 17133 H 1687.63 -0.619529 3.0793 0
M  V30 17134 H 1686.83 0.825141 4.972 0
M  V30 17135 H 1686.43 1.55726 3.40038 0
M  V30 17136 H 1688.72 1.6529 6.57028 0
M  V30 17137 H 1689.66 3.15919 6.3372 0
M  V30 17138 H 1690.07 1.70301 5.38199 0
M  V30 17139 N 1689.47 -1.23186 0.98301 0
M  V30 17140 C 1690.43 -2.22979 0.530366 0
M  V30 17141 C 1691.43 -1.56211 -0.381421 0
M  V30 17142 O 1692.62 -1.73321 -0.17475 0
M  V30 17143 C 1689.75 -3.40124 -0.229882 0
M  V30 17144 H 1690.95 -2.64539 1.41277 0
M  V30 17145 H 1688.5 -1.36064 0.769172 0
M  V30 17146 H 1689.23 -3.04024 -1.12871 0
M  V30 17147 H 1689.02 -3.89794 0.424653 0
M  V30 17148 H 1690.51 -4.14158 -0.535078 0
M  V30 17149 N 1690.95 -0.754982 -1.38339 0
M  V30 17150 C 1691.88 -0.0883836 -2.2903 0
M  V30 17151 C 1692.89 0.682258 -1.47814 0
M  V30 17152 O 1694.08 0.523117 -1.70663 0
M  V30 17153 C 1691.18 0.898819 -3.26764 0
M  V30 17154 C 1690.35 0.185527 -4.37006 0
M  V30 17155 C 1689.41 1.08368 -5.1492 0
M  V30 17156 O 1688.44 0.553687 -5.66501 0
M  V30 17157 N 1689.64 2.41164 -5.28034 0
M  V30 17158 H 1692.41 -0.86725 -2.86878 0
M  V30 17159 H 1689.97 -0.605886 -1.50135 0
M  V30 17160 H 1691.96 1.50273 -3.75766 0
M  V30 17161 H 1690.53 1.57876 -2.69804 0
M  V30 17162 H 1689.75 -0.599106 -3.89621 0
M  V30 17163 H 1691.04 -0.307999 -5.07867 0
M  V30 17164 H 1690.43 2.86677 -4.87681 0
M  V30 17165 H 1688.99 2.96602 -5.80406 0
M  V30 17166 N 1692.42 1.49318 -0.504168 0
M  V30 17167 C 1693.67 2.02062 0.039149 0
M  V30 17168 C 1693.99 1.38577 1.37191 0
M  V30 17169 O 1693.26 0.542179 1.88248 0
M  V30 17170 H 1691.84 0.746796 0.0174575 0
M  V30 17171 H 1694.51 1.83308 -0.66213 0
M  V30 17172 H 1693.6 3.11656 0.166496 0
M  V30 17173 N 1693.9 0.238138 1.5579 0
M  V30 17174 C 1695.13 -0.396409 2.03576 0
M  V30 17175 C 1695.55 -1.5138 1.11649 0
M  V30 17176 O 1694.91 -1.80979 0.107774 0
M  V30 17177 C 1694.96 -0.889749 3.49451 0
M  V30 17178 O 1694.06 -1.99997 3.60659 0
M  V30 17179 H 1693.4 -0.0876017 0.658196 0
M  V30 17180 H 1695.93 0.361632 2.01379 0
M  V30 17181 H 1695.94 -1.19526 3.901 0
M  V30 17182 H 1694.62 -0.0720136 4.15838 0
M  V30 17183 H 1693.2 -1.69983 3.31904 0
M  V30 17184 N 1695.38 -1.57561 -0.0350783 0
M  V30 17185 C 1696.61 -1.92971 -0.737958 0
M  V30 17186 C 1697.02 -0.835771 -1.6974 0
M  V30 17187 O 1696.36 0.19703 -1.8264 0
M  V30 17188 C 1696.42 -3.24138 -1.55482 0
M  V30 17189 C 1696.09 -4.50622 -0.760818 0
M  V30 17190 C 1697.08 -5.19861 -0.0637364 0
M  V30 17191 C 1694.77 -4.97154 -0.717134 0
M  V30 17192 C 1696.76 -6.33907 0.666395 0
M  V30 17193 C 1694.45 -6.11098 0.0167462 0
M  V30 17194 C 1695.45 -6.79328 0.707276 0
M  V30 17195 O 1695.14 -7.91093 1.42925 0
M  V30 17196 H 1694.87 -0.641628 -0.212814 0
M  V30 17197 H 1697.42 -2.054 0.00152065 0
M  V30 17198 H 1695.65 -3.08019 -2.33798 0
M  V30 17199 H 1697.34 -3.44919 -2.13976 0
M  V30 17200 H 1698.11 -4.84919 -0.0885544 0
M  V30 17201 H 1693.99 -4.43895 -1.24411 0
M  V30 17202 H 1697.53 -6.87098 1.20592 0
M  V30 17203 H 1693.43 -6.45485 0.0435085 0
M  V30 17204 H 1694.2 -8.07418 1.34231 0
M  V30 17205 N 1696.86 0.307236 -1.54576 0
M  V30 17206 C 1698.08 1.06668 -1.77867 0
M  V30 17207 C 1698.51 1.80375 -0.533536 0
M  V30 17208 O 1697.87 1.73812 0.515663 0
M  V30 17209 C 1697.91 2.02777 -2.98184 0
M  V30 17210 O 1697.02 3.10969 -2.70872 0
M  V30 17211 H 1696.36 0.306741 -0.588902 0
M  V30 17212 H 1698.89 0.346557 -2.01644 0
M  V30 17213 H 1698.9 2.45355 -3.25983 0
M  V30 17214 H 1697.57 1.48534 -3.88472 0
M  V30 17215 H 1696.15 2.7295 -2.54072 0
M  V30 17216 N 1698.34 1.46926 0.570122 0
M  V30 17217 C 1699.75 1.469 1.15227 0
M  V30 17218 C 1700.1 0.216651 1.95 0
M  V30 17219 O 1699.22 -0.679388 2.05459 0
M  V30 17220 C 1699.82 2.66158 2.09632 0
M  V30 17221 C 1698.38 2.69133 2.63144 0
M  V30 17222 C 1697.52 2.39795 1.39262 0
M  V30 17223 H 1700.48 1.54623 0.35739 0
M  V30 17224 H 1700.5 2.42393 2.93302 0
M  V30 17225 H 1700.01 3.5729 1.51543 0
M  V30 17226 H 1698.11 1.82106 3.25066 0
M  V30 17227 H 1698.22 3.69459 3.05019 0
M  V30 17228 H 1696.59 1.9011 1.695 0
M  V30 17229 H 1697.37 3.33119 0.829855 0
M  V30 17230 N 1699.82 -0.815801 1.34842 0
M  V30 17231 C 1700.75 -1.93258 1.21353 0
M  V30 17232 C 1701.73 -1.6227 0.103515 0
M  V30 17233 O 1702.91 -1.86557 0.269954 0
M  V30 17234 C 1700.04 -3.27429 0.866494 0
M  V30 17235 C 1699.08 -3.77372 1.98727 0
M  V30 17236 S 1699.92 -3.96277 3.60173 0
M  V30 17237 C 1701.07 -5.33364 3.27526 0
M  V30 17238 H 1701.31 -2.04405 2.15884 0
M  V30 17239 H 1698.84 -0.972165 1.19951 0
M  V30 17240 H 1700.8 -4.04945 0.673064 0
M  V30 17241 H 1699.46 -3.14042 -0.0605998 0
M  V30 17242 H 1698.65 -4.74522 1.69837 0
M  V30 17243 H 1698.25 -3.06825 2.13855 0
M  V30 17244 H 1700.54 -6.17031 2.79783 0
M  V30 17245 H 1701.49 -5.67242 4.23842 0
M  V30 17246 H 1701.9 -4.99213 2.63527 0
M  V30 17247 N 1701.29 -1.18689 -1.03686 0
M  V30 17248 C 1702.23 -0.875126 -2.11835 0
M  V30 17249 C 1703.24 0.128865 -1.62289 0
M  V30 17250 O 1704.43 -0.0994835 -1.78223 0
M  V30 17251 C 1701.53 -0.286914 -3.37683 0
M  V30 17252 C 1700.7 -1.3375 -4.16449 0
M  V30 17253 C 1699.76 -0.764286 -5.2062 0
M  V30 17254 O 1698.79 -1.43998 -5.50684 0
M  V30 17255 N 1699.99 0.436345 -5.78858 0
M  V30 17256 H 1702.75 -1.80601 -2.39172 0
M  V30 17257 H 1700.31 -1.0878 -1.19911 0
M  V30 17258 H 1702.31 0.110219 -4.0455 0
M  V30 17259 H 1700.88 0.548073 -3.07758 0
M  V30 17260 H 1700.1 -1.9098 -3.44848 0
M  V30 17261 H 1701.38 -2.04566 -4.65865 0
M  V30 17262 H 1700.78 1.00296 -5.56738 0
M  V30 17263 H 1699.34 0.775353 -6.47172 0
M  V30 17264 N 1702.77 1.22662 -0.989529 0
M  V30 17265 C 1704.05 1.86816 -0.579566 0
M  V30 17266 C 1704.43 1.88858 0.943188 0
M  V30 17267 O 1703.78 1.37668 1.82372 0
M  V30 17268 C 1703.99 3.27863 -1.19612 0
M  V30 17269 C 1705.33 4.04384 -1.29454 0
M  V30 17270 O 1706.36 3.37116 -1.15026 0
M  V30 17271 O 1705.22 5.24789 -1.52508 0
M  V30 17272 H 1702.31 0.803332 -0.196434 0
M  V30 17273 H 1704.86 1.30467 -1.08519 0
M  V30 17274 H 1703.63 3.20993 -2.23784 0
M  V30 17275 H 1703.25 3.91813 -0.675875 0
M  V30 17276 N 1704.25 0.762308 1.37937 0
M  V30 17277 C 1705.66 0.388966 1.82603 0
M  V30 17278 C 1706.01 -1.08362 1.63561 0
M  V30 17279 O 1705.14 -1.83842 1.14154 0
M  V30 17280 C 1705.73 0.699218 3.31506 0
M  V30 17281 C 1704.29 0.379048 3.74487 0
M  V30 17282 C 1703.44 0.947924 2.60595 0
M  V30 17283 H 1706.39 0.957743 1.26542 0
M  V30 17284 H 1706.41 -0.019502 3.80495 0
M  V30 17285 H 1705.92 1.77105 3.45334 0
M  V30 17286 H 1704.02 -0.685844 3.66233 0
M  V30 17287 H 1704.14 0.880697 4.70936 0
M  V30 17288 H 1702.5 0.372746 2.51958 0
M  V30 17289 H 1703.28 2.02496 2.77219 0
M  V30 17290 N 1705.73 -1.49049 0.51208 0
M  V30 17291 C 1706.68 -2.30981 -0.273991 0
M  V30 17292 C 1707.67 -1.40092 -0.952402 0
M  V30 17293 O 1708.88 -1.57088 -0.878828 0
M  V30 17294 H 1705.25 -0.744317 -0.107221 0
M  V30 17295 H 1707.22 -2.95185 0.436866 0
M  V30 17296 C 1705.97 -3.21714 -1.31892 0
M  V30 17297 H 1705.29 -3.91585 -0.806302 0
M  V30 17298 H 1706.73 -3.81961 -1.8407 0
M  V30 17299 C 1705.19 -2.42082 -2.34303 0
M  V30 17300 O 1705.72 -2.13285 -3.40401 0
M  V30 17301 N 1703.93 -2.03903 -2.07055 0
M  V30 17302 H 1703.48 -2.27523 -1.20794 0
M  V30 17303 H 1703.43 -1.50932 -2.75802 0
M  V30 17304 N 1707.21 -0.246397 -1.55662 0
M  V30 17305 C 1708.45 0.378487 -1.98931 0
M  V30 17306 C 1708.78 1.57984 -1.13452 0
M  V30 17307 O 1708.04 1.94822 -0.185214 0
M  V30 17308 C 1708.33 0.832225 -3.47576 0
M  V30 17309 C 1708 -0.261318 -4.50142 0
M  V30 17310 C 1706.66 -0.56166 -4.77911 0
M  V30 17311 C 1709.01 -0.999618 -5.11524 0
M  V30 17312 C 1706.34 -1.60438 -5.64337 0
M  V30 17313 C 1708.69 -2.03186 -5.99081 0
M  V30 17314 C 1707.36 -2.33885 -6.25183 0
M  V30 17315 H 1706.63 0.138498 -0.727942 0
M  V30 17316 H 1709.28 -0.354116 -1.88197 0
M  V30 17317 H 1707.58 1.64402 -3.55639 0
M  V30 17318 H 1709.28 1.32598 -3.78442 0
M  V30 17319 H 1705.87 -0.0170894 -4.28597 0
M  V30 17320 H 1710.05 -0.780833 -4.90119 0
M  V30 17321 H 1705.31 -1.84758 -5.82816 0
M  V30 17322 H 1709.48 -2.60886 -6.45687 0
M  V30 17323 H 1707.11 -3.14822 -6.91947 0
M  V30 17324 N 1708.68 1.57577 0.026722 0
M  V30 17325 C 1709.63 2.03179 1.03452 0
M  V30 17326 C 1710.62 0.921533 1.31896 0
M  V30 17327 O 1711.81 1.18542 1.31442 0
M  V30 17328 C 1708.94 2.51666 2.33493 0
M  V30 17329 C 1708.02 3.69517 2.08129 0
M  V30 17330 N 1708.42 4.82158 1.52832 0
M  V30 17331 C 1706.71 3.76936 2.38402 0
M  V30 17332 C 1707.41 5.63766 1.43327 0
M  V30 17333 N 1706.39 5.08953 1.90965 0
M  V30 17334 H 1710.19 2.87689 0.601036 0
M  V30 17335 H 1707.71 1.6072 0.232979 0
M  V30 17336 H 1709.7 2.82597 3.06503 0
M  V30 17337 H 1708.36 1.68564 2.77518 0
M  V30 17338 H 1709.37 5.0355 1.21071 0
M  V30 17339 H 1706.05 3.04637 2.85486 0
M  V30 17340 H 1707.44 6.64259 1.01043 0
M  V30 17341 N 1710.16 -0.299034 1.54737 0
M  V30 17342 C 1711.39 -1.0529 1.78105 0
M  V30 17343 C 1711.8 -1.80868 0.541499 0
M  V30 17344 O 1711.16 -1.75834 -0.488726 0
M  V30 17345 C 1711.21 -2.03192 2.9899 0
M  V30 17346 O 1710.93 -1.30681 4.18156 0
M  V30 17347 C 1712.43 -2.90602 3.34762 0
M  V30 17348 H 1709.65 -0.312173 0.593961 0
M  V30 17349 H 1712.2 -0.337712 2.01692 0
M  V30 17350 H 1710.35 -2.70211 2.77606 0
M  V30 17351 H 1710.77 -1.96446 4.86322 0
M  V30 17352 H 1712.24 -3.55144 4.22584 0
M  V30 17353 H 1712.72 -3.59006 2.53004 0
M  V30 17354 H 1713.32 -2.29112 3.58313 0
M  V30 17355 N 1711.64 -1.47227 -0.562322 0
M  V30 17356 C 1712.57 -1.53865 -1.68526 0
M  V30 17357 C 1713.55 -0.391166 -1.57825 0
M  V30 17358 O 1714.73 -0.598238 -1.78755 0
M  V30 17359 C 1711.86 -1.43638 -3.06734 0
M  V30 17360 C 1710.91 -2.62824 -3.35895 0
M  V30 17361 S 1711.74 -4.25054 -3.25714 0
M  V30 17362 C 1712.9 -4.17372 -4.66424 0
M  V30 17363 H 1713.13 -2.48869 -1.6264 0
M  V30 17364 H 1710.66 -1.35362 -0.74273 0
M  V30 17365 H 1712.62 -1.38425 -3.86457 0
M  V30 17366 H 1711.28 -0.500271 -3.1009 0
M  V30 17367 H 1710.47 -2.51718 -4.3664 0
M  V30 17368 H 1710.08 -2.65133 -2.63782 0
M  V30 17369 H 1712.37 -3.8531 -5.57263 0
M  V30 17370 H 1713.31 -5.18184 -4.82587 0
M  V30 17371 H 1713.72 -3.48309 -4.44231 0
M  V30 17372 N 1713.12 0.808639 -1.35273 0
M  V30 17373 C 1714.37 1.56253 -1.28177 0
M  V30 17374 C 1714.69 1.94466 0.144151 0
M  V30 17375 O 1713.96 1.63433 1.08011 0
M  V30 17376 H 1712.54 0.579431 -0.471454 0
M  V30 17377 H 1715.2 0.964675 -1.69352 0
M  V30 17378 H 1714.29 2.47888 -1.89625 0
M  V30 17379 N 1714.6 1.19237 1.03055 0
M  V30 17380 C 1715.53 0.886348 2.11368 0
M  V30 17381 C 1716.54 -0.120256 1.62355 0
M  V30 17382 O 1717.73 0.108934 1.78167 0
M  V30 17383 C 1714.83 0.304819 3.37526 0
M  V30 17384 C 1714 1.35957 4.15734 0
M  V30 17385 C 1713.06 0.791885 5.20207 0
M  V30 17386 O 1712.09 1.46916 5.49913 0
M  V30 17387 N 1713.29 -0.40564 5.79081 0
M  V30 17388 H 1716.06 1.81867 2.38211 0
M  V30 17389 H 1713.62 1.09414 1.19332 0
M  V30 17390 H 1715.61 -0.0887629 4.04603 0
M  V30 17391 H 1714.18 -0.531744 3.08044 0
M  V30 17392 H 1713.4 1.92806 3.43831 0
M  V30 17393 H 1714.69 2.07034 4.64773 0
M  V30 17394 H 1714.08 -0.973423 5.57262 0
M  V30 17395 H 1712.64 -0.741021 6.47574 0
M  V30 17396 N 1716.07 -1.22136 0.99602 0
M  V30 17397 C 1717.49 -1.43072 0.707285 0
M  V30 17398 C 1717.69 -1.88163 -0.720906 0
M  V30 17399 O 1716.75 -2.03747 -1.49142 0
M  V30 17400 C 1718.06 -2.46963 1.71551 0
M  V30 17401 C 1719.61 -2.60758 1.73131 0
M  V30 17402 C 1720.08 -3.67873 2.72825 0
M  V30 17403 N 1721.57 -3.75334 2.71438 0
M  V30 17404 C 1722.31 -4.57817 3.45241 0
M  V30 17405 N 1721.8 -5.44268 4.28654 0
M  V30 17406 N 1723.6 -4.52157 3.33932 0
M  V30 17407 H 1715.75 -0.911751 1.91836 0
M  V30 17408 H 1718.01 -0.462523 0.827512 0
M  V30 17409 H 1717.72 -2.20784 2.73765 0
M  V30 17410 H 1717.59 -3.45618 1.51089 0
M  V30 17411 H 1719.98 -2.86279 0.716132 0
M  V30 17412 H 1720.06 -1.62367 1.97663 0
M  V30 17413 H 1719.7 -3.43098 3.74494 0
M  V30 17414 H 1719.63 -4.6584 2.45562 0
M  V30 17415 H 1722.12 -3.13566 2.10915 0
M  V30 17416 H 1722.44 -6.04236 4.81786 0
M  V30 17417 H 1720.78 -5.43839 4.3274 0
M  V30 17418 H 1723.97 -3.83645 2.68206 0
M  V30 17419 H 1724.15 -5.16207 3.91707 0
M  V30 17420 N 1717.55 -0.769612 -1.37531 0
M  V30 17421 C 1718.96 -0.398644 -1.82394 0
M  V30 17422 C 1719.31 1.07493 -1.64133 0
M  V30 17423 O 1718.44 1.83234 -1.15127 0
M  V30 17424 C 1719.03 -0.716789 -3.31131 0
M  V30 17425 C 1717.59 -0.398903 -3.7428 0
M  V30 17426 C 1716.74 -0.96173 -2.60089 0
M  V30 17427 H 1719.69 -0.964441 -1.26033 0
M  V30 17428 H 1719.71 -0.00067688 -3.805 0
M  V30 17429 H 1719.22 -1.78933 -3.4439 0
M  V30 17430 H 1717.33 0.666412 -3.66592 0
M  V30 17431 H 1717.44 -0.90566 -4.70462 0
M  V30 17432 H 1715.8 -0.386103 -2.51757 0
M  V30 17433 H 1716.59 -2.03963 -2.76141 0
M  V30 17434 N 1719.03 1.48775 -0.519977 0
M  V30 17435 C 1720.26 2.07394 0.0161061 0
M  V30 17436 C 1720.68 1.37532 1.28322 0
M  V30 17437 O 1720.04 0.438049 1.75928 0
M  V30 17438 C 1720.09 3.59844 0.233382 0
M  V30 17439 O 1719.19 3.91235 1.30418 0
M  V30 17440 H 1718.53 0.663094 -0.0346678 0
M  V30 17441 H 1721.06 1.91323 -0.725029 0
M  V30 17442 H 1721.07 4.05409 0.45911 0
M  V30 17443 H 1719.75 4.10098 -0.69229 0
M  V30 17444 H 1718.32 3.5746 1.0619 0
M  V30 17445 N 1720.51 0.254649 1.55529 0
M  V30 17446 C 1721.74 -0.371317 2.03236 0
M  V30 17447 C 1722.15 -1.5152 1.13306 0
M  V30 17448 O 1721.49 -1.83154 0.141468 0
M  V30 17449 C 1721.55 -0.933614 3.47166 0
M  V30 17450 C 1721.22 0.0790139 4.56932 0
M  V30 17451 C 1722.21 0.891314 5.12203 0
M  V30 17452 C 1719.9 0.207343 5.01872 0
M  V30 17453 C 1721.89 1.81833 6.10914 0
M  V30 17454 C 1719.58 1.13785 6.00413 0
M  V30 17455 C 1720.58 1.94186 6.54813 0
M  V30 17456 O 1720.26 2.85667 7.51432 0
M  V30 17457 H 1720 -0.0914583 0.669785 0
M  V30 17458 H 1722.55 0.378413 2.01884 0
M  V30 17459 H 1720.78 -1.73305 3.45691 0
M  V30 17460 H 1722.47 -1.47048 3.78327 0
M  V30 17461 H 1723.24 0.802797 4.7831 0
M  V30 17462 H 1719.11 -0.408414 4.59187 0
M  V30 17463 H 1722.66 2.4463 6.53301 0
M  V30 17464 H 1718.56 1.22726 6.33726 0
M  V30 17465 H 1719.32 2.80116 7.69075 0
M  V30 17466 N 1721.99 -1.57589 -0.0183649 0
M  V30 17467 C 1722.95 -2.06217 -1.00035 0
M  V30 17468 C 1723.95 -0.968195 -1.28385 0
M  V30 17469 O 1725.14 -1.23147 -1.23209 0
M  V30 17470 C 1722.27 -2.48815 -2.33032 0
M  V30 17471 H 1723.46 -2.94236 -0.580085 0
M  V30 17472 H 1721.02 -1.5403 -0.265438 0
M  V30 17473 H 1721.75 -1.63985 -2.79785 0
M  V30 17474 H 1721.54 -3.28694 -2.13781 0
M  V30 17475 H 1723.03 -2.86828 -3.03512 0
M  V30 17476 N 1723.46 0.290824 -1.54893 0
M  V30 17477 C 1724.69 1.04344 -1.78661 0
M  V30 17478 C 1725.11 1.80578 -0.551083 0
M  V30 17479 O 1724.46 1.76091 0.479394 0
M  V30 17480 C 1724.52 2.01604 -3.00064 0
M  V30 17481 O 1724.24 1.28461 -4.18843 0
M  V30 17482 C 1725.74 2.88822 -3.36298 0
M  V30 17483 H 1722.96 0.309018 -0.595608 0
M  V30 17484 H 1725.5 0.327011 -2.01868 0
M  V30 17485 H 1723.66 2.68735 -2.79035 0
M  V30 17486 H 1724.07 1.93864 -4.87357 0
M  V30 17487 H 1725.54 3.52898 -4.24461 0
M  V30 17488 H 1726.02 3.5766 -2.54904 0
M  V30 17489 H 1726.63 2.27208 -3.59523 0
M  V30 17490 N 1724.94 1.47523 0.554506 0
M  V30 17491 C 1725.87 1.63093 1.67102 0
M  V30 17492 C 1726.85 0.480298 1.63178 0
M  V30 17493 O 1728.04 0.709956 1.80757 0
M  V30 17494 C 1725.17 1.64751 3.05736 0
M  V30 17495 C 1724.12 2.79068 3.24507 0
M  V30 17496 C 1723.45 2.65801 4.63955 0
M  V30 17497 C 1724.75 4.20631 3.09623 0
M  V30 17498 H 1726.44 2.56561 1.54328 0
M  V30 17499 H 1723.99 1.2347 0.741023 0
M  V30 17500 H 1725.94 1.74234 3.83693 0
M  V30 17501 H 1724.67 0.678453 3.19475 0
M  V30 17502 H 1723.32 2.691 2.48959 0
M  V30 17503 H 1722.97 1.66917 4.74497 0
M  V30 17504 H 1722.67 3.42494 4.77464 0
M  V30 17505 H 1724.2 2.77216 5.44044 0
M  V30 17506 H 1725.61 4.31562 3.77396 0
M  V30 17507 H 1724.01 4.98133 3.3464 0
M  V30 17508 H 1725.08 4.38809 2.06336 0
M  V30 17509 N 1726.42 -0.801453 1.357 0
M  V30 17510 C 1727.84 -1.09776 1.1585 0
M  V30 17511 C 1728.04 -2.01484 -0.0255653 0
M  V30 17512 O 1727.09 -2.42758 -0.694613 0
M  V30 17513 C 1728.41 -1.72381 2.46385 0
M  V30 17514 C 1729.95 -1.84777 2.52639 0
M  V30 17515 C 1730.43 -2.50797 3.83229 0
M  V30 17516 N 1731.92 -2.58277 3.84509 0
M  V30 17517 C 1732.65 -3.10141 4.82286 0
M  V30 17518 N 1732.15 -3.62404 5.90454 0
M  V30 17519 N 1733.94 -3.08742 4.69718 0
M  V30 17520 H 1726.09 -0.191926 2.11531 0
M  V30 17521 H 1728.36 -0.147742 0.936417 0
M  V30 17522 H 1728.06 -1.12462 3.33234 0
M  V30 17523 H 1727.94 -2.72024 2.6131 0
M  V30 17524 H 1730.32 -2.43837 1.66215 0
M  V30 17525 H 1730.41 -0.839745 2.41624 0
M  V30 17526 H 1730.05 -1.92385 4.70053 0
M  V30 17527 H 1729.98 -3.52147 3.91535 0
M  V30 17528 H 1732.47 -2.21257 3.06356 0
M  V30 17529 H 1732.78 -4.00293 6.61049 0
M  V30 17530 H 1731.13 -3.60588 5.94139 0
M  V30 17531 H 1734.32 -2.67193 3.84351 0
M  V30 17532 H 1734.49 -3.48854 5.46081 0
M  V30 17533 N 1727.9 -1.19782 -1.02421 0
M  V30 17534 C 1728.83 -0.883119 -2.10419 0
M  V30 17535 C 1729.81 0.161733 -1.61794 0
M  V30 17536 O 1730.99 0.037003 -1.88464 0
M  V30 17537 C 1728.12 -0.322524 -3.37161 0
M  V30 17538 C 1727.17 -1.34717 -4.04665 0
M  V30 17539 S 1728 -2.9094 -4.49571 0
M  V30 17540 C 1729.16 -2.36436 -5.79525 0
M  V30 17541 H 1729.39 -1.79772 -2.36789 0
M  V30 17542 H 1726.92 -1.02546 -1.15428 0
M  V30 17543 H 1728.88 -0.00561772 -4.105 0
M  V30 17544 H 1727.54 0.570462 -3.08876 0
M  V30 17545 H 1726.73 -0.904136 -4.95824 0
M  V30 17546 H 1726.34 -1.61116 -3.37517 0
M  V30 17547 H 1728.63 -1.75722 -6.54315 0
M  V30 17548 H 1729.57 -3.25961 -6.28614 0
M  V30 17549 H 1729.98 -1.78841 -5.35421 0
M  V30 17550 N 1729.38 1.21606 -1.00248 0
M  V30 17551 C 1730.31 2.23246 -0.519009 0
M  V30 17552 C 1731.32 1.58034 0.391051 0
M  V30 17553 O 1732.51 1.77468 0.191652 0
M  V30 17554 C 1729.61 3.37854 0.266017 0
M  V30 17555 C 1728.78 4.32655 -0.642503 0
M  V30 17556 C 1727.84 5.26119 0.0924758 0
M  V30 17557 O 1726.87 5.66771 -0.525333 0
M  V30 17558 N 1728.07 5.64058 1.37183 0
M  V30 17559 H 1730.84 2.65357 -1.39305 0
M  V30 17560 H 1728.4 1.36004 -0.878327 0
M  V30 17561 H 1730.39 3.97373 0.766598 0
M  V30 17562 H 1728.96 2.94749 1.04123 0
M  V30 17563 H 1728.18 3.71314 -1.32361 0
M  V30 17564 H 1729.47 4.92929 -1.26089 0
M  V30 17565 H 1728.87 5.33018 1.89493 0
M  V30 17566 H 1727.42 6.2595 1.81741 0
M  V30 17567 N 1730.86 0.776895 1.37121 0
M  V30 17568 C 1732.27 0.408311 1.8218 0
M  V30 17569 C 1732.62 -1.06621 1.64701 0
M  V30 17570 O 1731.74 -1.82621 1.16097 0
M  V30 17571 C 1732.34 0.734339 3.30746 0
M  V30 17572 C 1730.9 0.418746 3.74063 0
M  V30 17573 C 1730.04 0.97551 2.59575 0
M  V30 17574 H 1732.99 0.971111 1.25519 0
M  V30 17575 H 1733.02 0.0208557 3.80494 0
M  V30 17576 H 1732.53 1.80757 3.43436 0
M  V30 17577 H 1730.63 -0.646961 3.6694 0
M  V30 17578 H 1730.74 0.930597 4.69975 0
M  V30 17579 H 1729.11 0.399449 2.51548 0
M  V30 17580 H 1729.89 2.05425 2.75056 0
M  V30 17581 N 1732.33 -1.48497 0.527859 0
M  V30 17582 C 1733.75 -1.58517 0.185573 0
M  V30 17583 C 1733.95 -1.53012 -1.31109 0
M  V30 17584 O 1733.01 -1.41807 -2.08919 0
M  V30 17585 C 1734.32 -2.9024 0.786219 0
M  V30 17586 C 1735.87 -3.03764 0.75476 0
M  V30 17587 C 1736.34 -4.38144 1.33394 0
M  V30 17588 N 1737.83 -4.44705 1.29582 0
M  V30 17589 C 1738.57 -5.47187 1.71388 0
M  V30 17590 N 1738.06 -6.56635 2.20913 0
M  V30 17591 N 1739.86 -5.38057 1.62638 0
M  V30 17592 H 1732.01 -1.50319 1.5006 0
M  V30 17593 H 1734.27 -0.713625 0.624054 0
M  V30 17594 H 1733.98 -2.99918 1.8369 0
M  V30 17595 H 1733.85 -3.76288 0.262084 0
M  V30 17596 H 1736.24 -2.937 -0.287157 0
M  V30 17597 H 1736.32 -2.19331 1.31634 0
M  V30 17598 H 1735.96 -4.48962 2.37478 0
M  V30 17599 H 1735.89 -5.2126 0.748063 0
M  V30 17600 H 1738.38 -3.66195 0.933246 0
M  V30 17601 H 1738.7 -7.30967 2.50813 0
M  V30 17602 H 1737.04 -6.57604 2.24906 0
M  V30 17603 H 1740.23 -4.51447 1.23746 0
M  V30 17604 H 1740.41 -6.17793 1.9554 0
M  V30 17605 N 1733.81 -0.262893 -1.55392 0
M  V30 17606 C 1735.22 0.237224 -1.85187 0
M  V30 17607 C 1735.57 1.56383 -1.18486 0
M  V30 17608 O 1734.7 2.1126 -0.468849 0
M  V30 17609 C 1735.29 0.437206 -3.35967 0
M  V30 17610 C 1733.85 0.881568 -3.65931 0
M  V30 17611 C 1733 -0.0321489 -2.77281 0
M  V30 17612 H 1735.95 -0.485025 -1.51107 0
M  V30 17613 H 1735.97 1.27755 -3.58412 0
M  V30 17614 H 1735.48 -0.528474 -3.84485 0
M  V30 17615 H 1733.58 1.85915 -3.22903 0
M  V30 17616 H 1733.7 0.727355 -4.73547 0
M  V30 17617 H 1732.06 0.48204 -2.50097 0
M  V30 17618 H 1732.84 -0.99349 -3.2861 0
M  V30 17619 N 1735.29 1.57597 0.0100073 0
M  V30 17620 C 1736.54 1.89754 0.695559 0
M  V30 17621 C 1736.86 0.862983 1.74865 0
M  V30 17622 O 1736.13 -0.100949 1.9564 0
M  V30 17623 H 1734.71 0.700331 0.259895 0
M  V30 17624 H 1737.37 1.94879 -0.0285521 0
M  V30 17625 H 1736.47 2.89213 1.17313 0
M  V30 17626 N 1736.77 -0.282606 1.55045 0
M  V30 17627 C 1737.7 -1.35347 1.90272 0
M  V30 17628 C 1738.68 -1.52001 0.763532 0
M  V30 17629 O 1739.86 -1.65204 1.02085 0
M  V30 17630 C 1736.99 -2.71464 2.16621 0
M  V30 17631 C 1735.95 -2.69554 3.32453 0
M  V30 17632 C 1735.27 -4.09132 3.4426 0
M  V30 17633 C 1736.57 -2.29669 4.69094 0
M  V30 17634 H 1738.27 -1.06113 2.79965 0
M  V30 17635 H 1735.81 -0.509018 1.34703 0
M  V30 17636 H 1737.77 -3.46482 2.39851 0
M  V30 17637 H 1736.49 -3.02261 1.23717 0
M  V30 17638 H 1735.15 -1.96993 3.09175 0
M  V30 17639 H 1734.8 -4.37136 2.4884 0
M  V30 17640 H 1734.5 -4.08751 4.22133 0
M  V30 17641 H 1736.02 -4.85903 3.69771 0
M  V30 17642 H 1737.44 -2.94407 4.91932 0
M  V30 17643 H 1735.83 -2.40467 5.49814 0
M  V30 17644 H 1736.9 -1.24796 4.68566 0
M  V30 17645 N 1738.25 -1.47815 -0.546675 0
M  V30 17646 C 1739.66 -1.33566 -0.873628 0
M  V30 17647 C 1739.86 -0.334067 -1.98711 0
M  V30 17648 O 1738.92 0.250675 -2.51253 0
M  V30 17649 C 1740.23 -2.73171 -1.25691 0
M  V30 17650 C 1741.78 -2.81535 -1.36774 0
M  V30 17651 C 1742.25 -4.21804 -1.78454 0
M  V30 17652 N 1743.74 -4.24396 -1.85586 0
M  V30 17653 C 1744.48 -5.29854 -2.19186 0
M  V30 17654 N 1743.98 -6.45606 -2.51326 0
M  V30 17655 N 1745.77 -5.17237 -2.2005 0
M  V30 17656 H 1737.92 -2.11564 0.188285 0
M  V30 17657 H 1740.18 -0.947754 0.0215773 0
M  V30 17658 H 1739.89 -3.47946 -0.512485 0
M  V30 17659 H 1739.76 -3.05622 -2.21077 0
M  V30 17660 H 1742.15 -2.07025 -2.10297 0
M  V30 17661 H 1742.23 -2.52724 -0.395504 0
M  V30 17662 H 1741.87 -4.96823 -1.05498 0
M  V30 17663 H 1741.8 -4.48046 -2.76699 0
M  V30 17664 H 1744.3 -3.40895 -1.63092 0
M  V30 17665 H 1744.61 -7.21825 -2.76022 0
M  V30 17666 H 1742.95 -6.48909 -2.48883 0
M  V30 17667 H 1746.14 -4.2583 -1.94387 0
M  V30 17668 H 1746.32 -5.99529 -2.45905 0
M  V30 17669 N 1739.72 0.794246 -1.36123 0
M  V30 17670 C 1741.13 1.36909 -1.26936 0
M  V30 17671 C 1741.49 1.9598 0.0929337 0
M  V30 17672 O 1740.61 1.92206 0.994266 0
M  V30 17673 C 1741.21 2.48906 -2.2985 0
M  V30 17674 C 1739.76 3.0222 -2.24366 0
M  V30 17675 C 1738.91 1.75264 -2.1489 0
M  V30 17676 H 1741.86 0.596278 -1.47072 0
M  V30 17677 H 1741.88 3.27794 -1.93213 0
M  V30 17678 H 1741.4 2.05884 -3.28988 0
M  V30 17679 H 1739.5 3.49675 -1.28679 0
M  V30 17680 H 1739.61 3.59363 -3.16852 0
M  V30 17681 H 1737.97 1.97306 -1.61066 0
M  V30 17682 H 1738.76 1.34377 -3.15908 0
M  V30 17683 N 1741.2 1.20323 1.01785 0
M  V30 17684 C 1742.43 1.03821 1.78966 0
M  V30 17685 C 1742.84 -0.412622 1.84236 0
M  V30 17686 O 1742.2 -1.2865 1.29443 0
M  V30 17687 C 1742.25 1.61352 3.23493 0
M  V30 17688 O 1741.97 3.00758 3.18553 0
M  V30 17689 C 1743.47 1.49786 4.17228 0
M  V30 17690 H 1740.69 0.365291 0.562853 0
M  V30 17691 H 1743.24 1.59383 1.2813 0
M  V30 17692 H 1741.39 1.09913 3.71481 0
M  V30 17693 H 1741.81 3.28034 4.09261 0
M  V30 17694 H 1743.28 1.94802 5.16484 0
M  V30 17695 H 1743.76 0.450143 4.36887 0
M  V30 17696 H 1744.36 2.00409 3.75122 0
M  V30 17697 N 1742.68 -1.21073 1.00892 0
M  V30 17698 C 1743.93 -1.89866 0.69248 0
M  V30 17699 C 1744.25 -1.7874 -0.779562 0
M  V30 17700 O 1743.52 -1.18482 -1.56009 0
M  V30 17701 H 1742.1 -0.702799 0.253145 0
M  V30 17702 H 1744.76 -1.47075 1.27887 0
M  V30 17703 H 1743.86 -2.96673 0.969098 0
M  V30 17704 N 1744.16 -0.784156 -1.36707 0
M  V30 17705 C 1745.09 -0.193081 -2.327 0
M  V30 17706 C 1746.07 0.668999 -1.56392 0
M  V30 17707 O 1747.25 0.603908 -1.84571 0
M  V30 17708 C 1744.38 0.677092 -3.40636 0
M  V30 17709 C 1743.34 -0.0846718 -4.27916 0
M  V30 17710 C 1742.66 0.905754 -5.26973 0
M  V30 17711 C 1743.96 -1.27085 -5.06603 0
M  V30 17712 H 1745.66 -0.995029 -2.82382 0
M  V30 17713 H 1743.2 -0.479929 -1.35767 0
M  V30 17714 H 1745.16 1.1005 -4.06776 0
M  V30 17715 H 1743.88 1.51169 -2.89509 0
M  V30 17716 H 1742.54 -0.488992 -3.63324 0
M  V30 17717 H 1742.19 1.73524 -4.72121 0
M  V30 17718 H 1741.89 0.400524 -5.86233 0
M  V30 17719 H 1743.41 1.32784 -5.95987 0
M  V30 17720 H 1744.83 -0.923469 -5.65814 0
M  V30 17721 H 1743.22 -1.70901 -5.7525 0
M  V30 17722 H 1744.29 -2.06882 -4.38552 0
M  V30 17723 N 1745.64 1.48215 -0.535727 0
M  V30 17724 C 1746.88 2.028 -0.00373305 0
M  V30 17725 C 1747.22 1.41143 1.33388 0
M  V30 17726 O 1746.49 0.559227 1.86287 0
M  V30 17727 C 1746.77 3.59925 0.112186 0
M  V30 17728 C 1746.63 4.32053 -1.251 0
M  V30 17729 C 1747.95 4.32083 0.836177 0
M  V30 17730 H 1745.06 0.736995 -0.00283063 0
M  V30 17731 H 1747.71 1.76877 -0.693868 0
M  V30 17732 H 1745.86 3.82142 0.69996 0
M  V30 17733 H 1747.53 4.21238 -1.88033 0
M  V30 17734 H 1745.77 3.93246 -1.83139 0
M  V30 17735 H 1746.44 5.4046 -1.12283 0
M  V30 17736 H 1748.92 4.1473 0.337333 0
M  V30 17737 H 1747.79 5.41699 0.886196 0
M  V30 17738 H 1748.06 3.99772 1.88771 0
M  V30 17739 N 1747.11 0.27113 1.5525 0
M  V30 17740 C 1748.05 -0.651235 2.19753 0
M  V30 17741 C 1749.06 -1.12051 1.18104 0
M  V30 17742 O 1750.25 -1.0431 1.44851 0
M  V30 17743 C 1747.35 -1.89985 2.8064 0
M  V30 17744 C 1746.52 -1.57805 4.07942 0
M  V30 17745 C 1745.58 -2.67872 4.52914 0
M  V30 17746 O 1744.61 -2.34228 5.18774 0
M  V30 17747 N 1745.81 -3.97854 4.22721 0
M  V30 17748 H 1748.57 -0.0991913 2.99536 0
M  V30 17749 H 1746.13 0.0920667 1.61638 0
M  V30 17750 H 1748.13 -2.62907 3.07672 0
M  V30 17751 H 1746.7 -2.36105 2.04874 0
M  V30 17752 H 1745.92 -0.682852 3.88241 0
M  V30 17753 H 1747.2 -1.33801 4.90892 0
M  V30 17754 H 1746.6 -4.28011 3.69897 0
M  V30 17755 H 1745.16 -4.67165 4.54533 0
M  V30 17756 N 1748.59 -1.576 -0.00164943 0
M  V30 17757 C 1749.54 -2.09439 -1.01183 0
M  V30 17758 C 1750.53 -1.01402 -1.35698 0
M  V30 17759 O 1751.74 -1.19869 -1.34281 0
M  V30 17760 H 1748.12 -0.668732 -0.34395 0
M  V30 17761 H 1750.09 -2.93306 -0.549033 0
M  V30 17762 C 1748.84 -2.61163 -2.29542 0
M  V30 17763 H 1748.16 -3.43926 -2.0385 0
M  V30 17764 H 1749.6 -3.01115 -2.98506 0
M  V30 17765 C 1748.06 -1.52502 -3.00408 0
M  V30 17766 O 1748.59 -0.906982 -3.91327 0
M  V30 17767 N 1746.79 -1.25288 -2.62205 0
M  V30 17768 H 1746.34 -1.75731 -1.88351 0
M  V30 17769 H 1746.3 -0.528035 -3.09934 0
M  V30 17770 N 1750.07 0.274379 -1.55193 0
M  V30 17771 C 1751 1.36139 -1.84388 0
M  V30 17772 C 1752.02 1.45601 -0.728294 0
M  V30 17773 O 1753.2 1.47443 -1.00613 0
M  V30 17774 C 1750.3 2.74278 -1.9906 0
M  V30 17775 C 1749.48 2.87424 -3.29706 0
M  V30 17776 C 1748.54 4.06229 -3.34461 0
M  V30 17777 O 1747.56 3.97053 -4.07845 0
M  V30 17778 N 1748.76 5.18131 -2.61764 0
M  V30 17779 H 1751.53 1.1144 -2.78211 0
M  V30 17780 H 1749.09 0.464493 -1.55094 0
M  V30 17781 H 1751.08 3.52047 -1.99613 0
M  V30 17782 H 1749.65 2.91805 -1.1211 0
M  V30 17783 H 1748.87 1.96551 -3.41704 0
M  V30 17784 H 1750.16 2.93137 -4.15871 0
M  V30 17785 H 1749.56 5.28473 -2.01824 0
M  V30 17786 H 1748.12 5.94135 -2.68042 0
M  V30 17787 N 1751.55 1.48103 0.538828 0
M  V30 17788 C 1752.96 1.49312 1.12085 0
M  V30 17789 C 1753.31 0.257965 1.94497 0
M  V30 17790 O 1752.44 -0.635654 2.06854 0
M  V30 17791 C 1753.03 2.70545 2.03939 0
M  V30 17792 C 1751.59 2.74654 2.57376 0
M  V30 17793 C 1750.74 2.42695 1.34144 0
M  V30 17794 H 1753.69 1.55347 0.324512 0
M  V30 17795 H 1753.71 2.4856 2.88094 0
M  V30 17796 H 1753.22 3.60424 1.4393 0
M  V30 17797 H 1751.32 1.8896 3.21131 0
M  V30 17798 H 1751.43 3.75846 2.97114 0
M  V30 17799 H 1749.8 1.93663 1.65429 0
M  V30 17800 H 1750.58 3.34804 0.759009 0
M  V30 17801 N 1753.03 -0.787016 1.36542 0
M  V30 17802 C 1753.97 -1.92115 1.31128 0
M  V30 17803 C 1754.97 -1.68183 0.202656 0
M  V30 17804 O 1756.17 -1.7616 0.369802 0
M  V30 17805 H 1752.55 -0.631514 0.408281 0
M  V30 17806 H 1754.52 -1.938 2.26901 0
M  V30 17807 C 1753.27 -3.29173 1.11985 0
M  V30 17808 H 1752.59 -3.48156 1.96539 0
M  V30 17809 H 1754.03 -4.08873 1.12243 0
M  V30 17810 C 1752.49 -3.36443 -0.175383 0
M  V30 17811 O 1753.02 -3.84455 -1.16437 0
M  V30 17812 N 1751.23 -2.89759 -0.220879 0
M  V30 17813 H 1750.77 -2.5088 0.584558 0
M  V30 17814 H 1750.73 -2.95005 -1.08717 0
M  V30 17815 N 1754.5 -1.20861 -1.01145 0
M  V30 17816 C 1755.44 -0.919862 -2.09931 0
M  V30 17817 C 1756.45 0.0944116 -1.62526 0
M  V30 17818 O 1757.64 -0.137265 -1.77971 0
M  V30 17819 C 1754.74 -0.358478 -3.36999 0
M  V30 17820 C 1753.91 -1.42553 -4.13518 0
M  V30 17821 C 1752.97 -0.874546 -5.18882 0
M  V30 17822 O 1752 -1.55646 -5.47506 0
M  V30 17823 N 1753.2 0.313462 -5.79653 0
M  V30 17824 H 1755.96 -1.85633 -2.35288 0
M  V30 17825 H 1753.52 -1.11299 -1.17577 0
M  V30 17826 H 1755.52 0.0243829 -4.04693 0
M  V30 17827 H 1754.09 0.482669 -3.08851 0
M  V30 17828 H 1753.31 -1.98251 -3.4072 0
M  V30 17829 H 1754.59 -2.14402 -4.61421 0
M  V30 17830 H 1753.99 0.884644 -5.5874 0
M  V30 17831 H 1752.55 0.637904 -6.48671 0
M  V30 17832 N 1755.98 1.20536 -1.01532 0
M  V30 17833 C 1756.91 2.2553 -0.604866 0
M  V30 17834 C 1757.89 1.65814 0.379452 0
M  V30 17835 O 1759.08 1.92381 0.265162 0
M  V30 17836 C 1756.21 3.4725 0.0589292 0
M  V30 17837 C 1755.16 4.19551 -0.846241 0
M  V30 17838 C 1754.49 5.34678 -0.0482901 0
M  V30 17839 C 1755.79 4.75829 -2.1537 0
M  V30 17840 H 1757.48 2.60117 -1.48254 0
M  V30 17841 H 1755.03 1.25035 -0.714297 0
M  V30 17842 H 1756.98 4.1988 0.357627 0
M  V30 17843 H 1755.71 3.11822 0.97131 0
M  V30 17844 H 1754.36 3.48785 -1.12892 0
M  V30 17845 H 1754.01 4.95494 0.8657 0
M  V30 17846 H 1753.71 5.83982 -0.651081 0
M  V30 17847 H 1755.24 6.10112 0.243983 0
M  V30 17848 H 1756.65 5.40284 -1.91745 0
M  V30 17849 H 1755.05 5.35564 -2.70723 0
M  V30 17850 H 1756.12 3.94641 -2.81756 0
M  V30 17851 N 1757.46 0.791395 1.36289 0
M  V30 17852 C 1758.88 0.473308 1.5242 0
M  V30 17853 C 1759.08 -1.00805 1.74473 0
M  V30 17854 O 1758.13 -1.79349 1.77737 0
M  V30 17855 C 1759.45 1.30547 2.70884 0
M  V30 17856 C 1760.99 1.29936 2.84755 0
M  V30 17857 C 1761.47 2.1153 4.06225 0
M  V30 17858 N 1762.96 2.08987 4.13375 0
M  V30 17859 C 1763.69 2.68889 5.06445 0
M  V30 17860 N 1763.19 3.37657 6.04946 0
M  V30 17861 N 1764.98 2.58612 4.99075 0
M  V30 17862 H 1757.13 1.75096 1.20229 0
M  V30 17863 H 1759.4 0.74441 0.586991 0
M  V30 17864 H 1759.1 2.35607 2.61117 0
M  V30 17865 H 1758.98 0.948139 3.65089 0
M  V30 17866 H 1761.36 0.256671 2.93982 0
M  V30 17867 H 1761.45 1.69647 1.91451 0
M  V30 17868 H 1761.09 3.15832 3.9776 0
M  V30 17869 H 1761.02 1.69189 4.98681 0
M  V30 17870 H 1763.51 1.58938 3.42851 0
M  V30 17871 H 1763.82 3.8069 6.72529 0
M  V30 17872 H 1762.17 3.4176 6.05165 0
M  V30 17873 H 1765.36 2.04487 4.21073 0
M  V30 17874 H 1765.53 3.05587 5.7142 0
M  V30 17875 N 1758.94 -1.47929 0.54358 0
M  V30 17876 C 1759.87 -2.3264 -0.200228 0
M  V30 17877 C 1760.85 -1.42945 -0.922 0
M  V30 17878 O 1762.04 -1.71817 -0.905129 0
M  V30 17879 C 1759.17 -3.24439 -1.23922 0
M  V30 17880 C 1758.12 -4.23267 -0.634753 0
M  V30 17881 C 1757.45 -5.04295 -1.77739 0
M  V30 17882 C 1758.75 -5.20747 0.402524 0
M  V30 17883 H 1760.44 -2.95077 0.506957 0
M  V30 17884 H 1757.99 -1.41896 0.245246 0
M  V30 17885 H 1759.94 -3.82535 -1.76763 0
M  V30 17886 H 1758.66 -2.60029 -1.97616 0
M  V30 17887 H 1757.32 -3.66377 -0.127756 0
M  V30 17888 H 1756.97 -4.36299 -2.50304 0
M  V30 17889 H 1756.67 -5.71195 -1.37879 0
M  V30 17890 H 1758.19 -5.65246 -2.30932 0
M  V30 17891 H 1759.61 -5.73287 -0.039305 0
M  V30 17892 H 1758 -5.95774 0.719251 0
M  V30 17893 H 1759.07 -4.67054 1.3034 0
M  V30 17894 N 1760.42 -0.27936 -1.55104 0
M  V30 17895 C 1761.35 0.639572 -2.20096 0
M  V30 17896 C 1762.36 1.11423 -1.18696 0
M  V30 17897 O 1763.55 1.0354 -1.45402 0
M  V30 17898 C 1760.65 1.88494 -2.81644 0
M  V30 17899 C 1759.82 1.55639 -4.08773 0
M  V30 17900 C 1758.88 2.65466 -4.54328 0
M  V30 17901 O 1757.91 2.31473 -5.20008 0
M  V30 17902 N 1759.11 3.95606 -4.24825 0
M  V30 17903 H 1761.88 0.0833048 -2.99584 0
M  V30 17904 H 1759.44 -0.100637 -1.61587 0
M  V30 17905 H 1761.43 2.61272 -3.09062 0
M  V30 17906 H 1760 2.35015 -2.06123 0
M  V30 17907 H 1759.22 0.662253 -3.88597 0
M  V30 17908 H 1760.51 1.31196 -4.91594 0
M  V30 17909 H 1759.91 4.26043 -3.72161 0
M  V30 17910 H 1758.46 4.64748 -4.57004 0
M  V30 17911 N 1761.9 1.57599 -0.0067085 0
M  V30 17912 C 1762.83 2.11878 0.981331 0
M  V30 17913 C 1763.81 1.02949 1.35408 0
M  V30 17914 O 1764.99 1.30667 1.43665 0
M  V30 17915 C 1762.12 2.62757 2.27104 0
M  V30 17916 C 1761.08 3.76272 2.0397 0
M  V30 17917 C 1760.4 4.13491 3.39012 0
M  V30 17918 C 1761.7 5.03274 1.39688 0
M  V30 17919 H 1763.4 2.94683 0.529366 0
M  V30 17920 H 1760.94 1.41757 0.253187 0
M  V30 17921 H 1762.89 2.99359 2.96585 0
M  V30 17922 H 1761.62 1.77082 2.74426 0
M  V30 17923 H 1760.28 3.40074 1.36913 0
M  V30 17924 H 1759.93 3.24831 3.8405 0
M  V30 17925 H 1759.63 4.89972 3.24347 0
M  V30 17926 H 1761.15 4.52657 4.09797 0
M  V30 17927 H 1762.56 5.37604 1.99136 0
M  V30 17928 H 1760.96 5.84604 1.3549 0
M  V30 17929 H 1762.03 4.8351 0.366928 0
M  V30 17930 N 1763.37 -0.266145 1.55336 0
M  V30 17931 C 1764.31 -1.35159 1.85107 0
M  V30 17932 C 1765.32 -1.45213 0.736006 0
M  V30 17933 O 1766.51 -1.46907 1.01393 0
M  V30 17934 C 1763.61 -2.73218 2.00512 0
M  V30 17935 C 1762.78 -2.85671 3.31226 0
M  V30 17936 C 1761.84 -4.0445 3.36611 0
M  V30 17937 O 1760.87 -3.94884 4.09945 0
M  V30 17938 N 1762.07 -5.16735 2.64508 0
M  V30 17939 H 1764.83 -1.09963 2.78798 0
M  V30 17940 H 1762.39 -0.456261 1.55338 0
M  V30 17941 H 1764.39 -3.50983 2.01477 0
M  V30 17942 H 1762.96 -2.91206 1.13655 0
M  V30 17943 H 1762.18 -1.94736 3.42741 0
M  V30 17944 H 1763.46 -2.90927 4.17419 0
M  V30 17945 H 1762.86 -5.27395 2.04624 0
M  V30 17946 H 1761.42 -5.92706 2.71189 0
M  V30 17947 N 1764.85 -1.48386 -0.530967 0
M  V30 17948 C 1765.8 -1.59236 -1.6318 0
M  V30 17949 C 1766.79 -0.449549 -1.54492 0
M  V30 17950 O 1767.98 -0.700935 -1.6253 0
M  V30 17951 C 1765.11 -1.6343 -3.01903 0
M  V30 17952 C 1764.19 -2.83188 -3.15699 0
M  V30 17953 N 1764.58 -4.07616 -2.99471 0
M  V30 17954 C 1762.88 -2.80499 -3.46751 0
M  V30 17955 C 1763.58 -4.87959 -3.16657 0
M  V30 17956 N 1762.56 -4.20757 -3.44186 0
M  V30 17957 H 1766.36 -2.53187 -1.49243 0
M  V30 17958 H 1763.87 -1.44744 -0.7364 0
M  V30 17959 H 1765.87 -1.69297 -3.80978 0
M  V30 17960 H 1764.53 -0.705948 -3.16933 0
M  V30 17961 H 1765.54 -4.38068 -2.76255 0
M  V30 17962 H 1762.22 -1.96916 -3.68145 0
M  V30 17963 H 1763.61 -5.96705 -3.08857 0
M  V30 17964 N 1766.33 0.779763 -1.36958 0
M  V30 17965 C 1767.75 1.07919 -1.17582 0
M  V30 17966 C 1767.95 2.01499 -0.00649229 0
M  V30 17967 O 1767 2.43832 0.655905 0
M  V30 17968 C 1768.31 1.68439 -2.49096 0
M  V30 17969 C 1769.86 1.80735 -2.55546 0
M  V30 17970 C 1770.34 2.44669 -3.87171 0
M  V30 17971 N 1771.83 2.52127 -3.88569 0
M  V30 17972 C 1772.56 3.02429 -4.87159 0
M  V30 17973 N 1772.06 3.52964 -5.96144 0
M  V30 17974 N 1773.85 3.0123 -4.7457 0
M  V30 17975 H 1766 0.158249 -2.1181 0
M  V30 17976 H 1768.27 0.132826 -0.938649 0
M  V30 17977 H 1767.97 1.07147 -3.34981 0
M  V30 17978 H 1767.85 2.67832 -2.65604 0
M  V30 17979 H 1770.23 2.41162 -1.70073 0
M  V30 17980 H 1770.31 0.801199 -2.42929 0
M  V30 17981 H 1769.96 1.84883 -4.73055 0
M  V30 17982 H 1769.89 3.45874 -3.97088 0
M  V30 17983 H 1772.38 2.16355 -3.09837 0
M  V30 17984 H 1772.69 3.89725 -6.67334 0
M  V30 17985 H 1771.04 3.5109 -5.998 0
M  V30 17986 H 1774.23 2.61045 -3.88553 0
M  V30 17987 H 1774.4 3.40122 -5.51562 0
M  V30 17988 N 1767.81 1.21396 1.00503 0
M  V30 17989 C 1768.74 0.997268 2.11132 0
M  V30 17990 C 1769.72 -0.0777455 1.69922 0
M  V30 17991 O 1770.9 0.08208 1.94026 0
M  V30 17992 C 1768.03 0.561122 3.42737 0
M  V30 17993 C 1766.99 1.58069 3.97741 0
M  V30 17994 C 1766.31 1.00079 5.25251 0
M  V30 17995 C 1767.61 2.96754 4.29807 0
M  V30 17996 H 1769.31 1.92255 2.29518 0
M  V30 17997 H 1766.85 0.925776 1.10297 0
M  V30 17998 H 1768.81 0.396701 4.19529 0
M  V30 17999 H 1767.53 -0.399804 3.24144 0
M  V30 18000 H 1766.19 1.73268 3.23069 0
M  V30 18001 H 1765.84 0.0315797 5.0299 0
M  V30 18002 H 1765.54 1.68182 5.63017 0
M  V30 18003 H 1767.06 0.847687 6.04687 0
M  V30 18004 H 1768.48 2.85 4.97441 0
M  V30 18005 H 1766.87 3.61871 4.78717 0
M  V30 18006 H 1767.94 3.47602 3.38084 0
M  V30 18007 N 1769.29 -1.19996 1.0217 0
M  V30 18008 C 1770.22 -2.22392 0.55446 0
M  V30 18009 C 1771.23 -1.58636 -0.36586 0
M  V30 18010 O 1772.42 -1.77751 -0.163394 0
M  V30 18011 C 1769.52 -3.38235 -0.212234 0
M  V30 18012 C 1768.69 -4.31578 0.711253 0
M  V30 18013 C 1767.75 -5.26199 -0.00876314 0
M  V30 18014 O 1766.78 -5.65863 0.615435 0
M  V30 18015 N 1767.98 -5.66169 -1.28192 0
M  V30 18016 H 1770.74 -2.63107 1.43509 0
M  V30 18017 H 1768.31 -1.34589 0.899853 0
M  V30 18018 H 1770.3 -3.98542 -0.703282 0
M  V30 18019 H 1768.87 -2.96369 -0.994205 0
M  V30 18020 H 1768.09 -3.69161 1.38252 0
M  V30 18021 H 1769.38 -4.90861 1.33915 0
M  V30 18022 H 1768.77 -5.35966 -1.8099 0
M  V30 18023 H 1767.33 -6.28762 -1.7176 0
M  V30 18024 N 1770.76 -0.798611 -1.35867 0
M  V30 18025 C 1771.73 -0.209177 -2.28243 0
M  V30 18026 C 1772.73 0.598842 -1.49233 0
M  V30 18027 O 1773.92 0.418491 -1.69098 0
M  V30 18028 C 1771.05 0.709336 -3.33438 0
M  V30 18029 H 1772.24 -1.02382 -2.81883 0
M  V30 18030 H 1769.79 -0.568687 -1.45587 0
M  V30 18031 H 1770.53 1.54797 -2.84971 0
M  V30 18032 H 1770.31 0.131756 -3.91879 0
M  V30 18033 H 1771.8 1.11632 -4.02403 0
M  V30 18034 N 1772.24 1.47639 -0.551417 0
M  V30 18035 C 1773.17 2.27972 0.236919 0
M  V30 18036 C 1774.19 1.3666 0.884752 0
M  V30 18037 O 1775.38 1.61532 0.75958 0
M  V30 18038 C 1772.48 3.10738 1.3526 0
M  V30 18039 C 1771.65 4.29972 0.802659 0
M  V30 18040 C 1770.71 4.94379 1.80212 0
M  V30 18041 O 1769.73 5.52946 1.35053 0
M  V30 18042 N 1770.94 4.8855 3.13526 0
M  V30 18043 H 1773.7 2.9627 -0.452154 0
M  V30 18044 H 1771.26 1.57204 -0.387116 0
M  V30 18045 H 1773.25 3.50692 2.01983 0
M  V30 18046 H 1771.82 2.44721 1.945 0
M  V30 18047 H 1771.04 3.94178 -0.0411825 0
M  V30 18048 H 1772.33 5.07109 0.41448 0
M  V30 18049 H 1771.73 4.42157 3.52865 0
M  V30 18050 H 1770.29 5.32541 3.75823 0
M  V30 18051 N 1773.72 0.287581 1.54954 0
M  V30 18052 C 1774.65 -0.62789 2.20432 0
M  V30 18053 C 1775.67 -1.10792 1.19286 0
M  V30 18054 O 1776.85 -1.02768 1.45949 0
M  V30 18055 C 1773.95 -1.86998 2.82639 0
M  V30 18056 C 1773.13 -1.53469 4.09592 0
M  V30 18057 C 1772.19 -2.63053 4.5573 0
M  V30 18058 O 1771.21 -2.28712 5.21229 0
M  V30 18059 N 1772.41 -3.93348 4.26917 0
M  V30 18060 H 1775.18 -0.067416 2.99624 0
M  V30 18061 H 1772.74 0.109205 1.61531 0
M  V30 18062 H 1774.73 -2.59629 3.10443 0
M  V30 18063 H 1773.3 -2.33919 2.07366 0
M  V30 18064 H 1772.52 -0.641635 3.88943 0
M  V30 18065 H 1773.81 -1.28587 4.92283 0
M  V30 18066 H 1773.21 -4.24063 3.74415 0
M  V30 18067 H 1771.77 -4.62318 4.59462 0
M  V30 18068 N 1775.2 -1.57593 0.0150662 0
M  V30 18069 C 1776.15 -2.10501 -0.989557 0
M  V30 18070 C 1777.14 -1.02836 -1.34615 0
M  V30 18071 O 1778.35 -1.21286 -1.33002 0
M  V30 18072 H 1774.72 -0.672343 -0.336838 0
M  V30 18073 H 1776.69 -2.93871 -0.517893 0
M  V30 18074 C 1775.44 -2.63583 -2.26759 0
M  V30 18075 H 1774.76 -3.46069 -2.00191 0
M  V30 18076 H 1776.2 -3.04264 -2.95295 0
M  V30 18077 C 1774.66 -1.5568 -2.98773 0
M  V30 18078 O 1775.19 -0.948437 -3.90343 0
M  V30 18079 N 1773.4 -1.28062 -2.60861 0
M  V30 18080 H 1772.95 -1.77719 -1.86477 0
M  V30 18081 H 1772.9 -0.560878 -3.09357 0
M  V30 18082 N 1776.68 0.257904 -1.55475 0
M  V30 18083 C 1778.09 0.605871 -1.47653 0
M  V30 18084 C 1778.29 1.88837 -0.703063 0
M  V30 18085 O 1777.35 2.51469 -0.227981 0
M  V30 18086 C 1778.66 0.718813 -2.91982 0
M  V30 18087 C 1780.21 0.81187 -3.02287 0
M  V30 18088 C 1780.68 0.956465 -4.47901 0
M  V30 18089 N 1782.18 1.02161 -4.51793 0
M  V30 18090 C 1782.91 1.15256 -5.61697 0
M  V30 18091 N 1782.41 1.24975 -6.81435 0
M  V30 18092 N 1784.2 1.18485 -5.4947 0
M  V30 18093 H 1776.35 -0.584154 -2.04209 0
M  V30 18094 H 1778.61 -0.200045 -0.926653 0
M  V30 18095 H 1778.32 -0.15335 -3.51366 0
M  V30 18096 H 1778.19 1.59429 -3.41851 0
M  V30 18097 H 1780.58 1.67449 -2.42991 0
M  V30 18098 H 1780.66 -0.0885307 -2.55647 0
M  V30 18099 H 1780.31 0.0984438 -5.07805 0
M  V30 18100 H 1780.24 1.87174 -4.92213 0
M  V30 18101 H 1782.73 0.958295 -3.65548 0
M  V30 18102 H 1783.04 1.34843 -7.60945 0
M  V30 18103 H 1781.38 1.21952 -6.84217 0
M  V30 18104 H 1784.58 1.10534 -4.54863 0
M  V30 18105 H 1784.75 1.28346 -6.35162 0
M  V30 18106 N 1778.15 1.48666 0.52309 0
M  V30 18107 C 1779.09 1.59796 1.64311 0
M  V30 18108 C 1780.1 0.481836 1.55506 0
M  V30 18109 O 1781.29 0.752977 1.61841 0
M  V30 18110 C 1778.39 1.5181 3.02997 0
M  V30 18111 C 1777.56 2.7858 3.37212 0
M  V30 18112 C 1776.62 2.63952 4.5521 0
M  V30 18113 O 1775.65 3.37851 4.58088 0
M  V30 18114 N 1776.85 1.74026 5.53801 0
M  V30 18115 H 1779.61 2.56386 1.55197 0
M  V30 18116 H 1777.17 1.45476 0.710511 0
M  V30 18117 H 1779.17 1.39709 3.7982 0
M  V30 18118 H 1777.74 0.631664 3.06152 0
M  V30 18119 H 1776.96 3.05194 2.495 0
M  V30 18120 H 1778.24 3.62668 3.56861 0
M  V30 18121 H 1777.64 1.13202 5.54258 0
M  V30 18122 H 1776.2 1.6786 6.29814 0
M  V30 18123 N 1779.63 -0.772489 1.37369 0
M  V30 18124 C 1781.04 -1.34873 1.29098 0
M  V30 18125 C 1781.39 -1.96103 -0.0617433 0
M  V30 18126 O 1780.52 -1.93764 -0.963562 0
M  V30 18127 C 1781.11 -2.45218 2.33781 0
M  V30 18128 C 1779.67 -2.98612 2.29146 0
M  V30 18129 C 1778.82 -1.71823 2.17651 0
M  V30 18130 H 1781.77 -0.572805 1.48002 0
M  V30 18131 H 1781.79 -3.24679 1.98404 0
M  V30 18132 H 1781.3 -2.00624 3.32222 0
M  V30 18133 H 1779.41 -3.47583 1.34225 0
M  V30 18134 H 1779.52 -3.54276 3.22529 0
M  V30 18135 H 1777.88 -1.94719 1.64185 0
M  V30 18136 H 1778.67 -1.29334 3.18006 0
M  V30 18137 N 1781.11 -1.21927 -0.998575 0
M  V30 18138 C 1782.04 -1.00845 -2.106 0
M  V30 18139 C 1783.02 0.068733 -1.69961 0
M  V30 18140 O 1784.21 -0.0923686 -1.9398 0
M  V30 18141 C 1781.34 -0.57929 -3.42435 0
M  V30 18142 C 1780.29 -1.60177 -3.96897 0
M  V30 18143 C 1779.62 -1.02863 -5.24713 0
M  V30 18144 C 1780.92 -2.9903 -4.28227 0
M  V30 18145 H 1782.61 -1.93469 -2.28495 0
M  V30 18146 H 1780.16 -0.931612 -1.09804 0
M  V30 18147 H 1782.11 -0.418944 -4.19312 0
M  V30 18148 H 1780.83 0.382608 -3.24351 0
M  V30 18149 H 1779.49 -1.74979 -3.22146 0
M  V30 18150 H 1779.14 -0.058254 -5.02966 0
M  V30 18151 H 1778.84 -1.71166 -5.62117 0
M  V30 18152 H 1780.36 -0.879743 -6.04229 0
M  V30 18153 H 1781.78 -2.87634 -4.95923 0
M  V30 18154 H 1780.18 -3.64404 -4.76791 0
M  V30 18155 H 1781.25 -3.4939 -3.36236 0
M  V30 18156 N 1782.59 1.19452 -1.02805 0
M  V30 18157 C 1783.52 2.21405 -0.552712 0
M  V30 18158 C 1784.5 1.5745 0.405999 0
M  V30 18159 O 1785.68 1.85707 0.323296 0
M  V30 18160 C 1782.81 3.38143 0.194179 0
M  V30 18161 C 1781.86 4.2045 -0.715836 0
M  V30 18162 S 1782.69 4.88601 -2.19156 0
M  V30 18163 C 1783.85 6.08749 -1.45516 0
M  V30 18164 H 1784.08 2.61383 -1.41655 0
M  V30 18165 H 1781.61 1.29686 -0.837915 0
M  V30 18166 H 1783.57 4.05807 0.618972 0
M  V30 18167 H 1782.23 2.96602 1.03374 0
M  V30 18168 H 1781.42 5.03808 -0.139277 0
M  V30 18169 H 1781.03 3.581 -1.07891 0
M  V30 18170 H 1783.32 6.73432 -0.74131 0
M  V30 18171 H 1784.26 6.70887 -2.26531 0
M  V30 18172 H 1784.67 5.56397 -0.95302 0
M  V30 18173 N 1784.07 0.805805 1.35442 0
M  V30 18174 C 1785.01 0.203715 2.31706 0
M  V30 18175 C 1786.01 -0.646084 1.56595 0
M  V30 18176 O 1787.21 -0.539336 1.7173 0
M  V30 18177 H 1783.59 0.0471152 0.750523 0
M  V30 18178 H 1785.56 1.03076 2.80032 0
M  V30 18179 C 1784.31 -0.633791 3.41875 0
M  V30 18180 H 1783.63 0.0107715 3.99799 0
M  V30 18181 H 1785.07 -1.02147 4.11512 0
M  V30 18182 C 1783.53 -1.79899 2.84847 0
M  V30 18183 O 1784.06 -2.89643 2.78334 0
M  V30 18184 N 1782.27 -1.61027 2.41906 0
M  V30 18185 H 1781.81 -0.717599 2.47403 0
M  V30 18186 H 1781.77 -2.39147 2.04099 0
M  V30 18187 N 1785.54 -1.47344 0.559239 0
M  V30 18188 C 1786.48 -2.28095 -0.224826 0
M  V30 18189 C 1787.49 -1.37127 -0.877492 0
M  V30 18190 O 1788.68 -1.61933 -0.751002 0
M  V30 18191 C 1785.78 -3.1145 -1.33611 0
M  V30 18192 C 1784.95 -4.30392 -0.779845 0
M  V30 18193 C 1784.01 -4.95327 -1.77587 0
M  V30 18194 O 1783.04 -5.53654 -1.32119 0
M  V30 18195 N 1784.24 -4.90206 -3.10931 0
M  V30 18196 H 1787 -2.96026 0.46786 0
M  V30 18197 H 1784.56 -1.56996 0.395448 0
M  V30 18198 H 1786.56 -3.51758 -2.00121 0
M  V30 18199 H 1785.13 -2.45749 -1.932 0
M  V30 18200 H 1784.35 -3.94151 0.0620861 0
M  V30 18201 H 1785.63 -5.07322 -0.387581 0
M  V30 18202 H 1785.03 -4.44022 -3.50515 0
M  V30 18203 H 1783.59 -5.34527 -3.72994 0
M  V30 18204 N 1787.02 -0.295795 -1.54799 0
M  V30 18205 C 1788.27 0.315754 -1.99213 0
M  V30 18206 C 1788.58 1.55405 -1.18779 0
M  V30 18207 O 1789.79 2.23986 -1.53436 0
M  V30 18208 C 1788.25 0.613119 -3.54639 0
M  V30 18209 C 1787.85 -0.606546 -4.43875 0
M  V30 18210 C 1789.6 1.18615 -4.07591 0
M  V30 18211 C 1787.51 -0.282622 -5.90724 0
M  V30 18212 H 1786.44 0.121758 -0.744104 0
M  V30 18213 H 1789.09 -0.403686 -1.79005 0
M  V30 18214 H 1787.47 1.39202 -3.70728 0
M  V30 18215 H 1788.64 -1.3829 -4.39559 0
M  V30 18216 H 1786.96 -1.09785 -4.01667 0
M  V30 18217 H 1789.55 1.44266 -5.1487 0
M  V30 18218 H 1789.9 2.12674 -3.57876 0
M  V30 18219 H 1790.43 0.469078 -3.95025 0
M  V30 18220 H 1787.17 -1.19164 -6.44578 0
M  V30 18221 H 1786.69 0.456564 -5.9806 0
M  V30 18222 H 1788.37 0.117703 -6.46893 0
M  V30 18223 N 1788.5 1.57583 -0.0234236 0
M  V30 18224 C 1789.73 1.96267 0.670371 0
M  V30 18225 C 1790.15 0.899586 1.65194 0
M  V30 18226 O 1789.51 -0.140079 1.80758 0
M  V30 18227 C 1789.56 3.34049 1.35806 0
M  V30 18228 O 1788.66 3.3001 2.4732 0
M  V30 18229 H 1788 0.640097 0.176557 0
M  V30 18230 H 1790.53 2.04429 -0.0835829 0
M  V30 18231 H 1790.54 3.70151 1.71616 0
M  V30 18232 H 1789.22 4.10969 0.63852 0
M  V30 18233 H 1787.79 3.05618 2.13664 0
M  V30 18234 N 1789.98 -0.249655 1.5561 0
M  V30 18235 C 1790.93 -1.32883 1.90906 0
M  V30 18236 C 1791.92 -1.49965 0.787832 0
M  V30 18237 O 1793.13 -1.51473 0.972422 0
M  V30 18238 H 1789.5 -0.444907 0.606269 0
M  V30 18239 H 1791.47 -1.00379 2.8101 0
M  V30 18240 C 1790.22 -2.67782 2.21784 0
M  V30 18241 H 1789.55 -2.55436 3.07559 0
M  V30 18242 H 1790.99 -3.42175 2.50385 0
M  V30 18243 C 1789.44 -3.20664 1.03325 0
M  V30 18244 O 1789.97 -4.00724 0.279822 0
M  V30 18245 N 1788.18 -2.78655 0.824614 0
M  V30 18246 H 1787.73 -2.1366 1.43899 0
M  V30 18247 H 1787.69 -3.14382 0.03369 0
M  V30 18248 N 1791.46 -1.48941 -0.515198 0
M  V30 18249 C 1792.7 -1.57943 -1.27207 0
M  V30 18250 C 1793.04 -0.259011 -1.92465 0
M  V30 18251 O 1792.31 0.736277 -1.80026 0
M  V30 18252 C 1792.59 -2.72846 -2.35005 0
M  V30 18253 C 1792.45 -4.14639 -1.74341 0
M  V30 18254 C 1793.77 -2.83444 -3.36672 0
M  V30 18255 H 1790.89 -0.574909 -0.461138 0
M  V30 18256 H 1793.53 -1.81172 -0.572413 0
M  V30 18257 H 1791.68 -2.5317 -2.94681 0
M  V30 18258 H 1793.35 -4.45793 -1.18602 0
M  V30 18259 H 1791.59 -4.20948 -1.0481 0
M  V30 18260 H 1792.26 -4.90883 -2.52463 0
M  V30 18261 H 1794.74 -3.01311 -2.86969 0
M  V30 18262 H 1793.62 -3.65542 -4.09475 0
M  V30 18263 H 1793.88 -1.92208 -3.98131 0
M  V30 18264 N 1792.94 0.765193 -1.37777 0
M  V30 18265 C 1794.16 1.55948 -1.3673 0
M  V30 18266 C 1794.59 1.8805 0.0435817 0
M  V30 18267 O 1793.94 1.49718 1.02246 0
M  V30 18268 C 1793.99 2.84245 -2.21895 0
M  V30 18269 O 1793.1 3.78903 -1.62807 0
M  V30 18270 H 1792.44 0.472127 -0.466897 0
M  V30 18271 H 1794.97 0.946556 -1.81388 0
M  V30 18272 H 1794.98 3.33284 -2.35342 0
M  V30 18273 H 1793.65 2.60209 -3.24444 0
M  V30 18274 H 1792.23 3.37568 -1.58437 0
M  V30 18275 N 1794.41 1.22455 0.992094 0
M  V30 18276 C 1795.36 0.992597 2.10357 0
M  V30 18277 C 1796.36 -0.0645514 1.69277 0
M  V30 18278 O 1797.56 0.0879577 1.79785 0
M  V30 18279 H 1793.94 0.303808 0.687899 0
M  V30 18280 H 1795.91 1.93574 2.27094 0
M  V30 18281 C 1794.66 0.587852 3.42695 0
M  V30 18282 H 1793.98 1.39298 3.74748 0
M  V30 18283 H 1795.42 0.464975 4.21443 0
M  V30 18284 C 1793.88 -0.702681 3.29491 0
M  V30 18285 O 1794.41 -1.7549 3.61339 0
M  V30 18286 N 1792.61 -0.674141 2.82672 0
M  V30 18287 H 1792.16 0.182446 2.56953 0
M  V30 18288 H 1792.12 -1.53789 2.7422 0
M  V30 18289 N 1795.89 -1.18905 1.03437 0
M  V30 18290 C 1797.14 -1.89007 0.735135 0
M  V30 18291 C 1797.47 -1.7976 -0.734838 0
M  V30 18292 O 1796.75 -1.19365 -1.53565 0
M  V30 18293 C 1797.03 -3.39732 1.1939 0
M  V30 18294 C 1796.88 -3.57822 2.7255 0
M  V30 18295 C 1798.2 -4.33151 0.778993 0
M  V30 18296 H 1795.32 -0.686338 0.26853 0
M  V30 18297 H 1797.96 -1.39932 1.28527 0
M  V30 18298 H 1796.11 -3.81659 0.725861 0
M  V30 18299 H 1797.78 -3.25031 3.27342 0
M  V30 18300 H 1796.03 -3.0069 3.12679 0
M  V30 18301 H 1796.7 -4.63552 2.99706 0
M  V30 18302 H 1799.17 -3.98969 1.18164 0
M  V30 18303 H 1798.05 -5.37189 1.12781 0
M  V30 18304 H 1798.31 -4.40953 -0.318296 0
M  V30 18305 N 1797.37 -0.812977 -1.35013 0
M  V30 18306 C 1798.32 -0.216001 -2.31595 0
M  V30 18307 C 1799.31 0.637771 -1.56936 0
M  V30 18308 O 1800.52 0.530221 -1.72014 0
M  V30 18309 H 1796.89 -0.0510947 -0.750262 0
M  V30 18310 H 1798.86 -1.04559 -2.79482 0
M  V30 18311 C 1797.61 0.615651 -3.42206 0
M  V30 18312 H 1796.94 -0.0319737 -3.99787 0
M  V30 18313 H 1798.38 0.99963 -4.12048 0
M  V30 18314 C 1796.83 1.78386 -2.85797 0
M  V30 18315 O 1797.36 2.88163 -2.79866 0
M  V30 18316 N 1795.57 1.59742 -2.42757 0
M  V30 18317 H 1795.12 0.704468 -2.4778 0
M  V30 18318 H 1795.08 2.38061 -2.05364 0
M  V30 18319 N 1798.85 1.47045 -0.567045 0
M  V30 18320 C 1799.78 2.32929 0.163191 0
M  V30 18321 C 1800.76 1.44393 0.899142 0
M  V30 18322 O 1801.94 1.73235 0.87768 0
M  V30 18323 C 1799.07 3.26369 1.18745 0
M  V30 18324 C 1798.03 4.24223 0.567335 0
M  V30 18325 C 1797.35 5.07058 1.69693 0
M  V30 18326 C 1798.65 5.2004 -0.485319 0
M  V30 18327 H 1800.35 2.94233 -0.553837 0
M  V30 18328 H 1797.89 1.41488 -0.267789 0
M  V30 18329 H 1799.85 3.85299 1.70654 0
M  V30 18330 H 1798.57 2.6314 1.93455 0
M  V30 18331 H 1797.23 3.66534 0.0694525 0
M  V30 18332 H 1796.88 4.40226 2.43331 0
M  V30 18333 H 1796.58 5.73316 1.28774 0
M  V30 18334 H 1798.1 5.68848 2.2191 0
M  V30 18335 H 1799.52 5.73277 -0.0519049 0
M  V30 18336 H 1797.91 5.94554 -0.813942 0
M  V30 18337 H 1798.98 4.64921 -1.37754 0
M  V30 18338 N 1800.33 0.304 1.5464 0
M  V30 18339 C 1801.55 -0.306916 2.04611 0
M  V30 18340 C 1801.97 -1.4729 1.18114 0
M  V30 18341 O 1801.33 -1.81317 0.20743 0
M  V30 18342 C 1801.38 -0.760263 3.53415 0
M  V30 18343 O 1801.1 0.359321 4.36624 0
M  V30 18344 C 1802.6 -1.43602 4.19396 0
M  V30 18345 H 1799.82 -0.066247 0.667722 0
M  V30 18346 H 1802.36 0.444504 1.99611 0
M  V30 18347 H 1800.52 -1.4617 3.58766 0
M  V30 18348 H 1800.93 0.00582275 5.245 0
M  V30 18349 H 1802.41 -1.70436 5.25029 0
M  V30 18350 H 1802.88 -2.37705 3.69314 0
M  V30 18351 H 1803.49 -0.777683 4.18129 0
M  V30 18352 N 1801.8 -1.57568 0.0317802 0
M  V30 18353 C 1802.73 -2.13412 -0.947499 0
M  V30 18354 C 1803.71 -1.05091 -1.33753 0
M  V30 18355 O 1804.9 -1.32936 -1.41568 0
M  V30 18356 C 1802.03 -2.66337 -2.22895 0
M  V30 18357 C 1800.98 -3.79469 -1.97958 0
M  V30 18358 C 1800.31 -4.18833 -3.3239 0
M  V30 18359 C 1801.61 -5.05432 -1.31664 0
M  V30 18360 H 1803.3 -2.95488 -0.482417 0
M  V30 18361 H 1800.85 -1.42142 -0.230603 0
M  V30 18362 H 1802.8 -3.04039 -2.91784 0
M  V30 18363 H 1801.53 -1.81426 -2.71574 0
M  V30 18364 H 1800.19 -3.42209 -1.31485 0
M  V30 18365 H 1799.83 -3.30899 -3.78833 0
M  V30 18366 H 1799.53 -4.95071 -3.16511 0
M  V30 18367 H 1801.06 -4.5912 -4.02544 0
M  V30 18368 H 1802.47 -5.40704 -1.90558 0
M  V30 18369 H 1800.87 -5.86686 -1.26173 0
M  V30 18370 H 1801.94 -4.84032 -0.28996 0
M  V30 18371 N 1803.28 0.241399 -1.5574 0
M  V30 18372 C 1804.7 0.590176 -1.48287 0
M  V30 18373 C 1804.9 1.8808 -0.723052 0
M  V30 18374 O 1803.95 2.51213 -0.25464 0
M  V30 18375 C 1805.27 0.687804 -2.92728 0
M  V30 18376 C 1806.82 0.779763 -3.03131 0
M  V30 18377 C 1807.29 0.908905 -4.48891 0
M  V30 18378 N 1808.78 0.973636 -4.52852 0
M  V30 18379 C 1809.52 1.09292 -5.62888 0
M  V30 18380 N 1809.01 1.1774 -6.82722 0
M  V30 18381 N 1810.81 1.12651 -5.50696 0
M  V30 18382 H 1802.96 -0.605781 -2.03578 0
M  V30 18383 H 1805.22 -0.209862 -0.924479 0
M  V30 18384 H 1804.93 -0.190608 -3.51183 0
M  V30 18385 H 1804.8 1.55794 -3.43523 0
M  V30 18386 H 1807.19 1.64863 -2.44754 0
M  V30 18387 H 1807.27 -0.115641 -2.55538 0
M  V30 18388 H 1806.91 0.0445788 -5.0788 0
M  V30 18389 H 1806.84 1.81943 -4.9417 0
M  V30 18390 H 1809.33 0.919469 -3.66544 0
M  V30 18391 H 1809.65 1.26764 -7.62332 0
M  V30 18392 H 1807.99 1.14688 -6.85472 0
M  V30 18393 H 1811.18 1.05703 -4.56009 0
M  V30 18394 H 1811.35 1.21602 -6.36488 0
M  V30 18395 N 1804.76 1.49212 0.507292 0
M  V30 18396 C 1806.17 1.51655 1.08892 0
M  V30 18397 C 1806.52 0.299163 1.93906 0
M  V30 18398 O 1805.65 -0.591635 2.08155 0
M  V30 18399 C 1806.24 2.7481 1.98154 0
M  V30 18400 C 1804.8 2.80051 2.51492 0
M  V30 18401 C 1803.95 2.45486 1.28966 0
M  V30 18402 H 1806.9 1.56 0.291488 0
M  V30 18403 H 1806.92 2.54615 2.82757 0
M  V30 18404 H 1806.43 3.63396 1.36253 0
M  V30 18405 H 1804.53 1.95729 3.1705 0
M  V30 18406 H 1804.65 3.82064 2.89075 0
M  V30 18407 H 1803.01 1.97128 1.61284 0
M  V30 18408 H 1803.79 3.36339 0.687821 0
M  V30 18409 N 1806.24 -0.757876 1.38181 0
M  V30 18410 C 1807.49 -1.51388 1.33888 0
M  V30 18411 C 1807.81 -1.94867 -0.0718767 0
M  V30 18412 O 1807.08 -1.67329 -1.01871 0
M  V30 18413 H 1805.66 -0.561534 0.492634 0
M  V30 18414 H 1808.32 -0.901156 1.72815 0
M  V30 18415 H 1807.42 -2.4068 1.98695 0
M  V30 18416 N 1807.72 -1.22979 -0.985586 0
M  V30 18417 C 1808.96 -1.06033 -1.72872 0
M  V30 18418 C 1809.3 0.402572 -1.89982 0
M  V30 18419 O 1808.57 1.29824 -1.44831 0
M  V30 18420 C 1808.85 -1.78047 -3.13004 0
M  V30 18421 C 1808.71 -3.31979 -3.03497 0
M  V30 18422 C 1810.03 -1.53877 -4.12323 0
M  V30 18423 H 1807.14 -0.386594 -0.627466 0
M  V30 18424 H 1809.79 -1.51416 -1.14775 0
M  V30 18425 H 1807.94 -1.39469 -3.62603 0
M  V30 18426 H 1809.61 -3.80047 -2.61462 0
M  V30 18427 H 1807.85 -3.61279 -2.40125 0
M  V30 18428 H 1808.52 -3.7755 -4.02691 0
M  V30 18429 H 1811 -1.87402 -3.7151 0
M  V30 18430 H 1809.87 -2.06749 -5.08474 0
M  V30 18431 H 1810.14 -0.472972 -4.39563 0
M  V30 18432 N 1809.19 1.18355 -1.04066 0
M  V30 18433 C 1810.61 1.69995 -0.771919 0
M  V30 18434 C 1810.96 1.83011 0.707213 0
M  V30 18435 O 1810.08 1.5096 1.55048 0
M  V30 18436 C 1810.68 3.08765 -1.39461 0
M  V30 18437 C 1809.24 3.57617 -1.17418 0
M  V30 18438 C 1808.38 2.34168 -1.48528 0
M  V30 18439 H 1811.33 1.0303 -1.20708 0
M  V30 18440 H 1811.35 3.72042 -0.79782 0
M  V30 18441 H 1810.87 2.9926 -2.47113 0
M  V30 18442 H 1808.97 3.72418 -0.116398 0
M  V30 18443 H 1809.08 4.41048 -1.87119 0
M  V30 18444 H 1807.44 2.38081 -0.904972 0
M  V30 18445 H 1808.23 2.27282 -2.57289 0
M  V30 18446 N 1810.67 0.820125 1.3458 0
M  V30 18447 C 1811.9 0.419764 2.02597 0
M  V30 18448 C 1812.32 -0.973439 1.6177 0
M  V30 18449 O 1811.67 -1.6295 0.821791 0
M  V30 18450 C 1811.72 0.509104 3.57897 0
M  V30 18451 O 1811.44 1.84739 3.97244 0
M  V30 18452 C 1812.95 0.103283 4.4318 0
M  V30 18453 H 1810.17 0.168803 0.64942 0
M  V30 18454 H 1812.71 1.10751 1.71914 0
M  V30 18455 H 1810.86 -0.130526 3.8718 0
M  V30 18456 H 1811.28 1.81967 4.91923 0
M  V30 18457 H 1812.75 0.216884 5.51574 0
M  V30 18458 H 1813.23 -0.952888 4.28738 0
M  V30 18459 H 1813.84 0.716601 4.19219 0
M  V30 18460 N 1812.15 -1.46743 0.574835 0
M  V30 18461 C 1813.08 -2.2832 -0.20062 0
M  V30 18462 C 1814.1 -1.3805 -0.862898 0
M  V30 18463 O 1815.28 -1.6272 -0.733785 0
M  V30 18464 C 1812.38 -3.1285 -1.303 0
M  V30 18465 C 1811.56 -4.31195 -0.734153 0
M  V30 18466 C 1810.62 -4.97183 -1.72324 0
M  V30 18467 O 1809.64 -5.55025 -1.26239 0
M  V30 18468 N 1810.84 -4.93476 -3.05714 0
M  V30 18469 H 1813.61 -2.95513 0.499231 0
M  V30 18470 H 1811.17 -1.56568 0.412077 0
M  V30 18471 H 1813.16 -3.53861 -1.96378 0
M  V30 18472 H 1811.73 -2.47784 -1.90583 0
M  V30 18473 H 1810.95 -3.94063 0.103888 0
M  V30 18474 H 1812.24 -5.07704 -0.333751 0
M  V30 18475 H 1811.64 -4.47715 -3.45786 0
M  V30 18476 H 1810.2 -5.38453 -3.67304 0
M  V30 18477 N 1813.63 -0.312197 -1.54477 0
M  V30 18478 C 1814.59 0.54612 -2.22599 0
M  V30 18479 C 1815.59 1.05252 -1.21568 0
M  V30 18480 O 1816.78 0.946756 -1.46226 0
M  V30 18481 C 1813.91 1.75733 -2.92114 0
M  V30 18482 H 1815.11 -0.0492216 -2.9986 0
M  V30 18483 H 1812.66 -0.063149 -1.56172 0
M  V30 18484 H 1813.39 2.39221 -2.18961 0
M  V30 18485 H 1813.18 1.40175 -3.66188 0
M  V30 18486 H 1814.67 2.36685 -3.44049 0
M  V30 18487 N 1815.11 1.57549 -0.040136 0
M  V30 18488 C 1816.52 1.79959 0.497142 0
M  V30 18489 C 1816.87 0.951403 1.71589 0
M  V30 18490 O 1815.99 0.16488 2.15771 0
M  V30 18491 C 1816.59 3.26387 0.908682 0
M  V30 18492 C 1815.15 3.49754 1.39101 0
M  V30 18493 C 1814.29 2.74941 0.360933 0
M  V30 18494 H 1817.25 1.56453 -0.266099 0
M  V30 18495 H 1817.27 3.36702 1.77234 0
M  V30 18496 H 1816.78 3.88094 0.0214628 0
M  V30 18497 H 1814.88 2.93313 2.29778 0
M  V30 18498 H 1814.99 4.58469 1.39078 0
M  V30 18499 H 1813.36 2.40747 0.831432 0
M  V30 18500 H 1814.14 3.39369 -0.51801 0
M  V30 18501 N 1816.58 -0.233136 1.55866 0
M  V30 18502 C 1817.83 -0.957205 1.7754 0
M  V30 18503 C 1818.15 -1.85956 0.606601 0
M  V30 18504 O 1819.35 -2.62142 0.706687 0
M  V30 18505 C 1817.81 -1.75215 3.14369 0
M  V30 18506 C 1817.42 -0.896509 4.38938 0
M  V30 18507 C 1819.16 -2.46813 3.45374 0
M  V30 18508 C 1817.07 -1.68814 5.66794 0
M  V30 18509 H 1816 -0.361139 0.661887 0
M  V30 18510 H 1818.65 -0.211424 1.82278 0
M  V30 18511 H 1817.03 -2.54041 3.03775 0
M  V30 18512 H 1818.2 -0.149614 4.60557 0
M  V30 18513 H 1816.52 -0.293211 4.15366 0
M  V30 18514 H 1819.12 -3.0652 4.38121 0
M  V30 18515 H 1819.46 -3.19121 2.67334 0
M  V30 18516 H 1819.99 -1.74987 3.57245 0
M  V30 18517 H 1816.73 -1.00855 6.47695 0
M  V30 18518 H 1816.25 -2.40995 5.49255 0
M  V30 18519 H 1817.93 -2.25178 6.06551 0
M  V30 18520 N 1818.06 -1.49479 -0.499372 0
M  V30 18521 C 1819.01 -1.66756 -1.62158 0
M  V30 18522 C 1820.01 -0.533485 -1.6078 0
M  V30 18523 O 1821.21 -0.713167 -1.65269 0
M  V30 18524 H 1817.59 -0.525853 -0.537571 0
M  V30 18525 H 1819.56 -2.60947 -1.44738 0
M  V30 18526 C 1818.31 -1.75287 -3.00283 0
M  V30 18527 H 1817.63 -2.61928 -3.02049 0
M  V30 18528 H 1819.07 -1.91411 -3.78336 0
M  V30 18529 C 1817.53 -0.498056 -3.33198 0
M  V30 18530 O 1818.06 0.375528 -3.99941 0
M  V30 18531 N 1816.26 -0.360513 -2.88355 0
M  V30 18532 H 1815.81 -1.0724 -2.34216 0
M  V30 18533 H 1815.77 0.477981 -3.10745 0
M  V30 18534 N 1819.54 0.750537 -1.38581 0
M  V30 18535 C 1820.5 1.84599 -1.35852 0
M  V30 18536 C 1821.5 1.58709 -0.258462 0
M  V30 18537 O 1822.69 1.66397 -0.51552 0
M  V30 18538 C 1819.83 3.22124 -1.11573 0
M  V30 18539 H 1821.02 1.88426 -2.33314 0
M  V30 18540 H 1818.57 0.952564 -1.23919 0
M  V30 18541 H 1819.31 3.23965 -0.147295 0
M  V30 18542 H 1819.09 3.42311 -1.91221 0
M  V30 18543 H 1820.58 4.02198 -1.12367 0
M  V30 18544 N 1821.02 1.235 0.979051 0
M  V30 18545 C 1821.95 0.975198 2.07419 0
M  V30 18546 C 1822.96 -0.0512875 1.62719 0
M  V30 18547 O 1824.15 0.184403 1.77545 0
M  V30 18548 C 1821.25 0.447701 3.3593 0
M  V30 18549 C 1820.43 1.53467 4.09593 0
M  V30 18550 C 1819.49 1.01181 5.16381 0
M  V30 18551 O 1818.51 1.70108 5.43187 0
M  V30 18552 N 1819.71 -0.159667 5.8028 0
M  V30 18553 H 1822.48 1.91806 2.30283 0
M  V30 18554 H 1820.04 1.14377 1.14584 0
M  V30 18555 H 1822.03 0.0829228 4.04615 0
M  V30 18556 H 1820.6 -0.400613 3.10022 0
M  V30 18557 H 1819.82 2.07215 3.35344 0
M  V30 18558 H 1821.11 2.2656 4.55574 0
M  V30 18559 H 1820.51 -0.736193 5.60889 0
M  V30 18560 H 1819.06 -0.465696 6.50134 0
M  V30 18561 N 1822.5 -1.17802 1.04693 0
M  V30 18562 C 1823.43 -2.20498 0.587866 0
M  V30 18563 C 1824.41 -1.58076 -0.380899 0
M  V30 18564 O 1825.59 -1.86198 -0.293711 0
M  V30 18565 C 1822.72 -3.38409 -0.140359 0
M  V30 18566 C 1821.77 -4.19258 0.782636 0
M  V30 18567 S 1822.6 -4.85052 2.26902 0
M  V30 18568 C 1823.75 -6.06357 1.55182 0
M  V30 18569 H 1823.99 -2.59096 1.45796 0
M  V30 18570 H 1821.52 -1.28336 0.858441 0
M  V30 18571 H 1823.48 -4.0674 -0.554333 0
M  V30 18572 H 1822.14 -2.98209 -0.98642 0
M  V30 18573 H 1821.33 -5.03522 0.219411 0
M  V30 18574 H 1820.93 -3.56338 1.13575 0
M  V30 18575 H 1823.23 -6.72168 0.848353 0
M  V30 18576 H 1824.17 -6.67198 2.37175 0
M  V30 18577 H 1824.58 -5.54811 1.04142 0
M  V30 18578 N 1823.98 -0.827251 -1.34143 0
M  V30 18579 C 1824.91 -0.267015 -2.31968 0
M  V30 18580 C 1825.89 0.618906 -1.58441 0
M  V30 18581 O 1827.07 0.544882 -1.86399 0
M  V30 18582 C 1824.2 0.568379 -3.42617 0
M  V30 18583 C 1823.16 -0.220767 -4.2743 0
M  V30 18584 C 1822.48 0.737643 -5.29587 0
M  V30 18585 C 1823.78 -1.43137 -5.02304 0
M  V30 18586 H 1825.48 -1.08436 -2.79073 0
M  V30 18587 H 1823.02 -0.522879 -1.34171 0
M  V30 18588 H 1824.97 0.970525 -4.10072 0
M  V30 18589 H 1823.7 1.41882 -2.94172 0
M  V30 18590 H 1822.36 -0.604333 -3.61585 0
M  V30 18591 H 1822.01 1.58416 -4.77403 0
M  V30 18592 H 1821.71 0.213815 -5.87211 0
M  V30 18593 H 1823.23 1.13755 -5.9991 0
M  V30 18594 H 1824.64 -1.10301 -5.62589 0
M  V30 18595 H 1823.04 -1.89115 -5.69522 0
M  V30 18596 H 1824.11 -2.2073 -4.31748 0
M  V30 18597 N 1825.45 1.46436 -0.582609 0
M  V30 18598 C 1826.42 2.28769 0.140502 0
M  V30 18599 C 1827.42 1.38385 0.818911 0
M  V30 18600 O 1828.61 1.60763 0.670882 0
M  V30 18601 C 1825.74 3.18765 1.20836 0
M  V30 18602 H 1826.93 2.94178 -0.583049 0
M  V30 18603 H 1824.48 1.52544 -0.340575 0
M  V30 18604 H 1825.22 2.58103 1.9635 0
M  V30 18605 H 1825 3.85312 0.726417 0
M  V30 18606 H 1826.49 3.80735 1.71553 0
M  V30 18607 N 1826.93 0.320385 1.54309 0
M  V30 18608 C 1827.86 -0.580992 2.21714 0
M  V30 18609 C 1828.88 -1.08236 1.21609 0
M  V30 18610 O 1830.07 -0.996489 1.48096 0
M  V30 18611 C 1827.17 -1.80961 2.86542 0
M  V30 18612 C 1826.34 -1.44746 4.12756 0
M  V30 18613 C 1825.4 -2.53327 4.61207 0
M  V30 18614 O 1824.42 -2.17605 5.25963 0
M  V30 18615 N 1825.63 -3.84204 4.35164 0
M  V30 18616 H 1828.39 -0.00384608 2.997 0
M  V30 18617 H 1825.95 0.143444 1.61263 0
M  V30 18618 H 1827.94 -2.52985 3.1588 0
M  V30 18619 H 1826.51 -2.29468 2.12281 0
M  V30 18620 H 1825.73 -0.55899 3.90217 0
M  V30 18621 H 1827.02 -1.18116 4.949 0
M  V30 18622 H 1826.42 -4.16026 3.83326 0
M  V30 18623 H 1824.98 -4.52468 4.69165 0
M  V30 18624 N 1828.41 -1.57525 0.0484906 0
M  V30 18625 C 1829.83 -1.56599 -0.308041 0
M  V30 18626 C 1830.03 -1.05591 -1.71618 0
M  V30 18627 O 1829.08 -0.711302 -2.42274 0
M  V30 18628 C 1830.39 -3.00379 -0.138955 0
M  V30 18629 C 1831.94 -3.12293 -0.210262 0
M  V30 18630 C 1832.42 -4.57947 -0.0697369 0
M  V30 18631 N 1833.91 -4.63028 -0.1261 0
M  V30 18632 C 1834.64 -5.73385 -0.0414392 0
M  V30 18633 N 1834.14 -6.92734 0.0954164 0
M  V30 18634 N 1835.93 -5.62017 -0.0968281 0
M  V30 18635 H 1828.08 -1.89005 0.969069 0
M  V30 18636 H 1830.35 -0.87027 0.375944 0
M  V30 18637 H 1830.05 -3.41722 0.831808 0
M  V30 18638 H 1829.93 -3.66278 -0.901109 0
M  V30 18639 H 1832.31 -2.7085 -1.1715 0
M  V30 18640 H 1832.39 -2.49077 0.582601 0
M  V30 18641 H 1832.04 -5.00074 0.888161 0
M  V30 18642 H 1831.97 -5.19166 -0.881711 0
M  V30 18643 H 1834.46 -3.77192 -0.231232 0
M  V30 18644 H 1834.77 -7.72649 0.152796 0
M  V30 18645 H 1833.12 -6.94878 0.130465 0
M  V30 18646 H 1836.31 -4.67663 -0.202283 0
M  V30 18647 H 1836.48 -6.47994 -0.0273908 0
M  V30 18648 N 1829.89 0.224867 -1.55988 0
M  V30 18649 C 1830.82 1.30204 -1.88626 0
M  V30 18650 C 1831.83 1.4321 -0.774248 0
M  V30 18651 O 1833.02 1.44167 -1.05253 0
M  V30 18652 C 1830.12 2.67806 -2.07685 0
M  V30 18653 C 1829.29 2.76789 -3.38684 0
M  V30 18654 C 1828.35 3.95383 -3.47216 0
M  V30 18655 O 1827.38 3.83876 -4.20271 0
M  V30 18656 N 1828.58 5.09541 -2.78116 0
M  V30 18657 H 1831.35 1.02533 -2.81615 0
M  V30 18658 H 1828.91 0.414916 -1.56493 0
M  V30 18659 H 1830.9 3.45518 -2.10712 0
M  V30 18660 H 1829.47 2.88091 -1.21336 0
M  V30 18661 H 1828.69 1.8558 -3.47784 0
M  V30 18662 H 1829.98 2.79758 -4.24986 0
M  V30 18663 H 1829.38 5.21785 -2.18535 0
M  V30 18664 H 1827.93 5.85307 -2.86808 0
M  V30 18665 N 1831.37 1.49742 0.491438 0
M  V30 18666 C 1832.78 1.36717 0.823454 0
M  V30 18667 C 1832.98 0.407587 1.97335 0
M  V30 18668 O 1832.04 -0.157251 2.5201 0
M  V30 18669 C 1833.35 2.77647 1.15466 0
M  V30 18670 C 1834.9 2.86417 1.26231 0
M  V30 18671 C 1835.37 4.28136 1.62676 0
M  V30 18672 N 1836.86 4.30992 1.69707 0
M  V30 18673 C 1837.6 5.37624 1.9937 0
M  V30 18674 N 1837.1 6.54489 2.27192 0
M  V30 18675 N 1838.89 5.25048 2.00701 0
M  V30 18676 H 1831.04 2.10719 -0.266676 0
M  V30 18677 H 1833.3 0.946301 -0.0567377 0
M  V30 18678 H 1833.01 3.49608 0.382994 0
M  V30 18679 H 1832.88 3.13617 2.09582 0
M  V30 18680 H 1835.27 2.14687 2.02468 0
M  V30 18681 H 1835.35 2.54018 0.301434 0
M  V30 18682 H 1834.99 5.00396 0.869859 0
M  V30 18683 H 1834.92 4.58007 2.59879 0
M  V30 18684 H 1837.42 3.46713 1.50327 0
M  V30 18685 H 1837.73 7.31572 2.49041 0
M  V30 18686 H 1836.07 6.57699 2.24627 0
M  V30 18687 H 1839.26 4.32751 1.78449 0
M  V30 18688 H 1839.44 6.08242 2.23484 0
M  V30 18689 N 1832.84 -0.743177 1.38977 0
M  V30 18690 C 1833.75 -1.88767 1.39299 0
M  V30 18691 C 1834.77 -1.71587 0.288782 0
M  V30 18692 O 1835.95 -1.94331 0.52892 0
M  V30 18693 C 1833.01 -3.24263 1.22697 0
M  V30 18694 C 1832.07 -3.53895 2.43017 0
M  V30 18695 C 1831.31 -4.82925 2.27198 0
M  V30 18696 O 1831.53 -5.56056 1.27114 0
M  V30 18697 O 1830.46 -5.12271 3.16009 0
M  V30 18698 H 1834.29 -1.9145 2.35755 0
M  V30 18699 H 1831.87 -0.889881 1.20006 0
M  V30 18700 H 1833.76 -4.05251 1.1554 0
M  V30 18701 H 1832.43 -3.22368 0.293317 0
M  V30 18702 H 1831.34 -2.73026 2.5575 0
M  V30 18703 H 1832.67 -3.6056 3.35048 0
M  V30 18704 N 1834.32 -1.24018 -0.972487 0
M  V30 18705 C 1835.57 -1.07105 -1.70913 0
M  V30 18706 C 1835.88 0.390908 -1.91654 0
M  V30 18707 O 1837.09 0.68013 -2.62843 0
M  V30 18708 C 1835.55 -1.86823 -3.07612 0
M  V30 18709 C 1835.15 -3.37399 -2.94731 0
M  V30 18710 C 1836.9 -1.78425 -3.85182 0
M  V30 18711 C 1834.81 -4.09479 -4.2671 0
M  V30 18712 H 1833.74 -0.397184 -0.640907 0
M  V30 18713 H 1836.39 -1.48056 -1.08405 0
M  V30 18714 H 1834.77 -1.38683 -3.70922 0
M  V30 18715 H 1835.94 -3.93084 -2.40462 0
M  V30 18716 H 1834.26 -3.46697 -2.3063 0
M  V30 18717 H 1836.85 -2.29584 -4.82903 0
M  V30 18718 H 1837.2 -0.748555 -4.09515 0
M  V30 18719 H 1837.73 -2.24219 -3.28589 0
M  V30 18720 H 1834.47 -5.13387 -4.07571 0
M  V30 18721 H 1833.99 -3.5858 -4.80812 0
M  V30 18722 H 1835.67 -4.16212 -4.95355 0
M  V30 18723 N 1835.8 1.17245 -1.05316 0
M  V30 18724 C 1836.73 2.23491 -0.67631 0
M  V30 18725 C 1837.71 1.66937 0.326507 0
M  V30 18726 O 1838.9 1.93127 0.203823 0
M  V30 18727 C 1836.03 3.47262 -0.0515755 0
M  V30 18728 C 1834.98 4.16646 -0.97929 0
M  V30 18729 C 1834.31 5.34254 -0.218369 0
M  V30 18730 C 1835.61 4.68736 -2.30399 0
M  V30 18731 H 1837.3 2.55269 -1.56455 0
M  V30 18732 H 1834.85 1.22699 -0.753714 0
M  V30 18733 H 1836.8 4.20805 0.223865 0
M  V30 18734 H 1835.52 3.14755 0.871614 0
M  V30 18735 H 1834.18 3.45017 -1.23931 0
M  V30 18736 H 1833.83 4.97998 0.707624 0
M  V30 18737 H 1833.53 5.81615 -0.83654 0
M  V30 18738 H 1835.05 6.1058 0.0497574 0
M  V30 18739 H 1836.47 5.3391 -2.08837 0
M  V30 18740 H 1834.87 5.2668 -2.87625 0
M  V30 18741 H 1835.94 3.85477 -2.94169 0
M  V30 18742 N 1837.28 0.834353 1.33702 0
M  V30 18743 C 1838.23 0.252818 2.31222 0
M  V30 18744 C 1839.22 -0.612723 1.57931 0
M  V30 18745 O 1840.43 -0.502788 1.72835 0
M  V30 18746 H 1836.8 0.0630243 0.749354 0
M  V30 18747 H 1838.77 1.08992 2.77783 0
M  V30 18748 C 1837.52 -0.561132 3.43142 0
M  V30 18749 H 1836.84 0.0955723 3.99686 0
M  V30 18750 H 1838.28 -0.933951 4.13586 0
M  V30 18751 C 1836.74 -1.73817 2.88599 0
M  V30 18752 O 1837.27 -2.83674 2.84415 0
M  V30 18753 N 1835.48 -1.5586 2.45267 0
M  V30 18754 H 1835.03 -0.664959 2.4887 0
M  V30 18755 H 1834.98 -2.34764 2.09125 0
M  V30 18756 N 1838.76 -1.46125 0.590367 0
M  V30 18757 C 1839.69 -2.2852 -0.176393 0
M  V30 18758 C 1840.7 -1.38958 -0.848208 0
M  V30 18759 O 1841.89 -1.63489 -0.716485 0
M  V30 18760 C 1838.99 -3.14214 -1.26974 0
M  V30 18761 C 1838.16 -4.31949 -0.688377 0
M  V30 18762 C 1837.22 -4.98983 -1.67041 0
M  V30 18763 O 1836.25 -5.56332 -1.20345 0
M  V30 18764 N 1837.45 -4.96691 -3.00463 0
M  V30 18765 H 1840.22 -2.94967 0.530546 0
M  V30 18766 H 1837.78 -1.56122 0.42866 0
M  V30 18767 H 1839.77 -3.55924 -1.92614 0
M  V30 18768 H 1838.34 -2.49792 -1.87944 0
M  V30 18769 H 1837.56 -3.93931 0.145677 0
M  V30 18770 H 1838.85 -5.0803 -0.279884 0
M  V30 18771 H 1838.24 -4.51357 -3.41018 0
M  V30 18772 H 1836.8 -5.42318 -3.61572 0
M  V30 18773 N 1840.23 -0.328564 -1.54137 0
M  V30 18774 C 1841.18 0.550772 -2.21248 0
M  V30 18775 C 1842.17 1.07776 -1.19471 0
M  V30 18776 O 1843.36 1.01395 -1.4508 0
M  V30 18777 C 1840.49 1.70871 -2.97755 0
M  V30 18778 C 1839.58 1.19638 -4.06875 0
M  V30 18779 N 1839.97 0.404108 -5.04183 0
M  V30 18780 C 1838.26 1.47465 -4.20916 0
M  V30 18781 C 1838.97 0.127848 -5.81559 0
M  V30 18782 N 1837.94 0.715362 -5.38872 0
M  V30 18783 H 1841.74 -0.0617731 -2.93835 0
M  V30 18784 H 1839.26 -0.13467 -1.61841 0
M  V30 18785 H 1841.25 2.35048 -3.44322 0
M  V30 18786 H 1839.91 2.32468 -2.26691 0
M  V30 18787 H 1840.93 0.046507 -5.17879 0
M  V30 18788 H 1837.6 2.0961 -3.61067 0
M  V30 18789 H 1838.99 -0.510286 -6.69959 0
M  V30 18790 N 1841.71 1.57497 -0.0568439 0
M  V30 18791 C 1842.64 2.14892 0.913427 0
M  V30 18792 C 1843.62 1.07205 1.32065 0
M  V30 18793 O 1844.81 1.35172 1.39435 0
M  V30 18794 C 1841.94 2.69849 2.18629 0
M  V30 18795 C 1840.89 3.8257 1.91896 0
M  V30 18796 C 1840.22 4.24068 3.25685 0
M  V30 18797 C 1841.52 5.07463 1.23606 0
M  V30 18798 H 1843.21 2.96218 0.435347 0
M  V30 18799 H 1840.76 1.4249 0.20796 0
M  V30 18800 H 1842.71 3.08643 2.86911 0
M  V30 18801 H 1841.44 1.85723 2.68653 0
M  V30 18802 H 1840.09 3.44258 1.26024 0
M  V30 18803 H 1839.74 3.36884 3.73521 0
M  V30 18804 H 1839.44 5.00043 3.08594 0
M  V30 18805 H 1840.97 4.65466 3.95189 0
M  V30 18806 H 1842.38 5.43667 1.81931 0
M  V30 18807 H 1840.78 5.88619 1.16823 0
M  V30 18808 H 1841.85 4.84432 0.212918 0
M  V30 18809 N 1843.19 -0.216591 1.56105 0
M  V30 18810 C 1844.61 -0.56651 1.49207 0
M  V30 18811 C 1844.81 -1.86906 0.752882 0
M  V30 18812 O 1843.86 -2.50776 0.294573 0
M  V30 18813 C 1845.18 -0.641146 2.93785 0
M  V30 18814 C 1846.72 -0.731439 3.04334 0
M  V30 18815 C 1847.2 -0.837376 4.5028 0
M  V30 18816 N 1848.69 -0.901468 4.54343 0
M  V30 18817 C 1849.42 -1.00323 5.64555 0
M  V30 18818 N 1848.92 -1.06864 6.84509 0
M  V30 18819 N 1850.71 -1.03876 5.52419 0
M  V30 18820 H 1842.86 0.638091 2.02589 0
M  V30 18821 H 1845.13 0.224543 0.921024 0
M  V30 18822 H 1844.83 0.246454 3.50835 0
M  V30 18823 H 1844.71 -1.5031 3.45958 0
M  V30 18824 H 1847.09 -1.60948 2.47346 0
M  V30 18825 H 1847.18 0.15628 2.55322 0
M  V30 18826 H 1846.82 0.0362262 5.07887 0
M  V30 18827 H 1846.75 -1.74058 4.97002 0
M  V30 18828 H 1849.24 -0.861039 3.6796 0
M  V30 18829 H 1849.55 -1.1462 7.64253 0
M  V30 18830 H 1847.9 -1.03768 6.8721 0
M  V30 18831 H 1851.09 -0.984348 4.57633 0
M  V30 18832 H 1851.26 -1.11461 6.38342 0
M  V30 18833 N 1844.67 -1.5 -0.48349 0
M  V30 18834 C 1845.6 -1.64096 -1.60016 0
M  V30 18835 C 1846.61 -0.522896 -1.54174 0
M  V30 18836 O 1847.8 -0.795621 -1.59788 0
M  V30 18837 C 1844.9 -1.5979 -2.98865 0
M  V30 18838 C 1844.08 -2.87422 -3.29708 0
M  V30 18839 C 1843.13 -2.75928 -4.48051 0
M  V30 18840 O 1842.16 -3.49878 -4.4897 0
M  V30 18841 N 1843.36 -1.88648 -5.48992 0
M  V30 18842 H 1846.13 -2.60411 -1.48345 0
M  V30 18843 H 1843.69 -1.47309 -0.671691 0
M  V30 18844 H 1845.68 -1.4973 -3.75983 0
M  V30 18845 H 1844.25 -0.712613 -3.04369 0
M  V30 18846 H 1843.47 -3.11702 -2.4132 0
M  V30 18847 H 1844.76 -3.72002 -3.4712 0
M  V30 18848 H 1844.16 -1.27857 -5.51062 0
M  V30 18849 H 1842.71 -1.845 -6.25142 0
M  V30 18850 N 1846.15 0.735796 -1.39369 0
M  V30 18851 C 1847.56 1.04124 -1.20956 0
M  V30 18852 C 1847.76 2.01376 -0.0705944 0
M  V30 18853 O 1846.82 2.45795 0.577999 0
M  V30 18854 C 1848.13 1.60429 -2.54329 0
M  V30 18855 C 1849.68 1.72513 -2.61167 0
M  V30 18856 C 1850.15 2.32227 -3.94759 0
M  V30 18857 N 1851.65 2.39638 -3.96394 0
M  V30 18858 C 1852.38 2.86777 -4.96534 0
M  V30 18859 N 1851.88 3.3382 -6.07072 0
M  V30 18860 N 1853.67 2.85979 -4.83913 0
M  V30 18861 H 1845.82 0.0907834 -2.12206 0
M  V30 18862 H 1848.08 0.102896 -0.942399 0
M  V30 18863 H 1847.79 0.964351 -3.38221 0
M  V30 18864 H 1847.66 2.59247 -2.73991 0
M  V30 18865 H 1850.05 2.35629 -1.77659 0
M  V30 18866 H 1850.13 0.723507 -2.45355 0
M  V30 18867 H 1849.78 1.69739 -4.78697 0
M  V30 18868 H 1849.71 3.33066 -4.07891 0
M  V30 18869 H 1852.2 2.06388 -3.16563 0
M  V30 18870 H 1852.51 3.68297 -6.79395 0
M  V30 18871 H 1850.85 3.3183 -6.10666 0
M  V30 18872 H 1854.05 2.48551 -3.96661 0
M  V30 18873 H 1854.22 3.22403 -5.62104 0
M  V30 18874 N 1847.63 1.24532 0.965897 0
M  V30 18875 C 1848.56 0.997143 2.06373 0
M  V30 18876 C 1849.57 -0.0340261 1.62764 0
M  V30 18877 O 1850.76 0.203223 1.77339 0
M  V30 18878 C 1847.86 0.483305 3.35436 0
M  V30 18879 C 1847.03 1.57803 4.07942 0
M  V30 18880 C 1846.09 1.06652 5.15278 0
M  V30 18881 O 1845.12 1.75859 5.41352 0
M  V30 18882 N 1846.32 -0.0981119 5.80417 0
M  V30 18883 H 1849.08 1.94238 2.28236 0
M  V30 18884 H 1846.65 1.15586 1.13365 0
M  V30 18885 H 1848.64 0.125833 4.04504 0
M  V30 18886 H 1847.21 -0.367709 3.1043 0
M  V30 18887 H 1846.43 2.1076 3.33127 0
M  V30 18888 H 1847.72 2.3138 4.53146 0
M  V30 18889 H 1847.11 -0.676662 5.61638 0
M  V30 18890 H 1845.67 -0.396714 6.50592 0
M  V30 18891 N 1849.1 -1.16685 1.05936 0
M  V30 18892 C 1850.04 -2.19862 0.611219 0
M  V30 18893 C 1851.01 -1.58471 -0.364111 0
M  V30 18894 O 1852.2 -1.86499 -0.273946 0
M  V30 18895 C 1849.33 -3.38539 -0.104458 0
M  V30 18896 C 1848.37 -4.18404 0.82706 0
M  V30 18897 S 1849.2 -4.82619 2.32034 0
M  V30 18898 C 1850.36 -6.04677 1.61605 0
M  V30 18899 H 1850.59 -2.57535 1.48536 0
M  V30 18900 H 1848.13 -1.27418 0.872005 0
M  V30 18901 H 1850.08 -4.07305 -0.511162 0
M  V30 18902 H 1848.75 -2.99238 -0.954736 0
M  V30 18903 H 1847.94 -5.03261 0.272804 0
M  V30 18904 H 1847.54 -3.55113 1.17348 0
M  V30 18905 H 1849.83 -6.7123 0.919598 0
M  V30 18906 H 1850.78 -6.64645 2.44238 0
M  V30 18907 H 1851.18 -5.53675 1.1002 0
M  V30 18908 N 1850.58 -0.841432 -1.33258 0
M  V30 18909 C 1851.53 -0.248505 -2.26642 0
M  V30 18910 C 1852.52 0.59799 -1.49375 0
M  V30 18911 O 1853.71 0.449539 -1.71196 0
M  V30 18912 C 1850.84 0.573322 -3.38479 0
M  V30 18913 C 1849.92 -0.284825 -4.23142 0
M  V30 18914 N 1850.31 -1.36477 -4.8704 0
M  V30 18915 C 1848.61 -0.072296 -4.45941 0
M  V30 18916 C 1849.31 -1.89162 -5.50084 0
M  V30 18917 N 1848.29 -1.19272 -5.30354 0
M  V30 18918 H 1852.09 -1.07432 -2.73561 0
M  V30 18919 H 1849.6 -0.686153 -1.47193 0
M  V30 18920 H 1851.6 1.01441 -4.0437 0
M  V30 18921 H 1850.26 1.39708 -2.93107 0
M  V30 18922 H 1851.27 -1.74767 -4.87521 0
M  V30 18923 H 1847.95 0.717812 -4.11283 0
M  V30 18924 H 1849.34 -2.79613 -6.10955 0
M  V30 18925 N 1852.06 1.4581 -0.598108 0
M  V30 18926 C 1852.99 2.28611 0.164271 0
M  V30 18927 C 1854 1.39406 0.840827 0
M  V30 18928 O 1855.19 1.63867 0.707805 0
M  V30 18929 C 1852.29 3.14883 1.25306 0
M  V30 18930 C 1851.47 4.32308 0.66546 0
M  V30 18931 C 1850.53 4.99862 1.64392 0
M  V30 18932 O 1849.55 5.56963 1.17393 0
M  V30 18933 N 1850.75 4.98278 2.97825 0
M  V30 18934 H 1853.52 2.94681 -0.546181 0
M  V30 18935 H 1851.08 1.55893 -0.436933 0
M  V30 18936 H 1853.07 3.5694 1.90724 0
M  V30 18937 H 1851.64 2.50785 1.86616 0
M  V30 18938 H 1850.86 3.93848 -0.166567 0
M  V30 18939 H 1852.15 5.08171 0.252938 0
M  V30 18940 H 1851.55 4.53159 3.38619 0
M  V30 18941 H 1850.1 5.44228 3.58691 0
M  V30 18942 N 1853.54 0.336733 1.53961 0
M  V30 18943 C 1854.47 -0.557444 2.22318 0
M  V30 18944 C 1855.48 -1.0694 1.2275 0
M  V30 18945 O 1856.67 -0.980725 1.49144 0
M  V30 18946 C 1853.77 -1.77911 2.88445 0
M  V30 18947 C 1852.94 -1.4036 4.14268 0
M  V30 18948 C 1852 -2.48421 4.63868 0
M  V30 18949 O 1851.03 -2.12014 5.28241 0
M  V30 18950 N 1852.23 -3.79567 4.39215 0
M  V30 18951 H 1855 0.0279413 2.99687 0
M  V30 18952 H 1852.56 0.16054 1.61102 0
M  V30 18953 H 1854.55 -2.49621 3.18546 0
M  V30 18954 H 1853.12 -2.27203 2.14703 0
M  V30 18955 H 1852.34 -0.517571 3.90787 0
M  V30 18956 H 1853.63 -1.1286 4.96125 0
M  V30 18957 H 1853.03 -4.11937 3.87717 0
M  V30 18958 H 1851.58 -4.47466 4.73938 0
M  V30 18959 N 1855.02 -1.57465 0.0651956 0
M  V30 18960 C 1855.95 -2.09315 -0.933793 0
M  V30 18961 C 1856.96 -1.0239 -1.26571 0
M  V30 18962 O 1858.15 -1.29921 -1.22405 0
M  V30 18963 C 1855.25 -2.53302 -2.25147 0
M  V30 18964 C 1854.42 -3.83724 -2.09939 0
M  V30 18965 C 1853.48 -4.13874 -3.24953 0
M  V30 18966 O 1852.51 -4.83577 -3.00236 0
M  V30 18967 N 1853.71 -3.66896 -4.49853 0
M  V30 18968 H 1856.47 -2.95648 -0.491142 0
M  V30 18969 H 1854.04 -1.61449 -0.120698 0
M  V30 18970 H 1856.03 -2.70538 -3.00984 0
M  V30 18971 H 1854.6 -1.72142 -2.60933 0
M  V30 18972 H 1853.82 -3.75933 -1.18609 0
M  V30 18973 H 1855.11 -4.69106 -1.9702 0
M  V30 18974 H 1854.5 -3.10573 -4.72822 0
M  V30 18975 H 1853.06 -3.89344 -5.22738 0
M  V30 18976 N 1856.49 0.20831 -1.56217 0
M  V30 18977 C 1857.43 1.28196 -1.89996 0
M  V30 18978 C 1858.44 1.42381 -0.789394 0
M  V30 18979 O 1859.63 1.43043 -1.06776 0
M  V30 18980 C 1856.73 2.65588 -2.10514 0
M  V30 18981 C 1855.9 2.73181 -3.416 0
M  V30 18982 C 1854.96 3.91678 -3.5139 0
M  V30 18983 O 1853.99 3.79397 -4.24319 0
M  V30 18984 N 1855.19 5.06562 -2.83505 0
M  V30 18985 H 1857.95 0.995403 -2.82687 0
M  V30 18986 H 1855.51 0.398294 -1.56924 0
M  V30 18987 H 1857.51 3.43264 -2.14365 0
M  V30 18988 H 1856.08 2.86788 -1.24385 0
M  V30 18989 H 1855.3 1.81881 -3.49733 0
M  V30 18990 H 1856.58 2.75234 -4.27929 0
M  V30 18991 H 1855.98 5.19437 -2.24056 0
M  V30 18992 H 1854.54 5.82232 -2.93 0
M  V30 18993 N 1857.97 1.50255 0.475528 0
M  V30 18994 C 1859.22 1.61261 1.22975 0
M  V30 18995 C 1859.55 0.309949 1.91711 0
M  V30 18996 O 1858.83 -0.688288 1.81914 0
M  V30 18997 C 1859.11 2.7898 2.27688 0
M  V30 18998 C 1858.96 4.19115 1.63287 0
M  V30 18999 C 1860.28 2.9227 3.29038 0
M  V30 19000 H 1857.4 0.586933 0.445734 0
M  V30 19001 H 1860.04 1.82626 0.524177 0
M  V30 19002 H 1858.19 2.60894 2.87865 0
M  V30 19003 H 1859.86 4.48781 1.06741 0
M  V30 19004 H 1858.11 4.23579 0.936127 0
M  V30 19005 H 1858.78 4.97405 2.39359 0
M  V30 19006 H 1861.25 3.08813 2.78879 0
M  V30 19007 H 1860.13 3.7627 3.9964 0
M  V30 19008 H 1860.39 2.02696 3.92895 0
M  V30 19009 N 1859.45 -0.728395 1.39758 0
M  V30 19010 C 1860.38 -1.85288 1.34911 0
M  V30 19011 C 1861.39 -1.60763 0.25671 0
M  V30 19012 O 1862.58 -1.70875 0.516143 0
M  V30 19013 C 1859.68 -3.21445 1.07361 0
M  V30 19014 C 1858.86 -3.73272 2.28006 0
M  V30 19015 C 1857.92 -4.88008 1.96812 0
M  V30 19016 O 1856.94 -5.01325 2.69559 0
M  V30 19017 N 1858.14 -5.72867 0.938278 0
M  V30 19018 H 1860.91 -1.89949 2.31818 0
M  V30 19019 H 1858.47 -0.909409 1.33945 0
M  V30 19020 H 1860.46 -3.9578 0.845002 0
M  V30 19021 H 1859.03 -3.12012 0.191644 0
M  V30 19022 H 1858.25 -2.90214 2.66777 0
M  V30 19023 H 1859.54 -4.04633 3.08463 0
M  V30 19024 H 1858.94 -5.64704 0.335517 0
M  V30 19025 H 1857.49 -6.47241 0.769572 0
M  V30 19026 N 1860.93 -1.25042 -0.959279 0
M  V30 19027 C 1861.86 -1.00807 -2.05841 0
M  V30 19028 C 1862.87 0.0253938 -1.6278 0
M  V30 19029 O 1864.06 -0.212625 -1.77229 0
M  V30 19030 C 1861.16 -0.501088 -3.35175 0
M  V30 19031 C 1860.33 -1.59964 -4.071 0
M  V30 19032 C 1859.39 -1.09383 -5.14705 0
M  V30 19033 O 1858.42 -1.78728 -5.40412 0
M  V30 19034 N 1859.62 0.0673296 -5.80461 0
M  V30 19035 H 1862.39 -1.95446 -2.27203 0
M  V30 19036 H 1859.95 -1.16185 -1.1275 0
M  V30 19037 H 1861.94 -0.147283 -4.04432 0
M  V30 19038 H 1860.51 0.351241 -3.1062 0
M  V30 19039 H 1859.73 -2.12524 -3.32005 0
M  V30 19040 H 1861.02 -2.3378 -4.51912 0
M  V30 19041 H 1860.42 0.646867 -5.61989 0
M  V30 19042 H 1858.97 0.362206 -6.50793 0
M  V30 19043 N 1862.41 1.16121 -1.06553 0
M  V30 19044 C 1863.82 1.38705 -0.789497 0
M  V30 19045 C 1864.02 1.92046 0.609975 0
M  V30 19046 O 1863.08 2.12096 1.37009 0
M  V30 19047 C 1864.39 2.36541 -1.85658 0
M  V30 19048 C 1865.94 2.5022 -1.88039 0
M  V30 19049 C 1866.41 3.51341 -2.93809 0
M  V30 19050 N 1867.91 3.5887 -2.92859 0
M  V30 19051 C 1868.64 4.3691 -3.71346 0
M  V30 19052 N 1868.14 5.1835 -4.59657 0
M  V30 19053 N 1869.93 4.31918 -3.59726 0
M  V30 19054 H 1862.08 0.798355 -1.96825 0
M  V30 19055 H 1864.34 0.41349 -0.853071 0
M  V30 19056 H 1864.05 2.04447 -2.86172 0
M  V30 19057 H 1863.92 3.36221 -1.70983 0
M  V30 19058 H 1866.31 2.81617 -0.881822 0
M  V30 19059 H 1866.39 1.50567 -2.06793 0
M  V30 19060 H 1866.04 3.20681 -3.93861 0
M  V30 19061 H 1865.97 4.50731 -2.72304 0
M  V30 19062 H 1868.46 3.00735 -2.28838 0
M  V30 19063 H 1868.77 5.75119 -5.16196 0
M  V30 19064 H 1867.11 5.17684 -4.63711 0
M  V30 19065 H 1870.31 3.67355 -2.90117 0
M  V30 19066 H 1870.48 4.92491 -4.21137 0
M  V30 19067 N 1863.88 0.848487 1.3281 0
M  V30 19068 C 1865.11 0.462643 2.01661 0
M  V30 19069 C 1865.53 -0.938906 1.63799 0
M  V30 19070 O 1864.88 -1.61171 0.85617 0
M  V30 19071 C 1864.94 0.584905 3.56737 0
M  V30 19072 O 1864.66 1.93124 3.93236 0
M  V30 19073 C 1866.16 0.197265 4.42861 0
M  V30 19074 H 1863.38 0.18254 0.645694 0
M  V30 19075 H 1865.92 1.14372 1.69527 0
M  V30 19076 H 1864.08 -0.0483701 3.8737 0
M  V30 19077 H 1864.49 1.92361 4.87952 0
M  V30 19078 H 1865.96 0.333833 5.5099 0
M  V30 19079 H 1866.44 -0.861732 4.30663 0
M  V30 19080 H 1867.05 0.805363 4.17605 0
M  V30 19081 N 1865.36 -1.4549 0.605832 0
M  V30 19082 C 1866.29 -2.3328 -0.101377 0
M  V30 19083 C 1867.27 -1.46727 -0.860543 0
M  V30 19084 O 1868.46 -1.75501 -0.831441 0
M  V30 19085 C 1865.59 -3.29403 -1.1005 0
M  V30 19086 C 1864.54 -4.25578 -0.45466 0
M  V30 19087 C 1863.87 -5.11379 -1.5619 0
M  V30 19088 C 1865.17 -5.18571 0.623028 0
M  V30 19089 H 1866.86 -2.92661 0.631653 0
M  V30 19090 H 1864.41 -1.40728 0.305208 0
M  V30 19091 H 1866.36 -3.89688 -1.60379 0
M  V30 19092 H 1865.09 -2.68177 -1.8641 0
M  V30 19093 H 1863.74 -3.66589 0.027752 0
M  V30 19094 H 1863.39 -4.46523 -2.31574 0
M  V30 19095 H 1863.09 -5.76528 -1.13529 0
M  V30 19096 H 1864.62 -5.74532 -2.0675 0
M  V30 19097 H 1866.03 -5.72937 0.203881 0
M  V30 19098 H 1864.43 -5.92187 0.971292 0
M  V30 19099 H 1865.5 -4.61106 1.50032 0
M  V30 19100 N 1866.84 -0.344893 -1.5378 0
M  V30 19101 C 1867.77 0.55434 -2.21365 0
M  V30 19102 C 1868.75 1.09924 -1.19814 0
M  V30 19103 O 1869.94 1.15926 -1.48639 0
M  V30 19104 C 1867.06 1.76275 -2.89214 0
M  V30 19105 C 1866.11 1.34719 -4.04664 0
M  V30 19106 S 1866.94 0.365855 -5.34249 0
M  V30 19107 C 1868.1 1.58107 -6.05601 0
M  V30 19108 H 1868.33 -0.0197004 -2.97293 0
M  V30 19109 H 1865.86 -0.128969 -1.5386 0
M  V30 19110 H 1867.82 2.45601 -3.28923 0
M  V30 19111 H 1866.48 2.30801 -2.13049 0
M  V30 19112 H 1865.68 2.24821 -4.51078 0
M  V30 19113 H 1865.28 0.733393 -3.66739 0
M  V30 19114 H 1867.57 2.51534 -6.29076 0
M  V30 19115 H 1868.51 1.15869 -6.98556 0
M  V30 19116 H 1868.92 1.77773 -5.35777 0
M  V30 19117 N 1868.32 1.57428 -0.0735454 0
M  V30 19118 C 1869.25 2.0843 0.929086 0
M  V30 19119 C 1870.23 0.989821 1.29001 0
M  V30 19120 O 1871.41 1.26333 1.39901 0
M  V30 19121 C 1868.54 2.54342 2.23669 0
M  V30 19122 C 1867.59 3.75242 2.0272 0
M  V30 19123 S 1868.42 5.19855 1.28495 0
M  V30 19124 C 1869.58 5.691 2.60531 0
M  V30 19125 H 1869.81 2.93148 0.495116 0
M  V30 19126 H 1867.34 1.53771 0.13926 0
M  V30 19127 H 1869.3 2.81454 2.98821 0
M  V30 19128 H 1867.96 1.69889 2.6419 0
M  V30 19129 H 1867.15 4.05362 2.99496 0
M  V30 19130 H 1866.76 3.48512 1.35703 0
M  V30 19131 H 1869.05 5.76051 3.56611 0
M  V30 19132 H 1869.99 6.67961 2.35018 0
M  V30 19133 H 1870.4 4.96925 2.67816 0
M  V30 19134 N 1869.8 -0.200022 1.56326 0
M  V30 19135 C 1871.21 -0.550653 1.498 0
M  V30 19136 C 1871.41 -1.86097 0.772664 0
M  V30 19137 O 1870.47 -2.50449 0.321155 0
M  V30 19138 C 1871.78 -0.60995 2.94449 0
M  V30 19139 C 1873.33 -0.699119 3.05092 0
M  V30 19140 C 1873.8 -0.78957 4.51143 0
M  V30 19141 N 1875.3 -0.853228 4.55274 0
M  V30 19142 C 1876.03 -0.943298 5.65588 0
M  V30 19143 N 1875.53 -0.995976 6.85603 0
M  V30 19144 N 1877.32 -0.980106 5.53489 0
M  V30 19145 H 1869.47 0.659543 2.019 0
M  V30 19146 H 1871.73 0.234299 0.91859 0
M  V30 19147 H 1871.44 0.283651 3.50554 0
M  V30 19148 H 1871.31 -1.46632 3.47533 0
M  V30 19149 H 1873.7 -1.58315 2.49039 0
M  V30 19150 H 1873.78 0.183351 2.55142 0
M  V30 19151 H 1873.43 0.0900924 5.0782 0
M  V30 19152 H 1873.36 -1.68777 4.9882 0
M  V30 19153 H 1875.85 -0.821964 3.68853 0
M  V30 19154 H 1876.16 -1.06508 7.65425 0
M  V30 19155 H 1874.5 -0.964738 6.88272 0
M  V30 19156 H 1877.7 -0.935755 4.58652 0
M  V30 19157 H 1877.87 -1.04684 6.39488 0
M  V30 19158 N 1871.27 -1.50505 -0.467553 0
M  V30 19159 C 1872.52 -1.61352 -1.21697 0
M  V30 19160 C 1872.84 -0.317583 -1.92396 0
M  V30 19161 O 1872.11 0.665123 -1.84263 0
M  V30 19162 H 1870.69 -0.594582 -0.452196 0
M  V30 19163 H 1873.36 -1.87299 -0.539 0
M  V30 19164 H 1872.45 -2.4264 -1.96296 0
M  V30 19165 N 1872.75 0.720973 -1.40142 0
M  V30 19166 C 1873.68 1.8457 -1.35891 0
M  V30 19167 C 1874.7 1.60625 -0.265232 0
M  V30 19168 O 1875.89 1.70599 -0.525198 0
M  V30 19169 C 1872.99 3.20871 -1.09064 0
M  V30 19170 C 1872.16 3.72058 -2.29982 0
M  V30 19171 C 1871.22 4.86957 -1.99397 0
M  V30 19172 O 1870.24 4.99888 -2.72213 0
M  V30 19173 N 1871.45 5.72361 -0.968645 0
M  V30 19174 H 1874.21 1.88717 -2.32822 0
M  V30 19175 H 1871.77 0.902293 -1.34426 0
M  V30 19176 H 1873.76 3.95326 -0.865979 0
M  V30 19177 H 1872.33 3.11906 -0.208188 0
M  V30 19178 H 1871.55 2.88795 -2.68312 0
M  V30 19179 H 1872.84 4.02991 -3.10605 0
M  V30 19180 H 1872.24 5.64518 -0.36546 0
M  V30 19181 H 1870.8 6.46824 -0.803886 0
M  V30 19182 N 1874.23 1.25549 0.952634 0
M  V30 19183 C 1875.48 1.10198 1.69413 0
M  V30 19184 C 1875.8 -0.357345 1.91698 0
M  V30 19185 O 1875.07 -1.25345 1.5055 0
M  V30 19186 H 1873.65 0.404804 0.627808 0
M  V30 19187 H 1876.31 1.57703 1.14524 0
M  V30 19188 H 1875.41 1.61185 2.67256 0
M  V30 19189 N 1875.71 -1.15554 1.07168 0
M  V30 19190 C 1876.64 -2.22387 0.71178 0
M  V30 19191 C 1877.62 -1.67435 -0.299908 0
M  V30 19192 O 1878.8 -1.93427 -0.173073 0
M  V30 19193 C 1875.93 -3.47136 0.106815 0
M  V30 19194 C 1874.89 -4.15035 1.04545 0
M  V30 19195 C 1874.21 -5.33839 0.303337 0
M  V30 19196 C 1875.51 -4.65011 2.37827 0
M  V30 19197 H 1877.21 -2.52748 1.60496 0
M  V30 19198 H 1874.75 -1.21485 0.773139 0
M  V30 19199 H 1876.71 -4.21108 -0.15689 0
M  V30 19200 H 1875.43 -3.16101 -0.821429 0
M  V30 19201 H 1874.09 -3.43001 1.29405 0
M  V30 19202 H 1873.74 -4.9906 -0.628308 0
M  V30 19203 H 1873.44 -5.8021 0.928964 0
M  V30 19204 H 1874.96 -6.10582 0.0473869 0
M  V30 19205 H 1876.38 -5.3052 2.17305 0
M  V30 19206 H 1874.77 -5.22038 2.95967 0
M  V30 19207 H 1875.84 -3.80748 3.00264 0
M  V30 19208 N 1877.19 -0.855519 -1.32358 0
M  V30 19209 C 1878.14 -0.289571 -2.3079 0
M  V30 19210 C 1879.13 0.58752 -1.58885 0
M  V30 19211 O 1880.34 0.475228 -1.73613 0
M  V30 19212 H 1876.71 -0.0749379 -0.748257 0
M  V30 19213 H 1878.68 -1.13398 -2.76014 0
M  V30 19214 C 1877.43 0.50647 -3.43992 0
M  V30 19215 H 1876.75 -0.159147 -3.99483 0
M  V30 19216 H 1878.19 0.868035 -4.15019 0
M  V30 19217 C 1876.65 1.69203 -2.91328 0
M  V30 19218 O 1877.18 2.79113 -2.88892 0
M  V30 19219 N 1875.39 1.51938 -2.47716 0
M  V30 19220 H 1874.94 0.625282 -2.49896 0
M  V30 19221 H 1874.89 2.31407 -2.12834 0
M  V30 19222 N 1878.67 1.45167 -0.61354 0
M  V30 19223 C 1879.6 2.27701 0.150791 0
M  V30 19224 C 1880.58 1.37493 0.868012 0
M  V30 19225 O 1881.76 1.66926 0.875677 0
M  V30 19226 C 1878.89 3.16008 1.21887 0
M  V30 19227 C 1877.93 4.222 0.604131 0
M  V30 19228 S 1878.77 5.32212 -0.592512 0
M  V30 19229 C 1879.92 6.24087 0.476016 0
M  V30 19230 H 1880.16 2.92179 -0.549425 0
M  V30 19231 H 1877.69 1.49096 -0.401218 0
M  V30 19232 H 1879.65 3.67441 1.83022 0
M  V30 19233 H 1878.31 2.50784 1.89119 0
M  V30 19234 H 1877.5 4.83934 1.40797 0
M  V30 19235 H 1877.1 3.73939 0.0677896 0
M  V30 19236 H 1879.39 6.63843 1.35346 0
M  V30 19237 H 1880.34 7.08022 -0.105315 0
M  V30 19238 H 1880.75 5.58888 0.794018 0
M  V30 19239 N 1880.14 0.353044 1.53595 0
M  V30 19240 C 1881.37 -0.241665 2.05484 0
M  V30 19241 C 1881.79 -1.43458 1.2274 0
M  V30 19242 O 1881.14 -1.80566 0.26501 0
M  V30 19243 C 1881.19 -0.647442 3.55655 0
M  V30 19244 O 1880.92 0.498047 4.3526 0
M  V30 19245 C 1882.42 -1.30187 4.23753 0
M  V30 19246 H 1879.64 -0.0449704 0.669491 0
M  V30 19247 H 1882.18 0.507783 1.98095 0
M  V30 19248 H 1880.34 -1.34682 3.63235 0
M  V30 19249 H 1880.75 0.172685 5.24216 0
M  V30 19250 H 1882.22 -1.53646 5.30186 0
M  V30 19251 H 1882.7 -2.25835 3.7669 0
M  V30 19252 H 1883.31 -0.644265 4.20392 0
M  V30 19253 N 1881.62 -1.57387 0.0818932 0
M  V30 19254 C 1883.03 -1.81214 -0.449254 0
M  V30 19255 C 1883.38 -0.996563 -1.69006 0
M  V30 19256 O 1882.51 -0.22203 -2.15258 0
M  V30 19257 C 1883.1 -3.28681 -0.821827 0
M  V30 19258 C 1881.66 -3.53319 -1.29779 0
M  V30 19259 C 1880.81 -2.75801 -0.287911 0
M  V30 19260 H 1883.76 -1.55693 0.307486 0
M  V30 19261 H 1883.78 -3.41283 -1.68245 0
M  V30 19262 H 1883.29 -3.88015 0.081441 0
M  V30 19263 H 1881.39 -2.99302 -2.21921 0
M  V30 19264 H 1881.51 -4.61996 -1.26874 0
M  V30 19265 H 1879.87 -2.42867 -0.76731 0
M  V30 19266 H 1880.65 -3.37877 0.607805 0
M  V30 19267 N 1883.1 0.191729 -1.56429 0
M  V30 19268 C 1884.32 0.931804 -1.85289 0
M  V30 19269 C 1884.75 1.7592 -0.665864 0
M  V30 19270 O 1884.11 1.77158 0.385313 0
M  V30 19271 C 1884.16 1.801 -3.12404 0
M  V30 19272 O 1883.26 2.9002 -2.93193 0
M  V30 19273 H 1882.6 0.262213 -0.610033 0
M  V30 19274 H 1885.13 0.196028 -2.03659 0
M  V30 19275 H 1885.14 2.20499 -3.43285 0
M  V30 19276 H 1883.82 1.19309 -3.9842 0
M  V30 19277 H 1882.39 2.53352 -2.73619 0
M  V30 19278 N 1884.58 1.50751 0.459565 0
M  V30 19279 C 1885.51 1.65108 1.57526 0
M  V30 19280 C 1886.49 0.498959 1.54755 0
M  V30 19281 O 1887.67 0.719958 1.74209 0
M  V30 19282 C 1884.8 1.64427 2.96111 0
M  V30 19283 C 1883.85 2.85339 3.16992 0
M  V30 19284 S 1884.68 4.46482 2.95659 0
M  V30 19285 C 1885.83 4.48511 4.36565 0
M  V30 19286 H 1886.07 2.59481 1.45109 0
M  V30 19287 H 1883.6 1.40157 0.647718 0
M  V30 19288 H 1885.56 1.64718 3.76003 0
M  V30 19289 H 1884.22 0.712698 3.05908 0
M  V30 19290 H 1883.41 2.81199 4.18262 0
M  V30 19291 H 1883.01 2.82674 2.4489 0
M  V30 19292 H 1885.31 4.22783 5.29396 0
M  V30 19293 H 1886.25 5.50198 4.45744 0
M  V30 19294 H 1886.66 3.78084 4.19181 0
M  V30 19295 N 1886.06 -0.713531 1.40522 0
M  V30 19296 C 1887.3 -1.47561 1.39117 0
M  V30 19297 C 1887.63 -1.94199 -0.00592038 0
M  V30 19298 O 1886.91 -1.68301 -0.974941 0
M  V30 19299 C 1887.19 -2.70023 2.38242 0
M  V30 19300 C 1887.05 -2.29266 3.86984 0
M  V30 19301 C 1888.36 -3.72185 2.34875 0
M  V30 19302 H 1885.48 -0.535243 0.50664 0
M  V30 19303 H 1888.13 -0.814172 1.71672 0
M  V30 19304 H 1886.28 -3.26458 2.10611 0
M  V30 19305 H 1887.95 -1.78297 4.2545 0
M  V30 19306 H 1886.19 -1.61246 4.02719 0
M  V30 19307 H 1886.86 -3.17057 4.51862 0
M  V30 19308 H 1889.34 -3.25384 2.59354 0
M  V30 19309 H 1888.21 -4.55507 3.06276 0
M  V30 19310 H 1888.47 -4.20627 1.36108 0
M  V30 19311 N 1887.53 -1.26053 -0.945962 0
M  V30 19312 C 1888.5 -1.07262 -2.02553 0
M  V30 19313 C 1889.5 -0.0225237 -1.60784 0
M  V30 19314 O 1890.69 -0.265501 -1.72165 0
M  V30 19315 C 1887.82 -0.63045 -3.3502 0
M  V30 19316 H 1889.01 -2.03105 -2.20655 0
M  V30 19317 H 1886.56 -1.08582 -1.12426 0
M  V30 19318 H 1887.3 0.330188 -3.22615 0
M  V30 19319 H 1887.08 -1.38863 -3.66687 0
M  V30 19320 H 1888.57 -0.520674 -4.14341 0
M  V30 19321 N 1889.01 1.14984 -1.07779 0
M  V30 19322 C 1890.42 1.67453 -0.825611 0
M  V30 19323 C 1890.77 1.85168 0.648631 0
M  V30 19324 O 1889.9 1.55817 1.50167 0
M  V30 19325 C 1890.49 3.04172 -1.49214 0
M  V30 19326 C 1889.05 3.53701 -1.28736 0
M  V30 19327 C 1888.2 2.29324 -1.55903 0
M  V30 19328 H 1891.15 0.99138 -1.23925 0
M  V30 19329 H 1891.17 3.69315 -0.915779 0
M  V30 19330 H 1890.68 2.91247 -2.56509 0
M  V30 19331 H 1888.78 3.71859 -0.234821 0
M  V30 19332 H 1888.9 4.34871 -2.01056 0
M  V30 19333 H 1887.26 2.35081 -0.980257 0
M  V30 19334 H 1888.04 2.18982 -2.6439 0
M  V30 19335 N 1890.49 0.862526 1.31902 0
M  V30 19336 C 1891.71 0.483159 2.01694 0
M  V30 19337 C 1892.14 -0.914778 1.64358 0
M  V30 19338 O 1891.5 -1.60229 0.848308 0
M  V30 19339 C 1891.55 0.638911 3.54895 0
M  V30 19340 O 1890.65 -0.324962 4.11118 0
M  V30 19341 H 1889.99 0.193128 0.635293 0
M  V30 19342 H 1892.52 1.16389 1.6827 0
M  V30 19343 H 1892.53 0.529394 4.04551 0
M  V30 19344 H 1891.21 1.65828 3.81411 0
M  V30 19345 H 1889.78 -0.171025 3.72508 0
M  V30 19346 N 1891.97 -1.4484 0.62123 0
M  V30 19347 C 1893.22 -2.01734 0.121544 0
M  V30 19348 C 1893.54 -1.49041 -1.25745 0
M  V30 19349 O 1892.81 -0.690056 -1.83344 0
M  V30 19350 H 1891.39 -0.745822 0.0419419 0
M  V30 19351 H 1894.05 -1.77467 0.805702 0
M  V30 19352 H 1893.15 -3.11993 0.0816882 0
M  V30 19353 N 1893.45 -0.361184 -1.53405 0
M  V30 19354 C 1894.38 0.530831 -2.2194 0
M  V30 19355 C 1895.36 1.08647 -1.20974 0
M  V30 19356 O 1896.54 1.14343 -1.4986 0
M  V30 19357 C 1893.67 1.73198 -2.91067 0
M  V30 19358 C 1892.71 1.30419 -4.0607 0
M  V30 19359 S 1893.55 0.30917 -5.34607 0
M  V30 19360 C 1894.7 1.51675 -6.07244 0
M  V30 19361 H 1894.94 -0.0512313 -2.97256 0
M  V30 19362 H 1892.47 -0.145281 -1.53715 0
M  V30 19363 H 1894.43 2.42098 -3.3151 0
M  V30 19364 H 1893.09 2.28528 -2.15485 0
M  V30 19365 H 1892.28 2.20024 -4.53437 0
M  V30 19366 H 1891.88 0.694455 -3.67496 0
M  V30 19367 H 1894.18 2.44847 -6.31709 0
M  V30 19368 H 1895.12 1.08454 -6.99745 0
M  V30 19369 H 1895.53 1.7208 -5.37632 0
M  V30 19370 N 1894.92 1.57341 -0.0902386 0
M  V30 19371 C 1896.34 1.8145 0.439638 0
M  V30 19372 C 1896.69 1.00551 1.68475 0
M  V30 19373 O 1895.81 0.233442 2.15137 0
M  V30 19374 C 1896.41 3.29113 0.804384 0
M  V30 19375 C 1894.97 3.54003 1.27903 0
M  V30 19376 C 1894.11 2.7595 0.27328 0
M  V30 19377 H 1897.06 1.55527 -0.315738 0
M  V30 19378 H 1897.08 3.4217 1.66432 0
M  V30 19379 H 1896.6 3.87966 -0.102017 0
M  V30 19380 H 1894.7 3.00475 2.20331 0
M  V30 19381 H 1894.81 4.62662 1.24422 0
M  V30 19382 H 1893.17 2.43271 0.754419 0
M  V30 19383 H 1893.96 3.3755 -0.625715 0
M  V30 19384 N 1896.4 -0.183431 1.56529 0
M  V30 19385 C 1897.37 -1.21097 1.94597 0
M  V30 19386 C 1898.37 -1.37825 0.828305 0
M  V30 19387 O 1899.56 -1.35438 1.09555 0
M  V30 19388 C 1896.69 -2.57826 2.23021 0
M  V30 19389 H 1897.88 -0.885275 2.86536 0
M  V30 19390 H 1895.43 -0.425412 1.50399 0
M  V30 19391 H 1896.17 -2.95431 1.33758 0
M  V30 19392 H 1895.95 -2.47054 3.04478 0
M  V30 19393 H 1897.44 -3.31902 2.53437 0
M  V30 19394 N 1897.88 -1.50992 -0.451564 0
M  V30 19395 C 1899.11 -1.66741 -1.22495 0
M  V30 19396 C 1899.52 -0.358787 -1.8536 0
M  V30 19397 O 1898.88 0.661312 -1.70097 0
M  V30 19398 C 1898.93 -2.77281 -2.31943 0
M  V30 19399 O 1898.65 -4.03072 -1.71652 0
M  V30 19400 C 1900.15 -3.04175 -3.22479 0
M  V30 19401 H 1897.37 -0.55994 -0.369741 0
M  V30 19402 H 1899.92 -1.97329 -0.536785 0
M  V30 19403 H 1898.07 -2.49332 -2.965 0
M  V30 19404 H 1898.49 -4.64354 -2.43875 0
M  V30 19405 H 1899.96 -3.85137 -3.95441 0
M  V30 19406 H 1900.44 -2.16015 -3.82406 0
M  V30 19407 H 1901.04 -3.33729 -2.63638 0
M  V30 19408 N 1899.36 0.706069 -1.40899 0
M  V30 19409 C 1900.29 1.83004 -1.36327 0
M  V30 19410 C 1901.27 1.60934 -0.232136 0
M  V30 19411 O 1902.45 1.83822 -0.417348 0
M  V30 19412 C 1899.58 3.19508 -1.12395 0
M  V30 19413 C 1898.63 3.60387 -2.28086 0
M  V30 19414 S 1899.46 3.66403 -3.90524 0
M  V30 19415 C 1900.62 5.0565 -3.68874 0
M  V30 19416 H 1900.85 1.86603 -2.31445 0
M  V30 19417 H 1898.38 0.873772 -1.27297 0
M  V30 19418 H 1900.34 3.98315 -0.992725 0
M  V30 19419 H 1899 3.1353 -0.189145 0
M  V30 19420 H 1898.19 4.59526 -2.07008 0
M  V30 19421 H 1897.8 2.88861 -2.37561 0
M  V30 19422 H 1900.09 5.92847 -3.27931 0
M  V30 19423 H 1901.03 5.31767 -4.67578 0
M  V30 19424 H 1901.44 4.76693 -3.02364 0
M  V30 19425 N 1900.84 1.26553 0.939264 0
M  V30 19426 C 1902.06 1.15098 1.72532 0
M  V30 19427 C 1902.49 -0.289811 1.85854 0
M  V30 19428 O 1901.84 -1.20997 1.35017 0
M  V30 19429 C 1901.89 1.82703 3.10889 0
M  V30 19430 O 1901 1.11712 3.96981 0
M  V30 19431 H 1900.34 0.40095 0.529278 0
M  V30 19432 H 1902.87 1.67408 1.17625 0
M  V30 19433 H 1902.88 1.89603 3.61268 0
M  V30 19434 H 1901.55 2.87519 3.00509 0
M  V30 19435 H 1900.13 1.12801 3.5543 0
M  V30 19436 N 1902.31 -1.14411 1.08387 0
M  V30 19437 C 1903.26 -2.21558 0.708165 0
M  V30 19438 C 1904.26 -1.66969 -0.285982 0
M  V30 19439 O 1905.46 -1.79386 -0.14857 0
M  V30 19440 H 1901.84 -0.721799 0.210974 0
M  V30 19441 H 1903.81 -2.50518 1.62122 0
M  V30 19442 C 1902.56 -3.47444 0.13337 0
M  V30 19443 H 1901.88 -3.89779 0.889513 0
M  V30 19444 H 1903.32 -4.23901 -0.0917154 0
M  V30 19445 C 1901.78 -3.1743 -1.1287 0
M  V30 19446 O 1902.31 -3.35205 -2.2136 0
M  V30 19447 N 1900.52 -2.71391 -1.03901 0
M  V30 19448 H 1900.06 -2.57127 -0.156094 0
M  V30 19449 H 1900.02 -2.51684 -1.88422 0
M  V30 19450 N 1903.79 -0.869509 -1.31443 0
M  V30 19451 C 1905.2 -0.532842 -1.78935 0
M  V30 19452 C 1905.55 0.95022 -1.71654 0
M  V30 19453 O 1904.68 1.74189 -1.28402 0
M  V30 19454 C 1905.27 -0.960439 -3.24902 0
M  V30 19455 C 1903.83 -0.675436 -3.7029 0
M  V30 19456 C 1902.98 -1.15201 -2.52238 0
M  V30 19457 H 1905.93 -1.05527 -1.18531 0
M  V30 19458 H 1905.95 -0.282921 -3.79447 0
M  V30 19459 H 1905.46 -2.03986 -3.30168 0
M  V30 19460 H 1903.57 0.392647 -3.70525 0
M  V30 19461 H 1903.68 -1.25214 -4.62448 0
M  V30 19462 H 1902.04 -0.571786 -2.48199 0
M  V30 19463 H 1902.83 -2.23885 -2.60251 0
M  V30 19464 N 1905.27 1.44508 -0.628902 0
M  V30 19465 C 1906.69 1.56863 -0.294332 0
M  V30 19466 C 1906.89 1.6168 1.20257 0
M  V30 19467 O 1905.94 1.55862 1.98653 0
M  V30 19468 C 1907.26 2.84134 -0.984291 0
M  V30 19469 C 1908.8 2.97843 -0.962223 0
M  V30 19470 C 1909.28 4.27914 -1.6326 0
M  V30 19471 N 1910.77 4.34722 -1.59909 0
M  V30 19472 C 1911.5 5.34081 -2.08675 0
M  V30 19473 N 1911 6.39857 -2.65623 0
M  V30 19474 N 1912.79 5.25575 -1.99317 0
M  V30 19475 H 1904.94 1.39624 -1.60059 0
M  V30 19476 H 1907.21 0.66894 -0.671731 0
M  V30 19477 H 1906.91 2.86551 -2.03915 0
M  V30 19478 H 1906.79 3.73589 -0.520679 0
M  V30 19479 H 1909.17 2.9498 0.0841512 0
M  V30 19480 H 1909.26 2.09742 -1.4643 0
M  V30 19481 H 1908.9 4.31536 -2.67842 0
M  V30 19482 H 1908.83 5.14868 -1.10537 0
M  V30 19483 H 1911.32 3.58896 -1.18329 0
M  V30 19484 H 1911.63 7.11952 -3.00572 0
M  V30 19485 H 1909.98 6.40548 -2.69672 0
M  V30 19486 H 1913.17 4.4185 -1.54551 0
M  V30 19487 H 1913.34 6.02855 -2.37634 0
M  V30 19488 N 1906.75 0.369315 1.53212 0
M  V30 19489 C 1908 -0.220348 2.00493 0
M  V30 19490 C 1908.31 -1.49561 1.26059 0
M  V30 19491 O 1909.52 -2.1641 1.63947 0
M  V30 19492 C 1907.97 -0.443218 3.5716 0
M  V30 19493 C 1907.58 0.817634 4.40476 0
M  V30 19494 C 1909.33 -0.990333 4.12786 0
M  V30 19495 C 1907.23 0.564143 5.88703 0
M  V30 19496 H 1906.16 -0.0861173 0.749066 0
M  V30 19497 H 1908.81 0.488632 1.76875 0
M  V30 19498 H 1907.2 -1.21355 3.76947 0
M  V30 19499 H 1908.37 1.59105 4.32461 0
M  V30 19500 H 1906.68 1.28824 3.95971 0
M  V30 19501 H 1909.28 -1.19537 5.21167 0
M  V30 19502 H 1909.62 -1.95357 3.67616 0
M  V30 19503 H 1910.16 -0.280073 3.96813 0
M  V30 19504 H 1906.9 1.49782 6.38158 0
M  V30 19505 H 1906.42 -0.170702 5.99557 0
M  V30 19506 H 1908.1 0.191072 6.46718 0
M  V30 19507 N 1908.23 -1.57291 0.0985816 0
M  V30 19508 C 1909.64 -1.81681 -0.430009 0
M  V30 19509 C 1909.99 -1.01443 -1.6794 0
M  V30 19510 O 1909.11 -0.244848 -2.1501 0
M  V30 19511 C 1909.71 -3.29535 -0.786919 0
M  V30 19512 C 1908.27 -3.54676 -1.26024 0
M  V30 19513 C 1907.42 -2.76091 -0.258642 0
M  V30 19514 H 1910.37 -1.55358 0.323982 0
M  V30 19515 H 1910.39 -3.43048 -1.64616 0
M  V30 19516 H 1909.9 -3.87906 0.122591 0
M  V30 19517 H 1908 -3.01639 -2.18734 0
M  V30 19518 H 1908.11 -4.63315 -1.21967 0
M  V30 19519 H 1906.48 -2.43667 -0.741507 0
M  V30 19520 H 1907.26 -3.37213 0.643607 0
M  V30 19521 N 1909.71 0.175127 -1.56624 0
M  V30 19522 C 1910.64 1.24137 -1.92672 0
M  V30 19523 C 1911.65 1.40675 -0.819417 0
M  V30 19524 O 1912.84 1.40746 -1.09786 0
M  V30 19525 C 1909.94 2.61063 -2.161 0
M  V30 19526 C 1909.11 2.65874 -3.47318 0
M  V30 19527 C 1908.17 3.84136 -3.59619 0
M  V30 19528 O 1907.2 3.70311 -4.32271 0
M  V30 19529 N 1908.4 5.00435 -2.94186 0
M  V30 19530 H 1911.16 0.935217 -2.84735 0
M  V30 19531 H 1908.73 0.364919 -1.57734 0
M  V30 19532 H 1910.72 3.38639 -2.21597 0
M  V30 19533 H 1909.29 2.84085 -1.3044 0
M  V30 19534 H 1908.51 1.74422 -3.53512 0
M  V30 19535 H 1909.8 2.66096 -4.33671 0
M  V30 19536 H 1909.19 5.14568 -2.35024 0
M  V30 19537 H 1907.75 5.75886 -3.05284 0
M  V30 19538 N 1911.18 1.5123 0.44355 0
M  V30 19539 C 1912.15 1.71511 1.52041 0
M  V30 19540 C 1913.15 0.585226 1.49772 0
M  V30 19541 O 1914.34 0.852687 1.51904 0
M  V30 19542 C 1911.47 1.76583 2.91601 0
M  V30 19543 H 1912.66 2.67613 1.35364 0
M  V30 19544 H 1910.21 1.41125 0.671811 0
M  V30 19545 H 1910.95 0.822743 3.1369 0
M  V30 19546 H 1910.73 2.58693 2.94653 0
M  V30 19547 H 1912.22 1.94135 3.69732 0
M  V30 19548 N 1912.66 -0.698586 1.41271 0
M  V30 19549 C 1913.61 -1.83387 1.43081 0
M  V30 19550 C 1914.6 -1.66554 0.309204 0
M  V30 19551 O 1915.81 -1.73452 0.481084 0
M  V30 19552 H 1912.18 -0.604271 0.447617 0
M  V30 19553 H 1914.16 -1.78977 2.38767 0
M  V30 19554 C 1912.9 -3.21385 1.32692 0
M  V30 19555 H 1912.23 -3.34952 2.18283 0
M  V30 19556 H 1913.67 -4.00907 1.38019 0
M  V30 19557 C 1912.13 -3.36877 0.0389378 0
M  V30 19558 O 1912.66 -3.91081 -0.917515 0
M  V30 19559 N 1910.86 -2.90578 -0.0361557 0
M  V30 19560 H 1910.41 -2.46654 0.742925 0
M  V30 19561 H 1910.37 -3.01322 -0.897353 0
M  V30 19562 N 1914.14 -1.27049 -0.93254 0
M  V30 19563 C 1915.1 -1.09404 -2.01404 0
M  V30 19564 C 1916.1 -0.0395757 -1.60751 0
M  V30 19565 O 1917.29 -0.283746 -1.71874 0
M  V30 19566 C 1914.42 -0.665948 -3.34332 0
M  V30 19567 H 1915.62 -2.05434 -2.18488 0
M  V30 19568 H 1913.17 -1.09768 -1.11268 0
M  V30 19569 H 1913.91 0.295952 -3.22947 0
M  V30 19570 H 1913.69 -1.42745 -3.65194 0
M  V30 19571 H 1915.18 -0.564591 -4.13766 0
M  V30 19572 N 1915.62 1.13835 -1.08993 0
M  V30 19573 C 1916.55 2.18781 -0.683177 0
M  V30 19574 C 1917.56 1.60499 0.272748 0
M  V30 19575 O 1918.75 1.78401 0.059482 0
M  V30 19576 C 1915.85 3.38897 0.0146723 0
M  V30 19577 C 1915.02 4.26697 -0.961666 0
M  V30 19578 C 1914.08 5.25355 -0.298041 0
M  V30 19579 O 1913.11 5.61312 -0.944303 0
M  V30 19580 N 1914.31 5.7268 0.949645 0
M  V30 19581 H 1917.08 2.54293 -1.58605 0
M  V30 19582 H 1914.64 1.29114 -0.976792 0
M  V30 19583 H 1916.63 4.01965 0.469724 0
M  V30 19584 H 1915.2 3.01661 0.819722 0
M  V30 19585 H 1914.42 3.60473 -1.5954 0
M  V30 19586 H 1915.71 4.82218 -1.62305 0
M  V30 19587 H 1915.11 5.45606 1.49433 0
M  V30 19588 H 1913.66 6.37707 1.34809 0
M  V30 19589 N 1917.1 0.876467 1.3098 0
M  V30 19590 C 1918.03 0.294228 2.27304 0
M  V30 19591 C 1919.04 -0.546404 1.53357 0
M  V30 19592 O 1920.23 -0.367339 1.74679 0
M  V30 19593 C 1917.33 -0.600972 3.33529 0
M  V30 19594 C 1916.5 0.208678 4.36902 0
M  V30 19595 C 1915.56 -0.615677 5.22586 0
M  V30 19596 O 1914.59 -0.0413981 5.69185 0
M  V30 19597 N 1915.79 -1.92644 5.47603 0
M  V30 19598 H 1918.55 1.12201 2.77905 0
M  V30 19599 H 1916.12 0.738597 1.44071 0
M  V30 19600 H 1918.11 -1.15831 3.8777 0
M  V30 19601 H 1916.68 -1.32943 2.82922 0
M  V30 19602 H 1915.9 0.947462 3.82644 0
M  V30 19603 H 1917.19 0.763998 5.03031 0
M  V30 19604 H 1916.58 -2.41605 5.11511 0
M  V30 19605 H 1915.14 -2.43141 6.04752 0
M  V30 19606 N 1918.57 -1.44173 0.636557 0
M  V30 19607 C 1919.82 -2.01993 0.143216 0
M  V30 19608 C 1920.15 -1.50104 -1.23689 0
M  V30 19609 O 1919.4 -0.677627 -1.83594 0
M  V30 19610 C 1919.7 -3.57299 0.0849933 0
M  V30 19611 C 1919.37 -4.28464 1.40461 0
M  V30 19612 C 1918.03 -4.47622 1.76601 0
M  V30 19613 C 1920.38 -4.68908 2.27541 0
M  V30 19614 C 1917.71 -5.04485 2.99519 0
M  V30 19615 C 1920.06 -5.27133 3.49734 0
M  V30 19616 C 1918.73 -5.44509 3.86091 0
M  V30 19617 H 1918 -0.739144 0.0524066 0
M  V30 19618 H 1920.64 -1.72868 0.823952 0
M  V30 19619 H 1918.95 -3.85869 -0.679134 0
M  V30 19620 H 1920.65 -3.99774 -0.31333 0
M  V30 19621 H 1917.24 -4.13886 1.11337 0
M  V30 19622 H 1921.42 -4.53815 2.00913 0
M  V30 19623 H 1916.68 -5.16125 3.27758 0
M  V30 19624 H 1920.85 -5.5742 4.1744 0
M  V30 19625 H 1918.48 -5.88336 4.81419 0
M  V30 19626 N 1920.05 -0.377435 -1.53014 0
M  V30 19627 C 1921.46 0.0992038 -1.86436 0
M  V30 19628 C 1921.81 1.47163 -1.2976 0
M  V30 19629 O 1920.94 2.072 -0.624264 0
M  V30 19630 C 1921.53 0.186789 -3.38285 0
M  V30 19631 C 1920.09 0.6077 -3.71462 0
M  V30 19632 C 1919.24 -0.237741 -2.76279 0
M  V30 19633 H 1922.19 -0.595776 -1.47092 0
M  V30 19634 H 1922.21 1.00817 -3.66901 0
M  V30 19635 H 1921.72 -0.812219 -3.79506 0
M  V30 19636 H 1919.82 1.61451 -3.35804 0
M  V30 19637 H 1919.94 0.374085 -4.77637 0
M  V30 19638 H 1918.3 0.295196 -2.52984 0
M  V30 19639 H 1919.08 -1.23451 -3.20335 0
M  V30 19640 N 1921.53 1.57237 -0.106922 0
M  V30 19641 C 1922.78 1.94775 0.553982 0
M  V30 19642 C 1923.11 0.989452 1.67452 0
M  V30 19643 O 1922.36 0.0111396 1.95697 0
M  V30 19644 C 1922.66 3.38792 1.13817 0
M  V30 19645 C 1922.33 4.50682 0.140226 0
M  V30 19646 C 1920.99 4.81013 -0.134218 0
M  V30 19647 C 1923.34 5.1839 -0.540532 0
M  V30 19648 C 1920.67 5.76374 -1.09591 0
M  V30 19649 C 1923.02 6.14783 -1.49077 0
M  V30 19650 C 1921.68 6.43513 -1.77333 0
M  V30 19651 H 1920.95 0.712732 0.202716 0
M  V30 19652 H 1923.6 1.90602 -0.185265 0
M  V30 19653 H 1921.91 3.39601 1.95393 0
M  V30 19654 H 1923.6 3.65144 1.65744 0
M  V30 19655 H 1920.19 4.27049 0.364316 0
M  V30 19656 H 1924.38 4.95123 -0.34166 0
M  V30 19657 H 1919.63 5.96943 -1.3217 0
M  V30 19658 H 1923.81 6.66338 -2.02402 0
M  V30 19659 H 1921.43 7.17214 -2.52008 0
M  V30 19660 N 1923.01 -0.166818 1.56715 0
M  V30 19661 C 1924.42 -0.728845 1.71886 0
M  V30 19662 C 1924.77 -1.82584 0.718168 0
M  V30 19663 O 1923.9 -2.1607 -0.119503 0
M  V30 19664 C 1924.49 -1.32885 3.11652 0
M  V30 19665 C 1923.05 -1.83766 3.28492 0
M  V30 19666 C 1922.2 -0.718371 2.67833 0
M  V30 19667 H 1925.15 0.0586298 1.58592 0
M  V30 19668 H 1925.17 -2.19858 3.10552 0
M  V30 19669 H 1924.68 -0.530219 3.84461 0
M  V30 19670 H 1922.78 -2.66259 2.60647 0
M  V30 19671 H 1922.89 -1.98 4.36271 0
M  V30 19672 H 1921.26 -1.13996 2.27765 0
M  V30 19673 H 1922.04 0.0684914 3.43232 0
M  V30 19674 N 1924.49 -1.51463 -0.435524 0
M  V30 19675 C 1925.9 -1.56678 -1.01533 0
M  V30 19676 C 1926.25 -0.391337 -1.92258 0
M  V30 19677 O 1925.37 0.491647 -2.10741 0
M  V30 19678 C 1925.97 -2.83951 -1.84817 0
M  V30 19679 C 1924.53 -2.91731 -2.37844 0
M  V30 19680 C 1923.67 -2.51359 -1.17106 0
M  V30 19681 H 1926.63 -1.57213 -0.216726 0
M  V30 19682 H 1926.65 -2.67815 -2.70287 0
M  V30 19683 H 1926.16 -3.69483 -1.1876 0
M  V30 19684 H 1924.26 -2.10633 -3.07351 0
M  V30 19685 H 1924.37 -3.95421 -2.70517 0
M  V30 19686 H 1922.74 -2.04599 -1.51695 0
M  V30 19687 H 1923.52 -3.39238 -0.526566 0
M  V30 19688 N 1925.96 0.691085 -1.4164 0
M  V30 19689 C 1926.91 1.82625 -1.44051 0
M  V30 19690 C 1927.91 1.66388 -0.318032 0
M  V30 19691 O 1929.11 1.73194 -0.490276 0
M  V30 19692 H 1925.49 0.601889 -0.450815 0
M  V30 19693 H 1927.46 1.77709 -2.39713 0
M  V30 19694 C 1926.21 3.20676 -1.34395 0
M  V30 19695 H 1925.53 3.3379 -2.20056 0
M  V30 19696 H 1926.97 4.0017 -1.40143 0
M  V30 19697 C 1925.43 3.36852 -0.0568027 0
M  V30 19698 O 1925.96 3.91562 0.896762 0
M  V30 19699 N 1924.17 2.90593 0.0207452 0
M  V30 19700 H 1923.71 2.46257 -0.755995 0
M  V30 19701 H 1923.67 3.01794 0.88136 0
M  V30 19702 N 1927.44 1.27542 0.925789 0
M  V30 19703 C 1928.67 1.16641 1.70524 0
M  V30 19704 C 1929.08 -0.279149 1.87129 0
M  V30 19705 O 1928.42 -1.20171 1.38941 0
M  V30 19706 C 1928.49 1.77978 3.12352 0
M  V30 19707 C 1928.15 3.27168 3.19077 0
M  V30 19708 C 1929.15 4.23775 3.01182 0
M  V30 19709 C 1926.83 3.67911 3.41975 0
M  V30 19710 C 1928.83 5.59102 3.06077 0
M  V30 19711 C 1926.51 5.03367 3.46504 0
M  V30 19712 C 1927.51 5.98773 3.28573 0
M  V30 19713 O 1927.2 7.3176 3.3284 0
M  V30 19714 H 1926.93 0.406366 0.540225 0
M  V30 19715 H 1929.48 1.68956 1.16803 0
M  V30 19716 H 1927.71 1.20143 3.67563 0
M  V30 19717 H 1929.4 1.61765 3.72273 0
M  V30 19718 H 1930.17 3.93635 2.83331 0
M  V30 19719 H 1926.05 2.94125 3.54981 0
M  V30 19720 H 1929.59 6.33547 2.92 0
M  V30 19721 H 1925.49 5.33162 3.63879 0
M  V30 19722 H 1926.26 7.40233 3.49282 0
M  V30 19723 N 1928.92 -1.13255 1.09595 0
M  V30 19724 C 1930.17 -1.84206 0.831411 0
M  V30 19725 C 1930.49 -1.8403 -0.64483 0
M  V30 19726 O 1929.76 -1.29728 -1.46791 0
M  V30 19727 H 1928.34 -0.682085 0.304579 0
M  V30 19728 H 1931 -1.37183 1.38444 0
M  V30 19729 H 1930.1 -2.88667 1.18649 0
M  V30 19730 N 1930.4 -0.883401 -1.30514 0
M  V30 19731 C 1931.65 -0.497118 -1.95478 0
M  V30 19732 C 1931.96 0.958235 -1.7052 0
M  V30 19733 O 1933.17 1.45129 -2.29455 0
M  V30 19734 C 1931.62 -0.838108 -3.50005 0
M  V30 19735 C 1931.23 -2.31113 -3.83785 0
M  V30 19736 C 1932.97 -0.520947 -4.21291 0
M  V30 19737 C 1930.88 -2.59383 -5.31483 0
M  V30 19738 H 1929.81 -0.182178 -0.731661 0
M  V30 19739 H 1932.46 -1.07816 -1.48486 0
M  V30 19740 H 1930.84 -0.186171 -3.95562 0
M  V30 19741 H 1932.02 -3.00725 -3.49144 0
M  V30 19742 H 1930.33 -2.59566 -3.25598 0
M  V30 19743 H 1932.93 -0.709216 -5.29976 0
M  V30 19744 H 1933.27 0.539542 -4.12789 0
M  V30 19745 H 1933.81 -1.13001 -3.81413 0
M  V30 19746 H 1930.55 -3.64166 -5.45035 0
M  V30 19747 H 1930.07 -1.94378 -5.6743 0
M  V30 19748 H 1931.74 -2.44803 -5.989 0
M  V30 19749 N 1931.88 1.43833 -0.644194 0
M  V30 19750 C 1933.1 2.06784 -0.159719 0
M  V30 19751 C 1933.53 1.47913 1.16204 0
M  V30 19752 O 1932.88 0.585574 1.71583 0
M  V30 19753 C 1932.93 3.60527 -0.0724271 0
M  V30 19754 O 1932.04 4.0088 0.967917 0
M  V30 19755 H 1931.38 0.657771 -0.0907406 0
M  V30 19756 H 1933.91 1.8449 -0.884568 0
M  V30 19757 H 1933.92 4.07841 0.113872 0
M  V30 19758 H 1932.59 4.02755 -1.03736 0
M  V30 19759 H 1931.17 3.65174 0.755135 0
M  V30 19760 N 1933.35 0.385544 1.52811 0
M  V30 19761 C 1934.29 -0.486433 2.23979 0
M  V30 19762 C 1935.3 -1.02981 1.2609 0
M  V30 19763 O 1936.49 -0.932779 1.52189 0
M  V30 19764 C 1933.59 -1.68645 2.93959 0
M  V30 19765 C 1932.76 -1.2711 4.18523 0
M  V30 19766 C 1931.82 -2.33538 4.71536 0
M  V30 19767 O 1930.85 -1.95101 5.34719 0
M  V30 19768 N 1932.05 -3.65401 4.51068 0
M  V30 19769 H 1934.81 0.12327 2.99446 0
M  V30 19770 H 1932.37 0.211712 1.6051 0
M  V30 19771 H 1934.37 -2.3936 3.26326 0
M  V30 19772 H 1932.94 -2.20257 2.21823 0
M  V30 19773 H 1932.16 -0.392983 3.92236 0
M  V30 19774 H 1933.44 -0.970192 4.99464 0
M  V30 19775 H 1932.84 -3.99393 4.00626 0
M  V30 19776 H 1931.4 -4.32162 4.87934 0
M  V30 19777 N 1934.83 -1.57178 0.115259 0
M  V30 19778 C 1935.76 -2.1218 -0.866728 0
M  V30 19779 C 1936.78 -1.06365 -1.23249 0
M  V30 19780 O 1937.97 -1.33749 -1.18209 0
M  V30 19781 C 1935.07 -2.60337 -2.16975 0
M  V30 19782 C 1934.24 -3.90209 -1.97625 0
M  V30 19783 C 1933.3 -4.24003 -3.11622 0
M  V30 19784 O 1932.32 -4.92884 -2.847 0
M  V30 19785 N 1933.53 -3.81022 -4.37953 0
M  V30 19786 H 1936.29 -2.97061 -0.396835 0
M  V30 19787 H 1933.85 -1.61752 -0.0692734 0
M  V30 19788 H 1935.84 -2.79976 -2.92225 0
M  V30 19789 H 1934.41 -1.80356 -2.55324 0
M  V30 19790 H 1933.63 -3.79516 -1.06589 0
M  V30 19791 H 1934.92 -4.75137 -1.81996 0
M  V30 19792 H 1934.32 -3.25459 -4.62702 0
M  V30 19793 H 1932.88 -4.05777 -5.10086 0
M  V30 19794 N 1936.31 0.158505 -1.56801 0
M  V30 19795 C 1937.72 0.71972 -1.7227 0
M  V30 19796 C 1938.07 1.822 -0.72784 0
M  V30 19797 O 1937.2 2.1613 0.108043 0
M  V30 19798 C 1937.79 1.31231 -3.12352 0
M  V30 19799 C 1936.35 1.82021 -3.29462 0
M  V30 19800 C 1935.5 0.704157 -2.68211 0
M  V30 19801 H 1938.45 -0.0670395 -1.58558 0
M  V30 19802 H 1938.47 2.18208 -3.11714 0
M  V30 19803 H 1937.98 0.509823 -3.84737 0
M  V30 19804 H 1936.08 2.64873 -2.62056 0
M  V30 19805 H 1936.2 1.95684 -4.37315 0
M  V30 19806 H 1934.56 1.12787 -2.28366 0
M  V30 19807 H 1935.34 -0.0866929 -3.43191 0
M  V30 19808 N 1937.79 1.51692 0.427485 0
M  V30 19809 C 1939.07 1.55395 1.18793 0
M  V30 19810 C 1939.45 0.324036 2.08598 0
M  V30 19811 O 1938.79 -0.690292 2.17824 0
M  V30 19812 C 1939 2.87313 1.98121 0
M  V30 19813 C 1940.35 3.39632 2.54824 0
M  V30 19814 O 1941.38 2.8893 2.08322 0
M  V30 19815 O 1940.24 4.28125 3.39664 0
M  V30 19816 H 1937.33 0.625173 0.541376 0
M  V30 19817 H 1939.88 1.6401 0.435754 0
M  V30 19818 H 1938.65 3.68284 1.32222 0
M  V30 19819 H 1938.27 2.81907 2.80383 0
M  V30 19820 N 1939.27 -0.683564 1.42004 0
M  V30 19821 C 1940.68 -1.26389 1.37414 0
M  V30 19822 C 1941.03 -1.96099 0.0630958 0
M  V30 19823 O 1940.15 -1.995 -0.838385 0
M  V30 19824 C 1940.75 -2.29854 2.48903 0
M  V30 19825 C 1939.31 -2.83435 2.47673 0
M  V30 19826 C 1938.46 -1.57634 2.28138 0
M  V30 19827 H 1941.41 -0.477522 1.51345 0
M  V30 19828 H 1941.43 -3.11404 2.18651 0
M  V30 19829 H 1940.94 -1.7909 3.44309 0
M  V30 19830 H 1939.04 -3.38344 1.56059 0
M  V30 19831 H 1939.15 -3.33048 3.44407 0
M  V30 19832 H 1937.52 -1.83883 1.76236 0
M  V30 19833 H 1938.3 -1.08848 3.25587 0
M  V30 19834 N 1940.75 -1.28031 -0.919012 0
M  V30 19835 C 1941.99 -1.14651 -1.66432 0
M  V30 19836 C 1942.31 0.306395 -1.92578 0
M  V30 19837 O 1941.58 1.2131 -1.5382 0
M  V30 19838 H 1940.16 -0.421307 -0.616854 0
M  V30 19839 H 1942.83 -1.60684 -1.10302 0
M  V30 19840 H 1941.92 -1.68214 -2.62888 0
M  V30 19841 N 1942.22 1.12672 -1.10194 0
M  V30 19842 C 1943.47 1.84127 -0.842833 0
M  V30 19843 C 1943.8 1.8396 0.631594 0
M  V30 19844 O 1943.05 1.27871 1.48147 0
M  V30 19845 C 1943.35 3.31602 -1.33322 0
M  V30 19846 C 1943.02 3.51943 -2.81864 0
M  V30 19847 C 1941.68 3.57202 -3.22428 0
M  V30 19848 C 1944.03 3.59262 -3.77598 0
M  V30 19849 C 1941.36 3.67323 -4.57483 0
M  V30 19850 C 1943.71 3.70911 -5.12452 0
M  V30 19851 C 1942.38 3.74427 -5.52595 0
M  V30 19852 H 1941.65 0.673767 -0.308414 0
M  V30 19853 H 1944.29 1.32968 -1.3781 0
M  V30 19854 H 1942.6 3.85166 -0.717918 0
M  V30 19855 H 1944.3 3.85353 -1.10925 0
M  V30 19856 H 1940.89 3.4851 -2.49477 0
M  V30 19857 H 1945.07 3.54471 -3.47367 0
M  V30 19858 H 1940.33 3.68315 -4.88011 0
M  V30 19859 H 1944.5 3.75518 -5.8648 0
M  V30 19860 H 1942.13 3.82021 -6.5724 0
M  V30 19861 N 1943.7 0.89031 1.30043 0
M  V30 19862 C 1944.93 0.526566 2.00087 0
M  V30 19863 C 1945.34 -0.88632 1.66703 0
M  V30 19864 O 1944.7 -1.58365 0.907012 0
M  V30 19865 C 1944.75 0.698102 3.54695 0
M  V30 19866 O 1944.47 2.05537 3.86893 0
M  V30 19867 C 1945.97 0.338058 4.42009 0
M  V30 19868 H 1943.19 0.20299 0.639559 0
M  V30 19869 H 1945.74 1.19708 1.65802 0
M  V30 19870 H 1943.89 0.0748931 3.87328 0
M  V30 19871 H 1944.31 2.07787 4.81586 0
M  V30 19872 H 1945.78 0.508957 5.49649 0
M  V30 19873 H 1946.26 -0.724284 4.33187 0
M  V30 19874 H 1946.86 0.937813 4.14831 0
M  V30 19875 N 1945.18 -1.43489 0.651812 0
M  V30 19876 C 1946.43 -2.01431 0.164307 0
M  V30 19877 C 1946.75 -1.51674 -1.22556 0
M  V30 19878 O 1946.02 -0.728791 -1.81839 0
M  V30 19879 H 1944.6 -0.744764 0.0577525 0
M  V30 19880 H 1947.26 -1.75718 0.843164 0
M  V30 19881 H 1946.36 -3.1175 0.147848 0
M  V30 19882 N 1946.66 -0.393643 -1.52605 0
M  V30 19883 C 1947.62 0.427358 -2.25181 0
M  V30 19884 C 1948.62 0.986595 -1.26976 0
M  V30 19885 O 1949.81 0.867913 -1.51039 0
M  V30 19886 C 1946.94 1.60001 -3.01019 0
M  V30 19887 H 1948.14 -0.208101 -2.99177 0
M  V30 19888 H 1945.69 -0.145844 -1.55618 0
M  V30 19889 H 1946.42 2.27278 -2.31334 0
M  V30 19890 H 1946.21 1.20567 -3.73103 0
M  V30 19891 H 1947.7 2.18115 -3.56112 0
M  V30 19892 N 1948.14 1.57115 -0.123593 0
M  V30 19893 C 1949.36 1.99705 0.540887 0
M  V30 19894 C 1949.78 1.00336 1.59932 0
M  V30 19895 O 1949.14 -0.00310477 1.825 0
M  V30 19896 C 1949.19 3.42286 1.16285 0
M  V30 19897 O 1948.91 4.37854 0.146725 0
M  V30 19898 C 1950.41 4.00032 1.91021 0
M  V30 19899 H 1947.63 0.655623 0.142827 0
M  V30 19900 H 1950.17 2.03406 -0.211285 0
M  V30 19901 H 1948.33 3.39511 1.86578 0
M  V30 19902 H 1948.74 5.21066 0.599228 0
M  V30 19903 H 1950.22 5.01865 2.29861 0
M  V30 19904 H 1950.69 3.3943 2.78719 0
M  V30 19905 H 1951.3 4.06368 1.25481 0
M  V30 19906 N 1949.61 -0.150187 1.56883 0
M  V30 19907 C 1950.84 -0.87835 1.8733 0
M  V30 19908 C 1951.26 -1.74883 0.711426 0
M  V30 19909 O 1950.61 -1.79692 -0.318906 0
M  V30 19910 C 1950.66 -1.73769 3.16996 0
M  V30 19911 O 1950.39 -0.902296 4.28708 0
M  V30 19912 C 1951.89 -2.57371 3.60936 0
M  V30 19913 H 1949.11 -0.254139 0.621011 0
M  V30 19914 H 1951.65 -0.143933 2.03993 0
M  V30 19915 H 1949.81 -2.42521 3.02097 0
M  V30 19916 H 1950.22 -1.49198 5.02832 0
M  V30 19917 H 1951.69 -3.13249 4.5451 0
M  V30 19918 H 1952.17 -3.33257 2.86071 0
M  V30 19919 H 1952.78 -1.93916 3.78519 0
M  V30 19920 N 1951.09 -1.51916 -0.419434 0
M  V30 19921 C 1952.5 -1.57746 -0.998651 0
M  V30 19922 C 1952.85 -0.411706 -1.91832 0
M  V30 19923 O 1951.98 0.469268 -2.11251 0
M  V30 19924 C 1952.57 -2.85895 -1.81795 0
M  V30 19925 C 1951.13 -2.94238 -2.34736 0
M  V30 19926 C 1950.28 -2.52587 -1.14434 0
M  V30 19927 H 1953.23 -1.57434 -0.200039 0
M  V30 19928 H 1953.25 -2.70667 -2.67431 0
M  V30 19929 H 1952.76 -3.70722 -1.14834 0
M  V30 19930 H 1950.87 -2.13881 -3.05099 0
M  V30 19931 H 1950.98 -3.98268 -2.66308 0
M  V30 19932 H 1949.34 -2.06196 -1.49516 0
M  V30 19933 H 1950.13 -3.39777 -0.490555 0
M  V30 19934 N 1952.57 0.676023 -1.42365 0
M  V30 19935 C 1953.5 1.80154 -1.41695 0
M  V30 19936 C 1954.52 1.597 -0.316199 0
M  V30 19937 O 1955.7 1.68841 -0.579207 0
M  V30 19938 C 1952.8 3.17239 -1.19217 0
M  V30 19939 C 1951.98 3.64553 -2.41703 0
M  V30 19940 C 1951.04 4.80367 -2.14788 0
M  V30 19941 O 1950.06 4.90975 -2.87979 0
M  V30 19942 N 1951.26 5.6899 -1.15025 0
M  V30 19943 H 1954.03 1.81214 -2.38708 0
M  V30 19944 H 1951.59 0.859069 -1.37228 0
M  V30 19945 H 1953.58 3.92371 -0.991311 0
M  V30 19946 H 1952.15 3.11086 -0.307313 0
M  V30 19947 H 1951.37 2.80112 -2.77364 0
M  V30 19948 H 1952.66 3.92906 -3.23268 0
M  V30 19949 H 1952.06 5.6307 -0.544872 0
M  V30 19950 H 1950.62 6.43939 -1.00926 0
M  V30 19951 N 1954.05 1.28517 0.912209 0
M  V30 19952 C 1955.27 1.18732 1.70052 0
M  V30 19953 C 1955.7 -0.250323 1.86427 0
M  V30 19954 O 1955.06 -1.18105 1.37553 0
M  V30 19955 C 1955.1 1.89256 3.06944 0
M  V30 19956 O 1954.21 1.20108 3.94522 0
M  V30 19957 H 1953.55 0.412087 0.520654 0
M  V30 19958 H 1956.08 1.69866 1.14048 0
M  V30 19959 H 1956.09 1.97223 3.57165 0
M  V30 19960 H 1954.76 2.93829 2.94343 0
M  V30 19961 H 1953.34 1.20315 3.52957 0
M  V30 19962 N 1955.53 -1.12086 1.1079 0
M  V30 19963 C 1956.94 -1.65205 0.869718 0
M  V30 19964 C 1957.29 -1.86823 -0.599309 0
M  V30 19965 O 1956.41 -1.59743 -1.45983 0
M  V30 19966 C 1957.01 -3.00109 1.57226 0
M  V30 19967 C 1955.57 -3.50163 1.38068 0
M  V30 19968 C 1954.71 -2.2511 1.61928 0
M  V30 19969 H 1957.67 -0.958175 1.2651 0
M  V30 19970 H 1957.69 -3.66757 1.01337 0
M  V30 19971 H 1957.2 -2.84344 2.64141 0
M  V30 19972 H 1955.3 -3.71106 0.33333 0
M  V30 19973 H 1955.41 -4.29388 2.12515 0
M  V30 19974 H 1953.78 -2.32399 1.04224 0
M  V30 19975 H 1954.56 -2.11895 2.70103 0
M  V30 19976 N 1957 -0.897194 -1.29569 0
M  V30 19977 C 1957.93 -0.389601 -2.30227 0
M  V30 19978 C 1958.92 0.53405 -1.61499 0
M  V30 19979 O 1960.1 0.44531 -1.89025 0
M  V30 19980 C 1957.23 0.385966 -3.45149 0
M  V30 19981 C 1956.18 -0.447028 -4.25659 0
M  V30 19982 C 1955.51 0.455883 -5.32753 0
M  V30 19983 C 1956.81 -1.69562 -4.9401 0
M  V30 19984 H 1958.5 -1.23077 -2.72933 0
M  V30 19985 H 1956.05 -0.593265 -1.31211 0
M  V30 19986 H 1958 0.751791 -4.1464 0
M  V30 19987 H 1956.73 1.26089 -3.01279 0
M  V30 19988 H 1955.39 -0.795152 -3.57873 0
M  V30 19989 H 1955.03 1.32887 -4.85129 0
M  V30 19990 H 1954.73 -0.0977528 -5.87519 0
M  V30 19991 H 1956.26 0.817956 -6.05097 0
M  V30 19992 H 1957.67 -1.39968 -5.55951 0
M  V30 19993 H 1956.07 -2.19039 -5.58697 0
M  V30 19994 H 1957.14 -2.43305 -4.19441 0
M  V30 19995 N 1958.48 1.43142 -0.659413 0
M  V30 19996 C 1959.42 2.28066 0.0782731 0
M  V30 19997 C 1960.39 1.40185 0.82383 0
M  V30 19998 O 1961.58 1.69627 0.822128 0
M  V30 19999 C 1958.7 3.19726 1.11772 0
M  V30 20000 C 1957.75 4.23908 0.469506 0
M  V30 20001 S 1958.58 5.30058 -0.761531 0
M  V30 20002 C 1959.74 6.25286 0.277227 0
M  V30 20003 H 1959.97 2.90283 -0.642102 0
M  V30 20004 H 1957.51 1.47744 -0.448449 0
M  V30 20005 H 1959.46 3.73078 1.7124 0
M  V30 20006 H 1958.12 2.56674 1.81045 0
M  V30 20007 H 1957.32 4.88168 1.2533 0
M  V30 20008 H 1956.92 3.73965 -0.0512104 0
M  V30 20009 H 1959.21 6.67813 1.14158 0
M  V30 20010 H 1960.15 7.07328 -0.330513 0
M  V30 20011 H 1960.56 5.61131 0.61581 0
M  V30 20012 N 1959.96 0.40173 1.52394 0
M  V30 20013 C 1961.19 -0.178662 2.06629 0
M  V30 20014 C 1961.61 -1.3871 1.27048 0
M  V30 20015 O 1960.97 -1.78821 0.298765 0
M  V30 20016 C 1961.02 -0.514797 3.56906 0
M  V30 20017 O 1960.12 -1.60691 3.79805 0
M  V30 20018 H 1959.46 -0.0174284 0.663771 0
M  V30 20019 H 1961.99 0.572792 1.96419 0
M  V30 20020 H 1962 -0.775554 4.00561 0
M  V30 20021 H 1960.68 0.368624 4.14263 0
M  V30 20022 H 1959.25 -1.3389 3.48034 0
M  V30 20023 N 1961.44 -1.57047 0.131923 0
M  V30 20024 C 1962.85 -1.82552 -0.391375 0
M  V30 20025 C 1963.2 -1.04983 -1.6575 0
M  V30 20026 O 1962.33 -0.2904 -2.14443 0
M  V30 20027 C 1962.92 -3.3113 -0.716843 0
M  V30 20028 C 1961.48 -3.57269 -1.18472 0
M  V30 20029 C 1960.63 -2.76578 -0.200021 0
M  V30 20030 H 1963.58 -1.54636 0.356863 0
M  V30 20031 H 1963.6 -3.46463 -1.57302 0
M  V30 20032 H 1963.11 -3.87559 0.204844 0
M  V30 20033 H 1961.21 -3.06211 -2.12287 0
M  V30 20034 H 1961.32 -4.65798 -1.12111 0
M  V30 20035 H 1959.69 -2.45185 -0.689655 0
M  V30 20036 H 1960.47 -3.35772 0.71499 0
M  V30 20037 N 1962.92 0.141865 -1.5696 0
M  V30 20038 C 1964.33 0.494676 -1.5174 0
M  V30 20039 C 1964.53 1.83101 -0.8412 0
M  V30 20040 O 1963.59 2.49085 -0.413886 0
M  V30 20041 C 1964.9 0.500247 -2.9651 0
M  V30 20042 C 1966.45 0.585404 -3.07477 0
M  V30 20043 C 1966.92 0.621588 -4.53762 0
M  V30 20044 N 1968.42 0.683668 -4.58127 0
M  V30 20045 C 1969.15 0.732734 -5.68699 0
M  V30 20046 N 1968.65 0.740833 -6.88828 0
M  V30 20047 N 1970.44 0.774006 -5.56745 0
M  V30 20048 H 1962.59 -0.734022 -1.99314 0
M  V30 20049 H 1964.85 -0.268231 -0.909261 0
M  V30 20050 H 1964.56 -0.413562 -3.4926 0
M  V30 20051 H 1964.43 1.33632 -3.52735 0
M  V30 20052 H 1966.82 1.48963 -2.54743 0
M  V30 20053 H 1966.9 -0.277919 -2.54286 0
M  V30 20054 H 1966.55 -0.278504 -5.07136 0
M  V30 20055 H 1966.48 1.50147 -5.04741 0
M  V30 20056 H 1968.97 0.6845 -3.71649 0
M  V30 20057 H 1969.28 0.780262 -7.68851 0
M  V30 20058 H 1967.62 0.708625 -6.91378 0
M  V30 20059 H 1970.82 0.764885 -4.61809 0
M  V30 20060 H 1970.99 0.808779 -6.42933 0
M  V30 20061 N 1964.39 1.52136 0.411372 0
M  V30 20062 C 1965.33 1.70036 1.52194 0
M  V30 20063 C 1966.31 0.547941 1.53089 0
M  V30 20064 O 1967.49 0.775017 1.71831 0
M  V30 20065 C 1964.62 1.73764 2.9073 0
M  V30 20066 C 1963.66 2.95279 3.07754 0
M  V30 20067 S 1964.5 4.55662 2.81305 0
M  V30 20068 C 1965.65 4.62173 4.22075 0
M  V30 20069 H 1965.88 2.63966 1.36781 0
M  V30 20070 H 1963.42 1.42147 0.6028 0
M  V30 20071 H 1965.38 1.76597 3.70572 0
M  V30 20072 H 1964.04 0.809659 3.03485 0
M  V30 20073 H 1963.23 2.94363 4.09104 0
M  V30 20074 H 1962.83 2.90322 2.35773 0
M  V30 20075 H 1965.12 4.39412 5.15678 0
M  V30 20076 H 1966.07 5.641 4.28015 0
M  V30 20077 H 1966.47 3.91228 4.06941 0
M  V30 20078 N 1965.87 -0.668464 1.42721 0
M  V30 20079 C 1966.84 -1.76365 1.46384 0
M  V30 20080 C 1967.84 -1.56932 0.350554 0
M  V30 20081 O 1969.03 -1.63109 0.611658 0
M  V30 20082 C 1966.16 -3.15071 1.30164 0
M  V30 20083 H 1967.35 -1.74503 2.43903 0
M  V30 20084 H 1964.9 -0.878695 1.29262 0
M  V30 20085 H 1965.64 -3.22555 0.335926 0
M  V30 20086 H 1965.42 -3.3058 2.10853 0
M  V30 20087 H 1966.91 -3.94963 1.35625 0
M  V30 20088 N 1967.35 -1.28999 -0.905381 0
M  V30 20089 C 1968.3 -1.10274 -1.99559 0
M  V30 20090 C 1969.29 -0.0238563 -1.60882 0
M  V30 20091 O 1970.48 -0.244936 -1.75297 0
M  V30 20092 C 1967.61 -0.775383 -3.34429 0
M  V30 20093 C 1966.69 -1.89352 -3.79482 0
M  V30 20094 N 1967.08 -3.1363 -3.96825 0
M  V30 20095 C 1965.38 -1.78527 -4.0871 0
M  V30 20096 C 1966.08 -3.86541 -4.34697 0
M  V30 20097 N 1965.06 -3.14445 -4.43424 0
M  V30 20098 H 1968.86 -2.04558 -2.11029 0
M  V30 20099 H 1966.37 -1.2004 -1.09381 0
M  V30 20100 H 1968.37 -0.622296 -4.12229 0
M  V30 20101 H 1967.03 0.159599 -3.24308 0
M  V30 20102 H 1968.04 -3.49148 -3.82513 0
M  V30 20103 H 1964.72 -0.922625 -4.07178 0
M  V30 20104 H 1966.11 -4.93464 -4.56008 0
M  V30 20105 N 1968.83 1.11497 -1.11383 0
M  V30 20106 C 1970.06 1.87027 -0.884793 0
M  V30 20107 C 1970.47 1.80136 0.565362 0
M  V30 20108 O 1969.83 1.18222 1.39032 0
M  V30 20109 C 1969.88 3.35862 -1.33713 0
M  V30 20110 O 1969.6 3.42606 -2.73043 0
M  V30 20111 C 1971.1 4.283 -1.14342 0
M  V30 20112 H 1968.32 0.591449 -0.316905 0
M  V30 20113 H 1970.87 1.4102 -1.481 0
M  V30 20114 H 1969.02 3.79376 -0.784385 0
M  V30 20115 H 1969.44 4.35278 -2.92632 0
M  V30 20116 H 1970.91 5.30975 -1.50894 0
M  V30 20117 H 1971.39 4.39122 -0.0829321 0
M  V30 20118 H 1971.99 3.90578 -1.68312 0
M  V30 20119 N 1970.31 0.904053 1.29092 0
M  V30 20120 C 1971.24 0.342376 2.26628 0
M  V30 20121 C 1972.25 -0.513752 1.54481 0
M  V30 20122 O 1973.44 -0.330204 1.75419 0
M  V30 20123 C 1970.54 -0.530091 3.34729 0
M  V30 20124 C 1969.71 0.301305 4.36361 0
M  V30 20125 C 1968.77 -0.504691 5.23774 0
M  V30 20126 O 1967.8 0.0793438 5.69145 0
M  V30 20127 N 1969 -1.80985 5.51566 0
M  V30 20128 H 1971.77 1.18071 2.75462 0
M  V30 20129 H 1969.33 0.768991 1.42472 0
M  V30 20130 H 1971.32 -1.0758 3.90139 0
M  V30 20131 H 1969.89 -1.26912 2.85678 0
M  V30 20132 H 1969.11 1.02841 3.80549 0
M  V30 20133 H 1970.4 0.870527 5.01298 0
M  V30 20134 H 1969.8 -2.30701 5.16521 0
M  V30 20135 H 1968.35 -2.30259 6.09774 0
M  V30 20136 N 1971.79 -1.4279 0.666995 0
M  V30 20137 C 1973.01 -2.06504 0.192596 0
M  V30 20138 C 1973.44 -1.49743 -1.13836 0
M  V30 20139 O 1972.79 -0.612797 -1.7063 0
M  V30 20140 C 1972.84 -3.60366 0.129775 0
M  V30 20141 O 1971.95 -4.0237 -0.904018 0
M  V30 20142 H 1971.29 -0.656244 0.101194 0
M  V30 20143 H 1973.82 -1.83059 0.913807 0
M  V30 20144 H 1973.83 -4.07971 -0.0489739 0
M  V30 20145 H 1972.5 -4.01054 1.1013 0
M  V30 20146 H 1971.08 -3.66329 -0.696943 0
M  V30 20147 N 1973.26 -0.409806 -1.52179 0
M  V30 20148 C 1974.67 0.0596356 -1.86605 0
M  V30 20149 C 1975.03 1.44377 -1.32852 0
M  V30 20150 O 1974.15 2.05829 -0.668074 0
M  V30 20151 C 1974.75 0.114992 -3.38605 0
M  V30 20152 C 1973.3 0.528771 -3.72667 0
M  V30 20153 C 1972.45 -0.29629 -2.75713 0
M  V30 20154 H 1975.4 -0.626843 -1.45796 0
M  V30 20155 H 1975.42 0.930114 -3.68957 0
M  V30 20156 H 1974.94 -0.892535 -3.77698 0
M  V30 20157 H 1973.04 1.54291 -3.39153 0
M  V30 20158 H 1973.15 0.272687 -4.78323 0
M  V30 20159 H 1971.51 0.241468 -2.53553 0
M  V30 20160 H 1972.3 -1.30218 -3.17645 0
M  V30 20161 N 1974.74 1.56975 -0.14025 0
M  V30 20162 C 1975.67 2.12183 0.839848 0
M  V30 20163 C 1976.65 1.04364 1.24687 0
M  V30 20164 O 1977.84 1.32153 1.34417 0
M  V30 20165 C 1974.96 2.636 2.1268 0
M  V30 20166 C 1974.01 3.83503 1.86622 0
M  V30 20167 S 1974.84 5.24837 1.0633 0
M  V30 20168 C 1976 5.79638 2.36159 0
M  V30 20169 H 1976.23 2.94984 0.370337 0
M  V30 20170 H 1973.76 1.54223 0.0739155 0
M  V30 20171 H 1975.72 2.93875 2.86614 0
M  V30 20172 H 1974.38 1.80942 2.56747 0
M  V30 20173 H 1973.58 4.177 2.82033 0
M  V30 20174 H 1973.18 3.53954 1.208 0
M  V30 20175 H 1975.47 5.90658 3.31858 0
M  V30 20176 H 1976.41 6.77328 2.06476 0
M  V30 20177 H 1976.82 5.07837 2.46499 0
M  V30 20178 N 1976.22 -0.133539 1.57033 0
M  V30 20179 C 1977.15 -1.1944 1.94446 0
M  V30 20180 C 1978.13 -1.40868 0.812103 0
M  V30 20181 O 1979.31 -1.5526 1.06895 0
M  V30 20182 C 1976.44 -2.55091 2.22814 0
M  V30 20183 C 1975.49 -2.50178 3.45417 0
M  V30 20184 S 1976.32 -1.95558 4.98515 0
M  V30 20185 C 1977.48 -3.32912 5.30019 0
M  V30 20186 H 1977.71 -0.875271 2.84124 0
M  V30 20187 H 1975.24 -0.33971 1.50616 0
M  V30 20188 H 1977.2 -3.3315 2.39837 0
M  V30 20189 H 1975.86 -2.84188 1.33777 0
M  V30 20190 H 1975.05 -3.50068 3.62586 0
M  V30 20191 H 1974.66 -1.80235 3.27706 0
M  V30 20192 H 1976.95 -4.29074 5.24311 0
M  V30 20193 H 1977.89 -3.20584 6.31373 0
M  V30 20194 H 1978.3 -3.30669 4.57513 0
M  V30 20195 N 1977.7 -1.52352 -0.403298 0
M  V30 20196 C 1978.63 -1.72347 -1.51093 0
M  V30 20197 C 1979.64 -0.603886 -1.51186 0
M  V30 20198 O 1980.83 -0.879203 -1.55346 0
M  V30 20199 C 1977.93 -1.75407 -2.89975 0
M  V30 20200 C 1977.1 -3.04495 -3.14009 0
M  V30 20201 C 1976.16 -2.9929 -4.32795 0
M  V30 20202 O 1975.19 -3.73185 -4.29792 0
M  V30 20203 N 1976.39 -2.17484 -5.3822 0
M  V30 20204 H 1979.16 -2.67908 -1.34333 0
M  V30 20205 H 1976.72 -1.50662 -0.592661 0
M  V30 20206 H 1978.71 -1.6945 -3.67517 0
M  V30 20207 H 1977.28 -0.87295 -3.00164 0
M  V30 20208 H 1976.5 -3.24056 -2.24458 0
M  V30 20209 H 1977.79 -3.89879 -3.26913 0
M  V30 20210 H 1977.19 -1.56888 -5.4351 0
M  V30 20211 H 1975.74 -2.17378 -6.14484 0
M  V30 20212 N 1979.18 0.660885 -1.43074 0
M  V30 20213 C 1980.11 1.78641 -1.43597 0
M  V30 20214 C 1981.12 1.59355 -0.333119 0
M  V30 20215 O 1982.31 1.68218 -0.597082 0
M  V30 20216 C 1979.41 3.15957 -1.22575 0
M  V30 20217 C 1978.58 3.61969 -2.45556 0
M  V30 20218 C 1977.64 4.78062 -2.19871 0
M  V30 20219 O 1976.67 4.87893 -2.93171 0
M  V30 20220 N 1977.87 5.67738 -1.21053 0
M  V30 20221 H 1980.63 1.78672 -2.40617 0
M  V30 20222 H 1978.2 0.844466 -1.38132 0
M  V30 20223 H 1980.19 3.91298 -1.03287 0
M  V30 20224 H 1978.76 3.10742 -0.34029 0
M  V30 20225 H 1977.98 2.77155 -2.80319 0
M  V30 20226 H 1979.27 3.89455 -3.27418 0
M  V30 20227 H 1978.66 5.6246 -0.604562 0
M  V30 20228 H 1977.22 6.42832 -1.0775 0
M  V30 20229 N 1980.65 1.29477 0.898527 0
M  V30 20230 C 1981.88 1.20529 1.68783 0
M  V30 20231 C 1982.3 -0.230536 1.86682 0
M  V30 20232 O 1981.66 -1.1664 1.38798 0
M  V30 20233 C 1981.71 1.92501 3.04919 0
M  V30 20234 O 1980.81 1.24286 3.93226 0
M  V30 20235 H 1980.16 0.417586 0.516254 0
M  V30 20236 H 1982.69 1.71066 1.1224 0
M  V30 20237 H 1982.7 2.01001 3.55053 0
M  V30 20238 H 1981.37 2.96934 2.9121 0
M  V30 20239 H 1979.95 1.24052 3.51661 0
M  V30 20240 N 1982.13 -1.10905 1.11972 0
M  V30 20241 C 1983.06 -2.16893 0.740943 0
M  V30 20242 C 1984.08 -1.61166 -0.230099 0
M  V30 20243 O 1985.27 -1.78496 -0.0121612 0
M  V30 20244 C 1982.37 -3.38817 0.0751853 0
M  V30 20245 C 1981.54 -4.23998 1.07446 0
M  V30 20246 C 1980.6 -5.2438 0.437225 0
M  V30 20247 O 1979.62 -5.58611 1.09279 0
M  V30 20248 N 1980.83 -5.74996 -0.797475 0
M  V30 20249 H 1983.59 -2.49998 1.65291 0
M  V30 20250 H 1981.15 -1.26479 1.01068 0
M  V30 20251 H 1983.14 -4.03069 -0.362985 0
M  V30 20252 H 1981.71 -3.03728 -0.739454 0
M  V30 20253 H 1980.93 -3.56116 1.69041 0
M  V30 20254 H 1982.22 -4.77745 1.75034 0
M  V30 20255 H 1981.62 -5.49376 -1.34915 0
M  V30 20256 H 1980.18 -6.41057 -1.17854 0
M  V30 20257 N 1983.61 -0.910886 -1.2861 0
M  V30 20258 C 1984.57 -0.401862 -2.2565 0
M  V30 20259 C 1985.57 0.470212 -1.53771 0
M  V30 20260 O 1986.76 0.273674 -1.72037 0
M  V30 20261 C 1983.9 0.424193 -3.38251 0
M  V30 20262 H 1985.09 -1.25903 -2.72192 0
M  V30 20263 H 1982.64 -0.690027 -1.40244 0
M  V30 20264 H 1983.38 1.30088 -2.97065 0
M  V30 20265 H 1983.16 -0.200837 -3.91585 0
M  V30 20266 H 1984.65 0.771267 -4.10416 0
M  V30 20267 N 1985.09 1.42434 -0.674558 0
M  V30 20268 C 1986.04 2.32595 0.0155851 0
M  V30 20269 C 1987.03 1.49809 0.790806 0
M  V30 20270 O 1988.24 1.65882 0.698798 0
M  V30 20271 H 1984.61 0.751622 0.0238347 0
M  V30 20272 H 1986.58 2.88501 -0.762224 0
M  V30 20273 C 1985.33 3.34379 0.953202 0
M  V30 20274 H 1984.65 3.9812 0.366105 0
M  V30 20275 H 1986.09 4.00052 1.40479 0
M  V30 20276 C 1984.55 2.66623 2.05946 0
M  V30 20277 O 1985.08 2.49795 3.14588 0
M  V30 20278 N 1983.29 2.25652 1.83111 0
M  V30 20279 H 1982.84 2.39538 0.947593 0
M  V30 20280 H 1982.79 1.80649 2.57319 0
M  V30 20281 N 1986.57 0.417871 1.51959 0
M  V30 20282 C 1987.98 -0.0497386 1.86634 0
M  V30 20283 C 1988.33 -1.43671 1.33616 0
M  V30 20284 O 1987.45 -2.05472 0.67898 0
M  V30 20285 C 1988.05 -0.0970329 3.38661 0
M  V30 20286 C 1986.61 -0.509 3.72943 0
M  V30 20287 C 1985.75 0.310908 2.75552 0
M  V30 20288 H 1988.71 0.634566 1.45461 0
M  V30 20289 H 1988.73 -0.910534 3.69445 0
M  V30 20290 H 1988.24 0.912553 3.77219 0
M  V30 20291 H 1986.34 -1.52491 3.39967 0
M  V30 20292 H 1986.45 -0.247317 4.78461 0
M  V30 20293 H 1984.82 -0.228018 2.53677 0
M  V30 20294 H 1985.6 1.31901 3.1695 0
M  V30 20295 N 1988.04 -1.56898 0.148573 0
M  V30 20296 C 1989.01 -2.15649 -0.776414 0
M  V30 20297 C 1990.01 -1.09867 -1.17413 0
M  V30 20298 O 1991.2 -1.35498 -1.0948 0
M  V30 20299 C 1988.33 -2.72087 -2.05381 0
M  V30 20300 H 1989.52 -2.98724 -0.265327 0
M  V30 20301 H 1987.08 -1.55974 -0.100881 0
M  V30 20302 H 1987.81 -1.92683 -2.60852 0
M  V30 20303 H 1987.6 -3.49479 -1.77782 0
M  V30 20304 H 1989.09 -3.17348 -2.71441 0
M  V30 20305 N 1989.52 0.125209 -1.57102 0
M  V30 20306 C 1990.75 0.847206 -1.8843 0
M  V30 20307 C 1991.16 1.74245 -0.737241 0
M  V30 20308 O 1990.5 1.81213 0.301252 0
M  V30 20309 C 1990.57 1.73781 -3.14707 0
M  V30 20310 C 1990.23 1.01751 -4.45529 0
M  V30 20311 C 1991.23 0.361203 -5.18644 0
M  V30 20312 C 1988.91 1.00053 -4.92234 0
M  V30 20313 C 1990.91 -0.302451 -6.36682 0
M  V30 20314 C 1988.59 0.333077 -6.10192 0
M  V30 20315 C 1989.59 -0.317266 -6.82263 0
M  V30 20316 O 1989.28 -0.974086 -7.97977 0
M  V30 20317 H 1989.01 0.249192 -0.628394 0
M  V30 20318 H 1991.56 0.116054 -2.05072 0
M  V30 20319 H 1989.79 2.51045 -2.94131 0
M  V30 20320 H 1991.48 2.33368 -3.32105 0
M  V30 20321 H 1992.25 0.365979 -4.83617 0
M  V30 20322 H 1988.13 1.49616 -4.36046 0
M  V30 20323 H 1991.67 -0.810649 -6.92874 0
M  V30 20324 H 1987.57 0.326042 -6.44676 0
M  V30 20325 H 1988.34 -0.877938 -8.13778 0
M  V30 20326 N 1991 1.52564 0.395213 0
M  V30 20327 C 1991.93 1.73146 1.50177 0
M  V30 20328 C 1992.95 0.611895 1.50863 0
M  V30 20329 O 1994.13 0.887429 1.54877 0
M  V30 20330 C 1991.23 1.76943 2.89041 0
M  V30 20331 C 1990.41 3.06156 3.12389 0
M  V30 20332 C 1989.47 3.01581 4.31202 0
M  V30 20333 O 1988.49 3.75459 4.27807 0
M  V30 20334 N 1989.69 2.20335 5.37059 0
M  V30 20335 H 1992.46 2.68617 1.3291 0
M  V30 20336 H 1990.02 1.50975 0.584663 0
M  V30 20337 H 1992.01 1.71396 3.66613 0
M  V30 20338 H 1990.58 0.888857 2.99697 0
M  V30 20339 H 1989.8 3.25242 2.22737 0
M  V30 20340 H 1991.09 3.91607 3.2484 0
M  V30 20341 H 1990.49 1.59768 5.4267 0
M  V30 20342 H 1989.05 2.20634 6.13322 0
M  V30 20343 N 1992.48 -0.653289 1.43422 0
M  V30 20344 C 1993.44 -1.74802 1.48246 0
M  V30 20345 C 1994.44 -1.56552 0.367179 0
M  V30 20346 O 1995.63 -1.62451 0.628923 0
M  V30 20347 C 1992.76 -3.13673 1.33499 0
M  V30 20348 H 1993.96 -1.71906 2.4574 0
M  V30 20349 H 1991.51 -0.864936 1.30187 0
M  V30 20350 H 1992.24 -3.22181 0.370118 0
M  V30 20351 H 1992.03 -3.28325 2.14348 0
M  V30 20352 H 1993.52 -3.93502 1.39806 0
M  V30 20353 N 1993.96 -1.29952 -0.891648 0
M  V30 20354 C 1995.37 -1.16586 -1.45824 0
M  V30 20355 C 1995.72 0.235978 -1.94776 0
M  V30 20356 O 1994.84 1.13214 -1.84422 0
M  V30 20357 C 1995.44 -2.11036 -2.65046 0
M  V30 20358 C 1994 -2.01668 -3.17816 0
M  V30 20359 C 1993.14 -2.015 -1.90507 0
M  V30 20360 H 1996.1 -1.42319 -0.702216 0
M  V30 20361 H 1996.12 -1.68729 -3.41044 0
M  V30 20362 H 1995.63 -3.13054 -2.29387 0
M  V30 20363 H 1993.73 -1.02767 -3.58147 0
M  V30 20364 H 1993.84 -2.89729 -3.81568 0
M  V30 20365 H 1992.21 -1.46209 -2.08555 0
M  V30 20366 H 1992.99 -3.05237 -1.57115 0
M  V30 20367 N 1995.44 1.1031 -1.12559 0
M  V30 20368 C 1996.66 1.86618 -0.9049 0
M  V30 20369 C 1997.09 1.80164 0.540597 0
M  V30 20370 O 1996.44 1.17252 1.38281 0
M  V30 20371 C 1996.49 3.32903 -1.38592 0
M  V30 20372 O 1995.6 4.08508 -0.565225 0
M  V30 20373 H 1994.94 0.579019 -0.325013 0
M  V30 20374 H 1997.47 1.39359 -1.498 0
M  V30 20375 H 1997.48 3.83753 -1.38556 0
M  V30 20376 H 1996.15 3.36917 -2.43844 0
M  V30 20377 H 1994.73 3.67494 -0.632682 0
M  V30 20378 N 1996.91 0.917694 1.28125 0
M  V30 20379 C 1998.19 0.471682 1.89828 0
M  V30 20380 C 1998.57 -1.04974 1.83149 0
M  V30 20381 O 1997.92 -1.89953 1.27004 0
M  V30 20382 C 1998.13 1.00649 3.34172 0
M  V30 20383 C 1999.48 1.06095 4.11131 0
M  V30 20384 O 2000.5 0.955405 3.43148 0
M  V30 20385 O 1999.36 1.22219 5.32658 0
M  V30 20386 H 1996.45 0.150129 0.813259 0
M  V30 20387 H 1999 1.00873 1.36465 0
M  V30 20388 H 1997.77 2.05043 3.33276 0
M  V30 20389 H 1997.39 0.450491 3.9504 0
M  V30 20390 N 1998.39 -1.42074 0.682102 0
M  V30 20391 C 1999.64 -2.0066 0.204581 0
M  V30 20392 C 1999.95 -1.54595 -1.19832 0
M  V30 20393 O 2001.16 -2.05648 -1.7726 0
M  V30 20394 C 1999.62 -3.5852 0.31488 0
M  V30 20395 C 1999.22 -4.13571 1.7223 0
M  V30 20396 C 2000.97 -4.24374 -0.103556 0
M  V30 20397 C 1998.87 -5.6382 1.78497 0
M  V30 20398 H 1997.8 -0.750485 0.0727253 0
M  V30 20399 H 2000.46 -1.62712 0.848346 0
M  V30 20400 H 1998.84 -3.94006 -0.396905 0
M  V30 20401 H 2000.01 -3.89531 2.46176 0
M  V30 20402 H 1998.33 -3.60195 2.08922 0
M  V30 20403 H 2000.92 -5.34645 -0.0769789 0
M  V30 20404 H 2001.27 -4.00385 -1.14005 0
M  V30 20405 H 2001.8 -3.93874 0.557477 0
M  V30 20406 H 1998.54 -5.92616 2.80154 0
M  V30 20407 H 1998.06 -5.89828 1.08918 0
M  V30 20408 H 1999.74 -6.28363 1.54172 0
M  V30 20409 N 1999.87 -0.425924 -1.51735 0
M  V30 20410 C 2000.82 0.405756 -2.29034 0
M  V30 20411 C 2001.81 1.03103 -1.3441 0
M  V30 20412 O 2003.02 0.967304 -1.518 0
M  V30 20413 H 1999.39 0.149651 -0.736959 0
M  V30 20414 H 2001.36 -0.267185 -2.97201 0
M  V30 20415 C 2000.11 1.50091 -3.13637 0
M  V30 20416 H 1999.44 1.02912 -3.86328 0
M  V30 20417 H 2000.88 2.05632 -3.70799 0
M  V30 20418 C 1999.33 2.47775 -2.28274 0
M  V30 20419 O 1999.86 3.52051 -1.9345 0
M  V30 20420 N 1998.07 2.18387 -1.91717 0
M  V30 20421 H 1997.62 1.3362 -2.20235 0
M  V30 20422 H 1997.58 2.83989 -1.34897 0
M  V30 20423 N 2001.35 1.56817 -0.156891 0
M  V30 20424 C 2002.6 1.96051 0.490764 0
M  V30 20425 C 2002.92 1.04326 1.64746 0
M  V30 20426 O 2002.19 0.106736 1.95609 0
M  V30 20427 H 2000.77 0.72391 0.184293 0
M  V30 20428 H 2003.43 1.93482 -0.234704 0
M  V30 20429 H 2002.52 3.00007 0.86036 0
M  V30 20430 N 2002.83 -0.116876 1.57166 0
M  V30 20431 C 2004.07 -0.820513 1.86116 0
M  V30 20432 C 2004.43 -1.77394 0.744929 0
M  V30 20433 O 2003.72 -1.89897 -0.254897 0
M  V30 20434 C 2003.91 -1.60659 3.19255 0
M  V30 20435 C 2003.74 -0.730782 4.43723 0
M  V30 20436 C 2002.51 -0.384808 5.03833 0
M  V30 20437 C 2004.71 -0.0474598 5.14278 0
M  V30 20438 N 2002.69 0.501438 6.11849 0
M  V30 20439 C 2004.06 0.697704 6.16062 0
M  V30 20440 C 2006.12 0.0287378 4.97892 0
M  V30 20441 C 2004.82 1.51191 7.03231 0
M  V30 20442 C 2006.85 0.829778 5.8555 0
M  V30 20443 C 2006.21 1.56313 6.86837 0
M  V30 20444 H 2002.31 -0.277109 0.731256 0
M  V30 20445 H 2004.89 -0.084139 1.94518 0
M  V30 20446 H 2003.06 -2.31398 3.11944 0
M  V30 20447 H 2004.8 -2.25572 3.36005 0
M  V30 20448 H 2001.55 -0.727532 4.67979 0
M  V30 20449 H 2001.97 0.936473 6.70492 0
M  V30 20450 H 2006.62 -0.523887 4.19542 0
M  V30 20451 H 2004.33 2.07569 7.80987 0
M  V30 20452 H 2007.92 0.891123 5.74935 0
M  V30 20453 H 2006.8 2.173 7.53492 0
M  V30 20454 N 2004.3 -1.52772 -0.387116 0
M  V30 20455 C 2005.27 -1.77036 -1.45571 0
M  V30 20456 C 2006.27 -0.64041 -1.47497 0
M  V30 20457 O 2007.46 -0.908478 -1.48635 0
M  V30 20458 C 2004.59 -1.87284 -2.84846 0
M  V30 20459 H 2005.78 -2.72452 -1.25339 0
M  V30 20460 H 2003.33 -1.43522 -0.61897 0
M  V30 20461 H 2004.07 -0.9386 -3.1042 0
M  V30 20462 H 2003.85 -2.6945 -2.84849 0
M  V30 20463 H 2005.34 -2.07723 -3.62272 0
M  V30 20464 N 2005.78 0.645673 -1.43767 0
M  V30 20465 C 2006.71 1.77107 -1.45484 0
M  V30 20466 C 2007.73 1.58993 -0.350002 0
M  V30 20467 O 2008.92 1.67575 -0.61489 0
M  V30 20468 C 2006.02 3.14639 -1.25919 0
M  V30 20469 C 2005.19 3.59344 -2.49381 0
M  V30 20470 C 2004.25 4.75703 -2.24929 0
M  V30 20471 O 2003.27 4.84756 -2.98329 0
M  V30 20472 N 2004.48 5.66422 -1.27068 0
M  V30 20473 H 2007.24 1.7611 -2.42498 0
M  V30 20474 H 2004.8 0.829768 -1.3902 0
M  V30 20475 H 2006.79 3.9018 -1.07432 0
M  V30 20476 H 2005.36 3.10364 -0.37323 0
M  V30 20477 H 2004.58 2.74166 -2.83243 0
M  V30 20478 H 2005.87 3.8596 -3.3153 0
M  V30 20479 H 2005.27 5.61787 -0.664185 0
M  V30 20480 H 2003.83 6.41653 -1.14562 0
M  V30 20481 N 2007.26 1.30423 0.884744 0
M  V30 20482 C 2008.51 1.19023 1.63334 0
M  V30 20483 C 2008.83 -0.255228 1.93322 0
M  V30 20484 O 2008.1 -1.17189 1.56983 0
M  V30 20485 H 2006.68 0.437514 0.605467 0
M  V30 20486 H 2009.34 1.63552 1.06003 0
M  V30 20487 H 2008.44 1.75125 2.58336 0
M  V30 20488 N 2008.74 -1.09711 1.13142 0
M  V30 20489 C 2009.69 -2.18355 0.801498 0
M  V30 20490 C 2010.68 -1.68031 -0.214907 0
M  V30 20491 O 2011.89 -1.79855 -0.0723523 0
M  V30 20492 H 2008.26 -0.712202 0.241398 0
M  V30 20493 H 2010.23 -2.43416 1.72601 0
M  V30 20494 C 2008.98 -3.46566 0.280613 0
M  V30 20495 H 2008.3 -3.85656 1.05403 0
M  V30 20496 H 2009.74 -4.23908 0.0881579 0
M  V30 20497 C 2008.2 -3.21932 -0.993053 0
M  V30 20498 O 2008.73 -3.44292 -2.06944 0
M  V30 20499 N 2006.94 -2.75553 -0.922971 0
M  V30 20500 H 2006.49 -2.57557 -0.0468975 0
M  V30 20501 H 2006.44 -2.59449 -1.77577 0
M  V30 20502 N 2010.22 -0.924476 -1.27637 0
M  V30 20503 C 2011.15 -0.365478 -2.25254 0
M  V30 20504 C 2012.13 0.536345 -1.535 0
M  V30 20505 O 2013.31 0.47758 -1.8235 0
M  V30 20506 C 2010.44 0.47649 -3.35332 0
M  V30 20507 C 2009.48 -0.36145 -4.24966 0
M  V30 20508 S 2010.32 -1.77496 -5.05228 0
M  V30 20509 C 2011.47 -0.940592 -6.18792 0
M  V30 20510 H 2011.71 -1.19283 -2.72321 0
M  V30 20511 H 2009.24 -0.726442 -1.36243 0
M  V30 20512 H 2011.2 0.95642 -3.99203 0
M  V30 20513 H 2009.86 1.27834 -2.8691 0
M  V30 20514 H 2009.05 0.282848 -5.03206 0
M  V30 20515 H 2008.65 -0.775432 -3.65873 0
M  V30 20516 H 2010.95 -0.175113 -6.77274 0
M  V30 20517 H 2011.89 -1.69589 -6.87492 0
M  V30 20518 H 2012.3 -0.484027 -5.62421 0
M  V30 20519 N 2011.69 1.41711 -0.689627 0
M  V30 20520 C 2012.94 2.00925 -0.217655 0
M  V30 20521 C 2013.26 1.5487 1.18491 0
M  V30 20522 O 2012.53 0.776746 1.79843 0
M  V30 20523 H 2011.11 0.742971 -0.0774783 0
M  V30 20524 H 2013.78 1.73421 -0.889456 0
M  V30 20525 H 2012.87 3.11248 -0.230451 0
M  V30 20526 N 2013.17 0.433965 1.51507 0
M  V30 20527 C 2014.42 -0.133365 2.01659 0
M  V30 20528 C 2014.74 -1.43506 1.32026 0
M  V30 20529 O 2014.01 -1.90572 0.453774 0
M  V30 20530 H 2012.59 -0.0522753 0.745169 0
M  V30 20531 H 2015.25 0.575899 1.86197 0
M  V30 20532 H 2014.35 -0.311697 3.1054 0
M  V30 20533 N 2014.65 -1.56732 0.165206 0
M  V30 20534 C 2015.6 -2.18974 -0.784415 0
M  V30 20535 C 2016.59 -1.15199 -1.242 0
M  V30 20536 O 2017.8 -1.33411 -1.20837 0
M  V30 20537 H 2014.17 -0.701387 -0.27122 0
M  V30 20538 H 2016.14 -2.9747 -0.235435 0
M  V30 20539 C 2014.89 -2.83996 -2.00603 0
M  V30 20540 H 2014.22 -3.63574 -1.66295 0
M  V30 20541 H 2015.66 -3.31025 -2.6495 0
M  V30 20542 C 2014.12 -1.83448 -2.82574 0
M  V30 20543 O 2014.65 -1.31617 -3.79526 0
M  V30 20544 N 2012.85 -1.52342 -2.47468 0
M  V30 20545 H 2012.4 -1.94684 -1.68689 0
M  V30 20546 H 2012.36 -0.853184 -3.02602 0
M  V30 20547 N 2016.13 0.10854 -1.57226 0
M  V30 20548 C 2017.35 0.832276 -1.89968 0
M  V30 20549 C 2017.78 1.72143 -0.758179 0
M  V30 20550 O 2017.14 1.78952 0.290864 0
M  V30 20551 C 2017.18 1.63287 -3.21512 0
M  V30 20552 O 2016.29 2.74071 -3.08154 0
M  V30 20553 H 2015.63 0.229508 -0.623075 0
M  V30 20554 H 2018.16 0.0877974 -2.04412 0
M  V30 20555 H 2018.17 2.01992 -3.5449 0
M  V30 20556 H 2016.84 0.98022 -4.04184 0
M  V30 20557 H 2015.42 2.38492 -2.86664 0
M  V30 20558 N 2017.61 1.52975 0.379009 0
M  V30 20559 C 2018.54 1.73226 1.48553 0
M  V30 20560 C 2019.52 0.58029 1.51893 0
M  V30 20561 O 2020.7 0.81129 1.70148 0
M  V30 20562 C 2017.83 1.79892 2.86978 0
M  V30 20563 C 2016.87 3.01741 3.01421 0
M  V30 20564 S 2017.71 4.61527 2.71576 0
M  V30 20565 C 2018.86 4.71022 4.12176 0
M  V30 20566 H 2019.1 2.66808 1.31151 0
M  V30 20567 H 2016.63 1.43393 0.572513 0
M  V30 20568 H 2018.59 1.84418 3.66743 0
M  V30 20569 H 2017.25 0.873851 3.017 0
M  V30 20570 H 2016.44 3.02975 4.02768 0
M  V30 20571 H 2016.04 2.95258 2.29562 0
M  V30 20572 H 2018.34 4.50251 5.06241 0
M  V30 20573 H 2019.28 5.73052 4.15953 0
M  V30 20574 H 2019.69 3.99772 3.98551 0
M  V30 20575 N 2019.08 -0.63804 1.44107 0
M  V30 20576 C 2020.33 -1.39772 1.46526 0
M  V30 20577 C 2020.66 -1.94267 0.0952359 0
M  V30 20578 O 2019.91 -1.73674 -0.901993 0
M  V30 20579 C 2020.21 -2.58567 2.46734 0
M  V30 20580 C 2019.88 -2.22403 3.92234 0
M  V30 20581 C 2018.54 -2.12252 4.31859 0
M  V30 20582 C 2020.89 -1.93717 4.83863 0
M  V30 20583 C 2018.22 -1.71594 5.61046 0
M  V30 20584 C 2020.57 -1.54553 6.1343 0
M  V30 20585 C 2019.24 -1.42939 6.52016 0
M  V30 20586 H 2018.51 -0.511463 0.536177 0
M  V30 20587 H 2021.15 -0.724184 1.77279 0
M  V30 20588 H 2019.46 -3.31123 2.0944 0
M  V30 20589 H 2021.16 -3.16791 2.45855 0
M  V30 20590 H 2017.75 -2.31219 3.60882 0
M  V30 20591 H 2021.93 -2.00472 4.5401 0
M  V30 20592 H 2017.19 -1.612 5.89766 0
M  V30 20593 H 2021.36 -1.31393 6.83892 0
M  V30 20594 H 2018.99 -1.11206 7.52022 0
M  V30 20595 N 2020.56 -1.3089 -0.877815 0
M  V30 20596 C 2021.79 -1.23199 -1.66844 0
M  V30 20597 C 2022.21 0.200808 -1.87025 0
M  V30 20598 O 2021.57 1.14417 -1.40636 0
M  V30 20599 C 2021.62 -1.97328 -3.01818 0
M  V30 20600 O 2020.72 -1.30526 -3.91199 0
M  V30 20601 H 2020.06 -0.425746 -0.509545 0
M  V30 20602 H 2022.59 -1.7283 -1.09504 0
M  V30 20603 H 2022.6 -2.06624 -3.51811 0
M  V30 20604 H 2021.28 -3.01529 -2.86449 0
M  V30 20605 H 2019.86 -1.29631 -3.49643 0
M  V30 20606 N 2022.04 1.0911 -1.13723 0
M  V30 20607 C 2022.97 2.15687 -0.775355 0
M  V30 20608 C 2023.99 1.61511 0.204429 0
M  V30 20609 O 2025.17 1.78493 -0.0162374 0
M  V30 20610 C 2022.27 3.38654 -0.129079 0
M  V30 20611 C 2021.45 4.22235 -1.14178 0
M  V30 20612 C 2020.51 5.23618 -0.520594 0
M  V30 20613 O 2019.53 5.56802 -1.18152 0
M  V30 20614 N 2020.73 5.76192 0.705897 0
M  V30 20615 H 2023.5 2.47337 -1.69247 0
M  V30 20616 H 2021.06 1.24855 -1.03067 0
M  V30 20617 H 2023.05 4.03595 0.298814 0
M  V30 20618 H 2021.62 3.04866 0.69104 0
M  V30 20619 H 2020.84 3.53382 -1.74685 0
M  V30 20620 H 2022.13 4.749 -1.82612 0
M  V30 20621 H 2021.53 5.51453 1.26158 0
M  V30 20622 H 2020.09 6.42851 1.0764 0
M  V30 20623 N 2023.52 0.931232 1.27145 0
M  V30 20624 C 2024.45 0.39037 2.25851 0
M  V30 20625 C 2025.46 -0.480869 1.55536 0
M  V30 20626 O 2026.65 -0.292921 1.7608 0
M  V30 20627 C 2023.75 -0.458971 3.35778 0
M  V30 20628 C 2022.93 0.393796 4.35624 0
M  V30 20629 C 2021.98 -0.393477 5.24727 0
M  V30 20630 O 2021.01 0.20005 5.68848 0
M  V30 20631 N 2022.21 -1.69245 5.55281 0
M  V30 20632 H 2024.98 1.23887 2.72896 0
M  V30 20633 H 2022.54 0.799038 1.40808 0
M  V30 20634 H 2024.53 -0.992799 3.92334 0
M  V30 20635 H 2023.1 -1.20824 2.88306 0
M  V30 20636 H 2022.32 1.1089 3.78282 0
M  V30 20637 H 2023.61 0.976663 4.99338 0
M  V30 20638 H 2023.01 -2.19693 5.21298 0
M  V30 20639 H 2021.56 -2.17273 6.14521 0
M  V30 20640 N 2025 -1.41343 0.697132 0
M  V30 20641 C 2026.22 -2.06049 0.236356 0
M  V30 20642 C 2026.65 -1.52124 -1.10634 0
M  V30 20643 O 2026.01 -0.648852 -1.69291 0
M  V30 20644 C 2026.05 -3.6001 0.206185 0
M  V30 20645 O 2025.16 -4.04197 -0.818466 0
M  V30 20646 H 2024.5 -0.65395 0.115091 0
M  V30 20647 H 2027.03 -1.8108 0.952431 0
M  V30 20648 H 2027.04 -4.07983 0.0375737 0
M  V30 20649 H 2025.71 -3.98628 1.18612 0
M  V30 20650 H 2024.29 -3.67725 -0.619082 0
M  V30 20651 N 2026.48 -0.441993 -1.51275 0
M  V30 20652 C 2027.89 0.0200405 -1.86689 0
M  V30 20653 C 2028.24 1.41527 -1.35885 0
M  V30 20654 O 2027.36 2.04366 -0.711583 0
M  V30 20655 C 2027.96 0.0431426 -3.38773 0
M  V30 20656 C 2026.52 0.449604 -3.73705 0
M  V30 20657 C 2025.66 -0.354706 -2.75022 0
M  V30 20658 H 2028.61 -0.657627 -1.44433 0
M  V30 20659 H 2028.64 0.851643 -3.70847 0
M  V30 20660 H 2028.15 -0.97245 -3.75719 0
M  V30 20661 H 2026.25 1.47063 -3.4235 0
M  V30 20662 H 2026.36 0.171167 -4.78794 0
M  V30 20663 H 2024.73 0.187631 -2.54008 0
M  V30 20664 H 2025.51 -1.36926 -3.14811 0
M  V30 20665 N 2027.95 1.56642 -0.173515 0
M  V30 20666 C 2029.36 1.83525 0.342837 0
M  V30 20667 C 2029.72 1.0934 1.62908 0
M  V30 20668 O 2028.84 0.347154 2.13597 0
M  V30 20669 C 2029.44 3.32914 0.628798 0
M  V30 20670 C 2027.99 3.60285 1.08958 0
M  V30 20671 C 2027.14 2.77011 0.126621 0
M  V30 20672 H 2030.09 1.53635 -0.397736 0
M  V30 20673 H 2030.11 3.50511 1.48061 0
M  V30 20674 H 2029.63 3.8688 -0.307526 0
M  V30 20675 H 2027.73 3.11732 2.04093 0
M  V30 20676 H 2027.84 4.68607 0.997222 0
M  V30 20677 H 2026.2 2.46928 0.624406 0
M  V30 20678 H 2026.99 3.33758 -0.803763 0
M  V30 20679 N 2029.43 -0.1002 1.57281 0
M  V30 20680 C 2030.38 -1.12818 1.98132 0
M  V30 20681 C 2031.37 -1.36051 0.859002 0
M  V30 20682 O 2032.56 -1.36828 1.12281 0
M  V30 20683 C 2029.69 -2.44978 2.405 0
M  V30 20684 C 2028.77 -2.2514 3.59406 0
M  V30 20685 N 2029.16 -1.75157 4.74503 0
M  V30 20686 C 2027.46 -2.55726 3.65404 0
M  V30 20687 C 2028.16 -1.69469 5.56467 0
M  V30 20688 N 2027.14 -2.14499 4.99491 0
M  V30 20689 H 2030.94 -0.734583 2.84572 0
M  V30 20690 H 2028.45 -0.307698 1.59458 0
M  V30 20691 H 2030.45 -3.19352 2.67992 0
M  V30 20692 H 2029.11 -2.85079 1.55434 0
M  V30 20693 H 2030.12 -1.44429 4.97354 0
M  V30 20694 H 2026.8 -2.99386 2.90988 0
M  V30 20695 H 2028.19 -1.31919 6.58822 0
M  V30 20696 N 2030.91 -1.53174 -0.370891 0
M  V30 20697 C 2032.16 -1.69098 -1.11409 0
M  V30 20698 C 2032.48 -0.440066 -1.89456 0
M  V30 20699 O 2031.74 0.577901 -1.86973 0
M  V30 20700 C 2032.04 -2.88881 -2.10435 0
M  V30 20701 C 2031.7 -4.25602 -1.48908 0
M  V30 20702 C 2030.37 -4.62782 -1.31856 0
M  V30 20703 C 2032.72 -5.10648 -1.04346 0
M  V30 20704 C 2030.05 -5.8265 -0.688168 0
M  V30 20705 C 2032.4 -6.31157 -0.427093 0
M  V30 20706 C 2031.06 -6.67054 -0.244019 0
M  V30 20707 H 2030.33 -0.618775 -0.407674 0
M  V30 20708 H 2032.98 -1.8735 -0.396513 0
M  V30 20709 H 2031.28 -2.65119 -2.88477 0
M  V30 20710 H 2032.98 -2.98396 -2.67882 0
M  V30 20711 H 2029.57 -3.96324 -1.63173 0
M  V30 20712 H 2033.76 -4.82477 -1.16315 0
M  V30 20713 H 2029.01 -6.09057 -0.53469 0
M  V30 20714 H 2033.19 -6.96361 -0.0735755 0
M  V30 20715 H 2030.81 -7.598 0.246525 0
M  V30 20716 N 2032.39 0.630389 -1.44443 0
M  V30 20717 C 2033.64 1.38719 -1.46975 0
M  V30 20718 C 2033.96 1.94723 -0.103861 0
M  V30 20719 O 2033.23 1.75822 0.863919 0
M  V30 20720 H 2031.81 0.5149 -0.54119 0
M  V30 20721 H 2034.47 0.741905 -1.80227 0
M  V30 20722 H 2033.56 2.21813 -2.19557 0
M  V30 20723 N 2033.87 1.31354 0.870861 0
M  V30 20724 C 2034.8 1.14748 1.98408 0
M  V30 20725 C 2035.81 0.0868023 1.62568 0
M  V30 20726 O 2037 0.334209 1.75343 0
M  V30 20727 C 2034.1 0.730792 3.30927 0
M  V30 20728 C 2033.27 1.87628 3.95113 0
M  V30 20729 C 2032.33 1.44581 5.05948 0
M  V30 20730 O 2031.36 2.15531 5.26816 0
M  V30 20731 N 2032.56 0.332698 5.79546 0
M  V30 20732 H 2035.32 2.10633 2.13199 0
M  V30 20733 H 2032.89 1.23676 1.04479 0
M  V30 20734 H 2034.88 0.425538 4.02457 0
M  V30 20735 H 2033.45 -0.136426 3.12302 0
M  V30 20736 H 2032.67 2.3489 3.16576 0
M  V30 20737 H 2033.96 2.64356 4.34734 0
M  V30 20738 H 2033.35 -0.258188 5.65111 0
M  V30 20739 H 2031.91 0.0869715 6.51742 0
M  V30 20740 N 2035.34 -1.08505 1.143 0
M  V30 20741 C 2036.28 -2.15273 0.786783 0
M  V30 20742 C 2037.29 -1.61618 -0.195861 0
M  V30 20743 O 2038.48 -1.78481 0.0257031 0
M  V30 20744 C 2035.58 -3.38581 0.147036 0
M  V30 20745 C 2034.75 -4.21623 1.16415 0
M  V30 20746 C 2033.81 -5.23335 0.548355 0
M  V30 20747 O 2032.84 -5.56168 1.21104 0
M  V30 20748 N 2034.04 -5.76558 -0.67533 0
M  V30 20749 H 2036.8 -2.46436 1.70557 0
M  V30 20750 H 2034.36 -1.24306 1.03728 0
M  V30 20751 H 2036.36 -4.03748 -0.277407 0
M  V30 20752 H 2034.93 -3.05228 -0.674862 0
M  V30 20753 H 2034.15 -3.5245 1.76557 0
M  V30 20754 H 2035.43 -4.73925 1.85128 0
M  V30 20755 H 2034.83 -5.52115 -1.23232 0
M  V30 20756 H 2033.39 -6.43412 -1.0423 0
M  V30 20757 N 2036.82 -0.937962 -1.26649 0
M  V30 20758 C 2037.78 -0.449635 -2.24746 0
M  V30 20759 C 2038.78 0.437489 -1.54734 0
M  V30 20760 O 2039.97 0.237121 -1.72579 0
M  V30 20761 C 2037.11 0.35235 -3.39074 0
M  V30 20762 H 2038.3 -1.31648 -2.6946 0
M  V30 20763 H 2035.85 -0.71962 -1.38749 0
M  V30 20764 H 2036.59 1.23758 -2.99757 0
M  V30 20765 H 2036.37 -0.283853 -3.91071 0
M  V30 20766 H 2037.86 0.684038 -4.1196 0
M  V30 20767 N 2038.3 1.40971 -0.704618 0
M  V30 20768 C 2039.25 2.32576 -0.0337552 0
M  V30 20769 C 2040.24 1.51452 0.758852 0
M  V30 20770 O 2041.45 1.67327 0.663455 0
M  V30 20771 H 2037.82 0.751959 0.00788634 0
M  V30 20772 H 2039.79 2.86819 -0.823248 0
M  V30 20773 C 2038.54 3.36326 0.882061 0
M  V30 20774 H 2037.87 3.98807 0.281575 0
M  V30 20775 H 2039.31 4.02942 1.31962 0
M  V30 20776 C 2037.76 2.70931 2.00245 0
M  V30 20777 O 2038.29 2.56412 3.09218 0
M  V30 20778 N 2036.5 2.29485 1.78284 0
M  V30 20779 H 2036.05 2.41494 0.89657 0
M  V30 20780 H 2036.01 1.86067 2.5343 0
M  V30 20781 N 2039.78 0.45001 1.51039 0
M  V30 20782 C 2041.01 -0.110496 2.06605 0
M  V30 20783 C 2041.42 -1.35362 1.31615 0
M  V30 20784 O 2040.78 -1.78515 0.379306 0
M  V30 20785 C 2040.83 -0.419948 3.59052 0
M  V30 20786 O 2040.55 0.773848 4.31211 0
M  V30 20787 C 2042.05 -1.02974 4.31174 0
M  V30 20788 H 2039.27 -0.00230221 0.670996 0
M  V30 20789 H 2041.82 0.632737 1.94465 0
M  V30 20790 H 2039.97 -1.11309 3.71065 0
M  V30 20791 H 2040.38 0.505717 5.22056 0
M  V30 20792 H 2041.86 -1.19617 5.38884 0
M  V30 20793 H 2042.34 -2.01422 3.9029 0
M  V30 20794 H 2042.94 -0.375607 4.23638 0
M  V30 20795 N 2041.26 -1.56548 0.18182 0
M  V30 20796 C 2042.48 -2.02015 -0.469543 0
M  V30 20797 C 2042.91 -1.06119 -1.55307 0
M  V30 20798 O 2042.26 -0.0424595 -1.8125 0
M  V30 20799 C 2042.31 -3.46016 -1.01515 0
M  V30 20800 O 2041.42 -3.53215 -2.12869 0
M  V30 20801 H 2040.76 -0.65461 -0.111273 0
M  V30 20802 H 2043.29 -2.02552 0.288798 0
M  V30 20803 H 2043.3 -3.85537 -1.33511 0
M  V30 20804 H 2041.97 -4.15308 -0.22188 0
M  V30 20805 H 2040.55 -3.2556 -1.81838 0
M  V30 20806 N 2042.73 0.0918577 -1.57332 0
M  V30 20807 C 2043.67 1.14242 -1.97545 0
M  V30 20808 C 2044.65 1.38665 -0.849166 0
M  V30 20809 O 2045.83 1.52371 -1.10974 0
M  V30 20810 C 2042.96 2.49094 -2.29499 0
M  V30 20811 C 2042 2.40932 -3.51929 0
M  V30 20812 S 2042.84 1.82272 -5.03525 0
M  V30 20813 C 2043.99 3.18742 -5.3866 0
M  V30 20814 H 2044.22 0.799633 -2.86344 0
M  V30 20815 H 2041.76 0.299658 -1.51464 0
M  V30 20816 H 2043.72 3.26674 -2.48585 0
M  V30 20817 H 2042.38 2.80541 -1.41264 0
M  V30 20818 H 2041.57 3.40331 -3.7174 0
M  V30 20819 H 2041.17 1.71483 -3.3237 0
M  V30 20820 H 2043.46 4.15022 -5.35503 0
M  V30 20821 H 2044.41 3.03732 -6.3965 0
M  V30 20822 H 2044.81 3.18423 -4.66119 0
M  V30 20823 N 2044.21 1.53368 0.362763 0
M  V30 20824 C 2045.44 1.73348 1.12402 0
M  V30 20825 C 2045.85 0.463567 1.83433 0
M  V30 20826 O 2045.19 -0.573438 1.7452 0
M  V30 20827 C 2045.26 2.84605 2.19637 0
M  V30 20828 C 2044.92 4.24862 1.68348 0
M  V30 20829 C 2045.92 5.07111 1.14605 0
M  V30 20830 C 2043.6 4.71283 1.73776 0
M  V30 20831 C 2045.6 6.33872 0.669702 0
M  V30 20832 C 2043.28 5.98021 1.25753 0
M  V30 20833 C 2044.28 6.79148 0.724405 0
M  V30 20834 O 2043.97 8.03507 0.251275 0
M  V30 20835 H 2043.7 0.583168 0.341893 0
M  V30 20836 H 2046.25 2.00919 0.426694 0
M  V30 20837 H 2044.48 2.52514 2.92871 0
M  V30 20838 H 2046.17 2.92735 2.81177 0
M  V30 20839 H 2046.94 4.7242 1.09748 0
M  V30 20840 H 2042.82 4.08208 2.14213 0
M  V30 20841 H 2046.36 6.97141 0.252909 0
M  V30 20842 H 2042.26 6.32211 1.30304 0
M  V30 20843 H 2043.03 8.17662 0.370343 0
M  V30 20844 N 2045.69 -0.62272 1.44776 0
M  V30 20845 C 2046.92 -1.41403 1.51723 0
M  V30 20846 C 2047.34 -1.87534 0.145802 0
M  V30 20847 O 2046.7 -1.59244 -0.866667 0
M  V30 20848 C 2046.75 -2.60482 2.49362 0
M  V30 20849 O 2045.85 -3.60604 2.00096 0
M  V30 20850 H 2045.19 -0.422766 0.51202 0
M  V30 20851 H 2047.72 -0.759294 1.89989 0
M  V30 20852 H 2047.73 -3.0792 2.67674 0
M  V30 20853 H 2046.41 -2.26253 3.48974 0
M  V30 20854 H 2044.98 -3.19918 1.9159 0
M  V30 20855 N 2047.17 -1.31814 -0.863883 0
M  V30 20856 C 2048.12 -1.19916 -1.99306 0
M  V30 20857 C 2049.11 -0.106055 -1.69068 0
M  V30 20858 O 2050.32 -0.26836 -1.77988 0
M  V30 20859 H 2046.69 -0.371464 -0.653849 0
M  V30 20860 H 2048.66 -2.15436 -2.0647 0
M  V30 20861 C 2047.41 -0.929593 -3.35043 0
M  V30 20862 H 2046.73 -1.76288 -3.58835 0
M  V30 20863 H 2048.17 -0.886553 -4.14628 0
M  V30 20864 C 2046.63 0.367677 -3.34888 0
M  V30 20865 O 2047.16 1.38252 -3.77159 0
M  V30 20866 N 2045.37 0.386376 -2.8802 0
M  V30 20867 H 2044.92 -0.439994 -2.53815 0
M  V30 20868 H 2044.87 1.25425 -2.88299 0
M  V30 20869 N 2048.65 1.07897 -1.14873 0
M  V30 20870 C 2049.59 2.17052 -0.836135 0
M  V30 20871 C 2050.59 1.68352 0.188148 0
M  V30 20872 O 2051.79 1.79947 0.0437298 0
M  V30 20873 H 2048.17 0.708271 -0.252698 0
M  V30 20874 H 2050.14 2.40639 -1.76452 0
M  V30 20875 C 2048.89 3.46076 -0.335713 0
M  V30 20876 H 2048.21 3.8393 -1.11525 0
M  V30 20877 H 2049.65 4.23714 -0.155587 0
M  V30 20878 C 2048.11 3.23471 0.941711 0
M  V30 20879 O 2048.64 3.47541 2.0144 0
M  V30 20880 N 2046.85 2.76987 0.879016 0
M  V30 20881 H 2046.39 2.57599 0.00591639 0
M  V30 20882 H 2046.35 2.62241 1.73427 0
M  V30 20883 N 2050.12 0.944665 1.2615 0
M  V30 20884 C 2051.06 0.401268 2.24644 0
M  V30 20885 C 2052.04 -0.511856 1.54333 0
M  V30 20886 O 2053.22 -0.44851 1.83086 0
M  V30 20887 C 2050.35 -0.423081 3.36047 0
M  V30 20888 C 2049.39 0.429013 4.24337 0
M  V30 20889 S 2050.23 1.85512 5.0234 0
M  V30 20890 C 2051.38 1.03892 6.17217 0
M  V30 20891 H 2051.61 1.236 2.70389 0
M  V30 20892 H 2049.15 0.748025 1.3507 0
M  V30 20893 H 2051.11 -0.892789 4.00674 0
M  V30 20894 H 2049.77 -1.23253 2.88907 0
M  V30 20895 H 2048.96 -0.202757 5.03592 0
M  V30 20896 H 2048.56 0.833541 3.64593 0
M  V30 20897 H 2050.85 0.282839 6.76909 0
M  V30 20898 H 2051.8 1.80505 6.84707 0
M  V30 20899 H 2052.2 0.573442 5.6158 0
M  V30 20900 N 2051.6 -1.40596 0.712085 0
M  V30 20901 C 2052.55 -2.32554 0.0460888 0
M  V30 20902 C 2053.54 -1.51853 -0.750809 0
M  V30 20903 O 2054.75 -1.67676 -0.654572 0
M  V30 20904 H 2051.13 -0.75199 -0.00389841 0
M  V30 20905 H 2053.1 -2.86378 0.838447 0
M  V30 20906 C 2051.85 -3.36789 -0.864212 0
M  V30 20907 H 2051.17 -3.98951 -0.260421 0
M  V30 20908 H 2052.61 -4.03636 -1.29823 0
M  V30 20909 C 2051.07 -2.71989 -1.98805 0
M  V30 20910 O 2051.6 -2.58048 -3.07854 0
M  V30 20911 N 2049.8 -2.30427 -1.77064 0
M  V30 20912 H 2049.35 -2.41966 -0.88375 0
M  V30 20913 H 2049.31 -1.87408 -2.52439 0
M  V30 20914 N 2053.08 -0.458013 -1.50798 0
M  V30 20915 C 2054.33 0.10308 -2.01436 0
M  V30 20916 C 2054.64 1.41957 -1.34564 0
M  V30 20917 O 2055.85 2.06484 -1.76286 0
M  V30 20918 C 2054.3 0.234229 -3.59137 0
M  V30 20919 C 2053.91 -1.07305 -4.34959 0
M  V30 20920 C 2055.66 0.747982 -4.17858 0
M  V30 20921 C 2053.56 -0.906414 -5.84413 0
M  V30 20922 H 2052.49 0.0422981 -0.752813 0
M  V30 20923 H 2055.14 -0.590924 -1.73725 0
M  V30 20924 H 2053.53 0.991716 -3.83381 0
M  V30 20925 H 2054.7 -1.84048 -4.22449 0
M  V30 20926 H 2053.02 -1.51691 -3.87787 0
M  V30 20927 H 2055.61 0.889478 -5.2725 0
M  V30 20928 H 2055.96 1.73592 -3.7838 0
M  V30 20929 H 2056.49 0.048243 -3.97771 0
M  V30 20930 H 2053.23 -1.86733 -6.2834 0
M  V30 20931 H 2052.75 -0.179147 -5.99532 0
M  V30 20932 H 2054.43 -0.567802 -6.44504 0
M  V30 20933 N 2054.56 1.56449 -0.190119 0
M  V30 20934 C 2055.51 2.20194 0.749479 0
M  V30 20935 C 2056.5 1.1716 1.22352 0
M  V30 20936 O 2057.71 1.35317 1.18699 0
M  V30 20937 H 2054.08 0.705613 0.260028 0
M  V30 20938 H 2056.05 2.97807 0.18808 0
M  V30 20939 C 2054.8 2.87151 1.9606 0
M  V30 20940 H 2054.13 3.66174 1.60489 0
M  V30 20941 H 2055.57 3.35198 2.5965 0
M  V30 20942 C 2054.02 1.87921 2.7962 0
M  V30 20943 O 2054.55 1.37638 3.77384 0
M  V30 20944 N 2052.76 1.5626 2.45013 0
M  V30 20945 H 2052.31 1.97343 1.6557 0
M  V30 20946 H 2052.27 0.901217 3.01207 0
M  V30 20947 N 2056.04 -0.0835127 1.57379 0
M  V30 20948 C 2057.28 -0.786031 1.86948 0
M  V30 20949 C 2057.62 -1.77811 0.780828 0
M  V30 20950 O 2056.89 -1.93362 -0.210075 0
M  V30 20951 C 2057.17 -1.50447 3.27166 0
M  V30 20952 C 2057.03 -0.529601 4.46671 0
M  V30 20953 C 2058.35 -2.45226 3.65448 0
M  V30 20954 H 2055.47 -0.284294 0.67996 0
M  V30 20955 H 2058.11 -0.0494231 1.89936 0
M  V30 20956 H 2056.26 -2.13237 3.24749 0
M  V30 20957 H 2057.93 0.0921842 4.61208 0
M  V30 20958 H 2056.17 0.156069 4.33519 0
M  V30 20959 H 2056.84 -1.06967 5.41537 0
M  V30 20960 H 2059.32 -1.92521 3.68883 0
M  V30 20961 H 2058.2 -2.92505 4.6447 0
M  V30 20962 H 2058.46 -3.29506 2.94751 0
M  V30 20963 N 2057.52 -1.53558 -0.354624 0
M  V30 20964 C 2058.74 -1.74503 -1.12087 0
M  V30 20965 C 2059.17 -0.477817 -1.8193 0
M  V30 20966 O 2058.52 0.568868 -1.72144 0
M  V30 20967 C 2058.57 -2.91808 -2.1185 0
M  V30 20968 O 2057.68 -2.61182 -3.19152 0
M  V30 20969 H 2057.02 -0.579191 -0.324705 0
M  V30 20970 H 2059.55 -2.00483 -0.4084 0
M  V30 20971 H 2059.56 -3.18284 -2.55263 0
M  V30 20972 H 2058.23 -3.83721 -1.6041 0
M  V30 20973 H 2056.81 -2.45558 -2.80634 0
M  V30 20974 N 2058.99 0.615033 -1.45104 0
M  V30 20975 C 2059.93 1.73963 -1.47689 0
M  V30 20976 C 2060.9 1.59132 -0.334015 0
M  V30 20977 O 2062.09 1.80796 -0.533407 0
M  V30 20978 C 2059.22 3.11713 -1.32487 0
M  V30 20979 C 2058.26 3.45152 -2.50544 0
M  V30 20980 S 2059.09 3.40825 -4.13035 0
M  V30 20981 C 2060.25 4.81168 -4.00285 0
M  V30 20982 H 2060.48 1.71506 -2.42843 0
M  V30 20983 H 2058.02 0.791046 -1.32596 0
M  V30 20984 H 2059.97 3.91196 -1.24403 0
M  V30 20985 H 2058.64 3.11692 -0.388156 0
M  V30 20986 H 2057.83 4.4543 -2.35813 0
M  V30 20987 H 2057.43 2.73168 -2.55451 0
M  V30 20988 H 2059.72 5.70792 -3.6497 0
M  V30 20989 H 2060.67 5.00955 -5.0045 0
M  V30 20990 H 2061.07 4.56499 -3.32067 0
M  V30 20991 N 2060.47 1.3227 0.85688 0
M  V30 20992 C 2061.43 1.2096 1.94682 0
M  V30 20993 C 2062.43 0.133231 1.60247 0
M  V30 20994 O 2063.62 0.383471 1.69927 0
M  V30 20995 C 2060.76 0.85974 3.29881 0
M  V30 20996 H 2061.95 2.17823 2.06139 0
M  V30 20997 H 2059.5 1.16069 1.04679 0
M  V30 20998 H 2060.24 -0.107161 3.24123 0
M  V30 20999 H 2060.02 1.63794 3.5625 0
M  V30 21000 H 2061.51 0.804868 4.0977 0
M  V30 21001 N 2061.95 -1.07287 1.15444 0
M  V30 21002 C 2063.18 -1.83614 0.953597 0
M  V30 21003 C 2063.59 -1.82111 -0.498116 0
M  V30 21004 O 2062.95 -1.233 -1.34548 0
M  V30 21005 C 2063 -3.30668 1.46086 0
M  V30 21006 O 2062.72 -3.32236 2.85571 0
M  V30 21007 C 2064.22 -4.23761 1.3016 0
M  V30 21008 H 2061.44 -0.57928 0.338638 0
M  V30 21009 H 2063.99 -1.35426 1.53232 0
M  V30 21010 H 2062.14 -3.76203 0.924647 0
M  V30 21011 H 2062.56 -4.24117 3.08585 0
M  V30 21012 H 2064.03 -5.25009 1.70497 0
M  V30 21013 H 2064.51 -4.38511 0.245852 0
M  V30 21014 H 2065.11 -3.84062 1.82692 0
M  V30 21015 N 2063.43 -0.951342 -1.25647 0
M  V30 21016 C 2064.38 -0.459968 -2.28007 0
M  V30 21017 C 2065.37 0.468044 -1.62806 0
M  V30 21018 O 2066.58 0.345136 -1.7666 0
M  V30 21019 H 2062.95 -0.130235 -0.740637 0
M  V30 21020 H 2064.92 -1.33559 -2.66842 0
M  V30 21021 C 2063.67 0.24991 -3.46801 0
M  V30 21022 H 2062.99 -0.455035 -3.97202 0
M  V30 21023 H 2064.43 0.557792 -4.20315 0
M  V30 21024 C 2062.89 1.47127 -3.03076 0
M  V30 21025 O 2063.42 2.56915 -3.088 0
M  V30 21026 N 2061.63 1.33145 -2.58304 0
M  V30 21027 H 2061.18 0.438193 -2.53846 0
M  V30 21028 H 2061.13 2.14982 -2.29413 0
M  V30 21029 N 2064.91 1.40216 -0.719531 0
M  V30 21030 C 2066.13 2.05124 -0.270509 0
M  V30 21031 C 2066.55 1.5422 1.08911 0
M  V30 21032 O 2065.91 0.700448 1.68523 0
M  V30 21033 C 2065.96 3.60662 -0.24606 0
M  V30 21034 O 2065.68 4.09688 -1.552 0
M  V30 21035 C 2067.18 4.42749 0.22103 0
M  V30 21036 H 2064.4 0.660024 -0.120868 0
M  V30 21037 H 2066.94 1.79552 -0.978844 0
M  V30 21038 H 2065.1 3.85189 0.413268 0
M  V30 21039 H 2065.51 5.03911 -1.45513 0
M  V30 21040 H 2066.99 5.51683 0.186986 0
M  V30 21041 H 2067.46 4.20624 1.26382 0
M  V30 21042 H 2068.07 4.23337 -0.408166 0
M  V30 21043 N 2066.38 0.466004 1.50553 0
M  V30 21044 C 2067.63 -0.09056 2.01897 0
M  V30 21045 C 2067.95 -1.40673 1.35041 0
M  V30 21046 O 2067.22 -1.89567 0.494095 0
M  V30 21047 H 2065.8 -0.0364574 0.74611 0
M  V30 21048 H 2068.46 0.615265 1.84934 0
M  V30 21049 H 2067.56 -0.245757 3.11131 0
M  V30 21050 N 2067.86 -1.56346 0.198413 0
M  V30 21051 C 2069.11 -1.97283 -0.438612 0
M  V30 21052 C 2069.43 -1.08657 -1.61922 0
M  V30 21053 O 2068.7 -0.158561 -1.95257 0
M  V30 21054 H 2067.28 -0.728541 -0.165035 0
M  V30 21055 H 2069.94 -1.92791 0.285919 0
M  V30 21056 H 2069.04 -3.02183 -0.780516 0
M  V30 21057 N 2069.34 0.0751653 -1.57421 0
M  V30 21058 C 2070.27 1.12141 -1.98745 0
M  V30 21059 C 2071.25 1.37756 -0.863825 0
M  V30 21060 O 2072.44 1.51186 -1.12584 0
M  V30 21061 C 2069.56 2.46646 -2.32128 0
M  V30 21062 C 2068.61 2.37186 -3.54465 0
M  V30 21063 S 2069.44 1.76921 -5.0543 0
M  V30 21064 C 2070.6 3.13011 -5.4201 0
M  V30 21065 H 2070.83 0.769218 -2.87176 0
M  V30 21066 H 2068.36 0.283576 -1.51774 0
M  V30 21067 H 2070.32 3.24019 -2.52036 0
M  V30 21068 H 2068.98 2.79027 -1.44232 0
M  V30 21069 H 2068.18 3.3637 -3.75329 0
M  V30 21070 H 2067.78 1.67948 -3.3417 0
M  V30 21071 H 2070.07 4.09319 -5.39874 0
M  V30 21072 H 2071.01 2.96931 -6.42836 0
M  V30 21073 H 2071.42 3.13461 -4.6947 0
M  V30 21074 N 2070.82 1.53744 0.346476 0
M  V30 21075 C 2072.04 1.75095 1.1116 0
M  V30 21076 C 2072.47 0.487459 1.81674 0
M  V30 21077 O 2071.83 -0.55973 1.72443 0
M  V30 21078 C 2071.87 2.92927 2.103 0
M  V30 21079 O 2070.98 2.62871 3.17762 0
M  V30 21080 H 2070.32 0.580905 0.321629 0
M  V30 21081 H 2072.85 2.00696 0.397762 0
M  V30 21082 H 2072.86 3.19633 2.53572 0
M  V30 21083 H 2071.53 3.84566 1.58372 0
M  V30 21084 H 2070.11 2.47043 2.79328 0
M  V30 21085 N 2072.3 -0.607329 1.45428 0
M  V30 21086 C 2073.52 -1.39786 1.53214 0
M  V30 21087 C 2073.95 -1.87369 0.165684 0
M  V30 21088 O 2073.3 -1.60154 -0.849728 0
M  V30 21089 C 2073.35 -2.57823 2.52111 0
M  V30 21090 O 2072.46 -3.58462 2.03909 0
M  V30 21091 H 2071.8 -0.417312 0.516476 0
M  V30 21092 H 2074.33 -0.739101 1.90784 0
M  V30 21093 H 2074.34 -3.05064 2.70925 0
M  V30 21094 H 2073.01 -2.22539 3.51354 0
M  V30 21095 H 2071.59 -3.17868 1.94973 0
M  V30 21096 N 2073.77 -1.32722 -0.849853 0
M  V30 21097 C 2074.71 -1.16395 -1.96284 0
M  V30 21098 C 2075.69 -0.062185 -1.62481 0
M  V30 21099 O 2076.87 -0.222389 -1.87184 0
M  V30 21100 C 2074 -0.782885 -3.29528 0
M  V30 21101 C 2073.04 -1.89059 -3.82308 0
M  V30 21102 S 2073.88 -3.49971 -4.05315 0
M  V30 21103 C 2075.03 -3.13846 -5.41527 0
M  V30 21104 H 2075.26 -2.10613 -2.09832 0
M  V30 21105 H 2072.8 -1.17438 -1.00238 0
M  V30 21106 H 2074.76 -0.56979 -4.06526 0
M  V30 21107 H 2073.42 0.140502 -3.13786 0
M  V30 21108 H 2072.61 -1.57706 -4.78691 0
M  V30 21109 H 2072.21 -2.05978 -3.12169 0
M  V30 21110 H 2074.5 -2.63989 -6.23952 0
M  V30 21111 H 2075.45 -4.09269 -5.77845 0
M  V30 21112 H 2075.85 -2.50737 -5.05758 0
M  V30 21113 N 2075.25 1.06673 -1.16011 0
M  V30 21114 C 2076.2 2.16153 -0.859109 0
M  V30 21115 C 2077.19 1.68542 0.170281 0
M  V30 21116 O 2078.4 1.79983 0.0246416 0
M  V30 21117 H 2074.78 0.705551 -0.260196 0
M  V30 21118 H 2076.75 2.38754 -1.78994 0
M  V30 21119 C 2075.5 3.457 -0.3724 0
M  V30 21120 H 2074.82 3.82725 -1.15591 0
M  V30 21121 H 2076.26 4.23526 -0.200519 0
M  V30 21122 C 2074.72 3.24451 0.90735 0
M  V30 21123 O 2075.25 3.49658 1.97743 0
M  V30 21124 N 2073.45 2.77904 0.849588 0
M  V30 21125 H 2073 2.57591 -0.0214058 0
M  V30 21126 H 2072.96 2.64066 1.70636 0
M  V30 21127 N 2076.73 0.957992 1.25141 0
M  V30 21128 C 2077.66 0.438189 2.24972 0
M  V30 21129 C 2078.68 -0.447769 1.56521 0
M  V30 21130 O 2079.86 -0.255506 1.76662 0
M  V30 21131 C 2076.96 -0.387644 3.36676 0
M  V30 21132 C 2076.14 0.486109 4.3469 0
M  V30 21133 C 2075.2 -0.282086 5.25443 0
M  V30 21134 O 2074.22 0.320666 5.68296 0
M  V30 21135 N 2075.42 -1.57428 5.58746 0
M  V30 21136 H 2078.19 1.29648 2.70206 0
M  V30 21137 H 2075.75 0.828726 1.39082 0
M  V30 21138 H 2077.74 -0.909356 3.94351 0
M  V30 21139 H 2076.31 -1.14681 2.90804 0
M  V30 21140 H 2075.53 1.18889 3.75844 0
M  V30 21141 H 2076.82 1.08236 4.97154 0
M  V30 21142 H 2076.22 -2.08586 5.25841 0
M  V30 21143 H 2074.78 -2.04189 6.18991 0
M  V30 21144 N 2078.21 -1.39832 0.726957 0
M  V30 21145 C 2079.14 -2.28179 0.0306291 0
M  V30 21146 C 2080.12 -1.43956 -0.756008 0
M  V30 21147 O 2081.3 -1.73356 -0.74026 0
M  V30 21148 C 2078.43 -3.24695 -0.963903 0
M  V30 21149 C 2077.48 -4.25665 -0.266719 0
M  V30 21150 S 2078.31 -5.2582 1.01356 0
M  V30 21151 C 2079.47 -6.25896 0.0214211 0
M  V30 21152 H 2079.7 -2.86889 0.779868 0
M  V30 21153 H 2077.23 -1.45436 0.518429 0
M  V30 21154 H 2079.19 -3.80823 -1.53245 0
M  V30 21155 H 2077.85 -2.6502 -1.68592 0
M  V30 21156 H 2077.04 -4.93592 -1.01896 0
M  V30 21157 H 2076.65 -3.73295 0.229576 0
M  V30 21158 H 2078.94 -6.72499 -0.82166 0
M  V30 21159 H 2079.88 -7.04946 0.667612 0
M  V30 21160 H 2080.29 -5.6343 -0.347386 0
M  V30 21161 N 2079.69 -0.473982 -1.50304 0
M  V30 21162 C 2080.91 0.0776132 -2.06754 0
M  V30 21163 C 2081.33 1.33251 -1.33752 0
M  V30 21164 O 2080.69 1.77889 -0.407659 0
M  V30 21165 C 2080.74 0.362773 -3.59675 0
M  V30 21166 O 2080.46 -0.842352 -4.29926 0
M  V30 21167 C 2081.96 0.961013 -4.32758 0
M  V30 21168 H 2079.18 -0.00837304 -0.670948 0
M  V30 21169 H 2081.72 -0.663594 -1.93434 0
M  V30 21170 H 2079.88 1.05392 -3.72789 0
M  V30 21171 H 2080.29 -0.588708 -5.21186 0
M  V30 21172 H 2081.77 1.11029 -5.40719 0
M  V30 21173 H 2082.24 1.95187 -3.93445 0
M  V30 21174 H 2082.85 0.308162 -4.24182 0
M  V30 21175 N 2081.16 1.56239 -0.206702 0
M  V30 21176 C 2082.41 1.97513 0.428144 0
M  V30 21177 C 2082.73 1.09514 1.61343 0
M  V30 21178 O 2082 0.168913 1.9517 0
M  V30 21179 H 2080.58 0.729406 0.161169 0
M  V30 21180 H 2083.25 1.92637 -0.296139 0
M  V30 21181 H 2082.34 3.02592 0.764479 0
M  V30 21182 N 2082.64 -0.0668159 1.57458 0
M  V30 21183 C 2083.57 -1.10569 2.00766 0
M  V30 21184 C 2084.59 -1.34696 0.914378 0
M  V30 21185 O 2085.78 -1.32848 1.19221 0
M  V30 21186 C 2082.88 -2.45556 2.33571 0
M  V30 21187 C 2082.05 -2.41316 3.64808 0
M  V30 21188 C 2081.11 -3.58451 3.85227 0
M  V30 21189 O 2080.13 -3.39654 4.56754 0
M  V30 21190 N 2081.34 -4.7898 3.27961 0
M  V30 21191 H 2084.1 -0.736847 2.90501 0
M  V30 21192 H 2081.66 -0.255392 1.59873 0
M  V30 21193 H 2083.65 -3.2257 2.44399 0
M  V30 21194 H 2082.22 -2.74424 1.497 0
M  V30 21195 H 2081.44 -1.49655 3.64688 0
M  V30 21196 H 2082.73 -2.35589 4.50972 0
M  V30 21197 H 2082.13 -4.97155 2.69913 0
M  V30 21198 H 2080.69 -5.53488 3.4423 0
M  V30 21199 N 2084.12 -1.53926 -0.338317 0
M  V30 21200 C 2085.37 -1.70639 -1.07542 0
M  V30 21201 C 2085.68 -0.479077 -1.89642 0
M  V30 21202 O 2086.89 -0.527259 -2.66331 0
M  V30 21203 C 2085.35 -3.0176 -1.96134 0
M  V30 21204 C 2084.95 -4.31847 -1.19216 0
M  V30 21205 C 2086.7 -3.27839 -2.6967 0
M  V30 21206 C 2084.6 -5.54039 -2.06869 0
M  V30 21207 H 2083.53 -0.635868 -0.4052 0
M  V30 21208 H 2086.19 -1.80424 -0.334569 0
M  V30 21209 H 2084.57 -2.85845 -2.7406 0
M  V30 21210 H 2085.74 -4.58482 -0.461647 0
M  V30 21211 H 2084.06 -4.12421 -0.574263 0
M  V30 21212 H 2086.65 -4.16322 -3.3553 0
M  V30 21213 H 2087 -2.45074 -3.36518 0
M  V30 21214 H 2087.53 -3.44554 -1.98815 0
M  V30 21215 H 2084.27 -6.39363 -1.44554 0
M  V30 21216 H 2083.79 -5.31645 -2.77694 0
M  V30 21217 H 2085.47 -5.89881 -2.658 0
M  V30 21218 N 2085.6 0.599608 -1.45748 0
M  V30 21219 C 2086.82 1.38971 -1.53954 0
M  V30 21220 C 2087.25 1.87278 -0.175618 0
M  V30 21221 O 2086.61 1.60602 0.841223 0
M  V30 21222 C 2086.66 2.56482 -2.53474 0
M  V30 21223 O 2085.76 3.57375 -2.05808 0
M  V30 21224 H 2085.1 0.414567 -0.518681 0
M  V30 21225 H 2087.63 0.728972 -1.91173 0
M  V30 21226 H 2087.64 3.03623 -2.72539 0
M  V30 21227 H 2086.32 2.20672 -3.52529 0
M  V30 21228 H 2084.89 3.1683 -1.96656 0
M  V30 21229 N 2087.08 1.33171 0.842803 0
M  V30 21230 C 2088.01 1.17435 1.95664 0
M  V30 21231 C 2088.99 0.0708009 1.62446 0
M  V30 21232 O 2090.17 0.232312 1.87063 0
M  V30 21233 C 2087.3 0.80035 3.29108 0
M  V30 21234 C 2086.35 1.91083 3.813 0
M  V30 21235 S 2087.18 3.52116 4.03453 0
M  V30 21236 C 2088.33 3.16714 5.39855 0
M  V30 21237 H 2088.57 2.11722 2.08713 0
M  V30 21238 H 2086.1 1.17968 0.996135 0
M  V30 21239 H 2088.06 0.591341 4.06218 0
M  V30 21240 H 2086.72 -0.123859 3.13856 0
M  V30 21241 H 2085.91 1.60242 4.77848 0
M  V30 21242 H 2085.51 2.0763 3.11072 0
M  V30 21243 H 2087.81 2.67294 6.22543 0
M  V30 21244 H 2088.75 4.12328 5.75666 0
M  V30 21245 H 2089.16 2.53416 5.04421 0
M  V30 21246 N 2088.56 -1.06056 1.16576 0
M  V30 21247 C 2089.78 -1.82592 0.973019 0
M  V30 21248 C 2090.2 -1.82629 -0.478773 0
M  V30 21249 O 2089.56 -1.2472 -1.33233 0
M  V30 21250 C 2089.61 -3.291 1.49585 0
M  V30 21251 O 2089.33 -3.29189 2.89078 0
M  V30 21252 C 2090.83 -4.22357 1.34647 0
M  V30 21253 H 2088.05 -0.575656 0.344763 0
M  V30 21254 H 2090.59 -1.33793 1.5466 0
M  V30 21255 H 2088.75 -3.75202 0.964496 0
M  V30 21256 H 2089.16 -4.2082 3.13066 0
M  V30 21257 H 2090.64 -5.23171 1.76056 0
M  V30 21258 H 2091.11 -4.38226 0.292348 0
M  V30 21259 H 2091.72 -3.82103 1.86755 0
M  V30 21260 N 2090.03 -0.964615 -1.24631 0
M  V30 21261 C 2091.26 -0.641907 -1.97216 0
M  V30 21262 C 2091.68 0.781279 -1.71107 0
M  V30 21263 O 2091.04 1.52981 -0.972952 0
M  V30 21264 C 2091.09 -0.918908 -3.48695 0
M  V30 21265 O 2090.19 -0.00276058 -4.124 0
M  V30 21266 H 2089.53 -0.243001 -0.617937 0
M  V30 21267 H 2092.06 -1.29393 -1.58489 0
M  V30 21268 H 2092.07 -0.849197 -3.99065 0
M  V30 21269 H 2090.75 -1.95612 -3.67027 0
M  V30 21270 H 2089.33 -0.125529 -3.72689 0
M  V30 21271 N 2091.51 1.39445 -0.734362 0
M  V30 21272 C 2092.76 2.00824 -0.282443 0
M  V30 21273 C 2093.09 1.58137 1.12722 0
M  V30 21274 O 2092.37 0.809969 1.76833 0
M  V30 21275 C 2092.65 3.58051 -0.38359 0
M  V30 21276 C 2092.5 4.10758 -1.83298 0
M  V30 21277 C 2093.82 4.39476 0.234349 0
M  V30 21278 H 2090.94 0.729611 -0.104103 0
M  V30 21279 H 2093.58 1.65661 -0.930397 0
M  V30 21280 H 2091.73 3.88136 0.168068 0
M  V30 21281 H 2093.4 3.91395 -2.44147 0
M  V30 21282 H 2091.65 3.64342 -2.35451 0
M  V30 21283 H 2092.32 5.19897 -1.85503 0
M  V30 21284 H 2094.79 4.15431 -0.235909 0
M  V30 21285 H 2093.67 5.48738 0.133228 0
M  V30 21286 H 2093.93 4.21924 1.32032 0
M  V30 21287 N 2092.99 0.481946 1.5005 0
M  V30 21288 C 2094.22 -0.0666474 2.06793 0
M  V30 21289 C 2094.63 -1.3254 1.34457 0
M  V30 21290 O 2093.99 -1.7767 0.417087 0
M  V30 21291 C 2094.04 -0.343693 3.59862 0
M  V30 21292 O 2093.76 0.86514 4.29473 0
M  V30 21293 C 2095.26 -0.93805 4.33261 0
M  V30 21294 H 2092.48 0.0119311 0.670894 0
M  V30 21295 H 2095.03 0.673843 1.93079 0
M  V30 21296 H 2093.18 -1.03413 3.73342 0
M  V30 21297 H 2093.6 0.616339 5.20866 0
M  V30 21298 H 2095.07 -1.0816 5.413 0
M  V30 21299 H 2095.55 -1.93098 3.94474 0
M  V30 21300 H 2096.15 -0.285663 4.2434 0
M  V30 21301 N 2094.47 -1.56127 0.214985 0
M  V30 21302 C 2095.69 -2.02966 -0.426587 0
M  V30 21303 C 2096.12 -1.0939 -1.53021 0
M  V30 21304 O 2095.48 -0.0808958 -1.81119 0
M  V30 21305 C 2095.52 -3.48091 -0.941527 0
M  V30 21306 O 2094.63 -3.5765 -2.05329 0
M  V30 21307 H 2093.97 -0.656823 -0.097363 0
M  V30 21308 H 2096.5 -2.01893 0.331697 0
M  V30 21309 H 2096.51 -3.88282 -1.25304 0
M  V30 21310 H 2095.18 -4.15685 -0.133737 0
M  V30 21311 H 2093.76 -3.29344 -1.74891 0
M  V30 21312 N 2095.95 0.0584645 -1.57492 0
M  V30 21313 C 2097.19 0.75619 -1.88174 0
M  V30 21314 C 2097.52 1.76546 -0.809018 0
M  V30 21315 O 2096.8 1.93672 0.179286 0
M  V30 21316 C 2097.08 1.45223 -3.29518 0
M  V30 21317 C 2096.94 0.458472 -4.47457 0
M  V30 21318 C 2098.25 2.39381 -3.69303 0
M  V30 21319 H 2095.37 0.27344 -0.684397 0
M  V30 21320 H 2098.02 0.0191997 -1.8999 0
M  V30 21321 H 2096.17 2.08044 -3.28101 0
M  V30 21322 H 2097.84 -0.165547 -4.61003 0
M  V30 21323 H 2096.08 -0.225018 -4.33216 0
M  V30 21324 H 2096.75 0.983384 -5.4317 0
M  V30 21325 H 2099.23 1.86628 -3.719 0
M  V30 21326 H 2098.1 2.85078 -4.69065 0
M  V30 21327 H 2098.36 3.24775 -2.99956 0
M  V30 21328 N 2097.42 1.54103 0.330149 0
M  V30 21329 C 2098.83 1.633 0.904982 0
M  V30 21330 C 2099.19 0.522849 1.89105 0
M  V30 21331 O 2098.31 -0.345304 2.13627 0
M  V30 21332 C 2098.91 2.96008 1.64817 0
M  V30 21333 C 2097.46 3.07423 2.17182 0
M  V30 21334 C 2096.61 2.58829 0.995126 0
M  V30 21335 H 2099.56 1.58333 0.10791 0
M  V30 21336 H 2099.58 2.85799 2.51196 0
M  V30 21337 H 2099.1 3.76786 0.930246 0
M  V30 21338 H 2097.2 2.31306 2.9211 0
M  V30 21339 H 2097.31 4.13117 2.42635 0
M  V30 21340 H 2095.67 2.14563 1.3724 0
M  V30 21341 H 2096.46 3.42059 0.291621 0
M  V30 21342 N 2098.9 -0.59187 1.46064 0
M  V30 21343 C 2100.13 -1.37666 1.54453 0
M  V30 21344 C 2100.55 -1.87916 0.18248 0
M  V30 21345 O 2099.9 -1.63106 -0.818692 0
M  V30 21346 C 2099.95 -2.57045 2.54185 0
M  V30 21347 O 2099.67 -2.08879 3.85099 0
M  V30 21348 C 2101.18 -3.49713 2.72426 0
M  V30 21349 H 2098.4 -0.420872 0.522597 0
M  V30 21350 H 2100.94 -0.720387 1.91391 0
M  V30 21351 H 2099.09 -3.18681 2.20276 0
M  V30 21352 H 2099.51 -2.86557 4.39301 0
M  V30 21353 H 2100.98 -4.29981 3.4615 0
M  V30 21354 H 2101.46 -4.01064 1.7901 0
M  V30 21355 H 2102.07 -2.9392 3.07395 0
M  V30 21356 N 2100.38 -1.33616 -0.835729 0
M  V30 21357 C 2101.61 -1.28444 -1.6284 0
M  V30 21358 C 2102.03 0.141205 -1.87569 0
M  V30 21359 O 2101.39 1.09885 -1.44205 0
M  V30 21360 C 2101.44 -2.0683 -2.95387 0
M  V30 21361 O 2100.54 -1.42905 -3.86849 0
M  V30 21362 H 2099.88 -0.441742 -0.495742 0
M  V30 21363 H 2102.41 -1.76226 -1.0395 0
M  V30 21364 H 2102.42 -2.17712 -3.45059 0
M  V30 21365 H 2101.1 -3.1049 -2.76711 0
M  V30 21366 H 2099.67 -1.40689 -3.45342 0
M  V30 21367 N 2101.86 1.05436 -1.17136 0
M  V30 21368 C 2103.11 1.78041 -0.956331 0
M  V30 21369 C 2103.43 1.88035 0.516524 0
M  V30 21370 O 2102.7 1.39532 1.37505 0
M  V30 21371 H 2101.28 0.659483 -0.350843 0
M  V30 21372 H 2103.94 1.2732 -1.47566 0
M  V30 21373 H 2103.04 2.79808 -1.38253 0
M  V30 21374 N 2103.34 0.971211 1.24118 0
M  V30 21375 C 2104.27 0.523167 2.27564 0
M  V30 21376 C 2105.25 -0.438983 1.64338 0
M  V30 21377 O 2106.43 -0.334345 1.913 0
M  V30 21378 C 2103.56 -0.184078 3.46812 0
M  V30 21379 C 2102.52 0.694439 4.22329 0
M  V30 21380 C 2101.84 -0.144498 5.34505 0
M  V30 21381 C 2103.14 1.98076 4.83284 0
M  V30 21382 H 2104.84 1.3878 2.65293 0
M  V30 21383 H 2102.38 0.668756 1.27529 0
M  V30 21384 H 2104.34 -0.508765 4.18318 0
M  V30 21385 H 2103.06 -1.08309 3.08118 0
M  V30 21386 H 2101.72 1.00245 3.52628 0
M  V30 21387 H 2101.37 -1.04377 4.92051 0
M  V30 21388 H 2101.07 0.440127 5.85949 0
M  V30 21389 H 2102.59 -0.463776 6.08836 0
M  V30 21390 H 2104 1.72143 5.46845 0
M  V30 21391 H 2102.4 2.5124 5.44976 0
M  V30 21392 H 2103.47 2.67346 4.04542 0
M  V30 21393 N 2104.81 -1.39054 0.741747 0
M  V30 21394 C 2106.04 -2.05193 0.301789 0
M  V30 21395 C 2106.46 -1.55567 -1.05739 0
M  V30 21396 O 2105.82 -0.702382 -1.67141 0
M  V30 21397 C 2105.87 -3.59172 0.320615 0
M  V30 21398 O 2104.97 -4.06596 -0.68946 0
M  V30 21399 H 2104.32 -0.649957 0.135837 0
M  V30 21400 H 2106.85 -1.77958 1.00956 0
M  V30 21401 H 2106.86 -4.07657 0.167351 0
M  V30 21402 H 2105.53 -3.94652 1.31234 0
M  V30 21403 H 2104.11 -3.69509 -0.50178 0
M  V30 21404 N 2106.29 -0.489897 -1.49792 0
M  V30 21405 C 2107.52 0.0578875 -2.07319 0
M  V30 21406 C 2107.94 1.31067 -1.34919 0
M  V30 21407 O 2107.3 1.76775 -0.402515 0
M  V30 21408 C 2107.35 0.305835 -3.59301 0
M  V30 21409 O 2106.45 1.38274 -3.88528 0
M  V30 21410 H 2105.79 -0.021301 -0.663658 0
M  V30 21411 H 2108.32 -0.686335 -1.92745 0
M  V30 21412 H 2108.33 0.540697 -4.04401 0
M  V30 21413 H 2107.01 -0.609525 -4.11409 0
M  V30 21414 H 2105.59 1.13371 -3.55248 0
M  V30 21415 N 2107.77 1.56011 -0.223262 0
M  V30 21416 C 2108.7 2.16337 0.726193 0
M  V30 21417 C 2109.68 1.10827 1.18979 0
M  V30 21418 O 2110.87 1.39092 1.27223 0
M  V30 21419 C 2107.99 2.74503 1.98408 0
M  V30 21420 C 2107.04 3.92856 1.66031 0
M  V30 21421 S 2107.87 5.29736 0.783603 0
M  V30 21422 C 2109.03 5.91341 2.05102 0
M  V30 21423 H 2109.26 2.96533 0.213451 0
M  V30 21424 H 2106.79 1.54398 -0.00793866 0
M  V30 21425 H 2108.75 3.08655 2.70634 0
M  V30 21426 H 2107.41 1.94297 2.46794 0
M  V30 21427 H 2106.61 4.32063 2.59495 0
M  V30 21428 H 2106.21 3.5986 1.01867 0
M  V30 21429 H 2108.5 6.07419 3.00082 0
M  V30 21430 H 2109.44 6.87321 1.70283 0
M  V30 21431 H 2109.85 5.2019 2.19233 0
M  V30 21432 N 2109.25 -0.0501116 1.5752 0
M  V30 21433 C 2110.5 -0.743624 1.87922 0
M  V30 21434 C 2110.82 -1.77004 0.818202 0
M  V30 21435 O 2110.09 -1.95319 -0.150705 0
M  V30 21436 H 2108.67 -0.277634 0.69349 0
M  V30 21437 H 2111.33 -0.0210527 1.94889 0
M  V30 21438 H 2110.43 -1.24635 2.86134 0
M  V30 21439 N 2110.73 -1.54276 -0.321972 0
M  V30 21440 C 2112.14 -1.63778 -0.896309 0
M  V30 21441 C 2112.49 -0.532871 -1.88825 0
M  V30 21442 O 2111.61 0.33397 -2.13807 0
M  V30 21443 C 2112.21 -2.96878 -1.63245 0
M  V30 21444 C 2110.77 -3.0857 -2.15549 0
M  V30 21445 C 2109.91 -2.59353 -0.981385 0
M  V30 21446 H 2112.87 -1.58388 -0.0995121 0
M  V30 21447 H 2112.89 -2.87127 -2.49677 0
M  V30 21448 H 2112.4 -3.77274 -0.910251 0
M  V30 21449 H 2110.5 -2.32851 -2.9088 0
M  V30 21450 H 2110.61 -4.14398 -2.4044 0
M  V30 21451 H 2108.98 -2.15288 -1.361 0
M  V30 21452 H 2109.76 -3.42209 -0.273477 0
M  V30 21453 N 2112.2 0.584116 -1.46376 0
M  V30 21454 C 2113.11 1.72116 -1.59415 0
M  V30 21455 C 2114.13 1.67314 -0.477692 0
M  V30 21456 O 2115.31 1.87248 -0.74162 0
M  V30 21457 C 2112.37 3.08617 -1.57975 0
M  V30 21458 C 2111.43 3.24694 -2.80842 0
M  V30 21459 C 2110.67 4.54683 -2.79462 0
M  V30 21460 O 2110.89 5.38484 -1.88126 0
M  V30 21461 O 2109.82 4.73977 -3.70985 0
M  V30 21462 H 2113.65 1.64062 -2.55572 0
M  V30 21463 H 2111.23 0.750995 -1.29153 0
M  V30 21464 H 2113.12 3.899 -1.59863 0
M  V30 21465 H 2111.79 3.17111 -0.649775 0
M  V30 21466 H 2110.7 2.4291 -2.84509 0
M  V30 21467 H 2112.03 3.2109 -3.73044 0
M  V30 21468 N 2113.68 1.34058 0.828631 0
M  V30 21469 C 2114.62 1.21002 1.94657 0
M  V30 21470 C 2115.63 0.138478 1.6221 0
M  V30 21471 O 2116.82 0.389824 1.74191 0
M  V30 21472 C 2113.92 0.835704 3.28434 0
M  V30 21473 C 2113.09 2.00103 3.88944 0
M  V30 21474 C 2112.15 1.60604 5.01092 0
M  V30 21475 O 2111.18 2.32182 5.19692 0
M  V30 21476 N 2112.38 0.516907 5.78194 0
M  V30 21477 H 2115.14 2.17309 2.0639 0
M  V30 21478 H 2112.7 1.26938 1.00491 0
M  V30 21479 H 2114.7 0.553361 4.00899 0
M  V30 21480 H 2113.27 -0.0370007 3.12578 0
M  V30 21481 H 2112.49 2.44843 3.08943 0
M  V30 21482 H 2113.77 2.78052 4.26104 0
M  V30 21483 H 2113.17 -0.0782718 5.65646 0
M  V30 21484 H 2111.73 0.294274 6.51135 0
M  V30 21485 N 2115.16 -1.04814 1.17694 0
M  V30 21486 C 2116.41 -1.78147 0.969105 0
M  V30 21487 C 2116.74 -1.87634 -0.500715 0
M  V30 21488 O 2116.02 -1.37892 -1.37172 0
M  V30 21489 C 2116.3 -3.2183 1.61548 0
M  V30 21490 C 2116.15 -3.20332 3.15765 0
M  V30 21491 C 2117.47 -4.19759 1.32251 0
M  V30 21492 H 2114.59 -0.646701 0.353479 0
M  V30 21493 H 2117.23 -1.22485 1.45249 0
M  V30 21494 H 2115.38 -3.69358 1.20445 0
M  V30 21495 H 2117.05 -2.8085 3.65952 0
M  V30 21496 H 2115.3 -2.58568 3.48318 0
M  V30 21497 H 2115.97 -4.21759 3.56123 0
M  V30 21498 H 2118.44 -3.80743 1.67851 0
M  V30 21499 H 2117.32 -5.18527 1.80057 0
M  V30 21500 H 2117.58 -4.41426 0.244002 0
M  V30 21501 N 2116.64 -0.977779 -1.23601 0
M  V30 21502 C 2117.59 -0.508228 -2.2698 0
M  V30 21503 C 2118.58 0.433405 -1.63762 0
M  V30 21504 O 2119.79 0.307586 -1.77352 0
M  V30 21505 H 2116.16 -0.145916 -0.737708 0
M  V30 21506 H 2118.13 -1.39189 -2.63949 0
M  V30 21507 C 2116.88 0.176292 -3.47253 0
M  V30 21508 H 2116.21 -0.539185 -3.96147 0
M  V30 21509 H 2117.65 0.468511 -4.21404 0
M  V30 21510 C 2116.1 1.40665 -3.06129 0
M  V30 21511 O 2116.63 2.50307 -3.1418 0
M  V30 21512 N 2114.84 1.27636 -2.6107 0
M  V30 21513 H 2114.39 0.38425 -2.54718 0
M  V30 21514 H 2114.35 2.10067 -2.33921 0
M  V30 21515 N 2118.12 1.38658 -0.749111 0
M  V30 21516 C 2119.39 1.94255 -0.228976 0
M  V30 21517 C 2119.77 1.68478 1.27194 0
M  V30 21518 O 2119.12 1.02082 2.0443 0
M  V30 21519 C 2119.33 3.44183 -0.577827 0
M  V30 21520 C 2120.68 4.21216 -0.534981 0
M  V30 21521 O 2121.7 3.52445 -0.515853 0
M  V30 21522 O 2120.56 5.43806 -0.541959 0
M  V30 21523 H 2117.66 0.825688 -0.0465621 0
M  V30 21524 H 2120.2 1.48077 -0.828929 0
M  V30 21525 H 2118.98 3.56436 -1.6146 0
M  V30 21526 H 2118.6 3.97568 0.0503656 0
M  V30 21527 N 2119.6 0.497834 1.49531 0
M  V30 21528 C 2121.01 0.0492618 1.86635 0
M  V30 21529 C 2121.36 -1.36386 1.41044 0
M  V30 21530 O 2120.48 -2.01584 0.786942 0
M  V30 21531 C 2121.08 0.0826203 3.38699 0
M  V30 21532 C 2119.64 -0.310596 3.75116 0
M  V30 21533 C 2118.78 0.456535 2.73516 0
M  V30 21534 H 2121.73 0.71078 1.41893 0
M  V30 21535 H 2121.76 -0.713419 3.73752 0
M  V30 21536 H 2121.27 1.11123 3.71851 0
M  V30 21537 H 2119.37 -1.34255 3.47572 0
M  V30 21538 H 2119.48 0.0066527 4.791 0
M  V30 21539 H 2117.85 -0.0932284 2.54529 0
M  V30 21540 H 2118.63 1.48516 3.09512 0
M  V30 21541 N 2121.07 -1.5589 0.231532 0
M  V30 21542 C 2122.04 -2.19461 -0.661012 0
M  V30 21543 C 2123.04 -1.15936 -1.11424 0
M  V30 21544 O 2124.23 -1.41111 -1.02144 0
M  V30 21545 C 2121.36 -2.82592 -1.90669 0
M  V30 21546 H 2122.55 -2.9971 -0.106607 0
M  V30 21547 H 2120.1 -1.5629 -0.0180602 0
M  V30 21548 H 2120.84 -2.06239 -2.50272 0
M  V30 21549 H 2120.62 -3.58412 -1.59007 0
M  V30 21550 H 2122.11 -3.3129 -2.54238 0
M  V30 21551 N 2122.55 0.0417572 -1.57545 0
M  V30 21552 C 2123.48 1.04602 -2.0876 0
M  V30 21553 C 2124.46 1.3851 -0.987368 0
M  V30 21554 O 2125.65 1.47615 -1.26188 0
M  V30 21555 C 2122.78 2.35076 -2.55649 0
M  V30 21556 C 2121.73 2.15444 -3.69821 0
M  V30 21557 C 2121.06 3.51566 -4.02871 0
M  V30 21558 C 2122.36 1.55098 -4.9874 0
M  V30 21559 H 2124.05 0.619732 -2.92916 0
M  V30 21560 H 2121.6 0.296659 -1.40911 0
M  V30 21561 H 2123.55 3.0565 -2.90097 0
M  V30 21562 H 2122.27 2.79741 -1.6856 0
M  V30 21563 H 2120.93 1.47306 -3.35703 0
M  V30 21564 H 2120.58 3.93857 -3.12867 0
M  V30 21565 H 2120.28 3.3926 -4.79767 0
M  V30 21566 H 2121.81 4.23523 -4.39842 0
M  V30 21567 H 2123.22 2.15573 -5.31226 0
M  V30 21568 H 2121.62 1.53403 -5.80162 0
M  V30 21569 H 2122.69 0.515437 -4.82153 0
M  V30 21570 N 2124.03 1.54445 0.313786 0
M  V30 21571 C 2125.45 1.45373 0.658707 0
M  V30 21572 C 2125.65 0.634528 1.91248 0
M  V30 21573 O 2124.7 0.137176 2.52127 0
M  V30 21574 C 2126.01 2.89201 0.823608 0
M  V30 21575 C 2127.56 2.99164 0.92032 0
M  V30 21576 C 2128.04 4.44162 1.11732 0
M  V30 21577 N 2129.53 4.47817 1.18382 0
M  V30 21578 C 2130.26 5.57177 1.35431 0
M  V30 21579 N 2129.76 6.76486 1.4946 0
M  V30 21580 N 2131.55 5.44842 1.38217 0
M  V30 21581 H 2123.7 2.06182 -0.510155 0
M  V30 21582 H 2125.97 0.933263 -0.166508 0
M  V30 21583 H 2125.67 3.5169 -0.0265797 0
M  V30 21584 H 2125.55 3.35881 1.7165 0
M  V30 21585 H 2127.93 2.36797 1.761 0
M  V30 21586 H 2128.01 2.558 0.00368975 0
M  V30 21587 H 2127.66 5.0712 0.281448 0
M  V30 21588 H 2127.59 4.85145 2.04797 0
M  V30 21589 H 2130.08 3.61855 1.08945 0
M  V30 21590 H 2130.39 7.55589 1.62188 0
M  V30 21591 H 2128.74 6.79376 1.46539 0
M  V30 21592 H 2131.93 4.50582 1.2686 0
M  V30 21593 H 2132.1 6.30122 1.51161 0
M  V30 21594 N 2125.51 -0.576345 1.46683 0
M  V30 21595 C 2126.76 -1.33168 1.52022 0
M  V30 21596 C 2127.08 -1.94204 0.17606 0
M  V30 21597 O 2126.35 -1.78907 -0.798069 0
M  V30 21598 H 2124.93 -0.494459 0.559928 0
M  V30 21599 H 2127.59 -0.674503 1.82856 0
M  V30 21600 H 2126.68 -2.13511 2.27638 0
M  V30 21601 N 2126.99 -1.34495 -0.82151 0
M  V30 21602 C 2128.23 -1.26681 -1.57469 0
M  V30 21603 C 2128.55 0.162701 -1.9432 0
M  V30 21604 O 2127.82 1.09566 -1.62395 0
M  V30 21605 H 2126.4 -0.465903 -0.583903 0
M  V30 21606 H 2129.07 -1.68424 -0.980791 0
M  V30 21607 H 2128.16 -1.87251 -2.49686 0
M  V30 21608 N 2128.46 1.04188 -1.18248 0
M  V30 21609 C 2129.41 2.14282 -0.904765 0
M  V30 21610 C 2130.41 1.68865 0.134493 0
M  V30 21611 O 2131.61 1.79995 -0.013541 0
M  V30 21612 H 2127.99 0.699873 -0.275103 0
M  V30 21613 H 2129.96 2.34904 -1.84018 0
M  V30 21614 C 2128.71 3.44832 -0.445645 0
M  V30 21615 H 2128.03 3.80187 -1.23683 0
M  V30 21616 H 2129.47 4.23005 -0.29031 0
M  V30 21617 C 2127.93 3.26303 0.838325 0
M  V30 21618 O 2128.46 3.53774 1.90282 0
M  V30 21619 N 2126.67 2.79643 0.79045 0
M  V30 21620 H 2126.21 2.57488 -0.0760399 0
M  V30 21621 H 2126.17 2.67626 1.64996 0
M  V30 21622 N 2129.94 0.98432 1.23081 0
M  V30 21623 C 2130.87 0.547274 2.26996 0
M  V30 21624 C 2131.85 -0.421528 1.64794 0
M  V30 21625 O 2133.04 -0.314036 1.91644 0
M  V30 21626 C 2130.17 -0.147283 3.46988 0
M  V30 21627 C 2129.12 0.739194 4.21568 0
M  V30 21628 C 2128.45 -0.0877981 5.34628 0
M  V30 21629 C 2129.75 2.03191 4.81156 0
M  V30 21630 H 2131.44 1.41586 2.63806 0
M  V30 21631 H 2128.99 0.682245 1.26813 0
M  V30 21632 H 2130.94 -0.464368 4.18834 0
M  V30 21633 H 2129.67 -1.05035 3.09249 0
M  V30 21634 H 2128.32 1.03979 3.51545 0
M  V30 21635 H 2127.97 -0.99152 4.93131 0
M  V30 21636 H 2127.67 0.50225 5.8545 0
M  V30 21637 H 2129.2 -0.399175 6.09294 0
M  V30 21638 H 2130.61 1.77933 5.44989 0
M  V30 21639 H 2129.01 2.57006 5.4228 0
M  V30 21640 H 2130.08 2.71622 4.01684 0
M  V30 21641 N 2131.42 -1.38259 0.756453 0
M  V30 21642 C 2132.67 -2.00052 0.313891 0
M  V30 21643 C 2133 -1.60047 -1.10523 0
M  V30 21644 O 2132.25 -0.830786 -1.7719 0
M  V30 21645 C 2132.55 -3.55293 0.3875 0
M  V30 21646 C 2132.22 -4.15019 1.76268 0
M  V30 21647 C 2130.88 -4.31045 2.13902 0
M  V30 21648 C 2133.23 -4.47937 2.66462 0
M  V30 21649 C 2130.56 -4.77286 3.41197 0
M  V30 21650 C 2132.91 -4.95596 3.93151 0
M  V30 21651 C 2131.57 -5.09828 4.3085 0
M  V30 21652 H 2130.84 -0.732044 0.114861 0
M  V30 21653 H 2133.49 -1.65263 0.967494 0
M  V30 21654 H 2131.8 -3.90237 -0.349664 0
M  V30 21655 H 2133.49 -4.00991 0.0266083 0
M  V30 21656 H 2130.08 -4.02962 1.46014 0
M  V30 21657 H 2134.27 -4.35154 2.38651 0
M  V30 21658 H 2129.52 -4.8649 3.7032 0
M  V30 21659 H 2133.7 -5.20036 4.6318 0
M  V30 21660 H 2131.32 -5.45419 5.29549 0
M  V30 21661 N 2132.9 -0.505757 -1.49264 0
M  V30 21662 C 2134.31 -0.0591588 -1.86606 0
M  V30 21663 C 2134.66 1.35636 -1.41765 0
M  V30 21664 O 2133.79 2.01164 -0.797622 0
M  V30 21665 C 2134.38 -0.100581 -3.38651 0
M  V30 21666 C 2132.94 0.290698 -3.75276 0
M  V30 21667 C 2132.09 -0.471033 -2.7327 0
M  V30 21668 H 2135.04 -0.718294 -1.41514 0
M  V30 21669 H 2135.06 0.693588 -3.74125 0
M  V30 21670 H 2134.57 -1.13093 -3.71257 0
M  V30 21671 H 2132.67 1.3241 -3.48279 0
M  V30 21672 H 2132.78 -0.0320604 -4.79089 0
M  V30 21673 H 2131.15 0.0797288 -2.54575 0
M  V30 21674 H 2131.93 -1.50155 -3.0872 0
M  V30 21675 N 2134.38 1.55765 -0.239796 0
M  V30 21676 C 2135.32 2.22467 0.679046 0
M  V30 21677 C 2136.32 1.20993 1.18562 0
M  V30 21678 O 2137.52 1.39024 1.14334 0
M  V30 21679 H 2133.9 0.713528 0.237447 0
M  V30 21680 H 2135.87 2.98254 0.0932403 0
M  V30 21681 C 2134.62 2.93244 1.86825 0
M  V30 21682 H 2133.94 3.71094 1.48759 0
M  V30 21683 H 2135.38 3.43289 2.48855 0
M  V30 21684 C 2133.84 1.96721 2.735 0
M  V30 21685 O 2134.37 1.49575 3.72814 0
M  V30 21686 N 2132.58 1.63976 2.39917 0
M  V30 21687 H 2132.12 2.02511 1.59208 0
M  V30 21688 H 2132.08 0.996588 2.98187 0
M  V30 21689 N 2135.85 -0.0334016 1.57565 0
M  V30 21690 C 2136.79 -1.06286 2.03066 0
M  V30 21691 C 2137.8 -1.32726 0.942744 0
M  V30 21692 O 2138.99 -1.3029 1.22012 0
M  V30 21693 C 2136.09 -2.40547 2.38727 0
M  V30 21694 C 2135.26 -2.33524 3.69845 0
M  V30 21695 C 2134.32 -3.50199 3.92743 0
M  V30 21696 O 2133.35 -3.29889 4.63856 0
M  V30 21697 N 2134.55 -4.71916 3.38047 0
M  V30 21698 H 2137.31 -0.675062 2.91998 0
M  V30 21699 H 2134.87 -0.221423 1.60379 0
M  V30 21700 H 2136.87 -3.17313 2.51186 0
M  V30 21701 H 2135.44 -2.71187 1.55488 0
M  V30 21702 H 2134.66 -1.41885 3.6778 0
M  V30 21703 H 2135.94 -2.2597 4.55867 0
M  V30 21704 H 2135.34 -4.91318 2.80398 0
M  V30 21705 H 2133.9 -5.46062 3.55893 0
M  V30 21706 N 2137.33 -1.54609 -0.305591 0
M  V30 21707 C 2138.26 -1.88242 -1.38157 0
M  V30 21708 C 2139.24 -0.740883 -1.53117 0
M  V30 21709 O 2140.43 -0.996214 -1.66701 0
M  V30 21710 C 2137.56 -2.12567 -2.7465 0
M  V30 21711 C 2136.51 -3.28415 -2.74459 0
M  V30 21712 C 2135.84 -3.38148 -4.14198 0
M  V30 21713 C 2137.14 -4.65633 -2.36607 0
M  V30 21714 H 2138.83 -2.78359 -1.10258 0
M  V30 21715 H 2136.38 -1.33933 -0.528959 0
M  V30 21716 H 2138.33 -2.34681 -3.50004 0
M  V30 21717 H 2137.06 -1.19216 -3.04064 0
M  V30 21718 H 2135.71 -3.06217 -2.01561 0
M  V30 21719 H 2135.36 -2.42323 -4.40782 0
M  V30 21720 H 2135.06 -4.16019 -4.14973 0
M  V30 21721 H 2136.59 -3.62517 -4.91339 0
M  V30 21722 H 2138 -4.87508 -3.01677 0
M  V30 21723 H 2136.4 -5.46184 -2.48603 0
M  V30 21724 H 2137.47 -4.66662 -1.31738 0
M  V30 21725 N 2138.81 0.568558 -1.46987 0
M  V30 21726 C 2140.22 1.1507 -1.47023 0
M  V30 21727 C 2140.57 1.94977 -0.218726 0
M  V30 21728 O 2139.7 2.05531 0.677201 0
M  V30 21729 C 2140.29 2.09348 -2.66381 0
M  V30 21730 C 2138.85 2.62857 -2.69413 0
M  V30 21731 C 2138 1.39006 -2.39943 0
M  V30 21732 H 2140.95 0.355745 -1.54661 0
M  V30 21733 H 2140.97 2.93044 -2.42705 0
M  V30 21734 H 2140.48 1.51163 -3.57451 0
M  V30 21735 H 2138.58 3.24872 -1.82452 0
M  V30 21736 H 2138.7 3.04626 -3.69784 0
M  V30 21737 H 2137.06 1.69297 -1.90291 0
M  V30 21738 H 2137.84 0.826309 -3.33207 0
M  V30 21739 N 2140.29 1.34929 0.814366 0
M  V30 21740 C 2141.54 1.27514 1.56795 0
M  V30 21741 C 2141.86 -0.152393 1.94404 0
M  V30 21742 O 2141.13 -1.08703 1.62974 0
M  V30 21743 H 2139.71 0.468993 0.581424 0
M  V30 21744 H 2142.37 1.68941 0.971845 0
M  V30 21745 H 2141.47 1.88573 2.4869 0
M  V30 21746 N 2141.77 -1.0356 1.18799 0
M  V30 21747 C 2142.7 -2.11252 0.863 0
M  V30 21748 C 2143.68 -1.61632 -0.177164 0
M  V30 21749 O 2144.86 -1.8842 -0.0549849 0
M  V30 21750 C 2141.99 -3.37453 0.290336 0
M  V30 21751 C 2141.03 -4.05932 1.30849 0
M  V30 21752 S 2141.87 -4.52327 2.86637 0
M  V30 21753 C 2143.02 -5.81755 2.30895 0
M  V30 21754 H 2143.26 -2.38494 1.77505 0
M  V30 21755 H 2140.79 -1.16401 1.0144 0
M  V30 21756 H 2142.75 -4.10486 -0.0335533 0
M  V30 21757 H 2141.41 -3.08318 -0.59991 0
M  V30 21758 H 2140.6 -4.96664 0.856782 0
M  V30 21759 H 2140.2 -3.39039 1.57888 0
M  V30 21760 H 2142.5 -6.55962 1.69471 0
M  V30 21761 H 2143.44 -6.31696 3.19947 0
M  V30 21762 H 2143.85 -5.37103 1.73724 0
M  V30 21763 N 2143.25 -0.990834 -1.22557 0
M  V30 21764 C 2144.52 -0.581554 -1.86755 0
M  V30 21765 C 2144.9 0.941178 -1.88958 0
M  V30 21766 O 2144.25 1.82226 -1.37862 0
M  V30 21767 C 2144.46 -1.19961 -3.27735 0
M  V30 21768 C 2145.81 -1.29885 -4.04246 0
M  V30 21769 O 2146.83 -1.15385 -3.36994 0
M  V30 21770 O 2145.69 -1.53066 -5.24626 0
M  V30 21771 H 2142.79 -0.197289 -0.803123 0
M  V30 21772 H 2145.33 -1.08658 -1.30351 0
M  V30 21773 H 2144.1 -2.24125 -3.20755 0
M  V30 21774 H 2143.73 -0.680045 -3.91741 0
M  V30 21775 N 2144.72 1.37856 -0.763775 0
M  V30 21776 C 2145.66 2.28018 -0.0911161 0
M  V30 21777 C 2146.63 1.4591 0.717575 0
M  V30 21778 O 2147.82 1.75258 0.694038 0
M  V30 21779 C 2144.95 3.27136 0.877477 0
M  V30 21780 C 2143.99 4.26223 0.153768 0
M  V30 21781 S 2144.82 5.22948 -1.15262 0
M  V30 21782 C 2145.98 6.2562 -0.187359 0
M  V30 21783 H 2146.21 2.84721 -0.855658 0
M  V30 21784 H 2143.75 1.44011 -0.556806 0
M  V30 21785 H 2145.7 3.84752 1.43094 0
M  V30 21786 H 2144.37 2.69396 1.61507 0
M  V30 21787 H 2143.56 4.9612 0.887733 0
M  V30 21788 H 2143.16 3.72555 -0.328467 0
M  V30 21789 H 2145.45 6.74441 0.64307 0
M  V30 21790 H 2146.4 7.02928 -0.854282 0
M  V30 21791 H 2146.8 5.64153 0.19788 0
M  V30 21792 N 2146.2 0.513665 1.48994 0
M  V30 21793 C 2147.45 -0.0282469 2.0168 0
M  V30 21794 C 2147.76 -1.36865 1.3974 0
M  V30 21795 O 2148.97 -1.99799 1.83828 0
M  V30 21796 C 2147.43 -0.100776 3.59759 0
M  V30 21797 C 2147.03 1.23375 4.30677 0
M  V30 21798 C 2148.78 -0.592381 4.20346 0
M  V30 21799 C 2146.68 1.12269 5.80646 0
M  V30 21800 H 2145.61 -0.0143288 0.753864 0
M  V30 21801 H 2148.27 0.654994 1.71412 0
M  V30 21802 H 2146.65 -0.848743 3.86798 0
M  V30 21803 H 2147.82 1.996 4.15327 0
M  V30 21804 H 2146.14 1.65979 3.8189 0
M  V30 21805 H 2148.73 -0.69318 5.30188 0
M  V30 21806 H 2149.08 -1.59429 3.84562 0
M  V30 21807 H 2149.61 0.0994202 3.97676 0
M  V30 21808 H 2146.35 2.09925 6.20976 0
M  V30 21809 H 2145.87 0.401536 5.98454 0
M  V30 21810 H 2147.55 0.806614 6.41952 0
M  V30 21811 N 2147.68 -1.55636 0.248053 0
M  V30 21812 C 2148.63 -2.21428 -0.651012 0
M  V30 21813 C 2149.6 -1.17855 -1.17045 0
M  V30 21814 O 2150.78 -1.46306 -1.22471 0
M  V30 21815 C 2147.92 -2.91846 -1.84174 0
M  V30 21816 C 2147.03 -4.10077 -1.35872 0
M  V30 21817 C 2146.17 -4.68207 -2.50909 0
M  V30 21818 C 2145.21 -5.78685 -1.99475 0
M  V30 21819 N 2144.35 -6.30993 -3.07883 0
M  V30 21820 H 2149.19 -2.97884 -0.0832758 0
M  V30 21821 H 2146.72 -1.47071 -0.0293424 0
M  V30 21822 H 2148.68 -3.30873 -2.54124 0
M  V30 21823 H 2147.31 -2.17862 -2.38193 0
M  V30 21824 H 2146.36 -3.76356 -0.553219 0
M  V30 21825 H 2147.67 -4.89829 -0.941776 0
M  V30 21826 H 2146.83 -5.09814 -3.28899 0
M  V30 21827 H 2145.57 -3.87674 -2.95905 0
M  V30 21828 H 2144.57 -5.36555 -1.19955 0
M  V30 21829 H 2145.8 -6.6107 -1.55447 0
M  V30 21830 H 2143.74 -5.53365 -3.52312 0
M  V30 21831 H 2143.66 -7.05941 -2.70523 0
M  V30 21832 H 2144.93 -6.77258 -3.8593 0
M  V30 21833 N 2149.16 0.0250451 -1.5758 0
M  V30 21834 C 2150.09 1.05207 -2.03627 0
M  V30 21835 C 2151.1 1.32224 -0.949769 0
M  V30 21836 O 2152.29 1.29641 -1.22701 0
M  V30 21837 C 2149.39 2.39277 -2.39999 0
M  V30 21838 C 2148.56 2.31559 -3.71078 0
M  V30 21839 C 2147.62 3.48111 -3.94595 0
M  V30 21840 O 2146.65 3.27424 -4.65599 0
M  V30 21841 N 2147.85 4.70117 -3.40545 0
M  V30 21842 H 2150.62 0.659567 -2.92352 0
M  V30 21843 H 2148.18 0.212915 -1.60494 0
M  V30 21844 H 2150.17 3.15976 -2.52866 0
M  V30 21845 H 2148.74 2.70358 -1.56924 0
M  V30 21846 H 2147.96 1.39933 -3.68527 0
M  V30 21847 H 2149.25 2.23549 -4.57059 0
M  V30 21848 H 2148.65 4.89824 -2.83 0
M  V30 21849 H 2147.2 5.44167 -3.58784 0
M  V30 21850 N 2150.64 1.54769 0.297388 0
M  V30 21851 C 2151.55 1.89032 1.38939 0
M  V30 21852 C 2152.56 0.784856 1.55293 0
M  V30 21853 O 2153.74 1.08166 1.69888 0
M  V30 21854 C 2150.8 2.13378 2.7326 0
M  V30 21855 C 2149.86 3.37071 2.6586 0
M  V30 21856 C 2149.1 3.60246 3.93775 0
M  V30 21857 O 2149.32 2.86366 4.93306 0
M  V30 21858 O 2148.25 4.53765 3.9545 0
M  V30 21859 H 2152.08 2.81941 1.12884 0
M  V30 21860 H 2149.66 1.41004 0.493771 0
M  V30 21861 H 2151.55 2.30571 3.52725 0
M  V30 21862 H 2150.22 1.23654 2.99151 0
M  V30 21863 H 2149.13 3.25238 1.84855 0
M  V30 21864 H 2150.46 4.26936 2.44921 0
M  V30 21865 N 2152.11 -0.560755 1.47286 0
M  V30 21866 C 2153.36 -1.31548 1.53426 0
M  V30 21867 C 2153.68 -1.94006 0.196648 0
M  V30 21868 O 2152.95 -1.79743 -0.779049 0
M  V30 21869 H 2151.53 -0.488493 0.565141 0
M  V30 21870 H 2154.19 -0.655071 1.83562 0
M  V30 21871 H 2153.29 -2.11085 2.2989 0
M  V30 21872 N 2153.59 -1.35359 -0.807199 0
M  V30 21873 C 2154.87 -1.19163 -1.55111 0
M  V30 21874 C 2155.25 0.22949 -2.09849 0
M  V30 21875 O 2154.6 1.23292 -1.92383 0
M  V30 21876 C 2154.81 -2.25917 -2.66012 0
M  V30 21877 C 2156.15 -2.61693 -3.34368 0
M  V30 21878 O 2157.18 -2.24826 -2.76282 0
M  V30 21879 O 2156.04 -3.25083 -4.39299 0
M  V30 21880 H 2153.13 -0.462906 -0.685308 0
M  V30 21881 H 2155.68 -1.47039 -0.847213 0
M  V30 21882 H 2154.45 -3.21238 -2.23432 0
M  V30 21883 H 2154.07 -1.99307 -3.44038 0
M  V30 21884 N 2155.07 1.02928 -1.19346 0
M  V30 21885 C 2156.3 1.79948 -1.02109 0
M  V30 21886 C 2156.71 1.83834 0.430184 0
M  V30 21887 O 2156.07 1.28209 1.2988 0
M  V30 21888 C 2156.12 3.25018 -1.58258 0
M  V30 21889 O 2155.84 3.21409 -2.97705 0
M  V30 21890 C 2157.34 4.18638 -1.45798 0
M  V30 21891 H 2154.56 0.566313 -0.359904 0
M  V30 21892 H 2157.11 1.29645 -1.58153 0
M  V30 21893 H 2155.26 3.72512 -1.06364 0
M  V30 21894 H 2155.68 4.12372 -3.24113 0
M  V30 21895 H 2157.15 5.1832 -1.89865 0
M  V30 21896 H 2157.63 4.37297 -0.408433 0
M  V30 21897 H 2158.23 3.77017 -1.96821 0
M  V30 21898 N 2156.55 0.997319 1.2203 0
M  V30 21899 C 2157.78 0.694247 1.94905 0
M  V30 21900 C 2158.19 -0.741849 1.73615 0
M  V30 21901 O 2157.55 -1.50108 1.03796 0
M  V30 21902 C 2157.6 0.996196 3.47503 0
M  V30 21903 O 2157.32 2.37587 3.68082 0
M  V30 21904 C 2158.82 0.711446 4.37554 0
M  V30 21905 H 2156.04 0.256462 0.620055 0
M  V30 21906 H 2158.58 1.33329 1.5506 0
M  V30 21907 H 2156.74 0.402886 3.85299 0
M  V30 21908 H 2157.15 2.47854 4.62243 0
M  V30 21909 H 2158.63 0.972956 5.43358 0
M  V30 21910 H 2159.1 -0.35455 4.37767 0
M  V30 21911 H 2159.71 1.28601 4.05391 0
M  V30 21912 N 2158.03 -1.37449 0.771075 0
M  V30 21913 C 2159.44 -1.53106 0.450629 0
M  V30 21914 C 2159.64 -1.72957 -1.03384 0
M  V30 21915 O 2158.7 -1.75055 -1.81967 0
M  V30 21916 C 2160.01 -2.72792 1.26511 0
M  V30 21917 C 2161.56 -2.86653 1.25695 0
M  V30 21918 C 2162.03 -4.09321 2.05477 0
M  V30 21919 N 2163.53 -4.16432 2.02827 0
M  V30 21920 C 2164.26 -5.10381 2.61341 0
M  V30 21921 N 2163.76 -6.09892 3.2864 0
M  V30 21922 N 2165.55 -5.02859 2.51175 0
M  V30 21923 H 2157.7 -1.22815 1.73292 0
M  V30 21924 H 2159.96 -0.597977 0.735614 0
M  V30 21925 H 2159.67 -2.64586 2.31705 0
M  V30 21926 H 2159.54 -3.66457 0.893837 0
M  V30 21927 H 2161.93 -2.9433 0.213001 0
M  V30 21928 H 2162.01 -1.93949 1.66786 0
M  V30 21929 H 2161.66 -4.02404 3.09892 0
M  V30 21930 H 2161.59 -5.01137 1.61768 0
M  V30 21931 H 2164.08 -3.45173 1.53831 0
M  V30 21932 H 2164.39 -6.78106 3.70664 0
M  V30 21933 H 2162.73 -6.10172 3.32738 0
M  V30 21934 H 2165.93 -4.24063 1.98213 0
M  V30 21935 H 2166.1 -5.75893 2.97071 0
M  V30 21936 N 2159.5 -0.52156 -1.4872 0
M  V30 21937 C 2160.45 0.2458 -2.29487 0
M  V30 21938 C 2161.42 0.941571 -1.36834 0
M  V30 21939 O 2162.61 0.944239 -1.65797 0
M  V30 21940 C 2159.75 1.2919 -3.20006 0
M  V30 21941 C 2158.86 0.605827 -4.27731 0
M  V30 21942 C 2157.99 1.63413 -5.0544 0
M  V30 21943 C 2157.03 0.931058 -6.04977 0
M  V30 21944 N 2156.17 1.90451 -6.75776 0
M  V30 21945 H 2161.01 -0.449151 -2.94596 0
M  V30 21946 H 2158.55 -0.233338 -1.45238 0
M  V30 21947 H 2160.51 1.91062 -3.70879 0
M  V30 21948 H 2159.14 1.95534 -2.56839 0
M  V30 21949 H 2158.19 -0.126644 -3.80189 0
M  V30 21950 H 2159.5 0.0533786 -4.98771 0
M  V30 21951 H 2158.65 2.32736 -5.60285 0
M  V30 21952 H 2157.39 2.22047 -4.3422 0
M  V30 21953 H 2156.4 0.223716 -5.49345 0
M  V30 21954 H 2157.62 0.350949 -6.78193 0
M  V30 21955 H 2155.57 2.48008 -6.07312 0
M  V30 21956 H 2155.49 1.40328 -7.42862 0
M  V30 21957 H 2156.75 2.58999 -7.35214 0
M  V30 21958 N 2160.98 1.55502 -0.256304 0
M  V30 21959 C 2162.21 2.03275 0.369154 0
M  V30 21960 C 2162.62 1.13467 1.514 0
M  V30 21961 O 2161.96 0.143417 1.83139 0
M  V30 21962 C 2162.03 3.47265 0.929919 0
M  V30 21963 C 2161.69 4.56923 -0.0838763 0
M  V30 21964 C 2162.69 5.12108 -0.896764 0
M  V30 21965 C 2160.37 5.0185 -0.212684 0
M  V30 21966 C 2162.37 6.1072 -1.82483 0
M  V30 21967 C 2160.05 6.00292 -1.14424 0
M  V30 21968 C 2161.05 6.54606 -1.94883 0
M  V30 21969 O 2160.74 7.51127 -2.86467 0
M  V30 21970 H 2160.47 0.669882 0.0907454 0
M  V30 21971 H 2163.02 2.01844 -0.380561 0
M  V30 21972 H 2161.25 3.45875 1.72937 0
M  V30 21973 H 2162.94 3.78484 1.46645 0
M  V30 21974 H 2163.71 4.78224 -0.807887 0
M  V30 21975 H 2159.59 4.59231 0.403528 0
M  V30 21976 H 2163.13 6.5304 -2.45325 0
M  V30 21977 H 2159.03 6.33595 -1.23401 0
M  V30 21978 H 2159.8 7.68777 -2.80935 0
M  V30 21979 N 2162.46 -0.0166879 1.57591 0
M  V30 21980 C 2163.7 -0.709687 1.91684 0
M  V30 21981 C 2164.06 -1.71854 0.856176 0
M  V30 21982 O 2165.27 -2.46069 1.08182 0
M  V30 21983 C 2163.54 -1.35082 3.30889 0
M  V30 21984 S 2165.1 -2.07126 3.86839 0
M  V30 21985 H 2161.91 -0.234822 0.671103 0
M  V30 21986 H 2164.52 0.0359916 1.95467 0
M  V30 21987 H 2163.22 -0.603509 4.05938 0
M  V30 21988 H 2162.75 -2.13479 3.3044 0
M  V30 21989 H 2164.77 -3.34431 3.66566 0
M  V30 21990 O 2163.98 -1.60713 -0.159291 0
M  V30 21991 H 2164.67 -1.76644 -0.794768 0
M  V30 END ATOM
M  V30 BEGIN BOND
M  V30 END BOND
M  V30 END CTAB
M  END
$$$$
