drugbank_target|Q9NP56 cAMP-specific 3',5'-cyclic phosphodiesterase 7B (DB00201; DB09283)
 OpenBabel12092121003D

  0  0  0     0  0            999 V3000
M  V30 BEGIN CTAB
M  V30 COUNTS 7211 7297 0 0 0
M  V30 BEGIN ATOM
M  V30 1 H -0.908 1.98254 -0.117106 0
M  V30 2 N 0 1.576 0 0
M  V30 3 C 0.933 2.03868 1.02534 0
M  V30 4 C 1.911 0.928543 1.3348 0
M  V30 5 O 3.095 1.19667 1.45644 0
M  V30 6 C 0.222 2.43627 2.35294 0
M  V30 7 C -0.732 3.65373 2.2001 0
M  V30 8 S 0.101 5.13292 1.52614 0
M  V30 9 C 1.257 5.56322 2.86805 0
M  V30 10 H 1.49 2.90518 0.631377 0
M  V30 11 H -0.977 1.52953 0.210867 0
M  V30 12 H 0.981 2.67203 3.11629 0
M  V30 13 H -0.358 1.57376 2.7183 0
M  V30 14 H -1.165 3.90944 3.18086 0
M  V30 15 H -1.563 3.418 1.51819 0
M  V30 16 H 0.729 5.58782 3.83104 0
M  V30 17 H 1.672 6.56266 2.65933 0
M  V30 18 H 2.08 4.83886 2.90714 0
M  V30 19 N 1.4781 -0.272755 1.55222 0
M  V30 20 C 2.7031 -1.02683 1.80197 0
M  V30 21 C 3.1281 -1.79142 0.573551 0
M  V30 22 O 2.4861 -1.74917 -0.476849 0
M  V30 23 C 2.5341 -1.9609 3.02624 0
M  V30 24 O 1.6381 -3.04863 2.77727 0
M  V30 25 H 0.9791 -0.293557 0.595584 0
M  V30 26 H 3.5091 -0.30159 2.02365 0
M  V30 27 H 3.5191 -2.38039 3.31363 0
M  V30 28 H 2.1941 -1.39851 3.91682 0
M  V30 29 H 0.7711 -2.67228 2.60084 0
M  V30 30 N 2.9562 -1.48159 -0.537278 0
M  V30 31 C 4.1962 -1.57397 -1.30405 0
M  V30 32 C 4.5602 -0.239202 -1.90504 0
M  V30 33 O 5.7612 -0.206528 -2.68005 0
M  V30 34 C 4.0322 -2.6754 -2.36974 0
M  V30 35 S 5.5912 -2.96496 -3.23475 0
M  V30 36 H 2.4092 -0.555577 -0.443684 0
M  V30 37 H 5.0112 -1.85644 -0.612912 0
M  V30 38 H 3.7152 -3.63092 -1.91291 0
M  V30 39 H 3.2462 -2.41172 -3.10805 0
M  V30 40 H 5.2612 -2.35234 -4.36897 0
M  V30 41 N 4.4343 0.785586 -1.36625 0
M  V30 42 C 5.3643 1.91259 -1.33949 0
M  V30 43 C 6.3453 1.68795 -0.210325 0
M  V30 44 O 7.5303 1.89854 -0.408561 0
M  V30 45 C 4.6603 3.28339 -1.13186 0
M  V30 46 C 3.6143 3.65335 -2.22967 0
M  V30 47 C 2.9403 5.00806 -1.87342 0
M  V30 48 C 4.2403 3.7352 -3.65075 0
M  V30 49 H 5.9343 1.93755 -2.28253 0
M  V30 50 H 3.4803 0.930788 -1.09874 0
M  V30 51 H 5.4333 4.06804 -1.09948 0
M  V30 52 H 4.1573 3.2624 -0.153332 0
M  V30 53 H 2.8163 2.89169 -2.25337 0
M  V30 54 H 2.4643 4.95233 -0.880545 0
M  V30 55 H 2.1643 5.26529 -2.60846 0
M  V30 56 H 3.6883 5.81687 -1.85667 0
M  V30 57 H 5.1023 4.42168 -3.64911 0
M  V30 58 H 3.4993 4.10731 -4.37516 0
M  V30 59 H 4.5693 2.74527 -3.99703 0
M  V30 60 N 5.9124 1.20967 1.01018 0
M  V30 61 C 6.8454 0.907578 2.09376 0
M  V30 62 C 7.8234 -0.142868 1.61971 0
M  V30 63 O 9.0074 -0.0150391 1.88494 0
M  V30 64 C 6.1344 0.361791 3.36762 0
M  V30 65 C 5.1804 1.39423 4.03068 0
M  V30 66 S 6.0134 2.96159 4.4615 0
M  V30 67 C 7.1694 2.43173 5.7673 0
M  V30 68 H 7.4024 1.82519 2.34678 0
M  V30 69 H 4.9354 1.03884 1.14225 0
M  V30 70 H 6.8934 0.0534523 4.10465 0
M  V30 71 H 5.5544 -0.53443 3.0952 0
M  V30 72 H 4.7474 0.961853 4.94737 0
M  V30 73 H 4.3494 1.65038 3.35617 0
M  V30 74 H 6.6414 1.83335 6.52223 0
M  V30 75 H 7.5844 3.33264 6.24773 0
M  V30 76 H 7.9924 1.85069 5.33301 0
M  V30 77 N 7.3905 -1.2043 1.01659 0
M  V30 78 C 8.6365 -1.90079 0.706963 0
M  V30 79 C 8.9695 -1.78648 -0.761474 0
M  V30 80 O 8.2445 -1.17069 -1.55323 0
M  V30 81 C 8.5275 -3.41469 1.14327 0
M  V30 82 C 8.3805 -3.61833 2.67201 0
M  V30 83 C 9.6995 -4.34261 0.714529 0
M  V30 84 H 6.8185 -0.690254 0.2583 0
M  V30 85 H 9.4605 -1.41826 1.26433 0
M  V30 86 H 7.6105 -3.82696 0.669056 0
M  V30 87 H 9.2825 -3.2986 3.22475 0
M  V30 88 H 7.5255 -3.05304 3.08175 0
M  V30 89 H 8.1965 -4.67955 2.92783 0
M  V30 90 H 10.6725 -4.00682 1.12221 0
M  V30 91 H 9.5485 -5.38806 1.04784 0
M  V30 92 H 9.8095 -4.40431 -0.383799 0
M  V30 93 N 8.8686 -0.792821 -1.36206 0
M  V30 94 C 9.7786 -0.194808 -2.3379 0
M  V30 95 C 10.7946 0.654869 -1.61206 0
M  V30 96 O 11.9706 0.569856 -1.9317 0
M  V30 97 C 9.0356 0.657721 -3.40404 0
M  V30 98 C 8.0966 -0.210849 -4.28782 0
M  V30 99 C 7.3296 0.601086 -5.30304 0
M  V30 100 O 7.5526 1.83682 -5.40016 0
M  V30 101 O 6.4866 -0.000808277 -6.019 0
M  V30 102 H 10.3126 -1.00172 -2.86704 0
M  V30 103 H 7.8976 -0.554341 -1.38735 0
M  V30 104 H 9.7796 1.14375 -4.05581 0
M  V30 105 H 8.4546 1.44247 -2.89784 0
M  V30 106 H 7.3616 -0.743714 -3.66633 0
M  V30 107 H 8.6946 -0.959195 -4.82763 0
M  V30 108 N 10.3467 1.47872 -0.545128 0
M  V30 109 C 11.7627 1.5829 -0.204032 0
M  V30 110 C 11.9627 1.54529 1.29317 0
M  V30 111 O 11.0187 1.44232 2.07252 0
M  V30 112 C 12.3317 2.89304 -0.819987 0
M  V30 113 C 13.8797 3.02864 -0.790105 0
M  V30 114 C 14.3547 4.3656 -1.38491 0
M  V30 115 N 15.8457 4.43165 -1.34755 0
M  V30 116 C 16.5807 5.45153 -1.77753 0
M  V30 117 N 16.0767 6.54016 -2.2855 0
M  V30 118 N 17.8697 5.36125 -1.68897 0
M  V30 119 H 10.0207 1.4856 -1.51802 0
M  V30 120 H 12.2837 0.706305 -0.632327 0
M  V30 121 H 11.9897 2.97757 -1.87173 0
M  V30 122 H 11.8637 3.75957 -0.305915 0
M  V30 123 H 14.2507 2.94014 0.252913 0
M  V30 124 H 14.3317 2.17782 -1.34181 0
M  V30 125 H 13.9757 4.46164 -2.42693 0
M  V30 126 H 13.9057 5.20353 -0.808754 0
M  V30 127 H 16.3967 3.65083 -0.975855 0
M  V30 128 H 16.7097 7.27994 -2.59314 0
M  V30 129 H 15.0547 6.54938 -2.32553 0
M  V30 130 H 18.2457 4.49975 -1.28998 0
M  V30 131 H 18.4187 6.15472 -2.02726 0
M  V30 132 N 11.8248 0.280983 1.55075 0
M  V30 133 C 13.0648 -0.335234 2.01632 0
M  V30 134 C 13.4288 -1.5261 1.16508 0
M  V30 135 O 14.6298 -2.21235 1.52672 0
M  V30 136 C 12.9008 -0.702172 3.50434 0
M  V30 137 S 14.4598 -1.30409 4.18974 0
M  V30 138 H 11.2778 -0.103967 0.703358 0
M  V30 139 H 13.8798 0.404187 1.91276 0
M  V30 140 H 12.5838 0.17333 4.10034 0
M  V30 141 H 12.1148 -1.4729 3.64786 0
M  V30 142 H 14.1298 -2.59253 4.23087 0
M  V30 143 N 13.3029 -1.57598 0.00835791 0
M  V30 144 C 14.5509 -1.90551 -0.6734 0
M  V30 145 C 14.8719 -0.883301 -1.73847 0
M  V30 146 O 14.1419 0.0781442 -1.95744 0
M  V30 147 H 12.7219 -0.703312 -0.251717 0
M  V30 148 H 15.3839 -1.94833 0.0512592 0
M  V30 149 H 14.4799 -2.9056 -1.13935 0
M  V30 150 N 14.781 0.264519 -1.55364 0
M  V30 151 C 15.691 1.34902 -1.91934 0
M  V30 152 C 16.707 1.53595 -0.817593 0
M  V30 153 O 17.883 1.67558 -1.11742 0
M  V30 154 C 14.948 2.68676 -2.19121 0
M  V30 155 C 14.009 2.58657 -3.4263 0
M  V30 156 C 13.242 3.86051 -3.68511 0
M  V30 157 O 13.465 4.87126 -2.96757 0
M  V30 158 O 12.399 3.85744 -4.62045 0
M  V30 159 H 16.225 1.06883 -2.8427 0
M  V30 160 H 13.81 0.463775 -1.42019 0
M  V30 161 H 15.692 3.47759 -2.37995 0
M  V30 162 H 14.367 2.96463 -1.29966 0
M  V30 163 H 13.274 1.7792 -3.29082 0
M  V30 164 H 14.607 2.35818 -4.32031 0
M  V30 165 N 16.2591 1.48442 0.529413 0
M  V30 166 C 17.5081 1.55742 1.28169 0
M  V30 167 C 17.8211 0.236511 1.94165 0
M  V30 168 O 19.0271 0.187761 2.7085 0
M  V30 169 C 17.4831 2.74667 2.32564 0
M  V30 170 C 17.0911 4.13402 1.72636 0
M  V30 171 C 18.8351 2.9128 3.08798 0
M  V30 172 C 16.7421 5.23587 2.74975 0
M  V30 173 H 15.6721 0.579796 0.48203 0
M  V30 174 H 18.3231 1.74776 0.559056 0
M  V30 175 H 16.7051 2.49067 3.07866 0
M  V30 176 H 17.8791 4.49022 1.03519 0
M  V30 177 H 16.1941 4.0191 1.08892 0
M  V30 178 H 18.7911 3.70767 3.85274 0
M  V30 179 H 19.1341 2.00757 3.64695 0
M  V30 180 H 19.6671 3.16782 2.40611 0
M  V30 181 H 16.4061 6.16076 2.23897 0
M  V30 182 H 15.9261 4.92454 3.42417 0
M  V30 183 H 17.6051 5.51724 3.37949 0
M  V30 184 N 17.7372 -0.778329 1.37039 0
M  V30 185 C 18.6672 -1.90546 1.34962 0
M  V30 186 C 19.6482 -1.68681 0.219274 0
M  V30 187 O 20.8332 -1.89634 0.418624 0
M  V30 188 C 17.9632 -3.27734 1.14925 0
M  V30 189 C 16.9172 -3.64147 2.24902 0
M  V30 190 C 16.2432 -4.99806 1.89996 0
M  V30 191 C 17.5432 -3.71579 3.67051 0
M  V30 192 H 19.2372 -1.92541 2.29277 0
M  V30 193 H 16.7832 -0.924948 1.10366 0
M  V30 194 H 18.7362 -4.06215 1.12104 0
M  V30 195 H 17.4602 -3.26154 0.170631 0
M  V30 196 H 16.1192 -2.8797 2.26868 0
M  V30 197 H 15.7672 -4.94759 0.906796 0
M  V30 198 H 15.4672 -5.25139 2.63634 0
M  V30 199 H 16.9912 -5.80694 1.88749 0
M  V30 200 H 18.4052 -4.40227 3.67251 0
M  V30 201 H 16.8022 -4.08405 4.39688 0
M  V30 202 H 17.8722 -2.72404 4.01154 0
M  V30 203 N 19.2153 -1.21501 -1.00376 0
M  V30 204 C 20.4623 -1.03299 -1.74171 0
M  V30 205 C 20.7903 0.433326 -1.89612 0
M  V30 206 O 20.0453 1.33779 -1.42834 0
M  V30 207 C 20.3443 -1.67673 -3.15627 0
M  V30 208 C 20.0103 -3.17533 -3.2013 0
M  V30 209 C 18.6723 -3.58427 -3.21067 0
M  V30 210 C 21.0243 -4.13504 -3.17275 0
M  V30 211 C 18.3523 -4.93794 -3.16835 0
M  V30 212 C 20.7043 -5.48834 -3.14585 0
M  V30 213 C 19.3683 -5.89123 -3.13831 0
M  V30 214 H 18.6383 -0.377999 -0.637336 0
M  V30 215 H 21.2853 -1.51111 -1.17634 0
M  V30 216 H 19.5903 -1.12158 -3.75404 0
M  V30 217 H 21.2873 -1.51091 -3.71446 0
M  V30 218 H 17.8773 -2.84965 -3.20145 0
M  V30 219 H 22.0613 -3.82936 -3.15711 0
M  V30 220 H 17.3173 -5.24255 -3.1459 0
M  V30 221 H 21.4913 -6.22934 -3.1133 0
M  V30 222 H 19.1183 -6.93984 -3.10307 0
M  V30 223 N 20.6934 1.19889 -1.02296 0
M  V30 224 C 21.6034 2.26571 -0.608508 0
M  V30 225 C 22.6194 1.70299 0.356964 0
M  V30 226 O 23.7954 2.00235 0.216326 0
M  V30 227 C 20.8604 3.46677 0.0402814 0
M  V30 228 C 19.9214 4.18153 -0.97194 0
M  V30 229 C 19.1544 5.32525 -0.354016 0
M  V30 230 O 19.3774 5.64112 0.844604 0
M  V30 231 O 18.3114 5.92242 -1.07391 0
M  V30 232 H 22.1374 2.64251 -1.49684 0
M  V30 233 H 19.7224 1.26629 -0.792809 0
M  V30 234 H 21.6044 4.19475 0.402324 0
M  V30 235 H 20.2794 3.10858 0.902707 0
M  V30 236 H 19.1864 3.47499 -1.38546 0
M  V30 237 H 20.5194 4.57927 -1.80454 0
M  V30 238 N 22.1715 0.800033 1.35784 0
M  V30 239 C 23.1195 0.193851 2.31791 0
M  V30 240 C 24.1135 -0.652744 1.56319 0
M  V30 241 O 25.3195 -0.546641 1.71499 0
M  V30 242 H 21.6945 0.04392 0.750716 0
M  V30 243 H 23.6655 1.01883 2.80468 0
M  V30 244 C 22.4145 -0.648338 3.41602 0
M  V30 245 H 21.7375 -0.00624665 3.998 0
M  V30 246 H 23.1775 -1.03898 4.11073 0
M  V30 247 C 21.6365 -1.8111 2.84079 0
M  V30 248 O 22.1665 -2.90825 2.77099 0
M  V30 249 N 20.3725 -1.62056 2.41218 0
M  V30 250 H 19.9195 -0.728123 2.47095 0
M  V30 251 H 19.8775 -2.40013 2.03079 0
M  V30 252 N 23.6496 -1.47581 0.552962 0
M  V30 253 C 25.0606 -1.86324 0.118463 0
M  V30 254 C 25.4116 -1.46006 -1.3106 0
M  V30 255 O 24.5366 -0.861182 -1.98526 0
M  V30 256 C 25.1316 -3.3816 0.20821 0
M  V30 257 C 23.6906 -3.7601 -0.171226 0
M  V30 258 C 22.8376 -2.71634 0.557686 0
M  V30 259 H 25.7886 -1.39159 0.762928 0
M  V30 260 H 25.8096 -3.76141 -0.574278 0
M  V30 261 H 25.3216 -3.67473 1.24841 0
M  V30 262 H 23.4226 -3.52313 -1.21269 0
M  V30 263 H 23.5356 -4.78745 0.184379 0
M  V30 264 H 21.8996 -2.547 0.00125792 0
M  V30 265 H 22.6826 -3.0379 1.59896 0
M  V30 266 N 25.1277 -0.289203 -1.54924 0
M  V30 267 C 26.4047 0.376032 -1.91951 0
M  V30 268 C 26.7847 1.72622 -1.21511 0
M  V30 269 O 26.1327 2.25853 -0.346767 0
M  V30 270 C 26.3427 0.502378 -3.45365 0
M  V30 271 C 27.6907 0.778741 -4.17398 0
M  V30 272 O 28.7147 0.586647 -3.51336 0
M  V30 273 O 27.5737 1.14698 -5.34328 0
M  V30 274 H 24.6677 0.208167 -0.800372 0
M  V30 275 H 27.2137 -0.336394 -1.66332 0
M  V30 276 H 25.9857 -0.447255 -3.88736 0
M  V30 277 H 25.6087 1.26373 -3.76982 0
M  V30 278 N 26.6058 1.57591 -0.0167156 0
M  V30 279 C 27.5378 2.06343 0.997753 0
M  V30 280 C 28.5508 0.984469 1.29661 0
M  V30 281 O 29.7398 1.26093 1.26344 0
M  V30 282 C 26.8398 2.46255 2.32834 0
M  V30 283 C 26.0128 3.77083 2.21646 0
M  V30 284 C 25.0718 4.0368 3.37534 0
M  V30 285 O 24.0978 4.7411 3.14973 0
M  V30 286 N 25.2998 3.52881 4.60929 0
M  V30 287 H 28.0648 2.93997 0.581875 0
M  V30 288 H 25.6258 1.61002 0.170316 0
M  V30 289 H 27.6178 2.61149 3.09166 0
M  V30 290 H 26.1878 1.64032 2.66106 0
M  V30 291 H 25.4078 3.72106 1.30119 0
M  V30 292 H 26.6958 4.62822 2.11361 0
M  V30 293 H 26.0938 2.95878 4.82154 0
M  V30 294 H 24.6508 3.73076 5.34469 0
M  V30 295 N 28.0839 -0.256276 1.55502 0
M  V30 296 C 29.0319 -1.33694 1.90338 0
M  V30 297 C 30.0259 -1.50299 0.781441 0
M  V30 298 O 31.2319 -1.51885 0.965966 0
M  V30 299 H 27.6069 -0.447483 0.60437 0
M  V30 300 H 29.5779 -1.01574 2.8058 0
M  V30 301 C 28.3269 -2.68724 2.20642 0
M  V30 302 H 27.6499 -2.56743 3.06469 0
M  V30 303 H 29.0899 -3.43237 2.48926 0
M  V30 304 C 27.5489 -3.21101 1.01959 0
M  V30 305 O 28.0789 -4.0084 0.262762 0
M  V30 306 N 26.2849 -2.79003 0.812746 0
M  V30 307 H 25.8319 -2.14271 1.42989 0
M  V30 308 H 25.7899 -3.14393 0.0203076 0
M  V30 309 N 29.562 -1.4872 -0.521534 0
M  V30 310 C 30.525 -1.63379 -1.60748 0
M  V30 311 C 31.525 -0.50661 -1.52611 0
M  V30 312 O 32.715 -0.772601 -1.5613 0
M  V30 313 C 29.847 -1.61192 -3.00383 0
M  V30 314 H 31.04 -2.60217 -1.49087 0
M  V30 315 H 28.593 -1.37444 -0.744235 0
M  V30 316 H 29.328 -0.65863 -3.17541 0
M  V30 317 H 29.113 -2.43032 -3.07698 0
M  V30 318 H 30.603 -1.7466 -3.7932 0
M  V30 319 N 31.0401 0.771051 -1.3745 0
M  V30 320 C 31.9871 1.88435 -1.3327 0
M  V30 321 C 32.9571 1.64914 -0.198136 0
M  V30 322 O 34.1421 1.86821 -0.387606 0
M  V30 323 C 31.2821 3.25509 -1.14622 0
M  V30 324 C 30.3951 3.60979 -2.37314 0
M  V30 325 C 29.5301 4.87265 -2.11533 0
M  V30 326 C 28.5691 5.15469 -3.30088 0
M  V30 327 N 27.7061 6.32944 -3.03853 0
M  V30 328 H 32.5461 1.91344 -2.28455 0
M  V30 329 H 30.0831 0.935466 -1.13523 0
M  V30 330 H 32.0411 4.04582 -1.01831 0
M  V30 331 H 30.6711 3.21974 -0.230837 0
M  V30 332 H 29.7231 2.76885 -2.60842 0
M  V30 333 H 31.0351 3.77759 -3.25729 0
M  V30 334 H 30.1891 5.74244 -1.95777 0
M  V30 335 H 28.9281 4.7259 -1.20457 0
M  V30 336 H 27.9331 4.26966 -3.46382 0
M  V30 337 H 29.1581 5.32052 -4.22016 0
M  V30 338 H 27.1041 6.19625 -2.15407 0
M  V30 339 H 27.0211 6.50143 -3.85812 0
M  V30 340 H 28.2891 7.22857 -2.91716 0
M  V30 341 N 32.5182 1.22032 0.997298 0
M  V30 342 C 33.7582 1.05375 1.75144 0
M  V30 343 C 34.1222 -0.404696 1.87686 0
M  V30 344 O 35.3232 -0.691998 2.5974 0
M  V30 345 C 33.5942 1.74046 3.12158 0
M  V30 346 S 35.1532 1.72745 4.03366 0
M  V30 347 H 31.9712 0.377449 0.602539 0
M  V30 348 H 34.5732 1.54902 1.19272 0
M  V30 349 H 33.2772 2.79332 3.00669 0
M  V30 350 H 32.8082 1.24731 3.73103 0
M  V30 351 H 34.8232 0.774015 4.90126 0
M  V30 352 N 33.9963 -1.19345 1.0293 0
M  V30 353 C 35.2423 -1.89318 0.727083 0
M  V30 354 C 35.5753 -1.79446 -0.742483 0
M  V30 355 O 34.8503 -1.1871 -1.54072 0
M  V30 356 C 35.1333 -3.40238 1.17942 0
M  V30 357 C 34.9863 -3.58979 2.71024 0
M  V30 358 C 36.3053 -4.33479 0.760548 0
M  V30 359 H 33.4243 -0.687475 0.265606 0
M  V30 360 H 36.0663 -1.40477 1.2793 0
M  V30 361 H 34.2163 -3.81964 0.709608 0
M  V30 362 H 35.8883 -3.26421 3.25955 0
M  V30 363 H 34.1313 -3.02018 3.11396 0
M  V30 364 H 34.8023 -4.64823 2.9773 0
M  V30 365 H 37.2783 -3.99469 1.16464 0
M  V30 366 H 36.1543 -5.37664 1.10493 0
M  V30 367 H 36.4153 -4.40813 -0.337063 0
M  V30 368 N 35.4744 -0.807222 -1.35358 0
M  V30 369 C 36.7144 -0.393534 -2.00576 0
M  V30 370 C 37.0784 1.0203 -1.62647 0
M  V30 371 O 38.2794 1.53603 -2.20589 0
M  V30 372 C 36.5504 -0.572017 -3.52793 0
M  V30 373 S 38.1094 -0.248845 -4.38094 0
M  V30 374 H 34.9274 -0.149425 -0.695121 0
M  V30 375 H 37.5294 -1.04961 -1.64935 0
M  V30 376 H 36.2334 -1.60097 -3.77885 0
M  V30 377 H 35.7644 0.099359 -3.93275 0
M  V30 378 H 37.7794 0.943253 -4.87152 0
M  V30 379 N 36.9525 1.47285 -0.560781 0
M  V30 380 C 37.8855 2.27009 0.232821 0
M  V30 381 C 38.8635 1.34273 0.917039 0
M  V30 382 O 40.0475 1.63659 0.935315 0
M  V30 383 C 37.1745 3.11406 1.33206 0
M  V30 384 C 36.2205 4.19746 0.756019 0
M  V30 385 S 37.0535 5.34003 -0.400165 0
M  V30 386 C 38.2095 6.21964 0.700805 0
M  V30 387 H 38.4425 2.93971 -0.443683 0
M  V30 388 H 35.9755 1.50446 -0.347181 0
M  V30 389 H 37.9335 3.60601 1.96156 0
M  V30 390 H 36.5945 2.438 1.98041 0
M  V30 391 H 35.7875 4.78541 1.5816 0
M  V30 392 H 35.3895 3.73451 0.202619 0
M  V30 393 H 37.6815 6.58529 1.59202 0
M  V30 394 H 38.6245 7.07941 0.150126 0
M  V30 395 H 39.0325 5.5566 0.995083 0
M  V30 396 N 38.4306 0.297415 1.54768 0
M  V30 397 C 39.3606 -0.573494 2.26348 0
M  V30 398 C 40.3416 -1.14085 1.26169 0
M  V30 399 O 41.5266 -1.17086 1.54934 0
M  V30 400 C 38.6566 -1.74716 3.00153 0
M  V30 401 C 37.6106 -1.31032 4.07449 0
M  V30 402 C 36.9366 -2.56887 4.68949 0
M  V30 403 C 38.2366 -0.444183 5.20408 0
M  V30 404 H 39.9306 0.0235131 2.99391 0
M  V30 405 H 37.4766 0.0127488 1.43994 0
M  V30 406 H 39.4296 -2.3625 3.48947 0
M  V30 407 H 38.1536 -2.37035 2.24682 0
M  V30 408 H 36.8126 -0.718066 3.59499 0
M  V30 409 H 36.4606 -3.17512 3.90122 0
M  V30 410 H 36.1606 -2.2836 5.41411 0
M  V30 411 H 37.6846 -3.19229 5.20505 0
M  V30 412 H 39.0986 -0.9651 5.65118 0
M  V30 413 H 37.4956 -0.252846 5.99567 0
M  V30 414 H 38.5656 0.531609 4.81977 0
M  V30 415 N 39.9087 -1.5758 0.0250728 0
M  V30 416 C 41.1567 -1.91255 -0.653151 0
M  V30 417 C 41.4777 -0.901691 -1.729 0
M  V30 418 O 40.7477 0.0573785 -1.95816 0
M  V30 419 H 39.3277 -0.705942 -0.244243 0
M  V30 420 H 41.9897 -1.94767 0.0719209 0
M  V30 421 H 41.0857 -2.91752 -1.10847 0
M  V30 422 N 41.3868 0.248026 -1.55636 0
M  V30 423 C 42.6638 0.998988 -1.68165 0
M  V30 424 C 43.0438 2.03409 -0.564621 0
M  V30 425 O 42.3918 2.24378 0.432076 0
M  V30 426 C 42.6018 1.63334 -3.0842 0
M  V30 427 C 43.9498 2.13562 -3.66983 0
M  V30 428 O 44.9738 1.73277 -3.11213 0
M  V30 429 O 43.8328 2.87526 -4.64749 0
M  V30 430 H 40.9268 0.464933 -0.683935 0
M  V30 431 H 43.4728 0.241902 -1.67967 0
M  V30 432 H 42.2448 0.884583 -3.8117 0
M  V30 433 H 41.8678 2.45666 -3.12624 0
M  V30 434 N 42.8649 1.48995 0.513639 0
M  V30 435 C 44.1139 1.57093 1.2651 0
M  V30 436 C 44.4269 0.257091 1.93903 0
M  V30 437 O 45.6329 0.216478 2.70636 0
M  V30 438 C 44.0889 2.77118 2.29638 0
M  V30 439 C 43.6969 4.15209 1.68241 0
M  V30 440 C 45.4409 2.94538 3.05692 0
M  V30 441 C 43.3479 5.26474 2.69406 0
M  V30 442 H 42.2779 0.584876 0.475854 0
M  V30 443 H 44.9289 1.7536 0.540487 0
M  V30 444 H 43.3109 2.52319 3.05207 0
M  V30 445 H 44.4849 4.50094 0.987505 0
M  V30 446 H 42.7999 4.03042 1.04623 0
M  V30 447 H 45.3969 3.74832 3.8132 0
M  V30 448 H 45.7399 2.04614 3.62545 0
M  V30 449 H 46.2729 3.19316 2.37238 0
M  V30 450 H 43.0119 6.18417 2.17351 0
M  V30 451 H 42.5319 4.96058 3.37175 0
M  V30 452 H 44.2109 5.55277 3.32078 0
M  V30 453 N 44.343 -0.763751 1.37857 0
M  V30 454 C 45.759 -1.06542 1.18832 0
M  V30 455 C 45.959 -2.01478 0.0299722 0
M  V30 456 O 45.015 -2.4458 -0.627447 0
M  V30 457 C 46.328 -1.65525 2.51042 0
M  V30 458 C 47.876 -1.77745 2.57635 0
M  V30 459 C 48.351 -2.4014 3.89996 0
M  V30 460 N 49.842 -2.47582 3.91481 0
M  V30 461 C 50.577 -2.96732 4.9065 0
M  V30 462 N 50.073 -3.45993 6.00217 0
M  V30 463 N 51.866 -2.95679 4.78048 0
M  V30 464 H 44.017 -0.133556 2.1198 0
M  V30 465 H 46.28 -0.121879 0.940133 0
M  V30 466 H 45.986 -1.03236 3.36207 0
M  V30 467 H 45.86 -2.64719 2.68707 0
M  V30 468 H 48.247 -2.39164 1.72872 0
M  V30 469 H 48.328 -0.772836 2.43846 0
M  V30 470 H 47.972 -1.79358 4.75177 0
M  V30 471 H 47.902 -3.41223 4.01092 0
M  V30 472 H 50.393 -2.1273 3.12337 0
M  V30 473 H 50.706 -3.81922 6.7183 0
M  V30 474 H 49.051 -3.44077 6.03851 0
M  V30 475 H 52.242 -2.56499 3.91568 0
M  V30 476 H 52.415 -3.33672 5.55488 0
M  V30 477 N 45.8211 -1.22559 -0.990812 0
M  V30 478 C 46.7511 -1.0218 -2.09956 0
M  V30 479 C 47.7321 0.0579394 -1.70001 0
M  V30 480 O 48.9171 -0.104684 -1.93918 0
M  V30 481 C 46.0471 -0.601023 -3.4206 0
M  V30 482 C 45.0011 -1.62694 -3.95872 0
M  V30 483 C 44.3271 -1.06193 -5.24049 0
M  V30 484 C 45.6271 -3.01743 -4.2632 0
M  V30 485 H 47.3211 -1.94916 -2.27262 0
M  V30 486 H 44.8671 -0.938566 -1.09211 0
M  V30 487 H 46.8201 -0.445561 -4.19038 0
M  V30 488 H 45.5441 0.362005 -3.24588 0
M  V30 489 H 44.2031 -1.77021 -3.21028 0
M  V30 490 H 43.8511 -0.0901903 -5.02919 0
M  V30 491 H 43.5511 -1.74732 -5.61019 0
M  V30 492 H 45.0751 -0.918092 -6.03658 0
M  V30 493 H 46.4891 -2.90777 -4.94087 0
M  V30 494 H 44.8861 -3.67425 -4.74467 0
M  V30 495 H 45.9561 -3.51518 -3.34011 0
M  V30 496 N 47.2992 1.18797 -1.03562 0
M  V30 497 C 48.7152 1.40671 -0.753917 0
M  V30 498 C 48.9152 1.9043 0.658686 0
M  V30 499 O 47.9712 2.08538 1.42366 0
M  V30 500 C 49.2842 2.41192 -1.79574 0
M  V30 501 C 50.8322 2.54928 -1.81606 0
M  V30 502 C 51.3072 3.58709 -2.84766 0
M  V30 503 N 52.7982 3.66212 -2.83625 0
M  V30 504 C 53.5332 4.46225 -3.60098 0
M  V30 505 N 53.0292 5.29888 -4.46308 0
M  V30 506 N 54.8222 4.40939 -3.4861 0
M  V30 507 H 46.9732 0.848221 -1.94728 0
M  V30 508 H 49.2362 0.435081 -0.842264 0
M  V30 509 H 48.9422 2.11669 -2.80872 0
M  V30 510 H 48.8162 3.40467 -1.62365 0
M  V30 511 H 51.2032 2.83771 -0.809817 0
M  V30 512 H 51.2842 1.55784 -2.02891 0
M  V30 513 H 50.9282 3.30607 -3.85566 0
M  V30 514 H 50.8582 4.57519 -2.60737 0
M  V30 515 H 53.3492 3.06466 -2.21105 0
M  V30 516 H 53.6622 5.88078 -5.01382 0
M  V30 517 H 52.0072 5.29326 -4.50377 0
M  V30 518 H 55.1982 3.74624 -2.80668 0
M  V30 519 H 55.3712 5.03056 -4.08459 0
M  V30 520 N 48.7773 0.814389 1.34928 0
M  V30 521 C 50.0253 0.397636 1.9815 0
M  V30 522 C 50.3463 -1.04069 1.64908 0
M  V30 523 O 49.6163 -1.72121 0.93548 0
M  V30 524 H 48.1963 0.144043 0.732981 0
M  V30 525 H 50.8583 1.04195 1.6471 0
M  V30 526 H 49.9543 0.509688 3.0791 0
M  V30 527 N 50.2554 -1.46986 0.568584 0
M  V30 528 C 51.1874 -2.28233 -0.210337 0
M  V30 529 C 52.2004 -1.37682 -0.868767 0
M  V30 530 O 53.3894 -1.62406 -0.740705 0
M  V30 531 C 50.4894 -3.12293 -1.3163 0
M  V30 532 C 49.6624 -4.30878 -0.7525 0
M  V30 533 C 48.7214 -4.96445 -1.74439 0
M  V30 534 O 47.7474 -5.54482 -1.286 0
M  V30 535 N 48.9494 -4.92171 -3.07812 0
M  V30 536 H 51.7144 -2.95723 0.486648 0
M  V30 537 H 49.2754 -1.56742 0.405409 0
M  V30 538 H 51.2674 -3.53022 -1.97883 0
M  V30 539 H 49.8374 -2.46971 -1.91636 0
M  V30 540 H 49.0574 -3.94104 0.0871128 0
M  V30 541 H 50.3454 -5.07558 -0.35536 0
M  V30 542 H 49.7434 -4.46239 -3.47688 0
M  V30 543 H 48.3004 -5.36884 -3.69592 0
M  V30 544 N 51.7335 -0.305618 -1.54608 0
M  V30 545 C 52.9615 0.304775 -2.04643 0
M  V30 546 C 53.3765 1.47167 -1.18268 0
M  V30 547 O 52.7335 1.81296 -0.209328 0
M  V30 548 C 52.7845 0.756564 -3.53495 0
M  V30 549 O 52.5055 -0.36389 -4.36586 0
M  V30 550 C 54.0065 1.43163 -4.19546 0
M  V30 551 H 51.2265 0.0655481 -0.667791 0
M  V30 552 H 53.7705 -0.446592 -1.99564 0
M  V30 553 H 51.9255 1.45794 -3.58919 0
M  V30 554 H 52.3395 -0.0113121 -5.24499 0
M  V30 555 H 53.8135 1.69886 -5.25207 0
M  V30 556 H 54.2905 2.37318 -3.69563 0
M  V30 557 H 54.8965 0.773307 -4.18211 0
M  V30 558 N 53.2116 1.57565 -0.0334293 0
M  V30 559 C 54.4596 1.91598 0.642999 0
M  V30 560 C 54.7806 0.910847 1.7242 0
M  V30 561 O 54.0506 -0.0469931 1.95844 0
M  V30 562 H 52.6306 0.707228 0.240496 0
M  V30 563 H 55.2926 1.94726 -0.0822488 0
M  V30 564 H 54.3886 2.92336 1.09298 0
M  V30 565 N 54.6897 -0.239769 1.55765 0
M  V30 566 C 55.9357 -0.968234 1.78194 0
M  V30 567 C 56.2687 -1.84701 0.599938 0
M  V30 568 O 55.5437 -1.9031 -0.401524 0
M  V30 569 C 55.8267 -1.8227 3.10564 0
M  V30 570 C 55.6797 -0.971633 4.3918 0
M  V30 571 C 56.9987 -2.80388 3.39221 0
M  V30 572 H 54.1177 -0.350572 0.648281 0
M  V30 573 H 56.7597 -0.238259 1.885 0
M  V30 574 H 54.9097 -2.44507 3.01908 0
M  V30 575 H 56.5817 -0.367408 4.59835 0
M  V30 576 H 54.8247 -0.276276 4.32919 0
M  V30 577 H 55.4957 -1.60346 5.28198 0
M  V30 578 H 57.9717 -2.28287 3.47885 0
M  V30 579 H 56.8477 -3.3729 4.33044 0
M  V30 580 H 57.1087 -3.57212 2.60484 0
M  V30 581 N 56.1678 -1.49265 -0.50573 0
M  V30 582 C 57.5838 -1.35923 -0.836486 0
M  V30 583 C 57.7838 -0.388704 -1.97715 0
M  V30 584 O 56.8398 0.181336 -2.51848 0
M  V30 585 C 58.1528 -2.76531 -1.18115 0
M  V30 586 C 59.7008 -2.85197 -1.28964 0
M  V30 587 C 60.1758 -4.26561 -1.66761 0
M  V30 588 N 61.6668 -4.2935 -1.73819 0
M  V30 589 C 62.4018 -5.35693 -2.045 0
M  V30 590 N 61.8978 -6.52287 -2.33438 0
M  V30 591 N 63.6908 -5.23105 -2.05711 0
M  V30 592 H 55.8418 -2.10965 0.246519 0
M  V30 593 H 58.1048 -0.9468 0.0476887 0
M  V30 594 H 57.8108 -3.49226 -0.416398 0
M  V30 595 H 57.6848 -3.11599 -2.1257 0
M  V30 596 H 60.0718 -2.12742 -2.04511 0
M  V30 597 H 60.1528 -2.53718 -0.325704 0
M  V30 598 H 59.7968 -4.99541 -0.917656 0
M  V30 599 H 59.7268 -4.55502 -2.64246 0
M  V30 600 H 62.2178 -3.4526 -1.53635 0
M  V30 601 H 62.5308 -7.29158 -2.56024 0
M  V30 602 H 60.8758 -6.55521 -2.30905 0
M  V30 603 H 64.0668 -4.31026 -1.82577 0
M  V30 604 H 64.2398 -6.06078 -2.29289 0
M  V30 605 N 57.6459 0.756429 -1.3826 0
M  V30 606 C 58.6089 1.85176 -1.35065 0
M  V30 607 C 59.6089 1.58818 -0.251703 0
M  V30 608 O 60.7989 1.66615 -0.508433 0
M  V30 609 C 57.9309 3.22596 -1.10201 0
M  V30 610 H 59.1239 1.89417 -2.3251 0
M  V30 611 H 56.6769 0.95783 -1.23512 0
M  V30 612 H 57.4119 3.24025 -0.133504 0
M  V30 613 H 57.1969 3.43122 -1.89762 0
M  V30 614 H 58.6869 4.02673 -1.10654 0
M  V30 615 N 59.124 1.23083 0.984299 0
M  V30 616 C 60.034 1.02515 2.11016 0
M  V30 617 C 61.05 -0.0291702 1.73976 0
M  V30 618 O 62.226 0.165434 2.00719 0
M  V30 619 C 59.291 0.614673 3.41208 0
M  V30 620 C 58.352 1.74359 3.92297 0
M  V30 621 C 57.585 1.35261 5.16275 0
M  V30 622 O 57.808 0.235136 5.69915 0
M  V30 623 O 56.742 2.17227 5.61334 0
M  V30 624 H 60.568 1.96862 2.31255 0
M  V30 625 H 58.153 1.01753 1.09392 0
M  V30 626 H 60.035 0.396518 4.1953 0
M  V30 627 H 58.71 -0.299851 3.22308 0
M  V30 628 H 57.617 2.01635 3.1511 0
M  V30 629 H 58.95 2.63629 4.15645 0
M  V30 630 N 60.6021 -1.18246 1.0419 0
M  V30 631 C 62.0181 -1.40269 0.761366 0
M  V30 632 C 62.2181 -1.90777 -0.648578 0
M  V30 633 O 61.2741 -2.0929 -1.41258 0
M  V30 634 C 62.5871 -2.40237 1.8085 0
M  V30 635 C 64.1351 -2.53961 1.82955 0
M  V30 636 C 64.6101 -3.57194 2.86664 0
M  V30 637 N 66.1011 -3.64702 2.85563 0
M  V30 638 C 66.8361 -4.44309 3.6246 0
M  V30 639 N 66.3321 -5.27514 4.49111 0
M  V30 640 N 68.1251 -4.39084 3.50944 0
M  V30 641 H 60.2761 -0.837882 1.95175 0
M  V30 642 H 62.5391 -0.430608 0.84456 0
M  V30 643 H 62.2451 -2.10176 2.81991 0
M  V30 644 H 62.1191 -3.39601 1.64168 0
M  V30 645 H 64.5061 -2.83338 0.824855 0
M  V30 646 H 64.5871 -1.54706 2.03715 0
M  V30 647 H 64.2311 -3.28558 3.87314 0
M  V30 648 H 64.1611 -4.5613 2.6316 0
M  V30 649 H 66.6521 -3.05289 2.22727 0
M  V30 650 H 66.9651 -5.85411 5.04493 0
M  V30 651 H 65.3101 -5.2693 4.53178 0
M  V30 652 H 68.5011 -3.7313 2.82651 0
M  V30 653 H 68.6741 -5.00883 4.11121 0
M  V30 654 N 62.0802 -0.821533 -1.34494 0
M  V30 655 C 63.4962 -0.507117 -1.51329 0
M  V30 656 C 63.6962 0.968964 -1.76673 0
M  V30 657 O 62.7522 1.75348 -1.81685 0
M  V30 658 C 64.0652 -1.36544 -2.67911 0
M  V30 659 C 65.6132 -1.36242 -2.81793 0
M  V30 660 C 66.0882 -2.2052 -4.01416 0
M  V30 661 N 67.5792 -2.18136 -4.08621 0
M  V30 662 C 68.3142 -2.80095 -5.00334 0
M  V30 663 N 67.8102 -3.51039 -5.9728 0
M  V30 664 N 69.6032 -2.69656 -4.93196 0
M  V30 665 H 61.7542 -1.77729 -1.16302 0
M  V30 666 H 64.0172 -0.757291 -0.570276 0
M  V30 667 H 63.7232 -2.41361 -2.55808 0
M  V30 668 H 63.5972 -1.02917 -3.62888 0
M  V30 669 H 65.9842 -0.322041 -2.93338 0
M  V30 670 H 66.0652 -1.73866 -1.87628 0
M  V30 671 H 65.7092 -3.24607 -3.90631 0
M  V30 672 H 65.6392 -1.80247 -4.94791 0
M  V30 673 H 68.1302 -1.6653 -3.39229 0
M  V30 674 H 68.4432 -3.95565 -6.63889 0
M  V30 675 H 66.7882 -3.55145 -5.97409 0
M  V30 676 H 69.9792 -2.13808 -4.16418 0
M  V30 677 H 70.1522 -3.1823 -5.64476 0
M  V30 678 N 63.5583 1.46682 -0.576371 0
M  V30 679 C 64.8063 2.02013 -0.0594163 0
M  V30 680 C 65.1273 1.45101 1.30271 0
M  V30 681 O 64.3973 0.633317 1.8538 0
M  V30 682 H 62.9773 0.746759 -0.0189745 0
M  V30 683 H 65.6393 1.79862 -0.750717 0
M  V30 684 H 64.7353 3.12097 0.014345 0
M  V30 685 N 65.0364 0.313813 1.54444 0
M  V30 686 C 66.2614 -0.296681 2.05267 0
M  V30 687 C 66.6864 -1.45757 1.18897 0
M  V30 688 O 66.0444 -1.80239 0.195886 0
M  V30 689 C 66.0924 -0.71831 3.53373 0
M  V30 690 O 65.1964 -1.82175 3.69981 0
M  V30 691 H 64.5374 -0.0554061 0.661684 0
M  V30 692 H 67.0674 0.459387 1.99376 0
M  V30 693 H 67.0774 -1.00364 3.95463 0
M  V30 694 H 65.7524 0.130821 4.15694 0
M  V30 695 H 64.3294 -1.53598 3.39797 0
M  V30 696 N 66.5145 -1.57545 0.0417849 0
M  V30 697 C 67.7445 -1.96339 -0.642995 0
M  V30 698 C 68.1525 -0.917536 -1.65463 0
M  V30 699 O 67.4955 0.107747 -1.83384 0
M  V30 700 C 67.5575 -3.31333 -1.39494 0
M  V30 701 C 67.2215 -4.53796 -0.540204 0
M  V30 702 C 68.2185 -5.19553 0.189806 0
M  V30 703 C 65.9035 -5.0006 -0.473886 0
M  V30 704 C 67.8975 -6.29904 0.974674 0
M  V30 705 C 65.5845 -6.10289 0.314677 0
M  V30 706 C 66.5825 -6.75072 1.03765 0
M  V30 707 O 66.2705 -7.83183 1.81327 0
M  V30 708 H 66.0025 -0.651241 -0.181277 0
M  V30 709 H 68.5565 -2.05148 0.101665 0
M  V30 710 H 66.7865 -3.19052 -2.18502 0
M  V30 711 H 68.4755 -3.54942 -1.96904 0
M  V30 712 H 69.2415 -4.84774 0.147981 0
M  V30 713 H 65.1205 -4.49433 -1.0262 0
M  V30 714 H 68.6645 -6.80401 1.5395 0
M  V30 715 H 64.5615 -6.44506 0.358174 0
M  V30 716 H 65.3295 -7.99913 1.73438 0
M  V30 717 N 67.9926 0.231505 -1.5589 0
M  V30 718 C 69.4036 0.799327 -1.68724 0
M  V30 719 C 69.7546 1.85398 -0.642022 0
M  V30 720 O 68.8796 2.1539 0.208784 0
M  V30 721 C 69.4746 1.45664 -3.05888 0
M  V30 722 C 68.0336 1.97197 -3.20609 0
M  V30 723 C 67.1806 0.828552 -2.64632 0
M  V30 724 H 70.1316 0.00702616 -1.58698 0
M  V30 725 H 70.1526 2.32517 -3.01191 0
M  V30 726 H 69.6646 0.688808 -3.81939 0
M  V30 727 H 67.7656 2.76813 -2.4941 0
M  V30 728 H 67.8786 2.15878 -4.27707 0
M  V30 729 H 66.2426 1.23321 -2.22854 0
M  V30 730 H 67.0256 0.0735544 -3.43221 0
M  V30 731 N 69.4707 1.49531 0.497807 0
M  V30 732 C 70.7177 1.59179 1.25173 0
M  V30 733 C 71.0457 0.279932 1.92475 0
M  V30 734 O 70.3007 -0.732383 1.81479 0
M  V30 735 C 70.5997 2.70252 2.33878 0
M  V30 736 C 70.2657 4.11644 1.84012 0
M  V30 737 C 68.9277 4.50121 1.70132 0
M  V30 738 C 71.2797 5.00121 1.46725 0
M  V30 739 C 68.6077 5.74845 1.17348 0
M  V30 740 C 70.9597 6.25366 0.95392 0
M  V30 741 C 69.6237 6.6267 0.801538 0
M  V30 742 H 68.8937 0.582478 0.45804 0
M  V30 743 H 71.5407 1.83373 0.551948 0
M  V30 744 H 69.8457 2.40041 3.09657 0
M  V30 745 H 71.5427 2.74925 2.9192 0
M  V30 746 H 68.1327 3.81274 1.95775 0
M  V30 747 H 72.3167 4.71048 1.56294 0
M  V30 748 H 67.5727 6.02444 1.04264 0
M  V30 749 H 71.7467 6.93301 0.656225 0
M  V30 750 H 69.3737 7.59197 0.390351 0
M  V30 751 N 70.9488 -0.749086 1.3866 0
M  V30 752 C 72.1978 -1.50371 1.3443 0
M  V30 753 C 72.5108 -1.95503 -0.0616397 0
M  V30 754 O 73.7168 -2.70554 -0.226489 0
M  V30 755 C 72.1728 -2.71644 2.36088 0
M  V30 756 C 71.7808 -2.3352 3.82325 0
M  V30 757 C 73.5248 -3.49518 2.40909 0
M  V30 758 C 71.4318 -3.51431 4.75658 0
M  V30 759 H 70.3618 -0.564628 0.499712 0
M  V30 760 H 73.0128 -0.818449 1.64237 0
M  V30 761 H 71.3948 -3.42175 1.9933 0
M  V30 762 H 72.5688 -1.70627 4.28046 0
M  V30 763 H 70.8838 -1.6877 3.80665 0
M  V30 764 H 73.4808 -4.37197 3.07836 0
M  V30 765 H 73.8238 -3.90992 1.42937 0
M  V30 766 H 74.3568 -2.86005 2.76489 0
M  V30 767 H 71.0958 -3.15019 5.74842 0
M  V30 768 H 70.6158 -4.13352 4.34627 0
M  V30 769 H 72.2948 -4.17953 4.93887 0
M  V30 770 N 72.4269 -1.23603 -0.977757 0
M  V30 771 C 73.7039 -0.977897 -1.69401 0
M  V30 772 C 74.0839 0.502738 -2.05026 0
M  V30 773 O 73.4319 1.47459 -1.74551 0
M  V30 774 C 73.6419 -1.89077 -2.93345 0
M  V30 775 C 74.9899 -2.15579 -3.65802 0
M  V30 776 O 76.0139 -1.86648 -3.03383 0
M  V30 777 O 74.8729 -2.64658 -4.78141 0
M  V30 778 H 71.9669 -0.369025 -0.740101 0
M  V30 779 H 74.5129 -1.34657 -1.03274 0
M  V30 780 H 73.2849 -2.89158 -2.63634 0
M  V30 781 H 72.9079 -1.52463 -3.67207 0
M  V30 782 N 73.905 1.17692 -1.04816 0
M  V30 783 C 75.152 1.87859 -0.75599 0
M  V30 784 C 75.48 1.80812 0.716752 0
M  V30 785 O 74.735 1.20819 1.53952 0
M  V30 786 C 75.034 3.37462 -1.17703 0
M  V30 787 C 74.7 3.64713 -2.65133 0
M  V30 788 C 73.362 3.71859 -3.05408 0
M  V30 789 C 75.714 3.76492 -3.60421 0
M  V30 790 C 73.042 3.88271 -4.39843 0
M  V30 791 C 75.394 3.94421 -4.94585 0
M  V30 792 C 74.058 3.99806 -5.3452 0
M  V30 793 H 73.328 0.687425 -0.276636 0
M  V30 794 H 75.975 1.39255 -1.31455 0
M  V30 795 H 74.28 3.88097 -0.537395 0
M  V30 796 H 75.977 3.90109 -0.928218 0
M  V30 797 H 72.567 3.59772 -2.32942 0
M  V30 798 H 76.751 3.70295 -3.30447 0
M  V30 799 H 72.007 3.90687 -4.70291 0
M  V30 800 H 76.181 4.02477 -5.68318 0
M  V30 801 H 73.808 4.12276 -6.38696 0
M  V30 802 N 75.3831 0.828654 1.34056 0
M  V30 803 C 76.7991 0.515135 1.51058 0
M  V30 804 C 76.9991 -0.959581 1.77184 0
M  V30 805 O 76.0551 -1.74382 1.82612 0
M  V30 806 C 77.3681 1.37963 2.67183 0
M  V30 807 C 78.9161 1.37735 2.81066 0
M  V30 808 C 79.3911 2.22645 4.00241 0
M  V30 809 N 80.8821 2.203 4.07458 0
M  V30 810 C 81.6171 2.82744 4.98842 0
M  V30 811 N 81.1131 3.54201 5.9541 0
M  V30 812 N 82.9061 2.72268 4.91759 0
M  V30 813 H 75.0571 1.78343 1.15358 0
M  V30 814 H 77.3201 0.760304 0.566252 0
M  V30 815 H 77.0261 2.42714 2.54525 0
M  V30 816 H 76.9001 1.0484 3.62338 0
M  V30 817 H 79.2871 0.337593 2.93163 0
M  V30 818 H 79.3681 1.74859 1.86703 0
M  V30 819 H 79.0121 3.26674 3.88905 0
M  V30 820 H 78.9421 1.82869 4.93829 0
M  V30 821 H 81.4331 1.68327 3.38341 0
M  V30 822 H 81.7461 3.9908 6.61782 0
M  V30 823 H 80.0911 3.58308 5.95517 0
M  V30 824 H 83.2821 2.16014 4.15278 0
M  V30 825 H 83.4551 3.21219 5.62781 0
M  V30 826 N 76.8612 -1.46375 0.584142 0
M  V30 827 C 77.7912 -2.33103 -0.136037 0
M  V30 828 C 78.7722 -1.45431 -0.882255 0
M  V30 829 O 79.9572 -1.74246 -0.857434 0
M  V30 830 C 77.0872 -3.27731 -1.14933 0
M  V30 831 C 76.0412 -4.24855 -0.517862 0
M  V30 832 C 75.3672 -5.09001 -1.63773 0
M  V30 833 C 76.6672 -5.19439 0.545886 0
M  V30 834 H 78.3612 -2.93568 0.588086 0
M  V30 835 H 75.9072 -1.41166 0.284259 0
M  V30 836 H 77.8602 -3.87261 -1.66153 0
M  V30 837 H 76.5842 -2.65377 -1.90375 0
M  V30 838 H 75.2432 -3.6659 -0.0267361 0
M  V30 839 H 74.8912 -4.43031 -2.38185 0
M  V30 840 H 74.5912 -5.74777 -1.22085 0
M  V30 841 H 76.1152 -5.71396 -2.15266 0
M  V30 842 H 77.5292 -5.73177 0.118704 0
M  V30 843 H 75.9262 -5.93566 0.88317 0
M  V30 844 H 76.9962 -4.63285 1.43162 0
M  V30 845 N 78.3393 -0.321999 -1.54275 0
M  V30 846 C 79.2693 0.537411 -2.27231 0
M  V30 847 C 80.2503 1.12064 -1.27968 0
M  V30 848 O 81.4353 1.14606 -1.56777 0
M  V30 849 C 78.5653 1.69919 -3.02894 0
M  V30 850 C 77.5193 1.24534 -4.09482 0
M  V30 851 C 76.8453 2.49394 -4.72977 0
M  V30 852 C 78.1453 0.361335 -5.21049 0
M  V30 853 H 79.8393 -0.0711406 -2.99315 0
M  V30 854 H 77.3853 -0.0356555 -1.43956 0
M  V30 855 H 79.3383 2.30668 -3.52662 0
M  V30 856 H 78.0623 2.33431 -2.28424 0
M  V30 857 H 76.7213 0.660782 -3.60596 0
M  V30 858 H 76.3693 3.11265 -3.95124 0
M  V30 859 H 76.0693 2.19718 -5.44975 0
M  V30 860 H 77.5933 3.10908 -5.25517 0
M  V30 861 H 79.0073 0.875072 -5.66582 0
M  V30 862 H 77.4043 0.157428 -5.99893 0
M  V30 863 H 78.4743 -0.60822 -4.8107 0
M  V30 864 N 79.8174 1.5752 -0.0501392 0
M  V30 865 C 80.7654 2.12651 0.942459 0
M  V30 866 C 81.7594 1.05807 1.32292 0
M  V30 867 O 82.9654 1.24217 1.3027 0
M  V30 868 H 79.3404 0.679673 0.321789 0
M  V30 869 H 81.3114 2.94951 0.452356 0
M  V30 870 C 80.0604 2.68565 2.20836 0
M  V30 871 H 79.3834 3.50439 1.92439 0
M  V30 872 H 80.8234 3.10761 2.8845 0
M  V30 873 C 79.2824 1.62291 2.95234 0
M  V30 874 O 79.8124 1.03508 3.88135 0
M  V30 875 N 78.0184 1.33836 2.57946 0
M  V30 876 H 77.5654 1.81826 1.82475 0
M  V30 877 H 77.5234 0.629595 3.08032 0
M  V30 878 N 81.2955 -0.223234 1.56011 0
M  V30 879 C 82.5205 -0.968978 1.83373 0
M  V30 880 C 82.9455 -1.77227 0.630254 0
M  V30 881 O 82.3035 -1.76345 -0.420959 0
M  V30 882 C 82.3515 -1.86363 3.08709 0
M  V30 883 O 81.4555 -2.95873 2.87285 0
M  V30 884 H 80.7965 -0.274461 0.604622 0
M  V30 885 H 83.3265 -0.237056 2.03222 0
M  V30 886 H 83.3365 -2.27376 3.38768 0
M  V30 887 H 82.0115 -1.27319 3.95933 0
M  V30 888 H 80.5885 -2.58818 2.68454 0
M  V30 889 N 82.7736 -1.49793 -0.48987 0
M  V30 890 C 84.0016 -1.63568 -1.26701 0
M  V30 891 C 84.4166 -0.311465 -1.86213 0
M  V30 892 O 83.7736 0.704416 -1.68357 0
M  V30 893 C 83.8246 -2.71284 -2.38929 0
M  V30 894 O 83.5456 -3.9857 -1.81861 0
M  V30 895 C 85.0466 -2.95864 -3.3012 0
M  V30 896 H 82.2666 -0.550342 -0.383881 0
M  V30 897 H 84.8106 -1.95898 -0.586864 0
M  V30 898 H 82.9656 -2.417 -3.02753 0
M  V30 899 H 83.3796 -4.57993 -2.55622 0
M  V30 900 H 84.8536 -3.74941 -4.05121 0
M  V30 901 H 85.3306 -2.06206 -3.87783 0
M  V30 902 H 85.9366 -3.26907 -2.72051 0
M  V30 903 N 84.2517 0.741722 -1.39055 0
M  V30 904 C 85.4797 1.53098 -1.39171 0
M  V30 905 C 85.8947 1.88794 0.0155099 0
M  V30 906 O 85.2517 1.53626 0.985159 0
M  V30 907 C 85.3027 2.82274 -2.2584 0
M  V30 908 O 85.0237 2.48097 -3.61081 0
M  V30 909 C 86.5247 3.76343 -2.34266 0
M  V30 910 H 83.7447 0.473335 -0.4756 0
M  V30 911 H 86.2887 0.917045 -1.82785 0
M  V30 912 H 84.4437 3.40015 -1.85656 0
M  V30 913 H 84.8577 3.31029 -4.06842 0
M  V30 914 H 86.3317 4.63898 -2.9917 0
M  V30 915 H 86.8087 4.17619 -1.35982 0
M  V30 916 H 87.4147 3.24523 -2.74891 0
M  V30 917 N 85.7298 1.2412 0.971189 0
M  V30 918 C 86.9598 1.10415 1.7462 0
M  V30 919 C 87.3678 -0.346462 1.86001 0
M  V30 920 O 86.7108 -1.25104 1.34517 0
M  V30 921 C 86.7728 1.66596 3.18568 0
M  V30 922 C 86.4368 3.15446 3.3067 0
M  V30 923 C 87.4338 4.12636 3.16271 0
M  V30 924 C 85.1188 3.55337 3.55022 0
M  V30 925 C 87.1128 5.47699 3.26044 0
M  V30 926 C 84.7998 4.90542 3.64434 0
M  V30 927 C 85.7978 5.86532 3.49956 0
M  V30 928 O 85.4858 7.19279 3.59017 0
M  V30 929 H 85.2178 0.386616 0.55453 0
M  V30 930 H 87.7718 1.64633 1.22821 0
M  V30 931 H 86.0018 1.06808 3.71657 0
M  V30 932 H 87.6908 1.48232 3.77865 0
M  V30 933 H 88.4568 3.8316 2.97344 0
M  V30 934 H 84.3358 2.8113 3.65359 0
M  V30 935 H 87.8798 6.22603 3.14661 0
M  V30 936 H 83.7768 5.19691 3.82873 0
M  V30 937 H 84.5448 7.27153 3.75754 0
M  V30 938 N 87.2079 -1.17134 1.05439 0
M  V30 939 C 88.4329 -1.91913 0.786396 0
M  V30 940 C 88.8579 -1.7643 -0.652234 0
M  V30 941 O 88.2159 -1.08372 -1.45345 0
M  V30 942 C 88.2639 -3.40921 1.17497 0
M  V30 943 O 87.3679 -4.11244 0.308589 0
M  V30 944 H 86.7089 -0.598215 0.288158 0
M  V30 945 H 89.2389 -1.48457 1.4079 0
M  V30 946 H 89.2489 -3.91668 1.14281 0
M  V30 947 H 87.9239 -3.5151 2.22292 0
M  V30 948 H 86.5009 -3.70731 0.40157 0
M  V30 949 N 88.686 -0.835752 -1.33615 0
M  V30 950 C 89.934 -0.429109 -1.97492 0
M  V30 951 C 90.255 1.01433 -1.66543 0
M  V30 952 O 89.525 1.70611 -0.962744 0
M  V30 953 H 88.105 -0.155686 -0.730596 0
M  V30 954 H 90.767 -1.06802 -1.63031 0
M  V30 955 H 89.863 -0.55861 -3.0706 0
M  V30 956 N 90.1641 1.46063 -0.591896 0
M  V30 957 C 91.0741 2.34192 0.13831 0
M  V30 958 C 92.0901 1.50305 0.876608 0
M  V30 959 O 93.2661 1.8315 0.837728 0
M  V30 960 C 90.3311 3.27656 1.13326 0
M  V30 961 C 89.3921 4.27445 0.39863 0
M  V30 962 C 88.6251 5.16443 1.34618 0
M  V30 963 O 88.8481 5.08553 2.58321 0
M  V30 964 O 87.7821 5.95843 0.851768 0
M  V30 965 H 91.6081 2.98002 -0.58552 0
M  V30 966 H 89.1931 1.45188 -0.352239 0
M  V30 967 H 91.0751 3.85291 1.70671 0
M  V30 968 H 89.7501 2.6643 1.83839 0
M  V30 969 H 88.6571 3.73471 -0.216895 0
M  V30 970 H 89.9901 4.91482 -0.265709 0
M  V30 971 N 91.6422 0.330177 1.54103 0
M  V30 972 C 92.8912 -0.271336 1.99867 0
M  V30 973 C 93.2042 -1.52723 1.22209 0
M  V30 974 O 94.4102 -2.20515 1.58383 0
M  V30 975 C 92.8662 -0.534032 3.55916 0
M  V30 976 C 92.4742 0.705193 4.42415 0
M  V30 977 C 94.2182 -1.09514 4.1013 0
M  V30 978 C 92.1252 0.414035 5.89949 0
M  V30 979 H 91.0552 -0.105166 0.74663 0
M  V30 980 H 93.7062 0.443429 1.78062 0
M  V30 981 H 92.0882 -1.30915 3.73734 0
M  V30 982 H 93.2622 1.4804 4.36372 0
M  V30 983 H 91.5772 1.18698 3.99124 0
M  V30 984 H 94.1742 -1.3277 5.17954 0
M  V30 985 H 94.5172 -2.04656 3.62521 0
M  V30 986 H 95.0502 -0.381038 3.95971 0
M  V30 987 H 91.7892 1.33481 6.41766 0
M  V30 988 H 91.3092 -0.323336 5.98928 0
M  V30 989 H 92.9882 0.0263105 6.46995 0
M  V30 990 N 93.1203 -1.57491 0.0584922 0
M  V30 991 C 94.3683 -1.92597 -0.612436 0
M  V30 992 C 94.6893 -0.938162 -1.70949 0
M  V30 993 O 93.9593 0.0158301 -1.95894 0
M  V30 994 H 92.5393 -0.710964 -0.229214 0
M  V30 995 H 95.2013 -1.94571 0.113218 0
M  V30 996 H 94.2973 -2.94038 -1.04633 0
M  V30 997 N 94.5984 0.214957 -1.56127 0
M  V30 998 C 95.8264 0.955092 -1.83536 0
M  V30 999 C 96.2414 1.77677 -0.638472 0
M  V30 1000 O 95.5984 1.78219 0.392968 0
M  V30 1001 C 95.6494 1.86734 -3.09536 0
M  V30 1002 O 95.3704 1.07887 -4.24608 0
M  V30 1003 C 96.8714 2.72082 -3.4998 0
M  V30 1004 H 94.0914 0.279611 -0.609966 0
M  V30 1005 H 96.6354 0.228197 -2.03223 0
M  V30 1006 H 94.7904 2.5481 -2.91806 0
M  V30 1007 H 95.2044 1.69872 -4.9623 0
M  V30 1008 H 96.6784 3.31782 -4.41163 0
M  V30 1009 H 97.1554 3.44806 -2.7204 0
M  V30 1010 H 97.7614 2.09409 -3.70173 0
M  V30 1011 N 96.0765 1.50051 0.48192 0
M  V30 1012 C 97.0235 1.68122 1.58125 0
M  V30 1013 C 97.9935 0.522545 1.57666 0
M  V30 1014 O 99.1785 0.751844 1.75362 0
M  V30 1015 C 96.3185 1.77142 2.96167 0
M  V30 1016 C 95.4315 3.0444 3.06497 0
M  V30 1017 C 94.5665 3.04321 4.35387 0
M  V30 1018 C 93.6055 4.26118 4.3942 0
M  V30 1019 N 92.7425 4.238 5.59766 0
M  V30 1020 H 97.5825 2.6198 1.42022 0
M  V30 1021 H 95.1195 1.29877 0.690687 0
M  V30 1022 H 97.0775 1.80352 3.76203 0
M  V30 1023 H 95.7075 0.867329 3.1093 0
M  V30 1024 H 94.7595 3.10752 2.19402 0
M  V30 1025 H 96.0715 3.94426 3.05336 0
M  V30 1026 H 95.2255 3.062 5.23762 0
M  V30 1027 H 93.9645 2.12147 4.39141 0
M  V30 1028 H 92.9695 4.24463 3.49444 0
M  V30 1029 H 94.1945 5.19507 4.37366 0
M  V30 1030 H 92.1405 3.34474 5.64326 0
M  V30 1031 H 92.0575 5.07542 5.60301 0
M  V30 1032 H 93.3255 4.2981 6.50295 0
M  V30 1033 N 97.5546 -0.734337 1.39446 0
M  V30 1034 C 98.5016 -1.84835 1.38219 0
M  V30 1035 C 99.4716 -1.64331 0.24179 0
M  V30 1036 O 100.657 -1.85728 0.437002 0
M  V30 1037 C 97.7966 -3.22355 1.23212 0
M  V30 1038 C 96.9096 -3.5456 2.46801 0
M  V30 1039 C 96.0446 -4.81485 2.24377 0
M  V30 1040 C 95.0836 -5.06536 3.43639 0
M  V30 1041 N 94.2206 -6.24665 3.20528 0
M  V30 1042 H 99.0606 -1.85219 2.33448 0
M  V30 1043 H 96.5976 -0.905039 1.15963 0
M  V30 1044 H 98.5556 -4.0174 1.12522 0
M  V30 1045 H 97.1856 -3.21248 0.316121 0
M  V30 1046 H 96.2376 -2.69872 2.68092 0
M  V30 1047 H 97.5496 -3.6899 3.3563 0
M  V30 1048 H 96.7036 -5.68852 2.10933 0
M  V30 1049 H 95.4426 -4.6923 1.32944 0
M  V30 1050 H 94.4476 -4.17632 3.5758 0
M  V30 1051 H 95.6726 -5.20676 4.35974 0
M  V30 1052 H 93.6186 -6.13696 2.3176 0
M  V30 1053 H 93.5356 -6.39685 4.02913 0
M  V30 1054 H 94.8036 -7.14868 3.10779 0
M  V30 1055 N 99.0327 -1.24633 -0.964593 0
M  V30 1056 C 99.9797 -1.04144 -2.05968 0
M  V30 1057 C 100.95 0.046262 -1.66036 0
M  V30 1058 O 102.135 -0.108972 -1.90489 0
M  V30 1059 C 99.2747 -0.65563 -3.38815 0
M  V30 1060 C 98.3877 -1.81714 -3.91923 0
M  V30 1061 C 97.5227 -1.37662 -5.13052 0
M  V30 1062 C 96.5617 -2.50788 -5.58365 0
M  V30 1063 N 95.6987 -2.07582 -6.70712 0
M  V30 1064 H 100.539 -1.9787 -2.22827 0
M  V30 1065 H 98.0757 -0.9855 -1.09208 0
M  V30 1066 H 100.034 -0.412954 -4.15151 0
M  V30 1067 H 98.6637 0.244627 -3.21872 0
M  V30 1068 H 97.7157 -2.1734 -3.12198 0
M  V30 1069 H 99.0277 -2.66705 -4.21509 0
M  V30 1070 H 98.1817 -1.093 -5.96773 0
M  V30 1071 H 96.9207 -0.497293 -4.85158 0
M  V30 1072 H 95.9257 -2.79906 -4.73215 0
M  V30 1073 H 97.1507 -3.39283 -5.88272 0
M  V30 1074 H 95.0967 -1.22051 -6.44546 0
M  V30 1075 H 95.0137 -2.86125 -6.99763 0
M  V30 1076 H 96.2817 -1.82369 -7.57867 0
M  V30 1077 N 100.511 1.16574 -1.06058 0
M  V30 1078 C 101.757 1.87324 -0.777022 0
M  V30 1079 C 102.09 1.81351 0.694645 0
M  V30 1080 O 101.365 1.22753 1.50871 0
M  V30 1081 C 101.648 3.36991 -1.26922 0
M  V30 1082 C 101.501 3.51667 -2.80447 0
M  V30 1083 C 102.82 4.3131 -0.87521 0
M  V30 1084 H 99.9388 0.680191 -0.28374 0
M  V30 1085 H 102.581 1.37036 -1.3161 0
M  V30 1086 H 100.731 3.79949 -0.81063 0
M  V30 1087 H 102.403 3.17664 -3.34495 0
M  V30 1088 H 100.646 2.93656 -3.19294 0
M  V30 1089 H 101.317 4.56766 -3.0995 0
M  V30 1090 H 103.793 3.9624 -1.27014 0
M  V30 1091 H 102.669 5.34545 -1.2471 0
M  V30 1092 H 102.93 4.41552 0.220071 0
M  V30 1093 N 101.989 0.842826 1.3317 0
M  V30 1094 C 102.936 0.276885 2.29133 0
M  V30 1095 C 103.906 -0.609527 1.54512 0
M  V30 1096 O 105.091 -0.546955 1.82792 0
M  V30 1097 C 102.231 -0.538707 3.40869 0
M  V30 1098 C 101.344 0.372169 4.30394 0
M  V30 1099 C 100.479 -0.454908 5.29249 0
M  V30 1100 C 99.5179 0.45411 6.10413 0
M  V30 1101 N 98.6549 -0.335075 7.013 0
M  V30 1102 H 103.495 1.10052 2.76934 0
M  V30 1103 H 101.032 0.554161 1.36262 0
M  V30 1104 H 102.99 -1.02709 4.0436 0
M  V30 1105 H 101.62 -1.32727 2.9425 0
M  V30 1106 H 100.672 0.97888 3.6759 0
M  V30 1107 H 101.984 1.0703 4.87182 0
M  V30 1108 H 101.138 -1.00695 5.98285 0
M  V30 1109 H 99.8769 -1.18646 4.73048 0
M  V30 1110 H 98.8819 1.01813 5.40291 0
M  V30 1111 H 100.107 1.18409 6.68697 0
M  V30 1112 H 98.0529 -1.04994 6.47543 0
M  V30 1113 H 97.9699 0.304262 7.55387 0
M  V30 1114 H 99.2379 -0.869224 7.74638 0
M  V30 1115 N 103.467 -1.45747 0.599634 0
M  V30 1116 C 104.883 -1.57424 0.26264 0
M  V30 1117 C 105.083 -1.59222 -1.23493 0
M  V30 1118 O 104.139 -1.51825 -2.01756 0
M  V30 1119 C 105.452 -2.86061 0.926795 0
M  V30 1120 C 107 -2.99722 0.901967 0
M  V30 1121 C 107.475 -4.31119 1.54598 0
M  V30 1122 N 108.966 -4.37858 1.5111 0
M  V30 1123 C 109.701 -5.3818 1.97863 0
M  V30 1124 N 109.197 -6.45083 2.52666 0
M  V30 1125 N 110.99 -5.29487 1.88679 0
M  V30 1126 H 103.141 -1.42823 1.57211 0
M  V30 1127 H 105.404 -0.68235 0.658105 0
M  V30 1128 H 105.11 -2.90605 1.98095 0
M  V30 1129 H 104.984 -3.74563 0.445238 0
M  V30 1130 H 107.371 -2.9475 -0.143617 0
M  V30 1131 H 107.452 -2.12652 1.42171 0
M  V30 1132 H 107.096 -4.36849 2.59085 0
M  V30 1133 H 107.026 -5.16992 1.00132 0
M  V30 1134 H 109.517 -3.61209 1.11068 0
M  V30 1135 H 109.83 -7.17869 2.86155 0
M  V30 1136 H 108.175 -6.45856 2.56701 0
M  V30 1137 H 111.366 -4.44877 1.4561 0
M  V30 1138 H 111.539 -6.07524 2.25429 0
M  V30 1139 N 104.945 -0.338344 -1.53925 0
M  V30 1140 C 105.875 0.51328 -2.27789 0
M  V30 1141 C 106.856 1.107 -1.29149 0
M  V30 1142 O 108.041 1.12937 -1.57984 0
M  V30 1143 C 105.171 1.66697 -3.04679 0
M  V30 1144 C 104.125 1.20183 -4.1078 0
M  V30 1145 C 103.451 2.44363 -4.75595 0
M  V30 1146 C 104.751 0.30605 -5.21403 0
M  V30 1147 H 106.445 -0.102883 -2.99223 0
M  V30 1148 H 103.991 -0.0509219 -1.4391 0
M  V30 1149 H 105.944 2.26915 -3.55088 0
M  V30 1150 H 104.668 2.30995 -2.30887 0
M  V30 1151 H 103.327 0.622499 -3.61276 0
M  V30 1152 H 102.975 3.07057 -3.98403 0
M  V30 1153 H 102.675 2.13925 -5.47275 0
M  V30 1154 H 104.199 3.05317 -5.28786 0
M  V30 1155 H 105.613 0.814929 -5.67478 0
M  V30 1156 H 104.01 0.0937929 -6.00027 0
M  V30 1157 H 105.08 -0.65921 -4.80398 0
M  V30 1158 N 106.423 1.57458 -0.0668435 0
M  V30 1159 C 107.353 2.15468 0.899764 0
M  V30 1160 C 108.334 1.08042 1.31381 0
M  V30 1161 O 109.519 1.36054 1.38574 0
M  V30 1162 C 106.649 2.71232 2.16911 0
M  V30 1163 C 105.603 3.83781 1.89463 0
M  V30 1164 C 104.929 4.26127 3.22986 0
M  V30 1165 C 106.229 5.08238 1.20381 0
M  V30 1166 H 107.923 2.96488 0.416529 0
M  V30 1167 H 105.469 1.4262 0.198908 0
M  V30 1168 H 107.422 3.10458 2.84945 0
M  V30 1169 H 106.146 1.87426 2.67468 0
M  V30 1170 H 104.805 3.45051 1.23836 0
M  V30 1171 H 104.453 3.39249 3.71374 0
M  V30 1172 H 104.153 5.01993 3.05413 0
M  V30 1173 H 105.677 4.67966 3.92225 0
M  V30 1174 H 107.091 5.44811 1.78475 0
M  V30 1175 H 105.488 5.89349 1.13083 0
M  V30 1176 H 106.558 4.84558 0.182153 0
M  V30 1177 N 107.901 -0.206675 1.56239 0
M  V30 1178 C 109.126 -0.949474 1.8439 0
M  V30 1179 C 109.551 -1.76549 0.649016 0
M  V30 1180 O 108.909 -1.76782 -0.402231 0
M  V30 1181 C 108.957 -1.83078 3.10668 0
M  V30 1182 O 108.061 -2.9281 2.90407 0
M  V30 1183 H 107.402 -0.268033 0.607499 0
M  V30 1184 H 109.932 -0.215488 2.03462 0
M  V30 1185 H 109.942 -2.2377 3.41161 0
M  V30 1186 H 108.617 -1.23112 3.97261 0
M  V30 1187 H 107.194 -2.55956 2.71184 0
M  V30 1188 N 109.379 -1.50304 -0.473955 0
M  V30 1189 C 110.626 -1.6115 -1.22625 0
M  V30 1190 C 110.954 -0.310517 -1.92005 0
M  V30 1191 O 110.209 0.703419 -1.82621 0
M  V30 1192 C 110.508 -2.73938 -2.29549 0
M  V30 1193 C 110.174 -4.14519 -1.7744 0
M  V30 1194 C 108.836 -4.5277 -1.62949 0
M  V30 1195 C 111.188 -5.02392 -1.3875 0
M  V30 1196 C 108.516 -5.76639 -1.08187 0
M  V30 1197 C 110.868 -6.26805 -0.854309 0
M  V30 1198 C 109.532 -6.63861 -0.696011 0
M  V30 1199 H 108.802 -0.589691 -0.448715 0
M  V30 1200 H 111.449 -1.84228 -0.522705 0
M  V30 1201 H 109.754 -2.44937 -3.05799 0
M  V30 1202 H 111.451 -2.79534 -2.87509 0
M  V30 1203 H 108.041 -3.8434 -1.89685 0
M  V30 1204 H 112.225 -4.73474 -1.4878 0
M  V30 1205 H 107.481 -6.04027 -0.946666 0
M  V30 1206 H 111.655 -6.94258 -0.545843 0
M  V30 1207 H 109.282 -7.59722 -0.26952 0
M  V30 1208 N 110.857 0.726932 -1.39834 0
M  V30 1209 C 111.789 1.85147 -1.35104 0
M  V30 1210 C 112.802 1.60736 -0.258392 0
M  V30 1211 O 113.991 1.70821 -0.517931 0
M  V30 1212 C 111.091 3.21332 -1.07697 0
M  V30 1213 C 110.264 3.73033 -2.28396 0
M  V30 1214 C 109.323 4.87802 -1.97322 0
M  V30 1215 O 108.349 5.01043 -2.70083 0
M  V30 1216 N 109.551 5.72768 -0.944273 0
M  V30 1217 H 112.316 1.89706 -2.32017 0
M  V30 1218 H 109.877 0.908006 -1.3404 0
M  V30 1219 H 111.869 3.95691 -0.849144 0
M  V30 1220 H 110.439 3.11992 -0.194909 0
M  V30 1221 H 109.659 2.89934 -2.6708 0
M  V30 1222 H 110.947 4.0431 -3.08887 0
M  V30 1223 H 110.345 5.64669 -0.341427 0
M  V30 1224 H 108.902 6.4716 -0.776346 0
M  V30 1225 N 112.336 1.25143 0.95797 0
M  V30 1226 C 113.752 1.01892 1.22842 0
M  V30 1227 C 113.952 -0.266311 1.99732 0
M  V30 1228 O 113.008 -0.979913 2.3271 0
M  V30 1229 C 114.321 2.24004 2.00606 0
M  V30 1230 C 115.869 2.28731 2.13662 0
M  V30 1231 C 116.344 3.5049 2.94823 0
M  V30 1232 N 117.835 3.50866 3.02403 0
M  V30 1233 C 118.57 4.4174 3.65586 0
M  V30 1234 N 118.066 5.42882 4.30408 0
M  V30 1235 N 119.859 4.29429 3.62694 0
M  V30 1236 H 112.01 2.07718 0.443493 0
M  V30 1237 H 114.273 0.912031 0.258657 0
M  V30 1238 H 113.979 3.17395 1.51503 0
M  V30 1239 H 113.853 2.26907 3.01319 0
M  V30 1240 H 116.24 1.35865 2.61963 0
M  V30 1241 H 116.321 2.29848 1.12265 0
M  V30 1242 H 115.965 4.43676 2.47213 0
M  V30 1243 H 115.895 3.46617 3.96439 0
M  V30 1244 H 118.386 2.777 2.56302 0
M  V30 1245 H 118.699 6.0844 4.76467 0
M  V30 1246 H 117.044 5.46758 4.29047 0
M  V30 1247 H 120.235 3.49643 3.11236 0
M  V30 1248 H 120.408 5.00448 4.1165 0
M  V30 1249 N 113.814 -1.1601 1.06675 0
M  V30 1250 C 115.044 -1.90251 0.805497 0
M  V30 1251 C 115.452 -1.77891 -0.64431 0
M  V30 1252 O 114.795 -1.12383 -1.45313 0
M  V30 1253 C 114.857 -3.41419 1.12576 0
M  V30 1254 C 114.521 -3.77564 2.57477 0
M  V30 1255 C 115.518 -3.79161 3.55715 0
M  V30 1256 C 113.203 -4.08079 2.92877 0
M  V30 1257 C 115.197 -4.10767 4.8739 0
M  V30 1258 C 112.884 -4.39351 4.24751 0
M  V30 1259 C 113.882 -4.40675 5.21818 0
M  V30 1260 O 113.57 -4.71202 6.51325 0
M  V30 1261 H 113.302 -0.610018 0.291297 0
M  V30 1262 H 115.856 -1.47958 1.4247 0
M  V30 1263 H 114.086 -3.84079 0.449503 0
M  V30 1264 H 115.775 -3.9694 0.84814 0
M  V30 1265 H 116.541 -3.55693 3.29708 0
M  V30 1266 H 112.42 -4.06211 2.17976 0
M  V30 1267 H 115.964 -4.11715 5.63148 0
M  V30 1268 H 111.861 -4.62285 4.50514 0
M  V30 1269 H 112.629 -4.88996 6.56373 0
M  V30 1270 N 115.292 -0.849877 -1.32721 0
M  V30 1271 C 116.539 -0.450923 -1.97416 0
M  V30 1272 C 116.867 0.992376 -1.67279 0
M  V30 1273 O 116.122 1.71048 -0.950845 0
M  V30 1274 C 116.421 -0.631272 -3.51781 0
M  V30 1275 C 116.087 -2.04432 -4.01894 0
M  V30 1276 C 114.749 -2.4308 -4.1529 0
M  V30 1277 C 117.101 -2.96679 -4.28522 0
M  V30 1278 C 114.429 -3.73257 -4.52654 0
M  V30 1279 C 116.781 -4.26349 -4.67343 0
M  V30 1280 C 115.445 -4.64939 -4.78945 0
M  V30 1281 H 114.715 -0.165004 -0.722395 0
M  V30 1282 H 117.362 -1.07901 -1.58207 0
M  V30 1283 H 115.667 0.0800767 -3.91718 0
M  V30 1284 H 117.364 -0.302709 -3.99856 0
M  V30 1285 H 113.954 -1.73419 -3.91949 0
M  V30 1286 H 118.138 -2.68054 -4.17685 0
M  V30 1287 H 113.394 -4.02946 -4.59831 0
M  V30 1288 H 117.568 -4.97895 -4.86902 0
M  V30 1289 H 115.195 -5.65855 -5.07654 0
M  V30 1290 N 116.77 1.45427 -0.607355 0
M  V30 1291 C 117.72 2.27612 0.133038 0
M  V30 1292 C 118.704 1.37307 0.838785 0
M  V30 1293 O 119.896 1.61299 0.728813 0
M  V30 1294 C 117.025 3.24173 1.12991 0
M  V30 1295 C 116.111 4.21965 0.425011 0
M  V30 1296 N 116.502 5.02982 -0.533217 0
M  V30 1297 C 114.8 4.40899 0.672593 0
M  V30 1298 C 115.501 5.73931 -0.947518 0
M  V30 1299 N 114.477 5.42819 -0.291321 0
M  V30 1300 H 118.279 2.87649 -0.602935 0
M  V30 1301 H 115.793 1.56576 -0.431006 0
M  V30 1302 H 117.79 3.81783 1.67473 0
M  V30 1303 H 116.45 2.65696 1.86644 0
M  V30 1304 H 117.461 5.09843 -0.90995 0
M  V30 1305 H 114.138 3.93547 1.39382 0
M  V30 1306 H 115.528 6.49037 -1.73782 0
M  V30 1307 N 118.248 0.346503 1.53744 0
M  V30 1308 C 119.211 -0.496439 2.23759 0
M  V30 1309 C 120.211 -1.0252 1.2388 0
M  V30 1310 O 121.401 -0.913974 1.48297 0
M  V30 1311 C 118.533 -1.69187 2.95954 0
M  V30 1312 H 119.726 0.115952 2.99676 0
M  V30 1313 H 117.279 0.0978939 1.55993 0
M  V30 1314 H 118.014 -2.34288 2.24231 0
M  V30 1315 H 117.799 -1.31989 3.69217 0
M  V30 1316 H 119.289 -2.28969 3.49232 0
M  V30 1317 N 119.726 -1.57421 0.075193 0
M  V30 1318 C 120.951 -1.98364 -0.605515 0
M  V30 1319 C 121.376 -0.953383 -1.62149 0
M  V30 1320 O 120.734 0.0806053 -1.81121 0
M  V30 1321 C 120.782 -3.38332 -1.24756 0
M  V30 1322 O 119.886 -3.37959 -2.36342 0
M  V30 1323 H 119.227 -0.645553 -0.155428 0
M  V30 1324 H 121.757 -2.04044 0.150714 0
M  V30 1325 H 121.767 -3.75591 -1.5936 0
M  V30 1326 H 120.442 -4.12846 -0.503129 0
M  V30 1327 H 119.019 -3.12474 -2.03506 0
M  V30 1328 N 121.204 0.198386 -1.56346 0
M  V30 1329 C 122.62 0.549085 -1.49857 0
M  V30 1330 C 122.82 1.86016 -0.774611 0
M  V30 1331 O 121.876 2.50416 -0.323776 0
M  V30 1332 C 123.189 0.606868 -2.94512 0
M  V30 1333 C 124.737 0.695925 -3.05165 0
M  V30 1334 C 125.212 0.784848 -4.51225 0
M  V30 1335 N 126.703 0.848463 -4.55363 0
M  V30 1336 C 127.438 0.937378 -5.65686 0
M  V30 1337 N 126.934 0.9888 -6.85707 0
M  V30 1338 N 128.727 0.974312 -5.53592 0
M  V30 1339 H 120.878 -0.661655 -2.01831 0
M  V30 1340 H 123.141 -0.235261 -0.918344 0
M  V30 1341 H 122.847 -0.28732 -3.50524 0
M  V30 1342 H 122.721 1.46268 -3.47686 0
M  V30 1343 H 125.108 1.58055 -2.49204 0
M  V30 1344 H 125.189 -0.186022 -2.55123 0
M  V30 1345 H 124.833 -0.0954072 -5.0781 0
M  V30 1346 H 124.763 1.68255 -4.98997 0
M  V30 1347 H 127.254 0.818103 -3.68938 0
M  V30 1348 H 127.567 1.05707 -7.65536 0
M  V30 1349 H 125.912 0.957534 -6.88372 0
M  V30 1350 H 129.103 0.930954 -4.58749 0
M  V30 1351 H 129.276 1.04015 -6.39597 0
M  V30 1352 N 122.682 1.50554 0.465978 0
M  V30 1353 C 123.612 1.72722 1.57128 0
M  V30 1354 C 124.593 0.576294 1.6004 0
M  V30 1355 O 125.778 0.81598 1.76225 0
M  V30 1356 C 122.908 1.82605 2.95419 0
M  V30 1357 C 121.862 2.97835 3.07373 0
M  V30 1358 C 121.188 2.92867 4.47363 0
M  V30 1359 C 122.488 4.38265 2.84114 0
M  V30 1360 H 124.182 2.65267 1.38829 0
M  V30 1361 H 121.728 1.2765 0.666441 0
M  V30 1362 H 123.681 1.96698 3.72677 0
M  V30 1363 H 122.405 0.866858 3.14886 0
M  V30 1364 H 121.064 2.83401 2.3255 0
M  V30 1365 H 120.712 1.94783 4.63755 0
M  V30 1366 H 120.412 3.70227 4.56296 0
M  V30 1367 H 121.936 3.09015 5.26633 0
M  V30 1368 H 123.35 4.53198 3.51118 0
M  V30 1369 H 121.747 5.17115 3.04487 0
M  V30 1370 H 122.817 4.50281 1.7993 0
M  V30 1371 N 124.16 -0.719506 1.40217 0
M  V30 1372 C 125.09 -1.8465 1.42922 0
M  V30 1373 C 126.071 -1.67599 0.29062 0
M  V30 1374 O 127.256 -1.87688 0.498677 0
M  V30 1375 C 124.386 -3.22565 1.28722 0
M  V30 1376 C 123.34 -3.54281 2.40144 0
M  V30 1377 C 122.666 -4.91298 2.11023 0
M  V30 1378 C 123.966 -3.55676 3.82481 0
M  V30 1379 H 125.66 -1.82644 2.37237 0
M  V30 1380 H 123.206 -0.877305 1.1419 0
M  V30 1381 H 125.159 -4.01095 1.29232 0
M  V30 1382 H 123.883 -3.25137 0.308811 0
M  V30 1383 H 122.542 -2.78088 2.38877 0
M  V30 1384 H 122.19 -4.90468 1.11582 0
M  V30 1385 H 121.89 -5.13485 2.8567 0
M  V30 1386 H 123.414 -5.72166 2.13209 0
M  V30 1387 H 124.828 -4.24254 3.85592 0
M  V30 1388 H 123.225 -3.89388 4.56614 0
M  V30 1389 H 124.295 -2.55144 4.12346 0
M  V30 1390 N 125.638 -1.25649 -0.95132 0
M  V30 1391 C 127.054 -1.02542 -1.223 0
M  V30 1392 C 127.254 0.255715 -1.99871 0
M  V30 1393 O 126.31 0.967558 -2.33226 0
M  V30 1394 C 127.623 -2.25065 -1.99415 0
M  V30 1395 C 129.171 -2.29861 -2.12446 0
M  V30 1396 C 129.646 -3.52048 -2.92961 0
M  V30 1397 N 131.137 -3.52465 -3.00538 0
M  V30 1398 C 131.872 -4.43672 -3.63239 0
M  V30 1399 N 131.368 -5.45157 -4.27523 0
M  V30 1400 N 133.161 -4.31346 -3.60412 0
M  V30 1401 H 125.312 -2.07951 -0.432471 0
M  V30 1402 H 127.575 -0.91339 -0.253816 0
M  V30 1403 H 127.281 -3.18194 -1.49817 0
M  V30 1404 H 127.155 -2.28502 -3.00111 0
M  V30 1405 H 129.542 -1.37252 -2.61239 0
M  V30 1406 H 129.623 -2.3044 -1.11044 0
M  V30 1407 H 129.267 -4.44981 -2.44856 0
M  V30 1408 H 129.197 -3.48715 -3.94596 0
M  V30 1409 H 131.688 -2.79056 -2.54826 0
M  V30 1410 H 132.001 -6.10958 -4.73234 0
M  V30 1411 H 130.346 -5.49025 -4.26141 0
M  V30 1412 H 133.537 -3.51288 -3.09377 0
M  V30 1413 H 133.71 -5.02624 -4.0899 0
M  V30 1414 N 127.117 1.15442 -1.07289 0
M  V30 1415 C 128.365 1.85845 -0.794096 0
M  V30 1416 C 128.686 1.82692 0.681809 0
M  V30 1417 O 127.956 1.26741 1.49377 0
M  V30 1418 H 126.536 0.688089 -0.290763 0
M  V30 1419 H 129.198 1.39947 -1.3565 0
M  V30 1420 H 128.294 2.91001 -1.12804 0
M  V30 1421 N 128.595 0.856903 1.32268 0
M  V30 1422 C 129.844 0.457599 1.96441 0
M  V30 1423 C 130.157 -0.992426 1.68553 0
M  V30 1424 O 131.363 -1.49727 2.26482 0
M  V30 1425 C 129.819 0.767358 3.51624 0
M  V30 1426 C 129.427 2.23326 3.88367 0
M  V30 1427 C 131.171 0.435887 4.22256 0
M  V30 1428 C 129.078 2.48613 5.36606 0
M  V30 1429 H 128.008 0.167387 0.735185 0
M  V30 1430 H 130.659 1.048 1.5063 0
M  V30 1431 H 129.041 0.106367 3.95857 0
M  V30 1432 H 130.215 2.93623 3.55137 0
M  V30 1433 H 128.53 2.52948 3.30766 0
M  V30 1434 H 131.127 0.602202 5.31298 0
M  V30 1435 H 131.47 -0.622672 4.11617 0
M  V30 1436 H 132.003 1.05286 3.83614 0
M  V30 1437 H 128.742 3.53101 5.52268 0
M  V30 1438 H 128.262 1.82896 5.71235 0
M  V30 1439 H 129.941 2.32676 6.03714 0
M  V30 1440 N 130.073 -1.45103 0.615059 0
M  V30 1441 C 131.322 -2.01396 0.110718 0
M  V30 1442 C 131.635 -1.48834 -1.26916 0
M  V30 1443 O 132.841 -1.97152 -1.86664 0
M  V30 1444 C 131.297 -3.59599 0.14723 0
M  V30 1445 C 130.905 -4.21158 1.52743 0
M  V30 1446 C 132.649 -4.23428 -0.30148 0
M  V30 1447 C 130.556 -5.71535 1.51992 0
M  V30 1448 H 129.486 -0.753061 0.0376241 0
M  V30 1449 H 132.137 -1.66494 0.77149 0
M  V30 1450 H 130.519 -3.91724 -0.580339 0
M  V30 1451 H 131.693 -4.00594 2.2773 0
M  V30 1452 H 130.008 -3.69552 1.91886 0
M  V30 1453 H 132.605 -5.33703 -0.326392 0
M  V30 1454 H 132.948 -3.94629 -1.32565 0
M  V30 1455 H 133.481 -3.96047 0.373065 0
M  V30 1456 H 130.22 -6.05044 2.52193 0
M  V30 1457 H 129.74 -5.94268 0.81274 0
M  V30 1458 H 131.419 -6.34873 1.24681 0
M  V30 1459 N 131.551 -0.354651 -1.53558 0
M  V30 1460 C 132.962 0.126902 -1.86268 0
M  V30 1461 C 133.313 1.49075 -1.27558 0
M  V30 1462 O 132.438 2.08105 -0.5934 0
M  V30 1463 C 133.033 0.237046 -3.3797 0
M  V30 1464 C 131.592 0.662842 -3.70518 0
M  V30 1465 C 130.739 -0.196652 -2.76602 0
M  V30 1466 H 133.69 -0.573849 -1.47962 0
M  V30 1467 H 133.711 1.06259 -3.65362 0
M  V30 1468 H 133.223 -0.755725 -3.80671 0
M  V30 1469 H 131.324 1.66424 -3.33367 0
M  V30 1470 H 131.437 0.445034 -4.77029 0
M  V30 1471 H 129.801 0.332763 -2.52517 0
M  V30 1472 H 130.584 -1.18676 -3.22135 0
M  V30 1473 N 133.029 1.57378 -0.0835403 0
M  V30 1474 C 133.961 2.10389 0.909338 0
M  V30 1475 C 134.974 1.03858 1.25369 0
M  V30 1476 O 136.163 1.31338 1.20882 0
M  V30 1477 C 133.263 2.55908 2.2218 0
M  V30 1478 C 132.436 3.86145 2.05453 0
M  V30 1479 C 131.495 4.17633 3.20108 0
M  V30 1480 O 130.521 4.87043 2.94581 0
M  V30 1481 N 131.723 3.72113 4.45547 0
M  V30 1482 H 134.488 2.962 0.456657 0
M  V30 1483 H 132.049 1.61579 0.101877 0
M  V30 1484 H 134.041 2.74027 2.97811 0
M  V30 1485 H 132.611 1.75171 2.58909 0
M  V30 1486 H 131.831 3.7729 1.1422 0
M  V30 1487 H 133.119 4.7137 1.91541 0
M  V30 1488 H 132.517 3.16062 4.69171 0
M  V30 1489 H 131.074 3.95409 5.18165 0
M  V30 1490 N 134.507 -0.190092 1.56449 0
M  V30 1491 C 135.47 -1.21925 1.9408 0
M  V30 1492 C 136.47 -1.38176 0.822431 0
M  V30 1493 O 137.66 -1.35903 1.08977 0
M  V30 1494 C 134.792 -2.58773 2.21922 0
M  V30 1495 H 135.985 -0.897464 2.86157 0
M  V30 1496 H 133.538 -0.43181 1.50217 0
M  V30 1497 H 134.273 -2.95998 1.32499 0
M  V30 1498 H 134.058 -2.48348 3.03424 0
M  V30 1499 H 135.548 -3.32978 2.52022 0
M  V30 1500 N 135.985 -1.50799 -0.457987 0
M  V30 1501 C 137.396 -1.55152 -1.0385 0
M  V30 1502 C 137.747 -0.362719 -1.92818 0
M  V30 1503 O 136.872 0.522915 -2.09987 0
M  V30 1504 C 137.467 -2.81173 -1.89017 0
M  V30 1505 C 136.026 -2.88164 -2.42154 0
M  V30 1506 C 135.173 -2.49591 -1.20829 0
M  V30 1507 H 138.124 -1.56874 -0.240068 0
M  V30 1508 H 138.145 -2.63769 -2.74238 0
M  V30 1509 H 137.657 -3.67677 -1.24238 0
M  V30 1510 H 135.758 -2.06042 -3.10447 0
M  V30 1511 H 135.871 -3.91356 -2.76364 0
M  V30 1512 H 134.235 -2.02322 -1.54719 0
M  V30 1513 H 135.018 -3.38418 -0.576927 0
M  V30 1514 N 137.463 0.71206 -1.40597 0
M  V30 1515 C 138.393 1.83889 -1.43899 0
M  V30 1516 C 139.374 1.67442 -0.299504 0
M  V30 1517 O 140.559 1.87421 -0.508624 0
M  V30 1518 C 137.689 3.21877 -1.30431 0
M  V30 1519 C 136.643 3.53002 -2.42019 0
M  V30 1520 C 135.969 4.90172 -2.13626 0
M  V30 1521 C 137.269 3.53643 -3.84362 0
M  V30 1522 H 138.963 1.81383 -2.38203 0
M  V30 1523 H 136.509 0.871237 -1.14654 0
M  V30 1524 H 138.462 4.00404 -1.31357 0
M  V30 1525 H 137.186 3.24968 -0.326049 0
M  V30 1526 H 135.845 2.76818 -2.40349 0
M  V30 1527 H 135.493 4.89869 -1.14182 0
M  V30 1528 H 135.193 5.11962 -2.88389 0
M  V30 1529 H 136.717 5.71028 -2.1624 0
M  V30 1530 H 138.131 4.22203 -3.87837 0
M  V30 1531 H 136.528 3.86961 -4.58673 0
M  V30 1532 H 137.598 2.52954 -4.13693 0
M  V30 1533 N 138.941 1.26152 0.944643 0
M  V30 1534 C 139.891 1.04081 2.02857 0
M  V30 1535 C 140.875 -0.0256555 1.6088 0
M  V30 1536 O 142.067 0.190884 1.75968 0
M  V30 1537 C 139.196 0.672118 3.36656 0
M  V30 1538 C 138.282 1.77586 3.85128 0
M  V30 1539 N 138.673 3.01272 4.06287 0
M  V30 1540 C 136.971 1.65867 4.1401 0
M  V30 1541 C 137.672 3.72983 4.46384 0
M  V30 1542 N 136.648 3.00653 4.52889 0
M  V30 1543 H 140.45 1.97968 2.17223 0
M  V30 1544 H 137.964 1.16618 1.13022 0
M  V30 1545 H 139.961 0.495166 4.13949 0
M  V30 1546 H 138.621 -0.259307 3.23663 0
M  V30 1547 H 139.632 3.37213 3.93075 0
M  V30 1548 H 136.309 0.796907 4.09824 0
M  V30 1549 H 137.699 4.792 4.70975 0
M  V30 1550 N 140.419 -1.14872 1.07899 0
M  V30 1551 C 141.349 -2.2193 0.725887 0
M  V30 1552 C 142.33 -1.67622 -0.28927 0
M  V30 1553 O 143.515 -1.93533 -0.160787 0
M  V30 1554 C 140.645 -3.47061 0.128856 0
M  V30 1555 C 139.599 -4.14363 1.07178 0
M  V30 1556 C 138.925 -5.33636 0.337229 0
M  V30 1557 C 140.225 -4.63492 2.40775 0
M  V30 1558 H 141.919 -2.51724 1.62097 0
M  V30 1559 H 139.465 -1.20991 0.780838 0
M  V30 1560 H 141.418 -4.21199 -0.130147 0
M  V30 1561 H 140.142 -3.16617 -0.80134 0
M  V30 1562 H 138.801 -3.42173 1.3158 0
M  V30 1563 H 138.449 -4.99449 -0.596606 0
M  V30 1564 H 138.149 -5.79609 0.965788 0
M  V30 1565 H 139.673 -6.10539 0.0861567 0
M  V30 1566 H 141.087 -5.2913 2.20669 0
M  V30 1567 H 139.484 -5.20148 2.99276 0
M  V30 1568 H 140.554 -3.78834 3.02676 0
M  V30 1569 N 141.898 -0.863906 -1.31812 0
M  V30 1570 C 142.828 -0.330843 -2.31144 0
M  V30 1571 C 143.809 0.575005 -1.60087 0
M  V30 1572 O 144.994 0.493304 -1.8783 0
M  V30 1573 C 142.124 0.47374 -3.44054 0
M  V30 1574 C 141.078 -0.338481 -4.26659 0
M  V30 1575 C 140.404 0.591412 -5.31419 0
M  V30 1576 C 141.704 -1.56926 -4.98168 0
M  V30 1577 H 143.398 -1.16086 -2.75979 0
M  V30 1578 H 140.944 -0.559657 -1.32679 0
M  V30 1579 H 142.897 0.857143 -4.12591 0
M  V30 1580 H 141.621 1.33721 -2.9797 0
M  V30 1581 H 140.28 -0.703754 -3.59782 0
M  V30 1582 H 139.928 1.45199 -4.81587 0
M  V30 1583 H 139.628 0.0519022 -5.87577 0
M  V30 1584 H 141.152 0.97179 -6.02817 0
M  V30 1585 H 142.566 -1.25764 -5.59336 0
M  V30 1586 H 140.963 -2.04739 -5.64094 0
M  V30 1587 H 142.033 -2.32544 -4.25501 0
M  V30 1588 N 143.376 1.44774 -0.622745 0
M  V30 1589 C 144.653 1.95522 -0.0551974 0
M  V30 1590 C 145.033 1.5649 1.41683 0
M  V30 1591 O 144.381 0.834848 2.12703 0
M  V30 1592 C 144.591 3.4796 -0.269242 0
M  V30 1593 C 145.939 4.24306 -0.158014 0
M  V30 1594 O 146.963 3.55637 -0.200162 0
M  V30 1595 O 145.822 5.46471 -0.0558693 0
M  V30 1596 H 142.916 0.826556 0.0271015 0
M  V30 1597 H 145.462 1.54866 -0.693864 0
M  V30 1598 H 144.234 3.6939 -1.29099 0
M  V30 1599 H 143.857 3.95543 0.403966 0
M  V30 1600 N 144.854 0.36279 1.53368 0
M  V30 1601 C 145.764 -0.492994 2.29362 0
M  V30 1602 C 146.78 -1.09507 1.35219 0
M  V30 1603 O 147.956 -1.10662 1.68273 0
M  V30 1604 C 145.021 -1.61855 3.066 0
M  V30 1605 C 144.082 -1.04429 4.16405 0
M  V30 1606 C 143.315 -2.11621 4.89951 0
M  V30 1607 O 143.538 -3.32684 4.63333 0
M  V30 1608 O 142.472 -1.74835 5.75948 0
M  V30 1609 H 146.298 0.125331 3.03441 0
M  V30 1610 H 143.883 0.127253 1.48857 0
M  V30 1611 H 145.765 -2.27302 3.54841 0
M  V30 1612 H 144.44 -2.22233 2.3536 0
M  V30 1613 H 143.347 -0.353819 3.72423 0
M  V30 1614 H 144.68 -0.485113 4.89804 0
M  V30 1615 N 146.332 -1.57332 0.0918853 0
M  V30 1616 C 147.609 -1.85691 -0.614668 0
M  V30 1617 C 147.989 -0.988146 -1.86545 0
M  V30 1618 O 147.337 -0.0597055 -2.28422 0
M  V30 1619 C 147.547 -3.36294 -0.933126 0
M  V30 1620 C 148.895 -4.04275 -1.29796 0
M  V30 1621 O 149.919 -3.41157 -1.02424 0
M  V30 1622 O 148.778 -5.1564 -1.81047 0
M  V30 1623 H 145.872 -0.767802 -0.307261 0
M  V30 1624 H 148.418 -1.69244 0.12434 0
M  V30 1625 H 147.19 -3.91273 -0.0456404 0
M  V30 1626 H 146.813 -3.58076 -1.72822 0
M  V30 1627 N 147.81 0.181792 -1.56548 0
M  V30 1628 C 149.04 0.914618 -1.85252 0
M  V30 1629 C 149.448 1.76791 -0.673914 0
M  V30 1630 O 148.791 1.80009 0.366416 0
M  V30 1631 C 148.853 1.85019 -3.08234 0
M  V30 1632 C 148.517 1.17754 -4.41569 0
M  V30 1633 C 149.514 0.548035 -5.17003 0
M  V30 1634 C 147.199 1.17742 -4.88305 0
M  V30 1635 C 149.193 -0.0726128 -6.37359 0
M  V30 1636 C 146.88 0.552946 -6.08593 0
M  V30 1637 C 147.878 -0.070978 -6.82963 0
M  V30 1638 O 147.566 -0.685635 -8.00971 0
M  V30 1639 H 147.298 0.271695 -0.618998 0
M  V30 1640 H 149.852 0.189944 -2.0452 0
M  V30 1641 H 148.082 2.61491 -2.84885 0
M  V30 1642 H 149.771 2.45195 -3.23472 0
M  V30 1643 H 150.537 0.540174 -4.81982 0
M  V30 1644 H 146.416 1.65246 -4.30366 0
M  V30 1645 H 149.96 -0.560213 -6.95347 0
M  V30 1646 H 145.857 0.558354 -6.43081 0
M  V30 1647 H 146.625 -0.58385 -8.16415 0
M  V30 1648 N 149.288 1.51039 0.449983 0
M  V30 1649 C 150.218 1.74379 1.55288 0
M  V30 1650 C 151.199 0.593236 1.5942 0
M  V30 1651 O 152.384 0.834625 1.7535 0
M  V30 1652 C 149.514 1.85728 2.93466 0
M  V30 1653 C 148.468 3.01078 3.04197 0
M  V30 1654 C 147.794 2.97595 4.44231 0
M  V30 1655 C 149.094 4.41254 2.7945 0
M  V30 1656 H 150.788 2.66725 1.36008 0
M  V30 1657 H 148.334 1.2835 0.652864 0
M  V30 1658 H 150.287 2.0064 3.70569 0
M  V30 1659 H 149.011 0.900207 3.13949 0
M  V30 1660 H 147.67 2.85851 2.29531 0
M  V30 1661 H 147.318 1.99691 4.61663 0
M  V30 1662 H 147.018 3.75046 4.52343 0
M  V30 1663 H 148.542 3.14583 5.23326 0
M  V30 1664 H 149.956 4.56897 3.46292 0
M  V30 1665 H 148.353 5.20315 2.98985 0
M  V30 1666 H 149.423 4.52164 1.75144 0
M  V30 1667 N 150.766 -0.704594 1.40972 0
M  V30 1668 C 152.014 -1.46169 1.39568 0
M  V30 1669 C 152.335 -1.95 0.00253745 0
M  V30 1670 O 151.605 -1.71095 -0.954114 0
M  V30 1671 H 150.185 -0.542326 0.513704 0
M  V30 1672 H 152.847 -0.834553 1.76128 0
M  V30 1673 H 151.943 -2.32922 2.07735 0
M  V30 1674 N 152.244 -1.26651 -0.937939 0
M  V30 1675 C 153.176 -1.04283 -2.04102 0
M  V30 1676 C 154.189 -0.00221014 -1.628 0
M  V30 1677 O 155.378 -0.242645 -1.76843 0
M  V30 1678 C 152.478 -0.557846 -3.34277 0
M  V30 1679 C 151.651 -1.66843 -4.04329 0
M  V30 1680 C 150.71 -1.18095 -5.12777 0
M  V30 1681 O 149.736 -1.87865 -5.37304 0
M  V30 1682 N 150.938 -0.0311006 -5.80492 0
M  V30 1683 H 153.703 -1.9927 -2.23856 0
M  V30 1684 H 151.264 -1.1808 -1.10764 0
M  V30 1685 H 153.256 -0.215836 -4.04124 0
M  V30 1686 H 151.826 0.298523 -3.11171 0
M  V30 1687 H 151.046 -2.18123 -3.28353 0
M  V30 1688 H 152.334 -2.41408 -4.47883 0
M  V30 1689 H 151.732 0.551486 -5.63005 0
M  V30 1690 H 150.289 0.251809 -6.51313 0
M  V30 1691 N 153.722 1.14298 -1.08507 0
M  V30 1692 C 154.685 2.17607 -0.719711 0
M  V30 1693 C 155.685 1.58907 0.245997 0
M  V30 1694 O 156.875 1.74181 0.0254081 0
M  V30 1695 C 154.007 3.40842 -0.0627695 0
M  V30 1696 H 155.2 2.51443 -1.63452 0
M  V30 1697 H 152.753 1.28963 -0.88307 0
M  V30 1698 H 153.488 3.12587 0.863716 0
M  V30 1699 H 153.273 3.84713 -0.757504 0
M  V30 1700 H 154.763 4.17221 0.177786 0
M  V30 1701 N 155.201 0.870884 1.31352 0
M  V30 1702 C 156.617 0.562932 1.49343 0
M  V30 1703 C 156.817 -0.902725 1.80148 0
M  V30 1704 O 155.873 -1.68484 1.88067 0
M  V30 1705 C 157.186 1.46393 2.62659 0
M  V30 1706 C 158.734 1.46607 2.76542 0
M  V30 1707 C 159.209 2.35266 3.92955 0
M  V30 1708 N 160.7 2.33151 4.00243 0
M  V30 1709 C 161.435 2.98471 4.89594 0
M  V30 1710 N 160.931 3.72964 5.8384 0
M  V30 1711 N 162.724 2.87775 4.82848 0
M  V30 1712 H 154.875 1.81923 1.09626 0
M  V30 1713 H 157.138 0.777934 0.541777 0
M  V30 1714 H 156.844 2.50689 2.46674 0
M  V30 1715 H 156.718 1.16314 3.58819 0
M  V30 1716 H 159.105 0.43069 2.9194 0
M  V30 1717 H 159.186 1.8071 1.81046 0
M  V30 1718 H 158.83 3.38881 3.78315 0
M  V30 1719 H 158.76 1.98487 4.87761 0
M  V30 1720 H 161.251 1.79006 3.32814 0
M  V30 1721 H 161.564 4.19932 6.4875 0
M  V30 1722 H 159.909 3.77073 5.83816 0
M  V30 1723 H 163.1 2.29116 4.08195 0
M  V30 1724 H 163.273 3.38961 5.52277 0
M  V30 1725 N 156.679 -1.44442 0.630414 0
M  V30 1726 C 157.629 -2.27794 -0.0968103 0
M  V30 1727 C 158.613 -1.38624 -0.816834 0
M  V30 1728 O 159.805 -1.62438 -0.70306 0
M  V30 1729 C 156.934 -3.25929 -1.07819 0
M  V30 1730 C 156.02 -4.22588 -0.357826 0
M  V30 1731 N 156.411 -5.0207 0.613169 0
M  V30 1732 C 154.709 -4.41914 -0.602365 0
M  V30 1733 C 155.41 -5.72351 1.03871 0
M  V30 1734 N 154.386 -5.42287 0.377642 0
M  V30 1735 H 158.188 -2.86653 0.648621 0
M  V30 1736 H 155.702 -1.55871 0.455862 0
M  V30 1737 H 157.699 -3.84399 -1.61378 0
M  V30 1738 H 156.359 -2.68631 -1.82393 0
M  V30 1739 H 157.37 -5.08331 0.990947 0
M  V30 1740 H 154.047 -3.95714 -1.33103 0
M  V30 1741 H 155.437 -6.4619 1.84086 0
M  V30 1742 N 158.157 -0.370918 -1.53173 0
M  V30 1743 C 159.09 0.516727 -2.22273 0
M  V30 1744 C 160.068 1.07877 -1.21661 0
M  V30 1745 O 161.252 1.13389 -1.50583 0
M  V30 1746 C 158.379 1.71346 -2.92161 0
M  V30 1747 C 157.425 1.27838 -4.0689 0
M  V30 1748 S 158.258 0.275217 -5.34792 0
M  V30 1749 C 159.414 1.47816 -6.08195 0
M  V30 1750 H 159.647 -0.0701054 -2.97217 0
M  V30 1751 H 157.18 -0.155038 -1.5362 0
M  V30 1752 H 159.138 2.39988 -3.3304 0
M  V30 1753 H 157.799 2.27156 -2.16931 0
M  V30 1754 H 156.992 2.17141 -4.54825 0
M  V30 1755 H 156.594 0.671105 -3.6793 0
M  V30 1756 H 158.886 2.40831 -6.33251 0
M  V30 1757 H 159.829 1.04008 -7.0042 0
M  V30 1758 H 160.237 1.68663 -5.38714 0
M  V30 1759 N 159.635 1.57281 -0.100228 0
M  V30 1760 C 160.565 2.17328 0.853857 0
M  V30 1761 C 161.546 1.10804 1.2906 0
M  V30 1762 O 162.731 1.38963 1.35657 0
M  V30 1763 C 159.861 2.75772 2.11109 0
M  V30 1764 C 158.815 3.87713 1.81279 0
M  V30 1765 C 158.141 4.32882 3.13874 0
M  V30 1766 C 159.441 5.10677 1.09574 0
M  V30 1767 H 161.135 2.97305 0.353545 0
M  V30 1768 H 158.681 1.43009 0.168612 0
M  V30 1769 H 160.634 3.16433 2.78296 0
M  V30 1770 H 159.358 1.93057 2.63432 0
M  V30 1771 H 158.017 3.476 1.16489 0
M  V30 1772 H 157.665 3.47051 3.64095 0
M  V30 1773 H 157.365 5.08358 2.94696 0
M  V30 1774 H 158.889 4.7618 3.82211 0
M  V30 1775 H 160.303 5.48474 1.66879 0
M  V30 1776 H 158.7 5.91615 1.00557 0
M  V30 1777 H 159.77 4.84835 0.0793299 0
M  V30 1778 N 161.113 -0.173488 1.56642 0
M  V30 1779 C 162.338 -0.910149 1.86363 0
M  V30 1780 C 162.763 -1.75132 0.686318 0
M  V30 1781 O 162.121 -1.77595 -0.364643 0
M  V30 1782 C 162.169 -1.76447 3.14482 0
M  V30 1783 O 161.273 -2.86584 2.96553 0
M  V30 1784 H 160.614 -0.255086 0.613047 0
M  V30 1785 H 163.144 -0.172283 2.03873 0
M  V30 1786 H 163.154 -2.16483 3.45831 0
M  V30 1787 H 161.829 -1.14658 3.99783 0
M  V30 1788 H 160.406 -2.50146 2.76553 0
M  V30 1789 N 162.591 -1.51276 -0.441967 0
M  V30 1790 C 163.538 -1.72256 -1.53612 0
M  V30 1791 C 164.508 -0.564164 -1.56225 0
M  V30 1792 O 165.693 -0.798074 -1.73307 0
M  V30 1793 C 162.833 -1.84932 -2.91366 0
M  V30 1794 C 161.946 -3.12459 -2.98317 0
M  V30 1795 C 161.081 -3.15758 -4.27166 0
M  V30 1796 C 160.12 -4.37619 -4.27967 0
M  V30 1797 N 159.257 -4.38493 -5.48333 0
M  V30 1798 H 164.097 -2.65654 -1.35026 0
M  V30 1799 H 161.634 -1.31662 -0.656009 0
M  V30 1800 H 163.592 -1.90263 -3.7129 0
M  V30 1801 H 162.222 -0.949461 -3.08521 0
M  V30 1802 H 161.274 -3.1646 -2.11086 0
M  V30 1803 H 162.586 -4.02382 -2.94771 0
M  V30 1804 H 161.74 -3.19979 -5.15459 0
M  V30 1805 H 160.479 -2.23715 -4.33362 0
M  V30 1806 H 159.484 -4.33579 -3.38067 0
M  V30 1807 H 160.709 -5.30921 -4.23438 0
M  V30 1808 H 158.655 -3.49318 -5.55259 0
M  V30 1809 H 158.572 -5.22219 -5.46647 0
M  V30 1810 H 159.84 -4.469 -6.38671 0
M  V30 1811 N 164.069 0.697108 -1.41344 0
M  V30 1812 C 165.315 1.4593 -1.40827 0
M  V30 1813 C 165.648 1.94193 -0.0167098 0
M  V30 1814 O 164.923 1.69425 0.955263 0
M  V30 1815 C 165.206 2.67229 -2.41373 0
M  V30 1816 C 165.059 2.24741 -3.8963 0
M  V30 1817 C 166.378 3.69423 -2.39196 0
M  V30 1818 H 163.497 0.529303 -0.512842 0
M  V30 1819 H 166.139 0.794112 -1.72609 0
M  V30 1820 H 164.289 3.23982 -2.14401 0
M  V30 1821 H 165.961 1.73327 -4.27499 0
M  V30 1822 H 164.204 1.56542 -4.0457 0
M  V30 1823 H 164.875 3.1177 -4.55525 0
M  V30 1824 H 167.351 3.2234 -2.63128 0
M  V30 1825 H 166.227 4.51907 -3.11563 0
M  V30 1826 H 166.488 4.19012 -1.41001 0
M  V30 1827 N 165.547 1.27147 0.931209 0
M  V30 1828 C 166.795 1.13055 1.6752 0
M  V30 1829 C 167.116 -0.324791 1.92276 0
M  V30 1830 O 166.386 -1.22775 1.52654 0
M  V30 1831 H 164.966 0.415391 0.620854 0
M  V30 1832 H 167.628 1.59623 1.11833 0
M  V30 1833 H 166.724 1.65694 2.64485 0
M  V30 1834 N 167.025 -1.13721 1.09112 0
M  V30 1835 C 167.958 -2.18094 0.67158 0
M  V30 1836 C 168.936 -1.59414 -0.320299 0
M  V30 1837 O 170.12 -1.87183 -0.222444 0
M  V30 1838 C 167.247 -3.38698 -0.0111189 0
M  V30 1839 C 166.293 -4.15966 0.942055 0
M  V30 1840 S 167.126 -4.7604 2.45246 0
M  V30 1841 C 168.282 -5.99994 1.78208 0
M  V30 1842 H 168.515 -2.53344 1.55577 0
M  V30 1843 H 166.048 -1.24967 0.906789 0
M  V30 1844 H 168.006 -4.08559 -0.398716 0
M  V30 1845 H 166.667 -3.01756 -0.871905 0
M  V30 1846 H 165.86 -5.02318 0.411396 0
M  V30 1847 H 165.462 -3.51745 1.2709 0
M  V30 1848 H 167.754 -6.68441 1.10424 0
M  V30 1849 H 168.697 -6.57662 2.62463 0
M  V30 1850 H 169.105 -5.50432 1.25238 0
M  V30 1851 N 168.503 -0.877838 -1.30888 0
M  V30 1852 C 169.749 -0.502773 -1.97088 0
M  V30 1853 C 170.104 0.936274 -1.68082 0
M  V30 1854 O 169.397 1.65162 -0.971196 0
M  V30 1855 C 169.591 -0.705748 -3.50363 0
M  V30 1856 C 169.42 -2.16297 -3.94266 0
M  V30 1857 C 168.19 -2.80614 -4.20219 0
M  V30 1858 C 170.388 -3.13606 -4.07622 0
M  V30 1859 N 168.37 -4.17007 -4.50532 0
M  V30 1860 C 169.741 -4.35051 -4.41736 0
M  V30 1861 C 171.796 -3.09491 -3.90026 0
M  V30 1862 C 170.499 -5.52911 -4.60089 0
M  V30 1863 C 172.525 -4.26616 -4.09576 0
M  V30 1864 C 171.887 -5.46825 -4.44029 0
M  V30 1865 H 167.986 -0.233168 -0.746429 0
M  V30 1866 H 170.57 -1.13408 -1.58261 0
M  V30 1867 H 168.741 -0.103976 -3.88261 0
M  V30 1868 H 170.473 -0.298291 -4.03599 0
M  V30 1869 H 167.228 -2.3152 -4.13153 0
M  V30 1870 H 167.652 -4.87426 -4.69834 0
M  V30 1871 H 172.294 -2.17657 -3.62471 0
M  V30 1872 H 170.012 -6.45255 -4.86489 0
M  V30 1873 H 173.598 -4.24894 -3.97438 0
M  V30 1874 H 172.478 -6.35947 -4.58848 0
M  V30 1875 N 169.982 1.44106 -0.638065 0
M  V30 1876 C 171.259 1.95453 -0.0759321 0
M  V30 1877 C 171.639 1.57984 1.40015 0
M  V30 1878 O 170.987 0.857361 2.11806 0
M  V30 1879 C 171.197 3.47655 -0.306132 0
M  V30 1880 C 172.545 4.24114 -0.203008 0
M  V30 1881 O 173.569 3.55405 -0.237871 0
M  V30 1882 O 172.428 5.46381 -0.113827 0
M  V30 1883 H 169.522 0.826797 0.0183332 0
M  V30 1884 H 172.068 1.54122 -0.710251 0
M  V30 1885 H 170.84 3.68 -1.3301 0
M  V30 1886 H 170.463 3.95949 0.361991 0
M  V30 1887 N 171.46 0.379036 1.52974 0
M  V30 1888 C 172.707 -0.206421 2.01445 0
M  V30 1889 C 173.035 -1.47668 1.26587 0
M  V30 1890 O 172.29 -1.92514 0.351675 0
M  V30 1891 C 172.589 -0.53096 3.53434 0
M  V30 1892 C 172.255 0.646546 4.46241 0
M  V30 1893 C 170.917 0.969604 4.7133 0
M  V30 1894 C 173.269 1.43479 5.01062 0
M  V30 1895 C 170.597 2.08263 5.48492 0
M  V30 1896 C 172.949 2.53834 5.7944 0
M  V30 1897 C 171.613 2.86659 6.02812 0
M  V30 1898 H 170.883 -0.0755349 0.73714 0
M  V30 1899 H 173.53 0.514271 1.84465 0
M  V30 1900 H 171.835 -1.33285 3.68432 0
M  V30 1901 H 173.532 -0.996417 3.88423 0
M  V30 1902 H 170.122 0.384734 4.2687 0
M  V30 1903 H 174.306 1.19844 4.81613 0
M  V30 1904 H 169.562 2.34078 5.64816 0
M  V30 1905 H 173.736 3.15319 6.20924 0
M  V30 1906 H 171.363 3.73026 6.62387 0
M  V30 1907 N 172.938 -1.57226 0.108567 0
M  V30 1908 C 174.215 -1.86333 -0.594939 0
M  V30 1909 C 174.595 -1.00788 -1.85486 0
M  V30 1910 O 173.943 -0.0839293 -2.28346 0
M  V30 1911 C 174.153 -3.37265 -0.897405 0
M  V30 1912 C 175.501 -4.05629 -1.25501 0
M  V30 1913 O 176.525 -3.42224 -0.987998 0
M  V30 1914 O 175.384 -5.17531 -1.75567 0
M  V30 1915 H 172.478 -0.771018 -0.2991 0
M  V30 1916 H 175.024 -1.69102 0.142283 0
M  V30 1917 H 173.796 -3.913 -0.00413806 0
M  V30 1918 H 173.419 -3.59889 -1.69014 0
M  V30 1919 N 174.416 0.165178 -1.56732 0
M  V30 1920 C 175.665 0.879143 -1.81532 0
M  V30 1921 C 175.978 1.83144 -0.686842 0
M  V30 1922 O 177.184 2.58823 -0.819944 0
M  V30 1923 C 175.64 1.61388 -3.21686 0
M  V30 1924 C 175.248 0.704904 -4.4242 0
M  V30 1925 C 176.992 2.3157 -3.55774 0
M  V30 1926 C 174.899 1.44022 -5.73595 0
M  V30 1927 H 173.829 0.332033 -0.676957 0
M  V30 1928 H 176.48 0.132008 -1.83025 0
M  V30 1929 H 174.862 2.40599 -3.14529 0
M  V30 1930 H 176.036 -0.0506815 -4.60772 0
M  V30 1931 H 174.351 0.112419 -4.16248 0
M  V30 1932 H 176.948 2.8719 -4.51028 0
M  V30 1933 H 177.291 3.07201 -2.8095 0
M  V30 1934 H 177.824 1.59297 -3.64513 0
M  V30 1935 H 174.563 0.72612 -6.51466 0
M  V30 1936 H 174.083 2.16898 -5.5921 0
M  V30 1937 H 175.762 1.98606 -6.15764 0
M  V30 1938 N 175.894 1.51508 0.433938 0
M  V30 1939 C 177.141 1.64345 1.18309 0
M  V30 1940 C 177.469 0.361315 1.91115 0
M  V30 1941 O 176.724 -0.654753 1.84422 0
M  V30 1942 C 177.023 2.79928 2.22205 0
M  V30 1943 C 176.689 4.19078 1.66387 0
M  V30 1944 C 175.351 4.56932 1.50887 0
M  V30 1945 C 177.703 5.05894 1.25381 0
M  V30 1946 C 175.031 5.79305 0.928608 0
M  V30 1947 C 177.383 6.2885 0.687823 0
M  V30 1948 C 176.047 6.65473 0.519755 0
M  V30 1949 H 175.317 0.601381 0.432923 0
M  V30 1950 H 177.964 1.85549 0.473676 0
M  V30 1951 H 176.269 2.52959 2.99197 0
M  V30 1952 H 177.966 2.87059 2.79997 0
M  V30 1953 H 174.556 3.89234 1.79428 0
M  V30 1954 H 178.74 4.77253 1.36175 0
M  V30 1955 H 173.996 6.06324 0.786186 0
M  V30 1956 H 178.17 6.95461 0.361581 0
M  V30 1957 H 175.797 7.6017 0.0679979 0
M  V30 1958 N 177.372 -0.689602 1.41712 0
M  V30 1959 C 178.302 -1.81577 1.46806 0
M  V30 1960 C 179.283 -1.66945 0.326105 0
M  V30 1961 O 180.468 -1.86588 0.538377 0
M  V30 1962 C 177.598 -3.19762 1.35535 0
M  V30 1963 C 176.552 -3.49107 2.47605 0
M  V30 1964 C 175.878 -4.86711 2.21397 0
M  V30 1965 C 177.178 -3.47483 3.89939 0
M  V30 1966 H 178.872 -1.7757 2.41058 0
M  V30 1967 H 176.418 -0.852887 1.16025 0
M  V30 1968 H 178.371 -3.98263 1.3771 0
M  V30 1969 H 177.095 -3.24409 0.377708 0
M  V30 1970 H 175.754 -2.72959 2.44722 0
M  V30 1971 H 175.402 -4.8799 1.21961 0
M  V30 1972 H 175.102 -5.0731 2.96497 0
M  V30 1973 H 176.626 -5.67515 2.25297 0
M  V30 1974 H 178.04 -4.1598 3.94505 0
M  V30 1975 H 176.437 -3.79615 4.64771 0
M  V30 1976 H 177.507 -2.46341 4.17665 0
M  V30 1977 N 178.85 -1.27639 -0.924453 0
M  V30 1978 C 180.097 -1.14167 -1.67249 0
M  V30 1979 C 180.425 0.311863 -1.91984 0
M  V30 1980 O 179.68 1.24425 -1.51053 0
M  V30 1981 C 179.979 -1.87407 -3.04325 0
M  V30 1982 C 179.645 -3.37249 -2.99289 0
M  V30 1983 C 178.307 -3.7812 -2.97622 0
M  V30 1984 C 180.659 -4.32845 -2.90336 0
M  V30 1985 C 177.987 -5.12944 -2.8479 0
M  V30 1986 C 180.339 -5.6773 -2.79045 0
M  V30 1987 C 179.003 -6.07889 -2.7573 0
M  V30 1988 H 178.273 -0.417766 -0.612007 0
M  V30 1989 H 180.92 -1.58286 -1.07786 0
M  V30 1990 H 179.225 -1.35805 -3.67511 0
M  V30 1991 H 180.922 -1.74408 -3.61086 0
M  V30 1992 H 177.512 -3.04748 -3.01374 0
M  V30 1993 H 181.696 -4.02239 -2.90719 0
M  V30 1994 H 176.952 -5.432 -2.80612 0
M  V30 1995 H 181.126 -6.41472 -2.71083 0
M  V30 1996 H 178.753 -7.12314 -2.65544 0
M  V30 1997 N 180.328 1.1314 -1.09713 0
M  V30 1998 C 181.605 1.80762 -0.747302 0
M  V30 1999 C 181.985 1.96663 0.767265 0
M  V30 2000 O 181.333 1.53706 1.69076 0
M  V30 2001 C 181.543 3.15606 -1.48975 0
M  V30 2002 C 182.891 3.90914 -1.65746 0
M  V30 2003 O 183.915 3.25239 -1.45251 0
M  V30 2004 O 182.774 5.08718 -1.9967 0
M  V30 2005 H 179.868 0.782103 -0.268782 0
M  V30 2006 H 182.414 1.20041 -1.19951 0
M  V30 2007 H 181.186 2.99278 -2.52088 0
M  V30 2008 H 180.809 3.84029 -1.02991 0
M  V30 2009 N 181.806 0.884767 1.30421 0
M  V30 2010 C 183.222 0.57874 1.48737 0
M  V30 2011 C 183.422 -0.883567 1.81095 0
M  V30 2012 O 182.478 -1.6648 1.89844 0
M  V30 2013 C 183.791 1.49171 2.61091 0
M  V30 2014 C 185.339 1.49532 2.74971 0
M  V30 2015 C 185.814 2.39421 3.90438 0
M  V30 2016 N 187.305 2.37383 3.97748 0
M  V30 2017 C 188.04 3.03647 4.86401 0
M  V30 2018 N 187.536 3.79136 5.79852 0
M  V30 2019 N 189.329 2.9288 4.79768 0
M  V30 2020 H 181.48 1.83075 1.0769 0
M  V30 2021 H 183.743 0.783637 0.533495 0
M  V30 2022 H 183.449 2.53291 2.44001 0
M  V30 2023 H 183.323 1.20113 3.57565 0
M  V30 2024 H 185.71 0.46163 2.91467 0
M  V30 2025 H 185.791 1.8262 1.79119 0
M  V30 2026 H 185.435 3.42874 3.74699 0
M  V30 2027 H 185.365 2.03649 4.85628 0
M  V30 2028 H 187.856 1.82525 3.30897 0
M  V30 2029 H 188.169 4.26789 6.4426 0
M  V30 2030 H 186.514 3.83243 5.79784 0
M  V30 2031 H 189.705 2.33433 4.05742 0
M  V30 2032 H 189.878 3.448 5.4865 0
M  V30 2033 N 183.284 -1.43765 0.645699 0
M  V30 2034 C 184.214 -2.33471 -0.0370477 0
M  V30 2035 C 185.195 -1.49042 -0.819779 0
M  V30 2036 O 186.38 -1.77726 -0.782758 0
M  V30 2037 C 183.51 -3.32311 -1.0093 0
M  V30 2038 C 182.464 -4.2667 -0.337201 0
M  V30 2039 C 181.79 -5.1549 -1.42037 0
M  V30 2040 C 183.09 -5.16657 0.765706 0
M  V30 2041 H 184.784 -2.90809 0.712069 0
M  V30 2042 H 182.33 -1.39834 0.343876 0
M  V30 2043 H 184.283 -3.9396 -1.49578 0
M  V30 2044 H 183.007 -2.73213 -1.78948 0
M  V30 2045 H 181.666 -3.66374 0.128771 0
M  V30 2046 H 181.314 -4.52735 -2.1918 0
M  V30 2047 H 181.014 -5.79438 -0.975966 0
M  V30 2048 H 182.538 -5.80012 -1.90838 0
M  V30 2049 H 183.952 -5.72158 0.361702 0
M  V30 2050 H 182.349 -5.89286 1.13413 0
M  V30 2051 H 183.419 -4.56796 1.62683 0
M  V30 2052 N 184.763 -0.387143 -1.52771 0
M  V30 2053 C 185.991 0.195869 -2.05971 0
M  V30 2054 C 186.406 1.40691 -1.25903 0
M  V30 2055 O 185.763 1.79931 -0.305134 0
M  V30 2056 C 185.814 0.56812 -3.57008 0
M  V30 2057 O 185.535 -0.594803 -4.34043 0
M  V30 2058 C 187.036 1.20723 -4.26545 0
M  V30 2059 H 184.256 0.0300578 -0.670326 0
M  V30 2060 H 186.8 -0.551749 -1.96916 0
M  V30 2061 H 184.955 1.26564 -3.66143 0
M  V30 2062 H 185.369 -0.289322 -5.23701 0
M  V30 2063 H 186.843 1.41807 -5.33474 0
M  V30 2064 H 187.32 2.17395 -3.81623 0
M  V30 2065 H 187.926 0.550535 -4.21722 0
M  V30 2066 N 186.241 1.57166 -0.116904 0
M  V30 2067 C 187.189 2.16457 0.851418 0
M  V30 2068 C 188.183 1.11323 1.27686 0
M  V30 2069 O 189.389 1.2963 1.24884 0
M  V30 2070 H 185.764 0.69271 0.292672 0
M  V30 2071 H 187.735 2.96605 0.32685 0
M  V30 2072 C 186.484 2.77689 2.09246 0
M  V30 2073 H 185.807 3.58285 1.77402 0
M  V30 2074 H 187.247 3.22716 2.7501 0
M  V30 2075 C 185.706 1.74667 2.88085 0
M  V30 2076 O 186.236 1.19877 3.83396 0
M  V30 2077 N 184.442 1.44656 2.52038 0
M  V30 2078 H 183.989 1.89402 1.74599 0
M  V30 2079 H 183.947 0.759675 3.05084 0
M  V30 2080 N 187.719 -0.156864 1.56817 0
M  V30 2081 C 188.967 -0.869404 1.82444 0
M  V30 2082 C 189.288 -1.82147 0.69623 0
M  V30 2083 O 188.558 -1.93847 -0.28287 0
M  V30 2084 H 187.138 -0.324043 0.673056 0
M  V30 2085 H 189.8 -0.153224 1.94297 0
M  V30 2086 H 188.896 -1.43761 2.77019 0
M  V30 2087 N 189.197 -1.51736 -0.425897 0
M  V30 2088 C 190.145 -1.74464 -1.53834 0
M  V30 2089 C 191.139 -0.611241 -1.57988 0
M  V30 2090 O 192.345 -0.792899 -1.61596 0
M  V30 2091 H 188.72 -0.551437 -0.511293 0
M  V30 2092 H 190.691 -2.67694 -1.31843 0
M  V30 2093 C 189.44 -1.8972 -2.91379 0
M  V30 2094 H 188.763 -2.76344 -2.88919 0
M  V30 2095 H 190.203 -2.09629 -3.68553 0
M  V30 2096 C 188.662 -0.65992 -3.30374 0
M  V30 2097 O 189.192 0.180083 -4.01296 0
M  V30 2098 N 187.398 -0.500677 -2.86254 0
M  V30 2099 H 186.945 -1.18532 -2.28709 0
M  V30 2100 H 186.903 0.325903 -3.12706 0
M  V30 2101 N 190.675 0.682077 -1.42076 0
M  V30 2102 C 191.9 1.47558 -1.45744 0
M  V30 2103 C 192.325 1.87977 -0.0680981 0
M  V30 2104 O 191.683 1.55522 0.9318 0
M  V30 2105 C 191.731 2.70575 -2.38373 0
M  V30 2106 O 190.835 3.68573 -1.85007 0
M  V30 2107 H 190.176 0.443585 -0.494093 0
M  V30 2108 H 192.706 0.837238 -1.86686 0
M  V30 2109 H 192.716 3.18729 -2.54707 0
M  V30 2110 H 191.391 2.40495 -3.39315 0
M  V30 2111 H 189.968 3.2757 -1.78192 0
M  V30 2112 N 192.153 1.28127 0.917671 0
M  V30 2113 C 193.083 1.14248 2.03641 0
M  V30 2114 C 194.064 0.0412748 1.7005 0
M  V30 2115 O 195.249 0.217566 1.92977 0
M  V30 2116 C 192.379 0.799431 3.37974 0
M  V30 2117 C 191.333 1.85497 3.85713 0
M  V30 2118 C 190.659 1.36565 5.16966 0
M  V30 2119 C 191.959 3.26085 4.08002 0
M  V30 2120 H 193.653 2.07835 2.15511 0
M  V30 2121 H 191.199 1.00064 1.03553 0
M  V30 2122 H 193.152 0.689114 4.15727 0
M  V30 2123 H 191.876 -0.172145 3.26146 0
M  V30 2124 H 190.535 1.95437 3.10161 0
M  V30 2125 H 190.183 0.383253 5.01538 0
M  V30 2126 H 189.883 2.07143 5.49878 0
M  V30 2127 H 191.407 1.26848 5.97279 0
M  V30 2128 H 192.821 3.19089 4.76293 0
M  V30 2129 H 191.218 3.94462 4.52238 0
M  V30 2130 H 192.288 3.70394 3.12948 0
M  V30 2131 N 193.631 -1.12557 1.10312 0
M  V30 2132 C 194.877 -1.84311 0.846011 0
M  V30 2133 C 195.21 -1.83805 -0.626859 0
M  V30 2134 O 194.485 -1.28268 -1.46211 0
M  V30 2135 C 194.768 -3.32048 1.39341 0
M  V30 2136 C 194.621 -3.41016 2.93305 0
M  V30 2137 C 195.94 -4.27764 1.03468 0
M  V30 2138 H 193.059 -0.669192 0.30879 0
M  V30 2139 H 195.701 -1.32057 1.36605 0
M  V30 2140 H 193.851 -3.76678 0.951087 0
M  V30 2141 H 195.523 -3.05031 3.46055 0
M  V30 2142 H 193.766 -2.81603 3.29973 0
M  V30 2143 H 194.437 -4.44948 3.26689 0
M  V30 2144 H 196.913 -3.91253 1.41633 0
M  V30 2145 H 195.789 -5.29549 1.44463 0
M  V30 2146 H 196.05 -4.42064 -0.0560404 0
M  V30 2147 N 195.109 -0.891671 -1.2995 0
M  V30 2148 C 196.337 -0.52866 -2.00032 0
M  V30 2149 C 196.752 0.884574 -1.66795 0
M  V30 2150 O 196.109 1.5827 -0.908669 0
M  V30 2151 C 196.16 -0.701814 -3.54622 0
M  V30 2152 O 195.881 -2.05942 -3.86678 0
M  V30 2153 C 197.382 -0.342683 -4.41973 0
M  V30 2154 H 194.602 -0.203659 -0.639347 0
M  V30 2155 H 197.146 -1.19881 -1.65677 0
M  V30 2156 H 195.301 -0.0789468 -3.8732 0
M  V30 2157 H 195.715 -2.08291 -4.81368 0
M  V30 2158 H 197.189 -0.514709 -5.49595 0
M  V30 2159 H 197.666 0.71975 -4.33262 0
M  V30 2160 H 198.272 -0.942154 -4.14733 0
M  V30 2161 N 196.587 1.43421 -0.653314 0
M  V30 2162 C 197.517 2.33487 0.0246656 0
M  V30 2163 C 198.498 1.49475 0.811863 0
M  V30 2164 O 199.683 1.78139 0.773322 0
M  V30 2165 C 196.813 3.32841 0.99166 0
M  V30 2166 C 195.767 4.26842 0.314568 0
M  V30 2167 C 195.093 5.16236 1.39302 0
M  V30 2168 C 196.393 5.16243 -0.793095 0
M  V30 2169 H 198.087 2.90427 -0.727481 0
M  V30 2170 H 195.633 1.39649 -0.351287 0
M  V30 2171 H 197.586 3.94747 1.47487 0
M  V30 2172 H 196.31 2.74158 1.77497 0
M  V30 2173 H 194.969 3.663 -0.148199 0
M  V30 2174 H 194.617 4.53891 2.16776 0
M  V30 2175 H 194.317 5.79948 0.945223 0
M  V30 2176 H 195.841 5.81015 1.87759 0
M  V30 2177 H 197.255 5.71958 -0.392039 0
M  V30 2178 H 195.652 5.88676 -1.16536 0
M  V30 2179 H 196.722 4.55927 -1.65103 0
M  V30 2180 N 198.065 0.39524 1.52563 0
M  V30 2181 C 198.995 -0.428384 2.29537 0
M  V30 2182 C 199.976 -1.05831 1.33169 0
M  V30 2183 O 201.161 -1.06995 1.62067 0
M  V30 2184 C 198.291 -1.55274 3.10656 0
M  V30 2185 C 197.245 -1.04855 4.14957 0
M  V30 2186 C 196.571 -2.26543 4.84337 0
M  V30 2187 C 197.871 -0.112324 5.22179 0
M  V30 2188 H 199.565 0.213867 2.98635 0
M  V30 2189 H 197.111 0.104298 1.43622 0
M  V30 2190 H 199.064 -2.1358 3.63265 0
M  V30 2191 H 197.788 -2.22266 2.39302 0
M  V30 2192 H 196.447 -0.487985 3.63338 0
M  V30 2193 H 196.095 -2.92059 4.09525 0
M  V30 2194 H 195.795 -1.93466 5.54837 0
M  V30 2195 H 197.319 -2.85481 5.39753 0
M  V30 2196 H 198.733 -0.603752 5.70112 0
M  V30 2197 H 197.13 0.128968 5.99961 0
M  V30 2198 H 198.2 0.837052 4.77621 0
M  V30 2199 N 199.544 -1.57102 0.125237 0
M  V30 2200 C 200.784 -1.97294 -0.534259 0
M  V30 2201 C 201.148 -1.0074 -1.63449 0
M  V30 2202 O 202.349 -1.29893 -2.35332 0
M  V30 2203 C 200.62 -3.41705 -1.04748 0
M  V30 2204 S 202.179 -4.03913 -1.71463 0
M  V30 2205 H 198.997 -0.689517 -0.173458 0
M  V30 2206 H 201.599 -1.94349 0.211797 0
M  V30 2207 H 200.303 -4.09723 -0.235649 0
M  V30 2208 H 199.834 -3.48315 -1.82867 0
M  V30 2209 H 201.849 -3.95182 -3.00077 0
M  V30 2210 N 201.022 0.148545 -1.56898 0
M  V30 2211 C 201.972 1.1886 -1.94567 0
M  V30 2212 C 202.956 1.3863 -0.816735 0
M  V30 2213 O 204.148 1.40218 -1.08018 0
M  V30 2214 C 201.277 2.52262 -2.32849 0
M  V30 2215 C 200.363 2.36092 -3.52309 0
M  V30 2216 N 200.754 1.89674 -4.6889 0
M  V30 2217 C 199.052 2.66848 -3.57363 0
M  V30 2218 C 199.753 1.86511 -5.50989 0
M  V30 2219 N 198.729 2.29766 -4.92655 0
M  V30 2220 H 202.531 0.821793 -2.82177 0
M  V30 2221 H 200.045 0.356615 -1.58436 0
M  V30 2222 H 202.042 3.27447 -2.58039 0
M  V30 2223 H 200.702 2.89727 -1.46589 0
M  V30 2224 H 201.713 1.59663 -4.92674 0
M  V30 2225 H 198.39 3.08198 -2.81639 0
M  V30 2226 H 199.78 1.52128 -6.54452 0
M  V30 2227 N 202.5 1.5196 0.417844 0
M  V30 2228 C 203.43 1.77634 1.51554 0
M  V30 2229 C 204.411 0.626918 1.58126 0
M  V30 2230 O 205.596 0.871632 1.7354 0
M  V30 2231 C 202.726 1.91911 2.8946 0
M  V30 2232 C 201.68 3.07463 2.97743 0
M  V30 2233 C 201.006 3.06951 4.37819 0
M  V30 2234 C 202.306 4.47082 2.70027 0
M  V30 2235 H 204 2.6955 1.3032 0
M  V30 2236 H 201.546 1.29706 0.625492 0
M  V30 2237 H 203.499 2.08455 3.6623 0
M  V30 2238 H 202.223 0.966598 3.11969 0
M  V30 2239 H 200.882 2.90656 2.23416 0
M  V30 2240 H 200.53 2.09438 4.57323 0
M  V30 2241 H 200.23 3.84556 4.44286 0
M  V30 2242 H 201.754 3.25613 5.16535 0
M  V30 2243 H 203.168 4.6414 3.36522 0
M  V30 2244 H 201.565 5.2654 2.87881 0
M  V30 2245 H 202.635 4.55777 1.65514 0
M  V30 2246 N 203.978 -0.674533 1.42435 0
M  V30 2247 C 205.225 -1.43459 1.42919 0
M  V30 2248 C 205.553 -1.94446 0.0457312 0
M  V30 2249 O 204.808 -1.7132 -0.94593 0
M  V30 2250 C 205.107 -2.64767 2.40069 0
M  V30 2251 C 204.773 -2.3232 3.86443 0
M  V30 2252 C 203.435 -2.23182 4.26314 0
M  V30 2253 C 205.787 -2.05977 4.78773 0
M  V30 2254 C 203.115 -1.85827 5.56494 0
M  V30 2255 C 205.467 -1.70125 6.09295 0
M  V30 2256 C 204.131 -1.59498 6.48164 0
M  V30 2257 H 203.401 -0.524952 0.522978 0
M  V30 2258 H 206.048 -0.769097 1.75377 0
M  V30 2259 H 204.353 -3.36349 2.00939 0
M  V30 2260 H 206.05 -3.22949 2.37707 0
M  V30 2261 H 202.64 -2.40334 3.54877 0
M  V30 2262 H 206.824 -2.11969 4.48757 0
M  V30 2263 H 202.08 -1.76168 5.8547 0
M  V30 2264 H 206.254 -1.48767 6.80324 0
M  V30 2265 H 203.881 -1.30322 7.48946 0
M  V30 2266 N 205.456 -1.28612 -0.910864 0
M  V30 2267 C 206.404 -1.1265 -2.03501 0
M  V30 2268 C 207.398 -0.0450054 -1.6934 0
M  V30 2269 O 208.604 -0.203988 -1.7884 0
M  V30 2270 H 204.979 -0.347639 -0.666822 0
M  V30 2271 H 206.95 -2.07849 -2.14106 0
M  V30 2272 C 205.699 -0.808143 -3.38178 0
M  V30 2273 H 205.022 -1.63231 -3.6496 0
M  V30 2274 H 206.462 -0.736426 -4.17556 0
M  V30 2275 C 204.921 0.488226 -3.33344 0
M  V30 2276 O 205.451 1.51766 -3.71927 0
M  V30 2277 N 203.657 0.490009 -2.86439 0
M  V30 2278 H 203.204 -0.348161 -2.55236 0
M  V30 2279 H 203.162 1.35741 -2.83587 0
M  V30 2280 N 206.934 1.1197 -1.10907 0
M  V30 2281 C 208.162 1.87402 -0.876824 0
M  V30 2282 C 208.577 1.79894 0.573025 0
M  V30 2283 O 207.934 1.17629 1.39534 0
M  V30 2284 C 207.985 3.36428 -1.32282 0
M  V30 2285 O 207.706 3.43765 -2.71582 0
M  V30 2286 C 209.207 4.28783 -1.12518 0
M  V30 2287 H 206.427 0.592793 -0.314384 0
M  V30 2288 H 208.971 1.41649 -1.47499 0
M  V30 2289 H 207.126 3.79706 -0.768229 0
M  V30 2290 H 207.54 4.3652 -2.90776 0
M  V30 2291 H 209.014 5.31613 -1.48633 0
M  V30 2292 H 209.491 4.39153 -0.0642394 0
M  V30 2293 H 210.097 3.91291 -1.66648 0
M  V30 2294 N 208.412 0.89855 1.29475 0
M  V30 2295 C 209.362 0.346767 2.25348 0
M  V30 2296 C 210.346 -0.532509 1.51833 0
M  V30 2297 O 211.538 -0.374714 1.72988 0
M  V30 2298 C 208.667 -0.425681 3.40651 0
M  V30 2299 C 207.753 0.46845 4.21505 0
M  V30 2300 N 208.144 1.57514 4.80648 0
M  V30 2301 C 206.442 0.26603 4.45206 0
M  V30 2302 C 207.143 2.12889 5.41344 0
M  V30 2303 N 206.119 1.42208 5.24669 0
M  V30 2304 H 209.921 1.19219 2.68634 0
M  V30 2305 H 207.435 0.749473 1.44072 0
M  V30 2306 H 209.432 -0.837716 4.08397 0
M  V30 2307 H 208.092 -1.26838 2.98902 0
M  V30 2308 H 209.103 1.95789 4.79465 0
M  V30 2309 H 205.78 -0.538394 4.14014 0
M  V30 2310 H 207.17 3.05901 5.98226 0
M  V30 2311 N 209.89 -1.43072 0.660911 0
M  V30 2312 C 211.138 -2.01323 0.177094 0
M  V30 2313 C 211.459 -1.5245 -1.2159 0
M  V30 2314 O 210.729 -0.740322 -1.81373 0
M  V30 2315 H 209.309 -0.744382 0.0624804 0
M  V30 2316 H 211.971 -1.75179 0.854305 0
M  V30 2317 H 211.067 -3.11649 0.167641 0
M  V30 2318 N 211.368 -0.403325 -1.52352 0
M  V30 2319 C 212.298 0.416205 -2.29761 0
M  V30 2320 C 213.279 1.05123 -1.33728 0
M  V30 2321 O 214.464 1.06134 -1.62632 0
M  V30 2322 C 211.594 1.53624 -3.11475 0
M  V30 2323 C 210.548 1.02653 -4.15507 0
M  V30 2324 C 209.874 2.23971 -4.85532 0
M  V30 2325 C 211.174 0.08463 -5.22231 0
M  V30 2326 H 212.868 -0.229701 -2.98518 0
M  V30 2327 H 210.414 -0.111913 -1.43564 0
M  V30 2328 H 212.367 2.1165 -3.64393 0
M  V30 2329 H 211.091 2.20994 -2.40477 0
M  V30 2330 H 209.75 0.46871 -3.63591 0
M  V30 2331 H 209.398 2.89883 -4.11068 0
M  V30 2332 H 209.098 1.90521 -5.55856 0
M  V30 2333 H 210.622 2.82614 -5.41259 0
M  V30 2334 H 212.036 0.573509 -5.70424 0
M  V30 2335 H 210.433 -0.160783 -5.99885 0
M  V30 2336 H 211.503 -0.86237 -4.7717 0
M  V30 2337 N 212.846 1.57033 -0.133567 0
M  V30 2338 C 214.095 1.94861 0.520768 0
M  V30 2339 C 214.408 1.02012 1.66892 0
M  V30 2340 O 215.614 1.29365 2.38699 0
M  V30 2341 C 214.07 3.46362 0.977809 0
M  V30 2342 C 213.678 4.47773 -0.142674 0
M  V30 2343 C 215.422 3.93083 1.60269 0
M  V30 2344 C 213.329 5.90468 0.331883 0
M  V30 2345 H 212.259 0.727453 0.198315 0
M  V30 2346 H 214.91 1.82227 -0.215759 0
M  V30 2347 H 213.292 3.54282 1.7692 0
M  V30 2348 H 214.466 4.51536 -0.919317 0
M  V30 2349 H 212.781 4.10891 -0.675124 0
M  V30 2350 H 215.378 4.97121 1.96914 0
M  V30 2351 H 215.721 3.33876 2.48662 0
M  V30 2352 H 216.254 3.88025 0.876453 0
M  V30 2353 H 212.993 6.53463 -0.516341 0
M  V30 2354 H 212.513 5.90094 1.07469 0
M  V30 2355 H 214.192 6.42179 0.788332 0
M  V30 2356 N 214.325 -0.140222 1.56975 0
M  V30 2357 C 215.275 -1.17827 1.95194 0
M  V30 2358 C 216.259 -1.38195 0.824075 0
M  V30 2359 O 217.451 -1.39643 1.0876 0
M  V30 2360 C 214.58 -2.51024 2.34184 0
M  V30 2361 C 213.666 -2.3422 3.53556 0
M  V30 2362 N 214.057 -1.87185 4.69889 0
M  V30 2363 C 212.355 -2.64949 3.58773 0
M  V30 2364 C 213.056 -1.83586 5.5197 0
M  V30 2365 N 212.032 -2.2715 4.93866 0
M  V30 2366 H 215.834 -0.806817 2.82609 0
M  V30 2367 H 213.348 -0.348208 1.58623 0
M  V30 2368 H 215.345 -3.26074 2.59772 0
M  V30 2369 H 214.005 -2.88945 1.48124 0
M  V30 2370 H 215.016 -1.57048 4.93514 0
M  V30 2371 H 211.693 -3.067 2.8327 0
M  V30 2372 H 213.083 -1.48655 6.55249 0
M  V30 2373 N 215.803 -1.52179 -0.40978 0
M  V30 2374 C 216.753 -1.71857 -1.49831 0
M  V30 2375 C 217.737 -0.572469 -1.50372 0
M  V30 2376 O 218.929 -0.829509 -1.56359 0
M  V30 2377 C 216.058 -1.87206 -2.87765 0
M  V30 2378 C 215.144 -3.07685 -2.91875 0
M  V30 2379 N 215.535 -4.30403 -2.65683 0
M  V30 2380 C 213.833 -3.07505 -3.23043 0
M  V30 2381 C 214.534 -5.11868 -2.76344 0
M  V30 2382 N 213.51 -4.47101 -3.09195 0
M  V30 2383 H 217.312 -2.64381 -1.28375 0
M  V30 2384 H 214.826 -1.50203 -0.617479 0
M  V30 2385 H 216.823 -1.99419 -3.66111 0
M  V30 2386 H 215.483 -0.958814 -3.10221 0
M  V30 2387 H 216.494 -4.58887 -2.4009 0
M  V30 2388 H 213.171 -2.25915 -3.51096 0
M  V30 2389 H 214.561 -6.19634 -2.59814 0
M  V30 2390 N 217.281 0.66697 -1.42791 0
M  V30 2391 C 218.528 1.42699 -1.43678 0
M  V30 2392 C 218.856 1.94419 -0.0560425 0
M  V30 2393 O 218.111 1.7182 0.936831 0
M  V30 2394 C 218.41 2.6349 -2.4147 0
M  V30 2395 C 218.076 2.30267 -3.8767 0
M  V30 2396 C 216.738 2.20918 -4.27491 0
M  V30 2397 C 219.09 2.03435 -4.79858 0
M  V30 2398 C 216.418 1.82873 -5.57471 0
M  V30 2399 C 218.77 1.66892 -6.10188 0
M  V30 2400 C 217.434 1.56058 -6.49001 0
M  V30 2401 H 216.704 0.522171 -0.525755 0
M  V30 2402 H 219.351 0.759785 -1.75783 0
M  V30 2403 H 217.656 3.35279 -2.0272 0
M  V30 2404 H 219.353 3.21684 -2.39417 0
M  V30 2405 H 215.943 2.38449 -3.56146 0
M  V30 2406 H 220.127 2.09586 -4.49875 0
M  V30 2407 H 215.383 1.7306 -5.86396 0
M  V30 2408 H 219.557 1.45157 -6.81104 0
M  V30 2409 H 217.184 1.26348 -7.49627 0
M  V30 2410 N 218.759 1.29093 0.90403 0
M  V30 2411 C 219.706 1.13853 2.00764 0
M  V30 2412 C 220.676 0.0330084 1.66067 0
M  V30 2413 O 221.861 0.199733 1.89752 0
M  V30 2414 C 219.001 0.816537 3.35301 0
M  V30 2415 C 218.114 2.00206 3.82807 0
M  V30 2416 C 217.249 1.61983 5.059 0
M  V30 2417 C 216.288 2.77143 5.45764 0
M  V30 2418 N 215.425 2.39346 6.60044 0
M  V30 2419 H 220.265 2.08276 2.13132 0
M  V30 2420 H 217.802 1.03648 1.04381 0
M  V30 2421 H 219.76 0.610557 4.12708 0
M  V30 2422 H 218.39 -0.090779 3.22672 0
M  V30 2423 H 217.442 2.31988 3.01473 0
M  V30 2424 H 218.754 2.86512 4.08304 0
M  V30 2425 H 217.908 1.37649 5.90879 0
M  V30 2426 H 216.647 0.728202 4.82233 0
M  V30 2427 H 215.652 3.02165 4.59322 0
M  V30 2428 H 216.877 3.66964 5.71414 0
M  V30 2429 H 214.823 1.52665 6.37989 0
M  V30 2430 H 214.74 3.19185 6.85315 0
M  V30 2431 H 216.008 2.1832 7.48303 0
M  V30 2432 N 220.237 -1.11381 1.11499 0
M  V30 2433 C 221.167 -2.19509 0.796125 0
M  V30 2434 C 222.148 -1.68458 -0.235796 0
M  V30 2435 O 223.333 -1.93947 -0.0991344 0
M  V30 2436 C 220.463 -3.46475 0.239205 0
M  V30 2437 C 219.417 -4.10744 1.20307 0
M  V30 2438 C 218.743 -5.32293 0.50683 0
M  V30 2439 C 220.043 -4.55597 2.55399 0
M  V30 2440 H 221.737 -2.46439 1.70024 0
M  V30 2441 H 219.283 -1.18446 0.818935 0
M  V30 2442 H 221.236 -4.214 0.00392006 0
M  V30 2443 H 219.96 -3.19006 -0.700206 0
M  V30 2444 H 218.619 -3.37813 1.42399 0
M  V30 2445 H 218.267 -5.01095 -0.437408 0
M  V30 2446 H 217.967 -5.76243 1.1497 0
M  V30 2447 H 219.491 -6.09956 0.280351 0
M  V30 2448 H 220.905 -5.21841 2.37391 0
M  V30 2449 H 219.302 -5.10363 3.15673 0
M  V30 2450 H 220.372 -3.69013 3.14575 0
M  V30 2451 N 221.715 -0.905404 -1.28997 0
M  V30 2452 C 222.992 -0.453513 -1.9027 0
M  V30 2453 C 223.372 1.06721 -1.82137 0
M  V30 2454 O 222.72 1.91159 -1.25182 0
M  V30 2455 C 222.93 -0.974494 -3.35119 0
M  V30 2456 C 224.278 -1.0216 -4.12127 0
M  V30 2457 O 225.302 -0.922557 -3.44046 0
M  V30 2458 O 224.161 -1.17121 -5.33802 0
M  V30 2459 H 221.255 -0.142347 -0.814657 0
M  V30 2460 H 223.801 -0.995642 -1.37423 0
M  V30 2461 H 222.573 -2.01848 -3.35221 0
M  V30 2462 H 222.196 -0.412706 -3.95452 0
M  V30 2463 N 223.193 1.4272 -0.668489 0
M  V30 2464 C 224.126 2.28111 0.0637898 0
M  V30 2465 C 225.104 1.40705 0.814912 0
M  V30 2466 O 226.288 1.70146 0.81134 0
M  V30 2467 C 223.415 3.20429 1.0974 0
M  V30 2468 C 222.461 4.24197 0.442579 0
M  V30 2469 S 223.294 5.29563 -0.795173 0
M  V30 2470 C 224.45 6.25449 0.237516 0
M  V30 2471 H 224.683 2.8987 -0.660521 0
M  V30 2472 H 222.216 1.47456 -0.457821 0
M  V30 2473 H 224.174 3.74158 1.68868 0
M  V30 2474 H 222.835 2.57818 1.79411 0
M  V30 2475 H 222.028 4.88954 1.22227 0
M  V30 2476 H 221.63 3.73925 -0.0749554 0
M  V30 2477 H 223.922 6.68524 1.09915 0
M  V30 2478 H 224.865 7.07104 -0.375421 0
M  V30 2479 H 225.273 5.61511 0.580167 0
M  V30 2480 N 224.671 0.411399 1.52136 0
M  V30 2481 C 225.917 -0.163888 2.02137 0
M  V30 2482 C 226.25 -1.44597 1.29636 0
M  V30 2483 O 225.525 -1.90272 0.403353 0
M  V30 2484 C 225.808 -0.40927 3.57767 0
M  V30 2485 C 225.661 0.889643 4.40914 0
M  V30 2486 C 226.98 -1.19042 4.23694 0
M  V30 2487 H 224.099 -0.0580896 0.734707 0
M  V30 2488 H 226.741 0.54531 1.82007 0
M  V30 2489 H 224.891 -1.0134 3.7505 0
M  V30 2490 H 226.563 1.52575 4.35337 0
M  V30 2491 H 224.806 1.50011 4.07037 0
M  V30 2492 H 225.477 0.672314 5.4789 0
M  V30 2493 H 227.953 -0.678942 4.10524 0
M  V30 2494 H 226.829 -1.33086 5.32522 0
M  V30 2495 H 227.09 -2.21166 3.82803 0
M  V30 2496 N 226.149 -1.5696 0.141893 0
M  V30 2497 C 227.377 -2.00322 -0.517579 0
M  V30 2498 C 227.792 -1.02193 -1.58752 0
M  V30 2499 O 227.149 -0.0181619 -1.82491 0
M  V30 2500 C 227.2 -3.43618 -1.12289 0
M  V30 2501 O 226.921 -4.37995 -0.0956929 0
M  V30 2502 C 228.422 -4.02231 -1.86347 0
M  V30 2503 H 225.642 -0.657243 -0.135177 0
M  V30 2504 H 228.186 -2.03146 0.234973 0
M  V30 2505 H 226.341 -3.41662 -1.82609 0
M  V30 2506 H 226.755 -5.21729 -0.538469 0
M  V30 2507 H 228.229 -5.04509 -2.23997 0
M  V30 2508 H 228.706 -3.42655 -2.74744 0
M  V30 2509 H 229.312 -4.07802 -1.20737 0
M  V30 2510 N 227.627 0.131896 -1.57047 0
M  V30 2511 C 228.557 1.16384 -2.02428 0
M  V30 2512 C 229.538 1.43936 -0.90644 0
M  V30 2513 O 230.723 1.54599 -1.17528 0
M  V30 2514 C 227.853 2.49328 -2.4177 0
M  V30 2515 C 226.807 2.36266 -3.56879 0
M  V30 2516 C 226.133 3.74057 -3.8208 0
M  V30 2517 C 227.433 1.834 -4.89042 0
M  V30 2518 H 229.127 0.786433 -2.88887 0
M  V30 2519 H 226.673 0.376855 -1.38981 0
M  V30 2520 H 228.626 3.21759 -2.7212 0
M  V30 2521 H 227.35 2.88934 -1.52266 0
M  V30 2522 H 226.009 1.66286 -3.26718 0
M  V30 2523 H 225.657 4.11125 -2.89803 0
M  V30 2524 H 225.357 3.66174 -4.59554 0
M  V30 2525 H 226.881 4.48012 -4.1487 0
M  V30 2526 H 228.295 2.45636 -5.18011 0
M  V30 2527 H 226.692 1.8637 -5.70426 0
M  V30 2528 H 227.762 0.790662 -4.7841 0
M  V30 2529 N 229.106 1.52395 0.401703 0
M  V30 2530 C 230.056 1.72649 1.48917 0
M  V30 2531 C 231.04 0.580436 1.50066 0
M  V30 2532 O 232.232 0.83779 1.55917 0
M  V30 2533 C 229.361 1.88729 2.86769 0
M  V30 2534 C 228.447 3.09228 2.90239 0
M  V30 2535 N 228.838 4.31805 2.63396 0
M  V30 2536 C 227.136 3.09214 3.21408 0
M  V30 2537 C 227.837 5.13326 2.73625 0
M  V30 2538 N 226.813 4.48735 3.06819 0
M  V30 2539 H 230.615 2.65058 1.26971 0
M  V30 2540 H 228.129 1.50528 0.609504 0
M  V30 2541 H 230.126 2.01358 3.65049 0
M  V30 2542 H 228.786 0.975252 3.09708 0
M  V30 2543 H 229.797 4.60154 2.37653 0
M  V30 2544 H 226.474 2.27774 3.49893 0
M  V30 2545 H 227.864 6.21003 2.56524 0
M  V30 2546 N 230.584 -0.659388 1.43143 0
M  V30 2547 C 232 -0.974337 1.26407 0
M  V30 2548 C 232.2 -2.007 0.179341 0
M  V30 2549 O 231.256 -2.4856 -0.444295 0
M  V30 2550 C 232.569 -1.46447 2.62628 0
M  V30 2551 C 234.117 -1.58144 2.7011 0
M  V30 2552 C 234.592 -2.1055 4.06734 0
M  V30 2553 N 236.083 -2.17861 4.08767 0
M  V30 2554 C 236.818 -2.59519 5.1131 0
M  V30 2555 N 236.314 -3.00518 6.24228 0
M  V30 2556 N 238.107 -2.59404 4.98664 0
M  V30 2557 H 230.258 0.0240528 2.12386 0
M  V30 2558 H 232.521 -0.0518065 0.946583 0
M  V30 2559 H 232.227 -0.780123 3.42939 0
M  V30 2560 H 232.101 -2.44058 2.87603 0
M  V30 2561 H 234.488 -2.25682 1.90136 0
M  V30 2562 H 234.569 -0.589828 2.48907 0
M  V30 2563 H 234.213 -1.43616 4.87172 0
M  V30 2564 H 234.143 -3.10531 4.25298 0
M  V30 2565 H 236.634 -1.88975 3.27257 0
M  V30 2566 H 236.947 -3.31036 6.98309 0
M  V30 2567 H 235.292 -2.98337 6.2771 0
M  V30 2568 H 238.483 -2.26747 4.09516 0
M  V30 2569 H 238.656 -2.91548 5.78709 0
M  V30 2570 N 232.062 -1.29571 -0.897171 0
M  V30 2571 C 233.309 -1.17689 -1.6479 0
M  V30 2572 C 233.637 0.27107 -1.92602 0
M  V30 2573 O 232.892 1.21193 -1.53658 0
M  V30 2574 C 233.191 -1.9382 -3.00281 0
M  V30 2575 C 232.857 -3.43522 -2.92068 0
M  V30 2576 C 231.519 -3.84348 -2.89535 0
M  V30 2577 C 233.871 -4.38906 -2.81089 0
M  V30 2578 C 231.199 -5.18869 -2.73846 0
M  V30 2579 C 233.551 -5.73521 -2.66939 0
M  V30 2580 C 232.215 -6.13601 -2.62774 0
M  V30 2581 H 231.485 -0.430654 -0.603008 0
M  V30 2582 H 234.132 -1.60536 -1.04404 0
M  V30 2583 H 232.437 -1.4357 -3.64547 0
M  V30 2584 H 234.134 -1.82028 -3.57305 0
M  V30 2585 H 230.724 -3.11072 -2.94842 0
M  V30 2586 H 234.908 -4.08315 -2.82121 0
M  V30 2587 H 230.164 -5.4903 -2.69027 0
M  V30 2588 H 234.338 -6.47078 -2.57416 0
M  V30 2589 H 231.965 -7.17786 -2.50375 0
M  V30 2590 N 233.54 1.10788 -1.12088 0
M  V30 2591 C 234.47 2.19083 -0.807755 0
M  V30 2592 C 235.451 1.6858 0.226859 0
M  V30 2593 O 236.636 1.93997 0.0888475 0
M  V30 2594 C 233.766 3.46344 -0.257576 0
M  V30 2595 C 232.72 4.101 -1.22483 0
M  V30 2596 C 232.046 5.32016 -0.535052 0
M  V30 2597 C 233.346 4.54236 -2.57811 0
M  V30 2598 H 235.04 2.45534 -1.71328 0
M  V30 2599 H 232.586 1.1801 -0.825205 0
M  V30 2600 H 234.539 4.21392 -0.0262679 0
M  V30 2601 H 233.263 3.19373 0.683278 0
M  V30 2602 H 231.922 3.37054 -1.44189 0
M  V30 2603 H 231.57 5.01319 0.410827 0
M  V30 2604 H 231.27 5.75625 -1.18024 0
M  V30 2605 H 232.794 6.09799 -0.312695 0
M  V30 2606 H 234.208 5.20575 -2.40155 0
M  V30 2607 H 232.605 5.08682 -3.18375 0
M  V30 2608 H 233.675 3.6734 -3.16528 0
M  V30 2609 N 235.018 0.912232 1.28515 0
M  V30 2610 C 236.264 0.545405 1.95328 0
M  V30 2611 C 236.597 -0.908313 1.71649 0
M  V30 2612 O 235.872 -1.64575 1.03659 0
M  V30 2613 C 236.155 0.853483 3.4984 0
M  V30 2614 C 236.008 2.35982 3.82926 0
M  V30 2615 C 237.327 0.348589 4.38717 0
M  V30 2616 H 234.446 0.199626 0.709449 0
M  V30 2617 H 237.088 1.1412 1.5191 0
M  V30 2618 H 235.238 0.34643 3.86952 0
M  V30 2619 H 236.91 2.93738 3.55691 0
M  V30 2620 H 235.153 2.81543 3.30024 0
M  V30 2621 H 235.824 2.52593 4.90816 0
M  V30 2622 H 238.3 0.78294 4.08668 0
M  V30 2623 H 237.176 0.593242 5.45685 0
M  V30 2624 H 237.437 -0.751049 4.35674 0
M  V30 2625 N 236.496 -1.42363 0.676048 0
M  V30 2626 C 237.429 -2.28141 -0.0516916 0
M  V30 2627 C 238.407 -1.41135 -0.807439 0
M  V30 2628 O 239.591 -1.70573 -0.802305 0
M  V30 2629 C 236.718 -3.21007 -1.08039 0
M  V30 2630 C 235.764 -4.24426 -0.420076 0
M  V30 2631 S 236.597 -5.29134 0.823246 0
M  V30 2632 C 237.753 -6.25566 -0.204344 0
M  V30 2633 H 237.986 -2.89515 0.675884 0
M  V30 2634 H 235.519 -1.47211 0.465635 0
M  V30 2635 H 237.477 -3.75048 -1.66881 0
M  V30 2636 H 236.138 -2.58766 -1.78042 0
M  V30 2637 H 235.331 -4.89596 -1.19633 0
M  V30 2638 H 234.933 -3.7388 0.0947845 0
M  V30 2639 H 237.225 -6.69098 -1.06369 0
M  V30 2640 H 238.168 -7.06895 0.412915 0
M  V30 2641 H 238.576 -5.61811 -0.55038 0
M  V30 2642 N 237.974 -0.419461 -1.51915 0
M  V30 2643 C 239.22 0.153166 -2.02221 0
M  V30 2644 C 239.553 1.43907 -1.30401 0
M  V30 2645 O 238.828 1.90055 -0.413438 0
M  V30 2646 C 239.111 0.390291 -3.57979 0
M  V30 2647 C 238.964 -0.913014 -4.40436 0
M  V30 2648 C 240.283 1.16794 -4.2432 0
M  V30 2649 H 237.402 0.0541924 -0.735005 0
M  V30 2650 H 240.044 -0.554955 -1.81715 0
M  V30 2651 H 238.194 0.993491 -3.75582 0
M  V30 2652 H 239.866 -1.54882 -4.34522 0
M  V30 2653 H 238.109 -1.52168 -4.06236 0
M  V30 2654 H 238.78 -0.701361 -5.47526 0
M  V30 2655 H 241.256 0.657161 -4.10878 0
M  V30 2656 H 240.132 1.3026 -5.3322 0
M  V30 2657 H 240.393 2.19132 -3.83971 0
M  V30 2658 N 239.452 1.56882 -0.150215 0
M  V30 2659 C 240.384 2.14057 0.819286 0
M  V30 2660 C 241.397 1.09082 1.20851 0
M  V30 2661 O 242.586 1.36347 1.15203 0
M  V30 2662 C 239.686 2.65102 2.11127 0
M  V30 2663 C 238.859 3.94511 1.88891 0
M  V30 2664 C 237.918 4.30834 3.02107 0
M  V30 2665 O 236.944 4.99099 2.73659 0
M  V30 2666 N 238.146 3.90676 4.29363 0
M  V30 2667 H 240.911 2.97871 0.330618 0
M  V30 2668 H 238.472 1.61866 0.0332538 0
M  V30 2669 H 240.464 2.86411 2.85921 0
M  V30 2670 H 239.034 1.85994 2.51247 0
M  V30 2671 H 238.254 3.81795 0.981152 0
M  V30 2672 H 239.542 4.7907 1.71376 0
M  V30 2673 H 238.94 3.35677 4.55343 0
M  V30 2674 H 237.497 4.1703 5.00928 0
M  V30 2675 N 240.93 -0.123565 1.57115 0
M  V30 2676 C 241.84 -1.17074 2.033 0
M  V30 2677 C 242.856 -1.4561 0.952559 0
M  V30 2678 O 244.032 -1.56817 1.26374 0
M  V30 2679 C 241.097 -2.47857 2.42421 0
M  V30 2680 C 240.158 -2.26758 3.64526 0
M  V30 2681 C 239.391 -3.51305 4.01771 0
M  V30 2682 O 239.614 -4.5843 3.39409 0
M  V30 2683 O 238.548 -3.42578 4.94898 0
M  V30 2684 H 242.374 -0.808555 2.92739 0
M  V30 2685 H 239.959 -0.334027 1.45618 0
M  V30 2686 H 241.841 -3.2492 2.68338 0
M  V30 2687 H 240.516 -2.83558 1.5613 0
M  V30 2688 H 239.423 -1.47569 3.43765 0
M  V30 2689 H 240.756 -1.95963 4.51508 0
M  V30 2690 N 242.408 -1.52605 -0.393616 0
M  V30 2691 C 243.685 -1.58001 -1.15304 0
M  V30 2692 C 244.065 -0.370385 -2.07825 0
M  V30 2693 O 243.413 0.641638 -2.19306 0
M  V30 2694 C 243.623 -2.91652 -1.91677 0
M  V30 2695 C 244.971 -3.4522 -2.47201 0
M  V30 2696 O 245.995 -2.93495 -2.01839 0
M  V30 2697 O 244.854 -4.35579 -3.3005 0
M  V30 2698 H 241.948 -0.637068 -0.527327 0
M  V30 2699 H 244.494 -1.64939 -0.399141 0
M  V30 2700 H 243.266 -3.71136 -1.23992 0
M  V30 2701 H 242.889 -2.88077 -2.74039 0
M  V30 2702 N 243.887 0.651787 -1.4349 0
M  V30 2703 C 245.117 1.43728 -1.48411 0
M  V30 2704 C 245.525 1.8893 -0.10103 0
M  V30 2705 O 244.868 1.60182 0.899307 0
M  V30 2706 C 244.93 2.70411 -2.36893 0
M  V30 2707 C 244.594 2.4714 -3.8441 0
M  V30 2708 C 245.591 2.10271 -4.75481 0
M  V30 2709 C 243.276 2.6142 -4.28912 0
M  V30 2710 C 245.27 1.87982 -6.0905 0
M  V30 2711 C 242.957 2.38746 -5.62533 0
M  V30 2712 C 243.955 2.02083 -6.5242 0
M  V30 2713 O 243.643 1.79647 -7.8357 0
M  V30 2714 H 243.375 0.447962 -0.506267 0
M  V30 2715 H 245.929 0.80624 -1.88915 0
M  V30 2716 H 244.159 3.36079 -1.91278 0
M  V30 2717 H 245.848 3.32364 -2.33 0
M  V30 2718 H 246.614 1.98814 -4.42378 0
M  V30 2719 H 242.493 2.88931 -3.59222 0
M  V30 2720 H 246.037 1.5929 -6.7917 0
M  V30 2721 H 241.934 2.49806 -5.95203 0
M  V30 2722 H 242.702 1.9406 -7.95162 0
M  V30 2723 N 245.365 1.30045 0.890287 0
M  V30 2724 C 246.315 1.12592 1.9826 0
M  V30 2725 C 247.299 0.0426021 1.60844 0
M  V30 2726 O 248.491 0.265346 1.75 0
M  V30 2727 C 245.62 0.814301 3.33503 0
M  V30 2728 C 244.706 1.93761 3.7725 0
M  V30 2729 N 245.097 3.18232 3.93143 0
M  V30 2730 C 243.395 1.83277 4.06602 0
M  V30 2731 C 244.096 3.9158 4.30163 0
M  V30 2732 N 243.072 3.19591 4.3973 0
M  V30 2733 H 246.874 2.07003 2.08631 0
M  V30 2734 H 244.388 1.21307 1.07974 0
M  V30 2735 H 246.385 0.67029 4.11476 0
M  V30 2736 H 245.045 -0.121797 3.24471 0
M  V30 2737 H 246.056 3.53581 3.78419 0
M  V30 2738 H 242.733 0.97001 4.06075 0
M  V30 2739 H 244.123 4.98744 4.50226 0
M  V30 2740 N 246.843 -1.10192 1.12674 0
M  V30 2741 C 248.068 -1.86523 0.906853 0
M  V30 2742 C 248.493 -1.80221 -0.538711 0
M  V30 2743 O 247.851 -1.17396 -1.38158 0
M  V30 2744 C 247.899 -3.32758 1.3894 0
M  V30 2745 O 247.003 -4.08449 0.5695 0
M  V30 2746 H 246.344 -0.578678 0.325619 0
M  V30 2747 H 248.874 -1.39203 1.49946 0
M  V30 2748 H 248.884 -3.83608 1.38958 0
M  V30 2749 H 247.559 -3.36661 2.44197 0
M  V30 2750 H 246.136 -3.67427 0.636528 0
M  V30 2751 N 248.321 -0.919034 -1.28029 0
M  V30 2752 C 249.253 -0.368762 -2.26214 0
M  V30 2753 C 250.266 0.495716 -1.55069 0
M  V30 2754 O 251.455 0.30974 -1.75792 0
M  V30 2755 C 248.555 0.491049 -3.35324 0
M  V30 2756 C 247.728 -0.352133 -4.3598 0
M  V30 2757 C 246.787 0.443622 -5.24327 0
M  V30 2758 O 245.813 -0.14566 -5.69014 0
M  V30 2759 N 247.015 1.74545 -5.53637 0
M  V30 2760 H 249.78 -1.21273 -2.74068 0
M  V30 2761 H 247.341 -0.785541 -1.41566 0
M  V30 2762 H 249.333 1.03026 -3.91366 0
M  V30 2763 H 247.903 1.23574 -2.87138 0
M  V30 2764 H 247.123 -1.07269 -3.79324 0
M  V30 2765 H 248.411 -0.928883 -5.00249 0
M  V30 2766 H 247.809 2.24666 -5.19174 0
M  V30 2767 H 246.366 2.23138 -6.12416 0
M  V30 2768 N 249.799 1.42003 -0.683588 0
M  V30 2769 C 250.747 2.326 0.000815408 0
M  V30 2770 C 251.741 1.50308 0.781278 0
M  V30 2771 O 252.947 1.66322 0.688251 0
M  V30 2772 H 249.322 0.751758 0.0190616 0
M  V30 2773 H 251.293 2.88011 -0.780528 0
M  V30 2774 C 250.042 3.34978 0.93195 0
M  V30 2775 H 249.365 3.98345 0.340817 0
M  V30 2776 H 250.805 4.00936 1.37936 0
M  V30 2777 C 249.264 2.67925 2.04249 0
M  V30 2778 O 249.794 2.51788 3.12995 0
M  V30 2779 N 248 2.2681 1.81675 0
M  V30 2780 H 247.547 2.40135 0.932363 0
M  V30 2781 H 247.505 1.8228 2.56167 0
M  V30 2782 N 251.277 0.427512 1.51691 0
M  V30 2783 C 252.688 -0.0378867 1.86662 0
M  V30 2784 C 253.039 -1.42819 1.34525 0
M  V30 2785 O 252.164 -2.05037 0.692014 0
M  V30 2786 C 252.759 -0.0755266 3.38716 0
M  V30 2787 C 251.318 -0.485309 3.73258 0
M  V30 2788 C 250.465 0.328399 2.75349 0
M  V30 2789 H 253.416 0.64379 1.45055 0
M  V30 2790 H 253.437 -0.887056 3.70016 0
M  V30 2791 H 252.949 0.936487 3.76632 0
M  V30 2792 H 251.05 -1.50329 3.40928 0
M  V30 2793 H 251.163 -0.21693 4.78609 0
M  V30 2794 H 249.527 -0.211905 2.53817 0
M  V30 2795 H 250.31 1.3391 3.16106 0
M  V30 2796 N 252.755 -1.56801 0.158532 0
M  V30 2797 C 253.985 -2.00568 -0.495583 0
M  V30 2798 C 254.393 -1.03774 -1.58201 0
M  V30 2799 O 253.736 -0.0285797 -1.83678 0
M  V30 2800 C 253.798 -3.40768 -1.14532 0
M  V30 2801 C 253.462 -4.56553 -0.202101 0
M  V30 2802 C 254.459 -5.16714 0.574675 0
M  V30 2803 C 252.144 -5.02197 -0.101648 0
M  V30 2804 C 254.138 -6.20939 1.43924 0
M  V30 2805 C 251.825 -6.06274 0.766508 0
M  V30 2806 C 252.823 -6.65515 1.53555 0
M  V30 2807 O 252.511 -7.67575 2.38922 0
M  V30 2808 H 252.243 -0.662893 -0.13247 0
M  V30 2809 H 254.797 -2.03829 0.253559 0
M  V30 2810 H 253.027 -3.34381 -1.94233 0
M  V30 2811 H 254.716 -3.6857 -1.70033 0
M  V30 2812 H 255.482 -4.82341 0.507167 0
M  V30 2813 H 251.361 -4.55807 -0.689994 0
M  V30 2814 H 254.905 -6.67107 2.03996 0
M  V30 2815 H 250.802 -6.40073 0.835266 0
M  V30 2816 H 251.57 -7.84844 2.32296 0
M  V30 2817 N 254.233 0.115231 -1.57178 0
M  V30 2818 C 255.183 1.14707 -1.97044 0
M  V30 2819 C 256.167 1.36866 -0.845957 0
M  V30 2820 O 257.359 1.37895 -1.10968 0
M  V30 2821 C 254.488 2.47266 -2.38148 0
M  V30 2822 C 253.574 2.28566 -3.57237 0
M  V30 2823 N 253.965 1.79685 -4.72807 0
M  V30 2824 C 252.263 2.59208 -3.62943 0
M  V30 2825 C 252.964 1.74781 -5.54821 0
M  V30 2826 N 251.94 2.19264 -4.97417 0
M  V30 2827 H 255.742 0.761754 -2.83857 0
M  V30 2828 H 253.256 0.322928 -1.59157 0
M  V30 2829 H 255.253 3.219 -2.64927 0
M  V30 2830 H 253.913 2.86552 -1.52702 0
M  V30 2831 H 254.924 1.49177 -4.9595 0
M  V30 2832 H 251.601 3.02154 -2.88113 0
M  V30 2833 H 252.991 1.38212 -6.57531 0
M  V30 2834 N 255.711 1.52812 0.385517 0
M  V30 2835 C 256.659 1.78482 1.49155 0
M  V30 2836 C 257.653 0.652914 1.56312 0
M  V30 2837 O 258.859 0.835464 1.59436 0
M  V30 2838 H 255.234 0.5648 0.496493 0
M  V30 2839 H 257.205 2.71095 1.24699 0
M  V30 2840 C 255.954 1.97378 2.86247 0
M  V30 2841 H 255.277 2.83907 2.81491 0
M  V30 2842 H 256.717 2.19327 3.62866 0
M  V30 2843 C 255.176 0.74728 3.28508 0
M  V30 2844 O 255.706 -0.0736232 4.01633 0
M  V30 2845 N 253.912 0.576396 2.84826 0
M  V30 2846 H 253.459 1.24555 2.25486 0
M  V30 2847 H 253.417 -0.24288 3.1346 0
M  V30 2848 N 257.189 -0.644168 1.43834 0
M  V30 2849 C 258.152 -1.73857 1.49353 0
M  V30 2850 C 259.152 -1.56315 0.377112 0
M  V30 2851 O 260.342 -1.62048 0.639226 0
M  V30 2852 C 257.474 -3.12819 1.35488 0
M  V30 2853 H 258.667 -1.70342 2.46827 0
M  V30 2854 H 256.22 -0.856652 1.30733 0
M  V30 2855 H 256.955 -3.2194 0.390569 0
M  V30 2856 H 256.74 -3.26958 2.16428 0
M  V30 2857 H 258.23 -3.92606 1.42302 0
M  V30 2858 N 258.668 -1.30515 -0.883378 0
M  V30 2859 C 259.914 -1.19607 -1.63774 0
M  V30 2860 C 260.247 0.248314 -1.92606 0
M  V30 2861 O 259.522 1.17742 -1.54813 0
M  V30 2862 C 259.805 -2.02669 -2.97653 0
M  V30 2863 C 259.658 -3.55335 -2.75784 0
M  V30 2864 C 260.977 -1.86573 -3.98596 0
M  V30 2865 H 258.096 -0.435856 -0.594305 0
M  V30 2866 H 260.738 -1.60165 -1.02212 0
M  V30 2867 H 258.888 -1.68208 -3.50197 0
M  V30 2868 H 260.56 -3.99863 -2.30016 0
M  V30 2869 H 258.803 -3.79438 -2.1026 0
M  V30 2870 H 259.474 -4.08745 -3.70988 0
M  V30 2871 H 261.95 -2.16703 -3.55217 0
M  V30 2872 H 260.826 -2.47014 -4.90179 0
M  V30 2873 H 261.087 -0.825321 -4.34328 0
M  V30 2874 N 260.146 1.09593 -1.13257 0
M  V30 2875 C 261.096 2.14345 -0.777179 0
M  V30 2876 C 262.08 1.59277 0.227966 0
M  V30 2877 O 263.272 1.76971 0.0321413 0
M  V30 2878 C 260.401 3.42439 -0.242991 0
M  V30 2879 C 259.487 4.04419 -1.27694 0
M  V30 2880 N 259.878 4.40979 -2.47732 0
M  V30 2881 C 258.176 4.31596 -1.12432 0
M  V30 2882 C 258.877 4.89784 -3.13826 0
M  V30 2883 N 257.853 4.87133 -2.41252 0
M  V30 2884 H 261.655 2.40415 -1.69049 0
M  V30 2885 H 259.169 1.26803 -1.01463 0
M  V30 2886 H 261.166 4.16889 0.0298496 0
M  V30 2887 H 259.826 3.17824 0.66467 0
M  V30 2888 H 260.837 4.32396 -2.85051 0
M  V30 2889 H 257.514 4.16595 -0.274684 0
M  V30 2890 H 258.904 5.2755 -4.16102 0
M  V30 2891 N 261.624 0.925811 1.2754 0
M  V30 2892 C 262.587 0.428129 2.25166 0
M  V30 2893 C 263.587 -0.452261 1.54309 0
M  V30 2894 O 264.777 -0.253608 1.72344 0
M  V30 2895 C 261.909 -0.384749 3.38722 0
M  V30 2896 H 263.102 1.29066 2.70706 0
M  V30 2897 H 260.655 0.706323 1.3943 0
M  V30 2898 H 261.39 -1.26618 2.98561 0
M  V30 2899 H 261.175 0.246454 3.91325 0
M  V30 2900 H 262.665 -0.723389 4.11287 0
M  V30 2901 N 263.102 -1.41638 0.69111 0
M  V30 2902 C 264.065 -2.29178 0.0319786 0
M  V30 2903 C 265.065 -1.44153 -0.712496 0
M  V30 2904 O 266.255 -1.65354 -0.548053 0
M  V30 2905 C 263.387 -3.26952 -0.965161 0
M  V30 2906 H 264.58 -2.88959 0.802681 0
M  V30 2907 H 262.133 -1.4955 0.454356 0
M  V30 2908 H 262.868 -2.72142 -1.76378 0
M  V30 2909 H 262.653 -3.89685 -0.434522 0
M  V30 2910 H 264.143 -3.92561 -1.42428 0
M  V30 2911 N 264.58 -0.43555 -1.51462 0
M  V30 2912 C 265.857 0.191364 -1.94662 0
M  V30 2913 C 266.237 1.60254 -1.37411 0
M  V30 2914 O 265.585 2.2152 -0.560458 0
M  V30 2915 C 265.795 0.17091 -3.48581 0
M  V30 2916 C 267.143 0.377357 -4.2292 0
M  V30 2917 O 268.167 0.249104 -3.55328 0
M  V30 2918 O 267.026 0.63247 -5.42828 0
M  V30 2919 H 264.12 0.130932 -0.816569 0
M  V30 2920 H 266.666 -0.4934 -1.62369 0
M  V30 2921 H 265.438 -0.815738 -3.82703 0
M  V30 2922 H 265.061 0.898659 -3.87311 0
M  V30 2923 N 266.058 1.56714 -0.166846 0
M  V30 2924 C 267.304 1.97039 0.479962 0
M  V30 2925 C 267.637 1.05264 1.63197 0
M  V30 2926 O 266.912 0.0988833 1.94248 0
M  V30 2927 C 267.195 3.46867 0.967212 0
M  V30 2928 C 267.048 4.49421 -0.18466 0
M  V30 2929 C 268.367 3.9968 1.84238 0
M  V30 2930 H 265.486 0.71641 0.172992 0
M  V30 2931 H 268.128 1.8832 -0.252079 0
M  V30 2932 H 266.278 3.54428 1.59101 0
M  V30 2933 H 267.95 4.53924 -0.821621 0
M  V30 2934 H 266.193 4.25573 -0.840837 0
M  V30 2935 H 266.864 5.51644 0.198317 0
M  V30 2936 H 269.34 3.94723 1.31655 0
M  V30 2937 H 268.216 5.04941 2.15234 0
M  V30 2938 H 268.477 3.43226 2.78654 0
M  V30 2939 N 267.536 -0.106894 1.57237 0
M  V30 2940 C 268.764 -0.826389 1.8968 0
M  V30 2941 C 269.179 -1.72856 0.759353 0
M  V30 2942 O 268.536 -1.80503 -0.269263 0
M  V30 2943 C 268.587 -1.64967 3.21665 0
M  V30 2944 O 268.308 -0.783804 4.31031 0
M  V30 2945 C 269.809 -2.47326 3.67892 0
M  V30 2946 H 267.029 -0.236927 0.627779 0
M  V30 2947 H 269.573 -0.0876593 2.04312 0
M  V30 2948 H 267.728 -2.34103 3.08666 0
M  V30 2949 H 268.142 -1.35284 5.06753 0
M  V30 2950 H 269.616 -3.00604 4.6297 0
M  V30 2951 H 270.093 -3.25247 2.95146 0
M  V30 2952 H 270.699 -1.83411 3.83719 0
M  V30 2953 N 269.014 -1.53014 -0.377408 0
M  V30 2954 C 269.946 -1.74884 -1.48149 0
M  V30 2955 C 270.959 -0.629433 -1.5014 0
M  V30 2956 O 272.148 -0.905416 -1.53833 0
M  V30 2957 C 269.248 -1.80299 -2.86959 0
M  V30 2958 C 268.421 -3.09776 -3.08801 0
M  V30 2959 C 267.48 -3.06586 -4.27658 0
M  V30 2960 O 266.506 -3.80419 -4.23403 0
M  V30 2961 N 267.708 -2.26578 -5.34455 0
M  V30 2962 H 270.473 -2.70147 -1.29771 0
M  V30 2963 H 268.034 -1.51646 -0.56703 0
M  V30 2964 H 270.026 -1.75657 -3.64591 0
M  V30 2965 H 268.596 -0.92372 -2.98641 0
M  V30 2966 H 267.816 -3.27815 -2.18931 0
M  V30 2967 H 269.104 -3.95366 -3.20255 0
M  V30 2968 H 268.502 -1.66081 -5.40771 0
M  V30 2969 H 267.059 -2.27766 -6.10709 0
M  V30 2970 N 270.492 0.636531 -1.44174 0
M  V30 2971 C 271.455 1.73063 -1.50273 0
M  V30 2972 C 272.455 1.56113 -0.385397 0
M  V30 2973 O 273.645 1.61707 -0.64781 0
M  V30 2974 C 270.777 3.12096 -1.37145 0
M  V30 2975 H 271.97 1.69031 -2.47727 0
M  V30 2976 H 269.523 0.849706 -1.31186 0
M  V30 2977 H 270.258 3.21728 -0.407636 0
M  V30 2978 H 270.043 3.25805 -2.18159 0
M  V30 2979 H 271.533 3.91846 -1.44382 0
M  V30 2980 N 271.97 1.30982 0.876444 0
M  V30 2981 C 272.903 1.12414 1.98591 0
M  V30 2982 C 273.881 0.0294078 1.62573 0
M  V30 2983 O 275.065 0.184598 1.87594 0
M  V30 2984 C 272.192 0.716276 3.3104 0
M  V30 2985 C 271.238 1.81311 3.86042 0
M  V30 2986 S 272.071 3.41727 4.1229 0
M  V30 2987 C 273.227 3.02863 5.47745 0
M  V30 2988 H 273.46 2.06338 2.14037 0
M  V30 2989 H 270.993 1.15393 1.02586 0
M  V30 2990 H 272.951 0.487697 4.07593 0
M  V30 2991 H 271.612 -0.203749 3.13438 0
M  V30 2992 H 270.805 1.48021 4.81774 0
M  V30 2993 H 270.407 1.99641 3.16259 0
M  V30 2994 H 272.699 2.51353 6.29148 0
M  V30 2995 H 273.642 3.97533 5.8598 0
M  V30 2996 H 274.05 2.40487 5.10711 0
M  V30 2997 N 273.449 -1.08991 1.13837 0
M  V30 2998 C 274.399 -2.1393 0.788535 0
M  V30 2999 C 275.383 -1.59396 -0.219516 0
M  V30 3000 O 276.575 -1.76985 -0.0227557 0
M  V30 3001 C 273.704 -3.42305 0.261147 0
M  V30 3002 C 272.79 -4.03736 1.29837 0
M  V30 3003 N 273.181 -4.39659 2.50067 0
M  V30 3004 C 271.479 -4.30993 1.1472 0
M  V30 3005 C 272.18 -4.88113 3.16419 0
M  V30 3006 N 271.156 -4.85846 2.43832 0
M  V30 3007 H 274.958 -2.39516 1.70322 0
M  V30 3008 H 272.472 -1.26263 1.02134 0
M  V30 3009 H 274.469 -4.16899 -0.0077405 0
M  V30 3010 H 273.129 -3.18172 -0.647805 0
M  V30 3011 H 274.14 -4.30878 2.8734 0
M  V30 3012 H 270.817 -4.16444 0.296773 0
M  V30 3013 H 272.207 -5.25336 4.18894 0
M  V30 3014 N 274.927 -0.932562 -1.27047 0
M  V30 3015 C 276.167 -0.582919 -1.95912 0
M  V30 3016 C 276.531 0.860629 -1.71631 0
M  V30 3017 O 277.732 1.31878 -2.34225 0
M  V30 3018 C 276.003 -0.905673 -3.45734 0
M  V30 3019 S 277.562 -0.665277 -4.33727 0
M  V30 3020 H 274.38 -0.215 -0.677714 0
M  V30 3021 H 276.982 -1.20204 -1.54179 0
M  V30 3022 H 275.686 -1.95386 -3.60905 0
M  V30 3023 H 275.217 -0.275939 -3.92431 0
M  V30 3024 H 277.232 0.474635 -4.93925 0
M  V30 3025 N 276.405 1.4127 -0.698611 0
M  V30 3026 C 277.635 2.05205 -0.239644 0
M  V30 3027 C 278.043 1.52684 1.11733 0
M  V30 3028 O 277.386 0.671222 1.70998 0
M  V30 3029 C 277.448 3.59289 -0.123126 0
M  V30 3030 C 277.112 4.34619 -1.41263 0
M  V30 3031 C 278.109 4.63701 -2.35111 0
M  V30 3032 C 275.794 4.73837 -1.66684 0
M  V30 3033 C 277.788 5.30966 -3.52639 0
M  V30 3034 C 275.475 5.40837 -2.84498 0
M  V30 3035 C 276.473 5.69329 -3.77298 0
M  V30 3036 O 276.161 6.34949 -4.93047 0
M  V30 3037 H 275.893 0.66723 -0.108537 0
M  V30 3038 H 278.447 1.81974 -0.952602 0
M  V30 3039 H 276.677 3.81272 0.645628 0
M  V30 3040 H 278.366 4.04797 0.299056 0
M  V30 3041 H 279.132 4.33882 -2.16729 0
M  V30 3042 H 275.011 4.51039 -0.953135 0
M  V30 3043 H 278.555 5.53121 -4.25091 0
M  V30 3044 H 274.452 5.70075 -3.02795 0
M  V30 3045 H 275.22 6.53445 -4.92902 0
M  V30 3046 N 277.883 0.443576 1.51229 0
M  V30 3047 C 278.813 -0.355142 2.30783 0
M  V30 3048 C 279.794 -1.0154 1.36468 0
M  V30 3049 O 280.979 -1.01785 1.65389 0
M  V30 3050 C 278.109 -1.45312 3.15439 0
M  V30 3051 C 277.063 -0.916002 4.18083 0
M  V30 3052 C 276.389 -2.1102 4.91299 0
M  V30 3053 C 277.689 0.0538602 5.22272 0
M  V30 3054 H 279.383 0.308767 2.97804 0
M  V30 3055 H 276.929 0.149937 1.43217 0
M  V30 3056 H 278.882 -2.01914 3.69876 0
M  V30 3057 H 277.606 -2.14541 2.46252 0
M  V30 3058 H 276.265 -0.372145 3.64706 0
M  V30 3059 H 275.913 -2.78882 4.18609 0
M  V30 3060 H 275.613 -1.75717 5.60712 0
M  V30 3061 H 277.137 -2.68164 5.48562 0
M  V30 3062 H 278.551 -0.422069 5.71744 0
M  V30 3063 H 276.948 0.319776 5.99247 0
M  V30 3064 H 278.018 0.98858 4.74716 0
M  V30 3065 N 279.361 -1.56624 0.175154 0
M  V30 3066 C 280.308 -2.18149 -0.753634 0
M  V30 3067 C 281.278 -1.12265 -1.22417 0
M  V30 3068 O 282.463 -1.40432 -1.29165 0
M  V30 3069 C 279.603 -2.82933 -1.97592 0
M  V30 3070 C 278.716 -4.03289 -1.5486 0
M  V30 3071 C 277.851 -4.55988 -2.72485 0
M  V30 3072 C 276.89 -5.68746 -2.26262 0
M  V30 3073 N 276.027 -6.15938 -3.36994 0
M  V30 3074 H 280.867 -2.9717 -0.222195 0
M  V30 3075 H 278.404 -1.46774 -0.0979422 0
M  V30 3076 H 280.362 -3.18653 -2.69288 0
M  V30 3077 H 278.992 -2.06509 -2.481 0
M  V30 3078 H 278.044 -3.73364 -0.728246 0
M  V30 3079 H 279.356 -4.849 -1.16933 0
M  V30 3080 H 278.51 -4.9391 -3.52332 0
M  V30 3081 H 277.249 -3.73443 -3.13674 0
M  V30 3082 H 276.254 -5.30372 -1.44863 0
M  V30 3083 H 277.479 -6.53095 -1.86127 0
M  V30 3084 H 275.425 -5.36321 -3.77751 0
M  V30 3085 H 275.342 -6.92548 -3.03172 0
M  V30 3086 H 276.61 -6.58511 -4.17114 0
M  V30 3087 N 280.839 0.0985539 -1.57292 0
M  V30 3088 C 281.749 1.13824 -2.05137 0
M  V30 3089 C 282.765 1.44076 -0.975604 0
M  V30 3090 O 283.941 1.54786 -1.28853 0
M  V30 3091 C 281.006 2.43969 -2.46333 0
M  V30 3092 C 280.067 2.2093 -3.68087 0
M  V30 3093 C 279.3 3.44869 -4.0731 0
M  V30 3094 O 279.523 4.52972 -3.46659 0
M  V30 3095 O 278.457 3.34661 -5.00285 0
M  V30 3096 H 282.283 0.761881 -2.93988 0
M  V30 3097 H 279.868 0.310818 -1.46131 0
M  V30 3098 H 281.75 3.20609 -2.73473 0
M  V30 3099 H 280.425 2.81038 -1.60621 0
M  V30 3100 H 279.332 1.42081 -3.46069 0
M  V30 3101 H 280.665 1.88755 -4.54568 0
M  V30 3102 N 282.317 1.53212 0.369288 0
M  V30 3103 C 283.728 1.60943 0.946276 0
M  V30 3104 C 284.079 0.47452 1.90375 0
M  V30 3105 O 283.204 -0.399597 2.12679 0
M  V30 3106 C 283.799 2.91715 1.72302 0
M  V30 3107 C 282.358 3.01792 2.24941 0
M  V30 3108 C 281.505 2.56211 1.06072 0
M  V30 3109 H 284.456 1.58007 0.148198 0
M  V30 3110 H 284.477 2.79309 2.58393 0
M  V30 3111 H 283.989 3.74295 1.0259 0
M  V30 3112 H 282.09 2.23791 2.97906 0
M  V30 3113 H 282.203 4.06803 2.53077 0
M  V30 3114 H 280.567 2.10998 1.4266 0
M  V30 3115 H 281.35 3.41206 0.378639 0
M  V30 3116 N 283.795 -0.628877 1.44509 0
M  V30 3117 C 284.742 -1.74074 1.51549 0
M  V30 3118 C 285.712 -1.62084 0.363021 0
M  V30 3119 O 286.897 -1.81975 0.573567 0
M  V30 3120 C 284.037 -3.12328 1.46784 0
M  V30 3121 C 283.15 -3.35277 2.72422 0
M  V30 3122 C 282.285 -4.63515 2.59475 0
M  V30 3123 C 281.324 -4.7965 3.80266 0
M  V30 3124 N 280.461 -5.99168 3.65981 0
M  V30 3125 H 285.301 -1.67392 2.46544 0
M  V30 3126 H 282.838 -0.816527 1.22357 0
M  V30 3127 H 284.796 -3.92286 1.42012 0
M  V30 3128 H 283.426 -3.18018 0.553544 0
M  V30 3129 H 282.478 -2.49242 2.87372 0
M  V30 3130 H 283.79 -3.43078 3.62076 0
M  V30 3131 H 282.944 -5.51638 2.52548 0
M  V30 3132 H 281.683 -4.58076 1.67384 0
M  V30 3133 H 280.688 -3.89957 3.87574 0
M  V30 3134 H 281.913 -4.86902 4.73395 0
M  V30 3135 H 279.859 -5.94814 2.76644 0
M  V30 3136 H 279.776 -6.08035 4.49254 0
M  V30 3137 H 281.044 -6.89846 3.6295 0
M  V30 3138 N 285.273 -1.31445 -0.869486 0
M  V30 3139 C 286.203 -1.21727 -1.99261 0
M  V30 3140 C 287.184 -0.104359 -1.6978 0
M  V30 3141 O 288.369 -0.289038 -1.92037 0
M  V30 3142 C 285.499 -0.924317 -3.34774 0
M  V30 3143 C 284.453 -1.99685 -3.78563 0
M  V30 3144 C 283.779 -1.55658 -5.11541 0
M  V30 3145 C 285.079 -3.41003 -3.95619 0
M  V30 3146 H 286.773 -2.1569 -2.07649 0
M  V30 3147 H 284.319 -1.03839 -0.997675 0
M  V30 3148 H 286.272 -0.842934 -4.12883 0
M  V30 3149 H 284.996 0.0509793 -3.2656 0
M  V30 3150 H 283.655 -2.06813 -3.02694 0
M  V30 3151 H 283.303 -0.569132 -4.9977 0
M  V30 3152 H 283.003 -2.27409 -5.41811 0
M  V30 3153 H 284.527 -1.48928 -5.92159 0
M  V30 3154 H 285.941 -3.36547 -4.64122 0
M  V30 3155 H 284.338 -4.10975 -4.37286 0
M  V30 3156 H 285.408 -3.81754 -2.98985 0
M  V30 3157 N 286.751 1.08385 -1.14413 0
M  V30 3158 C 287.714 2.13486 -0.834048 0
M  V30 3159 C 288.714 1.59988 0.161418 0
M  V30 3160 O 289.904 1.74071 -0.0669575 0
M  V30 3161 C 287.036 3.4003 -0.243354 0
M  V30 3162 H 288.229 2.42425 -1.7655 0
M  V30 3163 H 285.782 1.24101 -0.950189 0
M  V30 3164 H 286.517 3.16726 0.696807 0
M  V30 3165 H 286.302 3.80157 -0.960367 0
M  V30 3166 H 287.792 4.17577 -0.0436242 0
M  V30 3167 N 288.23 0.939286 1.26551 0
M  V30 3168 C 289.455 0.602008 1.98471 0
M  V30 3169 C 289.88 -0.815624 1.69497 0
M  V30 3170 O 289.238 -1.54912 0.941905 0
M  V30 3171 C 289.286 0.848407 3.50477 0
M  V30 3172 O 288.39 -0.0804009 4.12322 0
M  V30 3173 H 287.731 0.23049 0.622712 0
M  V30 3174 H 290.261 1.2617 1.61066 0
M  V30 3175 H 290.271 0.768553 4.00696 0
M  V30 3176 H 288.946 1.88171 3.70897 0
M  V30 3177 H 287.523 0.0503508 3.72866 0
M  V30 3178 N 289.708 -1.40897 0.706093 0
M  V30 3179 C 290.955 -2.01054 0.241531 0
M  V30 3180 C 291.283 -1.55956 -1.16223 0
M  V30 3181 O 290.538 -0.766336 -1.80072 0
M  V30 3182 C 290.837 -3.5646 0.259099 0
M  V30 3183 C 290.503 -4.21106 1.61184 0
M  V30 3184 C 289.165 -4.38479 1.98216 0
M  V30 3185 C 291.517 -4.57256 2.50132 0
M  V30 3186 C 288.845 -4.89282 3.2376 0
M  V30 3187 C 291.197 -5.09454 3.7502 0
M  V30 3188 C 289.861 -5.25037 4.12181 0
M  V30 3189 H 289.131 -0.73571 0.0883825 0
M  V30 3190 H 291.778 -1.68645 0.907257 0
M  V30 3191 H 290.083 -3.88721 -0.490189 0
M  V30 3192 H 291.78 -4.00826 -0.11804 0
M  V30 3193 H 288.37 -4.07966 1.31384 0
M  V30 3194 H 292.554 -4.43479 2.228 0
M  V30 3195 H 287.81 -4.99531 3.52532 0
M  V30 3196 H 291.984 -5.36404 4.44121 0
M  V30 3197 H 289.611 -5.64164 5.09532 0
M  V30 3198 N 291.186 -0.45159 -1.50991 0
M  V30 3199 C 292.116 0.342898 -2.30969 0
M  V30 3200 C 293.097 1.00815 -1.37005 0
M  V30 3201 O 294.282 1.00907 -1.65926 0
M  V30 3202 C 291.412 1.43637 -3.16205 0
M  V30 3203 C 290.366 0.893818 -4.18563 0
M  V30 3204 C 289.692 2.08411 -4.92411 0
M  V30 3205 C 290.992 -0.0815568 -5.22236 0
M  V30 3206 H 292.686 -0.324556 -2.97636 0
M  V30 3207 H 290.232 -0.157531 -1.43136 0
M  V30 3208 H 292.185 1.9995 -3.70942 0
M  V30 3209 H 290.909 2.13232 -2.47386 0
M  V30 3210 H 289.568 0.352798 -3.64898 0
M  V30 3211 H 289.216 2.76658 -4.20082 0
M  V30 3212 H 288.916 1.72741 -5.61636 0
M  V30 3213 H 290.44 2.65251 -5.49976 0
M  V30 3214 H 291.854 0.391742 -5.7196 0
M  V30 3215 H 290.251 -0.351551 -5.99069 0
M  V30 3216 H 291.321 -1.01374 -4.74185 0
M  V30 3217 N 292.664 1.56529 -0.183458 0
M  V30 3218 C 293.892 2.01623 0.464285 0
M  V30 3219 C 294.307 1.06366 1.55986 0
M  V30 3220 O 293.664 0.0665398 1.82379 0
M  V30 3221 C 293.715 3.46475 1.03139 0
M  V30 3222 O 293.436 4.38095 -0.0204675 0
M  V30 3223 C 294.937 4.0703 1.75617 0
M  V30 3224 H 292.157 0.660596 0.117704 0
M  V30 3225 H 294.701 2.02451 -0.288751 0
M  V30 3226 H 292.856 3.46383 1.73486 0
M  V30 3227 H 293.27 5.22973 0.399952 0
M  V30 3228 H 294.744 5.10271 2.10542 0
M  V30 3229 H 295.221 3.49819 2.65563 0
M  V30 3230 H 295.827 4.1086 1.09882 0
M  V30 3231 N 294.142 -0.090211 1.57342 0
M  V30 3232 C 295.553 -0.644173 1.75235 0
M  V30 3233 C 295.904 -1.78865 0.806335 0
M  V30 3234 O 295.029 -2.16395 -0.0140128 0
M  V30 3235 C 295.624 -1.17532 3.1776 0
M  V30 3236 C 294.183 -1.67531 3.37061 0
M  V30 3237 C 293.33 -0.58693 2.71017 0
M  V30 3238 H 296.281 0.135884 1.58117 0
M  V30 3239 H 296.302 -2.04455 3.20902 0
M  V30 3240 H 295.814 -0.342138 3.86589 0
M  V30 3241 H 293.915 -2.53234 2.73319 0
M  V30 3242 H 294.028 -1.76493 4.45406 0
M  V30 3243 H 292.392 -1.02756 2.33052 0
M  V30 3244 H 293.175 0.235758 3.4249 0
M  V30 3245 N 295.62 -1.53406 -0.361157 0
M  V30 3246 C 296.55 -1.83136 -1.44857 0
M  V30 3247 C 297.531 -0.685174 -1.5569 0
M  V30 3248 O 298.716 -0.93544 -1.70186 0
M  V30 3249 C 295.846 -2.02522 -2.82138 0
M  V30 3250 C 294.8 -3.18302 -2.86126 0
M  V30 3251 C 294.126 -3.22989 -4.26125 0
M  V30 3252 C 295.426 -4.56796 -2.53248 0
M  V30 3253 H 297.12 -2.74201 -1.20226 0
M  V30 3254 H 294.666 -1.31938 -0.576922 0
M  V30 3255 H 296.619 -2.21904 -3.58241 0
M  V30 3256 H 295.343 -1.08172 -3.08166 0
M  V30 3257 H 294.002 -2.98747 -2.12475 0
M  V30 3258 H 293.65 -2.26267 -4.49235 0
M  V30 3259 H 293.35 -4.00781 -4.29708 0
M  V30 3260 H 294.874 -3.44559 -5.04094 0
M  V30 3261 H 296.288 -4.7631 -3.19064 0
M  V30 3262 H 294.685 -5.36862 -2.68141 0
M  V30 3263 H 295.755 -4.61606 -1.48484 0
M  V30 3264 N 297.098 0.621204 -1.44841 0
M  V30 3265 C 298.375 1.38 -1.38619 0
M  V30 3266 C 298.755 2.11041 -0.0498935 0
M  V30 3267 O 298.103 2.06992 0.967816 0
M  V30 3268 C 298.313 2.33817 -2.59096 0
M  V30 3269 C 299.661 2.96844 -3.03593 0
M  V30 3270 O 300.685 2.44141 -2.59371 0
M  V30 3271 O 299.544 3.92476 -3.80296 0
M  V30 3272 H 296.638 0.61811 -0.549426 0
M  V30 3273 H 299.184 0.645429 -1.56947 0
M  V30 3274 H 297.956 1.79012 -3.47952 0
M  V30 3275 H 297.579 3.14676 -2.43032 0
M  V30 3276 N 298.576 1.31904 0.862503 0
M  V30 3277 C 299.825 1.21373 1.61094 0
M  V30 3278 C 300.138 -0.22504 1.94301 0
M  V30 3279 O 301.344 -0.452121 2.67709 0
M  V30 3280 C 299.8 2.12525 2.9045 0
M  V30 3281 C 299.408 3.61441 2.64697 0
M  V30 3282 C 301.152 2.10813 3.68454 0
M  V30 3283 C 299.059 4.44578 3.90006 0
M  V30 3284 H 297.989 0.450705 0.604468 0
M  V30 3285 H 300.64 1.56811 0.953027 0
M  V30 3286 H 299.022 1.69994 3.57656 0
M  V30 3287 H 300.196 4.12264 2.05851 0
M  V30 3288 H 298.511 3.65205 2.00036 0
M  V30 3289 H 301.108 2.70167 4.61426 0
M  V30 3290 H 301.451 1.09713 4.01583 0
M  V30 3291 H 301.984 2.51583 3.08141 0
M  V30 3292 H 298.723 5.46461 3.62023 0
M  V30 3293 H 298.243 3.98508 4.48276 0
M  V30 3294 H 299.922 4.57176 4.5782 0
M  V30 3295 N 300.054 -1.07777 1.14986 0
M  V30 3296 C 300.987 -2.14228 0.786243 0
M  V30 3297 C 301.965 -1.60888 -0.235347 0
M  V30 3298 O 303.149 -1.88099 -0.122909 0
M  V30 3299 C 300.276 -3.38281 0.168433 0
M  V30 3300 C 299.322 -4.10387 1.16123 0
M  V30 3301 S 300.155 -4.62371 2.70135 0
M  V30 3302 C 301.311 -5.89704 2.09762 0
M  V30 3303 H 301.544 -2.44741 1.68787 0
M  V30 3304 H 299.077 -1.19984 0.971756 0
M  V30 3305 H 301.035 -4.10098 -0.181588 0
M  V30 3306 H 299.696 -3.05953 -0.710725 0
M  V30 3307 H 298.889 -4.99431 0.677086 0
M  V30 3308 H 298.491 -3.44513 1.45556 0
M  V30 3309 H 300.783 -6.61648 1.45701 0
M  V30 3310 H 301.726 -6.42824 2.96955 0
M  V30 3311 H 302.134 -5.4302 1.54239 0
M  V30 3312 N 301.532 -0.945985 -1.26051 0
M  V30 3313 C 302.462 -0.477172 -2.28572 0
M  V30 3314 C 303.443 0.472032 -1.63419 0
M  V30 3315 O 304.628 0.372853 -1.90587 0
M  V30 3316 C 301.758 0.253975 -3.4637 0
M  V30 3317 C 300.712 -0.609135 -4.23643 0
M  V30 3318 C 300.038 0.252252 -5.34105 0
M  V30 3319 C 301.338 -1.8829 -4.8718 0
M  V30 3320 H 303.032 -1.33402 -2.68038 0
M  V30 3321 H 300.578 -0.642904 -1.28852 0
M  V30 3322 H 302.531 0.593016 -4.17207 0
M  V30 3323 H 301.255 1.145 -3.05871 0
M  V30 3324 H 299.914 -0.931138 -3.54578 0
M  V30 3325 H 299.562 1.14278 -4.89846 0
M  V30 3326 H 299.262 -0.32188 -5.86718 0
M  V30 3327 H 300.786 0.586454 -6.07777 0
M  V30 3328 H 302.2 -1.61081 -5.50205 0
M  V30 3329 H 300.597 -2.40199 -5.49931 0
M  V30 3330 H 301.667 -2.59134 -4.09851 0
M  V30 3331 N 303.011 1.40521 -0.713556 0
M  V30 3332 C 304.259 2.00527 -0.251692 0
M  V30 3333 C 304.58 1.56857 1.15848 0
M  V30 3334 O 303.85 0.807127 1.785 0
M  V30 3335 H 302.43 0.741551 -0.0900646 0
M  V30 3336 H 305.092 1.71887 -0.918733 0
M  V30 3337 H 304.188 3.10813 -0.283192 0
M  V30 3338 N 304.489 0.459591 1.5075 0
M  V30 3339 C 305.419 -0.330644 2.31147 0
M  V30 3340 C 306.4 -1.00087 1.37538 0
M  V30 3341 O 307.585 -1.00025 1.66459 0
M  V30 3342 C 304.715 -1.41958 3.16962 0
M  V30 3343 C 303.669 -0.871608 4.19031 0
M  V30 3344 C 302.995 -2.05797 4.9351 0
M  V30 3345 C 304.295 0.109251 5.22186 0
M  V30 3346 H 305.989 0.340336 2.97459 0
M  V30 3347 H 303.535 0.165119 1.4305 0
M  V30 3348 H 305.488 -1.9798 3.71997 0
M  V30 3349 H 304.212 -2.11917 2.48513 0
M  V30 3350 H 302.871 -0.333442 3.6508 0
M  V30 3351 H 302.519 -2.74427 4.21544 0
M  V30 3352 H 302.219 -1.6976 5.62544 0
M  V30 3353 H 303.743 -2.62331 5.51375 0
M  V30 3354 H 305.157 -0.361405 5.7216 0
M  V30 3355 H 303.554 0.383316 5.98875 0
M  V30 3356 H 304.624 1.03887 4.73641 0
M  V30 3357 N 305.967 -1.56429 0.191757 0
M  V30 3358 C 306.897 -2.21937 -0.725696 0
M  V30 3359 C 307.878 -1.1814 -1.2238 0
M  V30 3360 O 309.063 -1.46636 -1.27325 0
M  V30 3361 C 306.193 -2.87611 -1.94672 0
M  V30 3362 C 305.147 -3.97623 -1.58366 0
M  V30 3363 C 304.473 -4.50446 -2.88102 0
M  V30 3364 C 305.773 -5.16197 -0.796133 0
M  V30 3365 H 307.467 -2.98861 -0.179606 0
M  V30 3366 H 305.013 -1.43749 -0.0849464 0
M  V30 3367 H 306.966 -3.3212 -2.59373 0
M  V30 3368 H 305.69 -2.08087 -2.51728 0
M  V30 3369 H 304.349 -3.53801 -0.960247 0
M  V30 3370 H 303.997 -3.67688 -3.43241 0
M  V30 3371 H 303.697 -5.24675 -2.64556 0
M  V30 3372 H 305.221 -4.97654 -3.53798 0
M  V30 3373 H 306.635 -5.57271 -1.34618 0
M  V30 3374 H 305.032 -5.96471 -0.658928 0
M  V30 3375 H 306.102 -4.84473 0.203478 0
M  V30 3376 N 307.445 0.0818655 -1.57387 0
M  V30 3377 C 308.408 1.08265 -2.02018 0
M  V30 3378 C 309.408 1.32183 -0.915664 0
M  V30 3379 O 310.598 1.28073 -1.18081 0
M  V30 3380 C 307.73 2.42871 -2.39221 0
M  V30 3381 H 308.923 0.698204 -2.91659 0
M  V30 3382 H 306.476 0.327303 -1.52835 0
M  V30 3383 H 307.211 2.86167 -1.52575 0
M  V30 3384 H 306.996 2.26855 -3.19811 0
M  V30 3385 H 308.486 3.14826 -2.74362 0
M  V30 3386 N 308.923 1.53595 0.353017 0
M  V30 3387 C 309.886 1.80232 1.41594 0
M  V30 3388 C 310.886 0.673081 1.46035 0
M  V30 3389 O 312.076 0.941335 1.46576 0
M  V30 3390 C 309.208 1.93578 2.80607 0
M  V30 3391 H 310.401 2.75174 1.19244 0
M  V30 3392 H 307.954 1.44864 0.586872 0
M  V30 3393 H 308.689 1.00746 3.08254 0
M  V30 3394 H 308.474 2.75724 2.78781 0
M  V30 3395 H 309.964 2.15735 3.57558 0
M  V30 3396 N 310.401 -0.613514 1.45168 0
M  V30 3397 C 311.364 -1.7065 1.53007 0
M  V30 3398 C 312.364 -1.5548 0.410184 0
M  V30 3399 O 313.554 -1.60656 0.673455 0
M  V30 3400 C 310.686 -3.09875 1.42093 0
M  V30 3401 H 311.879 -1.65068 2.50385 0
M  V30 3402 H 309.432 -0.828728 1.32521 0
M  V30 3403 H 310.167 -3.21039 0.458769 0
M  V30 3404 H 309.952 -3.22293 2.23315 0
M  V30 3405 H 311.442 -3.895 1.50598 0
M  V30 3406 N 311.879 -1.3236 -0.855495 0
M  V30 3407 C 312.842 -1.21164 -1.94556 0
M  V30 3408 C 313.842 -0.134908 -1.60233 0
M  V30 3409 O 315.032 -0.385249 -1.69887 0
M  V30 3410 C 312.164 -0.863192 -3.29791 0
M  V30 3411 H 313.357 -2.18038 -2.05911 0
M  V30 3412 H 310.91 -1.16179 -1.04557 0
M  V30 3413 H 311.645 0.103769 -3.24134 0
M  V30 3414 H 311.43 -1.64166 -3.56078 0
M  V30 3415 H 312.92 -0.809156 -4.09686 0
M  V30 3416 N 313.357 1.07166 -1.15556 0
M  V30 3417 C 314.307 2.12649 -0.82247 0
M  V30 3418 C 315.291 1.59725 0.194129 0
M  V30 3419 O 316.483 1.76999 -0.00540402 0
M  V30 3420 C 313.612 3.41847 -0.315572 0
M  V30 3421 C 312.698 4.0162 -1.36244 0
M  V30 3422 N 313.089 4.35625 -2.5703 0
M  V30 3423 C 311.387 4.29114 -1.21562 0
M  V30 3424 C 312.088 4.83017 -3.24144 0
M  V30 3425 N 311.064 4.81906 -2.51531 0
M  V30 3426 H 314.866 2.36776 -1.74111 0
M  V30 3427 H 312.38 1.24622 -1.0413 0
M  V30 3428 H 314.377 4.16859 -0.0585855 0
M  V30 3429 H 313.037 3.19163 0.597105 0
M  V30 3430 H 314.048 4.26253 -2.94158 0
M  V30 3431 H 310.725 4.15919 -0.362988 0
M  V30 3432 H 312.115 5.18605 -4.27198 0
M  V30 3433 N 314.835 0.952656 1.25548 0
M  V30 3434 C 316.112 0.523818 1.88456 0
M  V30 3435 C 316.492 -0.998871 1.85973 0
M  V30 3436 O 315.84 -1.86381 1.3219 0
M  V30 3437 C 316.05 1.0982 3.31271 0
M  V30 3438 C 317.398 1.17385 4.08051 0
M  V30 3439 O 318.422 1.04961 3.40384 0
M  V30 3440 O 317.281 1.36852 5.29088 0
M  V30 3441 H 314.375 0.172485 0.808813 0
M  V30 3442 H 316.921 1.04596 1.33633 0
M  V30 3443 H 315.693 2.1415 3.27499 0
M  V30 3444 H 315.316 0.559191 3.93648 0
M  V30 3445 N 316.313 -1.40141 0.720998 0
M  V30 3446 C 317.559 -2.01084 0.263231 0
M  V30 3447 C 317.892 -1.57052 -1.14229 0
M  V30 3448 O 317.167 -0.793027 -1.77599 0
M  V30 3449 C 317.45 -3.58401 0.349344 0
M  V30 3450 C 317.303 -4.12491 1.79363 0
M  V30 3451 C 318.622 -4.39231 -0.276351 0
M  V30 3452 H 315.741 -0.730572 0.0971228 0
M  V30 3453 H 318.383 -1.66543 0.914518 0
M  V30 3454 H 316.533 -3.87958 -0.205165 0
M  V30 3455 H 318.205 -3.93711 2.40394 0
M  V30 3456 H 316.448 -3.66576 2.31958 0
M  V30 3457 H 317.119 -5.21646 1.80524 0
M  V30 3458 H 319.595 -4.15637 0.196184 0
M  V30 3459 H 318.471 -5.48586 -0.185681 0
M  V30 3460 H 318.732 -4.20643 -1.36059 0
M  V30 3461 N 317.792 -0.46758 -1.50504 0
M  V30 3462 C 319.069 0.15003 -1.95024 0
M  V30 3463 C 319.449 1.57304 -1.40779 0
M  V30 3464 O 318.797 2.20281 -0.607319 0
M  V30 3465 C 319.007 0.0969324 -3.48865 0
M  V30 3466 C 320.355 0.287565 -4.23625 0
M  V30 3467 O 321.379 0.173678 -3.55776 0
M  V30 3468 O 320.238 0.517186 -5.44047 0
M  V30 3469 H 317.332 0.113582 -0.819163 0
M  V30 3470 H 319.878 -0.52773 -1.61286 0
M  V30 3471 H 318.65 -0.896732 -3.80886 0
M  V30 3472 H 318.273 0.816303 -3.8913 0
M  V30 3473 N 319.27 1.56325 -0.20005 0
M  V30 3474 C 320.22 2.15939 0.731743 0
M  V30 3475 C 321.204 1.10154 1.17281 0
M  V30 3476 O 322.396 1.36203 1.13038 0
M  V30 3477 C 319.525 2.82614 1.94895 0
M  V30 3478 C 318.611 3.95596 1.52855 0
M  V30 3479 N 319.002 4.99118 0.819418 0
M  V30 3480 C 317.3 4.07288 1.81748 0
M  V30 3481 C 318.001 5.78513 0.608053 0
M  V30 3482 N 316.977 5.31117 1.15828 0
M  V30 3483 H 320.779 2.9334 0.181285 0
M  V30 3484 H 318.293 1.624 -0.000452172 0
M  V30 3485 H 320.29 3.23718 2.62702 0
M  V30 3486 H 318.95 2.06702 2.50408 0
M  V30 3487 H 319.961 5.15723 0.47436 0
M  V30 3488 H 316.638 3.42509 2.38734 0
M  V30 3489 H 318.028 6.71885 0.0451619 0
M  V30 3490 N 320.748 -0.0735177 1.57428 0
M  V30 3491 C 322.159 -0.625551 1.75908 0
M  V30 3492 C 322.51 -1.78 0.825261 0
M  V30 3493 O 321.635 -2.16398 0.00893964 0
M  V30 3494 C 322.23 -1.14155 3.18989 0
M  V30 3495 C 320.789 -1.63946 3.38819 0
M  V30 3496 C 319.936 -0.558151 2.71625 0
M  V30 3497 H 322.887 0.152647 1.57964 0
M  V30 3498 H 322.908 -2.0104 3.23053 0
M  V30 3499 H 322.42 -0.301116 3.8693 0
M  V30 3500 H 320.521 -2.50321 2.7599 0
M  V30 3501 H 320.634 -1.71759 4.47253 0
M  V30 3502 H 318.998 -1.00278 2.34129 0
M  V30 3503 H 319.781 0.272071 3.4222 0
M  V30 3504 N 322.226 -1.5378 -0.344866 0
M  V30 3505 C 323.474 -1.70625 -1.08311 0
M  V30 3506 C 323.795 -0.471447 -1.89215 0
M  V30 3507 O 323.065 0.514616 -1.8902 0
M  V30 3508 H 321.645 -0.629058 -0.402859 0
M  V30 3509 H 324.307 -1.9103 -0.386459 0
M  V30 3510 H 323.403 -2.57656 -1.76124 0
M  V30 3511 N 323.704 0.605807 -1.45491 0
M  V30 3512 C 324.95 1.36679 -1.49823 0
M  V30 3513 C 325.283 1.93693 -0.140175 0
M  V30 3514 O 324.558 1.75158 0.845581 0
M  V30 3515 C 324.841 2.51337 -2.57879 0
M  V30 3516 C 324.694 1.99508 -4.03134 0
M  V30 3517 C 326.013 3.53463 -2.62205 0
M  V30 3518 H 323.132 0.495617 -0.545466 0
M  V30 3519 H 325.774 0.682732 -1.7731 0
M  V30 3520 H 323.924 3.09691 -2.34571 0
M  V30 3521 H 325.596 1.45789 -4.37656 0
M  V30 3522 H 323.839 1.30496 -4.13707 0
M  V30 3523 H 324.51 2.82169 -4.74431 0
M  V30 3524 H 326.986 3.04953 -2.83095 0
M  V30 3525 H 325.862 4.31178 -3.39672 0
M  V30 3526 H 326.123 4.09197 -1.67363 0
M  V30 3527 N 325.182 1.32811 0.848464 0
M  V30 3528 C 326.13 1.22231 1.97895 0
M  V30 3529 C 327.124 0.125749 1.68933 0
M  V30 3530 O 328.33 0.289083 1.77663 0
M  V30 3531 H 324.705 0.379058 0.649476 0
M  V30 3532 H 326.676 2.17828 2.03945 0
M  V30 3533 C 325.425 0.968572 3.33937 0
M  V30 3534 H 324.748 1.80458 3.56756 0
M  V30 3535 H 326.188 0.934808 4.13567 0
M  V30 3536 C 324.647 -0.328628 3.35293 0
M  V30 3537 O 325.177 -1.33848 3.78745 0
M  V30 3538 N 323.383 -0.352788 2.88451 0
M  V30 3539 H 322.93 0.469541 2.53285 0
M  V30 3540 H 322.888 -1.22057 2.89741 0
M  V30 3541 N 326.66 -1.06551 1.16123 0
M  V30 3542 C 327.592 -2.13908 0.823171 0
M  V30 3543 C 328.605 -1.61926 -0.16843 0
M  V30 3544 O 329.794 -1.78412 0.055962 0
M  V30 3545 C 326.894 -3.38283 0.204424 0
M  V30 3546 C 326.067 -4.19589 1.23548 0
M  V30 3547 C 325.126 -5.2233 0.637011 0
M  V30 3548 O 324.152 -5.54034 1.30516 0
M  V30 3549 N 325.354 -5.77621 -0.577474 0
M  V30 3550 H 328.119 -2.43508 1.74711 0
M  V30 3551 H 325.68 -1.2253 1.05821 0
M  V30 3552 H 327.672 -4.0416 -0.208909 0
M  V30 3553 H 326.242 -3.06329 -0.623012 0
M  V30 3554 H 325.462 -3.49406 1.82507 0
M  V30 3555 H 326.75 -4.70718 1.93137 0
M  V30 3556 H 326.148 -5.54125 -1.13853 0
M  V30 3557 H 324.705 -6.45087 -0.933053 0
M  V30 3558 N 328.138 -0.959301 -1.25041 0
M  V30 3559 C 329.549 -0.65667 -1.74771 0
M  V30 3560 C 329.9 0.827852 -1.77879 0
M  V30 3561 O 329.025 1.64783 -1.40269 0
M  V30 3562 C 329.62 -1.1853 -3.1739 0
M  V30 3563 C 328.179 -0.932734 -3.6466 0
M  V30 3564 C 327.326 -1.32558 -2.43564 0
M  V30 3565 H 330.277 -1.13558 -1.10862 0
M  V30 3566 H 330.298 -0.547582 -3.76539 0
M  V30 3567 H 329.81 -2.26576 -3.15095 0
M  V30 3568 H 327.911 0.13257 -3.72364 0
M  V30 3569 H 328.024 -1.57248 -4.52559 0
M  V30 3570 H 326.388 -0.743956 -2.43593 0
M  V30 3571 H 327.171 -2.41537 -2.43957 0
M  V30 3572 N 329.616 1.39756 -0.72842 0
M  V30 3573 C 330.863 2.00645 -0.273487 0
M  V30 3574 C 331.191 1.57786 1.13727 0
M  V30 3575 O 330.446 0.794886 1.7883 0
M  V30 3576 C 330.745 3.56002 -0.315776 0
M  V30 3577 C 330.411 4.18489 -1.67863 0
M  V30 3578 C 329.073 4.3527 -2.05166 0
M  V30 3579 C 331.425 4.53219 -2.57375 0
M  V30 3580 C 328.753 4.84069 -3.31503 0
M  V30 3581 C 331.105 5.03423 -3.83077 0
M  V30 3582 C 329.769 5.18413 -4.20481 0
M  V30 3583 H 329.039 0.734211 -0.100076 0
M  V30 3584 H 331.686 1.6718 -0.933972 0
M  V30 3585 H 329.991 3.89452 0.428285 0
M  V30 3586 H 331.688 4.00963 0.0542575 0
M  V30 3587 H 328.278 4.05824 -1.37858 0
M  V30 3588 H 332.462 4.39878 -2.29827 0
M  V30 3589 H 327.718 4.93859 -3.60435 0
M  V30 3590 H 331.892 5.2927 -4.52599 0
M  V30 3591 H 329.519 5.55987 -5.18443 0
M  V30 3592 N 331.094 0.475555 1.50254 0
M  V30 3593 C 332.024 -0.30611 2.31485 0
M  V30 3594 C 333.005 -0.986228 1.38591 0
M  V30 3595 O 334.19 -0.982541 1.67511 0
M  V30 3596 C 331.32 -1.38588 3.1845 0
M  V30 3597 C 330.274 -0.827115 4.19932 0
M  V30 3598 C 329.6 -2.00551 4.95665 0
M  V30 3599 C 330.9 0.16463 5.2204 0
M  V30 3600 H 332.594 0.371866 2.97082 0
M  V30 3601 H 330.14 0.180282 1.42867 0
M  V30 3602 H 332.093 -1.94023 3.74076 0
M  V30 3603 H 330.817 -2.09269 2.50747 0
M  V30 3604 H 329.476 -0.294702 3.65414 0
M  V30 3605 H 329.124 -2.6994 4.2443 0
M  V30 3606 H 328.824 -1.63784 5.64313 0
M  V30 3607 H 330.348 -2.56468 5.54127 0
M  V30 3608 H 331.762 -0.300699 5.72511 0
M  V30 3609 H 330.159 0.446813 5.98434 0
M  V30 3610 H 331.229 1.08905 4.72512 0
M  V30 3611 N 332.573 -1.56217 0.208337 0
M  V30 3612 C 333.822 -1.97124 -0.427204 0
M  V30 3613 C 334.135 -1.09859 -1.61835 0
M  V30 3614 O 335.341 -1.40606 -2.32255 0
M  V30 3615 C 333.797 -3.50633 -0.811442 0
M  V30 3616 C 333.405 -4.46582 0.35615 0
M  V30 3617 C 335.149 -4.00282 -1.41332 0
M  V30 3618 C 333.056 -5.91379 -0.0497852 0
M  V30 3619 H 331.986 -0.736086 -0.163381 0
M  V30 3620 H 334.637 -1.8099 0.302456 0
M  V30 3621 H 333.019 -3.62319 -1.59815 0
M  V30 3622 H 334.193 -4.46636 1.1337 0
M  V30 3623 H 332.508 -4.07202 0.870396 0
M  V30 3624 H 335.105 -5.0595 -1.72972 0
M  V30 3625 H 335.448 -3.45359 -2.32449 0
M  V30 3626 H 335.981 -3.91764 -0.690323 0
M  V30 3627 H 332.72 -6.50255 0.827529 0
M  V30 3628 H 332.24 -5.94549 -0.791926 0
M  V30 3629 H 333.919 -6.45209 -0.481042 0
M  V30 3630 N 334.051 0.0651679 -1.57465 0
M  V30 3631 C 334.998 1.07675 -2.04144 0
M  V30 3632 C 335.968 1.38071 -0.923335 0
M  V30 3633 O 337.153 1.49026 -1.19146 0
M  V30 3634 C 334.293 2.38337 -2.49579 0
M  V30 3635 C 333.406 2.14413 -3.75035 0
M  V30 3636 C 332.541 3.38686 -4.09225 0
M  V30 3637 C 331.58 3.10156 -5.27702 0
M  V30 3638 N 330.717 4.26778 -5.57499 0
M  V30 3639 H 335.557 0.671716 -2.90331 0
M  V30 3640 H 333.094 0.3201 -1.43575 0
M  V30 3641 H 335.052 3.14632 -2.73975 0
M  V30 3642 H 333.682 2.7663 -1.6636 0
M  V30 3643 H 332.734 1.2878 -3.57939 0
M  V30 3644 H 334.046 1.89344 -4.61466 0
M  V30 3645 H 333.2 4.23373 -4.34558 0
M  V30 3646 H 331.939 3.66837 -3.21374 0
M  V30 3647 H 330.944 2.23866 -5.02159 0
M  V30 3648 H 332.169 2.8332 -6.17176 0
M  V30 3649 H 330.115 4.54948 -4.72608 0
M  V30 3650 H 330.032 4.05005 -6.38362 0
M  V30 3651 H 331.3 5.12443 -5.87386 0
M  V30 3652 N 335.529 1.53961 0.336706 0
M  V30 3653 C 336.757 1.75483 1.09605 0
M  V30 3654 C 337.172 0.4972 1.82136 0
M  V30 3655 O 336.529 -0.53149 1.74589 0
M  V30 3656 C 336.58 2.93943 2.10428 0
M  V30 3657 O 336.301 4.14842 1.40846 0
M  V30 3658 C 337.802 3.27571 2.98684 0
M  V30 3659 H 335.022 0.586166 0.326574 0
M  V30 3660 H 337.566 2.00808 0.38683 0
M  V30 3661 H 335.721 2.70929 2.76905 0
M  V30 3662 H 336.135 4.81383 2.08255 0
M  V30 3663 H 337.609 4.13791 3.6535 0
M  V30 3664 H 338.086 2.44168 3.65074 0
M  V30 3665 H 338.692 3.52615 2.37787 0
M  V30 3666 N 337.007 -0.598083 1.45811 0
M  V30 3667 C 337.955 -1.72932 1.55555 0
M  V30 3668 C 338.949 -1.63984 0.424921 0
M  V30 3669 O 340.155 -1.69663 0.601205 0
M  V30 3670 H 336.53 -0.571489 0.488779 0
M  V30 3671 H 338.501 -1.61842 2.50699 0
M  V30 3672 C 337.25 -3.11318 1.54843 0
M  V30 3673 H 336.573 -3.18867 2.41172 0
M  V30 3674 H 338.013 -3.90274 1.65717 0
M  V30 3675 C 336.472 -3.3578 0.274427 0
M  V30 3676 O 337.002 -3.9654 -0.641778 0
M  V30 3677 N 335.208 -2.90119 0.167139 0
M  V30 3678 H 334.755 -2.40855 0.913596 0
M  V30 3679 H 334.713 -3.0686 -0.684435 0
M  V30 3680 N 338.485 -1.33259 -0.841409 0
M  V30 3681 C 339.435 -1.19872 -1.93945 0
M  V30 3682 C 340.419 -0.102269 -1.60575 0
M  V30 3683 O 341.611 -0.330114 -1.73894 0
M  V30 3684 C 338.74 -0.937517 -3.30251 0
M  V30 3685 C 337.826 -2.07629 -3.69799 0
M  V30 3686 N 338.217 -3.32604 -3.81062 0
M  V30 3687 C 336.515 -1.98242 -3.9952 0
M  V30 3688 C 337.216 -4.07275 -4.15333 0
M  V30 3689 N 336.192 -3.35691 -4.27566 0
M  V30 3690 H 339.994 -2.14604 -2.00805 0
M  V30 3691 H 337.508 -1.2523 -1.03398 0
M  V30 3692 H 339.505 -0.822545 -4.08705 0
M  V30 3693 H 338.165 0.00128798 -3.247 0
M  V30 3694 H 339.176 -3.67382 -3.65035 0
M  V30 3695 H 335.853 -1.12005 -4.02195 0
M  V30 3696 H 337.243 -5.1511 -4.31406 0
M  V30 3697 N 339.963 1.05934 -1.16686 0
M  V30 3698 C 340.913 2.11764 -0.844978 0
M  V30 3699 C 341.897 1.59922 0.177178 0
M  V30 3700 O 343.089 1.76983 -0.0241768 0
M  V30 3701 C 340.218 3.41493 -0.351812 0
M  V30 3702 C 339.304 4.00152 -1.40496 0
M  V30 3703 N 339.695 4.32874 -2.61636 0
M  V30 3704 C 337.993 4.278 -1.26106 0
M  V30 3705 C 338.694 4.79552 -3.29249 0
M  V30 3706 N 337.67 4.79211 -2.56628 0
M  V30 3707 H 341.472 2.34916 -1.76612 0
M  V30 3708 H 338.986 1.23511 -1.05446 0
M  V30 3709 H 340.983 4.16773 -0.102796 0
M  V30 3710 H 339.643 3.19778 0.56322 0
M  V30 3711 H 340.654 4.23109 -2.98663 0
M  V30 3712 H 337.331 4.15511 -0.407081 0
M  V30 3713 H 338.721 5.14045 -4.32675 0
M  V30 3714 N 341.441 0.965919 1.2453 0
M  V30 3715 C 342.371 0.513476 2.27784 0
M  V30 3716 C 343.352 -0.445974 1.6415 0
M  V30 3717 O 344.537 -0.342485 1.91156 0
M  V30 3718 C 341.667 -0.198839 3.4673 0
M  V30 3719 C 340.621 0.676456 4.2262 0
M  V30 3720 C 339.947 -0.167248 5.34438 0
M  V30 3721 C 341.247 1.96017 4.84123 0
M  V30 3722 H 342.941 1.3765 2.65881 0
M  V30 3723 H 340.487 0.663321 1.27813 0
M  V30 3724 H 342.44 -0.526567 4.18097 0
M  V30 3725 H 341.164 -1.0962 3.07654 0
M  V30 3726 H 339.823 0.98743 3.53052 0
M  V30 3727 H 339.471 -1.0647 4.91603 0
M  V30 3728 H 339.171 0.415181 5.86131 0
M  V30 3729 H 340.695 -0.489688 6.08633 0
M  V30 3730 H 342.109 1.69814 5.47573 0
M  V30 3731 H 340.506 2.48918 5.4604 0
M  V30 3732 H 341.576 2.65622 4.05676 0
M  V30 3733 N 342.919 -1.39368 0.735821 0
M  V30 3734 C 343.882 -2.2896 0.104874 0
M  V30 3735 C 344.882 -1.46347 -0.666274 0
M  V30 3736 O 346.072 -1.67014 -0.49517 0
M  V30 3737 C 343.204 -3.29857 -0.860656 0
M  V30 3738 H 344.397 -2.86259 0.894205 0
M  V30 3739 H 341.95 -1.48029 0.501704 0
M  V30 3740 H 342.685 -2.77615 -1.67631 0
M  V30 3741 H 342.47 -3.9087 -0.310327 0
M  V30 3742 H 343.96 -3.96893 -1.29867 0
M  V30 3743 N 344.397 -0.483516 -1.5 0
M  V30 3744 C 345.345 0.318061 -2.30415 0
M  V30 3745 C 346.339 0.978988 -1.38247 0
M  V30 3746 O 347.545 0.908673 -1.55381 0
M  V30 3747 H 343.92 0.121419 -0.742133 0
M  V30 3748 H 345.891 -0.380403 -2.95965 0
M  V30 3749 C 344.64 1.38013 -3.19136 0
M  V30 3750 H 343.963 0.880952 -3.89973 0
M  V30 3751 H 345.403 1.91332 -3.78375 0
M  V30 3752 C 343.862 2.38884 -2.37563 0
M  V30 3753 O 344.392 3.44412 -2.06744 0
M  V30 3754 N 342.598 2.10912 -1.99911 0
M  V30 3755 H 342.145 1.25118 -2.25174 0
M  V30 3756 H 342.103 2.78635 -1.45636 0
M  V30 3757 N 345.875 1.56104 -0.216619 0
M  V30 3758 C 346.805 2.23063 0.690296 0
M  V30 3759 C 347.786 1.20072 1.20485 0
M  V30 3760 O 348.971 1.48643 1.24976 0
M  V30 3761 C 346.101 2.90672 1.90072 0
M  V30 3762 C 345.055 4.00092 1.5202 0
M  V30 3763 C 344.381 4.54972 2.80899 0
M  V30 3764 C 345.681 5.17398 0.71391 0
M  V30 3765 H 347.375 2.99109 0.132038 0
M  V30 3766 H 344.921 1.43866 0.0620664 0
M  V30 3767 H 346.874 3.36204 2.54057 0
M  V30 3768 H 345.598 2.12066 2.48386 0
M  V30 3769 H 344.257 3.55283 0.903839 0
M  V30 3770 H 343.905 3.73102 3.37348 0
M  V30 3771 H 343.605 5.28817 2.56176 0
M  V30 3772 H 345.129 5.0322 3.45836 0
M  V30 3773 H 346.543 5.59342 1.25735 0
M  V30 3774 H 344.94 5.97444 0.563951 0
M  V30 3775 H 346.01 4.84088 -0.280527 0
M  V30 3776 N 347.353 -0.0568162 1.57498 0
M  V30 3777 C 348.583 -0.764515 1.91934 0
M  V30 3778 C 348.991 -1.70877 0.81227 0
M  V30 3779 O 348.334 -1.82351 -0.222213 0
M  V30 3780 C 348.396 -1.5994 3.21962 0
M  V30 3781 C 348.06 -0.822925 4.4953 0
M  V30 3782 C 349.057 -0.135464 5.19723 0
M  V30 3783 C 346.742 -0.785666 4.96117 0
M  V30 3784 C 348.736 0.578861 6.34766 0
M  V30 3785 C 346.423 -0.0675784 6.11063 0
M  V30 3786 C 347.421 0.613471 6.80239 0
M  V30 3787 O 347.109 1.31996 7.92989 0
M  V30 3788 H 346.841 -0.221647 0.63863 0
M  V30 3789 H 349.395 -0.0268218 2.05382 0
M  V30 3790 H 347.625 -2.38026 3.04763 0
M  V30 3791 H 349.314 -2.18715 3.41934 0
M  V30 3792 H 350.08 -0.155458 4.84751 0
M  V30 3793 H 345.959 -1.30524 4.42136 0
M  V30 3794 H 349.503 1.111 6.88696 0
M  V30 3795 H 345.4 -0.0455636 6.45484 0
M  V30 3796 H 346.168 1.23077 8.09194 0
M  V30 3797 N 348.832 -1.54138 -0.328536 0
M  V30 3798 C 349.764 -1.79509 -1.4251 0
M  V30 3799 C 350.777 -0.67688 -1.48061 0
M  V30 3800 O 351.966 -0.953898 -1.50874 0
M  V30 3801 C 349.066 -1.89337 -2.81078 0
M  V30 3802 C 348.239 -3.19443 -2.98789 0
M  V30 3803 C 347.298 -3.20036 -4.17688 0
M  V30 3804 O 346.324 -3.93697 -4.11086 0
M  V30 3805 N 347.526 -2.43467 -5.26976 0
M  V30 3806 H 350.291 -2.74139 -1.21111 0
M  V30 3807 H 347.852 -1.53373 -0.518499 0
M  V30 3808 H 349.844 -1.87167 -3.58818 0
M  V30 3809 H 348.414 -1.01826 -2.95551 0
M  V30 3810 H 347.634 -3.34614 -2.08391 0
M  V30 3811 H 348.922 -4.05354 -3.07515 0
M  V30 3812 H 348.32 -1.83201 -5.35214 0
M  V30 3813 H 346.877 -2.4708 -6.03154 0
M  V30 3814 N 350.31 0.590341 -1.46126 0
M  V30 3815 C 351.258 1.72105 -1.5647 0
M  V30 3816 C 352.252 1.63756 -0.433612 0
M  V30 3817 O 353.458 1.69342 -0.610194 0
M  V30 3818 H 349.833 0.568889 -0.491802 0
M  V30 3819 H 351.804 1.6051 -2.51553 0
M  V30 3820 C 350.553 3.10493 -1.56491 0
M  V30 3821 H 349.876 3.17583 -2.4286 0
M  V30 3822 H 351.316 3.8939 -1.67785 0
M  V30 3823 C 349.775 3.3563 -0.292231 0
M  V30 3824 O 350.305 3.96875 0.620739 0
M  V30 3825 N 348.511 2.90026 -0.182523 0
M  V30 3826 H 348.058 2.40367 -0.926356 0
M  V30 3827 H 348.016 3.07218 0.668152 0
M  V30 3828 N 351.788 1.33704 0.83433 0
M  V30 3829 C 352.721 1.18675 1.94914 0
M  V30 3830 C 353.699 0.0811145 1.62398 0
M  V30 3831 O 354.883 0.244186 1.86912 0
M  V30 3832 C 352.01 0.821231 3.28593 0
M  V30 3833 C 351.056 1.93501 3.80079 0
M  V30 3834 S 351.889 3.54671 4.01209 0
M  V30 3835 C 353.045 3.20136 5.37833 0
M  V30 3836 H 353.278 2.13043 2.07364 0
M  V30 3837 H 350.811 1.18598 0.988624 0
M  V30 3838 H 352.769 0.617123 4.05835 0
M  V30 3839 H 351.43 -0.103927 3.13928 0
M  V30 3840 H 350.623 1.63273 4.76821 0
M  V30 3841 H 350.225 2.09601 3.09747 0
M  V30 3842 H 352.517 2.71242 6.20833 0
M  V30 3843 H 353.46 4.15975 5.73036 0
M  V30 3844 H 353.868 2.56613 5.02802 0
M  V30 3845 N 353.266 -1.05314 1.17247 0
M  V30 3846 C 354.491 -1.82509 0.985148 0
M  V30 3847 C 354.916 -1.82343 -0.461788 0
M  V30 3848 O 354.274 -1.23151 -1.33055 0
M  V30 3849 C 354.322 -3.26566 1.52929 0
M  V30 3850 O 353.426 -4.05666 0.742225 0
M  V30 3851 H 352.767 -0.564347 0.349869 0
M  V30 3852 H 355.297 -1.32718 1.55715 0
M  V30 3853 H 355.307 -3.77369 1.55103 0
M  V30 3854 H 353.982 -3.26001 2.58256 0
M  V30 3855 H 352.559 -3.64397 0.791794 0
M  V30 3856 N 354.744 -0.972509 -1.24016 0
M  V30 3857 C 355.99 -0.637978 -1.92504 0
M  V30 3858 C 356.323 0.825383 -1.75787 0
M  V30 3859 O 355.598 1.59442 -1.11393 0
M  V30 3860 C 355.881 -1.01942 -3.45369 0
M  V30 3861 C 355.734 -2.53983 -3.71231 0
M  V30 3862 C 357.053 -0.55751 -4.36555 0
M  V30 3863 H 354.172 -0.233248 -0.699117 0
M  V30 3864 H 356.814 -1.21238 -1.46292 0
M  V30 3865 H 354.964 -0.530656 -3.84859 0
M  V30 3866 H 356.636 -3.10374 -3.41271 0
M  V30 3867 H 354.879 -2.96968 -3.16216 0
M  V30 3868 H 355.55 -2.75723 -4.78206 0
M  V30 3869 H 358.026 -0.977029 -4.04467 0
M  V30 3870 H 356.902 -0.85292 -5.42233 0
M  V30 3871 H 357.163 0.542328 -4.38761 0
M  V30 3872 N 356.222 1.38976 -0.743202 0
M  V30 3873 C 357.152 2.33171 -0.123873 0
M  V30 3874 C 358.133 1.54336 0.71516 0
M  V30 3875 O 359.318 1.82696 0.658467 0
M  V30 3876 C 356.448 3.38474 0.777978 0
M  V30 3877 C 355.402 4.27979 0.0424758 0
M  V30 3878 C 354.728 5.2405 1.06189 0
M  V30 3879 C 356.028 5.10155 -1.1198 0
M  V30 3880 H 357.722 2.85213 -0.910709 0
M  V30 3881 H 355.268 1.37133 -0.439388 0
M  V30 3882 H 357.221 4.03328 1.22084 0
M  V30 3883 H 355.945 2.84891 1.59702 0
M  V30 3884 H 354.604 3.64616 -0.380853 0
M  V30 3885 H 354.252 4.66758 1.87472 0
M  V30 3886 H 353.952 5.84785 0.574485 0
M  V30 3887 H 355.476 5.9178 1.50428 0
M  V30 3888 H 356.89 5.68307 -0.75499 0
M  V30 3889 H 355.287 5.80073 -1.53738 0
M  V30 3890 H 356.357 4.44504 -1.93764 0
M  V30 3891 N 357.7 0.491464 1.49741 0
M  V30 3892 C 358.61 -0.296835 2.32715 0
M  V30 3893 C 359.626 -0.976536 1.44013 0
M  V30 3894 O 360.802 -0.960023 1.77047 0
M  V30 3895 C 357.867 -1.35288 3.19215 0
M  V30 3896 C 356.928 -0.687632 4.23757 0
M  V30 3897 C 356.161 -1.69336 5.06123 0
M  V30 3898 O 356.384 -2.92219 4.89861 0
M  V30 3899 O 355.318 -1.25394 5.88693 0
M  V30 3900 H 359.144 0.382048 3.01287 0
M  V30 3901 H 356.729 0.252953 1.47243 0
M  V30 3902 H 358.611 -1.96411 3.72828 0
M  V30 3903 H 357.286 -2.01487 2.53347 0
M  V30 3904 H 356.193 -0.0369159 3.74082 0
M  V30 3905 H 357.526 -0.0682566 4.92153 0
M  V30 3906 N 359.178 -1.55987 0.224894 0
M  V30 3907 C 360.126 -2.21808 -0.700283 0
M  V30 3908 C 361.12 -1.19854 -1.19714 0
M  V30 3909 O 362.326 -1.37925 -1.15658 0
M  V30 3910 H 358.701 -0.711226 -0.244258 0
M  V30 3911 H 360.672 -2.98152 -0.121749 0
M  V30 3912 C 359.421 -2.91444 -1.8962 0
M  V30 3913 H 358.744 -3.69655 -1.52299 0
M  V30 3914 H 360.184 -3.40894 -2.52125 0
M  V30 3915 C 358.643 -1.94098 -2.75368 0
M  V30 3916 O 359.173 -1.46004 -3.74227 0
M  V30 3917 N 357.379 -1.61675 -2.41474 0
M  V30 3918 H 356.926 -2.00979 -1.61137 0
M  V30 3919 H 356.884 -0.968036 -2.99126 0
M  V30 3920 N 360.656 0.0484629 -1.57525 0
M  V30 3921 C 361.606 1.06246 -2.01732 0
M  V30 3922 C 362.59 1.33155 -0.903245 0
M  V30 3923 O 363.782 1.33065 -1.16717 0
M  V30 3924 C 360.911 2.36943 -2.48421 0
M  V30 3925 C 359.997 2.13208 -3.6661 0
M  V30 3926 N 360.388 1.5947 -4.80003 0
M  V30 3927 C 358.686 2.43581 -3.7361 0
M  V30 3928 C 359.387 1.51092 -5.61735 0
M  V30 3929 N 358.363 1.9797 -5.0627 0
M  V30 3930 H 362.165 0.640675 -2.86832 0
M  V30 3931 H 359.679 0.255134 -1.60383 0
M  V30 3932 H 361.676 3.10374 -2.78341 0
M  V30 3933 H 360.336 2.79818 -1.64718 0
M  V30 3934 H 361.347 1.28008 -5.01831 0
M  V30 3935 H 358.024 2.89662 -3.00669 0
M  V30 3936 H 359.414 1.10199 -6.62801 0
M  V30 3937 N 362.134 1.5431 0.320358 0
M  V30 3938 C 363.084 1.803 1.39556 0
M  V30 3939 C 364.068 0.659166 1.46778 0
M  V30 3940 O 365.26 0.91926 1.51257 0
M  V30 3941 C 362.389 2.03665 2.76361 0
M  V30 3942 C 361.475 3.24178 2.73439 0
M  V30 3943 N 361.866 4.4516 2.40137 0
M  V30 3944 C 360.164 3.25816 3.04565 0
M  V30 3945 C 360.865 5.27109 2.4603 0
M  V30 3946 N 359.841 4.64368 2.82601 0
M  V30 3947 H 363.643 2.71416 1.12742 0
M  V30 3948 H 361.157 1.53548 0.528856 0
M  V30 3949 H 363.154 2.20425 3.53862 0
M  V30 3950 H 361.814 1.13805 3.04103 0
M  V30 3951 H 362.825 4.72104 2.12927 0
M  V30 3952 H 359.502 2.46001 3.37328 0
M  V30 3953 H 360.892 6.33728 2.23246 0
M  V30 3954 N 363.613 -0.582584 1.46437 0
M  V30 3955 C 364.859 -1.34064 1.52965 0
M  V30 3956 C 365.214 -1.91566 0.178968 0
M  V30 3957 O 364.507 -1.73526 -0.812365 0
M  V30 3958 C 364.701 -2.48964 2.56421 0
M  V30 3959 C 364.53 -2.02717 4.01417 0
M  V30 3960 C 363.3 -1.87728 4.69134 0
M  V30 3961 C 365.498 -1.58675 4.8921 0
M  V30 3962 N 363.48 -1.35554 5.98747 0
M  V30 3963 C 364.851 -1.18093 6.08649 0
M  V30 3964 C 366.906 -1.46494 4.75861 0
M  V30 3965 C 365.609 -0.665427 7.16215 0
M  V30 3966 C 367.635 -0.96347 5.83499 0
M  V30 3967 C 366.997 -0.567432 7.02111 0
M  V30 3968 H 363.096 -0.483551 0.614575 0
M  V30 3969 H 365.68 -0.663309 1.83053 0
M  V30 3970 H 363.851 -3.1426 2.28244 0
M  V30 3971 H 365.583 -3.15913 2.52944 0
M  V30 3972 H 362.338 -2.09678 4.24655 0
M  V30 3973 H 362.762 -1.11628 6.67734 0
M  V30 3974 H 367.404 -1.75731 3.8455 0
M  V30 3975 H 365.122 -0.360639 8.07295 0
M  V30 3976 H 368.708 -0.873129 5.75211 0
M  V30 3977 H 367.588 -0.185389 7.83981 0
M  V30 3978 N 365.091 -1.34144 -0.827227 0
M  V30 3979 C 366.507 -1.13732 -1.11969 0
M  V30 3980 C 366.707 0.0640463 -2.01398 0
M  V30 3981 O 365.763 0.740856 -2.41387 0
M  V30 3982 C 367.076 -2.43047 -1.77055 0
M  V30 3983 C 368.624 -2.49063 -1.89569 0
M  V30 3984 C 369.099 -3.78369 -2.58072 0
M  V30 3985 N 370.59 -3.79505 -2.65575 0
M  V30 3986 C 371.325 -4.76274 -3.19297 0
M  V30 3987 N 370.821 -5.83424 -3.73616 0
M  V30 3988 N 372.614 -4.63735 -3.17658 0
M  V30 3989 H 364.765 -2.11126 -0.232296 0
M  V30 3990 H 367.028 -0.933424 -0.165602 0
M  V30 3991 H 366.734 -3.31025 -1.18807 0
M  V30 3992 H 366.608 -2.56066 -2.76966 0
M  V30 3993 H 368.995 -1.61527 -2.46968 0
M  V30 3994 H 369.076 -2.39975 -0.885745 0
M  V30 3995 H 368.72 -4.66293 -2.01329 0
M  V30 3996 H 368.65 -3.84737 -3.59562 0
M  V30 3997 H 371.141 -3.02074 -2.27068 0
M  V30 3998 H 371.454 -6.53282 -4.12846 0
M  V30 3999 H 369.799 -5.87143 -3.71871 0
M  V30 4000 H 372.99 -3.79177 -2.74486 0
M  V30 4001 H 373.163 -5.39318 -3.59221 0
M  V30 4002 N 366.569 1.04691 -1.17803 0
M  V30 4003 C 367.794 1.81984 -0.994813 0
M  V30 4004 C 368.219 1.82586 0.452112 0
M  V30 4005 O 367.577 1.23854 1.324 0
M  V30 4006 C 367.625 3.2575 -1.54659 0
M  V30 4007 O 366.729 4.05267 -0.763728 0
M  V30 4008 H 366.07 0.562483 -0.352857 0
M  V30 4009 H 368.6 1.3189 -1.56417 0
M  V30 4010 H 368.61 3.76541 -1.57102 0
M  V30 4011 H 367.285 3.24627 -2.59981 0
M  V30 4012 H 365.862 3.63972 -0.811108 0
M  V30 4013 N 368.047 0.979072 1.23499 0
M  V30 4014 C 369.275 0.665202 1.95915 0
M  V30 4015 C 369.69 -0.767571 1.72493 0
M  V30 4016 O 369.047 -1.51635 1.01554 0
M  V30 4017 C 369.098 0.944438 3.48945 0
M  V30 4018 O 368.819 2.3209 3.71572 0
M  V30 4019 C 370.32 0.646336 4.38563 0
M  V30 4020 H 367.54 0.247218 0.623798 0
M  V30 4021 H 370.084 1.31009 1.57025 0
M  V30 4022 H 368.239 0.345575 3.85856 0
M  V30 4023 H 368.653 2.40957 4.65876 0
M  V30 4024 H 370.127 0.892091 5.44744 0
M  V30 4025 H 370.604 -0.419575 4.37191 0
M  V30 4026 H 371.21 1.22562 4.07258 0
M  V30 4027 N 369.525 -1.3858 0.750561 0
M  V30 4028 C 370.774 -1.99424 0.302172 0
M  V30 4029 C 371.087 -1.60254 -1.12152 0
M  V30 4030 O 372.293 -2.14046 -1.67023 0
M  V30 4031 C 370.749 -3.56558 0.489307 0
M  V30 4032 C 370.357 -4.04682 1.92189 0
M  V30 4033 C 372.101 -4.24374 0.103478 0
M  V30 4034 C 370.008 -5.54446 2.05775 0
M  V30 4035 H 368.938 -0.746046 0.10923 0
M  V30 4036 H 371.589 -1.58383 0.92667 0
M  V30 4037 H 369.971 -3.95472 -0.204329 0
M  V30 4038 H 371.145 -3.77065 2.64875 0
M  V30 4039 H 369.46 -3.4958 2.26236 0
M  V30 4040 H 372.057 -5.34384 0.183787 0
M  V30 4041 H 372.4 -4.05468 -0.943481 0
M  V30 4042 H 372.933 -3.90688 0.748854 0
M  V30 4043 H 369.672 -5.78252 3.08714 0
M  V30 4044 H 369.192 -5.83816 1.37546 0
M  V30 4045 H 370.871 -6.20099 1.84626 0
M  V30 4046 N 371.003 -0.499398 -1.49478 0
M  V30 4047 C 372.251 0.0455996 -2.02049 0
M  V30 4048 C 372.572 1.37633 -1.38138 0
M  V30 4049 O 371.842 1.8842 -0.536166 0
M  V30 4050 H 370.422 0.0198416 -0.746736 0
M  V30 4051 H 373.084 -0.656274 -1.83519 0
M  V30 4052 H 372.18 0.176445 -3.11601 0
M  V30 4053 N 372.481 1.55866 -0.233164 0
M  V30 4054 C 373.414 2.16794 0.712442 0
M  V30 4055 C 374.392 1.1158 1.18273 0
M  V30 4056 O 375.576 1.39897 1.26337 0
M  V30 4057 C 372.703 2.75757 1.96661 0
M  V30 4058 C 371.749 3.93902 1.63533 0
M  V30 4059 S 372.582 5.30223 0.74995 0
M  V30 4060 C 373.738 5.92631 2.01343 0
M  V30 4061 H 373.971 2.96662 0.194617 0
M  V30 4062 H 371.504 1.5439 -0.0177425 0
M  V30 4063 H 373.462 3.10367 2.68668 0
M  V30 4064 H 372.123 1.9586 2.45556 0
M  V30 4065 H 371.316 4.33702 2.56747 0
M  V30 4066 H 370.918 3.60499 0.995804 0
M  V30 4067 H 373.21 6.09312 2.96219 0
M  V30 4068 H 374.153 6.88388 1.65915 0
M  V30 4069 H 374.561 5.21571 2.15925 0
M  V30 4070 N 373.959 -0.0401083 1.57549 0
M  V30 4071 C 374.889 -1.04384 2.08869 0
M  V30 4072 C 375.87 -1.38407 0.988817 0
M  V30 4073 O 377.055 -1.47483 1.26342 0
M  V30 4074 C 374.185 -2.34808 2.55895 0
M  V30 4075 C 373.139 -2.15057 3.70047 0
M  V30 4076 C 372.465 -3.51145 4.03239 0
M  V30 4077 C 373.765 -1.54576 4.98902 0
M  V30 4078 H 375.459 -0.616666 2.92981 0
M  V30 4079 H 373.005 -0.295184 1.40942 0
M  V30 4080 H 374.958 -3.05346 2.90417 0
M  V30 4081 H 373.682 -2.79565 1.68853 0
M  V30 4082 H 372.341 -1.46954 3.35857 0
M  V30 4083 H 371.989 -3.93529 3.13279 0
M  V30 4084 H 371.689 -3.38758 4.80122 0
M  V30 4085 H 373.213 -4.23062 4.40285 0
M  V30 4086 H 374.627 -2.15017 5.31451 0
M  V30 4087 H 373.024 -1.52796 5.80322 0
M  V30 4088 H 374.094 -0.51039 4.82206 0
M  V30 4089 N 375.437 -1.54477 -0.31217 0
M  V30 4090 C 376.853 -1.45442 -0.657185 0
M  V30 4091 C 377.053 -0.63653 -1.91182 0
M  V30 4092 O 376.109 -0.139815 -2.52113 0
M  V30 4093 C 377.422 -2.89287 -0.82058 0
M  V30 4094 C 378.97 -2.9926 -0.917188 0
M  V30 4095 C 379.445 -4.44279 -1.11267 0
M  V30 4096 N 380.936 -4.4794 -1.17914 0
M  V30 4097 C 381.671 -5.57318 -1.34848 0
M  V30 4098 N 381.167 -6.76642 -1.48752 0
M  V30 4099 N 382.96 -5.44986 -1.37647 0
M  V30 4100 H 375.111 -2.06129 0.512313 0
M  V30 4101 H 377.374 -0.933088 0.167485 0
M  V30 4102 H 377.08 -3.51687 0.0302604 0
M  V30 4103 H 376.954 -3.36061 -1.71298 0
M  V30 4104 H 379.341 -2.36981 -1.75852 0
M  V30 4105 H 379.422 -2.558 -0.00101257 0
M  V30 4106 H 379.066 -5.07149 -0.27614 0
M  V30 4107 H 378.996 -4.85359 -2.04289 0
M  V30 4108 H 381.487 -3.61969 -1.08567 0
M  V30 4109 H 381.8 -7.55758 -1.61397 0
M  V30 4110 H 380.145 -6.79529 -1.45828 0
M  V30 4111 H 383.336 -4.50715 -1.26388 0
M  V30 4112 H 383.509 -6.3028 -1.50501 0
M  V30 4113 N 376.915 0.57481 -1.46744 0
M  V30 4114 C 377.825 1.711 -1.60505 0
M  V30 4115 C 378.841 1.67008 -0.488307 0
M  V30 4116 O 380.017 1.86774 -0.753495 0
M  V30 4117 C 377.082 3.07608 -1.59932 0
M  V30 4118 C 376.143 3.22904 -2.82898 0
M  V30 4119 C 375.376 4.529 -2.82343 0
M  V30 4120 O 375.599 5.37278 -1.91542 0
M  V30 4121 O 374.533 4.71611 -3.73987 0
M  V30 4122 H 378.359 1.62436 -2.56609 0
M  V30 4123 H 375.944 0.742779 -1.29627 0
M  V30 4124 H 377.826 3.88877 -1.62336 0
M  V30 4125 H 376.501 3.16692 -0.669898 0
M  V30 4126 H 375.408 2.41099 -2.86046 0
M  V30 4127 H 376.741 3.18715 -3.75076 0
M  V30 4128 N 378.394 1.34581 0.820102 0
M  V30 4129 C 379.619 1.30333 1.61332 0
M  V30 4130 C 380.044 -0.119339 1.87721 0
M  V30 4131 O 379.402 -1.08197 1.45475 0
M  V30 4132 C 379.45 2.10258 2.92957 0
M  V30 4133 O 378.554 1.47404 3.85157 0
M  V30 4134 H 377.895 0.447488 0.490561 0
M  V30 4135 H 380.425 1.77425 1.01889 0
M  V30 4136 H 380.435 2.21718 3.42498 0
M  V30 4137 H 379.11 3.13693 2.73074 0
M  V30 4138 H 377.687 1.44703 3.43679 0
M  V30 4139 N 379.872 -1.04064 1.18357 0
M  V30 4140 C 381.288 -1.2947 0.933258 0
M  V30 4141 C 381.488 -1.97466 -0.401169 0
M  V30 4142 O 380.544 -2.25528 -1.13549 0
M  V30 4143 C 381.857 -2.15337 2.09882 0
M  V30 4144 C 383.405 -2.28683 2.13712 0
M  V30 4145 C 383.88 -3.17917 3.29686 0
M  V30 4146 N 385.371 -3.25504 3.29547 0
M  V30 4147 C 386.106 -3.94706 4.15926 0
M  V30 4148 N 385.602 -4.66239 5.12439 0
M  V30 4149 N 387.395 -3.90986 4.0384 0
M  V30 4150 H 379.546 -0.583359 2.04232 0
M  V30 4151 H 381.809 -0.319921 0.892387 0
M  V30 4152 H 381.515 -1.72682 3.06389 0
M  V30 4153 H 381.389 -3.16015 2.05947 0
M  V30 4154 H 383.776 -2.70575 1.17784 0
M  V30 4155 H 383.857 -1.27596 2.21705 0
M  V30 4156 H 383.501 -2.76736 4.25887 0
M  V30 4157 H 383.431 -4.19036 3.1893 0
M  V30 4158 H 385.922 -2.74547 2.59677 0
M  V30 4159 H 386.235 -5.16638 5.74722 0
M  V30 4160 H 384.58 -4.65143 5.16398 0
M  V30 4161 H 387.771 -3.34234 3.27727 0
M  V30 4162 H 387.944 -4.44646 4.71375 0
M  V30 4163 N 381.35 -0.985608 -1.22978 0
M  V30 4164 C 382.28 -0.549649 -2.26939 0
M  V30 4165 C 383.261 0.419803 -1.64838 0
M  V30 4166 O 384.446 0.31203 -1.91677 0
M  V30 4167 C 381.576 0.143652 -3.47003 0
M  V30 4168 C 380.53 -0.743606 -4.21491 0
M  V30 4169 C 379.856 0.0822027 -5.34637 0
M  V30 4170 C 381.156 -2.03694 -4.80943 0
M  V30 4171 H 382.85 -1.41862 -2.63658 0
M  V30 4172 H 380.396 -0.683571 -1.26741 0
M  V30 4173 H 382.349 0.459985 -4.18882 0
M  V30 4174 H 381.073 1.04711 -3.09359 0
M  V30 4175 H 379.732 -1.04347 -3.51436 0
M  V30 4176 H 379.38 0.986359 -4.93234 0
M  V30 4177 H 379.08 -0.508377 -5.85397 0
M  V30 4178 H 380.604 0.392797 -6.09335 0
M  V30 4179 H 382.018 -1.78504 -5.44802 0
M  V30 4180 H 380.415 -2.57573 -5.42011 0
M  V30 4181 H 381.485 -2.72042 -4.01399 0
M  V30 4182 N 382.828 1.3818 -0.7579 0
M  V30 4183 C 383.758 2.33027 -0.148597 0
M  V30 4184 C 384.739 1.55085 0.69875 0
M  V30 4185 O 385.924 1.83384 0.639053 0
M  V30 4186 C 383.054 3.3928 0.742034 0
M  V30 4187 C 382.008 4.28 -0.00291946 0
M  V30 4188 C 381.334 5.25146 1.00625 0
M  V30 4189 C 382.634 5.08938 -1.17385 0
M  V30 4190 H 384.328 2.84231 -0.940909 0
M  V30 4191 H 381.874 1.36659 -0.453908 0
M  V30 4192 H 383.827 4.046 1.17799 0
M  V30 4193 H 382.551 2.86569 1.56671 0
M  V30 4194 H 381.21 3.64192 -0.419504 0
M  V30 4195 H 380.858 4.68721 1.8251 0
M  V30 4196 H 380.558 5.85361 0.512428 0
M  V30 4197 H 382.082 5.93342 1.44143 0
M  V30 4198 H 383.496 5.67474 -0.815224 0
M  V30 4199 H 381.893 5.7841 -1.59882 0
M  V30 4200 H 382.963 4.42424 -1.98468 0
M  V30 4201 N 384.306 0.507319 1.49211 0
M  V30 4202 C 385.269 -0.256763 2.27757 0
M  V30 4203 C 386.269 -0.888287 1.34038 0
M  V30 4204 O 387.459 -0.751841 1.5714 0
M  V30 4205 C 384.591 -1.36905 3.12202 0
M  V30 4206 H 385.784 0.432557 2.96764 0
M  V30 4207 H 383.337 0.262488 1.5408 0
M  V30 4208 H 384.072 -2.09233 2.47775 0
M  V30 4209 H 383.857 -0.921599 3.81115 0
M  V30 4210 H 385.347 -1.9071 3.7151 0
M  V30 4211 N 385.784 -1.5574 0.241426 0
M  V30 4212 C 386.734 -2.17803 -0.674233 0
M  V30 4213 C 387.718 -1.13225 -1.14319 0
M  V30 4214 O 388.91 -1.39153 -1.09387 0
M  V30 4215 C 386.039 -2.87682 -1.87333 0
M  V30 4216 C 385.125 -3.99509 -1.42313 0
M  V30 4217 N 385.516 -5.01115 -0.686798 0
M  V30 4218 C 383.814 -4.11964 -1.70885 0
M  V30 4219 C 384.515 -5.79922 -0.454456 0
M  V30 4220 N 383.491 -5.34001 -1.01705 0
M  V30 4221 H 387.293 -2.93718 -0.103447 0
M  V30 4222 H 384.807 -1.62342 0.0435095 0
M  V30 4223 H 386.804 -3.3057 -2.54026 0
M  V30 4224 H 385.464 -2.13269 -2.4484 0
M  V30 4225 H 386.475 -5.16799 -0.337459 0
M  V30 4226 H 383.152 -3.48718 -2.2957 0
M  V30 4227 H 384.542 -6.71768 0.132992 0
M  V30 4228 N 387.262 0.0317525 -1.57568 0
M  V30 4229 C 388.192 1.03274 -2.0942 0
M  V30 4230 C 389.173 1.3788 -0.996143 0
M  V30 4231 O 390.358 1.46811 -1.27122 0
M  V30 4232 C 387.488 2.33448 -2.57137 0
M  V30 4233 C 386.442 2.13091 -3.71182 0
M  V30 4234 C 385.768 3.49001 -4.05095 0
M  V30 4235 C 387.068 1.51928 -4.99715 0
M  V30 4236 H 388.762 0.60112 -2.93303 0
M  V30 4237 H 386.308 0.287705 -1.41097 0
M  V30 4238 H 388.261 3.03802 -2.92032 0
M  V30 4239 H 386.985 2.78665 -1.70333 0
M  V30 4240 H 385.644 1.45171 -3.36632 0
M  V30 4241 H 385.292 3.91862 -3.15362 0
M  V30 4242 H 384.992 3.36207 -4.81911 0
M  V30 4243 H 386.516 4.20721 -4.42522 0
M  V30 4244 H 387.93 2.12196 -5.32584 0
M  V30 4245 H 386.327 1.49716 -5.81124 0
M  V30 4246 H 387.397 0.484811 -4.8247 0
M  V30 4247 N 388.74 1.54641 0.303973 0
M  V30 4248 C 390.151 1.64811 0.877163 0
M  V30 4249 C 390.502 0.554838 1.88191 0
M  V30 4250 O 389.627 -0.309033 2.14182 0
M  V30 4251 C 390.222 2.9876 1.59775 0
M  V30 4252 C 388.781 3.11061 2.11938 0
M  V30 4253 C 387.928 2.60479 0.951097 0
M  V30 4254 H 390.879 1.58493 0.0810486 0
M  V30 4255 H 390.9 2.90017 2.46314 0
M  V30 4256 H 390.412 3.7831 0.866226 0
M  V30 4257 H 388.513 2.36225 2.88146 0
M  V30 4258 H 388.626 4.17171 2.35595 0
M  V30 4259 H 386.99 2.16859 1.33583 0
M  V30 4260 H 387.773 3.42504 0.233581 0
M  V30 4261 N 390.218 -0.567019 1.47046 0
M  V30 4262 C 391.165 -1.67489 1.58796 0
M  V30 4263 C 392.135 -1.60399 0.43144 0
M  V30 4264 O 393.32 -1.79378 0.650233 0
M  V30 4265 C 390.46 -3.05821 1.59899 0
M  V30 4266 C 389.573 -3.2342 2.86397 0
M  V30 4267 C 388.708 -4.52093 2.789 0
M  V30 4268 C 387.747 -4.6309 4.00267 0
M  V30 4269 N 386.884 -5.83106 3.91064 0
M  V30 4270 H 391.724 -1.56785 2.53422 0
M  V30 4271 H 389.261 -0.763896 1.2571 0
M  V30 4272 H 391.219 -3.8591 1.58522 0
M  V30 4273 H 389.849 -3.15384 0.687929 0
M  V30 4274 H 388.901 -2.3683 2.97684 0
M  V30 4275 H 390.213 -3.27412 3.76301 0
M  V30 4276 H 389.367 -5.4043 2.75718 0
M  V30 4277 H 388.106 -4.50565 1.86662 0
M  V30 4278 H 387.111 -3.73168 4.03765 0
M  V30 4279 H 388.336 -4.66386 4.93621 0
M  V30 4280 H 386.282 -5.82546 3.01623 0
M  V30 4281 H 386.199 -5.88434 4.74638 0
M  V30 4282 H 387.467 -6.73831 3.91882 0
M  V30 4283 N 391.696 -1.35014 -0.812953 0
M  V30 4284 C 392.606 -1.2951 -1.95613 0
M  V30 4285 C 393.622 -0.20107 -1.72834 0
M  V30 4286 O 394.798 -0.42932 -1.96771 0
M  V30 4287 C 391.863 -1.06033 -3.30088 0
M  V30 4288 C 390.924 -2.24688 -3.65805 0
M  V30 4289 C 390.157 -2.02322 -4.93864 0
M  V30 4290 O 390.38 -0.986464 -5.61805 0
M  V30 4291 O 389.314 -2.89525 -5.27692 0
M  V30 4292 H 393.14 -2.25705 -2.03202 0
M  V30 4293 H 390.725 -1.15321 -0.949811 0
M  V30 4294 H 392.607 -0.94763 -4.10607 0
M  V30 4295 H 391.282 -0.128852 -3.23443 0
M  V30 4296 H 390.189 -2.41521 -2.85689 0
M  V30 4297 H 391.522 -3.16261 -3.77147 0
M  V30 4298 N 393.175 1.03435 -1.18907 0
M  V30 4299 C 394.108 2.11162 -0.86521 0
M  V30 4300 C 395.086 1.6165 0.175473 0
M  V30 4301 O 396.27 1.88425 0.0530129 0
M  V30 4302 C 393.397 3.37423 -0.293868 0
M  V30 4303 C 392.443 4.05795 -1.31274 0
M  V30 4304 S 393.276 4.52027 -2.8711 0
M  V30 4305 C 394.432 5.81513 -2.31504 0
M  V30 4306 H 394.665 2.38308 -1.77754 0
M  V30 4307 H 392.198 1.16295 -1.01562 0
M  V30 4308 H 394.156 4.1049 0.0292572 0
M  V30 4309 H 392.817 3.0838 0.596682 0
M  V30 4310 H 392.01 4.96574 -0.86198 0
M  V30 4311 H 391.612 3.38874 -1.58242 0
M  V30 4312 H 393.904 6.55784 -1.70157 0
M  V30 4313 H 394.847 6.3136 -3.20608 0
M  V30 4314 H 395.255 5.36921 -1.74286 0
M  V30 4315 N 394.653 0.992116 1.22453 0
M  V30 4316 C 395.881 0.685944 1.95198 0
M  V30 4317 C 396.296 -0.749233 1.73297 0
M  V30 4318 O 395.653 -1.50549 1.03156 0
M  V30 4319 C 395.704 0.981395 3.47924 0
M  V30 4320 O 395.425 2.36018 3.6909 0
M  V30 4321 C 396.926 0.692815 4.37853 0
M  V30 4322 H 394.146 0.253821 0.621141 0
M  V30 4323 H 396.69 1.32668 1.55626 0
M  V30 4324 H 394.845 0.386481 3.85467 0
M  V30 4325 H 395.259 2.45884 4.63294 0
M  V30 4326 H 396.733 0.949818 5.43767 0
M  V30 4327 H 397.21 -0.373181 4.37612 0
M  V30 4328 H 397.816 1.26874 4.05935 0
M  V30 4329 N 396.131 -1.37776 0.765217 0
M  V30 4330 C 397.063 -2.28958 0.105361 0
M  V30 4331 C 398.076 -1.48316 -0.67128 0
M  V30 4332 O 399.265 -1.71046 -0.51045 0
M  V30 4333 C 396.365 -3.27421 -0.874569 0
M  V30 4334 C 395.538 -4.37132 -0.153123 0
M  V30 4335 C 394.597 -5.1571 -1.04547 0
M  V30 4336 O 393.623 -5.66896 -0.511672 0
M  V30 4337 N 394.825 -5.29808 -2.37243 0
M  V30 4338 H 397.59 -2.86227 0.888495 0
M  V30 4339 H 395.151 -1.49682 0.617 0
M  V30 4340 H 397.143 -3.7687 -1.47483 0
M  V30 4341 H 395.713 -2.70967 -1.55871 0
M  V30 4342 H 394.933 -3.89166 0.627975 0
M  V30 4343 H 396.221 -5.07625 0.345643 0
M  V30 4344 H 395.619 -4.89793 -2.83054 0
M  V30 4345 H 394.176 -5.82589 -2.9229 0
M  V30 4346 N 397.609 -0.515225 -1.4894 0
M  V30 4347 C 398.886 0.0879088 -1.95402 0
M  V30 4348 C 399.266 1.52745 -1.45712 0
M  V30 4349 O 398.614 2.18238 -0.677093 0
M  V30 4350 C 398.824 -0.0141055 -3.48997 0
M  V30 4351 C 400.172 0.152646 -4.24326 0
M  V30 4352 O 401.196 0.0604025 -3.56149 0
M  V30 4353 O 400.055 0.34384 -5.45417 0
M  V30 4354 H 397.149 0.0874636 -0.822362 0
M  V30 4355 H 399.695 -0.578775 -1.59525 0
M  V30 4356 H 398.467 -1.01745 -3.77841 0
M  V30 4357 H 398.09 0.692091 -3.9153 0
M  V30 4358 N 399.087 1.5561 -0.249682 0
M  V30 4359 C 400.336 1.98187 0.37479 0
M  V30 4360 C 400.649 1.14111 1.58865 0
M  V30 4361 O 401.855 1.46714 2.28445 0
M  V30 4362 C 400.311 3.52661 0.718192 0
M  V30 4363 C 399.919 4.45481 -0.474428 0
M  V30 4364 C 401.663 4.03888 1.3067 0
M  V30 4365 C 399.57 5.91303 -0.107026 0
M  V30 4366 H 398.5 0.740159 0.143808 0
M  V30 4367 H 401.151 1.80125 -0.350336 0
M  V30 4368 H 399.533 3.66429 1.50152 0
M  V30 4369 H 400.707 4.43473 -1.25172 0
M  V30 4370 H 399.022 4.04751 -0.978052 0
M  V30 4371 H 401.619 5.10358 1.59496 0
M  V30 4372 H 401.962 3.51401 2.23211 0
M  V30 4373 H 402.495 3.93457 0.586211 0
M  V30 4374 H 399.234 6.47833 -0.999642 0
M  V30 4375 H 398.754 5.9644 0.634013 0
M  V30 4376 H 400.433 6.46258 0.309807 0
M  V30 4377 N 400.565 -0.0233959 1.57583 0
M  V30 4378 C 401.475 -1.03907 2.10334 0
M  V30 4379 C 402.491 -1.39257 1.04323 0
M  V30 4380 O 403.667 -1.48462 1.36091 0
M  V30 4381 C 400.732 -2.31938 2.57693 0
M  V30 4382 C 399.793 -2.03117 3.78209 0
M  V30 4383 C 399.026 -3.25043 4.233 0
M  V30 4384 O 399.249 -4.35916 3.67876 0
M  V30 4385 O 398.183 -3.10411 5.15683 0
M  V30 4386 H 402.009 -0.620748 2.97288 0
M  V30 4387 H 399.594 -0.240743 1.47448 0
M  V30 4388 H 401.476 -3.07196 2.88458 0
M  V30 4389 H 400.151 -2.73055 1.73847 0
M  V30 4390 H 399.058 -1.25408 3.52454 0
M  V30 4391 H 400.391 -1.66852 4.63056 0
M  V30 4392 N 402.043 -1.548 -0.295768 0
M  V30 4393 C 402.975 -1.82492 -1.3867 0
M  V30 4394 C 403.988 -0.708134 -1.46592 0
M  V30 4395 O 405.177 -0.985686 -1.48817 0
M  V30 4396 C 402.277 -1.95256 -2.76999 0
M  V30 4397 C 401.45 -3.25709 -2.91946 0
M  V30 4398 C 400.509 -3.28824 -4.10806 0
M  V30 4399 O 399.535 -4.02328 -4.02643 0
M  V30 4400 N 400.737 -2.5459 -5.21694 0
M  V30 4401 H 403.502 -2.76646 -1.15269 0
M  V30 4402 H 401.063 -1.54438 -0.485849 0
M  V30 4403 H 403.055 -1.94736 -3.54768 0
M  V30 4404 H 401.625 -1.08072 -2.93324 0
M  V30 4405 H 400.845 -3.38959 -2.01247 0
M  V30 4406 H 402.133 -4.11786 -2.98847 0
M  V30 4407 H 401.531 -1.94512 -5.31208 0
M  V30 4408 H 400.088 -2.59818 -5.97778 0
M  V30 4409 N 403.521 0.559213 -1.47345 0
M  V30 4410 C 404.453 1.68161 -1.55738 0
M  V30 4411 C 405.466 1.56636 -0.443744 0
M  V30 4412 O 406.655 1.6363 -0.713258 0
M  V30 4413 C 403.755 3.06611 -1.4437 0
M  V30 4414 C 402.928 3.4391 -2.70268 0
M  V30 4415 C 401.987 4.61515 -2.52765 0
M  V30 4416 O 401.013 4.66197 -3.26572 0
M  V30 4417 N 402.215 5.57883 -1.6046 0
M  V30 4418 H 404.98 1.61408 -2.52522 0
M  V30 4419 H 402.541 0.7458 -1.43699 0
M  V30 4420 H 404.533 3.83117 -1.30398 0
M  V30 4421 H 403.103 3.07602 -0.556766 0
M  V30 4422 H 402.323 2.56873 -2.99015 0
M  V30 4423 H 403.611 3.65605 -3.53851 0
M  V30 4424 H 403.009 5.56855 -0.996422 0
M  V30 4425 H 401.566 6.33723 -1.52441 0
M  V30 4426 N 404.999 1.35443 0.805782 0
M  V30 4427 C 405.929 1.31095 1.93226 0
M  V30 4428 C 406.91 0.185244 1.69088 0
M  V30 4429 O 408.095 0.380332 1.90439 0
M  V30 4430 C 405.225 1.08299 3.29983 0
M  V30 4431 C 404.179 2.17519 3.68605 0
M  V30 4432 C 403.505 1.79887 5.03532 0
M  V30 4433 C 404.805 3.5949 3.78898 0
M  V30 4434 H 406.499 2.25352 1.97122 0
M  V30 4435 H 404.045 1.0848 0.946996 0
M  V30 4436 H 405.998 1.03897 4.08391 0
M  V30 4437 H 404.722 0.104885 3.26432 0
M  V30 4438 H 403.381 2.2102 2.92482 0
M  V30 4439 H 403.029 0.80693 4.96485 0
M  V30 4440 H 402.729 2.53001 5.30344 0
M  V30 4441 H 404.253 1.77011 5.84379 0
M  V30 4442 H 405.667 3.58307 4.47536 0
M  V30 4443 H 404.064 4.31371 4.1718 0
M  V30 4444 H 405.134 3.95584 2.80431 0
M  V30 4445 N 406.477 -1.02803 1.19454 0
M  V30 4446 C 407.725 -1.75869 0.995722 0
M  V30 4447 C 408.046 -1.89138 -0.474543 0
M  V30 4448 O 407.316 -1.42558 -1.34366 0
M  V30 4449 H 405.896 -0.651511 0.365435 0
M  V30 4450 H 408.558 -1.24004 1.50363 0
M  V30 4451 H 407.654 -2.76661 1.44447 0
M  V30 4452 N 407.956 -0.998596 -1.21925 0
M  V30 4453 C 409.181 -0.696015 -1.95372 0
M  V30 4454 C 409.606 0.733826 -1.73195 0
M  V30 4455 O 408.964 1.50242 -1.01474 0
M  V30 4456 C 409.012 -1.01466 -3.4603 0
M  V30 4457 O 408.116 -0.116415 -4.12236 0
M  V30 4458 H 407.457 -0.259938 -0.611006 0
M  V30 4459 H 409.987 -1.33711 -1.54863 0
M  V30 4460 H 409.997 -0.958855 -3.96573 0
M  V30 4461 H 408.672 -2.05653 -3.61497 0
M  V30 4462 H 407.249 -0.228193 -3.72201 0
M  V30 4463 N 409.434 1.37368 -0.772513 0
M  V30 4464 C 410.364 2.32856 -0.173304 0
M  V30 4465 C 411.345 1.55818 0.682262 0
M  V30 4466 O 412.53 1.84052 0.619566 0
M  V30 4467 C 409.66 3.40048 0.706007 0
M  V30 4468 C 408.614 4.27973 -0.0483144 0
M  V30 4469 C 407.94 5.26184 0.950491 0
M  V30 4470 C 409.24 5.07665 -1.22776 0
M  V30 4471 H 410.934 2.83217 -0.971002 0
M  V30 4472 H 408.48 1.3617 -0.468377 0
M  V30 4473 H 410.433 4.05827 1.13501 0
M  V30 4474 H 409.157 2.88214 1.53623 0
M  V30 4475 H 407.816 3.63726 -0.458107 0
M  V30 4476 H 407.464 4.7063 1.77529 0
M  V30 4477 H 407.164 5.85872 0.450314 0
M  V30 4478 H 408.688 5.94838 1.37842 0
M  V30 4479 H 410.102 5.66578 -0.875366 0
M  V30 4480 H 408.499 5.76681 -1.66007 0
M  V30 4481 H 409.569 4.40294 -2.03149 0
M  V30 4482 N 410.912 0.523116 1.48665 0
M  V30 4483 C 412.161 -0.01544 2.01694 0
M  V30 4484 C 412.474 -1.35975 1.40606 0
M  V30 4485 O 413.68 -1.98627 1.85093 0
M  V30 4486 C 412.136 -0.0779303 3.59816 0
M  V30 4487 C 411.744 1.26107 4.29885 0
M  V30 4488 C 413.488 -0.565678 4.20714 0
M  V30 4489 C 411.395 1.15954 5.79921 0
M  V30 4490 H 410.325 -0.00954163 0.75394 0
M  V30 4491 H 412.976 0.665865 1.70993 0
M  V30 4492 H 411.358 -0.824165 3.87329 0
M  V30 4493 H 412.532 2.02233 4.14051 0
M  V30 4494 H 410.847 1.68401 3.80828 0
M  V30 4495 H 413.444 -0.6595 5.30617 0
M  V30 4496 H 413.787 -1.56984 3.85567 0
M  V30 4497 H 414.32 0.12467 3.97605 0
M  V30 4498 H 411.059 2.13864 6.19631 0
M  V30 4499 H 410.579 0.439529 5.98187 0
M  V30 4500 H 412.258 0.847361 6.41427 0
M  V30 4501 N 412.39 -1.55475 0.257931 0
M  V30 4502 C 413.32 -2.24815 -0.630912 0
M  V30 4503 C 414.301 -1.23224 -1.17259 0
M  V30 4504 O 415.486 -1.51904 -1.20991 0
M  V30 4505 C 412.616 -2.95609 -1.82298 0
M  V30 4506 C 411.57 -4.03982 -1.41359 0
M  V30 4507 C 410.896 -4.6226 -2.68738 0
M  V30 4508 C 412.196 -5.19109 -0.57648 0
M  V30 4509 H 413.89 -2.99354 -0.0526878 0
M  V30 4510 H 411.436 -1.4398 -0.023901 0
M  V30 4511 H 413.389 -3.42822 -2.45054 0
M  V30 4512 H 412.113 -2.18577 -2.42676 0
M  V30 4513 H 410.772 -3.57555 -0.809324 0
M  V30 4514 H 410.42 -3.81915 -3.27338 0
M  V30 4515 H 410.12 -5.35424 -2.42065 0
M  V30 4516 H 411.644 -5.12212 -3.32372 0
M  V30 4517 H 413.058 -5.62479 -1.10861 0
M  V30 4518 H 411.455 -5.98729 -0.405351 0
M  V30 4519 H 412.525 -4.83174 0.408776 0
M  V30 4520 N 413.868 0.0150385 -1.57593 0
M  V30 4521 C 414.831 0.995996 -2.06428 0
M  V30 4522 C 415.831 1.2818 -0.970903 0
M  V30 4523 O 417.021 1.22949 -1.23406 0
M  V30 4524 C 414.153 2.32506 -2.49307 0
M  V30 4525 H 415.346 0.573873 -2.94358 0
M  V30 4526 H 412.899 0.262186 -1.54085 0
M  V30 4527 H 413.634 2.79438 -1.64575 0
M  V30 4528 H 413.419 2.13087 -3.29145 0
M  V30 4529 H 414.909 3.02906 -2.87468 0
M  V30 4530 N 415.346 1.54954 0.287554 0
M  V30 4531 C 416.574 1.78881 1.03967 0
M  V30 4532 C 416.989 0.554894 1.80462 0
M  V30 4533 O 416.346 -0.475676 1.76192 0
M  V30 4534 C 416.397 3.00488 2.0097 0
M  V30 4535 O 416.118 4.19113 1.27577 0
M  V30 4536 C 417.619 3.36907 2.88112 0
M  V30 4537 H 414.839 0.596259 0.307761 0
M  V30 4538 H 417.383 2.01937 0.322749 0
M  V30 4539 H 415.538 2.79601 2.68145 0
M  V30 4540 H 415.952 4.87765 1.92835 0
M  V30 4541 H 417.426 4.25205 3.52001 0
M  V30 4542 H 417.903 2.55659 3.57121 0
M  V30 4543 H 418.509 3.60001 2.26449 0
M  V30 4544 N 416.824 -0.551391 1.4764 0
M  V30 4545 C 418.101 -1.31229 1.45046 0
M  V30 4546 C 418.481 -2.10563 0.150527 0
M  V30 4547 O 417.829 -2.11374 -0.867956 0
M  V30 4548 C 418.039 -2.21189 2.69956 0
M  V30 4549 C 419.387 -2.82021 3.1741 0
M  V30 4550 O 420.411 -2.31488 2.70724 0
M  V30 4551 O 419.27 -3.73885 3.98588 0
M  V30 4552 H 416.364 -0.591193 0.578291 0
M  V30 4553 H 418.91 -0.569813 1.59847 0
M  V30 4554 H 417.682 -1.62207 3.56096 0
M  V30 4555 H 417.305 -3.02722 2.57769 0
M  V30 4556 N 418.302 -1.35869 -0.798587 0
M  V30 4557 C 419.551 -1.28921 -1.5512 0
M  V30 4558 C 419.864 0.13208 -1.95154 0
M  V30 4559 O 421.07 0.323879 -2.69561 0
M  V30 4560 C 419.526 -2.26141 -2.79979 0
M  V30 4561 C 419.134 -3.73658 -2.47151 0
M  V30 4562 C 420.878 -2.28152 -3.57976 0
M  V30 4563 C 418.785 -4.62679 -3.6835 0
M  V30 4564 H 417.715 -0.479031 -0.582276 0
M  V30 4565 H 420.366 -1.61179 -0.877125 0
M  V30 4566 H 418.748 -1.86865 -3.49138 0
M  V30 4567 H 419.922 -4.21616 -1.85947 0
M  V30 4568 H 418.237 -3.74333 -1.82383 0
M  V30 4569 H 420.834 -2.91875 -4.4801 0
M  V30 4570 H 421.177 -1.28748 -3.95891 0
M  V30 4571 H 421.71 -2.65998 -2.95787 0
M  V30 4572 H 418.449 -5.63111 -3.35538 0
M  V30 4573 H 417.969 -4.19442 -4.28752 0
M  V30 4574 H 419.648 -4.78498 -4.35487 0
M  V30 4575 N 419.78 1.02168 -1.19998 0
M  V30 4576 C 420.728 2.12717 -0.940967 0
M  V30 4577 C 421.722 1.69069 0.105841 0
M  V30 4578 O 422.928 1.79946 -0.0440583 0
M  V30 4579 H 419.303 0.695108 -0.28693 0
M  V30 4580 H 421.274 2.3175 -1.87975 0
M  V30 4581 C 420.023 3.44027 -0.504049 0
M  V30 4582 H 419.346 3.78036 -1.30112 0
M  V30 4583 H 420.786 4.22452 -0.361991 0
M  V30 4584 C 419.245 3.27678 0.782878 0
M  V30 4585 O 419.775 3.56949 1.84256 0
M  V30 4586 N 417.981 2.80943 0.742921 0
M  V30 4587 H 417.528 2.57322 -0.119687 0
M  V30 4588 H 417.486 2.70385 1.60435 0
M  V30 4589 N 421.258 1.00505 1.21394 0
M  V30 4590 C 422.674 0.717873 1.42544 0
M  V30 4591 C 422.874 -0.706936 1.88692 0
M  V30 4592 O 421.93 -1.47627 2.04847 0
M  V30 4593 C 423.243 1.73377 2.45684 0
M  V30 4594 C 424.791 1.75059 2.59467 0
M  V30 4595 C 425.266 2.75545 3.6584 0
M  V30 4596 N 426.757 2.74213 3.73311 0
M  V30 4597 C 427.492 3.48626 4.55245 0
M  V30 4598 N 426.988 4.32678 5.41075 0
M  V30 4599 N 428.781 3.37276 4.49668 0
M  V30 4600 H 420.932 1.92506 0.897503 0
M  V30 4601 H 423.195 0.830919 0.456375 0
M  V30 4602 H 422.901 2.75395 2.18748 0
M  V30 4603 H 422.775 1.53647 3.44489 0
M  V30 4604 H 425.162 0.737337 2.8574 0
M  V30 4605 H 425.243 1.98861 1.60897 0
M  V30 4606 H 424.887 3.77028 3.40313 0
M  V30 4607 H 424.817 2.49009 4.64007 0
M  V30 4608 H 427.308 2.13234 3.11993 0
M  V30 4609 H 427.621 4.86253 6.00648 0
M  V30 4610 H 425.966 4.3676 5.40616 0
M  V30 4611 H 429.157 2.71043 3.81646 0
M  V30 4612 H 429.33 3.95524 5.13288 0
M  V30 4613 N 422.737 -1.36956 0.779787 0
M  V30 4614 C 423.669 -2.28833 0.129639 0
M  V30 4615 C 424.682 -1.4902 -0.655511 0
M  V30 4616 O 425.871 -1.71578 -0.492279 0
M  V30 4617 C 422.971 -3.2833 -0.839792 0
M  V30 4618 C 422.144 -4.3727 -0.10675 0
M  V30 4619 C 421.203 -5.16789 -0.990717 0
M  V30 4620 O 420.229 -5.67406 -0.451516 0
M  V30 4621 N 421.431 -5.32294 -2.3161 0
M  V30 4622 H 424.196 -2.85268 0.918803 0
M  V30 4623 H 421.757 -1.49019 0.632841 0
M  V30 4624 H 423.749 -3.78413 -1.43477 0
M  V30 4625 H 422.319 -2.72605 -1.52988 0
M  V30 4626 H 421.539 -3.88478 0.669216 0
M  V30 4627 H 422.827 -5.07229 0.399464 0
M  V30 4628 H 422.225 -4.92768 -2.77843 0
M  V30 4629 H 420.782 -5.85656 -2.86095 0
M  V30 4630 N 424.215 -0.530993 -1.48385 0
M  V30 4631 C 425.163 0.244595 -2.3131 0
M  V30 4632 C 426.157 0.93451 -1.41291 0
M  V30 4633 O 427.363 0.85878 -1.58193 0
M  V30 4634 H 423.738 0.0977472 -0.74562 0
M  V30 4635 H 425.709 -0.474369 -2.94605 0
M  V30 4636 C 424.458 1.2779 -3.23365 0
M  V30 4637 H 423.781 0.756439 -3.92579 0
M  V30 4638 H 425.221 1.79198 -3.84271 0
M  V30 4639 C 423.68 2.31205 -2.45042 0
M  V30 4640 O 424.21 3.37661 -2.17596 0
M  V30 4641 N 422.416 2.04446 -2.0652 0
M  V30 4642 H 421.963 1.17891 -2.2904 0
M  V30 4643 H 421.921 2.73861 -1.54427 0
M  V30 4644 N 425.693 1.55336 -0.266172 0
M  V30 4645 C 426.603 2.2583 0.635458 0
M  V30 4646 C 427.619 1.28106 1.17749 0
M  V30 4647 O 428.795 1.61024 1.20968 0
M  V30 4648 C 425.86 2.95879 1.80712 0
M  V30 4649 C 424.921 4.09059 1.30265 0
M  V30 4650 C 424.154 4.75759 2.41846 0
M  V30 4651 O 424.377 4.41622 3.61007 0
M  V30 4652 O 423.311 5.63888 2.1051 0
M  V30 4653 H 427.137 3.03631 0.0646693 0
M  V30 4654 H 424.722 1.49361 -0.0339177 0
M  V30 4655 H 426.604 3.39932 2.49047 0
M  V30 4656 H 425.279 2.21002 2.36516 0
M  V30 4657 H 424.186 3.69482 0.586019 0
M  V30 4658 H 425.519 4.85811 0.790458 0
M  V30 4659 N 427.171 -0.0066808 1.57599 0
M  V30 4660 C 428.418 -0.69292 1.90276 0
M  V30 4661 C 428.746 -1.74148 0.866192 0
M  V30 4662 O 428.001 -1.95268 -0.129933 0
M  V30 4663 C 428.3 -1.37939 3.29708 0
M  V30 4664 C 427.966 -0.464679 4.48499 0
M  V30 4665 C 426.628 -0.212809 4.80729 0
M  V30 4666 C 428.98 0.16551 5.20937 0
M  V30 4667 C 426.308 0.677653 5.82773 0
M  V30 4668 C 428.66 1.04381 6.23929 0
M  V30 4669 C 427.324 1.30492 6.54621 0
M  V30 4670 H 426.594 -0.253558 0.696268 0
M  V30 4671 H 429.241 0.0474123 1.91441 0
M  V30 4672 H 427.546 -2.1936 3.24636 0
M  V30 4673 H 429.243 -1.9163 3.52249 0
M  V30 4674 H 425.833 -0.671153 4.23313 0
M  V30 4675 H 430.017 -0.0160756 4.96297 0
M  V30 4676 H 425.273 0.88803 6.04917 0
M  V30 4677 H 429.447 1.53851 6.79193 0
M  V30 4678 H 427.074 1.99662 7.33512 0
M  V30 4679 N 428.649 -1.55105 -0.279332 0
M  V30 4680 C 429.579 -1.90557 -1.34945 0
M  V30 4681 C 430.56 -0.766738 -1.51839 0
M  V30 4682 O 431.745 -1.02434 -1.64988 0
M  V30 4683 C 428.875 -2.17193 -2.71006 0
M  V30 4684 C 427.829 -3.33021 -2.68851 0
M  V30 4685 C 427.155 -3.45123 -4.08405 0
M  V30 4686 C 428.455 -4.69578 -2.28678 0
M  V30 4687 H 430.149 -2.80188 -1.05522 0
M  V30 4688 H 427.695 -1.34811 -0.506173 0
M  V30 4689 H 429.648 -2.40581 -3.45975 0
M  V30 4690 H 428.372 -1.24355 -3.01999 0
M  V30 4691 H 427.031 -3.0959 -1.9634 0
M  V30 4692 H 426.679 -2.49762 -4.3661 0
M  V30 4693 H 426.379 -4.22995 -4.07859 0
M  V30 4694 H 427.903 -3.70796 -4.85121 0
M  V30 4695 H 429.317 -4.92553 -2.93368 0
M  V30 4696 H 427.714 -5.5032 -2.39306 0
M  V30 4697 H 428.784 -4.68828 -1.23807 0
M  V30 4698 N 430.127 0.543554 -1.4793 0
M  V30 4699 C 431.355 1.32516 -1.58894 0
M  V30 4700 C 431.77 1.87215 -0.244131 0
M  V30 4701 O 431.127 1.65709 0.764652 0
M  V30 4702 C 431.178 2.48554 -2.62494 0
M  V30 4703 O 430.899 1.96112 -3.91755 0
M  V30 4704 C 432.4 3.40572 -2.8377 0
M  V30 4705 H 429.62 0.403472 -0.536145 0
M  V30 4706 H 432.164 0.657106 -1.93655 0
M  V30 4707 H 430.319 3.1127 -2.30629 0
M  V30 4708 H 430.733 2.71967 -4.4848 0
M  V30 4709 H 432.207 4.18375 -3.60093 0
M  V30 4710 H 432.684 3.94965 -1.92092 0
M  V30 4711 H 433.29 2.8366 -3.16887 0
M  V30 4712 N 431.605 1.3629 0.791371 0
M  V30 4713 C 433.021 1.16661 1.08914 0
M  V30 4714 C 433.221 -0.0106266 2.01497 0
M  V30 4715 O 432.277 -0.676596 2.43266 0
M  V30 4716 C 433.59 2.47656 1.70549 0
M  V30 4717 C 435.138 2.54002 1.82899 0
M  V30 4718 C 435.613 3.85078 2.47949 0
M  V30 4719 N 437.104 3.86413 2.5542 0
M  V30 4720 C 437.839 4.84572 3.06557 0
M  V30 4721 N 437.335 5.93124 3.58016 0
M  V30 4722 N 439.128 4.71994 3.05251 0
M  V30 4723 H 431.279 2.11668 0.176238 0
M  V30 4724 H 433.542 0.937486 0.140796 0
M  V30 4725 H 433.248 3.34059 1.09989 0
M  V30 4726 H 433.122 2.63319 2.70079 0
M  V30 4727 H 435.509 1.68018 2.42598 0
M  V30 4728 H 435.59 2.42239 0.821808 0
M  V30 4729 H 435.234 4.71467 1.88895 0
M  V30 4730 H 435.164 3.94135 3.49235 0
M  V30 4731 H 437.655 3.07988 2.18979 0
M  V30 4732 H 437.968 6.63999 3.95381 0
M  V30 4733 H 436.313 5.96796 3.56173 0
M  V30 4734 H 439.504 3.86321 2.64336 0
M  V30 4735 H 439.677 5.48653 3.44796 0
M  V30 4736 N 433.083 -1.0153 1.20538 0
M  V30 4737 C 434.013 -2.11972 0.979295 0
M  V30 4738 C 434.994 -1.6985 -0.0921787 0
M  V30 4739 O 436.179 -1.94089 0.0655932 0
M  V30 4740 C 433.309 -3.43201 0.531984 0
M  V30 4741 C 432.263 -3.9907 1.54685 0
M  V30 4742 C 431.589 -5.26082 0.956127 0
M  V30 4743 C 432.889 -4.32313 2.93092 0
M  V30 4744 H 434.583 -2.31143 1.90298 0
M  V30 4745 H 432.129 -1.11079 0.916372 0
M  V30 4746 H 434.082 -4.1985 0.361044 0
M  V30 4747 H 432.806 -3.23792 -0.427327 0
M  V30 4748 H 431.465 -3.2453 1.70517 0
M  V30 4749 H 431.113 -5.02999 -0.0111538 0
M  V30 4750 H 430.813 -5.64426 1.63393 0
M  V30 4751 H 432.337 -6.05386 0.796284 0
M  V30 4752 H 433.751 -4.99845 2.80763 0
M  V30 4753 H 432.148 -4.81774 3.57791 0
M  V30 4754 H 433.218 -3.41025 3.44717 0
M  V30 4755 N 434.561 -1.01147 -1.20859 0
M  V30 4756 C 435.508 -0.577354 -2.23462 0
M  V30 4757 C 436.478 0.399922 -1.61214 0
M  V30 4758 O 437.663 0.300515 -1.88419 0
M  V30 4759 C 434.803 0.083372 -3.44999 0
M  V30 4760 C 433.916 -0.937856 -4.21697 0
M  V30 4761 C 433.051 -0.248717 -5.30617 0
M  V30 4762 C 432.09 -1.25705 -5.99053 0
M  V30 4763 N 431.227 -0.594939 -6.99575 0
M  V30 4764 H 436.067 -1.45695 -2.59956 0
M  V30 4765 H 433.604 -0.729428 -1.27741 0
M  V30 4766 H 435.562 0.483535 -4.14388 0
M  V30 4767 H 434.192 0.926645 -3.09214 0
M  V30 4768 H 433.244 -1.45622 -3.51423 0
M  V30 4769 H 434.556 -1.70493 -4.68757 0
M  V30 4770 H 433.71 0.207215 -6.06346 0
M  V30 4771 H 432.449 0.55071 -4.84581 0
M  V30 4772 H 431.454 -1.72343 -5.2209 0
M  V30 4773 H 432.679 -2.05767 -6.47176 0
M  V30 4774 H 430.625 0.184713 -6.5574 0
M  V30 4775 H 430.542 -1.30017 -7.44736 0
M  V30 4776 H 431.81 -0.162427 -7.79331 0
M  V30 4777 N 436.039 1.36541 -0.78704 0
M  V30 4778 C 437.002 2.28413 -0.189778 0
M  V30 4779 C 438.002 1.48719 0.611499 0
M  V30 4780 O 439.192 1.68737 0.432842 0
M  V30 4781 C 436.324 3.32824 0.737638 0
M  V30 4782 H 437.517 2.82743 -0.999831 0
M  V30 4783 H 435.07 1.46065 -0.556298 0
M  V30 4784 H 435.805 2.83646 1.57212 0
M  V30 4785 H 435.59 3.91752 0.165044 0
M  V30 4786 H 437.08 4.0144 1.15047 0
M  V30 4787 N 437.518 0.538854 1.48102 0
M  V30 4788 C 438.468 -0.23907 2.26743 0
M  V30 4789 C 439.452 -0.901923 1.33245 0
M  V30 4790 O 440.644 -0.803263 1.57723 0
M  V30 4791 C 437.773 -1.2799 3.18549 0
M  V30 4792 C 436.859 -0.621388 4.19523 0
M  V30 4793 N 437.25 0.298004 5.04921 0
M  V30 4794 C 435.548 -0.877533 4.37282 0
M  V30 4795 C 436.249 0.678757 5.77726 0
M  V30 4796 N 435.225 0.0377881 5.43587 0
M  V30 4797 H 439.027 0.468096 2.90148 0
M  V30 4798 H 436.541 0.357497 1.58416 0
M  V30 4799 H 438.538 -1.851 3.73555 0
M  V30 4800 H 437.198 -1.98835 2.567 0
M  V30 4801 H 438.209 0.671126 5.13533 0
M  V30 4802 H 434.886 -1.57588 3.86616 0
M  V30 4803 H 436.276 1.43316 6.56437 0
M  V30 4804 N 438.996 -1.55193 0.274407 0
M  V30 4805 C 439.926 -2.25471 -0.607032 0
M  V30 4806 C 440.907 -1.24461 -1.15946 0
M  V30 4807 O 442.092 -1.53179 -1.19373 0
M  V30 4808 C 439.222 -2.97526 -1.79153 0
M  V30 4809 C 438.176 -4.05459 -1.37067 0
M  V30 4810 C 437.502 -4.65084 -2.6382 0
M  V30 4811 C 438.802 -5.19691 -0.521389 0
M  V30 4812 H 440.496 -2.99393 -0.0209343 0
M  V30 4813 H 438.042 -1.43997 -0.00862866 0
M  V30 4814 H 439.995 -3.45402 -2.41404 0
M  V30 4815 H 438.719 -2.21138 -2.40344 0
M  V30 4816 H 437.378 -3.58393 -0.771355 0
M  V30 4817 H 437.026 -3.85365 -3.23268 0
M  V30 4818 H 436.726 -5.37961 -2.36372 0
M  V30 4819 H 438.25 -5.15708 -3.26921 0
M  V30 4820 H 439.664 -5.63623 -1.04889 0
M  V30 4821 H 438.061 -5.99126 -0.341825 0
M  V30 4822 H 439.131 -4.82713 0.46 0
M  V30 4823 N 440.474 -0.00167713 -1.576 0
M  V30 4824 C 441.424 0.997744 -2.0501 0
M  V30 4825 C 442.408 1.30214 -0.94515 0
M  V30 4826 O 443.6 1.29284 -1.20891 0
M  V30 4827 C 440.729 2.2892 -2.55833 0
M  V30 4828 C 439.815 2.01437 -3.73208 0
M  V30 4829 N 440.206 1.44119 -4.84833 0
M  V30 4830 C 438.504 2.31571 -3.8117 0
M  V30 4831 C 439.205 1.33145 -5.66257 0
M  V30 4832 N 438.181 1.81763 -5.12312 0
M  V30 4833 H 441.983 0.549098 -2.88725 0
M  V30 4834 H 439.497 0.20398 -1.61114 0
M  V30 4835 H 441.494 3.01361 -2.88075 0
M  V30 4836 H 440.154 2.74436 -1.73537 0
M  V30 4837 H 441.165 1.11978 -5.0565 0
M  V30 4838 H 437.842 2.7995 -3.09732 0
M  V30 4839 H 439.232 0.890567 -6.65972 0
M  V30 4840 N 441.952 1.55251 0.271103 0
M  V30 4841 C 442.9 1.89054 1.35504 0
M  V30 4842 C 443.894 0.767064 1.51038 0
M  V30 4843 O 445.1 0.951429 1.528 0
M  V30 4844 H 441.475 0.600072 0.45323 0
M  V30 4845 H 443.446 2.79598 1.04247 0
M  V30 4846 C 442.195 2.18068 2.70817 0
M  V30 4847 H 441.518 3.04005 2.59656 0
M  V30 4848 H 442.958 2.4564 3.45597 0
M  V30 4849 C 441.417 0.988901 3.2206 0
M  V30 4850 O 441.947 0.224501 4.01072 0
M  V30 4851 N 440.153 0.786085 2.79766 0
M  V30 4852 H 439.7 1.40937 2.15626 0
M  V30 4853 H 439.658 -0.00969349 3.14399 0
M  V30 4854 N 443.43 -0.535701 1.48216 0
M  V30 4855 C 444.377 -1.64083 1.62312 0
M  V30 4856 C 445.347 -1.59448 0.465365 0
M  V30 4857 O 446.532 -1.77959 0.688135 0
M  V30 4858 C 443.672 -3.0236 1.66349 0
M  V30 4859 C 442.785 -3.17273 2.93193 0
M  V30 4860 C 441.92 -4.46075 2.88427 0
M  V30 4861 C 440.959 -4.54496 4.1 0
M  V30 4862 N 440.096 -5.7468 4.03345 0
M  V30 4863 H 444.936 -1.51374 2.5669 0
M  V30 4864 H 442.473 -0.737059 1.27302 0
M  V30 4865 H 444.431 -3.82461 1.66672 0
M  V30 4866 H 443.061 -3.13854 0.754672 0
M  V30 4867 H 442.113 -2.30462 3.02641 0
M  V30 4868 H 443.425 -3.19357 3.83162 0
M  V30 4869 H 442.579 -5.3446 2.87119 0
M  V30 4870 H 441.318 -4.46504 1.96177 0
M  V30 4871 H 440.323 -3.64519 4.11589 0
M  V30 4872 H 441.548 -4.5581 5.03402 0
M  V30 4873 H 439.494 -5.76017 3.13912 0
M  V30 4874 H 439.411 -5.78234 4.87013 0
M  V30 4875 H 440.679 -6.65367 4.06087 0
M  V30 4876 N 444.908 -1.36708 -0.784132 0
M  V30 4877 C 446.185 -1.21776 -1.53069 0
M  V30 4878 C 446.565 0.193876 -2.10208 0
M  V30 4879 O 445.913 1.20012 -1.94446 0
M  V30 4880 C 446.123 -2.30395 -2.62143 0
M  V30 4881 C 447.471 -2.67325 -3.29882 0
M  V30 4882 O 448.495 -2.29478 -2.7243 0
M  V30 4883 O 447.354 -3.32485 -4.33724 0
M  V30 4884 H 444.448 -0.474459 -0.677361 0
M  V30 4885 H 446.994 -1.48454 -0.82216 0
M  V30 4886 H 445.766 -3.2498 -2.17953 0
M  V30 4887 H 445.389 -2.05112 -3.40609 0
M  V30 4888 N 446.386 1.0089 -1.21074 0
M  V30 4889 C 447.316 2.1145 -0.990523 0
M  V30 4890 C 448.297 1.69897 0.0831699 0
M  V30 4891 O 449.482 1.94052 -0.0758853 0
M  V30 4892 C 446.612 3.42914 -0.550177 0
M  V30 4893 C 445.566 3.98244 -1.56799 0
M  V30 4894 C 444.892 5.25568 -0.984013 0
M  V30 4895 C 446.192 4.30752 -2.95381 0
M  V30 4896 H 447.886 2.3013 -1.91521 0
M  V30 4897 H 445.432 1.10592 -0.92225 0
M  V30 4898 H 447.385 4.19653 -0.383305 0
M  V30 4899 H 446.109 3.24014 0.41015 0
M  V30 4900 H 444.768 3.23621 -1.72236 0
M  V30 4901 H 444.416 5.02998 -0.0155216 0
M  V30 4902 H 444.116 5.63551 -1.66384 0
M  V30 4903 H 445.64 6.04955 -0.828378 0
M  V30 4904 H 447.054 4.98349 -2.8341 0
M  V30 4905 H 445.451 4.79869 -3.60341 0
M  V30 4906 H 446.521 3.39192 -3.46521 0
M  V30 4907 N 447.864 1.01787 1.20321 0
M  V30 4908 C 449.28 0.732951 1.41774 0
M  V30 4909 C 449.48 -0.686883 1.89431 0
M  V30 4910 O 448.536 -1.45446 2.06402 0
M  V30 4911 C 449.849 1.75973 2.43832 0
M  V30 4912 C 451.397 1.77802 2.57596 0
M  V30 4913 C 451.872 2.7941 3.62897 0
M  V30 4914 N 453.363 2.78157 3.70382 0
M  V30 4915 C 454.098 3.53434 4.51521 0
M  V30 4916 N 453.594 4.38392 5.36455 0
M  V30 4917 N 455.387 3.42026 4.46066 0
M  V30 4918 H 447.538 1.93447 0.877035 0
M  V30 4919 H 449.801 0.835712 0.447536 0
M  V30 4920 H 449.507 2.77699 2.15815 0
M  V30 4921 H 449.381 1.57292 3.4284 0
M  V30 4922 H 451.768 0.767602 2.84942 0
M  V30 4923 H 451.849 2.00557 1.58779 0
M  V30 4924 H 451.493 3.80616 3.36295 0
M  V30 4925 H 451.423 2.53916 4.61339 0
M  V30 4926 H 453.914 2.16531 3.09714 0
M  V30 4927 H 454.227 4.92596 5.95457 0
M  V30 4928 H 452.572 4.4247 5.35953 0
M  V30 4929 H 455.763 2.75075 3.78749 0
M  V30 4930 H 455.936 4.00946 5.09064 0
M  V30 4931 N 449.342 -1.36122 0.79427 0
M  V30 4932 C 450.272 -2.32551 0.210328 0
M  V30 4933 C 451.253 -1.56884 -0.657386 0
M  V30 4934 O 452.438 -1.85014 -0.590207 0
M  V30 4935 C 449.568 -3.41128 -0.651819 0
M  V30 4936 C 448.522 -4.27842 0.116395 0
M  V30 4937 C 447.848 -5.2763 -0.86666 0
M  V30 4938 C 449.148 -5.05647 1.30837 0
M  V30 4939 H 450.842 -2.81636 1.01594 0
M  V30 4940 H 448.388 -1.35407 0.489981 0
M  V30 4941 H 450.341 -4.07581 -1.07031 0
M  V30 4942 H 449.065 -2.90622 -1.49019 0
M  V30 4943 H 447.724 -3.62952 0.515915 0
M  V30 4944 H 447.372 -4.73395 -1.70019 0
M  V30 4945 H 447.072 -5.86514 -0.35705 0
M  V30 4946 H 448.596 -5.96955 -1.28361 0
M  V30 4947 H 450.01 -5.65113 0.965393 0
M  V30 4948 H 448.407 -5.73967 1.75161 0
M  V30 4949 H 449.477 -4.37006 2.10128 0
M  V30 4950 N 450.82 -0.546701 -1.47814 0
M  V30 4951 C 451.73 0.21026 -2.33656 0
M  V30 4952 C 452.746 0.922413 -1.47538 0
M  V30 4953 O 453.922 0.893652 -1.80488 0
M  V30 4954 C 450.987 1.23348 -3.24016 0
M  V30 4955 C 450.048 0.529883 -4.26017 0
M  V30 4956 C 449.281 1.50435 -5.12059 0
M  V30 4957 O 449.504 2.73837 -5.00369 0
M  V30 4958 O 448.438 1.03459 -5.92942 0
M  V30 4959 H 452.264 -0.493605 -2.99662 0
M  V30 4960 H 449.849 -0.307427 -1.46203 0
M  V30 4961 H 451.731 1.82438 -3.79861 0
M  V30 4962 H 450.406 1.91945 -2.60651 0
M  V30 4963 H 449.313 -0.101948 -3.73961 0
M  V30 4964 H 450.646 -0.11445 -4.92067 0
M  V30 4965 N 452.299 1.55045 -0.282633 0
M  V30 4966 C 453.576 1.9179 0.384166 0
M  V30 4967 C 453.956 1.20778 1.73136 0
M  V30 4968 O 453.304 0.33719 2.25998 0
M  V30 4969 C 453.514 3.45149 0.517014 0
M  V30 4970 C 454.862 4.17064 0.796427 0
M  V30 4971 O 455.886 3.51084 0.601535 0
M  V30 4972 O 454.745 5.33837 1.16962 0
M  V30 4973 H 451.839 0.799483 0.211558 0
M  V30 4974 H 454.385 1.66474 -0.32934 0
M  V30 4975 H 453.157 3.88922 -0.430772 0
M  V30 4976 H 452.78 3.76443 1.2797 0
M  V30 4977 N 453.777 0.010035 1.57597 0
M  V30 4978 C 454.74 -0.963029 2.07986 0
M  V30 4979 C 455.74 -1.26619 0.991173 0
M  V30 4980 O 456.93 -1.2097 1.25347 0
M  V30 4981 C 454.062 -2.2851 2.52974 0
M  V30 4982 H 455.255 -0.526971 2.95234 0
M  V30 4983 H 452.808 -0.237639 1.54483 0
M  V30 4984 H 453.543 -2.76784 1.69 0
M  V30 4985 H 453.328 -2.07824 3.32493 0
M  V30 4986 H 454.818 -2.98294 2.9225 0
M  V30 4987 N 455.255 -1.55392 -0.262866 0
M  V30 4988 C 456.187 -1.85392 -1.34768 0
M  V30 4989 C 457.2 -0.739069 -1.45057 0
M  V30 4990 O 458.389 -1.01703 -1.46693 0
M  V30 4991 C 455.489 -2.01088 -2.72795 0
M  V30 4992 C 454.662 -3.31828 -2.84972 0
M  V30 4993 C 453.721 -3.37464 -4.03738 0
M  V30 4994 O 452.747 -4.10778 -3.94018 0
M  V30 4995 N 453.949 -2.65599 -5.16176 0
M  V30 4996 H 456.714 -2.79029 -1.09375 0
M  V30 4997 H 454.275 -1.55434 -0.452981 0
M  V30 4998 H 456.267 -2.02217 -3.50557 0
M  V30 4999 H 454.837 -1.1427 -2.90966 0
M  V30 5000 H 454.057 -3.43152 -1.94012 0
M  V30 5001 H 455.345 -4.18032 -2.90045 0
M  V30 5002 H 454.743 -2.05736 -5.26962 0
M  V30 5003 H 453.3 -2.72439 -5.92132 0
M  V30 5004 N 456.733 0.527833 -1.48498 0
M  V30 5005 C 458.01 1.28905 -1.47115 0
M  V30 5006 C 458.39 2.10297 -0.184007 0
M  V30 5007 O 457.738 2.12728 0.834218 0
M  V30 5008 C 457.948 2.16866 -2.73441 0
M  V30 5009 C 459.296 2.76936 -3.21857 0
M  V30 5010 O 460.32 2.27152 -2.74373 0
M  V30 5011 O 459.179 3.67496 -4.04486 0
M  V30 5012 H 456.273 0.581918 -0.587623 0
M  V30 5013 H 458.819 0.544311 -1.60734 0
M  V30 5014 H 457.591 1.56521 -3.58632 0
M  V30 5015 H 457.214 2.98583 -2.62553 0
M  V30 5016 N 458.211 1.37122 0.776871 0
M  V30 5017 C 459.627 1.1781 1.07671 0
M  V30 5018 C 459.827 0.0107454 2.01497 0
M  V30 5019 O 458.883 -0.650756 2.4397 0
M  V30 5020 C 460.196 2.49451 1.67913 0
M  V30 5021 C 461.744 2.55927 1.80195 0
M  V30 5022 C 462.219 3.87686 2.43851 0
M  V30 5023 N 463.71 3.891 2.51307 0
M  V30 5024 C 464.445 4.87797 3.014 0
M  V30 5025 N 463.941 5.96888 3.51705 0
M  V30 5026 N 465.734 4.75205 3.00227 0
M  V30 5027 H 457.885 2.11843 0.153778 0
M  V30 5028 H 460.148 0.938927 0.130844 0
M  V30 5029 H 459.854 3.35207 1.06439 0
M  V30 5030 H 459.728 2.66169 2.67271 0
M  V30 5031 H 462.115 1.70582 2.40803 0
M  V30 5032 H 462.196 2.43097 0.796069 0
M  V30 5033 H 461.84 4.73444 1.83884 0
M  V30 5034 H 461.77 3.97817 3.45035 0
M  V30 5035 H 464.261 3.10293 2.157 0
M  V30 5036 H 464.574 6.68155 3.88316 0
M  V30 5037 H 462.919 6.0054 3.49824 0
M  V30 5038 H 466.11 3.89103 2.60224 0
M  V30 5039 H 466.283 5.52279 3.38957 0
M  V30 5040 N 459.689 -1.00246 1.21608 0
M  V30 5041 C 460.639 -2.07492 0.945051 0
M  V30 5042 C 461.623 -1.60585 -0.100675 0
M  V30 5043 O 462.815 -1.76667 0.10859 0
M  V30 5044 C 459.944 -3.39425 0.514342 0
M  V30 5045 C 459.03 -3.92993 1.59428 0
M  V30 5046 N 459.421 -4.19898 2.81991 0
M  V30 5047 C 457.719 -4.21297 1.46374 0
M  V30 5048 C 458.42 -4.63297 3.51754 0
M  V30 5049 N 457.396 -4.66421 2.79199 0
M  V30 5050 H 461.198 -2.26222 1.87619 0
M  V30 5051 H 458.712 -1.18339 1.11219 0
M  V30 5052 H 460.709 -4.15808 0.301527 0
M  V30 5053 H 459.369 -3.22101 -0.410008 0
M  V30 5054 H 460.38 -4.08377 3.1851 0
M  V30 5055 H 457.057 -4.13095 0.604863 0
M  V30 5056 H 458.447 -4.92816 4.56708 0
M  V30 5057 N 461.167 -1.02423 -1.1978 0
M  V30 5058 C 462.414 -0.717988 -1.89344 0
M  V30 5059 C 462.742 0.753036 -1.79331 0
M  V30 5060 O 461.997 1.56355 -1.17692 0
M  V30 5061 C 462.296 -1.1088 -3.39765 0
M  V30 5062 C 461.962 -2.57731 -3.6998 0
M  V30 5063 C 460.624 -2.97854 -3.77937 0
M  V30 5064 C 462.976 -3.52763 -3.83677 0
M  V30 5065 C 460.304 -4.31931 -3.97054 0
M  V30 5066 C 462.656 -4.86538 -4.04306 0
M  V30 5067 C 461.32 -5.26356 -4.10494 0
M  V30 5068 H 460.59 -0.26273 -0.692859 0
M  V30 5069 H 463.237 -1.28623 -1.41875 0
M  V30 5070 H 461.542 -0.459094 -3.89101 0
M  V30 5071 H 463.239 -0.849432 -3.919 0
M  V30 5072 H 459.829 -2.25646 -3.64393 0
M  V30 5073 H 464.013 -3.2292 -3.76877 0
M  V30 5074 H 459.269 -4.62324 -4.00083 0
M  V30 5075 H 463.443 -5.60093 -4.13846 0
M  V30 5076 H 461.07 -6.3026 -4.2506 0
M  V30 5077 N 462.645 1.35699 -0.801477 0
M  V30 5078 C 463.578 2.2768 -0.153922 0
M  V30 5079 C 464.556 1.47832 0.67709 0
M  V30 5080 O 465.74 1.77104 0.645474 0
M  V30 5081 C 462.867 3.2943 0.786986 0
M  V30 5082 C 461.913 4.26485 0.0362447 0
M  V30 5083 S 462.746 5.19573 -1.2963 0
M  V30 5084 C 463.902 6.24866 -0.359705 0
M  V30 5085 H 464.135 2.82254 -0.9338 0
M  V30 5086 H 461.668 1.42421 -0.596283 0
M  V30 5087 H 463.626 3.8855 1.32436 0
M  V30 5088 H 462.287 2.73745 1.54021 0
M  V30 5089 H 461.48 4.98378 0.750668 0
M  V30 5090 H 461.082 3.71508 -0.431017 0
M  V30 5091 H 463.374 6.75957 0.456954 0
M  V30 5092 H 464.317 7.00307 -1.04768 0
M  V30 5093 H 464.725 5.64484 0.0423274 0
M  V30 5094 N 464.123 0.554532 1.47522 0
M  V30 5095 C 465.053 -0.182974 2.32782 0
M  V30 5096 C 466.034 -0.911377 1.43624 0
M  V30 5097 O 467.219 -0.892366 1.72483 0
M  V30 5098 C 464.349 -1.21513 3.25349 0
M  V30 5099 C 463.303 -0.603355 4.23726 0
M  V30 5100 C 462.629 -1.73995 5.05598 0
M  V30 5101 C 463.929 0.441121 5.20434 0
M  V30 5102 H 465.623 0.52882 2.94693 0
M  V30 5103 H 463.169 0.255759 1.41711 0
M  V30 5104 H 465.122 -1.73922 3.83835 0
M  V30 5105 H 463.846 -1.95683 2.61487 0
M  V30 5106 H 462.505 -0.10059 3.66462 0
M  V30 5107 H 462.153 -2.47063 4.38143 0
M  V30 5108 H 461.853 -1.3364 5.72201 0
M  V30 5109 H 463.377 -2.26735 5.66942 0
M  V30 5110 H 464.791 0.00319931 5.733 0
M  V30 5111 H 463.188 0.763402 5.95224 0
M  V30 5112 H 464.258 1.33799 4.66075 0
M  V30 5113 N 465.601 -1.54893 0.290851 0
M  V30 5114 C 466.533 -2.20564 -0.623236 0
M  V30 5115 C 467.546 -1.19519 -1.1054 0
M  V30 5116 O 468.735 -1.46165 -1.02459 0
M  V30 5117 C 465.835 -2.83033 -1.86401 0
M  V30 5118 C 465.008 -4.09916 -1.52604 0
M  V30 5119 C 464.067 -4.56284 -2.62091 0
M  V30 5120 O 463.093 -5.2171 -2.27612 0
M  V30 5121 N 464.295 -4.27746 -3.92446 0
M  V30 5122 H 467.06 -2.99638 -0.0610915 0
M  V30 5123 H 464.621 -1.61508 0.112615 0
M  V30 5124 H 466.613 -3.1099 -2.58973 0
M  V30 5125 H 465.183 -2.0786 -2.33481 0
M  V30 5126 H 464.403 -3.89078 -0.633424 0
M  V30 5127 H 465.691 -4.92554 -1.27547 0
M  V30 5128 H 465.089 -3.7531 -4.23272 0
M  V30 5129 H 463.646 -4.60437 -4.61347 0
M  V30 5130 N 467.08 -0.0183926 -1.57589 0
M  V30 5131 C 468.329 0.66185 -1.90532 0
M  V30 5132 C 468.642 1.73904 -0.895366 0
M  V30 5133 O 469.848 2.47518 -1.11566 0
M  V30 5134 C 468.304 1.22844 -3.38286 0
M  V30 5135 C 467.912 0.185103 -4.47617 0
M  V30 5136 C 469.656 1.88581 -3.80312 0
M  V30 5137 C 467.563 0.762723 -5.86461 0
M  V30 5138 H 466.493 0.250972 -0.711006 0
M  V30 5139 H 469.144 -0.0819435 -1.83317 0
M  V30 5140 H 467.526 2.0235 -3.40398 0
M  V30 5141 H 468.7 -0.58671 -4.5705 0
M  V30 5142 H 467.015 -0.372889 -4.14727 0
M  V30 5143 H 469.612 2.32735 -4.81392 0
M  V30 5144 H 469.955 2.72408 -3.14801 0
M  V30 5145 H 470.488 1.15782 -3.80578 0
M  V30 5146 H 467.227 -0.0371713 -6.55489 0
M  V30 5147 H 466.747 1.50327 -5.80656 0
M  V30 5148 H 468.426 1.25576 -6.34697 0
M  V30 5149 N 468.558 1.5553 0.254621 0
M  V30 5150 C 469.521 1.88872 1.29846 0
M  V30 5151 C 470.521 0.764591 1.41459 0
M  V30 5152 O 471.711 1.03265 1.40293 0
M  V30 5153 C 468.843 2.11032 2.67728 0
M  V30 5154 H 470.036 2.82201 1.01502 0
M  V30 5155 H 467.589 1.48303 0.493556 0
M  V30 5156 H 468.324 1.20146 3.01223 0
M  V30 5157 H 468.109 2.92895 2.60682 0
M  V30 5158 H 469.599 2.38038 3.43115 0
M  V30 5159 N 470.036 -0.519951 1.48776 0
M  V30 5160 C 470.966 -1.63253 1.66945 0
M  V30 5161 C 471.947 -1.62014 0.518224 0
M  V30 5162 O 473.132 -1.79053 0.751919 0
M  V30 5163 C 470.262 -3.0181 1.71836 0
M  V30 5164 C 469.216 -3.17911 2.8656 0
M  V30 5165 C 468.542 -4.5763 2.76548 0
M  V30 5166 C 469.842 -2.99729 4.27738 0
M  V30 5167 H 471.536 -1.48302 2.6009 0
M  V30 5168 H 469.082 -0.712026 1.25165 0
M  V30 5169 H 471.035 -3.79525 1.83135 0
M  V30 5170 H 469.759 -3.17806 0.752775 0
M  V30 5171 H 468.418 -2.42616 2.74833 0
M  V30 5172 H 468.066 -4.70476 1.77937 0
M  V30 5173 H 467.766 -4.69346 3.53536 0
M  V30 5174 H 469.29 -5.37431 2.89828 0
M  V30 5175 H 470.704 -3.67228 4.40246 0
M  V30 5176 H 469.101 -3.22932 5.05801 0
M  V30 5177 H 470.171 -1.96047 4.43502 0
M  V30 5178 N 471.514 -1.37532 -0.769588 0
M  V30 5179 C 472.461 -1.3347 -1.88293 0
M  V30 5180 C 473.431 -0.199891 -1.64893 0
M  V30 5181 O 474.616 -0.389594 -1.8678 0
M  V30 5182 C 471.756 -1.14968 -3.25387 0
M  V30 5183 C 470.869 -2.37698 -3.60727 0
M  V30 5184 C 470.004 -2.12051 -4.8704 0
M  V30 5185 C 469.043 -3.30636 -5.15117 0
M  V30 5186 N 468.18 -3.04527 -6.3262 0
M  V30 5187 H 473.02 -2.28658 -1.911 0
M  V30 5188 H 470.557 -1.13622 -0.934257 0
M  V30 5189 H 472.515 -1.02261 -4.04473 0
M  V30 5190 H 471.145 -0.234263 -3.21949 0
M  V30 5191 H 470.197 -2.61137 -2.76608 0
M  V30 5192 H 471.509 -3.26131 -3.77413 0
M  V30 5193 H 470.663 -1.96388 -5.74035 0
M  V30 5194 H 469.402 -1.20959 -4.72462 0
M  V30 5195 H 468.407 -3.46836 -4.26597 0
M  V30 5196 H 469.632 -4.22582 -5.31603 0
M  V30 5197 H 467.578 -2.16067 -6.19396 0
M  V30 5198 H 467.495 -3.86503 -6.49732 0
M  V30 5199 H 468.763 -2.92485 -7.22546 0
M  V30 5200 N 472.992 0.995999 -1.22138 0
M  V30 5201 C 474.232 1.75032 -1.05561 0
M  V30 5202 C 474.596 1.87729 0.402698 0
M  V30 5203 O 475.797 2.59813 0.689234 0
M  V30 5204 C 474.068 3.11973 -1.74379 0
M  V30 5205 S 475.627 4.03182 -1.73175 0
M  V30 5206 H 472.445 0.602137 -0.37809 0
M  V30 5207 H 475.047 1.19107 -1.55028 0
M  V30 5208 H 473.751 3.00371 -2.79652 0
M  V30 5209 H 473.282 3.7297 -1.25128 0
M  V30 5210 H 475.297 4.90043 -0.77923 0
M  V30 5211 N 474.47 1.03057 1.19235 0
M  V30 5212 C 475.433 0.617418 2.20727 0
M  V30 5213 C 476.433 -0.319856 1.57587 0
M  V30 5214 O 477.623 -0.106633 1.73873 0
M  V30 5215 C 474.755 -0.096296 3.40764 0
M  V30 5216 H 475.948 1.51544 2.58794 0
M  V30 5217 H 473.501 0.821949 1.32942 0
M  V30 5218 H 474.236 -1.00859 3.08217 0
M  V30 5219 H 474.021 0.577217 3.87828 0
M  V30 5220 H 475.511 -0.372219 4.15938 0
M  V30 5221 N 475.948 -1.35272 0.808662 0
M  V30 5222 C 477.225 -1.93077 0.313181 0
M  V30 5223 C 477.605 -1.73847 -1.19752 0
M  V30 5224 O 476.953 -1.1087 -1.998 0
M  V30 5225 C 477.163 -3.41347 0.726859 0
M  V30 5226 C 478.511 -4.18493 0.717532 0
M  V30 5227 O 479.535 -3.4987 0.668535 0
M  V30 5228 O 478.394 -5.40937 0.777779 0
M  V30 5229 H 475.488 -0.822885 0.0824018 0
M  V30 5230 H 478.034 -1.44335 0.892499 0
M  V30 5231 H 476.806 -3.49082 1.76797 0
M  V30 5232 H 476.429 -3.97411 0.122461 0
M  V30 5233 N 477.426 -0.562348 -1.47226 0
M  V30 5234 C 478.675 -0.038041 -2.01664 0
M  V30 5235 C 478.988 1.32199 -1.44162 0
M  V30 5236 O 480.194 1.9365 -1.90294 0
M  V30 5237 C 478.65 -0.0174958 -3.59896 0
M  V30 5238 C 478.258 -1.3746 -4.2639 0
M  V30 5239 C 480.002 0.453934 -4.22066 0
M  V30 5240 C 477.909 -1.31289 -5.76643 0
M  V30 5241 H 476.839 -0.0104511 -0.753928 0
M  V30 5242 H 479.49 -0.710966 -1.69167 0
M  V30 5243 H 477.872 0.721182 -3.89378 0
M  V30 5244 H 479.046 -2.1314 -4.08544 0
M  V30 5245 H 477.361 -1.78438 -3.7623 0
M  V30 5246 H 479.958 0.518584 -5.32179 0
M  V30 5247 H 480.301 1.46706 -3.89594 0
M  V30 5248 H 480.834 -0.230044 -3.97134 0
M  V30 5249 H 477.573 -2.30217 -6.13743 0
M  V30 5250 H 477.093 -0.597973 -5.96812 0
M  V30 5251 H 478.772 -1.01713 -6.38955 0
M  V30 5252 N 478.904 1.54736 -0.299062 0
M  V30 5253 C 480.144 2.0201 0.31168 0
M  V30 5254 C 480.508 1.18281 1.5124 0
M  V30 5255 O 481.709 1.55243 2.19438 0
M  V30 5256 C 479.98 3.5123 0.661227 0
M  V30 5257 S 481.539 4.20467 1.2551 0
M  V30 5258 H 478.357 0.704523 0.0957517 0
M  V30 5259 H 480.959 1.90791 -0.426482 0
M  V30 5260 H 479.663 4.09804 -0.221171 0
M  V30 5261 H 479.194 3.66481 1.43023 0
M  V30 5262 H 481.209 4.26083 2.54298 0
M  V30 5263 N 480.382 0.0267497 1.57577 0
M  V30 5264 C 481.33 -0.973923 2.11229 0
M  V30 5265 C 482.324 -1.33849 1.03831 0
M  V30 5266 O 483.53 -1.321 1.22269 0
M  V30 5267 H 479.905 -0.331844 0.674821 0
M  V30 5268 H 481.876 -0.496092 2.94247 0
M  V30 5269 C 480.625 -2.24798 2.65257 0
M  V30 5270 H 479.948 -1.9762 3.47543 0
M  V30 5271 H 481.388 -2.93031 3.06445 0
M  V30 5272 C 479.847 -2.97611 1.57891 0
M  V30 5273 O 480.377 -3.89629 0.97735 0
M  V30 5274 N 478.583 -2.59905 1.29992 0
M  V30 5275 H 478.13 -1.85154 1.79097 0
M  V30 5276 H 478.088 -3.08932 0.583798 0
M  V30 5277 N 481.861 -1.55662 -0.24637 0
M  V30 5278 C 483.272 -1.67953 -0.81539 0
M  V30 5279 C 483.623 -0.624302 -1.86002 0
M  V30 5280 O 482.748 0.229328 -2.15181 0
M  V30 5281 C 483.343 -3.04484 -1.48576 0
M  V30 5282 C 481.902 -3.18713 -2.00248 0
M  V30 5283 C 481.049 -2.6383 -0.853766 0
M  V30 5284 H 484 -1.58685 -0.0221692 0
M  V30 5285 H 484.021 -2.98959 -2.3538 0
M  V30 5286 H 483.533 -3.81264 -0.725222 0
M  V30 5287 H 481.634 -2.46757 -2.79181 0
M  V30 5288 H 481.747 -4.25628 -2.1995 0
M  V30 5289 H 480.111 -2.21667 -1.25442 0
M  V30 5290 H 480.894 -3.43135 -0.106302 0
M  V30 5291 N 483.339 0.512053 -1.4905 0
M  V30 5292 C 484.579 1.27715 -1.59588 0
M  V30 5293 C 484.943 1.90071 -0.271502 0
M  V30 5294 O 486.144 2.67616 -0.251987 0
M  V30 5295 C 484.415 2.32399 -2.71524 0
M  V30 5296 S 485.974 3.18396 -3.01943 0
M  V30 5297 H 482.792 0.43419 -0.563027 0
M  V30 5298 H 485.394 0.581315 -1.86657 0
M  V30 5299 H 484.098 1.85101 -3.66287 0
M  V30 5300 H 483.629 3.06667 -2.46412 0
M  V30 5301 H 485.644 4.32842 -2.42616 0
M  V30 5302 N 484.817 1.37938 0.762283 0
M  V30 5303 C 486.233 1.18945 1.06415 0
M  V30 5304 C 486.433 0.0321163 2.01474 0
M  V30 5305 O 485.489 -0.624844 2.44647 0
M  V30 5306 C 486.802 2.51218 1.65258 0
M  V30 5307 C 488.35 2.57824 1.7747 0
M  V30 5308 C 488.825 3.90251 2.39725 0
M  V30 5309 N 490.316 3.91744 2.47166 0
M  V30 5310 C 491.051 4.90966 2.96209 0
M  V30 5311 N 490.547 6.00585 3.45354 0
M  V30 5312 N 492.34 4.78363 2.9517 0
M  V30 5313 H 484.491 2.11994 0.131301 0
M  V30 5314 H 486.754 0.940262 0.120879 0
M  V30 5315 H 486.46 3.36317 1.02878 0
M  V30 5316 H 486.334 2.68989 2.64433 0
M  V30 5317 H 488.721 1.73126 2.3898 0
M  V30 5318 H 488.802 2.43928 0.770241 0
M  V30 5319 H 488.446 4.75368 1.78852 0
M  V30 5320 H 488.376 4.01454 3.40796 0
M  V30 5321 H 490.867 3.12563 2.12397 0
M  V30 5322 H 491.18 6.72236 3.81207 0
M  V30 5323 H 489.525 6.04217 3.43434 0
M  V30 5324 H 492.716 3.91841 2.56082 0
M  V30 5325 H 492.889 5.55843 3.33081 0
M  V30 5326 N 486.295 -0.989507 1.22664 0
M  V30 5327 C 487.544 -1.72375 1.04737 0
M  V30 5328 C 487.857 -1.91096 -0.417316 0
M  V30 5329 O 489.063 -2.6188 -0.716334 0
M  V30 5330 C 487.519 -3.10161 1.82561 0
M  V30 5331 C 487.127 -2.99358 3.333 0
M  V30 5332 C 488.871 -3.87607 1.73093 0
M  V30 5333 C 486.778 -4.32319 4.03552 0
M  V30 5334 H 485.708 -0.646326 0.388302 0
M  V30 5335 H 488.359 -1.10437 1.46546 0
M  V30 5336 H 486.741 -3.728 1.33552 0
M  V30 5337 H 487.915 -2.45863 3.89728 0
M  V30 5338 H 486.23 -2.35392 3.43481 0
M  V30 5339 H 488.827 -4.86025 2.22899 0
M  V30 5340 H 489.17 -4.10509 0.691976 0
M  V30 5341 H 489.703 -3.31652 2.19663 0
M  V30 5342 H 486.442 -4.14616 5.07714 0
M  V30 5343 H 485.962 -4.85714 3.51911 0
M  V30 5344 H 487.641 -5.01051 4.09337 0
M  V30 5345 N 487.773 -1.03688 -1.18687 0
M  V30 5346 C 489.019 -0.74888 -1.89112 0
M  V30 5347 C 489.374 0.715345 -1.78607 0
M  V30 5348 O 488.667 1.51498 -1.17299 0
M  V30 5349 C 488.861 -1.14477 -3.3857 0
M  V30 5350 C 488.69 -2.64594 -3.63621 0
M  V30 5351 C 487.46 -3.31685 -3.812 0
M  V30 5352 C 489.658 -3.62811 -3.64517 0
M  V30 5353 N 487.64 -4.70822 -3.93955 0
M  V30 5354 C 489.011 -4.87603 -3.8294 0
M  V30 5355 C 491.066 -3.56495 -3.47585 0
M  V30 5356 C 489.769 -6.0684 -3.86184 0
M  V30 5357 C 491.795 -4.75155 -3.52111 0
M  V30 5358 C 491.157 -5.98765 -3.71026 0
M  V30 5359 H 487.256 -0.32603 -0.710794 0
M  V30 5360 H 489.84 -1.3258 -1.42586 0
M  V30 5361 H 488.011 -0.595974 -3.838 0
M  V30 5362 H 489.743 -0.808187 -3.96548 0
M  V30 5363 H 486.498 -2.82091 -3.80423 0
M  V30 5364 H 486.922 -5.43122 -4.04163 0
M  V30 5365 H 491.564 -2.61907 -3.31911 0
M  V30 5366 H 489.282 -7.01788 -4.00648 0
M  V30 5367 H 492.868 -4.71905 -3.40289 0
M  V30 5368 H 491.748 -6.89047 -3.74412 0
M  V30 5369 N 489.251 1.34841 -0.815825 0
M  V30 5370 C 490.161 2.33425 -0.234462 0
M  V30 5371 C 491.177 1.62295 0.627413 0
M  V30 5372 O 492.353 1.94109 0.536987 0
M  V30 5373 C 489.418 3.41471 0.599849 0
M  V30 5374 C 488.479 4.28362 -0.283596 0
M  V30 5375 C 487.712 5.31248 0.51099 0
M  V30 5376 O 487.935 5.43056 1.7449 0
M  V30 5377 O 486.869 6.01812 -0.10297 0
M  V30 5378 H 490.695 2.84962 -1.05024 0
M  V30 5379 H 488.28 1.37774 -0.577809 0
M  V30 5380 H 490.162 4.07464 1.07475 0
M  V30 5381 H 488.837 2.9219 1.39308 0
M  V30 5382 H 487.744 3.65318 -0.805836 0
M  V30 5383 H 489.077 4.81066 -1.041 0
M  V30 5384 N 490.729 0.570148 1.46925 0
M  V30 5385 C 491.662 -0.218362 2.27153 0
M  V30 5386 C 492.64 -0.90847 1.34854 0
M  V30 5387 O 493.824 -0.924875 1.64251 0
M  V30 5388 C 490.951 -1.3122 3.12248 0
M  V30 5389 C 489.997 -0.729277 4.20219 0
M  V30 5390 S 490.83 0.434159 5.33737 0
M  V30 5391 C 491.986 -0.661188 6.22398 0
M  V30 5392 H 492.219 0.462393 2.93682 0
M  V30 5393 H 489.752 0.356753 1.50222 0
M  V30 5394 H 491.71 -1.93856 3.61842 0
M  V30 5395 H 490.371 -1.96485 2.45056 0
M  V30 5396 H 489.564 -1.5511 4.79538 0
M  V30 5397 H 489.166 -0.178836 3.73572 0
M  V30 5398 H 491.458 -1.55006 6.5953 0
M  V30 5399 H 492.401 -0.105046 7.08022 0
M  V30 5400 H 492.809 -0.959682 5.56283 0
M  V30 5401 N 492.207 -1.54576 0.307264 0
M  V30 5402 C 493.432 -2.05139 -0.305379 0
M  V30 5403 C 493.857 -1.18278 -1.46259 0
M  V30 5404 O 493.215 -0.188243 -1.8032 0
M  V30 5405 C 493.263 -3.53066 -0.733283 0
M  V30 5406 O 492.367 -3.69206 -1.83741 0
M  V30 5407 H 491.708 -0.661444 -0.0582105 0
M  V30 5408 H 494.238 -1.99569 0.450931 0
M  V30 5409 H 494.248 -3.95034 -1.02039 0
M  V30 5410 H 492.923 -4.15746 0.113198 0
M  V30 5411 H 491.5 -3.39143 -1.55037 0
M  V30 5412 N 493.685 -0.035106 -1.57561 0
M  V30 5413 C 494.632 0.94474 -2.10578 0
M  V30 5414 C 495.602 1.3192 -1.00927 0
M  V30 5415 O 496.787 1.41147 -1.28382 0
M  V30 5416 C 493.927 2.21982 -2.64231 0
M  V30 5417 C 493.04 1.90128 -3.87911 0
M  V30 5418 C 492.175 3.11975 -4.29936 0
M  V30 5419 C 491.214 2.75968 -5.46359 0
M  V30 5420 N 490.351 3.90459 -5.83512 0
M  V30 5421 H 495.191 0.485717 -2.94015 0
M  V30 5422 H 492.728 0.228143 -1.4532 0
M  V30 5423 H 494.686 2.96572 -2.9343 0
M  V30 5424 H 493.316 2.6549 -1.83616 0
M  V30 5425 H 492.368 1.05755 -3.65404 0
M  V30 5426 H 493.68 1.59613 -4.72573 0
M  V30 5427 H 492.834 3.9488 -4.60603 0
M  V30 5428 H 491.573 3.45657 -3.44053 0
M  V30 5429 H 490.578 1.91478 -5.1538 0
M  V30 5430 H 491.803 2.43497 -6.33945 0
M  V30 5431 H 489.749 4.23971 -5.00584 0
M  V30 5432 H 489.666 3.63588 -6.62827 0
M  V30 5433 H 490.934 4.7405 -6.18787 0
M  V30 5434 N 495.163 1.55791 0.238111 0
M  V30 5435 C 496.095 1.87513 1.31802 0
M  V30 5436 C 497.108 0.762053 1.43863 0
M  V30 5437 O 498.297 1.04024 1.45056 0
M  V30 5438 C 495.397 2.05402 2.69561 0
M  V30 5439 C 494.57 3.3632 2.79656 0
M  V30 5440 C 493.629 3.43844 3.98319 0
M  V30 5441 O 492.655 4.16994 3.87433 0
M  V30 5442 N 493.857 2.73777 5.11885 0
M  V30 5443 H 496.622 2.80734 1.04922 0
M  V30 5444 H 494.183 1.56135 0.428196 0
M  V30 5445 H 496.175 2.07769 3.47296 0
M  V30 5446 H 494.745 1.18884 2.89111 0
M  V30 5447 H 493.965 3.46195 1.88528 0
M  V30 5448 H 495.253 4.22594 2.83358 0
M  V30 5449 H 494.651 2.14094 5.23622 0
M  V30 5450 H 493.208 2.81825 5.87723 0
M  V30 5451 N 496.642 -0.504142 1.49319 0
M  V30 5452 C 497.888 -1.25767 1.59857 0
M  V30 5453 C 498.243 -1.90348 0.280262 0
M  V30 5454 O 497.536 -1.77588 -0.719241 0
M  V30 5455 C 497.73 -2.35021 2.69258 0
M  V30 5456 C 497.559 -1.81154 4.11598 0
M  V30 5457 C 496.329 -1.62596 4.78425 0
M  V30 5458 C 498.527 -1.3252 4.96934 0
M  V30 5459 N 496.509 -1.03625 6.05091 0
M  V30 5460 C 497.88 -0.856633 6.14054 0
M  V30 5461 C 499.935 -1.21063 4.82958 0
M  V30 5462 C 498.638 -0.284841 7.18736 0
M  V30 5463 C 500.664 -0.652815 5.87786 0
M  V30 5464 C 500.026 -0.194461 7.04132 0
M  V30 5465 H 496.125 -0.450293 0.639343 0
M  V30 5466 H 498.709 -0.565344 1.86311 0
M  V30 5467 H 496.88 -3.01719 2.44581 0
M  V30 5468 H 498.612 -3.02061 2.69335 0
M  V30 5469 H 495.367 -1.86873 4.35173 0
M  V30 5470 H 495.791 -0.76076 6.72712 0
M  V30 5471 H 500.433 -1.551 3.93324 0
M  V30 5472 H 498.151 0.0677979 8.08072 0
M  V30 5473 H 501.737 -0.566994 5.79031 0
M  V30 5474 H 500.617 0.230442 7.83861 0
M  V30 5475 N 498.12 -1.38341 -0.754957 0
M  V30 5476 C 499.345 -1.37882 -1.5493 0
M  V30 5477 C 499.77 0.0296385 -1.88077 0
M  V30 5478 O 499.128 1.01133 -1.50472 0
M  V30 5479 C 499.176 -2.23996 -2.82592 0
M  V30 5480 O 498.28 -1.65612 -3.77686 0
M  V30 5481 H 497.621 -0.470384 -0.468652 0
M  V30 5482 H 500.151 -1.82084 -0.933082 0
M  V30 5483 H 500.161 -2.37806 -3.3153 0
M  V30 5484 H 498.836 -3.26365 -2.57796 0
M  V30 5485 H 497.413 -1.60936 -3.36384 0
M  V30 5486 N 499.598 0.982988 -1.23187 0
M  V30 5487 C 500.508 2.10907 -1.02739 0
M  V30 5488 C 501.524 1.73979 0.0273188 0
M  V30 5489 O 502.7 2.00702 -0.16757 0
M  V30 5490 C 499.765 3.41142 -0.618304 0
M  V30 5491 C 498.826 3.92112 -1.74777 0
M  V30 5492 C 498.059 5.16131 -1.3581 0
M  V30 5493 O 498.282 5.6989 -0.241201 0
M  V30 5494 O 497.216 5.61103 -2.17824 0
M  V30 5495 H 501.042 2.31046 -1.97108 0
M  V30 5496 H 498.627 1.09284 -1.01869 0
M  V30 5497 H 500.509 4.19488 -0.400982 0
M  V30 5498 H 499.184 3.2234 0.296421 0
M  V30 5499 H 498.091 3.14895 -2.0197 0
M  V30 5500 H 499.424 4.15364 -2.64071 0
M  V30 5501 N 501.076 1.04316 1.18135 0
M  V30 5502 C 502.492 0.762858 1.40188 0
M  V30 5503 C 502.692 -0.646547 1.90846 0
M  V30 5504 O 501.748 -1.41036 2.0944 0
M  V30 5505 C 503.061 1.81106 2.40044 0
M  V30 5506 C 504.609 1.83226 2.53766 0
M  V30 5507 C 505.084 2.87044 3.56889 0
M  V30 5508 N 506.575 2.85951 3.64398 0
M  V30 5509 C 507.31 3.62932 4.43923 0
M  V30 5510 N 506.806 4.49672 5.27036 0
M  V30 5511 N 508.599 3.51411 4.38711 0
M  V30 5512 H 500.75 1.95264 0.835805 0
M  V30 5513 H 503.013 0.845017 0.429709 0
M  V30 5514 H 502.719 2.82214 2.09876 0
M  V30 5515 H 502.593 1.64529 3.39426 0
M  V30 5516 H 504.98 0.827869 2.8325 0
M  V30 5517 H 505.061 2.03879 1.54489 0
M  V30 5518 H 504.705 3.87663 3.28145 0
M  V30 5519 H 504.635 2.63645 4.5585 0
M  V30 5520 H 507.126 2.23051 3.05052 0
M  V30 5521 H 507.439 5.05116 5.84874 0
M  V30 5522 H 505.784 4.53738 5.26447 0
M  V30 5523 H 508.975 2.83047 3.72829 0
M  V30 5524 H 509.148 4.11654 5.00445 0
M  V30 5525 N 502.554 -1.34406 0.822964 0
M  V30 5526 C 503.8 -1.98578 0.411666 0
M  V30 5527 C 504.133 -1.65093 -1.02264 0
M  V30 5528 O 503.408 -0.92258 -1.71227 0
M  V30 5529 C 503.691 -3.54823 0.614235 0
M  V30 5530 C 503.544 -3.9805 2.09466 0
M  V30 5531 C 504.863 -4.40071 0.050221 0
M  V30 5532 H 501.982 -0.721355 0.151047 0
M  V30 5533 H 504.624 -1.59301 1.03554 0
M  V30 5534 H 502.774 -3.88411 0.0831774 0
M  V30 5535 H 504.446 -3.74795 2.68936 0
M  V30 5536 H 502.689 -3.4836 2.5851 0
M  V30 5537 H 503.36 -5.06819 2.18721 0
M  V30 5538 H 505.836 -4.13037 0.503953 0
M  V30 5539 H 504.712 -5.48452 0.221759 0
M  V30 5540 H 504.973 -4.29576 -1.04482 0
M  V30 5541 N 504.032 -0.577932 -1.46621 0
M  V30 5542 C 505.272 -0.0643097 -2.04299 0
M  V30 5543 C 505.636 1.26967 -1.44026 0
M  V30 5544 O 506.837 1.87224 -1.92875 0
M  V30 5545 C 505.108 0.00547588 -3.574 0
M  V30 5546 S 506.667 0.462216 -4.36359 0
M  V30 5547 H 503.485 -0.0351573 -0.71013 0
M  V30 5548 H 506.087 -0.76935 -1.79725 0
M  V30 5549 H 504.791 -0.969423 -3.98786 0
M  V30 5550 H 504.322 0.733435 -3.86503 0
M  V30 5551 H 506.337 1.71791 -4.65513 0
M  V30 5552 N 505.51 1.54411 -0.315457 0
M  V30 5553 C 506.42 2.27737 0.56329 0
M  V30 5554 C 507.436 1.31787 1.13614 0
M  V30 5555 O 508.612 1.64791 1.15784 0
M  V30 5556 C 505.677 3.01478 1.71207 0
M  V30 5557 C 504.738 4.12997 1.17185 0
M  V30 5558 C 503.971 4.83212 2.26588 0
M  V30 5559 O 504.194 4.52884 3.46775 0
M  V30 5560 O 503.128 5.70299 1.92463 0
M  V30 5561 H 506.954 3.03683 -0.0319614 0
M  V30 5562 H 504.539 1.49178 -0.0814188 0
M  V30 5563 H 506.421 3.47683 2.38106 0
M  V30 5564 H 505.096 2.28414 2.29366 0
M  V30 5565 H 504.003 3.71159 0.468174 0
M  V30 5566 H 505.336 4.8808 0.635501 0
M  V30 5567 N 506.988 0.0434614 1.5754 0
M  V30 5568 C 507.898 -0.94893 2.14552 0
M  V30 5569 C 508.914 -1.34707 1.10136 0
M  V30 5570 O 510.09 -1.42557 1.42266 0
M  V30 5571 C 507.155 -2.208 2.67298 0
M  V30 5572 C 506.216 -1.86893 3.86484 0
M  V30 5573 C 505.449 -3.06797 4.36705 0
M  V30 5574 O 505.672 -4.19921 3.86034 0
M  V30 5575 O 504.606 -2.8826 5.28384 0
M  V30 5576 H 508.432 -0.494099 2.99654 0
M  V30 5577 H 506.017 -0.177989 1.48336 0
M  V30 5578 H 507.899 -2.94686 3.01228 0
M  V30 5579 H 506.574 -2.65436 1.85272 0
M  V30 5580 H 505.481 -1.10347 3.57455 0
M  V30 5581 H 506.814 -1.47062 4.69716 0
M  V30 5582 N 508.466 -1.55915 -0.229846 0
M  V30 5583 C 509.713 -1.78542 -0.955452 0
M  V30 5584 C 510.041 -0.610785 -1.84661 0
M  V30 5585 O 509.296 0.405213 -1.91459 0
M  V30 5586 C 509.595 -3.06845 -1.8325 0
M  V30 5587 C 509.261 -4.37395 -1.09528 0
M  V30 5588 C 507.923 -4.72868 -0.891598 0
M  V30 5589 C 510.275 -5.18029 -0.574046 0
M  V30 5590 C 507.603 -5.86496 -0.154655 0
M  V30 5591 C 509.955 -6.32423 0.149513 0
M  V30 5592 C 508.619 -6.66504 0.364519 0
M  V30 5593 H 507.889 -0.653333 -0.349625 0
M  V30 5594 H 510.536 -1.90183 -0.224235 0
M  V30 5595 H 508.841 -2.90291 -2.63132 0
M  V30 5596 H 510.538 -3.21553 -2.39592 0
M  V30 5597 H 507.128 -4.09538 -1.26399 0
M  V30 5598 H 511.312 -4.91066 -0.718899 0
M  V30 5599 H 506.568 -6.11396 0.0222356 0
M  V30 5600 H 510.742 -6.94137 0.560947 0
M  V30 5601 H 508.369 -7.54397 0.937495 0
M  V30 5602 N 509.944 0.496216 -1.49584 0
M  V30 5603 C 511.174 1.27209 -1.62793 0
M  V30 5604 C 511.582 1.86799 -0.300476 0
M  V30 5605 O 510.925 1.68802 0.724674 0
M  V30 5606 C 510.987 2.43812 -2.64189 0
M  V30 5607 C 510.651 2.05055 -4.08414 0
M  V30 5608 C 511.648 1.58752 -4.9507 0
M  V30 5609 C 509.333 2.14543 -4.54177 0
M  V30 5610 C 511.327 1.22448 -6.25528 0
M  V30 5611 C 509.014 1.77851 -5.84647 0
M  V30 5612 C 510.012 1.31878 -6.70147 0
M  V30 5613 O 509.7 0.956834 -7.98185 0
M  V30 5614 H 509.432 0.391848 -0.550846 0
M  V30 5615 H 511.986 0.601712 -1.96389 0
M  V30 5616 H 510.216 3.13941 -2.25783 0
M  V30 5617 H 511.905 3.05829 -2.66877 0
M  V30 5618 H 512.671 1.50863 -4.60939 0
M  V30 5619 H 508.55 2.49277 -3.87791 0
M  V30 5620 H 512.094 0.864933 -6.92217 0
M  V30 5621 H 507.991 1.8539 -6.18305 0
M  V30 5622 H 508.759 1.08789 -8.11238 0
M  V30 5623 N 511.423 1.38739 0.74761 0
M  V30 5624 C 512.839 1.20067 1.05148 0
M  V30 5625 C 513.039 0.0534835 2.01429 0
M  V30 5626 O 512.095 -0.59886 2.45296 0
M  V30 5627 C 513.408 2.52957 1.62584 0
M  V30 5628 C 514.956 2.59692 1.74726 0
M  V30 5629 C 515.431 3.92772 2.35573 0
M  V30 5630 N 516.922 3.94343 2.42997 0
M  V30 5631 C 517.657 4.9408 2.90985 0
M  V30 5632 N 517.153 6.04214 3.38965 0
M  V30 5633 N 518.946 4.81466 2.9008 0
M  V30 5634 H 511.097 2.12121 0.108808 0
M  V30 5635 H 513.36 0.941491 0.110899 0
M  V30 5636 H 513.066 3.37389 0.993051 0
M  V30 5637 H 512.94 2.71779 2.61565 0
M  V30 5638 H 515.327 1.75651 2.3713 0
M  V30 5639 H 515.408 2.44731 0.744326 0
M  V30 5640 H 515.052 4.77238 1.738 0
M  V30 5641 H 514.982 4.05046 3.36519 0
M  V30 5642 H 517.473 3.14799 2.0907 0
M  V30 5643 H 517.786 6.76241 3.74056 0
M  V30 5644 H 516.131 6.07825 3.37007 0
M  V30 5645 H 519.322 3.94535 2.51912 0
M  V30 5646 H 519.495 5.59344 3.27166 0
M  V30 5647 N 512.901 -0.976442 1.23707 0
M  V30 5648 C 513.833 -2.07212 0.979574 0
M  V30 5649 C 514.846 -1.6273 -0.0478528 0
M  V30 5650 O 516.035 -1.77506 0.18815 0
M  V30 5651 C 513.135 -3.35835 0.45479 0
M  V30 5652 C 512.308 -4.09268 1.54331 0
M  V30 5653 C 511.367 -5.16166 1.02271 0
M  V30 5654 O 510.393 -5.42827 1.71254 0
M  V30 5655 N 511.595 -5.80313 -0.147419 0
M  V30 5656 H 514.36 -2.29878 1.92292 0
M  V30 5657 H 511.921 -1.14343 1.14618 0
M  V30 5658 H 513.913 -4.04597 0.0914631 0
M  V30 5659 H 512.483 -3.10106 -0.394068 0
M  V30 5660 H 511.703 -3.34906 2.07923 0
M  V30 5661 H 512.991 -4.55095 2.27522 0
M  V30 5662 H 512.389 -5.61043 -0.724353 0
M  V30 5663 H 510.946 -6.50231 -0.451972 0
M  V30 5664 N 514.379 -1.04941 -1.1758 0
M  V30 5665 C 515.627 -0.756492 -1.87408 0
M  V30 5666 C 515.948 0.718478 -1.81281 0
M  V30 5667 O 515.218 1.519 -1.23706 0
M  V30 5668 H 513.798 -0.276841 -0.693807 0
M  V30 5669 H 516.46 -1.32803 -1.42652 0
M  V30 5670 H 515.556 -1.06918 -2.93215 0
M  V30 5671 N 515.857 1.33968 -0.830081 0
M  V30 5672 C 516.767 2.33164 -0.259207 0
M  V30 5673 C 517.783 1.62951 0.610164 0
M  V30 5674 O 518.959 1.94668 0.516369 0
M  V30 5675 C 516.024 3.42088 0.563598 0
M  V30 5676 C 515.085 4.28037 -0.329014 0
M  V30 5677 C 514.318 5.3176 0.454616 0
M  V30 5678 O 514.541 5.44876 1.6872 0
M  V30 5679 O 513.475 6.01669 -0.166794 0
M  V30 5680 H 517.301 2.83832 -1.08041 0
M  V30 5681 H 514.886 1.37154 -0.59239 0
M  V30 5682 H 516.768 4.08581 1.03147 0
M  V30 5683 H 515.443 2.93651 1.36201 0
M  V30 5684 H 514.35 3.64443 -0.844538 0
M  V30 5685 H 515.683 4.79934 -1.09196 0
M  V30 5686 N 517.335 0.585699 1.46312 0
M  V30 5687 C 518.265 -0.133556 2.33118 0
M  V30 5688 C 519.246 -0.880707 1.45525 0
M  V30 5689 O 520.431 -0.855579 1.74337 0
M  V30 5690 C 517.561 -1.14585 3.27853 0
M  V30 5691 C 516.515 -0.513341 4.2491 0
M  V30 5692 C 515.841 -1.63231 5.09175 0
M  V30 5693 C 517.141 0.551413 5.19381 0
M  V30 5694 H 518.835 0.59121 2.93505 0
M  V30 5695 H 516.381 0.285761 1.41136 0
M  V30 5696 H 518.334 -1.65741 3.87438 0
M  V30 5697 H 517.058 -1.90093 2.65579 0
M  V30 5698 H 515.717 -0.0228349 3.66593 0
M  V30 5699 H 515.365 -2.37713 4.43285 0
M  V30 5700 H 515.065 -1.21473 5.74907 0
M  V30 5701 H 516.589 -2.14658 5.71624 0
M  V30 5702 H 518.003 0.124804 5.73164 0
M  V30 5703 H 516.4 0.889486 5.93471 0
M  V30 5704 H 517.47 1.43655 4.63132 0
M  V30 5705 N 518.813 -1.54241 0.323641 0
M  V30 5706 C 519.723 -2.28033 -0.551205 0
M  V30 5707 C 520.739 -1.32388 -1.12913 0
M  V30 5708 O 521.915 -1.65403 -1.14908 0
M  V30 5709 C 518.98 -3.02382 -1.69606 0
M  V30 5710 C 518.041 -4.13612 -1.14993 0
M  V30 5711 C 517.274 -4.84407 -2.24022 0
M  V30 5712 O 517.497 -4.54716 -3.44368 0
M  V30 5713 O 516.431 -5.71312 -1.89436 0
M  V30 5714 H 520.257 -3.03662 0.048066 0
M  V30 5715 H 517.842 -1.49133 0.0893289 0
M  V30 5716 H 519.724 -3.48941 -2.36259 0
M  V30 5717 H 518.399 -2.29628 -2.28151 0
M  V30 5718 H 517.306 -3.71402 -0.448484 0
M  V30 5719 H 518.639 -4.8841 -0.609608 0
M  V30 5720 N 520.291 -0.0518155 -1.57515 0
M  V30 5721 C 521.223 0.951542 -2.08515 0
M  V30 5722 C 522.236 1.27436 -1.01311 0
M  V30 5723 O 523.425 1.23504 -1.28876 0
M  V30 5724 C 520.525 2.27291 -2.5138 0
M  V30 5725 C 519.698 2.13191 -3.81927 0
M  V30 5726 C 518.757 3.28458 -4.11098 0
M  V30 5727 O 517.783 3.04334 -4.81009 0
M  V30 5728 N 518.985 4.52954 -3.63061 0
M  V30 5729 H 521.75 0.516242 -2.9522 0
M  V30 5730 H 519.311 0.13441 -1.61341 0
M  V30 5731 H 521.303 3.03272 -2.67971 0
M  V30 5732 H 519.873 2.62386 -1.69919 0
M  V30 5733 H 519.093 1.21798 -3.74912 0
M  V30 5734 H 520.381 2.00999 -4.67415 0
M  V30 5735 H 519.779 4.75444 -3.06545 0
M  V30 5736 H 518.336 5.26026 -3.84889 0
M  V30 5737 N 521.769 1.56035 0.221574 0
M  V30 5738 C 522.716 1.92413 1.27459 0
M  V30 5739 C 523.686 0.781323 1.46576 0
M  V30 5740 O 524.871 1.03721 1.60145 0
M  V30 5741 C 522.011 2.24617 2.61995 0
M  V30 5742 C 521.124 3.51831 2.50677 0
M  V30 5743 C 520.259 3.73482 3.77736 0
M  V30 5744 C 519.298 4.94211 3.6114 0
M  V30 5745 N 518.435 5.12252 4.80148 0
M  V30 5746 H 523.275 2.82203 0.957355 0
M  V30 5747 H 520.812 1.39676 0.461415 0
M  V30 5748 H 522.77 2.41298 3.40339 0
M  V30 5749 H 521.4 1.38 2.91815 0
M  V30 5750 H 520.452 3.43343 1.63767 0
M  V30 5751 H 521.764 4.40328 2.34334 0
M  V30 5752 H 520.918 3.9026 4.64523 0
M  V30 5753 H 519.657 2.83266 3.97003 0
M  V30 5754 H 518.662 4.77384 2.72736 0
M  V30 5755 H 519.887 5.85912 3.43343 0
M  V30 5756 H 517.833 4.24978 4.99729 0
M  V30 5757 H 517.75 5.94881 4.66532 0
M  V30 5758 H 519.018 5.33465 5.68362 0
M  V30 5759 N 523.247 -0.488276 1.49845 0
M  V30 5760 C 524.494 -1.24157 1.59973 0
M  V30 5761 C 524.822 -1.92293 0.292182 0
M  V30 5762 O 524.077 -1.81942 -0.720813 0
M  V30 5763 C 524.376 -2.32152 2.71735 0
M  V30 5764 C 524.042 -1.81387 4.12807 0
M  V30 5765 C 522.704 -1.67262 4.51195 0
M  V30 5766 C 525.056 -1.43537 5.01045 0
M  V30 5767 C 522.384 -1.13685 5.7558 0
M  V30 5768 C 524.736 -0.914081 6.25961 0
M  V30 5769 C 523.4 -0.759327 6.63167 0
M  V30 5770 H 522.67 -0.454322 0.585383 0
M  V30 5771 H 525.317 -0.540261 1.83721 0
M  V30 5772 H 523.622 -3.08122 2.42008 0
M  V30 5773 H 525.319 -2.90164 2.76778 0
M  V30 5774 H 521.909 -1.93344 3.82513 0
M  V30 5775 H 526.093 -1.53292 4.72033 0
M  V30 5776 H 521.349 -1.00426 6.03096 0
M  V30 5777 H 525.523 -0.612066 6.93705 0
M  V30 5778 H 523.15 -0.342002 7.5943 0
M  V30 5779 N 524.725 -1.39134 -0.740242 0
M  V30 5780 C 525.635 -1.39697 -1.88473 0
M  V30 5781 C 526.651 -0.292403 -1.71526 0
M  V30 5782 O 527.827 -0.533021 -1.94219 0
M  V30 5783 C 524.892 -1.23382 -3.24003 0
M  V30 5784 C 523.953 -2.43763 -3.53381 0
M  V30 5785 C 523.186 -2.28216 -4.82445 0
M  V30 5786 O 523.409 -1.28288 -5.55786 0
M  V30 5787 O 522.343 -3.1709 -5.11603 0
M  V30 5788 H 526.169 -2.36159 -1.90952 0
M  V30 5789 H 523.754 -1.20194 -0.887346 0
M  V30 5790 H 525.636 -1.16395 -4.05006 0
M  V30 5791 H 524.311 -0.300121 -3.22306 0
M  V30 5792 H 523.218 -2.56325 -2.72485 0
M  V30 5793 H 524.551 -3.35808 -3.59852 0
M  V30 5794 N 526.204 0.969867 -1.24223 0
M  V30 5795 C 527.134 2.08191 -1.05729 0
M  V30 5796 C 528.115 1.70075 0.0290765 0
M  V30 5797 O 529.3 1.93712 -0.137583 0
M  V30 5798 C 526.43 3.40991 -0.658995 0
M  V30 5799 C 525.384 3.93054 -1.69389 0
M  V30 5800 C 524.71 5.22171 -1.15072 0
M  V30 5801 C 526.01 4.21137 -3.08935 0
M  V30 5802 H 527.704 2.23921 -1.98746 0
M  V30 5803 H 525.25 1.07602 -0.956967 0
M  V30 5804 H 527.203 4.18221 -0.51662 0
M  V30 5805 H 525.927 3.25155 0.30686 0
M  V30 5806 H 524.586 3.17977 -1.82444 0
M  V30 5807 H 524.234 5.02694 -0.175539 0
M  V30 5808 H 523.934 5.57973 -1.84229 0
M  V30 5809 H 525.458 6.02013 -1.02042 0
M  V30 5810 H 526.872 4.8908 -2.99121 0
M  V30 5811 H 525.269 4.68163 -3.75425 0
M  V30 5812 H 526.339 3.27996 -3.57137 0
M  V30 5813 N 527.682 1.05563 1.17022 0
M  V30 5814 C 528.592 0.670758 2.24807 0
M  V30 5815 C 529.608 -0.309865 1.71219 0
M  V30 5816 O 530.784 -0.161025 2.00755 0
M  V30 5817 C 527.849 0.055337 3.46656 0
M  V30 5818 C 526.91 1.08688 4.15314 0
M  V30 5819 C 526.143 0.500736 5.31346 0
M  V30 5820 O 526.366 -0.688718 5.66227 0
M  V30 5821 O 525.3 1.23683 5.89055 0
M  V30 5822 H 529.126 1.56914 2.60023 0
M  V30 5823 H 526.711 0.827428 1.24395 0
M  V30 5824 H 528.593 -0.286492 4.20425 0
M  V30 5825 H 527.268 -0.816638 3.13229 0
M  V30 5826 H 526.175 1.48077 3.43546 0
M  V30 5827 H 527.508 1.93014 4.52777 0
M  V30 5828 N 529.16 -1.33526 0.837174 0
M  V30 5829 C 530.409 -1.97098 0.428387 0
M  V30 5830 C 530.722 -1.67062 -1.01734 0
M  V30 5831 O 531.928 -2.24235 -1.53072 0
M  V30 5832 C 530.384 -3.52725 0.715075 0
M  V30 5833 C 529.992 -3.9164 2.17537 0
M  V30 5834 C 531.736 -4.22857 0.373154 0
M  V30 5835 C 529.643 -5.40237 2.40619 0
M  V30 5836 H 528.573 -0.737589 0.156455 0
M  V30 5837 H 531.224 -1.52169 1.02552 0
M  V30 5838 H 529.606 -3.95971 0.0475904 0
M  V30 5839 H 530.78 -3.59456 2.88319 0
M  V30 5840 H 529.095 -3.34485 2.4801 0
M  V30 5841 H 531.692 -5.32133 0.523264 0
M  V30 5842 H 532.035 -4.10647 -0.683708 0
M  V30 5843 H 532.568 -3.85135 0.995801 0
M  V30 5844 H 529.307 -5.57449 3.44864 0
M  V30 5845 H 528.827 -5.73887 1.74396 0
M  V30 5846 H 530.506 -6.07102 2.23688 0
M  V30 5847 N 530.638 -0.59345 -1.46 0
M  V30 5848 C 531.863 -0.0872365 -2.07216 0
M  V30 5849 C 532.288 1.2131 -1.43755 0
M  V30 5850 O 531.646 1.73528 -0.525152 0
M  V30 5851 C 531.694 0.0538197 -3.6056 0
M  V30 5852 O 530.798 1.10765 -3.97247 0
M  V30 5853 H 530.139 -0.0676598 -0.660544 0
M  V30 5854 H 532.669 -0.819445 -1.87473 0
M  V30 5855 H 532.679 0.256567 -4.07193 0
M  V30 5856 H 531.354 -0.895739 -4.0614 0
M  V30 5857 H 529.931 0.882501 -3.62307 0
M  V30 5858 N 532.116 1.54067 -0.331816 0
M  V30 5859 C 533.527 1.86059 0.15454 0
M  V30 5860 C 533.878 1.25331 1.50952 0
M  V30 5861 O 533.003 0.562441 2.08963 0
M  V30 5862 C 533.598 3.37581 0.287192 0
M  V30 5863 C 532.157 3.69493 0.717773 0
M  V30 5864 C 531.304 2.76863 -0.155569 0
M  V30 5865 H 534.255 1.48797 -0.55182 0
M  V30 5866 H 534.276 3.63744 1.11671 0
M  V30 5867 H 533.788 3.81751 -0.699131 0
M  V30 5868 H 531.889 3.3086 1.71354 0
M  V30 5869 H 532.002 4.76315 0.5158 0
M  V30 5870 H 530.366 2.51995 0.370213 0
M  V30 5871 H 531.149 3.23861 -1.13881 0
M  V30 5872 N 533.594 0.0601682 1.57485 0
M  V30 5873 C 534.524 -0.90889 2.15085 0
M  V30 5874 C 535.505 -1.31838 1.07484 0
M  V30 5875 O 536.69 -1.3915 1.35466 0
M  V30 5876 C 533.82 -2.18059 2.7031 0
M  V30 5877 C 532.774 -1.91088 3.82974 0
M  V30 5878 C 532.1 -3.24789 4.24754 0
M  V30 5879 C 533.4 -1.22535 5.07723 0
M  V30 5880 H 535.094 -0.429093 2.96309 0
M  V30 5881 H 532.64 -0.204952 1.42534 0
M  V30 5882 H 534.593 -2.86258 3.09248 0
M  V30 5883 H 533.317 -2.6826 1.8629 0
M  V30 5884 H 531.976 -1.25297 3.44523 0
M  V30 5885 H 531.624 -3.72809 3.37672 0
M  V30 5886 H 531.324 -3.07538 5.00694 0
M  V30 5887 H 532.848 -3.94205 4.66299 0
M  V30 5888 H 534.262 -1.80783 5.4405 0
M  V30 5889 H 532.659 -1.1558 5.88864 0
M  V30 5890 H 533.729 -0.202692 4.84476 0
M  V30 5891 N 535.072 -1.5615 -0.213296 0
M  V30 5892 C 536.312 -1.81325 -0.943435 0
M  V30 5893 C 536.676 -0.634934 -1.81198 0
M  V30 5894 O 537.877 -0.766166 -2.5765 0
M  V30 5895 C 536.148 -3.11437 -1.75334 0
M  V30 5896 S 537.707 -3.57955 -2.53799 0
M  V30 5897 H 534.525 -0.636538 -0.316766 0
M  V30 5898 H 537.127 -1.94387 -0.208313 0
M  V30 5899 H 535.831 -3.95228 -1.10556 0
M  V30 5900 H 535.362 -3.01204 -2.53061 0
M  V30 5901 H 537.377 -3.21947 -3.77577 0
M  V30 5902 N 536.55 0.480323 -1.50102 0
M  V30 5903 C 537.498 1.60024 -1.68805 0
M  V30 5904 C 538.492 1.60089 -0.553888 0
M  V30 5905 O 539.698 1.64349 -0.734127 0
M  V30 5906 H 536.073 0.530841 -0.532646 0
M  V30 5907 H 538.044 1.41408 -2.62767 0
M  V30 5908 C 536.793 2.98029 -1.79092 0
M  V30 5909 H 536.116 2.98694 -2.65748 0
M  V30 5910 H 537.556 3.75871 -1.96206 0
M  V30 5911 C 536.015 3.32538 -0.540388 0
M  V30 5912 O 536.545 4.00386 0.324637 0
M  V30 5913 N 534.751 2.87873 -0.397154 0
M  V30 5914 H 534.298 2.32834 -1.1021 0
M  V30 5915 H 534.256 3.11328 0.438425 0
M  V30 5916 N 538.028 1.39524 0.732853 0
M  V30 5917 C 538.96 1.34318 1.85718 0
M  V30 5918 C 539.973 0.251576 1.60844 0
M  V30 5919 O 541.162 0.510685 1.71039 0
M  V30 5920 C 538.262 1.06334 3.21786 0
M  V30 5921 C 537.435 2.26813 3.73998 0
M  V30 5922 C 536.494 1.95253 4.88634 0
M  V30 5923 O 535.52 2.67957 5.02183 0
M  V30 5924 N 536.722 0.919984 5.73164 0
M  V30 5925 H 539.487 2.3121 1.90688 0
M  V30 5926 H 537.048 1.33654 0.91368 0
M  V30 5927 H 539.04 0.832363 3.96048 0
M  V30 5928 H 537.61 0.181682 3.12072 0
M  V30 5929 H 536.83 2.65849 2.91064 0
M  V30 5930 H 538.118 3.0717 4.05616 0
M  V30 5931 H 537.516 0.317487 5.64808 0
M  V30 5932 H 536.073 0.748905 6.47483 0
M  V30 5933 N 539.506 -0.963266 1.24736 0
M  V30 5934 C 540.438 -2.06162 1.0015 0
M  V30 5935 C 541.451 -1.62771 -0.0305905 0
M  V30 5936 O 542.64 -1.77296 0.206966 0
M  V30 5937 C 539.74 -3.35333 0.490385 0
M  V30 5938 C 538.913 -4.07609 1.58663 0
M  V30 5939 C 537.972 -5.15052 1.0774 0
M  V30 5940 O 536.998 -5.4098 1.77002 0
M  V30 5941 N 538.2 -5.80436 -0.0858605 0
M  V30 5942 H 540.965 -2.27825 1.94719 0
M  V30 5943 H 538.526 -1.13121 1.15825 0
M  V30 5944 H 540.518 -4.04477 0.134371 0
M  V30 5945 H 539.088 -3.10507 -0.361155 0
M  V30 5946 H 538.308 -3.32681 2.11463 0
M  V30 5947 H 539.596 -4.52656 2.32336 0
M  V30 5948 H 538.994 -5.6178 -0.664806 0
M  V30 5949 H 537.551 -6.50674 -0.382981 0
M  V30 5950 N 540.985 -1.06182 -1.16461 0
M  V30 5951 C 541.932 -0.671613 -2.20812 0
M  V30 5952 C 542.902 0.331186 -1.62765 0
M  V30 5953 O 544.087 0.22033 -1.89524 0
M  V30 5954 C 541.227 -0.063029 -3.45042 0
M  V30 5955 C 540.34 -1.11587 -4.1734 0
M  V30 5956 C 539.475 -0.473546 -5.29085 0
M  V30 5957 C 538.514 -1.51 -5.93182 0
M  V30 5958 N 537.651 -0.891118 -6.96422 0
M  V30 5959 H 542.491 -1.56589 -2.53542 0
M  V30 5960 H 540.028 -0.782951 -1.24532 0
M  V30 5961 H 541.986 0.307344 -4.16066 0
M  V30 5962 H 540.616 0.794663 -3.12866 0
M  V30 5963 H 539.668 -1.60396 -3.44931 0
M  V30 5964 H 540.98 -1.90221 -4.61104 0
M  V30 5965 H 540.134 -0.0501432 -6.06679 0
M  V30 5966 H 538.873 0.344687 -4.8648 0
M  V30 5967 H 537.878 -1.94331 -5.14311 0
M  V30 5968 H 539.103 -2.33031 -6.37866 0
M  V30 5969 H 537.049 -0.0935753 -6.55933 0
M  V30 5970 H 536.966 -1.61486 -7.38551 0
M  V30 5971 H 538.234 -0.492822 -7.77941 0
M  V30 5972 N 542.463 1.3308 -0.844243 0
M  V30 5973 C 543.74 1.92178 -0.364261 0
M  V30 5974 C 544.12 1.76961 1.15101 0
M  V30 5975 O 543.468 1.16128 1.9679 0
M  V30 5976 C 543.678 3.393 -0.817106 0
M  V30 5977 C 545.026 4.16444 -0.828236 0
M  V30 5978 O 546.05 3.47975 -0.761062 0
M  V30 5979 O 544.909 5.38685 -0.920926 0
M  V30 5980 H 542.003 0.820411 -0.10419 0
M  V30 5981 H 544.549 1.41918 -0.930453 0
M  V30 5982 H 543.321 3.44272 -1.85991 0
M  V30 5983 H 542.944 3.96947 -0.227785 0
M  V30 5984 N 543.941 0.601185 1.45683 0
M  V30 5985 C 545.166 0.0982245 2.07167 0
M  V30 5986 C 545.591 -1.20546 1.44396 0
M  V30 5987 O 544.949 -1.73247 0.534347 0
M  V30 5988 C 544.997 -0.0346976 3.60583 0
M  V30 5989 O 544.101 -1.08657 3.97828 0
M  V30 5990 H 543.442 0.0711618 0.660176 0
M  V30 5991 H 545.972 0.829376 1.87036 0
M  V30 5992 H 545.982 -0.234969 4.07323 0
M  V30 5993 H 544.657 0.917265 4.05659 0
M  V30 5994 H 543.234 -0.863275 3.6277 0
M  V30 5995 N 545.419 -1.53889 0.339982 0
M  V30 5996 C 546.668 -2.00035 -0.258604 0
M  V30 5997 C 546.981 -1.23179 -1.51942 0
M  V30 5998 O 548.187 -1.59784 -2.19503 0
M  V30 5999 C 546.643 -3.56249 -0.511359 0
M  V30 6000 C 546.251 -4.41957 0.733349 0
M  V30 6001 C 547.995 -4.1082 -1.069 0
M  V30 6002 C 545.902 -5.89673 0.451591 0
M  V30 6003 H 544.832 -0.747284 -0.10041 0
M  V30 6004 H 547.483 -1.77776 0.454758 0
M  V30 6005 H 545.865 -3.7456 -1.28533 0
M  V30 6006 H 547.039 -4.35421 1.50815 0
M  V30 6007 H 545.354 -3.9836 1.21237 0
M  V30 6008 H 547.951 -5.18789 -1.2947 0
M  V30 6009 H 548.294 -3.63817 -2.02343 0
M  V30 6010 H 548.827 -3.96205 -0.355817 0
M  V30 6011 H 545.566 -6.40903 1.37565 0
M  V30 6012 H 545.086 -5.99122 -0.285193 0
M  V30 6013 H 546.765 -6.46965 0.0675067 0
M  V30 6014 N 546.897 -0.0685191 -1.57451 0
M  V30 6015 C 548.308 0.464634 -1.80826 0
M  V30 6016 C 548.659 1.69847 -0.982169 0
M  V30 6017 O 547.784 2.15439 -0.203734 0
M  V30 6018 C 548.379 0.849721 -3.27971 0
M  V30 6019 C 546.938 1.32776 -3.52204 0
M  V30 6020 C 546.085 0.311332 -2.75547 0
M  V30 6021 H 549.036 -0.294248 -1.55948 0
M  V30 6022 H 549.057 1.71138 -3.39841 0
M  V30 6023 H 548.569 -0.0484736 -3.8807 0
M  V30 6024 H 546.67 2.24456 -2.97406 0
M  V30 6025 H 546.783 1.30794 -4.60901 0
M  V30 6026 H 545.147 0.787915 -2.42206 0
M  V30 6027 H 545.93 -0.579078 -3.38381 0
M  V30 6028 N 548.375 1.56261 0.205012 0
M  V30 6029 C 549.6 1.84491 0.947512 0
M  V30 6030 C 550.025 0.650894 1.76479 0
M  V30 6031 O 549.383 -0.40035 1.76824 0
M  V30 6032 C 549.431 3.10863 1.82747 0
M  V30 6033 O 548.535 2.90719 2.925 0
M  V30 6034 H 547.876 0.607783 0.267386 0
M  V30 6035 H 550.406 2.03485 0.213323 0
M  V30 6036 H 550.416 3.41399 2.23407 0
M  V30 6037 H 549.091 3.97392 1.2269 0
M  V30 6038 H 547.668 2.71457 2.55667 0
M  V30 6039 N 549.853 -0.472356 1.50355 0
M  V30 6040 C 551.102 -1.2213 1.60522 0
M  V30 6041 C 551.415 -1.9312 0.310466 0
M  V30 6042 O 552.621 -2.69936 0.291029 0
M  V30 6043 C 551.077 -2.21909 2.83345 0
M  V30 6044 C 550.685 -1.56727 4.19691 0
M  V30 6045 C 552.429 -2.97453 3.02856 0
M  V30 6046 C 550.336 -2.54785 5.33703 0
M  V30 6047 H 549.266 -0.459543 0.597776 0
M  V30 6048 H 551.917 -0.491922 1.76783 0
M  V30 6049 H 550.299 -2.98133 2.60639 0
M  V30 6050 H 551.473 -0.863007 4.52646 0
M  V30 6051 H 549.788 -0.934685 4.05774 0
M  V30 6052 H 552.385 -3.70838 3.85205 0
M  V30 6053 H 552.728 -3.56764 2.14534 0
M  V30 6054 H 553.261 -2.28342 3.25737 0
M  V30 6055 H 550 -2.00214 6.24175 0
M  V30 6056 H 549.52 -3.23367 5.05167 0
M  V30 6057 H 551.199 -3.16639 5.64224 0
M  V30 6058 N 551.331 -1.39911 -0.725443 0
M  V30 6059 C 552.263 -1.35301 -1.85003 0
M  V30 6060 C 553.276 -0.260102 -1.60709 0
M  V30 6061 O 554.465 -0.519749 -1.70766 0
M  V30 6062 C 551.565 -1.08039 -3.21218 0
M  V30 6063 C 550.738 -2.28793 -3.7279 0
M  V30 6064 C 549.797 -1.97841 -4.87591 0
M  V30 6065 O 548.823 -2.70616 -5.00755 0
M  V30 6066 N 550.025 -0.950367 -5.72668 0
M  V30 6067 H 552.79 -2.32218 -1.89459 0
M  V30 6068 H 550.351 -1.34137 -0.90658 0
M  V30 6069 H 552.343 -0.853354 -3.95601 0
M  V30 6070 H 550.913 -0.198229 -3.11971 0
M  V30 6071 H 550.133 -2.67388 -2.8965 0
M  V30 6072 H 551.421 -3.09317 -4.03981 0
M  V30 6073 H 550.819 -0.347436 -5.64632 0
M  V30 6074 H 549.376 -0.783232 -6.47077 0
M  V30 6075 N 552.809 0.956637 -1.25245 0
M  V30 6076 C 554.058 1.69537 -1.0927 0
M  V30 6077 C 554.371 1.92136 0.366503 0
M  V30 6078 O 555.577 2.63687 0.64665 0
M  V30 6079 C 554.033 3.05211 -1.9072 0
M  V30 6080 C 553.641 2.90416 -3.41119 0
M  V30 6081 C 555.385 3.82882 -1.83308 0
M  V30 6082 C 553.292 4.21468 -4.14872 0
M  V30 6083 H 552.222 0.635804 -0.405302 0
M  V30 6084 H 554.873 1.06513 -1.49423 0
M  V30 6085 H 553.255 3.69128 -1.43389 0
M  V30 6086 H 554.429 2.35444 -3.9611 0
M  V30 6087 H 552.744 2.26203 -3.49602 0
M  V30 6088 H 555.341 4.79944 -2.35706 0
M  V30 6089 H 555.684 4.0853 -0.800572 0
M  V30 6090 H 556.217 3.25711 -2.28379 0
M  V30 6091 H 552.956 4.01009 -5.18529 0
M  V30 6092 H 552.476 4.76213 -3.64665 0
M  V30 6093 H 554.155 4.90022 -4.22478 0
M  V30 6094 N 554.287 1.06798 1.15896 0
M  V30 6095 C 555.535 0.786211 1.8618 0
M  V30 6096 C 555.856 -0.689547 1.82401 0
M  V30 6097 O 555.126 -1.49913 1.26107 0
M  V30 6098 H 553.706 0.287843 0.689315 0
M  V30 6099 H 556.368 1.35055 1.40521 0
M  V30 6100 H 555.464 1.1157 2.91477 0
M  V30 6101 N 555.766 -1.3263 0.851289 0
M  V30 6102 C 557.013 -1.97368 0.453023 0
M  V30 6103 C 557.341 -1.67384 -0.990596 0
M  V30 6104 O 556.596 -0.952665 -1.70947 0
M  V30 6105 C 556.895 -3.51713 0.635015 0
M  V30 6106 C 556.561 -4.01676 2.04859 0
M  V30 6107 C 555.223 -4.15031 2.43522 0
M  V30 6108 C 557.575 -4.28206 2.97135 0
M  V30 6109 C 554.903 -4.52257 3.73739 0
M  V30 6110 C 557.255 -4.66889 4.26846 0
M  V30 6111 C 555.919 -4.7845 4.65448 0
M  V30 6112 H 555.189 -0.722219 0.165773 0
M  V30 6113 H 557.836 -1.58092 1.0807 0
M  V30 6114 H 556.141 -3.91726 -0.0759081 0
M  V30 6115 H 557.838 -3.99823 0.306964 0
M  V30 6116 H 554.428 -3.91764 1.73836 0
M  V30 6117 H 558.612 -4.174 2.68498 0
M  V30 6118 H 553.868 -4.59402 4.03435 0
M  V30 6119 H 558.042 -4.86372 4.98413 0
M  V30 6120 H 555.669 -5.07052 5.66395 0
M  V30 6121 N 557.244 -0.608902 -1.45362 0
M  V30 6122 C 558.177 0.158059 -2.27652 0
M  V30 6123 C 559.155 0.872397 -1.37215 0
M  V30 6124 O 560.339 0.881002 -1.66645 0
M  V30 6125 C 557.466 1.22896 -3.15617 0
M  V30 6126 C 556.512 0.617607 -4.22005 0
M  V30 6127 S 557.345 -0.575518 -5.32398 0
M  V30 6128 C 558.501 0.495938 -6.23932 0
M  V30 6129 H 558.734 -0.540095 -2.92353 0
M  V30 6130 H 556.267 -0.396456 -1.49223 0
M  V30 6131 H 558.225 1.84195 -3.66855 0
M  V30 6132 H 556.886 1.89919 -2.50179 0
M  V30 6133 H 556.079 1.42341 -4.83482 0
M  V30 6134 H 555.681 0.0797273 -3.73915 0
M  V30 6135 H 557.973 1.37465 -6.63408 0
M  V30 6136 H 558.916 -0.0827108 -7.08052 0
M  V30 6137 H 559.324 0.811856 -5.58631 0
M  V30 6138 N 558.722 1.53707 -0.348139 0
M  V30 6139 C 559.947 2.05877 0.250883 0
M  V30 6140 C 560.372 1.22115 1.43072 0
M  V30 6141 O 559.73 0.235986 1.79758 0
M  V30 6142 C 559.778 3.54886 0.639416 0
M  V30 6143 O 558.882 3.73948 1.73888 0
M  V30 6144 H 558.223 0.662754 0.040653 0
M  V30 6145 H 560.753 1.98303 -0.503685 0
M  V30 6146 H 560.763 3.97601 0.915295 0
M  V30 6147 H 559.438 4.153 -0.223386 0
M  V30 6148 H 558.015 3.43134 1.45991 0
M  V30 6149 N 560.2 0.0768682 1.57412 0
M  V30 6150 C 561.43 -0.5991 1.97723 0
M  V30 6151 C 561.838 -1.63378 0.954166 0
M  V30 6152 O 561.181 -1.83578 -0.0668706 0
M  V30 6153 C 561.243 -1.32078 3.34358 0
M  V30 6154 C 560.907 -0.438985 4.54887 0
M  V30 6155 C 561.904 0.305492 5.19002 0
M  V30 6156 C 559.589 -0.362378 5.00991 0
M  V30 6157 C 561.583 1.11475 6.27576 0
M  V30 6158 C 559.27 0.450543 6.09437 0
M  V30 6159 C 560.268 1.18777 6.72593 0
M  V30 6160 O 559.956 1.98727 7.7895 0
M  V30 6161 H 559.688 -0.166725 0.655117 0
M  V30 6162 H 562.242 0.147337 2.04871 0
M  V30 6163 H 560.472 -2.1134 3.2384 0
M  V30 6164 H 562.161 -1.88949 3.5924 0
M  V30 6165 H 562.927 0.25593 4.84324 0
M  V30 6166 H 558.806 -0.925832 4.51608 0
M  V30 6167 H 562.35 1.69068 6.76803 0
M  V30 6168 H 558.247 0.501651 6.43548 0
M  V30 6169 H 559.015 1.91214 7.95851 0
M  V30 6170 N 561.678 -1.56367 -0.196722 0
M  V30 6171 C 562.927 -1.79724 -0.915539 0
M  V30 6172 C 563.24 -0.649804 -1.84491 0
M  V30 6173 O 564.446 -0.767631 -2.60422 0
M  V30 6174 C 562.902 -3.18369 -1.67836 0
M  V30 6175 C 562.51 -4.4091 -0.793897 0
M  V30 6176 C 564.254 -3.51037 -2.38691 0
M  V30 6177 C 562.161 -5.70577 -1.55549 0
M  V30 6178 H 561.091 -0.67013 -0.345604 0
M  V30 6179 H 563.742 -1.82721 -0.168856 0
M  V30 6180 H 562.124 -3.09617 -2.46887 0
M  V30 6181 H 563.298 -4.60781 -0.042163 0
M  V30 6182 H 561.613 -4.15937 -0.19626 0
M  V30 6183 H 564.21 -4.4515 -2.96219 0
M  V30 6184 H 564.553 -2.74704 -3.12799 0
M  V30 6185 H 565.086 -3.61229 -1.66608 0
M  V30 6186 H 561.825 -6.49871 -0.857226 0
M  V30 6187 H 561.345 -5.54726 -2.2812 0
M  V30 6188 H 563.024 -6.11637 -2.10971 0
M  V30 6189 N 563.156 0.464375 -1.50603 0
M  V30 6190 C 564.402 1.21776 -1.62168 0
M  V30 6191 C 564.735 1.91476 -0.324154 0
M  V30 6192 O 564.01 1.8242 0.674782 0
M  V30 6193 C 564.293 2.25614 -2.80661 0
M  V30 6194 C 564.146 1.60175 -4.20314 0
M  V30 6195 C 565.465 3.26862 -2.94702 0
M  V30 6196 H 562.584 0.44137 -0.590222 0
M  V30 6197 H 565.226 0.510623 -1.8301 0
M  V30 6198 H 563.376 2.85923 -2.63021 0
M  V30 6199 H 565.048 1.03411 -4.4956 0
M  V30 6200 H 563.291 0.904697 -4.24261 0
M  V30 6201 H 563.962 2.35665 -4.99165 0
M  V30 6202 H 566.438 2.76582 -3.10872 0
M  V30 6203 H 565.314 3.96839 -3.79223 0
M  V30 6204 H 565.575 3.91382 -2.05603 0
M  V30 6205 N 564.634 1.40294 0.718013 0
M  V30 6206 C 565.544 1.42678 1.86226 0
M  V30 6207 C 566.56 0.319655 1.71039 0
M  V30 6208 O 567.736 0.563852 1.93346 0
M  V30 6209 C 564.801 1.2852 3.21999 0
M  V30 6210 C 563.862 2.49354 3.49458 0
M  V30 6211 C 563.095 2.35863 4.78753 0
M  V30 6212 O 563.318 1.37114 5.53675 0
M  V30 6213 O 562.252 3.25189 5.06494 0
M  V30 6214 H 566.078 2.39167 1.87171 0
M  V30 6215 H 563.663 1.2159 0.868112 0
M  V30 6216 H 565.545 1.22824 4.03103 0
M  V30 6217 H 564.22 0.351359 3.21787 0
M  V30 6218 H 563.127 2.60628 2.68373 0
M  V30 6219 H 564.46 3.41491 3.54464 0
M  V30 6220 N 566.112 -0.949982 1.2575 0
M  V30 6221 C 567.523 -1.50989 1.09815 0
M  V30 6222 C 567.874 -1.93497 -0.324556 0
M  V30 6223 O 566.999 -1.79068 -1.21506 0
M  V30 6224 C 567.594 -2.74394 1.98729 0
M  V30 6225 C 566.153 -3.26682 1.86965 0
M  V30 6226 C 565.3 -1.99498 1.92603 0
M  V30 6227 H 568.251 -0.766387 1.38968 0
M  V30 6228 H 568.272 -3.48383 1.53001 0
M  V30 6229 H 567.784 -2.43425 3.02268 0
M  V30 6230 H 565.885 -3.62461 0.863279 0
M  V30 6231 H 565.998 -3.94383 2.72027 0
M  V30 6232 H 564.362 -2.15005 1.36546 0
M  V30 6233 H 565.145 -1.70871 2.97755 0
M  V30 6234 N 567.59 -1.07411 -1.15328 0
M  V30 6235 C 568.52 -0.716472 -2.22236 0
M  V30 6236 C 569.501 0.296373 -1.67498 0
M  V30 6237 O 570.686 0.168989 -1.93463 0
M  V30 6238 C 567.816 -0.114142 -3.47112 0
M  V30 6239 C 566.77 -1.05421 -4.14814 0
M  V30 6240 C 566.096 -0.314604 -5.33774 0
M  V30 6241 C 567.396 -2.38808 -4.64508 0
M  V30 6242 H 569.09 -1.61029 -2.52408 0
M  V30 6243 H 566.636 -0.775702 -1.21321 0
M  V30 6244 H 568.589 0.148001 -4.2114 0
M  V30 6245 H 567.313 0.814755 -3.16274 0
M  V30 6246 H 565.972 -1.30128 -3.42728 0
M  V30 6247 H 565.62 0.617772 -4.99192 0
M  V30 6248 H 565.32 -0.941209 -5.80013 0
M  V30 6249 H 566.844 -0.0602747 -6.1057 0
M  V30 6250 H 568.258 -2.18424 -5.3006 0
M  V30 6251 H 566.655 -2.97069 -5.21412 0
M  V30 6252 H 567.725 -3.01067 -3.80114 0
M  V30 6253 N 569.068 1.32177 -0.85831 0
M  V30 6254 C 570.315 1.97125 -0.463484 0
M  V30 6255 C 570.643 1.67907 0.981705 0
M  V30 6256 O 569.898 0.961717 1.70439 0
M  V30 6257 C 570.197 3.51372 -0.653658 0
M  V30 6258 C 569.863 4.00584 -2.06987 0
M  V30 6259 C 568.525 4.13733 -2.4572 0
M  V30 6260 C 570.877 4.26624 -2.99402 0
M  V30 6261 C 568.205 4.50268 -3.76132 0
M  V30 6262 C 570.557 4.64618 -4.29316 0
M  V30 6263 C 569.221 4.75975 -4.67979 0
M  V30 6264 H 568.491 0.72133 -0.169601 0
M  V30 6265 H 571.138 1.57517 -1.08907 0
M  V30 6266 H 569.443 3.91761 0.0551328 0
M  V30 6267 H 571.14 3.99655 -0.328163 0
M  V30 6268 H 567.73 3.90837 -1.75911 0
M  V30 6269 H 571.914 4.1597 -2.70708 0
M  V30 6270 H 567.17 4.57256 -4.05865 0
M  V30 6271 H 571.344 4.83722 -5.00985 0
M  V30 6272 H 568.971 5.04041 -5.69076 0
M  V30 6273 N 570.547 0.616602 1.45037 0
M  V30 6274 C 571.963 0.280994 1.57107 0
M  V30 6275 C 572.163 -1.21627 1.60653 0
M  V30 6276 O 571.219 -1.9997 1.54169 0
M  V30 6277 C 572.532 0.960116 2.8496 0
M  V30 6278 C 574.08 0.936884 2.98649 0
M  V30 6279 C 574.555 1.59619 4.29285 0
M  V30 6280 N 576.046 1.5621 4.36065 0
M  V30 6281 C 576.781 2.04131 5.35834 0
M  V30 6282 N 576.277 2.60177 6.4209 0
M  V30 6283 N 578.07 1.94845 5.27249 0
M  V30 6284 H 570.221 1.58867 1.40979 0
M  V30 6285 H 572.484 0.666024 0.674623 0
M  V30 6286 H 572.19 2.01473 2.88273 0
M  V30 6287 H 572.064 0.488921 3.74018 0
M  V30 6288 H 574.451 -0.109209 2.94898 0
M  V30 6289 H 574.532 1.44643 2.10979 0
M  V30 6290 H 574.176 2.64166 4.33796 0
M  V30 6291 H 574.106 1.06159 5.15789 0
M  V30 6292 H 576.597 1.15276 3.59889 0
M  V30 6293 H 576.91 2.94513 7.1448 0
M  V30 6294 H 575.255 2.64221 6.42816 0
M  V30 6295 H 578.446 1.50792 4.43147 0
M  V30 6296 H 578.619 2.32504 6.04852 0
M  V30 6297 N 572.025 -1.5352 0.356285 0
M  V30 6298 C 572.935 -2.29151 -0.502712 0
M  V30 6299 C 573.951 -1.34753 -1.1008 0
M  V30 6300 O 575.127 -1.67803 -1.11374 0
M  V30 6301 C 572.192 -3.05911 -1.63154 0
M  V30 6302 C 571.253 -4.15958 -1.06194 0
M  V30 6303 C 570.486 -4.8905 -2.13696 0
M  V30 6304 O 570.709 -4.61919 -3.34645 0
M  V30 6305 O 569.643 -5.75202 -1.77275 0
M  V30 6306 H 573.469 -3.03492 0.112466 0
M  V30 6307 H 571.054 -1.4891 0.120942 0
M  V30 6308 H 572.936 -3.53874 -2.28804 0
M  V30 6309 H 571.611 -2.34415 -2.23229 0
M  V30 6310 H 570.518 -3.7227 -0.369603 0
M  V30 6311 H 571.851 -4.89593 -0.505872 0
M  V30 6312 N 573.503 -0.0852151 -1.57369 0
M  V30 6313 C 574.749 0.575588 -1.95086 0
M  V30 6314 C 575.104 1.66402 -0.96582 0
M  V30 6315 O 574.397 1.91598 0.00978463 0
M  V30 6316 C 574.591 1.18482 -3.3719 0
M  V30 6317 C 574.42 0.156928 -4.49426 0
M  V30 6318 C 573.19 -0.263126 -5.04614 0
M  V30 6319 C 575.388 -0.611068 -5.10657 0
M  V30 6320 N 573.37 -1.28032 -6.00401 0
M  V30 6321 C 574.741 -1.48036 -6.02068 0
M  V30 6322 C 576.796 -0.665669 -4.9343 0
M  V30 6323 C 575.499 -2.39943 -6.781 0
M  V30 6324 C 577.525 -1.5723 -5.70116 0
M  V30 6325 C 576.887 -2.42924 -6.61186 0
M  V30 6326 H 572.986 0.181249 -0.760705 0
M  V30 6327 H 575.57 -0.165484 -1.93995 0
M  V30 6328 H 573.741 1.89575 -3.38992 0
M  V30 6329 H 575.473 1.80718 -3.62109 0
M  V30 6330 H 572.228 0.122664 -4.73441 0
M  V30 6331 H 572.652 -1.78682 -6.52994 0
M  V30 6332 H 577.294 -0.0173214 -4.22796 0
M  V30 6333 H 575.012 -3.05807 -7.48002 0
M  V30 6334 H 578.598 -1.61956 -5.58804 0
M  V30 6335 H 577.478 -3.1194 -7.19488 0
M  V30 6336 N 574.981 1.5647 0.188427 0
M  V30 6337 C 575.944 1.9421 1.21718 0
M  V30 6338 C 576.944 0.823901 1.38089 0
M  V30 6339 O 578.134 1.09122 1.35787 0
M  V30 6340 C 575.266 2.22197 2.58537 0
M  V30 6341 H 576.459 2.86252 0.894418 0
M  V30 6342 H 574.012 1.50263 0.430211 0
M  V30 6343 H 574.747 1.32814 2.95856 0
M  V30 6344 H 574.532 3.03688 2.48025 0
M  V30 6345 H 576.022 2.52376 3.3271 0
M  V30 6346 N 576.459 -0.456382 1.50847 0
M  V30 6347 C 577.409 -1.55045 1.67168 0
M  V30 6348 C 578.393 -1.52061 0.525958 0
M  V30 6349 O 579.585 -1.58836 0.781036 0
M  V30 6350 C 576.714 -2.93386 1.78268 0
M  V30 6351 C 575.8 -3.01198 2.98564 0
M  V30 6352 N 576.191 -2.78792 4.22029 0
M  V30 6353 C 574.489 -3.32346 2.97426 0
M  V30 6354 C 575.19 -2.91953 5.03128 0
M  V30 6355 N 574.166 -3.22797 4.37382 0
M  V30 6356 H 577.968 -1.36444 2.60308 0
M  V30 6357 H 575.482 -0.663375 1.48233 0
M  V30 6358 H 577.479 -3.72071 1.88067 0
M  V30 6359 H 576.139 -3.13022 0.862965 0
M  V30 6360 H 577.15 -2.54087 4.51287 0
M  V30 6361 H 573.827 -3.57877 2.15012 0
M  V30 6362 H 575.217 -2.78745 6.11351 0
M  V30 6363 N 577.937 -1.40673 -0.710563 0
M  V30 6364 C 579.184 -1.39222 -1.47049 0
M  V30 6365 C 579.512 0.0037691 -1.945 0
M  V30 6366 O 578.767 0.989224 -1.68857 0
M  V30 6367 C 579.066 -2.33253 -2.70791 0
M  V30 6368 C 578.732 -3.80406 -2.42079 0
M  V30 6369 C 577.394 -4.20496 -2.33959 0
M  V30 6370 C 579.746 -4.73375 -2.18094 0
M  V30 6371 C 577.074 -5.51584 -1.99929 0
M  V30 6372 C 579.426 -6.04768 -1.85576 0
M  V30 6373 C 578.09 -6.43895 -1.75941 0
M  V30 6374 H 577.36 -0.509449 -0.538092 0
M  V30 6375 H 580.007 -1.73363 -0.81348 0
M  V30 6376 H 578.312 -1.92314 -3.41354 0
M  V30 6377 H 580.009 -2.29412 -3.28894 0
M  V30 6378 H 576.599 -3.48645 -2.49288 0
M  V30 6379 H 580.783 -4.43217 -2.23321 0
M  V30 6380 H 576.039 -5.80797 -1.91011 0
M  V30 6381 H 580.213 -6.76318 -1.66033 0
M  V30 6382 H 577.84 -7.45387 -1.4934 0
M  V30 6383 N 579.415 0.9433 -1.26252 0
M  V30 6384 C 580.643 1.72367 -1.14443 0
M  V30 6385 C 581.058 1.86392 0.300572 0
M  V30 6386 O 580.415 1.36978 1.20596 0
M  V30 6387 C 580.466 3.13155 -1.806 0
M  V30 6388 O 580.187 2.99803 -3.19452 0
M  V30 6389 C 581.688 4.07417 -1.74717 0
M  V30 6390 H 578.908 0.539758 -0.398626 0
M  V30 6391 H 581.452 1.18268 -1.66832 0
M  V30 6392 H 579.607 3.64162 -1.32154 0
M  V30 6393 H 580.021 3.88697 -3.52158 0
M  V30 6394 H 581.495 5.03773 -2.25647 0
M  V30 6395 H 581.972 4.3337 -0.713244 0
M  V30 6396 H 582.578 3.6233 -2.22704 0
M  V30 6397 N 580.893 1.08022 1.14757 0
M  V30 6398 C 582.141 0.805913 1.85336 0
M  V30 6399 C 582.462 -0.670162 1.83122 0
M  V30 6400 O 581.732 -1.48567 1.2769 0
M  V30 6401 H 580.312 0.295138 0.686223 0
M  V30 6402 H 582.974 1.36538 1.3908 0
M  V30 6403 H 582.07 1.14655 2.90277 0
M  V30 6404 N 582.371 -1.3172 0.865308 0
M  V30 6405 C 583.319 -2.30569 0.306674 0
M  V30 6406 C 584.313 -1.59317 -0.575724 0
M  V30 6407 O 585.519 -1.73961 -0.462343 0
M  V30 6408 H 581.894 -0.747681 0.0804834 0
M  V30 6409 H 583.865 -2.75165 1.15441 0
M  V30 6410 C 582.614 -3.44358 -0.480952 0
M  V30 6411 H 581.937 -3.99354 0.18876 0
M  V30 6412 H 583.377 -4.15652 -0.837241 0
M  V30 6413 C 581.836 -2.92574 -1.67039 0
M  V30 6414 O 582.366 -2.90954 -2.76964 0
M  V30 6415 N 580.572 -2.48835 -1.50097 0
M  V30 6416 H 580.119 -2.50353 -0.606738 0
M  V30 6417 H 580.077 -2.14543 -2.29823 0
M  V30 6418 N 583.85 -0.624285 -1.44708 0
M  V30 6419 C 585.075 -0.131171 -2.06985 0
M  V30 6420 C 585.5 1.18234 -1.46295 0
M  V30 6421 O 584.858 1.72375 -0.561842 0
M  V30 6422 C 584.906 -0.0226724 -3.60593 0
M  V30 6423 O 584.01 1.02314 -3.99507 0
M  V30 6424 H 583.351 -0.0816556 -0.65896 0
M  V30 6425 H 585.88 -0.859027 -1.85693 0
M  V30 6426 H 585.891 0.170138 -4.07645 0
M  V30 6427 H 584.566 -0.981685 -4.04148 0
M  V30 6428 H 583.143 0.805452 -3.64097 0
M  V30 6429 N 585.328 1.53329 -0.364422 0
M  V30 6430 C 586.556 2.05657 0.226424 0
M  V30 6431 C 586.971 1.23801 1.42544 0
M  V30 6432 O 586.328 0.27839 1.80364 0
M  V30 6433 C 586.379 3.56125 0.621056 0
M  V30 6434 O 586.1 4.34879 -0.530304 0
M  V30 6435 C 587.601 4.24706 1.27041 0
M  V30 6436 H 584.821 0.669806 0.0400056 0
M  V30 6437 H 587.365 1.97714 -0.522456 0
M  V30 6438 H 585.52 3.64223 1.31985 0
M  V30 6439 H 585.934 5.24073 -0.211546 0
M  V30 6440 H 587.408 5.3131 1.49711 0
M  V30 6441 H 587.885 3.78354 2.23036 0
M  V30 6442 H 588.491 4.20858 0.613079 0
M  V30 6443 N 586.806 0.0935595 1.57322 0
M  V30 6444 C 587.736 -0.863062 2.16964 0
M  V30 6445 C 588.717 -1.29528 1.10256 0
M  V30 6446 O 589.902 -1.36245 1.38387 0
M  V30 6447 C 587.032 -2.12276 2.74875 0
M  V30 6448 C 585.986 -1.82921 3.86942 0
M  V30 6449 C 585.312 -3.15707 4.31548 0
M  V30 6450 C 586.612 -1.11737 5.10208 0
M  V30 6451 H 588.306 -0.366145 2.97153 0
M  V30 6452 H 585.852 -0.174673 1.42937 0
M  V30 6453 H 587.805 -2.79634 3.1525 0
M  V30 6454 H 586.529 -2.64248 1.91938 0
M  V30 6455 H 585.188 -1.17961 3.47103 0
M  V30 6456 H 584.836 -3.65563 3.45504 0
M  V30 6457 H 584.536 -2.96849 5.07104 0
M  V30 6458 H 586.06 -3.84226 4.74555 0
M  V30 6459 H 587.474 -1.69203 5.47762 0
M  V30 6460 H 585.871 -1.03064 5.91183 0
M  V30 6461 H 586.941 -0.0998818 4.84797 0
M  V30 6462 N 588.284 -1.56567 -0.180126 0
M  V30 6463 C 589.509 -1.85975 -0.918041 0
M  V30 6464 C 589.934 -0.678888 -1.75422 0
M  V30 6465 O 589.292 0.372168 -1.77439 0
M  V30 6466 C 589.34 -3.13731 -1.77779 0
M  V30 6467 O 588.444 -2.95335 -2.87838 0
M  V30 6468 H 587.785 -0.61196 -0.257683 0
M  V30 6469 H 590.315 -2.03798 -0.180923 0
M  V30 6470 H 590.325 -3.4491 -2.17948 0
M  V30 6471 H 589 -3.99293 -1.16352 0
M  V30 6472 H 587.577 -2.7549 -2.51316 0
M  V30 6473 N 589.762 0.448376 -1.51087 0
M  V30 6474 C 590.672 1.56882 -1.74428 0
M  V30 6475 C 591.688 1.62268 -0.62809 0
M  V30 6476 O 592.864 1.79716 -0.909075 0
M  V30 6477 C 589.929 2.92947 -1.85426 0
M  V30 6478 C 588.99 2.97766 -3.09247 0
M  V30 6479 C 588.223 4.27341 -3.19711 0
M  V30 6480 O 588.446 5.19112 -2.36387 0
M  V30 6481 O 587.38 4.38219 -4.12611 0
M  V30 6482 H 591.206 1.40104 -2.69452 0
M  V30 6483 H 588.791 0.630247 -1.35456 0
M  V30 6484 H 590.673 3.73719 -1.94709 0
M  V30 6485 H 589.348 3.09876 -0.935887 0
M  V30 6486 H 588.255 2.15989 -3.0545 0
M  V30 6487 H 589.588 2.8578 -4.00738 0
M  V30 6488 N 591.24 1.41047 0.703093 0
M  V30 6489 C 592.188 1.42494 1.83843 0
M  V30 6490 C 593.182 0.303885 1.66652 0
M  V30 6491 O 594.388 0.475544 1.73605 0
M  V30 6492 H 590.763 0.445685 0.605697 0
M  V30 6493 H 592.734 2.38194 1.79739 0
M  V30 6494 C 591.483 1.31666 3.21807 0
M  V30 6495 H 590.806 2.17212 3.35647 0
M  V30 6496 H 592.246 1.36738 4.01346 0
M  V30 6497 C 590.705 0.0281828 3.36888 0
M  V30 6498 O 591.235 -0.929995 3.90786 0
M  V30 6499 N 589.441 -0.0454322 2.90564 0
M  V30 6500 H 588.988 0.735046 2.4689 0
M  V30 6501 H 588.946 -0.906968 3.01034 0
M  V30 6502 N 592.718 -0.936591 1.26751 0
M  V30 6503 C 593.651 -2.03619 1.03027 0
M  V30 6504 C 594.629 -1.62534 -0.0464619 0
M  V30 6505 O 595.813 -1.88251 0.0968873 0
M  V30 6506 C 592.94 -3.3402 0.561072 0
M  V30 6507 C 591.986 -3.9408 1.63105 0
M  V30 6508 S 592.819 -4.27782 3.22122 0
M  V30 6509 C 593.975 -5.61277 2.76982 0
M  V30 6510 H 594.208 -2.23429 1.96129 0
M  V30 6511 H 591.741 -1.07857 1.10482 0
M  V30 6512 H 593.699 -4.09424 0.297031 0
M  V30 6513 H 592.36 -3.12147 -0.349741 0
M  V30 6514 H 591.553 -4.88154 1.25386 0
M  V30 6515 H 591.155 -3.25227 1.84671 0
M  V30 6516 H 593.447 -6.40189 2.21731 0
M  V30 6517 H 594.39 -6.03887 3.69766 0
M  V30 6518 H 594.798 -5.21374 2.16402 0
M  V30 6519 N 594.196 -1.08629 -1.14182 0
M  V30 6520 C 595.126 -0.740003 -2.21464 0
M  V30 6521 C 596.107 0.278591 -1.67803 0
M  V30 6522 O 597.292 0.148461 -1.93632 0
M  V30 6523 C 594.422 -0.150952 -3.46972 0
M  V30 6524 C 593.376 -1.09815 -4.13672 0
M  V30 6525 C 592.702 -0.3712 -5.3341 0
M  V30 6526 C 594.002 -2.43722 -4.61949 0
M  V30 6527 H 595.696 -1.63697 -2.50686 0
M  V30 6528 H 593.242 -0.788526 -1.20492 0
M  V30 6529 H 595.195 0.103325 -4.21273 0
M  V30 6530 H 593.919 0.781164 -3.1712 0
M  V30 6531 H 592.578 -1.33756 -3.41328 0
M  V30 6532 H 592.226 0.564792 -4.99819 0
M  V30 6533 H 591.926 -1.00267 -5.78982 0
M  V30 6534 H 593.45 -0.12503 -6.10472 0
M  V30 6535 H 594.864 -2.24034 -5.27714 0
M  V30 6536 H 593.261 -3.02582 -5.18232 0
M  V30 6537 H 594.331 -3.05082 -3.76899 0
M  V30 6538 N 595.674 1.31259 -0.872281 0
M  V30 6539 C 596.922 1.96233 -0.483409 0
M  V30 6540 C 597.243 1.69276 0.968012 0
M  V30 6541 O 596.513 1.00943 1.67891 0
M  V30 6542 H 595.093 0.726025 -0.175774 0
M  V30 6543 H 597.755 1.60024 -1.11258 0
M  V30 6544 H 596.851 3.05403 -0.643075 0
M  V30 6545 N 597.152 0.631951 1.44375 0
M  V30 6546 C 598.102 -0.0943862 2.27805 0
M  V30 6547 C 599.086 -0.815359 1.38711 0
M  V30 6548 O 600.278 -0.701331 1.62513 0
M  V30 6549 C 597.407 -1.07472 3.26044 0
M  V30 6550 C 596.493 -0.353329 4.22626 0
M  V30 6551 N 596.884 0.618512 5.02004 0
M  V30 6552 C 595.182 -0.597662 4.41977 0
M  V30 6553 C 595.883 1.0448 5.7224 0
M  V30 6554 N 594.859 0.383413 5.42246 0
M  V30 6555 H 598.661 0.651672 2.86584 0
M  V30 6556 H 596.175 0.45752 1.55822 0
M  V30 6557 H 598.172 -1.60969 3.84571 0
M  V30 6558 H 596.832 -1.82107 2.68825 0
M  V30 6559 H 597.843 0.996356 5.08226 0
M  V30 6560 H 594.52 -1.32682 3.95856 0
M  V30 6561 H 595.91 1.84773 6.45994 0
M  V30 6562 N 598.631 -1.53133 0.372548 0
M  V30 6563 C 599.561 -2.28876 -0.462412 0
M  V30 6564 C 600.542 -1.31583 -1.07796 0
M  V30 6565 O 601.727 -1.60461 -1.09389 0
M  V30 6566 C 598.857 -3.08317 -1.59868 0
M  V30 6567 C 597.811 -4.13355 -1.11003 0
M  V30 6568 C 597.137 -4.8092 -2.33708 0
M  V30 6569 C 598.437 -5.21955 -0.18983 0
M  V30 6570 H 600.131 -2.9892 0.169511 0
M  V30 6571 H 597.677 -1.43761 0.0829658 0
M  V30 6572 H 599.63 -3.60055 -2.18949 0
M  V30 6573 H 598.354 -2.35976 -2.25794 0
M  V30 6574 H 597.013 -3.62573 -0.541869 0
M  V30 6575 H 596.661 -4.05144 -2.98106 0
M  V30 6576 H 596.361 -5.51904 -2.01682 0
M  V30 6577 H 597.885 -5.35455 -2.93462 0
M  V30 6578 H 599.299 -5.69153 -0.688319 0
M  V30 6579 H 597.696 -6.00087 0.0398887 0
M  V30 6580 H 598.766 -4.78811 0.766057 0
M  V30 6581 N 600.109 -0.101901 -1.5727 0
M  V30 6582 C 601.072 0.840129 -2.13247 0
M  V30 6583 C 602.072 1.20625 -1.06331 0
M  V30 6584 O 603.262 1.13456 -1.32186 0
M  V30 6585 C 600.394 2.13372 -2.65867 0
M  V30 6586 H 601.587 0.353945 -2.97804 0
M  V30 6587 H 599.14 0.147167 -1.55606 0
M  V30 6588 H 599.875 2.66461 -1.84849 0
M  V30 6589 H 599.66 1.88085 -3.44044 0
M  V30 6590 H 601.15 2.80748 -3.09145 0
M  V30 6591 N 601.587 1.56661 0.17182 0
M  V30 6592 C 602.537 1.92781 1.21736 0
M  V30 6593 C 603.521 0.796065 1.39827 0
M  V30 6594 O 604.713 1.05924 1.41806 0
M  V30 6595 C 601.842 2.29079 2.55691 0
M  V30 6596 C 600.928 3.48765 2.41296 0
M  V30 6597 N 601.319 4.66022 1.96614 0
M  V30 6598 C 599.617 3.53362 2.72124 0
M  V30 6599 C 600.318 5.48159 1.94669 0
M  V30 6600 N 599.294 4.89189 2.37054 0
M  V30 6601 H 603.096 2.80926 0.863592 0
M  V30 6602 H 600.61 1.57889 0.380096 0
M  V30 6603 H 602.607 2.5315 3.31241 0
M  V30 6604 H 601.267 1.42272 2.91871 0
M  V30 6605 H 602.278 4.9025 1.66959 0
M  V30 6606 H 598.955 2.77033 3.12345 0
M  V30 6607 H 600.345 6.52121 1.61826 0
M  V30 6608 N 603.065 -0.440357 1.51323 0
M  V30 6609 C 604.013 -1.55492 1.72988 0
M  V30 6610 C 605.007 -1.58564 0.596138 0
M  V30 6611 O 606.213 -1.62345 0.777443 0
M  V30 6612 H 602.588 -0.516532 0.546533 0
M  V30 6613 H 604.559 -1.34392 2.66423 0
M  V30 6614 C 603.308 -2.93176 1.86931 0
M  V30 6615 H 602.631 -2.91543 2.73574 0
M  V30 6616 H 604.071 -3.70537 2.06103 0
M  V30 6617 C 602.53 -3.30988 0.628365 0
M  V30 6618 O 603.06 -4.01106 -0.218367 0
M  V30 6619 N 601.266 -2.86719 0.473339 0
M  V30 6620 H 600.813 -2.2983 1.16345 0
M  V30 6621 H 600.771 -3.12381 -0.355727 0
M  V30 6622 N 604.543 -1.41418 -0.695603 0
M  V30 6623 C 605.49 -1.43264 -1.80954 0
M  V30 6624 C 606.46 -0.287016 -1.63601 0
M  V30 6625 O 607.645 -0.488054 -1.84452 0
M  V30 6626 C 604.785 -1.32054 -3.18835 0
M  V30 6627 C 603.898 -2.56485 -3.4762 0
M  V30 6628 C 603.033 -2.3757 -4.75115 0
M  V30 6629 C 602.072 -3.57477 -4.96867 0
M  V30 6630 N 601.209 -3.37632 -6.15588 0
M  V30 6631 H 606.049 -2.38467 -1.78711 0
M  V30 6632 H 603.586 -1.18415 -0.872715 0
M  V30 6633 H 605.544 -1.23558 -3.98484 0
M  V30 6634 H 604.174 -0.404592 -3.20254 0
M  V30 6635 H 603.226 -2.75432 -2.62376 0
M  V30 6636 H 604.538 -3.45678 -3.59594 0
M  V30 6637 H 603.692 -2.2654 -5.62818 0
M  V30 6638 H 602.431 -1.45834 -4.65386 0
M  V30 6639 H 601.436 -3.68961 -4.07612 0
M  V30 6640 H 602.661 -4.50167 -5.08455 0
M  V30 6641 H 600.607 -2.48596 -6.07072 0
M  V30 6642 H 600.524 -4.20401 -6.2833 0
M  V30 6643 H 601.792 -3.30375 -7.06026 0
M  V30 6644 N 606.021 0.929856 -1.27246 0
M  V30 6645 C 606.984 2.01172 -1.09829 0
M  V30 6646 C 607.984 1.60743 -0.0429687 0
M  V30 6647 O 609.174 1.71813 -0.287373 0
M  V30 6648 C 606.306 3.34191 -0.673003 0
M  V30 6649 H 607.499 2.18054 -2.05895 0
M  V30 6650 H 605.052 1.11036 -1.10003 0
M  V30 6651 H 605.787 3.23009 0.289134 0
M  V30 6652 H 605.572 3.64892 -1.43515 0
M  V30 6653 H 607.062 4.13646 -0.573323 0
M  V30 6654 N 607.499 1.09233 1.13605 0
M  V30 6655 C 608.431 0.687794 2.18637 0
M  V30 6656 C 609.444 -0.26936 1.60556 0
M  V30 6657 O 610.633 -0.0557162 1.78413 0
M  V30 6658 C 607.733 -0.00751901 3.38899 0
M  V30 6659 C 606.906 0.97067 4.26494 0
M  V30 6660 C 605.965 0.309129 5.25291 0
M  V30 6661 O 604.991 0.956149 5.61112 0
M  V30 6662 N 606.193 -0.937555 5.72879 0
M  V30 6663 H 608.958 1.59141 2.53957 0
M  V30 6664 H 606.519 0.979515 1.28907 0
M  V30 6665 H 608.511 -0.461238 4.02063 0
M  V30 6666 H 607.081 -0.813353 3.01833 0
M  V30 6667 H 606.301 1.603 3.60135 0
M  V30 6668 H 607.589 1.63323 4.81875 0
M  V30 6669 H 606.987 -1.48281 5.4592 0
M  V30 6670 H 605.544 -1.33463 6.3799 0
M  V30 6671 N 608.977 -1.30795 0.87923 0
M  V30 6672 C 610.223 -1.97035 0.50487 0
M  V30 6673 C 610.578 -1.68182 -0.934484 0
M  V30 6674 O 609.871 -0.972953 -1.65058 0
M  V30 6675 C 610.065 -3.50287 0.709476 0
M  V30 6676 C 609.894 -3.94035 2.16717 0
M  V30 6677 C 608.664 -4.1992 2.81061 0
M  V30 6678 C 610.862 -4.07288 3.1404 0
M  V30 6679 N 608.844 -4.50088 4.17486 0
M  V30 6680 C 610.215 -4.41273 4.35521 0
M  V30 6681 C 612.27 -3.89696 3.09906 0
M  V30 6682 C 610.973 -4.59501 5.534 0
M  V30 6683 C 612.999 -4.09122 4.27052 0
M  V30 6684 C 612.361 -4.43447 5.47297 0
M  V30 6685 H 608.46 -0.746181 0.233962 0
M  V30 6686 H 611.044 -1.5814 1.13577 0
M  V30 6687 H 609.215 -3.8825 0.108108 0
M  V30 6688 H 610.947 -4.03567 0.302585 0
M  V30 6689 H 607.702 -4.12906 2.3196 0
M  V30 6690 H 608.126 -4.69316 4.87926 0
M  V30 6691 H 612.768 -3.62239 2.18043 0
M  V30 6692 H 610.486 -4.85802 6.45773 0
M  V30 6693 H 614.072 -3.96985 4.25316 0
M  V30 6694 H 612.952 -4.58171 6.36435 0
M  V30 6695 N 610.455 -0.639598 -1.44038 0
M  V30 6696 C 611.402 0.0602458 -2.30721 0
M  V30 6697 C 612.372 0.828352 -1.43971 0
M  V30 6698 O 613.557 0.807693 -1.72861 0
M  V30 6699 C 610.697 1.03008 -3.29368 0
M  V30 6700 C 609.81 0.259502 -4.3122 0
M  V30 6701 C 608.945 1.22191 -5.16955 0
M  V30 6702 C 607.984 0.440978 -6.10509 0
M  V30 6703 N 607.121 1.35428 -6.88915 0
M  V30 6704 H 611.961 -0.684867 -2.90023 0
M  V30 6705 H 609.498 -0.349509 -1.42888 0
M  V30 6706 H 611.456 1.60583 -3.85057 0
M  V30 6707 H 610.086 1.74222 -2.71747 0
M  V30 6708 H 609.138 -0.432317 -3.77935 0
M  V30 6709 H 610.45 -0.348347 -4.97582 0
M  V30 6710 H 609.604 1.86873 -5.77203 0
M  V30 6711 H 608.343 1.86367 -4.50687 0
M  V30 6712 H 607.348 -0.219279 -5.49363 0
M  V30 6713 H 608.573 -0.196192 -6.78817 0
M  V30 6714 H 606.519 1.9831 -6.25307 0
M  V30 6715 H 606.436 0.800657 -7.51748 0
M  V30 6716 H 607.704 1.98967 -7.53679 0
M  V30 6717 N 611.933 1.52934 -0.380664 0
M  V30 6718 C 613.158 2.06363 0.207157 0
M  V30 6719 C 613.583 1.25122 1.4045 0
M  V30 6720 O 612.941 0.274062 1.79217 0
M  V30 6721 C 612.989 3.56162 0.563996 0
M  V30 6722 O 612.093 3.77552 1.65917 0
M  V30 6723 H 611.434 0.663468 0.0265859 0
M  V30 6724 H 613.964 1.9719 -0.545635 0
M  V30 6725 H 613.974 3.99453 0.830752 0
M  V30 6726 H 612.649 4.14732 -0.311427 0
M  V30 6727 H 611.226 3.46154 1.3868 0
M  V30 6728 N 613.412 0.11024 1.57214 0
M  V30 6729 C 614.342 -0.840002 2.17867 0
M  V30 6730 C 615.323 -1.28352 1.11624 0
M  V30 6731 O 616.508 -1.3477 1.39824 0
M  V30 6732 C 613.638 -2.09349 2.77111 0
M  V30 6733 C 612.592 -1.78807 3.8886 0
M  V30 6734 C 611.918 -3.11112 4.34872 0
M  V30 6735 C 613.218 -1.0632 5.11364 0
M  V30 6736 H 614.912 -0.334608 2.97524 0
M  V30 6737 H 612.458 -0.159502 1.43114 0
M  V30 6738 H 614.411 -2.76275 3.18198 0
M  V30 6739 H 613.135 -2.62198 1.9473 0
M  V30 6740 H 611.794 -1.14273 3.48335 0
M  V30 6741 H 611.442 -3.61877 3.49362 0
M  V30 6742 H 611.142 -2.91453 5.10224 0
M  V30 6743 H 612.666 -3.79171 4.78604 0
M  V30 6744 H 614.08 -1.63383 5.49526 0
M  V30 6745 H 612.477 -0.967876 5.92243 0
M  V30 6746 H 613.547 -0.0484569 4.84876 0
M  V30 6747 N 614.89 -1.56749 -0.16351 0
M  V30 6748 C 615.82 -2.00042 -1.20438 0
M  V30 6749 C 616.801 -0.877256 -1.45733 0
M  V30 6750 O 617.986 -1.1439 -1.56935 0
M  V30 6751 C 615.116 -2.36697 -2.54149 0
M  V30 6752 C 614.07 -3.52046 -2.43408 0
M  V30 6753 C 613.396 -3.74466 -3.81679 0
M  V30 6754 C 614.696 -4.85247 -1.93216 0
M  V30 6755 H 616.39 -2.87244 -0.844477 0
M  V30 6756 H 613.936 -1.38194 -0.40478 0
M  V30 6757 H 615.889 -2.65582 -3.27176 0
M  V30 6758 H 614.613 -1.46414 -2.91943 0
M  V30 6759 H 613.272 -3.23301 -1.72834 0
M  V30 6760 H 612.92 -2.81461 -4.1688 0
M  V30 6761 H 612.62 -4.52084 -3.75359 0
M  V30 6762 H 614.144 -4.0576 -4.5628 0
M  V30 6763 H 615.558 -5.12957 -2.56023 0
M  V30 6764 H 613.955 -5.66556 -1.97825 0
M  V30 6765 H 615.025 -4.7672 -0.88689 0
M  V30 6766 N 616.368 0.432326 -1.51554 0
M  V30 6767 C 617.779 1.01202 -1.56892 0
M  V30 6768 C 618.13 1.92175 -0.395394 0
M  V30 6769 O 617.255 2.10844 0.487198 0
M  V30 6770 C 617.85 1.84217 -2.8434 0
M  V30 6771 C 616.409 2.37228 -2.92233 0
M  V30 6772 C 615.556 1.16576 -2.51606 0
M  V30 6773 H 618.507 0.213407 -1.57259 0
M  V30 6774 H 618.528 2.69721 -2.68385 0
M  V30 6775 H 618.04 1.17979 -3.69733 0
M  V30 6776 H 616.141 3.06905 -2.11282 0
M  V30 6777 H 616.254 2.69682 -3.95991 0
M  V30 6778 H 614.618 1.51263 -2.04919 0
M  V30 6779 H 615.401 0.519404 -3.39348 0
M  V30 6780 N 617.846 1.41785 0.688094 0
M  V30 6781 C 619.262 1.24419 0.999608 0
M  V30 6782 C 619.462 0.138868 2.01021 0
M  V30 6783 O 618.518 -0.494283 2.47615 0
M  V30 6784 C 619.831 2.59625 1.51709 0
M  V30 6785 C 621.379 2.66869 1.63554 0
M  V30 6786 C 621.854 4.0241 2.18702 0
M  V30 6787 N 623.345 4.04295 2.26053 0
M  V30 6788 C 624.08 5.05977 2.69768 0
M  V30 6789 N 623.576 6.18047 3.13033 0
M  V30 6790 N 625.369 4.93336 2.69398 0
M  V30 6791 H 617.52 2.12392 0.0187427 0
M  V30 6792 H 619.783 0.945347 0.0708673 0
M  V30 6793 H 619.489 3.41297 0.849059 0
M  V30 6794 H 619.363 2.82628 2.49803 0
M  V30 6795 H 621.75 1.8555 2.29467 0
M  V30 6796 H 621.831 2.47668 0.639857 0
M  V30 6797 H 621.475 4.8418 1.53402 0
M  V30 6798 H 621.405 4.18955 3.19037 0
M  V30 6799 H 623.896 3.23383 1.9553 0
M  V30 6800 H 624.209 6.91498 3.45038 0
M  V30 6801 H 622.554 6.21572 3.10923 0
M  V30 6802 H 625.745 4.04865 2.34952 0
M  V30 6803 H 625.918 5.72717 3.03148 0
M  V30 6804 N 619.324 -0.923095 1.27737 0
M  V30 6805 C 620.256 -2.02871 1.06658 0
M  V30 6806 C 621.269 -1.62786 0.0212095 0
M  V30 6807 O 622.458 -1.76548 0.263267 0
M  V30 6808 C 619.558 -3.33603 0.59682 0
M  V30 6809 C 618.731 -4.02354 1.71551 0
M  V30 6810 C 617.79 -5.11364 1.24071 0
M  V30 6811 O 616.816 -5.35075 1.94123 0
M  V30 6812 N 618.018 -5.80416 0.0988444 0
M  V30 6813 H 620.783 -2.21515 2.01869 0
M  V30 6814 H 618.344 -1.09378 1.19365 0
M  V30 6815 H 620.336 -4.03845 0.262984 0
M  V30 6816 H 618.906 -3.11499 -0.262187 0
M  V30 6817 H 618.126 -3.25786 2.2194 0
M  V30 6818 H 619.414 -4.45035 2.46619 0
M  V30 6819 H 618.812 -5.63611 -0.485743 0
M  V30 6820 H 617.369 -6.51563 -0.17578 0
M  V30 6821 N 620.802 -1.09834 -1.13024 0
M  V30 6822 C 621.752 -0.710899 -2.16634 0
M  V30 6823 C 622.736 0.276836 -1.58501 0
M  V30 6824 O 623.928 0.0865457 -1.76788 0
M  V30 6825 C 621.057 -0.137574 -3.43024 0
M  V30 6826 C 620.143 -1.15198 -4.08155 0
M  V30 6827 N 620.534 -2.34054 -4.48388 0
M  V30 6828 C 618.832 -0.991074 -4.34849 0
M  V30 6829 C 619.533 -2.98616 -4.99203 0
M  V30 6830 N 618.509 -2.26159 -4.94321 0
M  V30 6831 H 622.311 -1.61576 -2.455 0
M  V30 6832 H 619.825 -0.975158 -1.29863 0
M  V30 6833 H 621.822 0.158031 -4.166 0
M  V30 6834 H 620.482 0.762088 -3.1563 0
M  V30 6835 H 621.493 -2.7162 -4.40957 0
M  V30 6836 H 618.17 -0.146448 -4.17243 0
M  V30 6837 H 619.56 -3.99683 -5.40096 0
M  V30 6838 N 622.28 1.30327 -0.886154 0
M  V30 6839 C 623.696 1.48676 -0.580323 0
M  V30 6840 C 623.896 1.81189 0.881639 0
M  V30 6841 O 622.952 1.90021 1.66278 0
M  V30 6842 C 624.265 2.60932 -1.49449 0
M  V30 6843 C 625.813 2.74812 -1.49824 0
M  V30 6844 C 626.288 3.90183 -2.39836 0
M  V30 6845 N 627.779 3.97495 -2.37806 0
M  V30 6846 C 628.514 4.86078 -3.04165 0
M  V30 6847 N 628.01 5.79448 -3.79753 0
M  V30 6848 N 629.803 4.79456 -2.93391 0
M  V30 6849 H 621.954 1.07495 -1.8319 0
M  V30 6850 H 624.217 0.532661 -0.784204 0
M  V30 6851 H 623.923 2.43731 -2.5355 0
M  V30 6852 H 623.797 3.57437 -1.20494 0
M  V30 6853 H 626.184 2.91418 -0.464731 0
M  V30 6854 H 626.265 1.78924 -1.82811 0
M  V30 6855 H 625.909 3.74334 -3.43273 0
M  V30 6856 H 625.839 4.85411 -2.04166 0
M  V30 6857 H 628.33 3.30703 -1.82877 0
M  V30 6858 H 628.643 6.43805 -4.27475 0
M  V30 6859 H 626.988 5.79376 -3.8386 0
M  V30 6860 H 630.179 4.05494 -2.33864 0
M  V30 6861 H 630.352 5.48283 -3.45383 0
M  V30 6862 N 623.758 0.647228 1.43697 0
M  V30 6863 C 624.983 0.164083 2.0675 0
M  V30 6864 C 625.408 -1.15892 1.48158 0
M  V30 6865 O 624.766 -1.71459 0.589194 0
M  V30 6866 C 624.814 0.0800368 3.60511 0
M  V30 6867 O 623.918 -0.959453 4.01084 0
M  V30 6868 H 623.259 0.0921288 0.657578 0
M  V30 6869 H 625.789 0.88846 1.84303 0
M  V30 6870 H 625.799 -0.105263 4.07864 0
M  V30 6871 H 624.474 1.04586 4.02535 0
M  V30 6872 H 623.051 -0.747425 3.65333 0
M  V30 6873 N 625.236 -1.5273 0.388769 0
M  V30 6874 C 626.652 -1.59553 0.0387049 0
M  V30 6875 C 626.852 -1.40278 -1.44652 0
M  V30 6876 O 625.908 -1.21951 -2.21098 0
M  V30 6877 C 627.221 -2.9625 0.515409 0
M  V30 6878 C 628.769 -3.09426 0.471621 0
M  V30 6879 C 629.244 -4.48572 0.924505 0
M  V30 6880 N 630.735 -4.54754 0.880496 0
M  V30 6881 C 631.47 -5.60653 1.20234 0
M  V30 6882 N 630.966 -6.74198 1.59463 0
M  V30 6883 N 632.759 -5.50755 1.12363 0
M  V30 6884 H 624.91 -1.63508 1.35569 0
M  V30 6885 H 627.173 -0.768097 0.555636 0
M  V30 6886 H 626.879 -3.15569 1.5527 0
M  V30 6887 H 626.753 -3.77102 -0.085792 0
M  V30 6888 H 629.14 -2.89804 -0.556588 0
M  V30 6889 H 629.221 -2.30528 1.10862 0
M  V30 6890 H 628.865 -4.68936 1.95094 0
M  V30 6891 H 628.795 -5.25935 0.264524 0
M  V30 6892 H 631.286 -3.73237 0.591815 0
M  V30 6893 H 631.599 -7.5097 1.82385 0
M  V30 6894 H 629.944 -6.75531 1.63349 0
M  V30 6895 H 633.135 -4.6093 0.816169 0
M  V30 6896 H 633.308 -6.33184 1.37777 0
M  V30 6897 N 626.714 -0.118576 -1.57153 0
M  V30 6898 C 627.962 0.538461 -1.94795 0
M  V30 6899 C 628.283 1.67243 -1.00274 0
M  V30 6900 O 627.553 1.95811 -0.0589692 0
M  V30 6901 H 626.133 0.201904 -0.719197 0
M  V30 6902 H 628.795 -0.187418 -1.93997 0
M  V30 6903 H 627.891 0.933315 -2.97818 0
M  V30 6904 N 628.193 1.56834 0.155195 0
M  V30 6905 C 629.418 1.87412 0.888337 0
M  V30 6906 C 629.843 0.70671 1.74319 0
M  V30 6907 O 629.201 -0.343892 1.78009 0
M  V30 6908 C 629.249 3.1652 1.72765 0
M  V30 6909 O 628.353 2.99877 2.83103 0
M  V30 6910 H 627.694 0.615983 0.247914 0
M  V30 6911 H 630.224 2.04061 0.148478 0
M  V30 6912 H 630.234 3.48334 2.12433 0
M  V30 6913 H 628.909 4.01094 1.09985 0
M  V30 6914 H 627.486 2.79453 2.46902 0
M  V30 6915 N 629.671 -0.424282 1.51781 0
M  V30 6916 C 630.896 -1.19928 1.6921 0
M  V30 6917 C 631.321 -1.8392 0.394355 0
M  V30 6918 O 630.679 -1.69371 -0.646778 0
M  V30 6919 C 630.727 -2.24937 2.81843 0
M  V30 6920 O 629.831 -3.3073 2.46356 0
M  V30 6921 H 629.172 -0.35078 0.563781 0
M  V30 6922 H 631.702 -0.499401 1.98412 0
M  V30 6923 H 631.712 -2.69512 3.06312 0
M  V30 6924 H 630.387 -1.77742 3.76006 0
M  V30 6925 H 628.964 -2.9154 2.32505 0
M  V30 6926 N 631.149 -1.42148 -0.680565 0
M  V30 6927 C 632.397 -1.42029 -1.43779 0
M  V30 6928 C 632.718 -0.0356347 -1.94967 0
M  V30 6929 O 631.988 0.924936 -1.7269 0
M  V30 6930 H 630.568 -0.522835 -0.533529 0
M  V30 6931 H 633.23 -1.7752 -0.804538 0
M  V30 6932 H 632.326 -2.11658 -2.29363 0
M  V30 6933 N 632.627 0.916307 -1.28225 0
M  V30 6934 C 633.852 1.7043 -1.18188 0
M  V30 6935 C 634.277 1.86346 0.256274 0
M  V30 6936 O 633.635 1.37175 1.18544 0
M  V30 6937 C 633.683 3.07546 -1.88275 0
M  V30 6938 O 632.787 3.94904 -1.18848 0
M  V30 6939 H 632.128 0.521967 -0.410423 0
M  V30 6940 H 634.658 1.14589 -1.69501 0
M  V30 6941 H 634.668 3.57793 -1.96082 0
M  V30 6942 H 633.343 2.95279 -2.92887 0
M  V30 6943 H 631.92 3.53339 -1.19187 0
M  V30 6944 N 634.105 1.10431 1.1244 0
M  V30 6945 C 635.353 0.845045 1.83585 0
M  V30 6946 C 635.674 -0.631168 1.84503 0
M  V30 6947 O 634.944 -1.45825 1.30813 0
M  V30 6948 H 633.524 0.309628 0.679809 0
M  V30 6949 H 636.186 1.39458 1.36153 0
M  V30 6950 H 635.282 1.20786 2.8778 0
M  V30 6951 N 635.583 -1.29855 0.893053 0
M  V30 6952 C 636.994 -1.77946 0.564998 0
M  V30 6953 C 637.345 -1.73339 -0.919134 0
M  V30 6954 O 636.47 -1.3152 -1.71847 0
M  V30 6955 C 637.065 -3.23118 1.01883 0
M  V30 6956 C 635.624 -3.69013 0.742051 0
M  V30 6957 C 634.771 -2.50121 1.19727 0
M  V30 6958 H 637.722 -1.16611 1.07646 0
M  V30 6959 H 637.743 -3.78875 0.351249 0
M  V30 6960 H 637.255 -3.26439 2.09903 0
M  V30 6961 H 635.356 -3.71173 -0.325816 0
M  V30 6962 H 635.469 -4.60117 1.33527 0
M  V30 6963 H 633.833 -2.47128 0.616418 0
M  V30 6964 H 634.616 -2.56174 2.28538 0
M  V30 6965 N 637.061 -0.65484 -1.43351 0
M  V30 6966 C 638.338 -0.0987371 -1.95351 0
M  V30 6967 C 638.718 1.38161 -1.59608 0
M  V30 6968 O 638.066 2.10791 -0.882021 0
M  V30 6969 C 638.276 -0.346684 -3.47274 0
M  V30 6970 C 639.624 -0.25249 -4.23849 0
M  V30 6971 O 640.648 -0.279332 -3.55103 0
M  V30 6972 O 639.507 -0.177584 -5.46211 0
M  V30 6973 H 636.601 0.0086829 -0.826954 0
M  V30 6974 H 639.147 -0.728189 -1.53282 0
M  V30 6975 H 637.919 -1.37296 -3.66423 0
M  V30 6976 H 637.542 0.315757 -3.96344 0
M  V30 6977 N 638.539 1.52521 -0.396863 0
M  V30 6978 C 639.489 2.2348 0.451722 0
M  V30 6979 C 640.473 1.2415 1.0235 0
M  V30 6980 O 641.665 1.4945 0.948348 0
M  V30 6981 C 638.794 3.05067 1.57445 0
M  V30 6982 C 637.88 4.11799 1.01404 0
M  V30 6983 N 638.271 5.05482 0.179234 0
M  V30 6984 C 636.569 4.27064 1.28578 0
M  V30 6985 C 637.27 5.81552 -0.131202 0
M  V30 6986 N 636.246 5.41523 0.474735 0
M  V30 6987 H 640.048 2.93269 -0.192534 0
M  V30 6988 H 637.562 1.61081 -0.206591 0
M  V30 6989 H 639.559 3.54446 2.19485 0
M  V30 6990 H 638.219 2.36816 2.22145 0
M  V30 6991 H 639.23 5.17573 -0.18411 0
M  V30 6992 H 635.907 3.70042 1.93327 0
M  V30 6993 H 637.297 6.67023 -0.808061 0
M  V30 6994 N 640.017 0.126909 1.57088 0
M  V30 6995 C 641.294 -0.573152 1.87014 0
M  V30 6996 C 641.674 -1.84297 1.02945 0
M  V30 6997 O 641.022 -2.28232 0.110573 0
M  V30 6998 C 641.232 -0.857984 3.38289 0
M  V30 6999 C 642.58 -1.20759 4.07066 0
M  V30 7000 O 643.604 -0.947992 3.43353 0
M  V30 7001 O 642.463 -1.69516 5.19545 0
M  V30 7002 H 639.557 -0.290082 0.774456 0
M  V30 7003 H 642.103 0.162008 1.68925 0
M  V30 7004 H 640.875 0.0415286 3.91278 0
M  V30 7005 H 640.498 -1.64803 3.61837 0
M  V30 7006 N 641.495 -1.56914 -0.146875 0
M  V30 7007 C 642.445 -1.94693 -1.18653 0
M  V30 7008 C 643.429 -0.81821 -1.38543 0
M  V30 7009 O 644.621 -1.08167 -1.40103 0
M  V30 7010 C 641.75 -2.33117 -2.52014 0
M  V30 7011 C 640.836 -3.5256 -2.35717 0
M  V30 7012 N 641.227 -4.69091 -1.89175 0
M  V30 7013 C 639.525 -3.57647 -2.66467 0
M  V30 7014 C 640.226 -5.51187 -1.85924 0
M  V30 7015 N 639.202 -4.92899 -2.29242 0
M  V30 7016 H 643.004 -2.82264 -0.81879 0
M  V30 7017 H 640.518 -1.58474 -0.354929 0
M  V30 7018 H 642.515 -2.58387 -3.27172 0
M  V30 7019 H 641.175 -1.46898 -2.89571 0
M  V30 7020 H 642.186 -4.92844 -1.59139 0
M  V30 7021 H 638.863 -2.81967 -3.07898 0
M  V30 7022 H 640.253 -6.54613 -1.51431 0
M  V30 7023 N 642.974 0.416227 -1.52004 0
M  V30 7024 C 643.937 1.48926 -1.74223 0
M  V30 7025 C 644.937 1.48693 -0.612119 0
M  V30 7026 O 646.127 1.50343 -0.879921 0
M  V30 7027 C 643.259 2.88372 -1.81809 0
M  V30 7028 H 644.452 1.3052 -2.70008 0
M  V30 7029 H 642.005 0.646271 -1.42313 0
M  V30 7030 H 642.74 3.12157 -0.879135 0
M  V30 7031 H 642.525 2.89944 -2.6396 0
M  V30 7032 H 644.015 3.66173 -2.00766 0
M  V30 7033 N 644.452 1.42507 0.673017 0
M  V30 7034 C 645.7 1.42789 1.43023 0
M  V30 7035 C 646.021 0.0459738 1.94946 0
M  V30 7036 O 645.291 -0.915765 1.73178 0
M  V30 7037 H 643.871 0.525657 0.530748 0
M  V30 7038 H 646.533 1.77944 0.795113 0
M  V30 7039 H 645.629 2.12872 2.28237 0
M  V30 7040 N 645.93 -0.909495 1.28709 0
M  V30 7041 C 646.862 -2.01729 1.08804 0
M  V30 7042 C 647.875 -1.62755 0.0384739 0
M  V30 7043 O 649.064 -1.76259 0.281977 0
M  V30 7044 C 646.164 -3.32952 0.63217 0
M  V30 7045 C 645.337 -4.00512 1.75809 0
M  V30 7046 C 644.396 -5.10019 1.29488 0
M  V30 7047 O 643.422 -5.32986 1.99787 0
M  V30 7048 N 644.624 -5.80278 0.1604 0
M  V30 7049 H 647.389 -2.19362 2.04207 0
M  V30 7050 H 644.95 -1.08106 1.20518 0
M  V30 7051 H 646.942 -4.03543 0.305802 0
M  V30 7052 H 645.512 -3.11759 -0.229134 0
M  V30 7053 H 644.732 -3.23413 2.25383 0
M  V30 7054 H 646.02 -4.42395 2.51325 0
M  V30 7055 H 645.418 -5.64094 -0.425937 0
M  V30 7056 H 643.975 -6.51713 -0.106663 0
M  V30 7057 N 647.408 -1.11026 -1.11852 0
M  V30 7058 C 648.656 -0.854769 -1.83134 0
M  V30 7059 C 648.977 0.621375 -1.84835 0
M  V30 7060 O 648.247 1.45129 -1.31584 0
M  V30 7061 H 646.827 -0.313229 -0.678157 0
M  V30 7062 H 649.489 -1.40178 -1.35411 0
M  V30 7063 H 648.585 -1.22311 -2.87135 0
M  V30 7064 N 648.886 1.2938 -0.899927 0
M  V30 7065 C 650.114 1.99691 -0.541386 0
M  V30 7066 C 650.529 1.67355 0.873936 0
M  V30 7067 O 649.886 0.918728 1.57688 0
M  V30 7068 C 649.937 3.54168 -0.72438 0
M  V30 7069 O 649.658 3.85359 -2.08399 0
M  V30 7070 C 651.159 4.41746 -0.370819 0
M  V30 7071 H 648.379 0.638037 -0.207726 0
M  V30 7072 H 650.923 1.6491 -1.20934 0
M  V30 7073 H 649.078 3.87261 -0.103607 0
M  V30 7074 H 649.492 4.80032 -2.11352 0
M  V30 7075 H 650.966 5.49256 -0.549693 0
M  V30 7076 H 651.443 4.33712 0.692148 0
M  V30 7077 H 652.049 4.14125 -0.968543 0
M  V30 7078 N 650.364 0.662433 1.43002 0
M  V30 7079 C 651.274 -0.0239199 2.34588 0
M  V30 7080 C 652.29 -0.802255 1.54402 0
M  V30 7081 O 653.466 -0.747401 1.87018 0
M  V30 7082 C 650.531 -0.972098 3.32793 0
M  V30 7083 C 649.592 -0.189673 4.28881 0
M  V30 7084 C 648.825 -1.09269 5.22395 0
M  V30 7085 O 649.048 -2.33209 5.20547 0
M  V30 7086 O 647.982 -0.560136 5.99288 0
M  V30 7087 H 651.808 0.730171 2.94792 0
M  V30 7088 H 649.393 0.422635 1.43297 0
M  V30 7089 H 651.275 -1.51676 3.93157 0
M  V30 7090 H 649.95 -1.70626 2.75079 0
M  V30 7091 H 648.857 0.398794 3.71968 0
M  V30 7092 H 650.19 0.50511 4.89601 0
M  V30 7093 N 651.842 -1.52309 0.404946 0
M  V30 7094 C 653.067 -2.06666 -0.1743 0
M  V30 7095 C 653.492 -1.27341 -1.38441 0
M  V30 7096 O 652.85 -0.302539 -1.78758 0
M  V30 7097 C 652.898 -3.57014 -0.507262 0
M  V30 7098 O 652.002 -3.80144 -1.59889 0
M  V30 7099 H 651.343 -0.663807 -0.0160273 0
M  V30 7100 H 653.873 -1.96297 0.576937 0
M  V30 7101 H 653.883 -4.00724 -0.767098 0
M  V30 7102 H 652.558 -4.14184 0.377368 0
M  V30 7103 H 651.135 -3.48316 -1.33155 0
M  V30 7104 N 653.32 -0.135238 -1.57019 0
M  V30 7105 C 654.23 0.822226 -2.19719 0
M  V30 7106 C 655.246 1.28057 -1.17802 0
M  V30 7107 O 656.422 1.3402 -1.50335 0
M  V30 7108 C 653.487 2.0484 -2.79717 0
M  V30 7109 C 652.548 1.64042 -3.96723 0
M  V30 7110 C 651.781 2.80814 -4.53849 0
M  V30 7111 O 652.004 3.967 -4.0986 0
M  V30 7112 O 650.938 2.56963 -5.44292 0
M  V30 7113 H 654.764 0.318552 -3.02025 0
M  V30 7114 H 652.349 0.0912021 -1.49121 0
M  V30 7115 H 654.231 2.76622 -3.17897 0
M  V30 7116 H 652.906 2.54182 -2.00432 0
M  V30 7117 H 651.813 0.893182 -3.63281 0
M  V30 7118 H 653.146 1.19426 -4.77492 0
M  V30 7119 N 654.798 1.5699 0.138552 0
M  V30 7120 C 655.708 2.02174 1.19008 0
M  V30 7121 C 656.724 0.938622 1.46512 0
M  V30 7122 O 657.9 1.24872 1.58016 0
M  V30 7123 C 654.965 2.40045 2.50159 0
M  V30 7124 C 654.026 3.62346 2.30226 0
M  V30 7125 C 653.259 3.98401 3.55123 0
M  V30 7126 O 653.482 3.35019 4.61647 0
M  V30 7127 O 652.416 4.91606 3.47285 0
M  V30 7128 H 656.242 2.91954 0.836452 0
M  V30 7129 H 653.827 1.45293 0.347907 0
M  V30 7130 H 655.709 2.65225 3.27465 0
M  V30 7131 H 654.384 1.53417 2.85035 0
M  V30 7132 H 653.291 3.42341 1.50843 0
M  V30 7133 H 654.624 4.49617 2.00262 0
M  V30 7134 N 656.276 -0.40816 1.52223 0
M  V30 7135 C 657.208 -1.51642 1.71864 0
M  V30 7136 C 658.221 -1.51378 0.599056 0
M  V30 7137 O 659.41 -1.55626 0.874239 0
M  V30 7138 C 656.51 -2.90534 1.74481 0
M  V30 7139 C 655.683 -3.14979 3.03491 0
M  V30 7140 C 654.742 -4.33749 2.97907 0
M  V30 7141 O 653.768 -4.30982 3.71811 0
M  V30 7142 N 654.97 -5.38912 2.15764 0
M  V30 7143 H 657.735 -1.35188 2.67478 0
M  V30 7144 H 655.296 -0.597468 1.50472 0
M  V30 7145 H 657.288 -3.68056 1.68275 0
M  V30 7146 H 655.858 -3.00441 0.863363 0
M  V30 7147 H 655.078 -2.25492 3.23337 0
M  V30 7148 H 656.366 -3.28156 3.88833 0
M  V30 7149 H 655.764 -5.44008 1.55152 0
M  V30 7150 H 654.321 -6.15174 2.15415 0
M  V30 7151 N 657.755 -1.42862 -0.66545 0
M  V30 7152 C 658.665 -1.49491 -1.80803 0
M  V30 7153 C 659.681 -0.382914 -1.69734 0
M  V30 7154 O 660.857 -0.635223 -1.9112 0
M  V30 7155 C 657.922 -1.40383 -3.17007 0
M  V30 7156 C 656.983 -2.62152 -3.39963 0
M  V30 7157 C 656.216 -2.53469 -4.69669 0
M  V30 7158 O 656.439 -1.57568 -5.48205 0
M  V30 7159 O 655.373 -3.43763 -4.94075 0
M  V30 7160 H 659.199 -2.45949 -1.78165 0
M  V30 7161 H 656.784 -1.24728 -0.822387 0
M  V30 7162 H 658.666 -1.377 -3.98267 0
M  V30 7163 H 657.341 -0.470546 -3.20262 0
M  V30 7164 H 656.248 -2.70409 -2.58515 0
M  V30 7165 H 657.581 -3.54411 -3.41546 0
M  V30 7166 N 659.233 0.902656 -1.29189 0
M  V30 7167 C 660.481 1.6496 -1.16758 0
M  V30 7168 C 660.802 1.92952 0.28188 0
M  V30 7169 O 660.072 1.55351 1.19344 0
M  V30 7170 H 658.652 0.611447 -0.429118 0
M  V30 7171 H 661.314 1.0825 -1.62074 0
M  V30 7172 H 660.41 2.60728 -1.71544 0
M  V30 7173 N 660.711 1.11618 1.11262 0
M  V30 7174 C 661.988 0.777876 1.79467 0
M  V30 7175 C 662.368 -0.733774 1.97937 0
M  V30 7176 O 661.716 -1.66443 1.56554 0
M  V30 7177 C 661.926 1.5431 3.13032 0
M  V30 7178 C 663.274 1.72357 3.88044 0
M  V30 7179 O 664.298 1.5075 3.22727 0
M  V30 7180 O 663.157 2.08276 5.05256 0
M  V30 7181 H 660.251 0.282018 0.777428 0
M  V30 7182 H 662.797 1.21971 1.17988 0
M  V30 7183 H 661.569 2.57132 2.94956 0
M  V30 7184 H 661.192 1.09495 3.82226 0
M  V30 7185 N 662.189 -1.289 0.906776 0
M  V30 7186 C 663.414 -1.99939 0.551303 0
M  V30 7187 C 663.839 -1.67366 -0.858496 0
M  V30 7188 O 663.197 -0.902176 -1.57259 0
M  V30 7189 C 663.245 -3.52523 0.758937 0
M  V30 7190 O 662.349 -4.11983 -0.185308 0
M  V30 7191 H 661.69 -0.628376 0.214568 0
M  V30 7192 H 664.22 -1.64225 1.2203 0
M  V30 7193 H 664.23 -4.02522 0.666329 0
M  V30 7194 H 662.905 -3.75566 1.78671 0
M  V30 7195 H 661.482 -3.72873 -0.0445577 0
M  V30 7196 N 663.667 -0.670007 -1.42649 0
M  V30 7197 C 665.078 -0.268118 -1.84765 0
M  V30 7198 C 665.429 1.18877 -1.56086 0
M  V30 7199 O 664.554 1.90947 -1.01825 0
M  V30 7200 C 665.149 -0.47984 -3.35385 0
M  V30 7201 C 663.708 -0.132116 -3.76168 0
M  V30 7202 C 662.855 -0.774611 -2.66261 0
M  V30 7203 H 665.806 -0.872509 -1.32563 0
M  V30 7204 H 665.827 0.269522 -3.79544 0
M  V30 7205 H 665.339 -1.54026 -3.56227 0
M  V30 7206 H 663.44 0.92505 -3.60934 0
M  V30 7207 H 663.553 -0.569294 -4.75706 0
M  V30 7208 H 661.917 -0.206353 -2.53863 0
M  V30 7209 H 662.7 -1.83839 -2.89928 0
M  V30 7210 O 665.184 1.51659 -0.55515 0
M  V30 7211 H 665.875 1.9363 -0.0521056 0
M  V30 END ATOM
M  V30 BEGIN BOND
M  V30 END BOND
M  V30 END CTAB
M  END
$$$$
