drugbank_drug|DB00033 DB00033 sequence
 OpenBabel12092119123D

  0  0  0     0  0            999 V3000
M  V30 BEGIN CTAB
M  V30 COUNTS 2421 2441 0 0 0
M  V30 BEGIN ATOM
M  V30 1 H -0.908 1.98254 -0.117106 0
M  V30 2 N 0 1.576 0 0
M  V30 3 C 1.24 1.92425 0.68935 0
M  V30 4 C 1.604 0.874325 1.70937 0
M  V30 5 O 2.805 1.10782 2.4491 0
M  V30 6 C 1.076 3.32301 1.31571 0
M  V30 7 S 2.635 3.89011 2.03018 0
M  V30 8 H -0.547 0.673552 0.227702 0
M  V30 9 H 2.055 1.95418 -0.0566871 0
M  V30 10 H 0.759 4.06555 0.560491 0
M  V30 11 H 0.29 3.32682 2.09968 0
M  V30 12 H 2.305 3.70086 3.30531 0
M  V30 13 N 1.4781 -0.272755 1.55222 0
M  V30 14 C 2.7081 -1.02107 1.79604 0
M  V30 15 C 3.1161 -1.80419 0.569693 0
M  V30 16 O 2.4591 -1.77566 -0.470743 0
M  V30 17 C 2.5211 -2.02675 2.96922 0
M  V30 18 C 2.1851 -1.43299 4.33952 0
M  V30 19 C 3.1821 -0.84853 5.12929 0
M  V30 20 C 0.8671 -1.46012 4.8061 0
M  V30 21 C 2.8611 -0.299109 6.36698 0
M  V30 22 C 0.5481 -0.906833 6.04334 0
M  V30 23 C 1.5461 -0.32733 6.82215 0
M  V30 24 O 1.2341 0.217479 8.03606 0
M  V30 25 H 0.9661 -0.307322 0.602104 0
M  V30 26 H 3.5201 -0.308862 2.03065 0
M  V30 27 H 1.7501 -2.77656 2.69155 0
M  V30 28 H 3.4391 -2.63637 3.08626 0
M  V30 29 H 4.2051 -0.820265 4.78013 0
M  V30 30 H 0.0841 -1.90056 4.2 0
M  V30 31 H 3.6281 0.153852 6.9743 0
M  V30 32 H -0.4749 -0.932339 6.38731 0
M  V30 33 H 0.2931 0.106863 8.1843 0
M  V30 34 N 2.9562 -1.48159 -0.537278 0
M  V30 35 C 4.1962 -1.57397 -1.30405 0
M  V30 36 C 4.5602 -0.239202 -1.90504 0
M  V30 37 O 5.7612 -0.206528 -2.68005 0
M  V30 38 C 4.0322 -2.6754 -2.36974 0
M  V30 39 S 5.5912 -2.96496 -3.23475 0
M  V30 40 H 2.4092 -0.555577 -0.443684 0
M  V30 41 H 5.0112 -1.85644 -0.612912 0
M  V30 42 H 3.7152 -3.63092 -1.91291 0
M  V30 43 H 3.2462 -2.41172 -3.10805 0
M  V30 44 H 5.2612 -2.35234 -4.36897 0
M  V30 45 N 4.4343 0.785586 -1.36625 0
M  V30 46 C 5.3663 1.90711 -1.2713 0
M  V30 47 C 6.3793 1.61688 -0.189986 0
M  V30 48 O 7.5683 1.72864 -0.445014 0
M  V30 49 C 4.6683 3.25611 -0.939713 0
M  V30 50 C 3.8413 3.82385 -2.12369 0
M  V30 51 C 2.9003 4.95732 -1.76456 0
M  V30 52 O 1.9263 5.12047 -2.48589 0
M  V30 53 N 3.1283 5.76258 -0.700492 0
M  V30 54 H 5.8933 1.99376 -2.23762 0
M  V30 55 H 3.4543 0.964041 -1.30069 0
M  V30 56 H 5.4463 3.98937 -0.680554 0
M  V30 57 H 4.0163 3.12538 -0.0624074 0
M  V30 58 H 3.2363 3.01001 -2.54543 0
M  V30 59 H 4.5243 4.17047 -2.9146 0
M  V30 60 H 3.9223 5.65609 -0.101624 0
M  V30 61 H 2.4793 6.4987 -0.501165 0
M  V30 62 N 5.9124 1.20967 1.01018 0
M  V30 63 C 7.1894 0.93264 1.71934 0
M  V30 64 C 7.5694 -0.55692 2.03621 0
M  V30 65 O 6.9174 -1.52035 1.7058 0
M  V30 66 C 7.1274 1.81233 2.98254 0
M  V30 67 C 8.4754 2.05804 3.71389 0
M  V30 68 O 9.4994 1.78539 3.08225 0
M  V30 69 O 8.3584 2.51888 4.84989 0
M  V30 70 H 5.4524 0.349272 0.749625 0
M  V30 71 H 7.9984 1.31871 1.06808 0
M  V30 72 H 6.7704 2.82067 2.71208 0
M  V30 73 H 6.3934 1.42674 3.7112 0
M  V30 74 N 7.3905 -1.2043 1.01659 0
M  V30 75 C 8.8015 -1.71517 0.737482 0
M  V30 76 C 9.1525 -1.81547 -0.743973 0
M  V30 77 O 8.2775 -1.47803 -1.58061 0
M  V30 78 C 8.8725 -3.11515 1.33206 0
M  V30 79 C 7.4315 -3.59912 1.10183 0
M  V30 80 C 6.5785 -2.37116 1.43776 0
M  V30 81 H 9.5295 -1.05444 1.18606 0
M  V30 82 H 9.5505 -3.73575 0.722636 0
M  V30 83 H 9.0625 -3.04182 2.41028 0
M  V30 84 H 7.1635 -3.72577 0.0412756 0
M  V30 85 H 7.2765 -4.44731 1.78188 0
M  V30 86 H 5.6405 -2.39857 0.856778 0
M  V30 87 H 6.4235 -2.32424 2.52654 0
M  V30 88 N 8.8686 -0.792821 -1.36206 0
M  V30 89 C 10.0986 -0.378275 -2.03107 0
M  V30 90 C 10.5066 1.01119 -1.59911 0
M  V30 91 O 9.8496 1.66052 -0.785658 0
M  V30 92 C 9.9116 -0.366535 -3.57627 0
M  V30 93 C 9.5756 -1.70416 -4.24037 0
M  V30 94 C 10.5726 -2.6602 -4.46687 0
M  V30 95 C 8.2576 -1.98439 -4.6144 0
M  V30 96 C 10.2516 -3.8784 -5.05825 0
M  V30 97 C 7.9386 -3.20525 -5.20295 0
M  V30 98 C 8.9366 -4.15044 -5.42427 0
M  V30 99 O 8.6246 -5.34978 -6.00045 0
M  V30 100 H 8.3566 -0.153543 -0.658332 0
M  V30 101 H 10.9106 -1.07383 -1.75094 0
M  V30 102 H 9.1406 0.385539 -3.84773 0
M  V30 103 H 10.8296 0.0238088 -4.05893 0
M  V30 104 H 11.5956 -2.45658 -4.18183 0
M  V30 105 H 7.4746 -1.25686 -4.43536 0
M  V30 106 H 11.0186 -4.61628 -5.23015 0
M  V30 107 H 6.9156 -3.40764 -5.48225 0
M  V30 108 H 7.6836 -5.36088 -6.18508 0
M  V30 109 N 10.3467 1.47872 -0.545128 0
M  V30 110 C 11.5927 2.02793 -0.0166104 0
M  V30 111 C 11.9257 1.41987 1.32489 0
M  V30 112 O 11.2007 0.571045 1.85928 0
M  V30 113 C 11.4837 3.59989 0.0893294 0
M  V30 114 C 11.3367 4.3125 -1.27841 0
M  V30 115 C 12.6557 4.32606 0.808724 0
M  V30 116 H 9.7747 0.736962 -0.00751035 0
M  V30 117 H 12.4167 1.76433 -0.705085 0
M  V30 118 H 10.5667 3.82579 0.675681 0
M  V30 119 H 12.2387 4.20035 -1.90704 0
M  V30 120 H 10.4817 3.92076 -1.85632 0
M  V30 121 H 11.1527 5.39736 -1.15713 0
M  V30 122 H 13.6287 4.14936 0.310992 0
M  V30 123 H 12.5047 5.42251 0.851782 0
M  V30 124 H 12.7657 4.00963 1.86229 0
M  V30 125 N 11.8248 0.280983 1.55075 0
M  V30 126 C 12.7718 -0.603937 2.22758 0
M  V30 127 C 13.7418 -1.1452 1.20309 0
M  V30 128 O 14.9268 -1.19343 1.48869 0
M  V30 129 C 12.0668 -1.77947 2.95684 0
M  V30 130 C 11.1798 -1.2715 4.12864 0
M  V30 131 C 10.3148 -2.4093 4.7342 0
M  V30 132 C 9.3538 -1.87165 5.82783 0
M  V30 133 N 8.4908 -2.94441 6.37377 0
M  V30 134 H 13.3308 -0.020124 2.97993 0
M  V30 135 H 10.8678 0.00183425 1.471 0
M  V30 136 H 12.8258 -2.47055 3.36184 0
M  V30 137 H 11.4558 -2.33522 2.22861 0
M  V30 138 H 10.5078 -0.473331 3.77444 0
M  V30 139 H 11.8198 -0.837751 4.91715 0
M  V30 140 H 10.9738 -3.18021 5.1667 0
M  V30 141 H 9.7128 -2.87623 3.93859 0
M  V30 142 H 8.7178 -1.08556 5.38976 0
M  V30 143 H 9.9428 -1.41401 6.64216 0
M  V30 144 H 7.8888 -3.40505 5.60707 0
M  V30 145 H 7.8058 -2.55501 7.11516 0
M  V30 146 H 9.0738 -3.71489 6.85285 0
M  V30 147 N 13.3029 -1.57598 0.00835791 0
M  V30 148 C 14.2129 -2.12385 -0.996487 0
M  V30 149 C 15.2289 -1.07108 -1.37127 0
M  V30 150 O 16.4049 -1.39055 -1.4569 0
M  V30 151 C 13.4699 -2.62314 -2.26699 0
M  V30 152 C 12.5309 -3.82225 -1.95456 0
M  V30 153 C 11.7639 -4.29763 -3.16449 0
M  V30 154 O 11.9869 -3.76584 -4.28416 0
M  V30 155 O 10.9209 -5.21832 -2.99958 0
M  V30 156 H 14.7469 -2.98479 -0.560725 0
M  V30 157 H 12.3319 -1.47903 -0.210987 0
M  V30 158 H 14.2139 -2.94589 -3.01322 0
M  V30 159 H 12.8889 -1.79313 -2.69497 0
M  V30 160 H 11.7959 -3.54909 -1.18282 0
M  V30 161 H 13.1289 -4.66324 -1.57489 0
M  V30 162 N 14.781 0.264519 -1.55364 0
M  V30 163 C 15.744 1.31046 -1.88042 0
M  V30 164 C 16.744 1.41943 -0.755569 0
M  V30 165 O 17.934 1.40947 -1.02369 0
M  V30 166 C 15.066 2.69067 -2.09323 0
M  V30 167 H 16.259 1.03297 -2.81549 0
M  V30 168 H 13.812 0.502989 -1.47986 0
M  V30 169 H 14.547 3.01982 -1.18226 0
M  V30 170 H 14.332 2.62542 -2.91229 0
M  V30 171 H 15.822 3.44623 -2.35848 0
M  V30 172 N 16.2591 1.48442 0.529413 0
M  V30 173 C 17.1691 1.6569 1.66084 0
M  V30 174 C 18.1851 0.539432 1.65427 0
M  V30 175 O 19.3611 0.810572 1.84368 0
M  V30 176 C 16.4261 1.69315 3.02545 0
M  V30 177 C 15.4871 2.92694 3.14052 0
M  V30 178 C 14.7201 2.96137 4.44003 0
M  V30 179 O 14.9431 2.07973 5.31134 0
M  V30 180 O 13.8771 3.88312 4.59888 0
M  V30 181 H 17.7031 2.61483 1.54469 0
M  V30 182 H 15.2881 1.3185 0.702567 0
M  V30 183 H 17.1701 1.74217 3.83701 0
M  V30 184 H 15.8451 0.766966 3.14483 0
M  V30 185 H 14.7521 2.93324 2.32189 0
M  V30 186 H 16.0851 3.84699 3.0703 0
M  V30 187 N 17.7372 -0.778329 1.37039 0
M  V30 188 C 18.6852 -1.91278 1.32345 0
M  V30 189 C 19.6792 -1.68051 0.213331 0
M  V30 190 O 20.8852 -1.75922 0.38098 0
M  V30 191 H 17.2602 -0.628909 0.412283 0
M  V30 192 H 19.2312 -1.92355 2.28127 0
M  V30 193 C 17.9802 -3.28455 1.14073 0
M  V30 194 H 17.3032 -3.46901 1.98746 0
M  V30 195 H 18.7432 -4.08152 1.14837 0
M  V30 196 C 17.2022 -3.36548 -0.154015 0
M  V30 197 O 17.7322 -3.85186 -1.13993 0
M  V30 198 N 15.9382 -2.89894 -0.202475 0
M  V30 199 H 15.4852 -2.50504 0.600476 0
M  V30 200 H 15.4432 -2.9569 -1.06841 0
M  V30 201 N 19.2153 -1.21501 -1.00376 0
M  V30 202 C 20.1453 -0.999478 -2.11028 0
M  V30 203 C 21.1263 0.0759671 -1.6993 0
M  V30 204 O 22.3113 -0.0841106 -1.94018 0
M  V30 205 C 19.4413 -0.564709 -3.42678 0
M  V30 206 C 18.3953 -1.58486 -3.97576 0
M  V30 207 C 17.7213 -1.00628 -5.25146 0
M  V30 208 C 19.0213 -2.97204 -4.29496 0
M  V30 209 H 20.7153 -1.92495 -2.29317 0
M  V30 210 H 18.2613 -0.92693 -1.102 0
M  V30 211 H 20.2143 -0.401091 -4.19487 0
M  V30 212 H 18.9383 0.396411 -3.24185 0
M  V30 213 H 17.5973 -1.73606 -3.22888 0
M  V30 214 H 17.2453 -0.0368439 -5.02987 0
M  V30 215 H 16.9453 -1.68771 -5.62841 0
M  V30 216 H 18.4693 -0.854015 -6.04598 0
M  V30 217 H 19.8833 -2.8552 -4.97143 0
M  V30 218 H 18.2803 -3.62372 -4.78338 0
M  V30 219 H 19.3503 -3.47956 -3.3772 0
M  V30 220 N 20.6934 1.19889 -1.02296 0
M  V30 221 C 21.6404 2.22901 -0.598651 0
M  V30 222 C 22.6104 1.61588 0.384521 0
M  V30 223 O 23.7954 1.88697 0.282522 0
M  V30 224 C 20.9354 3.45063 0.0504476 0
M  V30 225 C 20.0484 4.20783 -0.978053 0
M  V30 226 C 19.1834 5.30356 -0.299338 0
M  V30 227 C 18.2224 5.97826 -1.31416 0
M  V30 228 N 17.3594 6.98975 -0.661667 0
M  V30 229 H 22.1994 2.58554 -1.48169 0
M  V30 230 H 19.7364 1.27039 -0.741584 0
M  V30 231 H 21.6944 4.14831 0.443971 0
M  V30 232 H 20.3244 3.10084 0.897097 0
M  V30 233 H 19.3764 3.50018 -1.48969 0
M  V30 234 H 20.6884 4.67109 -1.74958 0
M  V30 235 H 19.8424 6.06516 0.149347 0
M  V30 236 H 18.5814 4.85084 0.504445 0
M  V30 237 H 17.5864 5.20422 -1.77317 0
M  V30 238 H 18.8114 6.45183 -2.11933 0
M  V30 239 H 16.7574 6.55886 0.122132 0
M  V30 240 H 16.6744 7.43461 -1.37117 0
M  V30 241 H 17.9424 7.7914 -0.236785 0
M  V30 242 N 22.1715 0.800033 1.35784 0
M  V30 243 C 23.1185 0.203848 2.29898 0
M  V30 244 C 24.0885 -0.658375 1.52495 0
M  V30 245 O 25.2735 -0.604832 1.8096 0
M  V30 246 C 22.4135 -0.64688 3.38983 0
M  V30 247 C 21.5265 0.235054 4.3136 0
M  V30 248 C 20.6615 -0.623054 5.27533 0
M  V30 249 C 19.7005 0.259682 6.11549 0
M  V30 250 N 18.8375 -0.558019 6.99879 0
M  V30 251 H 23.6775 1.01186 2.80295 0
M  V30 252 H 21.2145 0.51053 1.37957 0
M  V30 253 H 23.1725 -1.15521 4.00887 0
M  V30 254 H 21.8025 -1.42021 2.89879 0
M  V30 255 H 20.8545 0.861438 3.70518 0
M  V30 256 H 22.1665 0.914768 4.9034 0
M  V30 257 H 21.3205 -1.19678 5.94779 0
M  V30 258 H 20.0595 -1.33636 4.69034 0
M  V30 259 H 19.0645 0.845726 5.43256 0
M  V30 260 H 20.2895 0.970748 6.72126 0
M  V30 261 H 18.2355 -1.25542 6.43875 0
M  V30 262 H 18.1525 0.0637872 7.55973 0
M  V30 263 H 19.4205 -1.11523 7.71481 0
M  V30 264 N 23.6496 -1.47581 0.552962 0
M  V30 265 C 24.8796 -2.06575 0.0320091 0
M  V30 266 C 25.2876 -1.4067 -1.26525 0
M  V30 267 O 24.6306 -0.495808 -1.76883 0
M  V30 268 C 24.6926 -3.58705 -0.238913 0
M  V30 269 C 24.3566 -4.46625 0.968272 0
M  V30 270 C 25.3536 -4.85 1.87274 0
M  V30 271 C 23.0386 -4.88201 1.18175 0
M  V30 272 C 25.0326 -5.63745 2.9744 0
M  V30 273 C 22.7196 -5.66712 2.28651 0
M  V30 274 C 23.7176 -6.04394 3.18114 0
M  V30 275 O 23.4056 -6.81324 4.26676 0
M  V30 276 H 23.1376 -0.674763 0.0408689 0
M  V30 277 H 25.6916 -1.90634 0.764719 0
M  V30 278 H 23.9216 -3.72844 -1.02588 0
M  V30 279 H 25.6106 -3.99735 -0.704731 0
M  V30 280 H 26.3766 -4.53482 1.71984 0
M  V30 281 H 22.2556 -4.58339 0.494593 0
M  V30 282 H 25.7996 -5.93077 3.67296 0
M  V30 283 H 21.6966 -5.97642 2.43915 0
M  V30 284 H 22.4646 -6.99712 4.24671 0
M  V30 285 N 25.1277 -0.289203 -1.54924 0
M  V30 286 C 26.3747 0.323519 -1.99899 0
M  V30 287 C 26.7027 1.54797 -1.17762 0
M  V30 288 O 25.9577 1.94237 -0.238835 0
M  V30 289 C 26.2567 0.736119 -3.49737 0
M  V30 290 C 25.9227 -0.385276 -4.49251 0
M  V30 291 C 24.5847 -0.693156 -4.76181 0
M  V30 292 C 26.9367 -1.14021 -5.08575 0
M  V30 293 C 24.2647 -1.7593 -5.59701 0
M  V30 294 C 26.6167 -2.19619 -5.93254 0
M  V30 295 C 25.2807 -2.51026 -6.185 0
M  V30 296 H 24.5507 0.118384 -0.731482 0
M  V30 297 H 27.1977 -0.405847 -1.8715 0
M  V30 298 H 25.5027 1.54539 -3.60035 0
M  V30 299 H 27.1997 1.22118 -3.81953 0
M  V30 300 H 23.7897 -0.135202 -4.28387 0
M  V30 301 H 27.9737 -0.915611 -4.87781 0
M  V30 302 H 23.2297 -2.0075 -5.77503 0
M  V30 303 H 27.4037 -2.78581 -6.38252 0
M  V30 304 H 25.0307 -3.33772 -6.83008 0
M  V30 305 N 26.6058 1.57591 -0.0167156 0
M  V30 306 C 27.5538 2.10604 0.987353 0
M  V30 307 C 28.5478 1.02977 1.34507 0
M  V30 308 O 29.7538 1.21425 1.32875 0
M  V30 309 H 26.1288 0.672695 0.336134 0
M  V30 310 H 28.0998 2.93925 0.514817 0
M  V30 311 C 26.8488 2.6382 2.26483 0
M  V30 312 H 26.1718 3.46278 1.99829 0
M  V30 313 H 27.6118 3.04573 2.94977 0
M  V30 314 C 26.0708 1.55992 2.9861 0
M  V30 315 O 26.6008 0.952521 3.90243 0
M  V30 316 N 24.8068 1.28335 2.60727 0
M  V30 317 H 24.3538 1.77914 1.86291 0
M  V30 318 H 24.3118 0.564115 3.09298 0
M  V30 319 N 28.0839 -0.256276 1.55502 0
M  V30 320 C 29.0469 -1.30047 1.88734 0
M  V30 321 C 30.0469 -1.4154 0.763086 0
M  V30 322 O 31.2369 -1.40403 1.03115 0
M  V30 323 C 28.3689 -2.67953 2.10747 0
M  V30 324 H 29.5619 -1.01802 2.82093 0
M  V30 325 H 27.1149 -0.495134 1.4825 0
M  V30 326 H 27.8499 -3.01351 1.19825 0
M  V30 327 H 27.6349 -2.60993 2.92617 0
M  V30 328 H 29.1249 -3.43368 2.37673 0
M  V30 329 N 29.562 -1.4872 -0.521534 0
M  V30 330 C 30.81 -1.56857 -1.27437 0
M  V30 331 C 31.131 -0.247982 -1.93417 0
M  V30 332 O 30.401 0.731151 -1.81744 0
M  V30 333 H 28.981 -0.577885 -0.473347 0
M  V30 334 H 31.643 -1.85233 -0.606205 0
M  V30 335 H 30.739 -2.35402 -2.0492 0
M  V30 336 N 31.0401 0.771051 -1.3745 0
M  V30 337 C 31.9901 1.87456 -1.29785 0
M  V30 338 C 32.9741 1.59827 -0.185541 0
M  V30 339 O 34.1661 1.71945 -0.419997 0
M  V30 340 C 31.2951 3.24935 -1.1078 0
M  V30 341 C 30.3811 3.58514 -2.26558 0
M  V30 342 N 30.7721 3.6327 -3.5195 0
M  V30 343 C 29.0701 3.88683 -2.18727 0
M  V30 344 C 29.7711 3.93616 -4.283 0
M  V30 345 N 28.7471 4.09551 -3.57448 0
M  V30 346 H 32.5491 1.89386 -2.24745 0
M  V30 347 H 30.0631 0.967531 -1.30432 0
M  V30 348 H 32.0601 4.03881 -1.03374 0
M  V30 349 H 30.7201 3.24268 -0.16738 0
M  V30 350 H 31.7311 3.45458 -3.85848 0
M  V30 351 H 28.4081 3.95834 -1.32746 0
M  V30 352 H 29.7981 4.04066 -5.36824 0
M  V30 353 N 32.5182 1.22032 0.997298 0
M  V30 354 C 33.7432 1.06921 1.77715 0
M  V30 355 C 34.1682 -0.376226 1.84299 0
M  V30 356 O 33.5262 -1.27165 1.29223 0
M  V30 357 C 33.5742 1.67996 3.19076 0
M  V30 358 O 32.6782 0.930653 4.01762 0
M  V30 359 H 32.0192 0.375814 0.547412 0
M  V30 360 H 34.5492 1.61737 1.25309 0
M  V30 361 H 34.5592 1.72538 3.69723 0
M  V30 362 H 33.2342 2.73182 3.13599 0
M  V30 363 H 31.8112 0.960917 3.60307 0
M  V30 364 N 33.9963 -1.19345 1.0293 0
M  V30 365 C 35.2733 -1.84811 0.640642 0
M  V30 366 C 35.6533 -1.91855 -0.88062 0
M  V30 367 O 35.0013 -1.43587 -1.7775 0
M  V30 368 C 35.2113 -3.23755 1.30321 0
M  V30 369 C 36.5593 -3.99912 1.42673 0
M  V30 370 O 37.5833 -3.33155 1.26041 0
M  V30 371 O 36.4423 -5.19494 1.6967 0
M  V30 372 H 33.5363 -0.796443 0.222726 0
M  V30 373 H 36.0823 -1.26831 1.12748 0
M  V30 374 H 34.8543 -3.13466 2.34211 0
M  V30 375 H 34.4773 -3.89381 0.804261 0
M  V30 376 N 35.4744 -0.807222 -1.35358 0
M  V30 377 C 36.7204 -0.388463 -1.99045 0
M  V30 378 C 37.0534 1.04184 -1.63888 0
M  V30 379 O 36.3284 1.72292 -0.902535 0
M  V30 380 C 36.6114 -0.572783 -3.55515 0
M  V30 381 C 36.4644 -2.04807 -4.00468 0
M  V30 382 C 37.7834 0.00114064 -4.401 0
M  V30 383 H 34.9024 -0.142619 -0.723069 0
M  V30 384 H 37.5444 -1.01687 -1.60498 0
M  V30 385 H 35.6944 -0.0378425 -3.88482 0
M  V30 386 H 37.3664 -2.64544 -3.77908 0
M  V30 387 H 35.6094 -2.54427 -3.51353 0
M  V30 388 H 36.2804 -2.12792 -5.09337 0
M  V30 389 H 38.7564 -0.455716 -4.13597 0
M  V30 390 H 37.6324 -0.157737 -5.48673 0
M  V30 391 H 37.8934 1.09488 -4.28328 0
M  V30 392 N 36.9525 1.47285 -0.560781 0
M  V30 393 C 37.9155 2.28535 0.174488 0
M  V30 394 C 38.9155 1.37153 0.839388 0
M  V30 395 O 40.1055 1.59748 0.694702 0
M  V30 396 C 37.2375 3.16934 1.25561 0
M  V30 397 H 38.4305 2.95012 -0.539262 0
M  V30 398 H 35.9835 1.53034 -0.317865 0
M  V30 399 H 36.7185 2.55157 2.00164 0
M  V30 400 H 36.5035 3.8419 0.783604 0
M  V30 401 H 37.9935 3.78143 1.77193 0
M  V30 402 N 38.4306 0.297415 1.54768 0
M  V30 403 C 39.7076 -0.365847 1.92148 0
M  V30 404 C 40.0876 -1.71975 1.22424 0
M  V30 405 O 39.4356 -2.25666 0.358739 0
M  V30 406 C 39.6456 -0.484056 3.45627 0
M  V30 407 C 40.9936 -0.756594 4.17805 0
M  V30 408 O 42.0176 -0.568007 3.51642 0
M  V30 409 O 40.8766 -1.11863 5.34929 0
M  V30 410 H 37.9706 -0.203919 0.801465 0
M  V30 411 H 40.5166 0.34521 1.66152 0
M  V30 412 H 39.2886 0.467865 3.88493 0
M  V30 413 H 38.9116 -1.24372 3.77647 0
M  V30 414 N 39.9087 -1.5758 0.0250728 0
M  V30 415 C 40.8567 -2.11125 -0.97617 0
M  V30 416 C 41.8507 -1.03689 -1.33959 0
M  V30 417 O 43.0567 -1.22128 -1.3223 0
M  V30 418 H 39.4317 -0.674468 -0.332561 0
M  V30 419 H 41.4027 -2.94194 -0.499223 0
M  V30 420 C 40.1517 -2.65017 -2.2508 0
M  V30 421 H 39.4747 -3.47333 -1.9799 0
M  V30 422 H 40.9147 -3.06133 -2.93357 0
M  V30 423 C 39.3737 -1.57574 -2.97779 0
M  V30 424 O 39.9037 -0.973203 -3.89733 0
M  V30 425 N 38.1097 -1.29716 -2.60043 0
M  V30 426 H 37.6567 -1.789 -1.85345 0
M  V30 427 H 37.6147 -0.58051 -3.08994 0
M  V30 428 N 41.3868 0.248026 -1.55636 0
M  V30 429 C 42.6348 0.974295 -1.77065 0
M  V30 430 C 42.9558 1.85897 -0.588849 0
M  V30 431 O 42.2258 1.91868 0.395407 0
M  V30 432 H 40.8058 0.362733 -0.653019 0
M  V30 433 H 43.4678 0.266244 -1.93073 0
M  V30 434 H 42.5638 1.59667 -2.68166 0
M  V30 435 N 42.8649 1.48995 0.513639 0
M  V30 436 C 44.0929 1.61531 1.29288 0
M  V30 437 C 44.5079 0.281801 1.86685 0
M  V30 438 O 43.8649 -0.731111 1.67215 0
M  V30 439 C 43.9159 2.67449 2.43215 0
M  V30 440 O 43.6369 3.95626 1.88179 0
M  V30 441 C 45.1379 2.90575 3.34785 0
M  V30 442 H 42.3579 0.544165 0.392588 0
M  V30 443 H 44.9019 1.9494 0.617956 0
M  V30 444 H 43.0569 2.36853 3.0656 0
M  V30 445 H 43.4709 4.53868 2.62876 0
M  V30 446 H 44.9449 3.68449 4.11035 0
M  V30 447 H 45.4219 2.00011 3.91015 0
M  V30 448 H 46.0279 3.22538 2.77218 0
M  V30 449 N 44.343 -0.763751 1.37857 0
M  V30 450 C 45.273 -1.89103 1.36975 0
M  V30 451 C 46.254 -1.68439 0.237152 0
M  V30 452 O 47.439 -1.8918 0.438713 0
M  V30 453 C 44.569 -3.26496 1.18395 0
M  V30 454 C 43.523 -3.61741 2.28751 0
M  V30 455 C 42.849 -4.97762 1.95286 0
M  V30 456 C 44.149 -3.67665 3.70972 0
M  V30 457 H 45.843 -1.90099 2.31307 0
M  V30 458 H 43.389 -0.91319 1.11341 0
M  V30 459 H 45.342 -4.05003 1.16406 0
M  V30 460 H 44.066 -3.25955 0.205215 0
M  V30 461 H 42.725 -2.85547 2.29909 0
M  V30 462 H 42.373 -4.93769 0.959221 0
M  V30 463 H 42.073 -5.22313 2.69189 0
M  V30 464 H 43.597 -5.7866 1.94898 0
M  V30 465 H 45.011 -4.36307 3.719 0
M  V30 466 H 43.408 -4.03718 4.43995 0
M  V30 467 H 44.478 -2.68134 4.0402 0
M  V30 468 N 45.8211 -1.22559 -0.990812 0
M  V30 469 C 47.0681 -1.05141 -1.73065 0
M  V30 470 C 47.3961 0.413191 -1.9006 0
M  V30 471 O 46.6511 1.32257 -1.44245 0
M  V30 472 C 46.9501 -1.71011 -3.13831 0
M  V30 473 C 46.6161 -3.20911 -3.16745 0
M  V30 474 C 45.2781 -3.61812 -3.17247 0
M  V30 475 C 47.6301 -4.16846 -3.12872 0
M  V30 476 C 44.9581 -4.97127 -3.1158 0
M  V30 477 C 47.3101 -5.5214 -3.08746 0
M  V30 478 C 45.9741 -5.92419 -3.07565 0
M  V30 479 H 45.2441 -0.384738 -0.633291 0
M  V30 480 H 47.8911 -1.5235 -1.16025 0
M  V30 481 H 46.1961 -1.16133 -3.74193 0
M  V30 482 H 47.8931 -1.55023 -3.69823 0
M  V30 483 H 44.4831 -2.88344 -3.17105 0
M  V30 484 H 48.6671 -3.86263 -3.11632 0
M  V30 485 H 43.9231 -5.27562 -3.09012 0
M  V30 486 H 48.0971 -6.26201 -3.04705 0
M  V30 487 H 45.7241 -6.97236 -3.02929 0
M  V30 488 N 47.2992 1.18797 -1.03562 0
M  V30 489 C 48.2292 2.24472 -0.643019 0
M  V30 490 C 49.2102 1.66433 0.351283 0
M  V30 491 O 50.3952 1.92803 0.232505 0
M  V30 492 C 47.5252 3.473 4.24935e-05 0
M  V30 493 C 46.4792 4.18055 -0.917257 0
M  V30 494 C 45.8052 5.34519 -0.138941 0
M  V30 495 C 47.1052 4.72109 -2.23407 0
M  V30 496 H 48.7992 2.57566 -1.52643 0
M  V30 497 H 46.3452 1.23806 -0.735394 0
M  V30 498 H 48.2982 4.20426 0.286383 0
M  V30 499 H 47.0222 3.13424 0.918299 0
M  V30 500 H 45.6812 3.46821 -1.1879 0
M  V30 501 H 45.3292 4.96891 0.781562 0
M  V30 502 H 45.0292 5.82794 -0.750005 0
M  V30 503 H 46.5532 6.10438 0.1405 0
M  V30 504 H 47.9672 5.36955 -2.00879 0
M  V30 505 H 46.3642 5.30897 -2.79765 0
M  V30 506 H 47.4342 3.89807 -2.88407 0
M  V30 507 N 48.7773 0.814389 1.34928 0
M  V30 508 C 50.0253 0.397636 1.9815 0
M  V30 509 C 50.3463 -1.04069 1.64908 0
M  V30 510 O 49.6163 -1.72121 0.93548 0
M  V30 511 H 48.1963 0.144043 0.732981 0
M  V30 512 H 50.8583 1.04195 1.6471 0
M  V30 513 H 49.9543 0.509688 3.0791 0
M  V30 514 N 50.2554 -1.46986 0.568584 0
M  V30 515 C 51.5044 -2.01646 0.0465894 0
M  V30 516 C 51.8174 -1.44721 -1.31587 0
M  V30 517 O 53.0234 -1.91113 -1.92842 0
M  V30 518 C 51.4794 -3.59885 0.032752 0
M  V30 519 C 51.0874 -4.25804 1.39266 0
M  V30 520 C 52.8314 -4.22255 -0.436038 0
M  V30 521 C 50.7384 -5.76081 1.33732 0
M  V30 522 H 49.6684 -0.753876 0.013647 0
M  V30 523 H 52.3194 -1.68864 0.718131 0
M  V30 524 H 50.7014 -3.8968 -0.704669 0
M  V30 525 H 51.8754 -4.07637 2.1487 0
M  V30 526 H 50.1904 -3.7547 1.80032 0
M  V30 527 H 52.7874 -5.32394 -0.49602 0
M  V30 528 H 53.1304 -3.90212 -1.45053 0
M  V30 529 H 53.6634 -3.97033 0.246877 0
M  V30 530 H 50.4024 -6.12761 2.32817 0
M  V30 531 H 49.9224 -5.96553 0.623267 0
M  V30 532 H 51.6014 -6.38518 1.0442 0
M  V30 533 N 51.7335 -0.305618 -1.54608 0
M  V30 534 C 52.6635 0.561482 -2.26649 0
M  V30 535 C 53.6445 1.13415 -1.26772 0
M  V30 536 O 54.8295 1.16262 -1.55553 0
M  V30 537 C 51.9595 1.73122 -3.01075 0
M  V30 538 C 50.9135 1.2887 -4.08138 0
M  V30 539 C 50.2395 2.54396 -4.70305 0
M  V30 540 C 51.5395 0.416578 -5.20636 0
M  V30 541 H 53.2335 -0.0393902 -2.99374 0
M  V30 542 H 50.7795 -0.020385 -1.43986 0
M  V30 543 H 52.7325 2.34396 -3.50195 0
M  V30 544 H 51.4565 2.3584 -2.25936 0
M  V30 545 H 50.1155 0.698991 -3.59875 0
M  V30 546 H 49.7635 3.15439 -3.918 0
M  V30 547 H 49.4635 2.25486 -5.42614 0
M  V30 548 H 50.9875 3.16464 -5.2219 0
M  V30 549 H 52.4015 0.935116 -5.65622 0
M  V30 550 H 50.7985 0.221046 -5.99693 0
M  V30 551 H 51.8685 -0.557162 -4.81688 0
M  V30 552 N 53.2116 1.57565 -0.0334293 0
M  V30 553 C 54.1586 2.10478 0.946981 0
M  V30 554 C 55.1286 1.00787 1.32027 0
M  V30 555 O 56.3136 1.28232 1.41284 0
M  V30 556 C 53.4536 2.63994 2.22263 0
M  V30 557 C 52.5666 3.87709 1.90541 0
M  V30 558 C 51.7016 4.29604 3.12433 0
M  V30 559 C 50.7406 5.46065 2.76549 0
M  V30 560 N 49.8776 5.83096 3.9108 0
M  V30 561 H 54.7176 2.93963 0.488846 0
M  V30 562 H 52.2546 1.45296 0.22969 0
M  V30 563 H 54.2126 2.93114 2.96884 0
M  V30 564 H 52.8426 1.83333 2.65685 0
M  V30 565 H 51.8946 3.65291 1.06144 0
M  V30 566 H 53.2066 4.72403 1.60116 0
M  V30 567 H 52.3606 4.60182 3.9537 0
M  V30 568 H 51.0996 3.43685 3.46023 0
M  V30 569 H 50.1046 5.15176 1.92026 0
M  V30 570 H 51.3296 6.33685 2.44171 0
M  V30 571 H 49.2756 5.00132 4.24504 0
M  V30 572 H 49.1926 6.6244 3.64293 0
M  V30 573 H 50.4606 6.18282 4.74708 0
M  V30 574 N 54.6897 -0.239769 1.55765 0
M  V30 575 C 55.6377 -1.31668 1.91745 0
M  V30 576 C 56.6317 -1.49462 0.797338 0
M  V30 577 O 57.8377 -1.50852 0.982021 0
M  V30 578 H 54.2127 -0.441048 0.609082 0
M  V30 579 H 56.1837 -0.985923 2.81642 0
M  V30 580 C 54.9327 -2.66368 2.2348 0
M  V30 581 H 54.2557 -2.53478 3.09175 0
M  V30 582 H 55.6957 -3.40578 2.52553 0
M  V30 583 C 54.1547 -3.20002 1.05359 0
M  V30 584 O 54.6847 -4.00538 0.305261 0
M  V30 585 N 52.8907 -2.78126 0.842292 0
M  V30 586 H 52.4377 -2.12742 1.45253 0
M  V30 587 H 52.3957 -3.14354 0.053652 0
M  V30 588 N 56.1678 -1.49265 -0.50573 0
M  V30 589 C 57.4138 -1.59723 -1.25937 0
M  V30 590 C 57.7688 -0.278236 -1.90378 0
M  V30 591 O 57.0618 0.72113 -1.77511 0
M  V30 592 C 57.2558 -2.69008 -2.35308 0
M  V30 593 C 57.0848 -4.11405 -1.81592 0
M  V30 594 C 55.8548 -4.78252 -1.63105 0
M  V30 595 C 58.0528 -4.96792 -1.33048 0
M  V30 596 N 56.0348 -6.0498 -1.04269 0
M  V30 597 C 57.4058 -6.13962 -0.863168 0
M  V30 598 C 59.4608 -4.82828 -1.21577 0
M  V30 599 C 58.1638 -7.18705 -0.292489 0
M  V30 600 C 60.1898 -5.87716 -0.65907 0
M  V30 601 C 59.5518 -7.0411 -0.201954 0
M  V30 602 H 55.6508 -0.638864 -0.450973 0
M  V30 603 H 58.2348 -1.86251 -0.567326 0
M  V30 604 H 56.4058 -2.4426 -3.01979 0
M  V30 605 H 58.1378 -2.69013 -3.02348 0
M  V30 606 H 54.8928 -4.34974 -1.87336 0
M  V30 607 H 55.3168 -6.72631 -0.767919 0
M  V30 608 H 59.9588 -3.93159 -1.55518 0
M  V30 609 H 57.6768 -8.08078 0.0591987 0
M  V30 610 H 61.2628 -5.7897 -0.573156 0
M  V30 611 H 60.1428 -7.83885 0.222101 0
M  V30 612 N 57.6459 0.756429 -1.3826 0
M  V30 613 C 58.5929 1.87011 -1.35261 0
M  V30 614 C 59.5629 1.64695 -0.215616 0
M  V30 615 O 60.7479 1.864 -0.407399 0
M  V30 616 C 57.8879 3.24275 -1.18068 0
M  V30 617 C 57.0009 3.58442 -2.41129 0
M  V30 618 C 56.1359 4.84994 -2.16689 0
M  V30 619 C 55.1749 5.11939 -3.35537 0
M  V30 620 N 54.3119 6.29685 -3.10549 0
M  V30 621 H 59.1519 1.8891 -2.30472 0
M  V30 622 H 56.6889 0.923373 -1.14509 0
M  V30 623 H 58.6469 4.03479 -1.06116 0
M  V30 624 H 57.2769 3.21711 -0.264973 0
M  V30 625 H 56.3289 2.74103 -2.63764 0
M  V30 626 H 57.6409 3.74283 -3.29717 0
M  V30 627 H 56.7949 5.72135 -2.01857 0
M  V30 628 H 55.5339 4.71286 -1.25462 0
M  V30 629 H 54.5389 4.23268 -3.50891 0
M  V30 630 H 55.7639 5.27546 -4.27635 0
M  V30 631 H 53.7099 6.17306 -2.21967 0
M  V30 632 H 53.6269 6.46014 -3.92686 0
M  V30 633 H 54.8949 7.19722 -2.99367 0
M  V30 634 N 59.124 1.23083 0.984299 0
M  V30 635 C 60.034 1.02515 2.11016 0
M  V30 636 C 61.05 -0.0291702 1.73976 0
M  V30 637 O 62.226 0.165434 2.00719 0
M  V30 638 C 59.291 0.614673 3.41208 0
M  V30 639 C 58.352 1.74359 3.92297 0
M  V30 640 C 57.585 1.35261 5.16275 0
M  V30 641 O 57.808 0.235136 5.69915 0
M  V30 642 O 56.742 2.17227 5.61334 0
M  V30 643 H 60.568 1.96862 2.31255 0
M  V30 644 H 58.153 1.01753 1.09392 0
M  V30 645 H 60.035 0.396518 4.1953 0
M  V30 646 H 58.71 -0.299851 3.22308 0
M  V30 647 H 57.617 2.01635 3.1511 0
M  V30 648 H 58.95 2.63629 4.15645 0
M  V30 649 N 60.6021 -1.18246 1.0419 0
M  V30 650 C 61.5121 -2.25574 0.644476 0
M  V30 651 C 62.5281 -1.70845 -0.329826 0
M  V30 652 O 63.7041 -2.00554 -0.184443 0
M  V30 653 C 60.7691 -3.46697 0.014877 0
M  V30 654 C 59.8301 -4.16554 1.03834 0
M  V30 655 C 59.0631 -5.31894 0.438692 0
M  V30 656 O 59.2861 -5.65385 -0.754752 0
M  V30 657 O 58.2201 -5.90459 1.168 0
M  V30 658 H 62.0461 -2.61836 1.53869 0
M  V30 659 H 59.6311 -1.25352 0.812854 0
M  V30 660 H 61.5131 -4.20062 -0.335538 0
M  V30 661 H 60.1881 -3.12255 -0.853138 0
M  V30 662 H 59.0951 -3.45251 1.44057 0
M  V30 663 H 60.4281 -4.54998 1.87716 0
M  V30 664 N 62.0802 -0.821533 -1.34494 0
M  V30 665 C 63.3052 -0.420873 -2.03085 0
M  V30 666 C 63.7302 0.964915 -1.61465 0
M  V30 667 O 63.0882 1.62763 -0.798607 0
M  V30 668 C 63.1362 -0.529414 -3.56693 0
M  V30 669 O 62.2402 0.451302 -4.09923 0
M  V30 670 H 61.5812 -0.173489 -0.640935 0
M  V30 671 H 64.1112 -1.11157 -1.71771 0
M  V30 672 H 64.1212 -0.404671 -4.05988 0
M  V30 673 H 62.7962 -1.54014 -3.86332 0
M  V30 674 H 61.3732 0.285558 -3.71805 0
M  V30 675 N 63.5583 1.46682 -0.576371 0
M  V30 676 C 64.8353 1.95599 0.00703437 0
M  V30 677 C 65.2153 1.51904 1.46589 0
M  V30 678 O 64.5633 0.766755 2.15251 0
M  V30 679 C 64.7733 3.4864 -0.158404 0
M  V30 680 C 66.1213 4.24594 -0.0229439 0
M  V30 681 O 67.1453 3.56094 -0.0869173 0
M  V30 682 O 66.0043 5.46373 0.118015 0
M  V30 683 H 63.0983 0.825275 0.053384 0
M  V30 684 H 65.6443 1.56996 -0.644244 0
M  V30 685 H 64.4163 3.7331 -1.17282 0
M  V30 686 H 64.0393 3.94057 0.5296 0
M  V30 687 N 65.0364 0.313813 1.54444 0
M  V30 688 C 66.4524 -0.0391619 1.59552 0
M  V30 689 C 66.6524 -1.51322 1.33056 0
M  V30 690 O 65.7084 -2.26782 1.11022 0
M  V30 691 C 67.0214 0.370302 2.98411 0
M  V30 692 C 68.5694 0.320139 3.11358 0
M  V30 693 C 69.0444 0.704617 4.52547 0
M  V30 694 N 70.5354 0.657645 4.58508 0
M  V30 695 C 71.2704 0.927453 5.6585 0
M  V30 696 N 70.7664 1.26389 6.81174 0
M  V30 697 N 72.5594 0.853662 5.5558 0
M  V30 698 H 64.7104 1.27433 1.69925 0
M  V30 699 H 66.9734 0.517511 0.794284 0
M  V30 700 H 66.6794 1.39694 3.22767 0
M  V30 701 H 66.5534 -0.269619 3.76235 0
M  V30 702 H 68.9404 -0.697275 2.86744 0
M  V30 703 H 69.0214 0.99486 2.35661 0
M  V30 704 H 68.6654 1.7199 4.77893 0
M  V30 705 H 68.5954 0.00768843 5.26599 0
M  V30 706 H 71.0864 0.409067 3.75679 0
M  V30 707 H 71.3994 1.4554 7.58972 0
M  V30 708 H 69.7444 1.30206 6.82694 0
M  V30 709 H 72.9354 0.590383 4.64362 0
M  V30 710 H 73.1084 1.0673 6.3915 0
M  V30 711 N 66.5145 -1.57545 0.0417849 0
M  V30 712 C 67.4615 -2.10977 -0.935805 0
M  V30 713 C 68.4315 -1.01486 -1.31491 0
M  V30 714 O 69.6165 -1.2898 -1.40602 0
M  V30 715 C 66.7565 -2.65169 -2.2086 0
M  V30 716 C 65.8695 -3.88714 -1.88482 0
M  V30 717 C 65.0045 -4.31254 -3.1015 0
M  V30 718 C 64.0435 -5.47524 -2.7365 0
M  V30 719 N 63.1805 -5.85162 -3.87982 0
M  V30 720 H 68.0205 -2.94218 -0.473249 0
M  V30 721 H 65.5575 -1.45415 -0.221981 0
M  V30 722 H 67.5155 -2.94685 -2.95325 0
M  V30 723 H 66.1455 -1.8474 -2.64709 0
M  V30 724 H 65.1975 -3.65849 -1.04205 0
M  V30 725 H 66.5095 -4.73245 -1.57608 0
M  V30 726 H 65.6635 -4.62273 -3.92923 0
M  V30 727 H 64.4025 -3.45516 -3.44195 0
M  V30 728 H 63.4075 -5.16187 -1.89291 0
M  V30 729 H 64.6325 -6.34971 -2.40807 0
M  V30 730 H 62.5785 -5.02377 -4.21846 0
M  V30 731 H 62.4955 -6.64362 -3.60775 0
M  V30 732 H 63.7635 -6.20791 -4.71422 0
M  V30 733 N 67.9926 0.231505 -1.5589 0
M  V30 734 C 69.2416 0.955346 -1.7764 0
M  V30 735 C 69.5546 1.85893 -0.608546 0
M  V30 736 O 70.7606 2.62067 -0.70943 0
M  V30 737 C 69.2166 1.74886 -3.14552 0
M  V30 738 C 68.8246 0.891915 -4.39032 0
M  V30 739 C 70.5686 2.46452 -3.45633 0
M  V30 740 C 68.4756 1.68221 -5.66971 0
M  V30 741 H 67.4056 0.360446 -0.662265 0
M  V30 742 H 70.0566 0.209516 -1.823 0
M  V30 743 H 68.4386 2.53723 -3.04041 0
M  V30 744 H 69.6126 0.144793 -4.60572 0
M  V30 745 H 67.9276 0.288863 -4.15397 0
M  V30 746 H 70.5246 3.06061 -4.38441 0
M  V30 747 H 70.8676 3.18841 -2.67668 0
M  V30 748 H 71.4006 1.74613 -3.57428 0
M  V30 749 H 68.1396 1.00178 -6.478 0
M  V30 750 H 67.6596 2.4042 -5.49507 0
M  V30 751 H 69.3386 2.24544 -6.06786 0
M  V30 752 N 69.4707 1.49531 0.497807 0
M  V30 753 C 70.4037 1.61043 1.6168 0
M  V30 754 C 71.3817 0.459386 1.55976 0
M  V30 755 O 72.5657 0.675358 1.75986 0
M  V30 756 C 69.6927 1.56833 3.00202 0
M  V30 757 C 68.7387 2.77173 3.24156 0
M  V30 758 S 69.5717 4.38808 3.06933 0
M  V30 759 C 70.7277 4.37248 4.47845 0
M  V30 760 H 70.9607 2.55702 1.51671 0
M  V30 761 H 68.4937 1.38462 0.683201 0
M  V30 762 H 70.4517 1.55089 3.80076 0
M  V30 763 H 69.1127 0.634561 3.07623 0
M  V30 764 H 68.3057 2.70456 4.25288 0
M  V30 765 H 67.9077 2.76346 2.5201 0
M  V30 766 H 70.1997 4.09164 5.39992 0
M  V30 767 H 71.1427 5.38668 4.59612 0
M  V30 768 H 71.5507 3.67286 4.28674 0
M  V30 769 N 70.9488 -0.749086 1.3866 0
M  V30 770 C 71.8808 -1.87273 1.32142 0
M  V30 771 C 72.8938 -1.61127 0.232787 0
M  V30 772 O 74.0828 -1.71623 0.49069 0
M  V30 773 C 71.1828 -3.23005 1.02571 0
M  V30 774 C 70.3558 -3.7662 2.22433 0
M  V30 775 C 69.4148 -4.90879 1.89537 0
M  V30 776 O 68.4408 -5.05276 2.62078 0
M  V30 777 N 69.6428 -5.74198 0.853031 0
M  V30 778 H 72.4078 -1.93373 2.28969 0
M  V30 779 H 69.9688 -0.929216 1.32579 0
M  V30 780 H 71.9608 -3.96992 0.786085 0
M  V30 781 H 70.5308 -3.12262 0.145249 0
M  V30 782 H 69.7508 -2.94147 2.62434 0
M  V30 783 H 71.0388 -4.09173 3.02415 0
M  V30 784 H 70.4368 -5.6514 0.25155 0
M  V30 785 H 68.9938 -6.48313 0.67329 0
M  V30 786 N 72.4269 -1.23603 -0.977757 0
M  V30 787 C 73.6519 -1.09735 -1.75991 0
M  V30 788 C 74.0769 0.346858 -1.84874 0
M  V30 789 O 73.4349 1.25093 -1.3123 0
M  V30 790 C 73.4829 -1.73051 -3.16363 0
M  V30 791 O 72.5869 -0.994452 -4.0023 0
M  V30 792 H 71.9279 -0.384476 -0.541364 0
M  V30 793 H 74.4579 -1.6371 -1.2272 0
M  V30 794 H 74.4679 -1.78398 -3.66931 0
M  V30 795 H 73.1429 -2.78137 -3.09213 0
M  V30 796 H 71.7199 -1.01812 -3.58732 0
M  V30 797 N 73.905 1.17692 -1.04816 0
M  V30 798 C 74.837 2.21103 -0.603822 0
M  V30 799 C 75.85 1.59411 0.33046 0
M  V30 800 O 77.039 1.7807 0.12379 0
M  V30 801 C 74.139 3.38623 0.136898 0
M  V30 802 C 73.312 4.29888 -0.807137 0
M  V30 803 C 72.371 5.26088 -0.10836 0
M  V30 804 O 71.397 5.64353 -0.741232 0
M  V30 805 N 72.599 5.68882 1.15558 0
M  V30 806 H 75.364 2.59848 -1.49329 0
M  V30 807 H 72.925 1.32553 -0.929587 0
M  V30 808 H 74.917 4.00009 0.614401 0
M  V30 809 H 73.487 2.98508 0.927993 0
M  V30 810 H 72.707 3.65993 -1.46434 0
M  V30 811 H 73.995 4.87759 -1.44807 0
M  V30 812 H 73.393 5.39861 1.69015 0
M  V30 813 H 71.95 6.32429 1.57722 0
M  V30 814 N 75.3831 0.828654 1.34056 0
M  V30 815 C 76.6321 0.415828 1.97367 0
M  V30 816 C 76.9451 -1.02796 1.6641 0
M  V30 817 O 78.1511 -1.54497 2.23255 0
M  V30 818 C 76.6071 0.692601 3.53173 0
M  V30 819 C 76.2151 2.15038 3.93017 0
M  V30 820 C 77.9591 0.346222 4.23086 0
M  V30 821 C 75.8661 2.37174 5.41758 0
M  V30 822 H 74.7961 0.151755 0.738571 0
M  V30 823 H 77.4471 1.01581 1.52819 0
M  V30 824 H 75.8291 0.0223764 3.95994 0
M  V30 825 H 77.0031 2.86024 3.61285 0
M  V30 826 H 75.3181 2.45875 3.36057 0
M  V30 827 H 77.9151 0.48937 5.32456 0
M  V30 828 H 78.2581 -0.709842 4.10204 0
M  V30 829 H 78.7911 0.971258 3.85761 0
M  V30 830 H 75.5301 3.41308 5.59633 0
M  V30 831 H 75.0501 1.70738 5.74986 0
M  V30 832 H 76.7291 2.19818 6.08514 0
M  V30 833 N 76.8612 -1.46375 0.584142 0
M  V30 834 C 78.1072 -2.02678 0.0703716 0
M  V30 835 C 78.4402 -1.4545 -1.28678 0
M  V30 836 O 77.7152 -0.62014 -1.84349 0
M  V30 837 C 77.9982 -3.60099 0.00614674 0
M  V30 838 C 77.8512 -4.27709 1.3923 0
M  V30 839 C 79.1702 -4.34598 -0.693742 0
M  V30 840 H 76.2892 -0.736504 0.027047 0
M  V30 841 H 78.9312 -1.74501 0.751615 0
M  V30 842 H 77.0812 -3.84236 -0.574009 0
M  V30 843 H 78.7532 -4.14832 2.01773 0
M  V30 844 H 76.9962 -3.87016 1.95962 0
M  V30 845 H 77.6672 -5.36478 1.29982 0
M  V30 846 H 80.1432 -4.15615 -0.200869 0
M  V30 847 H 79.0192 -5.44318 -0.707714 0
M  V30 848 H 79.2802 -4.05759 -1.75533 0
M  V30 849 N 78.3393 -0.321999 -1.54275 0
M  V30 850 C 79.5643 0.285791 -2.05422 0
M  V30 851 C 79.9893 1.45124 -1.19669 0
M  V30 852 O 79.3473 1.80132 -0.205441 0
M  V30 853 C 79.3953 0.69956 -3.53749 0
M  V30 854 O 78.4993 1.8021 -3.70942 0
M  V30 855 H 77.8403 0.0518962 -0.661969 0
M  V30 856 H 80.3703 -0.469954 -1.9913 0
M  V30 857 H 80.3803 0.982649 -3.9599 0
M  V30 858 H 79.0553 -0.152864 -4.15619 0
M  V30 859 H 77.6323 1.51794 -3.40607 0
M  V30 860 N 79.8174 1.5752 -0.0501392 0
M  V30 861 C 81.0644 1.9265 0.623874 0
M  V30 862 C 81.3924 0.928411 1.70912 0
M  V30 863 O 80.6474 -0.0594525 1.9561 0
M  V30 864 C 80.9464 3.34467 1.25963 0
M  V30 865 C 80.6124 4.49883 0.302689 0
M  V30 866 C 79.2744 4.81184 0.0393636 0
M  V30 867 C 81.6264 5.20002 -0.353205 0
M  V30 868 C 78.9544 5.79951 -0.887308 0
M  V30 869 C 81.3064 6.1976 -1.26806 0
M  V30 870 C 79.9704 6.49491 -1.54007 0
M  V30 871 H 79.2404 0.704957 0.228292 0
M  V30 872 H 81.8874 1.91146 -0.116398 0
M  V30 873 H 80.1924 3.32333 2.07514 0
M  V30 874 H 81.8894 3.58928 1.78806 0
M  V30 875 H 78.4794 4.25457 0.518109 0
M  V30 876 H 82.6634 4.96033 -0.162854 0
M  V30 877 H 77.9194 6.01322 -1.10553 0
M  V30 878 H 82.0934 6.73205 -1.78236 0
M  V30 879 H 79.7204 7.25837 -2.25976 0
M  V30 880 N 81.2955 -0.223234 1.56011 0
M  V30 881 C 82.5255 -0.963413 1.82762 0
M  V30 882 C 82.9335 -1.78516 0.626804 0
M  V30 883 O 82.2765 -1.78974 -0.414014 0
M  V30 884 C 82.3385 -1.93126 3.0322 0
M  V30 885 C 82.0025 -1.2942 4.38291 0
M  V30 886 C 82.9995 -0.684916 5.15369 0
M  V30 887 C 80.6845 -1.30647 4.85012 0
M  V30 888 C 82.6785 -0.0963971 6.37327 0
M  V30 889 C 80.3655 -0.71411 6.06913 0
M  V30 890 C 81.3635 -0.110123 6.82911 0
M  V30 891 O 81.0515 0.47303 8.02507 0
M  V30 892 H 80.7835 -0.288011 0.611576 0
M  V30 893 H 83.3375 -0.244103 2.03944 0
M  V30 894 H 81.5675 -2.68952 2.77852 0
M  V30 895 H 83.2565 -2.53685 3.16857 0
M  V30 896 H 84.0225 -0.667774 4.80381 0
M  V30 897 H 79.9015 -1.76598 4.25833 0
M  V30 898 H 83.4455 0.375657 6.96588 0
M  V30 899 H 79.3425 -0.728659 6.41374 0
M  V30 900 H 80.1105 0.367186 8.17676 0
M  V30 901 N 82.7736 -1.49793 -0.48987 0
M  V30 902 C 84.0206 -1.59841 -1.24327 0
M  V30 903 C 84.3486 -0.290135 -1.92324 0
M  V30 904 O 83.6036 0.722749 -1.81865 0
M  V30 905 C 83.9026 -2.71488 -2.32441 0
M  V30 906 C 83.5686 -4.12614 -1.81826 0
M  V30 907 C 82.2306 -4.51017 -1.67742 0
M  V30 908 C 84.5826 -5.00892 -1.4407 0
M  V30 909 C 81.9106 -5.75459 -1.14297 0
M  V30 910 C 84.2626 -6.25863 -0.920742 0
M  V30 911 C 82.9266 -6.63086 -0.766383 0
M  V30 912 H 82.1966 -0.584899 -0.454944 0
M  V30 913 H 84.8436 -1.83663 -0.542215 0
M  V30 914 H 83.1486 -2.4168 -3.0838 0
M  V30 915 H 84.8456 -2.76469 -2.90458 0
M  V30 916 H 81.4356 -3.82307 -1.93751 0
M  V30 917 H 85.6196 -4.7187 -1.53794 0
M  V30 918 H 80.8756 -6.02989 -1.01068 0
M  V30 919 H 85.0496 -6.9364 -0.619448 0
M  V30 920 H 82.6766 -7.59393 -0.350083 0
M  V30 921 N 84.2517 0.741722 -1.39055 0
M  V30 922 C 85.1987 1.85566 -1.37237 0
M  V30 923 C 86.1687 1.64457 -0.233072 0
M  V30 924 O 87.3537 1.85957 -0.427147 0
M  V30 925 C 84.4937 3.23004 -1.215 0
M  V30 926 C 83.6067 3.55864 -2.44918 0
M  V30 927 C 82.7417 4.82669 -2.21821 0
M  V30 928 C 81.7807 5.08351 -3.40948 0
M  V30 929 N 80.9177 6.26356 -3.17211 0
M  V30 930 H 85.7577 1.86455 -2.32462 0
M  V30 931 H 83.2947 0.911176 -1.15482 0
M  V30 932 H 85.2527 4.02331 -1.10389 0
M  V30 933 H 83.8827 3.21411 -0.29908 0
M  V30 934 H 82.9347 2.7129 -2.66657 0
M  V30 935 H 84.2467 3.70765 -3.33668 0
M  V30 936 H 83.4007 5.69962 -2.07914 0
M  V30 937 H 82.1397 4.69929 -1.30454 0
M  V30 938 H 81.1447 4.19522 -3.55361 0
M  V30 939 H 82.3697 5.22981 -4.33207 0
M  V30 940 H 80.3157 6.14917 -2.28502 0
M  V30 941 H 80.2327 6.41813 -3.99515 0
M  V30 942 H 81.5007 7.16506 -3.06984 0
M  V30 943 N 85.7298 1.2412 0.971189 0
M  V30 944 C 86.6598 1.05508 2.08304 0
M  V30 945 C 87.6408 -0.0308864 1.70072 0
M  V30 946 O 88.8258 0.135521 1.93727 0
M  V30 947 C 85.9558 0.655365 3.4106 0
M  V30 948 C 84.9098 1.68971 3.93234 0
M  V30 949 C 84.2358 1.14516 5.22293 0
M  V30 950 C 85.5358 3.08487 4.21465 0
M  V30 951 H 87.2298 1.98507 2.24132 0
M  V30 952 H 84.7758 0.955821 1.07704 0
M  V30 953 H 86.7288 0.51217 4.18276 0
M  V30 954 H 85.4528 -0.31032 3.25122 0
M  V30 955 H 84.1118 1.82106 3.18171 0
M  V30 956 H 83.7598 0.170189 5.02712 0
M  V30 957 H 83.4598 1.83635 5.58168 0
M  V30 958 H 84.9838 1.01401 6.02121 0
M  V30 959 H 86.3978 2.98601 4.89398 0
M  V30 960 H 84.7948 3.74926 4.68562 0
M  V30 961 H 85.8648 3.56787 3.28376 0
M  V30 962 N 87.2079 -1.17134 1.05439 0
M  V30 963 C 88.4549 -1.87456 0.765942 0
M  V30 964 C 88.7829 -1.81189 -0.707153 0
M  V30 965 O 88.0379 -1.21633 -1.5331 0
M  V30 966 C 88.3369 -3.36833 1.19491 0
M  V30 967 C 88.0029 -3.63301 2.67063 0
M  V30 968 C 86.6649 -3.70234 3.07376 0
M  V30 969 C 89.0169 -3.74575 3.62413 0
M  V30 970 C 86.3449 -3.85933 4.41896 0
M  V30 971 C 88.6969 -3.91793 4.9667 0
M  V30 972 C 87.3609 -3.96966 5.36633 0
M  V30 973 H 86.6309 -0.685948 0.280278 0
M  V30 974 H 89.2779 -1.38556 1.32192 0
M  V30 975 H 87.5829 -3.87807 0.557969 0
M  V30 976 H 89.2799 -3.89611 0.948893 0
M  V30 977 H 85.8699 -3.58532 2.34846 0
M  V30 978 H 90.0539 -3.68537 3.32406 0
M  V30 979 H 85.3099 -3.88187 4.72357 0
M  V30 980 H 89.4839 -3.99458 5.70444 0
M  V30 981 H 87.1109 -4.08883 6.40874 0
M  V30 982 N 88.686 -0.835752 -1.33615 0
M  V30 983 C 89.633 -0.26473 -2.29277 0
M  V30 984 C 90.603 0.617712 -1.54187 0
M  V30 985 O 91.788 0.556641 -1.825 0
M  V30 986 C 88.928 0.556777 -3.40579 0
M  V30 987 C 88.041 -0.349339 -4.30585 0
M  V30 988 C 87.176 0.482969 -5.29 0
M  V30 989 C 86.215 -0.421732 -6.10645 0
M  V30 990 N 85.352 0.372262 -7.01112 0
M  V30 991 H 90.192 -1.08582 -2.77514 0
M  V30 992 H 87.729 -0.546927 -1.36554 0
M  V30 993 H 89.687 1.04852 -4.03809 0
M  V30 994 H 88.317 1.34286 -2.93542 0
M  V30 995 H 87.369 -0.959372 -3.68104 0
M  V30 996 H 88.681 -1.04445 -4.87742 0
M  V30 997 H 87.835 1.03866 -5.97743 0
M  V30 998 H 86.574 1.21153 -4.72412 0
M  V30 999 H 85.579 -0.989464 -5.40823 0
M  V30 1000 H 86.804 -1.14861 -6.69316 0
M  V30 1001 H 84.75 1.08426 -6.46977 0
M  V30 1002 H 84.667 -0.264198 -7.55538 0
M  V30 1003 H 85.935 0.910293 -7.74167 0
M  V30 1004 N 90.1641 1.46063 -0.591896 0
M  V30 1005 C 91.1121 2.32124 0.148739 0
M  V30 1006 C 92.1061 1.45035 0.875286 0
M  V30 1007 O 93.3121 1.61609 0.792632 0
M  V30 1008 H 89.6871 0.749024 0.066832 0
M  V30 1009 H 91.6581 2.92392 -0.595783 0
M  V30 1010 C 90.4071 3.28373 1.1431 0
M  V30 1011 H 89.7301 3.95371 0.59346 0
M  V30 1012 H 91.1701 3.91352 1.63155 0
M  V30 1013 C 89.6291 2.54393 2.20875 0
M  V30 1014 O 90.1591 2.31373 3.28374 0
M  V30 1015 N 88.3651 2.14797 1.95731 0
M  V30 1016 H 87.9121 2.33719 1.08319 0
M  V30 1017 H 87.8701 1.65619 2.67241 0
M  V30 1018 N 91.6422 0.330177 1.54103 0
M  V30 1019 C 92.8892 -0.270405 2.00686 0
M  V30 1020 C 93.2172 -1.51621 1.21825 0
M  V30 1021 O 92.4722 -1.93536 0.29025 0
M  V30 1022 C 92.7712 -0.643134 3.51566 0
M  V30 1023 C 92.4372 0.504251 4.48072 0
M  V30 1024 C 91.0992 0.819163 4.74176 0
M  V30 1025 C 93.4512 1.27465 5.05373 0
M  V30 1026 C 90.7792 1.90708 5.5484 0
M  V30 1027 C 93.1312 2.35271 5.87223 0
M  V30 1028 C 91.7952 2.67336 6.11627 0
M  V30 1029 H 91.0652 -0.0989482 0.734364 0
M  V30 1030 H 93.7122 0.455324 1.86008 0
M  V30 1031 H 92.0172 -1.44938 3.64006 0
M  V30 1032 H 93.7142 -1.11949 3.85056 0
M  V30 1033 H 90.3042 0.248733 4.27878 0
M  V30 1034 H 94.4882 1.04462 4.85182 0
M  V30 1035 H 89.7442 2.15991 5.71977 0
M  V30 1036 H 93.9182 2.95405 6.30641 0
M  V30 1037 H 91.5452 3.51763 6.73919 0
M  V30 1038 N 93.1203 -1.57491 0.0584922 0
M  V30 1039 C 94.0673 -2.11958 -0.913376 0
M  V30 1040 C 95.0373 -1.02875 -1.30407 0
M  V30 1041 O 96.2223 -1.30464 -1.39226 0
M  V30 1042 C 93.3623 -2.67497 -2.18035 0
M  V30 1043 C 92.4753 -3.90691 -1.84349 0
M  V30 1044 C 91.6103 -4.3452 -3.05559 0
M  V30 1045 C 90.6493 -5.50395 -2.67827 0
M  V30 1046 N 89.7863 -5.89244 -3.81754 0
M  V30 1047 H 94.6263 -2.94704 -0.442017 0
M  V30 1048 H 92.1633 -1.45643 -0.206545 0
M  V30 1049 H 94.1213 -2.978 -2.92183 0
M  V30 1050 H 92.7513 -1.87537 -2.62735 0
M  V30 1051 H 91.8033 -3.66934 -1.00319 0
M  V30 1052 H 93.1153 -4.7489 -1.5258 0
M  V30 1053 H 92.2693 -4.66414 -3.87998 0
M  V30 1054 H 91.0083 -3.49147 -3.40511 0
M  V30 1055 H 90.0133 -5.18165 -1.83806 0
M  V30 1056 H 91.2383 -6.3749 -2.34059 0
M  V30 1057 H 89.1843 -5.06823 -4.16493 0
M  V30 1058 H 89.1013 -6.68151 -3.53708 0
M  V30 1059 H 90.3693 -6.25756 -4.64811 0
M  V30 1060 N 94.5984 0.214957 -1.56127 0
M  V30 1061 C 95.8754 0.963093 -1.70247 0
M  V30 1062 C 96.2554 2.02166 -0.60764 0
M  V30 1063 O 95.6034 2.25244 0.384385 0
M  V30 1064 C 95.8134 1.56756 -3.11815 0
M  V30 1065 C 97.1614 2.0573 -3.7143 0
M  V30 1066 O 98.1854 1.66637 -3.14818 0
M  V30 1067 O 97.0444 2.77603 -4.70743 0
M  V30 1068 H 94.1384 0.450321 -0.693643 0
M  V30 1069 H 96.6844 0.206219 -1.68442 0
M  V30 1070 H 95.4564 0.803533 -3.82961 0
M  V30 1071 H 95.0794 2.3898 -3.17765 0
M  V30 1072 N 96.0765 1.50051 0.48192 0
M  V30 1073 C 97.3535 1.51009 1.2432 0
M  V30 1074 C 97.7335 0.248587 2.09631 0
M  V30 1075 O 97.0815 -0.768409 2.15192 0
M  V30 1076 C 97.2915 2.79981 2.08355 0
M  V30 1077 C 98.6395 3.3022 2.66908 0
M  V30 1078 O 99.6635 2.81228 2.18607 0
M  V30 1079 O 98.5225 4.15595 3.54884 0
M  V30 1080 H 95.6165 0.605239 0.563573 0
M  V30 1081 H 98.1625 1.62332 0.494627 0
M  V30 1082 H 96.9345 3.63275 1.45419 0
M  V30 1083 H 96.5575 2.7161 2.90368 0
M  V30 1084 N 97.5546 -0.734337 1.39446 0
M  V30 1085 C 98.4866 -1.85861 1.34121 0
M  V30 1086 C 99.4996 -1.60871 0.249864 0
M  V30 1087 O 100.689 -1.71093 0.508865 0
M  V30 1088 C 97.7886 -3.21899 1.05991 0
M  V30 1089 C 96.9616 -3.74239 2.26415 0
M  V30 1090 C 96.0206 -4.88841 1.94733 0
M  V30 1091 O 95.0466 -5.02468 2.67422 0
M  V30 1092 N 96.2486 -5.73261 0.913884 0
M  V30 1093 H 99.0136 -1.90934 2.31007 0
M  V30 1094 H 96.5746 -0.915102 1.33557 0
M  V30 1095 H 98.5666 -3.96136 0.828147 0
M  V30 1096 H 97.1366 -3.12091 0.178361 0
M  V30 1097 H 96.3566 -2.91347 2.65539 0
M  V30 1098 H 97.6446 -4.05942 3.06738 0
M  V30 1099 H 97.0426 -5.64842 0.311476 0
M  V30 1100 H 95.5996 -6.47563 0.742015 0
M  V30 1101 N 99.0327 -1.24633 -0.964593 0
M  V30 1102 C 100.258 -1.11596 -1.74818 0
M  V30 1103 C 100.683 0.32723 -1.85232 0
M  V30 1104 O 100.041 1.23695 -1.32549 0
M  V30 1105 C 100.089 -1.76397 -3.1451 0
M  V30 1106 O 99.1927 -1.03685 -3.99153 0
M  V30 1107 H 98.5337 -0.390196 -0.537255 0
M  V30 1108 H 101.064 -1.65002 -1.20977 0
M  V30 1109 H 101.074 -1.8228 -3.65018 0
M  V30 1110 H 99.7487 -2.81401 -3.06246 0
M  V30 1111 H 98.3257 -1.05611 -3.57632 0
M  V30 1112 N 100.511 1.16574 -1.06058 0
M  V30 1113 C 101.76 1.86385 -0.770944 0
M  V30 1114 C 102.073 1.82448 0.705129 0
M  V30 1115 O 103.279 2.47815 1.10905 0
M  V30 1116 C 101.735 3.34466 -1.32893 0
M  V30 1117 C 101.343 3.46883 -2.83507 0
M  V30 1118 C 103.087 4.09548 -1.11672 0
M  V30 1119 C 100.994 4.89036 -3.32562 0
M  V30 1120 H 99.9238 0.698181 -0.284709 0
M  V30 1121 H 102.575 1.31583 -1.27899 0
M  V30 1122 H 100.957 3.88859 -0.748662 0
M  V30 1123 H 102.131 3.02663 -3.47465 0
M  V30 1124 H 100.446 2.85232 -3.03368 0
M  V30 1125 H 103.043 5.14434 -1.45814 0
M  V30 1126 H 103.386 4.16264 -0.0549535 0
M  V30 1127 H 103.919 3.61387 -1.66265 0
M  V30 1128 H 100.658 4.87499 -4.38207 0
M  V30 1129 H 100.178 5.3389 -2.73351 0
M  V30 1130 H 101.857 5.57843 -3.2775 0
M  V30 1131 N 101.989 0.842826 1.3317 0
M  V30 1132 C 102.921 0.236245 2.27979 0
M  V30 1133 C 103.934 -0.585282 1.51915 0
M  V30 1134 O 105.123 -0.411705 1.73687 0
M  V30 1135 C 102.223 -0.685717 3.3189 0
M  V30 1136 C 101.396 0.0973448 4.37292 0
M  V30 1137 C 100.455 -0.748565 5.20848 0
M  V30 1138 O 99.4809 -0.186339 5.68895 0
M  V30 1139 N 100.683 -2.06527 5.42519 0
M  V30 1140 H 103.448 1.05088 2.80672 0
M  V30 1141 H 101.009 0.701667 1.45905 0
M  V30 1142 H 103.001 -1.25669 3.84694 0
M  V30 1143 H 101.571 -1.40105 2.79445 0
M  V30 1144 H 100.791 0.849706 3.84933 0
M  V30 1145 H 102.079 0.635643 5.04814 0
M  V30 1146 H 101.477 -2.54554 5.05192 0
M  V30 1147 H 100.034 -2.58464 5.98364 0
M  V30 1148 N 103.467 -1.45747 0.599634 0
M  V30 1149 C 104.414 -2.30467 -0.123849 0
M  V30 1150 C 105.384 -1.41632 -0.86774 0
M  V30 1151 O 106.569 -1.70568 -0.855056 0
M  V30 1152 C 103.709 -3.26402 -1.12051 0
M  V30 1153 C 102.822 -4.3034 -0.37832 0
M  V30 1154 C 101.957 -5.13389 -1.364 0
M  V30 1155 C 100.996 -6.09061 -0.609171 0
M  V30 1156 N 100.133 -6.84918 -1.54374 0
M  V30 1157 H 104.973 -2.91802 0.604627 0
M  V30 1158 H 102.51 -1.43797 0.309972 0
M  V30 1159 H 104.468 -3.80482 -1.7114 0
M  V30 1160 H 103.098 -2.66839 -1.8165 0
M  V30 1161 H 102.15 -3.78984 0.327929 0
M  V30 1162 H 103.462 -4.98354 0.210997 0
M  V30 1163 H 102.616 -5.7183 -2.02719 0
M  V30 1164 H 101.355 -4.45376 -1.98725 0
M  V30 1165 H 100.36 -5.49758 0.0676979 0
M  V30 1166 H 101.585 -6.79099 0.00891991 0
M  V30 1167 H 99.531 -6.19601 -2.15478 0
M  V30 1168 H 99.448 -7.49254 -1.00766 0
M  V30 1169 H 100.716 -7.47906 -2.19676 0
M  V30 1170 N 104.945 -0.338344 -1.53925 0
M  V30 1171 C 106.17 0.263987 -2.05713 0
M  V30 1172 C 106.595 1.43847 -1.21201 0
M  V30 1173 O 105.953 1.79904 -0.224535 0
M  V30 1174 C 106.001 0.662 -3.54471 0
M  V30 1175 O 105.105 1.76265 -3.72833 0
M  V30 1176 H 104.446 0.0448722 -0.662482 0
M  V30 1177 H 106.976 -0.491048 -1.9862 0
M  V30 1178 H 106.986 0.940594 -3.9701 0
M  V30 1179 H 105.661 -0.196937 -4.15433 0
M  V30 1180 H 104.238 1.48173 -3.42198 0
M  V30 1181 N 106.423 1.57458 -0.0668435 0
M  V30 1182 C 107.669 1.93587 0.6043 0
M  V30 1183 C 108.002 0.946722 1.69561 0
M  V30 1184 O 107.277 -0.0248516 1.94484 0
M  V30 1185 C 107.56 3.40014 1.18585 0
M  V30 1186 C 107.413 4.49685 0.101529 0
M  V30 1187 C 108.732 3.87154 2.09284 0
M  V30 1188 H 105.851 0.703958 0.218202 0
M  V30 1189 H 108.493 1.89542 -0.131804 0
M  V30 1190 H 106.643 3.43592 1.81319 0
M  V30 1191 H 108.315 4.5823 -0.531279 0
M  V30 1192 H 106.558 4.30059 -0.568487 0
M  V30 1193 H 107.229 5.49266 0.54874 0
M  V30 1194 H 109.705 3.85551 1.56491 0
M  V30 1195 H 108.581 4.90231 2.46911 0
M  V30 1196 H 108.842 3.2481 2.99918 0
M  V30 1197 N 107.901 -0.206675 1.56239 0
M  V30 1198 C 108.811 -1.27686 1.96808 0
M  V30 1199 C 109.827 -1.50455 0.874035 0
M  V30 1200 O 111.003 -1.63295 1.17884 0
M  V30 1201 C 108.068 -2.60358 2.28942 0
M  V30 1202 C 107.129 -2.45762 3.51994 0
M  V30 1203 C 106.362 -3.72108 3.82585 0
M  V30 1204 O 106.585 -4.75776 3.14631 0
M  V30 1205 O 105.519 -3.6833 4.76043 0
M  V30 1206 H 109.345 -0.962593 2.88041 0
M  V30 1207 H 106.93 -0.410746 1.43643 0
M  V30 1208 H 108.812 -3.38687 2.50737 0
M  V30 1209 H 107.487 -2.91435 1.4088 0
M  V30 1210 H 106.394 -1.65584 3.35459 0
M  V30 1211 H 107.727 -2.19621 4.40486 0
M  V30 1212 N 109.379 -1.50304 -0.473955 0
M  V30 1213 C 110.607 -1.64902 -1.24959 0
M  V30 1214 C 111.022 -0.331198 -1.85872 0
M  V30 1215 O 110.379 0.68652 -1.69095 0
M  V30 1216 C 110.43 -2.73803 -2.36038 0
M  V30 1217 O 110.151 -4.00477 -1.77624 0
M  V30 1218 C 111.652 -2.99349 -3.26964 0
M  V30 1219 H 108.872 -0.554383 -0.378022 0
M  V30 1220 H 111.416 -1.9651 -0.566054 0
M  V30 1221 H 109.571 -2.44898 -3.00173 0
M  V30 1222 H 109.985 -4.60678 -2.5075 0
M  V30 1223 H 111.459 -3.79217 -4.01121 0
M  V30 1224 H 111.936 -2.10307 -3.85574 0
M  V30 1225 H 112.542 -3.29774 -2.68569 0
M  V30 1226 N 110.857 0.726932 -1.39834 0
M  V30 1227 C 112.106 1.48214 -1.36805 0
M  V30 1228 C 112.419 1.95576 0.0305291 0
M  V30 1229 O 113.625 2.7088 0.183417 0
M  V30 1230 C 112.081 2.67854 -2.40379 0
M  V30 1231 C 111.689 2.27408 -3.85992 0
M  V30 1232 C 113.433 3.45641 -2.46439 0
M  V30 1233 C 111.34 3.43819 -4.81189 0
M  V30 1234 H 110.27 0.556606 -0.508631 0
M  V30 1235 H 112.921 0.792216 -1.65518 0
M  V30 1236 H 111.303 3.3896 -2.04749 0
M  V30 1237 H 112.477 1.63795 -4.30706 0
M  V30 1238 H 110.792 1.62692 -3.83302 0
M  V30 1239 H 113.389 4.32244 -3.14753 0
M  V30 1240 H 113.732 3.88669 -1.49139 0
M  V30 1241 H 114.265 2.8157 -2.81004 0
M  V30 1242 H 111.004 3.05834 -5.79781 0
M  V30 1243 H 110.524 4.06385 -4.41148 0
M  V30 1244 H 112.203 4.10043 -5.00474 0
M  V30 1245 N 112.336 1.25143 0.95797 0
M  V30 1246 C 113.283 1.05235 2.05412 0
M  V30 1247 C 114.253 -0.0374561 1.66058 0
M  V30 1248 O 115.438 0.119073 1.90428 0
M  V30 1249 C 112.578 0.673589 3.38462 0
M  V30 1250 C 111.691 1.8379 3.90954 0
M  V30 1251 C 110.826 1.40381 5.12315 0
M  V30 1252 C 109.865 2.53746 5.57027 0
M  V30 1253 N 109.002 2.11136 6.69601 0
M  V30 1254 H 113.842 1.99048 2.21774 0
M  V30 1255 H 111.379 0.991277 1.08683 0
M  V30 1256 H 113.337 0.434964 4.14926 0
M  V30 1257 H 111.967 -0.227554 3.21997 0
M  V30 1258 H 111.019 2.18992 3.11041 0
M  V30 1259 H 112.331 2.68937 4.20089 0
M  V30 1260 H 111.485 1.12464 5.96185 0
M  V30 1261 H 110.224 0.523015 4.84887 0
M  V30 1262 H 109.229 2.82412 4.71724 0
M  V30 1263 H 110.454 3.42398 5.86464 0
M  V30 1264 H 108.4 1.25468 6.4389 0
M  V30 1265 H 108.317 2.89832 6.98236 0
M  V30 1266 H 109.585 1.86385 7.56889 0
M  V30 1267 N 113.814 -1.1601 1.06675 0
M  V30 1268 C 114.724 -2.24156 0.692179 0
M  V30 1269 C 115.74 -1.71507 -0.293513 0
M  V30 1270 O 116.916 -2.009 -0.141861 0
M  V30 1271 C 113.981 -3.46587 0.0884131 0
M  V30 1272 C 113.042 -4.14257 1.12646 0
M  V30 1273 C 112.275 -5.30844 0.551416 0
M  V30 1274 O 112.498 -5.66858 -0.634656 0
M  V30 1275 O 111.432 -5.87848 1.29298 0
M  V30 1276 H 115.258 -2.58513 1.59388 0
M  V30 1277 H 112.843 -1.23599 0.83926 0
M  V30 1278 H 114.725 -4.20679 -0.246361 0
M  V30 1279 H 113.4 -3.13994 -0.786712 0
M  V30 1280 H 112.307 -3.42118 1.51348 0
M  V30 1281 H 113.64 -4.50914 1.97325 0
M  V30 1282 N 115.292 -0.849877 -1.32721 0
M  V30 1283 C 116.569 -0.372405 -1.92022 0
M  V30 1284 C 116.949 1.1435 -1.77447 0
M  V30 1285 O 116.297 1.96296 -1.16962 0
M  V30 1286 C 116.507 -0.831482 -3.3895 0
M  V30 1287 C 117.855 -0.845882 -4.16089 0
M  V30 1288 O 118.879 -0.775806 -3.47649 0
M  V30 1289 O 117.738 -0.943753 -5.38289 0
M  V30 1290 H 114.832 -0.107667 -0.819961 0
M  V30 1291 H 117.378 -0.93646 -1.41522 0
M  V30 1292 H 116.15 -1.87448 -3.4348 0
M  V30 1293 H 115.773 -0.24461 -3.96847 0
M  V30 1294 N 116.77 1.45427 -0.607355 0
M  V30 1295 C 117.703 2.27635 0.160482 0
M  V30 1296 C 118.681 1.37122 0.873857 0
M  V30 1297 O 119.865 1.66551 0.882775 0
M  V30 1298 C 116.992 3.15486 1.23231 0
M  V30 1299 C 116.038 4.21939 0.622097 0
M  V30 1300 S 116.871 5.32459 -0.569852 0
M  V30 1301 C 118.027 6.23879 0.502577 0
M  V30 1302 H 118.26 2.9241 -0.536983 0
M  V30 1303 H 115.793 1.49265 -0.394868 0
M  V30 1304 H 117.751 3.66659 1.84585 0
M  V30 1305 H 116.412 2.49977 1.90185 0
M  V30 1306 H 115.605 4.8333 1.42856 0
M  V30 1307 H 115.207 3.73906 0.0837063 0
M  V30 1308 H 117.499 6.63261 1.38171 0
M  V30 1309 H 118.442 7.0806 -0.0751759 0
M  V30 1310 H 118.85 5.58545 0.8178 0
M  V30 1311 N 118.248 0.346503 1.53744 0
M  V30 1312 C 119.196 -0.52422 2.26616 0
M  V30 1313 C 120.19 -1.09948 1.28871 0
M  V30 1314 O 121.396 -1.04488 1.46568 0
M  V30 1315 H 117.771 -0.187743 0.728187 0
M  V30 1316 H 119.742 0.11239 2.98188 0
M  V30 1317 C 118.491 -1.66186 3.05414 0
M  V30 1318 H 117.814 -1.22848 3.80458 0
M  V30 1319 H 119.254 -2.24622 3.59612 0
M  V30 1320 C 117.713 -2.59302 2.1509 0
M  V30 1321 O 118.243 -3.61628 1.74895 0
M  V30 1322 N 116.449 -2.28055 1.8011 0
M  V30 1323 H 115.996 -1.44883 2.12994 0
M  V30 1324 H 115.954 -2.90615 1.19958 0
M  V30 1325 N 119.726 -1.57421 0.075193 0
M  V30 1326 C 120.972 -1.93905 -0.594025 0
M  V30 1327 C 121.305 -0.955701 -1.69056 0
M  V30 1328 O 120.58 0.0145373 -1.94495 0
M  V30 1329 C 120.863 -3.40638 -1.1678 0
M  V30 1330 C 120.716 -4.49733 -0.0776792 0
M  V30 1331 C 122.035 -3.88259 -2.07228 0
M  V30 1332 H 119.154 -0.705105 -0.214466 0
M  V30 1333 H 121.796 -1.8947 0.141854 0
M  V30 1334 H 119.946 -3.44549 -1.79494 0
M  V30 1335 H 121.618 -4.57942 0.555573 0
M  V30 1336 H 119.861 -4.29751 0.591286 0
M  V30 1337 H 120.532 -5.49549 -0.519603 0
M  V30 1338 H 123.008 -3.86376 -1.54445 0
M  V30 1339 H 121.884 -4.91533 -2.44308 0
M  V30 1340 H 122.145 -3.26396 -2.98191 0
M  V30 1341 N 121.204 0.198386 -1.56346 0
M  V30 1342 C 122.151 1.24589 -1.94284 0
M  V30 1343 C 123.121 1.454 -0.802997 0
M  V30 1344 O 124.306 1.58588 -1.06087 0
M  V30 1345 C 121.446 2.58631 -2.28482 0
M  V30 1346 C 120.559 2.45426 -3.55514 0
M  V30 1347 C 119.694 3.7215 -3.79049 0
M  V30 1348 C 118.733 3.53763 -4.99518 0
M  V30 1349 N 117.87 4.72491 -5.19323 0
M  V30 1350 H 122.71 0.915356 -2.83593 0
M  V30 1351 H 120.247 0.440629 -1.40346 0
M  V30 1352 H 122.205 3.3672 -2.46324 0
M  V30 1353 H 120.835 2.89734 -1.42317 0
M  V30 1354 H 119.887 1.58652 -3.45737 0
M  V30 1355 H 121.199 2.27772 -4.43758 0
M  V30 1356 H 120.353 4.58679 -3.97113 0
M  V30 1357 H 119.092 3.92754 -2.89129 0
M  V30 1358 H 118.097 2.65619 -4.8138 0
M  V30 1359 H 119.322 3.34607 -5.90944 0
M  V30 1360 H 117.268 4.93365 -4.3235 0
M  V30 1361 H 117.185 4.5765 -6.01741 0
M  V30 1362 H 118.453 5.6038 -5.41843 0
M  V30 1363 N 122.682 1.50554 0.465978 0
M  V30 1364 C 123.929 1.61798 1.21768 0
M  V30 1365 C 124.257 0.320696 1.91838 0
M  V30 1366 O 123.512 -0.693724 1.82992 0
M  V30 1367 C 123.811 2.75152 2.28093 0
M  V30 1368 C 123.477 4.15454 1.75239 0
M  V30 1369 C 122.139 4.53628 1.60546 0
M  V30 1370 C 124.491 5.03121 1.36083 0
M  V30 1371 C 121.819 5.77204 1.05128 0
M  V30 1372 C 124.171 6.27249 0.821056 0
M  V30 1373 C 122.835 6.64221 0.660795 0
M  V30 1374 H 122.105 0.592063 0.445582 0
M  V30 1375 H 124.752 1.84503 0.512927 0
M  V30 1376 H 123.057 2.46556 3.04496 0
M  V30 1377 H 124.754 2.81055 2.86023 0
M  V30 1378 H 121.344 3.85341 1.87644 0
M  V30 1379 H 125.528 4.74257 1.46267 0
M  V30 1380 H 120.784 6.0452 0.91462 0
M  V30 1381 H 124.958 6.94537 0.509018 0
M  V30 1382 H 122.585 7.59854 0.229226 0
M  V30 1383 N 124.16 -0.719506 1.40217 0
M  V30 1384 C 125.407 -1.47933 1.38283 0
M  V30 1385 C 125.735 -1.94493 -0.0161536 0
M  V30 1386 O 124.99 -1.68224 -0.999956 0
M  V30 1387 C 125.289 -2.72271 2.31524 0
M  V30 1388 C 124.955 -2.44496 3.78857 0
M  V30 1389 C 123.617 -2.36631 4.18998 0
M  V30 1390 C 125.969 -2.21104 4.71977 0
M  V30 1391 C 123.297 -2.03437 5.503 0
M  V30 1392 C 125.649 -1.89423 6.03574 0
M  V30 1393 C 124.313 -1.80038 6.42762 0
M  V30 1394 H 123.583 -0.541325 0.506012 0
M  V30 1395 H 126.23 -0.824502 1.72842 0
M  V30 1396 H 124.535 -3.42572 1.90137 0
M  V30 1397 H 126.232 -3.30348 2.27313 0
M  V30 1398 H 122.822 -2.51503 3.47051 0
M  V30 1399 H 127.006 -2.26139 4.41786 0
M  V30 1400 H 122.262 -1.94705 5.79569 0
M  V30 1401 H 126.436 -1.70336 6.75247 0
M  V30 1402 H 124.063 -1.54083 7.44421 0
M  V30 1403 N 125.638 -1.25649 -0.95132 0
M  V30 1404 C 126.586 -1.06118 -2.06982 0
M  V30 1405 C 127.58 0.00889169 -1.69398 0
M  V30 1406 O 128.786 -0.146988 -1.79399 0
M  V30 1407 H 125.161 -0.326248 -0.677544 0
M  V30 1408 H 127.132 -2.00932 -2.2061 0
M  V30 1409 C 125.881 -0.700145 -3.40578 0
M  V30 1410 H 125.204 -1.51537 -3.69968 0
M  V30 1411 H 126.644 -0.603211 -4.19687 0
M  V30 1412 C 125.103 0.59403 -3.31622 0
M  V30 1413 O 125.633 1.63522 -3.66911 0
M  V30 1414 N 123.839 0.58089 -2.84735 0
M  V30 1415 H 123.386 -0.266783 -2.56215 0
M  V30 1416 H 123.344 1.44695 -2.79125 0
M  V30 1417 N 127.117 1.15442 -1.07289 0
M  V30 1418 C 128.342 1.90638 -0.816828 0
M  V30 1419 C 128.767 1.77445 0.624083 0
M  V30 1420 O 128.125 1.10671 1.43602 0
M  V30 1421 C 128.173 3.39008 -1.22906 0
M  V30 1422 O 127.277 4.10701 -0.373975 0
M  V30 1423 H 126.618 0.593555 -0.297638 0
M  V30 1424 H 129.148 1.46198 -1.43134 0
M  V30 1425 H 129.158 3.89801 -1.20497 0
M  V30 1426 H 127.833 3.47929 -2.27856 0
M  V30 1427 H 126.41 3.70046 -0.460499 0
M  V30 1428 N 128.595 0.856903 1.32268 0
M  V30 1429 C 129.543 0.291987 2.3076 0
M  V30 1430 C 130.537 -0.585857 1.58947 0
M  V30 1431 O 131.743 -0.47341 1.73663 0
M  V30 1432 H 128.118 0.075721 0.748178 0
M  V30 1433 H 130.089 1.13687 2.75895 0
M  V30 1434 C 128.838 -0.502869 3.44044 0
M  V30 1435 H 128.161 0.163328 3.99466 0
M  V30 1436 H 129.601 -0.863691 4.1511 0
M  V30 1437 C 128.06 -1.68898 2.91505 0
M  V30 1438 O 128.59 -2.78811 2.89184 0
M  V30 1439 N 126.796 -1.51679 2.47875 0
M  V30 1440 H 126.343 -0.622666 2.49961 0
M  V30 1441 H 126.301 -2.31184 2.13076 0
M  V30 1442 N 130.073 -1.45103 0.615059 0
M  V30 1443 C 131.02 -2.30586 -0.0993978 0
M  V30 1444 C 131.99 -1.42544 -0.852669 0
M  V30 1445 O 133.175 -1.71465 -0.836917 0
M  V30 1446 C 130.315 -3.27572 -1.08583 0
M  V30 1447 C 129.428 -4.30717 -0.332656 0
M  V30 1448 C 128.563 -5.14807 -1.30947 0
M  V30 1449 C 127.602 -6.09673 -0.544538 0
M  V30 1450 N 126.739 -6.86517 -1.47101 0
M  V30 1451 H 131.579 -2.91144 0.635542 0
M  V30 1452 H 129.116 -1.4346 0.325206 0
M  V30 1453 H 131.074 -3.82276 -1.67095 0
M  V30 1454 H 129.704 -2.68751 -1.78809 0
M  V30 1455 H 128.756 -3.78615 0.368107 0
M  V30 1456 H 130.068 -4.98102 0.263842 0
M  V30 1457 H 129.222 -5.73948 -1.96643 0
M  V30 1458 H 127.961 -4.47458 -1.9399 0
M  V30 1459 H 126.966 -5.49656 0.126003 0
M  V30 1460 H 128.191 -6.79052 0.080947 0
M  V30 1461 H 126.137 -6.21851 -2.08895 0
M  V30 1462 H 126.054 -7.50281 -0.928137 0
M  V30 1463 H 127.322 -7.50194 -2.11731 0
M  V30 1464 N 131.551 -0.354651 -1.53558 0
M  V30 1465 C 132.498 0.496968 -2.25386 0
M  V30 1466 C 133.468 1.0865 -1.25636 0
M  V30 1467 O 134.653 1.12104 -1.54394 0
M  V30 1468 C 131.793 1.63637 -3.03837 0
M  V30 1469 C 130.906 1.07307 -4.18461 0
M  V30 1470 C 130.041 2.18068 -4.84376 0
M  V30 1471 C 129.08 1.59147 -5.91049 0
M  V30 1472 N 128.217 2.63695 -6.50699 0
M  V30 1473 H 133.057 -0.122075 -2.9775 0
M  V30 1474 H 130.594 -0.0720154 -1.46924 0
M  V30 1475 H 132.552 2.30734 -3.47589 0
M  V30 1476 H 131.182 2.22623 -2.33749 0
M  V30 1477 H 130.234 0.292708 -3.79272 0
M  V30 1478 H 131.546 0.602193 -4.95152 0
M  V30 1479 H 130.7 2.93007 -5.31255 0
M  V30 1480 H 129.439 2.68504 -4.07133 0
M  V30 1481 H 128.444 0.827175 -5.43542 0
M  V30 1482 H 129.669 1.09549 -6.70206 0
M  V30 1483 H 127.615 3.13365 -5.76315 0
M  V30 1484 H 127.532 2.21263 -7.22896 0
M  V30 1485 H 128.8 3.3837 -7.02229 0
M  V30 1486 N 133.029 1.57378 -0.0835403 0
M  V30 1487 C 133.976 2.13384 0.879539 0
M  V30 1488 C 134.946 1.04936 1.28754 0
M  V30 1489 O 136.131 1.32662 1.37133 0
M  V30 1490 C 133.271 2.70932 2.13752 0
M  V30 1491 C 132.384 3.93575 1.7811 0
M  V30 1492 C 131.519 4.39326 2.98607 0
M  V30 1493 C 130.558 5.54587 2.59037 0
M  V30 1494 N 129.695 5.95243 3.72331 0
M  V30 1495 H 134.535 2.9537 0.395076 0
M  V30 1496 H 132.072 1.45953 0.183349 0
M  V30 1497 H 134.03 3.02411 2.87408 0
M  V30 1498 H 132.66 1.91693 2.59718 0
M  V30 1499 H 131.712 3.68483 0.94469 0
M  V30 1500 H 133.024 4.77258 1.45005 0
M  V30 1501 H 132.178 4.72528 3.80529 0
M  V30 1502 H 130.917 3.5452 3.34913 0
M  V30 1503 H 129.922 5.21024 1.75539 0
M  V30 1504 H 131.147 6.41133 2.23887 0
M  V30 1505 H 129.093 5.13385 4.08378 0
M  V30 1506 H 129.01 6.73694 3.43034 0
M  V30 1507 H 130.278 6.33072 4.54797 0
M  V30 1508 N 134.507 -0.190092 1.56449 0
M  V30 1509 C 135.923 -0.54113 1.50146 0
M  V30 1510 C 136.123 -1.85603 0.784465 0
M  V30 1511 O 135.179 -2.5024 0.337051 0
M  V30 1512 C 136.492 -0.591241 2.9483 0
M  V30 1513 C 138.04 -0.679732 3.0553 0
M  V30 1514 C 138.515 -0.760908 4.51635 0
M  V30 1515 N 140.006 -0.824302 4.55806 0
M  V30 1516 C 140.741 -0.907365 5.66175 0
M  V30 1517 N 140.237 -0.952422 6.86222 0
M  V30 1518 N 142.03 -0.94494 5.541 0
M  V30 1519 H 134.181 0.67235 2.01478 0
M  V30 1520 H 136.444 0.240127 0.917084 0
M  V30 1521 H 136.15 0.305905 3.50367 0
M  V30 1522 H 136.024 -1.44422 3.48457 0
M  V30 1523 H 138.411 -1.56731 2.50039 0
M  V30 1524 H 138.492 0.199549 2.5502 0
M  V30 1525 H 138.136 0.122336 5.07753 0
M  V30 1526 H 138.066 -1.65606 4.99882 0
M  V30 1527 H 140.557 -0.798526 3.69367 0
M  V30 1528 H 140.87 -1.01645 7.66086 0
M  V30 1529 H 139.215 -0.921014 6.8887 0
M  V30 1530 H 142.406 -0.906612 4.59236 0
M  V30 1531 H 142.579 -1.00622 6.4014 0
M  V30 1532 N 135.985 -1.50799 -0.457987 0
M  V30 1533 C 137.262 -1.52968 -1.21902 0
M  V30 1534 C 137.642 -0.281906 -2.09209 0
M  V30 1535 O 136.99 0.734076 -2.16388 0
M  V30 1536 C 137.2 -2.8326 -2.03875 0
M  V30 1537 C 138.548 -3.34425 -2.6162 0
M  V30 1538 O 139.572 -2.8467 -2.14106 0
M  V30 1539 O 138.431 -4.21188 -3.48228 0
M  V30 1540 H 135.525 -0.614129 -0.553873 0
M  V30 1541 H 138.071 -1.63098 -0.468739 0
M  V30 1542 H 136.843 -3.65543 -1.39621 0
M  V30 1543 H 136.466 -2.76195 -2.8601 0
M  V30 1544 N 137.463 0.71206 -1.40597 0
M  V30 1545 C 138.74 1.46536 -1.29563 0
M  V30 1546 C 139.12 2.10931 0.0844217 0
M  V30 1547 O 138.468 2.00418 1.0975 0
M  V30 1548 C 138.678 2.49821 -2.43701 0
M  V30 1549 C 140.026 3.15551 -2.841 0
M  V30 1550 O 141.05 2.60142 -2.4332 0
M  V30 1551 O 139.909 4.15867 -3.54566 0
M  V30 1552 H 137.003 0.651801 -0.509004 0
M  V30 1553 H 139.549 0.743935 -1.52524 0
M  V30 1554 H 138.321 2.00778 -3.35863 0
M  V30 1555 H 137.944 3.29495 -2.22528 0
M  V30 1556 N 138.941 1.26152 0.944643 0
M  V30 1557 C 140.188 1.11492 1.69044 0
M  V30 1558 C 140.516 -0.342366 1.91463 0
M  V30 1559 O 139.771 -1.26812 1.49054 0
M  V30 1560 C 140.07 1.82541 3.07268 0
M  V30 1561 C 139.736 3.32445 3.04616 0
M  V30 1562 C 138.398 3.73337 3.036 0
M  V30 1563 C 140.75 4.28171 2.97185 0
M  V30 1564 C 138.078 5.08348 2.92915 0
M  V30 1565 C 140.43 5.63218 2.88041 0
M  V30 1566 C 139.094 6.03426 2.85366 0
M  V30 1567 H 138.364 0.407977 0.618576 0
M  V30 1568 H 141.011 1.56551 1.10291 0
M  V30 1569 H 139.316 1.29941 3.69625 0
M  V30 1570 H 141.013 1.68642 3.63815 0
M  V30 1571 H 137.603 2.99915 3.06185 0
M  V30 1572 H 141.787 3.97563 2.97081 0
M  V30 1573 H 137.043 5.38667 2.89219 0
M  V30 1574 H 141.217 6.37078 2.81254 0
M  V30 1575 H 138.844 7.07999 2.76842 0
M  V30 1576 N 140.419 -1.14872 1.07899 0
M  V30 1577 C 141.329 -2.2341 0.715915 0
M  V30 1578 C 142.345 -1.71808 -0.275306 0
M  V30 1579 O 143.521 -2.01039 -0.120545 0
M  V30 1580 C 140.586 -3.46474 0.125168 0
M  V30 1581 C 139.647 -4.13039 1.17034 0
M  V30 1582 C 138.88 -5.30229 0.607688 0
M  V30 1583 O 139.103 -5.675 -0.574497 0
M  V30 1584 O 138.037 -5.86444 1.35526 0
M  V30 1585 H 141.863 -2.56808 1.62121 0
M  V30 1586 H 139.448 -1.22702 0.852322 0
M  V30 1587 H 141.33 -4.20917 -0.201729 0
M  V30 1588 H 140.005 -3.14811 -0.753364 0
M  V30 1589 H 138.912 -3.40493 1.54968 0
M  V30 1590 H 140.245 -4.48796 2.02097 0
M  V30 1591 N 141.898 -0.863906 -1.31812 0
M  V30 1592 C 142.845 -0.313303 -2.28664 0
M  V30 1593 C 143.815 0.584868 -1.55462 0
M  V30 1594 O 145 0.517805 -1.83639 0
M  V30 1595 C 142.14 0.48441 -3.41683 0
M  V30 1596 C 141.253 -0.440594 -4.29747 0
M  V30 1597 C 140.388 0.370652 -5.29905 0
M  V30 1598 C 139.427 -0.551164 -6.09613 0
M  V30 1599 N 138.564 0.223462 -7.01744 0
M  V30 1600 H 143.404 -1.14444 -2.75148 0
M  V30 1601 H 140.941 -0.575769 -1.35364 0
M  V30 1602 H 142.899 0.962627 -4.05943 0
M  V30 1603 H 141.529 1.28029 -2.96325 0
M  V30 1604 H 140.581 -1.03724 -3.65986 0
M  V30 1605 H 141.893 -1.14767 -4.85417 0
M  V30 1606 H 141.047 0.911638 -5.99812 0
M  V30 1607 H 139.786 1.11105 -4.74876 0
M  V30 1608 H 138.791 -1.10396 -5.38603 0
M  V30 1609 H 140.016 -1.29032 -6.66729 0
M  V30 1610 H 137.962 0.946787 -6.49132 0
M  V30 1611 H 137.879 -0.424399 -7.54808 0
M  V30 1612 H 139.147 0.745876 -7.75923 0
M  V30 1613 N 143.376 1.44774 -0.622745 0
M  V30 1614 C 144.306 2.33382 0.0741861 0
M  V30 1615 C 145.287 1.47719 0.843387 0
M  V30 1616 O 146.472 1.76458 0.810934 0
M  V30 1617 C 143.602 3.30663 1.06204 0
M  V30 1618 C 142.556 4.26079 0.405037 0
M  V30 1619 C 141.882 5.13165 1.5022 0
M  V30 1620 C 143.182 5.1781 -0.683414 0
M  V30 1621 H 144.876 2.91905 -0.665713 0
M  V30 1622 H 142.422 1.40363 -0.321587 0
M  V30 1623 H 144.375 3.9153 1.55827 0
M  V30 1624 H 143.099 2.70331 1.83272 0
M  V30 1625 H 141.758 3.66532 -0.0704683 0
M  V30 1626 H 141.406 4.49191 2.26355 0
M  V30 1627 H 141.106 5.77812 1.06803 0
M  V30 1628 H 142.63 5.76902 2.00041 0
M  V30 1629 H 144.044 5.72661 -0.270631 0
M  V30 1630 H 142.441 5.91015 -1.04023 0
M  V30 1631 H 143.511 4.59326 -1.55395 0
M  V30 1632 N 144.854 0.36279 1.53368 0
M  V30 1633 C 146.082 -0.228613 2.05633 0
M  V30 1634 C 146.497 -1.42676 1.23649 0
M  V30 1635 O 145.854 -1.80394 0.27647 0
M  V30 1636 C 145.905 -0.624845 3.56059 0
M  V30 1637 O 145.626 0.525675 4.34935 0
M  V30 1638 C 147.127 -1.27493 4.24571 0
M  V30 1639 H 144.347 -0.0407183 0.669763 0
M  V30 1640 H 146.891 0.520352 1.97769 0
M  V30 1641 H 145.046 -1.32373 3.64083 0
M  V30 1642 H 145.46 0.205969 5.24095 0
M  V30 1643 H 146.934 -1.50277 5.31151 0
M  V30 1644 H 147.411 -2.23439 3.78116 0
M  V30 1645 H 148.017 -0.617558 4.20792 0
M  V30 1646 N 146.332 -1.57332 0.0918853 0
M  V30 1647 C 147.28 -2.15075 -0.885747 0
M  V30 1648 C 148.274 -1.09277 -1.29441 0
M  V30 1649 O 149.48 -1.27627 -1.26931 0
M  V30 1650 H 145.855 -0.687966 -0.303656 0
M  V30 1651 H 147.826 -2.96047 -0.373995 0
M  V30 1652 C 146.575 -2.74325 -2.13638 0
M  V30 1653 H 145.898 -3.55418 -1.8308 0
M  V30 1654 H 147.338 -3.183 -2.80109 0
M  V30 1655 C 145.797 -1.70062 -2.90827 0
M  V30 1656 O 146.327 -1.13763 -3.85254 0
M  V30 1657 N 144.533 -1.40628 -2.54307 0
M  V30 1658 H 144.08 -1.866 -1.7759 0
M  V30 1659 H 144.038 -0.711043 -3.06254 0
M  V30 1660 N 147.81 0.181792 -1.56548 0
M  V30 1661 C 149.04 0.914618 -1.85252 0
M  V30 1662 C 149.448 1.76791 -0.673914 0
M  V30 1663 O 148.791 1.80009 0.366416 0
M  V30 1664 C 148.853 1.85019 -3.08234 0
M  V30 1665 C 148.517 1.17754 -4.41569 0
M  V30 1666 C 149.514 0.548035 -5.17003 0
M  V30 1667 C 147.199 1.17742 -4.88305 0
M  V30 1668 C 149.193 -0.0726128 -6.37359 0
M  V30 1669 C 146.88 0.552946 -6.08593 0
M  V30 1670 C 147.878 -0.070978 -6.82963 0
M  V30 1671 O 147.566 -0.685635 -8.00971 0
M  V30 1672 H 147.298 0.271695 -0.618998 0
M  V30 1673 H 149.852 0.189944 -2.0452 0
M  V30 1674 H 148.082 2.61491 -2.84885 0
M  V30 1675 H 149.771 2.45195 -3.23472 0
M  V30 1676 H 150.537 0.540174 -4.81982 0
M  V30 1677 H 146.416 1.65246 -4.30366 0
M  V30 1678 H 149.96 -0.560213 -6.95347 0
M  V30 1679 H 145.857 0.558354 -6.43081 0
M  V30 1680 H 146.625 -0.58385 -8.16415 0
M  V30 1681 N 149.288 1.51039 0.449983 0
M  V30 1682 C 150.513 1.6715 1.22783 0
M  V30 1683 C 150.938 0.363081 1.84563 0
M  V30 1684 O 150.296 -0.675433 1.68249 0
M  V30 1685 C 150.344 2.77985 2.29689 0
M  V30 1686 O 149.448 2.40707 3.34864 0
M  V30 1687 H 148.789 0.557746 0.360299 0
M  V30 1688 H 151.319 1.97535 0.533005 0
M  V30 1689 H 151.329 3.01693 2.74673 0
M  V30 1690 H 150.004 3.72935 1.84098 0
M  V30 1691 H 148.581 2.27523 2.95445 0
M  V30 1692 N 150.766 -0.704594 1.40972 0
M  V30 1693 C 152.012 -1.46675 1.40051 0
M  V30 1694 C 152.345 -1.94199 0.00641102 0
M  V30 1695 O 151.62 -1.68916 -0.964235 0
M  V30 1696 C 151.903 -2.68505 2.39952 0
M  V30 1697 C 151.756 -2.26805 3.88432 0
M  V30 1698 C 153.075 -3.70686 2.37233 0
M  V30 1699 H 150.194 -0.532015 0.510028 0
M  V30 1700 H 152.836 -0.803255 1.72185 0
M  V30 1701 H 150.986 -3.25114 2.1268 0
M  V30 1702 H 152.658 -1.75592 4.26574 0
M  V30 1703 H 150.901 -1.58685 4.03734 0
M  V30 1704 H 151.572 -3.14181 4.53866 0
M  V30 1705 H 154.048 -3.23731 2.61415 0
M  V30 1706 H 152.924 -4.53553 3.09162 0
M  V30 1707 H 153.185 -4.19754 1.38777 0
M  V30 1708 N 152.244 -1.26651 -0.937939 0
M  V30 1709 C 153.472 -1.15173 -1.7188 0
M  V30 1710 C 153.887 0.292668 -1.86518 0
M  V30 1711 O 153.244 1.20014 -1.37488 0
M  V30 1712 C 153.295 -1.81925 -3.12387 0
M  V30 1713 O 153.016 -3.2072 -2.98446 0
M  V30 1714 C 154.517 -1.76442 -4.06673 0
M  V30 1715 H 151.737 -0.400911 -0.538063 0
M  V30 1716 H 154.281 -1.67332 -1.1756 0
M  V30 1717 H 152.436 -1.33696 -3.63599 0
M  V30 1718 H 152.85 -3.53802 -3.872 0
M  V30 1719 H 154.324 -2.27781 -5.02812 0
M  V30 1720 H 154.801 -0.731608 -4.33064 0
M  V30 1721 H 155.407 -2.24238 -3.61382 0
M  V30 1722 N 153.722 1.14298 -1.08507 0
M  V30 1723 C 154.999 1.81544 -0.728088 0
M  V30 1724 C 155.379 1.95838 0.78808 0
M  V30 1725 O 154.727 1.51904 1.70697 0
M  V30 1726 C 154.937 3.17169 -1.45619 0
M  V30 1727 C 156.285 3.9265 -1.61591 0
M  V30 1728 O 157.309 3.26762 -1.41793 0
M  V30 1729 O 156.168 5.10807 -1.94263 0
M  V30 1730 H 153.262 0.78491 -0.260471 0
M  V30 1731 H 155.808 1.21307 -1.18671 0
M  V30 1732 H 154.58 3.01934 -2.489 0
M  V30 1733 H 154.203 3.851 -0.989124 0
M  V30 1734 N 155.201 0.870884 1.31352 0
M  V30 1735 C 156.131 0.343096 2.30966 0
M  V30 1736 C 157.112 -0.566507 1.60389 0
M  V30 1737 O 158.297 -0.483336 1.88089 0
M  V30 1738 C 155.427 -0.455487 3.443 0
M  V30 1739 C 154.381 0.361103 4.26474 0
M  V30 1740 C 153.707 -0.563221 5.31725 0
M  V30 1741 C 155.007 1.59566 4.97329 0
M  V30 1742 H 156.701 1.17548 2.75359 0
M  V30 1743 H 154.247 0.566686 1.32381 0
M  V30 1744 H 156.2 -0.83525 4.13039 0
M  V30 1745 H 154.924 -1.32139 2.98675 0
M  V30 1746 H 153.583 0.722825 3.59403 0
M  V30 1747 H 153.231 -1.42643 4.82351 0
M  V30 1748 H 152.931 -0.0207409 5.87596 0
M  V30 1749 H 154.455 -0.939808 6.03324 0
M  V30 1750 H 155.869 1.28728 5.58661 0
M  V30 1751 H 154.266 2.07728 5.63 0
M  V30 1752 H 155.336 2.34798 4.24262 0
M  V30 1753 N 156.679 -1.44442 0.630414 0
M  V30 1754 C 157.627 -2.32437 -0.0871428 0
M  V30 1755 C 158.621 -1.47304 -0.836525 0
M  V30 1756 O 159.827 -1.63653 -0.749506 0
M  V30 1757 H 156.202 -0.750533 -0.0469495 0
M  V30 1758 H 158.173 -2.90709 0.673096 0
M  V30 1759 C 156.922 -3.31288 -1.05563 0
M  V30 1760 H 156.245 -3.96805 -0.488426 0
M  V30 1761 H 157.685 -3.9554 -1.52721 0
M  V30 1762 C 156.144 -2.6016 -2.14052 0
M  V30 1763 O 156.674 -2.39997 -3.22124 0
M  V30 1764 N 154.88 -2.19911 -1.89967 0
M  V30 1765 H 154.427 -2.36509 -1.02085 0
M  V30 1766 H 154.385 -1.72646 -2.62756 0
M  V30 1767 N 158.157 -0.370918 -1.53173 0
M  V30 1768 C 159.403 0.217423 -2.01631 0
M  V30 1769 C 159.736 1.47983 -1.25756 0
M  V30 1770 O 159.011 1.91274 -0.352764 0
M  V30 1771 C 159.294 0.503982 -3.56556 0
M  V30 1772 C 159.147 -0.77243 -4.43118 0
M  V30 1773 C 160.466 1.30234 -4.20389 0
M  V30 1774 H 157.585 0.0775486 -0.732909 0
M  V30 1775 H 160.227 -0.496863 -1.83388 0
M  V30 1776 H 158.377 1.11248 -3.72231 0
M  V30 1777 H 160.049 -1.4098 -4.39229 0
M  V30 1778 H 158.292 -1.39167 -4.10871 0
M  V30 1779 H 158.963 -0.526815 -5.4948 0
M  V30 1780 H 161.439 0.787546 -4.08579 0
M  V30 1781 H 160.315 1.47158 -5.28806 0
M  V30 1782 H 160.576 2.31237 -3.76805 0
M  V30 1783 N 159.635 1.57281 -0.100228 0
M  V30 1784 C 160.567 2.11342 0.886972 0
M  V30 1785 C 161.58 1.05182 1.24261 0
M  V30 1786 O 162.769 1.32613 1.19483 0
M  V30 1787 C 159.869 2.5825 2.19454 0
M  V30 1788 C 159.042 3.88302 2.01346 0
M  V30 1789 C 158.101 4.21004 3.15661 0
M  V30 1790 O 157.127 4.9014 2.89398 0
M  V30 1791 N 158.329 3.76818 4.41575 0
M  V30 1792 H 161.094 2.96668 0.425216 0
M  V30 1793 H 158.655 1.61678 0.0847334 0
M  V30 1794 H 160.647 2.7717 2.94888 0
M  V30 1795 H 159.217 1.77907 2.57037 0
M  V30 1796 H 158.437 3.7848 1.10212 0
M  V30 1797 H 159.725 4.73375 1.8653 0
M  V30 1798 H 159.123 3.2102 4.65792 0
M  V30 1799 H 157.68 4.00882 5.13942 0
M  V30 1800 N 161.113 -0.173488 1.56642 0
M  V30 1801 C 162.529 -0.525174 1.50712 0
M  V30 1802 C 162.729 -1.8476 0.804107 0
M  V30 1803 O 161.785 -2.49869 0.363574 0
M  V30 1804 C 163.098 -0.559937 2.95441 0
M  V30 1805 C 164.646 -0.647288 3.06234 0
M  V30 1806 C 165.121 -0.712963 4.52417 0
M  V30 1807 N 166.612 -0.775911 4.56655 0
M  V30 1808 C 167.347 -0.847264 5.67106 0
M  V30 1809 N 166.843 -0.879585 6.87194 0
M  V30 1810 N 168.636 -0.886117 5.55071 0
M  V30 1811 H 160.787 0.693681 2.00753 0
M  V30 1812 H 163.05 0.249841 0.914485 0
M  V30 1813 H 162.756 0.343049 3.50023 0
M  V30 1814 H 162.63 -1.40718 3.49969 0
M  V30 1815 H 165.017 -1.5407 2.51687 0
M  V30 1816 H 165.098 0.226586 2.54794 0
M  V30 1817 H 164.742 0.176183 5.07594 0
M  V30 1818 H 164.672 -1.60295 5.0161 0
M  V30 1819 H 167.163 -0.759304 3.70193 0
M  V30 1820 H 167.476 -0.935144 7.67121 0
M  V30 1821 H 165.821 -0.847898 6.89808 0
M  V30 1822 H 169.012 -0.857853 4.60172 0
M  V30 1823 H 169.185 -0.938263 6.41171 0
M  V30 1824 N 162.591 -1.51276 -0.441967 0
M  V30 1825 C 163.538 -1.72256 -1.53612 0
M  V30 1826 C 164.508 -0.564164 -1.56225 0
M  V30 1827 O 165.693 -0.798074 -1.73307 0
M  V30 1828 C 162.833 -1.84932 -2.91366 0
M  V30 1829 C 161.946 -3.12459 -2.98317 0
M  V30 1830 C 161.081 -3.15758 -4.27166 0
M  V30 1831 C 160.12 -4.37619 -4.27967 0
M  V30 1832 N 159.257 -4.38493 -5.48333 0
M  V30 1833 H 164.097 -2.65654 -1.35026 0
M  V30 1834 H 161.634 -1.31662 -0.656009 0
M  V30 1835 H 163.592 -1.90263 -3.7129 0
M  V30 1836 H 162.222 -0.949461 -3.08521 0
M  V30 1837 H 161.274 -3.1646 -2.11086 0
M  V30 1838 H 162.586 -4.02382 -2.94771 0
M  V30 1839 H 161.74 -3.19979 -5.15459 0
M  V30 1840 H 160.479 -2.23715 -4.33362 0
M  V30 1841 H 159.484 -4.33579 -3.38067 0
M  V30 1842 H 160.709 -5.30921 -4.23438 0
M  V30 1843 H 158.655 -3.49318 -5.55259 0
M  V30 1844 H 158.572 -5.22219 -5.46647 0
M  V30 1845 H 159.84 -4.469 -6.38671 0
M  V30 1846 N 164.069 0.697108 -1.41344 0
M  V30 1847 C 165.032 1.79281 -1.42797 0
M  V30 1848 C 166.032 1.57607 -0.318837 0
M  V30 1849 O 167.222 1.64309 -0.578642 0
M  V30 1850 C 164.354 3.17632 -1.23785 0
M  V30 1851 H 165.547 1.79385 -2.40335 0
M  V30 1852 H 163.1 0.904582 -1.27464 0
M  V30 1853 H 163.835 3.23167 -0.270814 0
M  V30 1854 H 163.62 3.34765 -2.04144 0
M  V30 1855 H 165.11 3.97617 -1.27633 0
M  V30 1856 N 165.547 1.27147 0.931209 0
M  V30 1857 C 166.796 1.12664 1.67302 0
M  V30 1858 C 167.109 -0.327718 1.92835 0
M  V30 1859 O 168.315 -0.593392 2.64936 0
M  V30 1860 C 166.771 1.9683 3.01307 0
M  V30 1861 C 166.379 3.46901 2.83485 0
M  V30 1862 C 168.123 1.90985 3.79111 0
M  V30 1863 C 166.03 4.23279 4.13024 0
M  V30 1864 H 164.96 0.41803 0.627509 0
M  V30 1865 H 167.611 1.51539 1.03481 0
M  V30 1866 H 165.993 1.50797 3.66164 0
M  V30 1867 H 167.167 4.00773 2.27415 0
M  V30 1868 H 165.482 3.54088 2.19113 0
M  V30 1869 H 168.079 2.45328 4.75098 0
M  V30 1870 H 168.422 0.882718 4.06834 0
M  V30 1871 H 168.955 2.34895 3.21044 0
M  V30 1872 H 165.694 5.26503 3.90481 0
M  V30 1873 H 165.214 3.74186 4.6877 0
M  V30 1874 H 166.893 4.32265 4.81411 0
M  V30 1875 N 167.025 -1.13721 1.09112 0
M  V30 1876 C 167.975 -2.17082 0.697091 0
M  V30 1877 C 168.959 -1.58321 -0.286923 0
M  V30 1878 O 170.151 -1.7673 -0.0978008 0
M  V30 1879 C 167.28 -3.43105 0.115729 0
M  V30 1880 C 166.366 -4.0888 1.12596 0
M  V30 1881 N 166.757 -4.4987 2.31195 0
M  V30 1882 C 165.055 -4.35471 0.963366 0
M  V30 1883 C 165.756 -5.01094 2.95431 0
M  V30 1884 N 164.732 -4.95751 2.23006 0
M  V30 1885 H 168.534 -2.46524 1.6001 0
M  V30 1886 H 166.048 -1.30481 0.966869 0
M  V30 1887 H 168.045 -4.16491 -0.184555 0
M  V30 1888 H 166.705 -3.15138 -0.78217 0
M  V30 1889 H 167.716 -4.42678 2.68806 0
M  V30 1890 H 164.393 -4.17328 0.119878 0
M  V30 1891 H 165.783 -5.4263 3.96236 0
M  V30 1892 N 168.503 -0.877838 -1.30888 0
M  V30 1893 C 169.413 -0.343096 -2.32078 0
M  V30 1894 C 170.429 0.551022 -1.65045 0
M  V30 1895 O 171.605 0.445854 -1.96403 0
M  V30 1896 C 168.67 0.439905 -3.43898 0
M  V30 1897 C 167.731 -0.483111 -4.26573 0
M  V30 1898 C 166.964 0.262616 -5.33053 0
M  V30 1899 O 167.187 1.48967 -5.50604 0
M  V30 1900 O 166.121 -0.383593 -6.00676 0
M  V30 1901 H 169.947 -1.18203 -2.79753 0
M  V30 1902 H 167.532 -0.64145 -1.34929 0
M  V30 1903 H 169.414 0.883504 -4.12034 0
M  V30 1904 H 168.089 1.25526 -2.98371 0
M  V30 1905 H 166.996 -0.975374 -3.61161 0
M  V30 1906 H 168.329 -1.26427 -4.75686 0
M  V30 1907 N 169.982 1.44106 -0.638065 0
M  V30 1908 C 170.912 2.33448 0.0494287 0
M  V30 1909 C 171.893 1.48606 0.827672 0
M  V30 1910 O 173.078 1.77308 0.792173 0
M  V30 1911 C 170.208 3.31771 1.02691 0
M  V30 1912 C 169.162 4.26485 0.359823 0
M  V30 1913 C 168.488 5.14729 1.44769 0
M  V30 1914 C 169.788 5.17056 -0.738296 0
M  V30 1915 H 171.482 2.91183 -0.696636 0
M  V30 1916 H 169.028 1.40014 -0.336456 0
M  V30 1917 H 170.981 3.93161 1.51666 0
M  V30 1918 H 169.705 2.7226 1.80395 0
M  V30 1919 H 168.364 3.66437 -0.10934 0
M  V30 1920 H 168.012 4.51566 2.21578 0
M  V30 1921 H 167.712 5.78913 1.00668 0
M  V30 1922 H 169.236 5.78991 1.93911 0
M  V30 1923 H 170.65 5.72342 -0.331354 0
M  V30 1924 H 169.047 5.89879 -1.10286 0
M  V30 1925 H 170.117 4.57652 -1.60258 0
M  V30 1926 N 171.46 0.379036 1.52974 0
M  V30 1927 C 172.709 -0.207612 2.00629 0
M  V30 1928 C 173.022 -1.48758 1.27006 0
M  V30 1929 O 174.228 -2.15365 1.65318 0
M  V30 1930 C 172.684 -0.42053 3.57435 0
M  V30 1931 C 172.292 0.845587 4.39948 0
M  V30 1932 C 174.036 -0.964102 4.13407 0
M  V30 1933 C 171.943 0.601513 5.88333 0
M  V30 1934 H 170.873 -0.0813591 0.749598 0
M  V30 1935 H 173.524 0.499853 1.76561 0
M  V30 1936 H 171.906 -1.18959 3.7771 0
M  V30 1937 H 173.08 1.61848 4.31442 0
M  V30 1938 H 171.395 1.31336 3.95145 0
M  V30 1939 H 173.992 -1.16225 5.21916 0
M  V30 1940 H 174.335 -1.93019 3.68849 0
M  V30 1941 H 174.868 -0.25487 3.96983 0
M  V30 1942 H 171.607 1.53831 6.37194 0
M  V30 1943 H 171.127 -0.132628 5.99653 0
M  V30 1944 H 172.806 0.232134 6.46583 0
M  V30 1945 N 172.938 -1.57226 0.108567 0
M  V30 1946 C 173.87 -2.11809 -0.875752 0
M  V30 1947 C 174.883 -1.05839 -1.23701 0
M  V30 1948 O 176.072 -1.33245 -1.18778 0
M  V30 1949 C 173.172 -2.59411 -2.18081 0
M  V30 1950 C 172.345 -3.89364 -1.99284 0
M  V30 1951 C 171.404 -4.22672 -3.13424 0
M  V30 1952 O 170.43 -4.91668 -2.86795 0
M  V30 1953 N 171.632 -3.79154 -4.3957 0
M  V30 1954 H 174.397 -2.9689 -0.409477 0
M  V30 1955 H 171.958 -1.61721 -0.076158 0
M  V30 1956 H 173.95 -2.7873 -2.93414 0
M  V30 1957 H 172.52 -1.79268 -2.5609 0
M  V30 1958 H 171.74 -3.79059 -1.08203 0
M  V30 1959 H 173.028 -4.74358 -1.84017 0
M  V30 1960 H 172.426 -3.23486 -4.64083 0
M  V30 1961 H 170.983 -4.03602 -5.11809 0
M  V30 1962 N 174.416 0.165178 -1.56732 0
M  V30 1963 C 175.662 0.882112 -1.82611 0
M  V30 1964 C 175.995 1.81628 -0.687378 0
M  V30 1965 O 175.27 1.92009 0.310267 0
M  V30 1966 C 175.553 1.67245 -3.18906 0
M  V30 1967 C 175.406 0.760987 -4.43316 0
M  V30 1968 C 176.725 2.63884 -3.52212 0
M  V30 1969 H 173.844 0.319242 -0.664269 0
M  V30 1970 H 176.486 0.148052 -1.89422 0
M  V30 1971 H 174.636 2.29824 -3.1323 0
M  V30 1972 H 176.308 0.147596 -4.61064 0
M  V30 1973 H 174.551 0.0694102 -4.33744 0
M  V30 1974 H 175.222 1.34962 -5.35247 0
M  V30 1975 H 177.698 2.11429 -3.58381 0
M  V30 1976 H 176.574 3.16245 -4.48643 0
M  V30 1977 H 176.835 3.44377 -2.77231 0
M  V30 1978 N 175.894 1.51508 0.433938 0
M  V30 1979 C 176.827 1.67756 1.54704 0
M  V30 1980 C 177.805 0.525127 1.53887 0
M  V30 1981 O 178.989 0.749393 1.72963 0
M  V30 1982 C 176.116 1.69424 2.9328 0
M  V30 1983 C 175.162 2.90673 3.12108 0
M  V30 1984 S 175.995 4.51431 2.88046 0
M  V30 1985 C 177.151 4.55849 4.28897 0
M  V30 1986 H 177.384 2.61904 1.40689 0
M  V30 1987 H 174.917 1.41235 0.62386 0
M  V30 1988 H 176.875 1.7107 3.73156 0
M  V30 1989 H 175.536 0.764464 3.04655 0
M  V30 1990 H 174.729 2.88251 4.13434 0
M  V30 1991 H 174.331 2.86786 2.40062 0
M  V30 1992 H 176.623 4.31699 5.22152 0
M  V30 1993 H 177.566 5.57676 4.36351 0
M  V30 1994 H 177.974 3.85137 4.12711 0
M  V30 1995 N 177.372 -0.689602 1.41712 0
M  V30 1996 C 178.335 -1.78521 1.43746 0
M  V30 1997 C 179.335 -1.57436 0.327191 0
M  V30 1998 O 180.525 -1.64 0.587348 0
M  V30 1999 C 177.657 -3.16971 1.25467 0
M  V30 2000 H 178.85 -1.78108 2.41283 0
M  V30 2001 H 176.403 -0.89781 1.27942 0
M  V30 2002 H 177.138 -3.23019 0.287948 0
M  V30 2003 H 176.923 -3.33678 2.05917 0
M  V30 2004 H 178.413 -3.96935 1.2974 0
M  V30 2005 N 178.85 -1.27639 -0.924453 0
M  V30 2006 C 179.76 -1.12466 -2.05885 0
M  V30 2007 C 180.776 -0.053869 -1.73917 0
M  V30 2008 O 181.952 -0.261012 -1.99702 0
M  V30 2009 C 179.017 -0.776768 -3.37886 0
M  V30 2010 C 178.078 -1.92878 -3.83532 0
M  V30 2011 C 177.311 -1.59739 -5.09234 0
M  V30 2012 O 177.534 -0.506782 -5.68144 0
M  V30 2013 O 176.468 -2.43761 -5.50331 0
M  V30 2014 H 180.294 -2.07671 -2.21599 0
M  V30 2015 H 177.879 -1.06857 -1.04413 0
M  V30 2016 H 179.761 -0.596229 -4.17161 0
M  V30 2017 H 178.436 0.145732 -3.23372 0
M  V30 2018 H 177.343 -2.1644 -3.0513 0
M  V30 2019 H 178.676 -2.8316 -4.02593 0
M  V30 2020 N 180.328 1.1314 -1.09713 0
M  V30 2021 C 181.258 2.20748 -0.761102 0
M  V30 2022 C 182.239 1.68061 0.262566 0
M  V30 2023 O 183.424 1.93765 0.129977 0
M  V30 2024 C 180.554 3.46812 -0.184054 0
M  V30 2025 C 179.508 4.12606 -1.13757 0
M  V30 2026 C 178.834 5.33031 -0.422083 0
M  V30 2027 C 180.134 4.59603 -2.48118 0
M  V30 2028 H 181.828 2.49113 -1.66082 0
M  V30 2029 H 179.374 1.19734 -0.799987 0
M  V30 2030 H 181.327 4.21353 0.0631215 0
M  V30 2031 H 180.051 3.17851 0.750868 0
M  V30 2032 H 178.71 3.40036 -1.37007 0
M  V30 2033 H 178.358 5.00335 0.517072 0
M  V30 2034 H 178.058 5.77999 -1.05788 0
M  V30 2035 H 179.582 6.10325 -0.183277 0
M  V30 2036 H 180.996 5.25552 -2.29059 0
M  V30 2037 H 179.393 5.15321 -3.07514 0
M  V30 2038 H 180.463 3.73971 -3.08665 0
M  V30 2039 N 181.806 0.884767 1.30421 0
M  V30 2040 C 183.031 0.517288 2.00845 0
M  V30 2041 C 183.456 -0.886779 1.65885 0
M  V30 2042 O 182.814 -1.58768 0.875354 0
M  V30 2043 C 182.862 0.698994 3.5376 0
M  V30 2044 O 181.966 -0.255208 4.1161 0
M  V30 2045 H 181.307 0.203872 0.631927 0
M  V30 2046 H 183.837 1.19225 1.66272 0
M  V30 2047 H 183.847 0.597912 4.03595 0
M  V30 2048 H 182.522 1.72271 3.78544 0
M  V30 2049 H 181.099 -0.10784 3.72744 0
M  V30 2050 N 183.284 -1.43765 0.645699 0
M  V30 2051 C 184.695 -1.85193 0.236719 0
M  V30 2052 C 185.046 -1.54045 -1.21509 0
M  V30 2053 O 184.171 -0.985694 -1.92647 0
M  V30 2054 C 184.766 -3.36151 0.422845 0
M  V30 2055 C 183.325 -3.76338 0.0682492 0
M  V30 2056 C 182.472 -2.67538 0.729306 0
M  V30 2057 H 185.423 -1.34025 0.849883 0
M  V30 2058 H 185.444 -3.79032 -0.333904 0
M  V30 2059 H 184.956 -3.5879 1.47958 0
M  V30 2060 H 183.057 -3.59312 -0.986179 0
M  V30 2061 H 183.17 -4.76603 0.488469 0
M  V30 2062 H 181.534 -2.54176 0.163235 0
M  V30 2063 H 182.317 -2.93006 1.78892 0
M  V30 2064 N 184.763 -0.387143 -1.52771 0
M  V30 2065 C 185.726 0.436939 -2.24997 0
M  V30 2066 C 186.726 0.991991 -1.26555 0
M  V30 2067 O 187.916 0.874335 -1.50669 0
M  V30 2068 C 185.048 1.61281 -3.00335 0
M  V30 2069 H 186.241 -0.195365 -2.99263 0
M  V30 2070 H 183.794 -0.139218 -1.55679 0
M  V30 2071 H 184.529 2.2826 -2.30364 0
M  V30 2072 H 184.314 1.22154 -3.72587 0
M  V30 2073 H 185.804 2.19629 -3.5518 0
M  V30 2074 N 186.241 1.57166 -0.116904 0
M  V30 2075 C 187.204 2.14039 0.819742 0
M  V30 2076 C 188.204 1.07477 1.19605 0
M  V30 2077 O 189.394 1.33263 1.1219 0
M  V30 2078 C 186.526 2.67891 2.10826 0
M  V30 2079 H 187.719 2.98128 0.325511 0
M  V30 2080 H 185.272 1.55739 0.132312 0
M  V30 2081 H 186.007 1.87384 2.64685 0
M  V30 2082 H 185.792 3.45823 1.84793 0
M  V30 2083 H 187.282 3.11809 2.77785 0
M  V30 2084 N 187.719 -0.156864 1.56817 0
M  V30 2085 C 188.666 -1.19394 1.97519 0
M  V30 2086 C 189.636 -1.4322 0.841265 0
M  V30 2087 O 190.821 -1.55719 1.10255 0
M  V30 2088 C 187.961 -2.52483 2.35258 0
M  V30 2089 C 187.074 -2.35914 3.61896 0
M  V30 2090 C 186.209 -3.61969 3.88782 0
M  V30 2091 C 185.248 -3.40395 5.08722 0
M  V30 2092 N 184.385 -4.58556 5.31668 0
M  V30 2093 H 189.225 -0.839845 2.85921 0
M  V30 2094 H 186.762 -0.403264 1.41464 0
M  V30 2095 H 188.72 -3.30071 2.55165 0
M  V30 2096 H 187.35 -2.85859 1.49949 0
M  V30 2097 H 186.402 -1.49429 3.49821 0
M  V30 2098 H 187.714 -2.15926 4.49641 0
M  V30 2099 H 186.868 -4.47989 4.09135 0
M  V30 2100 H 185.607 -3.84951 2.9944 0
M  V30 2101 H 184.612 -2.52763 4.88253 0
M  V30 2102 H 185.837 -3.18822 5.99608 0
M  V30 2103 H 183.783 -4.81729 4.45279 0
M  V30 2104 H 183.7 -4.41535 6.13664 0
M  V30 2105 H 184.968 -5.45817 5.5651 0
M  V30 2106 N 189.197 -1.51736 -0.425897 0
M  V30 2107 C 190.425 -1.68794 -1.1965 0
M  V30 2108 C 190.84 -0.390164 -1.84725 0
M  V30 2109 O 190.197 0.632376 -1.71194 0
M  V30 2110 C 190.248 -2.81174 -2.27208 0
M  V30 2111 O 189.969 -4.05925 -1.64793 0
M  V30 2112 C 191.47 -3.09599 -3.17275 0
M  V30 2113 H 188.69 -0.566128 -0.360194 0
M  V30 2114 H 191.234 -1.98211 -0.503249 0
M  V30 2115 H 189.389 -2.54324 -2.9223 0
M  V30 2116 H 189.803 -4.68423 -2.35967 0
M  V30 2117 H 191.277 -3.91786 -3.88854 0
M  V30 2118 H 191.754 -2.22468 -3.78688 0
M  V30 2119 H 192.36 -3.38151 -2.57941 0
M  V30 2120 N 190.675 0.682077 -1.42076 0
M  V30 2121 C 191.923 1.4393 -1.41876 0
M  V30 2122 C 192.244 1.94971 -0.0335599 0
M  V30 2123 O 191.514 1.72591 0.926773 0
M  V30 2124 H 190.094 0.534085 -0.522267 0
M  V30 2125 H 192.756 0.806427 -1.77434 0
M  V30 2126 H 191.852 2.29588 -2.11414 0
M  V30 2127 N 192.153 1.28127 0.917671 0
M  V30 2128 C 193.1 1.11717 2.0196 0
M  V30 2129 C 194.07 0.0153929 1.66093 0
M  V30 2130 O 195.255 0.179596 1.89953 0
M  V30 2131 C 192.395 0.780927 3.36148 0
M  V30 2132 C 191.508 1.96135 3.84909 0
M  V30 2133 C 190.643 1.56609 5.0759 0
M  V30 2134 C 189.682 2.71339 5.48673 0
M  V30 2135 N 188.819 2.32332 6.62545 0
M  V30 2136 H 193.659 2.06003 2.15329 0
M  V30 2137 H 191.196 1.02535 1.05475 0
M  V30 2138 H 193.154 0.56675 4.13333 0
M  V30 2139 H 191.784 -0.124998 3.22558 0
M  V30 2140 H 190.836 2.28777 3.03916 0
M  V30 2141 H 192.148 2.82165 4.1132 0
M  V30 2142 H 191.302 1.31374 5.92305 0
M  V30 2143 H 190.041 0.677014 4.82978 0
M  V30 2144 H 189.046 2.97276 4.62501 0
M  V30 2145 H 190.271 3.60882 5.75274 0
M  V30 2146 H 188.217 1.45889 6.39572 0
M  V30 2147 H 188.134 3.11899 6.88662 0
M  V30 2148 H 189.402 2.10371 7.50576 0
M  V30 2149 N 193.631 -1.12557 1.10312 0
M  V30 2150 C 195.047 -1.36036 0.834649 0
M  V30 2151 C 195.247 -1.93946 -0.546539 0
M  V30 2152 O 194.303 -2.16484 -1.29966 0
M  V30 2153 C 195.616 -2.30312 1.9333 0
M  V30 2154 C 197.164 -2.43906 1.9616 0
M  V30 2155 C 197.639 -3.41496 3.05195 0
M  V30 2156 N 199.13 -3.49053 3.04494 0
M  V30 2157 C 199.865 -4.24471 3.85502 0
M  V30 2158 N 199.361 -5.02966 4.76442 0
M  V30 2159 N 201.154 -4.19864 3.73725 0
M  V30 2160 H 193.305 -0.733246 1.99342 0
M  V30 2161 H 195.568 -0.385234 0.866198 0
M  V30 2162 H 195.274 -1.94933 2.92735 0
M  V30 2163 H 195.148 -3.30421 1.81939 0
M  V30 2164 H 197.535 -2.78567 0.973886 0
M  V30 2165 H 197.616 -1.4369 2.11629 0
M  V30 2166 H 197.26 -3.07565 4.04186 0
M  V30 2167 H 197.19 -4.41539 2.86968 0
M  V30 2168 H 199.681 -2.93053 2.38596 0
M  V30 2169 H 199.994 -5.57846 5.34815 0
M  V30 2170 H 198.339 -5.02167 4.80472 0
M  V30 2171 H 201.53 -3.57623 3.02032 0
M  V30 2172 H 201.703 -4.78386 4.37093 0
M  V30 2173 N 195.109 -0.891671 -1.2995 0
M  V30 2174 C 196.056 -0.361736 -2.27948 0
M  V30 2175 C 197.026 0.551761 -1.56668 0
M  V30 2176 O 198.211 0.478736 -1.84696 0
M  V30 2177 C 195.351 0.411825 -3.42634 0
M  V30 2178 C 194.464 -0.531651 -4.28716 0
M  V30 2179 C 193.599 0.258167 -5.30572 0
M  V30 2180 C 192.638 -0.680349 -6.08307 0
M  V30 2181 N 191.775 0.0745613 -7.0206 0
M  V30 2182 H 196.615 -1.20254 -2.72659 0
M  V30 2183 H 194.152 -0.604352 -1.34112 0
M  V30 2184 H 196.11 0.876304 -4.07893 0
M  V30 2185 H 194.74 1.21715 -2.98974 0
M  V30 2186 H 193.792 -1.11463 -3.63703 0
M  V30 2187 H 195.104 -1.25038 -4.82874 0
M  V30 2188 H 194.258 0.784204 -6.0161 0
M  V30 2189 H 192.997 1.01008 -4.77126 0
M  V30 2190 H 192.002 -1.21796 -5.3614 0
M  V30 2191 H 193.227 -1.43145 -6.63842 0
M  V30 2192 H 191.173 0.808883 -6.50994 0
M  V30 2193 H 191.09 -0.584409 -7.53738 0
M  V30 2194 H 192.358 0.581123 -7.77331 0
M  V30 2195 N 196.587 1.43421 -0.653314 0
M  V30 2196 C 198.003 1.56341 -0.320886 0
M  V30 2197 C 198.203 1.63696 1.17499 0
M  V30 2198 O 197.259 1.59208 1.95982 0
M  V30 2199 C 198.572 2.82424 -1.03233 0
M  V30 2200 C 200.12 2.96168 -1.01259 0
M  V30 2201 C 200.595 4.25084 -1.70492 0
M  V30 2202 N 202.086 4.31948 -1.67257 0
M  V30 2203 C 202.821 5.30466 -2.17701 0
M  V30 2204 N 202.317 6.35261 -2.76434 0
M  V30 2205 N 204.11 5.2212 -2.082 0
M  V30 2206 H 196.261 1.3689 -1.62403 0
M  V30 2207 H 198.524 0.657455 -0.682977 0
M  V30 2208 H 198.23 2.83053 -2.08744 0
M  V30 2209 H 198.104 3.72653 -0.583948 0
M  V30 2210 H 200.491 2.9508 0.0341235 0
M  V30 2211 H 200.572 2.07229 -1.49966 0
M  V30 2212 H 200.216 4.26932 -2.7512 0
M  V30 2213 H 200.146 5.1292 -1.19251 0
M  V30 2214 H 202.637 3.56838 -1.24398 0
M  V30 2215 H 202.95 7.06754 -3.12601 0
M  V30 2216 H 201.295 6.35884 -2.80495 0
M  V30 2217 H 204.486 4.39166 -1.62021 0
M  V30 2218 H 204.659 5.98739 -2.47822 0
M  V30 2219 N 198.065 0.39524 1.52563 0
M  V30 2220 C 199.29 -0.187456 2.06551 0
M  V30 2221 C 199.715 -1.39249 1.26457 0
M  V30 2222 O 199.073 -1.78947 0.291151 0
M  V30 2223 C 199.121 -0.529985 3.56684 0
M  V30 2224 O 198.225 -1.62307 3.79118 0
M  V30 2225 H 197.566 -0.0202537 0.663691 0
M  V30 2226 H 200.096 0.564426 1.96661 0
M  V30 2227 H 200.106 -0.792598 4.00227 0
M  V30 2228 H 198.781 0.350987 4.14416 0
M  V30 2229 H 197.358 -1.3537 3.47461 0
M  V30 2230 N 199.544 -1.57102 0.125237 0
M  V30 2231 C 200.476 -2.12726 -0.853237 0
M  V30 2232 C 201.489 -1.07145 -1.22571 0
M  V30 2233 O 202.678 -1.34497 -1.17358 0
M  V30 2234 C 199.778 -2.61709 -2.15317 0
M  V30 2235 C 198.951 -3.91456 -1.95143 0
M  V30 2236 C 198.01 -4.25973 -3.08923 0
M  V30 2237 O 197.036 -4.94682 -2.81564 0
M  V30 2238 N 198.238 -3.83795 -4.35524 0
M  V30 2239 H 201.003 -2.97307 -0.377964 0
M  V30 2240 H 198.564 -1.61792 -0.0590011 0
M  V30 2241 H 200.556 -2.81826 -2.90441 0
M  V30 2242 H 199.126 -1.81974 -2.54174 0
M  V30 2243 H 198.346 -3.80185 -1.04177 0
M  V30 2244 H 199.634 -4.76283 -1.78976 0
M  V30 2245 H 199.032 -3.2839 -4.60626 0
M  V30 2246 H 197.589 -4.09008 -5.07499 0
M  V30 2247 N 201.022 0.148545 -1.56898 0
M  V30 2248 C 201.955 1.21293 -1.93296 0
M  V30 2249 C 202.933 1.41637 -0.798599 0
M  V30 2250 O 204.117 1.56275 -1.05406 0
M  V30 2251 C 201.244 2.5721 -2.20365 0
M  V30 2252 C 200.29 2.53469 -3.4301 0
M  V30 2253 S 201.123 2.00315 -4.96623 0
M  V30 2254 C 202.279 3.37964 -5.26812 0
M  V30 2255 H 202.512 0.902393 -2.83274 0
M  V30 2256 H 200.045 0.354094 -1.50285 0
M  V30 2257 H 202.003 3.35427 -2.36641 0
M  V30 2258 H 200.664 2.85454 -1.31054 0
M  V30 2259 H 199.857 3.53518 -3.59223 0
M  V30 2260 H 199.459 1.83359 -3.25968 0
M  V30 2261 H 201.751 4.34066 -5.20185 0
M  V30 2262 H 202.694 3.26606 -6.28279 0
M  V30 2263 H 203.102 3.35028 -4.54331 0
M  V30 2264 N 202.5 1.5196 0.417844 0
M  V30 2265 C 203.43 1.77634 1.51554 0
M  V30 2266 C 204.411 0.626918 1.58126 0
M  V30 2267 O 205.596 0.871632 1.7354 0
M  V30 2268 C 202.726 1.91911 2.8946 0
M  V30 2269 C 201.68 3.07463 2.97743 0
M  V30 2270 C 201.006 3.06951 4.37819 0
M  V30 2271 C 202.306 4.47082 2.70027 0
M  V30 2272 H 204 2.6955 1.3032 0
M  V30 2273 H 201.546 1.29706 0.625492 0
M  V30 2274 H 203.499 2.08455 3.6623 0
M  V30 2275 H 202.223 0.966598 3.11969 0
M  V30 2276 H 200.882 2.90656 2.23416 0
M  V30 2277 H 200.53 2.09438 4.57323 0
M  V30 2278 H 200.23 3.84556 4.44286 0
M  V30 2279 H 201.754 3.25613 5.16535 0
M  V30 2280 H 203.168 4.6414 3.36522 0
M  V30 2281 H 201.565 5.2654 2.87881 0
M  V30 2282 H 202.635 4.55777 1.65514 0
M  V30 2283 N 203.978 -0.674533 1.42435 0
M  V30 2284 C 205.225 -1.43459 1.42919 0
M  V30 2285 C 205.553 -1.94446 0.0457312 0
M  V30 2286 O 204.808 -1.7132 -0.94593 0
M  V30 2287 C 205.107 -2.64767 2.40069 0
M  V30 2288 C 204.773 -2.3232 3.86443 0
M  V30 2289 C 203.435 -2.23182 4.26314 0
M  V30 2290 C 205.787 -2.05977 4.78773 0
M  V30 2291 C 203.115 -1.85827 5.56494 0
M  V30 2292 C 205.467 -1.70125 6.09295 0
M  V30 2293 C 204.131 -1.59498 6.48164 0
M  V30 2294 H 203.401 -0.524952 0.522978 0
M  V30 2295 H 206.048 -0.769097 1.75377 0
M  V30 2296 H 204.353 -3.36349 2.00939 0
M  V30 2297 H 206.05 -3.22949 2.37707 0
M  V30 2298 H 202.64 -2.40334 3.54877 0
M  V30 2299 H 206.824 -2.11969 4.48757 0
M  V30 2300 H 202.08 -1.76168 5.8547 0
M  V30 2301 H 206.254 -1.48767 6.80324 0
M  V30 2302 H 203.881 -1.30322 7.48946 0
M  V30 2303 N 205.456 -1.28612 -0.910864 0
M  V30 2304 C 206.872 -1.06381 -1.18976 0
M  V30 2305 C 207.072 0.191998 -2.00583 0
M  V30 2306 O 206.128 0.892869 -2.36187 0
M  V30 2307 C 207.441 -2.31295 -1.92154 0
M  V30 2308 C 208.989 -2.36503 -2.05025 0
M  V30 2309 C 209.464 -3.61191 -2.81612 0
M  V30 2310 N 210.955 -3.61847 -2.89172 0
M  V30 2311 C 211.69 -4.55004 -3.4894 0
M  V30 2312 N 211.186 -5.58482 -4.09963 0
M  V30 2313 N 212.979 -4.42594 -3.46506 0
M  V30 2314 H 205.13 -2.09221 -0.366094 0
M  V30 2315 H 207.393 -0.921003 -0.224629 0
M  V30 2316 H 207.099 -3.228 -1.39618 0
M  V30 2317 H 206.973 -2.37934 -2.9269 0
M  V30 2318 H 209.36 -1.45494 -2.5674 0
M  V30 2319 H 209.441 -2.33857 -1.03657 0
M  V30 2320 H 209.085 -4.52545 -2.30576 0
M  V30 2321 H 209.015 -3.61092 -3.83302 0
M  V30 2322 H 211.506 -2.87022 -2.45819 0
M  V30 2323 H 211.819 -6.25704 -4.53557 0
M  V30 2324 H 210.164 -5.62305 -4.08459 0
M  V30 2325 H 213.355 -3.60953 -2.98045 0
M  V30 2326 H 213.528 -5.15381 -3.92793 0
M  V30 2327 N 206.934 1.1197 -1.10907 0
M  V30 2328 C 208.182 1.83225 -0.852819 0
M  V30 2329 C 208.503 1.84769 0.623341 0
M  V30 2330 O 207.773 1.3143 1.45269 0
M  V30 2331 H 206.353 0.67849 -0.312507 0
M  V30 2332 H 209.015 1.3556 -1.40033 0
M  V30 2333 H 208.111 2.87265 -1.22005 0
M  V30 2334 N 208.412 0.89855 1.29475 0
M  V30 2335 C 209.828 0.594483 1.48115 0
M  V30 2336 C 210.028 -0.86431 1.82022 0
M  V30 2337 O 209.084 -1.64457 1.91599 0
M  V30 2338 C 210.397 1.51932 2.59494 0
M  V30 2339 C 211.945 1.5244 2.7337 0
M  V30 2340 C 212.42 2.43548 3.87877 0
M  V30 2341 N 213.911 2.41589 3.95208 0
M  V30 2342 C 214.646 3.08789 4.83153 0
M  V30 2343 N 214.142 3.85265 5.75798 0
M  V30 2344 N 215.935 2.97952 4.76635 0
M  V30 2345 H 208.086 1.84207 1.05742 0
M  V30 2346 H 210.349 0.789251 0.525154 0
M  V30 2347 H 210.055 2.55865 2.41301 0
M  V30 2348 H 209.929 1.23899 3.56271 0
M  V30 2349 H 212.316 0.492518 2.90961 0
M  V30 2350 H 212.397 1.8451 1.77172 0
M  V30 2351 H 212.041 3.46829 3.71041 0
M  V30 2352 H 211.971 2.08788 4.83441 0
M  V30 2353 H 214.462 1.86025 3.28943 0
M  V30 2354 H 214.775 4.33598 6.39697 0
M  V30 2355 H 213.12 3.89371 5.75687 0
M  V30 2356 H 216.311 2.37723 4.03244 0
M  V30 2357 H 216.484 3.50599 5.44962 0
M  V30 2358 N 209.89 -1.43072 0.660911 0
M  V30 2359 C 211.306 -1.56169 0.329173 0
M  V30 2360 C 211.506 -1.64317 -1.16629 0
M  V30 2361 O 210.562 -1.60245 -1.95135 0
M  V30 2362 C 211.875 -2.81873 1.04729 0
M  V30 2363 C 213.423 -2.95627 1.02828 0
M  V30 2364 C 213.898 -4.24174 1.72744 0
M  V30 2365 N 215.389 -4.31055 1.69545 0
M  V30 2366 C 216.124 -5.29304 2.20511 0
M  V30 2367 N 215.62 -6.33786 2.79799 0
M  V30 2368 N 217.413 -5.21008 2.10966 0
M  V30 2369 H 209.564 -1.36027 1.63127 0
M  V30 2370 H 211.827 -0.653823 0.686454 0
M  V30 2371 H 211.533 -2.81942 2.10242 0
M  V30 2372 H 211.407 -3.72338 0.603702 0
M  V30 2373 H 213.794 -2.95094 -0.0184742 0
M  V30 2374 H 213.875 -2.06431 1.51063 0
M  V30 2375 H 213.519 -4.25467 2.7738 0
M  V30 2376 H 213.449 -5.1228 1.2197 0
M  V30 2377 H 215.94 -3.56174 1.26288 0
M  V30 2378 H 216.253 -7.05086 3.16344 0
M  V30 2379 H 214.598 -6.34387 2.83863 0
M  V30 2380 H 217.789 -4.38301 1.64347 0
M  V30 2381 H 217.962 -5.97416 2.50993 0
M  V30 2382 N 211.368 -0.403325 -1.52352 0
M  V30 2383 C 212.331 0.413051 -2.25447 0
M  V30 2384 C 213.331 0.978513 -1.276 0
M  V30 2385 O 214.521 0.858305 -1.51587 0
M  V30 2386 C 211.653 1.58087 -3.02029 0
M  V30 2387 H 212.846 -0.227094 -2.99039 0
M  V30 2388 H 210.399 -0.155722 -1.55522 0
M  V30 2389 H 211.134 2.25804 -2.32772 0
M  V30 2390 H 210.919 1.18195 -3.73861 0
M  V30 2391 H 212.409 2.1585 -3.57489 0
M  V30 2392 N 212.846 1.57033 -0.133567 0
M  V30 2393 C 214.071 2.00475 0.531477 0
M  V30 2394 C 214.496 1.01291 1.58499 0
M  V30 2395 O 213.854 -0.0133279 1.81295 0
M  V30 2396 C 213.902 3.42729 1.12113 0
M  V30 2397 O 213.006 3.46498 2.23636 0
M  V30 2398 H 212.347 0.650876 0.131362 0
M  V30 2399 H 214.877 2.03344 -0.22634 0
M  V30 2400 H 214.887 3.81246 1.4531 0
M  V30 2401 H 213.562 4.14428 0.349557 0
M  V30 2402 H 212.139 3.19811 1.91769 0
M  V30 2403 N 214.325 -0.140222 1.56975 0
M  V30 2404 C 215.257 -1.19818 1.95388 0
M  V30 2405 C 216.27 -1.38816 0.850525 0
M  V30 2406 O 217.459 -1.38267 1.12891 0
M  V30 2407 C 214.559 -2.56189 2.21857 0
M  V30 2408 C 213.732 -2.58077 3.5315 0
M  V30 2409 C 212.791 -3.76037 3.6808 0
M  V30 2410 O 211.817 -3.60598 4.40406 0
M  V30 2411 N 213.019 -4.93763 3.05251 0
M  V30 2412 H 215.784 -0.871609 2.86746 0
M  V30 2413 H 213.345 -0.32972 1.58507 0
M  V30 2414 H 215.337 -3.33623 2.2908 0
M  V30 2415 H 213.907 -2.81111 1.36731 0
M  V30 2416 H 213.127 -1.6651 3.57307 0
M  V30 2417 H 214.415 -2.56377 4.39486 0
M  V30 2418 H 213.813 -5.09209 2.46419 0
M  V30 2419 H 212.37 -5.68949 3.18026 0
M  V30 2420 O 215.842 -1.58968 -0.284834 0
M  V30 2421 H 216.533 -1.69867 -0.930848 0
M  V30 END ATOM
M  V30 BEGIN BOND
M  V30 END BOND
M  V30 END CTAB
M  END
$$$$
