drugbank_target|P15260 Interferon gamma receptor 1 (DB00033)
 OpenBabel12092119373D

  0  0  0     0  0            999 V3000
M  V30 BEGIN CTAB
M  V30 COUNTS 7582 7667 0 0 0
M  V30 BEGIN ATOM
M  V30 1 H -0.908 1.98254 -0.117106 0
M  V30 2 N 0 1.576 0 0
M  V30 3 C 0.933 2.03868 1.02534 0
M  V30 4 C 1.911 0.928543 1.3348 0
M  V30 5 O 3.095 1.19667 1.45644 0
M  V30 6 C 0.222 2.43627 2.35294 0
M  V30 7 C -0.732 3.65373 2.2001 0
M  V30 8 S 0.101 5.13292 1.52614 0
M  V30 9 C 1.257 5.56322 2.86805 0
M  V30 10 H 1.49 2.90518 0.631377 0
M  V30 11 H -0.977 1.52953 0.210867 0
M  V30 12 H 0.981 2.67203 3.11629 0
M  V30 13 H -0.358 1.57376 2.7183 0
M  V30 14 H -1.165 3.90944 3.18086 0
M  V30 15 H -1.563 3.418 1.51819 0
M  V30 16 H 0.729 5.58782 3.83104 0
M  V30 17 H 1.672 6.56266 2.65933 0
M  V30 18 H 2.08 4.83886 2.90714 0
M  V30 19 N 1.4781 -0.272755 1.55222 0
M  V30 20 C 2.4411 -1.32041 1.87344 0
M  V30 21 C 3.4411 -1.42342 0.74803 0
M  V30 22 O 4.6311 -1.41488 1.0162 0
M  V30 23 C 1.7631 -2.70173 2.07893 0
M  V30 24 H 2.9561 -1.04789 2.80997 0
M  V30 25 H 0.5091 -0.51083 1.47717 0
M  V30 26 H 1.2441 -3.02605 1.16622 0
M  V30 27 H 1.0291 -2.64082 2.89833 0
M  V30 28 H 2.5191 -3.45869 2.34017 0
M  V30 29 N 2.9562 -1.48159 -0.537278 0
M  V30 30 C 3.8862 -1.65029 -1.6519 0
M  V30 31 C 4.8672 -0.499281 -1.62607 0
M  V30 32 O 6.0522 -0.730972 -1.79918 0
M  V30 33 C 3.1822 -1.68303 -3.03795 0
M  V30 34 C 2.1362 -2.8283 -3.21234 0
M  V30 35 C 1.4622 -2.71189 -4.60826 0
M  V30 36 C 2.7622 -4.24211 -3.04701 0
M  V30 37 H 4.4562 -2.58341 -1.51328 0
M  V30 38 H 2.0022 -1.24325 -0.726585 0
M  V30 39 H 3.9552 -1.78693 -3.81637 0
M  V30 40 H 2.6792 -0.715635 -3.18663 0
M  V30 41 H 1.3382 -2.71983 -2.45807 0
M  V30 42 H 0.9862 -1.72435 -4.7252 0
M  V30 43 H 0.6862 -3.48035 -4.7344 0
M  V30 44 H 2.2102 -2.83537 -5.40777 0
M  V30 45 H 3.6242 -4.3593 -3.72341 0
M  V30 46 H 2.0212 -5.01998 -3.28813 0
M  V30 47 H 3.0912 -4.41184 -2.01209 0
M  V30 48 N 4.4343 0.785586 -1.36625 0
M  V30 49 C 5.3643 1.91259 -1.33949 0
M  V30 50 C 6.3453 1.68795 -0.210325 0
M  V30 51 O 7.5303 1.89854 -0.408561 0
M  V30 52 C 4.6603 3.28339 -1.13186 0
M  V30 53 C 3.6143 3.65335 -2.22967 0
M  V30 54 C 2.9403 5.00806 -1.87342 0
M  V30 55 C 4.2403 3.7352 -3.65075 0
M  V30 56 H 5.9343 1.93755 -2.28253 0
M  V30 57 H 3.4803 0.930788 -1.09874 0
M  V30 58 H 5.4333 4.06804 -1.09948 0
M  V30 59 H 4.1573 3.2624 -0.153332 0
M  V30 60 H 2.8163 2.89169 -2.25337 0
M  V30 61 H 2.4643 4.95233 -0.880545 0
M  V30 62 H 2.1643 5.26529 -2.60846 0
M  V30 63 H 3.6883 5.81687 -1.85667 0
M  V30 64 H 5.1023 4.42168 -3.64911 0
M  V30 65 H 3.4993 4.10731 -4.37516 0
M  V30 66 H 4.5693 2.74527 -3.99703 0
M  V30 67 N 5.9124 1.20967 1.01018 0
M  V30 68 C 7.1594 1.02374 1.74716 0
M  V30 69 C 7.4874 -0.443375 1.89379 0
M  V30 70 O 6.7424 -1.34535 1.42123 0
M  V30 71 C 7.0414 1.65997 3.16512 0
M  V30 72 C 6.7074 3.15831 3.2181 0
M  V30 73 C 5.3694 3.56719 3.22963 0
M  V30 74 C 7.7214 4.11816 3.19464 0
M  V30 75 C 5.0494 4.92107 3.19449 0
M  V30 76 C 7.4014 5.47158 3.17491 0
M  V30 77 C 6.0654 5.87451 3.16951 0
M  V30 78 H 5.3354 0.374614 0.639332 0
M  V30 79 H 7.9824 1.50485 1.18434 0
M  V30 80 H 6.2874 1.10166 3.75993 0
M  V30 81 H 7.9844 1.49119 3.72242 0
M  V30 82 H 4.5744 2.83263 3.21652 0
M  V30 83 H 8.7584 3.81257 3.17737 0
M  V30 84 H 4.0144 5.22579 3.17366 0
M  V30 85 H 8.1884 6.21274 3.14629 0
M  V30 86 H 5.8154 6.92329 3.13983 0
M  V30 87 N 7.3905 -1.2043 1.01659 0
M  V30 88 C 8.3205 -2.25466 0.607226 0
M  V30 89 C 9.3015 -1.65853 -0.377716 0
M  V30 90 O 10.4865 -1.92409 -0.263149 0
M  V30 91 C 7.6165 -3.47256 -0.0552949 0
M  V30 92 C 6.5705 -4.19462 0.850632 0
M  V30 93 C 5.8965 -5.34673 0.0538859 0
M  V30 94 C 7.1965 -4.75603 2.15868 0
M  V30 95 H 8.8905 -2.59962 1.48526 0
M  V30 96 H 6.4365 -1.2496 0.715605 0
M  V30 97 H 8.3895 -4.19917 -0.353233 0
M  V30 98 H 7.1135 -3.11924 -0.968045 0
M  V30 99 H 5.7725 -3.48667 1.13257 0
M  V30 100 H 5.4205 -4.95585 -0.860514 0
M  V30 101 H 5.1205 -5.83913 0.657192 0
M  V30 102 H 6.6445 -6.10138 -0.237598 0
M  V30 103 H 8.0585 -5.40083 1.92311 0
M  V30 104 H 6.4555 -5.3528 2.71284 0
M  V30 105 H 7.5255 -3.94346 2.82169 0
M  V30 106 N 8.8686 -0.792821 -1.36206 0
M  V30 107 C 9.7986 -0.207853 -2.32573 0
M  V30 108 C 10.7796 0.659055 -1.56813 0
M  V30 109 O 11.9646 0.592176 -1.84951 0
M  V30 110 C 9.0946 0.655449 -3.41059 0
M  V30 111 C 8.0486 -0.111842 -4.27854 0
M  V30 112 C 7.3746 0.872274 -5.27537 0
M  V30 113 C 8.6746 -1.30299 -5.05786 0
M  V30 114 H 10.3686 -1.01294 -2.81744 0
M  V30 115 H 7.9146 -0.48854 -1.3546 0
M  V30 116 H 9.8676 1.07464 -4.07467 0
M  V30 117 H 8.5916 1.49328 -2.90463 0
M  V30 118 H 7.2506 -0.512053 -3.63006 0
M  V30 119 H 6.8986 1.70523 -4.73214 0
M  V30 120 H 6.5986 0.363291 -5.86476 0
M  V30 121 H 8.1226 1.28996 -5.96818 0
M  V30 122 H 9.5366 -0.959379 -5.65216 0
M  V30 123 H 7.9336 -1.7455 -5.74154 0
M  V30 124 H 9.0036 -2.09663 -4.37229 0
M  V30 125 N 10.3467 1.47872 -0.545128 0
M  V30 126 C 11.7577 1.86384 -0.108581 0
M  V30 127 C 12.1087 1.45309 1.31832 0
M  V30 128 O 11.2337 0.850641 1.9898 0
M  V30 129 C 11.8287 3.38265 -0.190274 0
M  V30 130 C 10.3877 3.75914 0.191164 0
M  V30 131 C 9.5347 2.71926 -0.543273 0
M  V30 132 H 12.4857 1.39561 -0.755537 0
M  V30 133 H 12.5067 3.75831 0.594217 0
M  V30 134 H 12.0187 3.6813 -1.2289 0
M  V30 135 H 10.1197 3.51665 1.23136 0
M  V30 136 H 10.2327 4.78836 -0.158987 0
M  V30 137 H 8.5967 2.54697 0.0122495 0
M  V30 138 H 9.3797 3.04634 -1.58282 0
M  V30 139 N 11.8248 0.280983 1.55075 0
M  V30 140 C 12.7548 -0.597469 2.25727 0
M  V30 141 C 13.7358 -1.15417 1.24952 0
M  V30 142 O 14.9208 -1.18722 1.53684 0
M  V30 143 C 12.0508 -1.7789 2.98283 0
M  V30 144 C 11.0048 -1.35347 4.06036 0
M  V30 145 C 10.3308 -2.61846 4.66198 0
M  V30 146 C 11.6308 -0.499354 5.19907 0
M  V30 147 H 13.3248 -0.00824265 2.99399 0
M  V30 148 H 10.8708 -0.0025244 1.44 0
M  V30 149 H 12.8238 -2.39937 3.46422 0
M  V30 150 H 11.5478 -2.39405 2.22155 0
M  V30 151 H 10.2068 -0.756156 3.58717 0
M  V30 152 H 9.8548 -3.21632 3.86732 0
M  V30 153 H 9.5548 -2.3409 5.38958 0
M  V30 154 H 11.0788 -3.24732 5.1709 0
M  V30 155 H 12.4928 -1.02498 5.64063 0
M  V30 156 H 10.8898 -0.316424 5.99265 0
M  V30 157 H 11.9598 0.480459 4.82514 0
M  V30 158 N 13.3029 -1.57598 0.00835791 0
M  V30 159 C 14.5489 -1.91211 -0.675732 0
M  V30 160 C 14.8819 -0.883139 -1.72958 0
M  V30 161 O 14.1569 0.097016 -1.94258 0
M  V30 162 C 14.4399 -3.35379 -1.31123 0
M  V30 163 C 14.2929 -4.48999 -0.268356 0
M  V30 164 C 15.6119 -3.7912 -2.23508 0
M  V30 165 H 12.7309 -0.695374 -0.244179 0
M  V30 166 H 15.3729 -1.89901 0.0613655 0
M  V30 167 H 13.5229 -3.36626 -1.93946 0
M  V30 168 H 15.1949 -4.59887 0.360844 0
M  V30 169 H 13.4379 -4.31873 0.408482 0
M  V30 170 H 14.1089 -5.46851 -0.752218 0
M  V30 171 H 16.5849 -3.79477 -1.70693 0
M  V30 172 H 15.4609 -4.80729 -2.64936 0
M  V30 173 H 15.7219 -3.13455 -3.11766 0
M  V30 174 N 14.781 0.264519 -1.55364 0
M  V30 175 C 15.714 1.35297 -1.83766 0
M  V30 176 C 16.692 1.47171 -0.691336 0
M  V30 177 O 17.876 1.63663 -0.935238 0
M  V30 178 C 15.003 2.72847 -2.00679 0
M  V30 179 C 14.049 2.78214 -3.23263 0
M  V30 180 S 14.882 2.36601 -4.80396 0
M  V30 181 C 16.038 3.7611 -5.00292 0
M  V30 182 H 16.271 1.11003 -2.758 0
M  V30 183 H 13.804 0.464596 -1.47244 0
M  V30 184 H 15.762 3.52057 -2.11108 0
M  V30 185 H 14.423 2.94388 -1.09518 0
M  V30 186 H 13.616 3.7919 -3.3201 0
M  V30 187 H 13.218 2.07034 -3.11469 0
M  V30 188 H 15.51 4.71457 -4.86554 0
M  V30 189 H 16.453 3.7231 -6.02321 0
M  V30 190 H 16.861 3.67806 -4.28228 0
M  V30 191 N 16.2591 1.48442 0.529413 0
M  V30 192 C 17.1911 1.59095 1.64989 0
M  V30 193 C 18.2041 0.475212 1.5571 0
M  V30 194 O 19.3931 0.746081 1.6216 0
M  V30 195 C 16.4931 1.50518 3.0364 0
M  V30 196 C 15.6661 2.77142 3.38395 0
M  V30 197 C 14.7251 2.62012 4.56329 0
M  V30 198 O 13.7511 3.35898 4.59522 0
M  V30 199 N 14.9531 1.71667 5.54536 0
M  V30 200 H 17.7181 2.55723 1.56287 0
M  V30 201 H 15.2791 1.45173 0.716697 0
M  V30 202 H 17.2711 1.38091 3.80412 0
M  V30 203 H 15.8411 0.618627 3.06418 0
M  V30 204 H 15.0611 3.0413 2.50796 0
M  V30 205 H 16.3491 3.61146 3.58401 0
M  V30 206 H 15.7471 1.10841 5.54735 0
M  V30 207 H 14.3041 1.65178 6.30523 0
M  V30 208 N 17.7372 -0.778329 1.37039 0
M  V30 209 C 18.9852 -1.53361 1.31623 0
M  V30 210 C 19.3062 -1.94739 -0.100831 0
M  V30 211 O 18.5762 -1.65797 -1.04347 0
M  V30 212 H 17.1562 -0.568794 0.484234 0
M  V30 213 H 19.8182 -0.926742 1.71457 0
M  V30 214 H 18.9142 -2.43606 1.95096 0
M  V30 215 N 19.2153 -1.21501 -1.00376 0
M  V30 216 C 20.4613 -1.03452 -1.74429 0
M  V30 217 C 20.7943 0.430764 -1.89362 0
M  V30 218 O 20.0693 1.31962 -1.42886 0
M  V30 219 C 20.3523 -1.73375 -3.15615 0
M  V30 220 C 20.2053 -3.27431 -3.08397 0
M  V30 221 C 21.5243 -1.47732 -4.14564 0
M  V30 222 H 18.6433 -0.377226 -0.633143 0
M  V30 223 H 21.2853 -1.49693 -1.17013 0
M  V30 224 H 19.4353 -1.34064 -3.64636 0
M  V30 225 H 21.1073 -3.76119 -2.67081 0
M  V30 226 H 19.3503 -3.5767 -2.45468 0
M  V30 227 H 20.0213 -3.71524 -4.08258 0
M  V30 228 H 22.4973 -1.8186 -3.74254 0
M  V30 229 H 21.3733 -1.99169 -5.11491 0
M  V30 230 H 21.6343 -0.407589 -4.40217 0
M  V30 231 N 20.6934 1.19889 -1.02296 0
M  V30 232 C 21.9184 1.9393 -0.735237 0
M  V30 233 C 22.3434 1.74639 0.698782 0
M  V30 234 O 21.7014 1.04481 1.48167 0
M  V30 235 C 21.7494 3.43916 -1.08417 0
M  V30 236 O 20.8534 4.11917 -0.199446 0
M  V30 237 H 20.1944 0.605645 -0.272196 0
M  V30 238 H 22.7244 1.52137 -1.36804 0
M  V30 239 H 22.7344 3.9456 -1.03856 0
M  V30 240 H 21.4094 3.5728 -2.12894 0
M  V30 241 H 19.9864 3.71666 -0.303136 0
M  V30 242 N 22.1715 0.800033 1.35784 0
M  V30 243 C 23.5875 0.482977 1.52117 0
M  V30 244 C 23.7875 -0.996948 1.75109 0
M  V30 245 O 22.8435 -1.78216 1.78872 0
M  V30 246 C 24.1565 1.32264 2.70049 0
M  V30 247 C 25.7045 1.31742 2.83924 0
M  V30 248 C 26.1795 2.14106 4.04874 0
M  V30 249 N 27.6705 2.11607 4.12039 0
M  V30 250 C 28.4055 2.72099 5.04727 0
M  V30 251 N 27.9015 3.41492 6.02789 0
M  V30 252 N 29.6945 2.61776 4.97423 0
M  V30 253 H 21.8455 1.75856 1.19115 0
M  V30 254 H 24.1085 0.748122 0.582252 0
M  V30 255 H 23.8145 2.37261 2.59616 0
M  V30 256 H 23.6885 0.971303 3.6448 0
M  V30 257 H 26.0755 0.275333 2.93813 0
M  V30 258 H 26.1565 1.70859 1.9037 0
M  V30 259 H 25.8005 3.18351 3.95746 0
M  V30 260 H 25.7305 1.72353 4.97596 0
M  V30 261 H 28.2215 1.61112 3.41835 0
M  V30 262 H 28.5345 3.84953 6.70098 0
M  V30 263 H 26.8795 3.45596 6.02983 0
M  V30 264 H 30.0705 2.07157 4.19766 0
M  V30 265 H 30.2435 3.0921 5.69468 0
M  V30 266 N 23.6496 -1.47581 0.552962 0
M  V30 267 C 24.6126 -2.28439 -0.186605 0
M  V30 268 C 25.6126 -1.36706 -0.84665 0
M  V30 269 O 26.8026 -1.59378 -0.703164 0
M  V30 270 C 23.9346 -3.16264 -1.2724 0
M  V30 271 H 25.1276 -2.95294 0.523609 0
M  V30 272 H 22.6806 -1.532 0.309745 0
M  V30 273 H 23.4156 -2.54091 -2.01514 0
M  V30 274 H 23.2006 -3.83769 -0.803968 0
M  V30 275 H 24.6906 -3.77198 -1.79196 0
M  V30 276 N 25.1277 -0.289203 -1.54924 0
M  V30 277 C 26.0377 0.601863 -2.26748 0
M  V30 278 C 27.0537 1.15834 -1.2984 0
M  V30 279 O 28.2297 1.18564 -1.62802 0
M  V30 280 C 25.2947 1.76299 -2.98529 0
M  V30 281 C 24.3557 1.24178 -4.10948 0
M  V30 282 C 23.5887 2.34757 -4.79296 0
M  V30 283 O 23.8117 3.54411 -4.46933 0
M  V30 284 O 22.7457 2.02115 -5.66951 0
M  V30 285 H 26.5717 0.0195879 -3.03694 0
M  V30 286 H 24.1567 -0.0560868 -1.49295 0
M  V30 287 H 26.0387 2.43973 -3.43592 0
M  V30 288 H 24.7137 2.33209 -2.24488 0
M  V30 289 H 23.6207 0.531104 -3.70311 0
M  V30 290 H 24.9537 0.718252 -4.86931 0
M  V30 291 N 26.6058 1.57591 -0.0167156 0
M  V30 292 C 27.5388 2.04944 1.00366 0
M  V30 293 C 28.5168 0.942648 1.32487 0
M  V30 294 O 29.7008 1.21205 1.44367 0
M  V30 295 C 26.8278 2.46109 2.32697 0
M  V30 296 C 25.8738 3.67686 2.16123 0
M  V30 297 S 26.7068 5.14882 1.47161 0
M  V30 298 C 27.8628 5.59332 2.80888 0
M  V30 299 H 28.0958 2.91172 0.600528 0
M  V30 300 H 25.6288 1.53168 0.194632 0
M  V30 301 H 27.5868 2.70493 3.08778 0
M  V30 302 H 26.2478 1.6025 2.70146 0
M  V30 303 H 25.4408 3.94296 3.13922 0
M  V30 304 H 25.0428 3.43391 1.48185 0
M  V30 305 H 27.3348 5.62814 3.77156 0
M  V30 306 H 28.2778 6.5905 2.58958 0
M  V30 307 H 28.6858 4.86942 2.85565 0
M  V30 308 N 28.0839 -0.256276 1.55502 0
M  V30 309 C 29.3319 -0.983672 1.76545 0
M  V30 310 C 29.6529 -1.86206 0.578982 0
M  V30 311 O 28.9229 -1.91656 -0.405577 0
M  V30 312 H 27.5029 -0.366191 0.651086 0
M  V30 313 H 30.1649 -0.276479 1.92929 0
M  V30 314 H 29.2609 -1.61087 2.67315 0
M  V30 315 N 29.562 -1.4872 -0.521534 0
M  V30 316 C 30.79 -1.60843 -1.30142 0
M  V30 317 C 31.205 -0.271897 -1.86832 0
M  V30 318 O 30.562 0.739969 -1.66825 0
M  V30 319 C 30.613 -2.66155 -2.4463 0
M  V30 320 O 30.334 -3.94623 -1.90275 0
M  V30 321 C 31.835 -2.88795 -3.36322 0
M  V30 322 H 29.055 -0.542075 -0.395468 0
M  V30 323 H 31.599 -1.94609 -0.628285 0
M  V30 324 H 29.754 -2.35224 -3.07812 0
M  V30 325 H 30.168 -4.52468 -2.65279 0
M  V30 326 H 31.642 -3.66264 -4.12983 0
M  V30 327 H 32.119 -1.97934 -3.9207 0
M  V30 328 H 32.725 -3.21063 -2.78924 0
M  V30 329 N 31.0401 0.771051 -1.3745 0
M  V30 330 C 32.0031 1.86598 -1.33093 0
M  V30 331 C 33.0031 1.59076 -0.234845 0
M  V30 332 O 34.1931 1.67145 -0.490732 0
M  V30 333 C 31.3251 3.23747 -1.06773 0
M  V30 334 H 32.5181 1.91873 -2.30488 0
M  V30 335 H 30.0711 0.970876 -1.2249 0
M  V30 336 H 30.8061 3.24148 -0.099129 0
M  V30 337 H 30.5911 3.45115 -1.86112 0
M  V30 338 H 32.0811 4.03824 -1.06377 0
M  V30 339 N 32.5182 1.22032 0.997298 0
M  V30 340 C 33.7952 0.950823 1.70935 0
M  V30 341 C 34.1752 -0.535292 2.042 0
M  V30 342 O 33.5232 -1.50217 1.72183 0
M  V30 343 C 33.7332 1.84386 2.96315 0
M  V30 344 C 35.0812 2.09732 3.69185 0
M  V30 345 O 36.1052 1.81798 3.06314 0
M  V30 346 O 34.9642 2.57018 4.82291 0
M  V30 347 H 32.0582 0.357204 0.745878 0
M  V30 348 H 34.6042 1.32997 1.05404 0
M  V30 349 H 33.3762 2.84928 2.68201 0
M  V30 350 H 32.9992 1.46602 3.69586 0
M  V30 351 N 33.9963 -1.19345 1.0293 0
M  V30 352 C 34.9263 -2.2481 0.631105 0
M  V30 353 C 35.9073 -1.66245 -0.360104 0
M  V30 354 O 37.0923 -1.92677 -0.242726 0
M  V30 355 C 34.2223 -3.47295 -0.0184607 0
M  V30 356 C 33.1763 -4.18536 0.895073 0
M  V30 357 C 32.5023 -5.34586 0.110592 0
M  V30 358 C 33.8023 -4.73287 2.209 0
M  V30 359 H 35.4963 -2.58372 1.51275 0
M  V30 360 H 33.0423 -1.24194 0.728818 0
M  V30 361 H 34.9953 -4.20268 -0.308675 0
M  V30 362 H 33.7193 -3.12933 -0.934907 0
M  V30 363 H 32.3783 -3.47446 1.16949 0
M  V30 364 H 32.0263 -4.96469 -0.807902 0
M  V30 365 H 31.7263 -5.83183 0.719087 0
M  V30 366 H 33.2503 -6.10355 -0.172871 0
M  V30 367 H 34.6643 -5.38013 1.98028 0
M  V30 368 H 33.0613 -5.32373 2.76946 0
M  V30 369 H 34.1313 -3.91331 2.86336 0
M  V30 370 N 35.4744 -0.807222 -1.35358 0
M  V30 371 C 36.7224 -0.387122 -1.98358 0
M  V30 372 C 37.0434 1.04942 -1.64354 0
M  V30 373 O 36.3134 1.72615 -0.926339 0
M  V30 374 H 34.8934 -0.140154 -0.733734 0
M  V30 375 H 37.5554 -1.0332 -1.6526 0
M  V30 376 H 36.6514 -0.493352 -3.08176 0
M  V30 377 N 36.9525 1.47285 -0.560781 0
M  V30 378 C 38.3635 1.86258 -0.128343 0
M  V30 379 C 38.7145 1.46699 1.30284 0
M  V30 380 O 37.8395 0.871698 1.98067 0
M  V30 381 C 38.4345 3.38044 -0.22614 0
M  V30 382 C 36.9935 3.76096 0.151283 0
M  V30 383 C 36.1405 2.71335 -0.572084 0
M  V30 384 H 39.0915 1.38752 -0.770297 0
M  V30 385 H 39.1125 3.76441 0.554322 0
M  V30 386 H 38.6245 3.66806 -1.26788 0
M  V30 387 H 36.7255 3.52951 1.19399 0
M  V30 388 H 36.8385 4.78641 -0.209765 0
M  V30 389 H 35.2025 2.54696 -0.0147653 0
M  V30 390 H 35.9855 3.02938 -1.61504 0
M  V30 391 N 38.4306 0.297415 1.54768 0
M  V30 392 C 39.6556 -0.318435 2.04941 0
M  V30 393 C 40.0806 -1.4701 1.17345 0
M  V30 394 O 39.4386 -1.80436 0.176758 0
M  V30 395 C 39.4866 -0.755749 3.52592 0
M  V30 396 O 38.5906 -1.86088 3.68028 0
M  V30 397 H 37.9316 -0.062421 0.661059 0
M  V30 398 H 40.4616 0.438215 1.99852 0
M  V30 399 H 40.4716 -1.04552 3.94376 0
M  V30 400 H 39.1466 0.0867233 4.1581 0
M  V30 401 H 37.7236 -1.57193 3.38149 0
M  V30 402 N 39.9087 -1.5758 0.0250728 0
M  V30 403 C 41.1337 -1.96337 -0.668317 0
M  V30 404 C 41.5587 -0.901314 -1.651 0
M  V30 405 O 40.9167 0.138187 -1.80773 0
M  V30 406 C 40.9647 -3.34191 -1.35457 0
M  V30 407 O 40.0687 -3.30269 -2.46974 0
M  V30 408 H 39.4097 -0.640281 -0.175887 0
M  V30 409 H 41.9397 -2.0442 0.0857224 0
M  V30 410 H 41.9497 -3.70331 -1.71228 0
M  V30 411 H 40.6247 -4.11036 -0.634218 0
M  V30 412 H 39.2017 -3.05841 -2.13344 0
M  V30 413 N 41.3868 0.248026 -1.55636 0
M  V30 414 C 42.6328 0.97767 -1.77678 0
M  V30 415 C 42.9658 1.85016 -0.590135 0
M  V30 416 O 42.2408 1.90095 0.411611 0
M  V30 417 C 42.5238 1.83914 -3.09593 0
M  V30 418 C 42.3768 0.99491 -4.38659 0
M  V30 419 C 43.6958 2.82183 -3.37729 0
M  V30 420 H 40.8148 0.354005 -0.646413 0
M  V30 421 H 43.4568 0.248253 -1.88371 0
M  V30 422 H 41.6068 2.46104 -3.00608 0
M  V30 423 H 43.2788 0.391789 -4.59633 0
M  V30 424 H 41.5218 0.299231 -4.32767 0
M  V30 425 H 42.1928 1.63145 -5.2734 0
M  V30 426 H 44.6688 2.30129 -3.4667 0
M  V30 427 H 43.5448 3.39582 -4.31249 0
M  V30 428 H 43.8058 3.58588 -2.58586 0
M  V30 429 N 42.8649 1.48995 0.513639 0
M  V30 430 C 44.2759 1.5119 1.09537 0
M  V30 431 C 44.6269 0.290906 1.94031 0
M  V30 432 O 43.7519 -0.60049 2.07902 0
M  V30 433 C 44.3469 2.73964 1.99322 0
M  V30 434 C 42.9059 2.78978 2.52682 0
M  V30 435 C 42.0529 2.44934 1.30009 0
M  V30 436 H 45.0039 1.55875 0.298125 0
M  V30 437 H 45.0249 2.53409 2.83838 0
M  V30 438 H 44.5369 3.62813 1.37799 0
M  V30 439 H 42.6379 1.94378 3.1788 0
M  V30 440 H 42.7509 3.8083 2.90698 0
M  V30 441 H 41.1149 1.9644 1.62122 0
M  V30 442 H 41.8979 3.36043 0.702131 0
M  V30 443 N 44.343 -0.763751 1.37857 0
M  V30 444 C 45.571 -1.55293 1.36718 0
M  V30 445 C 45.986 -1.88745 -0.0455434 0
M  V30 446 O 45.343 -1.52039 -1.00947 0
M  V30 447 C 45.394 -2.85831 2.2132 0
M  V30 448 O 45.115 -2.5381 3.57089 0
M  V30 449 C 46.616 -3.80023 2.28249 0
M  V30 450 H 43.836 -0.480841 0.468009 0
M  V30 451 H 46.38 -0.946009 1.81303 0
M  V30 452 H 44.535 -3.42926 1.80223 0
M  V30 453 H 44.949 -3.37459 4.01524 0
M  V30 454 H 46.423 -4.68599 2.91752 0
M  V30 455 H 46.9 -4.1973 1.2932 0
M  V30 456 H 47.506 -3.28855 2.69693 0
M  V30 457 N 45.8211 -1.22559 -0.990812 0
M  V30 458 C 47.2321 -1.04791 -1.54518 0
M  V30 459 C 47.5831 0.387998 -1.92325 0
M  V30 460 O 46.7081 1.27328 -1.74976 0
M  V30 461 C 47.3031 -1.896 -2.80779 0
M  V30 462 C 45.8621 -1.76124 -3.32652 0
M  V30 463 C 45.0091 -1.8594 -2.05722 0
M  V30 464 H 47.9601 -1.36374 -0.811662 0
M  V30 465 H 47.9811 -1.41464 -3.53225 0
M  V30 466 H 47.4931 -2.94101 -2.53231 0
M  V30 467 H 45.5941 -0.743643 -3.65104 0
M  V30 468 H 45.7071 -2.58913 -4.03114 0
M  V30 469 H 44.0711 -1.29403 -2.19379 0
M  V30 470 H 44.8541 -2.91976 -1.80568 0
M  V30 471 N 47.2992 1.18797 -1.03562 0
M  V30 472 C 48.5272 1.92599 -0.755869 0
M  V30 473 C 48.9422 1.75886 0.686271 0
M  V30 474 O 48.2992 1.08517 1.46732 0
M  V30 475 C 48.3502 3.44159 -1.10619 0
M  V30 476 O 48.0712 3.60341 -2.4917 0
M  V30 477 C 49.5722 4.3507 -0.850214 0
M  V30 478 H 46.7922 0.611587 -0.276048 0
M  V30 479 H 49.3362 1.50742 -1.38192 0
M  V30 480 H 47.4912 3.83823 -0.525194 0
M  V30 481 H 47.9052 4.54128 -2.62427 0
M  V30 482 H 49.3792 5.39989 -1.14523 0
M  V30 483 H 49.8562 4.38673 0.215176 0
M  V30 484 H 50.4622 4.01097 -1.41426 0
M  V30 485 N 48.7773 0.814389 1.34928 0
M  V30 486 C 49.7253 0.218424 2.31572 0
M  V30 487 C 50.7193 -0.636128 1.57002 0
M  V30 488 O 51.9253 -0.52842 1.72069 0
M  V30 489 H 48.3003 0.0518799 0.750208 0
M  V30 490 H 50.2713 1.04852 2.79372 0
M  V30 491 C 49.0203 -0.61207 3.4227 0
M  V30 492 H 48.3433 0.0361578 3.99784 0
M  V30 493 H 49.7833 -0.995317 4.12152 0
M  V30 494 C 48.2423 -1.78087 2.85984 0
M  V30 495 O 48.7723 -2.8787 2.80168 0
M  V30 496 N 46.9783 -1.59488 2.42924 0
M  V30 497 H 46.5253 -0.701874 2.47854 0
M  V30 498 H 46.4833 -2.37846 2.05613 0
M  V30 499 N 50.2554 -1.46986 0.568584 0
M  V30 500 C 51.5014 -2.02741 0.0488709 0
M  V30 501 C 51.8344 -1.44077 -1.30214 0
M  V30 502 O 51.1094 -0.600552 -1.84996 0
M  V30 503 C 51.3924 -3.60086 -0.032047 0
M  V30 504 C 51.2454 -4.29162 1.34686 0
M  V30 505 C 52.5644 -4.33838 -0.739798 0
M  V30 506 H 49.6834 -0.736749 0.0192338 0
M  V30 507 H 52.3254 -1.75289 0.733065 0
M  V30 508 H 50.4754 -3.83606 -0.61473 0
M  V30 509 H 52.1474 -4.16948 1.97362 0
M  V30 510 H 50.3904 -3.89073 1.91846 0
M  V30 511 H 51.0614 -5.37826 1.24285 0
M  V30 512 H 53.5374 -4.15378 -0.244939 0
M  V30 513 H 52.4134 -5.43537 -0.765406 0
M  V30 514 H 52.6744 -4.03875 -1.79827 0
M  V30 515 N 51.7335 -0.305618 -1.54608 0
M  V30 516 C 52.9615 0.304775 -2.04643 0
M  V30 517 C 53.3765 1.47167 -1.18268 0
M  V30 518 O 52.7335 1.81296 -0.209328 0
M  V30 519 C 52.7845 0.756564 -3.53495 0
M  V30 520 O 52.5055 -0.36389 -4.36586 0
M  V30 521 C 54.0065 1.43163 -4.19546 0
M  V30 522 H 51.2265 0.0655481 -0.667791 0
M  V30 523 H 53.7705 -0.446592 -1.99564 0
M  V30 524 H 51.9255 1.45794 -3.58919 0
M  V30 525 H 52.3395 -0.0113121 -5.24499 0
M  V30 526 H 53.8135 1.69886 -5.25207 0
M  V30 527 H 54.2905 2.37318 -3.69563 0
M  V30 528 H 54.8965 0.773307 -4.18211 0
M  V30 529 N 53.2116 1.57565 -0.0334293 0
M  V30 530 C 54.4606 1.91155 0.643639 0
M  V30 531 C 54.7736 0.91192 1.73042 0
M  V30 532 O 55.9796 1.13923 2.46442 0
M  V30 533 C 54.4356 3.39443 1.1961 0
M  V30 534 C 54.0436 4.47774 0.142381 0
M  V30 535 C 55.7876 3.82094 1.84944 0
M  V30 536 C 53.6946 5.87162 0.706727 0
M  V30 537 H 52.6246 0.713368 0.244176 0
M  V30 538 H 55.2756 1.8323 -0.0994323 0
M  V30 539 H 53.6576 3.42313 1.99092 0
M  V30 540 H 54.8316 4.56469 -0.630296 0
M  V30 541 H 53.1466 4.14352 -0.412446 0
M  V30 542 H 55.7436 4.83591 2.2813 0
M  V30 543 H 56.0866 3.17386 2.69392 0
M  V30 544 H 56.6196 3.81665 1.12145 0
M  V30 545 H 53.3586 6.55424 -0.0997178 0
M  V30 546 H 52.8786 5.82064 1.44779 0
M  V30 547 H 54.5576 6.35866 1.19514 0
M  V30 548 N 54.6897 -0.239769 1.55765 0
M  V30 549 C 55.5997 -1.31831 1.94056 0
M  V30 550 C 56.6157 -1.52275 0.841925 0
M  V30 551 O 57.7917 -1.65759 1.14394 0
M  V30 552 C 54.8567 -2.65156 2.23368 0
M  V30 553 C 53.9177 -2.53173 3.46701 0
M  V30 554 C 53.1507 -3.8014 3.74606 0
M  V30 555 O 53.3737 -4.82343 3.04469 0
M  V30 556 O 52.3077 -3.78344 4.68123 0
M  V30 557 H 56.1337 -1.02347 2.85935 0
M  V30 558 H 53.7187 -0.441123 1.42739 0
M  V30 559 H 55.6007 -3.43929 2.43497 0
M  V30 560 H 54.2757 -2.94358 1.34666 0
M  V30 561 H 53.1827 -1.72662 3.31871 0
M  V30 562 H 54.5157 -2.28915 4.35728 0
M  V30 563 N 56.1678 -1.49265 -0.50573 0
M  V30 564 C 57.3928 -1.62478 -1.28902 0
M  V30 565 C 57.8178 -0.294332 -1.85783 0
M  V30 566 O 57.1758 0.737412 -1.65626 0
M  V30 567 C 57.2238 -2.69268 -2.39848 0
M  V30 568 O 56.3278 -2.28113 -3.43567 0
M  V30 569 H 55.6688 -0.54399 -0.380751 0
M  V30 570 H 58.1988 -1.95421 -0.605952 0
M  V30 571 H 58.2088 -2.91291 -2.85681 0
M  V30 572 H 56.8838 -3.65846 -1.97812 0
M  V30 573 H 55.4608 -2.16401 -3.03685 0
M  V30 574 N 57.6459 0.756429 -1.3826 0
M  V30 575 C 58.8759 1.54341 -1.3734 0
M  V30 576 C 59.2839 1.89159 0.0393917 0
M  V30 577 O 58.6269 1.5307 1.01565 0
M  V30 578 C 58.6889 2.87238 -2.16182 0
M  V30 579 C 58.3529 2.74973 -3.65019 0
M  V30 580 C 59.3499 2.44962 -4.58574 0
M  V30 581 C 57.0349 2.92515 -4.08338 0
M  V30 582 C 59.0289 2.32642 -5.93428 0
M  V30 583 C 56.7159 2.79815 -5.43274 0
M  V30 584 C 57.7139 2.49921 -6.35632 0
M  V30 585 O 57.4019 2.37275 -7.68086 0
M  V30 586 H 57.1339 0.484281 -0.471643 0
M  V30 587 H 59.6879 0.944152 -1.82414 0
M  V30 588 H 57.9179 3.49342 -1.65822 0
M  V30 589 H 59.6069 3.48731 -2.07705 0
M  V30 590 H 60.3729 2.31081 -4.26412 0
M  V30 591 H 56.2519 3.14781 -3.368 0
M  V30 592 H 59.7959 2.0923 -6.65484 0
M  V30 593 H 55.6929 2.93269 -5.75034 0
M  V30 594 H 56.4609 2.52509 -7.78577 0
M  V30 595 N 59.124 1.23083 0.984299 0
M  V30 596 C 60.072 1.00593 2.09723 0
M  V30 597 C 61.066 -0.0538014 1.69315 0
M  V30 598 O 62.272 0.0993719 1.79725 0
M  V30 599 H 58.647 0.30817 0.685956 0
M  V30 600 H 60.618 1.95012 2.2586 0
M  V30 601 C 59.367 0.609601 3.42314 0
M  V30 602 H 58.69 1.41675 3.73856 0
M  V30 603 H 60.13 0.491726 4.21139 0
M  V30 604 C 58.589 -0.681745 3.2993 0
M  V30 605 O 59.119 -1.73192 3.62446 0
M  V30 606 N 57.325 -0.656178 2.83095 0
M  V30 607 H 56.872 0.198759 2.56832 0
M  V30 608 H 56.83 -1.52044 2.75191 0
M  V30 609 N 60.6021 -1.18246 1.0419 0
M  V30 610 C 61.5351 -2.20746 0.578474 0
M  V30 611 C 62.5131 -1.57912 -0.387624 0
M  V30 612 O 63.6971 -1.86071 -0.301634 0
M  V30 613 C 60.8241 -3.38346 -0.154762 0
M  V30 614 C 59.8701 -4.19587 0.764782 0
M  V30 615 S 60.7031 -4.86014 2.24835 0
M  V30 616 C 61.8591 -6.07012 1.526 0
M  V30 617 H 62.0921 -2.59715 1.44691 0
M  V30 618 H 59.6251 -1.287 0.85297 0
M  V30 619 H 61.5831 -4.065 -0.571641 0
M  V30 620 H 60.2441 -2.97786 -0.999105 0
M  V30 621 H 59.4371 -5.03611 0.197976 0
M  V30 622 H 59.0391 -3.56818 1.12057 0
M  V30 623 H 61.3311 -6.72523 0.819733 0
M  V30 624 H 62.2741 -6.68202 2.34333 0
M  V30 625 H 62.6821 -5.55249 1.01779 0
M  V30 626 N 62.0802 -0.821533 -1.34494 0
M  V30 627 C 63.0282 -0.230702 -2.31453 0
M  V30 628 C 64.0222 0.627793 -1.57338 0
M  V30 629 O 65.2282 0.519288 -1.72347 0
M  V30 630 H 61.6032 -0.0558577 -0.749923 0
M  V30 631 H 63.5742 -1.06332 -2.78812 0
M  V30 632 C 62.3232 0.59391 -3.4259 0
M  V30 633 H 61.6462 -0.0573588 -3.99759 0
M  V30 634 H 63.0862 0.973446 -4.12674 0
M  V30 635 C 61.5452 1.76568 -2.86924 0
M  V30 636 O 62.0752 2.8638 -2.81691 0
M  V30 637 N 60.2812 1.58198 -2.43766 0
M  V30 638 H 59.8282 0.68872 -2.48222 0
M  V30 639 H 59.7862 2.36752 -2.06871 0
M  V30 640 N 63.5583 1.46682 -0.576371 0
M  V30 641 C 64.9693 1.86112 -0.148091 0
M  V30 642 C 65.3203 1.48073 1.2872 0
M  V30 643 O 64.4453 0.892656 1.97131 0
M  V30 644 C 65.0403 3.37786 -0.261982 0
M  V30 645 C 63.5993 3.76235 0.111384 0
M  V30 646 C 62.7463 2.70713 -0.60083 0
M  V30 647 H 65.6973 1.37927 -0.78497 0
M  V30 648 H 65.7183 3.77007 0.514364 0
M  V30 649 H 65.2303 3.6544 -1.30671 0
M  V30 650 H 63.3313 3.54198 1.15649 0
M  V30 651 H 63.4443 4.78391 -0.26052 0
M  V30 652 H 61.8083 2.54666 -0.0417783 0
M  V30 653 H 62.5913 3.01208 -1.64708 0
M  V30 654 N 65.0364 0.313813 1.54444 0
M  V30 655 C 66.2854 -0.292519 1.99568 0
M  V30 656 C 66.5984 -1.54011 1.20582 0
M  V30 657 O 67.8044 -2.22183 1.56035 0
M  V30 658 C 66.2604 -0.571752 3.55329 0
M  V30 659 C 65.8684 0.658229 4.43138 0
M  V30 660 C 67.6124 -1.13857 4.08946 0
M  V30 661 C 65.5194 0.351439 5.90355 0
M  V30 662 H 64.4494 -0.113079 0.745472 0
M  V30 663 H 67.1004 0.424518 1.78522 0
M  V30 664 H 65.4824 -1.34872 3.72325 0
M  V30 665 H 66.6564 1.43403 4.37918 0
M  V30 666 H 64.9714 1.14458 4.0036 0
M  V30 667 H 67.5684 -1.38257 5.16516 0
M  V30 668 H 67.9114 -2.08489 3.6033 0
M  V30 669 H 68.4444 -0.423015 3.95544 0
M  V30 670 H 65.1834 1.26667 6.43145 0
M  V30 671 H 64.7034 -0.386842 5.98551 0
M  V30 672 H 66.3824 -0.0423134 6.46986 0
M  V30 673 N 66.5145 -1.57545 0.0417849 0
M  V30 674 C 67.7605 -1.92601 -0.635021 0
M  V30 675 C 68.0935 -0.919627 -1.71045 0
M  V30 676 O 67.3685 0.0557892 -1.9442 0
M  V30 677 C 67.6515 -3.38085 -1.23979 0
M  V30 678 C 67.5045 -4.49467 -0.173057 0
M  V30 679 C 68.8235 -3.83776 -2.15416 0
M  V30 680 H 65.9425 -0.700397 -0.229374 0
M  V30 681 H 68.5845 -1.89728 0.101633 0
M  V30 682 H 66.7345 -3.40664 -1.86762 0
M  V30 683 H 68.4065 -4.59018 0.458312 0
M  V30 684 H 66.6495 -4.30909 0.499996 0
M  V30 685 H 67.3205 -5.48323 -0.636054 0
M  V30 686 H 69.7965 -3.83013 -1.62605 0
M  V30 687 H 68.6725 -4.8624 -2.54679 0
M  V30 688 H 68.9335 -3.19998 -3.05047 0
M  V30 689 N 67.9926 0.231505 -1.5589 0
M  V30 690 C 69.2226 0.973092 -1.82248 0
M  V30 691 C 69.6306 1.78845 -0.617328 0
M  V30 692 O 68.9736 1.78752 0.423499 0
M  V30 693 C 69.0356 1.94732 -3.02192 0
M  V30 694 C 68.6996 1.31743 -4.37599 0
M  V30 695 C 69.6966 0.712238 -5.14998 0
M  V30 696 C 67.3816 1.33218 -4.84312 0
M  V30 697 C 69.3756 0.130195 -6.37267 0
M  V30 698 C 67.0626 0.746286 -6.06526 0
M  V30 699 C 68.0606 0.146337 -6.82843 0
M  V30 700 O 67.7486 -0.430465 -8.02747 0
M  V30 701 H 67.4806 0.29125 -0.61004 0
M  V30 702 H 70.0346 0.254915 -2.03812 0
M  V30 703 H 68.2646 2.70422 -2.76422 0
M  V30 704 H 69.9536 2.55362 -3.15508 0
M  V30 705 H 70.7196 0.69324 -4.8002 0
M  V30 706 H 66.5986 1.78854 -4.24891 0
M  V30 707 H 70.1426 -0.33871 -6.96777 0
M  V30 708 H 66.0396 0.762663 -6.40979 0
M  V30 709 H 66.8076 -0.323818 -8.17859 0
M  V30 710 N 69.4707 1.49531 0.497807 0
M  V30 711 C 70.7167 1.60388 1.25089 0
M  V30 712 C 71.0717 0.288328 1.90227 0
M  V30 713 O 70.3647 -0.711706 1.77891 0
M  V30 714 C 70.5587 2.70252 2.33878 0
M  V30 715 C 70.3877 4.12363 1.79408 0
M  V30 716 C 69.1577 4.7911 1.60566 0
M  V30 717 C 71.3557 4.97491 1.30412 0
M  V30 718 N 69.3377 6.05525 1.01059 0
M  V30 719 C 70.7087 6.14411 0.830595 0
M  V30 720 C 72.7637 4.83466 1.19015 0
M  V30 721 C 71.4667 7.1885 0.254371 0
M  V30 722 C 73.4927 5.88057 0.627892 0
M  V30 723 C 72.8547 7.04208 0.16461 0
M  V30 724 H 68.9537 0.641246 0.447579 0
M  V30 725 H 71.5377 1.86549 0.557441 0
M  V30 726 H 69.7087 2.45858 3.0068 0
M  V30 727 H 71.4407 2.70613 3.00917 0
M  V30 728 H 68.1957 4.35961 1.85026 0
M  V30 729 H 68.6197 6.73028 0.732236 0
M  V30 730 H 73.2617 3.93978 1.53431 0
M  V30 731 H 70.9797 8.08036 -0.102052 0
M  V30 732 H 74.5657 5.79266 0.542444 0
M  V30 733 H 73.4457 7.83757 -0.263669 0
M  V30 734 N 70.9488 -0.749086 1.3866 0
M  V30 735 C 71.8588 -1.89358 1.38494 0
M  V30 736 C 72.8748 -1.71708 0.281476 0
M  V30 737 O 74.0508 -1.94554 0.520643 0
M  V30 738 C 71.1158 -3.24782 1.21316 0
M  V30 739 C 70.1768 -3.54926 2.41508 0
M  V30 740 C 69.4098 -4.83888 2.2514 0
M  V30 741 O 69.6328 -5.56592 1.24746 0
M  V30 742 O 68.5668 -5.13612 3.13826 0
M  V30 743 H 72.3928 -1.92452 2.34938 0
M  V30 744 H 69.9778 -0.894981 1.19626 0
M  V30 745 H 71.8598 -4.05739 1.13814 0
M  V30 746 H 70.5348 -3.2249 0.279592 0
M  V30 747 H 69.4418 -2.74112 2.54585 0
M  V30 748 H 70.7748 -3.61983 3.3351 0
M  V30 749 N 72.4269 -1.23603 -0.977757 0
M  V30 750 C 73.6569 -1.09487 -1.75203 0
M  V30 751 C 74.0649 0.356321 -1.85814 0
M  V30 752 O 73.4079 1.25816 -1.33851 0
M  V30 753 C 73.4699 -1.64905 -3.19447 0
M  V30 754 C 73.1339 -3.13688 -3.32338 0
M  V30 755 C 74.1309 -4.10953 -3.18455 0
M  V30 756 C 71.8159 -3.53449 -3.56902 0
M  V30 757 C 73.8099 -5.45962 -3.28944 0
M  V30 758 C 71.4969 -4.88602 -3.6703 0
M  V30 759 C 72.4949 -5.84668 -3.53062 0
M  V30 760 O 72.1829 -7.17365 -3.62826 0
M  V30 761 H 71.9149 -0.38367 -0.556573 0
M  V30 762 H 74.4689 -1.6398 -1.23693 0
M  V30 763 H 72.6989 -1.04835 -3.72218 0
M  V30 764 H 74.3879 -1.46226 -3.78646 0
M  V30 765 H 75.1539 -3.81577 -2.99372 0
M  V30 766 H 71.0329 -2.79188 -3.66844 0
M  V30 767 H 74.5769 -6.20925 -3.17958 0
M  V30 768 H 70.4739 -5.17653 -3.85623 0
M  V30 769 H 71.2419 -7.2515 -3.79605 0
M  V30 770 N 73.905 1.17692 -1.04816 0
M  V30 771 C 74.837 2.21103 -0.603822 0
M  V30 772 C 75.85 1.59411 0.33046 0
M  V30 773 O 77.039 1.7807 0.12379 0
M  V30 774 C 74.139 3.38623 0.136898 0
M  V30 775 C 73.312 4.29888 -0.807137 0
M  V30 776 C 72.371 5.26088 -0.10836 0
M  V30 777 O 71.397 5.64353 -0.741232 0
M  V30 778 N 72.599 5.68882 1.15558 0
M  V30 779 H 75.364 2.59848 -1.49329 0
M  V30 780 H 72.925 1.32553 -0.929587 0
M  V30 781 H 74.917 4.00009 0.614401 0
M  V30 782 H 73.487 2.98508 0.927993 0
M  V30 783 H 72.707 3.65993 -1.46434 0
M  V30 784 H 73.995 4.87759 -1.44807 0
M  V30 785 H 73.393 5.39861 1.69015 0
M  V30 786 H 71.95 6.32429 1.57722 0
M  V30 787 N 75.3831 0.828654 1.34056 0
M  V30 788 C 76.6321 0.415828 1.97367 0
M  V30 789 C 76.9451 -1.02796 1.6641 0
M  V30 790 O 78.1511 -1.54497 2.23255 0
M  V30 791 C 76.6071 0.692601 3.53173 0
M  V30 792 C 76.2151 2.15038 3.93017 0
M  V30 793 C 77.9591 0.346222 4.23086 0
M  V30 794 C 75.8661 2.37174 5.41758 0
M  V30 795 H 74.7961 0.151755 0.738571 0
M  V30 796 H 77.4471 1.01581 1.52819 0
M  V30 797 H 75.8291 0.0223764 3.95994 0
M  V30 798 H 77.0031 2.86024 3.61285 0
M  V30 799 H 75.3181 2.45875 3.36057 0
M  V30 800 H 77.9151 0.48937 5.32456 0
M  V30 801 H 78.2581 -0.709842 4.10204 0
M  V30 802 H 78.7911 0.971258 3.85761 0
M  V30 803 H 75.5301 3.41308 5.59633 0
M  V30 804 H 75.0501 1.70738 5.74986 0
M  V30 805 H 76.7291 2.19818 6.08514 0
M  V30 806 N 76.8612 -1.46375 0.584142 0
M  V30 807 C 77.7942 -2.27351 -0.196676 0
M  V30 808 C 78.7722 -1.35715 -0.895561 0
M  V30 809 O 79.9562 -1.65126 -0.90916 0
M  V30 810 C 77.0832 -3.13486 -1.28235 0
M  V30 811 C 76.1292 -4.20896 -0.689145 0
M  V30 812 S 76.9622 -5.33299 0.48507 0
M  V30 813 C 78.1182 -6.23 -0.601767 0
M  V30 814 H 78.3512 -2.93228 0.490395 0
M  V30 815 H 75.8842 -1.49875 0.371071 0
M  V30 816 H 77.8422 -3.63676 -1.90395 0
M  V30 817 H 76.5032 -2.4692 -1.94138 0
M  V30 818 H 75.6962 -4.80997 -1.50527 0
M  V30 819 H 75.2982 -3.73726 -0.143181 0
M  V30 820 H 77.5902 -6.60979 -1.48705 0
M  V30 821 H 78.5332 -7.0809 -0.0374799 0
M  V30 822 H 78.9412 -5.57173 -0.906557 0
M  V30 823 N 78.3393 -0.321999 -1.54275 0
M  V30 824 C 79.7503 0.166384 -1.85957 0
M  V30 825 C 80.1013 1.51747 -1.24367 0
M  V30 826 O 79.2263 2.09317 -0.549124 0
M  V30 827 C 79.8213 0.308681 -3.37391 0
M  V30 828 C 78.3803 0.741286 -3.69028 0
M  V30 829 C 77.5273 -0.137937 -2.76957 0
M  V30 830 H 80.4783 -0.542335 -1.49146 0
M  V30 831 H 80.4993 1.13984 -3.63026 0
M  V30 832 H 80.0113 -0.674809 -3.82188 0
M  V30 833 H 78.1123 1.73458 -3.29762 0
M  V30 834 H 78.2253 0.546118 -4.75977 0
M  V30 835 H 76.5893 0.386251 -2.51754 0
M  V30 836 H 77.3723 -1.11816 -3.2458 0
M  V30 837 N 79.8174 1.5752 -0.0501392 0
M  V30 838 C 80.7494 2.08413 0.95376 0
M  V30 839 C 81.7624 1.01175 1.27544 0
M  V30 840 O 82.9514 1.28744 1.23641 0
M  V30 841 C 80.0514 2.51138 2.27559 0
M  V30 842 C 79.2244 3.817 2.13598 0
M  V30 843 C 78.2834 4.10749 3.28895 0
M  V30 844 O 77.3094 4.80685 3.04845 0
M  V30 845 N 78.5114 3.62579 4.5334 0
M  V30 846 H 81.2764 2.95165 0.519383 0
M  V30 847 H 78.8374 1.61327 0.136127 0
M  V30 848 H 80.8294 2.67648 3.03557 0
M  V30 849 H 79.3994 1.6964 2.62567 0
M  V30 850 H 78.6194 3.74782 1.22197 0
M  V30 851 H 79.9074 4.67201 2.01496 0
M  V30 852 H 79.3054 3.06039 4.75769 0
M  V30 853 H 77.8624 3.84329 5.26436 0
M  V30 854 N 81.2955 -0.223234 1.56011 0
M  V30 855 C 82.5415 -0.949279 1.79211 0
M  V30 856 C 82.8745 -1.84054 0.619494 0
M  V30 857 O 82.1495 -1.90726 -0.381317 0
M  V30 858 C 82.4325 -1.78965 3.12479 0
M  V30 859 C 82.2855 -0.924997 4.40186 0
M  V30 860 C 83.6045 -2.76774 3.42175 0
M  V30 861 H 80.7235 -0.343676 0.651963 0
M  V30 862 H 83.3655 -0.218253 1.88742 0
M  V30 863 H 81.5155 -2.41291 3.04485 0
M  V30 864 H 83.1875 -0.318615 4.60198 0
M  V30 865 H 81.4305 -0.230344 4.33188 0
M  V30 866 H 82.1015 -1.54735 5.29869 0
M  V30 867 H 84.5775 -2.24584 3.50287 0
M  V30 868 H 83.4535 -3.32678 4.36597 0
M  V30 869 H 83.7145 -3.54429 2.64258 0
M  V30 870 N 82.7736 -1.49793 -0.48987 0
M  V30 871 C 84.1846 -1.52914 -1.07118 0
M  V30 872 C 84.5356 -0.321738 -1.93544 0
M  V30 873 O 83.6606 0.567338 -2.08831 0
M  V30 874 C 84.2556 -2.771 -1.94938 0
M  V30 875 C 82.8146 -2.82963 -2.48212 0
M  V30 876 C 81.9616 -2.46972 -1.26096 0
M  V30 877 H 84.9126 -1.56329 -0.273289 0
M  V30 878 H 84.9336 -2.57892 -2.79771 0
M  V30 879 H 84.4456 -3.64959 -1.32009 0
M  V30 880 H 82.5466 -1.99411 -3.14748 0
M  V30 881 H 82.6596 -3.85406 -2.84603 0
M  V30 882 H 81.0236 -1.98994 -1.58976 0
M  V30 883 H 81.8066 -3.37118 -0.648581 0
M  V30 884 N 84.2517 0.741722 -1.39055 0
M  V30 885 C 85.4977 1.50336 -1.36113 0
M  V30 886 C 85.8307 1.94148 0.0450796 0
M  V30 887 O 85.1057 1.66301 1.00868 0
M  V30 888 C 85.3887 2.74773 -2.32749 0
M  V30 889 C 85.2417 2.37023 -3.82283 0
M  V30 890 C 86.5607 3.76846 -2.27322 0
M  V30 891 H 83.6797 0.545351 -0.495743 0
M  V30 892 H 86.3217 0.848624 -1.69995 0
M  V30 893 H 84.4717 3.30639 -2.03986 0
M  V30 894 H 86.1437 1.8684 -4.21768 0
M  V30 895 H 84.3867 1.69334 -3.99385 0
M  V30 896 H 85.0577 3.26104 -4.45376 0
M  V30 897 H 87.5337 3.30548 -2.5274 0
M  V30 898 H 86.4097 4.6159 -2.97028 0
M  V30 899 H 86.6707 4.23286 -1.27599 0
M  V30 900 N 85.7298 1.2412 0.971189 0
M  V30 901 C 86.9768 1.07881 1.71371 0
M  V30 902 C 87.3048 -0.382901 1.90694 0
M  V30 903 O 86.5598 -1.29945 1.46331 0
M  V30 904 C 86.8588 1.75983 3.11071 0
M  V30 905 C 86.5248 3.25909 3.11599 0
M  V30 906 C 85.1868 3.66813 3.11451 0
M  V30 907 C 87.5388 4.21771 3.062 0
M  V30 908 C 84.8668 5.02021 3.03631 0
M  V30 909 C 87.2188 5.56982 2.99923 0
M  V30 910 C 85.8828 5.97237 2.98102 0
M  V30 911 H 85.1528 0.394764 0.62709 0
M  V30 912 H 87.7998 1.54176 1.13587 0
M  V30 913 H 86.1048 1.22072 3.72298 0
M  V30 914 H 87.8018 1.60887 3.6731 0
M  V30 915 H 84.3918 2.93353 3.12477 0
M  V30 916 H 88.5758 3.91172 3.05447 0
M  V30 917 H 83.8318 5.32411 3.0058 0
M  V30 918 H 88.0058 6.30969 2.94704 0
M  V30 919 H 85.6328 7.01967 2.91798 0
M  V30 920 N 87.2079 -1.17134 1.05439 0
M  V30 921 C 88.4359 -1.91372 0.786414 0
M  V30 922 C 88.8509 -1.76955 -0.658202 0
M  V30 923 O 88.2079 -1.10838 -1.44987 0
M  V30 924 C 88.2589 -3.42356 1.1608 0
M  V30 925 O 87.9799 -3.56332 2.54871 0
M  V30 926 C 89.4809 -4.33663 0.919322 0
M  V30 927 H 86.7009 -0.607118 0.285743 0
M  V30 928 H 89.2449 -1.48525 1.40572 0
M  V30 929 H 87.3999 -3.82939 0.586191 0
M  V30 930 H 87.8139 -4.49896 2.69618 0
M  V30 931 H 89.2879 -5.38099 1.231 0
M  V30 932 H 89.7649 -4.38959 -0.145359 0
M  V30 933 H 90.3709 -3.98796 1.47789 0
M  V30 934 N 88.686 -0.835752 -1.33615 0
M  V30 935 C 89.932 -0.430596 -1.98176 0
M  V30 936 C 90.265 1.00684 -1.66061 0
M  V30 937 O 89.54 1.70339 -0.938877 0
M  V30 938 C 89.823 -0.648065 -3.5422 0
M  V30 939 C 89.676 -2.13255 -3.96033 0
M  V30 940 C 90.995 -0.0922113 -4.40003 0
M  V30 941 H 88.114 -0.157924 -0.719881 0
M  V30 942 H 90.756 -1.05069 -1.58305 0
M  V30 943 H 88.906 -0.120237 -3.88314 0
M  V30 944 H 90.578 -2.725 -3.72211 0
M  V30 945 H 88.821 -2.61823 -3.45878 0
M  V30 946 H 89.492 -2.23547 -5.04708 0
M  V30 947 H 91.968 -0.543343 -4.12537 0
M  V30 948 H 90.844 -0.274083 -5.48215 0
M  V30 949 H 91.105 1.00378 -4.30554 0
M  V30 950 N 90.1641 1.46063 -0.591896 0
M  V30 951 C 91.0741 2.34192 0.13831 0
M  V30 952 C 92.0901 1.50305 0.876608 0
M  V30 953 O 93.2661 1.8315 0.837728 0
M  V30 954 C 90.3311 3.27656 1.13326 0
M  V30 955 C 89.3921 4.27445 0.39863 0
M  V30 956 C 88.6251 5.16443 1.34618 0
M  V30 957 O 88.8481 5.08553 2.58321 0
M  V30 958 O 87.7821 5.95843 0.851768 0
M  V30 959 H 91.6081 2.98002 -0.58552 0
M  V30 960 H 89.1931 1.45188 -0.352239 0
M  V30 961 H 91.0751 3.85291 1.70671 0
M  V30 962 H 89.7501 2.6643 1.83839 0
M  V30 963 H 88.6571 3.73471 -0.216895 0
M  V30 964 H 89.9901 4.91482 -0.265709 0
M  V30 965 N 91.6422 0.330177 1.54103 0
M  V30 966 C 92.8882 -0.270806 2.00984 0
M  V30 967 C 93.2212 -1.51265 1.21789 0
M  V30 968 O 92.4962 -1.92142 0.301927 0
M  V30 969 C 92.7792 -0.598339 3.55094 0
M  V30 970 C 92.6322 0.654674 4.4501 0
M  V30 971 C 93.9512 -1.41334 4.16789 0
M  V30 972 H 91.0702 -0.0969531 0.730595 0
M  V30 973 H 93.7122 0.448066 1.84641 0
M  V30 974 H 91.8622 -1.21078 3.69151 0
M  V30 975 H 93.5342 1.29285 4.42813 0
M  V30 976 H 91.7772 1.28224 4.14416 0
M  V30 977 H 92.4482 0.380944 5.50684 0
M  V30 978 H 94.9242 -0.895597 4.06347 0
M  V30 979 H 93.8002 -1.61127 5.24718 0
M  V30 980 H 94.0612 -2.41146 3.70541 0
M  V30 981 N 93.1203 -1.57491 0.0584922 0
M  V30 982 C 94.0673 -2.11958 -0.913376 0
M  V30 983 C 95.0373 -1.02875 -1.30407 0
M  V30 984 O 96.2223 -1.30464 -1.39226 0
M  V30 985 C 93.3623 -2.67497 -2.18035 0
M  V30 986 C 92.4753 -3.90691 -1.84349 0
M  V30 987 C 91.6103 -4.3452 -3.05559 0
M  V30 988 C 90.6493 -5.50395 -2.67827 0
M  V30 989 N 89.7863 -5.89244 -3.81754 0
M  V30 990 H 94.6263 -2.94704 -0.442017 0
M  V30 991 H 92.1633 -1.45643 -0.206545 0
M  V30 992 H 94.1213 -2.978 -2.92183 0
M  V30 993 H 92.7513 -1.87537 -2.62735 0
M  V30 994 H 91.8033 -3.66934 -1.00319 0
M  V30 995 H 93.1153 -4.7489 -1.5258 0
M  V30 996 H 92.2693 -4.66414 -3.87998 0
M  V30 997 H 91.0083 -3.49147 -3.40511 0
M  V30 998 H 90.0133 -5.18165 -1.83806 0
M  V30 999 H 91.2383 -6.3749 -2.34059 0
M  V30 1000 H 89.1843 -5.06823 -4.16493 0
M  V30 1001 H 89.1013 -6.68151 -3.53708 0
M  V30 1002 H 90.3693 -6.25756 -4.64811 0
M  V30 1003 N 94.5984 0.214957 -1.56127 0
M  V30 1004 C 95.5464 1.28601 -1.93816 0
M  V30 1005 C 96.5404 1.48175 -0.821016 0
M  V30 1006 O 97.7464 1.49271 -1.0059 0
M  V30 1007 H 94.1214 0.431302 -0.616022 0
M  V30 1008 H 96.0924 0.940991 -2.83175 0
M  V30 1009 C 94.8414 2.62779 -2.27689 0
M  V30 1010 H 94.1644 2.48527 -3.13168 0
M  V30 1011 H 95.6044 3.36517 -2.57939 0
M  V30 1012 C 94.0634 3.18285 -1.10436 0
M  V30 1013 O 94.5934 4.00002 -0.368945 0
M  V30 1014 N 92.7994 2.7675 -0.886433 0
M  V30 1015 H 92.3464 2.10404 -1.48619 0
M  V30 1016 H 92.3044 3.14229 -0.103656 0
M  V30 1017 N 96.0765 1.50051 0.48192 0
M  V30 1018 C 97.3065 1.63999 1.2565 0
M  V30 1019 C 97.7145 0.318288 1.86504 0
M  V30 1020 O 97.0575 -0.708534 1.69486 0
M  V30 1021 C 97.1195 2.66504 2.4128 0
M  V30 1022 C 96.7835 4.10352 2.01148 0
M  V30 1023 C 97.7805 4.96562 1.54021 0
M  V30 1024 C 95.4655 4.56203 2.10199 0
M  V30 1025 C 97.4595 6.26668 1.16473 0
M  V30 1026 C 95.1465 5.86318 1.72264 0
M  V30 1027 C 96.1445 6.71375 1.25477 0
M  V30 1028 O 95.8325 7.99062 0.880626 0
M  V30 1029 H 95.5645 0.55456 0.386574 0
M  V30 1030 H 98.1185 1.96954 0.582944 0
M  V30 1031 H 96.3485 2.28769 3.11772 0
M  V30 1032 H 98.0375 2.69783 3.03268 0
M  V30 1033 H 98.8035 4.62358 1.46458 0
M  V30 1034 H 94.6825 3.90152 2.45566 0
M  V30 1035 H 98.2265 6.93011 0.798841 0
M  V30 1036 H 94.1235 6.20046 1.79482 0
M  V30 1037 H 94.8915 8.12239 1.01043 0
M  V30 1038 N 97.5546 -0.734337 1.39446 0
M  V30 1039 C 98.8026 -1.49096 1.36436 0
M  V30 1040 C 99.1236 -1.94961 -0.0388255 0
M  V30 1041 O 98.3936 -1.69033 -0.990191 0
M  V30 1042 H 96.9736 -0.5531 0.502085 0
M  V30 1043 H 99.6356 -0.871725 1.74319 0
M  V30 1044 H 98.7316 -2.37276 2.02747 0
M  V30 1045 N 99.0327 -1.24633 -0.964593 0
M  V30 1046 C 100.279 -1.08949 -1.71049 0
M  V30 1047 C 100.612 0.370302 -1.90637 0
M  V30 1048 O 99.8867 1.27349 -1.47011 0
M  V30 1049 C 100.17 -1.83329 -3.0994 0
M  V30 1050 C 100.023 -3.37077 -2.97824 0
M  V30 1051 C 101.342 -1.60846 -4.09654 0
M  V30 1052 H 98.4607 -0.397178 -0.620821 0
M  V30 1053 H 101.103 -1.5334 -1.12191 0
M  V30 1054 H 99.2527 -1.45597 -3.60186 0
M  V30 1055 H 100.925 -3.84425 -2.5498 0
M  V30 1056 H 99.1677 -3.65298 -2.33965 0
M  V30 1057 H 99.8387 -3.84324 -3.96231 0
M  V30 1058 H 102.315 -1.93674 -3.68279 0
M  V30 1059 H 101.191 -2.1534 -5.04896 0
M  V30 1060 H 101.452 -0.547434 -4.38698 0
M  V30 1061 N 100.511 1.16574 -1.06058 0
M  V30 1062 C 101.458 2.20883 -0.669263 0
M  V30 1063 C 102.428 1.62729 0.332918 0
M  V30 1064 O 103.613 1.895 0.222346 0
M  V30 1065 C 100.753 3.45049 -0.0593572 0
M  V30 1066 C 99.8658 4.17458 -1.11143 0
M  V30 1067 C 99.0008 5.29135 -0.467916 0
M  V30 1068 C 98.0398 5.93343 -1.50369 0
M  V30 1069 N 97.1768 6.96516 -0.883706 0
M  V30 1070 H 102.017 2.53709 -1.5632 0
M  V30 1071 H 99.5538 1.24616 -0.781625 0
M  V30 1072 H 101.512 4.16033 0.311771 0
M  V30 1073 H 100.142 3.12781 0.797992 0
M  V30 1074 H 99.1938 3.45101 -1.60029 0
M  V30 1075 H 100.506 4.61307 -1.89731 0
M  V30 1076 H 99.6598 6.06684 -0.0436871 0
M  V30 1077 H 98.3988 4.86443 0.349864 0
M  V30 1078 H 97.4038 5.14517 -1.93784 0
M  V30 1079 H 98.6288 6.38114 -2.32352 0
M  V30 1080 H 96.5748 6.55943 -0.086595 0
M  V30 1081 H 96.4918 7.38723 -1.607 0
M  V30 1082 H 97.7598 7.77993 -0.484543 0
M  V30 1083 N 101.989 0.842826 1.3317 0
M  V30 1084 C 102.937 0.267495 2.31057 0
M  V30 1085 C 103.931 -0.602682 1.58316 0
M  V30 1086 O 105.137 -0.491803 1.73151 0
M  V30 1087 H 101.512 0.0677813 0.748939 0
M  V30 1088 H 103.483 1.10754 2.77085 0
M  V30 1089 C 102.232 -0.539331 3.43492 0
M  V30 1090 H 101.555 0.12095 3.99617 0
M  V30 1091 H 102.995 -0.90767 4.14171 0
M  V30 1092 C 101.454 -1.71981 2.89697 0
M  V30 1093 O 101.984 -2.81862 2.86211 0
M  V30 1094 N 100.19 -1.54299 2.46252 0
M  V30 1095 H 99.7369 -0.649143 2.49287 0
M  V30 1096 H 99.6949 -2.33431 2.10612 0
M  V30 1097 N 103.467 -1.45747 0.599634 0
M  V30 1098 C 104.692 -2.07178 0.0960198 0
M  V30 1099 C 105.117 -1.44268 -1.207 0
M  V30 1100 O 104.475 -0.532503 -1.73303 0
M  V30 1101 C 104.523 -3.60579 -0.0385348 0
M  V30 1102 O 103.627 -3.97713 -1.0908 0
M  V30 1103 H 102.968 -0.660251 0.0704593 0
M  V30 1104 H 105.498 -1.87124 0.827385 0
M  V30 1105 H 105.508 -4.07298 -0.239304 0
M  V30 1106 H 104.183 -4.05756 0.912947 0
M  V30 1107 H 102.76 -3.62678 -0.867135 0
M  V30 1108 N 104.945 -0.338344 -1.53925 0
M  V30 1109 C 105.855 0.529421 -2.28548 0
M  V30 1110 C 106.871 1.11645 -1.3346 0
M  V30 1111 O 108.047 1.13325 -1.66492 0
M  V30 1112 C 105.112 1.66713 -3.03987 0
M  V30 1113 C 104.173 1.11041 -4.14691 0
M  V30 1114 C 103.406 2.19389 -4.86522 0
M  V30 1115 O 103.629 3.40013 -4.57982 0
M  V30 1116 O 102.563 1.83976 -5.73094 0
M  V30 1117 H 106.389 -0.0770399 -3.03602 0
M  V30 1118 H 103.974 -0.103555 -1.49041 0
M  V30 1119 H 105.856 2.32918 -3.5118 0
M  V30 1120 H 104.531 2.25949 -2.31794 0
M  V30 1121 H 103.438 0.413024 -3.71813 0
M  V30 1122 H 104.771 0.562975 -4.8897 0
M  V30 1123 N 106.423 1.57458 -0.0668435 0
M  V30 1124 C 107.669 1.94401 0.598316 0
M  V30 1125 C 108.024 0.946335 1.67518 0
M  V30 1126 O 107.317 -0.0321442 1.91573 0
M  V30 1127 C 107.511 3.35784 1.22409 0
M  V30 1128 C 107.34 4.49212 0.209367 0
M  V30 1129 C 106.11 5.04887 -0.204218 0
M  V30 1130 C 108.308 5.11335 -0.551431 0
M  V30 1131 N 106.29 6.01854 -1.21016 0
M  V30 1132 C 107.661 6.03754 -1.41 0
M  V30 1133 C 109.716 4.94173 -0.608038 0
M  V30 1134 C 108.419 6.80854 -2.32013 0
M  V30 1135 C 110.445 5.71912 -1.50566 0
M  V30 1136 C 109.807 6.63976 -2.35191 0
M  V30 1137 H 105.906 0.758538 0.190114 0
M  V30 1138 H 108.49 1.94175 -0.142832 0
M  V30 1139 H 106.661 3.36757 1.93518 0
M  V30 1140 H 108.393 3.59976 1.84931 0
M  V30 1141 H 105.148 4.73266 0.177908 0
M  V30 1142 H 105.572 6.55035 -1.71049 0
M  V30 1143 H 110.214 4.22788 0.032022 0
M  V30 1144 H 107.932 7.5152 -2.97057 0
M  V30 1145 H 111.518 5.60656 -1.55423 0
M  V30 1146 H 110.398 7.2308 -3.03522 0
M  V30 1147 N 107.901 -0.206675 1.56239 0
M  V30 1148 C 109.15 -0.926964 1.79138 0
M  V30 1149 C 109.463 -1.84901 0.638043 0
M  V30 1150 O 110.669 -2.60906 0.751033 0
M  V30 1151 C 109.125 -1.6986 3.17294 0
M  V30 1152 C 108.733 -0.821956 4.40395 0
M  V30 1153 C 110.477 -2.40922 3.4951 0
M  V30 1154 C 108.384 -1.59179 5.69575 0
M  V30 1155 H 107.314 -0.349864 0.667915 0
M  V30 1156 H 109.965 -0.180487 1.8261 0
M  V30 1157 H 108.347 -2.48853 3.08039 0
M  V30 1158 H 109.521 -0.0715019 4.60745 0
M  V30 1159 H 107.836 -0.222741 4.15804 0
M  V30 1160 H 110.433 -2.99047 4.43255 0
M  V30 1161 H 110.776 -3.14542 2.72707 0
M  V30 1162 H 111.309 -1.68905 3.60161 0
M  V30 1163 H 108.048 -0.898589 6.49312 0
M  V30 1164 H 107.568 -2.31648 5.53262 0
M  V30 1165 H 109.247 -2.14862 6.10281 0
M  V30 1166 N 109.379 -1.50304 -0.473955 0
M  V30 1167 C 110.656 -1.51667 -1.23518 0
M  V30 1168 C 111.036 -0.259701 -2.09496 0
M  V30 1169 O 110.384 0.756986 -2.15597 0
M  V30 1170 C 110.594 -2.81082 -2.06868 0
M  V30 1171 C 111.942 -3.31631 -2.65153 0
M  V30 1172 O 112.966 -2.82384 -2.17113 0
M  V30 1173 O 111.825 -4.17471 -3.52675 0
M  V30 1174 H 108.919 -0.60822 -0.560355 0
M  V30 1175 H 111.465 -1.62592 -0.486011 0
M  V30 1176 H 110.237 -3.64041 -1.4349 0
M  V30 1177 H 109.86 -2.73146 -2.88924 0
M  V30 1178 N 110.857 0.726932 -1.39834 0
M  V30 1179 C 111.82 1.82269 -1.38962 0
M  V30 1180 C 112.82 1.58248 -0.285334 0
M  V30 1181 O 114.01 1.65499 -0.54366 0
M  V30 1182 C 111.142 3.20186 -1.17019 0
M  V30 1183 H 112.335 1.84443 -2.36476 0
M  V30 1184 H 109.888 0.931416 -1.25516 0
M  V30 1185 H 110.623 3.23669 -0.202204 0
M  V30 1186 H 110.408 3.3902 -1.96998 0
M  V30 1187 H 111.898 4.00235 -1.1917 0
M  V30 1188 N 112.336 1.25143 0.95797 0
M  V30 1189 C 113.576 1.10893 1.71703 0
M  V30 1190 C 113.94 -0.34478 1.88879 0
M  V30 1191 O 115.141 -0.609014 2.6181 0
M  V30 1192 C 113.412 1.83889 3.06463 0
M  V30 1193 S 114.971 1.85491 3.97666 0
M  V30 1194 H 111.789 0.396428 0.590226 0
M  V30 1195 H 114.391 1.58618 1.14283 0
M  V30 1196 H 113.095 2.88756 2.9163 0
M  V30 1197 H 112.626 1.36538 3.68946 0
M  V30 1198 H 114.641 0.929553 4.87415 0
M  V30 1199 N 113.814 -1.1601 1.06675 0
M  V30 1200 C 115.063 -1.85973 0.780818 0
M  V30 1201 C 115.376 -1.82819 -0.695444 0
M  V30 1202 O 116.582 -2.484 -1.09589 0
M  V30 1203 C 115.038 -3.33757 1.34665 0
M  V30 1204 C 114.646 -3.45374 2.85343 0
M  V30 1205 C 116.39 -4.0895 1.13843 0
M  V30 1206 C 114.297 -4.87266 3.35151 0
M  V30 1207 H 113.227 -0.696661 0.288407 0
M  V30 1208 H 115.878 -1.30903 1.28595 0
M  V30 1209 H 114.26 -3.88456 0.769274 0
M  V30 1210 H 115.434 -3.00816 3.49065 0
M  V30 1211 H 113.749 -2.83619 3.04876 0
M  V30 1212 H 116.346 -5.13654 1.4854 0
M  V30 1213 H 116.689 -4.16229 0.0770282 0
M  V30 1214 H 117.222 -3.605 1.68179 0
M  V30 1215 H 113.961 -4.85168 4.40786 0
M  V30 1216 H 113.481 -5.32433 2.76179 0
M  V30 1217 H 115.16 -5.56097 3.30704 0
M  V30 1218 N 115.292 -0.849877 -1.32721 0
M  V30 1219 C 116.24 -0.279745 -2.30912 0
M  V30 1220 C 117.234 0.594278 -1.58634 0
M  V30 1221 O 118.44 0.482613 -1.73409 0
M  V30 1222 H 114.815 -0.0717521 -0.748569 0
M  V30 1223 H 116.786 -1.12222 -2.76494 0
M  V30 1224 C 115.535 0.521108 -3.43773 0
M  V30 1225 H 114.858 -0.142141 -3.99547 0
M  V30 1226 H 116.298 0.885693 -4.14646 0
M  V30 1227 C 114.757 1.70442 -2.90605 0
M  V30 1228 O 115.287 2.8034 -2.87702 0
M  V30 1229 N 113.493 1.52991 -2.47067 0
M  V30 1230 H 113.04 0.635914 -2.49628 0
M  V30 1231 H 112.998 2.32311 -2.11847 0
M  V30 1232 N 116.77 1.45427 -0.607355 0
M  V30 1233 C 118.019 2.01452 -0.100036 0
M  V30 1234 C 118.332 1.48159 1.27704 0
M  V30 1235 O 119.538 1.96159 1.87707 0
M  V30 1236 C 117.994 3.59672 -0.128158 0
M  V30 1237 C 117.602 4.21962 -1.50507 0
M  V30 1238 C 119.346 4.23262 0.323932 0
M  V30 1239 C 117.253 5.72333 -1.48959 0
M  V30 1240 H 116.183 0.75325 -0.0336299 0
M  V30 1241 H 118.834 1.66901 -0.76265 0
M  V30 1242 H 117.216 3.91411 0.601105 0
M  V30 1243 H 118.39 4.01796 -2.25602 0
M  V30 1244 H 116.705 3.70565 -1.89923 0
M  V30 1245 H 119.302 5.33522 0.354691 0
M  V30 1246 H 119.645 3.93921 1.34656 0
M  V30 1247 H 120.178 3.96239 -0.352056 0
M  V30 1248 H 116.917 6.06373 -2.48981 0
M  V30 1249 H 116.437 5.94691 -0.781214 0
M  V30 1250 H 118.116 6.35525 -1.21313 0
M  V30 1251 N 118.248 0.346503 1.53744 0
M  V30 1252 C 119.473 -0.253074 2.0585 0
M  V30 1253 C 119.898 -1.43202 1.21962 0
M  V30 1254 O 119.256 -1.79783 0.234073 0
M  V30 1255 C 119.304 -0.643193 3.54817 0
M  V30 1256 O 118.408 -1.74286 3.73762 0
M  V30 1257 H 117.749 -0.0413583 0.662711 0
M  V30 1258 H 120.279 0.501574 1.98357 0
M  V30 1259 H 120.289 -0.919526 3.97503 0
M  V30 1260 H 118.964 0.218966 4.15323 0
M  V30 1261 H 117.541 -1.46356 3.42979 0
M  V30 1262 N 119.726 -1.57421 0.075193 0
M  V30 1263 C 120.676 -2.09441 -0.901025 0
M  V30 1264 C 121.66 -1.00486 -1.25663 0
M  V30 1265 O 122.852 -1.2679 -1.23504 0
M  V30 1266 C 119.981 -2.66233 -2.16737 0
M  V30 1267 C 119.067 -3.82198 -1.83808 0
M  V30 1268 N 119.458 -4.91028 -1.21345 0
M  V30 1269 C 117.756 -3.91558 -2.13538 0
M  V30 1270 C 118.457 -5.71852 -1.06585 0
M  V30 1271 N 117.433 -5.20233 -1.57667 0
M  V30 1272 H 121.235 -2.90972 -0.413815 0
M  V30 1273 H 118.749 -1.6189 -0.128601 0
M  V30 1274 H 120.746 -3.01819 -2.87595 0
M  V30 1275 H 119.406 -1.8615 -2.66042 0
M  V30 1276 H 120.417 -5.10323 -0.88268 0
M  V30 1277 H 117.094 -3.22454 -2.65197 0
M  V30 1278 H 118.484 -6.69401 -0.578933 0
M  V30 1279 N 121.204 0.198386 -1.56346 0
M  V30 1280 C 122.154 1.2499 -1.90687 0
M  V30 1281 C 123.138 1.41158 -0.772217 0
M  V30 1282 O 124.33 1.43584 -1.03502 0
M  V30 1283 C 121.459 2.59542 -2.24706 0
M  V30 1284 C 120.545 2.47181 -3.44619 0
M  V30 1285 N 120.936 2.04495 -4.62618 0
M  V30 1286 C 119.234 2.78082 -3.48692 0
M  V30 1287 C 119.935 2.03945 -5.44776 0
M  V30 1288 N 118.911 2.45323 -4.85095 0
M  V30 1289 H 122.713 0.911149 -2.7942 0
M  V30 1290 H 120.227 0.40684 -1.57221 0
M  V30 1291 H 122.224 3.3549 -2.47491 0
M  V30 1292 H 120.884 2.94244 -1.37298 0
M  V30 1293 H 121.895 1.75256 -4.87345 0
M  V30 1294 H 118.572 3.17002 -2.71691 0
M  V30 1295 H 119.962 1.72872 -6.4928 0
M  V30 1296 N 122.682 1.50554 0.465978 0
M  V30 1297 C 123.912 1.65323 1.23903 0
M  V30 1298 C 124.32 0.338051 1.86155 0
M  V30 1299 O 123.663 -0.690518 1.70228 0
M  V30 1300 C 123.725 2.69048 2.3844 0
M  V30 1301 C 123.389 4.12462 1.96784 0
M  V30 1302 C 124.386 4.98168 1.48745 0
M  V30 1303 C 122.071 4.58407 2.05349 0
M  V30 1304 C 124.065 6.27868 1.0982 0
M  V30 1305 C 121.752 5.88112 1.66035 0
M  V30 1306 C 122.75 6.72668 1.18349 0
M  V30 1307 O 122.438 7.99951 0.795825 0
M  V30 1308 H 122.17 0.558629 0.38067 0
M  V30 1309 H 124.724 1.97561 0.562022 0
M  V30 1310 H 122.954 2.32062 3.09328 0
M  V30 1311 H 124.643 2.72985 3.0039 0
M  V30 1312 H 125.409 4.63885 1.41546 0
M  V30 1313 H 121.288 3.92735 2.41414 0
M  V30 1314 H 124.832 6.93819 0.725293 0
M  V30 1315 H 120.729 6.21914 1.72895 0
M  V30 1316 H 121.497 8.13265 0.924222 0
M  V30 1317 N 124.16 -0.719506 1.40217 0
M  V30 1318 C 125.4 -1.49181 1.39729 0
M  V30 1319 C 125.764 -1.92 -0.00250614 0
M  V30 1320 O 126.965 -2.68473 -0.132479 0
M  V30 1321 C 125.236 -2.68767 2.35582 0
M  V30 1322 S 126.795 -3.58224 2.53418 0
M  V30 1323 H 123.613 -0.510091 0.495307 0
M  V30 1324 H 126.215 -0.841724 1.76452 0
M  V30 1325 H 124.919 -2.35475 3.36124 0
M  V30 1326 H 124.45 -3.38691 2.0013 0
M  V30 1327 H 126.465 -4.63033 1.78367 0
M  V30 1328 N 125.638 -1.25649 -0.95132 0
M  V30 1329 C 126.586 -1.06118 -2.06982 0
M  V30 1330 C 127.58 0.00889169 -1.69398 0
M  V30 1331 O 128.786 -0.146988 -1.79399 0
M  V30 1332 H 125.161 -0.326248 -0.677544 0
M  V30 1333 H 127.132 -2.00932 -2.2061 0
M  V30 1334 C 125.881 -0.700145 -3.40578 0
M  V30 1335 H 125.204 -1.51537 -3.69968 0
M  V30 1336 H 126.644 -0.603211 -4.19687 0
M  V30 1337 C 125.103 0.59403 -3.31622 0
M  V30 1338 O 125.633 1.63522 -3.66911 0
M  V30 1339 N 123.839 0.58089 -2.84735 0
M  V30 1340 H 123.386 -0.266783 -2.56215 0
M  V30 1341 H 123.344 1.44695 -2.79125 0
M  V30 1342 N 127.117 1.15442 -1.07289 0
M  V30 1343 C 128.366 1.85557 -0.790669 0
M  V30 1344 C 128.679 1.83186 0.685739 0
M  V30 1345 O 129.885 2.48977 1.0827 0
M  V30 1346 C 128.341 3.33038 -1.36433 0
M  V30 1347 C 127.949 3.43856 -2.8717 0
M  V30 1348 C 129.693 4.0834 -1.1601 0
M  V30 1349 C 127.6 4.85482 -3.3773 0
M  V30 1350 H 126.53 0.695122 -0.292098 0
M  V30 1351 H 129.181 1.30219 -1.29287 0
M  V30 1352 H 127.563 3.88043 -0.789864 0
M  V30 1353 H 128.737 2.98961 -3.50655 0
M  V30 1354 H 127.052 2.81998 -3.06376 0
M  V30 1355 H 129.649 5.12859 -1.51262 0
M  V30 1356 H 129.992 4.16182 -0.0991007 0
M  V30 1357 H 130.525 3.59603 -1.70089 0
M  V30 1358 H 127.264 4.82823 -4.43353 0
M  V30 1359 H 126.784 5.30961 -2.78999 0
M  V30 1360 H 128.463 5.54335 -3.33648 0
M  V30 1361 N 128.595 0.856903 1.32268 0
M  V30 1362 C 129.82 0.474569 2.01897 0
M  V30 1363 C 130.245 -0.921766 1.63967 0
M  V30 1364 O 129.603 -1.60589 0.84148 0
M  V30 1365 C 129.651 0.623799 3.55164 0
M  V30 1366 O 128.755 -0.342459 4.10976 0
M  V30 1367 H 128.096 0.190422 0.63611 0
M  V30 1368 H 130.626 1.15672 1.68764 0
M  V30 1369 H 130.636 0.512169 4.04773 0
M  V30 1370 H 129.311 1.64202 3.82113 0
M  V30 1371 H 127.888 -0.18688 3.72431 0
M  V30 1372 N 130.073 -1.45103 0.615059 0
M  V30 1373 C 131.35 -1.95549 0.0448276 0
M  V30 1374 C 131.73 -1.55737 -1.4251 0
M  V30 1375 O 131.078 -0.823556 -2.13143 0
M  V30 1376 C 131.288 -3.48098 0.250785 0
M  V30 1377 C 132.636 -4.24384 0.135509 0
M  V30 1378 O 133.66 -3.55738 0.181299 0
M  V30 1379 O 132.519 -5.46493 0.0268878 0
M  V30 1380 H 129.613 -0.8264 -0.0314845 0
M  V30 1381 H 132.159 -1.55232 0.685642 0
M  V30 1382 H 130.931 -3.7007 1.27139 0
M  V30 1383 H 130.554 -3.95323 -0.424937 0
M  V30 1384 N 131.551 -0.354651 -1.53558 0
M  V30 1385 C 132.501 0.513179 -2.2215 0
M  V30 1386 C 133.485 1.05734 -1.21281 0
M  V30 1387 O 134.677 0.989202 -1.46778 0
M  V30 1388 C 131.806 1.65798 -3.00609 0
M  V30 1389 C 130.892 1.12722 -4.08845 0
M  V30 1390 N 131.283 0.318563 -5.04796 0
M  V30 1391 C 129.581 1.40307 -4.23356 0
M  V30 1392 C 130.282 0.0292224 -5.81693 0
M  V30 1393 N 129.258 0.623891 -5.40008 0
M  V30 1394 H 133.06 -0.111586 -2.93688 0
M  V30 1395 H 130.574 -0.162091 -1.61589 0
M  V30 1396 H 132.571 2.29176 -3.48258 0
M  V30 1397 H 131.231 2.28591 -2.306 0
M  V30 1398 H 132.242 -0.0413091 -5.17884 0
M  V30 1399 H 128.919 2.03458 -3.6457 0
M  V30 1400 H 130.309 -0.623808 -6.68998 0
M  V30 1401 N 133.029 1.57378 -0.0835403 0
M  V30 1402 C 134.275 1.94217 0.583733 0
M  V30 1403 C 134.608 0.964653 1.68547 0
M  V30 1404 O 133.883 -0.00422258 1.945 0
M  V30 1405 C 134.166 3.41253 1.14972 0
M  V30 1406 C 134.019 4.49768 0.0538277 0
M  V30 1407 C 135.338 3.89352 2.05166 0
M  V30 1408 H 132.457 0.706233 0.210724 0
M  V30 1409 H 135.099 1.89392 -0.1519 0
M  V30 1410 H 133.249 3.45496 1.77665 0
M  V30 1411 H 134.921 4.57641 -0.579851 0
M  V30 1412 H 133.164 4.29432 -0.614068 0
M  V30 1413 H 133.835 5.49817 0.490452 0
M  V30 1414 H 136.311 3.87189 1.52393 0
M  V30 1415 H 135.187 4.92822 2.41698 0
M  V30 1416 H 135.448 3.27973 2.96456 0
M  V30 1417 N 134.507 -0.190092 1.56449 0
M  V30 1418 C 135.755 -0.907908 1.80559 0
M  V30 1419 C 136.076 -1.83583 0.657438 0
M  V30 1420 O 135.346 -1.93203 -0.323924 0
M  V30 1421 H 133.926 -0.338247 0.666032 0
M  V30 1422 H 136.588 -0.194403 1.93928 0
M  V30 1423 H 135.684 -1.49604 2.73907 0
M  V30 1424 N 135.985 -1.50799 -0.457987 0
M  V30 1425 C 137.262 -1.52968 -1.21902 0
M  V30 1426 C 137.642 -0.281906 -2.09209 0
M  V30 1427 O 136.99 0.734076 -2.16388 0
M  V30 1428 C 137.2 -2.8326 -2.03875 0
M  V30 1429 C 138.548 -3.34425 -2.6162 0
M  V30 1430 O 139.572 -2.8467 -2.14106 0
M  V30 1431 O 138.431 -4.21188 -3.48228 0
M  V30 1432 H 135.525 -0.614129 -0.553873 0
M  V30 1433 H 138.071 -1.63098 -0.468739 0
M  V30 1434 H 136.843 -3.65543 -1.39621 0
M  V30 1435 H 136.466 -2.76195 -2.8601 0
M  V30 1436 N 137.463 0.71206 -1.40597 0
M  V30 1437 C 138.874 1.29135 -1.34837 0
M  V30 1438 C 139.225 1.96186 -0.0235395 0
M  V30 1439 O 138.35 1.97768 0.878444 0
M  V30 1440 C 138.945 2.34827 -2.44217 0
M  V30 1441 C 137.504 2.88371 -2.41907 0
M  V30 1442 C 136.651 1.62202 -2.24913 0
M  V30 1443 H 139.602 0.507944 -1.50352 0
M  V30 1444 H 139.623 3.15749 -2.12327 0
M  V30 1445 H 139.135 1.85996 -3.40627 0
M  V30 1446 H 137.236 3.41422 -1.49204 0
M  V30 1447 H 137.349 3.39925 -3.37621 0
M  V30 1448 H 135.713 1.874 -1.72492 0
M  V30 1449 H 136.496 1.15391 -3.23326 0
M  V30 1450 N 138.941 1.26152 0.944643 0
M  V30 1451 C 140.166 1.14363 1.7302 0
M  V30 1452 C 140.591 -0.29772 1.85729 0
M  V30 1453 O 139.949 -1.2157 1.34501 0
M  V30 1454 C 139.997 1.81378 3.11664 0
M  V30 1455 O 139.101 1.10022 3.97453 0
M  V30 1456 H 138.442 0.398694 0.53098 0
M  V30 1457 H 140.972 1.66906 1.18337 0
M  V30 1458 H 140.982 1.88064 3.62072 0
M  V30 1459 H 139.657 2.86237 3.0173 0
M  V30 1460 H 138.234 1.11287 3.55907 0
M  V30 1461 N 140.419 -1.14872 1.07899 0
M  V30 1462 C 141.367 -2.21857 0.698727 0
M  V30 1463 C 142.361 -1.66845 -0.293086 0
M  V30 1464 O 143.567 -1.79321 -0.156204 0
M  V30 1465 H 139.942 -0.722691 0.207899 0
M  V30 1466 H 141.913 -2.51205 1.61054 0
M  V30 1467 C 140.662 -3.47498 0.11858 0
M  V30 1468 H 139.985 -3.90154 0.872914 0
M  V30 1469 H 141.425 -4.23858 -0.109759 0
M  V30 1470 C 139.884 -3.16947 -1.1422 0
M  V30 1471 O 140.414 -3.3426 -2.22785 0
M  V30 1472 N 138.62 -2.70946 -1.05055 0
M  V30 1473 H 138.167 -2.57058 -0.167038 0
M  V30 1474 H 138.125 -2.50879 -1.89491 0
M  V30 1475 N 141.898 -0.863906 -1.31812 0
M  V30 1476 C 143.123 -0.48527 -2.01643 0
M  V30 1477 C 143.548 0.913058 -1.64453 0
M  V30 1478 O 142.906 1.6014 -0.849985 0
M  V30 1479 C 142.954 -0.642625 -3.54828 0
M  V30 1480 O 142.058 0.320659 -4.11151 0
M  V30 1481 H 141.399 -0.193793 -0.635091 0
M  V30 1482 H 143.929 -1.16565 -1.68148 0
M  V30 1483 H 143.939 -0.533628 -4.04495 0
M  V30 1484 H 142.614 -1.66227 -3.81237 0
M  V30 1485 H 141.191 0.167126 -3.72525 0
M  V30 1486 N 143.376 1.44774 -0.622745 0
M  V30 1487 C 144.306 2.33382 0.0741861 0
M  V30 1488 C 145.287 1.47719 0.843387 0
M  V30 1489 O 146.472 1.76458 0.810934 0
M  V30 1490 C 143.602 3.30663 1.06204 0
M  V30 1491 C 142.556 4.26079 0.405037 0
M  V30 1492 C 141.882 5.13165 1.5022 0
M  V30 1493 C 143.182 5.1781 -0.683414 0
M  V30 1494 H 144.876 2.91905 -0.665713 0
M  V30 1495 H 142.422 1.40363 -0.321587 0
M  V30 1496 H 144.375 3.9153 1.55827 0
M  V30 1497 H 143.099 2.70331 1.83272 0
M  V30 1498 H 141.758 3.66532 -0.0704683 0
M  V30 1499 H 141.406 4.49191 2.26355 0
M  V30 1500 H 141.106 5.77812 1.06803 0
M  V30 1501 H 142.63 5.76902 2.00041 0
M  V30 1502 H 144.044 5.72661 -0.270631 0
M  V30 1503 H 142.441 5.91015 -1.04023 0
M  V30 1504 H 143.511 4.59326 -1.55395 0
M  V30 1505 N 144.854 0.36279 1.53368 0
M  V30 1506 C 146.1 -0.220702 2.02199 0
M  V30 1507 C 146.455 -1.46649 1.24546 0
M  V30 1508 O 145.748 -1.88737 0.32996 0
M  V30 1509 C 145.942 -0.568417 3.52851 0
M  V30 1510 C 145.771 0.642126 4.45092 0
M  V30 1511 C 144.541 1.15335 4.91961 0
M  V30 1512 C 146.739 1.50649 4.91741 0
M  V30 1513 N 144.721 2.3242 5.68202 0
M  V30 1514 C 146.092 2.52404 5.66297 0
M  V30 1515 C 148.147 1.52969 4.73819 0
M  V30 1516 C 146.85 3.56331 6.24836 0
M  V30 1517 C 148.876 2.55789 5.33222 0
M  V30 1518 C 148.238 3.56268 6.07662 0
M  V30 1519 H 144.337 -0.0435508 0.780786 0
M  V30 1520 H 146.921 0.506704 1.87991 0
M  V30 1521 H 145.092 -1.2649 3.67226 0
M  V30 1522 H 146.824 -1.13676 3.88407 0
M  V30 1523 H 143.579 0.718412 4.68119 0
M  V30 1524 H 144.003 2.91591 6.10986 0
M  V30 1525 H 148.645 0.766418 4.15795 0
M  V30 1526 H 146.363 4.33543 6.81958 0
M  V30 1527 H 149.949 2.58435 5.21251 0
M  V30 1528 H 148.829 4.34524 6.52808 0
M  V30 1529 N 146.332 -1.57332 0.0918853 0
M  V30 1530 C 147.578 -1.94524 -0.573425 0
M  V30 1531 C 147.911 -0.973578 -1.68033 0
M  V30 1532 O 147.186 -0.00609226 -1.94499 0
M  V30 1533 C 147.469 -3.41858 -1.13161 0
M  V30 1534 C 147.322 -4.4979 -0.0299747 0
M  V30 1535 C 148.641 -3.90435 -2.03098 0
M  V30 1536 H 145.76 -0.70734 -0.206975 0
M  V30 1537 H 148.402 -1.89309 0.161942 0
M  V30 1538 H 146.552 -3.46433 -1.7583 0
M  V30 1539 H 148.224 -4.57327 0.604112 0
M  V30 1540 H 146.467 -4.291 0.636833 0
M  V30 1541 H 147.138 -5.50069 -0.461287 0
M  V30 1542 H 149.614 -3.87992 -1.50338 0
M  V30 1543 H 148.49 -4.94097 -2.39081 0
M  V30 1544 H 148.751 -3.29541 -2.94712 0
M  V30 1545 N 147.81 0.181792 -1.56548 0
M  V30 1546 C 149.226 0.53316 -1.50431 0
M  V30 1547 C 149.426 1.85184 -0.794297 0
M  V30 1548 O 148.482 2.50058 -0.350318 0
M  V30 1549 C 149.795 0.575597 -2.9514 0
M  V30 1550 C 151.343 0.663519 -3.05886 0
M  V30 1551 C 151.818 0.736946 -4.52032 0
M  V30 1552 N 153.309 0.800118 -4.56237 0
M  V30 1553 C 154.044 0.877327 -5.66649 0
M  V30 1554 N 153.54 0.916016 -6.86718 0
M  V30 1555 N 155.333 0.915542 -5.54594 0
M  V30 1556 H 147.484 -0.683025 -2.01118 0
M  V30 1557 H 149.747 -0.244988 -0.915797 0
M  V30 1558 H 149.453 -0.324482 -3.502 0
M  V30 1559 H 149.327 1.42572 -3.49218 0
M  V30 1560 H 151.714 1.55403 -2.50867 0
M  V30 1561 H 151.795 -0.21307 -2.54911 0
M  V30 1562 H 151.439 -0.149262 -5.07681 0
M  V30 1563 H 151.369 1.62953 -5.00753 0
M  V30 1564 H 153.86 0.778926 -3.69785 0
M  V30 1565 H 154.173 0.975813 -7.66614 0
M  V30 1566 H 152.518 0.884469 -6.89349 0
M  V30 1567 H 155.709 0.882245 -4.59711 0
M  V30 1568 H 155.882 0.972253 -6.40665 0
M  V30 1569 N 149.288 1.51039 0.449983 0
M  V30 1570 C 150.534 1.63322 1.20223 0
M  V30 1571 C 150.867 0.34241 1.91158 0
M  V30 1572 O 150.142 -0.657344 1.83055 0
M  V30 1573 C 150.425 2.82801 2.22925 0
M  V30 1574 C 150.278 4.21823 1.56157 0
M  V30 1575 C 151.597 2.97807 3.24035 0
M  V30 1576 H 148.716 0.594407 0.435718 0
M  V30 1577 H 151.358 1.83489 0.493136 0
M  V30 1578 H 149.508 2.65738 2.834 0
M  V30 1579 H 151.18 4.50526 0.991162 0
M  V30 1580 H 149.423 4.25105 0.864172 0
M  V30 1581 H 150.094 5.01391 2.30891 0
M  V30 1582 H 152.57 3.13497 2.73603 0
M  V30 1583 H 151.446 3.82992 3.93202 0
M  V30 1584 H 151.707 2.09328 3.89402 0
M  V30 1585 N 150.766 -0.704594 1.40972 0
M  V30 1586 C 151.713 -1.81862 1.42109 0
M  V30 1587 C 152.683 -1.63781 0.276593 0
M  V30 1588 O 153.868 -1.84759 0.4763 0
M  V30 1589 C 151.008 -3.19669 1.30022 0
M  V30 1590 C 150.121 -3.49246 2.54267 0
M  V30 1591 C 149.256 -4.76618 2.3454 0
M  V30 1592 C 148.295 -4.99133 3.54306 0
M  V30 1593 N 147.432 -6.17726 3.33706 0
M  V30 1594 H 152.272 -1.80226 2.37324 0
M  V30 1595 H 149.809 -0.880238 1.17857 0
M  V30 1596 H 151.767 -3.99263 1.21018 0
M  V30 1597 H 150.397 -3.20506 0.384192 0
M  V30 1598 H 149.449 -2.64125 2.73756 0
M  V30 1599 H 150.761 -3.61788 3.43381 0
M  V30 1600 H 149.915 -5.64249 2.22952 0
M  V30 1601 H 148.654 -4.66305 1.42867 0
M  V30 1602 H 147.659 -4.09953 3.66359 0
M  V30 1603 H 148.884 -5.11311 4.4692 0
M  V30 1604 H 146.83 -6.08642 2.44725 0
M  V30 1605 H 146.747 -6.30995 4.16391 0
M  V30 1606 H 148.015 -7.08115 3.25873 0
M  V30 1607 N 152.244 -1.26651 -0.937939 0
M  V30 1608 C 153.207 -1.08546 -2.01867 0
M  V30 1609 C 154.207 -0.0327327 -1.60767 0
M  V30 1610 O 155.397 -0.276427 -1.71993 0
M  V30 1611 C 152.529 -0.651711 -3.34613 0
M  V30 1612 H 153.722 -2.04502 -2.1936 0
M  V30 1613 H 151.275 -1.09294 -1.11734 0
M  V30 1614 H 152.01 0.309696 -3.22818 0
M  V30 1615 H 151.795 -1.41189 -3.65798 0
M  V30 1616 H 153.285 -0.546973 -4.14002 0
M  V30 1617 N 153.722 1.14298 -1.08507 0
M  V30 1618 C 155.138 1.37347 -0.812901 0
M  V30 1619 C 155.338 1.93052 0.577325 0
M  V30 1620 O 154.394 2.14389 1.33393 0
M  V30 1621 C 155.707 2.33359 -1.89642 0
M  V30 1622 C 157.255 2.46996 -1.92255 0
M  V30 1623 C 157.73 3.46309 -2.99724 0
M  V30 1624 N 159.221 3.53853 -2.98902 0
M  V30 1625 C 159.956 4.3055 -3.787 0
M  V30 1626 N 159.452 5.10482 -4.6838 0
M  V30 1627 N 161.245 4.25757 -3.66998 0
M  V30 1628 H 153.396 0.764867 -1.9815 0
M  V30 1629 H 155.659 0.398966 -0.859959 0
M  V30 1630 H 155.365 1.99565 -2.89597 0
M  V30 1631 H 155.239 3.33274 -1.76659 0
M  V30 1632 H 157.626 2.80081 -0.929445 0
M  V30 1633 H 157.707 1.47039 -2.09316 0
M  V30 1634 H 157.351 3.13957 -3.99241 0
M  V30 1635 H 157.281 4.46049 -2.79907 0
M  V30 1636 H 159.772 2.96812 -2.33904 0
M  V30 1637 H 160.085 5.66284 -5.25873 0
M  V30 1638 H 158.43 5.09747 -4.72422 0
M  V30 1639 H 161.621 3.62383 -2.96304 0
M  V30 1640 H 161.794 4.85279 -4.29427 0
M  V30 1641 N 155.201 0.870884 1.31352 0
M  V30 1642 C 156.447 0.482987 1.96965 0
M  V30 1643 C 156.78 -0.962462 1.68672 0
M  V30 1644 O 156.055 -1.6779 0.98371 0
M  V30 1645 C 156.338 0.741752 3.52378 0
M  V30 1646 C 156.191 2.2368 3.9024 0
M  V30 1647 C 157.51 0.208838 4.39604 0
M  V30 1648 H 154.629 0.176955 0.715441 0
M  V30 1649 H 157.271 1.09229 1.55464 0
M  V30 1650 H 155.421 0.223149 3.87859 0
M  V30 1651 H 157.093 2.82273 3.64856 0
M  V30 1652 H 155.336 2.70901 3.38814 0
M  V30 1653 H 156.007 2.3685 4.98604 0
M  V30 1654 H 158.483 0.652529 4.10952 0
M  V30 1655 H 157.359 0.419336 5.47296 0
M  V30 1656 H 157.62 -0.889275 4.33064 0
M  V30 1657 N 156.679 -1.44442 0.630414 0
M  V30 1658 C 157.927 -2.01653 0.134351 0
M  V30 1659 C 158.248 -1.49836 -1.24796 0
M  V30 1660 O 157.518 -0.701684 -1.82902 0
M  V30 1661 H 156.098 -0.74554 0.0466769 0
M  V30 1662 H 158.76 -1.76952 0.816955 0
M  V30 1663 H 157.856 -3.11935 0.101498 0
M  V30 1664 N 158.157 -0.370918 -1.53173 0
M  V30 1665 C 159.089 0.507823 -2.23503 0
M  V30 1666 C 160.102 1.04182 -1.251 0
M  V30 1667 O 161.291 0.947286 -1.5129 0
M  V30 1668 C 158.391 1.71447 -2.92334 0
M  V30 1669 C 157.564 1.31105 -4.17289 0
M  V30 1670 C 156.623 2.38035 -4.69282 0
M  V30 1671 O 155.649 2.00204 -5.32829 0
M  V30 1672 N 156.851 3.69697 -4.47554 0
M  V30 1673 H 159.616 -0.0946382 -2.99551 0
M  V30 1674 H 157.177 -0.196358 -1.60705 0
M  V30 1675 H 159.169 2.42469 -3.24023 0
M  V30 1676 H 157.739 2.22368 -2.19707 0
M  V30 1677 H 156.959 0.430462 -3.91843 0
M  V30 1678 H 158.247 1.0179 -4.98514 0
M  V30 1679 H 157.645 4.03205 -3.9679 0
M  V30 1680 H 156.202 4.36807 -4.8378 0
M  V30 1681 N 159.635 1.57281 -0.100228 0
M  V30 1682 C 160.582 2.14305 0.856858 0
M  V30 1683 C 161.552 1.06296 1.27634 0
M  V30 1684 O 162.737 1.34109 1.35718 0
M  V30 1685 C 159.877 2.73184 2.10866 0
M  V30 1686 C 158.99 3.95442 1.73925 0
M  V30 1687 C 158.125 4.42468 2.93931 0
M  V30 1688 C 157.164 5.57303 2.5314 0
M  V30 1689 N 156.301 5.99158 3.65997 0
M  V30 1690 H 161.141 2.95772 0.363726 0
M  V30 1691 H 158.678 1.46139 0.167858 0
M  V30 1692 H 160.636 3.05442 2.84185 0
M  V30 1693 H 159.266 1.94437 2.57671 0
M  V30 1694 H 158.318 3.69464 0.905554 0
M  V30 1695 H 159.63 4.78769 1.39935 0
M  V30 1696 H 158.784 4.76537 3.75496 0
M  V30 1697 H 157.523 3.58052 3.31134 0
M  V30 1698 H 156.528 5.22857 1.70003 0
M  V30 1699 H 157.753 6.43471 2.17075 0
M  V30 1700 H 155.699 5.17687 4.02909 0
M  V30 1701 H 155.616 6.77295 3.35869 0
M  V30 1702 H 156.884 6.3786 4.48057 0
M  V30 1703 N 161.113 -0.173488 1.56642 0
M  V30 1704 C 162.023 -1.23482 1.99473 0
M  V30 1705 C 163.039 -1.48567 0.905752 0
M  V30 1706 O 164.215 -1.60758 1.21321 0
M  V30 1707 C 161.28 -2.55444 2.34413 0
M  V30 1708 C 160.341 -2.38241 3.57127 0
M  V30 1709 C 159.574 -3.63909 3.90392 0
M  V30 1710 O 159.797 -4.68996 3.24653 0
M  V30 1711 O 158.731 -3.58149 4.83749 0
M  V30 1712 H 162.557 -0.901279 2.90018 0
M  V30 1713 H 160.142 -0.380185 1.44482 0
M  V30 1714 H 162.024 -3.33292 2.57865 0
M  V30 1715 H 160.699 -2.88382 1.4703 0
M  V30 1716 H 159.606 -1.58431 3.38896 0
M  V30 1717 H 160.939 -2.10228 4.45045 0
M  V30 1718 N 162.591 -1.51276 -0.441967 0
M  V30 1719 C 163.816 -1.67799 -1.21895 0
M  V30 1720 C 164.241 -0.372864 -1.84367 0
M  V30 1721 O 163.599 0.666501 -1.68604 0
M  V30 1722 C 163.647 -2.79199 -2.28211 0
M  V30 1723 O 162.751 -2.42479 -3.33583 0
M  V30 1724 H 162.092 -0.559649 -0.357336 0
M  V30 1725 H 164.622 -1.97815 -0.522522 0
M  V30 1726 H 164.632 -3.03146 -2.73069 0
M  V30 1727 H 163.307 -3.73906 -1.82118 0
M  V30 1728 H 161.884 -2.29087 -2.94234 0
M  V30 1729 N 164.069 0.697108 -1.41344 0
M  V30 1730 C 165.032 1.79281 -1.42797 0
M  V30 1731 C 166.032 1.57607 -0.318837 0
M  V30 1732 O 167.222 1.64309 -0.578642 0
M  V30 1733 C 164.354 3.17632 -1.23785 0
M  V30 1734 H 165.547 1.79385 -2.40335 0
M  V30 1735 H 163.1 0.904582 -1.27464 0
M  V30 1736 H 163.835 3.23167 -0.270814 0
M  V30 1737 H 163.62 3.34765 -2.04144 0
M  V30 1738 H 165.11 3.97617 -1.27633 0
M  V30 1739 N 165.547 1.27147 0.931209 0
M  V30 1740 C 166.777 1.15914 1.71019 0
M  V30 1741 C 167.185 -0.287112 1.87009 0
M  V30 1742 O 166.528 -1.20761 1.38429 0
M  V30 1743 C 166.59 1.76647 3.13107 0
M  V30 1744 C 166.254 3.25807 3.20467 0
M  V30 1745 C 167.251 4.22489 3.02983 0
M  V30 1746 C 164.936 3.66452 3.43538 0
M  V30 1747 C 166.93 5.57794 3.08454 0
M  V30 1748 C 164.617 5.01888 3.48643 0
M  V30 1749 C 165.615 5.97369 3.31119 0
M  V30 1750 O 165.303 7.30337 3.35952 0
M  V30 1751 H 165.035 0.404062 0.54195 0
M  V30 1752 H 167.589 1.68457 1.17521 0
M  V30 1753 H 165.819 1.18578 3.68071 0
M  V30 1754 H 167.508 1.60179 3.72958 0
M  V30 1755 H 168.274 3.92425 2.85004 0
M  V30 1756 H 164.153 2.92611 3.5623 0
M  V30 1757 H 167.697 6.32298 2.94694 0
M  V30 1758 H 163.594 5.31609 3.66145 0
M  V30 1759 H 164.362 7.38739 3.5243 0
M  V30 1760 N 167.025 -1.13721 1.09112 0
M  V30 1761 C 167.988 -2.17222 0.731241 0
M  V30 1762 C 168.988 -1.59035 -0.237566 0
M  V30 1763 O 170.178 -1.74192 -0.0161704 0
M  V30 1764 C 167.31 -3.40804 0.0808443 0
M  V30 1765 H 168.503 -2.50573 1.64783 0
M  V30 1766 H 166.056 -1.28493 0.889897 0
M  V30 1767 H 166.791 -3.1304 -0.847127 0
M  V30 1768 H 166.576 -3.84306 0.777896 0
M  V30 1769 H 168.066 -4.1731 -0.155657 0
M  V30 1770 N 168.503 -0.877838 -1.30888 0
M  V30 1771 C 169.45 -0.337538 -2.28318 0
M  V30 1772 C 170.42 0.568346 -1.56074 0
M  V30 1773 O 171.605 0.498298 -1.84178 0
M  V30 1774 C 168.745 0.448142 -3.42178 0
M  V30 1775 C 167.858 -0.48615 -4.29256 0
M  V30 1776 C 166.993 0.314427 -5.30269 0
M  V30 1777 C 166.032 -0.615791 -6.08995 0
M  V30 1778 N 165.169 0.14902 -7.01942 0
M  V30 1779 H 170.009 -1.17356 -2.73919 0
M  V30 1780 H 167.546 -0.590094 -1.34745 0
M  V30 1781 H 169.504 0.919517 -4.06941 0
M  V30 1782 H 168.134 1.24879 -2.97666 0
M  V30 1783 H 167.186 -1.076 -3.64865 0
M  V30 1784 H 168.498 -1.19909 -4.84173 0
M  V30 1785 H 167.652 0.847969 -6.00745 0
M  V30 1786 H 166.391 1.06062 -4.76027 0
M  V30 1787 H 165.396 -1.16102 -5.37401 0
M  V30 1788 H 166.621 -1.36097 -6.65323 0
M  V30 1789 H 164.567 0.877884 -6.50099 0
M  V30 1790 H 164.484 -0.504433 -7.54315 0
M  V30 1791 H 165.752 0.663537 -7.76671 0
M  V30 1792 N 169.982 1.44106 -0.638065 0
M  V30 1793 C 171.207 2.0685 -0.150916 0
M  V30 1794 C 171.632 1.47417 1.16833 0
M  V30 1795 O 170.99 0.578264 1.71831 0
M  V30 1796 C 171.038 3.60555 -0.05708 0
M  V30 1797 O 170.142 4.00465 0.984972 0
M  V30 1798 H 169.483 0.658151 -0.0879399 0
M  V30 1799 H 172.013 1.84865 -0.876707 0
M  V30 1800 H 172.023 4.07789 0.131232 0
M  V30 1801 H 170.698 4.03193 -1.02021 0
M  V30 1802 H 169.275 3.64849 0.770672 0
M  V30 1803 N 171.46 0.379036 1.52974 0
M  V30 1804 C 172.37 -0.468639 2.29872 0
M  V30 1805 C 173.386 -1.08067 1.36373 0
M  V30 1806 O 174.562 -1.08871 1.69438 0
M  V30 1807 C 171.627 -1.58594 3.083 0
M  V30 1808 C 170.688 -1.00007 4.17489 0
M  V30 1809 C 169.921 -2.06413 4.92168 0
M  V30 1810 O 170.144 -3.27751 4.66835 0
M  V30 1811 O 169.078 -1.68717 5.7777 0
M  V30 1812 H 172.904 0.157508 3.03291 0
M  V30 1813 H 170.489 0.143035 1.48714 0
M  V30 1814 H 172.371 -2.23525 3.57232 0
M  V30 1815 H 171.046 -2.19724 2.37703 0
M  V30 1816 H 169.953 -0.314299 3.72777 0
M  V30 1817 H 171.286 -0.433135 4.90291 0
M  V30 1818 N 172.938 -1.57226 0.108567 0
M  V30 1819 C 173.848 -2.18292 -0.859401 0
M  V30 1820 C 174.864 -1.15612 -1.30038 0
M  V30 1821 O 176.04 -1.48039 -1.36552 0
M  V30 1822 C 173.105 -2.762 -2.09558 0
M  V30 1823 C 172.166 -3.93881 -1.70752 0
M  V30 1824 C 171.399 -4.49018 -2.88477 0
M  V30 1825 O 171.622 -4.03068 -4.036 0
M  V30 1826 O 170.556 -5.39852 -2.66164 0
M  V30 1827 H 174.382 -3.01441 -0.369769 0
M  V30 1828 H 171.967 -1.48945 -0.1165 0
M  V30 1829 H 173.849 -3.13156 -2.81978 0
M  V30 1830 H 172.524 -1.96089 -2.57548 0
M  V30 1831 H 171.431 -3.61713 -0.954714 0
M  V30 1832 H 172.764 -4.75396 -1.27513 0
M  V30 1833 N 174.416 0.165178 -1.56732 0
M  V30 1834 C 175.663 0.880807 -1.8234 0
M  V30 1835 C 175.991 1.81977 -0.686621 0
M  V30 1836 O 175.246 1.92971 0.325697 0
M  V30 1837 C 175.545 1.70405 -3.1416 0
M  V30 1838 C 175.211 0.913475 -4.4155 0
M  V30 1839 C 173.873 0.695303 -4.7615 0
M  V30 1840 C 176.225 0.359349 -5.1996 0
M  V30 1841 C 173.553 -0.0879947 -5.86634 0
M  V30 1842 C 175.905 -0.410893 -6.31264 0
M  V30 1843 C 174.569 -0.639808 -6.64427 0
M  V30 1844 H 173.839 0.32231 -0.667231 0
M  V30 1845 H 176.486 0.145402 -1.90947 0
M  V30 1846 H 174.791 2.50903 -3.00923 0
M  V30 1847 H 176.488 2.26091 -3.31186 0
M  V30 1848 H 173.078 1.09357 -4.14414 0
M  V30 1849 H 177.262 0.515228 -4.93618 0
M  V30 1850 H 172.518 -0.27503 -6.10781 0
M  V30 1851 H 176.692 -0.847494 -6.91224 0
M  V30 1852 H 174.319 -1.24864 -7.49875 0
M  V30 1853 N 175.894 1.51508 0.433938 0
M  V30 1854 C 176.857 1.72473 1.50949 0
M  V30 1855 C 177.857 0.594725 1.49398 0
M  V30 1856 O 179.047 0.862315 1.5136 0
M  V30 1857 C 176.179 1.78431 2.90474 0
M  V30 1858 H 177.372 2.68467 1.33662 0
M  V30 1859 H 174.925 1.41549 0.662836 0
M  V30 1860 H 175.66 0.842645 3.13161 0
M  V30 1861 H 175.445 2.60558 2.93005 0
M  V30 1862 H 176.935 1.96479 3.68491 0
M  V30 1863 N 177.372 -0.689602 1.41712 0
M  V30 1864 C 178.618 -1.45181 1.41599 0
M  V30 1865 C 178.951 -1.94181 0.0270081 0
M  V30 1866 O 178.226 -1.6993 -0.946265 0
M  V30 1867 C 178.509 -2.65945 2.42787 0
M  V30 1868 C 178.362 -2.22672 3.90816 0
M  V30 1869 C 179.681 -3.68149 2.41151 0
M  V30 1870 H 176.8 -0.526576 0.515642 0
M  V30 1871 H 179.442 -0.784947 1.73028 0
M  V30 1872 H 177.592 -3.2284 2.16116 0
M  V30 1873 H 179.264 -1.71058 4.28412 0
M  V30 1874 H 177.507 -1.54394 4.05395 0
M  V30 1875 H 178.178 -3.0935 4.57172 0
M  V30 1876 H 180.654 -3.2094 2.64834 0
M  V30 1877 H 179.53 -4.50248 3.13955 0
M  V30 1878 H 179.791 -4.18259 1.43221 0
M  V30 1879 N 178.85 -1.27639 -0.924453 0
M  V30 1880 C 180.09 -1.15407 -1.68703 0
M  V30 1881 C 180.454 0.294581 -1.89727 0
M  V30 1882 O 181.655 0.539385 -2.63333 0
M  V30 1883 C 179.926 -1.9195 -3.0148 0
M  V30 1884 S 181.485 -1.95969 -3.92609 0
M  V30 1885 H 178.303 -0.411937 -0.579507 0
M  V30 1886 H 180.905 -1.61592 -1.10038 0
M  V30 1887 H 179.609 -2.96387 -2.83871 0
M  V30 1888 H 179.14 -1.46272 -3.65196 0
M  V30 1889 H 181.155 -1.05846 -4.84779 0
M  V30 1890 N 180.328 1.1314 -1.09713 0
M  V30 1891 C 181.744 1.36477 -0.827423 0
M  V30 1892 C 181.944 1.93654 0.556817 0
M  V30 1893 O 181 2.15791 1.31112 0
M  V30 1894 C 182.313 2.31334 -1.92106 0
M  V30 1895 C 183.861 2.44943 -1.94864 0
M  V30 1896 C 184.336 3.4311 -3.0338 0
M  V30 1897 N 185.827 3.50662 -3.02639 0
M  V30 1898 C 186.562 4.2651 -3.83246 0
M  V30 1899 N 186.058 5.05485 -4.73768 0
M  V30 1900 N 187.851 4.2184 -3.71493 0
M  V30 1901 H 180.002 0.743807 -1.9895 0
M  V30 1902 H 182.265 0.389823 -0.864143 0
M  V30 1903 H 181.971 1.96483 -2.91698 0
M  V30 1904 H 181.845 3.31381 -1.80184 0
M  V30 1905 H 184.232 2.79079 -0.959099 0
M  V30 1906 H 184.313 1.4481 -2.10864 0
M  V30 1907 H 183.957 3.09704 -4.02549 0
M  V30 1908 H 183.887 4.43055 -2.84622 0
M  V30 1909 H 186.378 2.94315 -2.37039 0
M  V30 1910 H 186.691 5.60675 -5.3185 0
M  V30 1911 H 185.036 5.04708 -4.77802 0
M  V30 1912 H 188.227 3.5922 -3.00131 0
M  V30 1913 H 188.4 4.80697 -4.3455 0
M  V30 1914 N 181.806 0.884767 1.30421 0
M  V30 1915 C 183.083 0.423185 1.90967 0
M  V30 1916 C 183.463 -1.09605 1.80416 0
M  V30 1917 O 182.811 -1.93126 1.22125 0
M  V30 1918 C 183.021 0.921056 3.36627 0
M  V30 1919 C 184.369 0.955903 4.137 0
M  V30 1920 O 185.393 0.867706 3.4547 0
M  V30 1921 O 184.252 1.08614 5.35598 0
M  V30 1922 H 181.346 0.129369 0.816819 0
M  V30 1923 H 183.892 0.973653 1.3899 0
M  V30 1924 H 182.664 1.96489 3.3839 0
M  V30 1925 H 182.287 0.349741 3.96059 0
M  V30 1926 N 183.284 -1.43765 0.645699 0
M  V30 1927 C 184.532 -2.01499 0.155731 0
M  V30 1928 C 184.853 -1.51151 -1.232 0
M  V30 1929 O 184.123 -0.721044 -1.82148 0
M  V30 1930 H 182.703 -0.745003 0.0545817 0
M  V30 1931 H 185.365 -1.76075 0.835677 0
M  V30 1932 H 184.461 -3.1181 0.134577 0
M  V30 1933 N 184.763 -0.387143 -1.52771 0
M  V30 1934 C 185.71 0.449048 -2.26389 0
M  V30 1935 C 186.68 1.05961 -1.27912 0
M  V30 1936 O 187.865 1.08804 -1.56737 0
M  V30 1937 C 185.005 1.57155 -3.0724 0
M  V30 1938 C 184.118 0.984066 -4.20643 0
M  V30 1939 C 183.253 2.07745 -4.88892 0
M  V30 1940 C 182.292 1.46574 -5.94292 0
M  V30 1941 N 181.429 2.49834 -6.56146 0
M  V30 1942 H 186.269 -0.185205 -2.97424 0
M  V30 1943 H 183.806 -0.103164 -1.46738 0
M  V30 1944 H 185.764 2.23309 -3.52405 0
M  V30 1945 H 184.394 2.17615 -2.38419 0
M  V30 1946 H 183.446 0.212193 -3.79808 0
M  V30 1947 H 184.758 0.497029 -4.96318 0
M  V30 1948 H 183.912 2.81673 -5.3735 0
M  V30 1949 H 182.651 2.59807 -4.12737 0
M  V30 1950 H 181.656 0.711696 -5.45174 0
M  V30 1951 H 182.881 0.953088 -6.72379 0
M  V30 1952 H 180.827 3.0107 -5.82832 0
M  V30 1953 H 180.744 2.05879 -7.27427 0
M  V30 1954 H 182.012 3.23399 -7.09249 0
M  V30 1955 N 186.241 1.57166 -0.116904 0
M  V30 1956 C 187.49 1.94298 0.541407 0
M  V30 1957 C 187.803 1.00236 1.67964 0
M  V30 1958 O 189.009 1.26826 2.40057 0
M  V30 1959 C 187.465 3.45306 1.01449 0
M  V30 1960 C 187.073 4.47899 -0.0951738 0
M  V30 1961 C 188.817 3.91361 1.6443 0
M  V30 1962 C 186.724 5.90083 0.394491 0
M  V30 1963 H 185.654 0.725308 0.206019 0
M  V30 1964 H 188.305 1.82446 -0.196419 0
M  V30 1965 H 186.687 3.52385 1.80667 0
M  V30 1966 H 187.861 4.52486 -0.871374 0
M  V30 1967 H 186.176 4.11583 -0.631505 0
M  V30 1968 H 188.773 4.95004 2.02176 0
M  V30 1969 H 189.116 3.3122 2.52189 0
M  V30 1970 H 189.649 3.87073 0.917559 0
M  V30 1971 H 186.388 6.53974 -0.447004 0
M  V30 1972 H 185.908 5.88921 1.13722 0
M  V30 1973 H 187.587 6.41307 0.856399 0
M  V30 1974 N 187.719 -0.156864 1.56817 0
M  V30 1975 C 188.967 -0.869404 1.82444 0
M  V30 1976 C 189.288 -1.82147 0.69623 0
M  V30 1977 O 188.558 -1.93847 -0.28287 0
M  V30 1978 H 187.138 -0.324043 0.673056 0
M  V30 1979 H 189.8 -0.153224 1.94297 0
M  V30 1980 H 188.896 -1.43761 2.77019 0
M  V30 1981 N 189.197 -1.51736 -0.425897 0
M  V30 1982 C 190.608 -1.5732 -1.00536 0
M  V30 1983 C 190.959 -0.403537 -1.92005 0
M  V30 1984 O 190.084 0.478256 -2.11049 0
M  V30 1985 C 190.679 -2.85119 -1.8301 0
M  V30 1986 C 189.238 -2.93236 -2.35987 0
M  V30 1987 C 188.385 -2.52098 -1.15508 0
M  V30 1988 H 191.336 -1.57348 -0.206739 0
M  V30 1989 H 191.357 -2.69526 -2.68581 0
M  V30 1990 H 190.869 -3.7023 -1.16411 0
M  V30 1991 H 188.97 -2.12581 -3.06007 0
M  V30 1992 H 189.083 -3.9713 -2.68001 0
M  V30 1993 H 187.447 -2.05558 -1.50393 0
M  V30 1994 H 188.23 -3.39565 -0.505014 0
M  V30 1995 N 190.675 0.682077 -1.42076 0
M  V30 1996 C 192.086 1.26246 -1.37546 0
M  V30 1997 C 192.437 1.96092 -0.0651481 0
M  V30 1998 O 191.562 1.99587 0.836297 0
M  V30 1999 C 192.157 2.29594 -2.49143 0
M  V30 2000 C 190.716 2.83175 -2.47969 0
M  V30 2001 C 189.863 1.57395 -2.28303 0
M  V30 2002 H 192.814 0.475937 -1.51395 0
M  V30 2003 H 192.835 3.11175 -2.18976 0
M  V30 2004 H 192.347 1.78729 -3.44496 0
M  V30 2005 H 190.448 3.3818 -1.56413 0
M  V30 2006 H 190.561 3.32687 -3.44755 0
M  V30 2007 H 188.925 1.83699 -1.76428 0
M  V30 2008 H 189.708 1.08507 -3.25701 0
M  V30 2009 N 192.153 1.28127 0.917671 0
M  V30 2010 C 193.1 1.11717 2.0196 0
M  V30 2011 C 194.07 0.0153929 1.66093 0
M  V30 2012 O 195.255 0.179596 1.89953 0
M  V30 2013 C 192.395 0.780927 3.36148 0
M  V30 2014 C 191.508 1.96135 3.84909 0
M  V30 2015 C 190.643 1.56609 5.0759 0
M  V30 2016 C 189.682 2.71339 5.48673 0
M  V30 2017 N 188.819 2.32332 6.62545 0
M  V30 2018 H 193.659 2.06003 2.15329 0
M  V30 2019 H 191.196 1.02535 1.05475 0
M  V30 2020 H 193.154 0.56675 4.13333 0
M  V30 2021 H 191.784 -0.124998 3.22558 0
M  V30 2022 H 190.836 2.28777 3.03916 0
M  V30 2023 H 192.148 2.82165 4.1132 0
M  V30 2024 H 191.302 1.31374 5.92305 0
M  V30 2025 H 190.041 0.677014 4.82978 0
M  V30 2026 H 189.046 2.97276 4.62501 0
M  V30 2027 H 190.271 3.60882 5.75274 0
M  V30 2028 H 188.217 1.45889 6.39572 0
M  V30 2029 H 188.134 3.11899 6.88662 0
M  V30 2030 H 189.402 2.10371 7.50576 0
M  V30 2031 N 193.631 -1.12557 1.10312 0
M  V30 2032 C 194.561 -2.20341 0.772798 0
M  V30 2033 C 195.542 -1.68198 -0.25365 0
M  V30 2034 O 196.727 -1.93831 -0.119699 0
M  V30 2035 C 193.857 -3.46709 0.202443 0
M  V30 2036 C 192.811 -4.11996 1.15943 0
M  V30 2037 C 192.137 -5.328 0.450345 0
M  V30 2038 C 193.437 -4.5828 2.50552 0
M  V30 2039 H 195.131 -2.48229 1.674 0
M  V30 2040 H 192.677 -1.19308 0.806326 0
M  V30 2041 H 194.63 -4.2138 -0.0407752 0
M  V30 2042 H 193.354 -3.18245 -0.734001 0
M  V30 2043 H 192.013 -3.39305 1.38808 0
M  V30 2044 H 191.661 -5.00602 -0.490531 0
M  V30 2045 H 191.361 -5.7743 1.08851 0
M  V30 2046 H 192.885 -6.10219 0.215642 0
M  V30 2047 H 194.299 -5.2433 2.31843 0
M  V30 2048 H 192.696 -5.13683 3.10242 0
M  V30 2049 H 193.766 -3.72329 3.10643 0
M  V30 2050 N 195.109 -0.891671 -1.2995 0
M  V30 2051 C 196.386 -0.433307 -1.9074 0
M  V30 2052 C 196.766 1.08646 -1.80995 0
M  V30 2053 O 196.114 1.92476 -1.23147 0
M  V30 2054 C 196.324 -0.938895 -3.36134 0
M  V30 2055 C 197.672 -0.977829 -4.13187 0
M  V30 2056 O 198.696 -0.886015 -3.45005 0
M  V30 2057 O 197.555 -1.11453 -5.35015 0
M  V30 2058 H 194.649 -0.133699 -0.816121 0
M  V30 2059 H 197.195 -0.981011 -1.38471 0
M  V30 2060 H 195.967 -1.98281 -3.37343 0
M  V30 2061 H 195.59 -0.37074 -3.95868 0
M  V30 2062 N 196.587 1.43421 -0.653314 0
M  V30 2063 C 197.836 2.01032 -0.164076 0
M  V30 2064 C 198.149 1.52147 1.22926 0
M  V30 2065 O 199.355 2.02031 1.81371 0
M  V30 2066 C 197.811 3.59082 -0.24252 0
M  V30 2067 C 197.419 4.1696 -1.63855 0
M  V30 2068 C 199.163 4.24079 0.18911 0
M  V30 2069 C 197.07 5.67304 -1.67092 0
M  V30 2070 H 196 0.751798 -0.0575769 0
M  V30 2071 H 198.651 1.6439 -0.815362 0
M  V30 2072 H 197.033 3.93125 0.476276 0
M  V30 2073 H 198.207 3.94416 -2.38271 0
M  V30 2074 H 196.522 3.64335 -2.01616 0
M  V30 2075 H 199.119 5.34381 0.184775 0
M  V30 2076 H 199.462 3.98005 1.22056 0
M  V30 2077 H 199.995 3.94918 -0.477938 0
M  V30 2078 H 196.734 5.98145 -2.68146 0
M  V30 2079 H 196.254 5.91904 -0.970014 0
M  V30 2080 H 197.933 6.31344 -1.4147 0
M  V30 2081 N 198.065 0.39524 1.52563 0
M  V30 2082 C 199.481 0.0454682 1.59535 0
M  V30 2083 C 199.681 -1.44056 1.4089 0
M  V30 2084 O 198.737 -2.20579 1.22888 0
M  V30 2085 C 200.05 0.527963 2.96029 0
M  V30 2086 C 201.598 0.484733 3.09224 0
M  V30 2087 C 202.073 0.943512 4.48176 0
M  V30 2088 N 203.564 0.899765 4.54377 0
M  V30 2089 C 204.299 1.22609 5.60138 0
M  V30 2090 N 203.795 1.62319 6.73516 0
M  V30 2091 N 205.588 1.14696 5.50274 0
M  V30 2092 H 197.739 1.36261 1.62931 0
M  V30 2093 H 200.002 0.558887 0.765735 0
M  V30 2094 H 199.708 1.56607 3.14908 0
M  V30 2095 H 199.582 -0.0698056 3.77135 0
M  V30 2096 H 201.969 -0.544298 2.90037 0
M  V30 2097 H 202.05 1.11838 2.30056 0
M  V30 2098 H 201.694 1.9708 4.68104 0
M  V30 2099 H 201.624 0.286817 5.25818 0
M  V30 2100 H 204.115 0.607632 3.72983 0
M  V30 2101 H 204.428 1.85567 7.5019 0
M  V30 2102 H 202.773 1.66211 6.74833 0
M  V30 2103 H 205.964 0.835701 4.6058 0
M  V30 2104 H 206.137 1.40459 6.32594 0
M  V30 2105 N 199.544 -1.57102 0.125237 0
M  V30 2106 C 200.491 -2.15641 -0.822655 0
M  V30 2107 C 201.461 -1.08313 -1.25927 0
M  V30 2108 O 202.646 -1.36251 -1.33567 0
M  V30 2109 C 199.786 -2.76504 -2.06494 0
M  V30 2110 C 198.899 -3.98158 -1.67612 0
M  V30 2111 C 198.034 -4.47088 -2.86854 0
M  V30 2112 C 197.073 -5.6126 -2.44242 0
M  V30 2113 N 196.21 -6.04905 -3.56419 0
M  V30 2114 H 201.05 -2.96313 -0.316625 0
M  V30 2115 H 198.587 -1.46388 -0.144588 0
M  V30 2116 H 200.545 -3.09925 -2.79289 0
M  V30 2117 H 199.175 -1.98512 -2.54545 0
M  V30 2118 H 198.227 -3.70858 -0.846661 0
M  V30 2119 H 199.539 -4.80934 -1.32301 0
M  V30 2120 H 198.693 -4.82451 -3.67867 0
M  V30 2121 H 197.432 -3.63275 -3.25396 0
M  V30 2122 H 196.437 -5.25495 -1.61663 0
M  V30 2123 H 197.662 -6.46843 -2.0681 0
M  V30 2124 H 195.608 -5.24032 -3.94623 0
M  V30 2125 H 195.525 -6.82552 -3.25051 0
M  V30 2126 H 196.793 -6.44907 -4.37853 0
M  V30 2127 N 201.022 0.148545 -1.56898 0
M  V30 2128 C 201.932 1.20293 -2.01412 0
M  V30 2129 C 202.948 1.47107 -0.929273 0
M  V30 2130 O 204.124 1.58807 -1.23863 0
M  V30 2131 C 201.189 2.51682 -2.38447 0
M  V30 2132 C 200.25 2.32529 -3.60872 0
M  V30 2133 C 199.483 3.57653 -3.96132 0
M  V30 2134 O 199.706 4.63771 -3.32073 0
M  V30 2135 O 198.64 3.50408 -4.89385 0
M  V30 2136 H 202.466 0.855025 -2.91416 0
M  V30 2137 H 200.051 0.357151 -1.45068 0
M  V30 2138 H 201.933 3.29147 -2.63135 0
M  V30 2139 H 200.608 2.86006 -1.51599 0
M  V30 2140 H 199.515 1.53019 -3.41373 0
M  V30 2141 H 200.848 2.03121 -4.48333 0
M  V30 2142 N 202.5 1.5196 0.417844 0
M  V30 2143 C 203.41 1.77554 1.53336 0
M  V30 2144 C 204.426 0.660655 1.6097 0
M  V30 2145 O 205.602 0.945099 1.77848 0
M  V30 2146 C 202.667 1.91291 2.89152 0
M  V30 2147 C 201.728 3.15183 2.91475 0
M  V30 2148 C 200.961 3.28256 4.20813 0
M  V30 2149 O 201.184 2.46798 5.14244 0
M  V30 2150 O 200.118 4.21356 4.29817 0
M  V30 2151 H 203.944 2.7222 1.34647 0
M  V30 2152 H 201.529 1.36698 0.602828 0
M  V30 2153 H 203.411 2.02199 3.69721 0
M  V30 2154 H 202.086 0.998129 3.07927 0
M  V30 2155 H 200.993 3.09739 2.09791 0
M  V30 2156 H 202.326 4.06414 2.77648 0
M  V30 2157 N 203.978 -0.674533 1.42435 0
M  V30 2158 C 204.925 -1.78807 1.45934 0
M  V30 2159 C 205.895 -1.63157 0.311271 0
M  V30 2160 O 207.08 -1.83707 0.515383 0
M  V30 2161 C 204.22 -3.16839 1.36773 0
M  V30 2162 C 203.333 -3.43774 2.61617 0
M  V30 2163 C 202.468 -4.71536 2.44597 0
M  V30 2164 C 201.507 -4.91505 3.64814 0
M  V30 2165 N 200.644 -6.10508 3.46734 0
M  V30 2166 H 205.484 -1.75151 2.41093 0
M  V30 2167 H 203.021 -0.85504 1.19697 0
M  V30 2168 H 204.979 -3.96606 1.29459 0
M  V30 2169 H 203.609 -3.19619 0.452089 0
M  V30 2170 H 202.661 -2.58259 2.79297 0
M  V30 2171 H 203.973 -3.54423 3.50978 0
M  V30 2172 H 203.127 -5.59393 2.3487 0
M  V30 2173 H 201.866 -4.6317 1.52726 0
M  V30 2174 H 200.871 -4.0209 3.74972 0
M  V30 2175 H 202.096 -5.01716 4.57665 0
M  V30 2176 H 200.042 -6.03315 2.5758 0
M  V30 2177 H 199.959 -6.2202 4.29682 0
M  V30 2178 H 201.227 -7.01044 3.40819 0
M  V30 2179 N 205.456 -1.28612 -0.910864 0
M  V30 2180 C 206.388 -1.08589 -2.01844 0
M  V30 2181 C 207.401 -0.0367419 -1.62759 0
M  V30 2182 O 208.59 -0.280101 -1.76289 0
M  V30 2183 C 205.69 -0.628626 -3.33019 0
M  V30 2184 C 204.863 -1.75382 -4.00699 0
M  V30 2185 C 203.922 -1.28945 -5.10156 0
M  V30 2186 O 202.948 -1.9922 -5.33198 0
M  V30 2187 N 204.15 -0.154224 -5.80295 0
M  V30 2188 H 206.915 -2.03973 -2.19579 0
M  V30 2189 H 204.476 -1.20403 -1.08234 0
M  V30 2190 H 206.468 -0.301508 -4.03575 0
M  V30 2191 H 205.038 0.232451 -3.11735 0
M  V30 2192 H 204.258 -2.25039 -3.23653 0
M  V30 2193 H 205.546 -2.50854 -4.42662 0
M  V30 2194 H 204.944 0.43194 -5.64049 0
M  V30 2195 H 203.501 0.113599 -6.51701 0
M  V30 2196 N 206.934 1.1197 -1.10907 0
M  V30 2197 C 208.183 1.82947 -0.849302 0
M  V30 2198 C 208.496 1.85275 0.627112 0
M  V30 2199 O 209.702 2.52296 1.00295 0
M  V30 2200 C 208.158 3.28529 -1.46959 0
M  V30 2201 C 207.766 3.34546 -2.97965 0
M  V30 2202 C 209.51 4.04443 -1.28942 0
M  V30 2203 C 207.417 4.74491 -3.53004 0
M  V30 2204 H 206.347 0.685477 -0.314065 0
M  V30 2205 H 208.998 1.2604 -1.33365 0
M  V30 2206 H 207.38 3.85333 -0.912917 0
M  V30 2207 H 208.554 2.87654 -3.59989 0
M  V30 2208 H 206.869 2.72108 -3.15192 0
M  V30 2209 H 209.466 5.07787 -1.67502 0
M  V30 2210 H 209.809 4.15656 -0.231456 0
M  V30 2211 H 210.342 3.5401 -1.81443 0
M  V30 2212 H 207.081 4.68474 -4.58489 0
M  V30 2213 H 206.601 5.21816 -2.9575 0
M  V30 2214 H 208.28 5.4344 -3.51115 0
M  V30 2215 N 208.412 0.89855 1.29475 0
M  V30 2216 C 209.345 0.319981 2.25945 0
M  V30 2217 C 210.323 -0.567189 1.52387 0
M  V30 2218 O 211.507 -0.514254 1.8135 0
M  V30 2219 C 208.634 -0.544013 3.34303 0
M  V30 2220 C 207.68 0.275682 4.25608 0
M  V30 2221 S 208.513 1.67272 5.08704 0
M  V30 2222 C 209.669 0.815621 6.20563 0
M  V30 2223 H 209.902 1.13767 2.74671 0
M  V30 2224 H 207.435 0.69882 1.3768 0
M  V30 2225 H 209.393 -1.03673 3.97193 0
M  V30 2226 H 208.054 -1.33593 2.84274 0
M  V30 2227 H 207.247 -0.384263 5.02533 0
M  V30 2228 H 206.849 0.701496 3.67362 0
M  V30 2229 H 209.141 0.0385042 6.77489 0
M  V30 2230 H 210.084 1.55691 6.90772 0
M  V30 2231 H 210.492 0.370516 5.63283 0
M  V30 2232 N 209.89 -1.43072 0.660911 0
M  V30 2233 C 211.139 -2.00942 0.174735 0
M  V30 2234 C 211.452 -1.52797 -1.22117 0
M  V30 2235 O 212.658 -2.02991 -1.80297 0
M  V30 2236 C 211.114 -3.58948 0.261559 0
M  V30 2237 C 210.722 -4.16085 1.66064 0
M  V30 2238 C 212.466 -4.24173 -0.166617 0
M  V30 2239 C 210.373 -5.6641 1.70098 0
M  V30 2240 H 209.303 -0.751483 0.0615631 0
M  V30 2241 H 211.954 -1.63955 0.824069 0
M  V30 2242 H 210.336 -3.93372 -0.455421 0
M  V30 2243 H 211.51 -3.93147 2.40359 0
M  V30 2244 H 209.825 -3.6326 2.03546 0
M  V30 2245 H 212.422 -5.34471 -0.156433 0
M  V30 2246 H 212.765 -3.98647 -1.19943 0
M  V30 2247 H 213.298 -3.94659 0.498875 0
M  V30 2248 H 210.037 -5.96715 2.71315 0
M  V30 2249 H 209.557 -5.91382 1.00139 0
M  V30 2250 H 211.236 -6.30585 1.44816 0
M  V30 2251 N 211.368 -0.403325 -1.52352 0
M  V30 2252 C 212.645 0.232611 -1.94212 0
M  V30 2253 C 213.025 1.63133 -1.33981 0
M  V30 2254 O 212.373 2.22659 -0.513344 0
M  V30 2255 C 212.583 0.244811 -3.4814 0
M  V30 2256 C 213.931 0.46698 -4.22024 0
M  V30 2257 O 214.955 0.324419 -3.5472 0
M  V30 2258 O 213.814 0.74747 -5.41364 0
M  V30 2259 H 210.908 0.148223 -0.813609 0
M  V30 2260 H 213.454 -0.458848 -1.63379 0
M  V30 2261 H 212.226 -0.734378 -3.84347 0
M  V30 2262 H 211.849 0.980611 -3.85318 0
M  V30 2263 N 212.846 1.57033 -0.133567 0
M  V30 2264 C 214.095 1.94861 0.520768 0
M  V30 2265 C 214.408 1.02012 1.66892 0
M  V30 2266 O 215.614 1.29365 2.38699 0
M  V30 2267 C 214.07 3.46362 0.977809 0
M  V30 2268 C 213.678 4.47773 -0.142674 0
M  V30 2269 C 215.422 3.93083 1.60269 0
M  V30 2270 C 213.329 5.90468 0.331883 0
M  V30 2271 H 212.259 0.727453 0.198315 0
M  V30 2272 H 214.91 1.82227 -0.215759 0
M  V30 2273 H 213.292 3.54282 1.7692 0
M  V30 2274 H 214.466 4.51536 -0.919317 0
M  V30 2275 H 212.781 4.10891 -0.675124 0
M  V30 2276 H 215.378 4.97121 1.96914 0
M  V30 2277 H 215.721 3.33876 2.48662 0
M  V30 2278 H 216.254 3.88025 0.876453 0
M  V30 2279 H 212.993 6.53463 -0.516341 0
M  V30 2280 H 212.513 5.90094 1.07469 0
M  V30 2281 H 214.192 6.42179 0.788332 0
M  V30 2282 N 214.325 -0.140222 1.56975 0
M  V30 2283 C 215.572 -0.851687 1.83719 0
M  V30 2284 C 215.9 -1.80862 0.715485 0
M  V30 2285 O 215.155 -1.93464 -0.294956 0
M  V30 2286 C 215.454 -1.65386 3.16832 0
M  V30 2287 C 215.12 -0.843112 4.42947 0
M  V30 2288 C 213.782 -0.619464 4.77196 0
M  V30 2289 C 216.134 -0.276582 5.20466 0
M  V30 2290 C 213.462 0.181312 5.8642 0
M  V30 2291 C 215.814 0.51127 6.30531 0
M  V30 2292 C 214.478 0.745432 6.63325 0
M  V30 2293 H 213.748 -0.311654 0.672274 0
M  V30 2294 H 216.395 -0.115006 1.91154 0
M  V30 2295 H 214.7 -2.46084 3.04877 0
M  V30 2296 H 216.397 -2.20793 3.34741 0
M  V30 2297 H 212.987 -1.0275 4.16101 0
M  V30 2298 H 217.171 -0.436632 4.94376 0
M  V30 2299 H 212.427 0.372165 6.10266 0
M  V30 2300 H 216.601 0.957354 6.89788 0
M  V30 2301 H 214.228 1.36778 7.47794 0
M  V30 2302 N 215.803 -1.52179 -0.40978 0
M  V30 2303 C 216.753 -1.71857 -1.49831 0
M  V30 2304 C 217.737 -0.572469 -1.50372 0
M  V30 2305 O 218.929 -0.829509 -1.56359 0
M  V30 2306 C 216.058 -1.87206 -2.87765 0
M  V30 2307 C 215.144 -3.07685 -2.91875 0
M  V30 2308 N 215.535 -4.30403 -2.65683 0
M  V30 2309 C 213.833 -3.07505 -3.23043 0
M  V30 2310 C 214.534 -5.11868 -2.76344 0
M  V30 2311 N 213.51 -4.47101 -3.09195 0
M  V30 2312 H 217.312 -2.64381 -1.28375 0
M  V30 2313 H 214.826 -1.50203 -0.617479 0
M  V30 2314 H 216.823 -1.99419 -3.66111 0
M  V30 2315 H 215.483 -0.958814 -3.10221 0
M  V30 2316 H 216.494 -4.58887 -2.4009 0
M  V30 2317 H 213.171 -2.25915 -3.51096 0
M  V30 2318 H 214.561 -6.19634 -2.59814 0
M  V30 2319 N 217.281 0.66697 -1.42791 0
M  V30 2320 C 218.692 1.2478 -1.38877 0
M  V30 2321 C 219.043 1.96012 -0.0859426 0
M  V30 2322 O 218.168 2.00463 0.815081 0
M  V30 2323 C 218.763 2.26938 -2.51564 0
M  V30 2324 C 217.322 2.80529 -2.50959 0
M  V30 2325 C 216.469 1.54965 -2.29959 0
M  V30 2326 H 219.42 0.459853 -1.51892 0
M  V30 2327 H 219.441 3.08834 -2.22265 0
M  V30 2328 H 218.953 1.75065 -3.46372 0
M  V30 2329 H 217.054 3.36502 -1.59991 0
M  V30 2330 H 217.167 3.29012 -3.48265 0
M  V30 2331 H 215.531 1.81817 -1.78366 0
M  V30 2332 H 216.314 1.05047 -3.26833 0
M  V30 2333 N 218.759 1.29093 0.90403 0
M  V30 2334 C 219.984 1.19809 1.69294 0
M  V30 2335 C 220.409 -0.238481 1.86582 0
M  V30 2336 O 219.767 -1.1723 1.383 0
M  V30 2337 C 219.815 1.91202 3.05736 0
M  V30 2338 O 218.919 1.22611 3.93752 0
M  V30 2339 H 218.26 0.415385 0.518027 0
M  V30 2340 H 220.79 1.70586 1.12967 0
M  V30 2341 H 220.8 1.99487 3.55906 0
M  V30 2342 H 219.475 2.95692 2.92471 0
M  V30 2343 H 218.052 1.22554 3.52186 0
M  V30 2344 N 220.237 -1.11381 1.11499 0
M  V30 2345 C 221.483 -1.83403 0.865512 0
M  V30 2346 C 221.816 -1.84459 -0.607329 0
M  V30 2347 O 221.091 -1.29811 -1.44842 0
M  V30 2348 C 221.374 -3.30552 1.42855 0
M  V30 2349 C 221.227 -3.37886 2.96906 0
M  V30 2350 C 222.546 -4.26643 1.08 0
M  V30 2351 H 219.665 -0.665879 0.31587 0
M  V30 2352 H 222.307 -1.30601 1.37998 0
M  V30 2353 H 220.457 -3.75648 0.990985 0
M  V30 2354 H 222.129 -3.01343 3.49271 0
M  V30 2355 H 220.372 -2.78088 3.32941 0
M  V30 2356 H 221.043 -4.41458 3.31389 0
M  V30 2357 H 223.519 -3.89729 1.45775 0
M  V30 2358 H 222.395 -5.27986 1.50072 0
M  V30 2359 H 222.656 -4.42099 -0.00915037 0
M  V30 2360 N 221.715 -0.905404 -1.28997 0
M  V30 2361 C 222.962 -0.534248 -1.95325 0
M  V30 2362 C 223.29 0.920535 -1.71337 0
M  V30 2363 O 222.545 1.66861 -1.02254 0
M  V30 2364 C 222.844 -0.779906 -3.48787 0
M  V30 2365 C 222.51 -2.21293 -3.92861 0
M  V30 2366 C 221.172 -2.60475 -4.04606 0
M  V30 2367 C 223.524 -3.14587 -4.15553 0
M  V30 2368 C 220.852 -3.9212 -4.36416 0
M  V30 2369 C 223.204 -4.45787 -4.48839 0
M  V30 2370 C 221.868 -4.84834 -4.58794 0
M  V30 2371 H 221.138 -0.195495 -0.714747 0
M  V30 2372 H 223.785 -1.14514 -1.53488 0
M  V30 2373 H 222.09 -0.0861365 -3.91705 0
M  V30 2374 H 223.787 -0.472029 -3.98212 0
M  V30 2375 H 220.377 -1.89887 -3.84241 0
M  V30 2376 H 224.561 -2.85528 -4.0594 0
M  V30 2377 H 219.817 -4.22086 -4.42327 0
M  V30 2378 H 223.991 -5.18098 -4.65346 0
M  V30 2379 H 221.618 -5.86877 -4.83197 0
M  V30 2380 N 223.193 1.4272 -0.668489 0
M  V30 2381 C 224.439 2.01923 -0.188419 0
M  V30 2382 C 224.772 1.52704 1.19979 0
M  V30 2383 O 224.047 0.726566 1.8042 0
M  V30 2384 C 224.33 3.59451 -0.216085 0
M  V30 2385 C 224.183 4.18864 -1.6393 0
M  V30 2386 C 225.502 4.37903 0.439179 0
M  V30 2387 H 222.621 0.733674 -0.0699412 0
M  V30 2388 H 225.263 1.69822 -0.852076 0
M  V30 2389 H 223.413 3.86929 0.349012 0
M  V30 2390 H 225.085 4.02362 -2.25616 0
M  V30 2391 H 223.328 3.74933 -2.18193 0
M  V30 2392 H 223.999 5.27987 -1.61039 0
M  V30 2393 H 226.475 4.16079 -0.0417878 0
M  V30 2394 H 225.351 5.47519 0.389157 0
M  V30 2395 H 225.612 4.15303 1.51577 0
M  V30 2396 N 224.671 0.411399 1.52136 0
M  V30 2397 C 225.619 -0.427633 2.28635 0
M  V30 2398 C 226.613 -1.04383 1.33419 0
M  V30 2399 O 227.819 -0.981772 1.50868 0
M  V30 2400 H 224.194 -0.156689 0.735495 0
M  V30 2401 H 226.165 0.238761 2.97443 0
M  V30 2402 C 224.914 -1.53082 3.12188 0
M  V30 2403 H 224.237 -1.06601 3.85326 0
M  V30 2404 H 225.677 -2.09167 3.68816 0
M  V30 2405 C 224.136 -2.49946 2.25895 0
M  V30 2406 O 224.666 -3.53884 1.90076 0
M  V30 2407 N 222.872 -2.2021 1.8962 0
M  V30 2408 H 222.419 -1.35719 2.18948 0
M  V30 2409 H 222.377 -2.85266 1.32176 0
M  V30 2410 N 226.149 -1.5696 0.141893 0
M  V30 2411 C 227.397 -1.95573 -0.509484 0
M  V30 2412 C 227.718 -1.02746 -1.65736 0
M  V30 2413 O 226.988 -0.0880311 -1.95702 0
M  V30 2414 H 225.568 -0.722115 -0.191205 0
M  V30 2415 H 228.23 -1.93697 0.216196 0
M  V30 2416 H 227.326 -2.99171 -0.889 0
M  V30 2417 N 227.627 0.131896 -1.57047 0
M  V30 2418 C 228.904 0.871495 -1.75112 0
M  V30 2419 C 229.284 1.9866 -0.713949 0
M  V30 2420 O 228.632 2.26965 0.264447 0
M  V30 2421 C 228.842 1.40007 -3.19686 0
M  V30 2422 C 230.19 1.85752 -3.81813 0
M  V30 2423 O 231.214 1.49715 -3.23209 0
M  V30 2424 O 230.073 2.5226 -4.84796 0
M  V30 2425 H 227.167 0.412919 -0.716538 0
M  V30 2426 H 229.713 0.116641 -1.69299 0
M  V30 2427 H 228.485 0.599404 -3.86682 0
M  V30 2428 H 228.108 2.218 -3.29986 0
M  V30 2429 N 229.106 1.52395 0.401703 0
M  V30 2430 C 230.016 1.7917 1.51444 0
M  V30 2431 C 231.032 0.677691 1.6026 0
M  V30 2432 O 232.208 0.963909 1.76835 0
M  V30 2433 C 229.273 1.94347 2.87107 0
M  V30 2434 C 228.334 3.18257 2.88116 0
M  V30 2435 C 227.567 3.32701 4.17308 0
M  V30 2436 O 227.79 2.52238 5.11598 0
M  V30 2437 O 226.724 4.25891 4.25324 0
M  V30 2438 H 230.55 2.73633 1.31752 0
M  V30 2439 H 228.135 1.3733 0.588296 0
M  V30 2440 H 230.017 2.06109 3.67555 0
M  V30 2441 H 228.692 1.03073 3.06851 0
M  V30 2442 H 227.599 3.11947 2.06494 0
M  V30 2443 H 228.932 4.09336 2.73322 0
M  V30 2444 N 230.584 -0.659388 1.43143 0
M  V30 2445 C 231.516 -1.7849 1.43784 0
M  V30 2446 C 232.529 -1.5932 0.334787 0
M  V30 2447 O 233.718 -1.68155 0.598842 0
M  V30 2448 C 230.818 -3.15828 1.22906 0
M  V30 2449 C 229.991 -3.61711 2.45934 0
M  V30 2450 C 229.05 -4.77831 2.20371 0
M  V30 2451 O 228.076 -4.87586 2.93681 0
M  V30 2452 N 229.278 -5.67611 1.21647 0
M  V30 2453 H 232.043 -1.7842 2.40803 0
M  V30 2454 H 229.604 -0.84302 1.3822 0
M  V30 2455 H 231.596 -3.91189 1.03697 0
M  V30 2456 H 230.166 -3.10707 0.343542 0
M  V30 2457 H 229.386 -2.76861 2.80609 0
M  V30 2458 H 230.674 -3.89112 3.27825 0
M  V30 2459 H 230.072 -5.62397 0.610449 0
M  V30 2460 H 228.629 -6.42719 1.08423 0
M  V30 2461 N 232.062 -1.29571 -0.897171 0
M  V30 2462 C 232.972 -1.16808 -2.03453 0
M  V30 2463 C 233.988 -0.0907471 -1.73763 0
M  V30 2464 O 235.164 -0.303312 -1.99103 0
M  V30 2465 C 232.229 -0.848264 -3.36163 0
M  V30 2466 C 231.29 -2.0097 -3.79354 0
M  V30 2467 C 230.523 -1.70505 -5.05731 0
M  V30 2468 O 230.746 -0.62718 -5.66941 0
M  V30 2469 O 229.68 -2.5538 -5.45036 0
M  V30 2470 H 233.506 -2.12325 -2.17144 0
M  V30 2471 H 231.091 -1.09047 -1.02123 0
M  V30 2472 H 232.973 -0.684581 -4.15802 0
M  V30 2473 H 231.648 0.0771071 -3.23608 0
M  V30 2474 H 230.555 -2.22863 -3.00471 0
M  V30 2475 H 231.888 -2.91636 -3.96496 0
M  V30 2476 N 233.54 1.10788 -1.12088 0
M  V30 2477 C 234.786 1.82942 -0.875226 0
M  V30 2478 C 235.119 1.84779 0.597538 0
M  V30 2479 O 234.394 1.30578 1.44152 0
M  V30 2480 C 234.677 3.29789 -1.44606 0
M  V30 2481 C 234.53 3.36307 -2.98693 0
M  V30 2482 C 235.849 4.26064 -1.10261 0
M  V30 2483 H 232.968 0.664195 -0.319397 0
M  V30 2484 H 235.61 1.29867 -1.38689 0
M  V30 2485 H 233.76 3.75118 -1.01089 0
M  V30 2486 H 235.432 2.99487 -3.50864 0
M  V30 2487 H 233.675 2.76318 -3.34411 0
M  V30 2488 H 234.346 4.39694 -3.33726 0
M  V30 2489 H 236.822 3.88951 -1.4784 0
M  V30 2490 H 235.698 5.27183 -1.52869 0
M  V30 2491 H 235.959 4.42098 -0.0142953 0
M  V30 2492 N 235.018 0.912232 1.28515 0
M  V30 2493 C 236.295 0.463597 1.90027 0
M  V30 2494 C 236.675 -1.05753 1.82701 0
M  V30 2495 O 236.023 -1.90492 1.26194 0
M  V30 2496 C 236.233 0.992253 3.34597 0
M  V30 2497 C 237.581 1.04344 4.11579 0
M  V30 2498 O 238.605 0.94079 3.43551 0
M  V30 2499 O 237.464 1.1995 5.33174 0
M  V30 2500 H 234.558 0.146666 0.813891 0
M  V30 2501 H 237.104 1.00292 1.36893 0
M  V30 2502 H 235.876 2.03623 3.34146 0
M  V30 2503 H 235.499 0.433672 3.95228 0
M  V30 2504 N 236.496 -1.42363 0.676048 0
M  V30 2505 C 237.726 -2.05561 0.206967 0
M  V30 2506 C 238.134 -1.50887 -1.14148 0
M  V30 2507 O 237.477 -0.643933 -1.72044 0
M  V30 2508 C 237.539 -3.5944 0.0659508 0
M  V30 2509 C 237.203 -4.36812 1.34331 0
M  V30 2510 C 238.2 -4.67383 2.27704 0
M  V30 2511 C 235.885 -4.76429 1.59125 0
M  V30 2512 C 237.879 -5.36509 3.44147 0
M  V30 2513 C 235.566 -5.45294 2.75857 0
M  V30 2514 C 236.564 -5.75259 3.68193 0
M  V30 2515 O 236.252 -6.42712 4.82883 0
M  V30 2516 H 235.984 -0.668872 0.0979084 0
M  V30 2517 H 238.538 -1.83467 0.923531 0
M  V30 2518 H 236.768 -3.80197 -0.706204 0
M  V30 2519 H 238.457 -4.0427 -0.363418 0
M  V30 2520 H 239.223 -4.37275 2.09799 0
M  V30 2521 H 235.102 -4.52498 0.881258 0
M  V30 2522 H 238.646 -5.59814 4.16238 0
M  V30 2523 H 234.543 -5.7482 2.93688 0
M  V30 2524 H 235.311 -6.61204 4.82444 0
M  V30 2525 N 237.974 -0.419461 -1.51915 0
M  V30 2526 C 239.251 0.211999 -1.94448 0
M  V30 2527 C 239.631 1.61703 -1.35703 0
M  V30 2528 O 238.979 2.22102 -0.536931 0
M  V30 2529 C 239.189 0.207872 -3.4838 0
M  V30 2530 C 240.537 0.422192 -4.22496 0
M  V30 2531 O 241.561 0.286778 -3.55044 0
M  V30 2532 O 240.42 0.690009 -5.42126 0
M  V30 2533 H 237.514 0.139586 -0.815135 0
M  V30 2534 H 240.06 -0.476151 -1.62883 0
M  V30 2535 H 238.832 -0.775102 -3.83546 0
M  V30 2536 H 238.455 0.939688 -3.86336 0
M  V30 2537 N 239.452 1.56882 -0.150215 0
M  V30 2538 C 240.863 1.82995 0.370076 0
M  V30 2539 C 241.214 1.06907 1.64515 0
M  V30 2540 O 240.339 0.315369 2.1409 0
M  V30 2541 C 240.934 3.31942 0.678208 0
M  V30 2542 C 239.493 3.58625 1.14301 0
M  V30 2543 C 238.64 2.76792 0.167778 0
M  V30 2544 H 241.591 1.54209 -0.374858 0
M  V30 2545 H 241.612 3.48272 1.53254 0
M  V30 2546 H 241.124 3.87294 -0.249991 0
M  V30 2547 H 239.225 3.08664 2.08704 0
M  V30 2548 H 239.338 4.67073 1.06676 0
M  V30 2549 H 237.702 2.45972 0.661037 0
M  V30 2550 H 238.485 3.34916 -0.754069 0
M  V30 2551 N 240.93 -0.123565 1.57115 0
M  V30 2552 C 241.84 -1.17074 2.033 0
M  V30 2553 C 242.856 -1.4561 0.952559 0
M  V30 2554 O 244.032 -1.56817 1.26374 0
M  V30 2555 C 241.097 -2.47857 2.42421 0
M  V30 2556 C 240.158 -2.26758 3.64526 0
M  V30 2557 C 239.391 -3.51305 4.01771 0
M  V30 2558 O 239.614 -4.5843 3.39409 0
M  V30 2559 O 238.548 -3.42578 4.94898 0
M  V30 2560 H 242.374 -0.808555 2.92739 0
M  V30 2561 H 239.959 -0.334027 1.45618 0
M  V30 2562 H 241.841 -3.2492 2.68338 0
M  V30 2563 H 240.516 -2.83558 1.5613 0
M  V30 2564 H 239.423 -1.47569 3.43765 0
M  V30 2565 H 240.756 -1.95963 4.51508 0
M  V30 2566 N 242.408 -1.52605 -0.393616 0
M  V30 2567 C 243.636 -1.71294 -1.16043 0
M  V30 2568 C 244.051 -0.429259 -1.83855 0
M  V30 2569 O 243.408 0.595921 -1.72496 0
M  V30 2570 C 243.459 -2.8593 -2.21193 0
M  V30 2571 O 243.18 -4.09329 -1.56146 0
M  V30 2572 C 244.681 -3.16259 -3.10636 0
M  V30 2573 H 241.901 -0.573641 -0.348104 0
M  V30 2574 H 244.445 -1.99234 -0.461092 0
M  V30 2575 H 242.6 -2.60465 -2.86769 0
M  V30 2576 H 243.014 -4.73323 -2.25978 0
M  V30 2577 H 244.488 -3.99946 -3.80456 0
M  V30 2578 H 244.965 -2.3045 -3.73884 0
M  V30 2579 H 245.571 -3.43547 -2.50711 0
M  V30 2580 N 243.887 0.651787 -1.4349 0
M  V30 2581 C 245.115 1.43937 -1.48626 0
M  V30 2582 C 245.53 1.8851 -0.104587 0
M  V30 2583 O 244.887 1.5958 0.885464 0
M  V30 2584 C 244.938 2.6734 -2.43334 0
M  V30 2585 O 244.659 2.24631 -3.76128 0
M  V30 2586 C 246.16 3.60683 -2.57726 0
M  V30 2587 H 243.38 0.44213 -0.504739 0
M  V30 2588 H 245.924 0.798944 -1.88248 0
M  V30 2589 H 244.079 3.2752 -2.06904 0
M  V30 2590 H 244.493 3.04485 -4.2707 0
M  V30 2591 H 245.967 4.43933 -3.28067 0
M  V30 2592 H 246.444 4.08126 -1.62265 0
M  V30 2593 H 247.05 3.06384 -2.94973 0
M  V30 2594 N 245.365 1.30045 0.890287 0
M  V30 2595 C 246.605 1.19839 1.65584 0
M  V30 2596 C 246.969 -0.244175 1.90441 0
M  V30 2597 O 248.17 -0.469378 2.6467 0
M  V30 2598 C 246.441 1.99876 2.96284 0
M  V30 2599 S 248 2.06309 3.87275 0
M  V30 2600 H 244.818 0.427157 0.568382 0
M  V30 2601 H 247.42 1.64453 1.05715 0
M  V30 2602 H 246.124 3.03809 2.75913 0
M  V30 2603 H 245.655 1.55903 3.61189 0
M  V30 2604 H 247.67 1.18661 4.81803 0
M  V30 2605 N 246.843 -1.10192 1.12674 0
M  V30 2606 C 248.073 -1.85713 0.905213 0
M  V30 2607 C 248.481 -1.81056 -0.549108 0
M  V30 2608 O 247.824 -1.19927 -1.39151 0
M  V30 2609 C 247.886 -3.34972 1.30516 0
M  V30 2610 C 247.55 -3.63385 2.77129 0
M  V30 2611 C 248.547 -3.59772 3.75313 0
M  V30 2612 C 246.232 -3.91981 3.14096 0
M  V30 2613 C 248.226 -3.84354 5.08479 0
M  V30 2614 C 245.913 -4.16218 4.47443 0
M  V30 2615 C 246.911 -4.12395 5.44444 0
M  V30 2616 O 246.599 -4.36014 6.75387 0
M  V30 2617 H 246.331 -0.593719 0.323223 0
M  V30 2618 H 248.885 -1.40198 1.50112 0
M  V30 2619 H 247.115 -3.81156 0.652463 0
M  V30 2620 H 248.804 -3.91886 1.05736 0
M  V30 2621 H 249.57 -3.37716 3.48099 0
M  V30 2622 H 245.449 -3.94085 2.39202 0
M  V30 2623 H 248.993 -3.81285 5.84181 0
M  V30 2624 H 244.89 -4.37754 4.74386 0
M  V30 2625 H 245.658 -4.53516 6.8137 0
M  V30 2626 N 248.321 -0.919034 -1.28029 0
M  V30 2627 C 249.57 -0.550802 -1.94034 0
M  V30 2628 C 249.883 0.910877 -1.73096 0
M  V30 2629 O 251.089 1.3875 -2.33368 0
M  V30 2630 C 249.545 -0.934249 -3.47563 0
M  V30 2631 C 249.153 -2.41602 -3.7727 0
M  V30 2632 C 250.897 -0.636854 -4.19696 0
M  V30 2633 C 248.804 -2.73932 -5.24133 0
M  V30 2634 H 247.734 -0.202273 -0.726362 0
M  V30 2635 H 250.385 -1.11867 -1.45458 0
M  V30 2636 H 248.767 -0.295115 -3.94899 0
M  V30 2637 H 249.941 -3.10233 -3.40723 0
M  V30 2638 H 248.256 -2.68441 -3.18321 0
M  V30 2639 H 250.853 -0.855005 -5.2782 0
M  V30 2640 H 251.196 0.425575 -4.14119 0
M  V30 2641 H 251.729 -1.23469 -3.78154 0
M  V30 2642 H 248.468 -3.79049 -5.34792 0
M  V30 2643 H 247.988 -2.09942 -5.61858 0
M  V30 2644 H 249.667 -2.61215 -5.91925 0
M  V30 2645 N 249.799 1.42003 -0.683588 0
M  V30 2646 C 251.215 1.55625 -0.353976 0
M  V30 2647 C 251.415 1.66151 1.14 0
M  V30 2648 O 250.471 1.63329 1.92561 0
M  V30 2649 C 251.784 2.80171 -1.092 0
M  V30 2650 C 253.332 2.93954 -1.07518 0
M  V30 2651 C 253.807 4.21372 -1.79471 0
M  V30 2652 N 255.298 4.28303 -1.76381 0
M  V30 2653 C 256.033 5.25729 -2.28904 0
M  V30 2654 N 255.529 6.29254 -2.89846 0
M  V30 2655 N 257.322 5.17586 -2.19228 0
M  V30 2656 H 249.473 1.33415 -1.6527 0
M  V30 2657 H 251.736 0.64282 -0.696769 0
M  V30 2658 H 251.442 2.78561 -2.14701 0
M  V30 2659 H 251.316 3.7133 -0.662862 0
M  V30 2660 H 253.703 2.95086 -0.028475 0
M  V30 2661 H 253.784 2.04002 -1.54328 0
M  V30 2662 H 253.428 4.21001 -2.84114 0
M  V30 2663 H 253.358 5.10275 -1.30104 0
M  V30 2664 H 255.849 3.54119 -1.31939 0
M  V30 2665 H 256.162 6.99964 -3.27522 0
M  V30 2666 H 254.507 6.29791 -2.93919 0
M  V30 2667 H 257.698 4.35631 -1.71299 0
M  V30 2668 H 257.871 5.93348 -2.60466 0
M  V30 2669 N 251.277 0.427512 1.51691 0
M  V30 2670 C 252.523 -0.142439 2.02299 0
M  V30 2671 C 252.856 -1.43214 1.31162 0
M  V30 2672 O 252.131 -1.89833 0.423511 0
M  V30 2673 C 252.414 -0.371301 3.58181 0
M  V30 2674 C 252.267 0.936358 4.39946 0
M  V30 2675 C 253.586 -1.14542 4.24933 0
M  V30 2676 H 250.705 -0.0502937 0.735282 0
M  V30 2677 H 253.347 0.564584 1.81418 0
M  V30 2678 H 251.497 -0.973559 3.76104 0
M  V30 2679 H 253.169 1.57184 4.33694 0
M  V30 2680 H 251.412 1.5432 4.05423 0
M  V30 2681 H 252.083 0.730388 5.47147 0
M  V30 2682 H 254.559 -0.635362 4.11221 0
M  V30 2683 H 253.435 -1.27431 5.33903 0
M  V30 2684 H 253.696 -2.17093 3.85127 0
M  V30 2685 N 252.755 -1.56801 0.158532 0
M  V30 2686 C 253.985 -2.00568 -0.495583 0
M  V30 2687 C 254.393 -1.03774 -1.58201 0
M  V30 2688 O 253.736 -0.0285797 -1.83678 0
M  V30 2689 C 253.798 -3.40768 -1.14532 0
M  V30 2690 C 253.462 -4.56553 -0.202101 0
M  V30 2691 C 254.459 -5.16714 0.574675 0
M  V30 2692 C 252.144 -5.02197 -0.101648 0
M  V30 2693 C 254.138 -6.20939 1.43924 0
M  V30 2694 C 251.825 -6.06274 0.766508 0
M  V30 2695 C 252.823 -6.65515 1.53555 0
M  V30 2696 O 252.511 -7.67575 2.38922 0
M  V30 2697 H 252.243 -0.662893 -0.13247 0
M  V30 2698 H 254.797 -2.03829 0.253559 0
M  V30 2699 H 253.027 -3.34381 -1.94233 0
M  V30 2700 H 254.716 -3.6857 -1.70033 0
M  V30 2701 H 255.482 -4.82341 0.507167 0
M  V30 2702 H 251.361 -4.55807 -0.689994 0
M  V30 2703 H 254.905 -6.67107 2.03996 0
M  V30 2704 H 250.802 -6.40073 0.835266 0
M  V30 2705 H 251.57 -7.84844 2.32296 0
M  V30 2706 N 254.233 0.115231 -1.57178 0
M  V30 2707 C 255.181 1.16014 -2.01602 0
M  V30 2708 C 256.175 1.42653 -0.913587 0
M  V30 2709 O 257.381 1.42571 -1.09879 0
M  V30 2710 H 253.756 0.391252 -0.642204 0
M  V30 2711 H 255.727 0.758998 -2.88586 0
M  V30 2712 C 254.476 2.47767 -2.4394 0
M  V30 2713 H 253.799 2.28108 -3.28339 0
M  V30 2714 H 255.239 3.19432 -2.78818 0
M  V30 2715 C 253.698 3.10617 -1.30455 0
M  V30 2716 O 254.228 3.96846 -0.622585 0
M  V30 2717 N 252.434 2.70553 -1.06064 0
M  V30 2718 H 251.981 2.00527 -1.61699 0
M  V30 2719 H 251.939 3.12934 -0.303284 0
M  V30 2720 N 255.711 1.52812 0.385517 0
M  V30 2721 C 256.957 1.68275 1.13188 0
M  V30 2722 C 257.29 0.423179 1.89533 0
M  V30 2723 O 256.565 -0.579113 1.85679 0
M  V30 2724 C 256.848 2.92001 2.1073 0
M  V30 2725 C 256.701 4.28067 1.38125 0
M  V30 2726 C 258.02 3.11283 3.11113 0
M  V30 2727 H 255.139 0.612352 0.410115 0
M  V30 2728 H 257.781 1.85415 0.414869 0
M  V30 2729 H 255.931 2.77519 2.71874 0
M  V30 2730 H 257.603 4.54324 0.799187 0
M  V30 2731 H 255.846 4.28388 0.683092 0
M  V30 2732 H 256.517 5.10733 2.09417 0
M  V30 2733 H 258.993 3.2482 2.6006 0
M  V30 2734 H 257.869 3.99325 3.76605 0
M  V30 2735 H 258.13 2.25656 3.80173 0
M  V30 2736 N 257.189 -0.644168 1.43834 0
M  V30 2737 C 258.419 -1.42939 1.49171 0
M  V30 2738 C 258.827 -1.88874 0.111048 0
M  V30 2739 O 258.17 -1.60656 -0.8908 0
M  V30 2740 C 258.232 -2.69151 2.38324 0
M  V30 2741 C 257.896 -2.45097 3.85715 0
M  V30 2742 C 258.893 -2.07747 4.76589 0
M  V30 2743 C 256.578 -2.59141 4.30292 0
M  V30 2744 C 258.572 -1.8475 6.10038 0
M  V30 2745 C 256.259 -2.35759 5.63792 0
M  V30 2746 C 257.257 -1.9862 6.53482 0
M  V30 2747 O 256.945 -1.75489 7.84512 0
M  V30 2748 H 256.677 -0.445271 0.508635 0
M  V30 2749 H 259.231 -0.79621 1.8934 0
M  V30 2750 H 257.461 -3.3506 1.93058 0
M  V30 2751 H 259.15 -3.31123 2.3476 0
M  V30 2752 H 259.916 -1.96465 4.43426 0
M  V30 2753 H 255.795 -2.87022 3.60749 0
M  V30 2754 H 259.339 -1.55686 6.80006 0
M  V30 2755 H 255.236 -2.46646 5.9652 0
M  V30 2756 H 256.004 -1.89841 7.9618 0
M  V30 2757 N 258.668 -1.30515 -0.883378 0
M  V30 2758 C 259.914 -1.19607 -1.63774 0
M  V30 2759 C 260.247 0.248314 -1.92606 0
M  V30 2760 O 259.522 1.17742 -1.54813 0
M  V30 2761 C 259.805 -2.02669 -2.97653 0
M  V30 2762 C 259.658 -3.55335 -2.75784 0
M  V30 2763 C 260.977 -1.86573 -3.98596 0
M  V30 2764 H 258.096 -0.435856 -0.594305 0
M  V30 2765 H 260.738 -1.60165 -1.02212 0
M  V30 2766 H 258.888 -1.68208 -3.50197 0
M  V30 2767 H 260.56 -3.99863 -2.30016 0
M  V30 2768 H 258.803 -3.79438 -2.1026 0
M  V30 2769 H 259.474 -4.08745 -3.70988 0
M  V30 2770 H 261.95 -2.16703 -3.55217 0
M  V30 2771 H 260.826 -2.47014 -4.90179 0
M  V30 2772 H 261.087 -0.825321 -4.34328 0
M  V30 2773 N 260.146 1.09593 -1.13257 0
M  V30 2774 C 261.562 1.33775 -0.870423 0
M  V30 2775 C 261.762 1.95327 0.494926 0
M  V30 2776 O 260.818 2.19853 1.2418 0
M  V30 2777 C 262.131 2.25106 -1.99369 0
M  V30 2778 C 263.679 2.3862 -2.02558 0
M  V30 2779 C 264.154 3.33285 -3.14142 0
M  V30 2780 N 265.645 3.40857 -3.13641 0
M  V30 2781 C 266.38 4.14101 -3.96621 0
M  V30 2782 N 265.876 4.90157 -4.8961 0
M  V30 2783 N 267.669 4.09808 -3.84726 0
M  V30 2784 H 259.82 0.680136 -2.01216 0
M  V30 2785 H 262.083 0.362133 -0.876107 0
M  V30 2786 H 261.789 1.87103 -2.97801 0
M  V30 2787 H 261.663 3.25481 -1.90635 0
M  V30 2788 H 264.05 2.75887 -1.0474 0
M  V30 2789 H 264.131 1.38028 -2.15364 0
M  V30 2790 H 263.775 2.96741 -4.12198 0
M  V30 2791 H 263.705 4.33776 -2.98574 0
M  V30 2792 H 266.196 2.86624 -2.46282 0
M  V30 2793 H 266.509 5.4347 -5.49418 0
M  V30 2794 H 264.854 4.89251 -4.93617 0
M  V30 2795 H 268.045 3.4949 -3.11408 0
M  V30 2796 H 268.218 4.66629 -4.49623 0
M  V30 2797 N 261.624 0.925811 1.2754 0
M  V30 2798 C 262.557 0.367836 2.25216 0
M  V30 2799 C 263.535 -0.534738 1.53556 0
M  V30 2800 O 264.719 -0.475672 1.824 0
M  V30 2801 C 261.846 -0.47298 3.35381 0
M  V30 2802 C 260.892 0.365898 4.24928 0
M  V30 2803 S 261.725 1.78025 5.05042 0
M  V30 2804 C 262.881 0.947068 6.18693 0
M  V30 2805 H 263.114 1.19568 2.72196 0
M  V30 2806 H 260.647 0.727867 1.36167 0
M  V30 2807 H 262.605 -0.952242 3.99303 0
M  V30 2808 H 261.266 -1.27533 2.87044 0
M  V30 2809 H 260.459 -0.277582 5.03235 0
M  V30 2810 H 260.061 0.779261 3.65792 0
M  V30 2811 H 262.353 0.182201 6.77255 0
M  V30 2812 H 263.296 1.70309 6.87314 0
M  V30 2813 H 263.704 0.489913 5.6237 0
M  V30 2814 N 263.102 -1.41638 0.69111 0
M  V30 2815 C 264.05 -2.32597 0.0115199 0
M  V30 2816 C 265.044 -1.5072 -0.773296 0
M  V30 2817 O 266.25 -1.66685 -0.67942 0
M  V30 2818 H 262.625 -0.751849 -0.0150746 0
M  V30 2819 H 264.596 -2.87593 0.795791 0
M  V30 2820 C 263.345 -3.35467 -0.914172 0
M  V30 2821 H 262.668 -3.9852 -0.319687 0
M  V30 2822 H 264.108 -4.01662 -1.35808 0
M  V30 2823 C 262.567 -2.69004 -2.02826 0
M  V30 2824 O 263.097 -2.53444 -3.11655 0
M  V30 2825 N 261.303 -2.2777 -1.80469 0
M  V30 2826 H 260.85 -2.40626 -0.919615 0
M  V30 2827 H 260.808 -1.83635 -2.55197 0
M  V30 2828 N 264.58 -0.43555 -1.51462 0
M  V30 2829 C 265.828 0.131254 -2.01673 0
M  V30 2830 C 266.149 1.43368 -1.32177 0
M  V30 2831 O 265.419 1.90524 -0.455769 0
M  V30 2832 H 263.999 0.0514954 -0.745223 0
M  V30 2833 H 266.661 -0.577847 -1.86137 0
M  V30 2834 H 265.757 0.308446 -3.10572 0
M  V30 2835 N 266.058 1.56714 -0.166846 0
M  V30 2836 C 267.283 2.01557 0.488833 0
M  V30 2837 C 267.708 1.0463 1.56314 0
M  V30 2838 O 267.066 0.0251304 1.81283 0
M  V30 2839 C 267.114 3.4503 1.04818 0
M  V30 2840 O 266.218 3.51163 2.16236 0
M  V30 2841 H 265.559 0.653516 0.117526 0
M  V30 2842 H 268.089 2.02818 -0.269421 0
M  V30 2843 H 268.099 3.84243 1.37191 0
M  V30 2844 H 266.774 4.15077 0.261572 0
M  V30 2845 H 265.351 3.23807 1.84942 0
M  V30 2846 N 267.536 -0.106894 1.57237 0
M  V30 2847 C 268.446 -1.14911 2.0453 0
M  V30 2848 C 269.462 -1.44592 0.96795 0
M  V30 2849 O 270.638 -1.55468 1.2803 0
M  V30 2850 C 267.703 -2.45272 2.45036 0
M  V30 2851 C 266.764 -2.22879 3.66911 0
M  V30 2852 C 265.997 -3.47024 4.05475 0
M  V30 2853 O 266.22 -4.54804 3.44252 0
M  V30 2854 O 265.154 -3.3731 4.98504 0
M  V30 2855 H 268.98 -0.777461 2.9358 0
M  V30 2856 H 266.565 -0.318563 1.45964 0
M  V30 2857 H 268.447 -3.22055 2.71769 0
M  V30 2858 H 267.122 -2.81886 1.59129 0
M  V30 2859 H 266.029 -1.43915 3.45311 0
M  V30 2860 H 267.362 -1.91163 4.53561 0
M  V30 2861 N 269.014 -1.53014 -0.377408 0
M  V30 2862 C 270.263 -1.67845 -1.11853 0
M  V30 2863 C 270.576 -0.430625 -1.90801 0
M  V30 2864 O 271.782 -0.459261 -2.67587 0
M  V30 2865 C 270.238 -2.96668 -2.03756 0
M  V30 2866 C 269.846 -4.28671 -1.30175 0
M  V30 2867 C 271.59 -3.20865 -2.77932 0
M  V30 2868 C 269.497 -5.48591 -2.20911 0
M  V30 2869 H 268.427 -0.625343 -0.421263 0
M  V30 2870 H 271.078 -1.79514 -0.380409 0
M  V30 2871 H 269.46 -2.78773 -2.8125 0
M  V30 2872 H 270.634 -4.57157 -0.578259 0
M  V30 2873 H 268.949 -4.10825 -0.679108 0
M  V30 2874 H 271.546 -4.07642 -3.46024 0
M  V30 2875 H 271.889 -2.36424 -3.4265 0
M  V30 2876 H 272.422 -3.39379 -2.07525 0
M  V30 2877 H 269.161 -6.35474 -1.6079 0
M  V30 2878 H 268.681 -5.244 -2.91144 0
M  V30 2879 H 270.36 -5.8292 -2.80736 0
M  V30 2880 N 270.492 0.636531 -1.44174 0
M  V30 2881 C 271.424 1.7618 -1.46606 0
M  V30 2882 C 272.437 1.58768 -0.360091 0
M  V30 2883 O 273.626 1.67181 -0.625518 0
M  V30 2884 C 270.726 3.13833 -1.27915 0
M  V30 2885 C 269.899 3.57753 -2.51658 0
M  V30 2886 C 268.958 4.74265 -2.27945 0
M  V30 2887 O 267.984 4.82852 -3.01401 0
M  V30 2888 N 269.186 5.65604 -1.30662 0
M  V30 2889 H 271.951 1.74567 -2.43612 0
M  V30 2890 H 269.512 0.820924 -1.39544 0
M  V30 2891 H 271.504 3.8949 -1.09907 0
M  V30 2892 H 270.074 3.10121 -0.39293 0
M  V30 2893 H 269.294 2.72362 -2.84978 0
M  V30 2894 H 270.582 3.83847 -3.33974 0
M  V30 2895 H 269.98 5.61354 -0.699844 0
M  V30 2896 H 268.537 6.40913 -1.18634 0
M  V30 2897 N 271.97 1.30982 0.876444 0
M  V30 2898 C 273.2 1.23063 1.65949 0
M  V30 2899 C 273.608 -0.207537 1.88058 0
M  V30 2900 O 272.951 -1.14781 1.43426 0
M  V30 2901 C 273.013 1.89768 3.05333 0
M  V30 2902 C 272.677 3.39106 3.0636 0
M  V30 2903 C 273.674 4.3496 2.84791 0
M  V30 2904 C 271.359 3.80693 3.27686 0
M  V30 2905 C 273.353 5.70375 2.84519 0
M  V30 2906 C 271.04 5.16223 3.27043 0
M  V30 2907 C 272.038 6.10875 3.05485 0
M  V30 2908 O 271.726 7.43928 3.04674 0
M  V30 2909 H 271.458 0.426685 0.524324 0
M  V30 2910 H 274.012 1.7329 1.10271 0
M  V30 2911 H 272.242 1.34082 3.6271 0
M  V30 2912 H 273.931 1.75853 3.65829 0
M  V30 2913 H 274.697 4.0416 2.68103 0
M  V30 2914 H 270.576 3.07457 3.43499 0
M  V30 2915 H 274.12 6.44228 2.67611 0
M  V30 2916 H 270.017 5.4666 3.43269 0
M  V30 2917 H 270.785 7.53022 3.2078 0
M  V30 2918 N 273.449 -1.08991 1.13837 0
M  V30 2919 C 274.396 -2.15748 0.819835 0
M  V30 2920 C 275.366 -1.64636 -0.220026 0
M  V30 2921 O 276.551 -1.90582 -0.0912757 0
M  V30 2922 C 273.691 -3.4382 0.296913 0
M  V30 2923 C 272.804 -4.0881 1.39636 0
M  V30 2924 C 271.939 -5.24655 0.831314 0
M  V30 2925 C 270.978 -5.81575 1.90886 0
M  V30 2926 N 270.115 -6.88774 1.36142 0
M  V30 2927 H 274.955 -2.42338 1.73426 0
M  V30 2928 H 272.492 -1.18935 0.865613 0
M  V30 2929 H 274.45 -4.17193 -0.0244339 0
M  V30 2930 H 273.08 -3.17535 -0.580628 0
M  V30 2931 H 272.132 -3.33258 1.83422 0
M  V30 2932 H 273.444 -4.47141 2.21058 0
M  V30 2933 H 272.598 -6.04942 0.461515 0
M  V30 2934 H 271.337 -4.87698 -0.013932 0
M  V30 2935 H 270.342 -4.99946 2.28767 0
M  V30 2936 H 271.567 -6.20592 2.75758 0
M  V30 2937 H 269.513 -6.53788 0.538254 0
M  V30 2938 H 269.43 -7.25898 2.11208 0
M  V30 2939 H 270.698 -7.72806 1.01933 0
M  V30 2940 N 274.927 -0.932562 -1.27047 0
M  V30 2941 C 276.176 -0.571351 -1.93439 0
M  V30 2942 C 276.489 0.892467 -1.74053 0
M  V30 2943 O 277.695 1.36267 -2.34826 0
M  V30 2944 C 276.151 -0.97106 -3.46552 0
M  V30 2945 C 275.759 -2.4559 -3.74686 0
M  V30 2946 C 277.503 -0.681333 -4.18997 0
M  V30 2947 C 275.41 -2.79475 -5.21198 0
M  V30 2948 H 274.34 -0.209966 -0.724176 0
M  V30 2949 H 276.991 -1.13403 -1.44263 0
M  V30 2950 H 275.373 -0.336983 -3.94564 0
M  V30 2951 H 276.547 -3.13829 -3.37414 0
M  V30 2952 H 274.862 -2.71802 -3.15456 0
M  V30 2953 H 277.459 -0.910939 -5.26883 0
M  V30 2954 H 277.802 0.381628 -4.14547 0
M  V30 2955 H 278.335 -1.27473 -3.76823 0
M  V30 2956 H 275.074 -3.847 -5.30741 0
M  V30 2957 H 274.594 -2.1589 -5.596 0
M  V30 2958 H 276.273 -2.67478 -5.89122 0
M  V30 2959 N 276.405 1.4127 -0.698611 0
M  V30 2960 C 277.335 2.33447 -0.049629 0
M  V30 2961 C 278.316 1.51982 0.763898 0
M  V30 2962 O 279.501 1.80509 0.716257 0
M  V30 2963 C 276.631 3.35828 0.885267 0
M  V30 2964 C 275.585 4.27627 0.178613 0
M  V30 2965 C 274.911 5.20406 1.22807 0
M  V30 2966 C 276.211 5.13459 -0.956933 0
M  V30 2967 H 277.905 2.87966 -0.81951 0
M  V30 2968 H 275.451 1.38461 -0.395538 0
M  V30 2969 H 277.404 3.9924 1.34854 0
M  V30 2970 H 276.128 2.79666 1.68685 0
M  V30 2971 H 274.787 3.65643 -0.26466 0
M  V30 2972 H 274.435 4.60558 2.02226 0
M  V30 2973 H 274.135 5.82661 0.760239 0
M  V30 2974 H 275.659 5.86695 1.69179 0
M  V30 2975 H 277.073 5.70421 -0.573805 0
M  V30 2976 H 275.47 5.8467 -1.35205 0
M  V30 2977 H 276.54 4.50443 -1.79524 0
M  V30 2978 N 277.883 0.443576 1.51229 0
M  V30 2979 C 279.111 -0.11929 2.06556 0
M  V30 2980 C 279.526 -1.35921 1.31038 0
M  V30 2981 O 278.883 -1.78675 0.371704 0
M  V30 2982 C 278.934 -0.435228 3.5887 0
M  V30 2983 O 278.655 0.755486 4.31537 0
M  V30 2984 C 280.156 -1.04808 4.30732 0
M  V30 2985 H 277.376 -0.0051584 0.67098 0
M  V30 2986 H 279.92 0.624453 1.94733 0
M  V30 2987 H 278.075 -1.12887 3.70588 0
M  V30 2988 H 278.489 0.483491 5.22267 0
M  V30 2989 H 279.963 -1.2191 5.3837 0
M  V30 2990 H 280.44 -2.03081 3.89429 0
M  V30 2991 H 281.046 -0.393637 4.23474 0
M  V30 2992 N 279.361 -1.56624 0.175154 0
M  V30 2993 C 280.293 -2.15333 -0.785128 0
M  V30 2994 C 281.306 -1.1099 -1.19101 0
M  V30 2995 O 282.495 -1.38162 -1.13019 0
M  V30 2996 C 279.595 -2.68427 -2.06882 0
M  V30 2997 C 278.768 -3.97466 -1.8259 0
M  V30 2998 C 277.827 -4.35585 -2.95215 0
M  V30 2999 O 276.853 -5.03389 -2.65684 0
M  V30 3000 N 278.055 -3.97457 -4.23094 0
M  V30 3001 H 280.82 -2.98359 -0.283187 0
M  V30 3002 H 278.381 -1.61898 -0.00749817 0
M  V30 3003 H 280.373 -2.90924 -2.81328 0
M  V30 3004 H 278.943 -1.89968 -2.48256 0
M  V30 3005 H 278.163 -3.83307 -0.920287 0
M  V30 3006 H 279.451 -4.81736 -1.63733 0
M  V30 3007 H 278.849 -3.42878 -4.49945 0
M  V30 3008 H 277.406 -4.24947 -4.9423 0
M  V30 3009 N 280.839 0.0985539 -1.57292 0
M  V30 3010 C 281.786 1.11981 -2.01814 0
M  V30 3011 C 282.756 1.39999 -0.89384 0
M  V30 3012 O 283.941 1.5152 -1.15958 0
M  V30 3013 C 281.081 2.43577 -2.44467 0
M  V30 3014 C 280.194 2.2232 -3.70402 0
M  V30 3015 C 279.329 3.4729 -4.01949 0
M  V30 3016 C 278.368 3.2128 -5.21005 0
M  V30 3017 N 277.505 4.38507 -5.48321 0
M  V30 3018 H 282.345 0.733149 -2.88841 0
M  V30 3019 H 279.882 0.350482 -1.42864 0
M  V30 3020 H 281.84 3.20373 -2.6724 0
M  V30 3021 H 280.47 2.80097 -1.60455 0
M  V30 3022 H 279.522 1.36343 -3.55126 0
M  V30 3023 H 280.834 1.99089 -4.57345 0
M  V30 3024 H 279.988 4.32495 -4.25479 0
M  V30 3025 H 278.727 3.73572 -3.13521 0
M  V30 3026 H 277.732 2.34468 -4.97298 0
M  V30 3027 H 278.957 2.96348 -6.11028 0
M  V30 3028 H 276.903 4.64871 -4.62851 0
M  V30 3029 H 276.82 4.18455 -6.29628 0
M  V30 3030 H 278.088 5.24787 -5.76385 0
M  V30 3031 N 282.317 1.53212 0.369288 0
M  V30 3032 C 283.227 1.82342 1.47609 0
M  V30 3033 C 284.243 0.711532 1.58787 0
M  V30 3034 O 285.419 1.0012 1.74751 0
M  V30 3035 C 282.484 2.00393 2.8292 0
M  V30 3036 C 281.545 3.24297 2.81301 0
M  V30 3037 C 280.778 3.41478 4.10157 0
M  V30 3038 O 281.001 2.63033 5.06132 0
M  V30 3039 O 279.935 4.34817 4.16194 0
M  V30 3040 H 283.761 2.76366 1.25918 0
M  V30 3041 H 281.346 1.38547 0.559034 0
M  V30 3042 H 283.228 2.13859 3.63101 0
M  V30 3043 H 281.903 1.09559 3.04596 0
M  V30 3044 H 280.81 3.16257 1.99831 0
M  V30 3045 H 282.143 4.15041 2.64578 0
M  V30 3046 N 283.795 -0.628877 1.44509 0
M  V30 3047 C 285.072 -1.38733 1.37886 0
M  V30 3048 C 285.452 -2.11065 0.0387008 0
M  V30 3049 O 284.8 -2.06476 -0.97878 0
M  V30 3050 C 285.01 -2.35188 2.57852 0
M  V30 3051 C 286.358 -2.9845 3.02014 0
M  V30 3052 O 287.382 -2.45513 2.58073 0
M  V30 3053 O 286.241 -3.94487 3.78209 0
M  V30 3054 H 283.335 -0.621015 0.54614 0
M  V30 3055 H 285.881 -0.653744 1.56602 0
M  V30 3056 H 284.653 -1.80855 3.46998 0
M  V30 3057 H 284.276 -3.1596 2.4136 0
M  V30 3058 N 285.273 -1.31445 -0.869486 0
M  V30 3059 C 286.55 -1.11795 -1.60503 0
M  V30 3060 C 286.93 0.327168 -2.08549 0
M  V30 3061 O 286.278 1.32135 -1.8642 0
M  V30 3062 C 286.488 -2.13258 -2.76265 0
M  V30 3063 C 287.836 -2.45805 -3.46215 0
M  V30 3064 O 288.86 -2.11688 -2.86473 0
M  V30 3065 O 287.719 -3.04228 -4.5399 0
M  V30 3066 H 284.813 -0.430421 -0.706163 0
M  V30 3067 H 287.359 -1.42925 -0.914907 0
M  V30 3068 H 286.131 -3.10461 -2.3818 0
M  V30 3069 H 285.754 -1.83035 -3.52964 0
M  V30 3070 N 286.751 1.08385 -1.14413 0
M  V30 3071 C 287.991 1.8238 -0.922868 0
M  V30 3072 C 288.355 1.84225 0.540842 0
M  V30 3073 O 289.556 2.53985 0.880058 0
M  V30 3074 C 287.827 3.24048 -1.50757 0
M  V30 3075 S 289.386 4.14917 -1.4279 0
M  V30 3076 H 286.204 0.628524 -0.332384 0
M  V30 3077 H 288.806 1.30278 -1.45766 0
M  V30 3078 H 287.51 3.20288 -2.56601 0
M  V30 3079 H 287.041 3.81224 -0.971178 0
M  V30 3080 H 289.056 4.94473 -0.413582 0
M  V30 3081 N 288.23 0.939286 1.26551 0
M  V30 3082 C 289.507 0.5038 1.89001 0
M  V30 3083 C 289.887 -1.01854 1.84903 0
M  V30 3084 O 289.235 -1.87773 1.30206 0
M  V30 3085 C 289.445 1.063 3.32417 0
M  V30 3086 C 290.793 1.13051 4.09273 0
M  V30 3087 O 291.817 1.01345 3.41479 0
M  V30 3088 O 290.676 1.31233 5.30509 0
M  V30 3089 H 287.77 0.163897 0.810597 0
M  V30 3090 H 290.316 1.03173 1.34735 0
M  V30 3091 H 289.088 2.10665 3.29752 0
M  V30 3092 H 288.711 0.517408 3.94219 0
M  V30 3093 N 289.708 -1.40897 0.706093 0
M  V30 3094 C 290.618 -2.3455 0.0482286 0
M  V30 3095 C 291.634 -1.56796 -0.754396 0
M  V30 3096 O 292.81 -1.89228 -0.689538 0
M  V30 3097 C 289.875 -3.35625 -0.869303 0
M  V30 3098 C 288.936 -4.29261 -0.0576994 0
M  V30 3099 C 288.169 -5.25508 -0.931531 0
M  V30 3100 O 288.392 -5.27472 -2.17092 0
M  V30 3101 O 287.326 -6.00727 -0.375587 0
M  V30 3102 H 291.152 -2.92407 0.820476 0
M  V30 3103 H 288.737 -1.4193 0.4665 0
M  V30 3104 H 290.619 -3.97635 -1.39514 0
M  V30 3105 H 289.294 -2.80196 -1.62086 0
M  V30 3106 H 288.201 -3.70566 0.512988 0
M  V30 3107 H 289.534 -4.87817 0.655426 0
M  V30 3108 N 291.186 -0.45159 -1.50991 0
M  V30 3109 C 292.435 0.111653 -2.01391 0
M  V30 3110 C 292.748 1.42529 -1.33959 0
M  V30 3111 O 293.954 2.07232 -1.75405 0
M  V30 3112 C 292.41 0.249514 -3.59034 0
M  V30 3113 C 292.018 -1.05453 -4.35412 0
M  V30 3114 C 293.762 0.765762 -4.17536 0
M  V30 3115 C 291.669 -0.881529 -5.84793 0
M  V30 3116 H 290.599 0.0455022 -0.752626 0
M  V30 3117 H 293.25 -0.583524 -1.73975 0
M  V30 3118 H 291.632 1.00803 -3.82955 0
M  V30 3119 H 292.806 -1.82248 -4.23229 0
M  V30 3120 H 291.121 -1.50039 -3.88429 0
M  V30 3121 H 293.718 0.911913 -5.26866 0
M  V30 3122 H 294.061 1.75201 -3.77638 0
M  V30 3123 H 294.594 0.0651744 -3.97747 0
M  V30 3124 H 291.333 -1.84057 -6.29129 0
M  V30 3125 H 290.853 -0.153625 -5.99603 0
M  V30 3126 H 292.532 -0.540363 -6.4474 0
M  V30 3127 N 292.664 1.56529 -0.183458 0
M  V30 3128 C 293.596 2.15747 0.773697 0
M  V30 3129 C 294.609 1.1162 1.1851 0
M  V30 3130 O 295.798 1.3876 1.12285 0
M  V30 3131 C 292.898 2.6952 2.05456 0
M  V30 3132 C 292.071 3.98429 1.8048 0
M  V30 3133 C 291.13 4.37145 2.92901 0
M  V30 3134 O 290.156 5.04791 2.6301 0
M  V30 3135 N 291.358 3.99695 4.2098 0
M  V30 3136 H 294.123 2.98505 0.26736 0
M  V30 3137 H 291.684 1.619 -0.0010878 0
M  V30 3138 H 293.676 2.92412 2.79781 0
M  V30 3139 H 292.246 1.91282 2.47245 0
M  V30 3140 H 291.466 3.8379 0.899947 0
M  V30 3141 H 292.754 4.82597 1.61175 0
M  V30 3142 H 292.152 3.4526 4.48121 0
M  V30 3143 H 290.709 4.27562 4.9197 0
M  V30 3144 N 294.142 -0.090211 1.57342 0
M  V30 3145 C 295.382 -0.798365 1.88163 0
M  V30 3146 C 295.746 -1.75662 0.775046 0
M  V30 3147 O 296.947 -2.50849 0.965816 0
M  V30 3148 C 295.218 -1.50376 3.24225 0
M  V30 3149 S 296.777 -2.24952 3.76752 0
M  V30 3150 H 293.595 -0.265883 0.659414 0
M  V30 3151 H 296.197 -0.055264 1.95422 0
M  V30 3152 H 294.901 -0.792286 4.0268 0
M  V30 3153 H 294.432 -2.28666 3.20118 0
M  V30 3154 H 296.447 -3.51173 3.5056 0
M  V30 3155 N 295.62 -1.53406 -0.361157 0
M  V30 3156 C 296.552 -1.76446 -1.46286 0
M  V30 3157 C 297.565 -0.645322 -1.49464 0
M  V30 3158 O 298.754 -0.921681 -1.52864 0
M  V30 3159 C 295.854 -1.83332 -2.85031 0
M  V30 3160 C 295.027 -3.13033 -3.05498 0
M  V30 3161 C 294.086 -3.11104 -4.24383 0
M  V30 3162 O 293.112 -3.84888 -4.19344 0
M  V30 3163 N 294.314 -2.32234 -5.32022 0
M  V30 3164 H 297.079 -2.71508 -1.26899 0
M  V30 3165 H 294.64 -1.52238 -0.550915 0
M  V30 3166 H 296.632 -1.79514 -3.62708 0
M  V30 3167 H 295.202 -0.955342 -2.97644 0
M  V30 3168 H 294.422 -3.30119 -2.15442 0
M  V30 3169 H 295.71 -3.9874 -3.16044 0
M  V30 3170 H 295.108 -1.71807 -5.38979 0
M  V30 3171 H 293.665 -2.3423 -6.08259 0
M  V30 3172 N 297.098 0.621204 -1.44841 0
M  V30 3173 C 298.028 1.74366 -1.55303 0
M  V30 3174 C 299.009 1.65199 -0.405385 0
M  V30 3175 O 300.194 1.83807 -0.626787 0
M  V30 3176 C 297.324 3.12931 -1.50637 0
M  V30 3177 C 296.278 3.36896 -2.63979 0
M  V30 3178 C 295.604 4.75594 -2.44366 0
M  V30 3179 C 296.904 3.28483 -4.06074 0
M  V30 3180 H 298.598 1.65867 -2.49256 0
M  V30 3181 H 296.144 0.796558 -1.19962 0
M  V30 3182 H 298.097 3.9124 -1.56555 0
M  V30 3183 H 296.821 3.22237 -0.532057 0
M  V30 3184 H 295.48 2.60972 -2.57467 0
M  V30 3185 H 295.128 4.81616 -1.45105 0
M  V30 3186 H 294.828 4.92586 -3.20364 0
M  V30 3187 H 296.352 5.5612 -2.52117 0
M  V30 3188 H 297.766 3.96684 -4.13902 0
M  V30 3189 H 296.163 3.57008 -4.82354 0
M  V30 3190 H 297.233 2.26133 -4.28943 0
M  V30 3191 N 298.576 1.31904 0.862503 0
M  V30 3192 C 299.539 1.20131 1.95195 0
M  V30 3193 C 300.539 0.126409 1.60302 0
M  V30 3194 O 301.729 0.376234 1.70089 0
M  V30 3195 C 298.861 0.845691 3.30244 0
M  V30 3196 H 300.054 2.16943 2.07064 0
M  V30 3197 H 297.607 1.15622 1.05172 0
M  V30 3198 H 298.342 -0.120957 3.24074 0
M  V30 3199 H 298.127 1.62276 3.56944 0
M  V30 3200 H 299.617 0.787418 4.10109 0
M  V30 3201 N 300.054 -1.07777 1.14986 0
M  V30 3202 C 301.303 -1.79669 0.916617 0
M  V30 3203 C 301.616 -1.87474 -0.557917 0
M  V30 3204 O 302.822 -2.55845 -0.908617 0
M  V30 3205 C 301.278 -3.22848 1.59051 0
M  V30 3206 C 300.886 -3.23257 3.10176 0
M  V30 3207 C 302.63 -3.99379 1.43864 0
M  V30 3208 C 300.537 -4.61063 3.70372 0
M  V30 3209 H 299.467 -0.673349 0.33929 0
M  V30 3210 H 302.118 -1.21003 1.37951 0
M  V30 3211 H 300.5 -3.8168 1.0553 0
M  V30 3212 H 301.674 -2.74095 3.70417 0
M  V30 3213 H 299.989 -2.60222 3.25074 0
M  V30 3214 H 302.586 -5.0122 1.86232 0
M  V30 3215 H 302.929 -4.14511 0.385564 0
M  V30 3216 H 303.462 -3.47032 1.94457 0
M  V30 3217 H 300.201 -4.51135 4.7556 0
M  V30 3218 H 299.721 -5.1048 3.14913 0
M  V30 3219 H 301.4 -5.30034 3.71043 0
M  V30 3220 N 301.532 -0.945985 -1.26051 0
M  V30 3221 C 302.943 -0.638096 -1.75457 0
M  V30 3222 C 303.294 0.846672 -1.76991 0
M  V30 3223 O 302.419 1.66262 -1.38513 0
M  V30 3224 C 303.014 -1.15157 -3.18629 0
M  V30 3225 C 301.573 -0.894004 -3.65629 0
M  V30 3226 C 300.72 -1.29967 -2.44957 0
M  V30 3227 H 303.671 -1.12376 -1.1206 0
M  V30 3228 H 303.692 -0.507615 -3.77099 0
M  V30 3229 H 303.204 -2.23222 -3.1748 0
M  V30 3230 H 301.305 0.172057 -3.72203 0
M  V30 3231 H 301.418 -1.52439 -4.54202 0
M  V30 3232 H 299.782 -0.718078 -2.44368 0
M  V30 3233 H 300.565 -2.38935 -2.46505 0
M  V30 3234 N 303.011 1.40521 -0.713556 0
M  V30 3235 C 304.257 2.01221 -0.252564 0
M  V30 3236 C 304.59 1.56444 1.1506 0
M  V30 3237 O 303.865 0.783597 1.78017 0
M  V30 3238 C 304.148 3.58582 -0.330332 0
M  V30 3239 C 304.001 4.13437 -1.77173 0
M  V30 3240 C 305.32 4.39079 0.299641 0
M  V30 3241 H 302.439 0.731077 -0.0932471 0
M  V30 3242 H 305.081 1.67026 -0.905673 0
M  V30 3243 H 303.231 3.87844 0.225737 0
M  V30 3244 H 304.903 3.9498 -2.38303 0
M  V30 3245 H 303.146 3.67801 -2.3001 0
M  V30 3246 H 303.817 5.22597 -1.77755 0
M  V30 3247 H 306.293 4.15735 -0.174139 0
M  V30 3248 H 305.169 5.4848 0.214771 0
M  V30 3249 H 305.43 4.19915 1.38288 0
M  V30 3250 N 304.489 0.459591 1.5075 0
M  V30 3251 C 305.714 -0.0996819 2.0716 0
M  V30 3252 C 306.139 -1.33761 1.32249 0
M  V30 3253 O 305.497 -1.77551 0.366786 0
M  V30 3254 C 305.545 -0.378226 3.58611 0
M  V30 3255 O 304.649 -1.46081 3.85661 0
M  V30 3256 H 303.99 0.00791392 0.663953 0
M  V30 3257 H 306.52 0.647329 1.9409 0
M  V30 3258 H 306.53 -0.622135 4.03229 0
M  V30 3259 H 305.205 0.526439 4.12555 0
M  V30 3260 H 303.782 -1.20511 3.5289 0
M  V30 3261 N 305.967 -1.56429 0.191757 0
M  V30 3262 C 307.192 -2.02309 -0.456706 0
M  V30 3263 C 307.617 -1.07103 -1.5463 0
M  V30 3264 O 306.975 -0.0539677 -1.8122 0
M  V30 3265 C 307.023 -3.46654 -0.993159 0
M  V30 3266 O 306.127 -3.54559 -2.10622 0
M  V30 3267 H 305.468 -0.655303 -0.107114 0
M  V30 3268 H 307.998 -2.02364 0.301653 0
M  V30 3269 H 308.008 -3.86377 -1.31061 0
M  V30 3270 H 306.683 -4.1544 -0.195504 0
M  V30 3271 H 305.26 -3.26708 -1.79767 0
M  V30 3272 N 307.445 0.0818655 -1.57387 0
M  V30 3273 C 308.375 1.09885 -2.06028 0
M  V30 3274 C 309.356 1.4098 -0.951774 0
M  V30 3275 O 310.541 1.50781 -1.22387 0
M  V30 3276 C 307.671 2.4151 -2.4958 0
M  V30 3277 C 306.625 2.24792 -3.64215 0
M  V30 3278 C 305.951 3.61712 -3.93787 0
M  V30 3279 C 307.251 1.67749 -4.94629 0
M  V30 3280 H 308.945 0.694128 -2.91243 0
M  V30 3281 H 306.491 0.332448 -1.4011 0
M  V30 3282 H 308.444 3.12939 -2.82219 0
M  V30 3283 H 307.168 2.83943 -1.61381 0
M  V30 3284 H 305.827 1.55807 -3.31843 0
M  V30 3285 H 305.475 4.01697 -3.02735 0
M  V30 3286 H 305.175 3.51368 -4.70971 0
M  V30 3287 H 306.699 4.34587 -4.28913 0
M  V30 3288 H 308.113 2.29032 -5.25564 0
M  V30 3289 H 306.51 1.68128 -5.76067 0
M  V30 3290 H 307.58 0.638059 -4.80684 0
M  V30 3291 N 308.923 1.53595 0.353017 0
M  V30 3292 C 309.871 1.81605 1.45335 0
M  V30 3293 C 310.865 0.685923 1.54892 0
M  V30 3294 O 312.071 0.869095 1.57628 0
M  V30 3295 H 308.446 0.575204 0.484401 0
M  V30 3296 H 310.417 2.73679 1.18921 0
M  V30 3297 C 309.166 2.03406 2.81995 0
M  V30 3298 H 308.489 2.89814 2.75405 0
M  V30 3299 H 309.929 2.26975 3.58132 0
M  V30 3300 C 308.388 0.816794 3.26849 0
M  V30 3301 O 308.918 0.0115856 4.01698 0
M  V30 3302 N 307.124 0.636682 2.8354 0
M  V30 3303 H 306.671 1.2931 2.22793 0
M  V30 3304 H 306.629 -0.176336 3.13905 0
M  V30 3305 N 310.401 -0.613514 1.45168 0
M  V30 3306 C 311.626 -1.40437 1.52618 0
M  V30 3307 C 312.051 -1.87438 0.157707 0
M  V30 3308 O 311.409 -1.59791 -0.856537 0
M  V30 3309 C 311.457 -2.58894 2.51011 0
M  V30 3310 O 310.561 -3.59326 2.02382 0
M  V30 3311 H 309.902 -0.419506 0.514695 0
M  V30 3312 H 312.432 -0.747215 1.90467 0
M  V30 3313 H 312.442 -3.06214 2.69624 0
M  V30 3314 H 311.117 -2.24032 3.50403 0
M  V30 3315 H 309.694 -3.18695 1.93618 0
M  V30 3316 N 311.879 -1.3236 -0.855495 0
M  V30 3317 C 312.811 -1.17052 -1.97057 0
M  V30 3318 C 313.824 -0.10574 -1.62456 0
M  V30 3319 O 315.013 -0.354619 -1.74942 0
M  V30 3320 C 312.113 -0.769305 -3.30053 0
M  V30 3321 C 311.286 -1.9222 -3.929 0
M  V30 3322 C 310.345 -1.50466 -5.04228 0
M  V30 3323 O 309.371 -2.21655 -5.24269 0
M  V30 3324 N 310.573 -0.400209 -5.79119 0
M  V30 3325 H 313.338 -2.13103 -2.1073 0
M  V30 3326 H 310.899 -1.24885 -1.0303 0
M  V30 3327 H 312.891 -0.472407 -4.01933 0
M  V30 3328 H 311.461 0.100025 -3.1244 0
M  V30 3329 H 310.681 -2.38563 -3.13817 0
M  V30 3330 H 311.969 -2.69403 -4.31624 0
M  V30 3331 H 311.367 0.192319 -5.65373 0
M  V30 3332 H 309.924 -0.162912 -6.51596 0
M  V30 3333 N 313.357 1.07166 -1.15556 0
M  V30 3334 C 314.587 1.83248 -0.954133 0
M  V30 3335 C 314.995 1.82449 0.500911 0
M  V30 3336 O 314.338 1.23575 1.35923 0
M  V30 3337 C 314.4 3.31393 -1.39351 0
M  V30 3338 C 314.064 3.5591 -2.86666 0
M  V30 3339 C 315.061 3.49695 -3.8472 0
M  V30 3340 C 312.746 3.83515 -3.24379 0
M  V30 3341 C 314.74 3.70737 -5.18491 0
M  V30 3342 C 312.427 4.04209 -4.58321 0
M  V30 3343 C 313.425 3.97815 -5.55186 0
M  V30 3344 O 313.113 4.17954 -6.86709 0
M  V30 3345 H 312.845 0.584941 -0.338851 0
M  V30 3346 H 315.399 1.36169 -1.53777 0
M  V30 3347 H 313.629 3.79292 -0.75329 0
M  V30 3348 H 315.318 3.88945 -1.16089 0
M  V30 3349 H 316.084 3.28368 -3.56931 0
M  V30 3350 H 311.963 3.87605 -2.49567 0
M  V30 3351 H 315.507 3.65663 -5.94085 0
M  V30 3352 H 311.404 4.25023 -4.85825 0
M  V30 3353 H 312.172 4.35291 -6.93155 0
M  V30 3354 N 314.835 0.952656 1.25548 0
M  V30 3355 C 316.075 0.614013 1.9496 0
M  V30 3356 C 316.439 -0.833215 1.72978 0
M  V30 3357 O 317.64 -1.28135 2.36294 0
M  V30 3358 C 315.911 0.960562 3.4425 0
M  V30 3359 S 317.47 0.734195 4.32614 0
M  V30 3360 H 314.288 0.225754 0.674208 0
M  V30 3361 H 316.89 1.22641 1.52248 0
M  V30 3362 H 315.594 2.01103 3.57751 0
M  V30 3363 H 315.125 0.338336 3.91942 0
M  V30 3364 H 317.14 -0.395995 4.94617 0
M  V30 3365 N 316.313 -1.40141 0.720998 0
M  V30 3366 C 317.559 -2.01084 0.263231 0
M  V30 3367 C 317.892 -1.57052 -1.14229 0
M  V30 3368 O 317.167 -0.793027 -1.77599 0
M  V30 3369 C 317.45 -3.58401 0.349344 0
M  V30 3370 C 317.303 -4.12491 1.79363 0
M  V30 3371 C 318.622 -4.39231 -0.276351 0
M  V30 3372 H 315.741 -0.730572 0.0971228 0
M  V30 3373 H 318.383 -1.66543 0.914518 0
M  V30 3374 H 316.533 -3.87958 -0.205165 0
M  V30 3375 H 318.205 -3.93711 2.40394 0
M  V30 3376 H 316.448 -3.66576 2.31958 0
M  V30 3377 H 317.119 -5.21646 1.80524 0
M  V30 3378 H 319.595 -4.15637 0.196184 0
M  V30 3379 H 318.471 -5.48586 -0.185681 0
M  V30 3380 H 318.732 -4.20643 -1.36059 0
M  V30 3381 N 317.792 -0.46758 -1.50504 0
M  V30 3382 C 319.017 0.0886943 -2.0721 0
M  V30 3383 C 319.442 1.33057 -1.32956 0
M  V30 3384 O 318.8 1.77354 -0.376197 0
M  V30 3385 C 318.848 0.359202 -3.58806 0
M  V30 3386 O 317.952 1.44034 -3.8643 0
M  V30 3387 H 317.293 -0.0114349 -0.663902 0
M  V30 3388 H 319.823 -0.657613 -1.93744 0
M  V30 3389 H 319.833 0.600742 -4.03553 0
M  V30 3390 H 318.508 -0.548311 -4.1227 0
M  V30 3391 H 317.085 1.18638 -3.53524 0
M  V30 3392 N 319.27 1.56325 -0.20005 0
M  V30 3393 C 320.233 2.18084 0.705132 0
M  V30 3394 C 321.233 1.13666 1.1374 0
M  V30 3395 O 322.423 1.39023 1.04968 0
M  V30 3396 C 319.555 2.78689 1.96329 0
M  V30 3397 H 320.748 2.99435 0.167023 0
M  V30 3398 H 318.301 1.56221 0.0495725 0
M  V30 3399 H 319.036 2.0115 2.5438 0
M  V30 3400 H 318.821 3.55133 1.66202 0
M  V30 3401 H 320.311 3.26096 2.60866 0
M  V30 3402 N 320.748 -0.0735177 1.57428 0
M  V30 3403 C 321.658 -1.10547 2.06922 0
M  V30 3404 C 322.674 -1.42506 0.998402 0
M  V30 3405 O 323.85 -1.52717 1.31299 0
M  V30 3406 C 320.915 -2.40019 2.50184 0
M  V30 3407 C 319.976 -2.15046 3.71556 0
M  V30 3408 C 319.209 -3.38345 4.12745 0
M  V30 3409 O 319.432 -4.47399 3.53822 0
M  V30 3410 O 318.366 -3.2666 5.05546 0
M  V30 3411 H 322.192 -0.715013 2.95163 0
M  V30 3412 H 319.777 -0.287531 1.46607 0
M  V30 3413 H 321.659 -3.16218 2.78539 0
M  V30 3414 H 320.334 -2.78447 1.65072 0
M  V30 3415 H 319.241 -1.36558 3.48285 0
M  V30 3416 H 320.574 -1.81499 4.57514 0
M  V30 3417 N 322.226 -1.5378 -0.344866 0
M  V30 3418 C 323.474 -1.70625 -1.08311 0
M  V30 3419 C 323.795 -0.471447 -1.89215 0
M  V30 3420 O 323.065 0.514616 -1.8902 0
M  V30 3421 H 321.645 -0.629058 -0.402859 0
M  V30 3422 H 324.307 -1.9103 -0.386459 0
M  V30 3423 H 323.403 -2.57656 -1.76124 0
M  V30 3424 N 323.704 0.605807 -1.45491 0
M  V30 3425 C 324.95 1.36679 -1.49823 0
M  V30 3426 C 325.283 1.93693 -0.140175 0
M  V30 3427 O 324.558 1.75158 0.845581 0
M  V30 3428 C 324.841 2.51337 -2.57879 0
M  V30 3429 C 324.694 1.99508 -4.03134 0
M  V30 3430 C 326.013 3.53463 -2.62205 0
M  V30 3431 H 323.132 0.495617 -0.545466 0
M  V30 3432 H 325.774 0.682732 -1.7731 0
M  V30 3433 H 323.924 3.09691 -2.34571 0
M  V30 3434 H 325.596 1.45789 -4.37656 0
M  V30 3435 H 323.839 1.30496 -4.13707 0
M  V30 3436 H 324.51 2.82169 -4.74431 0
M  V30 3437 H 326.986 3.04953 -2.83095 0
M  V30 3438 H 325.862 4.31178 -3.39672 0
M  V30 3439 H 326.123 4.09197 -1.67363 0
M  V30 3440 N 325.182 1.32811 0.848464 0
M  V30 3441 C 326.112 1.24882 1.97299 0
M  V30 3442 C 327.093 0.131357 1.69592 0
M  V30 3443 O 328.278 0.319553 1.91553 0
M  V30 3444 C 325.408 0.97746 3.33261 0
M  V30 3445 C 324.362 2.05682 3.75338 0
M  V30 3446 C 323.688 1.63777 5.09 0
M  V30 3447 C 324.988 3.47254 3.90144 0
M  V30 3448 H 326.682 2.18966 2.04191 0
M  V30 3449 H 324.228 1.05413 0.981029 0
M  V30 3450 H 326.181 0.908513 4.1149 0
M  V30 3451 H 324.905 0.000980011 3.266 0
M  V30 3452 H 323.564 2.11603 2.99366 0
M  V30 3453 H 323.212 0.648569 4.98801 0
M  V30 3454 H 322.912 2.36 5.38124 0
M  V30 3455 H 324.436 1.5833 5.89715 0
M  V30 3456 H 325.85 3.43888 4.58709 0
M  V30 3457 H 324.247 4.1788 4.30693 0
M  V30 3458 H 325.317 3.86462 2.92874 0
M  V30 3459 N 326.66 -1.06551 1.16123 0
M  V30 3460 C 327.61 -2.12209 0.833736 0
M  V30 3461 C 328.594 -1.59825 -0.185656 0
M  V30 3462 O 329.786 -1.76994 0.0147906 0
M  V30 3463 C 326.915 -3.41674 0.333697 0
M  V30 3464 C 326.001 -4.00892 1.38372 0
M  V30 3465 N 326.392 -4.34256 2.59337 0
M  V30 3466 C 324.69 -4.28463 1.23836 0
M  V30 3467 C 325.391 -4.81291 3.26701 0
M  V30 3468 N 324.367 -4.80565 2.54083 0
M  V30 3469 H 328.169 -2.35849 1.75364 0
M  V30 3470 H 325.683 -1.24068 1.04789 0
M  V30 3471 H 327.68 -4.16822 0.0806918 0
M  V30 3472 H 326.34 -3.19475 -0.58017 0
M  V30 3473 H 327.351 -4.24687 2.96415 0
M  V30 3474 H 324.028 -4.15721 0.38504 0
M  V30 3475 H 325.418 -5.16332 4.29943 0
M  V30 3476 N 328.138 -0.959301 -1.25041 0
M  V30 3477 C 329.384 -0.617525 -1.9317 0
M  V30 3478 C 329.717 0.843981 -1.74902 0
M  V30 3479 O 328.992 1.60615 -1.09696 0
M  V30 3480 C 329.275 -0.982736 -3.46431 0
M  V30 3481 C 329.128 -2.50032 -3.73904 0
M  V30 3482 C 330.447 -0.511176 -4.37121 0
M  V30 3483 H 327.566 -0.22582 -0.701552 0
M  V30 3484 H 330.208 -1.19679 -1.4757 0
M  V30 3485 H 328.358 -0.489806 -3.854 0
M  V30 3486 H 330.03 -3.06737 -3.44544 0
M  V30 3487 H 328.273 -2.93598 -3.19348 0
M  V30 3488 H 328.944 -2.70635 -4.81103 0
M  V30 3489 H 331.42 -0.934075 -4.0548 0
M  V30 3490 H 330.296 -0.795361 -5.43107 0
M  V30 3491 H 330.557 0.588834 -4.38161 0
M  V30 3492 N 329.616 1.39756 -0.72842 0
M  V30 3493 C 330.862 2.01425 -0.282761 0
M  V30 3494 C 331.217 1.56754 1.11561 0
M  V30 3495 O 330.51 0.783482 1.74849 0
M  V30 3496 C 330.704 3.56002 -0.315776 0
M  V30 3497 C 330.533 4.1568 -1.71582 0
M  V30 3498 C 329.303 4.48555 -2.32651 0
M  V30 3499 C 331.501 4.39667 -2.66829 0
M  V30 3500 N 329.483 4.93698 -3.64877 0
M  V30 3501 C 330.854 4.86942 -3.8378 0
M  V30 3502 C 332.909 4.21724 -2.64675 0
M  V30 3503 C 331.612 5.18158 -4.98904 0
M  V30 3504 C 333.638 4.54049 -3.78937 0
M  V30 3505 C 333 5.01525 -4.94623 0
M  V30 3506 H 329.099 0.76756 -0.149583 0
M  V30 3507 H 331.683 1.69784 -0.952976 0
M  V30 3508 H 329.854 3.87046 0.324057 0
M  V30 3509 H 331.586 4.0443 0.147808 0
M  V30 3510 H 328.341 4.36128 -1.84633 0
M  V30 3511 H 328.765 5.20635 -4.32744 0
M  V30 3512 H 333.407 3.84228 -1.76433 0
M  V30 3513 H 331.125 5.54562 -5.87781 0
M  V30 3514 H 334.711 4.41795 -3.78561 0
M  V30 3515 H 333.591 5.26065 -5.81572 0
M  V30 3516 N 331.094 0.475555 1.50254 0
M  V30 3517 C 332.342 -0.077738 2.0195 0
M  V30 3518 C 332.663 -1.39813 1.35931 0
M  V30 3519 O 331.933 -1.89249 0.506123 0
M  V30 3520 H 330.513 -0.031719 0.746326 0
M  V30 3521 H 333.175 0.626995 1.84539 0
M  V30 3522 H 332.271 -0.225995 3.11281 0
M  V30 3523 N 332.573 -1.56217 0.208337 0
M  V30 3524 C 333.819 -1.98242 -0.427552 0
M  V30 3525 C 334.152 -1.09554 -1.60348 0
M  V30 3526 O 333.427 -0.15035 -1.93918 0
M  V30 3527 C 333.71 -3.4931 -0.874907 0
M  V30 3528 C 333.563 -4.48773 0.303751 0
M  V30 3529 C 334.882 -4.04424 -1.73577 0
M  V30 3530 H 332.001 -0.720744 -0.153936 0
M  V30 3531 H 334.643 -1.87586 0.30192 0
M  V30 3532 H 332.793 -3.58522 -1.49648 0
M  V30 3533 H 334.465 -4.51586 0.941682 0
M  V30 3534 H 332.708 -4.23194 0.953375 0
M  V30 3535 H 333.379 -5.51976 -0.0519883 0
M  V30 3536 H 335.855 -3.98075 -1.21143 0
M  V30 3537 H 334.731 -5.1047 -2.01771 0
M  V30 3538 H 334.992 -3.50494 -2.69456 0
M  V30 3539 N 334.051 0.0651679 -1.57465 0
M  V30 3540 C 335.279 0.775808 -1.91804 0
M  V30 3541 C 335.694 1.70782 -0.804916 0
M  V30 3542 O 335.051 1.81153 0.221311 0
M  V30 3543 C 335.102 1.56381 -3.25925 0
M  V30 3544 O 334.823 0.669248 -4.32958 0
M  V30 3545 C 336.324 2.37485 -3.7432 0
M  V30 3546 H 333.544 0.2202 -0.63384 0
M  V30 3547 H 336.088 0.0334587 -2.04473 0
M  V30 3548 H 334.243 2.25837 -3.14764 0
M  V30 3549 H 334.657 1.21801 -5.10162 0
M  V30 3550 H 336.131 2.88223 -4.70778 0
M  V30 3551 H 336.608 3.17307 -3.03666 0
M  V30 3552 H 337.214 1.73173 -3.88447 0
M  V30 3553 N 335.529 1.53961 0.336706 0
M  V30 3554 C 336.757 1.75483 1.09605 0
M  V30 3555 C 337.172 0.4972 1.82136 0
M  V30 3556 O 336.529 -0.53149 1.74589 0
M  V30 3557 C 336.58 2.93943 2.10428 0
M  V30 3558 O 336.301 4.14842 1.40846 0
M  V30 3559 C 337.802 3.27571 2.98684 0
M  V30 3560 H 335.022 0.586166 0.326574 0
M  V30 3561 H 337.566 2.00808 0.38683 0
M  V30 3562 H 335.721 2.70929 2.76905 0
M  V30 3563 H 336.135 4.81383 2.08255 0
M  V30 3564 H 337.609 4.13791 3.6535 0
M  V30 3565 H 338.086 2.44168 3.65074 0
M  V30 3566 H 338.692 3.52615 2.37787 0
M  V30 3567 N 337.007 -0.598083 1.45811 0
M  V30 3568 C 337.917 -1.73632 1.57763 0
M  V30 3569 C 338.933 -1.67763 0.461676 0
M  V30 3570 O 340.109 -1.87949 0.723685 0
M  V30 3571 C 337.174 -3.10114 1.55018 0
M  V30 3572 C 336.235 -3.27364 2.77726 0
M  V30 3573 C 335.468 -4.57334 2.75102 0
M  V30 3574 O 335.691 -5.40258 1.8297 0
M  V30 3575 O 334.625 -4.77502 3.66437 0
M  V30 3576 H 338.451 -1.66498 2.53992 0
M  V30 3577 H 336.036 -0.763308 1.28429 0
M  V30 3578 H 337.918 -3.9141 1.56129 0
M  V30 3579 H 336.593 -3.17718 0.619431 0
M  V30 3580 H 335.5 -2.45619 2.82174 0
M  V30 3581 H 336.833 -3.24641 3.69958 0
M  V30 3582 N 338.485 -1.33259 -0.841409 0
M  V30 3583 C 339.432 -1.23302 -1.95103 0
M  V30 3584 C 340.402 -0.112204 -1.65721 0
M  V30 3585 O 341.587 -0.290038 -1.88583 0
M  V30 3586 C 338.727 -0.975583 -3.31023 0
M  V30 3587 C 337.84 -2.18243 -3.72819 0
M  V30 3588 C 336.975 -1.85936 -4.97595 0
M  V30 3589 C 336.014 -3.02866 -5.3192 0
M  V30 3590 N 335.151 -2.70565 -6.47873 0
M  V30 3591 H 339.991 -2.18207 -2.02952 0
M  V30 3592 H 337.528 -1.0851 -0.993173 0
M  V30 3593 H 339.486 -0.80677 -4.09325 0
M  V30 3594 H 338.116 -0.0632755 -3.22738 0
M  V30 3595 H 337.168 -2.46107 -2.90061 0
M  V30 3596 H 338.48 -3.05666 -3.94169 0
M  V30 3597 H 337.634 -1.65684 -5.83638 0
M  V30 3598 H 336.373 -0.957452 -4.78209 0
M  V30 3599 H 335.378 -3.23736 -4.44382 0
M  V30 3600 H 336.603 -3.93809 -5.53255 0
M  V30 3601 H 334.549 -1.8293 -6.29978 0
M  V30 3602 H 334.466 -3.51519 -6.69306 0
M  V30 3603 H 335.734 -2.53774 -7.37034 0
M  V30 3604 N 339.963 1.05934 -1.16686 0
M  V30 3605 C 341.188 1.83029 -0.975455 0
M  V30 3606 C 341.613 1.82096 0.471452 0
M  V30 3607 O 340.971 1.22443 1.33706 0
M  V30 3608 C 341.019 3.27372 -1.51195 0
M  V30 3609 O 340.123 4.06054 -0.720701 0
M  V30 3610 H 339.464 0.566194 -0.346872 0
M  V30 3611 H 341.994 1.33541 -1.55009 0
M  V30 3612 H 342.004 3.78186 -1.53099 0
M  V30 3613 H 340.679 3.27366 -2.56523 0
M  V30 3614 H 339.256 3.64812 -0.772458 0
M  V30 3615 N 341.441 0.965919 1.2453 0
M  V30 3616 C 342.388 0.49402 2.25451 0
M  V30 3617 C 343.358 -0.45948 1.59618 0
M  V30 3618 O 344.543 -0.370238 1.87173 0
M  V30 3619 C 341.683 -0.211359 3.44452 0
M  V30 3620 C 340.796 0.7807 4.24887 0
M  V30 3621 C 339.931 0.0516105 5.31175 0
M  V30 3622 C 338.97 1.03385 6.03306 0
M  V30 3623 N 338.107 0.334887 7.01301 0
M  V30 3624 H 342.947 1.35946 2.65184 0
M  V30 3625 H 340.484 0.681515 1.3036 0
M  V30 3626 H 342.442 -0.637 4.12308 0
M  V30 3627 H 341.072 -1.04077 3.05562 0
M  V30 3628 H 340.124 1.32479 3.56586 0
M  V30 3629 H 341.436 1.52978 4.74762 0
M  V30 3630 H 340.59 -0.432114 6.05159 0
M  V30 3631 H 339.329 -0.730179 4.82203 0
M  V30 3632 H 338.334 1.52847 5.28127 0
M  V30 3633 H 339.559 1.81606 6.54367 0
M  V30 3634 H 337.505 -0.427959 6.54603 0
M  V30 3635 H 337.422 1.02287 7.49048 0
M  V30 3636 H 338.69 -0.126928 7.79397 0
M  V30 3637 N 342.919 -1.39368 0.735821 0
M  V30 3638 C 343.829 -2.34395 0.0979693 0
M  V30 3639 C 344.845 -1.58361 -0.720968 0
M  V30 3640 O 346.021 -1.90648 -0.649245 0
M  V30 3641 C 343.086 -3.37393 -0.797916 0
M  V30 3642 C 342.147 -4.29287 0.0333662 0
M  V30 3643 C 341.38 -5.27365 -0.819854 0
M  V30 3644 O 341.603 -5.31959 -2.05855 0
M  V30 3645 O 340.537 -6.01389 -0.248079 0
M  V30 3646 H 344.363 -2.90601 0.882315 0
M  V30 3647 H 341.948 -1.40909 0.4965 0
M  V30 3648 H 343.83 -4.00505 -1.31048 0
M  V30 3649 H 342.505 -2.83571 -1.56106 0
M  V30 3650 H 341.412 -3.69395 0.591475 0
M  V30 3651 H 342.745 -4.86317 0.758752 0
M  V30 3652 N 344.397 -0.483516 -1.5 0
M  V30 3653 C 345.643 0.0672592 -2.02688 0
M  V30 3654 C 345.976 1.38247 -1.36387 0
M  V30 3655 O 345.251 1.88131 -0.493675 0
M  V30 3656 C 345.534 0.238109 -3.59312 0
M  V30 3657 C 345.387 -1.099 -4.36168 0
M  V30 3658 C 346.706 0.986916 -4.28892 0
M  V30 3659 H 343.825 0.0229696 -0.736642 0
M  V30 3660 H 346.467 -0.631527 -1.79197 0
M  V30 3661 H 344.617 0.8333 -3.79458 0
M  V30 3662 H 346.289 -1.73172 -4.27562 0
M  V30 3663 H 344.532 -1.69261 -3.99416 0
M  V30 3664 H 345.203 -0.932954 -5.44059 0
M  V30 3665 H 347.679 0.482302 -4.13295 0
M  V30 3666 H 346.555 1.07527 -5.38265 0
M  V30 3667 H 346.816 2.0265 -3.92919 0
M  V30 3668 N 345.875 1.56104 -0.216619 0
M  V30 3669 C 347.115 2.00074 0.418322 0
M  V30 3670 C 347.479 1.10098 1.57297 0
M  V30 3671 O 348.68 1.43393 2.27359 0
M  V30 3672 C 346.951 3.47231 0.846477 0
M  V30 3673 S 348.51 4.13223 1.47622 0
M  V30 3674 H 345.328 0.698457 0.132962 0
M  V30 3675 H 347.93 1.92784 -0.324748 0
M  V30 3676 H 346.634 4.104 -0.0036319 0
M  V30 3677 H 346.165 3.58384 1.62248 0
M  V30 3678 H 348.18 4.12005 2.76526 0
M  V30 3679 N 347.353 -0.0568162 1.57498 0
M  V30 3680 C 348.602 -0.752001 1.87157 0
M  V30 3681 C 348.915 -1.77978 0.811375 0
M  V30 3682 O 350.121 -2.52559 0.996293 0
M  V30 3683 C 348.577 -1.38844 3.3204 0
M  V30 3684 C 348.185 -0.398456 4.46225 0
M  V30 3685 C 349.929 -2.06512 3.70882 0
M  V30 3686 C 347.836 -1.04166 5.82154 0
M  V30 3687 H 346.766 -0.28461 0.698222 0
M  V30 3688 H 349.417 -0.00561272 1.83499 0
M  V30 3689 H 347.799 -2.1836 3.30356 0
M  V30 3690 H 348.973 0.367977 4.59328 0
M  V30 3691 H 347.288 0.174592 4.16034 0
M  V30 3692 H 349.885 -2.55437 4.6974 0
M  V30 3693 H 350.228 -2.87117 3.01445 0
M  V30 3694 H 350.761 -1.33808 3.7462 0
M  V30 3695 H 347.5 -0.275614 6.5492 0
M  V30 3696 H 347.02 -1.7786 5.72823 0
M  V30 3697 H 348.699 -1.55715 6.27982 0
M  V30 3698 N 348.832 -1.54138 -0.328536 0
M  V30 3699 C 350.06 -1.76062 -1.08673 0
M  V30 3700 C 350.475 -0.506852 -1.81869 0
M  V30 3701 O 349.832 0.522223 -1.74869 0
M  V30 3702 C 349.883 -2.95054 -2.08866 0
M  V30 3703 O 349.604 -4.15583 -1.38644 0
M  V30 3704 C 351.105 -3.2915 -2.96943 0
M  V30 3705 H 348.325 -0.587889 -0.323461 0
M  V30 3706 H 350.869 -2.0101 -0.376175 0
M  V30 3707 H 349.024 -2.72394 -2.75464 0
M  V30 3708 H 349.438 -4.82481 -2.05699 0
M  V30 3709 H 350.912 -4.15723 -3.63151 0
M  V30 3710 H 351.389 -2.461 -3.63774 0
M  V30 3711 H 351.995 -3.53871 -2.35914 0
M  V30 3712 N 350.31 0.590341 -1.46126 0
M  V30 3713 C 351.559 1.34499 -1.50309 0
M  V30 3714 C 351.872 1.94977 -0.156021 0
M  V30 3715 O 353.078 2.71395 -0.0756037 0
M  V30 3716 C 351.534 2.43723 -2.64815 0
M  V30 3717 C 351.142 1.89582 -4.0591 0
M  V30 3718 C 352.886 3.20579 -2.78262 0
M  V30 3719 C 350.793 2.9639 -5.11769 0
M  V30 3720 H 349.723 0.505593 -0.559368 0
M  V30 3721 H 352.374 0.630848 -1.72315 0
M  V30 3722 H 350.756 3.17902 -2.36124 0
M  V30 3723 H 351.93 1.21997 -4.44357 0
M  V30 3724 H 350.245 1.25418 -3.97063 0
M  V30 3725 H 352.842 4.00276 -3.54519 0
M  V30 3726 H 353.185 3.72684 -1.85505 0
M  V30 3727 H 353.718 2.53505 -3.06562 0
M  V30 3728 H 350.457 2.49181 -6.06291 0
M  V30 3729 H 349.977 3.62487 -4.77873 0
M  V30 3730 H 351.656 3.60474 -5.37278 0
M  V30 3731 N 351.788 1.33704 0.83433 0
M  V30 3732 C 353.035 1.25417 1.58987 0
M  V30 3733 C 353.363 -0.178869 1.93676 0
M  V30 3734 O 352.618 -1.13723 1.59265 0
M  V30 3735 C 352.917 2.07926 2.90692 0
M  V30 3736 C 352.583 3.57066 2.75345 0
M  V30 3737 C 351.245 3.97724 2.70867 0
M  V30 3738 C 353.597 4.51817 2.59828 0
M  V30 3739 C 350.925 5.31344 2.48778 0
M  V30 3740 C 353.277 5.85604 2.39272 0
M  V30 3741 C 351.941 6.25439 2.33199 0
M  V30 3742 H 351.211 0.458934 0.581774 0
M  V30 3743 H 353.858 1.65335 0.966261 0
M  V30 3744 H 352.163 1.608 3.57282 0
M  V30 3745 H 353.86 1.98868 3.48213 0
M  V30 3746 H 350.45 3.24785 2.79665 0
M  V30 3747 H 354.634 4.21311 2.62319 0
M  V30 3748 H 349.89 5.61241 2.42526 0
M  V30 3749 H 354.064 6.58623 2.2625 0
M  V30 3750 H 351.691 7.28914 2.15843 0
M  V30 3751 N 353.266 -1.05314 1.17247 0
M  V30 3752 C 354.214 -2.15137 0.884238 0
M  V30 3753 C 355.208 -1.68729 -0.15063 0
M  V30 3754 O 356.414 -1.8 -0.00366673 0
M  V30 3755 H 352.789 -0.702471 0.2684 0
M  V30 3756 H 354.76 -2.36652 1.81764 0
M  V30 3757 C 353.509 -3.45243 0.412659 0
M  V30 3758 H 352.832 -3.81352 1.20043 0
M  V30 3759 H 354.272 -4.23263 0.249858 0
M  V30 3760 C 352.731 -3.25487 -0.86948 0
M  V30 3761 O 353.261 -3.51938 -1.93655 0
M  V30 3762 N 351.467 -2.78875 -0.817147 0
M  V30 3763 H 351.014 -2.57549 0.0514211 0
M  V30 3764 H 350.972 -2.66036 -1.67547 0
M  V30 3765 N 354.744 -0.972509 -1.24016 0
M  V30 3766 C 355.969 -0.654417 -1.96805 0
M  V30 3767 C 356.394 0.770398 -1.716 0
M  V30 3768 O 355.752 1.52361 -0.982647 0
M  V30 3769 C 355.8 -0.941031 -3.48105 0
M  V30 3770 O 354.904 -0.0289472 -4.1239 0
M  V30 3771 H 354.245 -0.24692 -0.616382 0
M  V30 3772 H 356.775 -1.30396 -1.57664 0
M  V30 3773 H 356.785 -0.87452 -3.98517 0
M  V30 3774 H 355.46 -1.97939 -3.65777 0
M  V30 3775 H 354.037 -0.149192 -3.72601 0
M  V30 3776 N 356.222 1.38976 -0.743202 0
M  V30 3777 C 357.447 2.05161 -0.303936 0
M  V30 3778 C 357.872 1.55677 1.05576 0
M  V30 3779 O 357.23 0.704131 1.67068 0
M  V30 3780 C 357.278 3.59138 -0.324373 0
M  V30 3781 O 356.382 4.06668 0.685204 0
M  V30 3782 H 355.723 0.649815 -0.136518 0
M  V30 3783 H 358.253 1.77852 -1.01142 0
M  V30 3784 H 358.263 4.07639 -0.171618 0
M  V30 3785 H 356.938 3.94515 -1.31647 0
M  V30 3786 H 355.515 3.69561 0.497913 0
M  V30 3787 N 357.7 0.491464 1.49741 0
M  V30 3788 C 358.949 -0.0582189 2.01616 0
M  V30 3789 C 359.262 -1.38927 1.3769 0
M  V30 3790 O 360.468 -2.02509 1.80838 0
M  V30 3791 C 358.924 -0.154235 3.59569 0
M  V30 3792 C 358.532 1.1696 4.32463 0
M  V30 3793 C 360.276 -0.65479 4.1942 0
M  V30 3794 C 358.183 1.03627 5.8225 0
M  V30 3795 H 357.113 -0.0255317 0.753568 0
M  V30 3796 H 359.764 0.629445 1.72367 0
M  V30 3797 H 358.146 -0.906138 3.85493 0
M  V30 3798 H 359.32 1.93405 4.18248 0
M  V30 3799 H 357.635 1.60285 3.84315 0
M  V30 3800 H 360.232 -0.771903 5.29099 0
M  V30 3801 H 360.575 -1.65127 3.8215 0
M  V30 3802 H 361.108 0.040304 3.9778 0
M  V30 3803 H 357.847 2.00672 6.24028 0
M  V30 3804 H 357.367 0.312546 5.98985 0
M  V30 3805 H 359.046 0.711114 6.4308 0
M  V30 3806 N 359.178 -1.55987 0.224894 0
M  V30 3807 C 360.125 -2.20436 -0.68385 0
M  V30 3808 C 361.095 -1.16102 -1.18783 0
M  V30 3809 O 362.28 -1.4447 -1.24632 0
M  V30 3810 C 359.42 -2.89076 -1.88491 0
M  V30 3811 C 358.533 -4.08012 -1.41951 0
M  V30 3812 C 357.668 -4.64426 -2.5784 0
M  V30 3813 C 356.707 -5.75656 -2.08053 0
M  V30 3814 N 355.844 -6.26347 -3.17227 0
M  V30 3815 H 360.684 -2.97727 -0.12754 0
M  V30 3816 H 358.221 -1.47011 -0.0511978 0
M  V30 3817 H 360.179 -3.27059 -2.59014 0
M  V30 3818 H 358.809 -2.14298 -2.41405 0
M  V30 3819 H 357.861 -3.75492 -0.609095 0
M  V30 3820 H 359.173 -4.88375 -1.01447 0
M  V30 3821 H 358.327 -5.04869 -3.3644 0
M  V30 3822 H 357.066 -3.83233 -3.01635 0
M  V30 3823 H 356.071 -5.34712 -1.27916 0
M  V30 3824 H 357.296 -6.58686 -1.65255 0
M  V30 3825 H 355.242 -5.48067 -3.60497 0
M  V30 3826 H 355.159 -7.01843 -2.80986 0
M  V30 3827 H 356.427 -6.71447 -3.95953 0
M  V30 3828 N 360.656 0.0484629 -1.57525 0
M  V30 3829 C 361.904 0.741657 -1.88 0
M  V30 3830 C 362.225 1.76918 -0.820054 0
M  V30 3831 O 361.495 1.95335 0.148661 0
M  V30 3832 H 360.075 0.276908 -0.69378 0
M  V30 3833 H 362.737 0.019013 -1.94891 0
M  V30 3834 H 361.833 1.24336 -2.86264 0
M  V30 3835 N 362.134 1.5431 0.320358 0
M  V30 3836 C 363.359 1.76954 1.08175 0
M  V30 3837 C 363.784 0.518193 1.80821 0
M  V30 3838 O 363.142 -0.530411 1.73368 0
M  V30 3839 C 363.19 2.96451 2.05303 0
M  V30 3840 O 362.294 2.68221 3.13259 0
M  V30 3841 H 361.635 0.586275 0.311733 0
M  V30 3842 H 364.165 2.01342 0.363676 0
M  V30 3843 H 364.175 3.23887 2.48116 0
M  V30 3844 H 362.85 3.87196 1.51829 0
M  V30 3845 H 361.427 2.51744 2.75099 0
M  V30 3846 N 363.613 -0.582584 1.46437 0
M  V30 3847 C 364.543 -1.70187 1.59871 0
M  V30 3848 C 365.524 -1.64066 0.449042 0
M  V30 3849 O 366.709 -1.82081 0.6753 0
M  V30 3850 C 363.839 -3.08827 1.58881 0
M  V30 3851 C 362.793 -3.29779 2.72819 0
M  V30 3852 C 362.119 -4.68947 2.5689 0
M  V30 3853 C 363.419 -3.17601 4.1464 0
M  V30 3854 H 365.113 -1.592 2.53566 0
M  V30 3855 H 362.659 -0.764472 1.22032 0
M  V30 3856 H 364.612 -3.86951 1.66873 0
M  V30 3857 H 363.336 -3.20713 0.617306 0
M  V30 3858 H 361.995 -2.54054 2.64296 0
M  V30 3859 H 361.643 -4.77599 1.57823 0
M  V30 3860 H 361.343 -4.83919 3.33312 0
M  V30 3861 H 362.867 -5.4924 2.66773 0
M  V30 3862 H 364.281 -3.8557 4.24274 0
M  V30 3863 H 362.678 -3.44094 4.9165 0
M  V30 3864 H 363.748 -2.14681 4.34788 0
M  V30 3865 N 365.091 -1.34144 -0.827227 0
M  V30 3866 C 366.337 -1.27455 -1.58515 0
M  V30 3867 C 366.692 0.155271 -1.91772 0
M  V30 3868 O 365.985 1.10042 -1.56848 0
M  V30 3869 C 366.179 -2.09464 -2.89585 0
M  V30 3870 C 366.008 -3.60276 -2.69131 0
M  V30 3871 C 364.778 -4.29565 -2.66087 0
M  V30 3872 C 366.976 -4.54367 -2.40947 0
M  V30 3873 N 364.958 -5.66252 -2.37132 0
M  V30 3874 C 366.329 -5.79027 -2.21648 0
M  V30 3875 C 368.384 -4.43327 -2.26639 0
M  V30 3876 C 367.087 -6.93891 -1.89492 0
M  V30 3877 C 369.113 -5.58019 -1.95878 0
M  V30 3878 C 368.475 -6.81695 -1.774 0
M  V30 3879 H 364.574 -0.521614 -0.582617 0
M  V30 3880 H 367.158 -1.68811 -0.970105 0
M  V30 3881 H 365.329 -1.70411 -3.49019 0
M  V30 3882 H 367.061 -1.94453 -3.54923 0
M  V30 3883 H 363.816 -3.81959 -2.80008 0
M  V30 3884 H 364.24 -6.38338 -2.25507 0
M  V30 3885 H 368.882 -3.48333 -2.39633 0
M  V30 3886 H 366.6 -7.88871 -1.75236 0
M  V30 3887 H 370.186 -5.5142 -1.85546 0
M  V30 3888 H 369.066 -7.68942 -1.53941 0
M  V30 3889 N 366.569 1.04691 -1.17803 0
M  V30 3890 C 367.818 1.77176 -0.963931 0
M  V30 3891 C 368.131 1.88888 0.508015 0
M  V30 3892 O 369.337 2.58164 0.840465 0
M  V30 3893 C 367.793 3.18518 -1.67555 0
M  V30 3894 C 367.401 3.14919 -3.18637 0
M  V30 3895 C 369.145 3.95424 -1.54402 0
M  V30 3896 C 367.052 4.51081 -3.82466 0
M  V30 3897 H 365.982 0.664116 -0.357023 0
M  V30 3898 H 368.633 1.17303 -1.4111 0
M  V30 3899 H 367.015 3.78748 -1.15613 0
M  V30 3900 H 368.189 2.64178 -3.77554 0
M  V30 3901 H 366.504 2.51512 -3.31859 0
M  V30 3902 H 369.101 4.96106 -1.99456 0
M  V30 3903 H 369.444 4.13343 -0.495329 0
M  V30 3904 H 369.977 3.41754 -2.0359 0
M  V30 3905 H 366.716 4.38368 -4.87354 0
M  V30 3906 H 366.236 5.01951 -3.28337 0
M  V30 3907 H 367.915 5.2001 -3.84965 0
M  V30 3908 N 368.047 0.979072 1.23499 0
M  V30 3909 C 369.458 0.684391 1.73704 0
M  V30 3910 C 369.809 -0.799448 1.79174 0
M  V30 3911 O 368.934 -1.62531 1.42873 0
M  V30 3912 C 369.529 1.23564 3.15464 0
M  V30 3913 C 368.088 0.99063 3.6313 0
M  V30 3914 C 367.235 1.36416 2.41425 0
M  V30 3915 H 370.186 1.15307 1.09041 0
M  V30 3916 H 370.207 0.607417 3.7562 0
M  V30 3917 H 369.719 2.31561 3.1145 0
M  V30 3918 H 367.82 -0.0733136 3.72528 0
M  V30 3919 H 367.933 1.64427 4.5 0
M  V30 3920 H 366.297 0.782616 2.42378 0
M  V30 3921 H 367.08 2.45387 2.40083 0
M  V30 3922 N 369.525 -1.3858 0.750561 0
M  V30 3923 C 370.771 -2.00481 0.305825 0
M  V30 3924 C 371.104 -1.5944 -1.10872 0
M  V30 3925 O 370.379 -0.83052 -1.75877 0
M  V30 3926 C 370.662 -3.5758 0.425287 0
M  V30 3927 C 370.515 -4.08594 1.88072 0
M  V30 3928 C 371.834 -4.39719 -0.183122 0
M  V30 3929 H 368.953 -0.728348 0.112598 0
M  V30 3930 H 371.595 -1.64566 0.949638 0
M  V30 3931 H 369.745 -3.88306 -0.122828 0
M  V30 3932 H 371.417 -3.88523 2.48691 0
M  V30 3933 H 369.66 -3.61574 2.39681 0
M  V30 3934 H 370.331 -5.177 1.91548 0
M  V30 3935 H 372.807 -4.15128 0.284303 0
M  V30 3936 H 371.683 -5.48856 -0.0692757 0
M  V30 3937 H 371.944 -4.23434 -1.27106 0
M  V30 3938 N 371.003 -0.499398 -1.49478 0
M  V30 3939 C 372.249 0.0457576 -2.02748 0
M  V30 3940 C 372.582 1.36793 -1.37846 0
M  V30 3941 O 371.857 1.87596 -0.513601 0
M  V30 3942 C 372.14 0.199986 -3.59544 0
M  V30 3943 C 371.993 -1.1452 -4.34977 0
M  V30 3944 C 373.312 0.94137 -4.29914 0
M  V30 3945 H 370.431 0.0151552 -0.736844 0
M  V30 3946 H 373.073 -0.650498 -1.78518 0
M  V30 3947 H 371.223 0.793007 -3.8032 0
M  V30 3948 H 372.895 -1.77697 -4.25701 0
M  V30 3949 H 371.138 -1.73488 -3.97598 0
M  V30 3950 H 371.809 -0.990607 -5.43039 0
M  V30 3951 H 374.285 0.43844 -4.13784 0
M  V30 3952 H 373.161 1.01812 -5.39375 0
M  V30 3953 H 373.422 1.98471 -3.95046 0
M  V30 3954 N 372.481 1.55866 -0.233164 0
M  V30 3955 C 373.444 2.1953 0.658715 0
M  V30 3956 C 374.444 1.16053 1.11303 0
M  V30 3957 O 375.634 1.41218 1.01996 0
M  V30 3958 C 372.766 2.82791 1.90373 0
M  V30 3959 H 373.959 2.99721 0.10347 0
M  V30 3960 H 371.512 1.56291 0.0164245 0
M  V30 3961 H 372.247 2.06501 2.50056 0
M  V30 3962 H 372.032 3.58578 1.58632 0
M  V30 3963 H 373.522 3.31556 2.53891 0
M  V30 3964 N 373.959 -0.0401083 1.57549 0
M  V30 3965 C 374.922 -1.02871 2.04817 0
M  V30 3966 C 375.922 -1.29708 0.950388 0
M  V30 3967 O 377.112 -1.24897 1.21435 0
M  V30 3968 C 374.244 -2.36443 2.45576 0
M  V30 3969 H 375.437 -0.620631 2.93408 0
M  V30 3970 H 372.99 -0.286667 1.53649 0
M  V30 3971 H 373.725 -2.82021 1.60108 0
M  V30 3972 H 373.51 -2.18296 3.25713 0
M  V30 3973 H 375 -3.07441 2.82612 0
M  V30 3974 N 375.437 -1.54477 -0.31217 0
M  V30 3975 C 376.367 -1.87652 -1.38957 0
M  V30 3976 C 377.348 -0.734358 -1.53431 0
M  V30 3977 O 378.533 -0.98911 -1.67123 0
M  V30 3978 C 375.663 -2.11396 -2.75552 0
M  V30 3979 C 374.617 -3.27243 -2.75855 0
M  V30 3980 C 373.943 -3.36382 -4.15633 0
M  V30 3981 C 375.243 -4.64622 -2.38587 0
M  V30 3982 H 376.937 -2.77887 -1.11442 0
M  V30 3983 H 374.483 -1.33707 -0.534655 0
M  V30 3984 H 376.436 -2.33189 -3.51 0
M  V30 3985 H 375.16 -1.17921 -3.04569 0
M  V30 3986 H 373.819 -3.05356 -2.02863 0
M  V30 3987 H 373.467 -2.40445 -4.41809 0
M  V30 3988 H 373.167 -4.14249 -4.1674 0
M  V30 3989 H 374.691 -3.60422 -4.92877 0
M  V30 3990 H 376.105 -4.86219 -3.03749 0
M  V30 3991 H 374.502 -5.45121 -2.50925 0
M  V30 3992 H 375.572 -4.66097 -1.33723 0
M  V30 3993 N 376.915 0.57481 -1.46744 0
M  V30 3994 C 377.845 1.69337 -1.60771 0
M  V30 3995 C 378.826 1.63825 -0.457736 0
M  V30 3996 O 380.011 1.8172 -0.684947 0
M  V30 3997 C 377.141 3.0798 -1.60517 0
M  V30 3998 C 376.095 3.28327 -2.74564 0
M  V30 3999 C 375.421 4.67578 -2.59373 0
M  V30 4000 C 376.721 3.15398 -4.16319 0
M  V30 4001 H 378.415 1.57853 -2.54407 0
M  V30 4002 H 375.961 0.75799 -1.22436 0
M  V30 4003 H 377.914 3.86061 -1.68923 0
M  V30 4004 H 376.638 3.20381 -0.634305 0
M  V30 4005 H 375.297 2.52649 -2.65639 0
M  V30 4006 H 374.945 4.76755 -1.60353 0
M  V30 4007 H 374.645 4.82144 -3.35873 0
M  V30 4008 H 376.169 5.47817 -2.69682 0
M  V30 4009 H 377.583 3.83315 -4.26313 0
M  V30 4010 H 375.98 3.41482 -4.93468 0
M  V30 4011 H 377.05 2.12372 -4.3592 0
M  V30 4012 N 378.394 1.34581 0.820102 0
M  V30 4013 C 379.324 1.29038 1.94606 0
M  V30 4014 C 380.305 0.1673 1.69275 0
M  V30 4015 O 381.49 0.360112 1.90832 0
M  V30 4016 C 378.62 1.04793 3.31113 0
M  V30 4017 C 377.574 2.13597 3.70891 0
M  V30 4018 C 376.9 1.74537 5.05412 0
M  V30 4019 C 378.2 3.55451 3.8269 0
M  V30 4020 H 379.894 2.23248 1.99501 0
M  V30 4021 H 377.44 1.0747 0.958449 0
M  V30 4022 H 379.393 0.995592 4.0947 0
M  V30 4023 H 378.117 0.0702565 3.26524 0
M  V30 4024 H 376.776 2.17905 2.9481 0
M  V30 4025 H 376.424 0.754226 4.97313 0
M  V30 4026 H 376.124 2.47361 5.32997 0
M  V30 4027 H 377.648 1.70803 5.86224 0
M  V30 4028 H 379.062 3.5354 4.51312 0
M  V30 4029 H 377.459 4.26922 4.21732 0
M  V30 4030 H 378.529 3.92587 2.84611 0
M  V30 4031 N 379.872 -1.04064 1.18357 0
M  V30 4032 C 381.119 -1.77265 0.978947 0
M  V30 4033 C 381.447 -1.88189 -0.491428 0
M  V30 4034 O 380.702 -1.38653 -1.38108 0
M  V30 4035 C 381.001 -3.20634 1.57888 0
M  V30 4036 C 380.667 -3.29743 3.07539 0
M  V30 4037 C 379.329 -3.31937 3.48384 0
M  V30 4038 C 381.681 -3.29841 4.03552 0
M  V30 4039 C 379.009 -3.3187 4.83818 0
M  V30 4040 C 381.361 -3.31313 5.38901 0
M  V30 4041 C 380.025 -3.31799 5.79194 0
M  V30 4042 H 379.295 -0.648659 0.358222 0
M  V30 4043 H 381.942 -1.22225 1.47422 0
M  V30 4044 H 380.247 -3.78675 1.00561 0
M  V30 4045 H 381.944 -3.75917 1.39598 0
M  V30 4046 H 378.534 -3.28757 2.74986 0
M  V30 4047 H 382.718 -3.27337 3.73047 0
M  V30 4048 H 377.974 -3.30562 5.14333 0
M  V30 4049 H 382.148 -3.30338 6.13066 0
M  V30 4050 H 379.775 -3.315 6.84114 0
M  V30 4051 N 381.35 -0.985608 -1.22978 0
M  V30 4052 C 382.28 -0.549649 -2.26939 0
M  V30 4053 C 383.261 0.419803 -1.64838 0
M  V30 4054 O 384.446 0.31203 -1.91677 0
M  V30 4055 C 381.576 0.143652 -3.47003 0
M  V30 4056 C 380.53 -0.743606 -4.21491 0
M  V30 4057 C 379.856 0.0822027 -5.34637 0
M  V30 4058 C 381.156 -2.03694 -4.80943 0
M  V30 4059 H 382.85 -1.41862 -2.63658 0
M  V30 4060 H 380.396 -0.683571 -1.26741 0
M  V30 4061 H 382.349 0.459985 -4.18882 0
M  V30 4062 H 381.073 1.04711 -3.09359 0
M  V30 4063 H 379.732 -1.04347 -3.51436 0
M  V30 4064 H 379.38 0.986359 -4.93234 0
M  V30 4065 H 379.08 -0.508377 -5.85397 0
M  V30 4066 H 380.604 0.392797 -6.09335 0
M  V30 4067 H 382.018 -1.78504 -5.44802 0
M  V30 4068 H 380.415 -2.57573 -5.42011 0
M  V30 4069 H 381.485 -2.72042 -4.01399 0
M  V30 4070 N 382.828 1.3818 -0.7579 0
M  V30 4071 C 384.074 2.00316 -0.316453 0
M  V30 4072 C 384.407 1.60026 1.10025 0
M  V30 4073 O 383.682 0.839835 1.75434 0
M  V30 4074 C 383.965 3.57349 -0.444245 0
M  V30 4075 C 383.818 4.07591 -1.90236 0
M  V30 4076 C 385.137 4.3981 0.1598 0
M  V30 4077 H 382.256 0.727741 -0.116459 0
M  V30 4078 H 384.898 1.6406 -0.958352 0
M  V30 4079 H 383.048 3.88365 0.102233 0
M  V30 4080 H 384.72 3.87199 -2.50748 0
M  V30 4081 H 382.963 3.60297 -2.41595 0
M  V30 4082 H 383.634 5.16677 -1.94291 0
M  V30 4083 H 386.11 4.14971 -0.306314 0
M  V30 4084 H 384.986 5.48885 0.0401675 0
M  V30 4085 H 385.247 4.24102 1.24859 0
M  V30 4086 N 384.306 0.507319 1.49211 0
M  V30 4087 C 385.236 -0.256939 2.32082 0
M  V30 4088 C 386.217 -0.956609 1.40652 0
M  V30 4089 O 387.402 -0.946788 1.69557 0
M  V30 4090 C 384.532 -1.31802 3.21318 0
M  V30 4091 C 383.486 -0.737855 4.21592 0
M  V30 4092 C 382.812 -1.89992 4.99807 0
M  V30 4093 C 384.112 0.275325 5.21574 0
M  V30 4094 H 385.806 0.434798 2.96226 0
M  V30 4095 H 383.352 0.210546 1.42452 0
M  V30 4096 H 385.305 -1.86045 3.78107 0
M  V30 4097 H 384.029 -2.03903 2.5513 0
M  V30 4098 H 382.688 -0.217126 3.65956 0
M  V30 4099 H 382.336 -2.60877 4.30061 0
M  V30 4100 H 382.036 -1.51777 5.6766 0
M  V30 4101 H 383.56 -2.44657 5.59442 0
M  V30 4102 H 384.974 -0.179193 5.7302 0
M  V30 4103 H 383.371 0.573649 5.97352 0
M  V30 4104 H 384.441 1.18903 4.70096 0
M  V30 4105 N 385.784 -1.5574 0.241426 0
M  V30 4106 C 387.009 -2.0366 -0.392111 0
M  V30 4107 C 387.434 -1.11969 -1.51144 0
M  V30 4108 O 386.792 -0.111594 -1.80956 0
M  V30 4109 C 386.84 -3.49638 -0.882371 0
M  V30 4110 O 385.944 -3.6108 -1.99235 0
M  V30 4111 H 385.285 -0.658379 -0.0862122 0
M  V30 4112 H 387.815 -2.01302 0.365881 0
M  V30 4113 H 387.825 -3.90351 -1.18702 0
M  V30 4114 H 386.5 -4.15852 -0.0632361 0
M  V30 4115 H 385.077 -3.32262 -1.69282 0
M  V30 4116 N 387.262 0.0317525 -1.57568 0
M  V30 4117 C 388.192 1.03274 -2.0942 0
M  V30 4118 C 389.173 1.3788 -0.996143 0
M  V30 4119 O 390.358 1.46811 -1.27122 0
M  V30 4120 C 387.488 2.33448 -2.57137 0
M  V30 4121 C 386.442 2.13091 -3.71182 0
M  V30 4122 C 385.768 3.49001 -4.05095 0
M  V30 4123 C 387.068 1.51928 -4.99715 0
M  V30 4124 H 388.762 0.60112 -2.93303 0
M  V30 4125 H 386.308 0.287705 -1.41097 0
M  V30 4126 H 388.261 3.03802 -2.92032 0
M  V30 4127 H 386.985 2.78665 -1.70333 0
M  V30 4128 H 385.644 1.45171 -3.36632 0
M  V30 4129 H 385.292 3.91862 -3.15362 0
M  V30 4130 H 384.992 3.36207 -4.81911 0
M  V30 4131 H 386.516 4.20721 -4.42522 0
M  V30 4132 H 387.93 2.12196 -5.32584 0
M  V30 4133 H 386.327 1.49716 -5.81124 0
M  V30 4134 H 387.397 0.484811 -4.8247 0
M  V30 4135 N 388.74 1.54641 0.303973 0
M  V30 4136 C 389.986 1.74038 1.04109 0
M  V30 4137 C 390.319 0.523051 1.87024 0
M  V30 4138 O 389.594 -0.479874 1.88487 0
M  V30 4139 C 389.877 3.02761 1.94955 0
M  V30 4140 C 389.73 4.34787 1.1524 0
M  V30 4141 C 391.049 3.27336 2.94175 0
M  V30 4142 H 388.168 0.63323 0.377079 0
M  V30 4143 H 390.81 1.87354 0.316001 0
M  V30 4144 H 388.96 2.9154 2.56782 0
M  V30 4145 H 390.632 4.57922 0.557236 0
M  V30 4146 H 388.875 4.31407 0.455053 0
M  V30 4147 H 389.546 5.21116 1.8205 0
M  V30 4148 H 392.022 3.38148 2.42477 0
M  V30 4149 H 390.898 4.18726 3.54908 0
M  V30 4150 H 391.159 2.45491 3.67677 0
M  V30 4151 N 390.218 -0.567019 1.47046 0
M  V30 4152 C 391.465 -1.32462 1.53167 0
M  V30 4153 C 391.793 -1.93571 0.189841 0
M  V30 4154 O 391.048 -1.77865 -0.816243 0
M  V30 4155 C 391.347 -2.4623 2.59047 0
M  V30 4156 C 391.013 -2.03014 4.02612 0
M  V30 4157 C 389.675 -1.90944 4.41694 0
M  V30 4158 C 392.027 -1.69895 4.92732 0
M  V30 4159 C 389.355 -1.44035 5.68745 0
M  V30 4160 C 391.707 -1.2446 6.20236 0
M  V30 4161 C 390.371 -1.10979 6.5821 0
M  V30 4162 H 389.641 -0.484713 0.560477 0
M  V30 4163 H 392.288 -0.636888 1.80599 0
M  V30 4164 H 390.593 -3.20517 2.25335 0
M  V30 4165 H 392.29 -3.04427 2.61008 0
M  V30 4166 H 388.88 -2.13348 3.71726 0
M  V30 4167 H 393.064 -1.78098 4.63244 0
M  V30 4168 H 388.32 -1.32254 5.96925 0
M  V30 4169 H 392.494 -0.978924 6.89485 0
M  V30 4170 H 390.121 -0.744078 7.5655 0
M  V30 4171 N 391.696 -1.35014 -0.812953 0
M  V30 4172 C 392.945 -1.27269 -1.56479 0
M  V30 4173 C 393.258 0.152771 -1.95002 0
M  V30 4174 O 394.464 0.352451 -2.69203 0
M  V30 4175 C 392.92 -2.23159 -2.82362 0
M  V30 4176 C 392.528 -3.71016 -2.511 0
M  V30 4177 C 394.272 -2.24342 -3.60376 0
M  V30 4178 C 392.179 -4.58746 -3.73237 0
M  V30 4179 H 391.109 -0.472829 -0.587324 0
M  V30 4180 H 393.76 -1.6024 -0.894171 0
M  V30 4181 H 392.142 -1.83151 -3.51101 0
M  V30 4182 H 393.316 -4.1962 -1.90409 0
M  V30 4183 H 391.631 -3.72378 -1.86343 0
M  V30 4184 H 394.228 -2.87107 -4.51081 0
M  V30 4185 H 394.571 -1.24542 -3.97234 0
M  V30 4186 H 395.104 -2.62846 -2.98591 0
M  V30 4187 H 391.843 -5.59521 -3.41492 0
M  V30 4188 H 391.363 -4.14871 -4.33176 0
M  V30 4189 H 393.042 -4.73852 -4.40537 0
M  V30 4190 N 393.175 1.03435 -1.18907 0
M  V30 4191 C 394.415 1.78302 -0.999391 0
M  V30 4192 C 394.779 1.86353 0.462219 0
M  V30 4193 O 395.98 2.57489 0.771543 0
M  V30 4194 C 394.251 3.17362 -1.64365 0
M  V30 4195 S 395.81 4.08488 -1.6026 0
M  V30 4196 H 392.628 0.613861 -0.358742 0
M  V30 4197 H 395.23 1.23979 -1.51161 0
M  V30 4198 H 393.934 3.09116 -2.69955 0
M  V30 4199 H 393.465 3.76762 -1.13199 0
M  V30 4200 H 395.48 4.92274 -0.622932 0
M  V30 4201 N 394.653 0.992116 1.22453 0
M  V30 4202 C 395.9 0.667534 1.91181 0
M  V30 4203 C 396.228 -0.800317 1.77271 0
M  V30 4204 O 395.483 -1.59421 1.13505 0
M  V30 4205 C 395.782 1.01832 3.42586 0
M  V30 4206 C 395.448 2.47831 3.76684 0
M  V30 4207 C 394.11 2.87729 3.85701 0
M  V30 4208 C 396.462 3.42466 3.92895 0
M  V30 4209 C 393.79 4.21252 4.08367 0
M  V30 4210 C 396.142 4.75648 4.17064 0
M  V30 4211 C 394.806 5.15288 4.24305 0
M  V30 4212 H 394.076 0.244268 0.699581 0
M  V30 4213 H 396.723 1.24816 1.45235 0
M  V30 4214 H 395.028 0.355769 3.90181 0
M  V30 4215 H 396.725 0.745228 3.94014 0
M  V30 4216 H 393.315 2.15905 3.70247 0
M  V30 4217 H 397.499 3.12814 3.85307 0
M  V30 4218 H 392.755 4.51554 4.122 0
M  V30 4219 H 396.929 5.48924 4.2855 0
M  V30 4220 H 394.556 6.18769 4.41621 0
M  V30 4221 N 396.131 -1.37776 0.765217 0
M  V30 4222 C 397.361 -2.03828 0.337277 0
M  V30 4223 C 397.769 -1.57841 -1.04321 0
M  V30 4224 O 397.112 -0.752043 -1.67601 0
M  V30 4225 C 397.174 -3.58292 0.294407 0
M  V30 4226 C 396.838 -4.27384 1.61838 0
M  V30 4227 C 397.835 -4.51956 2.56967 0
M  V30 4228 C 395.52 -4.65345 1.89102 0
M  V30 4229 C 397.514 -5.13536 3.77571 0
M  V30 4230 C 395.201 -5.26647 3.09978 0
M  V30 4231 C 396.199 -5.50679 4.04032 0
M  V30 4232 O 395.887 -6.10702 5.2278 0
M  V30 4233 H 395.619 -0.661292 0.140248 0
M  V30 4234 H 398.173 -1.77222 1.03834 0
M  V30 4235 H 396.403 -3.83918 -0.462983 0
M  V30 4236 H 398.092 -4.05763 -0.105581 0
M  V30 4237 H 398.858 -4.23048 2.37183 0
M  V30 4238 H 394.737 -4.45978 1.16725 0
M  V30 4239 H 398.281 -5.3221 4.50997 0
M  V30 4240 H 394.178 -5.54979 3.29649 0
M  V30 4241 H 394.946 -6.29183 5.23517 0
M  V30 4242 N 397.609 -0.515225 -1.4894 0
M  V30 4243 C 398.858 0.0261361 -2.01683 0
M  V30 4244 C 399.171 1.36719 -1.39883 0
M  V30 4245 O 400.377 1.99606 -1.84037 0
M  V30 4246 C 398.833 0.0970111 -3.59769 0
M  V30 4247 C 398.441 -1.23825 -4.30548 0
M  V30 4248 C 400.185 0.587981 -4.20408 0
M  V30 4249 C 398.092 -1.12877 -5.80528 0
M  V30 4250 H 397.022 0.0135398 -0.753878 0
M  V30 4251 H 399.673 -0.656787 -1.71343 0
M  V30 4252 H 398.055 0.844694 -3.86886 0
M  V30 4253 H 399.229 -2.00034 -4.15118 0
M  V30 4254 H 397.544 -1.66379 -3.81716 0
M  V30 4255 H 400.141 0.68763 -5.3026 0
M  V30 4256 H 400.484 1.59026 -3.84729 0
M  V30 4257 H 401.017 -0.103582 -3.97665 0
M  V30 4258 H 397.756 -2.10575 -6.20756 0
M  V30 4259 H 397.276 -0.407799 -5.98412 0
M  V30 4260 H 398.955 -0.813332 -6.41868 0
M  V30 4261 N 399.087 1.5561 -0.249682 0
M  V30 4262 C 400.034 2.21496 0.648694 0
M  V30 4263 C 401.004 1.17977 1.16921 0
M  V30 4264 O 402.189 1.46434 1.22318 0
M  V30 4265 C 399.329 2.92039 1.83868 0
M  V30 4266 C 398.442 4.10219 1.35442 0
M  V30 4267 C 397.577 4.6847 2.50419 0
M  V30 4268 C 396.616 5.78893 1.98869 0
M  V30 4269 N 395.753 6.31315 3.07223 0
M  V30 4270 H 400.593 2.97892 0.0801582 0
M  V30 4271 H 398.13 1.47074 0.0278031 0
M  V30 4272 H 400.088 3.31138 2.53778 0
M  V30 4273 H 398.718 2.18111 2.37965 0
M  V30 4274 H 397.77 3.76413 0.54928 0
M  V30 4275 H 399.082 4.89927 0.936649 0
M  V30 4276 H 398.236 5.10158 3.28366 0
M  V30 4277 H 396.975 3.87984 2.95499 0
M  V30 4278 H 395.98 5.3668 1.19393 0
M  V30 4279 H 397.205 6.61232 1.54755 0
M  V30 4280 H 395.151 5.53733 3.51732 0
M  V30 4281 H 395.068 7.06224 2.69784 0
M  V30 4282 H 396.336 6.77662 3.8522 0
M  V30 4283 N 400.565 -0.0233959 1.57583 0
M  V30 4284 C 401.512 -1.02224 2.06927 0
M  V30 4285 C 402.482 -1.35575 0.959617 0
M  V30 4286 O 403.667 -1.45815 1.23055 0
M  V30 4287 C 400.807 -2.31636 2.5581 0
M  V30 4288 C 399.92 -2.04394 3.80588 0
M  V30 4289 C 399.055 -3.27717 4.18061 0
M  V30 4290 C 398.094 -2.96056 5.3574 0
M  V30 4291 N 397.231 -4.11847 5.68618 0
M  V30 4292 H 402.071 -0.594504 2.9201 0
M  V30 4293 H 399.608 -0.281921 1.44373 0
M  V30 4294 H 401.566 -3.07258 2.82221 0
M  V30 4295 H 400.196 -2.72122 1.73636 0
M  V30 4296 H 399.248 -1.19244 3.61227 0
M  V30 4297 H 400.56 -1.77042 4.66323 0
M  V30 4298 H 399.714 -4.11702 4.4563 0
M  V30 4299 H 398.453 -3.58188 3.30988 0
M  V30 4300 H 397.458 -2.10474 5.07918 0
M  V30 4301 H 398.683 -2.66857 6.24471 0
M  V30 4302 H 396.629 -4.42258 4.84504 0
M  V30 4303 H 396.546 -3.87938 6.48876 0
M  V30 4304 H 397.814 -4.96689 6.00766 0
M  V30 4305 N 402.043 -1.548 -0.295768 0
M  V30 4306 C 403.292 -1.73538 -1.02798 0
M  V30 4307 C 403.605 -0.531159 -1.8825 0
M  V30 4308 O 404.811 -0.600458 -2.64777 0
M  V30 4309 C 403.267 -3.07051 -1.87744 0
M  V30 4310 C 402.875 -4.34968 -1.07269 0
M  V30 4311 C 404.619 -3.35146 -2.60533 0
M  V30 4312 C 402.526 -5.5953 -1.91521 0
M  V30 4313 H 401.456 -0.646794 -0.387522 0
M  V30 4314 H 404.107 -1.81278 -0.284718 0
M  V30 4315 H 402.489 -2.93289 -2.66078 0
M  V30 4316 H 403.663 -4.5958 -0.335117 0
M  V30 4317 H 401.978 -4.13847 -0.460384 0
M  V30 4318 H 404.575 -4.2541 -3.23929 0
M  V30 4319 H 404.918 -2.54255 -3.29636 0
M  V30 4320 H 405.451 -3.49902 -1.89244 0
M  V30 4321 H 402.19 -6.43103 -1.26878 0
M  V30 4322 H 401.71 -5.39096 -2.62937 0
M  V30 4323 H 403.389 -5.96982 -2.49442 0
M  V30 4324 N 403.521 0.559213 -1.47345 0
M  V30 4325 C 404.469 1.68747 -1.60085 0
M  V30 4326 C 405.463 1.628 -0.46825 0
M  V30 4327 O 406.669 1.68009 -0.645977 0
M  V30 4328 H 403.044 0.558329 -0.503759 0
M  V30 4329 H 405.015 1.55138 -2.54902 0
M  V30 4330 C 403.764 3.07103 -1.63042 0
M  V30 4331 H 403.087 3.12361 -2.49541 0
M  V30 4332 H 404.527 3.85743 -1.76006 0
M  V30 4333 C 402.986 3.34935 -0.363357 0
M  V30 4334 O 403.516 3.98102 0.536416 0
M  V30 4335 N 401.722 2.89574 -0.244 0
M  V30 4336 H 401.269 2.38348 -0.977133 0
M  V30 4337 H 401.227 3.08566 0.602836 0
M  V30 4338 N 404.999 1.35443 0.805782 0
M  V30 4339 C 406.41 1.25768 1.37983 0
M  V30 4340 C 406.761 -0.10958 1.95894 0
M  V30 4341 O 405.886 -1.01056 1.91355 0
M  V30 4342 C 406.481 2.27727 2.5085 0
M  V30 4343 C 405.04 2.2179 3.04115 0
M  V30 4344 C 404.187 2.13393 1.77084 0
M  V30 4345 H 407.138 1.4656 0.608752 0
M  V30 4346 H 407.159 1.90422 3.29424 0
M  V30 4347 H 406.671 3.27227 2.08671 0
M  V30 4348 H 404.772 1.25703 3.50756 0
M  V30 4349 H 404.885 3.13788 3.62042 0
M  V30 4350 H 403.249 1.59384 1.98668 0
M  V30 4351 H 404.032 3.14755 1.37056 0
M  V30 4352 N 406.477 -1.02803 1.19454 0
M  V30 4353 C 407.407 -2.12999 0.956758 0
M  V30 4354 C 408.388 -1.69743 -0.110188 0
M  V30 4355 O 409.573 -1.94148 0.0450038 0
M  V30 4356 C 406.703 -3.43746 0.495553 0
M  V30 4357 C 405.657 -4.00688 1.50443 0
M  V30 4358 C 404.983 -5.27067 0.900275 0
M  V30 4359 C 406.283 -4.35397 2.8849 0
M  V30 4360 H 407.977 -2.33148 1.87836 0
M  V30 4361 H 405.523 -1.12045 0.904539 0
M  V30 4362 H 407.476 -4.2021 0.316493 0
M  V30 4363 H 406.2 -3.23321 -0.461646 0
M  V30 4364 H 404.859 -3.2632 1.67065 0
M  V30 4365 H 404.507 -5.02959 -0.064503 0
M  V30 4366 H 404.207 -5.66127 1.57397 0
M  V30 4367 H 405.731 -6.06196 0.73203 0
M  V30 4368 H 407.145 -5.02795 2.75446 0
M  V30 4369 H 405.542 -4.85541 3.52661 0
M  V30 4370 H 406.612 -3.44662 3.41081 0
M  V30 4371 N 407.956 -0.998596 -1.21925 0
M  V30 4372 C 408.903 -0.553621 -2.24062 0
M  V30 4373 C 409.873 0.416999 -1.6078 0
M  V30 4374 O 411.058 0.320482 -1.88089 0
M  V30 4375 C 408.198 0.119959 -3.44891 0
M  V30 4376 C 407.311 -0.893077 -4.22668 0
M  V30 4377 C 406.446 -0.192424 -5.30851 0
M  V30 4378 C 405.485 -1.19344 -6.00353 0
M  V30 4379 N 404.622 -0.520707 -7.00166 0
M  V30 4380 H 409.462 -1.4293 -2.61486 0
M  V30 4381 H 406.999 -0.715838 -1.28507 0
M  V30 4382 H 408.957 0.527459 -4.13852 0
M  V30 4383 H 407.587 0.959389 -3.08214 0
M  V30 4384 H 406.639 -1.41886 -3.52948 0
M  V30 4385 H 407.951 -1.65512 -4.70539 0
M  V30 4386 H 407.105 0.271515 -6.06092 0
M  V30 4387 H 405.844 0.602075 -4.83969 0
M  V30 4388 H 404.849 -1.66795 -5.23889 0
M  V30 4389 H 406.074 -1.98891 -6.49322 0
M  V30 4390 H 404.02 0.254252 -6.55507 0
M  V30 4391 H 403.937 -1.2211 -7.46073 0
M  V30 4392 H 405.205 -0.0797596 -7.79459 0
M  V30 4393 N 409.434 1.37368 -0.772513 0
M  V30 4394 C 410.344 2.34053 -0.160081 0
M  V30 4395 C 411.36 1.60216 0.678728 0
M  V30 4396 O 412.536 1.92303 0.59847 0
M  V30 4397 C 409.601 3.3939 0.708182 0
M  V30 4398 C 408.662 4.29048 -0.147172 0
M  V30 4399 C 407.895 5.29354 0.679744 0
M  V30 4400 O 408.118 5.3723 1.91678 0
M  V30 4401 O 407.052 6.01835 0.0885444 0
M  V30 4402 H 410.878 2.88159 -0.959053 0
M  V30 4403 H 408.463 1.39543 -0.533685 0
M  V30 4404 H 410.345 4.03839 1.20384 0
M  V30 4405 H 409.02 2.8761 1.48533 0
M  V30 4406 H 407.927 3.67697 -0.689205 0
M  V30 4407 H 409.26 4.84134 -0.887423 0
M  V30 4408 N 410.912 0.523116 1.48665 0
M  V30 4409 C 411.859 -0.243398 2.29513 0
M  V30 4410 C 412.829 -0.940139 1.36933 0
M  V30 4411 O 414.014 -0.942503 1.65896 0
M  V30 4412 C 411.154 -1.28855 3.20141 0
M  V30 4413 C 410.267 -0.60135 4.27794 0
M  V30 4414 C 409.402 -1.62884 5.05611 0
M  V30 4415 C 408.441 -0.924726 6.05075 0
M  V30 4416 N 407.578 -1.89744 6.75975 0
M  V30 4417 H 412.418 0.452234 2.94549 0
M  V30 4418 H 409.955 0.234858 1.45213 0
M  V30 4419 H 411.913 -1.90674 3.71079 0
M  V30 4420 H 410.543 -1.95266 2.57043 0
M  V30 4421 H 409.595 0.130623 3.80176 0
M  V30 4422 H 410.907 -0.0481585 4.98777 0
M  V30 4423 H 410.061 -2.32149 5.60528 0
M  V30 4424 H 408.8 -2.21592 4.34452 0
M  V30 4425 H 407.805 -0.217966 5.49368 0
M  V30 4426 H 409.03 -0.343851 6.78229 0
M  V30 4427 H 406.976 -2.47373 6.07571 0
M  V30 4428 H 406.893 -1.3955 7.43009 0
M  V30 4429 H 408.161 -2.58229 7.35485 0
M  V30 4430 N 412.39 -1.55475 0.257931 0
M  V30 4431 C 413.615 -2.04064 -0.370488 0
M  V30 4432 C 414.04 -1.13565 -1.49948 0
M  V30 4433 O 413.398 -0.130781 -1.80828 0
M  V30 4434 C 413.446 -3.50554 -0.845237 0
M  V30 4435 O 412.55 -3.63173 -1.95394 0
M  V30 4436 H 411.891 -0.659257 -0.0792243 0
M  V30 4437 H 414.421 -2.00903 0.387212 0
M  V30 4438 H 414.431 -3.91588 -1.14555 0
M  V30 4439 H 413.106 -4.15896 -0.0191259 0
M  V30 4440 H 411.683 -3.34039 -1.65748 0
M  V30 4441 N 413.868 0.0150385 -1.57593 0
M  V30 4442 C 415.117 0.702115 -1.89085 0
M  V30 4443 C 415.43 1.75764 -0.858277 0
M  V30 4444 O 416.636 2.49829 -1.0629 0
M  V30 4445 C 415.092 1.29992 -3.35604 0
M  V30 4446 C 414.7 0.280007 -4.47124 0
M  V30 4447 C 416.444 1.96606 -3.76227 0
M  V30 4448 C 414.351 0.886949 -5.84711 0
M  V30 4449 H 413.281 0.265997 -0.705522 0
M  V30 4450 H 415.932 -0.0430408 -1.8345 0
M  V30 4451 H 414.314 2.09525 -3.36029 0
M  V30 4452 H 415.488 -0.489631 -4.58191 0
M  V30 4453 H 413.803 -0.284835 -4.15425 0
M  V30 4454 H 416.4 2.42893 -4.76347 0
M  V30 4455 H 416.743 2.79024 -3.08952 0
M  V30 4456 H 417.276 1.23828 -3.78036 0
M  V30 4457 H 414.015 0.101876 -6.55421 0
M  V30 4458 H 413.535 1.6261 -5.77337 0
M  V30 4459 H 415.214 1.39011 -6.3189 0
M  V30 4460 N 415.346 1.54954 0.287554 0
M  V30 4461 C 416.595 1.74081 1.01877 0
M  V30 4462 C 416.908 0.541135 1.87966 0
M  V30 4463 O 418.114 0.614491 2.64455 0
M  V30 4464 C 416.57 3.08042 1.86113 0
M  V30 4465 C 416.178 4.35531 1.04961 0
M  V30 4466 C 417.922 3.36523 2.58752 0
M  V30 4467 C 415.829 5.60538 1.88551 0
M  V30 4468 H 414.759 0.64884 0.384087 0
M  V30 4469 H 417.41 1.81426 0.275101 0
M  V30 4470 H 415.792 2.94696 2.64519 0
M  V30 4471 H 416.966 4.59751 0.31074 0
M  V30 4472 H 415.281 4.14085 0.43843 0
M  V30 4473 H 417.878 4.27122 3.21668 0
M  V30 4474 H 418.221 2.56 3.28283 0
M  V30 4475 H 418.754 3.50901 1.87386 0
M  V30 4476 H 415.493 6.43767 1.23466 0
M  V30 4477 H 415.013 5.40483 2.60074 0
M  V30 4478 H 416.692 5.98297 2.46273 0
M  V30 4479 N 416.824 -0.551391 1.4764 0
M  V30 4480 C 417.754 -1.66757 1.63445 0
M  V30 4481 C 418.735 -1.63077 0.483742 0
M  V30 4482 O 419.92 -1.80607 0.71377 0
M  V30 4483 C 417.05 -3.05387 1.65396 0
M  V30 4484 C 416.004 -3.23918 2.79752 0
M  V30 4485 C 415.33 -4.63393 2.66779 0
M  V30 4486 C 416.63 -3.08735 4.21284 0
M  V30 4487 H 418.324 -1.53786 2.56886 0
M  V30 4488 H 415.87 -0.738415 1.23626 0
M  V30 4489 H 417.823 -3.83325 1.75043 0
M  V30 4490 H 416.547 -3.19332 0.685195 0
M  V30 4491 H 415.206 -2.48391 2.69625 0
M  V30 4492 H 414.854 -4.74144 1.67918 0
M  V30 4493 H 414.554 -4.7674 3.43501 0
M  V30 4494 H 416.078 -5.43458 2.78364 0
M  V30 4495 H 417.492 -3.76484 4.32357 0
M  V30 4496 H 415.889 -3.33588 4.98838 0
M  V30 4497 H 416.959 -2.0541 4.39243 0
M  V30 4498 N 418.302 -1.35869 -0.798587 0
M  V30 4499 C 419.713 -1.26498 -1.37314 0
M  V30 4500 C 420.064 0.0991899 -1.95949 0
M  V30 4501 O 419.189 1.0004 -1.91888 0
M  V30 4502 C 419.784 -2.29054 -2.49639 0
M  V30 4503 C 418.343 -2.234 -3.02935 0
M  V30 4504 C 417.49 -2.14329 -1.75949 0
M  V30 4505 H 420.441 -1.46881 -0.600971 0
M  V30 4506 H 420.462 -1.92166 -3.28409 0
M  V30 4507 H 419.974 -3.2833 -2.06933 0
M  V30 4508 H 418.075 -1.27562 -3.50084 0
M  V30 4509 H 418.188 -3.15703 -3.60372 0
M  V30 4510 H 416.552 -1.60435 -1.9782 0
M  V30 4511 H 417.335 -3.15477 -1.35384 0
M  V30 4512 N 419.78 1.02168 -1.19998 0
M  V30 4513 C 420.727 2.10601 -0.944228 0
M  V30 4514 C 421.697 1.65639 0.123664 0
M  V30 4515 O 422.882 1.9079 -0.0199941 0
M  V30 4516 C 420.022 3.41504 -0.496865 0
M  V30 4517 C 419.135 3.99973 -1.63234 0
M  V30 4518 C 418.27 5.18915 -1.13579 0
M  V30 4519 C 417.309 5.69456 -2.24468 0
M  V30 4520 N 416.446 6.79665 -1.76068 0
M  V30 4521 H 421.286 2.31814 -1.8726 0
M  V30 4522 H 418.823 1.13686 -0.933483 0
M  V30 4523 H 420.781 4.16626 -0.218843 0
M  V30 4524 H 419.411 3.2038 0.394508 0
M  V30 4525 H 418.463 3.21997 -2.0254 0
M  V30 4526 H 419.775 4.33492 -2.46752 0
M  V30 4527 H 418.929 6.01222 -0.813429 0
M  V30 4528 H 417.668 4.8695 -0.270434 0
M  V30 4529 H 416.673 4.85757 -2.57526 0
M  V30 4530 H 417.898 6.03459 -3.11472 0
M  V30 4531 H 415.844 6.49538 -0.918516 0
M  V30 4532 H 415.761 7.12349 -2.5317 0
M  V30 4533 H 417.029 7.65549 -1.46817 0
M  V30 4534 N 421.258 1.00505 1.21394 0
M  V30 4535 C 422.483 0.706367 1.95001 0
M  V30 4536 C 422.908 -0.72463 1.73582 0
M  V30 4537 O 422.266 -1.49702 1.0227 0
M  V30 4538 C 422.314 1.03299 3.45487 0
M  V30 4539 O 421.418 0.138275 4.12168 0
M  V30 4540 H 420.759 0.263175 0.609619 0
M  V30 4541 H 423.289 1.34531 1.54151 0
M  V30 4542 H 423.299 0.979872 3.96059 0
M  V30 4543 H 421.974 2.07567 3.60401 0
M  V30 4544 H 420.551 0.247928 3.72075 0
M  V30 4545 N 422.737 -1.36956 0.779787 0
M  V30 4546 C 423.667 -2.32761 0.185651 0
M  V30 4547 C 424.648 -1.56177 -0.673989 0
M  V30 4548 O 425.833 -1.84378 -0.609797 0
M  V30 4549 C 422.963 -3.40418 -0.687964 0
M  V30 4550 C 421.917 -4.27941 0.0710102 0
M  V30 4551 C 421.243 -5.26681 -0.922573 0
M  V30 4552 C 422.543 -5.07006 1.25467 0
M  V30 4553 H 424.237 -2.82698 0.986008 0
M  V30 4554 H 421.783 -1.3592 0.475592 0
M  V30 4555 H 423.736 -4.06423 -1.11348 0
M  V30 4556 H 422.46 -2.89025 -1.52093 0
M  V30 4557 H 421.119 -3.63478 0.47739 0
M  V30 4558 H 420.767 -4.71565 -1.7503 0
M  V30 4559 H 420.467 -5.86103 -0.419237 0
M  V30 4560 H 421.991 -5.9556 -1.34686 0
M  V30 4561 H 423.405 -5.66105 0.905401 0
M  V30 4562 H 421.802 -5.75793 1.69063 0
M  V30 4563 H 422.872 -4.3921 2.05481 0
M  V30 4564 N 424.215 -0.530993 -1.48385 0
M  V30 4565 C 425.464 0.00474348 -2.01699 0
M  V30 4566 C 425.777 1.35227 -1.41325 0
M  V30 4567 O 426.983 1.97643 -1.86144 0
M  V30 4568 C 425.439 0.0588473 -3.59852 0
M  V30 4569 C 425.047 -1.28385 -4.2921 0
M  V30 4570 C 426.791 0.543358 -4.21008 0
M  V30 4571 C 424.698 -1.19028 -5.79298 0
M  V30 4572 H 423.628 0.00554317 -0.75398 0
M  V30 4573 H 426.279 -0.674924 -1.70637 0
M  V30 4574 H 424.661 0.803612 -3.8776 0
M  V30 4575 H 425.835 -2.04426 -4.12973 0
M  V30 4576 H 424.15 -1.70418 -3.7993 0
M  V30 4577 H 426.747 0.631351 -5.3096 0
M  V30 4578 H 427.09 1.54937 -3.86394 0
M  V30 4579 H 427.623 -0.145754 -3.97533 0
M  V30 4580 H 424.362 -2.17147 -6.18488 0
M  V30 4581 H 423.882 -0.471246 -5.97946 0
M  V30 4582 H 425.561 -0.881365 -6.40969 0
M  V30 4583 N 425.693 1.55336 -0.266172 0
M  V30 4584 C 426.918 2.04258 0.359661 0
M  V30 4585 C 427.343 1.14359 1.49344 0
M  V30 4586 O 426.701 0.140369 1.80756 0
M  V30 4587 C 426.749 3.50997 0.826635 0
M  V30 4588 O 425.853 3.64204 1.93466 0
M  V30 4589 H 425.194 0.659668 0.075727 0
M  V30 4590 H 427.724 2.00694 -0.39786 0
M  V30 4591 H 427.734 3.9219 1.12477 0
M  V30 4592 H 426.409 4.159 -0.00293032 0
M  V30 4593 H 424.986 3.34913 1.63974 0
M  V30 4594 N 427.171 -0.0066808 1.57599 0
M  V30 4595 C 428.417 -0.693947 1.90558 0
M  V30 4596 C 428.75 -1.73792 0.866594 0
M  V30 4597 O 428.025 -1.94156 -0.115548 0
M  V30 4598 C 428.308 -1.34317 3.34112 0
M  V30 4599 C 428.161 -0.311189 4.48722 0
M  V30 4600 C 429.48 -2.27116 3.7697 0
M  V30 4601 H 426.599 -0.250803 0.693013 0
M  V30 4602 H 429.241 0.043242 1.89951 0
M  V30 4603 H 427.391 -1.9715 3.3476 0
M  V30 4604 H 429.063 0.316944 4.6021 0
M  V30 4605 H 427.306 0.367253 4.32243 0
M  V30 4606 H 427.977 -0.804366 5.46108 0
M  V30 4607 H 430.453 -1.74306 3.77831 0
M  V30 4608 H 429.329 -2.69511 4.78179 0
M  V30 4609 H 429.59 -3.14743 3.10466 0
M  V30 4610 N 428.649 -1.55105 -0.279332 0
M  V30 4611 C 429.895 -1.75672 -1.01327 0
M  V30 4612 C 430.228 -0.552739 -1.86168 0
M  V30 4613 O 429.503 0.449827 -1.89227 0
M  V30 4614 C 429.786 -3.05825 -1.90114 0
M  V30 4615 C 429.639 -4.36565 -1.08309 0
M  V30 4616 C 430.958 -3.31975 -2.8893 0
M  V30 4617 H 428.077 -0.639149 -0.366957 0
M  V30 4618 H 430.719 -1.87833 -0.286154 0
M  V30 4619 H 428.869 -2.95588 -2.52111 0
M  V30 4620 H 430.541 -4.58751 -0.484314 0
M  V30 4621 H 428.784 -4.32076 -0.386362 0
M  V30 4622 H 429.455 -5.23946 -1.73737 0
M  V30 4623 H 431.931 -3.41963 -2.37067 0
M  V30 4624 H 430.807 -4.2432 -3.48201 0
M  V30 4625 H 431.068 -2.51309 -3.63725 0
M  V30 4626 N 430.127 0.543554 -1.4793 0
M  V30 4627 C 431.543 0.870806 -1.3375 0
M  V30 4628 C 431.743 1.9864 -0.338261 0
M  V30 4629 O 430.799 2.51305 0.245371 0
M  V30 4630 C 432.112 1.25114 -2.73435 0
M  V30 4631 C 433.66 1.3618 -2.81823 0
M  V30 4632 C 434.135 1.77563 -4.22179 0
M  V30 4633 N 435.626 1.8469 -4.24787 0
M  V30 4634 C 436.361 2.18067 -5.30315 0
M  V30 4635 N 435.857 2.49963 -6.46135 0
M  V30 4636 N 437.65 2.18958 -5.17701 0
M  V30 4637 H 429.801 -0.19275 -2.11524 0
M  V30 4638 H 432.064 -0.0235777 -0.947707 0
M  V30 4639 H 431.77 0.50514 -3.48053 0
M  V30 4640 H 431.644 2.20431 -3.06088 0
M  V30 4641 H 434.031 2.09859 -2.07468 0
M  V30 4642 H 434.112 0.390169 -2.52807 0
M  V30 4643 H 433.756 1.04449 -4.97044 0
M  V30 4644 H 433.686 2.75753 -4.48629 0
M  V30 4645 H 436.177 1.62372 -3.41239 0
M  V30 4646 H 436.49 2.74497 -7.22406 0
M  V30 4647 H 434.835 2.47513 -6.49432 0
M  V30 4648 H 438.026 1.93488 -4.2624 0
M  V30 4649 H 438.199 2.44639 -6.00047 0
M  V30 4650 N 431.605 1.3629 0.791371 0
M  V30 4651 C 432.83 1.33726 1.58531 0
M  V30 4652 C 433.255 -0.0794933 1.87932 0
M  V30 4653 O 432.613 -1.05087 1.47738 0
M  V30 4654 C 432.661 2.16425 2.88431 0
M  V30 4655 O 431.765 1.5554 3.81944 0
M  V30 4656 H 431.106 0.457793 0.480959 0
M  V30 4657 H 433.636 1.79547 0.981031 0
M  V30 4658 H 433.646 2.28933 3.37718 0
M  V30 4659 H 432.321 3.19415 2.66359 0
M  V30 4660 H 430.898 1.51961 3.40532 0
M  V30 4661 N 433.083 -1.0153 1.20538 0
M  V30 4662 C 434.046 -2.0826 0.957098 0
M  V30 4663 C 435.046 -1.60657 -0.0678655 0
M  V30 4664 O 436.236 -1.73385 0.168332 0
M  V30 4665 C 433.368 -3.38033 0.441188 0
M  V30 4666 H 434.561 -2.31719 1.90384 0
M  V30 4667 H 432.114 -1.1835 1.02093 0
M  V30 4668 H 432.849 -3.20249 -0.510961 0
M  V30 4669 H 432.634 -3.73911 1.18038 0
M  V30 4670 H 434.124 -4.16613 0.287009 0
M  V30 4671 N 434.561 -1.01147 -1.20859 0
M  V30 4672 C 435.789 -0.716911 -1.94082 0
M  V30 4673 C 436.204 0.721568 -1.74467 0
M  V30 4674 O 435.561 1.48889 -1.05539 0
M  V30 4675 C 435.612 -1.03662 -3.46318 0
M  V30 4676 O 435.333 -2.4186 -3.65288 0
M  V30 4677 C 436.834 -0.762386 -4.36695 0
M  V30 4678 H 434.054 -0.26367 -0.617024 0
M  V30 4679 H 436.598 -1.35127 -1.53496 0
M  V30 4680 H 434.753 -0.447757 -3.84804 0
M  V30 4681 H 435.167 -2.53224 -4.59323 0
M  V30 4682 H 436.641 -1.03621 -5.42187 0
M  V30 4683 H 437.118 0.303514 -4.3815 0
M  V30 4684 H 437.724 -1.33316 -4.03865 0
M  V30 4685 N 436.039 1.36541 -0.78704 0
M  V30 4686 C 436.969 2.32659 -0.197992 0
M  V30 4687 C 437.95 1.56533 0.665697 0
M  V30 4688 O 439.135 1.84698 0.60001 0
M  V30 4689 C 436.265 3.40778 0.669901 0
M  V30 4690 C 435.219 4.27897 -0.0937039 0
M  V30 4691 C 434.545 5.27163 0.894629 0
M  V30 4692 C 435.845 5.06334 -1.28154 0
M  V30 4693 H 437.539 2.82171 -1.00099 0
M  V30 4694 H 435.085 1.35665 -0.482793 0
M  V30 4695 H 437.038 4.07008 1.09191 0
M  V30 4696 H 435.762 2.89827 1.50558 0
M  V30 4697 H 434.421 3.6322 -0.49666 0
M  V30 4698 H 434.069 4.72486 1.72527 0
M  V30 4699 H 433.769 5.86317 0.388149 0
M  V30 4700 H 435.293 5.96266 1.31525 0
M  V30 4701 H 436.707 5.65617 -0.93541 0
M  V30 4702 H 435.104 5.74888 -1.72115 0
M  V30 4703 H 436.174 4.38114 -2.07807 0
M  V30 4704 N 437.518 0.538854 1.48102 0
M  V30 4705 C 438.428 -0.222648 2.33541 0
M  V30 4706 C 439.444 -0.930225 1.47047 0
M  V30 4707 O 440.62 -0.903211 1.80011 0
M  V30 4708 C 437.685 -1.25064 3.23357 0
M  V30 4709 C 436.746 -0.552469 4.2573 0
M  V30 4710 C 435.979 -1.53149 5.11254 0
M  V30 4711 O 436.202 -2.76487 4.9891 0
M  V30 4712 O 435.136 -1.06602 5.92385 0
M  V30 4713 H 438.962 0.477707 2.99919 0
M  V30 4714 H 436.547 0.299669 1.46364 0
M  V30 4715 H 438.429 -1.8445 3.78888 0
M  V30 4716 H 437.104 -1.93325 2.59629 0
M  V30 4717 H 436.011 0.082114 3.7401 0
M  V30 4718 H 437.344 0.0883526 4.92121 0
M  V30 4719 N 438.996 -1.55193 0.274407 0
M  V30 4720 C 440.224 -2.03987 -0.345943 0
M  V30 4721 C 440.639 -1.15279 -1.4952 0
M  V30 4722 O 439.996 -0.172759 -1.8168 0
M  V30 4723 C 440.047 -3.51898 -0.827631 0
M  V30 4724 O 439.768 -4.37231 0.275855 0
M  V30 4725 C 441.269 -4.16577 -1.51587 0
M  V30 4726 H 438.489 -0.666335 -0.0789892 0
M  V30 4727 H 441.033 -2.00423 0.406294 0
M  V30 4728 H 439.188 -3.55909 -1.52996 0
M  V30 4729 H 439.602 -5.24415 -0.0943638 0
M  V30 4730 H 441.076 -5.21678 -1.80433 0
M  V30 4731 H 441.553 -3.64707 -2.44716 0
M  V30 4732 H 442.159 -4.16568 -0.857409 0
M  V30 4733 N 440.474 -0.00167713 -1.576 0
M  V30 4734 C 441.421 0.989195 -2.08527 0
M  V30 4735 C 442.391 1.34031 -0.981065 0
M  V30 4736 O 443.576 1.43839 -1.2536 0
M  V30 4737 C 440.716 2.27537 -2.59463 0
M  V30 4738 C 439.829 1.98314 -3.83791 0
M  V30 4739 C 438.964 3.21025 -4.23222 0
M  V30 4740 C 438.003 2.87495 -5.40382 0
M  V30 4741 N 437.14 4.02749 -5.75098 0
M  V30 4742 H 441.98 0.547973 -2.92919 0
M  V30 4743 H 439.517 0.258917 -1.44803 0
M  V30 4744 H 441.475 3.02729 -2.87073 0
M  V30 4745 H 440.105 2.69325 -1.77943 0
M  V30 4746 H 439.157 1.13482 -3.63078 0
M  V30 4747 H 440.469 1.69601 -4.69081 0
M  V30 4748 H 439.623 4.04561 -4.52123 0
M  V30 4749 H 438.362 3.52877 -3.36644 0
M  V30 4750 H 437.367 2.02367 -5.11202 0
M  V30 4751 H 438.592 2.56889 -6.28637 0
M  V30 4752 H 436.538 4.34494 -4.91478 0
M  V30 4753 H 436.455 3.77566 -6.54966 0
M  V30 4754 H 437.723 4.87068 -6.08592 0
M  V30 4755 N 441.952 1.55251 0.271103 0
M  V30 4756 C 443.363 1.66635 0.842007 0
M  V30 4757 C 443.714 0.594631 1.86972 0
M  V30 4758 O 442.839 -0.263532 2.14789 0
M  V30 4759 C 443.434 3.02082 1.53401 0
M  V30 4760 C 441.993 3.15487 2.05293 0
M  V30 4761 C 441.14 2.62438 0.895631 0
M  V30 4762 H 444.091 1.58629 0.0474117 0
M  V30 4763 H 444.112 2.95176 2.40107 0
M  V30 4764 H 443.624 3.80062 0.785786 0
M  V30 4765 H 441.725 2.42284 2.83071 0
M  V30 4766 H 441.838 4.22075 2.26693 0
M  V30 4767 H 440.202 2.19644 1.28953 0
M  V30 4768 H 440.985 3.42923 0.160878 0
M  V30 4769 N 443.43 -0.535701 1.48216 0
M  V30 4770 C 444.34 -1.66785 1.64985 0
M  V30 4771 C 445.356 -1.65654 0.532414 0
M  V30 4772 O 446.532 -1.8471 0.80275 0
M  V30 4773 C 443.597 -3.0326 1.68031 0
M  V30 4774 C 442.658 -3.1529 2.9136 0
M  V30 4775 C 441.891 -4.45255 2.94252 0
M  V30 4776 O 442.114 -5.32011 2.05719 0
M  V30 4777 O 441.048 -4.6153 3.86359 0
M  V30 4778 H 444.874 -1.55576 2.60825 0
M  V30 4779 H 442.459 -0.70815 1.31551 0
M  V30 4780 H 444.341 -3.84436 1.72589 0
M  V30 4781 H 443.016 -3.14805 0.753628 0
M  V30 4782 H 441.923 -2.3343 2.92337 0
M  V30 4783 H 443.256 -3.08658 3.83394 0
M  V30 4784 N 444.908 -1.36708 -0.784132 0
M  V30 4785 C 446.133 -1.34565 -1.5782 0
M  V30 4786 C 446.558 0.0695257 -1.87971 0
M  V30 4787 O 445.916 1.04302 -1.48293 0
M  V30 4788 C 445.964 -2.17952 -2.87279 0
M  V30 4789 O 445.068 -1.57563 -3.81114 0
M  V30 4790 H 444.409 -0.460337 -0.478524 0
M  V30 4791 H 446.939 -1.80064 -0.971495 0
M  V30 4792 H 446.949 -2.30721 -3.365 0
M  V30 4793 H 445.624 -3.20823 -2.64661 0
M  V30 4794 H 444.201 -1.53764 -3.39722 0
M  V30 4795 N 446.386 1.0089 -1.21074 0
M  V30 4796 C 447.333 2.09588 -0.966512 0
M  V30 4797 C 448.303 1.65761 0.106089 0
M  V30 4798 O 449.488 1.90758 -0.0402287 0
M  V30 4799 C 446.628 3.40958 -0.533058 0
M  V30 4800 C 445.741 3.9822 -1.67467 0
M  V30 4801 C 444.876 5.17682 -1.19076 0
M  V30 4802 C 443.915 5.67043 -2.30496 0
M  V30 4803 N 443.052 6.77759 -1.83267 0
M  V30 4804 H 447.892 2.29815 -1.89708 0
M  V30 4805 H 445.429 1.12689 -0.945489 0
M  V30 4806 H 447.387 4.1637 -0.263019 0
M  V30 4807 H 446.017 3.20781 0.360505 0
M  V30 4808 H 445.069 3.1983 -2.05944 0
M  V30 4809 H 446.381 4.3085 -2.51336 0
M  V30 4810 H 445.535 6.00326 -0.877151 0
M  V30 4811 H 444.274 4.86635 -0.322066 0
M  V30 4812 H 443.279 4.82999 -2.62664 0
M  V30 4813 H 444.504 6.00121 -3.17855 0
M  V30 4814 H 442.45 6.48527 -0.987356 0
M  V30 4815 H 442.367 7.09624 -2.60711 0
M  V30 4816 H 443.635 7.63949 -1.54928 0
M  V30 4817 N 447.864 1.01787 1.20321 0
M  V30 4818 C 449.094 0.72614 1.93419 0
M  V30 4819 C 449.502 -0.717317 1.75075 0
M  V30 4820 O 448.845 -1.49836 1.06278 0
M  V30 4821 C 448.907 0.983621 3.45782 0
M  V30 4822 C 448.571 2.41645 3.87888 0
M  V30 4823 C 449.568 3.39732 3.93545 0
M  V30 4824 C 447.253 2.75752 4.19841 0
M  V30 4825 C 449.247 4.69988 4.30569 0
M  V30 4826 C 446.934 4.06221 4.56539 0
M  V30 4827 C 447.932 5.0315 4.61876 0
M  V30 4828 O 447.62 6.31284 4.97731 0
M  V30 4829 H 447.352 0.265824 0.621541 0
M  V30 4830 H 449.906 1.3623 1.53722 0
M  V30 4831 H 448.136 0.290301 3.85609 0
M  V30 4832 H 449.825 0.683279 4.00108 0
M  V30 4833 H 450.591 3.14718 3.69022 0
M  V30 4834 H 446.47 2.00993 4.14877 0
M  V30 4835 H 450.014 5.45642 4.3465 0
M  V30 4836 H 445.911 4.31013 4.80518 0
M  V30 4837 H 446.679 6.35591 5.15719 0
M  V30 4838 N 449.342 -1.36122 0.79427 0
M  V30 4839 C 450.588 -1.99406 0.369452 0
M  V30 4840 C 450.921 -1.62886 -1.05743 0
M  V30 4841 O 450.196 -0.886053 -1.73145 0
M  V30 4842 C 450.479 -3.56046 0.538833 0
M  V30 4843 C 450.332 -4.02404 2.00976 0
M  V30 4844 C 451.651 -4.40079 -0.0431359 0
M  V30 4845 H 448.77 -0.724397 0.135712 0
M  V30 4846 H 451.412 -1.61461 1.00151 0
M  V30 4847 H 449.562 -3.885 0.000771004 0
M  V30 4848 H 451.234 -3.80415 2.60926 0
M  V30 4849 H 449.477 -3.53765 2.51063 0
M  V30 4850 H 450.148 -5.11344 2.07922 0
M  V30 4851 H 452.624 -4.14013 0.416228 0
M  V30 4852 H 451.5 -5.48799 0.105374 0
M  V30 4853 H 451.761 -4.27264 -1.13571 0
M  V30 4854 N 450.82 -0.546701 -1.47814 0
M  V30 4855 C 452.045 -0.021268 -2.07389 0
M  V30 4856 C 452.47 1.25822 -1.39822 0
M  V30 4857 O 451.828 1.75111 -0.46968 0
M  V30 4858 C 451.876 0.168502 -3.60206 0
M  V30 4859 O 450.98 1.23347 -3.93522 0
M  V30 4860 H 450.321 -0.0466108 -0.662362 0
M  V30 4861 H 452.851 -0.759387 -1.89985 0
M  V30 4862 H 452.861 0.385982 -4.0617 0
M  V30 4863 H 451.536 -0.766075 -4.08784 0
M  V30 4864 H 450.113 0.997319 -3.59316 0
M  V30 4865 N 452.299 1.55045 -0.282633 0
M  V30 4866 C 453.229 2.2579 0.595066 0
M  V30 4867 C 454.21 1.25074 1.15284 0
M  V30 4868 O 455.395 1.5381 1.18559 0
M  V30 4869 C 452.525 2.98472 1.77572 0
M  V30 4870 C 451.479 4.0618 1.34914 0
M  V30 4871 C 450.805 4.66477 2.6135 0
M  V30 4872 C 452.105 5.1996 0.493821 0
M  V30 4873 H 453.799 2.994 0.00505653 0
M  V30 4874 H 451.345 1.44 0.000992001 0
M  V30 4875 H 453.298 3.46677 2.39568 0
M  V30 4876 H 452.022 2.2241 2.39168 0
M  V30 4877 H 450.681 3.58797 0.752338 0
M  V30 4878 H 450.329 3.87074 3.2122 0
M  V30 4879 H 450.029 5.39207 2.33516 0
M  V30 4880 H 451.553 5.17435 3.24181 0
M  V30 4881 H 452.967 5.64172 1.01898 0
M  V30 4882 H 451.364 5.99299 0.310047 0
M  V30 4883 H 452.434 4.82462 -0.485593 0
M  V30 4884 N 453.777 0.010035 1.57597 0
M  V30 4885 C 455.026 -0.671945 1.90178 0
M  V30 4886 C 455.339 -1.74376 0.886131 0
M  V30 4887 O 456.545 -2.48107 1.10252 0
M  V30 4888 C 455.001 -1.24636 3.3763 0
M  V30 4889 C 454.609 -0.208838 4.47513 0
M  V30 4890 C 456.353 -1.90595 3.79307 0
M  V30 4891 C 454.26 -0.793814 5.86048 0
M  V30 4892 H 453.19 -0.25474 0.709665 0
M  V30 4893 H 455.841 0.0722206 1.83358 0
M  V30 4894 H 454.223 -2.04152 3.3932 0
M  V30 4895 H 455.397 0.562463 4.57354 0
M  V30 4896 H 453.712 0.350889 4.14919 0
M  V30 4897 H 456.309 -2.35284 4.80151 0
M  V30 4898 H 456.652 -2.74074 3.13352 0
M  V30 4899 H 457.185 -1.17798 3.79958 0
M  V30 4900 H 453.924 0.00240855 6.555 0
M  V30 4901 H 453.444 -1.53404 5.79851 0
M  V30 4902 H 455.123 -1.2894 6.34022 0
M  V30 4903 N 455.255 -1.55392 -0.262866 0
M  V30 4904 C 456.483 -1.80513 -1.01108 0
M  V30 4905 C 456.898 -0.583533 -1.79556 0
M  V30 4906 O 456.255 0.447585 -1.76926 0
M  V30 4907 C 456.306 -3.03648 -1.96164 0
M  V30 4908 O 456.027 -4.2109 -1.20893 0
M  V30 4909 C 457.528 -3.41448 -2.82715 0
M  V30 4910 H 454.748 -0.601079 -0.298236 0
M  V30 4911 H 457.292 -2.02425 -0.290582 0
M  V30 4912 H 455.447 -2.83832 -2.63663 0
M  V30 4913 H 455.861 -4.90771 -1.85051 0
M  V30 4914 H 457.335 -4.30751 -3.45192 0
M  V30 4915 H 457.812 -2.61308 -3.53008 0
M  V30 4916 H 458.418 -3.63559 -2.20693 0
M  V30 4917 N 456.733 0.527833 -1.48498 0
M  V30 4918 C 457.958 1.313 -1.60546 0
M  V30 4919 C 458.383 1.86199 -0.26672 0
M  V30 4920 O 457.741 1.64513 0.761918 0
M  V30 4921 C 457.789 2.43818 -2.65678 0
M  V30 4922 O 456.893 3.46916 -2.22987 0
M  V30 4923 H 456.234 0.388784 -0.538277 0
M  V30 4924 H 458.764 0.634896 -1.945 0
M  V30 4925 H 458.774 2.89973 -2.87018 0
M  V30 4926 H 457.449 2.03222 -3.62869 0
M  V30 4927 H 456.026 3.06864 -2.11869 0
M  V30 4928 N 458.211 1.37122 0.776871 0
M  V30 4929 C 459.441 1.35034 1.56363 0
M  V30 4930 C 459.849 -0.0674681 1.8908 0
M  V30 4931 O 459.192 -1.03826 1.51545 0
M  V30 4932 C 459.254 2.11894 2.90415 0
M  V30 4933 C 458.918 3.60897 2.80362 0
M  V30 4934 C 459.915 4.54887 2.51742 0
M  V30 4935 C 457.6 4.03951 2.98545 0
M  V30 4936 C 459.594 5.89909 2.41426 0
M  V30 4937 C 457.281 5.3906 2.87849 0
M  V30 4938 C 458.279 6.31852 2.5933 0
M  V30 4939 O 457.967 7.64479 2.48651 0
M  V30 4940 H 457.699 0.464402 0.49123 0
M  V30 4941 H 460.253 1.80992 0.971127 0
M  V30 4942 H 458.483 1.60618 3.51765 0
M  V30 4943 H 460.172 2.02505 3.51776 0
M  V30 4944 H 460.938 4.22934 2.37385 0
M  V30 4945 H 456.817 3.3209 3.19746 0
M  V30 4946 H 460.361 6.62304 2.19086 0
M  V30 4947 H 456.258 5.70617 3.01773 0
M  V30 4948 H 457.026 7.74742 2.64039 0
M  V30 4949 N 459.689 -1.00246 1.21608 0
M  V30 4950 C 460.621 -2.09244 0.935401 0
M  V30 4951 C 461.634 -1.62592 -0.0823594 0
M  V30 4952 O 462.823 -1.77865 0.150456 0
M  V30 4953 C 459.923 -3.36724 0.383453 0
M  V30 4954 C 459.096 -4.1245 1.45615 0
M  V30 4955 C 458.155 -5.18219 0.912991 0
M  V30 4956 O 457.181 -5.46337 1.59701 0
M  V30 4957 N 458.383 -5.7987 -0.270478 0
M  V30 4958 H 461.148 -2.33905 1.87373 0
M  V30 4959 H 458.709 -1.16748 1.12167 0
M  V30 4960 H 460.701 -4.047 0.00562157 0
M  V30 4961 H 459.271 -3.09201 -0.459758 0
M  V30 4962 H 458.491 -3.39241 2.00772 0
M  V30 4963 H 459.779 -4.59819 2.17817 0
M  V30 4964 H 459.177 -5.59381 -0.843195 0
M  V30 4965 H 457.734 -6.49126 -0.589794 0
M  V30 4966 N 461.167 -1.02423 -1.1978 0
M  V30 4967 C 462.578 -0.748389 -1.71044 0
M  V30 4968 C 462.929 0.732398 -1.82017 0
M  V30 4969 O 462.054 1.57116 -1.48807 0
M  V30 4970 C 462.649 -1.35187 -3.1066 0
M  V30 4971 C 461.208 -1.12472 -3.59203 0
M  V30 4972 C 460.355 -1.45283 -2.36195 0
M  V30 4973 H 463.306 -1.19275 -1.04686 0
M  V30 4974 H 463.327 -0.746408 -3.73107 0
M  V30 4975 H 462.839 -2.4296 -3.02642 0
M  V30 4976 H 460.94 -0.0649983 -3.72543 0
M  V30 4977 H 461.053 -1.81016 -4.43588 0
M  V30 4978 H 459.417 -0.872034 -2.39307 0
M  V30 4979 H 460.2 -2.54129 -2.30811 0
M  V30 4980 N 462.645 1.35699 -0.801477 0
M  V30 4981 C 463.892 1.98913 -0.379459 0
M  V30 4982 C 464.22 1.63592 1.05204 0
M  V30 4983 O 463.475 0.888563 1.74365 0
M  V30 4984 C 463.774 3.53828 -0.504041 0
M  V30 4985 C 463.44 4.09002 -1.8981 0
M  V30 4986 C 462.102 4.23783 -2.27951 0
M  V30 4987 C 464.454 4.38939 -2.81038 0
M  V30 4988 C 461.782 4.65816 -3.56696 0
M  V30 4989 C 464.134 4.82409 -4.09224 0
M  V30 4990 C 462.798 4.95395 -4.4737 0
M  V30 4991 H 462.068 0.727874 -0.138854 0
M  V30 4992 H 464.715 1.61994 -1.02128 0
M  V30 4993 H 463.02 3.91175 0.221242 0
M  V30 4994 H 464.717 4.00687 -0.158361 0
M  V30 4995 H 461.307 3.97946 -1.59176 0
M  V30 4996 H 465.491 4.27077 -2.52821 0
M  V30 4997 H 460.747 4.74059 -3.86106 0
M  V30 4998 H 464.921 5.04535 -4.80018 0
M  V30 4999 H 462.548 5.27724 -5.47185 0
M  V30 5000 N 464.123 0.554532 1.47522 0
M  V30 5001 C 465.348 0.0322661 2.07375 0
M  V30 5002 C 465.773 -1.25079 1.40488 0
M  V30 5003 O 465.131 -1.74859 0.47896 0
M  V30 5004 C 465.179 -0.149397 3.6029 0
M  V30 5005 O 464.283 -1.21259 3.9417 0
M  V30 5006 H 463.624 0.0501228 0.662106 0
M  V30 5007 H 466.154 0.769452 1.8958 0
M  V30 5008 H 466.164 -0.364437 4.06369 0
M  V30 5009 H 464.839 0.787743 4.08372 0
M  V30 5010 H 463.416 -0.97825 3.5984 0
M  V30 5011 N 465.601 -1.54893 0.290851 0
M  V30 5012 C 466.531 -2.26103 -0.583084 0
M  V30 5013 C 467.512 -1.25684 -1.14619 0
M  V30 5014 O 468.697 -1.54436 -1.17741 0
M  V30 5015 C 465.827 -2.99409 -1.75987 0
M  V30 5016 C 464.781 -4.0689 -1.32758 0
M  V30 5017 C 464.107 -4.67856 -2.58872 0
M  V30 5018 C 465.407 -5.20215 -0.46624 0
M  V30 5019 H 467.101 -2.99398 0.0108214 0
M  V30 5020 H 464.647 -1.43998 0.00664468 0
M  V30 5021 H 466.6 -3.47943 -2.37727 0
M  V30 5022 H 465.324 -2.23675 -2.37985 0
M  V30 5023 H 463.983 -3.59191 -0.733299 0
M  V30 5024 H 463.631 -3.88772 -3.19163 0
M  V30 5025 H 463.331 -5.40438 -2.30653 0
M  V30 5026 H 464.855 -5.19147 -3.21433 0
M  V30 5027 H 466.269 -5.64704 -0.989047 0
M  V30 5028 H 464.666 -5.99455 -0.27826 0
M  V30 5029 H 465.736 -4.82198 0.511173 0
M  V30 5030 N 467.08 -0.0183926 -1.57589 0
M  V30 5031 C 467.99 0.982943 -2.13015 0
M  V30 5032 C 469.006 1.36443 -1.07979 0
M  V30 5033 O 470.182 1.44802 -1.3998 0
M  V30 5034 C 467.247 2.25024 -2.63752 0
M  V30 5035 C 466.308 1.93018 -3.83461 0
M  V30 5036 C 465.541 3.13706 -4.31769 0
M  V30 5037 O 465.764 4.2601 -3.79305 0
M  V30 5038 O 464.698 2.96629 -5.23732 0
M  V30 5039 H 468.524 0.541709 -2.9883 0
M  V30 5040 H 466.109 0.201565 -1.48034 0
M  V30 5041 H 467.991 2.99441 -2.96502 0
M  V30 5042 H 466.666 2.68349 -1.81026 0
M  V30 5043 H 465.573 1.16019 -3.55655 0
M  V30 5044 H 466.906 1.54516 -4.67317 0
M  V30 5045 N 468.558 1.5553 0.254621 0
M  V30 5046 C 469.505 1.89666 1.31512 0
M  V30 5047 C 470.475 0.750057 1.482 0
M  V30 5048 O 471.66 1.00301 1.62309 0
M  V30 5049 C 468.8 2.19009 2.667 0
M  V30 5050 C 467.913 3.46435 2.58083 0
M  V30 5051 C 467.048 3.65386 3.85573 0
M  V30 5052 C 466.087 4.8644 3.71541 0
M  V30 5053 N 465.224 5.01952 4.90906 0
M  V30 5054 H 470.064 2.80109 1.017 0
M  V30 5055 H 467.601 1.38666 0.490938 0
M  V30 5056 H 469.559 2.34025 3.45381 0
M  V30 5057 H 468.189 1.31779 2.94676 0
M  V30 5058 H 467.241 3.39792 1.71013 0
M  V30 5059 H 468.553 4.35258 2.43622 0
M  V30 5060 H 467.707 3.80319 4.72697 0
M  V30 5061 H 466.446 2.74781 4.02922 0
M  V30 5062 H 465.451 4.71491 2.82801 0
M  V30 5063 H 466.676 5.78497 3.55694 0
M  V30 5064 H 464.622 4.14283 5.08631 0
M  V30 5065 H 464.539 5.84851 4.79046 0
M  V30 5066 H 465.807 5.21289 5.7955 0
M  V30 5067 N 470.036 -0.519951 1.48776 0
M  V30 5068 C 470.946 -1.65025 1.66745 0
M  V30 5069 C 471.962 -1.6508 0.549954 0
M  V30 5070 O 473.138 -1.83848 0.822295 0
M  V30 5071 C 470.203 -3.0146 1.71238 0
M  V30 5072 C 469.264 -3.12182 2.94688 0
M  V30 5073 C 468.497 -4.42109 2.98958 0
M  V30 5074 O 468.72 -5.29799 2.1135 0
M  V30 5075 O 467.654 -4.57406 3.91233 0
M  V30 5076 H 471.48 -1.52801 2.62461 0
M  V30 5077 H 469.065 -0.694157 1.32294 0
M  V30 5078 H 470.947 -3.82584 1.76657 0
M  V30 5079 H 469.622 -3.13988 0.786975 0
M  V30 5080 H 468.529 -2.30316 2.94797 0
M  V30 5081 H 469.862 -3.04574 3.86646 0
M  V30 5082 N 471.514 -1.37532 -0.769588 0
M  V30 5083 C 472.76 -1.33057 -1.53048 0
M  V30 5084 C 473.093 0.0841865 -1.94017 0
M  V30 5085 O 472.368 1.04198 -1.64235 0
M  V30 5086 C 472.651 -2.27166 -2.79406 0
M  V30 5087 C 472.504 -3.77429 -2.44677 0
M  V30 5088 C 473.823 -2.19683 -3.81349 0
M  V30 5089 H 470.942 -0.484655 -0.555228 0
M  V30 5090 H 473.584 -1.68251 -0.882702 0
M  V30 5091 H 471.734 -1.97283 -3.34682 0
M  V30 5092 H 473.406 -4.17918 -1.953 0
M  V30 5093 H 471.649 -3.95892 -1.77346 0
M  V30 5094 H 472.32 -4.38716 -3.35011 0
M  V30 5095 H 474.796 -2.46029 -3.35573 0
M  V30 5096 H 473.672 -2.87668 -4.67481 0
M  V30 5097 H 473.933 -1.19045 -4.25771 0
M  V30 5098 N 472.992 0.995999 -1.22138 0
M  V30 5099 C 474.238 1.73767 -1.04561 0
M  V30 5100 C 474.571 1.89633 0.418698 0
M  V30 5101 O 473.846 1.43723 1.3105 0
M  V30 5102 C 474.129 3.14505 -1.75382 0
M  V30 5103 C 473.982 3.06306 -3.29388 0
M  V30 5104 C 475.301 4.13615 -1.50369 0
M  V30 5105 H 472.42 0.630728 -0.38125 0
M  V30 5106 H 475.062 1.16057 -1.50435 0
M  V30 5107 H 473.212 3.63775 -1.36383 0
M  V30 5108 H 474.884 2.64681 -3.77812 0
M  V30 5109 H 473.127 2.43186 -3.59226 0
M  V30 5110 H 473.798 4.05884 -3.74116 0
M  V30 5111 H 476.274 3.73089 -1.84239 0
M  V30 5112 H 475.15 5.10212 -2.02421 0
M  V30 5113 H 475.411 4.39949 -0.435611 0
M  V30 5114 N 474.47 1.03057 1.19235 0
M  V30 5115 C 475.71 0.736757 1.9066 0
M  V30 5116 C 476.074 -0.721521 1.77927 0
M  V30 5117 O 477.275 -1.12849 2.43964 0
M  V30 5118 C 475.546 1.17755 3.37444 0
M  V30 5119 S 477.105 1.00783 4.27069 0
M  V30 5120 H 473.923 0.268174 0.658486 0
M  V30 5121 H 476.525 1.32076 1.4414 0
M  V30 5122 H 475.229 2.23448 3.44237 0
M  V30 5123 H 474.76 0.586912 3.88997 0
M  V30 5124 H 476.775 -0.0806356 4.96134 0
M  V30 5125 N 475.948 -1.35272 0.808662 0
M  V30 5126 C 476.858 -2.33546 0.222079 0
M  V30 5127 C 477.874 -1.6196 -0.636011 0
M  V30 5128 O 479.05 -1.93822 -0.547274 0
M  V30 5129 C 476.115 -3.41148 -0.61795 0
M  V30 5130 C 475.176 -4.28507 0.260875 0
M  V30 5131 C 474.409 -5.3097 -0.539156 0
M  V30 5132 O 474.632 -5.42123 -1.77367 0
M  V30 5133 O 473.566 -6.01858 0.0710526 0
M  V30 5134 H 477.392 -2.85515 1.03512 0
M  V30 5135 H 474.977 -1.38079 0.570495 0
M  V30 5136 H 476.859 -4.06889 -1.09634 0
M  V30 5137 H 475.534 -2.91447 -1.40855 0
M  V30 5138 H 474.441 -3.6574 0.786451 0
M  V30 5139 H 475.774 -4.81611 1.01547 0
M  V30 5140 N 477.426 -0.562348 -1.47226 0
M  V30 5141 C 478.336 0.185466 -2.33866 0
M  V30 5142 C 479.352 0.906713 -1.48508 0
M  V30 5143 O 480.528 0.874458 -1.81425 0
M  V30 5144 C 477.593 1.19904 -3.25306 0
M  V30 5145 C 476.654 0.484669 -4.26555 0
M  V30 5146 C 475.887 1.44996 -5.13626 0
M  V30 5147 O 476.11 2.68515 -5.03245 0
M  V30 5148 O 475.044 0.971642 -5.94006 0
M  V30 5149 H 478.87 -0.525361 -2.99121 0
M  V30 5150 H 476.455 -0.322916 -1.45868 0
M  V30 5151 H 478.337 1.78399 -3.81774 0
M  V30 5152 H 477.012 1.8917 -2.62672 0
M  V30 5153 H 475.919 -0.141605 -3.73832 0
M  V30 5154 H 477.252 -0.166634 -4.91918 0
M  V30 5155 N 478.904 1.54736 -0.299062 0
M  V30 5156 C 480.315 1.8569 0.193971 0
M  V30 5157 C 480.666 1.22101 1.53577 0
M  V30 5158 O 479.791 0.51799 2.10109 0
M  V30 5159 C 480.386 3.36895 0.358733 0
M  V30 5160 C 478.945 3.67887 0.795986 0
M  V30 5161 C 478.092 2.77131 -0.096807 0
M  V30 5162 H 481.043 1.49934 -0.520134 0
M  V30 5163 H 481.064 3.61294 1.19361 0
M  V30 5164 H 480.576 3.83148 -0.617998 0
M  V30 5165 H 478.677 3.27151 1.78334 0
M  V30 5166 H 478.79 4.75114 0.616718 0
M  V30 5167 H 477.154 2.51153 0.423581 0
M  V30 5168 H 477.937 3.26204 -1.06986 0
M  V30 5169 N 480.382 0.0267497 1.57577 0
M  V30 5170 C 481.312 -0.954308 2.13108 0
M  V30 5171 C 482.293 -1.34088 1.04663 0
M  V30 5172 O 483.478 -1.41992 1.32484 0
M  V30 5173 C 480.608 -2.23744 2.65624 0
M  V30 5174 C 479.562 -1.99168 3.78835 0
M  V30 5175 C 478.888 -3.33726 4.17769 0
M  V30 5176 C 480.188 -1.33277 5.0501 0
M  V30 5177 H 481.882 -0.491848 2.95332 0
M  V30 5178 H 479.428 -0.23514 1.42067 0
M  V30 5179 H 481.381 -2.92754 3.03106 0
M  V30 5180 H 480.105 -2.72151 1.80558 0
M  V30 5181 H 478.764 -1.32577 3.41788 0
M  V30 5182 H 478.412 -3.79888 3.29688 0
M  V30 5183 H 478.112 -3.18089 4.94058 0
M  V30 5184 H 479.636 -4.04008 4.57832 0
M  V30 5185 H 481.05 -1.92283 5.40093 0
M  V30 5186 H 479.447 -1.28045 5.8628 0
M  V30 5187 H 480.517 -0.305411 4.83937 0
M  V30 5188 N 481.861 -1.55662 -0.24637 0
M  V30 5189 C 483.086 -1.81914 -0.996093 0
M  V30 5190 C 483.511 -0.603875 -1.78143 0
M  V30 5191 O 482.869 0.447091 -1.75701 0
M  V30 5192 C 482.917 -3.05908 -1.90925 0
M  V30 5193 O 482.021 -2.82861 -3.00105 0
M  V30 5194 H 481.362 -0.600481 -0.283406 0
M  V30 5195 H 483.892 -2.02848 -0.267199 0
M  V30 5196 H 483.902 -3.35356 -2.3238 0
M  V30 5197 H 482.577 -3.93999 -1.33183 0
M  V30 5198 H 481.154 -2.64583 -2.62775 0
M  V30 5199 N 483.339 0.512053 -1.4905 0
M  V30 5200 C 484.75 1.09376 -1.51307 0
M  V30 5201 C 485.101 1.94 -0.292971 0
M  V30 5202 O 484.226 2.07965 0.598277 0
M  V30 5203 C 484.821 1.99031 -2.74176 0
M  V30 5204 C 483.38 2.52385 -2.79247 0
M  V30 5205 C 482.527 1.29749 -2.45073 0
M  V30 5206 H 485.478 0.296467 -1.55906 0
M  V30 5207 H 485.499 2.83569 -2.53711 0
M  V30 5208 H 485.011 1.37412 -3.62959 0
M  V30 5209 H 483.112 3.17673 -1.94716 0
M  V30 5210 H 483.225 2.90293 -3.81139 0
M  V30 5211 H 481.589 1.61912 -1.96612 0
M  V30 5212 H 482.372 0.698555 -3.36118 0
M  V30 5213 N 484.817 1.37938 0.762283 0
M  V30 5214 C 485.78 1.34279 1.85747 0
M  V30 5215 C 486.78 0.244969 1.58923 0
M  V30 5216 O 487.97 0.501365 1.66829 0
M  V30 5217 C 485.102 1.08833 3.23061 0
M  V30 5218 H 486.295 2.31705 1.90401 0
M  V30 5219 H 483.848 1.23105 0.963057 0
M  V30 5220 H 484.583 0.119767 3.24079 0
M  V30 5221 H 484.368 1.88306 3.43923 0
M  V30 5222 H 485.858 1.08946 4.03138 0
M  V30 5223 N 486.295 -0.989507 1.22664 0
M  V30 5224 C 487.523 -1.76496 1.07967 0
M  V30 5225 C 487.938 -1.85148 -0.369543 0
M  V30 5226 O 487.295 -1.32408 -1.25596 0
M  V30 5227 C 487.346 -3.19642 1.68853 0
M  V30 5228 O 487.067 -3.11453 3.08105 0
M  V30 5229 C 488.568 -4.13621 1.59475 0
M  V30 5230 H 485.788 -0.55418 0.378319 0
M  V30 5231 H 488.332 -1.24378 1.62328 0
M  V30 5232 H 486.487 -3.68816 1.18547 0
M  V30 5233 H 486.901 -4.01499 3.37489 0
M  V30 5234 H 488.375 -5.11801 2.06795 0
M  V30 5235 H 488.852 -4.35718 0.55191 0
M  V30 5236 H 489.458 -3.70346 2.09103 0
M  V30 5237 N 487.773 -1.03688 -1.18687 0
M  V30 5238 C 489.019 -0.739123 -1.88851 0
M  V30 5239 C 489.352 0.731042 -1.79915 0
M  V30 5240 O 488.627 1.53313 -1.19688 0
M  V30 5241 C 488.91 -1.20106 -3.3948 0
M  V30 5242 C 488.763 -2.73304 -3.57246 0
M  V30 5243 C 490.082 -0.788134 -4.32986 0
M  V30 5244 H 487.201 -0.269978 -0.68577 0
M  V30 5245 H 489.843 -1.28822 -1.3966 0
M  V30 5246 H 487.993 -0.733915 -3.81505 0
M  V30 5247 H 489.665 -3.28027 -3.24339 0
M  V30 5248 H 487.908 -3.13313 -3.00029 0
M  V30 5249 H 488.579 -3.00684 -4.62918 0
M  V30 5250 H 491.055 -1.19005 -3.98719 0
M  V30 5251 H 489.931 -1.13915 -5.36949 0
M  V30 5252 H 490.192 0.308988 -4.41019 0
M  V30 5253 N 489.251 1.34841 -0.815825 0
M  V30 5254 C 490.662 1.80937 -0.46029 0
M  V30 5255 C 491.013 1.67685 1.01863 0
M  V30 5256 O 490.138 1.21277 1.79223 0
M  V30 5257 C 490.733 3.28509 -0.828708 0
M  V30 5258 C 489.292 3.72712 -0.525644 0
M  V30 5259 C 488.439 2.56676 -1.04941 0
M  V30 5260 H 491.39 1.22688 -1.00664 0
M  V30 5261 H 491.411 3.80279 -0.129757 0
M  V30 5262 H 490.923 3.38122 -1.90513 0
M  V30 5263 H 489.024 3.68642 0.541666 0
M  V30 5264 H 489.137 4.67119 -1.06474 0
M  V30 5265 H 487.501 2.50302 -0.471286 0
M  V30 5266 H 488.284 2.69063 -2.13214 0
M  V30 5267 N 490.729 0.570148 1.46925 0
M  V30 5268 C 491.977 0.0508523 2.02036 0
M  V30 5269 C 492.298 -1.30885 1.44548 0
M  V30 5270 O 491.568 -1.85647 0.625453 0
M  V30 5271 H 490.148 0.0158088 0.746833 0
M  V30 5272 H 492.81 0.743086 1.80178 0
M  V30 5273 H 491.906 -0.027575 3.12088 0
M  V30 5274 N 492.207 -1.54576 0.307264 0
M  V30 5275 C 493.14 -2.19946 -0.608195 0
M  V30 5276 C 494.118 -1.17096 -1.12815 0
M  V30 5277 O 495.302 -1.45766 -1.19518 0
M  V30 5278 C 492.429 -2.84826 -1.8328 0
M  V30 5279 C 491.475 -4.01256 -1.44554 0
M  V30 5280 S 492.308 -5.33197 -0.49612 0
M  V30 5281 C 493.464 -6.01563 -1.72838 0
M  V30 5282 H 493.697 -2.97253 -0.0528544 0
M  V30 5283 H 491.23 -1.54129 0.0913837 0
M  V30 5284 H 493.188 -3.22832 -2.53554 0
M  V30 5285 H 491.849 -2.07353 -2.35931 0
M  V30 5286 H 491.042 -4.45457 -2.35762 0
M  V30 5287 H 490.644 -3.6484 -0.822671 0
M  V30 5288 H 492.936 -6.22751 -2.6681 0
M  V30 5289 H 493.879 -6.9552 -1.32882 0
M  V30 5290 H 494.287 -5.31279 -1.90795 0
M  V30 5291 N 493.685 -0.035106 -1.57561 0
M  V30 5292 C 494.635 0.954034 -2.0708 0
M  V30 5293 C 495.619 1.2818 -0.972558 0
M  V30 5294 O 496.811 1.26691 -1.23606 0
M  V30 5295 C 493.94 2.23442 -2.60631 0
M  V30 5296 C 493.026 1.93475 -3.77396 0
M  V30 5297 N 493.417 1.33802 -4.87781 0
M  V30 5298 C 491.715 2.23434 -3.85996 0
M  V30 5299 C 492.416 1.21103 -5.68954 0
M  V30 5300 N 491.392 1.70855 -5.16052 0
M  V30 5301 H 495.194 0.487731 -2.89825 0
M  V30 5302 H 492.708 0.169759 -1.6151 0
M  V30 5303 H 494.705 2.95183 -2.94402 0
M  V30 5304 H 493.365 2.70693 -1.79319 0
M  V30 5305 H 494.376 1.01227 -5.07911 0
M  V30 5306 H 491.053 2.73317 -3.15601 0
M  V30 5307 H 492.443 0.749105 -6.67711 0
M  V30 5308 N 495.163 1.55791 0.238111 0
M  V30 5309 C 496.391 1.82098 0.982233 0
M  V30 5310 C 496.806 0.612025 1.78605 0
M  V30 5311 O 496.163 -0.419381 1.77616 0
M  V30 5312 C 496.214 3.0673 1.91309 0
M  V30 5313 O 495.935 4.2296 1.14179 0
M  V30 5314 C 497.436 3.45903 2.77248 0
M  V30 5315 H 494.656 0.605748 0.288635 0
M  V30 5316 H 497.2 2.02862 0.258341 0
M  V30 5317 H 495.355 2.87991 2.59114 0
M  V30 5318 H 495.769 4.93653 1.7722 0
M  V30 5319 H 497.243 4.36189 3.38295 0
M  V30 5320 H 497.72 2.66891 3.48806 0
M  V30 5321 H 498.326 3.67024 2.14881 0
M  V30 5322 N 496.642 -0.504142 1.49319 0
M  V30 5323 C 497.552 -1.63248 1.68486 0
M  V30 5324 C 498.568 -1.64488 0.567432 0
M  V30 5325 O 499.744 -1.82966 0.841749 0
M  V30 5326 C 496.809 -2.99627 1.74426 0
M  V30 5327 C 495.87 -3.09039 2.97982 0
M  V30 5328 C 495.103 -4.38913 3.0363 0
M  V30 5329 O 495.326 -5.27528 2.16958 0
M  V30 5330 O 494.26 -4.53231 3.96062 0
M  V30 5331 H 498.086 -1.50008 2.64067 0
M  V30 5332 H 495.671 -0.680086 1.33023 0
M  V30 5333 H 497.553 -3.80689 1.80705 0
M  V30 5334 H 496.228 -3.13136 0.820233 0
M  V30 5335 H 495.135 -2.27177 2.97223 0
M  V30 5336 H 496.468 -3.00456 3.89855 0
M  V30 5337 N 498.12 -1.38341 -0.754957 0
M  V30 5338 C 499.397 -1.24995 -1.50451 0
M  V30 5339 C 499.777 0.149244 -2.10572 0
M  V30 5340 O 499.125 1.15861 -1.96948 0
M  V30 5341 C 499.335 -2.35904 -2.57197 0
M  V30 5342 C 500.683 -2.74262 -3.24138 0
M  V30 5343 O 501.707 -2.35205 -2.67501 0
M  V30 5344 O 500.566 -3.4161 -4.26574 0
M  V30 5345 H 497.66 -0.48872 -0.667144 0
M  V30 5346 H 500.206 -1.50165 -0.790486 0
M  V30 5347 H 498.978 -3.2953 -2.11011 0
M  V30 5348 H 498.601 -2.12291 -3.36182 0
M  V30 5349 N 499.598 0.982988 -1.23187 0
M  V30 5350 C 500.546 2.09616 -1.00817 0
M  V30 5351 C 501.54 1.6932 0.0519995 0
M  V30 5352 O 502.746 1.79715 -0.101284 0
M  V30 5353 H 499.121 0.685628 -0.308899 0
M  V30 5354 H 501.092 2.25652 -1.95253 0
M  V30 5355 C 499.841 3.42249 -0.613243 0
M  V30 5356 H 499.164 3.73705 -1.42073 0
M  V30 5357 H 500.604 4.21086 -0.496208 0
M  V30 5358 C 499.063 3.30002 0.678233 0
M  V30 5359 O 499.593 3.6263 1.72807 0
M  V30 5360 N 497.799 2.83164 0.653165 0
M  V30 5361 H 497.346 2.56811 -0.201492 0
M  V30 5362 H 497.304 2.75352 1.51752 0
M  V30 5363 N 501.076 1.04316 1.18135 0
M  V30 5364 C 502.487 0.775505 1.69832 0
M  V30 5365 C 502.838 -0.703348 1.8316 0
M  V30 5366 O 501.963 -1.54729 1.51287 0
M  V30 5367 C 502.558 1.40112 3.0847 0
M  V30 5368 C 501.117 1.18172 3.57368 0
M  V30 5369 C 500.264 1.49022 2.33854 0
M  V30 5370 H 503.215 1.20925 1.02775 0
M  V30 5371 H 503.236 0.805672 3.71873 0
M  V30 5372 H 502.748 2.47744 2.98738 0
M  V30 5373 H 500.849 0.124258 3.72393 0
M  V30 5374 H 500.962 1.8805 4.40652 0
M  V30 5375 H 499.326 0.909995 2.37889 0
M  V30 5376 H 500.109 2.57768 2.26738 0
M  V30 5377 N 502.554 -1.34406 0.822964 0
M  V30 5378 C 503.802 -1.97892 0.410245 0
M  V30 5379 C 504.123 -1.65567 -1.03017 0
M  V30 5380 O 503.393 -0.94642 -1.71522 0
M  V30 5381 H 501.973 -0.732049 0.148707 0
M  V30 5382 H 504.635 -1.64043 1.05242 0
M  V30 5383 H 503.731 -3.07579 0.529284 0
M  V30 5384 N 504.032 -0.577932 -1.46621 0
M  V30 5385 C 504.979 0.158048 -2.30258 0
M  V30 5386 C 505.949 0.888669 -1.40328 0
M  V30 5387 O 507.134 0.880283 -1.6928 0
M  V30 5388 C 504.274 1.16884 -3.24703 0
M  V30 5389 C 503.387 0.442163 -4.29731 0
M  V30 5390 C 502.522 1.44007 -5.11308 0
M  V30 5391 C 501.561 0.69952 -6.0809 0
M  V30 5392 N 500.698 1.64525 -6.82551 0
M  V30 5393 H 505.538 -0.561242 -2.92667 0
M  V30 5394 H 503.075 -0.288591 -1.44241 0
M  V30 5395 H 505.033 1.7677 -3.779 0
M  V30 5396 H 503.663 1.85591 -2.64113 0
M  V30 5397 H 502.715 -0.271632 -3.79429 0
M  V30 5398 H 504.027 -0.136992 -4.98612 0
M  V30 5399 H 503.181 2.11186 -5.68758 0
M  V30 5400 H 501.92 2.05315 -4.42377 0
M  V30 5401 H 500.925 0.0139217 -5.49798 0
M  V30 5402 H 502.15 0.091894 -6.79038 0
M  V30 5403 H 500.096 2.24653 -6.16334 0
M  V30 5404 H 500.013 1.11878 -7.47676 0
M  V30 5405 H 501.281 2.30754 -7.44562 0
M  V30 5406 N 505.51 1.54411 -0.315457 0
M  V30 5407 C 506.756 2.00716 0.289972 0
M  V30 5408 C 507.089 1.2034 1.5242 0
M  V30 5409 O 506.364 0.283579 1.92422 0
M  V30 5410 C 506.647 3.54507 0.632196 0
M  V30 5411 C 506.5 4.45615 -0.61218 0
M  V30 5412 C 507.819 4.15421 1.45305 0
M  V30 5413 H 504.938 0.729637 0.10392 0
M  V30 5414 H 507.58 1.8506 -0.430427 0
M  V30 5415 H 505.73 3.67979 1.24595 0
M  V30 5416 H 507.402 4.44026 -1.25053 0
M  V30 5417 H 505.645 4.15621 -1.24264 0
M  V30 5418 H 506.316 5.51022 -0.328379 0
M  V30 5419 H 508.792 4.05474 0.934331 0
M  V30 5420 H 507.668 5.23157 1.66127 0
M  V30 5421 H 507.929 3.68223 2.44671 0
M  V30 5422 N 506.988 0.0434614 1.5754 0
M  V30 5423 C 507.898 -0.94893 2.14552 0
M  V30 5424 C 508.914 -1.34707 1.10136 0
M  V30 5425 O 510.09 -1.42557 1.42266 0
M  V30 5426 C 507.155 -2.208 2.67298 0
M  V30 5427 C 506.216 -1.86893 3.86484 0
M  V30 5428 C 505.449 -3.06797 4.36705 0
M  V30 5429 O 505.672 -4.19921 3.86034 0
M  V30 5430 O 504.606 -2.8826 5.28384 0
M  V30 5431 H 508.432 -0.494099 2.99654 0
M  V30 5432 H 506.017 -0.177989 1.48336 0
M  V30 5433 H 507.899 -2.94686 3.01228 0
M  V30 5434 H 506.574 -2.65436 1.85272 0
M  V30 5435 H 505.481 -1.10347 3.57455 0
M  V30 5436 H 506.814 -1.47062 4.69716 0
M  V30 5437 N 508.466 -1.55915 -0.229846 0
M  V30 5438 C 509.416 -1.8813 -1.28807 0
M  V30 5439 C 510.4 -0.743621 -1.42685 0
M  V30 5440 O 511.592 -1.00588 -1.4564 0
M  V30 5441 C 508.721 -2.19431 -2.64017 0
M  V30 5442 C 507.807 -3.39569 -2.54074 0
M  V30 5443 N 508.198 -4.58404 -2.13774 0
M  V30 5444 C 506.496 -3.43019 -2.85051 0
M  V30 5445 C 507.197 -5.40557 -2.1488 0
M  V30 5446 N 506.173 -4.80054 -2.55047 0
M  V30 5447 H 509.975 -2.77527 -0.967261 0
M  V30 5448 H 507.489 -1.5637 -0.438433 0
M  V30 5449 H 509.486 -2.40681 -3.40409 0
M  V30 5450 H 508.146 -1.31341 -2.9695 0
M  V30 5451 H 509.157 -4.83716 -1.8504 0
M  V30 5452 H 505.834 -2.65249 -3.22411 0
M  V30 5453 H 507.224 -6.45666 -1.85918 0
M  V30 5454 N 509.944 0.496216 -1.49584 0
M  V30 5455 C 511.172 1.27394 -1.63029 0
M  V30 5456 C 511.587 1.86344 -0.303569 0
M  V30 5457 O 510.944 1.68057 0.711547 0
M  V30 5458 C 510.995 2.40077 -2.70269 0
M  V30 5459 O 510.716 1.83549 -3.97796 0
M  V30 5460 C 512.217 3.31372 -2.94462 0
M  V30 5461 H 509.437 0.386211 -0.54871 0
M  V30 5462 H 511.981 0.595163 -1.95648 0
M  V30 5463 H 510.136 3.03775 -2.40415 0
M  V30 5464 H 510.55 2.57561 -4.56905 0
M  V30 5465 H 512.024 4.06707 -3.73221 0
M  V30 5466 H 512.501 3.88654 -2.0456 0
M  V30 5467 H 513.107 2.73435 -3.25751 0
M  V30 5468 N 511.423 1.38739 0.74761 0
M  V30 5469 C 512.333 1.38696 1.89211 0
M  V30 5470 C 513.349 0.283303 1.71678 0
M  V30 5471 O 514.525 0.522713 1.94498 0
M  V30 5472 C 511.59 1.21662 3.24653 0
M  V30 5473 C 510.651 2.41886 3.54669 0
M  V30 5474 C 509.884 2.25655 4.83648 0
M  V30 5475 O 510.107 1.25339 5.56459 0
M  V30 5476 O 509.041 3.14372 5.13277 0
M  V30 5477 H 512.867 2.35143 1.92202 0
M  V30 5478 H 510.452 1.19721 0.893708 0
M  V30 5479 H 512.334 1.14246 4.05618 0
M  V30 5480 H 511.009 0.283024 3.2246 0
M  V30 5481 H 509.916 2.54877 2.73841 0
M  V30 5482 H 511.249 3.33895 3.61628 0
M  V30 5483 N 512.901 -0.976442 1.23707 0
M  V30 5484 C 513.811 -2.10359 1.03856 0
M  V30 5485 C 514.827 -1.73991 -0.0180919 0
M  V30 5486 O 516.003 -2.0061 0.178211 0
M  V30 5487 C 513.068 -3.40809 0.636387 0
M  V30 5488 C 512.129 -3.91179 1.76854 0
M  V30 5489 C 511.362 -5.15404 1.38546 0
M  V30 5490 O 511.585 -5.69754 0.27142 0
M  V30 5491 O 510.519 -5.5994 2.20797 0
M  V30 5492 H 514.345 -2.29997 1.98331 0
M  V30 5493 H 511.93 -1.08742 1.02448 0
M  V30 5494 H 513.812 -4.19269 0.423223 0
M  V30 5495 H 512.487 -3.22493 -0.279322 0
M  V30 5496 H 511.394 -3.13819 2.03638 0
M  V30 5497 H 512.727 -4.13958 2.6627 0
M  V30 5498 N 514.379 -1.04941 -1.1758 0
M  V30 5499 C 515.309 -0.669172 -2.23706 0
M  V30 5500 C 516.29 0.331835 -1.66832 0
M  V30 5501 O 517.475 0.209988 -1.93061 0
M  V30 5502 C 514.605 -0.0404889 -3.47276 0
M  V30 5503 C 513.559 -0.965983 -4.16957 0
M  V30 5504 C 512.885 -0.201312 -5.34321 0
M  V30 5505 C 514.185 -2.28902 -4.69469 0
M  V30 5506 H 515.879 -1.55639 -2.55767 0
M  V30 5507 H 513.425 -0.749793 -1.22939 0
M  V30 5508 H 515.378 0.237298 -4.20731 0
M  V30 5509 H 514.102 0.881658 -3.14475 0
M  V30 5510 H 512.761 -1.22829 -3.45411 0
M  V30 5511 H 512.409 0.723519 -4.97769 0
M  V30 5512 H 512.109 -0.817968 -5.81879 0
M  V30 5513 H 513.633 0.0692499 -6.10561 0
M  V30 5514 H 515.047 -2.07132 -5.34574 0
M  V30 5515 H 513.444 -2.85942 -5.27596 0
M  V30 5516 H 514.514 -2.92937 -3.86414 0
M  V30 5517 N 515.857 1.33968 -0.830081 0
M  V30 5518 C 517.082 2.02813 -0.433796 0
M  V30 5519 C 517.507 1.62076 0.954614 0
M  V30 5520 O 516.865 0.808955 1.62252 0
M  V30 5521 C 516.913 3.56348 -0.552115 0
M  V30 5522 O 516.017 4.10202 0.425191 0
M  V30 5523 H 515.358 0.639817 -0.177567 0
M  V30 5524 H 517.888 1.7106 -1.12248 0
M  V30 5525 H 517.898 4.05722 -0.430513 0
M  V30 5526 H 516.573 3.85344 -1.56471 0
M  V30 5527 H 515.15 3.71979 0.261878 0
M  V30 5528 N 517.335 0.585699 1.46312 0
M  V30 5529 C 518.56 0.0762461 2.0726 0
M  V30 5530 C 518.985 -1.22071 1.43109 0
M  V30 5531 O 518.343 -1.73804 0.515942 0
M  V30 5532 C 518.391 -0.0729404 3.60526 0
M  V30 5533 O 517.495 -1.1287 3.96654 0
M  V30 5534 H 516.836 0.0641558 0.660893 0
M  V30 5535 H 519.366 0.809492 1.87905 0
M  V30 5536 H 519.376 -0.278158 4.07051 0
M  V30 5537 H 518.051 0.874188 4.06609 0
M  V30 5538 H 516.628 -0.901703 3.61834 0
M  V30 5539 N 518.813 -1.54241 0.323641 0
M  V30 5540 C 520.062 -1.9975 -0.279806 0
M  V30 5541 C 520.375 -1.2156 -1.5324 0
M  V30 5542 O 521.581 -1.57447 -2.21185 0
M  V30 5543 C 520.037 -3.55686 -0.549115 0
M  V30 5544 C 519.645 -4.4271 0.686432 0
M  V30 5545 C 521.389 -4.09663 -1.11251 0
M  V30 5546 C 519.296 -5.90119 0.389022 0
M  V30 5547 H 518.226 -0.746177 -0.10833 0
M  V30 5548 H 520.877 -1.78248 0.435877 0
M  V30 5549 H 519.259 -3.73176 -1.32499 0
M  V30 5550 H 520.433 -4.36996 1.46188 0
M  V30 5551 H 518.748 -3.99623 1.17005 0
M  V30 5552 H 521.345 -5.17386 -1.34965 0
M  V30 5553 H 521.688 -3.61651 -2.06191 0
M  V30 5554 H 522.221 -3.95806 -0.39782 0
M  V30 5555 H 518.96 -6.42326 1.30759 0
M  V30 5556 H 518.48 -5.98785 -0.348722 0
M  V30 5557 H 520.159 -6.47 -0.0011164 0
M  V30 5558 N 520.291 -0.0518155 -1.57515 0
M  V30 5559 C 521.519 0.631395 -1.9703 0
M  V30 5560 C 521.934 1.64341 -0.92938 0
M  V30 5561 O 521.291 1.82296 0.0863266 0
M  V30 5562 C 521.342 1.31774 -3.36627 0
M  V30 5563 O 521.063 0.346247 -4.3673 0
M  V30 5564 C 522.564 2.09065 -3.90905 0
M  V30 5565 H 519.784 0.172576 -0.648428 0
M  V30 5566 H 522.328 -0.118306 -2.04158 0
M  V30 5567 H 520.483 2.01867 -3.30649 0
M  V30 5568 H 520.897 0.836226 -5.17791 0
M  V30 5569 H 522.371 2.52508 -4.9086 0
M  V30 5570 H 522.848 2.93908 -3.26366 0
M  V30 5571 H 523.454 1.43882 -4.00223 0
M  V30 5572 N 521.769 1.56035 0.221574 0
M  V30 5573 C 522.679 1.95581 1.29558 0
M  V30 5574 C 523.695 0.859639 1.51282 0
M  V30 5575 O 524.871 1.16321 1.64413 0
M  V30 5576 C 521.936 2.26447 2.62531 0
M  V30 5577 C 520.997 3.49632 2.4911 0
M  V30 5578 C 520.23 3.79017 3.75742 0
M  V30 5579 O 520.453 3.10077 4.78757 0
M  V30 5580 O 519.387 4.72507 3.72855 0
M  V30 5581 H 523.213 2.8711 0.990035 0
M  V30 5582 H 520.798 1.43244 0.424434 0
M  V30 5583 H 522.68 2.47494 3.41064 0
M  V30 5584 H 521.355 1.38092 2.92766 0
M  V30 5585 H 520.262 3.33864 1.68777 0
M  V30 5586 H 521.595 4.3837 2.23814 0
M  V30 5587 N 523.247 -0.488276 1.49845 0
M  V30 5588 C 524.493 -1.24341 1.6021 0
M  V30 5589 C 524.826 -1.91967 0.293651 0
M  V30 5590 O 524.101 -1.81323 -0.703718 0
M  V30 5591 C 524.384 -2.3005 2.77036 0
M  V30 5592 C 524.237 -1.66842 4.17713 0
M  V30 5593 C 525.556 -3.31509 2.89464 0
M  V30 5594 H 522.675 -0.450704 0.583125 0
M  V30 5595 H 525.317 -0.539673 1.82174 0
M  V30 5596 H 523.467 -2.90071 2.58439 0
M  V30 5597 H 525.139 -1.1055 4.47858 0
M  V30 5598 H 523.382 -0.972079 4.22768 0
M  V30 5599 H 524.053 -2.43576 4.95353 0
M  V30 5600 H 526.529 -2.81493 3.06433 0
M  V30 5601 H 525.405 -4.02822 3.72861 0
M  V30 5602 H 525.666 -3.94603 1.99351 0
M  V30 5603 N 524.725 -1.39134 -0.740242 0
M  V30 5604 C 525.971 -1.36273 -1.50192 0
M  V30 5605 C 526.304 0.0430136 -1.94152 0
M  V30 5606 O 525.579 1.00691 -1.66408 0
M  V30 5607 C 525.862 -2.33041 -2.74525 0
M  V30 5608 C 525.715 -3.82535 -2.36617 0
M  V30 5609 C 527.034 -2.27723 -3.76604 0
M  V30 5610 H 524.153 -0.496323 -0.544823 0
M  V30 5611 H 526.795 -1.70085 -0.846815 0
M  V30 5612 H 524.945 -2.04337 -3.30422 0
M  V30 5613 H 526.617 -4.21967 -1.86391 0
M  V30 5614 H 524.86 -3.99565 -1.68909 0
M  V30 5615 H 525.531 -4.45723 -3.2563 0
M  V30 5616 H 528.007 -2.53091 -3.30279 0
M  V30 5617 H 526.883 -2.97519 -4.61274 0
M  V30 5618 H 527.144 -1.28049 -4.2315 0
M  V30 5619 N 526.204 0.969867 -1.24223 0
M  V30 5620 C 527.432 1.74756 -1.10761 0
M  V30 5621 C 527.847 1.85713 0.340041 0
M  V30 5622 O 527.204 1.34389 1.23474 0
M  V30 5623 C 527.255 3.16915 -1.73917 0
M  V30 5624 O 526.976 3.06511 -3.13021 0
M  V30 5625 C 528.477 4.11032 -1.66036 0
M  V30 5626 H 525.697 0.548092 -0.387087 0
M  V30 5627 H 528.241 1.2178 -1.64286 0
M  V30 5628 H 526.396 3.66884 -1.244 0
M  V30 5629 H 526.81 3.96079 -3.43834 0
M  V30 5630 H 528.284 5.08446 -2.14911 0
M  V30 5631 H 528.761 4.34785 -0.621159 0
M  V30 5632 H 529.367 3.66972 -2.14969 0
M  V30 5633 N 527.682 1.05563 1.17022 0
M  V30 5634 C 528.91 0.78845 1.91288 0
M  V30 5635 C 529.325 -0.656318 1.77025 0
M  V30 5636 O 528.682 -1.44869 1.10992 0
M  V30 5637 C 528.733 1.16444 3.42232 0
M  V30 5638 O 528.454 2.5525 3.5606 0
M  V30 5639 C 529.955 0.923937 4.33565 0
M  V30 5640 H 527.175 0.286389 0.606813 0
M  V30 5641 H 529.719 1.4073 1.48375 0
M  V30 5642 H 527.874 0.590266 3.82877 0
M  V30 5643 H 528.288 2.70097 4.49609 0
M  V30 5644 H 529.762 1.23672 5.37968 0
M  V30 5645 H 530.239 -0.140688 4.38975 0
M  V30 5646 H 530.845 1.48214 3.98639 0
M  V30 5647 N 529.16 -1.33526 0.837174 0
M  V30 5648 C 530.07 -2.33023 0.271568 0
M  V30 5649 C 531.086 -1.63272 -0.601514 0
M  V30 5650 O 532.262 -1.94939 -0.506038 0
M  V30 5651 C 529.327 -3.42382 -0.545448 0
M  V30 5652 C 528.388 -4.27857 0.351709 0
M  V30 5653 C 527.621 -5.31994 -0.426409 0
M  V30 5654 O 527.844 -5.45763 -1.65828 0
M  V30 5655 O 526.778 -6.01572 0.1987 0
M  V30 5656 H 530.604 -2.83256 1.09545 0
M  V30 5657 H 528.189 -1.36837 0.599655 0
M  V30 5658 H 530.071 -4.09122 -1.00979 0
M  V30 5659 H 528.746 -2.94369 -1.34641 0
M  V30 5660 H 527.653 -3.6399 0.863853 0
M  V30 5661 H 528.986 -4.79349 1.1174 0
M  V30 5662 N 530.638 -0.59345 -1.46 0
M  V30 5663 C 531.548 0.135817 -2.34207 0
M  V30 5664 C 532.564 0.875008 -1.50398 0
M  V30 5665 O 533.74 0.835778 -1.83239 0
M  V30 5666 C 530.805 1.12977 -3.27776 0
M  V30 5667 C 529.866 0.394081 -4.27487 0
M  V30 5668 C 529.099 1.34068 -5.16586 0
M  V30 5669 O 529.322 2.5778 -5.08828 0
M  V30 5670 O 528.256 0.845426 -5.95933 0
M  V30 5671 H 532.082 -0.588691 -2.9794 0
M  V30 5672 H 529.667 -0.353784 -1.45151 0
M  V30 5673 H 531.549 1.70261 -3.85473 0
M  V30 5674 H 530.224 1.83556 -2.66625 0
M  V30 5675 H 529.131 -0.220869 -3.73447 0
M  V30 5676 H 530.464 -0.270939 -4.91454 0
M  V30 5677 N 532.116 1.54067 -0.331816 0
M  V30 5678 C 533.064 2.26105 0.54582 0
M  V30 5679 C 534.058 1.27816 1.11173 0
M  V30 5680 O 535.264 1.45565 1.05882 0
M  V30 5681 H 531.639 0.726363 0.194683 0
M  V30 5682 H 533.61 2.98282 -0.083931 0
M  V30 5683 C 532.359 3.03814 1.69092 0
M  V30 5684 H 531.682 3.79269 1.26473 0
M  V30 5685 H 533.122 3.57453 2.28043 0
M  V30 5686 C 531.581 2.12606 2.61343 0
M  V30 5687 O 532.111 1.71437 3.6328 0
M  V30 5688 N 530.317 1.77925 2.29763 0
M  V30 5689 H 529.864 2.11602 1.46909 0
M  V30 5690 H 529.822 1.1718 2.91747 0
M  V30 5691 N 533.594 0.0601682 1.57485 0
M  V30 5692 C 534.843 -0.611101 1.9222 0
M  V30 5693 C 535.156 -1.71469 0.941159 0
M  V30 5694 O 536.362 -2.44473 1.18089 0
M  V30 5695 C 534.818 -1.13832 3.41424 0
M  V30 5696 C 534.426 -0.0663596 4.47951 0
M  V30 5697 C 536.17 -1.78432 3.85178 0
M  V30 5698 C 534.077 -0.606965 5.88277 0
M  V30 5699 H 533.007 -0.232033 0.71741 0
M  V30 5700 H 535.658 0.130518 1.83035 0
M  V30 5701 H 534.04 -1.93254 3.45643 0
M  V30 5702 H 535.214 0.707682 4.55333 0
M  V30 5703 H 533.529 0.482715 4.13593 0
M  V30 5704 H 536.126 -2.1989 4.87394 0
M  V30 5705 H 536.469 -2.63966 3.21913 0
M  V30 5706 H 537.002 -1.05651 3.83514 0
M  V30 5707 H 533.741 0.21095 6.5516 0
M  V30 5708 H 533.261 -1.34879 5.84438 0
M  V30 5709 H 534.94 -1.08704 6.37803 0
M  V30 5710 N 535.072 -1.5615 -0.213296 0
M  V30 5711 C 536.483 -1.69645 -0.779582 0
M  V30 5712 C 536.834 -0.663615 -1.84636 0
M  V30 5713 O 535.959 0.183633 -2.15619 0
M  V30 5714 C 536.554 -3.07567 -1.42084 0
M  V30 5715 C 535.113 -3.22889 -1.93442 0
M  V30 5716 C 534.26 -2.65581 -0.797612 0
M  V30 5717 H 537.211 -1.58696 0.0114951 0
M  V30 5718 H 537.232 -3.03884 -2.28986 0
M  V30 5719 H 536.744 -3.82716 -0.644187 0
M  V30 5720 H 534.845 -2.52623 -2.73884 0
M  V30 5721 H 534.958 -4.30197 -2.10872 0
M  V30 5722 H 533.322 -2.24278 -1.20712 0
M  V30 5723 H 534.105 -3.43284 -0.033494 0
M  V30 5724 N 536.55 0.480323 -1.50102 0
M  V30 5725 C 537.827 1.24159 -1.51142 0
M  V30 5726 C 538.207 2.09605 -0.250818 0
M  V30 5727 O 537.555 2.15274 0.766118 0
M  V30 5728 C 537.765 2.08057 -2.80202 0
M  V30 5729 C 539.113 2.66556 -3.30504 0
M  V30 5730 O 540.137 2.18308 -2.81461 0
M  V30 5731 O 538.996 3.54442 -4.15973 0
M  V30 5732 H 536.09 0.562928 -0.605839 0
M  V30 5733 H 538.636 0.492899 -1.62384 0
M  V30 5734 H 537.408 1.45032 -3.6343 0
M  V30 5735 H 537.031 2.90079 -2.71919 0
M  V30 5736 N 538.028 1.39524 0.732853 0
M  V30 5737 C 539.274 1.37068 1.49467 0
M  V30 5738 C 539.607 -0.0327166 1.94172 0
M  V30 5739 O 538.882 -0.998071 1.66939 0
M  V30 5740 C 539.165 2.34494 2.73285 0
M  V30 5741 C 539.018 3.83784 2.34585 0
M  V30 5742 C 540.337 2.29717 3.75391 0
M  V30 5743 H 537.456 0.499206 0.542183 0
M  V30 5744 H 540.098 1.70532 0.837783 0
M  V30 5745 H 538.248 2.06087 3.29333 0
M  V30 5746 H 539.92 4.22949 1.84151 0
M  V30 5747 H 538.163 4.00455 1.66787 0
M  V30 5748 H 538.834 4.47444 3.23262 0
M  V30 5749 H 541.31 2.54839 3.28932 0
M  V30 5750 H 540.186 2.99962 4.59689 0
M  V30 5751 H 540.447 1.30291 4.22465 0
M  V30 5752 N 539.506 -0.963266 1.24736 0
M  V30 5753 C 540.752 -1.70933 1.09131 0
M  V30 5754 C 541.085 -1.90676 -0.368273 0
M  V30 5755 O 540.36 -1.47147 -1.27193 0
M  V30 5756 C 540.643 -3.09744 1.83658 0
M  V30 5757 C 540.496 -2.97465 3.37394 0
M  V30 5758 C 541.815 -4.09483 1.61282 0
M  V30 5759 H 538.934 -0.620398 0.397838 0
M  V30 5760 H 541.576 -1.12028 1.53459 0
M  V30 5761 H 539.726 -3.60031 1.4598 0
M  V30 5762 H 541.398 -2.54571 3.84696 0
M  V30 5763 H 539.641 -2.33576 3.65547 0
M  V30 5764 H 540.312 -3.95822 3.84745 0
M  V30 5765 H 542.788 -3.68073 1.94066 0
M  V30 5766 H 541.664 -5.04666 2.15878 0
M  V30 5767 H 541.925 -4.38639 0.552102 0
M  V30 5768 N 540.985 -1.06182 -1.16461 0
M  V30 5769 C 542.396 -0.802426 -1.68576 0
M  V30 5770 C 542.747 0.67412 -1.84255 0
M  V30 5771 O 541.872 1.52303 -1.5373 0
M  V30 5772 C 542.467 -1.45002 -3.06202 0
M  V30 5773 C 541.026 -1.23843 -3.55443 0
M  V30 5774 C 540.173 -1.52724 -2.31454 0
M  V30 5775 H 543.124 -1.22545 -1.00839 0
M  V30 5776 H 543.145 -0.864731 -3.70544 0
M  V30 5777 H 542.657 -2.52466 -2.94759 0
M  V30 5778 H 540.758 -0.183487 -3.72148 0
M  V30 5779 H 540.871 -1.95036 -4.37604 0
M  V30 5780 H 539.235 -0.947726 -2.36411 0
M  V30 5781 H 540.018 -2.61343 -2.22609 0
M  V30 5782 N 542.463 1.3308 -0.844243 0
M  V30 5783 C 543.711 1.97215 -0.441676 0
M  V30 5784 C 544.032 1.67185 1.0037 0
M  V30 5785 O 543.302 0.973588 1.69994 0
M  V30 5786 H 541.882 0.72959 -0.160335 0
M  V30 5787 H 544.544 1.62348 -1.07838 0
M  V30 5788 H 543.64 3.06698 -0.57815 0
M  V30 5789 N 543.941 0.601185 1.45683 0
M  V30 5790 C 545.166 0.0982245 2.07167 0
M  V30 5791 C 545.591 -1.20546 1.44396 0
M  V30 5792 O 544.949 -1.73247 0.534347 0
M  V30 5793 C 544.997 -0.0346976 3.60583 0
M  V30 5794 O 544.101 -1.08657 3.97828 0
M  V30 5795 H 543.442 0.0711618 0.660176 0
M  V30 5796 H 545.972 0.829376 1.87036 0
M  V30 5797 H 545.982 -0.234969 4.07323 0
M  V30 5798 H 544.657 0.917265 4.05659 0
M  V30 5799 H 543.234 -0.863275 3.6277 0
M  V30 5800 N 545.419 -1.53889 0.339982 0
M  V30 5801 C 546.369 -2.2165 -0.534354 0
M  V30 5802 C 547.353 -1.20266 -1.06887 0
M  V30 5803 O 548.545 -1.45827 -1.00316 0
M  V30 5804 C 545.674 -2.99014 -1.68659 0
M  V30 5805 C 544.76 -4.07751 -1.16618 0
M  V30 5806 N 545.151 -5.04469 -0.366717 0
M  V30 5807 C 543.449 -4.21998 -1.4434 0
M  V30 5808 C 544.15 -5.81638 -0.0847275 0
M  V30 5809 N 543.126 -5.39388 -0.675391 0
M  V30 5810 H 546.928 -2.93781 0.0835562 0
M  V30 5811 H 544.442 -1.61736 0.146665 0
M  V30 5812 H 546.439 -3.46056 -2.32489 0
M  V30 5813 H 545.099 -2.28408 -2.30781 0
M  V30 5814 H 546.11 -5.17899 -0.00811038 0
M  V30 5815 H 542.787 -3.62612 -2.06928 0
M  V30 5816 H 544.177 -6.69563 0.559943 0
M  V30 5817 N 546.897 -0.0685191 -1.57451 0
M  V30 5818 C 547.827 0.89747 -2.15564 0
M  V30 5819 C 548.808 1.31266 -1.08181 0
M  V30 5820 O 549.993 1.38429 -1.36202 0
M  V30 5821 C 547.123 2.16623 -2.71463 0
M  V30 5822 C 546.077 1.89054 -3.83982 0
M  V30 5823 C 545.403 3.22532 -4.26471 0
M  V30 5824 C 546.703 1.1984 -5.08366 0
M  V30 5825 H 548.397 0.413373 -2.96533 0
M  V30 5826 H 545.943 0.197391 -1.42641 0
M  V30 5827 H 547.896 2.84614 -3.10761 0
M  V30 5828 H 546.62 2.67269 -1.8771 0
M  V30 5829 H 545.279 1.23469 -3.45183 0
M  V30 5830 H 544.927 3.71013 -3.39644 0
M  V30 5831 H 544.627 3.04879 -5.02317 0
M  V30 5832 H 546.151 3.91727 -4.68383 0
M  V30 5833 H 547.565 1.77896 -5.45001 0
M  V30 5834 H 545.962 1.12456 -5.89469 0
M  V30 5835 H 547.032 0.176996 -4.84577 0
M  V30 5836 N 548.375 1.56261 0.205012 0
M  V30 5837 C 549.603 1.84141 0.943386 0
M  V30 5838 C 550.018 0.649772 1.77266 0
M  V30 5839 O 549.375 -0.381612 1.78466 0
M  V30 5840 C 549.426 3.10719 1.84759 0
M  V30 5841 O 549.147 4.25286 1.05181 0
M  V30 5842 C 550.648 3.51706 2.69848 0
M  V30 5843 H 547.868 0.611734 0.275721 0
M  V30 5844 H 550.412 2.03364 0.215253 0
M  V30 5845 H 548.567 2.93422 2.52947 0
M  V30 5846 H 548.981 4.97301 1.66709 0
M  V30 5847 H 550.455 4.43266 3.28967 0
M  V30 5848 H 550.932 2.7423 3.43067 0
M  V30 5849 H 551.538 3.71499 2.07047 0
M  V30 5850 N 549.853 -0.472356 1.50355 0
M  V30 5851 C 551.264 -1.05326 1.54154 0
M  V30 5852 C 551.615 -1.93155 0.344303 0
M  V30 5853 O 550.74 -2.09479 -0.542928 0
M  V30 5854 C 551.335 -1.91691 2.79356 0
M  V30 5855 C 549.894 -2.44892 2.8584 0
M  V30 5856 C 549.041 -1.23205 2.48426 0
M  V30 5857 H 551.992 -0.255027 1.56637 0
M  V30 5858 H 552.013 -2.76742 2.6114 0
M  V30 5859 H 551.525 -1.27741 3.66475 0
M  V30 5860 H 549.626 -3.12399 2.0307 0
M  V30 5861 H 549.739 -2.80086 3.88701 0
M  V30 5862 H 548.103 -1.56643 2.00836 0
M  V30 5863 H 548.886 -0.609194 3.37852 0
M  V30 5864 N 551.331 -1.39911 -0.725443 0
M  V30 5865 C 552.58 -1.36963 -1.48068 0
M  V30 5866 C 552.893 0.0284478 -1.95579 0
M  V30 5867 O 554.099 0.180535 -2.70899 0
M  V30 5868 C 552.555 -2.40664 -2.67598 0
M  V30 5869 C 552.163 -3.86234 -2.26997 0
M  V30 5870 C 553.907 -2.46807 -3.45379 0
M  V30 5871 C 551.814 -4.81554 -3.43307 0
M  V30 5872 H 550.744 -0.509223 -0.556065 0
M  V30 5873 H 553.395 -1.65602 -0.790454 0
M  V30 5874 H 551.777 -2.05109 -3.38742 0
M  V30 5875 H 552.951 -4.3088 -1.63337 0
M  V30 5876 H 551.266 -3.83475 -1.62284 0
M  V30 5877 H 553.863 -3.15213 -4.31909 0
M  V30 5878 H 554.206 -1.49552 -3.8851 0
M  V30 5879 H 554.739 -2.81303 -2.81271 0
M  V30 5880 H 551.478 -5.80106 -3.05217 0
M  V30 5881 H 550.998 -4.4158 -4.05915 0
M  V30 5882 H 552.677 -5.0091 -4.0951 0
M  V30 5883 N 552.809 0.956637 -1.25245 0
M  V30 5884 C 553.719 2.0868 -1.0719 0
M  V30 5885 C 554.735 1.73997 -0.00959074 0
M  V30 5886 O 555.911 2.00301 -0.210104 0
M  V30 5887 C 552.976 3.39754 -0.690526 0
M  V30 5888 C 552.037 3.88316 -1.83055 0
M  V30 5889 C 551.27 5.13134 -1.46728 0
M  V30 5890 O 551.493 5.6925 -0.362029 0
M  V30 5891 O 550.427 5.56356 -2.29677 0
M  V30 5892 H 554.253 2.26813 -2.01965 0
M  V30 5893 H 551.838 1.07098 -1.04165 0
M  V30 5894 H 553.72 4.18543 -0.489871 0
M  V30 5895 H 552.395 3.22896 0.227981 0
M  V30 5896 H 551.302 3.1054 -2.08604 0
M  V30 5897 H 552.635 4.09669 -2.72822 0
M  V30 5898 N 554.287 1.06798 1.15896 0
M  V30 5899 C 555.703 0.792423 1.38538 0
M  V30 5900 C 555.903 -0.60592 1.92174 0
M  V30 5901 O 554.959 -1.36561 2.12385 0
M  V30 5902 C 556.272 1.86157 2.36149 0
M  V30 5903 C 557.82 1.88567 2.49823 0
M  V30 5904 C 558.295 2.9455 3.5072 0
M  V30 5905 N 559.786 2.93616 3.58251 0
M  V30 5906 C 560.521 3.72267 4.36125 0
M  V30 5907 N 560.017 4.60751 5.17379 0
M  V30 5908 N 561.81 3.60637 4.31158 0
M  V30 5909 H 553.961 1.96993 0.794198 0
M  V30 5910 H 556.224 0.853942 0.411688 0
M  V30 5911 H 555.93 2.86603 2.03843 0
M  V30 5912 H 555.804 1.71692 3.3586 0
M  V30 5913 H 558.191 0.887765 2.8143 0
M  V30 5914 H 558.272 2.0711 1.5013 0
M  V30 5915 H 557.916 3.94537 3.19849 0
M  V30 5916 H 557.846 2.73255 4.50155 0
M  V30 5917 H 560.337 2.29472 3.00252 0
M  V30 5918 H 560.65 5.17408 5.74028 0
M  V30 5919 H 558.995 4.64803 5.16704 0
M  V30 5920 H 562.186 2.90892 3.66742 0
M  V30 5921 H 562.359 4.22176 4.91601 0
M  V30 5922 N 555.766 -1.3263 0.851289 0
M  V30 5923 C 556.676 -2.32722 0.296268 0
M  V30 5924 C 557.692 -1.63901 -0.584162 0
M  V30 5925 O 558.868 -1.95465 -0.485334 0
M  V30 5926 C 555.933 -3.42942 -0.509103 0
M  V30 5927 C 554.994 -4.2746 0.397069 0
M  V30 5928 C 554.227 -5.32416 -0.36996 0
M  V30 5929 O 554.45 -5.47491 -1.6003 0
M  V30 5930 O 553.384 -6.01327 0.262493 0
M  V30 5931 H 557.21 -2.82078 1.12543 0
M  V30 5932 H 554.795 -1.36194 0.614135 0
M  V30 5933 H 556.677 -4.1017 -0.96634 0
M  V30 5934 H 555.352 -2.95781 -1.31512 0
M  V30 5935 H 554.259 -3.63053 0.902411 0
M  V30 5936 H 555.592 -4.78136 1.16818 0
M  V30 5937 N 557.244 -0.608902 -1.45362 0
M  V30 5938 C 558.469 -0.10921 -2.07112 0
M  V30 5939 C 558.894 1.19779 -1.45033 0
M  V30 5940 O 558.252 1.72961 -0.543527 0
M  V30 5941 C 558.3 0.0155745 -3.60597 0
M  V30 5942 O 557.404 1.06546 -3.98399 0
M  V30 5943 H 556.745 -0.0746619 -0.659789 0
M  V30 5944 H 559.275 -0.839283 -1.86594 0
M  V30 5945 H 559.285 0.213364 -4.07442 0
M  V30 5946 H 557.96 -0.938765 -4.05167 0
M  V30 5947 H 556.537 0.844024 -3.63223 0
M  V30 5948 N 558.722 1.53707 -0.348139 0
M  V30 5949 C 559.947 2.05877 0.250883 0
M  V30 5950 C 560.372 1.22115 1.43072 0
M  V30 5951 O 559.73 0.235986 1.79758 0
M  V30 5952 C 559.778 3.54886 0.639416 0
M  V30 5953 O 558.882 3.73948 1.73888 0
M  V30 5954 H 558.223 0.662754 0.040653 0
M  V30 5955 H 560.753 1.98303 -0.503685 0
M  V30 5956 H 560.763 3.97601 0.915295 0
M  V30 5957 H 559.438 4.153 -0.223386 0
M  V30 5958 H 558.015 3.43134 1.45991 0
M  V30 5959 N 560.2 0.0768682 1.57412 0
M  V30 5960 C 561.425 -0.603404 1.98428 0
M  V30 5961 C 561.85 -1.62047 0.955108 0
M  V30 5962 O 561.208 -1.81129 -0.0786778 0
M  V30 5963 C 561.256 -1.24396 3.38464 0
M  V30 5964 O 560.36 -2.35982 3.3821 0
M  V30 5965 H 559.701 -0.154741 0.645718 0
M  V30 5966 H 562.231 0.152885 2.04028 0
M  V30 5967 H 562.241 -1.5896 3.7576 0
M  V30 5968 H 560.916 -0.498735 4.12899 0
M  V30 5969 H 559.493 -2.03173 3.1269 0
M  V30 5970 N 561.678 -1.56367 -0.196722 0
M  V30 5971 C 563.089 -1.70462 -0.761545 0
M  V30 5972 C 563.44 -0.683161 -1.83922 0
M  V30 5973 O 562.565 0.160753 -2.15802 0
M  V30 5974 C 563.16 -3.09057 -1.38814 0
M  V30 5975 C 561.719 -3.24922 -1.90007 0
M  V30 5976 C 560.866 -2.66412 -0.769399 0
M  V30 5977 H 563.817 -1.58675 0.0283263 0
M  V30 5978 H 563.838 -3.06296 -2.2575 0
M  V30 5979 H 563.35 -3.83378 -0.603559 0
M  V30 5980 H 561.451 -2.55514 -2.71189 0
M  V30 5981 H 561.564 -4.3241 -2.06297 0
M  V30 5982 H 559.928 -2.25546 -1.18326 0
M  V30 5983 H 560.711 -3.433 0.00291773 0
M  V30 5984 N 563.156 0.464375 -1.50603 0
M  V30 5985 C 564.086 1.56944 -1.72889 0
M  V30 5986 C 565.067 1.59979 -0.577997 0
M  V30 5987 O 566.252 1.76138 -0.817855 0
M  V30 5988 C 563.382 2.95225 -1.8292 0
M  V30 5989 C 562.336 3.07056 -2.98162 0
M  V30 5990 C 561.662 4.47051 -2.93343 0
M  V30 5991 C 562.962 2.83648 -4.38567 0
M  V30 5992 H 564.656 1.38547 -2.65415 0
M  V30 5993 H 562.202 0.665082 -1.27721 0
M  V30 5994 H 564.155 3.72467 -1.97095 0
M  V30 5995 H 562.879 3.14793 -0.870209 0
M  V30 5996 H 561.538 2.32248 -2.83648 0
M  V30 5997 H 561.186 4.63547 -1.95276 0
M  V30 5998 H 560.886 4.55902 -3.70712 0
M  V30 5999 H 562.41 5.26304 -3.09575 0
M  V30 6000 H 563.824 3.50636 -4.53572 0
M  V30 6001 H 562.221 3.03937 -5.17438 0
M  V30 6002 H 563.291 1.79451 -4.50472 0
M  V30 6003 N 564.634 1.40294 0.718013 0
M  V30 6004 C 565.859 1.41941 1.5122 0
M  V30 6005 C 566.284 0.0202371 1.88089 0
M  V30 6006 O 565.642 -0.971078 1.53101 0
M  V30 6007 C 565.69 2.3141 2.76554 0
M  V30 6008 O 564.794 1.75567 3.73162 0
M  V30 6009 H 564.135 0.482644 0.456016 0
M  V30 6010 H 566.665 1.84494 0.884478 0
M  V30 6011 H 566.675 2.46513 3.25108 0
M  V30 6012 H 565.35 3.33085 2.49053 0
M  V30 6013 H 563.927 1.69798 3.31999 0
M  V30 6014 N 566.112 -0.949982 1.2575 0
M  V30 6015 C 567.337 -1.73503 1.13628 0
M  V30 6016 C 567.762 -1.85601 -0.30559 0
M  V30 6017 O 567.12 -1.33984 -1.22139 0
M  V30 6018 C 567.168 -3.1243 1.80055 0
M  V30 6019 O 566.272 -3.97916 1.08336 0
M  V30 6020 H 565.613 -0.532665 0.396439 0
M  V30 6021 H 568.143 -1.19043 1.66403 0
M  V30 6022 H 568.153 -3.62866 1.86527 0
M  V30 6023 H 566.828 -3.02941 2.84956 0
M  V30 6024 H 565.405 -3.56375 1.09777 0
M  V30 6025 N 567.59 -1.07411 -1.15328 0
M  V30 6026 C 568.538 -0.689316 -2.22151 0
M  V30 6027 C 569.532 0.300156 -1.6672 0
M  V30 6028 O 570.738 0.163804 -1.79253 0
M  V30 6029 H 567.113 -0.204834 -0.723566 0
M  V30 6030 H 569.084 -1.59988 -2.51886 0
M  V30 6031 C 567.833 -0.103848 -3.47545 0
M  V30 6032 H 567.156 -0.856367 -3.90521 0
M  V30 6033 H 568.596 0.127725 -4.23808 0
M  V30 6034 C 567.055 1.15563 -3.1646 0
M  V30 6035 O 567.585 2.242 -3.33312 0
M  V30 6036 N 565.791 1.06203 -2.70498 0
M  V30 6037 H 565.338 0.177933 -2.56985 0
M  V30 6038 H 565.296 1.90553 -2.50074 0
M  V30 6039 N 569.068 1.32177 -0.85831 0
M  V30 6040 C 570 2.27688 -0.262835 0
M  V30 6041 C 571.013 1.52588 0.567513 0
M  V30 6042 O 572.202 1.74156 0.391407 0
M  V30 6043 C 569.302 3.32668 0.646937 0
M  V30 6044 C 568.475 4.37148 -0.148372 0
M  V30 6045 C 567.534 5.21686 0.687728 0
M  V30 6046 O 566.56 5.69074 0.119934 0
M  V30 6047 N 567.762 5.44892 2.00182 0
M  V30 6048 H 570.527 2.79426 -1.08356 0
M  V30 6049 H 568.088 1.45076 -0.718647 0
M  V30 6050 H 570.08 3.86134 1.2117 0
M  V30 6051 H 568.65 2.81061 1.36834 0
M  V30 6052 H 567.87 3.83915 -0.894572 0
M  V30 6053 H 569.158 5.04038 -0.694514 0
M  V30 6054 H 568.556 5.08128 2.4864 0
M  V30 6055 H 567.113 6.0134 2.51463 0
M  V30 6056 N 570.547 0.616602 1.45037 0
M  V30 6057 C 571.772 0.120192 2.07051 0
M  V30 6058 C 572.197 -1.19008 1.45666 0
M  V30 6059 O 571.555 -1.7267 0.552692 0
M  V30 6060 C 571.603 0.00354901 3.606 0
M  V30 6061 O 570.707 -1.04431 3.98958 0
M  V30 6062 H 570.048 0.0781599 0.659384 0
M  V30 6063 H 572.578 0.849167 1.86146 0
M  V30 6064 H 572.588 -0.191754 4.07549 0
M  V30 6065 H 571.263 0.960239 4.04663 0
M  V30 6066 H 569.84 -0.824749 3.63665 0
M  V30 6067 N 572.025 -1.5352 0.356285 0
M  V30 6068 C 572.935 -2.29151 -0.502712 0
M  V30 6069 C 573.951 -1.34753 -1.1008 0
M  V30 6070 O 575.127 -1.67803 -1.11374 0
M  V30 6071 C 572.192 -3.05911 -1.63154 0
M  V30 6072 C 571.253 -4.15958 -1.06194 0
M  V30 6073 C 570.486 -4.8905 -2.13696 0
M  V30 6074 O 570.709 -4.61919 -3.34645 0
M  V30 6075 O 569.643 -5.75202 -1.77275 0
M  V30 6076 H 573.469 -3.03492 0.112466 0
M  V30 6077 H 571.054 -1.4891 0.120942 0
M  V30 6078 H 572.936 -3.53874 -2.28804 0
M  V30 6079 H 571.611 -2.34415 -2.23229 0
M  V30 6080 H 570.518 -3.7227 -0.369603 0
M  V30 6081 H 571.851 -4.89593 -0.505872 0
M  V30 6082 N 573.503 -0.0852151 -1.57369 0
M  V30 6083 C 574.914 0.445428 -1.81309 0
M  V30 6084 C 575.265 1.68795 -1.00013 0
M  V30 6085 O 574.39 2.15211 -0.226573 0
M  V30 6086 C 574.985 0.814887 -3.28854 0
M  V30 6087 C 573.544 1.29032 -3.53592 0
M  V30 6088 C 572.691 0.282089 -2.75861 0
M  V30 6089 H 575.642 -0.310771 -1.55627 0
M  V30 6090 H 575.663 1.67524 -3.41637 0
M  V30 6091 H 575.175 -0.0896309 -3.87996 0
M  V30 6092 H 573.276 2.21289 -2.9977 0
M  V30 6093 H 573.389 1.25898 -4.62262 0
M  V30 6094 H 571.753 0.762182 -2.43029 0
M  V30 6095 H 572.536 -0.614936 -3.37748 0
M  V30 6096 N 574.981 1.5647 0.188427 0
M  V30 6097 C 576.229 1.80655 0.905986 0
M  V30 6098 C 576.55 0.659391 1.83513 0
M  V30 6099 O 575.82 -0.321868 1.93238 0
M  V30 6100 H 574.4 0.666391 0.337538 0
M  V30 6101 H 577.062 1.93949 0.192339 0
M  V30 6102 H 576.158 2.74066 1.49313 0
M  V30 6103 N 576.459 -0.456382 1.50847 0
M  V30 6104 C 577.684 -1.2349 1.66628 0
M  V30 6105 C 578.109 -1.84715 0.355254 0
M  V30 6106 O 577.467 -1.67961 -0.682559 0
M  V30 6107 C 577.515 -2.30865 2.77009 0
M  V30 6108 O 576.619 -3.35882 2.39285 0
M  V30 6109 H 575.96 -0.36266 0.556214 0
M  V30 6110 H 578.49 -0.541374 1.97308 0
M  V30 6111 H 578.5 -2.75949 3.00526 0
M  V30 6112 H 577.175 -1.85677 3.72152 0
M  V30 6113 H 575.752 -2.96406 2.26269 0
M  V30 6114 N 577.937 -1.40673 -0.710563 0
M  V30 6115 C 579.186 -1.38525 -1.46607 0
M  V30 6116 C 579.499 0.0077024 -1.95598 0
M  V30 6117 O 580.705 0.151792 -2.71075 0
M  V30 6118 C 579.161 -2.43489 -2.6503 0
M  V30 6119 C 578.769 -3.88619 -2.22888 0
M  V30 6120 C 580.513 -2.50456 -3.42742 0
M  V30 6121 C 578.42 -4.85168 -3.3818 0
M  V30 6122 H 577.35 -0.515092 -0.550632 0
M  V30 6123 H 580.001 -1.66431 -0.772846 0
M  V30 6124 H 578.383 -2.0869 -3.36548 0
M  V30 6125 H 579.557 -4.32588 -1.58758 0
M  V30 6126 H 577.872 -3.85174 -1.58208 0
M  V30 6127 H 580.469 -3.19776 -4.28541 0
M  V30 6128 H 580.812 -1.53665 -3.86902 0
M  V30 6129 H 581.345 -2.84271 -2.78271 0
M  V30 6130 H 578.084 -5.8331 -2.99047 0
M  V30 6131 H 577.604 -4.4586 -4.01209 0
M  V30 6132 H 579.283 -5.05225 -4.04174 0
M  V30 6133 N 579.415 0.9433 -1.26252 0
M  V30 6134 C 580.378 2.02326 -1.07689 0
M  V30 6135 C 581.378 1.60779 -0.0259174 0
M  V30 6136 O 582.568 1.72108 -0.269134 0
M  V30 6137 C 579.7 3.34886 -0.63752 0
M  V30 6138 H 580.893 2.20225 -2.0357 0
M  V30 6139 H 578.446 1.12197 -1.08819 0
M  V30 6140 H 579.181 3.22684 0.323377 0
M  V30 6141 H 578.966 3.66393 -1.39637 0
M  V30 6142 H 580.456 4.14231 -0.529418 0
M  V30 6143 N 580.893 1.08022 1.14757 0
M  V30 6144 C 581.823 0.728248 2.21853 0
M  V30 6145 C 582.804 -0.287486 1.67653 0
M  V30 6146 O 583.989 -0.158727 1.9355 0
M  V30 6147 C 581.119 0.132549 3.47047 0
M  V30 6148 C 580.073 1.07619 4.14249 0
M  V30 6149 C 579.399 0.342907 5.33599 0
M  V30 6150 C 580.699 2.41268 4.63235 0
M  V30 6151 H 582.393 1.62365 2.51551 0
M  V30 6152 H 579.939 0.782125 1.20908 0
M  V30 6153 H 581.892 -0.125665 4.21213 0
M  V30 6154 H 580.616 -0.797971 3.16702 0
M  V30 6155 H 579.275 1.31944 3.42033 0
M  V30 6156 H 578.923 -0.59129 4.99513 0
M  V30 6157 H 578.623 0.971955 5.79506 0
M  V30 6158 H 580.147 0.0926538 6.1053 0
M  V30 6159 H 581.561 2.21232 5.28894 0
M  V30 6160 H 579.958 2.9983 5.19829 0
M  V30 6161 H 581.028 3.03079 3.78512 0
M  V30 6162 N 582.371 -1.3172 0.865308 0
M  V30 6163 C 583.319 -2.30569 0.306674 0
M  V30 6164 C 584.313 -1.59317 -0.575724 0
M  V30 6165 O 585.519 -1.73961 -0.462343 0
M  V30 6166 H 581.894 -0.747681 0.0804834 0
M  V30 6167 H 583.865 -2.75165 1.15441 0
M  V30 6168 C 582.614 -3.44358 -0.480952 0
M  V30 6169 H 581.937 -3.99354 0.18876 0
M  V30 6170 H 583.377 -4.15652 -0.837241 0
M  V30 6171 C 581.836 -2.92574 -1.67039 0
M  V30 6172 O 582.366 -2.90954 -2.76964 0
M  V30 6173 N 580.572 -2.48835 -1.50097 0
M  V30 6174 H 580.119 -2.50353 -0.606738 0
M  V30 6175 H 580.077 -2.14543 -2.29823 0
M  V30 6176 N 583.85 -0.624285 -1.44708 0
M  V30 6177 C 585.075 -0.131171 -2.06985 0
M  V30 6178 C 585.5 1.18234 -1.46295 0
M  V30 6179 O 584.858 1.72375 -0.561842 0
M  V30 6180 C 584.906 -0.0226724 -3.60593 0
M  V30 6181 O 584.01 1.02314 -3.99507 0
M  V30 6182 H 583.351 -0.0816556 -0.65896 0
M  V30 6183 H 585.88 -0.859027 -1.85693 0
M  V30 6184 H 585.891 0.170138 -4.07645 0
M  V30 6185 H 584.566 -0.981685 -4.04148 0
M  V30 6186 H 583.143 0.805452 -3.64097 0
M  V30 6187 N 585.328 1.53329 -0.364422 0
M  V30 6188 C 586.558 2.05359 0.226096 0
M  V30 6189 C 586.966 1.23777 1.43094 0
M  V30 6190 O 586.309 0.271139 1.81688 0
M  V30 6191 C 586.371 3.52918 0.684794 0
M  V30 6192 C 586.035 4.55218 -0.403206 0
M  V30 6193 C 587.032 5.04583 -1.2527 0
M  V30 6194 C 584.717 4.99134 -0.563117 0
M  V30 6195 C 586.711 5.96463 -2.24745 0
M  V30 6196 C 584.398 5.9082 -1.56124 0
M  V30 6197 C 585.396 6.39375 -2.40184 0
M  V30 6198 O 585.084 7.29255 -3.38293 0
M  V30 6199 H 584.816 0.674588 0.0436772 0
M  V30 6200 H 587.37 1.98688 -0.520782 0
M  V30 6201 H 585.6 3.57122 1.48326 0
M  V30 6202 H 587.289 3.87812 1.19818 0
M  V30 6203 H 588.055 4.71403 -1.14034 0
M  V30 6204 H 583.934 4.60928 0.0813909 0
M  V30 6205 H 587.478 6.34285 -2.90393 0
M  V30 6206 H 583.375 6.23414 -1.67407 0
M  V30 6207 H 584.143 7.47249 -3.34009 0
M  V30 6208 N 586.806 0.0935595 1.57322 0
M  V30 6209 C 587.756 -0.876521 2.10478 0
M  V30 6210 C 588.74 -1.24482 1.01946 0
M  V30 6211 O 589.932 -1.22016 1.28223 0
M  V30 6212 C 587.061 -2.13615 2.68745 0
M  V30 6213 C 586.147 -1.79335 3.84317 0
M  V30 6214 N 586.538 -1.15606 4.92411 0
M  V30 6215 C 584.836 -2.08954 3.94023 0
M  V30 6216 C 585.537 -0.999036 5.73057 0
M  V30 6217 N 584.513 -1.51585 5.22037 0
M  V30 6218 H 588.315 -0.379829 2.91435 0
M  V30 6219 H 585.829 -0.109699 1.62029 0
M  V30 6220 H 587.826 -2.84053 3.05155 0
M  V30 6221 H 586.486 -2.63851 1.89242 0
M  V30 6222 H 587.497 -0.823063 5.11318 0
M  V30 6223 H 584.174 -2.61416 3.25527 0
M  V30 6224 H 585.564 -0.500772 6.70031 0
M  V30 6225 N 588.284 -1.56567 -0.180126 0
M  V30 6226 C 589.509 -1.85975 -0.918041 0
M  V30 6227 C 589.934 -0.678888 -1.75422 0
M  V30 6228 O 589.292 0.372168 -1.77439 0
M  V30 6229 C 589.34 -3.13731 -1.77779 0
M  V30 6230 O 588.444 -2.95335 -2.87838 0
M  V30 6231 H 587.785 -0.61196 -0.257683 0
M  V30 6232 H 590.315 -2.03798 -0.180923 0
M  V30 6233 H 590.325 -3.4491 -2.17948 0
M  V30 6234 H 589 -3.99293 -1.16352 0
M  V30 6235 H 587.577 -2.7549 -2.51316 0
M  V30 6236 N 589.762 0.448376 -1.51087 0
M  V30 6237 C 591.178 0.783984 -1.39017 0
M  V30 6238 C 591.378 1.96087 -0.463904 0
M  V30 6239 O 590.434 2.52357 0.0850534 0
M  V30 6240 C 591.747 1.07471 -2.80839 0
M  V30 6241 C 593.295 1.17981 -2.89913 0
M  V30 6242 C 593.77 1.50354 -4.32617 0
M  V30 6243 N 595.261 1.57301 -4.35673 0
M  V30 6244 C 595.996 1.839 -5.4311 0
M  V30 6245 N 595.492 2.08365 -6.60724 0
M  V30 6246 N 597.285 1.8559 -5.30578 0
M  V30 6247 H 589.436 -0.326881 -2.0987 0
M  V30 6248 H 591.699 -0.0838006 -0.944289 0
M  V30 6249 H 591.405 0.282768 -3.50561 0
M  V30 6250 H 591.279 2.00519 -3.19487 0
M  V30 6251 H 593.666 1.9624 -2.20395 0
M  V30 6252 H 593.747 0.228603 -2.54776 0
M  V30 6253 H 593.391 0.726273 -5.0268 0
M  V30 6254 H 593.321 2.46663 -4.65258 0
M  V30 6255 H 595.812 1.40342 -3.50874 0
M  V30 6256 H 596.125 2.27999 -7.38401 0
M  V30 6257 H 594.47 2.0571 -6.63859 0
M  V30 6258 H 597.661 1.65989 -4.37682 0
M  V30 6259 H 597.834 2.05983 -6.1439 0
M  V30 6260 N 591.24 1.41047 0.703093 0
M  V30 6261 C 592.188 1.42494 1.83843 0
M  V30 6262 C 593.182 0.303885 1.66652 0
M  V30 6263 O 594.388 0.475544 1.73605 0
M  V30 6264 H 590.763 0.445685 0.605697 0
M  V30 6265 H 592.734 2.38194 1.79739 0
M  V30 6266 C 591.483 1.31666 3.21807 0
M  V30 6267 H 590.806 2.17212 3.35647 0
M  V30 6268 H 592.246 1.36738 4.01346 0
M  V30 6269 C 590.705 0.0281828 3.36888 0
M  V30 6270 O 591.235 -0.929995 3.90786 0
M  V30 6271 N 589.441 -0.0454322 2.90564 0
M  V30 6272 H 588.988 0.735046 2.4689 0
M  V30 6273 H 588.946 -0.906968 3.01034 0
M  V30 6274 N 592.718 -0.936591 1.26751 0
M  V30 6275 C 593.958 -1.69796 1.13792 0
M  V30 6276 C 594.322 -1.89437 -0.312671 0
M  V30 6277 O 595.523 -2.62806 -0.564489 0
M  V30 6278 C 593.794 -3.03297 1.89065 0
M  V30 6279 S 595.353 -3.94461 1.92214 0
M  V30 6280 H 592.171 -0.583412 0.406389 0
M  V30 6281 H 594.773 -1.11575 1.60535 0
M  V30 6282 H 593.477 -2.86687 2.93665 0
M  V30 6283 H 593.008 -3.66575 1.42781 0
M  V30 6284 H 595.023 -4.85767 1.01215 0
M  V30 6285 N 594.196 -1.08629 -1.14182 0
M  V30 6286 C 595.421 -0.83902 -1.89671 0
M  V30 6287 C 595.846 0.603332 -1.78161 0
M  V30 6288 O 595.204 1.42301 -1.12339 0
M  V30 6289 C 595.252 -1.26854 -3.37551 0
M  V30 6290 O 594.356 -0.42188 -4.10236 0
M  V30 6291 H 593.697 -0.304545 -0.590041 0
M  V30 6292 H 596.227 -1.4483 -1.44518 0
M  V30 6293 H 596.237 -1.25038 -3.88368 0
M  V30 6294 H 594.912 -2.31901 -3.45246 0
M  V30 6295 H 593.489 -0.503654 -3.69483 0
M  V30 6296 N 595.674 1.31259 -0.872281 0
M  V30 6297 C 596.584 2.32221 -0.333255 0
M  V30 6298 C 597.6 1.6481 0.558013 0
M  V30 6299 O 598.776 1.96212 0.454175 0
M  V30 6300 C 595.841 3.43708 0.454479 0
M  V30 6301 C 594.902 4.26774 -0.465024 0
M  V30 6302 C 594.135 5.32937 0.28521 0
M  V30 6303 O 594.358 5.49968 1.513 0
M  V30 6304 O 593.292 6.00834 -0.358126 0
M  V30 6305 H 597.118 2.80252 -1.17016 0
M  V30 6306 H 594.703 1.352 -0.635724 0
M  V30 6307 H 596.585 4.11656 0.900963 0
M  V30 6308 H 595.26 2.97836 1.26789 0
M  V30 6309 H 594.167 3.61571 -0.960055 0
M  V30 6310 H 595.5 4.76217 -1.2441 0
M  V30 6311 N 597.152 0.631951 1.44375 0
M  V30 6312 C 598.377 0.142146 2.06912 0
M  V30 6313 C 598.802 -1.17456 1.4692 0
M  V30 6314 O 598.16 -1.72074 0.570975 0
M  V30 6315 C 598.208 0.0417952 3.60576 0
M  V30 6316 O 597.312 -1.00194 4.00044 0
M  V30 6317 H 596.653 0.0851491 0.658518 0
M  V30 6318 H 599.183 0.868863 1.85235 0
M  V30 6319 H 599.193 -0.148517 4.0773 0
M  V30 6320 H 597.868 1.0031 4.03622 0
M  V30 6321 H 596.445 -0.786131 3.64519 0
M  V30 6322 N 598.631 -1.53133 0.372548 0
M  V30 6323 C 599.908 -1.93704 -0.271693 0
M  V30 6324 C 600.288 -1.30667 -1.65799 0
M  V30 6325 O 599.636 -0.46838 -2.23648 0
M  V30 6326 C 599.846 -3.47576 -0.314903 0
M  V30 6327 C 601.194 -4.20998 -0.551912 0
M  V30 6328 O 602.218 -3.53994 -0.39582 0
M  V30 6329 O 601.077 -5.39748 -0.85639 0
M  V30 6330 H 598.171 -0.810457 -0.164586 0
M  V30 6331 H 600.717 -1.6427 0.425838 0
M  V30 6332 H 599.489 -3.85749 0.656792 0
M  V30 6333 H 599.112 -3.83264 -1.05804 0
M  V30 6334 N 600.109 -0.101901 -1.5727 0
M  V30 6335 C 601.059 0.865346 -2.1094 0
M  V30 6336 C 602.043 1.2394 -1.02605 0
M  V30 6337 O 603.235 1.21334 -1.28868 0
M  V30 6338 C 600.364 2.12187 -2.69874 0
M  V30 6339 C 599.45 1.77295 -3.85263 0
M  V30 6340 N 599.841 1.12993 -4.93017 0
M  V30 6341 C 598.139 2.06862 -3.95126 0
M  V30 6342 C 598.84 0.968631 -5.73579 0
M  V30 6343 N 597.816 1.48814 -5.22834 0
M  V30 6344 H 601.618 0.364368 -2.91633 0
M  V30 6345 H 599.132 0.101104 -1.62085 0
M  V30 6346 H 601.129 2.82431 -3.06657 0
M  V30 6347 H 599.789 2.62844 -1.90639 0
M  V30 6348 H 600.8 0.795935 -5.11747 0
M  V30 6349 H 597.477 2.59686 -3.26909 0
M  V30 6350 H 598.867 0.465231 -6.70287 0
M  V30 6351 N 601.587 1.56661 0.17182 0
M  V30 6352 C 602.812 1.86459 0.908165 0
M  V30 6353 C 603.237 0.688181 1.75059 0
M  V30 6354 O 602.595 -0.362753 1.77634 0
M  V30 6355 C 602.643 3.14669 1.76112 0
M  V30 6356 O 601.747 2.96858 2.86268 0
M  V30 6357 H 601.088 0.613318 0.254434 0
M  V30 6358 H 603.618 2.03892 0.170113 0
M  V30 6359 H 603.628 3.46061 2.16115 0
M  V30 6360 H 602.303 3.99905 1.14233 0
M  V30 6361 H 600.88 2.76819 2.49852 0
M  V30 6362 N 603.065 -0.440357 1.51323 0
M  V30 6363 C 604.481 -0.7766 1.39431 0
M  V30 6364 C 604.681 -1.95838 0.474296 0
M  V30 6365 O 603.737 -2.52398 -0.0716692 0
M  V30 6366 C 605.05 -1.05981 2.81405 0
M  V30 6367 C 606.598 -1.16442 2.90534 0
M  V30 6368 C 607.073 -1.48058 4.33408 0
M  V30 6369 N 608.564 -1.54988 4.36501 0
M  V30 6370 C 609.299 -1.81017 5.44078 0
M  V30 6371 N 608.795 -2.04858 6.61819 0
M  V30 6372 N 610.588 -1.82774 5.31554 0
M  V30 6373 H 602.739 0.338006 2.09693 0
M  V30 6374 H 605.002 0.0888072 0.943831 0
M  V30 6375 H 604.708 -0.264173 3.50706 0
M  V30 6376 H 604.582 -1.98822 3.20546 0
M  V30 6377 H 606.969 -1.95068 2.21432 0
M  V30 6378 H 607.05 -0.215088 2.54894 0
M  V30 6379 H 606.694 -0.699605 5.03059 0
M  V30 6380 H 606.624 -2.44192 4.66559 0
M  V30 6381 H 609.115 -1.38479 3.51613 0
M  V30 6382 H 609.428 -2.2408 7.396 0
M  V30 6383 H 607.773 -2.02187 6.6494 0
M  V30 6384 H 610.964 -1.63665 4.38556 0
M  V30 6385 H 611.137 -2.02722 6.15474 0
M  V30 6386 N 604.543 -1.41418 -0.695603 0
M  V30 6387 C 605.491 -1.43467 -1.83084 0
M  V30 6388 C 606.485 -0.312719 -1.66489 0
M  V30 6389 O 607.691 -0.484744 -1.7335 0
M  V30 6390 H 604.066 -0.448891 -0.603325 0
M  V30 6391 H 606.037 -2.39144 -1.78473 0
M  V30 6392 C 604.786 -1.3337 -3.21104 0
M  V30 6393 H 604.109 -2.18989 -3.3449 0
M  V30 6394 H 605.549 -1.38865 -4.00615 0
M  V30 6395 C 604.008 -0.0460484 -3.36869 0
M  V30 6396 O 604.538 0.909258 -3.91274 0
M  V30 6397 N 602.744 0.0300222 -2.90584 0
M  V30 6398 H 602.291 -0.748129 -2.46497 0
M  V30 6399 H 602.249 0.890991 -3.01511 0
M  V30 6400 N 606.021 0.929856 -1.27246 0
M  V30 6401 C 607.269 1.674 -1.13233 0
M  V30 6402 C 607.59 1.92311 0.322744 0
M  V30 6403 O 606.86 1.52784 1.22612 0
M  V30 6404 H 605.44 0.620411 -0.416052 0
M  V30 6405 H 608.102 1.11663 -1.59741 0
M  V30 6406 H 607.198 2.64308 -1.65975 0
M  V30 6407 N 607.499 1.09233 1.13605 0
M  V30 6408 C 608.746 0.827159 1.84836 0
M  V30 6409 C 609.074 -0.647199 1.83416 0
M  V30 6410 O 608.329 -1.49228 1.26608 0
M  V30 6411 C 608.628 1.305 3.32723 0
M  V30 6412 C 608.294 2.78864 3.54325 0
M  V30 6413 C 606.956 3.19382 3.59928 0
M  V30 6414 C 609.308 3.74532 3.62457 0
M  V30 6415 C 606.636 4.54346 3.71196 0
M  V30 6416 C 608.988 5.09283 3.75252 0
M  V30 6417 C 607.652 5.49394 3.79108 0
M  V30 6418 H 606.922 0.302679 0.676363 0
M  V30 6419 H 609.569 1.36676 1.34134 0
M  V30 6420 H 607.874 0.68517 3.85762 0
M  V30 6421 H 609.571 1.07648 3.86281 0
M  V30 6422 H 606.161 2.46507 3.50617 0
M  V30 6423 H 610.345 3.44343 3.57409 0
M  V30 6424 H 605.601 4.84864 3.72447 0
M  V30 6425 H 609.775 5.83269 3.80487 0
M  V30 6426 H 607.402 6.5397 3.87591 0
M  V30 6427 N 608.977 -1.30795 0.87923 0
M  V30 6428 C 610.254 -1.91145 0.415086 0
M  V30 6429 C 610.634 -1.7995 -1.10368 0
M  V30 6430 O 609.982 -1.21305 -1.93642 0
M  V30 6431 C 610.192 -3.37014 0.906778 0
M  V30 6432 C 611.54 -4.14101 0.938358 0
M  V30 6433 O 612.564 -3.45834 0.853053 0
M  V30 6434 O 611.423 -5.36054 1.06342 0
M  V30 6435 H 608.517 -0.81736 0.125905 0
M  V30 6436 H 611.063 -1.39401 0.967753 0
M  V30 6437 H 609.835 -3.3922 1.95053 0
M  V30 6438 H 609.458 -3.96204 0.332948 0
M  V30 6439 N 610.455 -0.639598 -1.44038 0
M  V30 6440 C 611.683 -0.154811 -2.0632 0
M  V30 6441 C 612.098 1.17406 -1.47856 0
M  V30 6442 O 611.455 1.72193 -0.604638 0
M  V30 6443 C 611.506 -0.0429958 -3.61474 0
M  V30 6444 O 611.227 -1.31932 -4.17763 0
M  V30 6445 C 612.728 0.469486 -4.40807 0
M  V30 6446 H 609.948 -0.0835862 -0.665773 0
M  V30 6447 H 612.492 -0.876397 -1.84769 0
M  V30 6448 H 610.647 0.629075 -3.82258 0
M  V30 6449 H 611.061 -1.16965 -5.11292 0
M  V30 6450 H 612.535 0.496712 -5.49761 0
M  V30 6451 H 613.012 1.49819 -4.12857 0
M  V30 6452 H 613.618 -0.169624 -4.24962 0
M  V30 6453 N 611.933 1.52934 -0.380664 0
M  V30 6454 C 613.21 1.93845 0.261417 0
M  V30 6455 C 613.59 1.31544 1.65104 0
M  V30 6456 O 612.938 0.480234 2.23397 0
M  V30 6457 C 613.148 3.47739 0.296466 0
M  V30 6458 C 614.496 4.21284 0.529578 0
M  V30 6459 O 615.52 3.54199 0.377041 0
M  V30 6460 O 614.379 5.40195 0.827753 0
M  V30 6461 H 611.473 0.811318 0.160285 0
M  V30 6462 H 614.019 1.64042 -0.434544 0
M  V30 6463 H 612.791 3.85395 -0.67724 0
M  V30 6464 H 612.414 3.8382 1.0377 0
M  V30 6465 N 613.412 0.11024 1.57214 0
M  V30 6466 C 614.637 -0.561179 1.99664 0
M  V30 6467 C 615.062 -1.59985 0.989266 0
M  V30 6468 O 614.42 -1.81255 -0.0402399 0
M  V30 6469 C 614.468 -1.17189 3.41027 0
M  V30 6470 O 613.572 -2.28755 3.4314 0
M  V30 6471 H 612.913 -0.14101 0.648855 0
M  V30 6472 H 615.443 0.196128 2.03658 0
M  V30 6473 H 615.453 -1.50954 3.79047 0
M  V30 6474 H 614.128 -0.411041 4.13864 0
M  V30 6475 H 612.705 -1.96495 3.16929 0
M  V30 6476 N 614.89 -1.56749 -0.16351 0
M  V30 6477 C 616.115 -1.86938 -0.898264 0
M  V30 6478 C 616.54 -0.697456 -1.74692 0
M  V30 6479 O 615.898 0.353327 -1.77824 0
M  V30 6480 C 615.946 -3.15599 -1.74441 0
M  V30 6481 O 615.05 -2.98371 -2.8469 0
M  V30 6482 H 614.391 -0.614659 -0.251178 0
M  V30 6483 H 616.921 -2.03979 -0.159298 0
M  V30 6484 H 616.931 -3.47202 -2.14277 0
M  V30 6485 H 615.606 -4.00505 -1.1211 0
M  V30 6486 H 614.183 -2.7814 -2.4838 0
M  V30 6487 N 616.368 0.432326 -1.51554 0
M  V30 6488 C 617.608 1.19076 -1.66133 0
M  V30 6489 C 617.972 1.88364 -0.371873 0
M  V30 6490 O 619.173 2.65904 -0.39349 0
M  V30 6491 C 617.444 2.1768 -2.83461 0
M  V30 6492 S 619.003 3.01943 -3.18396 0
M  V30 6493 H 615.821 0.403735 -0.585251 0
M  V30 6494 H 618.423 0.481554 -1.89476 0
M  V30 6495 H 617.127 1.65424 -3.75583 0
M  V30 6496 H 616.658 2.93174 -2.62322 0
M  V30 6497 H 618.673 4.19373 -2.65219 0
M  V30 6498 N 617.846 1.41785 0.688094 0
M  V30 6499 C 618.776 1.47 1.8142 0
M  V30 6500 C 619.757 0.327881 1.6691 0
M  V30 6501 O 620.942 0.540362 1.86531 0
M  V30 6502 C 618.072 1.35876 3.19617 0
M  V30 6503 C 617.026 2.47976 3.48844 0
M  V30 6504 C 616.352 2.21915 4.86475 0
M  V30 6505 C 617.652 3.90309 3.47068 0
M  V30 6506 H 619.346 2.41247 1.77314 0
M  V30 6507 H 616.892 1.16116 0.851651 0
M  V30 6508 H 618.845 1.38134 3.98117 0
M  V30 6509 H 617.569 0.38116 3.24368 0
M  V30 6510 H 616.228 2.45013 2.72698 0
M  V30 6511 H 615.876 1.2248 4.8786 0
M  V30 6512 H 615.576 2.97037 5.06994 0
M  V30 6513 H 617.1 2.25901 5.67275 0
M  V30 6514 H 618.514 3.94947 4.1556 0
M  V30 6515 H 616.911 4.65175 3.7912 0
M  V30 6516 H 617.981 4.17927 2.45896 0
M  V30 6517 N 619.324 -0.923095 1.27737 0
M  V30 6518 C 620.234 -2.05765 1.12685 0
M  V30 6519 C 621.25 -1.73911 0.0557197 0
M  V30 6520 O 622.426 -1.99674 0.263137 0
M  V30 6521 C 619.491 -3.37804 0.780363 0
M  V30 6522 C 618.552 -3.83326 1.93286 0
M  V30 6523 C 617.785 -5.09064 1.60281 0
M  V30 6524 O 618.008 -5.6809 0.512828 0
M  V30 6525 O 616.942 -5.50071 2.44347 0
M  V30 6526 H 620.768 -2.21378 2.07907 0
M  V30 6527 H 618.353 -1.04299 1.06968 0
M  V30 6528 H 620.235 -4.17097 0.600668 0
M  V30 6529 H 618.91 -3.23387 -0.142291 0
M  V30 6530 H 617.817 -3.049 2.16764 0
M  V30 6531 H 619.15 -4.02292 2.83588 0
M  V30 6532 N 620.802 -1.09834 -1.13024 0
M  V30 6533 C 622.027 -0.85909 -1.88771 0
M  V30 6534 C 622.452 0.584402 -1.78791 0
M  V30 6535 O 621.81 1.41101 -1.13842 0
M  V30 6536 C 621.858 -1.30427 -3.36186 0
M  V30 6537 O 620.962 -0.465368 -4.09766 0
M  V30 6538 H 620.303 -0.310786 -0.586778 0
M  V30 6539 H 622.833 -1.46355 -1.42973 0
M  V30 6540 H 622.843 -1.2915 -3.8702 0
M  V30 6541 H 621.518 -2.3555 -3.42767 0
M  V30 6542 H 620.095 -0.542814 -3.68928 0
M  V30 6543 N 622.28 1.30327 -0.886154 0
M  V30 6544 C 623.23 2.25668 -0.325248 0
M  V30 6545 C 624.214 1.51318 0.546972 0
M  V30 6546 O 625.406 1.72623 0.391203 0
M  V30 6547 C 622.535 3.40229 0.458167 0
M  V30 6548 C 621.621 4.21933 -0.428208 0
M  V30 6549 N 622.012 4.82129 -1.52921 0
M  V30 6550 C 620.31 4.45439 -0.223535 0
M  V30 6551 C 621.011 5.43351 -2.07714 0
M  V30 6552 N 619.987 5.26002 -1.37195 0
M  V30 6553 H 623.789 2.69759 -1.1665 0
M  V30 6554 H 621.303 1.4478 -0.735691 0
M  V30 6555 H 623.3 4.07579 0.876648 0
M  V30 6556 H 621.96 2.97678 1.29684 0
M  V30 6557 H 622.971 4.81312 -1.91205 0
M  V30 6558 H 619.648 4.13481 0.577875 0
M  V30 6559 H 621.038 6.01118 -3.00178 0
M  V30 6560 N 623.758 0.647228 1.43697 0
M  V30 6561 C 624.983 0.164083 2.0675 0
M  V30 6562 C 625.408 -1.15892 1.48158 0
M  V30 6563 O 624.766 -1.71459 0.589194 0
M  V30 6564 C 624.814 0.0800368 3.60511 0
M  V30 6565 O 623.918 -0.959453 4.01084 0
M  V30 6566 H 623.259 0.0921288 0.657578 0
M  V30 6567 H 625.789 0.88846 1.84303 0
M  V30 6568 H 625.799 -0.105263 4.07864 0
M  V30 6569 H 624.474 1.04586 4.02535 0
M  V30 6570 H 623.051 -0.747425 3.65333 0
M  V30 6571 N 625.236 -1.5273 0.388769 0
M  V30 6572 C 626.461 -2.0647 -0.19621 0
M  V30 6573 C 626.886 -1.25865 -1.39784 0
M  V30 6574 O 626.244 -0.283562 -1.79069 0
M  V30 6575 C 626.292 -3.56456 -0.5451 0
M  V30 6576 O 625.396 -3.78426 -1.63912 0
M  V30 6577 H 624.737 -0.663599 -0.023067 0
M  V30 6578 H 627.267 -1.96898 0.556084 0
M  V30 6579 H 627.277 -3.99888 -0.809557 0
M  V30 6580 H 625.952 -4.14561 0.333417 0
M  V30 6581 H 624.529 -3.46884 -1.36842 0
M  V30 6582 N 626.714 -0.118576 -1.57153 0
M  V30 6583 C 627.644 0.828436 -2.1831 0
M  V30 6584 C 628.625 1.27758 -1.12303 0
M  V30 6585 O 629.81 1.34026 -1.40537 0
M  V30 6586 C 626.94 2.07876 -2.78217 0
M  V30 6587 C 625.894 1.76742 -3.89803 0
M  V30 6588 C 625.22 3.08801 -4.36516 0
M  V30 6589 C 626.52 1.03606 -5.11921 0
M  V30 6590 H 628.214 0.318824 -2.97698 0
M  V30 6591 H 625.76 0.151911 -1.43196 0
M  V30 6592 H 627.713 2.74584 -3.19659 0
M  V30 6593 H 626.437 2.61161 -1.96118 0
M  V30 6594 H 625.096 1.12424 -3.48936 0
M  V30 6595 H 624.744 3.6002 -3.51276 0
M  V30 6596 H 624.444 2.88743 -5.11763 0
M  V30 6597 H 625.968 3.76627 -4.80608 0
M  V30 6598 H 627.382 1.60467 -5.50385 0
M  V30 6599 H 625.779 0.936454 -5.92748 0
M  V30 6600 H 626.849 0.0227421 -4.84895 0
M  V30 6601 N 628.193 1.56834 0.155195 0
M  V30 6602 C 629.418 1.87412 0.888337 0
M  V30 6603 C 629.843 0.70671 1.74319 0
M  V30 6604 O 629.201 -0.343892 1.78009 0
M  V30 6605 C 629.249 3.1652 1.72765 0
M  V30 6606 O 628.353 2.99877 2.83103 0
M  V30 6607 H 627.694 0.615983 0.247914 0
M  V30 6608 H 630.224 2.04061 0.148478 0
M  V30 6609 H 630.234 3.48334 2.12433 0
M  V30 6610 H 628.909 4.01094 1.09985 0
M  V30 6611 H 627.486 2.79453 2.46902 0
M  V30 6612 N 629.671 -0.424282 1.51781 0
M  V30 6613 C 630.948 -1.18464 1.55646 0
M  V30 6614 C 631.328 -2.08529 0.328438 0
M  V30 6615 O 630.676 -2.17969 -0.685693 0
M  V30 6616 C 630.886 -1.97514 2.87731 0
M  V30 6617 C 632.234 -2.54106 3.40169 0
M  V30 6618 O 633.258 -2.07711 2.89369 0
M  V30 6619 O 632.117 -3.38759 4.28841 0
M  V30 6620 H 629.211 -0.540055 0.626314 0
M  V30 6621 H 631.757 -0.432291 1.64102 0
M  V30 6622 H 630.529 -1.31444 3.68562 0
M  V30 6623 H 630.152 -2.79787 2.82498 0
M  V30 6624 N 631.149 -1.42148 -0.680565 0
M  V30 6625 C 632.374 -1.45901 -1.47403 0
M  V30 6626 C 632.799 -0.0700985 -1.87969 0
M  V30 6627 O 632.157 0.930145 -1.55621 0
M  V30 6628 C 632.205 -2.38661 -2.70321 0
M  V30 6629 O 631.309 -1.85399 -3.68376 0
M  V30 6630 H 630.65 -0.494565 -0.443059 0
M  V30 6631 H 633.18 -1.86774 -0.835251 0
M  V30 6632 H 633.19 -2.55046 -3.18458 0
M  V30 6633 H 631.865 -3.39571 -2.40134 0
M  V30 6634 H 630.442 -1.78541 -3.2738 0
M  V30 6635 N 632.627 0.916307 -1.28225 0
M  V30 6636 C 633.537 2.05165 -1.13775 0
M  V30 6637 C 634.553 1.73879 -0.0649418 0
M  V30 6638 O 635.729 1.99531 -0.273722 0
M  V30 6639 C 632.794 3.37385 -0.798267 0
M  V30 6640 C 631.855 3.82296 -1.95316 0
M  V30 6641 C 631.088 5.08206 -1.62978 0
M  V30 6642 O 631.311 5.6781 -0.542948 0
M  V30 6643 O 630.245 5.48768 -2.47261 0
M  V30 6644 H 634.071 2.20273 -2.09078 0
M  V30 6645 H 631.656 1.0373 -1.07519 0
M  V30 6646 H 633.538 4.16773 -0.62278 0
M  V30 6647 H 632.213 3.23458 0.125139 0
M  V30 6648 H 631.12 3.03746 -2.18378 0
M  V30 6649 H 632.453 4.00782 -2.85718 0
M  V30 6650 N 634.105 1.10431 1.1244 0
M  V30 6651 C 635.352 0.846717 1.83948 0
M  V30 6652 C 635.68 -0.627709 1.84093 0
M  V30 6653 O 634.935 -1.47876 1.28184 0
M  V30 6654 C 635.234 1.34022 3.3132 0
M  V30 6655 C 634.9 2.82606 3.51347 0
M  V30 6656 C 633.562 3.23182 3.56521 0
M  V30 6657 C 635.914 3.78356 3.58464 0
M  V30 6658 C 633.242 4.58258 3.66356 0
M  V30 6659 C 635.594 5.13234 3.69829 0
M  V30 6660 C 634.258 5.53384 3.73259 0
M  V30 6661 H 633.528 0.309836 0.673114 0
M  V30 6662 H 636.175 1.38091 1.32677 0
M  V30 6663 H 634.48 0.726047 3.85014 0
M  V30 6664 H 636.177 1.11739 3.85118 0
M  V30 6665 H 632.767 2.50212 3.47983 0
M  V30 6666 H 636.951 3.48115 3.53737 0
M  V30 6667 H 632.207 4.88787 3.67284 0
M  V30 6668 H 636.381 5.87272 3.74279 0
M  V30 6669 H 634.008 6.58045 3.80633 0
M  V30 6670 N 635.583 -1.29855 0.893053 0
M  V30 6671 C 636.994 -1.77946 0.564998 0
M  V30 6672 C 637.345 -1.73339 -0.919134 0
M  V30 6673 O 636.47 -1.3152 -1.71847 0
M  V30 6674 C 637.065 -3.23118 1.01883 0
M  V30 6675 C 635.624 -3.69013 0.742051 0
M  V30 6676 C 634.771 -2.50121 1.19727 0
M  V30 6677 H 637.722 -1.16611 1.07646 0
M  V30 6678 H 637.743 -3.78875 0.351249 0
M  V30 6679 H 637.255 -3.26439 2.09903 0
M  V30 6680 H 635.356 -3.71173 -0.325816 0
M  V30 6681 H 635.469 -4.60117 1.33527 0
M  V30 6682 H 633.833 -2.47128 0.616418 0
M  V30 6683 H 634.616 -2.56174 2.28538 0
M  V30 6684 N 637.061 -0.65484 -1.43351 0
M  V30 6685 C 638.472 -0.248506 -1.85039 0
M  V30 6686 C 638.823 1.20526 -1.54816 0
M  V30 6687 O 637.948 1.92016 -0.99794 0
M  V30 6688 C 638.543 -0.444241 -3.35875 0
M  V30 6689 C 637.102 -0.0922108 -3.76287 0
M  V30 6690 C 636.249 -0.746327 -2.67068 0
M  V30 6691 H 639.2 -0.8584 -1.33481 0
M  V30 6692 H 639.221 0.309762 -3.79237 0
M  V30 6693 H 638.733 -1.50239 -3.5784 0
M  V30 6694 H 636.834 0.96328 -3.59933 0
M  V30 6695 H 636.947 -0.518807 -4.76283 0
M  V30 6696 H 635.311 -0.179416 -2.54067 0
M  V30 6697 H 636.094 -1.80754 -2.91861 0
M  V30 6698 N 638.539 1.52521 -0.396863 0
M  V30 6699 C 639.487 2.28217 0.44943 0
M  V30 6700 C 640.481 1.32416 1.05652 0
M  V30 6701 O 641.687 1.49925 0.996124 0
M  V30 6702 H 638.062 0.733966 0.1637 0
M  V30 6703 H 640.033 2.97658 -0.210367 0
M  V30 6704 C 638.782 3.10713 1.56054 0
M  V30 6705 H 638.105 3.84291 1.10273 0
M  V30 6706 H 639.545 3.66803 2.12677 0
M  V30 6707 C 638.004 2.23499 2.52091 0
M  V30 6708 O 638.534 1.8669 3.55682 0
M  V30 6709 N 636.74 1.8751 2.2201 0
M  V30 6710 H 636.287 2.17643 1.37802 0
M  V30 6711 H 636.245 1.29448 2.86514 0
M  V30 6712 N 640.017 0.126909 1.57088 0
M  V30 6713 C 640.965 -0.837618 2.16995 0
M  V30 6714 C 641.959 -1.26974 1.12133 0
M  V30 6715 O 643.165 -1.24056 1.30423 0
M  V30 6716 H 639.54 -0.288256 0.694559 0
M  V30 6717 H 641.511 -0.307957 2.96807 0
M  V30 6718 C 640.26 -2.07474 2.79016 0
M  V30 6719 H 639.583 -1.75117 3.59408 0
M  V30 6720 H 641.023 -2.72949 3.24461 0
M  V30 6721 C 639.482 -2.86967 1.76498 0
M  V30 6722 O 640.012 -3.82625 1.22316 0
M  V30 6723 N 638.218 -2.51111 1.46258 0
M  V30 6724 H 637.765 -1.73389 1.90509 0
M  V30 6725 H 637.723 -3.04594 0.779085 0
M  V30 6726 N 641.495 -1.56914 -0.146875 0
M  V30 6727 C 642.442 -1.98275 -1.18134 0
M  V30 6728 C 643.412 -0.850367 -1.42681 0
M  V30 6729 O 644.597 -1.11244 -1.55014 0
M  V30 6730 C 641.737 -2.36861 -2.5098 0
M  V30 6731 C 640.85 -3.63391 -2.33605 0
M  V30 6732 C 639.985 -3.91079 -3.59486 0
M  V30 6733 C 639.024 -5.10879 -3.37149 0
M  V30 6734 N 638.161 -5.34577 -4.55161 0
M  V30 6735 H 643.001 -2.8645 -0.821622 0
M  V30 6736 H 640.538 -1.41718 -0.394248 0
M  V30 6737 H 642.496 -2.57262 -3.28439 0
M  V30 6738 H 641.126 -1.51766 -2.84898 0
M  V30 6739 H 640.178 -3.50766 -1.47199 0
M  V30 6740 H 641.49 -4.51007 -2.13059 0
M  V30 6741 H 640.644 -4.11979 -4.45374 0
M  V30 6742 H 639.383 -3.01885 -3.83036 0
M  V30 6743 H 638.388 -4.89853 -2.49649 0
M  V30 6744 H 639.613 -6.01626 -3.14997 0
M  V30 6745 H 637.559 -4.48337 -4.78884 0
M  V30 6746 H 637.476 -6.16463 -4.37618 0
M  V30 6747 H 638.744 -5.59975 -5.42263 0
M  V30 6748 N 642.974 0.416227 -1.52004 0
M  V30 6749 C 644.222 1.16153 -1.65387 0
M  V30 6750 C 644.543 1.91208 -0.382669 0
M  V30 6751 O 643.813 1.86413 0.602231 0
M  V30 6752 H 642.393 0.431765 -0.60958 0
M  V30 6753 H 645.055 0.475151 -1.89019 0
M  V30 6754 H 644.151 1.87952 -2.4916 0
M  V30 6755 N 644.452 1.42507 0.673017 0
M  V30 6756 C 645.362 1.4853 1.81593 0
M  V30 6757 C 646.378 0.373907 1.69935 0
M  V30 6758 O 647.554 0.625078 1.91454 0
M  V30 6759 C 644.619 1.387 3.17747 0
M  V30 6760 C 643.68 2.60346 3.41348 0
M  V30 6761 C 642.913 2.50975 4.71007 0
M  V30 6762 O 643.136 1.54659 5.49033 0
M  V30 6763 O 642.07 3.41138 4.95892 0
M  V30 6764 H 645.896 2.45001 1.79467 0
M  V30 6765 H 643.481 1.2429 0.82899 0
M  V30 6766 H 645.363 1.35586 3.98992 0
M  V30 6767 H 644.038 0.453555 3.20507 0
M  V30 6768 H 642.945 2.69034 2.59945 0
M  V30 6769 H 644.278 3.52595 3.43421 0
M  V30 6770 N 645.93 -0.909495 1.28709 0
M  V30 6771 C 647.179 -1.65365 1.15487 0
M  V30 6772 C 647.492 -1.93364 -0.294941 0
M  V30 6773 O 648.698 -2.65905 -0.548338 0
M  V30 6774 C 647.154 -2.97923 2.01916 0
M  V30 6775 C 646.762 -2.77556 3.51663 0
M  V30 6776 C 648.506 -3.75814 1.97393 0
M  V30 6777 C 646.413 -4.0578 4.30229 0
M  V30 6778 H 645.343 -0.620323 0.42862 0
M  V30 6779 H 647.994 -1.00894 1.53273 0
M  V30 6780 H 646.376 -3.63552 1.5699 0
M  V30 6781 H 647.55 -2.2058 4.04575 0
M  V30 6782 H 645.865 -2.13072 3.57756 0
M  V30 6783 H 648.462 -4.70866 2.53357 0
M  V30 6784 H 648.805 -4.05277 0.951643 0
M  V30 6785 H 649.338 -3.1701 2.40311 0
M  V30 6786 H 646.077 -3.81488 5.33055 0
M  V30 6787 H 645.597 -4.62351 3.82089 0
M  V30 6788 H 647.276 -4.74004 4.40374 0
M  V30 6789 N 647.408 -1.11026 -1.11852 0
M  V30 6790 C 648.355 -0.764662 -2.17765 0
M  V30 6791 C 649.325 0.261854 -1.64023 0
M  V30 6792 O 650.51 0.139748 -1.90288 0
M  V30 6793 C 647.65 -0.209317 -3.44465 0
M  V30 6794 C 646.763 -1.29187 -4.12231 0
M  V30 6795 C 645.898 -0.697523 -5.266 0
M  V30 6796 C 644.937 -1.76023 -5.86244 0
M  V30 6797 N 644.074 -1.18569 -6.92016 0
M  V30 6798 H 648.914 -1.67202 -2.46673 0
M  V30 6799 H 646.451 -0.835065 -1.21099 0
M  V30 6800 H 648.409 0.130599 -4.16996 0
M  V30 6801 H 647.039 0.661251 -3.15955 0
M  V30 6802 H 646.091 -1.74881 -3.37818 0
M  V30 6803 H 647.403 -2.09607 -4.52622 0
M  V30 6804 H 646.557 -0.307412 -6.05921 0
M  V30 6805 H 645.296 0.138044 -4.87505 0
M  V30 6806 H 644.301 -2.1597 -5.05606 0
M  V30 6807 H 645.526 -2.59875 -6.27409 0
M  V30 6808 H 643.472 -0.371695 -6.54946 0
M  V30 6809 H 643.389 -1.92666 -7.31038 0
M  V30 6810 H 644.657 -0.82233 -7.7515 0
M  V30 6811 N 648.886 1.2938 -0.899927 0
M  V30 6812 C 650.114 1.99691 -0.541386 0
M  V30 6813 C 650.529 1.67355 0.873936 0
M  V30 6814 O 649.886 0.918728 1.57688 0
M  V30 6815 C 649.937 3.54168 -0.72438 0
M  V30 6816 O 649.658 3.85359 -2.08399 0
M  V30 6817 C 651.159 4.41746 -0.370819 0
M  V30 6818 H 648.379 0.638037 -0.207726 0
M  V30 6819 H 650.923 1.6491 -1.20934 0
M  V30 6820 H 649.078 3.87261 -0.103607 0
M  V30 6821 H 649.492 4.80032 -2.11352 0
M  V30 6822 H 650.966 5.49256 -0.549693 0
M  V30 6823 H 651.443 4.33712 0.692148 0
M  V30 6824 H 652.049 4.14125 -0.968543 0
M  V30 6825 N 650.364 0.662433 1.43002 0
M  V30 6826 C 651.274 -0.0239199 2.34588 0
M  V30 6827 C 652.29 -0.802255 1.54402 0
M  V30 6828 O 653.466 -0.747401 1.87018 0
M  V30 6829 C 650.531 -0.972098 3.32793 0
M  V30 6830 C 649.592 -0.189673 4.28881 0
M  V30 6831 C 648.825 -1.09269 5.22395 0
M  V30 6832 O 649.048 -2.33209 5.20547 0
M  V30 6833 O 647.982 -0.560136 5.99288 0
M  V30 6834 H 651.808 0.730171 2.94792 0
M  V30 6835 H 649.393 0.422635 1.43297 0
M  V30 6836 H 651.275 -1.51676 3.93157 0
M  V30 6837 H 649.95 -1.70626 2.75079 0
M  V30 6838 H 648.857 0.398794 3.71968 0
M  V30 6839 H 650.19 0.50511 4.89601 0
M  V30 6840 N 651.842 -1.52309 0.404946 0
M  V30 6841 C 653.09 -2.01368 -0.17186 0
M  V30 6842 C 653.411 -1.29261 -1.46002 0
M  V30 6843 O 652.681 -0.41729 -1.91404 0
M  V30 6844 H 651.261 -0.744034 -0.0664993 0
M  V30 6845 H 653.923 -1.87263 0.540228 0
M  V30 6846 H 653.019 -3.09888 -0.370957 0
M  V30 6847 N 653.32 -0.135238 -1.57019 0
M  V30 6848 C 654.252 0.839675 -2.13265 0
M  V30 6849 C 655.265 1.21887 -1.07923 0
M  V30 6850 O 656.454 1.16499 -1.35241 0
M  V30 6851 C 653.554 2.13647 -2.63075 0
M  V30 6852 C 652.727 1.92646 -3.92691 0
M  V30 6853 C 651.786 3.06205 -4.27931 0
M  V30 6854 O 650.812 2.78409 -4.96465 0
M  V30 6855 N 652.014 4.33072 -3.86561 0
M  V30 6856 H 654.779 0.359026 -2.97542 0
M  V30 6857 H 652.34 0.0486979 -1.61827 0
M  V30 6858 H 654.332 2.88641 -2.8367 0
M  V30 6859 H 652.902 2.5301 -1.83588 0
M  V30 6860 H 652.122 1.01754 -3.80841 0
M  V30 6861 H 653.41 1.75939 -4.77413 0
M  V30 6862 H 652.808 4.58526 -3.31316 0
M  V30 6863 H 651.365 5.04885 -4.12231 0
M  V30 6864 N 654.798 1.5699 0.138552 0
M  V30 6865 C 655.708 2.02174 1.19008 0
M  V30 6866 C 656.724 0.938622 1.46512 0
M  V30 6867 O 657.9 1.24872 1.58016 0
M  V30 6868 C 654.965 2.40045 2.50159 0
M  V30 6869 C 654.026 3.62346 2.30226 0
M  V30 6870 C 653.259 3.98401 3.55123 0
M  V30 6871 O 653.482 3.35019 4.61647 0
M  V30 6872 O 652.416 4.91606 3.47285 0
M  V30 6873 H 656.242 2.91954 0.836452 0
M  V30 6874 H 653.827 1.45293 0.347907 0
M  V30 6875 H 655.709 2.65225 3.27465 0
M  V30 6876 H 654.384 1.53417 2.85035 0
M  V30 6877 H 653.291 3.42341 1.50843 0
M  V30 6878 H 654.624 4.49617 2.00262 0
M  V30 6879 N 656.276 -0.40816 1.52223 0
M  V30 6880 C 657.206 -1.5042 1.78595 0
M  V30 6881 C 658.187 -1.57723 0.636974 0
M  V30 6882 O 659.372 -1.72982 0.882664 0
M  V30 6883 C 656.502 -2.88232 1.93751 0
M  V30 6884 C 655.456 -2.95779 3.09352 0
M  V30 6885 C 654.782 -4.35855 3.09732 0
M  V30 6886 C 656.082 -2.67175 4.48793 0
M  V30 6887 H 657.776 -1.28601 2.70374 0
M  V30 6888 H 655.322 -0.617221 1.30101 0
M  V30 6889 H 657.275 -3.64895 2.10783 0
M  V30 6890 H 655.999 -3.11347 0.986443 0
M  V30 6891 H 654.658 -2.21561 2.92072 0
M  V30 6892 H 654.306 -4.55981 2.12346 0
M  V30 6893 H 654.006 -4.41829 3.87377 0
M  V30 6894 H 655.53 -5.14451 3.28895 0
M  V30 6895 H 656.944 -3.3356 4.66273 0
M  V30 6896 H 655.341 -2.84523 5.28362 0
M  V30 6897 H 656.411 -1.62609 4.56822 0
M  V30 6898 N 657.755 -1.42862 -0.66545 0
M  V30 6899 C 659.004 -1.43119 -1.42126 0
M  V30 6900 C 659.317 -0.0545297 -1.95524 0
M  V30 6901 O 660.523 0.0654747 -2.71421 0
M  V30 6902 C 658.979 -2.51797 -2.5715 0
M  V30 6903 C 658.587 -3.95514 -2.10411 0
M  V30 6904 C 660.331 -2.61233 -3.346 0
M  V30 6905 C 658.238 -4.95682 -3.22573 0
M  V30 6906 H 657.168 -0.532349 -0.533966 0
M  V30 6907 H 659.819 -1.68806 -0.719506 0
M  V30 6908 H 658.201 -2.19292 -3.29738 0
M  V30 6909 H 659.375 -4.3742 -1.44915 0
M  V30 6910 H 657.69 -3.90012 -1.45874 0
M  V30 6911 H 660.287 -3.33248 -4.18151 0
M  V30 6912 H 660.63 -1.65896 -3.81817 0
M  V30 6913 H 661.163 -2.9298 -2.69087 0
M  V30 6914 H 657.902 -5.92529 -2.80338 0
M  V30 6915 H 657.422 -4.58399 -3.86821 0
M  V30 6916 H 659.101 -5.17828 -3.87896 0
M  V30 6917 N 659.233 0.902656 -1.29189 0
M  V30 6918 C 660.461 1.68639 -1.19869 0
M  V30 6919 C 660.876 1.87254 0.241121 0
M  V30 6920 O 660.233 1.40745 1.16177 0
M  V30 6921 C 660.284 3.07251 -1.90471 0
M  V30 6922 O 660.005 2.89488 -3.28829 0
M  V30 6923 C 661.506 4.01653 -1.8759 0
M  V30 6924 H 658.726 0.526802 -0.415596 0
M  V30 6925 H 661.27 1.12901 -1.7051 0
M  V30 6926 H 659.425 3.59774 -1.43672 0
M  V30 6927 H 659.839 3.77296 -3.64346 0
M  V30 6928 H 661.313 4.96339 -2.4156 0
M  V30 6929 H 661.79 4.30881 -0.850756 0
M  V30 6930 H 662.396 3.55061 -2.34119 0
M  V30 6931 N 660.711 1.11618 1.11262 0
M  V30 6932 C 661.957 0.867463 1.83311 0
M  V30 6933 C 662.29 -0.605366 1.84524 0
M  V30 6934 O 661.565 -1.44704 1.29965 0
M  V30 6935 C 661.848 1.43207 3.30399 0
M  V30 6936 C 661.701 2.97265 3.3757 0
M  V30 6937 C 663.02 1.08454 4.26528 0
M  V30 6938 H 660.139 0.316578 0.665543 0
M  V30 6939 H 662.781 1.38137 1.30454 0
M  V30 6940 H 660.931 0.994982 3.75543 0
M  V30 6941 H 662.603 3.49591 3.00971 0
M  V30 6942 H 660.846 3.33237 2.77733 0
M  V30 6943 H 661.517 3.31859 4.41105 0
M  V30 6944 H 663.993 1.4619 3.89574 0
M  V30 6945 H 662.869 1.50633 5.27826 0
M  V30 6946 H 663.13 -0.00444568 4.421 0
M  V30 6947 N 662.189 -1.289 0.906776 0
M  V30 6948 C 663.438 -1.9455 0.532262 0
M  V30 6949 C 663.751 -1.72219 -0.927353 0
M  V30 6950 O 664.957 -2.32033 -1.40971 0
M  V30 6951 C 663.413 -3.48438 0.901041 0
M  V30 6952 C 663.021 -3.79558 2.37991 0
M  V30 6953 C 664.765 -4.20284 0.596777 0
M  V30 6954 C 662.672 -5.26723 2.68918 0
M  V30 6955 H 661.602 -0.728259 0.195333 0
M  V30 6956 H 664.253 -1.46519 1.10474 0
M  V30 6957 H 662.635 -3.95162 0.257419 0
M  V30 6958 H 663.809 -3.43668 3.06967 0
M  V30 6959 H 662.124 -3.20868 2.65391 0
M  V30 6960 H 664.721 -5.28612 0.8046 0
M  V30 6961 H 665.064 -4.13694 -0.465072 0
M  V30 6962 H 665.597 -3.79315 1.19855 0
M  V30 6963 H 662.336 -5.38384 3.73928 0
M  V30 6964 H 661.856 -5.63836 2.04571 0
M  V30 6965 H 663.535 -5.94391 2.55555 0
M  V30 6966 N 663.667 -0.670007 -1.42649 0
M  V30 6967 C 664.614 0.0112928 -2.30797 0
M  V30 6968 C 665.584 0.797627 -1.45695 0
M  V30 6969 O 666.769 0.770845 -1.74535 0
M  V30 6970 C 663.909 0.95998 -3.31479 0
M  V30 6971 C 663.022 0.167975 -4.31673 0
M  V30 6972 C 662.157 1.11198 -5.19431 0
M  V30 6973 C 661.196 0.311381 -6.11307 0
M  V30 6974 N 660.333 1.20784 -6.91633 0
M  V30 6975 H 665.173 -0.746231 -2.88505 0
M  V30 6976 H 662.71 -0.379739 -1.42114 0
M  V30 6977 H 664.668 1.52379 -3.88377 0
M  V30 6978 H 663.298 1.68419 -2.75382 0
M  V30 6979 H 662.35 -0.512385 -3.76933 0
M  V30 6980 H 663.662 -0.453814 -4.96731 0
M  V30 6981 H 662.816 1.74587 -5.81037 0
M  V30 6982 H 661.555 1.76766 -4.54538 0
M  V30 6983 H 660.56 -0.335758 -5.48774 0
M  V30 6984 H 661.785 -0.340135 -6.78248 0
M  V30 6985 H 659.731 1.85001 -6.29373 0
M  V30 6986 H 659.648 0.64102 -7.53277 0
M  V30 6987 H 660.916 1.82936 -7.5773 0
M  V30 6988 N 665.145 1.52092 -0.413018 0
M  V30 6989 C 666.108 2.25706 0.398687 0
M  V30 6990 C 667.108 1.28221 0.970368 0
M  V30 6991 O 668.298 1.52131 0.848635 0
M  V30 6992 C 665.43 3.03029 1.5616 0
M  V30 6993 H 666.623 2.98888 -0.246131 0
M  V30 6994 H 664.176 1.5542 -0.165622 0
M  V30 6995 H 664.911 2.34205 2.24317 0
M  V30 6996 H 664.696 3.74606 1.15812 0
M  V30 6997 H 666.186 3.58857 2.13569 0
M  V30 6998 N 666.623 0.143563 1.56945 0
M  V30 6999 C 668.034 -0.37783 1.82837 0
M  V30 7000 C 668.385 -1.64967 1.06209 0
M  V30 7001 O 667.51 -2.14221 0.306291 0
M  V30 7002 C 668.105 -0.692274 3.31652 0
M  V30 7003 C 666.664 -1.1582 3.58138 0
M  V30 7004 C 665.811 -0.17951 2.76718 0
M  V30 7005 H 668.762 0.368317 1.54367 0
M  V30 7006 H 668.783 -1.54729 3.47619 0
M  V30 7007 H 668.295 0.233572 3.87397 0
M  V30 7008 H 666.396 -2.10011 3.07776 0
M  V30 7009 H 666.509 -1.08655 4.66616 0
M  V30 7010 H 664.873 -0.671458 2.4569 0
M  V30 7011 H 665.656 0.739865 3.35233 0
M  V30 7012 N 668.101 -1.57061 -0.130224 0
M  V30 7013 C 669.329 -1.88432 -0.854456 0
M  V30 7014 C 669.744 -0.733608 -1.73964 0
M  V30 7015 O 669.101 0.296029 -1.80083 0
M  V30 7016 C 669.152 -3.1918 -1.69724 0
M  V30 7017 O 668.873 -4.2982 -0.847705 0
M  V30 7018 C 670.374 -3.6418 -2.5276 0
M  V30 7019 H 667.594 -0.624193 -0.246221 0
M  V30 7020 H 670.138 -2.04159 -0.11798 0
M  V30 7021 H 668.293 -3.05156 -2.3866 0
M  V30 7022 H 668.707 -5.04689 -1.42792 0
M  V30 7023 H 670.181 -4.58457 -3.07443 0
M  V30 7024 H 670.658 -2.90285 -3.29592 0
M  V30 7025 H 671.264 -3.80954 -1.89087 0
M  V30 7026 N 669.579 0.400081 -1.52437 0
M  V30 7027 C 670.804 1.17221 -1.71096 0
M  V30 7028 C 671.229 1.83269 -0.423565 0
M  V30 7029 O 670.587 1.70378 0.619751 0
M  V30 7030 C 670.635 2.20425 -2.85386 0
M  V30 7031 O 669.739 3.26769 -2.51586 0
M  V30 7032 H 669.08 0.341766 -0.569291 0
M  V30 7033 H 671.61 0.467772 -1.99181 0
M  V30 7034 H 671.62 2.64605 -3.10561 0
M  V30 7035 H 670.295 1.71737 -3.78786 0
M  V30 7036 H 668.872 2.87804 -2.37114 0
M  V30 7037 N 671.057 1.43213 0.657864 0
M  V30 7038 C 672.304 1.44584 1.41781 0
M  V30 7039 C 672.632 0.0684208 1.9438 0
M  V30 7040 O 671.887 -0.925872 1.72413 0
M  V30 7041 C 672.186 2.43143 2.61947 0
M  V30 7042 C 671.852 3.89128 2.27794 0
M  V30 7043 C 670.514 4.28889 2.18191 0
M  V30 7044 C 672.866 4.81144 2.00375 0
M  V30 7045 C 670.194 5.58625 1.79319 0
M  V30 7046 C 672.546 6.11239 1.63003 0
M  V30 7047 C 671.21 6.49981 1.51922 0
M  V30 7048 H 670.48 0.529069 0.518813 0
M  V30 7049 H 673.127 1.76263 0.748577 0
M  V30 7050 H 671.432 2.04851 3.33981 0
M  V30 7051 H 673.129 2.4146 3.20153 0
M  V30 7052 H 669.719 3.57657 2.36176 0
M  V30 7053 H 673.903 4.512 2.06718 0
M  V30 7054 H 669.159 5.87486 1.69323 0
M  V30 7055 H 673.333 6.82014 1.40817 0
M  V30 7056 H 670.96 7.50416 1.21572 0
M  V30 7057 N 672.536 -0.895792 1.29666 0
M  V30 7058 C 673.784 -1.64339 1.17631 0
M  V30 7059 C 674.105 -1.93099 -0.271643 0
M  V30 7060 O 673.375 -1.55981 -1.18518 0
M  V30 7061 H 671.955 -0.609162 0.432354 0
M  V30 7062 H 674.617 -1.07389 1.62646 0
M  V30 7063 H 673.713 -2.59815 1.72924 0
M  V30 7064 N 674.014 -1.12206 -1.10668 0
M  V30 7065 C 675.244 -0.897332 -1.86095 0
M  V30 7066 C 675.652 0.556778 -1.80822 0
M  V30 7067 O 674.995 1.39658 -1.19337 0
M  V30 7068 C 675.057 -1.29095 -3.35522 0
M  V30 7069 C 674.721 -2.75586 -3.64556 0
M  V30 7070 C 675.718 -3.73785 -3.6136 0
M  V30 7071 C 673.403 -3.12432 -3.93309 0
M  V30 7072 C 675.397 -5.06845 -3.86506 0
M  V30 7073 C 673.084 -4.45675 -4.18111 0
M  V30 7074 C 674.082 -5.42691 -4.147 0
M  V30 7075 O 673.77 -6.73532 -4.38873 0
M  V30 7076 H 673.502 -0.320704 -0.595084 0
M  V30 7077 H 676.056 -1.49517 -1.40833 0
M  V30 7078 H 674.286 -0.636299 -3.81429 0
M  V30 7079 H 675.975 -1.04073 -3.92331 0
M  V30 7080 H 676.741 -3.46664 -3.39189 0
M  V30 7081 H 672.62 -2.3753 -3.95096 0
M  V30 7082 H 676.164 -5.82559 -3.83758 0
M  V30 7083 H 672.061 -4.72526 -4.39761 0
M  V30 7084 H 672.829 -6.79442 -4.564 0
M  V30 7085 N 675.492 1.28418 -0.913599 0
M  V30 7086 C 676.769 1.89977 -0.465619 0
M  V30 7087 C 677.149 1.82813 1.05559 0
M  V30 7088 O 676.497 1.26397 1.90358 0
M  V30 7089 C 676.707 3.34492 -0.995813 0
M  V30 7090 C 678.055 4.11468 -1.04782 0
M  V30 7091 O 679.079 3.43451 -0.944445 0
M  V30 7092 O 677.938 5.33046 -1.20518 0
M  V30 7093 H 675.032 0.813734 -0.147532 0
M  V30 7094 H 677.578 1.36786 -1.00437 0
M  V30 7095 H 676.35 3.33929 -2.03978 0
M  V30 7096 H 675.973 3.95181 -0.437878 0
M  V30 7097 N 676.97 0.677563 1.42291 0
M  V30 7098 C 677.917 0.000947061 2.308 0
M  V30 7099 C 678.887 -0.789889 1.46116 0
M  V30 7100 O 680.072 -0.761578 1.74942 0
M  V30 7101 C 677.212 -0.942387 3.31984 0
M  V30 7102 C 676.325 -0.14508 4.31756 0
M  V30 7103 C 675.46 -1.08442 5.20013 0
M  V30 7104 C 674.499 -0.278958 6.11464 0
M  V30 7105 N 673.636 -1.17115 6.92263 0
M  V30 7106 H 678.476 0.761521 2.88106 0
M  V30 7107 H 676.013 0.38727 1.41911 0
M  V30 7108 H 677.971 -1.50317 3.89179 0
M  V30 7109 H 676.601 -1.66956 2.76271 0
M  V30 7110 H 675.653 0.532368 3.76656 0
M  V30 7111 H 676.965 0.48015 4.96484 0
M  V30 7112 H 676.119 -1.71504 5.81955 0
M  V30 7113 H 674.858 -1.74353 4.55469 0
M  V30 7114 H 673.863 0.364856 5.48588 0
M  V30 7115 H 675.088 0.376099 6.78058 0
M  V30 7116 H 673.034 -1.81661 6.30345 0
M  V30 7117 H 672.951 -0.601063 7.53607 0
M  V30 7118 H 674.219 -1.78915 7.58689 0
M  V30 7119 N 678.448 -1.51871 0.421078 0
M  V30 7120 C 679.859 -1.86644 -0.0457991 0
M  V30 7121 C 680.21 -1.33919 -1.43388 0
M  V30 7122 O 679.335 -0.683316 -2.05328 0
M  V30 7123 C 679.93 -3.38681 -0.0898844 0
M  V30 7124 C 678.489 -3.73049 -0.501127 0
M  V30 7125 C 677.636 -2.75485 0.316723 0
M  V30 7126 H 680.587 -1.45327 0.637635 0
M  V30 7127 H 680.608 -3.69636 -0.902734 0
M  V30 7128 H 680.12 -3.77025 0.920513 0
M  V30 7129 H 678.221 -3.40288 -1.51773 0
M  V30 7130 H 678.334 -4.78512 -0.237217 0
M  V30 7131 H 676.698 -2.53725 -0.222663 0
M  V30 7132 H 677.481 -3.16671 1.32569 0
M  V30 7133 N 679.926 -0.151884 -1.56866 0
M  V30 7134 C 680.876 0.797799 -2.13586 0
M  V30 7135 C 681.86 1.20613 -1.06496 0
M  V30 7136 O 683.052 1.17173 -1.32663 0
M  V30 7137 C 680.181 2.03493 -2.76488 0
M  V30 7138 C 679.267 1.64948 -3.90708 0
M  V30 7139 N 679.658 0.972513 -4.96363 0
M  V30 7140 C 677.956 1.94186 -4.01507 0
M  V30 7141 C 678.657 0.785661 -5.7637 0
M  V30 7142 N 677.633 1.32105 -5.27304 0
M  V30 7143 H 681.435 0.271403 -2.92644 0
M  V30 7144 H 678.949 0.049487 -1.62325 0
M  V30 7145 H 680.946 2.72532 -3.15487 0
M  V30 7146 H 679.606 2.56646 -1.98904 0
M  V30 7147 H 680.617 0.632724 -5.1402 0
M  V30 7148 H 677.294 2.49154 -3.35005 0
M  V30 7149 H 678.684 0.251749 -6.71428 0
M  V30 7150 N 681.404 1.57128 0.121893 0
M  V30 7151 C 682.65 1.84974 0.831418 0
M  V30 7152 C 682.983 0.737204 1.79663 0
M  V30 7153 O 682.258 -0.257199 1.92792 0
M  V30 7154 C 682.541 3.23397 1.58386 0
M  V30 7155 C 682.394 4.45246 0.638445 0
M  V30 7156 C 683.713 3.59355 2.54071 0
M  V30 7157 H 680.832 0.67282 0.300803 0
M  V30 7158 H 683.474 1.89759 0.0957587 0
M  V30 7159 H 681.624 3.19449 2.21098 0
M  V30 7160 H 683.296 4.61295 0.0203925 0
M  V30 7161 H 681.539 4.33771 -0.05023 0
M  V30 7162 H 682.21 5.38765 1.20151 0
M  V30 7163 H 684.686 3.64075 2.01465 0
M  V30 7164 H 683.562 4.57193 3.03752 0
M  V30 7165 H 683.823 2.86622 3.36601 0
M  V30 7166 N 682.882 -0.391992 1.52647 0
M  V30 7167 C 683.812 -1.48517 1.8018 0
M  V30 7168 C 684.793 -1.57039 0.653667 0
M  V30 7169 O 685.978 -1.72036 0.900962 0
M  V30 7170 C 683.108 -2.86161 1.96797 0
M  V30 7171 C 682.062 -2.92481 3.12472 0
M  V30 7172 C 681.388 -4.32546 3.14338 0
M  V30 7173 C 682.688 -2.624 4.51601 0
M  V30 7174 H 684.382 -1.25726 2.71723 0
M  V30 7175 H 681.928 -0.603387 1.30749 0
M  V30 7176 H 683.881 -3.62639 2.14641 0
M  V30 7177 H 682.605 -3.10283 1.01941 0
M  V30 7178 H 681.264 -2.18451 2.94406 0
M  V30 7179 H 680.912 -4.53703 2.1717 0
M  V30 7180 H 680.612 -4.37695 3.92042 0
M  V30 7181 H 682.136 -5.10934 3.34333 0
M  V30 7182 H 683.55 -3.28596 4.69785 0
M  V30 7183 H 681.947 -2.78903 5.3135 0
M  V30 7184 H 683.017 -1.57754 4.58521 0
M  V30 7185 N 684.36 -1.4356 -0.65026 0
M  V30 7186 C 685.606 -1.45549 -1.41221 0
M  V30 7187 C 685.939 -0.0805472 -1.94033 0
M  V30 7188 O 685.214 0.899043 -1.72475 0
M  V30 7189 C 685.497 -2.50028 -2.59148 0
M  V30 7190 C 685.35 -3.96808 -2.1181 0
M  V30 7191 C 686.669 -2.51212 -3.61359 0
M  V30 7192 H 683.788 -0.529967 -0.512156 0
M  V30 7193 H 686.43 -1.75127 -0.736933 0
M  V30 7194 H 684.58 -2.24937 -3.16758 0
M  V30 7195 H 686.252 -4.32966 -1.59178 0
M  V30 7196 H 684.495 -4.09498 -1.43156 0
M  V30 7197 H 685.166 -4.6553 -2.96625 0
M  V30 7198 H 687.642 -2.73583 -3.13515 0
M  V30 7199 H 686.518 -3.26252 -4.41419 0
M  V30 7200 H 686.779 -1.54701 -4.1415 0
M  V30 7201 N 685.838 0.888903 -1.30139 0
M  V30 7202 C 687.115 1.62145 -1.094 0
M  V30 7203 C 687.495 2.08041 0.358091 0
M  V30 7204 O 686.843 1.84438 1.34888 0
M  V30 7205 C 687.053 2.794 -2.09133 0
M  V30 7206 C 688.401 3.49826 -2.40638 0
M  V30 7207 O 689.425 2.89583 -2.07412 0
M  V30 7208 O 688.284 4.58457 -2.97455 0
M  V30 7209 H 685.378 0.712475 -0.41989 0
M  V30 7210 H 687.924 0.936023 -1.41551 0
M  V30 7211 H 686.696 2.42762 -3.06891 0
M  V30 7212 H 686.319 3.55643 -1.77776 0
M  V30 7213 N 687.317 1.12792 1.10072 0
M  V30 7214 C 688.247 0.821688 2.18565 0
M  V30 7215 C 689.228 -0.21612 1.68721 0
M  V30 7216 O 690.413 -0.0764932 1.94049 0
M  V30 7217 C 687.543 0.279624 3.46172 0
M  V30 7218 C 686.497 1.25092 4.09312 0
M  V30 7219 C 685.823 0.568916 5.31665 0
M  V30 7220 C 687.123 2.60699 4.52585 0
M  V30 7221 H 688.817 1.72888 2.44438 0
M  V30 7222 H 686.363 0.832702 1.17482 0
M  V30 7223 H 688.316 0.053099 4.21367 0
M  V30 7224 H 687.04 -0.662929 3.19801 0
M  V30 7225 H 685.699 1.46332 3.36129 0
M  V30 7226 H 685.347 -0.378898 5.01571 0
M  V30 7227 H 685.047 1.21687 5.74862 0
M  V30 7228 H 686.571 0.351517 6.09587 0
M  V30 7229 H 687.985 2.43465 5.19035 0
M  V30 7230 H 686.382 3.21608 5.06644 0
M  V30 7231 H 687.452 3.1886 3.65317 0
M  V30 7232 N 688.795 -1.27931 0.920396 0
M  V30 7233 C 689.725 -2.29487 0.431024 0
M  V30 7234 C 690.706 -1.62435 -0.504861 0
M  V30 7235 O 691.891 -1.89797 -0.411176 0
M  V30 7236 C 689.021 -3.45788 -0.323709 0
M  V30 7237 C 687.975 -4.24784 0.523658 0
M  V30 7238 C 687.301 -5.33488 -0.359809 0
M  V30 7239 C 688.601 -4.90874 1.78437 0
M  V30 7240 H 690.295 -2.70671 1.27975 0
M  V30 7241 H 687.841 -1.30121 0.616813 0
M  V30 7242 H 689.794 -4.15927 -0.676952 0
M  V30 7243 H 688.518 -3.03502 -1.2064 0
M  V30 7244 H 687.177 -3.56382 0.85951 0
M  V30 7245 H 686.825 -4.87445 -1.24124 0
M  V30 7246 H 686.525 -5.87247 0.203605 0
M  V30 7247 H 688.049 -6.06472 -0.708787 0
M  V30 7248 H 689.463 -5.53339 1.49963 0
M  V30 7249 H 687.86 -5.54659 2.29071 0
M  V30 7250 H 688.93 -4.14988 2.50824 0
M  V30 7251 N 690.273 -0.685099 -1.4193 0
M  V30 7252 C 691.519 -0.211971 -2.01689 0
M  V30 7253 C 691.852 1.18189 -1.54094 0
M  V30 7254 O 691.127 1.79559 -0.747572 0
M  V30 7255 C 691.41 -0.258019 -3.59174 0
M  V30 7256 C 691.263 -1.68807 -4.16922 0
M  V30 7257 C 692.582 0.388044 -4.38386 0
M  V30 7258 H 689.701 -0.0784987 -0.732808 0
M  V30 7259 H 692.343 -0.871837 -1.68816 0
M  V30 7260 H 690.493 0.303832 -3.8731 0
M  V30 7261 H 692.165 -2.30296 -3.99702 0
M  V30 7262 H 690.408 -2.22553 -3.72361 0
M  V30 7263 H 691.079 -1.6719 -5.26072 0
M  V30 7264 H 693.555 -0.0903432 -4.16002 0
M  V30 7265 H 692.431 0.325232 -5.47936 0
M  V30 7266 H 692.692 1.4672 -4.17044 0
M  V30 7267 N 691.751 1.51645 -0.429126 0
M  V30 7268 C 693.028 1.94579 0.199614 0
M  V30 7269 C 693.408 1.3673 1.60836 0
M  V30 7270 O 692.756 0.551062 2.21756 0
M  V30 7271 C 692.966 3.48506 0.185685 0
M  V30 7272 C 694.314 4.22756 0.395282 0
M  V30 7273 O 695.338 3.55219 0.264165 0
M  V30 7274 O 694.197 5.42555 0.655475 0
M  V30 7275 H 691.291 0.816007 0.134393 0
M  V30 7276 H 693.837 1.62577 -0.486513 0
M  V30 7277 H 692.609 3.83045 -0.799508 0
M  V30 7278 H 692.232 3.86927 0.91507 0
M  V30 7279 N 693.229 0.160201 1.56784 0
M  V30 7280 C 694.506 -0.533355 1.88188 0
M  V30 7281 C 694.886 -1.82072 1.06831 0
M  V30 7282 O 694.234 -2.27946 0.158959 0
M  V30 7283 C 694.444 -0.786034 3.40033 0
M  V30 7284 C 695.792 -1.12097 4.09536 0
M  V30 7285 O 696.816 -0.874949 3.45287 0
M  V30 7286 O 695.675 -1.58457 5.23023 0
M  V30 7287 H 692.769 -0.273589 0.780434 0
M  V30 7288 H 695.315 0.197803 1.68543 0
M  V30 7289 H 694.087 0.124515 3.91102 0
M  V30 7290 H 693.71 -1.57091 3.65251 0
M  V30 7291 N 694.707 -1.5719 -0.113559 0
M  V30 7292 C 695.932 -1.89702 -0.838336 0
M  V30 7293 C 696.357 -0.752679 -1.72384 0
M  V30 7294 O 695.715 0.296575 -1.78858 0
M  V30 7295 C 695.763 -3.20989 -1.64312 0
M  V30 7296 O 694.867 -3.07278 -2.75053 0
M  V30 7297 H 694.208 -0.622339 -0.231496 0
M  V30 7298 H 696.738 -2.04382 -0.0943228 0
M  V30 7299 H 696.748 -3.53843 -2.03123 0
M  V30 7300 H 695.423 -4.03869 -0.993119 0
M  V30 7301 H 694 -2.85901 -2.39406 0
M  V30 7302 N 696.185 0.383891 -1.52853 0
M  V30 7303 C 697.433 1.12619 -1.67814 0
M  V30 7304 C 697.754 1.90354 -0.423141 0
M  V30 7305 O 697.024 1.87649 0.562554 0
M  V30 7306 H 695.604 0.418738 -0.618601 0
M  V30 7307 H 698.266 0.43495 -1.89985 0
M  V30 7308 H 697.362 1.82624 -2.5309 0
M  V30 7309 N 697.663 1.43903 0.642637 0
M  V30 7310 C 698.61 1.49881 1.75512 0
M  V30 7311 C 699.58 0.347538 1.62423 0
M  V30 7312 O 700.765 0.556177 1.82514 0
M  V30 7313 C 697.905 1.43797 3.13714 0
M  V30 7314 C 697.018 2.6921 3.37861 0
M  V30 7315 C 696.153 2.5504 4.6597 0
M  V30 7316 C 695.192 3.75671 4.83257 0
M  V30 7317 N 694.329 3.60247 6.02633 0
M  V30 7318 H 699.169 2.44935 1.69737 0
M  V30 7319 H 696.706 1.21572 0.828165 0
M  V30 7320 H 698.664 1.38262 3.93624 0
M  V30 7321 H 697.294 0.523173 3.18532 0
M  V30 7322 H 696.346 2.8498 2.51973 0
M  V30 7323 H 697.658 3.58786 3.46517 0
M  V30 7324 H 696.812 2.47273 5.54023 0
M  V30 7325 H 695.551 1.63006 4.59653 0
M  V30 7326 H 694.556 3.83836 3.93637 0
M  V30 7327 H 695.781 4.68728 4.91397 0
M  V30 7328 H 693.727 2.70955 5.97427 0
M  V30 7329 H 693.644 4.43431 6.12295 0
M  V30 7330 H 694.912 3.56351 6.93278 0
M  V30 7331 N 699.141 -0.881989 1.30609 0
M  V30 7332 C 700.051 -2.02076 1.19174 0
M  V30 7333 C 701.067 -1.73645 0.11102 0
M  V30 7334 O 702.243 -1.98735 0.326528 0
M  V30 7335 C 699.308 -3.3515 0.887438 0
M  V30 7336 C 698.369 -3.76983 2.05383 0
M  V30 7337 C 697.602 -5.03707 1.76395 0
M  V30 7338 O 697.825 -5.66171 0.693302 0
M  V30 7339 O 696.759 -5.42019 2.61723 0
M  V30 7340 H 700.585 -2.14652 2.14845 0
M  V30 7341 H 698.17 -1.00843 1.10232 0
M  V30 7342 H 700.052 -4.14975 0.73306 0
M  V30 7343 H 698.727 -3.23676 -0.0393354 0
M  V30 7344 H 697.634 -2.97849 2.26355 0
M  V30 7345 H 698.967 -3.93066 2.96243 0
M  V30 7346 N 700.619 -1.13374 -1.09472 0
M  V30 7347 C 701.844 -0.918711 -1.85942 0
M  V30 7348 C 702.269 0.527225 -1.8056 0
M  V30 7349 O 701.627 1.37408 -1.18274 0
M  V30 7350 C 701.675 -1.41056 -3.31867 0
M  V30 7351 O 700.779 -0.595496 -4.08078 0
M  V30 7352 H 700.12 -0.329297 -0.576593 0
M  V30 7353 H 702.65 -1.50829 -1.38245 0
M  V30 7354 H 702.66 -1.41398 -3.82715 0
M  V30 7355 H 701.335 -2.46335 -3.35099 0
M  V30 7356 H 699.912 -0.659911 -3.67014 0
M  V30 7357 N 702.098 1.27442 -0.927168 0
M  V30 7358 C 703.028 2.29256 -0.443188 0
M  V30 7359 C 704.009 1.62701 0.49624 0
M  V30 7360 O 705.194 1.90013 0.401105 0
M  V30 7361 C 702.324 3.45955 0.305366 0
M  V30 7362 C 701.278 4.24501 -0.546178 0
M  V30 7363 C 700.604 5.33671 0.331512 0
M  V30 7364 C 701.904 4.89921 -1.81037 0
M  V30 7365 H 703.598 2.69988 -1.29409 0
M  V30 7366 H 701.144 1.29792 -0.623705 0
M  V30 7367 H 703.097 4.1628 0.654885 0
M  V30 7368 H 701.821 3.04138 1.19029 0
M  V30 7369 H 700.48 3.55921 -0.878398 0
M  V30 7370 H 700.128 4.88096 1.21537 0
M  V30 7371 H 699.828 5.87131 -0.234746 0
M  V30 7372 H 701.352 6.0684 0.676614 0
M  V30 7373 H 702.766 5.52536 -1.52895 0
M  V30 7374 H 701.163 5.53436 -2.32009 0
M  V30 7375 H 702.233 4.13652 -2.53021 0
M  V30 7376 N 703.576 0.692616 1.41565 0
M  V30 7377 C 704.825 0.219452 2.00503 0
M  V30 7378 C 705.138 -1.18683 1.55479 0
M  V30 7379 O 706.344 -1.75731 2.06956 0
M  V30 7380 C 704.8 0.341451 3.58277 0
M  V30 7381 C 704.408 1.75291 4.12283 0
M  V30 7382 C 706.152 -0.0720899 4.24439 0
M  V30 7383 C 704.059 1.82673 5.62481 0
M  V30 7384 H 702.989 0.0782874 0.749925 0
M  V30 7385 H 705.64 0.860386 1.62079 0
M  V30 7386 H 704.022 -0.367683 3.94289 0
M  V30 7387 H 705.196 2.49057 3.87695 0
M  V30 7388 H 703.511 2.11587 3.58636 0
M  V30 7389 H 706.108 -0.0373385 5.34687 0
M  V30 7390 H 706.451 -1.11034 4.0122 0
M  V30 7391 H 706.984 0.586663 3.9345 0
M  V30 7392 H 703.723 2.84539 5.90523 0
M  V30 7393 H 703.243 1.13288 5.89004 0
M  V30 7394 H 704.922 1.58827 6.27203 0
M  V30 7395 N 705.054 -1.51416 0.437162 0
M  V30 7396 C 706.302 -2.01687 -0.129108 0
M  V30 7397 C 706.623 -1.32329 -1.43227 0
M  V30 7398 O 705.893 -0.457796 -1.90476 0
M  V30 7399 H 704.473 -0.745277 -0.0507023 0
M  V30 7400 H 707.135 -1.86075 0.579828 0
M  V30 7401 H 706.231 -3.10605 -0.305141 0
M  V30 7402 N 706.532 -0.168513 -1.56696 0
M  V30 7403 C 707.762 0.482802 -2.0088 0
M  V30 7404 C 708.17 1.57537 -1.0478 0
M  V30 7405 O 707.513 1.83656 -0.0402746 0
M  V30 7406 C 707.575 1.1236 -3.4149 0
M  V30 7407 C 707.239 0.173027 -4.56672 0
M  V30 7408 C 708.236 -0.607565 -5.16338 0
M  V30 7409 C 705.921 0.0696691 -5.02252 0
M  V30 7410 C 707.915 -1.47874 -6.2001 0
M  V30 7411 C 705.602 -0.805096 -6.05773 0
M  V30 7412 C 706.6 -1.57789 -6.64524 0
M  V30 7413 O 706.288 -2.43804 -7.66038 0
M  V30 7414 H 706.02 0.128246 -0.663723 0
M  V30 7415 H 708.574 -0.266532 -2.03663 0
M  V30 7416 H 706.804 1.921 -3.35611 0
M  V30 7417 H 708.493 1.67683 -3.69645 0
M  V30 7418 H 709.259 -0.53787 -4.82008 0
M  V30 7419 H 705.138 0.660957 -4.56237 0
M  V30 7420 H 708.682 -2.0824 -6.65794 0
M  V30 7421 H 704.579 -0.876005 -6.39528 0
M  V30 7422 H 705.347 -2.37289 -7.83349 0
M  V30 7423 N 708.01 1.57248 0.105221 0
M  V30 7424 C 709.426 1.52853 0.459153 0
M  V30 7425 C 709.626 0.883674 1.8109 0
M  V30 7426 O 708.682 0.471864 2.48052 0
M  V30 7427 C 709.995 2.97596 0.43096 0
M  V30 7428 C 711.543 3.08758 0.513536 0
M  V30 7429 C 712.018 4.55089 0.515593 0
M  V30 7430 N 713.509 4.59597 0.576639 0
M  V30 7431 C 714.244 5.70253 0.599904 0
M  V30 7432 N 713.74 6.90368 0.579985 0
M  V30 7433 N 715.533 5.58399 0.643953 0
M  V30 7434 H 707.684 1.97547 -0.780306 0
M  V30 7435 H 709.947 0.902758 -0.289363 0
M  V30 7436 H 709.653 3.48201 -0.494903 0
M  V30 7437 H 709.527 3.55756 1.2537 0
M  V30 7438 H 711.914 2.58148 1.42982 0
M  V30 7439 H 711.995 2.53568 -0.337148 0
M  V30 7440 H 711.639 5.06348 -0.396701 0
M  V30 7441 H 711.569 5.08105 1.38335 0
M  V30 7442 H 714.06 3.73144 0.597639 0
M  V30 7443 H 714.373 7.70462 0.600741 0
M  V30 7444 H 712.718 6.92843 0.547191 0
M  V30 7445 H 715.909 4.63467 0.656975 0
M  V30 7446 H 716.082 6.44644 0.658616 0
M  V30 7447 N 709.488 -0.375779 1.53054 0
M  V30 7448 C 710.899 -0.95309 1.6054 0
M  V30 7449 C 711.25 -1.90575 0.466446 0
M  V30 7450 O 710.375 -2.12507 -0.408609 0
M  V30 7451 C 710.97 -1.73537 2.90982 0
M  V30 7452 C 709.529 -2.26218 3.00836 0
M  V30 7453 C 708.676 -1.07157 2.55759 0
M  V30 7454 H 711.627 -0.154895 1.57942 0
M  V30 7455 H 711.648 -2.59574 2.78211 0
M  V30 7456 H 711.16 -1.04176 3.73857 0
M  V30 7457 H 709.261 -2.98852 2.22527 0
M  V30 7458 H 709.374 -2.54799 4.05727 0
M  V30 7459 H 707.738 -1.43553 2.10391 0
M  V30 7460 H 708.521 -0.393099 3.41042 0
M  V30 7461 N 710.966 -1.44241 -0.634997 0
M  V30 7462 C 712.194 -1.50296 -1.42193 0
M  V30 7463 C 712.609 -0.12658 -1.88375 0
M  V30 7464 O 711.966 0.86678 -1.60603 0
M  V30 7465 C 712.017 -2.46437 -2.64482 0
M  V30 7466 O 711.738 -3.78724 -2.20226 0
M  V30 7467 C 713.239 -2.61918 -3.57651 0
M  V30 7468 H 710.459 -0.509865 -0.43621 0
M  V30 7469 H 713.003 -1.89167 -0.776921 0
M  V30 7470 H 711.158 -2.10712 -3.25083 0
M  V30 7471 H 711.572 -4.30595 -2.9948 0
M  V30 7472 H 713.046 -3.33225 -4.40074 0
M  V30 7473 H 713.523 -1.67017 -4.06204 0
M  V30 7474 H 714.129 -2.98528 -3.02921 0
M  V30 7475 N 712.444 0.87505 -1.31075 0
M  V30 7476 C 713.354 2.01441 -1.20244 0
M  V30 7477 C 714.37 1.73584 -0.120227 0
M  V30 7478 O 715.546 1.98559 -0.337063 0
M  V30 7479 C 712.611 3.34675 -0.905199 0
M  V30 7480 C 711.672 3.75889 -2.0738 0
M  V30 7481 C 710.905 5.02764 -1.79064 0
M  V30 7482 O 711.128 5.65795 -0.723318 0
M  V30 7483 O 710.062 5.40623 -2.64594 0
M  V30 7484 H 713.888 2.13509 -2.1598 0
M  V30 7485 H 711.473 1.00257 -1.10765 0
M  V30 7486 H 713.355 4.1458 -0.755057 0
M  V30 7487 H 712.03 3.23692 0.0221695 0
M  V30 7488 H 710.937 2.96645 -2.27931 0
M  V30 7489 H 712.27 3.91489 -2.98324 0
M  V30 7490 N 713.922 1.13953 1.08869 0
M  V30 7491 C 715.199 0.815768 1.77777 0
M  V30 7492 C 715.579 -0.691624 1.99449 0
M  V30 7493 O 714.927 -1.63085 1.60049 0
M  V30 7494 C 715.137 1.60916 3.09689 0
M  V30 7495 C 716.485 1.80549 3.84301 0
M  V30 7496 O 717.509 1.57562 3.19457 0
M  V30 7497 O 716.368 2.18946 5.00724 0
M  V30 7498 H 713.462 0.298445 0.771271 0
M  V30 7499 H 716.008 1.24446 1.15374 0
M  V30 7500 H 714.78 2.6333 2.89435 0
M  V30 7501 H 714.403 1.17578 3.79817 0
M  V30 7502 N 715.4 -1.26948 0.933913 0
M  V30 7503 C 716.625 -1.98724 0.593589 0
M  V30 7504 C 717.05 -1.6915 -0.822801 0
M  V30 7505 O 716.408 -0.93533 -1.5531 0
M  V30 7506 C 716.456 -3.50834 0.833542 0
M  V30 7507 O 715.56 -4.12284 -0.0978788 0
M  V30 7508 H 714.901 -0.623683 0.227849 0
M  V30 7509 H 717.431 -1.61599 1.25486 0
M  V30 7510 H 717.441 -4.01018 0.75156 0
M  V30 7511 H 716.116 -3.71691 1.86597 0
M  V30 7512 H 714.693 -3.72884 0.0345443 0
M  V30 7513 N 716.879 -0.700114 -1.41195 0
M  V30 7514 C 717.826 -0.0376652 -2.30769 0
M  V30 7515 C 718.796 0.766544 -1.47354 0
M  V30 7516 O 719.981 0.73365 -1.76131 0
M  V30 7517 C 717.121 0.889452 -3.33441 0
M  V30 7518 C 716.234 0.076373 -4.31932 0
M  V30 7519 C 715.369 1.00155 -5.21673 0
M  V30 7520 C 714.408 0.181644 -6.1183 0
M  V30 7521 N 713.545 1.06087 -6.94039 0
M  V30 7522 H 718.385 -0.80726 -2.86858 0
M  V30 7523 H 715.922 -0.409798 -1.41277 0
M  V30 7524 H 717.88 1.44107 -3.91522 0
M  V30 7525 H 716.51 1.6254 -2.78892 0
M  V30 7526 H 715.562 -0.592223 -3.75762 0
M  V30 7527 H 716.874 -0.559076 -4.95657 0
M  V30 7528 H 716.028 1.62223 -5.8461 0
M  V30 7529 H 714.767 1.67085 -4.58186 0
M  V30 7530 H 713.772 -0.452085 -5.47938 0
M  V30 7531 H 714.997 -0.483925 -6.77374 0
M  V30 7532 H 712.943 1.7161 -6.33156 0
M  V30 7533 H 712.86 0.481094 -7.54468 0
M  V30 7534 H 714.128 1.66822 -7.6144 0
M  V30 7535 N 718.357 1.51182 -0.445186 0
M  V30 7536 C 719.267 2.31692 0.368255 0
M  V30 7537 C 720.283 1.40942 1.02036 0
M  V30 7538 O 721.459 1.74011 1.01401 0
M  V30 7539 C 718.524 3.14903 1.45041 0
M  V30 7540 C 717.585 4.21442 0.817615 0
M  V30 7541 C 716.818 5.00677 1.8482 0
M  V30 7542 O 717.041 4.80644 3.07145 0
M  V30 7543 O 715.975 5.84559 1.43438 0
M  V30 7544 H 719.801 3.0232 -0.289219 0
M  V30 7545 H 717.386 1.47951 -0.207555 0
M  V30 7546 H 719.268 3.66612 2.07783 0
M  V30 7547 H 717.943 2.47031 2.09182 0
M  V30 7548 H 716.85 3.73791 0.151931 0
M  V30 7549 H 718.183 4.9171 0.219564 0
M  V30 7550 N 719.835 0.176821 1.56605 0
M  V30 7551 C 721.082 -0.466715 1.97048 0
M  V30 7552 C 721.41 -1.6288 1.06302 0
M  V30 7553 O 720.665 -1.95453 0.0982571 0
M  V30 7554 C 720.964 -0.986208 3.43524 0
M  V30 7555 C 720.63 0.0605667 4.50859 0
M  V30 7556 C 719.292 0.348242 4.79938 0
M  V30 7557 C 721.644 0.770794 5.15469 0
M  V30 7558 C 718.972 1.35144 5.70923 0
M  V30 7559 C 721.324 1.76301 6.07537 0
M  V30 7560 C 719.988 2.05808 6.3498 0
M  V30 7561 H 719.258 -0.170783 0.721051 0
M  V30 7562 H 721.905 0.269942 1.89588 0
M  V30 7563 H 720.21 -1.80079 3.47964 0
M  V30 7564 H 721.907 -1.49323 3.72161 0
M  V30 7565 H 718.497 -0.173823 4.28247 0
M  V30 7566 H 722.681 0.56176 4.9311 0
M  V30 7567 H 717.937 1.58616 5.90467 0
M  V30 7568 H 722.111 2.31868 6.56666 0
M  V30 7569 H 719.738 2.8369 7.05283 0
M  V30 7570 N 721.313 -1.57302 -0.09688 0
M  V30 7571 C 722.538 -1.9058 -0.818169 0
M  V30 7572 C 722.963 -0.770921 -1.71576 0
M  V30 7573 O 722.321 0.277588 -1.79162 0
M  V30 7574 C 722.369 -3.22714 -1.60898 0
M  V30 7575 O 721.473 -3.10178 -2.71779 0
M  V30 7576 H 720.814 -0.624759 -0.224882 0
M  V30 7577 H 723.344 -2.04471 -0.07264 0
M  V30 7578 H 723.354 -3.55978 -1.99358 0
M  V30 7579 H 722.029 -4.04899 -0.950227 0
M  V30 7580 H 720.606 -2.88424 -2.3636 0
M  V30 7581 O 722.83 0.240887 -1.59693 0
M  V30 7582 H 723.521 0.88365 -1.7237 0
M  V30 END ATOM
M  V30 BEGIN BOND
M  V30 END BOND
M  V30 END CTAB
M  END
$$$$
