drugbank_target|Q9HCR9 Dual 3',5'-cyclic-AMP and -GMP phosphodiesterase 11A (DB00201; DB09283)
 OpenBabel12092120343D

  0  0  0     0  0            999 V3000
M  V30 BEGIN CTAB
M  V30 COUNTS 14673 14821 0 0 0
M  V30 BEGIN ATOM
M  V30 1 H -0.908 1.98254 -0.117106 0
M  V30 2 N 0 1.576 0 0
M  V30 3 C 0.933 2.03868 1.02534 0
M  V30 4 C 1.911 0.928543 1.3348 0
M  V30 5 O 3.095 1.19667 1.45644 0
M  V30 6 C 0.222 2.43627 2.35294 0
M  V30 7 C -0.732 3.65373 2.2001 0
M  V30 8 S 0.101 5.13292 1.52614 0
M  V30 9 C 1.257 5.56322 2.86805 0
M  V30 10 H 1.49 2.90518 0.631377 0
M  V30 11 H -0.977 1.52953 0.210867 0
M  V30 12 H 0.981 2.67203 3.11629 0
M  V30 13 H -0.358 1.57376 2.7183 0
M  V30 14 H -1.165 3.90944 3.18086 0
M  V30 15 H -1.563 3.418 1.51819 0
M  V30 16 H 0.729 5.58782 3.83104 0
M  V30 17 H 1.672 6.56266 2.65933 0
M  V30 18 H 2.08 4.83886 2.90714 0
M  V30 19 N 1.4781 -0.272755 1.55222 0
M  V30 20 C 2.4411 -1.32041 1.87344 0
M  V30 21 C 3.4411 -1.42342 0.74803 0
M  V30 22 O 4.6311 -1.41488 1.0162 0
M  V30 23 C 1.7631 -2.70173 2.07893 0
M  V30 24 H 2.9561 -1.04789 2.80997 0
M  V30 25 H 0.5091 -0.51083 1.47717 0
M  V30 26 H 1.2441 -3.02605 1.16622 0
M  V30 27 H 1.0291 -2.64082 2.89833 0
M  V30 28 H 2.5191 -3.45869 2.34017 0
M  V30 29 N 2.9562 -1.48159 -0.537278 0
M  V30 30 C 3.9192 -1.61665 -1.62472 0
M  V30 31 C 4.9192 -0.490395 -1.5314 0
M  V30 32 O 6.1092 -0.755998 -1.5694 0
M  V30 33 C 3.2412 -1.57997 -3.02076 0
M  V30 34 H 4.4342 -2.58621 -1.51839 0
M  V30 35 H 1.9872 -1.36647 -0.758771 0
M  V30 36 H 2.7222 -0.624913 -3.18222 0
M  V30 37 H 2.5072 -2.39755 -3.10258 0
M  V30 38 H 3.9972 -1.70627 -3.81151 0
M  V30 39 N 4.4343 0.785586 -1.36625 0
M  V30 40 C 5.6593 1.57963 -1.34397 0
M  V30 41 C 6.0843 1.87964 0.071526 0
M  V30 42 O 5.4423 1.48182 1.0446 0
M  V30 43 C 5.4903 2.87511 -2.17646 0
M  V30 44 O 4.5943 3.81281 -1.57158 0
M  V30 45 H 3.9353 0.479014 -0.459828 0
M  V30 46 H 6.4653 0.973411 -1.79961 0
M  V30 47 H 6.4753 3.36745 -2.30362 0
M  V30 48 H 5.1503 2.65002 -3.20541 0
M  V30 49 H 3.7273 3.39885 -1.53403 0
M  V30 50 N 5.9124 1.20967 1.01018 0
M  V30 51 C 7.3284 0.965905 1.27053 0
M  V30 52 C 7.5284 -0.350785 1.98423 0
M  V30 53 O 6.5844 -1.07773 2.28344 0
M  V30 54 C 7.8974 2.15294 2.09926 0
M  V30 55 C 9.4454 2.19463 2.23171 0
M  V30 56 C 9.9204 3.3767 3.09424 0
M  V30 57 N 11.4114 3.37724 3.17012 0
M  V30 58 C 12.1464 4.25837 3.83993 0
M  V30 59 N 11.6424 5.24138 4.53047 0
M  V30 60 N 13.4354 4.1366 3.80581 0
M  V30 61 H 5.5864 2.0565 0.531194 0
M  V30 62 H 7.8494 0.90024 0.297106 0
M  V30 63 H 7.5554 3.10684 1.64828 0
M  V30 64 H 7.4294 2.13923 3.10672 0
M  V30 65 H 9.8164 1.24632 2.6749 0
M  V30 66 H 9.8974 2.2488 1.21912 0
M  V30 67 H 9.5414 4.32791 2.65808 0
M  V30 68 H 9.4714 3.29491 4.10784 0
M  V30 69 H 11.9624 2.6658 2.6785 0
M  V30 70 H 12.2754 5.87684 5.01844 0
M  V30 71 H 10.6204 5.28068 4.5185 0
M  V30 72 H 13.8114 3.36127 3.25785 0
M  V30 73 H 13.9844 4.82538 4.32505 0
M  V30 74 N 7.3905 -1.2043 1.01659 0
M  V30 75 C 8.3205 -2.25466 0.607226 0
M  V30 76 C 9.3015 -1.65853 -0.377716 0
M  V30 77 O 10.4865 -1.92409 -0.263149 0
M  V30 78 C 7.6165 -3.47256 -0.0552949 0
M  V30 79 C 6.5705 -4.19462 0.850632 0
M  V30 80 C 5.8965 -5.34673 0.0538859 0
M  V30 81 C 7.1965 -4.75603 2.15868 0
M  V30 82 H 8.8905 -2.59962 1.48526 0
M  V30 83 H 6.4365 -1.2496 0.715605 0
M  V30 84 H 8.3895 -4.19917 -0.353233 0
M  V30 85 H 7.1135 -3.11924 -0.968045 0
M  V30 86 H 5.7725 -3.48667 1.13257 0
M  V30 87 H 5.4205 -4.95585 -0.860514 0
M  V30 88 H 5.1205 -5.83913 0.657192 0
M  V30 89 H 6.6445 -6.10138 -0.237598 0
M  V30 90 H 8.0585 -5.40083 1.92311 0
M  V30 91 H 6.4555 -5.3528 2.71284 0
M  V30 92 H 7.5255 -3.94346 2.82169 0
M  V30 93 N 8.8686 -0.792821 -1.36206 0
M  V30 94 C 10.1456 -0.290627 -1.93429 0
M  V30 95 C 10.5256 1.21773 -1.72437 0
M  V30 96 O 9.8736 2.0108 -1.08531 0
M  V30 97 C 10.0836 -0.686973 -3.42172 0
M  V30 98 C 11.4316 -0.668643 -4.19302 0
M  V30 99 O 12.4556 -0.627658 -3.50626 0
M  V30 100 O 11.3146 -0.714597 -5.41808 0
M  V30 101 H 8.4086 -0.0727927 -0.82379 0
M  V30 102 H 10.9546 -0.875593 -1.45367 0
M  V30 103 H 9.7266 -1.72711 -3.51122 0
M  V30 104 H 9.3496 -0.0760733 -3.97527 0
M  V30 105 N 10.3467 1.47872 -0.545128 0
M  V30 106 C 11.5937 2.02493 -0.0165858 0
M  V30 107 C 11.9217 1.42073 1.32836 0
M  V30 108 O 11.1767 0.561459 1.87473 0
M  V30 109 C 11.4757 3.57131 0.13867 0
M  V30 110 C 11.1417 4.36411 -1.13384 0
M  V30 111 C 9.8037 4.57792 -1.48256 0
M  V30 112 C 12.1557 4.82223 -1.97764 0
M  V30 113 C 9.4837 5.22233 -2.67376 0
M  V30 114 C 11.8357 5.47977 -3.16076 0
M  V30 115 C 10.4997 5.67593 -3.51275 0
M  V30 116 H 9.7697 0.740975 -0.00606918 0
M  V30 117 H 12.4167 1.77683 -0.714207 0
M  V30 118 H 10.7217 3.80865 0.919172 0
M  V30 119 H 12.4187 3.97031 0.562782 0
M  V30 120 H 9.0087 4.2004 -0.852297 0
M  V30 121 H 13.1927 4.65493 -1.72132 0
M  V30 122 H 8.4487 5.35616 -2.94831 0
M  V30 123 H 12.6227 5.8244 -3.81755 0
M  V30 124 H 10.2497 6.17298 -4.43675 0
M  V30 125 N 11.8248 0.280983 1.55075 0
M  V30 126 C 13.0728 -0.333455 1.9933 0
M  V30 127 C 13.3938 -1.55937 1.17085 0
M  V30 128 O 12.6638 -1.94143 0.261805 0
M  V30 129 H 11.2438 -0.126197 0.736263 0
M  V30 130 H 13.9058 0.387678 1.91005 0
M  V30 131 H 13.0018 -0.619292 3.05894 0
M  V30 132 N 13.3029 -1.57598 0.00835791 0
M  V30 133 C 14.2129 -2.12385 -0.996487 0
M  V30 134 C 15.2289 -1.07108 -1.37127 0
M  V30 135 O 16.4049 -1.39055 -1.4569 0
M  V30 136 C 13.4699 -2.62314 -2.26699 0
M  V30 137 C 12.5309 -3.82225 -1.95456 0
M  V30 138 C 11.7639 -4.29763 -3.16449 0
M  V30 139 O 11.9869 -3.76584 -4.28416 0
M  V30 140 O 10.9209 -5.21832 -2.99958 0
M  V30 141 H 14.7469 -2.98479 -0.560725 0
M  V30 142 H 12.3319 -1.47903 -0.210987 0
M  V30 143 H 14.2139 -2.94589 -3.01322 0
M  V30 144 H 12.8889 -1.79313 -2.69497 0
M  V30 145 H 11.7959 -3.54909 -1.18282 0
M  V30 146 H 13.1289 -4.66324 -1.57489 0
M  V30 147 N 14.781 0.264519 -1.55364 0
M  V30 148 C 16.027 0.99646 -1.76631 0
M  V30 149 C 16.36 1.85632 -0.570478 0
M  V30 150 O 15.635 1.89647 0.43175 0
M  V30 151 C 15.918 1.87187 -3.07625 0
M  V30 152 C 15.771 1.04138 -4.37579 0
M  V30 153 C 17.09 2.85749 -3.34717 0
M  V30 154 H 14.209 0.360841 -0.642622 0
M  V30 155 H 16.851 0.268218 -1.88097 0
M  V30 156 H 15.001 2.49279 -2.9798 0
M  V30 157 H 16.673 0.440517 -4.59192 0
M  V30 158 H 14.916 0.345115 -4.32425 0
M  V30 159 H 15.587 1.68729 -5.2558 0
M  V30 160 H 18.063 2.33793 -3.4421 0
M  V30 161 H 16.939 3.44136 -4.27623 0
M  V30 162 H 17.2 3.61311 -2.54768 0
M  V30 163 N 16.2591 1.48442 0.529413 0
M  V30 164 C 17.1691 1.6569 1.66084 0
M  V30 165 C 18.1851 0.539432 1.65427 0
M  V30 166 O 19.3611 0.810572 1.84368 0
M  V30 167 C 16.4261 1.69315 3.02545 0
M  V30 168 C 15.4871 2.92694 3.14052 0
M  V30 169 C 14.7201 2.96137 4.44003 0
M  V30 170 O 14.9431 2.07973 5.31134 0
M  V30 171 O 13.8771 3.88312 4.59888 0
M  V30 172 H 17.7031 2.61483 1.54469 0
M  V30 173 H 15.2881 1.3185 0.702567 0
M  V30 174 H 17.1701 1.74217 3.83701 0
M  V30 175 H 15.8451 0.766966 3.14483 0
M  V30 176 H 14.7521 2.93324 2.32189 0
M  V30 177 H 16.0851 3.84699 3.0703 0
M  V30 178 N 17.7372 -0.778329 1.37039 0
M  V30 179 C 18.9652 -1.56734 1.35063 0
M  V30 180 C 19.3802 -1.88686 -0.0655597 0
M  V30 181 O 18.7372 -1.5096 -1.02554 0
M  V30 182 C 18.7882 -2.88163 2.18276 0
M  V30 183 O 18.5092 -2.57583 3.54376 0
M  V30 184 C 20.0102 -3.82422 2.24206 0
M  V30 185 H 17.2302 -0.485778 0.462883 0
M  V30 186 H 19.7742 -0.965185 1.8029 0
M  V30 187 H 17.9292 -3.44818 1.76576 0
M  V30 188 H 18.3432 -3.41699 3.97922 0
M  V30 189 H 19.8172 -4.71667 2.86765 0
M  V30 190 H 20.2942 -4.21078 1.24861 0
M  V30 191 H 20.9002 -3.31697 2.6619 0
M  V30 192 N 19.2153 -1.21501 -1.00376 0
M  V30 193 C 20.4623 -1.03299 -1.74171 0
M  V30 194 C 20.7903 0.433326 -1.89612 0
M  V30 195 O 20.0453 1.33779 -1.42834 0
M  V30 196 C 20.3443 -1.67673 -3.15627 0
M  V30 197 C 20.0103 -3.17533 -3.2013 0
M  V30 198 C 18.6723 -3.58427 -3.21067 0
M  V30 199 C 21.0243 -4.13504 -3.17275 0
M  V30 200 C 18.3523 -4.93794 -3.16835 0
M  V30 201 C 20.7043 -5.48834 -3.14585 0
M  V30 202 C 19.3683 -5.89123 -3.13831 0
M  V30 203 H 18.6383 -0.377999 -0.637336 0
M  V30 204 H 21.2853 -1.51111 -1.17634 0
M  V30 205 H 19.5903 -1.12158 -3.75404 0
M  V30 206 H 21.2873 -1.51091 -3.71446 0
M  V30 207 H 17.8773 -2.84965 -3.20145 0
M  V30 208 H 22.0613 -3.82936 -3.15711 0
M  V30 209 H 17.3173 -5.24255 -3.1459 0
M  V30 210 H 21.4913 -6.22934 -3.1133 0
M  V30 211 H 19.1183 -6.93984 -3.10307 0
M  V30 212 N 20.6934 1.19889 -1.02296 0
M  V30 213 C 21.6234 2.25141 -0.619174 0
M  V30 214 C 22.6044 1.66051 0.368915 0
M  V30 215 O 23.7894 1.92546 0.252941 0
M  V30 216 C 20.9194 3.4728 0.0368783 0
M  V30 217 C 19.8734 4.19005 -0.872865 0
M  V30 218 C 19.1994 5.34637 -0.0822402 0
M  V30 219 C 20.4994 4.74452 -2.18387 0
M  V30 220 H 22.1934 2.59171 -1.49903 0
M  V30 221 H 19.7394 1.24579 -0.722222 0
M  V30 222 H 21.6924 4.20098 0.330958 0
M  V30 223 H 20.4164 3.12433 0.95149 0
M  V30 224 H 19.0754 3.48061 -1.15105 0
M  V30 225 H 18.7234 4.96034 0.83422 0
M  V30 226 H 18.4234 5.83557 -0.688149 0
M  V30 227 H 19.9474 6.10255 0.205238 0
M  V30 228 H 21.3614 5.39055 -1.95172 0
M  V30 229 H 19.7584 5.33834 -2.74119 0
M  V30 230 H 20.8284 3.92844 -2.84257 0
M  V30 231 N 22.1715 0.800033 1.35784 0
M  V30 232 C 23.4485 0.30088 1.93272 0
M  V30 233 C 23.8285 -1.20857 1.73081 0
M  V30 234 O 23.1765 -2.00502 1.09596 0
M  V30 235 C 23.3865 0.70511 3.41803 0
M  V30 236 C 24.7345 0.690871 4.18942 0
M  V30 237 O 25.7585 0.646244 3.50289 0
M  V30 238 O 24.6175 0.74332 5.41421 0
M  V30 239 H 21.7115 0.0771605 0.823393 0
M  V30 240 H 24.2575 0.88329 1.449 0
M  V30 241 H 23.0295 1.74571 3.50201 0
M  V30 242 H 22.6525 0.0971541 3.97481 0
M  V30 243 N 23.6496 -1.47581 0.552962 0
M  V30 244 C 25.0656 -1.5818 0.212424 0
M  V30 245 C 25.2656 -1.55213 -1.28496 0
M  V30 246 O 24.3216 -1.45329 -2.06484 0
M  V30 247 C 25.6346 -2.88865 0.835318 0
M  V30 248 C 27.1826 -3.0244 0.806156 0
M  V30 249 C 27.6576 -4.35819 1.40804 0
M  V30 250 N 29.1486 -4.42444 1.37103 0
M  V30 251 C 29.8836 -5.44202 1.80641 0
M  V30 252 N 29.3796 -6.52795 2.32015 0
M  V30 253 N 31.1726 -5.35222 1.71738 0
M  V30 254 H 23.3236 -1.47753 1.52587 0
M  V30 255 H 25.5866 -0.702941 0.636064 0
M  V30 256 H 25.2926 -2.9676 1.88749 0
M  V30 257 H 25.1666 -3.7579 0.325848 0
M  V30 258 H 27.5536 -2.94144 -0.237317 0
M  V30 259 H 27.6346 -2.17068 1.35334 0
M  V30 260 H 27.2786 -4.44871 2.45056 0
M  V30 261 H 27.2086 -5.19916 0.836338 0
M  V30 262 H 29.6996 -3.6456 0.995202 0
M  V30 263 H 30.0126 -7.26609 2.63171 0
M  V30 264 H 28.3576 -6.53696 2.36023 0
M  V30 265 H 31.5486 -4.49284 1.31382 0
M  V30 266 H 31.7216 -6.14389 2.05987 0
M  V30 267 N 25.1277 -0.289203 -1.54924 0
M  V30 268 C 26.0777 0.606939 -2.19773 0
M  V30 269 C 27.0617 1.10783 -1.16687 0
M  V30 270 O 28.2537 1.05057 -1.4245 0
M  V30 271 C 25.3827 1.78398 -2.93307 0
M  V30 272 C 24.4687 1.29961 -4.03697 0
M  V30 273 N 24.8597 0.532377 -5.0299 0
M  V30 274 C 23.1577 1.58136 -4.17024 0
M  V30 275 C 23.8587 0.275912 -5.81045 0
M  V30 276 N 22.8347 0.852365 -5.36876 0
M  V30 277 H 26.6367 0.0130779 -2.93897 0
M  V30 278 H 24.1507 -0.09341 -1.62131 0
M  V30 279 H 26.1477 2.43741 -3.38225 0
M  V30 280 H 24.8077 2.38166 -2.20697 0
M  V30 281 H 25.8187 0.17838 -5.17593 0
M  V30 282 H 22.4957 2.18738 -3.55612 0
M  V30 283 H 23.8857 -0.339502 -6.71042 0
M  V30 284 N 26.6058 1.57591 -0.0167156 0
M  V30 285 C 28.0168 1.79201 0.523834 0
M  V30 286 C 28.3678 0.925796 1.72984 0
M  V30 287 O 27.4928 0.132792 2.15992 0
M  V30 288 C 28.0878 3.25 0.957091 0
M  V30 289 C 26.6468 3.47648 1.44283 0
M  V30 290 C 25.7938 2.74374 0.401757 0
M  V30 291 H 28.7448 1.56831 -0.242816 0
M  V30 292 H 28.7658 3.34031 1.82219 0
M  V30 293 H 28.2778 3.88019 0.0791415 0
M  V30 294 H 26.3788 2.89866 2.34113 0
M  V30 295 H 26.4918 4.56352 1.45877 0
M  V30 296 H 24.8558 2.39485 0.867121 0
M  V30 297 H 25.6388 3.40102 -0.467513 0
M  V30 298 N 28.0839 -0.256276 1.55502 0
M  V30 299 C 28.9939 -1.33882 1.92647 0
M  V30 300 C 30.0099 -1.53159 0.825727 0
M  V30 301 O 31.1859 -1.66963 1.12629 0
M  V30 302 C 28.2509 -2.6751 2.20543 0
M  V30 303 C 27.3119 -2.56836 3.43997 0
M  V30 304 C 26.5449 -3.84092 3.70553 0
M  V30 305 O 26.7679 -4.85545 2.99336 0
M  V30 306 O 25.7019 -3.83288 4.64084 0
M  V30 307 H 29.5279 -1.05374 2.84833 0
M  V30 308 H 27.1129 -0.456237 1.42263 0
M  V30 309 H 28.9949 -3.46492 2.39835 0
M  V30 310 H 27.6699 -2.9577 1.31536 0
M  V30 311 H 26.5769 -1.76172 3.30021 0
M  V30 312 H 27.9099 -2.33523 4.33275 0
M  V30 313 N 29.562 -1.4872 -0.521534 0
M  V30 314 C 30.492 -1.66771 -1.63431 0
M  V30 315 C 31.473 -0.516499 -1.62069 0
M  V30 316 O 32.658 -0.750013 -1.79132 0
M  V30 317 C 29.788 -1.71515 -3.01993 0
M  V30 318 C 28.742 -2.86222 -3.18216 0
M  V30 319 C 28.068 -2.76061 -4.57924 0
M  V30 320 C 29.368 -4.27419 -3.00184 0
M  V30 321 H 31.062 -2.59932 -1.48579 0
M  V30 322 H 28.608 -1.25089 -0.713358 0
M  V30 323 H 30.561 -1.82731 -3.7972 0
M  V30 324 H 29.285 -0.749393 -3.17886 0
M  V30 325 H 27.944 -2.74575 -2.42908 0
M  V30 326 H 27.592 -1.77437 -4.70665 0
M  V30 327 H 27.292 -3.53037 -4.69722 0
M  V30 328 H 28.816 -2.89256 -5.37739 0
M  V30 329 H 30.23 -4.39855 -3.67697 0
M  V30 330 H 28.627 -5.05458 -3.2347 0
M  V30 331 H 29.697 -4.43293 -1.96518 0
M  V30 332 N 31.0401 0.771051 -1.3745 0
M  V30 333 C 32.2871 1.52963 -1.32697 0
M  V30 334 C 32.6151 1.94299 0.0883274 0
M  V30 335 O 31.8701 1.64397 1.0617 0
M  V30 336 C 32.1691 2.80676 -2.2126 0
M  V30 337 C 31.8351 2.58389 -3.69521 0
M  V30 338 C 30.4971 2.52019 -4.09927 0
M  V30 339 C 32.8491 2.38469 -4.63446 0
M  V30 340 C 30.1771 2.23721 -5.42371 0
M  V30 341 C 32.5291 2.11694 -5.96128 0
M  V30 342 C 31.1931 2.03769 -6.35637 0
M  V30 343 H 30.4631 0.559732 -0.485573 0
M  V30 344 H 33.1101 0.888083 -1.69662 0
M  V30 345 H 31.4151 3.49392 -1.77291 0
M  V30 346 H 33.1121 3.38557 -2.14895 0
M  V30 347 H 29.7021 2.6421 -3.37478 0
M  V30 348 H 33.8861 2.4238 -4.33089 0
M  V30 349 H 29.1421 2.16081 -5.71943 0
M  V30 350 H 33.3161 1.9528 -6.6846 0
M  V30 351 H 30.9431 1.81606 -7.38189 0
M  V30 352 N 32.5182 1.22032 0.997298 0
M  V30 353 C 33.4282 1.00271 2.12092 0
M  V30 354 C 34.4442 -0.047621 1.73935 0
M  V30 355 O 35.6202 0.144136 2.00884 0
M  V30 356 C 32.6852 0.578449 3.4184 0
M  V30 357 C 31.7462 1.70189 3.94125 0
M  V30 358 C 30.9792 1.29778 5.17681 0
M  V30 359 O 31.2022 0.174676 5.70132 0
M  V30 360 O 30.1362 2.11261 5.63607 0
M  V30 361 H 33.9622 1.94398 2.3333 0
M  V30 362 H 31.5472 1.00587 1.10465 0
M  V30 363 H 33.4292 0.351998 4.19927 0
M  V30 364 H 32.1042 -0.334019 3.21972 0
M  V30 365 H 31.0112 1.98282 3.1723 0
M  V30 366 H 32.3442 2.59206 4.18417 0
M  V30 367 N 33.9963 -1.19345 1.0293 0
M  V30 368 C 35.2733 -1.84811 0.640642 0
M  V30 369 C 35.6533 -1.91855 -0.88062 0
M  V30 370 O 35.0013 -1.43587 -1.7775 0
M  V30 371 C 35.2113 -3.23755 1.30321 0
M  V30 372 C 36.5593 -3.99912 1.42673 0
M  V30 373 O 37.5833 -3.33155 1.26041 0
M  V30 374 O 36.4423 -5.19494 1.6967 0
M  V30 375 H 33.5363 -0.796443 0.222726 0
M  V30 376 H 36.0823 -1.26831 1.12748 0
M  V30 377 H 34.8543 -3.13466 2.34211 0
M  V30 378 H 34.4773 -3.89381 0.804261 0
M  V30 379 N 35.4744 -0.807222 -1.35358 0
M  V30 380 C 36.7044 -0.399796 -2.02695 0
M  V30 381 C 37.1124 0.994176 -1.60974 0
M  V30 382 O 36.4554 1.65209 -0.803226 0
M  V30 383 C 36.5174 -0.404445 -3.57218 0
M  V30 384 C 36.1814 -1.74904 -4.22206 0
M  V30 385 C 37.1784 -2.70743 -4.4384 0
M  V30 386 C 34.8634 -2.03322 -4.5931 0
M  V30 387 C 36.8574 -3.93183 -5.01683 0
M  V30 388 C 34.5444 -3.26026 -5.16866 0
M  V30 389 C 35.5424 -4.20774 -5.37994 0
M  V30 390 O 35.2304 -5.41312 -5.94337 0
M  V30 391 H 34.9624 -0.160517 -0.656666 0
M  V30 392 H 37.5164 -1.09235 -1.73945 0
M  V30 393 H 35.7464 0.344707 -3.85161 0
M  V30 394 H 37.4354 -0.0192429 -4.05895 0
M  V30 395 H 38.2014 -2.5008 -4.15554 0
M  V30 396 H 34.0804 -1.30384 -4.42178 0
M  V30 397 H 37.6244 -4.6715 -5.1809 0
M  V30 398 H 33.5214 -3.46559 -5.44579 0
M  V30 399 H 34.2894 -5.42618 -6.12787 0
M  V30 400 N 36.9525 1.47285 -0.560781 0
M  V30 401 C 37.8825 2.32857 0.173105 0
M  V30 402 C 38.8635 1.44009 0.905281 0
M  V30 403 O 40.0485 1.7286 0.885046 0
M  V30 404 C 37.1785 3.25861 1.20133 0
M  V30 405 C 36.1325 4.23978 0.585388 0
M  V30 406 C 35.4585 5.06332 1.7185 0
M  V30 407 C 36.7585 5.20242 -0.463178 0
M  V30 408 H 38.4525 2.94466 -0.541307 0
M  V30 409 H 35.9985 1.41601 -0.261764 0
M  V30 410 H 37.9515 3.84569 1.72293 0
M  V30 411 H 36.6755 2.62315 1.94573 0
M  V30 412 H 35.3345 3.66501 0.085054 0
M  V30 413 H 34.9825 4.39186 2.45203 0
M  V30 414 H 34.6825 5.72762 1.31213 0
M  V30 415 H 36.2065 5.67899 2.24329 0
M  V30 416 H 37.6205 5.73293 -0.027502 0
M  V30 417 H 36.0175 5.94896 -0.788627 0
M  V30 418 H 37.0875 4.65504 -1.35773 0
M  V30 419 N 38.4306 0.297415 1.54768 0
M  V30 420 C 39.3636 -0.622188 2.19554 0
M  V30 421 C 40.3416 -1.13558 1.16376 0
M  V30 422 O 41.5256 -1.20444 1.45002 0
M  V30 423 C 38.6526 -1.8509 2.83653 0
M  V30 424 C 37.6986 -1.47106 4.00328 0
M  V30 425 S 38.5316 -0.53006 5.3287 0
M  V30 426 C 39.6876 -1.76665 6.0045 0
M  V30 427 H 39.9206 -0.0717806 2.97213 0
M  V30 428 H 37.4536 0.0815678 1.54184 0
M  V30 429 H 39.4116 -2.55605 3.21211 0
M  V30 430 H 38.0726 -2.37247 2.05846 0
M  V30 431 H 37.2656 -2.38594 4.43947 0
M  V30 432 H 36.8676 -0.845885 3.64309 0
M  V30 433 H 39.1596 -2.7077 6.21039 0
M  V30 434 H 40.1026 -1.37308 6.9466 0
M  V30 435 H 40.5106 -1.94174 5.30054 0
M  V30 436 N 39.9087 -1.5758 0.0250728 0
M  V30 437 C 41.3247 -1.56124 -0.331282 0
M  V30 438 C 41.5247 -1.03029 -1.73169 0
M  V30 439 O 40.5807 -0.675215 -2.43305 0
M  V30 440 C 41.8937 -3.00139 -0.183584 0
M  V30 441 C 43.4417 -3.11946 -0.256654 0
M  V30 442 C 43.9167 -4.57793 -0.137792 0
M  V30 443 N 45.4077 -4.6279 -0.194904 0
M  V30 444 C 46.1427 -5.7326 -0.126655 0
M  V30 445 N 45.6387 -6.928 -0.00755288 0
M  V30 446 N 47.4317 -5.61811 -0.180348 0
M  V30 447 H 39.5827 -1.90424 0.94087 0
M  V30 448 H 41.8457 -0.875761 0.362968 0
M  V30 449 H 41.5517 -3.4292 0.780927 0
M  V30 450 H 41.4257 -3.64899 -0.955448 0
M  V30 451 H 43.8127 -2.69079 -1.21162 0
M  V30 452 H 43.8937 -2.49915 0.545517 0
M  V30 453 H 43.5377 -5.01339 0.813739 0
M  V30 454 H 43.4677 -5.17798 -0.958775 0
M  V30 455 H 45.9587 -3.76807 -0.287267 0
M  V30 456 H 46.2717 -7.72791 0.0379428 0
M  V30 457 H 44.6167 -6.94995 0.0271731 0
M  V30 458 H 47.8077 -4.6731 -0.271767 0
M  V30 459 H 47.9807 -6.47882 -0.123697 0
M  V30 460 N 41.3868 0.248026 -1.55636 0
M  V30 461 C 42.3338 1.30707 -1.90222 0
M  V30 462 C 43.3038 1.47881 -0.756332 0
M  V30 463 O 44.4888 1.61883 -1.00988 0
M  V30 464 C 41.6288 2.65769 -2.20138 0
M  V30 465 C 40.7418 2.56612 -3.47526 0
M  V30 466 C 39.8768 3.8402 -3.67017 0
M  V30 467 C 38.9158 3.69476 -4.8801 0
M  V30 468 N 38.0528 4.88774 -5.04029 0
M  V30 469 H 42.8928 1.00512 -2.80538 0
M  V30 470 H 40.4298 0.485055 -1.38873 0
M  V30 471 H 42.3878 3.44386 -2.35487 0
M  V30 472 H 41.0178 2.94115 -1.33027 0
M  V30 473 H 40.0698 1.69571 -3.40514 0
M  V30 474 H 41.3818 2.41774 -4.36287 0
M  V30 475 H 40.5358 4.7108 -3.8232 0
M  V30 476 H 39.2748 4.01754 -2.76487 0
M  V30 477 H 38.2798 2.80799 -4.72686 0
M  V30 478 H 39.5048 3.53238 -5.8 0
M  V30 479 H 37.4508 5.0687 -4.16435 0
M  V30 480 H 37.3678 4.76562 -5.86877 0
M  V30 481 H 38.6358 5.77335 -5.23741 0
M  V30 482 N 42.8649 1.48995 0.513639 0
M  V30 483 C 44.1129 1.57531 1.26604 0
M  V30 484 C 44.4339 0.258236 1.93283 0
M  V30 485 O 43.7039 -0.721502 1.8213 0
M  V30 486 H 42.2839 0.580387 0.470276 0
M  V30 487 H 44.9459 1.85552 0.596373 0
M  V30 488 H 44.0419 2.36486 2.03669 0
M  V30 489 N 44.343 -0.763751 1.37857 0
M  V30 490 C 45.29 -1.87726 1.34267 0
M  V30 491 C 46.26 -1.64807 0.206879 0
M  V30 492 O 47.445 -1.86613 0.397508 0
M  V30 493 C 44.585 -3.24896 1.16346 0
M  V30 494 C 43.698 -3.59716 2.39225 0
M  V30 495 C 42.833 -4.86137 2.14114 0
M  V30 496 C 41.872 -5.13711 3.32817 0
M  V30 497 N 41.009 -6.31323 3.07206 0
M  V30 498 H 45.849 -1.90129 2.29466 0
M  V30 499 H 43.386 -0.929433 1.14017 0
M  V30 500 H 45.344 -4.04036 1.03975 0
M  V30 501 H 43.974 -3.21847 0.247909 0
M  V30 502 H 43.026 -2.75498 2.62307 0
M  V30 503 H 44.338 -3.76027 3.27728 0
M  V30 504 H 43.492 -5.73198 1.9882 0
M  V30 505 H 42.231 -4.71945 1.22961 0
M  V30 506 H 41.236 -4.25123 3.48641 0
M  V30 507 H 42.461 -5.29807 4.24832 0
M  V30 508 H 40.407 -6.18474 2.1869 0
M  V30 509 H 40.324 -6.48087 3.89254 0
M  V30 510 H 41.592 -7.213 2.95546 0
M  V30 511 N 45.8211 -1.22559 -0.990812 0
M  V30 512 C 46.7531 -0.955325 -2.08342 0
M  V30 513 C 47.7661 0.0668408 -1.62663 0
M  V30 514 O 48.9551 -0.167421 -1.77713 0
M  V30 515 C 46.0551 -0.415566 -3.36342 0
M  V30 516 C 45.2281 -1.49544 -4.11042 0
M  V30 517 C 44.2871 -0.962399 -5.17324 0
M  V30 518 O 43.3131 -1.64907 -5.44788 0
M  V30 519 N 44.5151 0.215134 -5.80101 0
M  V30 520 H 47.2801 -1.89596 -2.32106 0
M  V30 521 H 44.8411 -1.13276 -1.15673 0
M  V30 522 H 46.8331 -0.0442386 -4.04676 0
M  V30 523 H 45.4031 0.430232 -3.09625 0
M  V30 524 H 44.6231 -2.04 -3.37309 0
M  V30 525 H 45.9111 -2.22195 -4.57719 0
M  V30 526 H 45.3091 0.789779 -5.6016 0
M  V30 527 H 43.8661 0.527826 -6.49659 0
M  V30 528 N 47.2992 1.18797 -1.03562 0
M  V30 529 C 48.2092 2.25913 -0.632505 0
M  V30 530 C 49.2252 1.70668 0.338882 0
M  V30 531 O 50.4012 2.00453 0.195076 0
M  V30 532 C 47.4662 3.467 0.00350942 0
M  V30 533 C 46.5272 4.17098 -1.01624 0
M  V30 534 C 45.7602 5.32119 -0.410478 0
M  V30 535 O 45.9832 5.64976 0.784725 0
M  V30 536 O 44.9172 5.9107 -1.13667 0
M  V30 537 H 48.7432 2.62648 -1.52478 0
M  V30 538 H 46.3282 1.25781 -0.806195 0
M  V30 539 H 48.2102 4.19878 0.35781 0
M  V30 540 H 46.8852 3.11798 0.869686 0
M  V30 541 H 45.7922 3.4601 -1.42224 0
M  V30 542 H 47.1252 4.55987 -1.85301 0
M  V30 543 N 48.7773 0.814389 1.34928 0
M  V30 544 C 49.7103 0.175641 2.27523 0
M  V30 545 C 50.6883 -0.662953 1.48471 0
M  V30 546 O 51.8723 -0.628545 1.77712 0
M  V30 547 C 48.9993 -0.755516 3.30166 0
M  V30 548 C 48.0453 0.00445305 4.265 0
M  V30 549 S 48.8783 1.34582 5.18313 0
M  V30 550 C 50.0343 0.419315 6.24494 0
M  V30 551 H 50.2673 0.960691 2.8135 0
M  V30 552 H 47.8003 0.609846 1.41846 0
M  V30 553 H 49.7583 -1.28723 3.89796 0
M  V30 554 H 48.4193 -1.51402 2.75202 0
M  V30 555 H 47.6123 -0.703077 4.99072 0
M  V30 556 H 47.2143 0.466447 3.7108 0
M  V30 557 H 49.5063 -0.392432 6.76362 0
M  V30 558 H 50.4493 1.11446 6.99275 0
M  V30 559 H 50.8573 0.0115389 5.64499 0
M  V30 560 N 50.2554 -1.46986 0.568584 0
M  V30 561 C 51.5014 -2.02741 0.0488709 0
M  V30 562 C 51.8344 -1.44077 -1.30214 0
M  V30 563 O 51.1094 -0.600552 -1.84996 0
M  V30 564 C 51.3924 -3.60086 -0.032047 0
M  V30 565 C 51.2454 -4.29162 1.34686 0
M  V30 566 C 52.5644 -4.33838 -0.739798 0
M  V30 567 H 49.6834 -0.736749 0.0192338 0
M  V30 568 H 52.3254 -1.75289 0.733065 0
M  V30 569 H 50.4754 -3.83606 -0.61473 0
M  V30 570 H 52.1474 -4.16948 1.97362 0
M  V30 571 H 50.3904 -3.89073 1.91846 0
M  V30 572 H 51.0614 -5.37826 1.24285 0
M  V30 573 H 53.5374 -4.15378 -0.244939 0
M  V30 574 H 52.4134 -5.43537 -0.765406 0
M  V30 575 H 52.6744 -4.03875 -1.79827 0
M  V30 576 N 51.7335 -0.305618 -1.54608 0
M  V30 577 C 52.6435 0.57778 -2.27374 0
M  V30 578 C 53.6595 1.14451 -1.31061 0
M  V30 579 O 54.8355 1.16831 -1.6405 0
M  V30 580 C 51.9005 1.73123 -3.00382 0
M  V30 581 C 50.9615 1.19812 -4.12242 0
M  V30 582 C 50.1945 2.2966 -4.81759 0
M  V30 583 O 50.4175 3.49651 -4.50666 0
M  V30 584 O 49.3515 1.96091 -5.69062 0
M  V30 585 H 53.1775 -0.012624 -3.03697 0
M  V30 586 H 50.7625 -0.0719184 -1.49227 0
M  V30 587 H 52.6445 2.40315 -3.4616 0
M  V30 588 H 51.3195 2.30815 -2.26949 0
M  V30 589 H 50.2265 0.491798 -3.70853 0
M  V30 590 H 51.5595 0.666566 -4.87666 0
M  V30 591 N 53.2116 1.57565 -0.0334293 0
M  V30 592 C 54.1586 2.10478 0.946981 0
M  V30 593 C 55.1286 1.00787 1.32027 0
M  V30 594 O 56.3136 1.28232 1.41284 0
M  V30 595 C 53.4536 2.63994 2.22263 0
M  V30 596 C 52.5666 3.87709 1.90541 0
M  V30 597 C 51.7016 4.29604 3.12433 0
M  V30 598 C 50.7406 5.46065 2.76549 0
M  V30 599 N 49.8776 5.83096 3.9108 0
M  V30 600 H 54.7176 2.93963 0.488846 0
M  V30 601 H 52.2546 1.45296 0.22969 0
M  V30 602 H 54.2126 2.93114 2.96884 0
M  V30 603 H 52.8426 1.83333 2.65685 0
M  V30 604 H 51.8946 3.65291 1.06144 0
M  V30 605 H 53.2066 4.72403 1.60116 0
M  V30 606 H 52.3606 4.60182 3.9537 0
M  V30 607 H 51.0996 3.43685 3.46023 0
M  V30 608 H 50.1046 5.15176 1.92026 0
M  V30 609 H 51.3296 6.33685 2.44171 0
M  V30 610 H 49.2756 5.00132 4.24504 0
M  V30 611 H 49.1926 6.6244 3.64293 0
M  V30 612 H 50.4606 6.18282 4.74708 0
M  V30 613 N 54.6897 -0.239769 1.55765 0
M  V30 614 C 55.9357 -0.963942 1.79108 0
M  V30 615 C 56.2907 -1.82689 0.60352 0
M  V30 616 O 55.5837 -1.87313 -0.403033 0
M  V30 617 C 55.7777 -1.852 3.05672 0
M  V30 618 C 55.6067 -1.07651 4.36625 0
M  V30 619 C 54.3767 -0.778738 4.99263 0
M  V30 620 C 56.5747 -0.45062 5.12322 0
M  V30 621 N 54.5567 0.0200708 6.13897 0
M  V30 622 C 55.9277 0.212429 6.19636 0
M  V30 623 C 57.9827 -0.361806 4.96584 0
M  V30 624 C 56.6857 0.955772 7.12922 0
M  V30 625 C 58.7117 0.368023 5.90254 0
M  V30 626 C 58.0737 1.01968 6.96981 0
M  V30 627 H 54.1727 -0.333601 0.707272 0
M  V30 628 H 56.7567 -0.236425 1.93259 0
M  V30 629 H 54.9277 -2.55149 2.92837 0
M  V30 630 H 56.6597 -2.51228 3.1728 0
M  V30 631 H 53.4147 -1.09229 4.60832 0
M  V30 632 H 53.8387 0.407777 6.75771 0
M  V30 633 H 58.4807 -0.851286 4.14141 0
M  V30 634 H 56.1987 1.45683 7.9486 0
M  V30 635 H 59.7847 0.437504 5.80153 0
M  V30 636 H 58.6647 1.5754 7.68213 0
M  V30 637 N 56.1678 -1.49265 -0.50573 0
M  V30 638 C 57.0978 -1.68495 -1.61653 0
M  V30 639 C 58.0788 -0.53366 -1.61512 0
M  V30 640 O 59.2638 -0.76897 -1.78327 0
M  V30 641 C 56.3938 -1.74709 -3.00157 0
M  V30 642 C 55.3478 -2.89581 -3.15162 0
M  V30 643 C 54.6738 -2.80903 -4.5497 0
M  V30 644 C 55.9738 -4.30578 -2.95634 0
M  V30 645 H 57.6678 -2.61493 -1.45814 0
M  V30 646 H 55.2138 -1.25838 -0.70005 0
M  V30 647 H 57.1668 -1.86748 -3.77761 0
M  V30 648 H 55.8908 -0.783067 -3.17074 0
M  V30 649 H 54.5498 -2.77136 -2.39982 0
M  V30 650 H 54.1978 -1.82419 -4.68756 0
M  V30 651 H 53.8978 -3.57999 -4.65951 0
M  V30 652 H 55.4218 -2.94944 -5.34641 0
M  V30 653 H 56.8358 -4.4373 -3.63011 0
M  V30 654 H 55.2328 -5.0886 -3.18091 0
M  V30 655 H 56.3028 -4.45352 -1.91806 0
M  V30 656 N 57.6459 0.756429 -1.3826 0
M  V30 657 C 58.5779 1.87971 -1.31147 0
M  V30 658 C 59.5909 1.61248 -0.224239 0
M  V30 659 O 60.7799 1.71881 -0.481581 0
M  V30 660 C 57.8799 3.23545 -1.00857 0
M  V30 661 C 57.0529 3.77794 -2.20432 0
M  V30 662 C 56.1119 4.91877 -1.86931 0
M  V30 663 O 55.1379 5.06659 -2.59395 0
M  V30 664 N 56.3399 5.74643 -0.822568 0
M  V30 665 H 59.1049 1.94585 -2.2794 0
M  V30 666 H 56.6659 0.936234 -1.32084 0
M  V30 667 H 58.6579 3.97403 -0.765021 0
M  V30 668 H 57.2279 3.12335 -0.128687 0
M  V30 669 H 56.4479 2.95534 -2.6087 0
M  V30 670 H 57.7359 4.10771 -3.00241 0
M  V30 671 H 57.1339 5.65266 -0.221575 0
M  V30 672 H 55.6909 6.48661 -0.638899 0
M  V30 673 N 59.124 1.23083 0.984299 0
M  V30 674 C 60.54 0.992637 1.24975 0
M  V30 675 C 60.74 -0.308618 1.99123 0
M  V30 676 O 59.796 -1.02905 2.30579 0
M  V30 677 C 61.109 2.19698 2.05312 0
M  V30 678 C 62.657 2.24147 2.18465 0
M  V30 679 C 63.132 3.44157 3.02192 0
M  V30 680 N 64.623 3.44372 3.09777 0
M  V30 681 C 65.358 4.33886 3.74874 0
M  V30 682 N 64.854 5.3363 4.41827 0
M  V30 683 N 66.647 4.21639 3.71721 0
M  V30 684 H 58.798 2.06731 0.487453 0
M  V30 685 H 61.061 0.906339 0.277944 0
M  V30 686 H 60.767 3.1411 1.58201 0
M  V30 687 H 60.641 2.20465 3.06064 0
M  V30 688 H 63.028 1.30277 2.64786 0
M  V30 689 H 63.109 2.27415 1.17115 0
M  V30 690 H 62.753 4.38332 2.56568 0
M  V30 691 H 62.683 3.3813 4.03702 0
M  V30 692 H 65.174 2.72201 2.62135 0
M  V30 693 H 65.487 5.98196 4.89266 0
M  V30 694 H 63.832 5.37534 4.40548 0
M  V30 695 H 67.023 3.42962 3.18582 0
M  V30 696 H 67.196 4.91604 4.22173 0
M  V30 697 N 60.6021 -1.18246 1.0419 0
M  V30 698 C 61.5521 -2.19843 0.604392 0
M  V30 699 C 62.5361 -1.56962 -0.353814 0
M  V30 700 O 63.7281 -1.76156 -0.17267 0
M  V30 701 C 60.8571 -3.43287 -0.0298975 0
M  V30 702 C 59.9431 -4.13288 0.951531 0
M  V30 703 N 60.3341 -4.59271 2.11906 0
M  V30 704 C 58.6321 -4.39165 0.7778 0
M  V30 705 C 59.3331 -5.13173 2.73912 0
M  V30 706 N 58.3091 -5.04763 2.01779 0
M  V30 707 H 62.1111 -2.53089 1.4941 0
M  V30 708 H 59.6251 -1.34465 0.910658 0
M  V30 709 H 61.6221 -4.15334 -0.361037 0
M  V30 710 H 60.2821 -3.11537 -0.915127 0
M  V30 711 H 61.2931 -4.5368 2.49789 0
M  V30 712 H 57.9701 -4.17461 -0.0572331 0
M  V30 713 H 59.3601 -5.58947 3.72864 0
M  V30 714 N 62.0802 -0.821533 -1.34494 0
M  V30 715 C 63.3052 -0.420873 -2.03085 0
M  V30 716 C 63.7302 0.964915 -1.61465 0
M  V30 717 O 63.0882 1.62763 -0.798607 0
M  V30 718 C 63.1362 -0.529414 -3.56693 0
M  V30 719 O 62.2402 0.451302 -4.09923 0
M  V30 720 H 61.5812 -0.173489 -0.640935 0
M  V30 721 H 64.1112 -1.11157 -1.71771 0
M  V30 722 H 64.1212 -0.404671 -4.05988 0
M  V30 723 H 62.7962 -1.54014 -3.86332 0
M  V30 724 H 61.3732 0.285558 -3.71805 0
M  V30 725 N 63.5583 1.46682 -0.576371 0
M  V30 726 C 64.4903 2.28341 0.198231 0
M  V30 727 C 65.5033 1.38141 0.861453 0
M  V30 728 O 66.6923 1.62797 0.732082 0
M  V30 729 C 63.7923 3.12986 1.29972 0
M  V30 730 C 62.9653 4.31271 0.729639 0
M  V30 731 C 62.0243 4.97363 1.71803 0
M  V30 732 O 61.0503 5.55156 1.25658 0
M  V30 733 N 62.2523 4.93796 3.05198 0
M  V30 734 H 65.0173 2.9546 -0.502324 0
M  V30 735 H 62.5783 1.56525 -0.413715 0
M  V30 736 H 64.5703 3.54066 1.96008 0
M  V30 737 H 63.1403 2.47984 1.90323 0
M  V30 738 H 62.3603 3.94052 -0.108012 0
M  V30 739 H 63.6483 5.07739 0.328438 0
M  V30 740 H 63.0463 4.48077 3.45317 0
M  V30 741 H 61.6033 5.38837 3.6674 0
M  V30 742 N 65.0364 0.313813 1.54444 0
M  V30 743 C 66.2844 -0.291099 1.99993 0
M  V30 744 C 66.6054 -1.53418 1.20366 0
M  V30 745 O 65.8754 -1.93544 0.302927 0
M  V30 746 H 64.4554 -0.110552 0.738774 0
M  V30 747 H 67.1174 0.428106 1.9014 0
M  V30 748 H 66.2134 -0.554268 3.07139 0
M  V30 749 N 66.5145 -1.57545 0.0417849 0
M  V30 750 C 67.4465 -2.07904 -0.964799 0
M  V30 751 C 68.4595 -1.00497 -1.28079 0
M  V30 752 O 69.6485 -1.28087 -1.24322 0
M  V30 753 C 66.7485 -2.49928 -2.28887 0
M  V30 754 C 65.9215 -3.80562 -2.15619 0
M  V30 755 C 64.9805 -4.08999 -3.31069 0
M  V30 756 O 64.0065 -4.79061 -3.0739 0
M  V30 757 N 65.2085 -3.6017 -4.55256 0
M  V30 758 H 67.9735 -2.94886 -0.535029 0
M  V30 759 H 65.5345 -1.61252 -0.144681 0
M  V30 760 H 67.5265 -2.66034 -3.04972 0
M  V30 761 H 66.0965 -1.68245 -2.63463 0
M  V30 762 H 65.3165 -3.74129 -1.24183 0
M  V30 763 H 66.6045 -4.66126 -2.03971 0
M  V30 764 H 66.0025 -3.03512 -4.77386 0
M  V30 765 H 64.5595 -3.81532 -5.28466 0
M  V30 766 N 67.9926 0.231505 -1.5589 0
M  V30 767 C 69.2406 0.955461 -1.78088 0
M  V30 768 C 69.5616 1.85262 -0.608533 0
M  V30 769 O 68.8316 1.92277 0.375035 0
M  V30 770 H 67.4116 0.355787 -0.656829 0
M  V30 771 H 70.0736 0.245751 -1.93344 0
M  V30 772 H 69.1696 1.56814 -2.69844 0
M  V30 773 N 69.4707 1.49531 0.497807 0
M  V30 774 C 70.4337 1.65916 1.58128 0
M  V30 775 C 71.4337 0.530825 1.51786 0
M  V30 776 O 72.6237 0.797342 1.54881 0
M  V30 777 C 69.7557 1.65951 2.9778 0
M  V30 778 H 70.9487 2.62556 1.44929 0
M  V30 779 H 68.5017 1.38611 0.722275 0
M  V30 780 H 69.2367 0.709065 3.16453 0
M  V30 781 H 69.0217 2.47897 3.03792 0
M  V30 782 H 70.5117 1.80673 3.76493 0
M  V30 783 N 70.9488 -0.749086 1.3866 0
M  V30 784 C 71.8788 -1.8764 1.38973 0
M  V30 785 C 72.8598 -1.68178 0.255004 0
M  V30 786 O 74.0448 -1.88704 0.458754 0
M  V30 787 C 71.1748 -3.25222 1.21851 0
M  V30 788 C 70.1288 -3.59295 2.32575 0
M  V30 789 C 69.4548 -4.95663 2.00555 0
M  V30 790 C 70.7548 -3.63709 3.7485 0
M  V30 791 H 72.4488 -1.87635 2.3331 0
M  V30 792 H 69.9948 -0.901329 1.12303 0
M  V30 793 H 71.9478 -4.03746 1.20695 0
M  V30 794 H 70.6718 -3.25719 0.239775 0
M  V30 795 H 69.3308 -2.83093 2.32925 0
M  V30 796 H 68.9788 -4.92724 1.01154 0
M  V30 797 H 68.6788 -5.19429 2.74714 0
M  V30 798 H 70.2028 -5.7656 2.01024 0
M  V30 799 H 71.6168 -4.32338 3.76506 0
M  V30 800 H 70.0138 -3.98986 4.48252 0
M  V30 801 H 71.0838 -2.63834 4.06841 0
M  V30 802 N 72.4269 -1.23603 -0.977757 0
M  V30 803 C 73.6749 -1.06759 -1.71601 0
M  V30 804 C 73.9959 0.395929 -1.90938 0
M  V30 805 O 73.2659 1.28356 -1.47992 0
M  V30 806 H 71.8459 -0.392062 -0.635843 0
M  V30 807 H 74.5079 -1.55362 -1.1768 0
M  V30 808 H 73.6039 -1.55763 -2.70452 0
M  V30 809 N 73.905 1.17692 -1.04816 0
M  V30 810 C 75.316 1.69501 -0.782698 0
M  V30 811 C 75.667 1.83456 0.695577 0
M  V30 812 O 74.792 1.51942 1.54086 0
M  V30 813 C 75.387 3.07874 -1.41419 0
M  V30 814 C 73.946 3.56864 -1.19686 0
M  V30 815 C 73.093 2.3322 -1.50012 0
M  V30 816 H 76.044 1.02262 -1.2136 0
M  V30 817 H 76.065 3.71528 -0.821428 0
M  V30 818 H 75.577 2.97685 -2.49009 0
M  V30 819 H 73.678 3.72337 -0.140043 0
M  V30 820 H 73.791 4.39851 -1.89916 0
M  V30 821 H 72.155 2.37501 -0.920071 0
M  V30 822 H 72.938 2.25644 -2.58727 0
M  V30 823 N 75.3831 0.828654 1.34056 0
M  V30 824 C 76.7991 0.515135 1.51058 0
M  V30 825 C 76.9991 -0.959581 1.77184 0
M  V30 826 O 76.0551 -1.74382 1.82612 0
M  V30 827 C 77.3681 1.37963 2.67183 0
M  V30 828 C 78.9161 1.37735 2.81066 0
M  V30 829 C 79.3911 2.22645 4.00241 0
M  V30 830 N 80.8821 2.203 4.07458 0
M  V30 831 C 81.6171 2.82744 4.98842 0
M  V30 832 N 81.1131 3.54201 5.9541 0
M  V30 833 N 82.9061 2.72268 4.91759 0
M  V30 834 H 75.0571 1.78343 1.15358 0
M  V30 835 H 77.3201 0.760304 0.566252 0
M  V30 836 H 77.0261 2.42714 2.54525 0
M  V30 837 H 76.9001 1.0484 3.62338 0
M  V30 838 H 79.2871 0.337593 2.93163 0
M  V30 839 H 79.3681 1.74859 1.86703 0
M  V30 840 H 79.0121 3.26674 3.88905 0
M  V30 841 H 78.9421 1.82869 4.93829 0
M  V30 842 H 81.4331 1.68327 3.38341 0
M  V30 843 H 81.7461 3.9908 6.61782 0
M  V30 844 H 80.0911 3.58308 5.95517 0
M  V30 845 H 83.2821 2.16014 4.15278 0
M  V30 846 H 83.4551 3.21219 5.62781 0
M  V30 847 N 76.8612 -1.46375 0.584142 0
M  V30 848 C 78.2722 -1.86031 0.157959 0
M  V30 849 C 78.6232 -1.48753 -1.27933 0
M  V30 850 O 77.7482 -0.903098 -1.96655 0
M  V30 851 C 78.3432 -3.37642 0.279892 0
M  V30 852 C 76.9022 -3.76289 -0.09143 0
M  V30 853 C 76.0492 -2.7039 0.615178 0
M  V30 854 H 79.0002 -1.37509 0.792274 0
M  V30 855 H 79.0212 -3.77275 -0.494364 0
M  V30 856 H 78.5332 -3.64742 1.32607 0
M  V30 857 H 76.6342 -3.54806 -1.13769 0
M  V30 858 H 76.7472 -4.78246 0.285886 0
M  V30 859 H 75.1112 -2.5464 0.0552833 0
M  V30 860 H 75.8942 -3.0033 1.66303 0
M  V30 861 N 78.3393 -0.321999 -1.54275 0
M  V30 862 C 79.5643 0.285791 -2.05422 0
M  V30 863 C 79.9893 1.45124 -1.19669 0
M  V30 864 O 79.3473 1.80132 -0.205441 0
M  V30 865 C 79.3953 0.69956 -3.53749 0
M  V30 866 O 78.4993 1.8021 -3.70942 0
M  V30 867 H 77.8403 0.0518962 -0.661969 0
M  V30 868 H 80.3703 -0.469954 -1.9913 0
M  V30 869 H 80.3803 0.982649 -3.9599 0
M  V30 870 H 79.0553 -0.152864 -4.15619 0
M  V30 871 H 77.6323 1.51794 -3.40607 0
M  V30 872 N 79.8174 1.5752 -0.0501392 0
M  V30 873 C 80.7474 2.14502 0.922566 0
M  V30 874 C 81.7284 1.06642 1.3252 0
M  V30 875 O 82.9134 1.34577 1.4001 0
M  V30 876 C 80.0434 2.68916 2.19776 0
M  V30 877 C 78.9974 3.8175 1.93523 0
M  V30 878 C 78.3234 4.22677 3.27487 0
M  V30 879 C 79.6234 5.06932 1.25765 0
M  V30 880 H 81.3174 2.9603 0.447952 0
M  V30 881 H 78.8634 1.42401 0.214024 0
M  V30 882 H 80.8164 3.07419 2.88222 0
M  V30 883 H 79.5404 1.84578 2.69441 0
M  V30 884 H 78.1994 3.43718 1.27489 0
M  V30 885 H 77.8474 3.35291 3.74952 0
M  V30 886 H 77.5474 4.98725 3.1072 0
M  V30 887 H 79.0714 4.63779 3.97166 0
M  V30 888 H 80.4854 5.42888 1.84244 0
M  V30 889 H 78.8824 5.88116 1.19328 0
M  V30 890 H 79.9524 4.84337 0.233536 0
M  V30 891 N 81.2955 -0.223234 1.56011 0
M  V30 892 C 82.2585 -1.26014 1.9145 0
M  V30 893 C 83.2585 -1.3989 0.792937 0
M  V30 894 O 84.4485 -1.38184 1.0607 0
M  V30 895 C 81.5805 -2.63422 2.16383 0
M  V30 896 H 82.7735 -0.95796 2.84189 0
M  V30 897 H 80.3265 -0.463576 1.49267 0
M  V30 898 H 81.0615 -2.98741 1.2619 0
M  V30 899 H 80.8465 -2.54728 2.98088 0
M  V30 900 H 82.3365 -3.38249 2.44903 0
M  V30 901 N 82.7736 -1.49793 -0.48987 0
M  V30 902 C 84.0216 -1.59525 -1.24081 0
M  V30 903 C 84.3426 -0.288953 -1.92847 0
M  V30 904 O 83.6126 0.692436 -1.83254 0
M  V30 905 H 82.1926 -0.587796 -0.460983 0
M  V30 906 H 84.8546 -1.86477 -0.566778 0
M  V30 907 H 83.9506 -2.39696 -1.99881 0
M  V30 908 N 84.2517 0.741722 -1.39055 0
M  V30 909 C 85.4797 1.53098 -1.39171 0
M  V30 910 C 85.8947 1.88794 0.0155099 0
M  V30 911 O 85.2517 1.53626 0.985159 0
M  V30 912 C 85.3027 2.82274 -2.2584 0
M  V30 913 O 85.0237 2.48097 -3.61081 0
M  V30 914 C 86.5247 3.76343 -2.34266 0
M  V30 915 H 83.7447 0.473335 -0.4756 0
M  V30 916 H 86.2887 0.917045 -1.82785 0
M  V30 917 H 84.4437 3.40015 -1.85656 0
M  V30 918 H 84.8577 3.31029 -4.06842 0
M  V30 919 H 86.3317 4.63898 -2.9917 0
M  V30 920 H 86.8087 4.17619 -1.35982 0
M  V30 921 H 87.4147 3.24523 -2.74891 0
M  V30 922 N 85.7298 1.2412 0.971189 0
M  V30 923 C 86.9548 1.10667 1.75407 0
M  V30 924 C 87.3798 -0.337048 1.85056 0
M  V30 925 O 86.7378 -1.24396 1.31892 0
M  V30 926 C 86.7858 1.74726 3.15441 0
M  V30 927 O 85.8898 1.01566 3.99697 0
M  V30 928 H 85.2308 0.387341 0.539317 0
M  V30 929 H 87.7608 1.64358 1.2185 0
M  V30 930 H 87.7708 1.80341 3.6598 0
M  V30 931 H 86.4458 2.79773 3.07734 0
M  V30 932 H 85.0228 1.03713 3.58187 0
M  V30 933 N 87.2079 -1.17134 1.05439 0
M  V30 934 C 88.4329 -1.91913 0.786396 0
M  V30 935 C 88.8579 -1.7643 -0.652234 0
M  V30 936 O 88.2159 -1.08372 -1.45345 0
M  V30 937 C 88.2639 -3.40921 1.17497 0
M  V30 938 O 87.3679 -4.11244 0.308589 0
M  V30 939 H 86.7089 -0.598215 0.288158 0
M  V30 940 H 89.2389 -1.48457 1.4079 0
M  V30 941 H 89.2489 -3.91668 1.14281 0
M  V30 942 H 87.9239 -3.5151 2.22292 0
M  V30 943 H 86.5009 -3.70731 0.40157 0
M  V30 944 N 88.686 -0.835752 -1.33615 0
M  V30 945 C 89.616 -0.281739 -2.31794 0
M  V30 946 C 90.597 0.608833 -1.58831 0
M  V30 947 O 91.782 0.533035 -1.86741 0
M  V30 948 C 88.912 0.546612 -3.42971 0
M  V30 949 C 87.866 -0.247904 -4.27281 0
M  V30 950 C 87.192 0.704001 -5.30045 0
M  V30 951 C 88.492 -1.46324 -5.01385 0
M  V30 952 H 90.186 -1.10206 -2.78379 0
M  V30 953 H 87.732 -0.531388 -1.33837 0
M  V30 954 H 89.685 0.944467 -4.1068 0
M  V30 955 H 88.409 1.40011 -2.95067 0
M  V30 956 H 87.068 -0.627281 -3.61194 0
M  V30 957 H 86.716 1.55381 -4.78399 0
M  V30 958 H 86.416 0.176524 -5.87335 0
M  V30 959 H 87.94 1.09944 -6.0062 0
M  V30 960 H 89.354 -1.13871 -5.61877 0
M  V30 961 H 87.751 -1.92728 -5.6831 0
M  V30 962 H 88.821 -2.23467 -4.30338 0
M  V30 963 N 90.1641 1.46063 -0.591896 0
M  V30 964 C 91.1271 2.28854 0.125973 0
M  V30 965 C 92.1271 1.38903 0.810107 0
M  V30 966 O 93.3171 1.61186 0.66066 0
M  V30 967 C 90.4491 3.19526 1.1881 0
M  V30 968 H 91.6421 2.93802 -0.601717 0
M  V30 969 H 89.1951 1.52325 -0.350254 0
M  V30 970 H 89.9301 2.59345 1.94707 0
M  V30 971 H 89.7151 3.85766 0.701936 0
M  V30 972 H 91.2051 3.81817 1.69132 0
M  V30 973 N 91.6422 0.330177 1.54103 0
M  V30 974 C 92.5922 -0.548456 2.21305 0
M  V30 975 C 93.5762 -1.07651 1.19583 0
M  V30 976 O 94.7682 -1.01243 1.45186 0
M  V30 977 C 91.8972 -1.70559 2.97934 0
M  V30 978 C 90.9832 -1.19212 4.07 0
M  V30 979 N 91.3742 -0.398831 5.04225 0
M  V30 980 C 89.6722 -1.47024 4.2107 0
M  V30 981 C 90.3732 -0.121761 5.81573 0
M  V30 982 N 89.3492 -0.709722 5.38947 0
M  V30 983 H 93.1512 0.0648483 2.93828 0
M  V30 984 H 90.6652 0.136363 1.61826 0
M  V30 985 H 92.6622 -2.34688 3.44568 0
M  V30 986 H 91.3222 -2.32231 2.26934 0
M  V30 987 H 92.3332 -0.0410869 5.17884 0
M  V30 988 H 89.0102 -2.09232 3.61287 0
M  V30 989 H 90.4002 0.517298 6.69906 0
M  V30 990 N 93.1203 -1.57491 0.0584922 0
M  V30 991 C 94.3453 -1.97711 -0.62652 0
M  V30 992 C 94.7703 -0.936132 -1.63151 0
M  V30 993 O 94.1283 0.099811 -1.81025 0
M  V30 994 C 94.1763 -3.36989 -1.28338 0
M  V30 995 O 93.2803 -3.35433 -2.39913 0
M  V30 996 H 92.6213 -0.643868 -0.162266 0
M  V30 997 H 95.1513 -2.04193 0.129064 0
M  V30 998 H 95.1613 -3.73879 -1.63335 0
M  V30 999 H 93.8363 -4.12289 -0.546889 0
M  V30 1000 H 92.4133 -3.10298 -2.06809 0
M  V30 1001 N 94.5984 0.214957 -1.56127 0
M  V30 1002 C 95.8264 0.955092 -1.83536 0
M  V30 1003 C 96.2414 1.77677 -0.638472 0
M  V30 1004 O 95.5984 1.78219 0.392968 0
M  V30 1005 C 95.6494 1.86734 -3.09536 0
M  V30 1006 O 95.3704 1.07887 -4.24608 0
M  V30 1007 C 96.8714 2.72082 -3.4998 0
M  V30 1008 H 94.0914 0.279611 -0.609966 0
M  V30 1009 H 96.6354 0.228197 -2.03223 0
M  V30 1010 H 94.7904 2.5481 -2.91806 0
M  V30 1011 H 95.2044 1.69872 -4.9623 0
M  V30 1012 H 96.6784 3.31782 -4.41163 0
M  V30 1013 H 97.1554 3.44806 -2.7204 0
M  V30 1014 H 97.7614 2.09409 -3.70173 0
M  V30 1015 N 96.0765 1.50051 0.48192 0
M  V30 1016 C 97.3165 1.62128 1.24474 0
M  V30 1017 C 97.6805 0.309742 1.89485 0
M  V30 1018 O 98.8815 0.305854 2.67054 0
M  V30 1019 C 97.1525 2.76151 2.26882 0
M  V30 1020 S 98.7115 3.08297 3.12247 0
M  V30 1021 H 95.5295 0.571661 0.422759 0
M  V30 1022 H 98.1315 1.87791 0.54359 0
M  V30 1023 H 96.8355 3.69942 1.77683 0
M  V30 1024 H 96.3665 2.52541 3.0164 0
M  V30 1025 H 98.3815 2.51287 4.27866 0
M  V30 1026 N 97.5546 -0.734337 1.39446 0
M  V30 1027 C 98.9706 -1.03997 1.21065 0
M  V30 1028 C 99.1706 -2.01369 0.0727019 0
M  V30 1029 O 98.2266 -2.45856 -0.575426 0
M  V30 1030 C 99.5396 -1.60163 2.54496 0
M  V30 1031 C 101.088 -1.7224 2.61347 0
M  V30 1032 C 101.563 -2.31814 3.95002 0
M  V30 1033 N 103.054 -2.39223 3.96644 0
M  V30 1034 C 103.789 -2.86258 4.96834 0
M  V30 1035 N 103.285 -3.33184 6.07421 0
M  V30 1036 N 105.078 -2.85473 4.84213 0
M  V30 1037 H 97.2286 -0.0885624 2.12215 0
M  V30 1038 H 99.4916 -0.10191 0.942506 0
M  V30 1039 H 99.1976 -0.960811 3.38321 0
M  V30 1040 H 99.0716 -2.5896 2.74262 0
M  V30 1041 H 101.459 -2.35443 1.77906 0
M  V30 1042 H 101.54 -0.720939 2.4543 0
M  V30 1043 H 101.184 -1.69238 4.78875 0
M  V30 1044 H 101.114 -3.32638 4.08239 0
M  V30 1045 H 103.605 -2.06057 3.16779 0
M  V30 1046 H 103.918 -3.67586 6.7978 0
M  V30 1047 H 102.263 -3.31191 6.11013 0
M  V30 1048 H 105.454 -2.48136 3.96921 0
M  V30 1049 H 105.627 -3.21814 5.62441 0
M  V30 1050 N 99.0327 -1.24633 -0.964593 0
M  V30 1051 C 100.281 -1.08573 -1.70459 0
M  V30 1052 C 100.602 0.375655 -1.91347 0
M  V30 1053 O 99.8717 1.26779 -1.49345 0
M  V30 1054 H 98.4517 -0.398784 -0.631649 0
M  V30 1055 H 101.114 -1.56601 -1.16026 0
M  V30 1056 H 100.21 -1.58623 -2.68785 0
M  V30 1057 N 100.511 1.16574 -1.06058 0
M  V30 1058 C 101.759 1.86677 -0.77434 0
M  V30 1059 C 102.08 1.81959 0.701147 0
M  V30 1060 O 101.35 1.2515 1.50713 0
M  V30 1061 H 99.9298 0.691134 -0.283449 0
M  V30 1062 H 102.592 1.41378 -1.34158 0
M  V30 1063 H 101.688 2.92181 -1.09711 0
M  V30 1064 N 101.989 0.842826 1.3317 0
M  V30 1065 C 103.214 0.453129 2.02389 0
M  V30 1066 C 103.639 -0.939105 1.6298 0
M  V30 1067 O 102.997 -1.61472 0.8244 0
M  V30 1068 C 103.045 0.586094 3.55805 0
M  V30 1069 O 102.149 -0.386029 4.10589 0
M  V30 1070 H 101.49 0.183664 0.638094 0
M  V30 1071 H 104.02 1.13875 1.69981 0
M  V30 1072 H 104.03 0.469209 4.05293 0
M  V30 1073 H 102.705 1.6014 3.83833 0
M  V30 1074 H 101.282 -0.226371 3.72212 0
M  V30 1075 N 103.467 -1.45747 0.599634 0
M  V30 1076 C 104.692 -2.07178 0.0960198 0
M  V30 1077 C 105.117 -1.44268 -1.207 0
M  V30 1078 O 104.475 -0.532503 -1.73303 0
M  V30 1079 C 104.523 -3.60579 -0.0385348 0
M  V30 1080 O 103.627 -3.97713 -1.0908 0
M  V30 1081 H 102.968 -0.660251 0.0704593 0
M  V30 1082 H 105.498 -1.87124 0.827385 0
M  V30 1083 H 105.508 -4.07298 -0.239304 0
M  V30 1084 H 104.183 -4.05756 0.912947 0
M  V30 1085 H 102.76 -3.62678 -0.867135 0
M  V30 1086 N 104.945 -0.338344 -1.53925 0
M  V30 1087 C 106.191 0.260143 -2.01125 0
M  V30 1088 C 106.524 1.50617 -1.22589 0
M  V30 1089 O 105.799 1.91979 -0.312113 0
M  V30 1090 C 106.082 0.579499 -3.55407 0
M  V30 1091 C 105.935 -0.678264 -4.44657 0
M  V30 1092 C 107.254 1.39122 -4.17532 0
M  V30 1093 H 104.373 0.0930772 -0.731099 0
M  V30 1094 H 107.015 -0.457852 -1.84401 0
M  V30 1095 H 105.165 1.19118 -3.69788 0
M  V30 1096 H 106.837 -1.31631 -4.42121 0
M  V30 1097 H 105.08 -1.3042 -4.13731 0
M  V30 1098 H 105.751 -0.410143 -5.50474 0
M  V30 1099 H 108.227 0.874035 -4.06817 0
M  V30 1100 H 107.103 1.58342 -5.25565 0
M  V30 1101 H 107.364 2.39178 -3.71815 0
M  V30 1102 N 106.423 1.57458 -0.0668435 0
M  V30 1103 C 107.671 1.92919 0.602214 0
M  V30 1104 C 107.992 0.947215 1.70449 0
M  V30 1105 O 107.262 -0.00544117 1.95899 0
M  V30 1106 H 105.842 0.71217 0.22544 0
M  V30 1107 H 108.504 1.94508 -0.123535 0
M  V30 1108 H 107.6 2.94589 1.03073 0
M  V30 1109 N 107.901 -0.206675 1.56239 0
M  V30 1110 C 109.149 -0.927007 1.79586 0
M  V30 1111 C 109.47 -1.8427 0.637929 0
M  V30 1112 O 108.74 -1.92849 -0.344398 0
M  V30 1113 H 107.32 -0.345292 0.662407 0
M  V30 1114 H 109.982 -0.21496 1.93711 0
M  V30 1115 H 109.078 -1.52501 2.72305 0
M  V30 1116 N 109.379 -1.50304 -0.473955 0
M  V30 1117 C 110.627 -1.60832 -1.22382 0
M  V30 1118 C 110.948 -0.30939 -1.9253 0
M  V30 1119 O 110.218 0.67296 -1.83978 0
M  V30 1120 H 108.798 -0.592652 -0.454723 0
M  V30 1121 H 111.46 -1.87068 -0.546968 0
M  V30 1122 H 110.556 -2.41803 -1.97327 0
M  V30 1123 N 110.857 0.726932 -1.39834 0
M  V30 1124 C 112.085 1.51613 -1.40787 0
M  V30 1125 C 112.5 1.88799 -0.00451505 0
M  V30 1126 O 111.857 1.54662 0.968809 0
M  V30 1127 C 111.908 2.79863 -2.28821 0
M  V30 1128 O 111.629 2.44253 -3.63692 0
M  V30 1129 C 113.13 3.73837 -2.38245 0
M  V30 1130 H 110.35 0.468264 -0.480593 0
M  V30 1131 H 112.894 0.897607 -1.83748 0
M  V30 1132 H 111.049 3.38027 -1.89252 0
M  V30 1133 H 111.463 3.26695 -4.1033 0
M  V30 1134 H 112.937 4.60699 -3.04073 0
M  V30 1135 H 113.414 4.16153 -1.40403 0
M  V30 1136 H 114.02 3.21589 -2.78317 0
M  V30 1137 N 112.336 1.25143 0.95797 0
M  V30 1138 C 113.584 1.09476 1.69881 0
M  V30 1139 C 113.905 -0.365502 1.91544 0
M  V30 1140 O 113.175 -1.25985 1.50015 0
M  V30 1141 H 111.755 0.402128 0.629525 0
M  V30 1142 H 114.417 1.57214 1.15194 0
M  V30 1143 H 113.513 1.60046 2.6794 0
M  V30 1144 N 113.814 -1.1601 1.06675 0
M  V30 1145 C 115.225 -1.68235 0.809565 0
M  V30 1146 C 115.576 -1.8454 -0.666303 0
M  V30 1147 O 114.701 -1.54374 -1.5165 0
M  V30 1148 C 115.296 -3.05585 1.46299 0
M  V30 1149 C 113.855 -3.54915 1.25349 0
M  V30 1150 C 113.002 -2.30804 1.53703 0
M  V30 1151 H 115.953 -1.00318 1.22971 0
M  V30 1152 H 115.974 -3.70174 0.880431 0
M  V30 1153 H 115.486 -2.93686 2.53713 0
M  V30 1154 H 113.587 -3.72067 0.199261 0
M  V30 1155 H 113.7 -4.36774 1.9689 0
M  V30 1156 H 112.064 -2.36007 0.957739 0
M  V30 1157 H 112.847 -2.21499 2.62284 0
M  V30 1158 N 115.292 -0.849877 -1.32721 0
M  V30 1159 C 116.24 -0.279745 -2.30912 0
M  V30 1160 C 117.234 0.594278 -1.58634 0
M  V30 1161 O 118.44 0.482613 -1.73409 0
M  V30 1162 H 114.815 -0.0717521 -0.748569 0
M  V30 1163 H 116.786 -1.12222 -2.76494 0
M  V30 1164 C 115.535 0.521108 -3.43773 0
M  V30 1165 H 114.858 -0.142141 -3.99547 0
M  V30 1166 H 116.298 0.885693 -4.14646 0
M  V30 1167 C 114.757 1.70442 -2.90605 0
M  V30 1168 O 115.287 2.8034 -2.87702 0
M  V30 1169 N 113.493 1.52991 -2.47067 0
M  V30 1170 H 113.04 0.635914 -2.49628 0
M  V30 1171 H 112.998 2.32311 -2.11847 0
M  V30 1172 N 116.77 1.45427 -0.607355 0
M  V30 1173 C 118.018 2.01841 -0.102253 0
M  V30 1174 C 118.339 1.47832 1.27164 0
M  V30 1175 O 117.609 0.672497 1.83995 0
M  V30 1176 H 116.189 0.746188 -0.0348101 0
M  V30 1177 H 118.851 1.78229 -0.7887 0
M  V30 1178 H 117.947 3.12057 -0.0518585 0
M  V30 1179 N 118.248 0.346503 1.53744 0
M  V30 1180 C 119.473 -0.253074 2.0585 0
M  V30 1181 C 119.898 -1.43202 1.21962 0
M  V30 1182 O 119.256 -1.79783 0.234073 0
M  V30 1183 C 119.304 -0.643193 3.54817 0
M  V30 1184 O 118.408 -1.74286 3.73762 0
M  V30 1185 H 117.749 -0.0413583 0.662711 0
M  V30 1186 H 120.279 0.501574 1.98357 0
M  V30 1187 H 120.289 -0.919526 3.97503 0
M  V30 1188 H 118.964 0.218966 4.15323 0
M  V30 1189 H 117.541 -1.46356 3.42979 0
M  V30 1190 N 119.726 -1.57421 0.075193 0
M  V30 1191 C 120.689 -2.11791 -0.876203 0
M  V30 1192 C 121.689 -1.04268 -1.22412 0
M  V30 1193 O 122.879 -1.30242 -1.15684 0
M  V30 1194 C 120.011 -2.62207 -2.17854 0
M  V30 1195 H 121.204 -2.9716 -0.40444 0
M  V30 1196 H 118.757 -1.55333 -0.173557 0
M  V30 1197 H 119.492 -1.803 -2.6956 0
M  V30 1198 H 119.277 -3.40802 -1.93897 0
M  V30 1199 H 120.767 -3.04335 -2.85955 0
M  V30 1200 N 121.204 0.198386 -1.56346 0
M  V30 1201 C 122.154 1.2499 -1.90687 0
M  V30 1202 C 123.138 1.41158 -0.772217 0
M  V30 1203 O 124.33 1.43584 -1.03502 0
M  V30 1204 C 121.459 2.59542 -2.24706 0
M  V30 1205 C 120.545 2.47181 -3.44619 0
M  V30 1206 N 120.936 2.04495 -4.62618 0
M  V30 1207 C 119.234 2.78082 -3.48692 0
M  V30 1208 C 119.935 2.03945 -5.44776 0
M  V30 1209 N 118.911 2.45323 -4.85095 0
M  V30 1210 H 122.713 0.911149 -2.7942 0
M  V30 1211 H 120.227 0.40684 -1.57221 0
M  V30 1212 H 122.224 3.3549 -2.47491 0
M  V30 1213 H 120.884 2.94244 -1.37298 0
M  V30 1214 H 121.895 1.75256 -4.87345 0
M  V30 1215 H 118.572 3.17002 -2.71691 0
M  V30 1216 H 119.962 1.72872 -6.4928 0
M  V30 1217 N 122.682 1.50554 0.465978 0
M  V30 1218 C 123.907 1.65838 1.24549 0
M  V30 1219 C 124.332 0.343486 1.84937 0
M  V30 1220 O 123.69 -0.69324 1.67523 0
M  V30 1221 C 123.738 2.75533 2.32624 0
M  V30 1222 O 122.842 2.37142 3.37398 0
M  V30 1223 H 122.183 0.553893 0.366194 0
M  V30 1224 H 124.713 1.96959 0.553927 0
M  V30 1225 H 124.723 2.98763 2.77857 0
M  V30 1226 H 123.398 3.70962 1.88043 0
M  V30 1227 H 121.975 2.24377 2.97841 0
M  V30 1228 N 124.16 -0.719506 1.40217 0
M  V30 1229 C 125.092 -1.84428 1.36084 0
M  V30 1230 C 126.105 -1.60597 0.266913 0
M  V30 1231 O 127.294 -1.70544 0.526983 0
M  V30 1232 C 124.394 -3.20757 1.094 0
M  V30 1233 C 123.567 -3.71817 2.30372 0
M  V30 1234 C 122.626 -4.86748 1.99907 0
M  V30 1235 O 121.652 -4.99603 2.72737 0
M  V30 1236 N 122.854 -5.7226 0.974635 0
M  V30 1237 H 125.619 -1.88473 2.33019 0
M  V30 1238 H 123.18 -0.900885 1.3452 0
M  V30 1239 H 125.172 -3.95235 0.870116 0
M  V30 1240 H 123.742 -3.11884 0.211452 0
M  V30 1241 H 122.962 -2.88514 2.68614 0
M  V30 1242 H 124.25 -4.02666 3.11026 0
M  V30 1243 H 123.648 -5.6448 0.371368 0
M  V30 1244 H 122.205 -6.46739 0.810656 0
M  V30 1245 N 125.638 -1.25649 -0.95132 0
M  V30 1246 C 127.049 -1.09654 -1.51106 0
M  V30 1247 C 127.4 0.326615 -1.93462 0
M  V30 1248 O 126.525 1.21697 -1.78938 0
M  V30 1249 C 127.12 -1.98437 -2.74605 0
M  V30 1250 C 125.679 -1.86618 -3.2688 0
M  V30 1251 C 124.826 -1.9239 -1.99703 0
M  V30 1252 H 127.777 -1.38887 -0.767865 0
M  V30 1253 H 127.798 -1.5263 -3.48546 0
M  V30 1254 H 127.31 -3.02009 -2.43746 0
M  V30 1255 H 125.411 -0.859421 -3.62553 0
M  V30 1256 H 125.524 -2.71607 -3.94673 0
M  V30 1257 H 123.888 -1.36317 -2.15151 0
M  V30 1258 H 124.671 -2.97573 -1.71188 0
M  V30 1259 N 127.117 1.15442 -1.07289 0
M  V30 1260 C 128.047 2.22312 -0.714107 0
M  V30 1261 C 129.028 1.67467 0.298155 0
M  V30 1262 O 130.213 1.93445 0.171048 0
M  V30 1263 C 127.343 3.47124 -0.110448 0
M  V30 1264 C 126.297 4.14926 -1.04979 0
M  V30 1265 C 125.623 5.33807 -0.308924 0
M  V30 1266 C 126.923 4.64762 -2.38314 0
M  V30 1267 H 128.617 2.5258 -1.6076 0
M  V30 1268 H 126.163 1.21404 -0.77441 0
M  V30 1269 H 128.116 4.21124 0.152482 0
M  V30 1270 H 126.84 3.16187 0.81812 0
M  V30 1271 H 125.499 3.42866 -1.29764 0
M  V30 1272 H 125.147 4.99126 0.623084 0
M  V30 1273 H 124.847 5.80113 -0.935036 0
M  V30 1274 H 126.371 6.10576 -0.0537771 0
M  V30 1275 H 127.785 5.30292 -2.1786 0
M  V30 1276 H 126.182 5.21728 -2.96514 0
M  V30 1277 H 127.252 3.80434 -3.00663 0
M  V30 1278 N 128.595 0.856903 1.32268 0
M  V30 1279 C 130.006 0.515711 1.79436 0
M  V30 1280 C 130.357 -0.966586 1.70738 0
M  V30 1281 O 129.482 -1.75409 1.26731 0
M  V30 1282 C 130.077 0.929335 3.25805 0
M  V30 1283 C 128.636 0.640006 3.70919 0
M  V30 1284 C 127.783 1.12784 2.53328 0
M  V30 1285 H 130.734 1.04389 1.19535 0
M  V30 1286 H 130.755 0.246633 3.797 0
M  V30 1287 H 130.267 2.00821 3.32103 0
M  V30 1288 H 128.368 -0.428051 3.70133 0
M  V30 1289 H 128.481 1.20788 4.63624 0
M  V30 1290 H 126.845 0.548033 2.48734 0
M  V30 1291 H 127.628 2.21387 2.62379 0
M  V30 1292 N 130.073 -1.45103 0.615059 0
M  V30 1293 C 131.321 -2.01784 0.112955 0
M  V30 1294 C 131.642 -1.48504 -1.26378 0
M  V30 1295 O 130.912 -0.682245 -1.83636 0
M  V30 1296 H 129.492 -0.745993 0.0387668 0
M  V30 1297 H 132.154 -1.77808 0.798141 0
M  V30 1298 H 131.25 -3.12025 0.0684069 0
M  V30 1299 N 131.551 -0.354651 -1.53558 0
M  V30 1300 C 132.799 0.237972 -2.00694 0
M  V30 1301 C 133.12 1.50173 -1.24391 0
M  V30 1302 O 132.39 1.92673 -0.354135 0
M  V30 1303 H 130.97 0.0909256 -0.741446 0
M  V30 1304 H 133.632 -0.478368 -1.88938 0
M  V30 1305 H 132.728 0.47264 -3.085 0
M  V30 1306 N 133.029 1.57378 -0.0835403 0
M  V30 1307 C 134.277 1.93547 0.581718 0
M  V30 1308 C 134.598 0.96524 1.69435 0
M  V30 1309 O 133.868 0.0153369 1.95894 0
M  V30 1310 H 132.448 0.714521 0.217874 0
M  V30 1311 H 135.11 1.94366 -0.144158 0
M  V30 1312 H 134.206 2.95665 0.999423 0
M  V30 1313 N 134.507 -0.190092 1.56449 0
M  V30 1314 C 135.784 -0.935886 1.71757 0
M  V30 1315 C 136.164 -2.01173 0.639726 0
M  V30 1316 O 135.512 -2.25827 -0.348502 0
M  V30 1317 C 135.722 -1.51775 3.1427 0
M  V30 1318 C 137.07 -1.99794 3.74656 0
M  V30 1319 O 138.094 -1.61607 3.1743 0
M  V30 1320 O 136.953 -2.70079 4.751 0
M  V30 1321 H 134.047 -0.439229 0.700719 0
M  V30 1322 H 136.593 -0.179395 1.68749 0
M  V30 1323 H 135.365 -0.742505 3.84191 0
M  V30 1324 H 134.988 -2.33894 3.21527 0
M  V30 1325 N 135.985 -1.50799 -0.457987 0
M  V30 1326 C 137.225 -1.64088 -1.21879 0
M  V30 1327 C 137.589 -0.339848 -1.88968 0
M  V30 1328 O 138.79 -0.348301 -2.66534 0
M  V30 1329 C 137.061 -2.79726 -2.2246 0
M  V30 1330 S 138.62 -3.13225 -3.07303 0
M  V30 1331 H 135.438 -0.578314 -0.41361 0
M  V30 1332 H 138.04 -1.88632 -0.513645 0
M  V30 1333 H 136.744 -3.72722 -1.71775 0
M  V30 1334 H 136.275 -2.57308 -2.97584 0
M  V30 1335 H 138.29 -2.58062 -4.23814 0
M  V30 1336 N 137.463 0.71206 -1.40597 0
M  V30 1337 C 138.711 1.46907 -1.38791 0
M  V30 1338 C 139.032 1.94998 0.00780391 0
M  V30 1339 O 138.302 1.70587 0.963174 0
M  V30 1340 H 136.882 0.545043 -0.51082 0
M  V30 1341 H 139.544 0.843882 -1.75683 0
M  V30 1342 H 138.64 2.34021 -2.06496 0
M  V30 1343 N 138.941 1.26152 0.944643 0
M  V30 1344 C 140.189 1.11271 1.6871 0
M  V30 1345 C 140.51 -0.345166 1.91921 0
M  V30 1346 O 139.78 -1.24387 1.51343 0
M  V30 1347 H 138.36 0.408783 0.625224 0
M  V30 1348 H 141.022 1.58427 1.1352 0
M  V30 1349 H 140.118 1.62879 2.66227 0
M  V30 1350 N 140.419 -1.14872 1.07899 0
M  V30 1351 C 141.665 -1.86064 0.806725 0
M  V30 1352 C 141.998 -1.82434 -0.665706 0
M  V30 1353 O 141.273 -1.25138 -1.48899 0
M  V30 1354 C 141.556 -3.34929 1.32267 0
M  V30 1355 C 141.409 -3.47161 2.86006 0
M  V30 1356 C 142.728 -4.29863 0.943717 0
M  V30 1357 H 139.847 -0.675591 0.294526 0
M  V30 1358 H 142.489 -1.34925 1.33773 0
M  V30 1359 H 140.639 -3.78611 0.870974 0
M  V30 1360 H 142.311 -3.12302 3.39507 0
M  V30 1361 H 140.554 -2.88539 3.23925 0
M  V30 1362 H 141.225 -4.51777 3.17177 0
M  V30 1363 H 143.701 -3.9417 1.33302 0
M  V30 1364 H 142.577 -5.32494 1.33198 0
M  V30 1365 H 142.838 -4.41846 -0.149796 0
M  V30 1366 N 141.898 -0.863906 -1.31812 0
M  V30 1367 C 143.309 -0.52522 -1.7916 0
M  V30 1368 C 143.66 0.957518 -1.71248 0
M  V30 1369 O 142.785 1.74734 -1.27659 0
M  V30 1370 C 143.38 -0.9466 -3.25307 0
M  V30 1371 C 141.939 -0.659668 -3.70574 0
M  V30 1372 C 141.086 -1.14126 -2.52726 0
M  V30 1373 H 144.037 -1.05022 -1.1898 0
M  V30 1374 H 144.058 -0.266766 -3.79564 0
M  V30 1375 H 143.57 -2.02579 -3.31034 0
M  V30 1376 H 141.671 0.408416 -3.70355 0
M  V30 1377 H 141.784 -1.23245 -4.62977 0
M  V30 1378 H 140.148 -0.561216 -2.4844 0
M  V30 1379 H 140.931 -2.22775 -2.61201 0
M  V30 1380 N 143.376 1.44774 -0.622745 0
M  V30 1381 C 144.306 2.33382 0.0741861 0
M  V30 1382 C 145.287 1.47719 0.843387 0
M  V30 1383 O 146.472 1.76458 0.810934 0
M  V30 1384 C 143.602 3.30663 1.06204 0
M  V30 1385 C 142.556 4.26079 0.405037 0
M  V30 1386 C 141.882 5.13165 1.5022 0
M  V30 1387 C 143.182 5.1781 -0.683414 0
M  V30 1388 H 144.876 2.91905 -0.665713 0
M  V30 1389 H 142.422 1.40363 -0.321587 0
M  V30 1390 H 144.375 3.9153 1.55827 0
M  V30 1391 H 143.099 2.70331 1.83272 0
M  V30 1392 H 141.758 3.66532 -0.0704683 0
M  V30 1393 H 141.406 4.49191 2.26355 0
M  V30 1394 H 141.106 5.77812 1.06803 0
M  V30 1395 H 142.63 5.76902 2.00041 0
M  V30 1396 H 144.044 5.72661 -0.270631 0
M  V30 1397 H 142.441 5.91015 -1.04023 0
M  V30 1398 H 143.511 4.59326 -1.55395 0
M  V30 1399 N 144.854 0.36279 1.53368 0
M  V30 1400 C 146.079 -0.231226 2.06107 0
M  V30 1401 C 146.504 -1.419 1.23474 0
M  V30 1402 O 145.862 -1.79524 0.253128 0
M  V30 1403 C 145.91 -0.605523 3.5548 0
M  V30 1404 O 145.014 -1.70312 3.7559 0
M  V30 1405 H 144.355 -0.034327 0.663112 0
M  V30 1406 H 146.885 0.522584 1.97814 0
M  V30 1407 H 146.895 -0.877314 3.98456 0
M  V30 1408 H 145.57 0.263004 4.15068 0
M  V30 1409 H 144.147 -1.4271 3.44512 0
M  V30 1410 N 146.332 -1.57332 0.0918853 0
M  V30 1411 C 147.743 -1.81496 -0.437739 0
M  V30 1412 C 148.094 -1.00727 -1.6837 0
M  V30 1413 O 147.219 -0.235694 -2.15113 0
M  V30 1414 C 147.814 -3.29197 -0.800939 0
M  V30 1415 C 146.373 -3.54136 -1.27532 0
M  V30 1416 C 145.52 -2.75979 -0.270392 0
M  V30 1417 H 148.471 -1.55494 0.317366 0
M  V30 1418 H 148.492 -3.42344 -1.66074 0
M  V30 1419 H 148.004 -3.87955 0.106078 0
M  V30 1420 H 146.105 -3.00705 -2.20016 0
M  V30 1421 H 146.218 -4.62792 -1.23938 0
M  V30 1422 H 144.582 -2.43349 -0.751872 0
M  V30 1423 H 145.365 -3.37484 0.629248 0
M  V30 1424 N 147.81 0.181792 -1.56548 0
M  V30 1425 C 149.035 0.920019 -1.85877 0
M  V30 1426 C 149.46 1.75494 -0.677021 0
M  V30 1427 O 148.818 1.77399 0.374056 0
M  V30 1428 C 148.866 1.78112 -3.13542 0
M  V30 1429 O 147.97 2.88152 -2.95029 0
M  V30 1430 H 147.311 0.258334 -0.611686 0
M  V30 1431 H 149.841 0.183092 -2.03779 0
M  V30 1432 H 149.851 2.18314 -3.44678 0
M  V30 1433 H 148.526 1.16777 -3.99169 0
M  V30 1434 H 147.103 2.51609 -2.75222 0
M  V30 1435 N 149.288 1.51039 0.449983 0
M  V30 1436 C 150.534 1.64287 1.19923 0
M  V30 1437 C 150.889 0.348701 1.89214 0
M  V30 1438 O 150.182 -0.654751 1.80065 0
M  V30 1439 C 150.376 2.77556 2.25161 0
M  V30 1440 C 150.205 4.17862 1.66198 0
M  V30 1441 C 148.975 4.83976 1.45243 0
M  V30 1442 C 151.173 5.01388 1.14519 0
M  V30 1443 N 149.155 6.08433 0.817437 0
M  V30 1444 C 150.526 6.16743 0.634705 0
M  V30 1445 C 152.581 4.87008 1.03574 0
M  V30 1446 C 151.284 7.19295 0.0255452 0
M  V30 1447 C 153.31 5.89757 0.440489 0
M  V30 1448 C 152.672 7.04375 -0.0595112 0
M  V30 1449 H 148.771 0.655161 0.426952 0
M  V30 1450 H 151.355 1.88228 0.49781 0
M  V30 1451 H 149.526 2.553 2.92706 0
M  V30 1452 H 151.258 2.80049 2.92155 0
M  V30 1453 H 148.013 4.41627 1.71063 0
M  V30 1454 H 148.437 6.75017 0.517747 0
M  V30 1455 H 153.079 3.9866 1.4082 0
M  V30 1456 H 150.797 8.07302 -0.359071 0
M  V30 1457 H 154.383 5.80698 0.35788 0
M  V30 1458 H 153.263 7.82521 -0.512882 0
M  V30 1459 N 150.766 -0.704594 1.40972 0
M  V30 1460 C 151.729 -1.80035 1.41845 0
M  V30 1461 C 152.729 -1.57774 0.310474 0
M  V30 1462 O 153.919 -1.64613 0.56992 0
M  V30 1463 C 151.051 -3.18284 1.22098 0
M  V30 1464 H 152.244 -1.80658 2.3938 0
M  V30 1465 H 149.797 -0.911329 1.26982 0
M  V30 1466 H 150.532 -3.23306 0.253672 0
M  V30 1467 H 150.317 -3.35843 2.02366 0
M  V30 1468 H 151.807 -3.98289 1.25522 0
M  V30 1469 N 152.244 -1.26651 -0.937939 0
M  V30 1470 C 153.492 -1.12165 -1.68118 0
M  V30 1471 C 153.813 0.334983 -1.92101 0
M  V30 1472 O 153.083 1.23583 -1.52 0
M  V30 1473 H 151.663 -0.412093 -0.623048 0
M  V30 1474 H 154.325 -1.59027 -1.12678 0
M  V30 1475 H 153.421 -1.64289 -2.6536 0
M  V30 1476 N 153.722 1.14298 -1.08507 0
M  V30 1477 C 154.97 1.84993 -0.813763 0
M  V30 1478 C 155.291 1.83405 0.662393 0
M  V30 1479 O 154.561 1.28319 1.48024 0
M  V30 1480 H 153.141 0.684966 -0.298045 0
M  V30 1481 H 155.803 1.385 -1.37126 0
M  V30 1482 H 154.899 2.89788 -1.15884 0
M  V30 1483 N 155.201 0.870884 1.31352 0
M  V30 1484 C 156.426 0.495957 2.01383 0
M  V30 1485 C 156.851 -0.904324 1.64935 0
M  V30 1486 O 156.209 -1.59687 0.858466 0
M  V30 1487 C 156.257 0.661433 3.54482 0
M  V30 1488 O 155.361 -0.298851 4.11316 0
M  V30 1489 H 154.702 0.197158 0.634054 0
M  V30 1490 H 157.232 1.17455 1.67527 0
M  V30 1491 H 157.242 0.555072 4.04207 0
M  V30 1492 H 155.917 1.68246 3.8035 0
M  V30 1493 H 154.494 -0.147368 3.72609 0
M  V30 1494 N 156.679 -1.44442 0.630414 0
M  V30 1495 C 158.095 -1.56832 0.295973 0
M  V30 1496 C 158.295 -1.61806 -1.20088 0
M  V30 1497 O 157.351 -1.5607 -1.9849 0
M  V30 1498 C 158.664 -2.84031 0.987264 0
M  V30 1499 C 160.212 -2.97742 0.96534 0
M  V30 1500 C 160.687 -4.27743 1.63708 0
M  V30 1501 N 162.178 -4.34555 1.60364 0
M  V30 1502 C 162.913 -5.33862 2.09234 0
M  V30 1503 N 162.409 -6.39578 2.66292 0
M  V30 1504 N 164.202 -5.25366 1.99867 0
M  V30 1505 H 156.353 -1.39457 1.60205 0
M  V30 1506 H 158.616 -0.668237 0.672431 0
M  V30 1507 H 158.322 -2.86338 2.04215 0
M  V30 1508 H 158.196 -3.73534 0.524588 0
M  V30 1509 H 160.583 -2.94989 -0.0810639 0
M  V30 1510 H 160.664 -2.09589 1.4665 0
M  V30 1511 H 160.308 -4.31255 2.68293 0
M  V30 1512 H 160.238 -5.14752 1.11076 0
M  V30 1513 H 162.729 -3.58772 1.18705 0
M  V30 1514 H 163.042 -7.11637 3.01317 0
M  V30 1515 H 161.387 -6.40265 2.70343 0
M  V30 1516 H 164.578 -4.41688 1.55013 0
M  V30 1517 H 164.751 -6.02606 2.38265 0
M  V30 1518 N 158.157 -0.370918 -1.53173 0
M  V30 1519 C 159.405 0.216673 -2.00935 0
M  V30 1520 C 159.726 1.48845 -1.25977 0
M  V30 1521 O 158.996 1.92286 -0.374551 0
M  V30 1522 H 157.576 0.0830565 -0.742368 0
M  V30 1523 H 160.238 -0.49838 -1.8842 0
M  V30 1524 H 159.334 0.439893 -3.08984 0
M  V30 1525 N 159.635 1.57281 -0.100228 0
M  V30 1526 C 160.912 1.86014 0.604812 0
M  V30 1527 C 161.292 0.998025 1.86018 0
M  V30 1528 O 160.64 0.0718184 2.28387 0
M  V30 1529 C 160.85 3.36784 0.915278 0
M  V30 1530 C 162.198 4.04957 1.27651 0
M  V30 1531 O 163.222 3.41695 1.00613 0
M  V30 1532 O 162.081 5.16593 1.7831 0
M  V30 1533 H 159.175 0.76942 0.303185 0
M  V30 1534 H 161.721 1.69176 -0.133313 0
M  V30 1535 H 160.493 3.91292 0.0248896 0
M  V30 1536 H 160.116 3.58987 1.70921 0
M  V30 1537 N 161.113 -0.173488 1.56642 0
M  V30 1538 C 162.361 -0.888706 1.81512 0
M  V30 1539 C 162.682 -1.82875 0.676872 0
M  V30 1540 O 161.952 -1.93536 -0.303414 0
M  V30 1541 H 160.532 -0.331164 0.669582 0
M  V30 1542 H 163.194 -0.173823 1.94123 0
M  V30 1543 H 162.29 -1.46691 2.75478 0
M  V30 1544 N 162.591 -1.51276 -0.441967 0
M  V30 1545 C 163.539 -1.72823 -1.55676 0
M  V30 1546 C 164.533 -0.59445 -1.58627 0
M  V30 1547 O 165.739 -0.775715 -1.62427 0
M  V30 1548 H 162.114 -0.545983 -0.517113 0
M  V30 1549 H 164.085 -2.6628 -1.34675 0
M  V30 1550 C 162.834 -1.86619 -2.93375 0
M  V30 1551 H 162.157 -2.73264 -2.91834 0
M  V30 1552 H 163.597 -2.05709 -3.70756 0
M  V30 1553 C 162.056 -0.624842 -3.31055 0
M  V30 1554 O 162.586 0.222636 -4.01083 0
M  V30 1555 N 160.792 -0.470288 -2.86769 0
M  V30 1556 H 160.339 -1.161 -2.29953 0
M  V30 1557 H 160.297 0.359051 -3.12343 0
M  V30 1558 N 164.069 0.697108 -1.41344 0
M  V30 1559 C 164.999 1.82353 -1.45841 0
M  V30 1560 C 165.98 1.67115 -0.317247 0
M  V30 1561 O 167.165 1.86871 -0.528474 0
M  V30 1562 C 164.295 3.20476 -1.33838 0
M  V30 1563 C 163.249 3.50415 -2.4575 0
M  V30 1564 C 162.575 4.87878 -2.18813 0
M  V30 1565 C 163.875 3.49546 -3.88091 0
M  V30 1566 H 165.569 1.78846 -2.40113 0
M  V30 1567 H 163.115 0.859028 -1.15571 0
M  V30 1568 H 165.068 3.98988 -1.35596 0
M  V30 1569 H 163.792 3.24604 -0.360498 0
M  V30 1570 H 162.451 2.74253 -2.43271 0
M  V30 1571 H 162.099 4.8863 -1.19371 0
M  V30 1572 H 161.799 5.08875 -2.93803 0
M  V30 1573 H 163.323 5.68702 -2.22284 0
M  V30 1574 H 164.737 4.18066 -3.92293 0
M  V30 1575 H 163.134 3.82075 -4.62751 0
M  V30 1576 H 164.204 2.48552 -4.16353 0
M  V30 1577 N 165.547 1.27147 0.931209 0
M  V30 1578 C 166.479 1.05364 2.03546 0
M  V30 1579 C 167.492 0.0108438 1.62796 0
M  V30 1580 O 168.681 0.25202 1.76712 0
M  V30 1581 C 165.781 0.575566 3.33977 0
M  V30 1582 C 164.954 1.68985 4.03439 0
M  V30 1583 C 164.013 1.20813 5.12143 0
M  V30 1584 O 163.039 1.90712 5.363 0
M  V30 1585 N 164.241 0.0618851 5.80467 0
M  V30 1586 H 167.006 2.00454 2.22796 0
M  V30 1587 H 164.567 1.18666 1.10136 0
M  V30 1588 H 166.559 0.237264 4.04004 0
M  V30 1589 H 165.129 -0.282016 3.11325 0
M  V30 1590 H 164.349 2.19861 3.27192 0
M  V30 1591 H 165.637 2.4378 4.46597 0
M  V30 1592 H 165.035 -0.521621 5.6329 0
M  V30 1593 H 163.592 -0.217264 6.51438 0
M  V30 1594 N 167.025 -1.13721 1.09112 0
M  V30 1595 C 168.441 -1.36914 0.820174 0
M  V30 1596 C 168.641 -1.93356 -0.567079 0
M  V30 1597 O 167.697 -2.15093 -1.32255 0
M  V30 1598 C 169.01 -2.3235 1.90877 0
M  V30 1599 C 170.558 -2.45973 1.93562 0
M  V30 1600 C 171.033 -3.44714 3.01556 0
M  V30 1601 N 172.524 -3.52263 3.00775 0
M  V30 1602 C 173.259 -4.28536 3.80978 0
M  V30 1603 N 172.755 -5.07991 4.71081 0
M  V30 1604 N 174.548 -4.23804 3.69251 0
M  V30 1605 H 166.699 -0.754348 1.98553 0
M  V30 1606 H 168.962 -0.3944 0.862063 0
M  V30 1607 H 168.668 -1.98027 2.90651 0
M  V30 1608 H 168.542 -3.32332 1.78424 0
M  V30 1609 H 170.929 -2.79584 0.944286 0
M  V30 1610 H 171.01 -1.45926 2.10093 0
M  V30 1611 H 170.654 -3.11835 4.00901 0
M  V30 1612 H 170.584 -4.44558 2.82269 0
M  V30 1613 H 173.075 -2.95567 2.35475 0
M  V30 1614 H 173.388 -5.63487 5.28869 0
M  V30 1615 H 171.733 -5.07235 4.75119 0
M  V30 1616 H 174.924 -3.60806 2.98222 0
M  V30 1617 H 175.097 -4.82995 4.31995 0
M  V30 1618 N 168.503 -0.877838 -1.30888 0
M  V30 1619 C 169.919 -0.570844 -1.49042 0
M  V30 1620 C 170.119 0.893159 -1.80624 0
M  V30 1621 O 169.175 1.67485 -1.88958 0
M  V30 1622 C 170.488 -1.47784 -2.61878 0
M  V30 1623 C 172.036 -1.48071 -2.75761 0
M  V30 1624 C 172.511 -2.37347 -3.91702 0
M  V30 1625 N 174.002 -2.35271 -3.99001 0
M  V30 1626 C 174.737 -3.01063 -4.88004 0
M  V30 1627 N 174.233 -3.76055 -5.81854 0
M  V30 1628 N 176.026 -2.90332 -4.81315 0
M  V30 1629 H 168.177 -1.82502 -1.0866 0
M  V30 1630 H 170.44 -0.780797 -0.537644 0
M  V30 1631 H 170.146 -2.51993 -2.45341 0
M  V30 1632 H 170.02 -1.18215 -3.58197 0
M  V30 1633 H 172.407 -0.446166 -2.91708 0
M  V30 1634 H 172.488 -1.81668 -1.80085 0
M  V30 1635 H 172.132 -3.40883 -3.76512 0
M  V30 1636 H 172.062 -2.01071 -4.86701 0
M  V30 1637 H 174.553 -1.80768 -3.3186 0
M  V30 1638 H 174.866 -4.23366 -6.46514 0
M  V30 1639 H 173.211 -3.80163 -5.81808 0
M  V30 1640 H 176.402 -2.31278 -4.06974 0
M  V30 1641 H 176.575 -3.41885 -5.50471 0
M  V30 1642 N 169.982 1.44106 -0.638065 0
M  V30 1643 C 170.945 2.29138 0.0531013 0
M  V30 1644 C 171.945 1.41409 0.765506 0
M  V30 1645 O 173.135 1.63206 0.609046 0
M  V30 1646 C 170.267 3.23144 1.08584 0
M  V30 1647 H 171.46 2.91739 -0.694883 0
M  V30 1648 H 169.013 1.51134 -0.398538 0
M  V30 1649 H 169.748 2.65408 1.86357 0
M  V30 1650 H 169.533 3.87804 0.578852 0
M  V30 1651 H 171.023 3.87004 1.56899 0
M  V30 1652 N 171.46 0.379036 1.52974 0
M  V30 1653 C 172.685 -0.209353 2.06341 0
M  V30 1654 C 173.11 -1.40583 1.24972 0
M  V30 1655 O 172.468 -1.79246 0.272155 0
M  V30 1656 C 172.516 -0.567786 3.56102 0
M  V30 1657 O 171.62 -1.66318 3.77375 0
M  V30 1658 H 170.961 -0.0272919 0.663439 0
M  V30 1659 H 173.491 0.543536 1.97248 0
M  V30 1660 H 173.501 -0.835003 3.99364 0
M  V30 1661 H 172.176 0.307013 4.14765 0
M  V30 1662 H 170.753 -1.39048 3.46006 0
M  V30 1663 N 172.938 -1.57226 0.108567 0
M  V30 1664 C 173.87 -2.11809 -0.875752 0
M  V30 1665 C 174.883 -1.05839 -1.23701 0
M  V30 1666 O 176.072 -1.33245 -1.18778 0
M  V30 1667 C 173.172 -2.59411 -2.18081 0
M  V30 1668 C 172.345 -3.89364 -1.99284 0
M  V30 1669 C 171.404 -4.22672 -3.13424 0
M  V30 1670 O 170.43 -4.91668 -2.86795 0
M  V30 1671 N 171.632 -3.79154 -4.3957 0
M  V30 1672 H 174.397 -2.9689 -0.409477 0
M  V30 1673 H 171.958 -1.61721 -0.076158 0
M  V30 1674 H 173.95 -2.7873 -2.93414 0
M  V30 1675 H 172.52 -1.79268 -2.5609 0
M  V30 1676 H 171.74 -3.79059 -1.08203 0
M  V30 1677 H 173.028 -4.74358 -1.84017 0
M  V30 1678 H 172.426 -3.23486 -4.64083 0
M  V30 1679 H 170.983 -4.03602 -5.11809 0
M  V30 1680 N 174.416 0.165178 -1.56732 0
M  V30 1681 C 175.363 1.2044 -1.96883 0
M  V30 1682 C 176.333 1.43664 -0.833657 0
M  V30 1683 O 177.518 1.56302 -1.09427 0
M  V30 1684 C 174.658 2.53727 -2.33916 0
M  V30 1685 C 173.771 2.3783 -3.6064 0
M  V30 1686 C 172.906 3.64026 -3.86857 0
M  V30 1687 C 171.945 3.43088 -5.06909 0
M  V30 1688 N 171.082 4.61369 -5.29229 0
M  V30 1689 H 175.922 0.854996 -2.85471 0
M  V30 1690 H 173.459 0.41076 -1.41249 0
M  V30 1691 H 175.417 3.31419 -2.53411 0
M  V30 1692 H 174.047 2.8665 -1.48431 0
M  V30 1693 H 173.099 1.51282 -3.49024 0
M  V30 1694 H 174.411 2.18308 -4.4849 0
M  V30 1695 H 173.565 4.50152 -4.06753 0
M  V30 1696 H 172.304 3.86533 -2.97394 0
M  V30 1697 H 171.309 2.55349 -4.86906 0
M  V30 1698 H 172.534 3.21997 -5.97909 0
M  V30 1699 H 170.48 4.84084 -4.42718 0
M  V30 1700 H 170.397 4.44783 -6.11313 0
M  V30 1701 H 171.665 5.48761 -5.53608 0
M  V30 1702 N 175.894 1.51508 0.433938 0
M  V30 1703 C 176.804 1.75917 1.5521 0
M  V30 1704 C 177.82 0.643545 1.61662 0
M  V30 1705 O 178.996 0.926183 1.7884 0
M  V30 1706 C 176.061 1.88213 2.91164 0
M  V30 1707 C 175.122 3.12074 2.94802 0
M  V30 1708 C 174.355 3.23774 4.24271 0
M  V30 1709 O 174.578 2.4133 5.16833 0
M  V30 1710 O 173.512 4.16774 4.34262 0
M  V30 1711 H 177.338 2.70777 1.37527 0
M  V30 1712 H 174.923 1.36051 0.617293 0
M  V30 1713 H 176.805 1.98267 3.71845 0
M  V30 1714 H 175.48 0.965413 3.08968 0
M  V30 1715 H 174.387 3.07497 2.13065 0
M  V30 1716 H 175.72 4.03446 2.81943 0
M  V30 1717 N 177.372 -0.689602 1.41712 0
M  V30 1718 C 178.302 -1.81577 1.46806 0
M  V30 1719 C 179.283 -1.66945 0.326105 0
M  V30 1720 O 180.468 -1.86588 0.538377 0
M  V30 1721 C 177.598 -3.19762 1.35535 0
M  V30 1722 C 176.552 -3.49107 2.47605 0
M  V30 1723 C 175.878 -4.86711 2.21397 0
M  V30 1724 C 177.178 -3.47483 3.89939 0
M  V30 1725 H 178.872 -1.7757 2.41058 0
M  V30 1726 H 176.418 -0.852887 1.16025 0
M  V30 1727 H 178.371 -3.98263 1.3771 0
M  V30 1728 H 177.095 -3.24409 0.377708 0
M  V30 1729 H 175.754 -2.72959 2.44722 0
M  V30 1730 H 175.402 -4.8799 1.21961 0
M  V30 1731 H 175.102 -5.0731 2.96497 0
M  V30 1732 H 176.626 -5.67515 2.25297 0
M  V30 1733 H 178.04 -4.1598 3.94505 0
M  V30 1734 H 176.437 -3.79615 4.64771 0
M  V30 1735 H 177.507 -2.46341 4.17665 0
M  V30 1736 N 178.85 -1.27639 -0.924453 0
M  V30 1737 C 180.266 -1.05113 -1.20097 0
M  V30 1738 C 180.466 0.213262 -2.00368 0
M  V30 1739 O 179.522 0.91787 -2.35226 0
M  V30 1740 C 180.835 -2.29244 -1.94596 0
M  V30 1741 C 182.383 -2.34315 -2.07522 0
M  V30 1742 C 182.858 -3.58183 -2.85427 0
M  V30 1743 N 184.349 -3.5876 -2.92994 0
M  V30 1744 C 185.084 -4.51277 -3.53746 0
M  V30 1745 N 184.58 -5.54102 -4.15863 0
M  V30 1746 N 186.373 -4.38894 -3.51181 0
M  V30 1747 H 178.524 -2.08821 -0.388264 0
M  V30 1748 H 180.787 -0.918568 -0.234385 0
M  V30 1749 H 180.493 -3.21301 -1.43034 0
M  V30 1750 H 180.367 -2.34816 -2.95197 0
M  V30 1751 H 182.754 -1.42762 -2.58269 0
M  V30 1752 H 182.835 -2.32744 -1.06131 0
M  V30 1753 H 182.479 -4.50074 -2.35363 0
M  V30 1754 H 182.409 -3.57006 -3.8711 0
M  V30 1755 H 184.9 -2.84398 -2.4885 0
M  V30 1756 H 185.213 -6.20859 -4.60168 0
M  V30 1757 H 183.558 -5.57941 -4.144 0
M  V30 1758 H 186.749 -3.57772 -3.01856 0
M  V30 1759 H 186.922 -5.11186 -3.98237 0
M  V30 1760 N 180.328 1.1314 -1.09713 0
M  V30 1761 C 181.275 2.18642 -0.739196 0
M  V30 1762 C 182.245 1.63706 0.280978 0
M  V30 1763 O 183.43 1.90111 0.161946 0
M  V30 1764 C 180.57 3.44685 -0.169102 0
M  V30 1765 C 179.683 4.13711 -1.24367 0
M  V30 1766 C 178.818 5.27379 -0.636019 0
M  V30 1767 C 177.857 5.88259 -1.69169 0
M  V30 1768 N 176.994 6.93352 -1.10485 0
M  V30 1769 H 181.834 2.48607 -1.64312 0
M  V30 1770 H 179.371 1.22066 -0.820875 0
M  V30 1771 H 181.329 4.16815 0.179256 0
M  V30 1772 H 179.959 3.15161 0.698079 0
M  V30 1773 H 179.011 3.39835 -1.70927 0
M  V30 1774 H 180.323 4.55037 -2.04311 0
M  V30 1775 H 179.477 6.06238 -0.236677 0
M  V30 1776 H 178.216 4.8731 0.194928 0
M  V30 1777 H 177.221 5.08092 -2.10055 0
M  V30 1778 H 178.446 6.30399 -2.52536 0
M  V30 1779 H 176.392 6.55335 -0.295234 0
M  V30 1780 H 176.309 7.33236 -1.84121 0
M  V30 1781 H 177.577 7.76057 -0.73181 0
M  V30 1782 N 181.806 0.884767 1.30421 0
M  V30 1783 C 183.031 0.517288 2.00845 0
M  V30 1784 C 183.456 -0.886779 1.65885 0
M  V30 1785 O 182.814 -1.58768 0.875354 0
M  V30 1786 C 182.862 0.698994 3.5376 0
M  V30 1787 O 181.966 -0.255208 4.1161 0
M  V30 1788 H 181.307 0.203872 0.631927 0
M  V30 1789 H 183.837 1.19225 1.66272 0
M  V30 1790 H 183.847 0.597912 4.03595 0
M  V30 1791 H 182.522 1.72271 3.78544 0
M  V30 1792 H 181.099 -0.10784 3.72744 0
M  V30 1793 N 183.284 -1.43765 0.645699 0
M  V30 1794 C 184.531 -2.01898 0.15604 0
M  V30 1795 C 184.859 -1.50887 -1.22733 0
M  V30 1796 O 184.114 -0.689271 -1.8316 0
M  V30 1797 C 184.413 -3.57238 0.107679 0
M  V30 1798 C 184.079 -4.27564 1.43178 0
M  V30 1799 C 182.741 -4.46492 1.7944 0
M  V30 1800 C 185.093 -4.67454 2.30513 0
M  V30 1801 C 182.421 -5.02573 3.02716 0
M  V30 1802 C 184.773 -5.24901 3.53074 0
M  V30 1803 C 183.437 -5.42046 3.89541 0
M  V30 1804 H 182.707 -0.738797 0.057099 0
M  V30 1805 H 185.354 -1.72341 0.834912 0
M  V30 1806 H 183.659 -3.86293 -0.654618 0
M  V30 1807 H 185.356 -3.99965 -0.287938 0
M  V30 1808 H 181.946 -4.13171 1.13963 0
M  V30 1809 H 186.13 -4.5253 2.0379 0
M  V30 1810 H 181.386 -5.14033 3.31028 0
M  V30 1811 H 185.56 -5.54758 4.20971 0
M  V30 1812 H 183.187 -5.85268 4.85145 0
M  V30 1813 N 184.763 -0.387143 -1.52771 0
M  V30 1814 C 185.726 0.436939 -2.24997 0
M  V30 1815 C 186.726 0.991991 -1.26555 0
M  V30 1816 O 187.916 0.874335 -1.50669 0
M  V30 1817 C 185.048 1.61281 -3.00335 0
M  V30 1818 H 186.241 -0.195365 -2.99263 0
M  V30 1819 H 183.794 -0.139218 -1.55679 0
M  V30 1820 H 184.529 2.2826 -2.30364 0
M  V30 1821 H 184.314 1.22154 -3.72587 0
M  V30 1822 H 185.804 2.19629 -3.5518 0
M  V30 1823 N 186.241 1.57166 -0.116904 0
M  V30 1824 C 187.657 1.5779 0.239693 0
M  V30 1825 C 187.857 1.1295 1.66867 0
M  V30 1826 O 186.913 0.81592 2.38954 0
M  V30 1827 C 188.226 3.00699 0.00828202 0
M  V30 1828 C 189.774 3.12912 0.0743438 0
M  V30 1829 C 190.249 4.57817 -0.129348 0
M  V30 1830 N 191.74 4.63139 -0.075247 0
M  V30 1831 C 192.475 5.73023 -0.207788 0
M  V30 1832 N 191.971 6.91665 -0.396382 0
M  V30 1833 N 193.764 5.61906 -0.14751 0
M  V30 1834 H 185.915 1.84615 -1.05029 0
M  V30 1835 H 188.178 0.85311 -0.41341 0
M  V30 1836 H 187.884 3.37784 -0.979531 0
M  V30 1837 H 187.758 3.69848 0.741077 0
M  V30 1838 H 190.145 2.75686 1.05268 0
M  V30 1839 H 190.226 2.4631 -0.690297 0
M  V30 1840 H 189.87 4.95742 -1.10465 0
M  V30 1841 H 189.8 5.22507 0.655253 0
M  V30 1842 H 192.291 3.7784 0.0670898 0
M  V30 1843 H 192.604 7.71255 -0.488437 0
M  V30 1844 H 190.949 6.93654 -0.432329 0
M  V30 1845 H 194.14 4.681 -0.00115036 0
M  V30 1846 H 194.313 6.47501 -0.254247 0
M  V30 1847 N 187.719 -0.156864 1.56817 0
M  V30 1848 C 188.944 -0.890331 1.87318 0
M  V30 1849 C 189.369 -1.74394 0.704855 0
M  V30 1850 O 188.727 -1.77972 -0.345786 0
M  V30 1851 C 188.775 -1.73102 3.16336 0
M  V30 1852 O 187.879 -2.83422 2.99576 0
M  V30 1853 H 187.22 -0.24857 0.615718 0
M  V30 1854 H 189.75 -0.150649 2.04045 0
M  V30 1855 H 189.76 -2.12803 3.48107 0
M  V30 1856 H 188.435 -1.10412 4.00976 0
M  V30 1857 H 187.012 -2.47199 2.7919 0
M  V30 1858 N 189.197 -1.51736 -0.425897 0
M  V30 1859 C 190.144 -1.73875 -1.51776 0
M  V30 1860 C 191.114 -0.580702 -1.55618 0
M  V30 1861 O 192.299 -0.81641 -1.72451 0
M  V30 1862 C 189.439 -1.88012 -2.89388 0
M  V30 1863 C 188.552 -3.15606 -2.94986 0
M  V30 1864 C 187.687 -3.20271 -4.23793 0
M  V30 1865 C 186.726 -4.42134 -4.23302 0
M  V30 1866 N 185.863 -4.44284 -5.43651 0
M  V30 1867 H 190.703 -2.67071 -1.32201 0
M  V30 1868 H 188.24 -1.32351 -0.642008 0
M  V30 1869 H 190.198 -1.9419 -3.69251 0
M  V30 1870 H 188.828 -0.98213 -3.07496 0
M  V30 1871 H 187.88 -3.18681 -2.07717 0
M  V30 1872 H 189.192 -4.05486 -2.90486 0
M  V30 1873 H 188.346 -3.25428 -5.12036 0
M  V30 1874 H 187.085 -2.28299 -4.30965 0
M  V30 1875 H 186.09 -4.3714 -3.3345 0
M  V30 1876 H 187.315 -5.35382 -4.17783 0
M  V30 1877 H 185.261 -3.55188 -5.51523 0
M  V30 1878 H 185.178 -5.27988 -5.41078 0
M  V30 1879 H 186.446 -4.53649 -6.33895 0
M  V30 1880 N 190.675 0.682077 -1.42076 0
M  V30 1881 C 191.638 1.77756 -1.44691 0
M  V30 1882 C 192.638 1.5726 -0.335535 0
M  V30 1883 O 193.828 1.63686 -0.596037 0
M  V30 1884 C 190.96 3.16301 -1.27146 0
M  V30 1885 H 192.153 1.76826 -2.42224 0
M  V30 1886 H 189.706 0.891012 -1.28416 0
M  V30 1887 H 190.441 3.22862 -0.305075 0
M  V30 1888 H 190.226 3.32581 -2.07683 0
M  V30 1889 H 191.716 3.96241 -1.31843 0
M  V30 1890 N 192.153 1.28127 0.917671 0
M  V30 1891 C 193.402 1.14432 1.66097 0
M  V30 1892 C 193.715 -0.307247 1.93172 0
M  V30 1893 O 194.921 -0.565259 2.65551 0
M  V30 1894 C 193.377 2.00015 2.99202 0
M  V30 1895 C 192.985 3.49889 2.79789 0
M  V30 1896 C 194.729 1.94996 3.77064 0
M  V30 1897 C 192.636 4.27636 4.08511 0
M  V30 1898 H 191.566 0.424662 0.62304 0
M  V30 1899 H 194.217 1.52628 1.01868 0
M  V30 1900 H 192.599 1.54672 3.64544 0
M  V30 1901 H 193.773 4.03162 2.23152 0
M  V30 1902 H 192.088 3.56392 2.15345 0
M  V30 1903 H 194.685 2.50354 4.72469 0
M  V30 1904 H 195.028 0.925819 4.05875 0
M  V30 1905 H 195.561 2.38287 3.18534 0
M  V30 1906 H 192.3 5.30615 3.84874 0
M  V30 1907 H 191.82 3.79137 4.64774 0
M  V30 1908 H 193.499 4.37346 4.76799 0
M  V30 1909 N 193.631 -1.12557 1.10312 0
M  V30 1910 C 194.581 -2.16331 0.720076 0
M  V30 1911 C 195.565 -1.58616 -0.270115 0
M  V30 1912 O 196.757 -1.76823 -0.0790507 0
M  V30 1913 C 193.886 -3.42963 0.152113 0
M  V30 1914 C 192.972 -4.07663 1.16927 0
M  V30 1915 N 193.363 -4.47392 2.35953 0
M  V30 1916 C 191.661 -4.34425 1.0095 0
M  V30 1917 C 192.362 -4.97932 3.0073 0
M  V30 1918 N 191.338 -4.93358 2.28252 0
M  V30 1919 H 195.14 -2.44813 1.62616 0
M  V30 1920 H 192.654 -1.29449 0.980654 0
M  V30 1921 H 194.651 -4.16664 -0.14037 0
M  V30 1922 H 193.311 -3.1595 -0.748701 0
M  V30 1923 H 194.322 -4.39802 2.73486 0
M  V30 1924 H 190.999 -4.17177 0.164134 0
M  V30 1925 H 192.389 -5.38397 4.01969 0
M  V30 1926 N 195.109 -0.891671 -1.2995 0
M  V30 1927 C 196.355 -0.514261 -1.96171 0
M  V30 1928 C 196.688 0.935506 -1.70182 0
M  V30 1929 O 195.963 1.66204 -1.01028 0
M  V30 1930 C 196.246 -0.797719 -3.51153 0
M  V30 1931 C 196.099 -2.2986 -3.86632 0
M  V30 1932 C 197.418 -0.278749 -4.39216 0
M  V30 1933 H 194.537 -0.188314 -0.712535 0
M  V30 1934 H 197.179 -1.11689 -1.53706 0
M  V30 1935 H 195.329 -0.284826 -3.87455 0
M  V30 1936 H 197.001 -2.88042 -3.60319 0
M  V30 1937 H 195.244 -2.76257 -3.34462 0
M  V30 1938 H 195.915 -2.44753 -4.94773 0
M  V30 1939 H 198.391 -0.717825 -4.09862 0
M  V30 1940 H 197.267 -0.506353 -5.46559 0
M  V30 1941 H 197.528 0.820266 -4.34424 0
M  V30 1942 N 196.587 1.43421 -0.653314 0
M  V30 1943 C 197.535 2.32546 0.0501531 0
M  V30 1944 C 198.529 1.48617 0.812985 0
M  V30 1945 O 199.735 1.64825 0.723375 0
M  V30 1946 H 196.11 0.751185 0.0350032 0
M  V30 1947 H 198.081 2.89602 -0.719261 0
M  V30 1948 C 196.83 3.32925 1.00279 0
M  V30 1949 H 196.153 3.97532 0.425236 0
M  V30 1950 H 197.593 3.9792 1.46409 0
M  V30 1951 C 196.052 2.63532 2.09886 0
M  V30 1952 O 196.582 2.45092 3.18265 0
M  V30 1953 N 194.788 2.22905 1.86445 0
M  V30 1954 H 194.335 2.38103 0.98309 0
M  V30 1955 H 194.293 1.76805 2.59976 0
M  V30 1956 N 198.065 0.39524 1.52563 0
M  V30 1957 C 199.481 0.0454682 1.59535 0
M  V30 1958 C 199.681 -1.44056 1.4089 0
M  V30 1959 O 198.737 -2.20579 1.22888 0
M  V30 1960 C 200.05 0.527963 2.96029 0
M  V30 1961 C 201.598 0.484733 3.09224 0
M  V30 1962 C 202.073 0.943512 4.48176 0
M  V30 1963 N 203.564 0.899765 4.54377 0
M  V30 1964 C 204.299 1.22609 5.60138 0
M  V30 1965 N 203.795 1.62319 6.73516 0
M  V30 1966 N 205.588 1.14696 5.50274 0
M  V30 1967 H 197.739 1.36261 1.62931 0
M  V30 1968 H 200.002 0.558887 0.765735 0
M  V30 1969 H 199.708 1.56607 3.14908 0
M  V30 1970 H 199.582 -0.0698056 3.77135 0
M  V30 1971 H 201.969 -0.544298 2.90037 0
M  V30 1972 H 202.05 1.11838 2.30056 0
M  V30 1973 H 201.694 1.9708 4.68104 0
M  V30 1974 H 201.624 0.286817 5.25818 0
M  V30 1975 H 204.115 0.607632 3.72983 0
M  V30 1976 H 204.428 1.85567 7.5019 0
M  V30 1977 H 202.773 1.66211 6.74833 0
M  V30 1978 H 205.964 0.835701 4.6058 0
M  V30 1979 H 206.137 1.40459 6.32594 0
M  V30 1980 N 199.544 -1.57102 0.125237 0
M  V30 1981 C 200.772 -1.99761 -0.538797 0
M  V30 1982 C 201.187 -1.00503 -1.59827 0
M  V30 1983 O 200.544 0.00119474 -1.825 0
M  V30 1984 C 200.595 -3.42408 -1.15927 0
M  V30 1985 O 200.316 -4.37869 -0.142143 0
M  V30 1986 C 201.817 -4.00232 -1.90602 0
M  V30 1987 H 199.037 -0.655772 -0.14214 0
M  V30 1988 H 201.581 -2.03383 0.213413 0
M  V30 1989 H 199.736 -3.39706 -1.86223 0
M  V30 1990 H 200.15 -5.21128 -0.593775 0
M  V30 1991 H 201.624 -5.02105 -2.29335 0
M  V30 1992 H 202.101 -3.39721 -2.78363 0
M  V30 1993 H 202.707 -4.06499 -1.25055 0
M  V30 1994 N 201.022 0.148545 -1.56898 0
M  V30 1995 C 202.252 0.875118 -1.8715 0
M  V30 1996 C 202.66 1.75322 -0.711262 0
M  V30 1997 O 202.003 1.80745 0.328151 0
M  V30 1998 C 202.065 1.7844 -3.12089 0
M  V30 1999 C 201.729 1.08361 -4.43967 0
M  V30 2000 C 202.726 0.438247 -5.1805 0
M  V30 2001 C 200.411 1.07358 -4.90693 0
M  V30 2002 C 202.405 -0.20779 -6.37061 0
M  V30 2003 C 200.092 0.42373 -6.09629 0
M  V30 2004 C 201.09 -0.215829 -6.82659 0
M  V30 2005 O 200.778 -0.855378 -7.99336 0
M  V30 2006 H 200.51 0.258504 -0.624621 0
M  V30 2007 H 203.064 0.14652 -2.04877 0
M  V30 2008 H 201.294 2.55389 -2.90367 0
M  V30 2009 H 202.983 2.38279 -3.286 0
M  V30 2010 H 203.749 0.437817 -4.8302 0
M  V30 2011 H 199.628 1.5608 -4.33774 0
M  V30 2012 H 203.172 -0.70758 -6.94002 0
M  V30 2013 H 199.069 0.421822 -6.4412 0
M  V30 2014 H 199.837 -0.756892 -8.14993 0
M  V30 2015 N 202.5 1.5196 0.417844 0
M  V30 2016 C 203.777 1.56146 1.17803 0
M  V30 2017 C 204.157 0.337275 2.08388 0
M  V30 2018 O 203.505 -0.676447 2.18258 0
M  V30 2019 C 203.715 2.88566 1.96293 0
M  V30 2020 C 205.063 3.41244 2.52662 0
M  V30 2021 O 206.087 2.90247 2.06483 0
M  V30 2022 O 204.946 4.30273 3.36938 0
M  V30 2023 H 202.04 0.628598 0.537395 0
M  V30 2024 H 204.586 1.64283 0.425331 0
M  V30 2025 H 203.358 3.69116 1.2988 0
M  V30 2026 H 202.981 2.83681 2.78587 0
M  V30 2027 N 203.978 -0.674533 1.42435 0
M  V30 2028 C 204.888 -1.81751 1.48337 0
M  V30 2029 C 205.904 -1.69975 0.372099 0
M  V30 2030 O 207.08 -1.91521 0.62304 0
M  V30 2031 C 204.145 -3.17895 1.38361 0
M  V30 2032 C 203.206 -3.41625 2.59982 0
M  V30 2033 C 202.439 -4.71274 2.50473 0
M  V30 2034 O 202.662 -5.49197 1.54075 0
M  V30 2035 O 201.596 -4.96254 3.4061 0
M  V30 2036 H 205.422 -1.79728 2.44809 0
M  V30 2037 H 203.007 -0.830312 1.24202 0
M  V30 2038 H 204.889 -3.99136 1.35161 0
M  V30 2039 H 203.564 -3.20555 0.450144 0
M  V30 2040 H 202.471 -2.60231 2.68757 0
M  V30 2041 H 203.804 -3.43796 3.52229 0
M  V30 2042 N 205.456 -1.28612 -0.910864 0
M  V30 2043 C 206.388 -1.08589 -2.01844 0
M  V30 2044 C 207.401 -0.0367419 -1.62759 0
M  V30 2045 O 208.59 -0.280101 -1.76289 0
M  V30 2046 C 205.69 -0.628626 -3.33019 0
M  V30 2047 C 204.863 -1.75382 -4.00699 0
M  V30 2048 C 203.922 -1.28945 -5.10156 0
M  V30 2049 O 202.948 -1.9922 -5.33198 0
M  V30 2050 N 204.15 -0.154224 -5.80295 0
M  V30 2051 H 206.915 -2.03973 -2.19579 0
M  V30 2052 H 204.476 -1.20403 -1.08234 0
M  V30 2053 H 206.468 -0.301508 -4.03575 0
M  V30 2054 H 205.038 0.232451 -3.11735 0
M  V30 2055 H 204.258 -2.25039 -3.23653 0
M  V30 2056 H 205.546 -2.50854 -4.42662 0
M  V30 2057 H 204.944 0.43194 -5.64049 0
M  V30 2058 H 203.501 0.113599 -6.51701 0
M  V30 2059 N 206.934 1.1197 -1.10907 0
M  V30 2060 C 208.18 1.8386 -0.855773 0
M  V30 2061 C 208.513 1.84134 0.617103 0
M  V30 2062 O 207.788 1.29041 1.45529 0
M  V30 2063 C 208.071 3.31305 -1.411 0
M  V30 2064 C 207.924 3.39456 -2.9511 0
M  V30 2065 C 209.243 4.2721 -1.05736 0
M  V30 2066 H 206.362 0.667545 -0.312334 0
M  V30 2067 H 209.004 1.31331 -1.37303 0
M  V30 2068 H 207.154 3.76169 -0.97105 0
M  V30 2069 H 208.826 3.03191 -3.47668 0
M  V30 2070 H 207.069 2.79849 -3.31462 0
M  V30 2071 H 207.74 4.43209 -3.29044 0
M  V30 2072 H 210.216 3.90497 -1.43706 0
M  V30 2073 H 209.092 5.28775 -1.47269 0
M  V30 2074 H 209.353 4.42088 0.0325958 0
M  V30 2075 N 208.412 0.89855 1.29475 0
M  V30 2076 C 209.64 0.539261 1.99749 0
M  V30 2077 C 210.055 -0.875716 1.67262 0
M  V30 2078 O 209.412 -1.57786 0.917049 0
M  V30 2079 C 209.463 0.72061 3.54245 0
M  V30 2080 O 209.184 2.07989 3.8558 0
M  V30 2081 C 210.685 0.366118 4.41786 0
M  V30 2082 H 207.905 0.207047 0.638258 0
M  V30 2083 H 210.449 1.20758 1.65039 0
M  V30 2084 H 208.604 0.0994862 3.87272 0
M  V30 2085 H 209.018 2.10841 4.80257 0
M  V30 2086 H 210.492 0.543848 5.49314 0
M  V30 2087 H 210.969 -0.696763 4.33638 0
M  V30 2088 H 211.575 0.964135 4.14228 0
M  V30 2089 N 209.89 -1.43072 0.660911 0
M  V30 2090 C 211.115 -2.06584 0.183805 0
M  V30 2091 C 211.54 -1.49257 -1.14472 0
M  V30 2092 O 210.898 -0.605528 -1.70889 0
M  V30 2093 C 210.946 -3.60418 0.114434 0
M  V30 2094 O 210.05 -4.01981 -0.921137 0
M  V30 2095 H 209.391 -0.656669 0.0983994 0
M  V30 2096 H 211.921 -1.83447 0.906006 0
M  V30 2097 H 211.931 -4.07946 -0.0663394 0
M  V30 2098 H 210.606 -4.01519 1.08422 0
M  V30 2099 H 209.183 -3.66029 -0.71253 0
M  V30 2100 N 211.368 -0.403325 -1.52352 0
M  V30 2101 C 212.784 -0.0539281 -1.59509 0
M  V30 2102 C 212.984 1.43307 -1.41652 0
M  V30 2103 O 212.04 2.19924 -1.24056 0
M  V30 2104 C 213.353 -0.543654 -2.95745 0
M  V30 2105 C 214.901 -0.501125 -3.08962 0
M  V30 2106 C 215.376 -0.967267 -4.47669 0
M  V30 2107 N 216.867 -0.923849 -4.53893 0
M  V30 2108 C 217.602 -1.25578 -5.5948 0
M  V30 2109 N 217.098 -1.65889 -6.72646 0
M  V30 2110 N 218.891 -1.17613 -5.49658 0
M  V30 2111 H 211.042 -1.37123 -1.62206 0
M  V30 2112 H 213.305 -0.56294 -0.76276 0
M  V30 2113 H 213.011 -1.58275 -3.14073 0
M  V30 2114 H 212.885 0.0498042 -3.77167 0
M  V30 2115 H 215.272 0.528909 -2.90321 0
M  V30 2116 H 215.353 -1.13056 -2.2946 0
M  V30 2117 H 214.997 -1.9956 -4.67053 0
M  V30 2118 H 214.927 -0.314698 -5.25659 0
M  V30 2119 H 217.418 -0.627403 -3.72655 0
M  V30 2120 H 217.731 -1.89543 -7.49195 0
M  V30 2121 H 216.076 -1.69787 -6.73942 0
M  V30 2122 H 219.267 -0.860115 -4.6013 0
M  V30 2123 H 219.44 -1.43812 -6.3184 0
M  V30 2124 N 212.846 1.57033 -0.133567 0
M  V30 2125 C 213.809 2.14897 0.796995 0
M  V30 2126 C 214.809 1.0874 1.18458 0
M  V30 2127 O 215.999 1.34446 1.1077 0
M  V30 2128 C 213.131 2.70112 2.07973 0
M  V30 2129 H 214.324 2.98457 0.293873 0
M  V30 2130 H 211.877 1.55871 0.115787 0
M  V30 2131 H 212.612 1.9018 2.62682 0
M  V30 2132 H 212.397 3.47764 1.81115 0
M  V30 2133 H 213.887 3.14738 2.74462 0
M  V30 2134 N 214.325 -0.140222 1.56975 0
M  V30 2135 C 215.257 -1.19818 1.95388 0
M  V30 2136 C 216.27 -1.38816 0.850525 0
M  V30 2137 O 217.459 -1.38267 1.12891 0
M  V30 2138 C 214.559 -2.56189 2.21857 0
M  V30 2139 C 213.732 -2.58077 3.5315 0
M  V30 2140 C 212.791 -3.76037 3.6808 0
M  V30 2141 O 211.817 -3.60598 4.40406 0
M  V30 2142 N 213.019 -4.93763 3.05251 0
M  V30 2143 H 215.784 -0.871609 2.86746 0
M  V30 2144 H 213.345 -0.32972 1.58507 0
M  V30 2145 H 215.337 -3.33623 2.2908 0
M  V30 2146 H 213.907 -2.81111 1.36731 0
M  V30 2147 H 213.127 -1.6651 3.57307 0
M  V30 2148 H 214.415 -2.56377 4.39486 0
M  V30 2149 H 213.813 -5.09209 2.46419 0
M  V30 2150 H 212.37 -5.68949 3.18026 0
M  V30 2151 N 215.803 -1.52179 -0.40978 0
M  V30 2152 C 216.713 -1.78364 -1.52392 0
M  V30 2153 C 217.729 -0.669183 -1.60617 0
M  V30 2154 O 218.905 -0.954518 -1.77344 0
M  V30 2155 C 215.97 -1.92822 -2.88133 0
M  V30 2156 C 215.031 -3.16725 -2.898 0
M  V30 2157 C 214.264 -3.30483 -4.19067 0
M  V30 2158 O 214.487 -2.49522 -5.12928 0
M  V30 2159 O 213.421 -4.2363 -4.27576 0
M  V30 2160 H 217.247 -2.72931 -1.33201 0
M  V30 2161 H 214.832 -1.37016 -0.59557 0
M  V30 2162 H 216.714 -2.04157 -3.68643 0
M  V30 2163 H 215.389 -1.01444 -3.07393 0
M  V30 2164 H 214.296 -3.10848 -2.08146 0
M  V30 2165 H 215.629 -4.07881 -2.75489 0
M  V30 2166 N 217.281 0.66697 -1.42791 0
M  V30 2167 C 218.692 1.2478 -1.38877 0
M  V30 2168 C 219.043 1.96012 -0.0859426 0
M  V30 2169 O 218.168 2.00463 0.815081 0
M  V30 2170 C 218.763 2.26938 -2.51564 0
M  V30 2171 C 217.322 2.80529 -2.50959 0
M  V30 2172 C 216.469 1.54965 -2.29959 0
M  V30 2173 H 219.42 0.459853 -1.51892 0
M  V30 2174 H 219.441 3.08834 -2.22265 0
M  V30 2175 H 218.953 1.75065 -3.46372 0
M  V30 2176 H 217.054 3.36502 -1.59991 0
M  V30 2177 H 217.167 3.29012 -3.48265 0
M  V30 2178 H 215.531 1.81817 -1.78366 0
M  V30 2179 H 216.314 1.05047 -3.26833 0
M  V30 2180 N 218.759 1.29093 0.90403 0
M  V30 2181 C 219.689 1.16401 2.02418 0
M  V30 2182 C 220.67 0.0593085 1.69997 0
M  V30 2183 O 221.855 0.238021 1.92736 0
M  V30 2184 C 218.985 0.835233 3.37107 0
M  V30 2185 C 217.939 1.89578 3.83724 0
M  V30 2186 C 217.265 1.42041 5.15489 0
M  V30 2187 C 218.565 3.30394 4.04521 0
M  V30 2188 H 220.259 2.10109 2.13295 0
M  V30 2189 H 217.805 1.01157 1.02486 0
M  V30 2190 H 219.758 0.733169 4.14973 0
M  V30 2191 H 218.482 -0.137543 3.2631 0
M  V30 2192 H 217.141 1.98715 3.08071 0
M  V30 2193 H 216.789 0.436426 5.01103 0
M  V30 2194 H 216.489 2.12964 5.4765 0
M  V30 2195 H 218.013 1.33176 5.959 0
M  V30 2196 H 219.427 3.24123 4.72882 0
M  V30 2197 H 217.824 3.99237 4.48029 0
M  V30 2198 H 218.894 3.73692 3.09002 0
M  V30 2199 N 220.237 -1.11381 1.11499 0
M  V30 2200 C 221.462 -1.87475 0.887019 0
M  V30 2201 C 221.887 -1.79639 -0.557796 0
M  V30 2202 O 221.245 -1.15924 -1.39396 0
M  V30 2203 C 221.293 -3.34213 1.35403 0
M  V30 2204 O 220.397 -4.0903 0.526146 0
M  V30 2205 H 219.738 -0.582099 0.319463 0
M  V30 2206 H 222.268 -1.40785 1.48461 0
M  V30 2207 H 222.278 -3.8506 1.34881 0
M  V30 2208 H 220.953 -3.39232 2.40612 0
M  V30 2209 H 219.53 -3.68082 0.597522 0
M  V30 2210 N 221.715 -0.905404 -1.28997 0
M  V30 2211 C 222.94 -0.549175 -1.99997 0
M  V30 2212 C 223.365 0.860276 -1.67275 0
M  V30 2213 O 222.723 1.57355 -0.900502 0
M  V30 2214 C 222.771 -0.755185 -3.52604 0
M  V30 2215 O 221.875 0.189692 -4.11964 0
M  V30 2216 H 221.216 -0.213899 -0.628604 0
M  V30 2217 H 223.746 -1.21856 -1.64354 0
M  V30 2218 H 223.756 -0.662045 -4.02593 0
M  V30 2219 H 222.431 -1.78271 -3.75755 0
M  V30 2220 H 221.008 0.0485257 -3.72868 0
M  V30 2221 N 223.193 1.4272 -0.668489 0
M  V30 2222 C 224.439 2.01923 -0.188419 0
M  V30 2223 C 224.772 1.52704 1.19979 0
M  V30 2224 O 224.047 0.726566 1.8042 0
M  V30 2225 C 224.33 3.59451 -0.216085 0
M  V30 2226 C 224.183 4.18864 -1.6393 0
M  V30 2227 C 225.502 4.37903 0.439179 0
M  V30 2228 H 222.621 0.733674 -0.0699412 0
M  V30 2229 H 225.263 1.69822 -0.852076 0
M  V30 2230 H 223.413 3.86929 0.349012 0
M  V30 2231 H 225.085 4.02362 -2.25616 0
M  V30 2232 H 223.328 3.74933 -2.18193 0
M  V30 2233 H 223.999 5.27987 -1.61039 0
M  V30 2234 H 226.475 4.16079 -0.0417878 0
M  V30 2235 H 225.351 5.47519 0.389157 0
M  V30 2236 H 225.612 4.15303 1.51577 0
M  V30 2237 N 224.671 0.411399 1.52136 0
M  V30 2238 C 226.087 0.0623865 1.59478 0
M  V30 2239 C 226.287 -1.42554 1.4241 0
M  V30 2240 O 225.343 -2.19263 1.2522 0
M  V30 2241 C 226.656 0.559331 2.95452 0
M  V30 2242 C 228.204 0.517503 3.08692 0
M  V30 2243 C 228.679 0.990994 4.4715 0
M  V30 2244 N 230.17 0.947908 4.53397 0
M  V30 2245 C 230.905 1.28544 5.58806 0
M  V30 2246 N 230.401 1.69454 6.71757 0
M  V30 2247 N 232.194 1.20526 5.49026 0
M  V30 2248 H 224.345 1.37982 1.61477 0
M  V30 2249 H 226.608 0.566977 0.759764 0
M  V30 2250 H 226.314 1.59938 3.1323 0
M  V30 2251 H 226.188 -0.0298014 3.77188 0
M  V30 2252 H 228.575 -0.513505 2.90598 0
M  V30 2253 H 228.656 1.14272 2.28857 0
M  V30 2254 H 228.3 2.02034 4.65988 0
M  V30 2255 H 228.23 0.34257 5.25485 0
M  V30 2256 H 230.721 0.647157 3.72317 0
M  V30 2257 H 231.034 1.93513 7.48179 0
M  V30 2258 H 229.379 1.73359 6.73032 0
M  V30 2259 H 232.57 0.884505 4.59667 0
M  V30 2260 H 232.743 1.47161 6.31069 0
M  V30 2261 N 226.149 -1.5696 0.141893 0
M  V30 2262 C 227.565 -1.58151 -0.21456 0
M  V30 2263 C 227.765 -1.1559 -1.65049 0
M  V30 2264 O 226.821 -0.853832 -2.37626 0
M  V30 2265 C 228.134 -3.00674 0.0395576 0
M  V30 2266 C 229.682 -3.1299 -0.0245529 0
M  V30 2267 C 230.157 -4.57554 0.202167 0
M  V30 2268 N 231.648 -4.62961 0.148919 0
M  V30 2269 C 232.383 -5.7262 0.298924 0
M  V30 2270 N 231.879 -6.90947 0.50637 0
M  V30 2271 N 233.672 -5.61601 0.236886 0
M  V30 2272 H 225.823 -1.8292 1.07953 0
M  V30 2273 H 228.086 -0.846425 0.42693 0
M  V30 2274 H 227.792 -3.36183 1.03315 0
M  V30 2275 H 227.666 -3.70981 -0.682143 0
M  V30 2276 H 230.053 -2.77326 -1.00869 0
M  V30 2277 H 230.134 -2.4518 0.729396 0
M  V30 2278 H 229.778 -4.93922 1.18338 0
M  V30 2279 H 229.708 -5.23484 -0.572044 0
M  V30 2280 H 232.199 -3.77899 -0.00697015 0
M  V30 2281 H 232.512 -7.7038 0.611076 0
M  V30 2282 H 230.857 -6.92878 0.542628 0
M  V30 2283 H 234.048 -4.68039 0.0756209 0
M  V30 2284 H 234.221 -6.47015 0.357227 0
M  V30 2285 N 227.627 0.131896 -1.57047 0
M  V30 2286 C 229.043 0.485031 -1.52051 0
M  V30 2287 C 229.243 1.82563 -0.85281 0
M  V30 2288 O 228.299 2.48817 -0.429694 0
M  V30 2289 C 229.612 0.481409 -2.96821 0
M  V30 2290 C 231.16 0.565868 -3.07842 0
M  V30 2291 C 231.635 0.592762 -4.54148 0
M  V30 2292 N 233.126 0.654564 -4.58552 0
M  V30 2293 C 233.861 0.696608 -5.69153 0
M  V30 2294 N 233.357 0.697078 -6.89284 0
M  V30 2295 N 235.15 0.738639 -5.57226 0
M  V30 2296 H 227.301 -0.746664 -1.98843 0
M  V30 2297 H 229.564 -0.273999 -0.90754 0
M  V30 2298 H 229.27 -0.435731 -3.4899 0
M  V30 2299 H 229.144 1.3139 -3.53577 0
M  V30 2300 H 231.531 1.47343 -2.55684 0
M  V30 2301 H 231.612 -0.29406 -2.54104 0
M  V30 2302 H 231.256 -0.310701 -5.06949 0
M  V30 2303 H 231.186 1.46939 -5.05684 0
M  V30 2304 H 233.677 0.660887 -3.72076 0
M  V30 2305 H 233.99 0.731426 -7.69331 0
M  V30 2306 H 232.335 0.66471 -6.91814 0
M  V30 2307 H 235.526 0.735545 -4.62285 0
M  V30 2308 H 235.699 0.767938 -6.43434 0
M  V30 2309 N 229.106 1.52395 0.401703 0
M  V30 2310 C 230.069 1.75636 1.47257 0
M  V30 2311 C 231.069 0.62628 1.48103 0
M  V30 2312 O 232.259 0.894227 1.49497 0
M  V30 2313 C 229.391 1.84553 2.86624 0
M  V30 2314 H 230.584 2.71241 1.27938 0
M  V30 2315 H 228.137 1.42923 0.632662 0
M  V30 2316 H 228.872 0.908882 3.11303 0
M  V30 2317 H 228.657 2.66715 2.87412 0
M  V30 2318 H 230.147 2.04251 3.64241 0
M  V30 2319 N 230.584 -0.659388 1.43143 0
M  V30 2320 C 231.514 -1.78422 1.50625 0
M  V30 2321 C 232.495 -1.66216 0.361443 0
M  V30 2322 O 233.68 -1.85404 0.577834 0
M  V30 2323 C 230.81 -3.16815 1.42287 0
M  V30 2324 C 229.764 -3.43777 2.54954 0
M  V30 2325 C 229.09 -4.81905 2.31671 0
M  V30 2326 C 230.39 -3.39134 3.97222 0
M  V30 2327 H 232.084 -1.72417 2.44771 0
M  V30 2328 H 229.63 -0.828084 1.17808 0
M  V30 2329 H 231.583 -3.95253 1.46127 0
M  V30 2330 H 230.307 -3.23534 0.446435 0
M  V30 2331 H 228.966 -2.67707 2.50457 0
M  V30 2332 H 228.614 -4.85294 1.32284 0
M  V30 2333 H 228.314 -5.00906 3.07192 0
M  V30 2334 H 229.838 -5.62609 2.37284 0
M  V30 2335 H 231.252 -4.07518 4.03239 0
M  V30 2336 H 229.649 -3.69671 4.72719 0
M  V30 2337 H 230.719 -2.37426 4.22797 0
M  V30 2338 N 232.062 -1.29571 -0.897171 0
M  V30 2339 C 232.992 -1.17473 -2.01798 0
M  V30 2340 C 233.973 -0.068323 -1.69963 0
M  V30 2341 O 235.158 -0.248239 -1.92607 0
M  V30 2342 C 232.288 -0.853099 -3.36659 0
M  V30 2343 C 231.242 -1.9161 -3.82713 0
M  V30 2344 C 230.568 -1.44773 -5.14728 0
M  V30 2345 C 231.868 -3.32535 -4.02763 0
M  V30 2346 H 233.562 -2.11237 -2.12177 0
M  V30 2347 H 231.108 -1.01699 -1.01948 0
M  V30 2348 H 233.061 -0.755165 -4.14578 0
M  V30 2349 H 231.785 0.120236 -3.26379 0
M  V30 2350 H 230.444 -2.00346 -3.07013 0
M  V30 2351 H 230.092 -0.462995 -5.00865 0
M  V30 2352 H 229.792 -2.15865 -5.46513 0
M  V30 2353 H 231.316 -1.36334 -5.95185 0
M  V30 2354 H 232.73 -3.26626 -4.71156 0
M  V30 2355 H 231.127 -4.01607 -4.45905 0
M  V30 2356 H 232.197 -3.75326 -3.07016 0
M  V30 2357 N 233.54 1.10788 -1.12088 0
M  V30 2358 C 234.956 1.34691 -0.856186 0
M  V30 2359 C 235.156 1.94791 0.515615 0
M  V30 2360 O 234.212 2.18524 1.26505 0
M  V30 2361 C 235.525 2.27208 -1.9697 0
M  V30 2362 C 237.073 2.40755 -2.00016 0
M  V30 2363 C 237.548 3.36598 -3.1059 0
M  V30 2364 N 239.039 3.44164 -3.10008 0
M  V30 2365 C 239.774 4.18284 -3.92206 0
M  V30 2366 N 239.27 4.95322 -4.84384 0
M  V30 2367 N 241.063 4.13865 -3.80357 0
M  V30 2368 H 233.214 0.70144 -2.00483 0
M  V30 2369 H 235.477 0.371405 -0.872217 0
M  V30 2370 H 235.183 1.90251 -2.958 0
M  V30 2371 H 235.057 3.27485 -1.87172 0
M  V30 2372 H 237.444 2.76982 -1.01808 0
M  V30 2373 H 237.525 1.40305 -2.13888 0
M  V30 2374 H 237.169 3.01096 -4.09028 0
M  V30 2375 H 237.099 4.36918 -2.93956 0
M  V30 2376 H 239.59 2.8922 -2.43228 0
M  V30 2377 H 239.903 5.49267 -5.43623 0
M  V30 2378 H 238.248 4.94459 -4.884 0
M  V30 2379 H 241.439 3.52773 -3.07683 0
M  V30 2380 H 241.612 4.71372 -4.44649 0
M  V30 2381 N 235.018 0.912232 1.28515 0
M  V30 2382 C 235.965 0.397954 2.27343 0
M  V30 2383 C 236.935 -0.526766 1.57526 0
M  V30 2384 O 238.12 -0.449292 1.85435 0
M  V30 2385 C 235.26 -0.357263 3.43246 0
M  V30 2386 C 234.373 0.599788 4.27816 0
M  V30 2387 C 233.508 -0.173725 5.30916 0
M  V30 2388 C 232.547 0.777039 6.07148 0
M  V30 2389 N 231.684 0.0371398 7.0209 0
M  V30 2390 H 236.524 1.24577 2.70711 0
M  V30 2391 H 234.061 0.625612 1.33133 0
M  V30 2392 H 236.019 -0.8113 4.09236 0
M  V30 2393 H 234.649 -1.16943 3.00872 0
M  V30 2394 H 233.701 1.17235 3.61884 0
M  V30 2395 H 235.013 1.32704 4.80823 0
M  V30 2396 H 234.167 -0.688394 6.02782 0
M  V30 2397 H 232.906 -0.934041 4.78672 0
M  V30 2398 H 231.911 1.3031 5.34134 0
M  V30 2399 H 233.136 1.53689 6.61481 0
M  V30 2400 H 231.082 -0.705213 6.52198 0
M  V30 2401 H 230.999 0.704249 7.52713 0
M  V30 2402 H 232.267 -0.457383 7.78157 0
M  V30 2403 N 236.496 -1.42363 0.676048 0
M  V30 2404 C 237.459 -2.29199 0.00766941 0
M  V30 2405 C 238.459 -1.43389 -0.727745 0
M  V30 2406 O 239.649 -1.64764 -0.56556 0
M  V30 2407 C 236.781 -3.2591 -0.999785 0
M  V30 2408 H 237.974 -2.89794 0.771988 0
M  V30 2409 H 235.527 -1.50024 0.438468 0
M  V30 2410 H 236.262 -2.70256 -1.79255 0
M  V30 2411 H 236.047 -3.89202 -0.475829 0
M  V30 2412 H 237.537 -3.91028 -1.46583 0
M  V30 2413 N 237.974 -0.419461 -1.51915 0
M  V30 2414 C 239.199 0.154572 -2.06823 0
M  V30 2415 C 239.624 1.3722 -1.28656 0
M  V30 2416 O 238.982 1.78461 -0.319583 0
M  V30 2417 C 239.03 0.473172 -3.57482 0
M  V30 2418 O 238.134 1.56255 -3.81652 0
M  V30 2419 H 237.475 0.0096924 -0.663929 0
M  V30 2420 H 240.005 -0.595642 -1.95738 0
M  V30 2421 H 240.015 0.728825 -4.01438 0
M  V30 2422 H 238.69 -0.416873 -4.13805 0
M  V30 2423 H 237.267 1.29825 -3.49571 0
M  V30 2424 N 239.452 1.56882 -0.150215 0
M  V30 2425 C 240.677 2.01027 0.510184 0
M  V30 2426 C 241.102 1.02966 1.57415 0
M  V30 2427 O 240.46 0.00590158 1.81299 0
M  V30 2428 C 240.508 3.43899 1.08472 0
M  V30 2429 O 239.612 3.4885 2.19948 0
M  V30 2430 H 238.953 0.652233 0.124451 0
M  V30 2431 H 241.483 2.03093 -0.247894 0
M  V30 2432 H 241.493 3.82766 1.41259 0
M  V30 2433 H 240.168 4.14776 0.305582 0
M  V30 2434 H 238.745 3.21827 1.88366 0
M  V30 2435 N 240.93 -0.123565 1.57115 0
M  V30 2436 C 241.86 -1.15309 2.03042 0
M  V30 2437 C 242.841 -1.43454 0.914061 0
M  V30 2438 O 244.026 -1.53973 1.18347 0
M  V30 2439 C 241.156 -2.48043 2.43089 0
M  V30 2440 C 240.11 -2.3437 3.58127 0
M  V30 2441 C 239.436 -3.72026 3.84059 0
M  V30 2442 C 240.736 -1.80804 4.90007 0
M  V30 2443 H 242.43 -0.771102 2.893 0
M  V30 2444 H 239.976 -0.369479 1.39179 0
M  V30 2445 H 241.929 -3.20311 2.73823 0
M  V30 2446 H 240.653 -2.88122 1.53796 0
M  V30 2447 H 239.312 -1.64551 3.27595 0
M  V30 2448 H 238.96 -4.09582 2.91979 0
M  V30 2449 H 238.66 -3.63732 4.6149 0
M  V30 2450 H 240.184 -4.45806 4.1724 0
M  V30 2451 H 241.598 -2.42886 5.19307 0
M  V30 2452 H 239.995 -1.83343 5.71407 0
M  V30 2453 H 241.065 -0.76528 4.78823 0
M  V30 2454 N 242.408 -1.52605 -0.393616 0
M  V30 2455 C 243.819 -1.59417 -0.971761 0
M  V30 2456 C 244.17 -0.444173 -1.91106 0
M  V30 2457 O 243.295 0.433382 -2.12016 0
M  V30 2458 C 243.89 -2.88936 -1.76921 0
M  V30 2459 C 242.449 -2.98175 -2.29714 0
M  V30 2460 C 241.596 -2.54491 -1.10135 0
M  V30 2461 H 244.547 -1.57751 -0.173317 0
M  V30 2462 H 244.568 -2.75163 -2.62804 0
M  V30 2463 H 244.08 -3.72616 -1.08532 0
M  V30 2464 H 242.181 -2.19024 -3.01429 0
M  V30 2465 H 242.294 -4.02726 -2.59517 0
M  V30 2466 H 240.658 -2.08702 -1.45999 0
M  V30 2467 H 241.441 -3.4056 -0.432874 0
M  V30 2468 N 243.887 0.651787 -1.4349 0
M  V30 2469 C 245.298 1.233 -1.40193 0
M  V30 2470 C 245.649 1.9591 -0.106727 0
M  V30 2471 O 244.774 2.01316 0.793773 0
M  V30 2472 C 245.369 2.24257 -2.53957 0
M  V30 2473 C 243.928 2.77852 -2.5392 0
M  V30 2474 C 243.075 1.52517 -2.3159 0
M  V30 2475 H 246.026 0.443717 -1.52371 0
M  V30 2476 H 246.047 3.0646 -2.25528 0
M  V30 2477 H 245.559 1.71382 -3.4821 0
M  V30 2478 H 243.66 3.34786 -1.63551 0
M  V30 2479 H 243.773 3.25299 -3.51735 0
M  V30 2480 H 242.137 1.79915 -1.80285 0
M  V30 2481 H 242.92 1.01574 -3.27929 0
M  V30 2482 N 245.365 1.30045 0.890287 0
M  V30 2483 C 246.593 1.21472 1.67487 0
M  V30 2484 C 247.008 -0.223241 1.87476 0
M  V30 2485 O 246.365 -1.14828 1.41847 0
M  V30 2486 C 246.416 1.93394 3.05419 0
M  V30 2487 O 246.137 3.31576 2.86337 0
M  V30 2488 C 247.638 1.91414 3.99844 0
M  V30 2489 H 244.858 0.420604 0.522813 0
M  V30 2490 H 247.402 1.7158 1.11268 0
M  V30 2491 H 245.557 1.47099 3.58386 0
M  V30 2492 H 245.971 3.67929 3.73802 0
M  V30 2493 H 247.445 2.46285 4.94012 0
M  V30 2494 H 247.922 0.891833 4.3005 0
M  V30 2495 H 248.528 2.37496 3.52811 0
M  V30 2496 N 246.843 -1.10192 1.12674 0
M  V30 2497 C 248.071 -1.85983 0.906527 0
M  V30 2498 C 248.486 -1.80783 -0.544333 0
M  V30 2499 O 247.843 -1.19834 -1.37645 0
M  V30 2500 C 247.894 -3.34281 1.37618 0
M  V30 2501 O 247.615 -3.39401 2.77017 0
M  V30 2502 C 249.116 -4.26938 1.19325 0
M  V30 2503 H 246.336 -0.587716 0.323775 0
M  V30 2504 H 248.88 -1.39284 1.49734 0
M  V30 2505 H 247.035 -3.78436 0.828539 0
M  V30 2506 H 247.449 -4.31838 2.97684 0
M  V30 2507 H 248.923 -5.29181 1.57071 0
M  V30 2508 H 249.4 -4.38995 0.134097 0
M  V30 2509 H 250.006 -3.8859 1.72852 0
M  V30 2510 N 248.321 -0.919034 -1.28029 0
M  V30 2511 C 249.284 -0.416182 -2.2539 0
M  V30 2512 C 250.284 0.460438 -1.54067 0
M  V30 2513 O 251.474 0.262744 -1.72207 0
M  V30 2514 C 248.606 0.402707 -3.38513 0
M  V30 2515 H 249.799 -1.27629 -2.71387 0
M  V30 2516 H 247.352 -0.698919 -1.39803 0
M  V30 2517 H 248.087 1.282 -2.97885 0
M  V30 2518 H 247.872 -0.225698 -3.9145 0
M  V30 2519 H 249.362 0.745191 -4.10897 0
M  V30 2520 N 249.799 1.42003 -0.683588 0
M  V30 2521 C 250.749 2.27997 0.0121992 0
M  V30 2522 C 251.733 1.4156 0.764822 0
M  V30 2523 O 252.925 1.64935 0.642287 0
M  V30 2524 C 250.054 3.29706 0.956482 0
M  V30 2525 C 249.14 4.23625 0.200739 0
M  V30 2526 N 249.531 4.99448 -0.799087 0
M  V30 2527 C 247.829 4.43845 0.437937 0
M  V30 2528 C 248.53 5.68102 -1.25041 0
M  V30 2529 N 247.506 5.40511 -0.578648 0
M  V30 2530 H 251.308 2.84048 -0.754564 0
M  V30 2531 H 248.822 1.54071 -0.513398 0
M  V30 2532 H 250.819 3.90124 1.47 0
M  V30 2533 H 249.479 2.75216 1.72297 0
M  V30 2534 H 250.49 5.04303 -1.17893 0
M  V30 2535 H 247.167 4.00382 1.18325 0
M  V30 2536 H 248.557 6.38913 -2.07942 0
M  V30 2537 N 251.277 0.427512 1.51691 0
M  V30 2538 C 252.526 -0.143679 2.01188 0
M  V30 2539 C 252.839 -1.44642 1.31674 0
M  V30 2540 O 254.045 -2.09997 1.72086 0
M  V30 2541 C 252.501 -0.306602 3.58592 0
M  V30 2542 C 252.109 0.985125 4.37035 0
M  V30 2543 C 253.853 -0.832091 4.16265 0
M  V30 2544 C 251.76 0.788382 5.86122 0
M  V30 2545 H 250.69 -0.0574701 0.751807 0
M  V30 2546 H 253.341 0.555772 1.74881 0
M  V30 2547 H 251.723 -1.06882 3.81303 0
M  V30 2548 H 252.897 1.75492 4.26074 0
M  V30 2549 H 251.212 1.4384 3.90767 0
M  V30 2550 H 253.809 -0.995617 5.25349 0
M  V30 2551 H 254.152 -1.81186 3.74803 0
M  V30 2552 H 254.685 -0.128444 3.97593 0
M  V30 2553 H 251.424 1.74025 6.31978 0
M  V30 2554 H 250.944 0.0582143 5.99772 0
M  V30 2555 H 252.623 0.437722 6.45518 0
M  V30 2556 N 252.755 -1.56801 0.158532 0
M  V30 2557 C 253.685 -2.20347 -0.772609 0
M  V30 2558 C 254.666 -1.15518 -1.24859 0
M  V30 2559 O 255.851 -1.43902 -1.30406 0
M  V30 2560 C 252.981 -2.83417 -2.00729 0
M  V30 2561 C 251.935 -3.94174 -1.66765 0
M  V30 2562 C 251.261 -4.44233 -2.97592 0
M  V30 2563 C 252.561 -5.14392 -0.905447 0
M  V30 2564 H 254.255 -2.98413 -0.242959 0
M  V30 2565 H 251.801 -1.43537 -0.115419 0
M  V30 2566 H 253.754 -3.26543 -2.6636 0
M  V30 2567 H 252.478 -2.02701 -2.56086 0
M  V30 2568 H 251.137 -3.51684 -1.03508 0
M  V30 2569 H 250.785 -3.60325 -3.50963 0
M  V30 2570 H 250.485 -5.18945 -2.75626 0
M  V30 2571 H 252.009 -4.90037 -3.64274 0
M  V30 2572 H 253.423 -5.5429 -1.46408 0
M  V30 2573 H 251.82 -5.9494 -0.7853 0
M  V30 2574 H 252.89 -4.84795 0.100668 0
M  V30 2575 N 254.233 0.115231 -1.57178 0
M  V30 2576 C 255.458 0.840354 -1.89612 0
M  V30 2577 C 255.883 1.72464 -0.750845 0
M  V30 2578 O 255.241 1.78826 0.298478 0
M  V30 2579 C 255.289 1.64654 -3.20814 0
M  V30 2580 O 254.393 2.7538 -3.06985 0
M  V30 2581 H 253.734 0.232158 -0.622092 0
M  V30 2582 H 256.264 0.0964977 -2.04372 0
M  V30 2583 H 256.274 2.03499 -3.53627 0
M  V30 2584 H 254.949 0.997416 -4.03763 0
M  V30 2585 H 253.526 2.3971 -2.85646 0
M  V30 2586 N 255.711 1.52812 0.385517 0
M  V30 2587 C 256.674 1.77188 1.45386 0
M  V30 2588 C 257.674 0.641953 1.4743 0
M  V30 2589 O 258.864 0.910033 1.4854 0
M  V30 2590 C 255.996 1.87582 2.8465 0
M  V30 2591 H 257.189 2.72583 1.25054 0
M  V30 2592 H 254.742 1.43586 0.617467 0
M  V30 2593 H 255.477 0.941849 3.10322 0
M  V30 2594 H 255.262 2.69748 2.84567 0
M  V30 2595 H 256.752 2.08102 3.62054 0
M  V30 2596 N 257.189 -0.644168 1.43834 0
M  V30 2597 C 258.119 -1.76814 1.52509 0
M  V30 2598 C 259.1 -1.65823 0.379052 0
M  V30 2599 O 260.285 -1.84781 0.597466 0
M  V30 2600 C 257.415 -3.15288 1.4564 0
M  V30 2601 C 256.369 -3.41053 2.58586 0
M  V30 2602 C 255.695 -4.79421 2.36769 0
M  V30 2603 C 256.995 -3.34902 4.00797 0
M  V30 2604 H 258.689 -1.69812 2.46586 0
M  V30 2605 H 256.235 -0.815542 1.1868 0
M  V30 2606 H 258.188 -3.93681 1.50311 0
M  V30 2607 H 256.912 -3.23043 0.480725 0
M  V30 2608 H 255.571 -2.65035 2.53282 0
M  V30 2609 H 255.219 -4.83863 1.37424 0
M  V30 2610 H 254.919 -4.9762 3.12487 0
M  V30 2611 H 256.443 -5.6006 2.43238 0
M  V30 2612 H 257.857 -4.03218 4.07539 0
M  V30 2613 H 256.254 -3.64637 4.76613 0
M  V30 2614 H 257.324 -2.32928 4.25291 0
M  V30 2615 N 258.668 -1.30515 -0.883378 0
M  V30 2616 C 259.598 -1.19607 -2.00541 0
M  V30 2617 C 260.579 -0.086346 -1.69881 0
M  V30 2618 O 261.764 -0.268654 -1.92333 0
M  V30 2619 C 258.894 -0.888758 -3.35736 0
M  V30 2620 C 257.848 -1.95659 -3.8066 0
M  V30 2621 C 257.174 -1.50224 -5.13164 0
M  V30 2622 C 258.474 -3.36788 -3.99213 0
M  V30 2623 H 260.168 -2.13476 -2.09925 0
M  V30 2624 H 257.714 -1.02775 -1.00863 0
M  V30 2625 H 259.667 -0.799094 -4.13754 0
M  V30 2626 H 258.391 0.0856125 -3.26488 0
M  V30 2627 H 257.05 -2.03591 -3.04871 0
M  V30 2628 H 256.698 -0.516092 -5.00345 0
M  V30 2629 H 256.398 -2.2165 -5.44192 0
M  V30 2630 H 257.922 -1.42639 -5.93706 0
M  V30 2631 H 259.336 -3.31605 -4.67665 0
M  V30 2632 H 257.733 -4.06314 -4.41621 0
M  V30 2633 H 258.803 -3.78561 -3.03017 0
M  V30 2634 N 260.146 1.09593 -1.13257 0
M  V30 2635 C 261.056 2.19739 -0.821691 0
M  V30 2636 C 262.072 1.72926 0.19302 0
M  V30 2637 O 263.248 2.01385 0.0244895 0
M  V30 2638 C 260.313 3.45482 -0.290333 0
M  V30 2639 C 259.374 4.06985 -1.36607 0
M  V30 2640 C 258.607 5.26726 -0.859975 0
M  V30 2641 O 258.83 5.69594 0.303082 0
M  V30 2642 O 257.764 5.7931 -1.63351 0
M  V30 2643 H 261.59 2.48781 -1.74189 0
M  V30 2644 H 259.175 1.18496 -0.909894 0
M  V30 2645 H 261.057 4.214 0.000674022 0
M  V30 2646 H 259.732 3.18047 0.602306 0
M  V30 2647 H 258.639 3.32712 -1.71037 0
M  V30 2648 H 259.972 4.38643 -2.23279 0
M  V30 2649 N 261.624 0.925811 1.2754 0
M  V30 2650 C 262.849 0.580924 1.99098 0
M  V30 2651 C 263.274 -0.833555 1.68622 0
M  V30 2652 O 262.632 -1.55903 0.925422 0
M  V30 2653 C 262.68 0.811186 3.51358 0
M  V30 2654 O 261.784 -0.124129 4.12213 0
M  V30 2655 H 261.125 0.223873 0.625122 0
M  V30 2656 H 263.655 1.24455 1.62395 0
M  V30 2657 H 263.665 0.72601 4.01489 0
M  V30 2658 H 262.34 1.84227 3.72872 0
M  V30 2659 H 260.917 0.0108006 3.72898 0
M  V30 2660 N 263.102 -1.41638 0.69111 0
M  V30 2661 C 264.518 -1.55435 0.362224 0
M  V30 2662 C 264.718 -1.66754 -1.13117 0
M  V30 2663 O 263.774 -1.64348 -1.91692 0
M  V30 2664 C 265.087 -2.79588 1.10684 0
M  V30 2665 C 266.635 -2.9338 1.09075 0
M  V30 2666 C 267.11 -4.20414 1.81703 0
M  V30 2667 N 268.601 -4.27362 1.7865 0
M  V30 2668 C 269.336 -5.24507 2.31689 0
M  V30 2669 N 268.832 -6.27708 2.93179 0
M  V30 2670 N 270.625 -5.16416 2.2197 0
M  V30 2671 H 262.776 -1.32536 1.65976 0
M  V30 2672 H 265.039 -0.639115 0.700168 0
M  V30 2673 H 264.745 -2.77419 2.16175 0
M  V30 2674 H 264.619 -3.70973 0.682545 0
M  V30 2675 H 267.006 -2.95067 0.0441238 0
M  V30 2676 H 267.087 -2.0318 1.55407 0
M  V30 2677 H 266.731 -4.19488 2.86343 0
M  V30 2678 H 266.661 -5.09578 1.32808 0
M  V30 2679 H 269.152 -3.53415 1.33815 0
M  V30 2680 H 269.465 -6.98217 3.31229 0
M  V30 2681 H 267.81 -6.28223 2.97255 0
M  V30 2682 H 271.001 -4.34716 1.73607 0
M  V30 2683 H 271.174 -5.91958 2.63609 0
M  V30 2684 N 264.58 -0.43555 -1.51462 0
M  V30 2685 C 265.826 0.131709 -2.02372 0
M  V30 2686 C 266.159 1.42516 -1.3192 0
M  V30 2687 O 265.434 1.89606 -0.433573 0
M  V30 2688 C 265.717 0.352301 -3.58373 0
M  V30 2689 C 265.57 -0.959676 -4.39443 0
M  V30 2690 C 266.889 1.12286 -4.25535 0
M  V30 2691 H 264.008 0.0463936 -0.735538 0
M  V30 2692 H 266.65 -0.574197 -1.81116 0
M  V30 2693 H 264.8 0.9536 -3.76615 0
M  V30 2694 H 266.472 -1.59482 -4.32855 0
M  V30 2695 H 264.715 -1.56468 -4.04599 0
M  V30 2696 H 265.386 -0.759394 -5.46752 0
M  V30 2697 H 267.862 0.613545 -4.11552 0
M  V30 2698 H 266.738 1.24598 -5.34571 0
M  V30 2699 H 266.999 2.15048 -3.86273 0
M  V30 2700 N 266.058 1.56714 -0.166846 0
M  V30 2701 C 267.006 2.19056 0.782123 0
M  V30 2702 C 268 1.15328 1.24079 0
M  V30 2703 O 269.206 1.33537 1.20697 0
M  V30 2704 H 265.581 0.70167 0.270486 0
M  V30 2705 H 267.552 2.97494 0.232322 0
M  V30 2706 C 266.301 2.84206 2.00306 0
M  V30 2707 H 265.624 3.63748 1.65914 0
M  V30 2708 H 267.064 3.31302 2.64604 0
M  V30 2709 C 265.523 1.83744 2.82382 0
M  V30 2710 O 266.053 1.32014 3.79388 0
M  V30 2711 N 264.259 1.52601 2.47308 0
M  V30 2712 H 263.806 1.9486 1.68485 0
M  V30 2713 H 263.764 0.856351 3.02513 0
M  V30 2714 N 267.536 -0.106894 1.57237 0
M  V30 2715 C 268.466 -1.13148 2.04254 0
M  V30 2716 C 269.447 -1.42476 0.929224 0
M  V30 2717 O 270.632 -1.52709 1.19973 0
M  V30 2718 C 267.762 -2.4545 2.45706 0
M  V30 2719 C 266.716 -2.30558 3.60592 0
M  V30 2720 C 266.042 -3.67931 3.87983 0
M  V30 2721 C 267.342 -1.75597 4.91897 0
M  V30 2722 H 269.036 -0.740374 2.90101 0
M  V30 2723 H 266.582 -0.354696 1.39563 0
M  V30 2724 H 268.535 -3.17389 2.77205 0
M  V30 2725 H 267.259 -2.86475 1.56843 0
M  V30 2726 H 265.918 -1.61067 3.29322 0
M  V30 2727 H 265.566 -4.06462 2.96306 0
M  V30 2728 H 265.266 -3.58817 4.65322 0
M  V30 2729 H 266.79 -4.41356 4.21945 0
M  V30 2730 H 268.204 -2.37364 5.21854 0
M  V30 2731 H 266.601 -1.77272 5.73319 0
M  V30 2732 H 267.671 -0.714451 4.79608 0
M  V30 2733 N 269.014 -1.53014 -0.377408 0
M  V30 2734 C 270.425 -1.60438 -0.954798 0
M  V30 2735 C 270.776 -0.464418 -1.90624 0
M  V30 2736 O 269.901 0.41087 -2.12464 0
M  V30 2737 C 270.496 -2.90797 -1.73847 0
M  V30 2738 C 269.055 -3.00595 -2.26538 0
M  V30 2739 C 268.202 -2.55645 -1.07429 0
M  V30 2740 H 271.153 -1.57926 -0.156575 0
M  V30 2741 H 271.174 -2.77935 -2.5987 0
M  V30 2742 H 270.686 -3.73746 -1.04574 0
M  V30 2743 H 268.787 -2.22208 -2.99089 0
M  V30 2744 H 268.9 -4.05456 -2.5523 0
M  V30 2745 H 267.264 -2.10239 -1.43777 0
M  V30 2746 H 268.047 -3.41 -0.396728 0
M  V30 2747 N 270.492 0.636531 -1.44174 0
M  V30 2748 C 271.908 0.954104 -1.27941 0
M  V30 2749 C 272.108 2.0039 -0.211248 0
M  V30 2750 O 271.164 2.49236 0.404695 0
M  V30 2751 C 272.477 1.4225 -2.64925 0
M  V30 2752 C 274.025 1.53827 -2.72592 0
M  V30 2753 C 274.5 2.04053 -4.10032 0
M  V30 2754 N 275.991 2.11331 -4.12182 0
M  V30 2755 C 276.726 2.51352 -5.15374 0
M  V30 2756 N 276.222 2.90549 -6.2893 0
M  V30 2757 N 278.015 2.51438 -5.02728 0
M  V30 2758 H 270.166 -0.0578386 -2.12321 0
M  V30 2759 H 272.429 0.0367406 -0.947288 0
M  V30 2760 H 272.135 0.725466 -3.44136 0
M  V30 2761 H 272.009 2.39451 -2.9145 0
M  V30 2762 H 274.396 2.22628 -1.93702 0
M  V30 2763 H 274.477 0.550154 -2.49814 0
M  V30 2764 H 274.121 1.35848 -4.89395 0
M  V30 2765 H 274.051 3.03726 -4.30184 0
M  V30 2766 H 276.542 1.83745 -3.30222 0
M  V30 2767 H 276.855 3.19884 -7.03487 0
M  V30 2768 H 275.2 2.88313 -6.32377 0
M  V30 2769 H 278.391 2.20203 -4.13072 0
M  V30 2770 H 278.564 2.82304 -5.83274 0
M  V30 2771 N 271.97 1.30982 0.876444 0
M  V30 2772 C 273.2 1.23063 1.65949 0
M  V30 2773 C 273.608 -0.207537 1.88058 0
M  V30 2774 O 272.951 -1.14781 1.43426 0
M  V30 2775 C 273.013 1.89768 3.05333 0
M  V30 2776 C 272.677 3.39106 3.0636 0
M  V30 2777 C 273.674 4.3496 2.84791 0
M  V30 2778 C 271.359 3.80693 3.27686 0
M  V30 2779 C 273.353 5.70375 2.84519 0
M  V30 2780 C 271.04 5.16223 3.27043 0
M  V30 2781 C 272.038 6.10875 3.05485 0
M  V30 2782 O 271.726 7.43928 3.04674 0
M  V30 2783 H 271.458 0.426685 0.524324 0
M  V30 2784 H 274.012 1.7329 1.10271 0
M  V30 2785 H 272.242 1.34082 3.6271 0
M  V30 2786 H 273.931 1.75853 3.65829 0
M  V30 2787 H 274.697 4.0416 2.68103 0
M  V30 2788 H 270.576 3.07457 3.43499 0
M  V30 2789 H 274.12 6.44228 2.67611 0
M  V30 2790 H 270.017 5.4666 3.43269 0
M  V30 2791 H 270.785 7.53022 3.2078 0
M  V30 2792 N 273.449 -1.08991 1.13837 0
M  V30 2793 C 274.86 -1.62746 0.914917 0
M  V30 2794 C 275.211 -1.88403 -0.547594 0
M  V30 2795 O 274.336 -1.63706 -1.41525 0
M  V30 2796 C 274.931 -2.95662 1.65437 0
M  V30 2797 C 273.49 -3.46225 1.47666 0
M  V30 2798 C 272.637 -2.20562 1.6807 0
M  V30 2799 H 275.588 -0.922946 1.29102 0
M  V30 2800 H 275.609 -3.63825 1.11407 0
M  V30 2801 H 275.121 -2.76956 2.71877 0
M  V30 2802 H 273.222 -3.70046 0.435478 0
M  V30 2803 H 273.335 -4.23368 2.24268 0
M  V30 2804 H 271.699 -2.29439 1.10589 0
M  V30 2805 H 272.482 -2.0437 2.7584 0
M  V30 2806 N 274.927 -0.932562 -1.27047 0
M  V30 2807 C 276.338 -0.619451 -1.76124 0
M  V30 2808 C 276.689 0.865397 -1.76083 0
M  V30 2809 O 275.814 1.67722 -1.36742 0
M  V30 2810 C 276.409 -1.11771 -3.19832 0
M  V30 2811 C 274.968 -0.855174 -3.66557 0
M  V30 2812 C 274.115 -1.27362 -2.46321 0
M  V30 2813 H 277.066 -1.11181 -1.13245 0
M  V30 2814 H 277.087 -0.46759 -3.77616 0
M  V30 2815 H 276.599 -2.19842 -3.1983 0
M  V30 2816 H 274.7 0.211524 -3.71999 0
M  V30 2817 H 274.813 -1.47613 -4.55793 0
M  V30 2818 H 273.177 -0.692119 -2.45116 0
M  V30 2819 H 273.96 -2.36307 -2.49025 0
M  V30 2820 N 276.405 1.4127 -0.698611 0
M  V30 2821 C 277.633 2.05503 -0.239992 0
M  V30 2822 C 278.048 1.52584 1.11191 0
M  V30 2823 O 277.405 0.675323 1.69545 0
M  V30 2824 C 277.456 3.60987 -0.192429 0
M  V30 2825 O 277.177 4.1195 -1.49094 0
M  V30 2826 C 278.678 4.42371 0.28681 0
M  V30 2827 H 275.898 0.661748 -0.111045 0
M  V30 2828 H 278.442 1.80987 -0.95205 0
M  V30 2829 H 276.597 3.84533 0.470472 0
M  V30 2830 H 277.011 5.06018 -1.38007 0
M  V30 2831 H 278.485 5.51344 0.26896 0
M  V30 2832 H 278.962 4.18699 1.32619 0
M  V30 2833 H 279.568 4.23897 -0.345201 0
M  V30 2834 N 277.883 0.443576 1.51229 0
M  V30 2835 C 278.846 -0.353132 2.26463 0
M  V30 2836 C 279.846 -0.944338 1.3015 0
M  V30 2837 O 281.036 -0.817813 1.5381 0
M  V30 2838 C 278.168 -1.50023 3.06114 0
M  V30 2839 H 279.361 0.3063 2.98332 0
M  V30 2840 H 276.914 0.196902 1.55055 0
M  V30 2841 H 277.649 -2.19553 2.38677 0
M  V30 2842 H 277.434 -1.08241 3.76864 0
M  V30 2843 H 278.924 -2.06296 3.63087 0
M  V30 2844 N 279.361 -1.56624 0.175154 0
M  V30 2845 C 280.61 -1.96173 -0.468921 0
M  V30 2846 C 280.923 -1.06401 -1.64128 0
M  V30 2847 O 282.129 -1.35648 -2.35185 0
M  V30 2848 C 280.585 -3.48833 -0.885633 0
M  V30 2849 C 280.193 -4.47237 0.261343 0
M  V30 2850 C 281.937 -3.97194 -1.49791 0
M  V30 2851 C 279.844 -5.9114 -0.175214 0
M  V30 2852 H 278.774 -0.732455 -0.178958 0
M  V30 2853 H 281.425 -1.81591 0.263997 0
M  V30 2854 H 279.807 -3.58848 -1.67464 0
M  V30 2855 H 280.981 -4.4894 1.03871 0
M  V30 2856 H 279.296 -4.08956 0.783827 0
M  V30 2857 H 281.893 -5.02167 -1.83665 0
M  V30 2858 H 282.236 -3.40351 -2.39722 0
M  V30 2859 H 282.769 -3.90212 -0.773267 0
M  V30 2860 H 279.508 -6.51865 0.689414 0
M  V30 2861 H 279.028 -5.92735 -0.91786 0
M  V30 2862 H 280.707 -6.44044 -0.617792 0
M  V30 2863 N 280.839 0.0985539 -1.57292 0
M  V30 2864 C 282.116 0.834155 -1.76921 0
M  V30 2865 C 282.496 1.97101 -0.755928 0
M  V30 2866 O 281.844 2.27474 0.216245 0
M  V30 2867 C 282.054 1.33194 -3.22584 0
M  V30 2868 C 283.402 1.77611 -3.85668 0
M  V30 2869 O 284.426 1.42825 -3.26312 0
M  V30 2870 O 283.285 2.4192 -4.90038 0
M  V30 2871 H 280.379 0.397628 -0.725135 0
M  V30 2872 H 282.925 0.0807044 -1.69508 0
M  V30 2873 H 281.697 0.517248 -3.87866 0
M  V30 2874 H 281.32 2.1475 -3.34616 0
M  V30 2875 N 282.317 1.53212 0.369288 0
M  V30 2876 C 283.547 1.72868 1.13139 0
M  V30 2877 C 283.955 0.455754 1.83629 0
M  V30 2878 O 283.298 -0.580861 1.74275 0
M  V30 2879 C 283.36 2.83667 2.20847 0
M  V30 2880 C 283.024 4.24142 1.70155 0
M  V30 2881 C 284.021 5.06619 1.16763 0
M  V30 2882 C 281.706 4.70539 1.7578 0
M  V30 2883 C 283.7 6.33581 0.696678 0
M  V30 2884 C 281.387 5.97481 1.28297 0
M  V30 2885 C 282.385 6.78833 0.753307 0
M  V30 2886 O 282.073 8.03393 0.285475 0
M  V30 2887 H 281.805 0.581707 0.344373 0
M  V30 2888 H 284.359 2.00736 0.435243 0
M  V30 2889 H 282.589 2.51265 2.93944 0
M  V30 2890 H 284.278 2.91536 2.82421 0
M  V30 2891 H 285.044 4.71948 1.11758 0
M  V30 2892 H 280.923 4.07293 2.15949 0
M  V30 2893 H 284.467 6.97027 0.282581 0
M  V30 2894 H 280.364 6.31651 1.32994 0
M  V30 2895 H 281.132 8.17497 0.405145 0
M  V30 2896 N 283.795 -0.628877 1.44509 0
M  V30 2897 C 284.742 -1.74074 1.51549 0
M  V30 2898 C 285.712 -1.62084 0.363021 0
M  V30 2899 O 286.897 -1.81975 0.573567 0
M  V30 2900 C 284.037 -3.12328 1.46784 0
M  V30 2901 C 283.15 -3.35277 2.72422 0
M  V30 2902 C 282.285 -4.63515 2.59475 0
M  V30 2903 C 281.324 -4.7965 3.80266 0
M  V30 2904 N 280.461 -5.99168 3.65981 0
M  V30 2905 H 285.301 -1.67392 2.46544 0
M  V30 2906 H 282.838 -0.816527 1.22357 0
M  V30 2907 H 284.796 -3.92286 1.42012 0
M  V30 2908 H 283.426 -3.18018 0.553544 0
M  V30 2909 H 282.478 -2.49242 2.87372 0
M  V30 2910 H 283.79 -3.43078 3.62076 0
M  V30 2911 H 282.944 -5.51638 2.52548 0
M  V30 2912 H 281.683 -4.58076 1.67384 0
M  V30 2913 H 280.688 -3.89957 3.87574 0
M  V30 2914 H 281.913 -4.86902 4.73395 0
M  V30 2915 H 279.859 -5.94814 2.76644 0
M  V30 2916 H 279.776 -6.08035 4.49254 0
M  V30 2917 H 281.044 -6.89846 3.6295 0
M  V30 2918 N 285.273 -1.31445 -0.869486 0
M  V30 2919 C 286.513 -1.22458 -1.63656 0
M  V30 2920 C 286.877 0.213846 -1.90805 0
M  V30 2921 O 288.078 0.427212 -2.65383 0
M  V30 2922 C 286.349 -2.04564 -2.93067 0
M  V30 2923 S 287.908 -2.12445 -3.83944 0
M  V30 2924 H 284.726 -0.436145 -0.561514 0
M  V30 2925 H 287.328 -1.66114 -1.03085 0
M  V30 2926 H 286.032 -3.0816 -2.71045 0
M  V30 2927 H 285.563 -1.6163 -3.58663 0
M  V30 2928 H 287.578 -1.26312 -4.79854 0
M  V30 2929 N 286.751 1.08385 -1.14413 0
M  V30 2930 C 287.701 2.13509 -0.79987 0
M  V30 2931 C 288.685 1.5951 0.211059 0
M  V30 2932 O 289.877 1.76995 0.0133694 0
M  V30 2933 C 287.006 3.42162 -0.279297 0
M  V30 2934 C 286.092 4.03042 -1.31976 0
M  V30 2935 N 286.483 4.38327 -2.52395 0
M  V30 2936 C 284.781 4.30379 -1.17004 0
M  V30 2937 C 285.482 4.86428 -3.19003 0
M  V30 2938 N 284.458 4.84547 -2.46405 0
M  V30 2939 H 288.26 2.38609 -1.7159 0
M  V30 2940 H 285.774 1.2572 -1.02802 0
M  V30 2941 H 287.771 4.16898 -0.0143688 0
M  V30 2942 H 286.431 3.18511 0.630923 0
M  V30 2943 H 287.442 4.29349 -2.89621 0
M  V30 2944 H 284.119 4.16281 -0.318854 0
M  V30 2945 H 285.509 5.23107 -4.21674 0
M  V30 2946 N 288.23 0.939286 1.26551 0
M  V30 2947 C 289.16 0.465044 2.28822 0
M  V30 2948 C 290.141 -0.480692 1.63167 0
M  V30 2949 O 291.326 -0.382955 1.90387 0
M  V30 2950 C 288.456 -0.27234 3.46231 0
M  V30 2951 C 287.41 0.58666 4.2396 0
M  V30 2952 C 286.736 -0.280573 5.33963 0
M  V30 2953 C 288.036 1.85704 4.88171 0
M  V30 2954 H 289.73 1.31979 2.68741 0
M  V30 2955 H 287.276 0.636061 1.29191 0
M  V30 2956 H 289.229 -0.615133 4.16886 0
M  V30 2957 H 287.953 -1.16121 3.0526 0
M  V30 2958 H 286.612 0.91232 3.55067 0
M  V30 2959 H 286.26 -1.16874 4.89234 0
M  V30 2960 H 285.96 0.29076 5.8688 0
M  V30 2961 H 287.484 -0.618678 6.07458 0
M  V30 2962 H 288.898 1.58161 5.51052 0
M  V30 2963 H 287.295 2.37279 5.51197 0
M  V30 2964 H 288.365 2.56957 4.11219 0
M  V30 2965 N 289.708 -1.40897 0.706093 0
M  V30 2966 C 290.655 -2.30751 0.0474474 0
M  V30 2967 C 291.625 -1.47678 -0.76029 0
M  V30 2968 O 292.81 -1.76441 -0.726177 0
M  V30 2969 C 289.95 -3.33815 -0.875309 0
M  V30 2970 C 289.063 -4.31961 -0.0580623 0
M  V30 2971 C 288.198 -5.22093 -0.979425 0
M  V30 2972 C 287.237 -6.11902 -0.155706 0
M  V30 2973 N 286.374 -6.94482 -1.03144 0
M  V30 2974 H 291.214 -2.86513 0.819413 0
M  V30 2975 H 288.751 -1.41102 0.415783 0
M  V30 2976 H 290.709 -3.92129 -1.42446 0
M  V30 2977 H 289.339 -2.79579 -1.61356 0
M  V30 2978 H 288.391 -3.75507 0.608147 0
M  V30 2979 H 289.703 -4.95415 0.580082 0
M  V30 2980 H 288.857 -5.85292 -1.59744 0
M  V30 2981 H 287.596 -4.5889 -1.65141 0
M  V30 2982 H 286.601 -5.47742 0.475309 0
M  V30 2983 H 287.826 -6.77162 0.512635 0
M  V30 2984 H 285.772 -6.33877 -1.68924 0
M  V30 2985 H 285.689 -7.54665 -0.449108 0
M  V30 2986 H 286.957 -7.6214 -1.63593 0
M  V30 2987 N 291.186 -0.45159 -1.50991 0
M  V30 2988 C 292.133 0.352625 -2.2809 0
M  V30 2989 C 293.103 1.0044 -1.32291 0
M  V30 2990 O 294.288 1.02058 -1.6121 0
M  V30 2991 C 291.428 1.43983 -3.13629 0
M  V30 2992 C 290.541 0.804772 -4.24438 0
M  V30 2993 C 289.676 1.86822 -4.97263 0
M  V30 2994 C 288.715 1.21236 -5.99973 0
M  V30 2995 N 287.852 2.2178 -6.66152 0
M  V30 2996 H 292.692 -0.311186 -2.96371 0
M  V30 2997 H 290.229 -0.165308 -1.46168 0
M  V30 2998 H 292.187 2.08161 -3.61559 0
M  V30 2999 H 290.817 2.07307 -2.47434 0
M  V30 3000 H 289.869 0.0509129 -3.80366 0
M  V30 3001 H 291.181 0.286076 -4.97979 0
M  V30 3002 H 290.335 2.58628 -5.48813 0
M  V30 3003 H 289.074 2.42068 -4.23385 0
M  V30 3004 H 288.079 0.479828 -5.47702 0
M  V30 3005 H 289.304 0.667051 -6.75816 0
M  V30 3006 H 287.25 2.76079 -5.95077 0
M  V30 3007 H 287.167 1.74841 -7.35504 0
M  V30 3008 H 288.435 2.93026 -7.22327 0
M  V30 3009 N 292.664 1.56529 -0.183458 0
M  V30 3010 C 293.614 2.1515 0.754605 0
M  V30 3011 C 294.598 1.08904 1.18443 0
M  V30 3012 O 295.79 1.34997 1.14476 0
M  V30 3013 C 292.919 2.80531 1.97881 0
M  V30 3014 C 292.005 3.93952 1.57043 0
M  V30 3015 N 292.396 4.98221 0.87231 0
M  V30 3016 C 290.694 4.05338 1.86057 0
M  V30 3017 C 291.395 5.77836 0.669377 0
M  V30 3018 N 290.371 5.29858 1.21454 0
M  V30 3019 H 294.173 2.93132 0.212387 0
M  V30 3020 H 291.687 1.62391 0.0167725 0
M  V30 3021 H 293.684 3.20914 2.6612 0
M  V30 3022 H 292.344 2.04035 2.52586 0
M  V30 3023 H 293.355 5.15191 0.529033 0
M  V30 3024 H 290.032 3.39957 2.42354 0
M  V30 3025 H 291.422 6.71799 0.116422 0
M  V30 3026 N 294.142 -0.090211 1.57342 0
M  V30 3027 C 295.09 -1.12792 2.03422 0
M  V30 3028 C 296.084 -1.41182 0.936166 0
M  V30 3029 O 297.29 -1.40805 1.12133 0
M  V30 3030 H 293.665 -0.380986 0.648347 0
M  V30 3031 H 295.636 -0.71299 2.89757 0
M  V30 3032 C 294.385 -2.43855 2.47851 0
M  V30 3033 H 293.708 -2.22855 3.31927 0
M  V30 3034 H 295.148 -3.14955 2.83865 0
M  V30 3035 C 293.607 -3.08503 1.3538 0
M  V30 3036 O 294.137 -3.95805 0.685641 0
M  V30 3037 N 292.343 -2.68831 1.10355 0
M  V30 3038 H 291.89 -1.97929 1.64869 0
M  V30 3039 H 291.848 -3.12412 0.353031 0
M  V30 3040 N 295.62 -1.53406 -0.361157 0
M  V30 3041 C 296.53 -1.83122 -1.4664 0
M  V30 3042 C 297.546 -0.719943 -1.58407 0
M  V30 3043 O 298.722 -1.01046 -1.74218 0
M  V30 3044 C 295.787 -2.01891 -2.81853 0
M  V30 3045 C 294.848 -3.25784 -2.79577 0
M  V30 3046 C 294.081 -3.43648 -4.0834 0
M  V30 3047 O 294.304 -2.65714 -5.0473 0
M  V30 3048 O 293.238 -4.37018 -4.13883 0
M  V30 3049 H 297.064 -2.7703 -1.24451 0
M  V30 3050 H 294.649 -1.38841 -0.551678 0
M  V30 3051 H 296.531 -2.15782 -3.61962 0
M  V30 3052 H 295.206 -1.11173 -3.0401 0
M  V30 3053 H 294.113 -3.17312 -1.98151 0
M  V30 3054 H 295.446 -4.16439 -2.62373 0
M  V30 3055 N 297.098 0.621204 -1.44841 0
M  V30 3056 C 298.514 0.94048 -1.28946 0
M  V30 3057 C 298.714 2.00154 -0.23249 0
M  V30 3058 O 297.77 2.49651 0.378237 0
M  V30 3059 C 299.083 1.39433 -2.66419 0
M  V30 3060 C 300.631 1.50927 -2.74208 0
M  V30 3061 C 301.106 1.99692 -4.12174 0
M  V30 3062 N 302.597 2.06947 -4.144 0
M  V30 3063 C 303.332 2.45871 -5.1801 0
M  V30 3064 N 302.828 2.83862 -6.31977 0
M  V30 3065 N 304.621 2.46092 -5.05366 0
M  V30 3066 H 296.772 -0.0803548 -2.12248 0
M  V30 3067 H 299.035 0.0266913 -0.947624 0
M  V30 3068 H 298.741 0.688925 -3.44887 0
M  V30 3069 H 298.615 2.36347 -2.93973 0
M  V30 3070 H 301.002 2.20561 -1.96053 0
M  V30 3071 H 301.083 0.523627 -2.50383 0
M  V30 3072 H 300.727 1.30649 -4.90809 0
M  V30 3073 H 300.657 2.99146 -4.33381 0
M  V30 3074 H 303.148 1.80232 -3.32152 0
M  V30 3075 H 303.461 3.12405 -7.0684 0
M  V30 3076 H 301.806 2.8159 -6.35399 0
M  V30 3077 H 304.997 2.1581 -4.15384 0
M  V30 3078 H 305.17 2.76102 -5.86235 0
M  V30 3079 N 298.576 1.31904 0.862503 0
M  V30 3080 C 299.508 1.16005 1.97675 0
M  V30 3081 C 300.521 0.0971234 1.6251 0
M  V30 3082 O 301.71 0.345337 1.75128 0
M  V30 3083 C 298.81 0.751791 3.30456 0
M  V30 3084 C 297.983 1.90133 3.93914 0
M  V30 3085 C 297.042 1.4779 5.05019 0
M  V30 3086 O 296.068 2.18872 5.25437 0
M  V30 3087 N 297.27 0.369491 5.79323 0
M  V30 3088 H 300.035 2.11982 2.11857 0
M  V30 3089 H 297.596 1.24337 1.03691 0
M  V30 3090 H 299.588 0.451084 4.02178 0
M  V30 3091 H 298.158 -0.116593 3.12382 0
M  V30 3092 H 297.378 2.36896 3.15078 0
M  V30 3093 H 298.666 2.67111 4.33047 0
M  V30 3094 H 298.064 -0.222299 5.65263 0
M  V30 3095 H 296.621 0.128354 6.51674 0
M  V30 3096 N 300.054 -1.07777 1.14986 0
M  V30 3097 C 301.301 -1.8029 0.922056 0
M  V30 3098 C 301.629 -1.86531 -0.55105 0
M  V30 3099 O 300.884 -1.34189 -1.42449 0
M  V30 3100 C 301.183 -3.25495 1.47608 0
M  V30 3101 C 300.849 -3.39361 2.96893 0
M  V30 3102 C 299.511 -3.42852 3.37647 0
M  V30 3103 C 301.863 -3.42512 3.92854 0
M  V30 3104 C 299.191 -3.47094 4.73015 0
M  V30 3105 C 301.543 -3.4829 5.28088 0
M  V30 3106 C 300.207 -3.50058 5.68345 0
M  V30 3107 H 299.477 -0.659727 0.337404 0
M  V30 3108 H 302.124 -1.26854 1.43459 0
M  V30 3109 H 300.429 -3.81683 0.88463 0
M  V30 3110 H 302.126 -3.80168 1.27568 0
M  V30 3111 H 298.716 -3.37339 2.64387 0
M  V30 3112 H 302.9 -3.3904 3.62444 0
M  V30 3113 H 298.156 -3.46758 5.03556 0
M  V30 3114 H 302.33 -3.49675 6.02246 0
M  V30 3115 H 299.957 -3.53097 6.73221 0
M  V30 3116 N 301.532 -0.945985 -1.26051 0
M  V30 3117 C 302.779 -0.596118 -1.93527 0
M  V30 3118 C 303.107 0.865559 -1.74179 0
M  V30 3119 O 302.362 1.63524 -1.0751 0
M  V30 3120 C 302.661 -0.890475 -3.46129 0
M  V30 3121 C 302.327 -2.3368 -3.85622 0
M  V30 3122 C 300.989 -2.73216 -3.96114 0
M  V30 3123 C 303.341 -3.27648 -4.05334 0
M  V30 3124 C 300.669 -4.05806 -4.2372 0
M  V30 3125 C 303.021 -4.59841 -4.3443 0
M  V30 3126 C 301.685 -4.99185 -4.43137 0
M  V30 3127 H 300.955 -0.218135 -0.708165 0
M  V30 3128 H 303.602 -1.1934 -1.49768 0
M  V30 3129 H 301.907 -0.210711 -3.91233 0
M  V30 3130 H 303.604 -0.598478 -3.96509 0
M  V30 3131 H 300.194 -2.02015 -3.78005 0
M  V30 3132 H 304.378 -2.98298 -3.96651 0
M  V30 3133 H 299.634 -4.35945 -4.28675 0
M  V30 3134 H 303.808 -5.32641 -4.48628 0
M  V30 3135 H 301.435 -6.01952 -4.64282 0
M  V30 3136 N 303.011 1.40521 -0.713556 0
M  V30 3137 C 303.941 2.33381 -0.0743864 0
M  V30 3138 C 304.922 1.52784 0.747735 0
M  V30 3139 O 306.107 1.81258 0.697071 0
M  V30 3140 C 303.237 3.36748 0.849598 0
M  V30 3141 C 302.191 4.27793 0.133247 0
M  V30 3142 C 301.517 5.21679 1.17281 0
M  V30 3143 C 302.817 5.12415 -1.01134 0
M  V30 3144 H 304.511 2.87081 -0.850007 0
M  V30 3145 H 302.057 1.38034 -0.410201 0
M  V30 3146 H 304.01 4.00648 1.30612 0
M  V30 3147 H 302.734 2.81439 1.65709 0
M  V30 3148 H 301.393 3.65342 -0.303426 0
M  V30 3149 H 301.041 4.62677 1.9733 0
M  V30 3150 H 300.741 5.83435 0.698397 0
M  V30 3151 H 302.265 5.88456 1.62947 0
M  V30 3152 H 303.679 5.69781 -0.634274 0
M  V30 3153 H 302.076 5.83203 -1.41399 0
M  V30 3154 H 303.146 4.48514 -1.84292 0
M  V30 3155 N 304.489 0.459591 1.5075 0
M  V30 3156 C 305.399 -0.34613 2.32033 0
M  V30 3157 C 306.415 -1.00686 1.41909 0
M  V30 3158 O 307.591 -0.997361 1.7497 0
M  V30 3159 C 304.656 -1.42029 3.16273 0
M  V30 3160 C 303.717 -0.777362 4.22203 0
M  V30 3161 C 302.95 -1.80034 5.02418 0
M  V30 3162 O 303.173 -3.02544 4.83553 0
M  V30 3163 O 302.107 -1.37853 5.85901 0
M  V30 3164 H 305.933 0.318054 3.0203 0
M  V30 3165 H 303.518 0.221663 1.47746 0
M  V30 3166 H 305.4 -2.04275 3.68578 0
M  V30 3167 H 304.075 -2.06815 2.49016 0
M  V30 3168 H 302.982 -0.116256 3.73919 0
M  V30 3169 H 304.315 -0.172634 4.91897 0
M  V30 3170 N 305.967 -1.56429 0.191757 0
M  V30 3171 C 306.897 -2.21937 -0.725696 0
M  V30 3172 C 307.878 -1.1814 -1.2238 0
M  V30 3173 O 309.063 -1.46636 -1.27325 0
M  V30 3174 C 306.193 -2.87611 -1.94672 0
M  V30 3175 C 305.147 -3.97623 -1.58366 0
M  V30 3176 C 304.473 -4.50446 -2.88102 0
M  V30 3177 C 305.773 -5.16197 -0.796133 0
M  V30 3178 H 307.467 -2.98861 -0.179606 0
M  V30 3179 H 305.013 -1.43749 -0.0849464 0
M  V30 3180 H 306.966 -3.3212 -2.59373 0
M  V30 3181 H 305.69 -2.08087 -2.51728 0
M  V30 3182 H 304.349 -3.53801 -0.960247 0
M  V30 3183 H 303.997 -3.67688 -3.43241 0
M  V30 3184 H 303.697 -5.24675 -2.64556 0
M  V30 3185 H 305.221 -4.97654 -3.53798 0
M  V30 3186 H 306.635 -5.57271 -1.34618 0
M  V30 3187 H 305.032 -5.96471 -0.658928 0
M  V30 3188 H 306.102 -4.84473 0.203478 0
M  V30 3189 N 307.445 0.0818655 -1.57387 0
M  V30 3190 C 308.691 0.784074 -1.8703 0
M  V30 3191 C 309.024 1.77729 -0.782689 0
M  V30 3192 O 308.299 1.93384 0.208051 0
M  V30 3193 C 308.582 1.50105 -3.27323 0
M  V30 3194 C 308.435 0.524925 -4.46727 0
M  V30 3195 C 309.754 2.44843 -3.65705 0
M  V30 3196 H 306.873 0.283582 -0.680257 0
M  V30 3197 H 309.515 0.0474352 -1.89941 0
M  V30 3198 H 307.665 2.12897 -3.24972 0
M  V30 3199 H 309.337 -0.0970111 -4.61198 0
M  V30 3200 H 307.58 -0.160606 -4.33503 0
M  V30 3201 H 308.251 1.064 -5.41648 0
M  V30 3202 H 310.727 1.92135 -3.69085 0
M  V30 3203 H 309.603 2.92018 -4.64776 0
M  V30 3204 H 309.864 3.29197 -2.95096 0
M  V30 3205 N 308.923 1.53595 0.353017 0
M  V30 3206 C 309.87 1.80919 1.43308 0
M  V30 3207 C 310.84 0.654288 1.5267 0
M  V30 3208 O 312.025 0.897759 1.6836 0
M  V30 3209 C 309.165 2.01605 2.80089 0
M  V30 3210 C 308.278 3.29321 2.79593 0
M  V30 3211 C 307.413 3.40125 4.0803 0
M  V30 3212 C 306.452 4.61826 4.01725 0
M  V30 3213 N 305.589 4.69716 5.21834 0
M  V30 3214 H 310.429 2.73074 1.19308 0
M  V30 3215 H 307.966 1.35263 0.578131 0
M  V30 3216 H 309.924 2.11586 3.59565 0
M  V30 3217 H 308.554 1.12772 3.0246 0
M  V30 3218 H 307.606 3.28229 1.92276 0
M  V30 3219 H 308.918 4.18884 2.70809 0
M  V30 3220 H 308.072 3.49488 4.95927 0
M  V30 3221 H 306.811 2.48601 4.19582 0
M  V30 3222 H 305.816 4.52552 3.12213 0
M  V30 3223 H 307.041 5.54705 3.91764 0
M  V30 3224 H 304.987 3.81097 5.33948 0
M  V30 3225 H 304.904 5.53202 5.1527 0
M  V30 3226 H 306.172 4.83376 6.11529 0
M  V30 3227 N 310.401 -0.613514 1.45168 0
M  V30 3228 C 311.678 -1.37263 1.39349 0
M  V30 3229 C 312.058 -2.11012 0.0610848 0
M  V30 3230 O 311.406 -2.07502 -0.956825 0
M  V30 3231 C 311.616 -2.3244 2.60332 0
M  V30 3232 C 312.964 -2.9523 3.05163 0
M  V30 3233 O 313.988 -2.42762 2.60663 0
M  V30 3234 O 312.847 -3.90454 3.82372 0
M  V30 3235 H 309.941 -0.615188 0.552696 0
M  V30 3236 H 312.487 -0.637097 1.57287 0
M  V30 3237 H 311.259 -1.77164 3.48896 0
M  V30 3238 H 310.882 -3.13383 2.44698 0
M  V30 3239 N 311.879 -1.3236 -0.855495 0
M  V30 3240 C 313.128 -1.22226 -1.60448 0
M  V30 3241 C 313.441 0.214733 -1.94418 0
M  V30 3242 O 314.647 0.437917 -2.67945 0
M  V30 3243 C 313.103 -2.14063 -2.89318 0
M  V30 3244 C 312.711 -3.62839 -2.62777 0
M  V30 3245 C 314.455 -2.12764 -3.67331 0
M  V30 3246 C 312.362 -4.4664 -3.87643 0
M  V30 3247 H 311.292 -0.453904 -0.602069 0
M  V30 3248 H 313.943 -1.57314 -0.944698 0
M  V30 3249 H 312.325 -1.71889 -3.5675 0
M  V30 3250 H 313.499 -4.1335 -2.03662 0
M  V30 3251 H 311.814 -3.66261 -1.98096 0
M  V30 3252 H 314.411 -2.72611 -4.59987 0
M  V30 3253 H 314.754 -1.11841 -4.00995 0
M  V30 3254 H 315.287 -2.53214 -3.06802 0
M  V30 3255 H 312.026 -5.48373 -3.5912 0
M  V30 3256 H 311.546 -4.0088 -4.46156 0
M  V30 3257 H 313.225 -4.59597 -4.55389 0
M  V30 3258 N 313.357 1.07166 -1.15556 0
M  V30 3259 C 314.582 1.84053 -0.955988 0
M  V30 3260 C 315.007 1.81586 0.490739 0
M  V30 3261 O 314.365 1.21018 1.34997 0
M  V30 3262 C 314.413 3.28957 -1.47714 0
M  V30 3263 O 313.517 4.06795 -0.677593 0
M  V30 3264 H 312.858 0.569842 -0.340847 0
M  V30 3265 H 315.388 1.35178 -1.53584 0
M  V30 3266 H 315.398 3.79788 -1.4908 0
M  V30 3267 H 314.073 3.30068 -2.53037 0
M  V30 3268 H 312.65 3.6561 -0.733721 0
M  V30 3269 N 314.835 0.952656 1.25548 0
M  V30 3270 C 315.783 0.462354 2.27958 0
M  V30 3271 C 316.777 -0.46634 1.62855 0
M  V30 3272 O 317.983 -0.343287 1.76696 0
M  V30 3273 H 314.358 0.13101 0.7405 0
M  V30 3274 H 316.329 1.33839 2.66702 0
M  V30 3275 C 315.078 -0.24628 3.46827 0
M  V30 3276 H 314.401 0.459192 3.97154 0
M  V30 3277 H 315.841 -0.553393 4.20373 0
M  V30 3278 C 314.3 -1.4681 3.0323 0
M  V30 3279 O 314.83 -2.56591 3.09069 0
M  V30 3280 N 313.036 -1.32874 2.58443 0
M  V30 3281 H 312.583 -0.435536 2.53891 0
M  V30 3282 H 312.541 -2.14742 2.29637 0
M  V30 3283 N 316.313 -1.40141 0.720998 0
M  V30 3284 C 317.59 -1.94677 0.189757 0
M  V30 3285 C 317.97 -1.65879 -1.30566 0
M  V30 3286 O 317.318 -0.979391 -2.06447 0
M  V30 3287 C 317.528 -3.45279 0.508304 0
M  V30 3288 C 318.876 -4.22209 0.449934 0
M  V30 3289 O 319.9 -3.53413 0.444677 0
M  V30 3290 O 318.759 -5.44788 0.432189 0
M  V30 3291 H 315.853 -0.826459 0.0299026 0
M  V30 3292 H 318.399 -1.49719 0.7989 0
M  V30 3293 H 317.171 -3.59619 1.54239 0
M  V30 3294 H 316.794 -3.97386 -0.130525 0
M  V30 3295 N 317.792 -0.46758 -1.50504 0
M  V30 3296 C 318.722 0.318381 -2.31319 0
M  V30 3297 C 319.703 0.993564 -1.38066 0
M  V30 3298 O 320.888 0.991411 -1.66987 0
M  V30 3299 C 318.018 1.40275 -3.17711 0
M  V30 3300 C 316.972 0.849373 -4.19487 0
M  V30 3301 C 316.298 2.03177 -4.94594 0
M  V30 3302 C 317.598 -0.136942 -5.2212 0
M  V30 3303 H 319.292 -0.356106 -2.97275 0
M  V30 3304 H 316.838 -0.172703 -1.42961 0
M  V30 3305 H 318.791 1.96004 -3.73042 0
M  V30 3306 H 317.515 2.10596 -2.49634 0
M  V30 3307 H 316.174 0.314076 -3.65252 0
M  V30 3308 H 315.822 2.72187 -4.22993 0
M  V30 3309 H 315.522 1.66774 -5.63436 0
M  V30 3310 H 317.046 2.59403 -5.52759 0
M  V30 3311 H 318.46 0.331056 -5.72343 0
M  V30 3312 H 316.857 -0.41507 -5.98663 0
M  V30 3313 H 317.927 -1.06398 -4.73083 0
M  V30 3314 N 319.27 1.56325 -0.20005 0
M  V30 3315 C 320.547 1.89484 0.48529 0
M  V30 3316 C 320.927 1.1143 1.79294 0
M  V30 3317 O 320.275 0.216919 2.27468 0
M  V30 3318 C 320.485 3.41923 0.699243 0
M  V30 3319 C 321.833 4.12256 1.01638 0
M  V30 3320 O 322.857 3.47402 0.786792 0
M  V30 3321 O 321.716 5.26887 1.45095 0
M  V30 3322 H 318.81 0.787144 0.253639 0
M  V30 3323 H 321.356 1.67985 -0.240633 0
M  V30 3324 H 320.128 3.90658 -0.224008 0
M  V30 3325 H 319.751 3.69131 1.47744 0
M  V30 3326 N 320.748 -0.0735177 1.57428 0
M  V30 3327 C 321.678 -1.0879 2.06608 0
M  V30 3328 C 322.659 -1.40473 0.959237 0
M  V30 3329 O 323.844 -1.5013 1.23185 0
M  V30 3330 C 320.974 -2.40183 2.50857 0
M  V30 3331 C 319.928 -2.22858 3.65402 0
M  V30 3332 C 319.254 -3.59619 3.957 0
M  V30 3333 C 320.554 -1.65123 4.95511 0
M  V30 3334 H 322.248 -0.678673 2.91607 0
M  V30 3335 H 319.794 -0.325013 1.40284 0
M  V30 3336 H 321.747 -3.11437 2.83874 0
M  V30 3337 H 320.471 -2.83083 1.62885 0
M  V30 3338 H 319.13 -1.54045 3.32664 0
M  V30 3339 H 318.778 -4.00086 3.04861 0
M  V30 3340 H 318.478 -3.48866 4.72828 0
M  V30 3341 H 320.002 -4.32306 4.31212 0
M  V30 3342 H 321.416 -2.26241 5.26771 0
M  V30 3343 H 319.813 -1.65071 5.7695 0
M  V30 3344 H 320.883 -0.612559 4.81015 0
M  V30 3345 N 322.226 -1.5378 -0.344866 0
M  V30 3346 C 323.454 -1.74899 -1.10534 0
M  V30 3347 C 323.869 -0.487534 -1.82397 0
M  V30 3348 O 323.226 0.540741 -1.74305 0
M  V30 3349 C 323.277 -2.92822 -2.11984 0
M  V30 3350 O 322.998 -4.14089 -1.43044 0
M  V30 3351 C 324.499 -3.25982 -3.00417 0
M  V30 3352 H 321.719 -0.584426 -0.329678 0
M  V30 3353 H 324.263 -2.006 -0.397474 0
M  V30 3354 H 322.418 -2.69457 -2.78338 0
M  V30 3355 H 322.832 -4.80272 -2.10805 0
M  V30 3356 H 324.306 -4.11848 -3.67539 0
M  V30 3357 H 324.783 -2.42228 -3.66363 0
M  V30 3358 H 325.389 -3.51349 -2.39654 0
M  V30 3359 N 323.704 0.605807 -1.45491 0
M  V30 3360 C 324.929 1.39625 -1.53361 0
M  V30 3361 C 325.354 1.87351 -0.167645 0
M  V30 3362 O 324.712 1.60243 0.848051 0
M  V30 3363 C 324.76 2.57559 -2.5238 0
M  V30 3364 O 323.864 3.58248 -2.04285 0
M  V30 3365 H 323.205 0.416771 -0.516912 0
M  V30 3366 H 325.735 0.737103 -1.90861 0
M  V30 3367 H 325.745 3.0478 -2.71244 0
M  V30 3368 H 324.42 2.22171 -3.51586 0
M  V30 3369 H 322.997 3.17664 -1.95305 0
M  V30 3370 N 325.182 1.32811 0.848464 0
M  V30 3371 C 326.112 1.24882 1.97299 0
M  V30 3372 C 327.093 0.131357 1.69592 0
M  V30 3373 O 328.278 0.319553 1.91553 0
M  V30 3374 C 325.408 0.97746 3.33261 0
M  V30 3375 C 324.362 2.05682 3.75338 0
M  V30 3376 C 323.688 1.63777 5.09 0
M  V30 3377 C 324.988 3.47254 3.90144 0
M  V30 3378 H 326.682 2.18966 2.04191 0
M  V30 3379 H 324.228 1.05413 0.981029 0
M  V30 3380 H 326.181 0.908513 4.1149 0
M  V30 3381 H 324.905 0.000980011 3.266 0
M  V30 3382 H 323.564 2.11603 2.99366 0
M  V30 3383 H 323.212 0.648569 4.98801 0
M  V30 3384 H 322.912 2.36 5.38124 0
M  V30 3385 H 324.436 1.5833 5.89715 0
M  V30 3386 H 325.85 3.43888 4.58709 0
M  V30 3387 H 324.247 4.1788 4.30693 0
M  V30 3388 H 325.317 3.86462 2.92874 0
M  V30 3389 N 326.66 -1.06551 1.16123 0
M  V30 3390 C 327.885 -1.83544 0.965735 0
M  V30 3391 C 328.31 -1.81843 -0.481102 0
M  V30 3392 O 327.668 -1.21732 -1.34354 0
M  V30 3393 C 327.716 -3.28169 1.49457 0
M  V30 3394 O 326.82 -4.0643 0.699157 0
M  V30 3395 H 326.161 -0.568026 0.343864 0
M  V30 3396 H 328.691 -1.34362 1.54299 0
M  V30 3397 H 328.701 -3.78992 1.51092 0
M  V30 3398 H 327.376 -3.28722 2.54784 0
M  V30 3399 H 325.953 -3.65216 0.7531 0
M  V30 3400 N 328.138 -0.959301 -1.25041 0
M  V30 3401 C 329.368 -0.63303 -1.96663 0
M  V30 3402 C 329.776 0.800031 -1.71453 0
M  V30 3403 O 329.119 1.54736 -0.99008 0
M  V30 3404 C 329.181 -0.817523 -3.50081 0
M  V30 3405 C 328.845 -2.22863 -3.98975 0
M  V30 3406 C 329.842 -3.20569 -4.09306 0
M  V30 3407 C 327.527 -2.55407 -4.32519 0
M  V30 3408 C 329.521 -4.4891 -4.52503 0
M  V30 3409 C 327.208 -3.83976 -4.754 0
M  V30 3410 C 328.206 -4.8054 -4.85356 0
M  V30 3411 O 327.894 -6.06817 -5.27284 0
M  V30 3412 H 327.626 -0.235866 -0.633516 0
M  V30 3413 H 330.18 -1.2874 -1.60047 0
M  V30 3414 H 328.41 -0.105992 -3.86555 0
M  V30 3415 H 330.099 -0.491604 -4.02912 0
M  V30 3416 H 330.865 -2.96753 -3.83618 0
M  V30 3417 H 326.744 -1.8097 -4.23994 0
M  V30 3418 H 330.288 -5.24283 -4.60188 0
M  V30 3419 H 326.185 -4.07596 -5.00535 0
M  V30 3420 H 326.953 -6.10262 -5.45457 0
M  V30 3421 N 329.616 1.39756 -0.72842 0
M  V30 3422 C 330.563 2.30647 -0.0841519 0
M  V30 3423 C 331.533 1.48869 0.7367 0
M  V30 3424 O 332.718 1.77574 0.698015 0
M  V30 3425 C 329.858 3.35165 0.822091 0
M  V30 3426 C 328.971 4.31999 -0.0106663 0
M  V30 3427 C 328.106 5.23585 0.896241 0
M  V30 3428 C 327.145 6.12072 0.0583381 0
M  V30 3429 N 326.282 6.96035 0.920818 0
M  V30 3430 H 331.122 2.85173 -0.864891 0
M  V30 3431 H 328.659 1.40422 -0.438179 0
M  V30 3432 H 330.617 3.94345 1.36189 0
M  V30 3433 H 329.247 2.8211 1.56888 0
M  V30 3434 H 328.299 3.74492 -0.66781 0
M  V30 3435 H 329.611 4.9443 -0.658825 0
M  V30 3436 H 328.765 5.87759 1.50412 0
M  V30 3437 H 327.504 4.61459 1.57819 0
M  V30 3438 H 326.509 5.46916 -0.562389 0
M  V30 3439 H 327.734 6.76261 -0.6203 0
M  V30 3440 H 325.68 6.36485 1.58818 0
M  V30 3441 H 325.597 7.55284 0.32899 0
M  V30 3442 H 326.865 7.64646 1.51447 0
M  V30 3443 N 331.094 0.475555 1.50254 0
M  V30 3444 C 332.343 -0.0795996 2.01543 0
M  V30 3445 C 332.656 -1.4038 1.36209 0
M  V30 3446 O 333.862 -2.04415 1.7868 0
M  V30 3447 C 332.318 -0.192363 3.59386 0
M  V30 3448 C 331.926 1.12367 4.33679 0
M  V30 3449 C 333.67 -0.699238 4.18701 0
M  V30 3450 C 331.577 0.974453 5.83317 0
M  V30 3451 H 330.507 -0.0335228 0.753254 0
M  V30 3452 H 333.158 0.611128 1.73025 0
M  V30 3453 H 331.54 -0.946974 3.84511 0
M  V30 3454 H 332.714 1.88958 4.20276 0
M  V30 3455 H 331.029 1.562 3.85993 0
M  V30 3456 H 333.626 -0.827978 5.28251 0
M  V30 3457 H 333.969 -1.69171 3.80377 0
M  V30 3458 H 334.502 -0.00188807 3.978 0
M  V30 3459 H 331.241 1.94042 6.26121 0
M  V30 3460 H 330.761 0.248998 5.99283 0
M  V30 3461 H 332.44 0.642867 6.43798 0
M  V30 3462 N 332.573 -1.56217 0.208337 0
M  V30 3463 C 333.503 -2.22694 -0.702116 0
M  V30 3464 C 334.484 -1.19432 -1.2112 0
M  V30 3465 O 335.669 -1.47978 -1.25762 0
M  V30 3466 C 332.799 -2.8966 -1.9161 0
M  V30 3467 C 331.753 -3.9928 -1.5414 0
M  V30 3468 C 331.079 -4.53476 -2.83308 0
M  V30 3469 C 332.379 -5.17012 -0.741339 0
M  V30 3470 H 334.073 -2.99034 -0.147898 0
M  V30 3471 H 331.619 -1.43831 -0.0696951 0
M  V30 3472 H 333.572 -3.34852 -2.55836 0
M  V30 3473 H 332.296 -2.10746 -2.49507 0
M  V30 3474 H 330.955 -3.54799 -0.922668 0
M  V30 3475 H 330.603 -3.71308 -3.39322 0
M  V30 3476 H 330.303 -5.27451 -2.58976 0
M  V30 3477 H 331.827 -5.01378 -3.485 0
M  V30 3478 H 333.241 -5.58667 -1.28699 0
M  V30 3479 H 331.638 -5.97137 -0.595627 0
M  V30 3480 H 332.708 -4.8423 0.254851 0
M  V30 3481 N 334.051 0.0651679 -1.57465 0
M  V30 3482 C 335.3 0.761916 -1.86756 0
M  V30 3483 C 335.613 1.78406 -0.801925 0
M  V30 3484 O 336.819 2.53084 -0.982885 0
M  V30 3485 C 335.275 1.40603 -3.31299 0
M  V30 3486 C 334.883 0.422115 -4.46007 0
M  V30 3487 C 336.627 2.08476 -3.69781 0
M  V30 3488 C 334.534 1.07252 -5.81593 0
M  V30 3489 H 333.464 0.288308 -0.696702 0
M  V30 3490 H 336.115 0.015344 -1.83494 0
M  V30 3491 H 334.497 2.20109 -3.29193 0
M  V30 3492 H 335.671 -0.343613 -4.59517 0
M  V30 3493 H 333.986 -0.152527 -4.16121 0
M  V30 3494 H 336.583 2.57925 -4.68379 0
M  V30 3495 H 336.926 2.88712 -2.99919 0
M  V30 3496 H 337.459 1.35792 -3.73905 0
M  V30 3497 H 334.198 0.310342 -6.54765 0
M  V30 3498 H 333.718 1.80895 -5.71872 0
M  V30 3499 H 335.397 1.59043 -6.27148 0
M  V30 3500 N 335.529 1.53961 0.336706 0
M  V30 3501 C 336.776 1.71536 1.07618 0
M  V30 3502 C 337.104 0.482125 1.8843 0
M  V30 3503 O 336.359 -0.536142 1.88213 0
M  V30 3504 C 336.658 2.93493 2.03953 0
M  V30 3505 C 336.324 4.28811 1.39399 0
M  V30 3506 C 334.986 4.65602 1.21523 0
M  V30 3507 C 337.338 5.12844 0.929541 0
M  V30 3508 C 334.666 5.84037 0.558312 0
M  V30 3509 C 337.018 6.31951 0.286505 0
M  V30 3510 C 335.682 6.67432 0.0954869 0
M  V30 3511 H 334.952 0.627696 0.393801 0
M  V30 3512 H 337.599 1.88186 0.354715 0
M  V30 3513 H 335.904 2.71475 2.82504 0
M  V30 3514 H 337.601 3.04285 2.61174 0
M  V30 3515 H 334.191 3.99858 1.54311 0
M  V30 3516 H 338.375 4.84947 1.05548 0
M  V30 3517 H 333.631 6.10097 0.398995 0
M  V30 3518 H 337.805 6.96352 -0.0814376 0
M  V30 3519 H 335.432 7.59063 -0.415579 0
M  V30 3520 N 337.007 -0.598083 1.45811 0
M  V30 3521 C 338.253 -1.35882 1.50545 0
M  V30 3522 C 338.586 -1.93616 0.150445 0
M  V30 3523 O 337.861 -1.75604 -0.83628 0
M  V30 3524 C 338.144 -2.49966 2.59208 0
M  V30 3525 C 337.997 -1.97367 4.04186 0
M  V30 3526 C 339.316 -3.52068 2.64076 0
M  V30 3527 H 336.435 -0.492717 0.548087 0
M  V30 3528 H 339.077 -0.673319 1.77669 0
M  V30 3529 H 337.227 -3.08443 2.3621 0
M  V30 3530 H 338.899 -1.43466 4.38423 0
M  V30 3531 H 337.142 -1.283 4.14393 0
M  V30 3532 H 337.813 -2.79649 4.75921 0
M  V30 3533 H 340.289 -3.03448 2.84708 0
M  V30 3534 H 339.165 -4.2937 3.41954 0
M  V30 3535 H 339.426 -4.08304 1.69531 0
M  V30 3536 N 338.485 -1.33259 -0.841409 0
M  V30 3537 C 339.725 -1.25902 -1.61022 0
M  V30 3538 C 340.089 0.173325 -1.91216 0
M  V30 3539 O 341.29 0.370824 -2.6623 0
M  V30 3540 C 339.561 -2.10735 -2.88662 0
M  V30 3541 S 341.12 -2.20541 -3.79351 0
M  V30 3542 H 337.938 -0.447958 -0.552137 0
M  V30 3543 H 340.54 -1.68263 -0.995382 0
M  V30 3544 H 339.244 -3.1384 -2.64448 0
M  V30 3545 H 338.775 -1.69201 -3.55154 0
M  V30 3546 H 340.79 -1.36462 -4.77067 0
M  V30 3547 N 339.963 1.05934 -1.16686 0
M  V30 3548 C 340.893 2.1546 -0.899949 0
M  V30 3549 C 341.874 1.69391 0.155154 0
M  V30 3550 O 343.059 1.94199 0.00648693 0
M  V30 3551 C 340.189 3.44939 -0.404241 0
M  V30 3552 C 339.143 4.04536 -1.39767 0
M  V30 3553 C 338.469 5.29268 -0.760216 0
M  V30 3554 C 339.769 4.42893 -2.76845 0
M  V30 3555 H 341.463 2.38046 -1.81588 0
M  V30 3556 H 339.009 1.14404 -0.874514 0
M  V30 3557 H 340.962 4.20901 -0.204971 0
M  V30 3558 H 339.686 3.21983 0.547206 0
M  V30 3559 H 338.345 3.30635 -1.58355 0
M  V30 3560 H 337.993 5.02611 0.197831 0
M  V30 3561 H 337.693 5.70101 -1.42332 0
M  V30 3562 H 339.217 6.07924 -0.57105 0
M  V30 3563 H 340.631 5.09921 -2.62019 0
M  V30 3564 H 339.028 4.94721 -3.39663 0
M  V30 3565 H 340.098 3.53584 -3.31823 0
M  V30 3566 N 341.441 0.965919 1.2453 0
M  V30 3567 C 342.374 0.4393 2.23932 0
M  V30 3568 C 343.352 -0.485615 1.55179 0
M  V30 3569 O 344.536 -0.417402 1.83821 0
M  V30 3570 C 341.663 -0.366042 3.36716 0
M  V30 3571 C 340.709 0.5009 4.23548 0
M  V30 3572 S 341.542 1.94002 4.99123 0
M  V30 3573 C 342.698 1.14342 6.15367 0
M  V30 3574 H 342.931 1.28167 2.68254 0
M  V30 3575 H 340.464 0.770819 1.33782 0
M  V30 3576 H 342.422 -0.824724 4.0213 0
M  V30 3577 H 341.083 -1.18337 2.90956 0
M  V30 3578 H 340.276 -0.117341 5.03863 0
M  V30 3579 H 339.878 0.89524 3.63127 0
M  V30 3580 H 342.17 0.397572 6.76332 0
M  V30 3581 H 343.113 1.92089 6.81548 0
M  V30 3582 H 343.521 0.668579 5.60527 0
M  V30 3583 N 342.919 -1.39368 0.735821 0
M  V30 3584 C 344.165 -2.00794 0.284544 0
M  V30 3585 C 344.498 -1.58255 -1.12557 0
M  V30 3586 O 343.773 -0.811819 -1.76748 0
M  V30 3587 C 344.056 -3.58011 0.387337 0
M  V30 3588 C 343.909 -4.10566 1.83728 0
M  V30 3589 C 345.228 -4.395 -0.22975 0
M  V30 3590 H 342.347 -0.729501 0.104866 0
M  V30 3591 H 344.989 -1.65564 0.93213 0
M  V30 3592 H 343.139 -3.88154 -0.164006 0
M  V30 3593 H 344.811 -3.91139 2.44556 0
M  V30 3594 H 343.054 -3.64095 2.35833 0
M  V30 3595 H 343.725 -5.19702 1.86047 0
M  V30 3596 H 346.201 -4.15406 0.240257 0
M  V30 3597 H 345.077 -5.48752 -0.127485 0
M  V30 3598 H 345.338 -4.22062 -1.3159 0
M  V30 3599 N 344.397 -0.483516 -1.5 0
M  V30 3600 C 345.674 0.129337 -1.95172 0
M  V30 3601 C 346.054 1.55802 -1.4244 0
M  V30 3602 O 345.402 2.19625 -0.630649 0
M  V30 3603 C 345.612 0.0599251 -3.48949 0
M  V30 3604 C 346.96 0.242617 -4.23906 0
M  V30 3605 O 347.984 0.135933 -3.55941 0
M  V30 3606 O 346.843 0.459454 -5.44565 0
M  V30 3607 H 343.937 0.104887 -0.820322 0
M  V30 3608 H 346.483 -0.544807 -1.60717 0
M  V30 3609 H 345.255 -0.937079 -3.79914 0
M  V30 3610 H 344.878 0.774984 -3.89974 0
M  V30 3611 N 345.875 1.56104 -0.216619 0
M  V30 3612 C 346.838 2.18819 0.681962 0
M  V30 3613 C 347.838 1.14866 1.12528 0
M  V30 3614 O 349.028 1.40128 1.03488 0
M  V30 3615 C 346.16 2.80756 1.93362 0
M  V30 3616 H 347.353 2.99595 0.135254 0
M  V30 3617 H 344.906 1.56265 0.0330003 0
M  V30 3618 H 345.641 2.03837 2.52232 0
M  V30 3619 H 345.426 3.56876 1.62426 0
M  V30 3620 H 346.916 3.28844 2.57393 0
M  V30 3621 N 347.353 -0.0568162 1.57498 0
M  V30 3622 C 348.63 -0.786954 1.79071 0
M  V30 3623 C 349.01 -1.95028 0.80792 0
M  V30 3624 O 348.358 -2.27968 -0.155858 0
M  V30 3625 C 348.568 -1.24594 3.26002 0
M  V30 3626 C 349.916 -1.67323 3.90241 0
M  V30 3627 O 350.94 -1.34124 3.29984 0
M  V30 3628 O 349.799 -2.28842 4.9628 0
M  V30 3629 H 346.893 -0.378262 0.735423 0
M  V30 3630 H 349.439 -0.035734 1.69662 0
M  V30 3631 H 348.211 -0.41423 3.89101 0
M  V30 3632 H 347.834 -2.05803 3.40192 0
M  V30 3633 N 348.832 -1.54138 -0.328536 0
M  V30 3634 C 350.248 -1.44736 -0.672574 0
M  V30 3635 C 350.448 -0.616217 -1.91846 0
M  V30 3636 O 349.504 -0.113067 -2.52247 0
M  V30 3637 C 350.817 -2.884 -0.851217 0
M  V30 3638 C 352.365 -2.98271 -0.948877 0
M  V30 3639 C 352.84 -4.43074 -1.15973 0
M  V30 3640 N 354.331 -4.46665 -1.22658 0
M  V30 3641 C 355.066 -5.55857 -1.40751 0
M  V30 3642 N 354.562 -6.75026 -1.5592 0
M  V30 3643 N 356.355 -5.43495 -1.4342 0
M  V30 3644 H 348.506 -2.06661 0.490421 0
M  V30 3645 H 350.769 -0.934812 0.157579 0
M  V30 3646 H 350.475 -3.51699 -0.00704236 0
M  V30 3647 H 350.349 -3.34225 -1.74853 0
M  V30 3648 H 352.736 -2.35102 -1.78356 0
M  V30 3649 H 352.817 -2.55785 -0.0281435 0
M  V30 3650 H 352.461 -5.06827 -0.329915 0
M  V30 3651 H 352.391 -4.83165 -2.09426 0
M  V30 3652 H 354.882 -3.60797 -1.124 0
M  V30 3653 H 355.195 -7.54004 -1.69404 0
M  V30 3654 H 353.54 -6.77944 -1.53027 0
M  V30 3655 H 356.731 -4.49349 -1.31162 0
M  V30 3656 H 356.904 -6.28649 -1.57178 0
M  V30 3657 N 350.31 0.590341 -1.46126 0
M  V30 3658 C 351.55 1.35995 -1.52593 0
M  V30 3659 C 351.914 1.91243 -0.170368 0
M  V30 3660 O 353.115 2.68576 -0.109775 0
M  V30 3661 C 351.386 2.46465 -2.58823 0
M  V30 3662 S 352.945 3.33953 -2.84641 0
M  V30 3663 H 349.763 0.463425 -0.53922 0
M  V30 3664 H 352.365 0.67944 -1.83314 0
M  V30 3665 H 351.069 2.04256 -3.5596 0
M  V30 3666 H 350.6 3.19297 -2.2981 0
M  V30 3667 H 352.615 4.45094 -2.19331 0
M  V30 3668 N 351.788 1.33704 0.83433 0
M  V30 3669 C 353.013 1.28615 1.62705 0
M  V30 3670 C 353.438 -0.139242 1.87584 0
M  V30 3671 O 352.796 -1.09734 1.4432 0
M  V30 3672 C 352.844 2.07139 2.95171 0
M  V30 3673 O 351.948 1.4331 3.86699 0
M  V30 3674 H 351.289 0.44226 0.49528 0
M  V30 3675 H 353.819 1.76335 1.03766 0
M  V30 3676 H 353.829 2.18073 3.44831 0
M  V30 3677 H 352.504 3.10779 2.76386 0
M  V30 3678 H 351.081 1.4105 3.45195 0
M  V30 3679 N 353.266 -1.05314 1.17247 0
M  V30 3680 C 354.196 -2.1498 0.911362 0
M  V30 3681 C 355.177 -1.69471 -0.146169 0
M  V30 3682 O 356.362 -1.942 0.003812 0
M  V30 3683 C 353.492 -3.4472 0.422528 0
M  V30 3684 C 352.446 -4.03789 1.4191 0
M  V30 3685 C 351.772 -5.28858 0.788274 0
M  V30 3686 C 353.072 -4.41418 2.7919 0
M  V30 3687 H 354.766 -2.3708 1.82848 0
M  V30 3688 H 352.312 -1.13938 0.880569 0
M  V30 3689 H 354.265 -4.20787 0.227289 0
M  V30 3690 H 352.989 -3.22269 -0.530123 0
M  V30 3691 H 351.648 -3.2979 1.60106 0
M  V30 3692 H 351.296 -5.02709 -0.171173 0
M  V30 3693 H 350.996 -5.69338 1.45353 0
M  V30 3694 H 352.52 -6.07612 0.603282 0
M  V30 3695 H 353.934 -5.08524 2.64719 0
M  V30 3696 H 352.331 -4.92913 3.42282 0
M  V30 3697 H 353.401 -3.51819 3.33693 0
M  V30 3698 N 354.744 -0.972509 -1.24016 0
M  V30 3699 C 355.991 -0.637034 -1.92219 0
M  V30 3700 C 356.319 0.828418 -1.75976 0
M  V30 3701 O 355.574 1.61206 -1.10955 0
M  V30 3702 C 355.873 -0.963694 -3.44162 0
M  V30 3703 C 355.539 -2.41807 -3.80579 0
M  V30 3704 C 354.201 -2.81556 -3.9023 0
M  V30 3705 C 356.553 -3.36172 -3.98293 0
M  V30 3706 C 353.881 -4.14702 -4.15017 0
M  V30 3707 C 356.233 -4.68952 -4.24578 0
M  V30 3708 C 354.897 -5.08472 -4.32449 0
M  V30 3709 H 354.167 -0.233107 -0.703379 0
M  V30 3710 H 356.814 -1.2249 -1.47202 0
M  V30 3711 H 355.119 -0.29365 -3.90698 0
M  V30 3712 H 356.816 -0.682449 -3.9515 0
M  V30 3713 H 353.406 -2.09988 -3.73635 0
M  V30 3714 H 357.59 -3.06644 -3.90234 0
M  V30 3715 H 352.846 -4.4494 -4.19331 0
M  V30 3716 H 357.02 -5.42037 -4.37229 0
M  V30 3717 H 354.647 -6.11665 -4.51409 0
M  V30 3718 N 356.222 1.38976 -0.743202 0
M  V30 3719 C 357.152 2.33171 -0.123873 0
M  V30 3720 C 358.133 1.54336 0.71516 0
M  V30 3721 O 359.318 1.82696 0.658467 0
M  V30 3722 C 356.448 3.38474 0.777978 0
M  V30 3723 C 355.402 4.27979 0.0424758 0
M  V30 3724 C 354.728 5.2405 1.06189 0
M  V30 3725 C 356.028 5.10155 -1.1198 0
M  V30 3726 H 357.722 2.85213 -0.910709 0
M  V30 3727 H 355.268 1.37133 -0.439388 0
M  V30 3728 H 357.221 4.03328 1.22084 0
M  V30 3729 H 355.945 2.84891 1.59702 0
M  V30 3730 H 354.604 3.64616 -0.380853 0
M  V30 3731 H 354.252 4.66758 1.87472 0
M  V30 3732 H 353.952 5.84785 0.574485 0
M  V30 3733 H 355.476 5.9178 1.50428 0
M  V30 3734 H 356.89 5.68307 -0.75499 0
M  V30 3735 H 355.287 5.80073 -1.53738 0
M  V30 3736 H 356.357 4.44504 -1.93764 0
M  V30 3737 N 357.7 0.491464 1.49741 0
M  V30 3738 C 358.946 -0.0565092 2.02721 0
M  V30 3739 C 359.279 -1.37522 1.37118 0
M  V30 3740 O 358.554 -1.87866 0.503645 0
M  V30 3741 C 358.837 -0.219051 3.59433 0
M  V30 3742 C 358.69 1.12211 4.35579 0
M  V30 3743 C 360.009 -0.964157 4.29409 0
M  V30 3744 H 357.128 -0.0190627 0.736753 0
M  V30 3745 H 359.77 0.641021 1.7886 0
M  V30 3746 H 357.92 -0.813165 3.79895 0
M  V30 3747 H 359.592 1.75437 4.26637 0
M  V30 3748 H 357.835 1.71377 3.98513 0
M  V30 3749 H 358.506 0.961794 5.43556 0
M  V30 3750 H 360.982 -0.460378 4.13545 0
M  V30 3751 H 359.858 -1.04671 5.38828 0
M  V30 3752 H 360.119 -2.00563 3.93988 0
M  V30 3753 N 359.178 -1.55987 0.224894 0
M  V30 3754 C 360.088 -2.24066 -0.69511 0
M  V30 3755 C 361.104 -1.24939 -1.21104 0
M  V30 3756 O 362.28 -1.5776 -1.25195 0
M  V30 3757 C 359.345 -2.90983 -1.88493 0
M  V30 3758 C 358.406 -4.05462 -1.41064 0
M  V30 3759 C 357.639 -4.69179 -2.54375 0
M  V30 3760 O 357.862 -4.31895 -3.72589 0
M  V30 3761 O 356.796 -5.58108 -2.25386 0
M  V30 3762 H 360.622 -3.03353 -0.145149 0
M  V30 3763 H 358.207 -1.49399 -0.00569476 0
M  V30 3764 H 360.089 -3.33209 -2.57972 0
M  V30 3765 H 358.764 -2.14653 -2.42293 0
M  V30 3766 H 357.671 -3.67798 -0.683774 0
M  V30 3767 H 359.004 -4.83545 -0.918985 0
M  V30 3768 N 360.656 0.0484629 -1.57525 0
M  V30 3769 C 361.904 0.741657 -1.88 0
M  V30 3770 C 362.225 1.76918 -0.820054 0
M  V30 3771 O 361.495 1.95335 0.148661 0
M  V30 3772 H 360.075 0.276908 -0.69378 0
M  V30 3773 H 362.737 0.019013 -1.94891 0
M  V30 3774 H 361.833 1.24336 -2.86264 0
M  V30 3775 N 362.134 1.5431 0.320358 0
M  V30 3776 C 363.097 1.83195 1.3774 0
M  V30 3777 C 364.097 0.703906 1.44575 0
M  V30 3778 O 365.287 0.972214 1.44546 0
M  V30 3779 C 362.419 1.99487 2.76438 0
M  V30 3780 H 363.612 2.77642 1.1338 0
M  V30 3781 H 361.165 1.46076 0.556012 0
M  V30 3782 H 361.9 1.07262 3.06048 0
M  V30 3783 H 361.685 2.81575 2.7287 0
M  V30 3784 H 363.175 2.23271 3.52902 0
M  V30 3785 N 363.613 -0.582584 1.46437 0
M  V30 3786 C 364.576 -1.67366 1.56592 0
M  V30 3787 C 365.576 -1.54575 0.443072 0
M  V30 3788 O 366.766 -1.59191 0.707381 0
M  V30 3789 C 363.898 -3.06791 1.48634 0
M  V30 3790 H 365.091 -1.5972 2.5383 0
M  V30 3791 H 362.644 -0.800432 1.34249 0
M  V30 3792 H 363.379 -3.19993 0.526763 0
M  V30 3793 H 363.164 -3.17484 2.30101 0
M  V30 3794 H 364.654 -3.86218 1.58826 0
M  V30 3795 N 365.091 -1.34144 -0.827227 0
M  V30 3796 C 366.054 -1.25264 -1.91942 0
M  V30 3797 C 367.054 -0.168866 -1.59911 0
M  V30 3798 O 368.244 -0.421198 -1.69031 0
M  V30 3799 C 365.376 -0.932952 -3.27885 0
M  V30 3800 H 366.569 -2.22357 -2.0124 0
M  V30 3801 H 364.122 -1.1837 -1.0207 0
M  V30 3802 H 364.857 0.0349917 -3.24281 0
M  V30 3803 H 364.642 -1.71682 -3.52516 0
M  V30 3804 H 366.132 -0.895874 -4.07877 0
M  V30 3805 N 366.569 1.04691 -1.17803 0
M  V30 3806 C 367.817 1.7743 -0.967617 0
M  V30 3807 C 368.138 1.88359 0.504574 0
M  V30 3808 O 367.408 1.40402 1.36617 0
M  V30 3809 H 365.988 0.657242 -0.355024 0
M  V30 3810 H 368.65 1.2638 -1.48371 0
M  V30 3811 H 367.746 2.78924 -1.40027 0
M  V30 3812 N 368.047 0.979072 1.23499 0
M  V30 3813 C 368.994 0.517904 2.24914 0
M  V30 3814 C 369.964 -0.442525 1.60097 0
M  V30 3815 O 371.149 -0.350365 1.87556 0
M  V30 3816 C 368.289 -0.174813 3.44657 0
M  V30 3817 C 367.402 0.825721 4.24035 0
M  V30 3818 C 366.537 0.107946 5.3109 0
M  V30 3819 C 365.576 1.09778 6.02175 0
M  V30 3820 N 364.713 0.40925 7.00906 0
M  V30 3821 H 369.553 1.38751 2.63727 0
M  V30 3822 H 367.09 0.695303 1.2963 0
M  V30 3823 H 369.048 -0.593233 4.12961 0
M  V30 3824 H 367.678 -1.0083 3.06648 0
M  V30 3825 H 366.73 1.36253 3.55161 0
M  V30 3826 H 368.042 1.58005 4.73113 0
M  V30 3827 H 367.196 -0.367904 6.05583 0
M  V30 3828 H 365.935 -0.678994 4.8295 0
M  V30 3829 H 364.94 1.5844 5.26476 0
M  V30 3830 H 366.165 1.88536 6.52404 0
M  V30 3831 H 364.111 -0.358506 6.5502 0
M  V30 3832 H 364.028 1.10226 7.47921 0
M  V30 3833 H 365.296 -0.0442557 7.79487 0
M  V30 3834 N 369.525 -1.3858 0.750561 0
M  V30 3835 C 370.472 -2.30483 0.120835 0
M  V30 3836 C 371.442 -1.50022 -0.712923 0
M  V30 3837 O 372.627 -1.78662 -0.669676 0
M  V30 3838 C 369.767 -3.36431 -0.768666 0
M  V30 3839 C 368.88 -4.31927 0.0793922 0
M  V30 3840 C 368.015 -5.24944 -0.81283 0
M  V30 3841 C 367.054 -6.12088 0.0390447 0
M  V30 3842 N 366.191 -6.97412 -0.809969 0
M  V30 3843 H 371.031 -2.83761 0.91015 0
M  V30 3844 H 368.568 -1.39707 0.460463 0
M  V30 3845 H 370.526 -3.96462 -1.29898 0
M  V30 3846 H 369.156 -2.8457 -1.5238 0
M  V30 3847 H 368.208 -3.73382 0.727303 0
M  V30 3848 H 369.52 -4.93319 0.737401 0
M  V30 3849 H 368.674 -5.90078 -1.41042 0
M  V30 3850 H 367.413 -4.63911 -1.50458 0
M  V30 3851 H 366.418 -5.45952 0.649328 0
M  V30 3852 H 367.643 -6.75189 0.727809 0
M  V30 3853 H 365.589 -6.38931 -1.48672 0
M  V30 3854 H 365.506 -7.55712 -0.208789 0
M  V30 3855 H 366.774 -7.66959 -1.39263 0
M  V30 3856 N 371.003 -0.499398 -1.49478 0
M  V30 3857 C 372.231 0.0425456 -2.06856 0
M  V30 3858 C 372.646 1.30964 -1.35992 0
M  V30 3859 O 372.003 1.77172 -0.437762 0
M  V30 3860 C 372.054 0.301735 -3.60239 0
M  V30 3861 O 371.775 -0.915127 -4.28436 0
M  V30 3862 C 373.276 0.887499 -4.34325 0
M  V30 3863 H 370.496 -0.0197482 -0.670709 0
M  V30 3864 H 373.04 -0.696297 -1.92281 0
M  V30 3865 H 371.195 0.990556 -3.74522 0
M  V30 3866 H 371.609 -0.676993 -5.20113 0
M  V30 3867 H 373.083 1.01845 -5.42523 0
M  V30 3868 H 373.56 1.88488 -3.96698 0
M  V30 3869 H 374.166 0.236196 -4.24644 0
M  V30 3870 N 372.481 1.55866 -0.233164 0
M  V30 3871 C 373.411 2.23783 0.666599 0
M  V30 3872 C 374.392 1.21343 1.19205 0
M  V30 3873 O 375.577 1.4996 1.23392 0
M  V30 3874 C 372.707 2.92671 1.86978 0
M  V30 3875 C 371.661 4.01682 1.47768 0
M  V30 3876 C 370.987 4.57926 2.76058 0
M  V30 3877 C 372.287 5.18126 0.658993 0
M  V30 3878 H 373.981 2.99232 0.100306 0
M  V30 3879 H 371.527 1.43924 0.046804 0
M  V30 3880 H 373.48 3.3888 2.50476 0
M  V30 3881 H 372.204 2.14688 2.46123 0
M  V30 3882 H 370.863 3.56222 0.866106 0
M  V30 3883 H 370.511 3.76659 3.33372 0
M  V30 3884 H 370.211 5.31505 2.50552 0
M  V30 3885 H 371.735 5.06859 3.40479 0
M  V30 3886 H 373.149 5.60644 1.19795 0
M  V30 3887 H 371.546 5.98009 0.500552 0
M  V30 3888 H 372.616 4.83763 -0.331856 0
M  V30 3889 N 373.959 -0.0401083 1.57549 0
M  V30 3890 C 375.205 -0.734211 1.89043 0
M  V30 3891 C 375.538 -1.75591 0.829535 0
M  V30 3892 O 374.813 -1.93868 -0.156706 0
M  V30 3893 C 375.096 -1.41374 3.31188 0
M  V30 3894 C 374.949 -0.406299 4.47961 0
M  V30 3895 C 376.268 -2.35061 3.72068 0
M  V30 3896 H 373.387 -0.265447 0.687537 0
M  V30 3897 H 376.029 0.00294087 1.9 0
M  V30 3898 H 374.179 -2.04206 3.30503 0
M  V30 3899 H 375.851 0.219255 4.60779 0
M  V30 3900 H 374.094 0.275485 4.32924 0
M  V30 3901 H 374.765 -0.920022 5.44279 0
M  V30 3902 H 377.241 -1.82282 3.74049 0
M  V30 3903 H 376.117 -2.79593 4.72355 0
M  V30 3904 H 376.378 -3.21258 3.0372 0
M  V30 3905 N 375.437 -1.54477 -0.31217 0
M  V30 3906 C 376.662 -1.77526 -1.07235 0
M  V30 3907 C 377.087 -0.527775 -1.80544 0
M  V30 3908 O 376.445 0.52121 -1.73646 0
M  V30 3909 C 376.493 -2.97535 -2.03728 0
M  V30 3910 O 375.597 -2.69878 -3.11833 0
M  V30 3911 H 374.938 -0.58792 -0.30862 0
M  V30 3912 H 377.468 -2.01532 -0.352993 0
M  V30 3913 H 377.478 -3.25198 -2.46395 0
M  V30 3914 H 376.153 -3.87996 -1.49774 0
M  V30 3915 H 374.73 -2.53199 -2.7376 0
M  V30 3916 N 376.915 0.57481 -1.46744 0
M  V30 3917 C 377.862 1.68329 -1.57905 0
M  V30 3918 C 378.832 1.60625 -0.422927 0
M  V30 3919 O 380.017 1.79721 -0.640711 0
M  V30 3920 C 377.157 3.06665 -1.58274 0
M  V30 3921 C 376.27 3.24935 -2.84678 0
M  V30 3922 C 375.405 4.53566 -2.76499 0
M  V30 3923 C 374.444 4.65207 -3.97806 0
M  V30 3924 N 373.581 5.85172 -3.87967 0
M  V30 3925 H 378.421 1.58127 -2.52587 0
M  V30 3926 H 375.958 0.770552 -1.25303 0
M  V30 3927 H 377.916 3.86745 -1.56473 0
M  V30 3928 H 376.546 3.15745 -0.671194 0
M  V30 3929 H 375.598 2.38405 -2.96424 0
M  V30 3930 H 376.91 3.29403 -3.7456 0
M  V30 3931 H 376.064 5.41885 -2.72848 0
M  V30 3932 H 374.803 4.51548 -1.8427 0
M  V30 3933 H 373.808 3.75304 -4.0178 0
M  V30 3934 H 375.033 4.68997 -4.9114 0
M  V30 3935 H 372.979 5.84137 -2.98529 0
M  V30 3936 H 372.896 5.90943 -4.71511 0
M  V30 3937 H 374.164 6.759 -3.88303 0
M  V30 3938 N 378.394 1.34581 0.820102 0
M  V30 3939 C 379.641 1.27096 1.57648 0
M  V30 3940 C 379.969 -0.158317 1.93855 0
M  V30 3941 O 379.224 -1.12028 1.60463 0
M  V30 3942 C 379.523 2.10997 2.8847 0
M  V30 3943 C 379.189 3.59966 2.71543 0
M  V30 3944 C 377.851 4.00575 2.66634 0
M  V30 3945 C 380.203 4.54548 2.55021 0
M  V30 3946 C 377.531 5.33953 2.43128 0
M  V30 3947 C 379.883 5.88109 2.33047 0
M  V30 3948 C 378.547 6.27878 2.26552 0
M  V30 3949 H 377.817 0.465078 0.576874 0
M  V30 3950 H 380.464 1.6635 0.948671 0
M  V30 3951 H 378.769 1.6458 3.55557 0
M  V30 3952 H 380.466 2.0255 3.46084 0
M  V30 3953 H 377.056 3.27733 2.76205 0
M  V30 3954 H 381.24 4.24069 2.57835 0
M  V30 3955 H 376.496 5.63781 2.3656 0
M  V30 3956 H 380.67 6.60985 2.19251 0
M  V30 3957 H 378.297 7.31162 2.081 0
M  V30 3958 N 379.872 -1.04064 1.18357 0
M  V30 3959 C 381.119 -1.77265 0.978947 0
M  V30 3960 C 381.447 -1.88189 -0.491428 0
M  V30 3961 O 380.702 -1.38653 -1.38108 0
M  V30 3962 C 381.001 -3.20634 1.57888 0
M  V30 3963 C 380.667 -3.29743 3.07539 0
M  V30 3964 C 379.329 -3.31937 3.48384 0
M  V30 3965 C 381.681 -3.29841 4.03552 0
M  V30 3966 C 379.009 -3.3187 4.83818 0
M  V30 3967 C 381.361 -3.31313 5.38901 0
M  V30 3968 C 380.025 -3.31799 5.79194 0
M  V30 3969 H 379.295 -0.648659 0.358222 0
M  V30 3970 H 381.942 -1.22225 1.47422 0
M  V30 3971 H 380.247 -3.78675 1.00561 0
M  V30 3972 H 381.944 -3.75917 1.39598 0
M  V30 3973 H 378.534 -3.28757 2.74986 0
M  V30 3974 H 382.718 -3.27337 3.73047 0
M  V30 3975 H 377.974 -3.30562 5.14333 0
M  V30 3976 H 382.148 -3.30338 6.13066 0
M  V30 3977 H 379.775 -3.315 6.84114 0
M  V30 3978 N 381.35 -0.985608 -1.22978 0
M  V30 3979 C 382.627 -0.573599 -1.87001 0
M  V30 3980 C 383.007 0.949213 -1.88555 0
M  V30 3981 O 382.355 1.82811 -1.37086 0
M  V30 3982 C 382.565 -1.18564 -3.28243 0
M  V30 3983 C 383.913 -1.28163 -4.04796 0
M  V30 3984 O 384.937 -1.13949 -3.37482 0
M  V30 3985 O 383.796 -1.50832 -5.25273 0
M  V30 3986 H 380.89 -0.193868 -0.803955 0
M  V30 3987 H 383.436 -1.08102 -1.30813 0
M  V30 3988 H 382.208 -2.22758 -3.21706 0
M  V30 3989 H 381.831 -0.663363 -3.92027 0
M  V30 3990 N 382.828 1.3818 -0.7579 0
M  V30 3991 C 384.074 2.00316 -0.316453 0
M  V30 3992 C 384.407 1.60026 1.10025 0
M  V30 3993 O 383.682 0.839835 1.75434 0
M  V30 3994 C 383.965 3.57349 -0.444245 0
M  V30 3995 C 383.818 4.07591 -1.90236 0
M  V30 3996 C 385.137 4.3981 0.1598 0
M  V30 3997 H 382.256 0.727741 -0.116459 0
M  V30 3998 H 384.898 1.6406 -0.958352 0
M  V30 3999 H 383.048 3.88365 0.102233 0
M  V30 4000 H 384.72 3.87199 -2.50748 0
M  V30 4001 H 382.963 3.60297 -2.41595 0
M  V30 4002 H 383.634 5.16677 -1.94291 0
M  V30 4003 H 386.11 4.14971 -0.306314 0
M  V30 4004 H 384.986 5.48885 0.0401675 0
M  V30 4005 H 385.247 4.24102 1.24859 0
M  V30 4006 N 384.306 0.507319 1.49211 0
M  V30 4007 C 385.256 -0.287112 2.26185 0
M  V30 4008 C 386.24 -0.929983 1.31302 0
M  V30 4009 O 387.432 -0.836538 1.55984 0
M  V30 4010 C 384.561 -1.34718 3.15763 0
M  V30 4011 C 383.647 -0.710235 4.18111 0
M  V30 4012 N 384.038 0.190836 5.0544 0
M  V30 4013 C 382.336 -0.97009 4.35322 0
M  V30 4014 C 383.037 0.55606 5.79036 0
M  V30 4015 N 382.013 -0.0775232 5.43545 0
M  V30 4016 H 385.815 0.406445 2.91076 0
M  V30 4017 H 383.329 0.323814 1.59139 0
M  V30 4018 H 385.326 -1.92982 3.69545 0
M  V30 4019 H 383.986 -2.04235 2.52424 0
M  V30 4020 H 384.997 0.562047 5.14841 0
M  V30 4021 H 381.674 -1.65753 3.83187 0
M  V30 4022 H 383.064 1.2936 6.5933 0
M  V30 4023 N 385.784 -1.5574 0.241426 0
M  V30 4024 C 386.747 -2.19877 -0.647063 0
M  V30 4025 C 387.747 -1.16642 -1.10686 0
M  V30 4026 O 388.937 -1.41757 -1.01245 0
M  V30 4027 C 386.069 -2.83797 -1.88871 0
M  V30 4028 H 387.262 -2.99772 -0.087574 0
M  V30 4029 H 384.815 -1.56298 -0.00813574 0
M  V30 4030 H 385.55 -2.07824 -2.48957 0
M  V30 4031 H 385.335 -3.59414 -1.56728 0
M  V30 4032 H 386.825 -3.32898 -2.52129 0
M  V30 4033 N 387.262 0.0317525 -1.57568 0
M  V30 4034 C 388.51 0.721676 -1.88776 0
M  V30 4035 C 388.831 1.76039 -0.838772 0
M  V30 4036 O 388.101 1.95482 0.127935 0
M  V30 4037 H 386.681 0.269534 -0.696678 0
M  V30 4038 H 389.343 -0.00165879 -1.949 0
M  V30 4039 H 388.439 1.21293 -2.87566 0
M  V30 4040 N 388.74 1.54641 0.303973 0
M  V30 4041 C 389.968 1.77768 1.05858 0
M  V30 4042 C 390.383 0.535722 1.8104 0
M  V30 4043 O 389.74 -0.494337 1.75677 0
M  V30 4044 C 389.791 2.9834 2.04146 0
M  V30 4045 O 389.512 4.17736 1.32015 0
M  V30 4046 C 391.013 3.33832 2.91669 0
M  V30 4047 H 388.233 0.592961 0.314067 0
M  V30 4048 H 390.777 2.01583 0.344149 0
M  V30 4049 H 388.932 2.76742 2.71096 0
M  V30 4050 H 389.346 4.85693 1.97998 0
M  V30 4051 H 390.82 4.21448 3.56491 0
M  V30 4052 H 391.297 2.51857 3.59812 0
M  V30 4053 H 391.903 3.57579 2.30254 0
M  V30 4054 N 390.218 -0.567019 1.47046 0
M  V30 4055 C 391.629 -1.14916 1.47143 0
M  V30 4056 C 391.98 -1.94954 0.220767 0
M  V30 4057 O 391.105 -2.05602 -0.67505 0
M  V30 4058 C 391.7 -2.09069 2.666 0
M  V30 4059 C 390.259 -2.62575 2.69687 0
M  V30 4060 C 389.406 -1.38755 2.40088 0
M  V30 4061 H 392.357 -0.354126 1.54699 0
M  V30 4062 H 392.378 -2.92789 2.43011 0
M  V30 4063 H 391.89 -1.50789 3.57609 0
M  V30 4064 H 389.991 -3.24681 1.82792 0
M  V30 4065 H 390.104 -3.04239 3.70102 0
M  V30 4066 H 388.468 -1.69098 1.90468 0
M  V30 4067 H 389.251 -0.822822 3.33293 0
M  V30 4068 N 391.696 -1.35014 -0.812953 0
M  V30 4069 C 392.626 -1.30069 -1.93919 0
M  V30 4070 C 393.607 -0.176275 -1.69184 0
M  V30 4071 O 394.792 -0.370227 -1.90638 0
M  V30 4072 C 391.922 -1.06547 -3.30552 0
M  V30 4073 C 390.876 -2.15561 -3.69753 0
M  V30 4074 C 390.202 -1.77214 -5.04479 0
M  V30 4075 C 391.502 -3.57476 -3.808 0
M  V30 4076 H 393.196 -2.24303 -1.98314 0
M  V30 4077 H 390.742 -1.07977 -0.952736 0
M  V30 4078 H 392.695 -1.01729 -4.08937 0
M  V30 4079 H 391.419 -0.0875719 -3.26483 0
M  V30 4080 H 390.078 -2.19466 -2.9365 0
M  V30 4081 H 389.726 -0.780589 -4.96906 0
M  V30 4082 H 389.426 -2.50184 -5.31678 0
M  V30 4083 H 390.95 -1.7391 -5.8531 0
M  V30 4084 H 392.364 -3.55929 -4.4943 0
M  V30 4085 H 390.761 -4.29152 -4.19462 0
M  V30 4086 H 391.831 -3.94091 -2.82525 0
M  V30 4087 N 393.175 1.03435 -1.18907 0
M  V30 4088 C 394.105 2.13503 -0.945448 0
M  V30 4089 C 395.086 1.69682 0.119189 0
M  V30 4090 O 396.271 1.94169 -0.034707 0
M  V30 4091 C 393.401 3.44004 -0.477316 0
M  V30 4092 C 392.355 4.0148 -1.48316 0
M  V30 4093 C 391.681 5.27537 -0.872311 0
M  V30 4094 C 392.981 4.36921 -2.86177 0
M  V30 4095 H 394.675 2.34141 -1.86597 0
M  V30 4096 H 392.221 1.12523 -0.898584 0
M  V30 4097 H 394.174 4.20372 -0.294204 0
M  V30 4098 H 392.898 3.23072 0.478786 0
M  V30 4099 H 391.557 3.27201 -1.65332 0
M  V30 4100 H 391.205 5.02917 0.0911752 0
M  V30 4101 H 390.905 5.66954 -1.54393 0
M  V30 4102 H 392.429 6.06576 -0.699871 0
M  V30 4103 H 393.843 5.04248 -2.72776 0
M  V30 4104 H 392.24 4.87405 -3.50081 0
M  V30 4105 H 393.31 3.46466 -3.39248 0
M  V30 4106 N 394.653 0.992116 1.22453 0
M  V30 4107 C 396.064 0.702776 1.72968 0
M  V30 4108 C 396.415 -0.780399 1.80012 0
M  V30 4109 O 395.54 -1.61007 1.44589 0
M  V30 4110 C 396.135 1.26903 3.14135 0
M  V30 4111 C 394.694 1.02909 3.62059 0
M  V30 4112 C 393.841 1.38969 2.39964 0
M  V30 4113 H 396.792 1.16457 1.07812 0
M  V30 4114 H 396.813 0.647223 3.74955 0
M  V30 4115 H 396.325 2.34851 3.08977 0
M  V30 4116 H 394.426 -0.0337979 3.72585 0
M  V30 4117 H 394.539 1.69191 4.48231 0
M  V30 4118 H 392.903 0.808279 2.41535 0
M  V30 4119 H 393.686 2.4792 2.37467 0
M  V30 4120 N 396.131 -1.37776 0.765217 0
M  V30 4121 C 397.371 -2.01691 0.331669 0
M  V30 4122 C 397.735 -1.59432 -1.06983 0
M  V30 4123 O 398.936 -2.15761 -1.60314 0
M  V30 4124 C 397.207 -3.54385 0.463261 0
M  V30 4125 S 398.766 -4.38652 0.114011 0
M  V30 4126 H 395.584 -0.699387 0.127979 0
M  V30 4127 H 398.186 -1.68084 0.998396 0
M  V30 4128 H 396.89 -3.82629 1.48401 0
M  V30 4129 H 396.421 -3.92783 -0.220246 0
M  V30 4130 H 398.436 -4.84021 -1.09261 0
M  V30 4131 N 397.609 -0.515225 -1.4894 0
M  V30 4132 C 398.834 0.022727 -2.07388 0
M  V30 4133 C 399.259 1.2876 -1.37122 0
M  V30 4134 O 398.617 1.76067 -0.432431 0
M  V30 4135 C 398.665 0.244869 -3.59768 0
M  V30 4136 O 397.769 1.31667 -3.90817 0
M  V30 4137 H 397.11 -0.0325506 -0.663202 0
M  V30 4138 H 399.64 -0.718918 -1.91553 0
M  V30 4139 H 399.65 0.47205 -4.0526 0
M  V30 4140 H 398.325 -0.679194 -4.10317 0
M  V30 4141 H 396.902 1.07331 -3.5712 0
M  V30 4142 N 399.087 1.5561 -0.249682 0
M  V30 4143 C 400.312 2.03865 0.381305 0
M  V30 4144 C 400.737 1.12769 1.50548 0
M  V30 4145 O 400.095 0.121189 1.80895 0
M  V30 4146 C 400.143 3.50101 0.863816 0
M  V30 4147 O 399.247 3.62132 1.97318 0
M  V30 4148 H 398.588 0.658827 0.0827194 0
M  V30 4149 H 401.118 2.01105 -0.376552 0
M  V30 4150 H 401.128 3.90975 1.1663 0
M  V30 4151 H 399.803 4.1588 0.0411816 0
M  V30 4152 H 398.38 3.33155 1.67517 0
M  V30 4153 N 400.565 -0.0233959 1.57583 0
M  V30 4154 C 401.793 -0.724682 1.93794 0
M  V30 4155 C 402.208 -1.68588 0.849912 0
M  V30 4156 O 401.565 -1.81676 -0.173204 0
M  V30 4157 C 401.616 -1.47684 3.29957 0
M  V30 4158 O 401.337 -0.554222 4.3458 0
M  V30 4159 C 402.838 -2.27477 3.80485 0
M  V30 4160 H 400.058 -0.203317 0.639455 0
M  V30 4161 H 402.602 0.0207653 2.04489 0
M  V30 4162 H 400.757 -2.17412 3.20641 0
M  V30 4163 H 401.171 -1.08232 5.13212 0
M  V30 4164 H 402.645 -2.7564 4.78254 0
M  V30 4165 H 403.122 -3.09144 3.11972 0
M  V30 4166 H 403.728 -1.62813 3.92902 0
M  V30 4167 N 402.043 -1.548 -0.295768 0
M  V30 4168 C 402.953 -1.89177 -1.38742 0
M  V30 4169 C 403.969 -0.786481 -1.55211 0
M  V30 4170 O 405.145 -1.08344 -1.69775 0
M  V30 4171 C 402.21 -2.13663 -2.73036 0
M  V30 4172 C 401.271 -3.37349 -2.65508 0
M  V30 4173 C 400.504 -3.60658 -3.93398 0
M  V30 4174 O 400.727 -2.86882 -4.93006 0
M  V30 4175 O 399.661 -4.54179 -3.94975 0
M  V30 4176 H 403.487 -2.82059 -1.12589 0
M  V30 4177 H 401.072 -1.41056 -0.492295 0
M  V30 4178 H 402.954 -2.3094 -3.52484 0
M  V30 4179 H 401.629 -1.23967 -2.99022 0
M  V30 4180 H 400.536 -3.25431 -1.84514 0
M  V30 4181 H 401.869 -4.27192 -2.44474 0
M  V30 4182 N 403.521 0.559213 -1.47345 0
M  V30 4183 C 404.469 1.68747 -1.60085 0
M  V30 4184 C 405.463 1.628 -0.46825 0
M  V30 4185 O 406.669 1.68009 -0.645977 0
M  V30 4186 H 403.044 0.558329 -0.503759 0
M  V30 4187 H 405.015 1.55138 -2.54902 0
M  V30 4188 C 403.764 3.07103 -1.63042 0
M  V30 4189 H 403.087 3.12361 -2.49541 0
M  V30 4190 H 404.527 3.85743 -1.76006 0
M  V30 4191 C 402.986 3.34935 -0.363357 0
M  V30 4192 O 403.516 3.98102 0.536416 0
M  V30 4193 N 401.722 2.89574 -0.244 0
M  V30 4194 H 401.269 2.38348 -0.977133 0
M  V30 4195 H 401.227 3.08566 0.602836 0
M  V30 4196 N 404.999 1.35443 0.805782 0
M  V30 4197 C 406.224 1.32037 1.59941 0
M  V30 4198 C 406.649 -0.0994215 1.87837 0
M  V30 4199 O 406.007 -1.06648 1.46615 0
M  V30 4200 C 406.055 2.13354 2.90711 0
M  V30 4201 O 405.159 1.5148 3.83572 0
M  V30 4202 H 404.5 0.452666 0.485787 0
M  V30 4203 H 407.03 1.78496 1.00002 0
M  V30 4204 H 407.04 2.25338 3.40128 0
M  V30 4205 H 405.715 3.16572 2.69732 0
M  V30 4206 H 404.292 1.4834 3.42125 0
M  V30 4207 N 406.477 -1.02803 1.19454 0
M  V30 4208 C 407.425 -2.13213 0.929673 0
M  V30 4209 C 408.419 -1.69011 -0.114806 0
M  V30 4210 O 409.625 -1.79967 0.0345147 0
M  V30 4211 H 406 -0.69662 0.28324 0
M  V30 4212 H 407.971 -2.32744 1.86743 0
M  V30 4213 C 406.72 -3.4429 0.485797 0
M  V30 4214 H 406.043 -3.7872 1.28105 0
M  V30 4215 H 407.483 -4.22638 0.339582 0
M  V30 4216 C 405.942 -3.27258 -0.800244 0
M  V30 4217 O 406.472 -3.55967 -1.86146 0
M  V30 4218 N 404.678 -2.80545 -0.75781 0
M  V30 4219 H 404.225 -2.57382 0.106039 0
M  V30 4220 H 404.183 -2.6953 -1.61867 0
M  V30 4221 N 407.956 -0.998596 -1.21925 0
M  V30 4222 C 408.866 -0.562736 -2.27751 0
M  V30 4223 C 409.882 0.391203 -1.69545 0
M  V30 4224 O 411.058 0.256625 -1.99758 0
M  V30 4225 C 408.123 0.11012 -3.46525 0
M  V30 4226 C 407.184 -0.887495 -4.20026 0
M  V30 4227 C 406.417 -0.246654 -5.3313 0
M  V30 4228 O 406.64 0.958088 -5.62296 0
M  V30 4229 O 405.574 -0.954374 -5.94286 0
M  V30 4230 H 409.4 -1.44329 -2.67213 0
M  V30 4231 H 406.985 -0.767135 -1.28201 0
M  V30 4232 H 408.867 0.486756 -4.18579 0
M  V30 4233 H 407.542 0.965154 -3.08976 0
M  V30 4234 H 406.449 -1.31517 -3.5022 0
M  V30 4235 H 407.782 -1.71191 -4.6147 0
M  V30 4236 N 409.434 1.37368 -0.772513 0
M  V30 4237 C 410.68 1.99969 -0.337681 0
M  V30 4238 C 411.013 1.61184 1.08321 0
M  V30 4239 O 410.288 0.858395 1.74533 0
M  V30 4240 C 410.571 3.56858 -0.482121 0
M  V30 4241 C 410.424 4.0555 -1.94549 0
M  V30 4242 C 411.743 4.39955 0.113143 0
M  V30 4243 H 408.862 0.726464 -0.124171 0
M  V30 4244 H 411.504 1.63034 -0.975699 0
M  V30 4245 H 409.654 3.88452 0.0610361 0
M  V30 4246 H 411.326 3.84518 -2.54841 0
M  V30 4247 H 409.569 3.57715 -2.45403 0
M  V30 4248 H 410.24 5.14587 -1.9976 0
M  V30 4249 H 412.716 4.14623 -0.35031 0
M  V30 4250 H 411.592 5.48897 -0.0180514 0
M  V30 4251 H 411.853 4.25403 1.20354 0
M  V30 4252 N 410.912 0.523116 1.48665 0
M  V30 4253 C 411.844 -0.280421 2.27478 0
M  V30 4254 C 412.857 -0.910694 1.34945 0
M  V30 4255 O 414.046 -0.790295 1.60052 0
M  V30 4256 C 411.146 -1.41171 3.08097 0
M  V30 4257 C 410.319 -0.884642 4.28361 0
M  V30 4258 C 409.378 -1.89622 4.90846 0
M  V30 4259 O 408.404 -1.4559 5.50265 0
M  V30 4260 N 409.606 -3.22801 4.82472 0
M  V30 4261 H 412.371 0.395481 2.97079 0
M  V30 4262 H 409.932 0.357018 1.57915 0
M  V30 4263 H 411.924 -2.08645 3.4677 0
M  V30 4264 H 410.494 -1.99139 2.40961 0
M  V30 4265 H 409.714 -0.0341177 3.94185 0
M  V30 4266 H 411.002 -0.511268 5.06225 0
M  V30 4267 H 410.4 -3.61246 4.35336 0
M  V30 4268 H 408.957 -3.85927 5.25265 0
M  V30 4269 N 412.39 -1.55475 0.257931 0
M  V30 4270 C 413.636 -1.99502 -0.364266 0
M  V30 4271 C 413.969 -1.146 -1.56782 0
M  V30 4272 O 413.244 -0.211968 -1.93342 0
M  V30 4273 C 413.527 -3.51917 -0.763333 0
M  V30 4274 C 413.38 -4.4758 0.446371 0
M  V30 4275 C 414.699 -4.09742 -1.60623 0
M  V30 4276 H 411.818 -0.725277 -0.130929 0
M  V30 4277 H 414.46 -1.8653 0.361446 0
M  V30 4278 H 412.61 -3.63101 -1.38166 0
M  V30 4279 H 414.282 -4.48362 1.08487 0
M  V30 4280 H 412.525 -4.19947 1.08753 0
M  V30 4281 H 413.196 -5.51862 0.123645 0
M  V30 4282 H 415.672 -4.01727 -1.08418 0
M  V30 4283 H 414.548 -5.16631 -1.85429 0
M  V30 4284 H 414.809 -3.58889 -2.58169 0
M  V30 4285 N 413.868 0.0150385 -1.57593 0
M  V30 4286 C 415.279 0.559832 -1.78109 0
M  V30 4287 C 415.63 1.74814 -0.890756 0
M  V30 4288 O 414.755 2.16216 -0.0892482 0
M  V30 4289 C 415.35 1.02238 -3.23006 0
M  V30 4290 C 413.909 1.51258 -3.44671 0
M  V30 4291 C 413.056 0.456955 -2.73509 0
M  V30 4292 H 416.007 -0.211169 -1.57289 0
M  V30 4293 H 416.028 1.88912 -3.30292 0
M  V30 4294 H 415.54 0.157302 -3.87781 0
M  V30 4295 H 413.641 2.39905 -2.8509 0
M  V30 4296 H 413.754 1.55042 -4.5332 0
M  V30 4297 H 412.118 0.915196 -2.37689 0
M  V30 4298 H 412.901 -0.398896 -3.40975 0
M  V30 4299 N 415.346 1.54954 0.287554 0
M  V30 4300 C 416.592 1.76059 1.01856 0
M  V30 4301 C 416.947 0.547056 1.84459 0
M  V30 4302 O 416.24 -0.460442 1.85985 0
M  V30 4303 C 416.434 2.99833 1.94512 0
M  V30 4304 C 416.263 4.33108 1.21026 0
M  V30 4305 C 415.033 4.96632 0.931896 0
M  V30 4306 C 417.231 5.10694 0.607949 0
M  V30 4307 N 415.213 6.13668 0.168716 0
M  V30 4308 C 416.584 6.19996 -0.0217865 0
M  V30 4309 C 418.639 4.95236 0.514338 0
M  V30 4310 C 417.342 7.15524 -0.736092 0
M  V30 4311 C 419.368 5.91106 -0.186343 0
M  V30 4312 C 418.73 6.99786 -0.804875 0
M  V30 4313 H 414.829 0.696679 0.355193 0
M  V30 4314 H 417.413 1.92441 0.295741 0
M  V30 4315 H 415.584 2.84853 2.64033 0
M  V30 4316 H 417.316 3.09405 2.60865 0
M  V30 4317 H 414.071 4.57255 1.23348 0
M  V30 4318 H 414.495 6.76705 -0.199781 0
M  V30 4319 H 419.137 4.11328 0.978234 0
M  V30 4320 H 416.855 7.98964 -1.21172 0
M  V30 4321 H 420.441 5.81224 -0.258897 0
M  V30 4322 H 419.321 7.72694 -1.33843 0
M  V30 4323 N 416.824 -0.551391 1.4764 0
M  V30 4324 C 418.072 -1.30572 1.54258 0
M  V30 4325 C 418.393 -1.93877 0.208963 0
M  V30 4326 O 417.663 -1.80234 -0.767619 0
M  V30 4327 H 416.243 -0.484894 0.568231 0
M  V30 4328 H 418.905 -0.643402 1.83974 0
M  V30 4329 H 418.001 -2.09621 2.31226 0
M  V30 4330 N 418.302 -1.35869 -0.798587 0
M  V30 4331 C 419.249 -1.29446 -1.91082 0
M  V30 4332 C 420.219 -0.16487 -1.6528 0
M  V30 4333 O 421.404 -0.349888 -1.87564 0
M  V30 4334 C 418.544 -1.0804 -3.27752 0
M  V30 4335 C 417.657 -2.29993 -3.65687 0
M  V30 4336 C 416.792 -2.01673 -4.91428 0
M  V30 4337 C 415.831 -3.19636 -5.22015 0
M  V30 4338 N 414.968 -2.91039 -6.38937 0
M  V30 4339 H 419.808 -2.24553 -1.95907 0
M  V30 4340 H 417.345 -1.11615 -0.958148 0
M  V30 4341 H 419.303 -0.936586 -4.06551 0
M  V30 4342 H 417.933 -0.16592 -3.22373 0
M  V30 4343 H 416.985 -2.55211 -2.82085 0
M  V30 4344 H 418.297 -3.18052 -3.84245 0
M  V30 4345 H 417.451 -1.84168 -5.78072 0
M  V30 4346 H 416.19 -1.10911 -4.74921 0
M  V30 4347 H 415.195 -3.37709 -4.33858 0
M  V30 4348 H 416.42 -4.11211 -5.40447 0
M  V30 4349 H 414.366 -2.0288 -6.2384 0
M  V30 4350 H 414.283 -3.72635 -6.57784 0
M  V30 4351 H 415.551 -2.77093 -7.28587 0
M  V30 4352 N 419.78 1.02168 -1.19998 0
M  V30 4353 C 421.028 1.75338 -1.00504 0
M  V30 4354 C 421.349 1.89387 0.464506 0
M  V30 4355 O 420.619 1.43268 1.33608 0
M  V30 4356 H 419.199 0.649564 -0.368885 0
M  V30 4357 H 421.861 1.23205 -1.51018 0
M  V30 4358 H 420.957 2.75892 -1.45912 0
M  V30 4359 N 421.258 1.00505 1.21394 0
M  V30 4360 C 422.507 0.683159 1.89778 0
M  V30 4361 C 422.82 -0.789471 1.7896 0
M  V30 4362 O 424.026 -1.22344 2.42372 0
M  V30 4363 C 422.482 1.17146 3.40301 0
M  V30 4364 C 422.09 2.67017 3.5973 0
M  V30 4365 C 423.834 0.924461 4.14311 0
M  V30 4366 C 421.741 3.09387 5.04017 0
M  V30 4367 H 420.671 0.25183 0.710702 0
M  V30 4368 H 423.322 1.21622 1.37406 0
M  V30 4369 H 421.704 0.566451 3.91928 0
M  V30 4370 H 422.878 3.32968 3.18542 0
M  V30 4371 H 421.193 2.89732 2.99073 0
M  V30 4372 H 423.79 1.21658 5.20676 0
M  V30 4373 H 424.133 -0.139286 4.16067 0
M  V30 4374 H 424.666 1.49226 3.6875 0
M  V30 4375 H 421.405 4.14989 5.07409 0
M  V30 4376 H 420.925 2.48149 5.46061 0
M  V30 4377 H 422.604 3.01371 5.72525 0
M  V30 4378 N 422.737 -1.36956 0.779787 0
M  V30 4379 C 423.986 -1.98738 0.344405 0
M  V30 4380 C 424.299 -1.62596 -1.08728 0
M  V30 4381 O 425.505 -2.1754 -1.62445 0
M  V30 4382 C 423.961 -3.5544 0.564829 0
M  V30 4383 C 423.569 -4.00514 2.0073 0
M  V30 4384 C 425.313 -4.24059 0.193471 0
M  V30 4385 C 423.22 -5.49957 2.17489 0
M  V30 4386 H 422.15 -0.743561 0.12503 0
M  V30 4387 H 424.801 -1.56381 0.960057 0
M  V30 4388 H 423.183 -3.95817 -0.120397 0
M  V30 4389 H 424.357 -3.71362 2.72814 0
M  V30 4390 H 422.672 -3.44703 2.336 0
M  V30 4391 H 425.269 -5.33874 0.297097 0
M  V30 4392 H 425.612 -4.07378 -0.857263 0
M  V30 4393 H 426.145 -3.89012 0.831556 0
M  V30 4394 H 422.884 -5.71574 3.2091 0
M  V30 4395 H 422.404 -5.80767 1.49899 0
M  V30 4396 H 424.083 -6.16043 1.97738 0
M  V30 4397 N 424.215 -0.530993 -1.48385 0
M  V30 4398 C 425.463 0.00273189 -2.021 0
M  V30 4399 C 425.784 1.34672 -1.41027 0
M  V30 4400 O 425.054 1.8724 -0.576012 0
M  V30 4401 H 423.634 0.00399774 -0.746989 0
M  V30 4402 H 426.296 -0.695054 -1.82085 0
M  V30 4403 H 425.392 0.11031 -3.11905 0
M  V30 4404 N 425.693 1.55336 -0.266172 0
M  V30 4405 C 426.923 2.03506 0.356239 0
M  V30 4406 C 427.331 1.14426 1.50676 0
M  V30 4407 O 426.674 0.155043 1.83045 0
M  V30 4408 C 426.736 3.47848 0.90785 0
M  V30 4409 C 426.4 4.56861 -0.112888 0
M  V30 4410 C 427.397 5.11528 -0.929264 0
M  V30 4411 C 425.082 5.01704 -0.244546 0
M  V30 4412 C 427.076 6.09549 -1.86357 0
M  V30 4413 C 424.763 5.99553 -1.18234 0
M  V30 4414 C 425.761 6.53356 -1.99036 0
M  V30 4415 O 425.449 7.49293 -2.91231 0
M  V30 4416 H 425.181 0.670444 0.08649 0
M  V30 4417 H 427.735 2.01598 -0.39337 0
M  V30 4418 H 425.965 3.46967 1.70737 0
M  V30 4419 H 427.654 3.79407 1.44239 0
M  V30 4420 H 428.42 4.77701 -0.838237 0
M  V30 4421 H 424.299 4.59477 0.374359 0
M  V30 4422 H 427.843 6.51469 -2.49467 0
M  V30 4423 H 423.74 6.32799 -1.27421 0
M  V30 4424 H 424.508 7.66978 -2.8581 0
M  V30 4425 N 427.171 -0.0066808 1.57599 0
M  V30 4426 C 428.417 -0.693947 1.90558 0
M  V30 4427 C 428.75 -1.73792 0.866594 0
M  V30 4428 O 428.025 -1.94156 -0.115548 0
M  V30 4429 C 428.308 -1.34317 3.34112 0
M  V30 4430 C 428.161 -0.311189 4.48722 0
M  V30 4431 C 429.48 -2.27116 3.7697 0
M  V30 4432 H 426.599 -0.250803 0.693013 0
M  V30 4433 H 429.241 0.043242 1.89951 0
M  V30 4434 H 427.391 -1.9715 3.3476 0
M  V30 4435 H 429.063 0.316944 4.6021 0
M  V30 4436 H 427.306 0.367253 4.32243 0
M  V30 4437 H 427.977 -0.804366 5.46108 0
M  V30 4438 H 430.453 -1.74306 3.77831 0
M  V30 4439 H 429.329 -2.69511 4.78179 0
M  V30 4440 H 429.59 -3.14743 3.10466 0
M  V30 4441 N 428.649 -1.55105 -0.279332 0
M  V30 4442 C 429.897 -1.75066 -1.00977 0
M  V30 4443 C 430.218 -0.551276 -1.87045 0
M  V30 4444 O 429.488 0.433984 -1.91032 0
M  V30 4445 H 428.068 -0.645578 -0.375816 0
M  V30 4446 H 430.73 -1.92497 -0.305089 0
M  V30 4447 H 429.826 -2.64894 -1.65038 0
M  V30 4448 N 430.127 0.543554 -1.4793 0
M  V30 4449 C 431.037 1.67657 -1.64098 0
M  V30 4450 C 432.053 1.65934 -0.523622 0
M  V30 4451 O 433.229 1.85133 -0.792943 0
M  V30 4452 C 430.294 3.04146 -1.66421 0
M  V30 4453 C 429.355 3.16831 -2.89684 0
M  V30 4454 C 428.588 4.46809 -2.91886 0
M  V30 4455 O 428.811 5.33095 -2.02895 0
M  V30 4456 O 427.745 4.63573 -3.83906 0
M  V30 4457 H 431.571 1.56957 -2.59997 0
M  V30 4458 H 429.156 0.715116 -1.31173 0
M  V30 4459 H 431.038 3.85346 -1.70548 0
M  V30 4460 H 429.713 3.152 -0.736923 0
M  V30 4461 H 428.62 2.34977 -2.91095 0
M  V30 4462 H 429.953 3.10687 -3.81752 0
M  V30 4463 N 431.605 1.3629 0.791371 0
M  V30 4464 C 432.555 1.26988 1.89362 0
M  V30 4465 C 433.539 0.161795 1.60084 0
M  V30 4466 O 434.731 0.394426 1.72549 0
M  V30 4467 C 431.86 1.05944 3.26544 0
M  V30 4468 C 430.946 2.21211 3.61838 0
M  V30 4469 N 431.337 3.46518 3.68455 0
M  V30 4470 C 429.635 2.12933 3.91887 0
M  V30 4471 C 430.336 4.2241 3.99931 0
M  V30 4472 N 429.312 3.51329 4.14812 0
M  V30 4473 H 433.114 2.21908 1.92702 0
M  V30 4474 H 430.628 1.28982 0.986787 0
M  V30 4475 H 432.625 0.973666 4.05371 0
M  V30 4476 H 431.285 0.119223 3.24481 0
M  V30 4477 H 432.296 3.80677 3.51148 0
M  V30 4478 H 428.973 1.26855 3.97761 0
M  V30 4479 H 430.363 5.30767 4.1199 0
M  V30 4480 N 433.083 -1.0153 1.20538 0
M  V30 4481 C 434.331 -1.74803 1.01432 0
M  V30 4482 C 434.652 -1.8963 -0.454456 0
M  V30 4483 O 433.922 -1.43975 -1.32846 0
M  V30 4484 H 432.502 -0.647598 0.372324 0
M  V30 4485 H 435.164 -1.22402 1.5167 0
M  V30 4486 H 434.26 -2.75114 1.47373 0
M  V30 4487 N 434.561 -1.01147 -1.20859 0
M  V30 4488 C 435.471 -0.58686 -2.27141 0
M  V30 4489 C 436.487 0.373198 -1.69951 0
M  V30 4490 O 437.663 0.235423 -2.00019 0
M  V30 4491 C 434.728 0.0733602 -3.46622 0
M  V30 4492 C 433.789 -0.931995 -4.19061 0
M  V30 4493 C 433.022 -0.303186 -5.32838 0
M  V30 4494 O 433.245 0.898395 -5.63281 0
M  V30 4495 O 432.179 -1.01735 -5.9324 0
M  V30 4496 H 436.005 -1.47155 -2.65667 0
M  V30 4497 H 433.59 -0.780689 -1.2738 0
M  V30 4498 H 435.472 0.442333 -4.19072 0
M  V30 4499 H 434.147 0.932329 -3.09983 0
M  V30 4500 H 433.054 -1.35224 -3.48805 0
M  V30 4501 H 434.387 -1.76076 -4.59628 0
M  V30 4502 N 436.039 1.36541 -0.78704 0
M  V30 4503 C 437.267 2.03561 -0.370199 0
M  V30 4504 C 437.682 1.59347 1.01263 0
M  V30 4505 O 437.039 0.781781 1.64907 0
M  V30 4506 C 437.09 3.59033 -0.421614 0
M  V30 4507 O 436.811 4.01634 -1.7499 0
M  V30 4508 C 438.312 4.433 0.00489763 0
M  V30 4509 H 435.532 0.653346 -0.152904 0
M  V30 4510 H 438.076 1.74566 -1.06522 0
M  V30 4511 H 436.231 3.86746 0.224971 0
M  V30 4512 H 436.645 4.96217 -1.69909 0
M  V30 4513 H 438.119 5.51939 -0.0822184 0
M  V30 4514 H 438.596 4.26285 1.05723 0
M  V30 4515 H 439.202 4.20843 -0.614085 0
M  V30 4516 N 437.518 0.538854 1.48102 0
M  V30 4517 C 438.764 0.00801365 2.02798 0
M  V30 4518 C 439.097 -1.3309 1.41424 0
M  V30 4519 O 438.372 -1.86169 0.563158 0
M  V30 4520 C 438.655 -0.104589 3.59948 0
M  V30 4521 C 438.508 1.26012 4.31788 0
M  V30 4522 C 439.827 -0.827055 4.32259 0
M  V30 4523 H 436.946 0.00438624 0.736987 0
M  V30 4524 H 439.588 0.6976 1.7673 0
M  V30 4525 H 437.738 -0.691893 3.82289 0
M  V30 4526 H 439.41 1.88922 4.2084 0
M  V30 4527 H 437.653 1.83968 3.92859 0
M  V30 4528 H 438.324 1.13424 5.40221 0
M  V30 4529 H 440.8 -0.328578 4.14801 0
M  V30 4530 H 439.676 -0.87476 5.41885 0
M  V30 4531 H 439.937 -1.87927 4.0017 0
M  V30 4532 N 438.996 -1.55193 0.274407 0
M  V30 4533 C 439.944 -2.23924 -0.629362 0
M  V30 4534 C 440.938 -1.23602 -1.1584 0
M  V30 4535 O 442.144 -1.41535 -1.11211 0
M  V30 4536 H 438.519 -0.718637 -0.221507 0
M  V30 4537 H 440.49 -2.98388 -0.0268322 0
M  V30 4538 C 439.239 -2.97329 -1.80252 0
M  V30 4539 H 438.562 -3.74313 -1.40462 0
M  V30 4540 H 440.002 -3.48743 -2.41152 0
M  V30 4541 C 438.461 -2.0276 -2.69054 0
M  V30 4542 O 438.991 -1.57836 -3.69392 0
M  V30 4543 N 437.197 -1.69275 -2.36208 0
M  V30 4544 H 436.744 -2.06004 -1.54661 0
M  V30 4545 H 436.702 -1.06271 -2.95895 0
M  V30 4546 N 440.474 -0.00167713 -1.576 0
M  V30 4547 C 441.723 0.682021 -1.89819 0
M  V30 4548 C 442.036 1.74844 -0.876871 0
M  V30 4549 O 443.242 2.48688 -1.08934 0
M  V30 4550 C 441.698 1.26425 -3.36964 0
M  V30 4551 C 441.306 0.232568 -4.47396 0
M  V30 4552 C 443.05 1.92604 -3.78291 0
M  V30 4553 C 440.957 0.824882 -5.85619 0
M  V30 4554 H 439.887 0.258499 -0.708304 0
M  V30 4555 H 442.538 -0.0624957 -1.83394 0
M  V30 4556 H 440.92 2.05949 -3.38232 0
M  V30 4557 H 442.094 -0.5382 -4.57646 0
M  V30 4558 H 440.409 -0.32888 -4.15099 0
M  V30 4559 H 443.006 2.37827 -4.78897 0
M  V30 4560 H 443.349 2.75732 -3.11894 0
M  V30 4561 H 443.882 1.19812 -3.79328 0
M  V30 4562 H 440.621 0.0323542 -6.55492 0
M  V30 4563 H 440.141 1.56477 -5.79029 0
M  V30 4564 H 441.82 1.32301 -6.33329 0
M  V30 4565 N 441.952 1.55251 0.271103 0
M  V30 4566 C 443.363 1.66635 0.842007 0
M  V30 4567 C 443.714 0.594631 1.86972 0
M  V30 4568 O 442.839 -0.263532 2.14789 0
M  V30 4569 C 443.434 3.02082 1.53401 0
M  V30 4570 C 441.993 3.15487 2.05293 0
M  V30 4571 C 441.14 2.62438 0.895631 0
M  V30 4572 H 444.091 1.58629 0.0474117 0
M  V30 4573 H 444.112 2.95176 2.40107 0
M  V30 4574 H 443.624 3.80062 0.785786 0
M  V30 4575 H 441.725 2.42284 2.83071 0
M  V30 4576 H 441.838 4.22075 2.26693 0
M  V30 4577 H 440.202 2.19644 1.28953 0
M  V30 4578 H 440.985 3.42923 0.160878 0
M  V30 4579 N 443.43 -0.535701 1.48216 0
M  V30 4580 C 444.707 -1.29683 1.46429 0
M  V30 4581 C 445.087 -2.10391 0.172852 0
M  V30 4582 O 444.435 -2.12282 -0.845488 0
M  V30 4583 C 444.645 -2.18313 2.72287 0
M  V30 4584 C 445.993 -2.78639 3.20383 0
M  V30 4585 O 447.017 -2.28604 2.73164 0
M  V30 4586 O 445.876 -3.69636 4.02531 0
M  V30 4587 H 442.97 -0.585026 0.584529 0
M  V30 4588 H 445.516 -0.552827 1.60443 0
M  V30 4589 H 444.288 -1.58421 3.57797 0
M  V30 4590 H 443.911 -2.99971 2.60966 0
M  V30 4591 N 444.908 -1.36708 -0.784132 0
M  V30 4592 C 445.871 -1.31307 -1.87859 0
M  V30 4593 C 446.871 -0.219654 -1.59293 0
M  V30 4594 O 448.061 -0.47476 -1.67606 0
M  V30 4595 C 445.193 -1.03679 -3.24751 0
M  V30 4596 H 446.386 -2.28647 -1.94064 0
M  V30 4597 H 443.939 -1.21558 -0.98252 0
M  V30 4598 H 444.674 -0.0681936 -3.24228 0
M  V30 4599 H 444.459 -1.82811 -3.46876 0
M  V30 4600 H 445.949 -1.02518 -4.04821 0
M  V30 4601 N 446.386 1.0089 -1.21074 0
M  V30 4602 C 447.616 1.77933 -1.04993 0
M  V30 4603 C 448.024 1.84847 0.403495 0
M  V30 4604 O 447.367 1.30606 1.29181 0
M  V30 4605 C 447.429 3.23541 -1.56722 0
M  V30 4606 C 447.093 3.40214 -3.05129 0
M  V30 4607 C 448.09 3.2881 -4.02716 0
M  V30 4608 C 445.775 3.65781 -3.44252 0
M  V30 4609 C 447.769 3.42732 -5.37414 0
M  V30 4610 C 445.456 3.79346 -4.79103 0
M  V30 4611 C 446.454 3.67827 -5.75493 0
M  V30 4612 O 446.142 3.80965 -7.07899 0
M  V30 4613 H 445.874 0.566157 -0.369381 0
M  V30 4614 H 448.428 1.27826 -1.60779 0
M  V30 4615 H 446.658 3.74766 -0.953285 0
M  V30 4616 H 448.347 3.82245 -1.36543 0
M  V30 4617 H 449.113 3.08986 -3.73835 0
M  V30 4618 H 444.992 3.73831 -2.69762 0
M  V30 4619 H 448.536 3.33658 -6.12632 0
M  V30 4620 H 444.433 3.98672 -5.07672 0
M  V30 4621 H 445.201 3.97937 -7.15254 0
M  V30 4622 N 447.864 1.01787 1.20321 0
M  V30 4623 C 448.796 0.547357 2.22568 0
M  V30 4624 C 449.809 -0.370922 1.58518 0
M  V30 4625 O 450.998 -0.169067 1.77698 0
M  V30 4626 C 448.098 -0.223031 3.38165 0
M  V30 4627 C 447.271 0.697472 4.31803 0
M  V30 4628 C 446.33 -0.025562 5.26194 0
M  V30 4629 O 445.356 0.597367 5.66057 0
M  V30 4630 N 446.558 -1.29999 5.65757 0
M  V30 4631 H 449.323 1.42668 2.63564 0
M  V30 4632 H 446.884 0.895552 1.34876 0
M  V30 4633 H 448.876 -0.716002 3.98316 0
M  V30 4634 H 447.446 -1.00366 2.9605 0
M  V30 4635 H 446.666 1.37073 3.69601 0
M  V30 4636 H 447.954 1.32347 4.91286 0
M  V30 4637 H 447.352 -1.827 5.35385 0
M  V30 4638 H 445.909 -1.73766 6.28211 0
M  V30 4639 N 449.342 -1.36122 0.79427 0
M  V30 4640 C 450.619 -1.93398 0.292685 0
M  V30 4641 C 450.999 -1.72567 -1.21589 0
M  V30 4642 O 450.347 -1.08745 -2.00965 0
M  V30 4643 C 450.557 -3.42099 0.690614 0
M  V30 4644 C 451.905 -4.19231 0.673105 0
M  V30 4645 O 452.929 -3.50559 0.631389 0
M  V30 4646 O 451.788 -5.41732 0.720362 0
M  V30 4647 H 448.882 -0.823712 0.0736693 0
M  V30 4648 H 451.428 -1.45273 0.87714 0
M  V30 4649 H 450.2 -3.50938 1.73085 0
M  V30 4650 H 449.823 -3.97519 0.0803036 0
M  V30 4651 N 450.82 -0.546701 -1.47814 0
M  V30 4652 C 452.236 -0.205717 -1.58269 0
M  V30 4653 C 452.436 1.29153 -1.54667 0
M  V30 4654 O 451.492 2.07098 -1.44453 0
M  V30 4655 C 452.805 -0.823065 -2.89216 0
M  V30 4656 C 454.353 -0.793328 -3.02779 0
M  V30 4657 C 454.828 -1.38955 -4.36412 0
M  V30 4658 N 456.319 -1.35227 -4.43021 0
M  V30 4659 C 457.054 -1.78333 -5.44963 0
M  V30 4660 N 456.55 -2.29246 -6.53772 0
M  V30 4661 N 458.343 -1.69467 -5.35945 0
M  V30 4662 H 450.494 -1.5196 -1.48398 0
M  V30 4663 H 452.757 -0.633078 -0.705632 0
M  V30 4664 H 452.463 -1.8749 -2.97558 0
M  V30 4665 H 452.337 -0.309915 -3.75925 0
M  V30 4666 H 454.724 0.249784 -2.94041 0
M  V30 4667 H 454.805 -1.34412 -2.17639 0
M  V30 4668 H 454.449 -2.43168 -4.45906 0
M  V30 4669 H 454.379 -0.814291 -5.20266 0
M  V30 4670 H 456.87 -0.979739 -3.64979 0
M  V30 4671 H 457.183 -2.60089 -7.27718 0
M  V30 4672 H 455.528 -2.3325 -6.5469 0
M  V30 4673 H 458.719 -1.29477 -4.49837 0
M  V30 4674 H 458.892 -2.03381 -6.15256 0
M  V30 4675 N 452.299 1.55045 -0.282633 0
M  V30 4676 C 453.715 1.59441 0.0712997 0
M  V30 4677 C 453.915 1.2998 1.53972 0
M  V30 4678 O 452.971 1.06431 2.28973 0
M  V30 4679 C 454.284 2.99097 -0.310104 0
M  V30 4680 C 455.832 3.1194 -0.257343 0
M  V30 4681 C 456.307 4.53875 -0.613297 0
M  V30 4682 N 457.798 4.5974 -0.565134 0
M  V30 4683 C 458.533 5.67603 -0.81326 0
M  V30 4684 N 458.029 6.83582 -1.1264 0
M  V30 4685 N 459.822 5.57187 -0.741553 0
M  V30 4686 H 451.973 1.72458 -1.23984 0
M  V30 4687 H 454.236 0.804549 -0.501403 0
M  V30 4688 H 453.942 3.25516 -1.33163 0
M  V30 4689 H 453.816 3.75616 0.345366 0
M  V30 4690 H 456.203 2.85281 0.754905 0
M  V30 4691 H 456.284 2.37618 -0.947178 0
M  V30 4692 H 455.928 4.81261 -1.62327 0
M  V30 4693 H 455.858 5.26508 0.09841 0
M  V30 4694 H 458.349 3.76427 -0.333294 0
M  V30 4695 H 458.662 7.6175 -1.30219 0
M  V30 4696 H 457.007 6.85179 -1.16425 0
M  V30 4697 H 460.198 4.65457 -0.496705 0
M  V30 4698 H 460.371 6.41171 -0.938306 0
M  V30 4699 N 453.777 0.010035 1.57597 0
M  V30 4700 C 455.024 -0.6727 1.91 0
M  V30 4701 C 455.352 -1.73219 0.884614 0
M  V30 4702 O 454.607 -1.95395 -0.109215 0
M  V30 4703 C 454.906 -1.34434 3.31153 0
M  V30 4704 C 454.572 -0.417083 4.48967 0
M  V30 4705 C 453.234 -0.161809 4.80928 0
M  V30 4706 C 455.586 0.220753 5.20732 0
M  V30 4707 C 452.914 0.739426 5.82022 0
M  V30 4708 C 455.266 1.10993 6.22787 0
M  V30 4709 C 453.93 1.37428 6.532 0
M  V30 4710 H 453.2 -0.246158 0.698918 0
M  V30 4711 H 455.847 0.0677145 1.9138 0
M  V30 4712 H 454.152 -2.15905 3.26944 0
M  V30 4713 H 455.849 -1.87883 3.54261 0
M  V30 4714 H 452.439 -0.626217 4.24001 0
M  V30 4715 H 456.623 0.0365643 4.96287 0
M  V30 4716 H 451.879 0.952139 6.03941 0
M  V30 4717 H 456.053 1.61046 6.77523 0
M  V30 4718 H 453.68 2.0743 7.31353 0
M  V30 4719 N 455.255 -1.55392 -0.262866 0
M  V30 4720 C 456.203 -1.8977 -1.345 0
M  V30 4721 C 457.197 -0.775063 -1.50629 0
M  V30 4722 O 458.403 -0.959519 -1.52293 0
M  V30 4723 H 454.778 -0.602467 -0.450041 0
M  V30 4724 H 456.749 -2.80147 -1.02762 0
M  V30 4725 C 455.498 -2.19501 -2.69657 0
M  V30 4726 H 454.821 -3.05378 -2.5804 0
M  V30 4727 H 456.261 -2.47469 -3.44289 0
M  V30 4728 C 454.72 -1.00597 -3.21531 0
M  V30 4729 O 455.25 -0.245768 -4.00947 0
M  V30 4730 N 453.456 -0.800911 -2.79345 0
M  V30 4731 H 453.003 -1.42079 -2.14875 0
M  V30 4732 H 452.961 -0.00697996 -3.14399 0
M  V30 4733 N 456.733 0.527833 -1.48498 0
M  V30 4734 C 458.01 1.28905 -1.47115 0
M  V30 4735 C 458.39 2.10297 -0.184007 0
M  V30 4736 O 457.738 2.12728 0.834218 0
M  V30 4737 C 457.948 2.16866 -2.73441 0
M  V30 4738 C 459.296 2.76936 -3.21857 0
M  V30 4739 O 460.32 2.27152 -2.74373 0
M  V30 4740 O 459.179 3.67496 -4.04486 0
M  V30 4741 H 456.273 0.581918 -0.587623 0
M  V30 4742 H 458.819 0.544311 -1.60734 0
M  V30 4743 H 457.591 1.56521 -3.58632 0
M  V30 4744 H 457.214 2.98583 -2.62553 0
M  V30 4745 N 458.211 1.37122 0.776871 0
M  V30 4746 C 459.121 1.34651 1.9211 0
M  V30 4747 C 460.137 0.246824 1.7224 0
M  V30 4748 O 461.313 0.48134 1.95563 0
M  V30 4749 C 458.378 1.14748 3.2716 0
M  V30 4750 C 457.439 2.34308 3.5972 0
M  V30 4751 C 456.672 2.15345 4.88326 0
M  V30 4752 O 456.895 1.13507 5.58992 0
M  V30 4753 O 455.829 3.03414 5.1983 0
M  V30 4754 H 459.655 2.31013 1.97146 0
M  V30 4755 H 457.24 1.17799 0.918901 0
M  V30 4756 H 459.122 1.05616 4.0795 0
M  V30 4757 H 457.797 0.214562 3.22988 0
M  V30 4758 H 456.704 2.49011 2.79185 0
M  V30 4759 H 458.037 3.26149 3.68629 0
M  V30 4760 N 459.689 -1.00246 1.21608 0
M  V30 4761 C 460.938 -1.73476 1.02902 0
M  V30 4762 C 461.251 -1.90643 -0.437561 0
M  V30 4763 O 462.457 -2.61105 -0.74407 0
M  V30 4764 C 460.913 -3.12079 1.79261 0
M  V30 4765 C 460.521 -3.02877 3.30106 0
M  V30 4766 C 462.265 -3.89421 1.68972 0
M  V30 4767 C 460.172 -4.36575 3.98944 0
M  V30 4768 H 459.102 -0.650408 0.381425 0
M  V30 4769 H 461.753 -1.11985 1.45367 0
M  V30 4770 H 460.135 -3.74196 1.2959 0
M  V30 4771 H 461.309 -2.49983 3.87098 0
M  V30 4772 H 459.624 -2.39022 3.40965 0
M  V30 4773 H 462.221 -4.88362 2.17731 0
M  V30 4774 H 462.564 -4.1122 0.648397 0
M  V30 4775 H 463.097 -3.33963 2.16133 0
M  V30 4776 H 459.836 -4.19978 5.03288 0
M  V30 4777 H 459.356 -4.8942 3.4674 0
M  V30 4778 H 461.035 -5.05364 4.04 0
M  V30 4779 N 461.167 -1.02423 -1.1978 0
M  V30 4780 C 462.444 -0.632802 -1.85081 0
M  V30 4781 C 462.824 0.888745 -1.9148 0
M  V30 4782 O 462.172 1.78357 -1.42832 0
M  V30 4783 C 462.382 -1.28947 -3.24305 0
M  V30 4784 C 463.73 -1.40976 -4.00513 0
M  V30 4785 O 464.754 -1.24628 -3.33686 0
M  V30 4786 O 463.613 -1.67467 -5.20209 0
M  V30 4787 H 460.707 -0.219348 -0.79738 0
M  V30 4788 H 463.253 -1.12209 -1.27307 0
M  V30 4789 H 462.025 -2.3288 -3.14456 0
M  V30 4790 H 461.648 -0.787748 -3.89718 0
M  V30 4791 N 462.645 1.35699 -0.801477 0
M  V30 4792 C 463.592 2.29876 -0.206294 0
M  V30 4793 C 464.562 1.52565 0.656752 0
M  V30 4794 O 465.747 1.81024 0.602906 0
M  V30 4795 C 462.887 3.39052 0.643272 0
M  V30 4796 C 462 4.31335 -0.239644 0
M  V30 4797 C 461.135 5.27599 0.61744 0
M  V30 4798 C 460.174 6.11521 -0.26619 0
M  V30 4799 N 459.311 6.99938 0.550571 0
M  V30 4800 H 464.151 2.80187 -1.01484 0
M  V30 4801 H 461.688 1.37902 -0.511997 0
M  V30 4802 H 463.646 4.0101 1.15094 0
M  V30 4803 H 462.276 2.9003 1.41713 0
M  V30 4804 H 461.328 3.70426 -0.865381 0
M  V30 4805 H 462.64 4.90243 -0.919985 0
M  V30 4806 H 461.794 5.94906 1.19045 0
M  V30 4807 H 460.533 4.69176 1.33137 0
M  V30 4808 H 459.538 5.43166 -0.851507 0
M  V30 4809 H 460.763 6.72022 -0.9779 0
M  V30 4810 H 458.709 6.44008 1.24856 0
M  V30 4811 H 458.626 7.55966 -0.071832 0
M  V30 4812 H 459.894 7.71599 1.10702 0
M  V30 4813 N 464.123 0.554532 1.47522 0
M  V30 4814 C 465.053 -0.182974 2.32782 0
M  V30 4815 C 466.034 -0.911377 1.43624 0
M  V30 4816 O 467.219 -0.892366 1.72483 0
M  V30 4817 C 464.349 -1.21513 3.25349 0
M  V30 4818 C 463.303 -0.603355 4.23726 0
M  V30 4819 C 462.629 -1.73995 5.05598 0
M  V30 4820 C 463.929 0.441121 5.20434 0
M  V30 4821 H 465.623 0.52882 2.94693 0
M  V30 4822 H 463.169 0.255759 1.41711 0
M  V30 4823 H 465.122 -1.73922 3.83835 0
M  V30 4824 H 463.846 -1.95683 2.61487 0
M  V30 4825 H 462.505 -0.10059 3.66462 0
M  V30 4826 H 462.153 -2.47063 4.38143 0
M  V30 4827 H 461.853 -1.3364 5.72201 0
M  V30 4828 H 463.377 -2.26735 5.66942 0
M  V30 4829 H 464.791 0.00319931 5.733 0
M  V30 4830 H 463.188 0.763402 5.95224 0
M  V30 4831 H 464.258 1.33799 4.66075 0
M  V30 4832 N 465.601 -1.54893 0.290851 0
M  V30 4833 C 466.829 -2.04343 -0.324288 0
M  V30 4834 C 467.244 -1.16859 -1.48289 0
M  V30 4835 O 466.601 -0.192018 -1.81487 0
M  V30 4836 C 466.652 -3.52756 -0.79026 0
M  V30 4837 O 466.373 -4.36913 0.322213 0
M  V30 4838 C 467.874 -4.18161 -1.4716 0
M  V30 4839 H 465.094 -0.667135 -0.0719173 0
M  V30 4840 H 467.638 -1.99981 0.427529 0
M  V30 4841 H 465.793 -3.57511 -1.49213 0
M  V30 4842 H 466.207 -5.24486 -0.0387372 0
M  V30 4843 H 467.681 -5.23562 -1.7489 0
M  V30 4844 H 468.158 -3.67282 -2.40834 0
M  V30 4845 H 468.764 -4.17454 -0.813178 0
M  V30 4846 N 467.08 -0.0183926 -1.57589 0
M  V30 4847 C 468.328 0.661253 -1.90976 0
M  V30 4848 C 468.649 1.73281 -0.894353 0
M  V30 4849 O 467.919 1.9579 0.0656788 0
M  V30 4850 H 466.499 0.247233 -0.704901 0
M  V30 4851 H 469.161 -0.0636639 -1.94796 0
M  V30 4852 H 468.257 1.12083 -2.9128 0
M  V30 4853 N 468.558 1.5553 0.254621 0
M  V30 4854 C 469.788 1.80784 1.00004 0
M  V30 4855 C 470.196 0.59071 1.79742 0
M  V30 4856 O 469.539 -0.449988 1.78103 0
M  V30 4857 C 469.601 2.99268 1.99196 0
M  V30 4858 C 469.265 4.35595 1.38224 0
M  V30 4859 C 470.262 5.13884 0.788611 0
M  V30 4860 C 467.947 4.82281 1.40393 0
M  V30 4861 C 469.941 6.37004 0.224783 0
M  V30 4862 C 467.628 6.05351 0.836243 0
M  V30 4863 C 468.626 6.82551 0.24769 0
M  V30 4864 O 468.314 8.03297 -0.311249 0
M  V30 4865 H 468.046 0.60565 0.300274 0
M  V30 4866 H 470.6 2.03411 0.285143 0
M  V30 4867 H 468.83 2.72377 2.74496 0
M  V30 4868 H 470.519 3.11682 2.60018 0
M  V30 4869 H 471.285 4.78938 0.764423 0
M  V30 4870 H 467.164 4.22189 1.85142 0
M  V30 4871 H 470.708 6.97203 -0.235235 0
M  V30 4872 H 466.605 6.39776 0.857733 0
M  V30 4873 H 467.373 8.1825 -0.20237 0
M  V30 4874 N 470.036 -0.519951 1.48776 0
M  V30 4875 C 470.983 -1.62352 1.64044 0
M  V30 4876 C 471.953 -1.58945 0.482251 0
M  V30 4877 O 473.138 -1.77219 0.706971 0
M  V30 4878 C 470.278 -3.00579 1.69547 0
M  V30 4879 C 469.391 -3.14145 2.96541 0
M  V30 4880 C 468.526 -4.42991 2.93142 0
M  V30 4881 C 467.565 -4.50122 4.14797 0
M  V30 4882 N 466.702 -5.7037 4.09418 0
M  V30 4883 H 471.542 -1.48643 2.58281 0
M  V30 4884 H 469.079 -0.723516 1.28077 0
M  V30 4885 H 471.037 -3.80671 1.70719 0
M  V30 4886 H 469.667 -3.13036 0.787918 0
M  V30 4887 H 468.719 -2.27239 3.05068 0
M  V30 4888 H 470.031 -3.15275 3.86527 0
M  V30 4889 H 469.185 -5.31385 2.92772 0
M  V30 4890 H 467.924 -4.44398 2.00902 0
M  V30 4891 H 466.929 -3.60133 4.15433 0
M  V30 4892 H 468.154 -4.50445 5.08208 0
M  V30 4893 H 466.1 -5.72655 3.20004 0
M  V30 4894 H 466.017 -5.73036 4.93119 0
M  V30 4895 H 467.285 -6.61023 4.13121 0
M  V30 4896 N 471.514 -1.37532 -0.769588 0
M  V30 4897 C 472.742 -1.36059 -1.55871 0
M  V30 4898 C 473.157 0.053544 -1.88724 0
M  V30 4899 O 472.514 1.01591 -1.5161 0
M  V30 4900 C 472.565 -2.20107 -2.86767 0
M  V30 4901 O 472.286 -3.56009 -2.55321 0
M  V30 4902 C 473.787 -2.26636 -3.80987 0
M  V30 4903 H 471.007 -0.465967 -0.482821 0
M  V30 4904 H 473.551 -1.80901 -0.953686 0
M  V30 4905 H 471.706 -1.78768 -3.43687 0
M  V30 4906 H 472.12 -4.0009 -3.39158 0
M  V30 4907 H 473.594 -2.89763 -4.69831 0
M  V30 4908 H 474.071 -1.2754 -4.20274 0
M  V30 4909 H 474.677 -2.68296 -3.29996 0
M  V30 4910 N 472.992 0.995999 -1.22138 0
M  V30 4911 C 473.939 2.08551 -0.988687 0
M  V30 4912 C 474.909 1.65864 0.0885021 0
M  V30 4913 O 476.094 1.90704 -0.0604589 0
M  V30 4914 C 473.234 3.40374 -0.569191 0
M  V30 4915 C 472.347 3.96421 -1.71681 0
M  V30 4916 C 471.482 5.1639 -1.2456 0
M  V30 4917 C 470.521 5.64567 -2.36497 0
M  V30 4918 N 469.658 6.75777 -1.90445 0
M  V30 4919 H 474.498 2.2779 -1.92135 0
M  V30 4920 H 472.035 1.1168 -0.957388 0
M  V30 4921 H 473.993 4.16068 -0.307166 0
M  V30 4922 H 472.623 3.21145 0.326462 0
M  V30 4923 H 471.675 3.17628 -2.09324 0
M  V30 4924 H 472.987 4.2816 -2.55891 0
M  V30 4925 H 472.141 5.99362 -0.940774 0
M  V30 4926 H 470.88 4.86266 -0.373662 0
M  V30 4927 H 469.885 4.80185 -2.67772 0
M  V30 4928 H 471.11 5.96716 -3.24202 0
M  V30 4929 H 469.056 6.47443 -1.05609 0
M  V30 4930 H 468.973 7.06818 -2.68223 0
M  V30 4931 H 470.241 7.62262 -1.63022 0
M  V30 4932 N 474.47 1.03057 1.19235 0
M  V30 4933 C 475.695 0.74757 1.93458 0
M  V30 4934 C 476.12 -0.687648 1.7508 0
M  V30 4935 O 475.478 -1.47499 1.05422 0
M  V30 4936 C 475.526 1.10604 3.43219 0
M  V30 4937 O 474.63 0.225671 4.11782 0
M  V30 4938 H 473.971 0.276047 0.603899 0
M  V30 4939 H 476.501 1.3777 1.51263 0
M  V30 4940 H 476.511 1.06366 3.93891 0
M  V30 4941 H 475.186 2.15165 3.55917 0
M  V30 4942 H 473.763 0.326795 3.71465 0
M  V30 4943 N 475.948 -1.35272 0.808662 0
M  V30 4944 C 476.878 -2.32315 0.234981 0
M  V30 4945 C 477.859 -1.57572 -0.64071 0
M  V30 4946 O 479.044 -1.8563 -0.570551 0
M  V30 4947 C 476.174 -3.41801 -0.615601 0
M  V30 4948 C 475.128 -4.27694 0.161767 0
M  V30 4949 C 474.454 -5.28519 -0.810649 0
M  V30 4950 C 475.754 -5.04231 1.36193 0
M  V30 4951 H 477.448 -2.80543 1.04575 0
M  V30 4952 H 474.994 -1.3488 0.504315 0
M  V30 4953 H 476.947 -4.08693 -1.02702 0
M  V30 4954 H 475.671 -2.92186 -1.45928 0
M  V30 4955 H 474.33 -3.62384 0.554382 0
M  V30 4956 H 473.978 -4.75171 -1.64988 0
M  V30 4957 H 473.678 -5.8686 -0.294822 0
M  V30 4958 H 475.202 -5.98283 -1.22023 0
M  V30 4959 H 476.616 -5.64058 1.02528 0
M  V30 4960 H 475.013 -5.72077 1.81239 0
M  V30 4961 H 476.083 -4.34753 2.14751 0
M  V30 4962 N 477.426 -0.562348 -1.47226 0
M  V30 4963 C 478.356 0.170627 -2.32876 0
M  V30 4964 C 479.337 0.903748 -1.44106 0
M  V30 4965 O 480.522 0.883206 -1.72954 0
M  V30 4966 C 477.652 1.19786 -3.25989 0
M  V30 4967 C 476.606 0.580875 -4.2404 0
M  V30 4968 C 475.932 1.71311 -5.06514 0
M  V30 4969 C 477.232 -0.468714 -5.20193 0
M  V30 4970 H 478.926 -0.544441 -2.94408 0
M  V30 4971 H 476.472 -0.263271 -1.41573 0
M  V30 4972 H 478.425 1.71884 -3.84752 0
M  V30 4973 H 477.149 1.94294 -2.62521 0
M  V30 4974 H 475.808 0.0811538 -3.6651 0
M  V30 4975 H 475.456 2.44736 -4.39447 0
M  V30 4976 H 475.156 1.30604 -5.72902 0
M  V30 4977 H 476.68 2.23725 -5.68137 0
M  V30 4978 H 478.094 -0.0336028 -5.7329 0
M  V30 4979 H 476.491 -0.794957 -5.94811 0
M  V30 4980 H 477.561 -1.36269 -4.65359 0
M  V30 4981 N 478.904 1.54736 -0.299062 0
M  V30 4982 C 480.144 2.0201 0.31168 0
M  V30 4983 C 480.508 1.18281 1.5124 0
M  V30 4984 O 481.709 1.55243 2.19438 0
M  V30 4985 C 479.98 3.5123 0.661227 0
M  V30 4986 S 481.539 4.20467 1.2551 0
M  V30 4987 H 478.357 0.704523 0.0957517 0
M  V30 4988 H 480.959 1.90791 -0.426482 0
M  V30 4989 H 479.663 4.09804 -0.221171 0
M  V30 4990 H 479.194 3.66481 1.43023 0
M  V30 4991 H 481.209 4.26083 2.54298 0
M  V30 4992 N 480.382 0.0267497 1.57577 0
M  V30 4993 C 481.315 -0.99059 2.05579 0
M  V30 4994 C 482.293 -1.31884 0.951065 0
M  V30 4995 O 483.477 -1.43592 1.22121 0
M  V30 4996 C 480.604 -2.31125 2.47586 0
M  V30 4997 C 479.65 -2.13777 3.69055 0
M  V30 4998 S 480.483 -1.4388 5.15809 0
M  V30 4999 C 481.639 -2.77321 5.6111 0
M  V30 5000 H 481.872 -0.581976 2.91548 0
M  V30 5001 H 479.405 -0.184876 1.53289 0
M  V30 5002 H 481.363 -3.07049 2.72454 0
M  V30 5003 H 480.024 -2.6912 1.61967 0
M  V30 5004 H 479.217 -3.11405 3.96287 0
M  V30 5005 H 478.819 -1.45996 3.44327 0
M  V30 5006 H 481.111 -3.73565 5.65204 0
M  V30 5007 H 482.054 -2.54756 6.60685 0
M  V30 5008 H 482.462 -2.82459 4.88751 0
M  V30 5009 N 481.861 -1.55662 -0.24637 0
M  V30 5010 C 483.272 -1.67953 -0.81539 0
M  V30 5011 C 483.623 -0.624302 -1.86002 0
M  V30 5012 O 482.748 0.229328 -2.15181 0
M  V30 5013 C 483.343 -3.04484 -1.48576 0
M  V30 5014 C 481.902 -3.18713 -2.00248 0
M  V30 5015 C 481.049 -2.6383 -0.853766 0
M  V30 5016 H 484 -1.58685 -0.0221692 0
M  V30 5017 H 484.021 -2.98959 -2.3538 0
M  V30 5018 H 483.533 -3.81264 -0.725222 0
M  V30 5019 H 481.634 -2.46757 -2.79181 0
M  V30 5020 H 481.747 -4.25628 -2.1995 0
M  V30 5021 H 480.111 -2.21667 -1.25442 0
M  V30 5022 H 480.894 -3.43135 -0.106302 0
M  V30 5023 N 483.339 0.512053 -1.4905 0
M  V30 5024 C 484.588 1.26343 -1.57227 0
M  V30 5025 C 484.901 1.93876 -0.259155 0
M  V30 5026 O 486.107 2.70612 -0.219358 0
M  V30 5027 C 484.563 2.29343 -2.77362 0
M  V30 5028 C 484.171 1.67799 -4.15388 0
M  V30 5029 C 485.915 3.05378 -2.94864 0
M  V30 5030 C 483.822 2.68845 -5.2676 0
M  V30 5031 H 482.752 0.475231 -0.585382 0
M  V30 5032 H 485.403 0.53862 -1.75417 0
M  V30 5033 H 483.785 3.04938 -2.52643 0
M  V30 5034 H 484.959 0.982715 -4.50199 0
M  V30 5035 H 483.274 1.04194 -4.03153 0
M  V30 5036 H 485.871 3.80921 -3.75238 0
M  V30 5037 H 486.214 3.62327 -2.05 0
M  V30 5038 H 486.747 2.36898 -3.19569 0
M  V30 5039 H 483.486 2.16692 -6.18647 0
M  V30 5040 H 483.006 3.36647 -4.96416 0
M  V30 5041 H 484.685 3.31487 -5.5563 0
M  V30 5042 N 484.817 1.37938 0.762283 0
M  V30 5043 C 486.233 1.18945 1.06415 0
M  V30 5044 C 486.433 0.0321163 2.01474 0
M  V30 5045 O 485.489 -0.624844 2.44647 0
M  V30 5046 C 486.802 2.51218 1.65258 0
M  V30 5047 C 488.35 2.57824 1.7747 0
M  V30 5048 C 488.825 3.90251 2.39725 0
M  V30 5049 N 490.316 3.91744 2.47166 0
M  V30 5050 C 491.051 4.90966 2.96209 0
M  V30 5051 N 490.547 6.00585 3.45354 0
M  V30 5052 N 492.34 4.78363 2.9517 0
M  V30 5053 H 484.491 2.11994 0.131301 0
M  V30 5054 H 486.754 0.940262 0.120879 0
M  V30 5055 H 486.46 3.36317 1.02878 0
M  V30 5056 H 486.334 2.68989 2.64433 0
M  V30 5057 H 488.721 1.73126 2.3898 0
M  V30 5058 H 488.802 2.43928 0.770241 0
M  V30 5059 H 488.446 4.75368 1.78852 0
M  V30 5060 H 488.376 4.01454 3.40796 0
M  V30 5061 H 490.867 3.12563 2.12397 0
M  V30 5062 H 491.18 6.72236 3.81207 0
M  V30 5063 H 489.525 6.04217 3.43434 0
M  V30 5064 H 492.716 3.91841 2.56082 0
M  V30 5065 H 492.889 5.55843 3.33081 0
M  V30 5066 N 486.295 -0.989507 1.22664 0
M  V30 5067 C 487.52 -1.77031 1.08051 0
M  V30 5068 C 487.945 -1.84535 -0.364483 0
M  V30 5069 O 487.303 -1.3003 -1.2634 0
M  V30 5070 C 487.351 -3.18 1.70024 0
M  V30 5071 O 486.455 -4.01161 0.956216 0
M  V30 5072 H 485.796 -0.545008 0.379292 0
M  V30 5073 H 488.326 -1.24277 1.62531 0
M  V30 5074 H 488.336 -3.68616 1.74888 0
M  V30 5075 H 487.011 -3.11853 2.75174 0
M  V30 5076 H 485.588 -3.59687 0.98384 0
M  V30 5077 N 487.773 -1.03688 -1.18687 0
M  V30 5078 C 488.998 -0.757819 -1.93059 0
M  V30 5079 C 489.423 0.678353 -1.75442 0
M  V30 5080 O 488.781 1.46938 -1.06203 0
M  V30 5081 C 488.829 -1.12423 -3.42627 0
M  V30 5082 O 487.933 -0.247505 -4.11657 0
M  V30 5083 H 487.274 -0.279245 -0.602427 0
M  V30 5084 H 489.804 -1.3857 -1.5053 0
M  V30 5085 H 489.814 -1.08454 -3.93322 0
M  V30 5086 H 488.489 -2.17049 -3.54771 0
M  V30 5087 H 487.066 -0.34649 -3.71287 0
M  V30 5088 N 489.251 1.34841 -0.815825 0
M  V30 5089 C 490.528 1.92908 -0.323416 0
M  V30 5090 C 490.908 1.74479 1.18828 0
M  V30 5091 O 490.256 1.11928 1.99209 0
M  V30 5092 C 490.466 3.40957 -0.744952 0
M  V30 5093 C 491.814 4.18107 -0.739716 0
M  V30 5094 O 492.838 3.49511 -0.68708 0
M  V30 5095 O 491.697 5.40517 -0.806456 0
M  V30 5096 H 488.791 0.822436 -0.0867646 0
M  V30 5097 H 491.337 1.4386 -0.90014 0
M  V30 5098 H 490.109 3.4814 -1.78646 0
M  V30 5099 H 489.732 3.97341 -0.143535 0
M  V30 5100 N 490.729 0.570148 1.46925 0
M  V30 5101 C 491.977 0.0508523 2.02036 0
M  V30 5102 C 492.298 -1.30885 1.44548 0
M  V30 5103 O 491.568 -1.85647 0.625453 0
M  V30 5104 H 490.148 0.0158088 0.746833 0
M  V30 5105 H 492.81 0.743086 1.80178 0
M  V30 5106 H 491.906 -0.027575 3.12088 0
M  V30 5107 N 492.207 -1.54576 0.307264 0
M  V30 5108 C 493.117 -2.27435 -0.57536 0
M  V30 5109 C 494.133 -1.31183 -1.14311 0
M  V30 5110 O 495.309 -1.64175 -1.16656 0
M  V30 5111 C 492.374 -3.00566 -1.72803 0
M  V30 5112 C 491.435 -4.12369 -1.19373 0
M  V30 5113 C 490.668 -4.82003 -2.29147 0
M  V30 5114 O 490.891 -4.51038 -3.49171 0
M  V30 5115 O 489.825 -5.69271 -1.95485 0
M  V30 5116 H 493.651 -3.03696 0.0158558 0
M  V30 5117 H 491.236 -1.49219 0.0735064 0
M  V30 5118 H 493.118 -3.46416 -2.39946 0
M  V30 5119 H 491.793 -2.27195 -2.30574 0
M  V30 5120 H 490.7 -3.70905 -0.487851 0
M  V30 5121 H 492.033 -4.87736 -0.661376 0
M  V30 5122 N 493.685 -0.035106 -1.57561 0
M  V30 5123 C 494.934 0.641604 -1.91223 0
M  V30 5124 C 495.247 1.72944 -0.913761 0
M  V30 5125 O 496.453 2.46321 -1.14185 0
M  V30 5126 C 494.909 1.19249 -3.3957 0
M  V30 5127 C 494.517 0.137616 -4.47789 0
M  V30 5128 C 496.261 1.84537 -3.82291 0
M  V30 5129 C 494.168 0.700478 -5.87237 0
M  V30 5130 H 493.098 0.243417 -0.713627 0
M  V30 5131 H 495.749 -0.101382 -1.8322 0
M  V30 5132 H 494.131 1.98728 -3.42525 0
M  V30 5133 H 495.305 -0.635153 -4.56402 0
M  V30 5134 H 493.62 -0.416855 -4.14308 0
M  V30 5135 H 496.217 2.27616 -4.83834 0
M  V30 5136 H 496.56 2.69054 -3.17672 0
M  V30 5137 H 497.093 1.11739 -3.81784 0
M  V30 5138 H 493.832 -0.106693 -6.55413 0
M  V30 5139 H 493.352 1.4416 -5.82218 0
M  V30 5140 H 495.031 1.18837 -6.35993 0
M  V30 5141 N 495.163 1.55791 0.238111 0
M  V30 5142 C 496.412 1.77234 0.962868 0
M  V30 5143 C 496.725 0.600661 1.86149 0
M  V30 5144 O 497.931 0.698315 2.62366 0
M  V30 5145 C 496.387 3.13808 1.76218 0
M  V30 5146 C 495.995 4.3865 0.910518 0
M  V30 5147 C 497.739 3.44585 2.47914 0
M  V30 5148 C 495.646 5.66252 1.70623 0
M  V30 5149 H 494.576 0.660731 0.36325 0
M  V30 5150 H 497.227 1.8221 0.217242 0
M  V30 5151 H 495.609 3.02963 2.55009 0
M  V30 5152 H 496.783 4.60507 0.164316 0
M  V30 5153 H 495.098 4.15271 0.30647 0
M  V30 5154 H 497.695 4.3714 3.07917 0
M  V30 5155 H 498.038 2.66314 3.19973 0
M  V30 5156 H 498.571 3.56685 1.76127 0
M  V30 5157 H 495.31 6.47369 1.02923 0
M  V30 5158 H 494.83 5.48483 2.42748 0
M  V30 5159 H 496.509 6.05829 2.27114 0
M  V30 5160 N 496.642 -0.504142 1.49319 0
M  V30 5161 C 497.89 -1.25598 1.58334 0
M  V30 5162 C 498.211 -1.93114 0.270538 0
M  V30 5163 O 497.481 -1.82585 -0.709891 0
M  V30 5164 H 496.061 -0.466571 0.58337 0
M  V30 5165 H 498.723 -0.584547 1.85928 0
M  V30 5166 H 497.819 -2.02159 2.37778 0
M  V30 5167 N 498.12 -1.38341 -0.754957 0
M  V30 5168 C 499.366 -1.34672 -1.51628 0
M  V30 5169 C 499.699 0.0636036 -1.94096 0
M  V30 5170 O 498.974 1.0245 -1.6533 0
M  V30 5171 C 499.257 -2.30116 -2.76981 0
M  V30 5172 C 499.11 -3.80003 -2.4066 0
M  V30 5173 C 500.429 -2.23715 -3.78998 0
M  V30 5174 H 497.548 -0.490517 -0.550056 0
M  V30 5175 H 500.19 -1.69178 -0.864807 0
M  V30 5176 H 498.34 -2.00821 -3.3257 0
M  V30 5177 H 500.012 -4.19966 -1.90856 0
M  V30 5178 H 498.255 -3.97751 -1.73137 0
M  V30 5179 H 498.926 -4.42244 -3.30339 0
M  V30 5180 H 501.402 -2.49574 -3.32945 0
M  V30 5181 H 500.278 -2.9261 -4.64403 0
M  V30 5182 H 500.539 -1.23554 -4.24484 0
M  V30 5183 N 499.598 0.982988 -1.23187 0
M  V30 5184 C 500.561 2.05649 -1.01198 0
M  V30 5185 C 501.561 1.6078 0.0252464 0
M  V30 5186 O 502.751 1.72878 -0.214243 0
M  V30 5187 C 499.883 3.36744 -0.530656 0
M  V30 5188 H 501.076 2.2659 -1.96461 0
M  V30 5189 H 498.629 1.15602 -1.05195 0
M  V30 5190 H 499.364 3.21492 0.425873 0
M  V30 5191 H 499.149 3.7065 -1.2791 0
M  V30 5192 H 500.639 4.15705 -0.397366 0
M  V30 5193 N 501.076 1.04316 1.18135 0
M  V30 5194 C 502.008 0.594444 2.21357 0
M  V30 5195 C 503.021 -0.337215 1.59269 0
M  V30 5196 O 504.21 -0.131337 1.78016 0
M  V30 5197 C 501.31 -0.151251 3.38562 0
M  V30 5198 C 500.483 0.788907 4.30227 0
M  V30 5199 C 499.542 0.0860572 5.2613 0
M  V30 5200 O 498.568 0.717302 5.64662 0
M  V30 5201 N 499.77 -1.17969 5.68387 0
M  V30 5202 H 502.535 1.48227 2.60478 0
M  V30 5203 H 500.096 0.92396 1.32946 0
M  V30 5204 H 502.088 -0.631352 3.99745 0
M  V30 5205 H 500.658 -0.940639 2.98112 0
M  V30 5206 H 499.878 1.44882 3.6661 0
M  V30 5207 H 501.166 1.42738 4.88368 0
M  V30 5208 H 500.564 -1.71302 5.3914 0
M  V30 5209 H 499.121 -1.60402 6.31755 0
M  V30 5210 N 502.554 -1.34406 0.822964 0
M  V30 5211 C 503.517 -2.2783 0.250271 0
M  V30 5212 C 504.517 -1.50288 -0.571854 0
M  V30 5213 O 505.707 -1.69825 -0.387952 0
M  V30 5214 C 502.839 -3.34663 -0.649137 0
M  V30 5215 H 504.032 -2.79992 1.07444 0
M  V30 5216 H 501.585 -1.44539 0.594829 0
M  V30 5217 H 502.32 -2.87714 -1.49637 0
M  V30 5218 H 502.105 -3.92052 -0.0611199 0
M  V30 5219 H 503.595 -4.04349 -1.04363 0
M  V30 5220 N 504.032 -0.577932 -1.46621 0
M  V30 5221 C 505.281 -0.0594281 -2.01612 0
M  V30 5222 C 505.594 1.30663 -1.45556 0
M  V30 5223 O 506.8 1.91621 -1.92337 0
M  V30 5224 C 505.256 -0.0556666 -3.59857 0
M  V30 5225 C 504.864 -1.41975 -4.24908 0
M  V30 5226 C 506.608 0.409143 -4.22524 0
M  V30 5227 C 504.515 -1.37397 -5.75218 0
M  V30 5228 H 503.445 -0.0184469 -0.753774 0
M  V30 5229 H 506.096 -0.728869 -1.68404 0
M  V30 5230 H 504.478 0.679843 -3.90121 0
M  V30 5231 H 505.652 -2.17461 -4.0626 0
M  V30 5232 H 503.967 -1.82419 -3.74316 0
M  V30 5233 H 506.564 0.46211 -5.32699 0
M  V30 5234 H 506.907 1.42565 -3.91128 0
M  V30 5235 H 507.44 -0.272152 -3.96868 0
M  V30 5236 H 504.179 -2.36714 -6.11267 0
M  V30 5237 H 503.699 -0.661239 -5.96144 0
M  V30 5238 H 505.378 -1.08484 -6.3784 0
M  V30 5239 N 505.51 1.54411 -0.315457 0
M  V30 5240 C 506.458 2.25514 0.569771 0
M  V30 5241 C 507.452 1.2663 1.12522 0
M  V30 5242 O 508.658 1.44434 1.07419 0
M  V30 5243 H 505.033 0.724257 0.202376 0
M  V30 5244 H 507.004 2.98354 -0.0522895 0
M  V30 5245 C 505.753 3.02004 1.72305 0
M  V30 5246 H 505.076 3.77906 1.30488 0
M  V30 5247 H 506.516 3.55014 2.31821 0
M  V30 5248 C 504.975 2.09822 2.63583 0
M  V30 5249 O 505.505 1.67574 3.65078 0
M  V30 5250 N 503.711 1.75478 2.31637 0
M  V30 5251 H 503.258 2.10032 1.49145 0
M  V30 5252 H 503.216 1.14079 2.92973 0
M  V30 5253 N 506.988 0.0434614 1.5754 0
M  V30 5254 C 507.935 -0.93356 2.11077 0
M  V30 5255 C 508.905 -1.31383 1.01626 0
M  V30 5256 O 510.09 -1.40465 1.29129 0
M  V30 5257 C 507.23 -2.20578 2.65404 0
M  V30 5258 C 506.343 -1.88068 3.88914 0
M  V30 5259 C 505.478 -3.09691 4.31584 0
M  V30 5260 C 504.517 -2.73067 5.47815 0
M  V30 5261 N 503.654 -3.87359 5.85574 0
M  V30 5262 H 508.494 -0.470118 2.94268 0
M  V30 5263 H 506.031 -0.220434 1.45439 0
M  V30 5264 H 507.989 -2.95011 2.94999 0
M  V30 5265 H 506.619 -2.64513 1.85021 0
M  V30 5266 H 505.671 -1.03816 3.6596 0
M  V30 5267 H 506.983 -1.57104 4.73413 0
M  V30 5268 H 506.137 -3.92431 4.62691 0
M  V30 5269 H 504.876 -3.43827 3.45882 0
M  V30 5270 H 503.881 -1.88742 5.16388 0
M  V30 5271 H 505.106 -2.40131 6.35227 0
M  V30 5272 H 503.052 -4.21311 5.02825 0
M  V30 5273 H 502.969 -3.60068 6.64746 0
M  V30 5274 H 504.237 -4.70761 6.21292 0
M  V30 5275 N 508.466 -1.55915 -0.229846 0
M  V30 5276 C 509.715 -1.77742 -0.953455 0
M  V30 5277 C 510.028 -0.610524 -1.85828 0
M  V30 5278 O 511.234 -0.712219 -2.61992 0
M  V30 5279 C 509.69 -3.14738 -1.74551 0
M  V30 5280 C 509.298 -4.39126 -0.887242 0
M  V30 5281 C 511.042 -3.45895 -2.46084 0
M  V30 5282 C 508.949 -5.67149 -1.67617 0
M  V30 5283 H 507.879 -0.662648 -0.359741 0
M  V30 5284 H 510.53 -1.82322 -0.207576 0
M  V30 5285 H 508.912 -3.04311 -2.53399 0
M  V30 5286 H 510.086 -4.60588 -0.139892 0
M  V30 5287 H 508.401 -4.15427 -0.284443 0
M  V30 5288 H 510.998 -4.38767 -3.05594 0
M  V30 5289 H 511.341 -2.68007 -3.18556 0
M  V30 5290 H 511.874 -3.57614 -1.74233 0
M  V30 5291 H 508.613 -6.47906 -0.994881 0
M  V30 5292 H 508.133 -5.49763 -2.39836 0
M  V30 5293 H 509.812 -6.07025 -2.23898 0
M  V30 5294 N 509.944 0.496216 -1.49584 0
M  V30 5295 C 511.355 1.07765 -1.52459 0
M  V30 5296 C 511.706 1.93679 -0.31353 0
M  V30 5297 O 510.831 2.08588 0.576186 0
M  V30 5298 C 511.426 1.96111 -2.76271 0
M  V30 5299 C 509.985 2.49409 -2.81908 0
M  V30 5300 C 509.132 1.27142 -2.46435 0
M  V30 5301 H 512.083 0.279914 -1.56212 0
M  V30 5302 H 512.104 2.80862 -2.56704 0
M  V30 5303 H 511.616 1.33555 -3.64396 0
M  V30 5304 H 509.717 3.1559 -1.98074 0
M  V30 5305 H 509.83 2.86234 -3.84196 0
M  V30 5306 H 508.194 1.59818 -1.98319 0
M  V30 5307 H 508.977 0.662866 -3.3684 0
M  V30 5308 N 511.423 1.38739 0.74761 0
M  V30 5309 C 512.333 1.38696 1.89211 0
M  V30 5310 C 513.349 0.283303 1.71678 0
M  V30 5311 O 514.525 0.522713 1.94498 0
M  V30 5312 C 511.59 1.21662 3.24653 0
M  V30 5313 C 510.651 2.41886 3.54669 0
M  V30 5314 C 509.884 2.25655 4.83648 0
M  V30 5315 O 510.107 1.25339 5.56459 0
M  V30 5316 O 509.041 3.14372 5.13277 0
M  V30 5317 H 512.867 2.35143 1.92202 0
M  V30 5318 H 510.452 1.19721 0.893708 0
M  V30 5319 H 512.334 1.14246 4.05618 0
M  V30 5320 H 511.009 0.283024 3.2246 0
M  V30 5321 H 509.916 2.54877 2.73841 0
M  V30 5322 H 511.249 3.33895 3.61628 0
M  V30 5323 N 512.901 -0.976442 1.23707 0
M  V30 5324 C 514.149 -1.71487 1.06942 0
M  V30 5325 C 514.47 -1.9098 -0.393897 0
M  V30 5326 O 513.74 -1.48128 -1.28198 0
M  V30 5327 H 512.32 -0.635425 0.392739 0
M  V30 5328 H 514.982 -1.17515 1.55487 0
M  V30 5329 H 514.078 -2.70286 1.56051 0
M  V30 5330 N 514.379 -1.04941 -1.1758 0
M  V30 5331 C 515.342 -0.652456 -2.19717 0
M  V30 5332 C 516.342 0.294745 -1.58076 0
M  V30 5333 O 517.532 0.0789579 -1.74021 0
M  V30 5334 C 514.664 0.0420712 -3.40874 0
M  V30 5335 H 515.857 -1.55642 -2.5635 0
M  V30 5336 H 513.41 -0.842995 -1.31618 0
M  V30 5337 H 514.145 0.95943 -3.09783 0
M  V30 5338 H 513.93 -0.638844 -3.86861 0
M  V30 5339 H 515.42 0.306 -4.16477 0
M  V30 5340 N 515.857 1.33968 -0.830081 0
M  V30 5341 C 517.268 1.80439 -0.479455 0
M  V30 5342 C 517.619 1.68756 1.00079 0
M  V30 5343 O 516.744 1.23171 1.77927 0
M  V30 5344 C 517.339 3.27611 -0.863505 0
M  V30 5345 C 515.898 3.72133 -0.565145 0
M  V30 5346 C 515.045 2.55549 -1.07657 0
M  V30 5347 H 517.996 1.21614 -1.0196 0
M  V30 5348 H 518.017 3.8012 -0.170083 0
M  V30 5349 H 517.529 3.36082 -1.94089 0
M  V30 5350 H 515.63 3.69196 0.502536 0
M  V30 5351 H 515.743 4.65963 -1.11422 0
M  V30 5352 H 514.107 2.49788 -0.497807 0
M  V30 5353 H 514.89 2.66786 -2.16055 0
M  V30 5354 N 517.335 0.585699 1.46312 0
M  V30 5355 C 518.582 0.0724211 2.0237 0
M  V30 5356 C 518.91 -1.28868 1.45683 0
M  V30 5357 O 518.165 -1.85853 0.612945 0
M  V30 5358 C 518.464 -0.0401312 3.57377 0
M  V30 5359 C 518.13 1.25376 4.33119 0
M  V30 5360 C 516.792 1.60824 4.5353 0
M  V30 5361 C 519.144 2.10987 4.76586 0
M  V30 5362 C 516.472 2.81676 5.14661 0
M  V30 5363 C 518.824 3.31068 5.39052 0
M  V30 5364 C 517.488 3.66794 5.5769 0
M  V30 5365 H 516.758 0.0265007 0.740526 0
M  V30 5366 H 519.405 0.762935 1.75646 0
M  V30 5367 H 517.71 -0.813791 3.83255 0
M  V30 5368 H 519.407 -0.453078 3.98432 0
M  V30 5369 H 515.997 0.967808 4.1753 0
M  V30 5370 H 520.181 1.84904 4.60569 0
M  V30 5371 H 515.437 3.0949 5.27282 0
M  V30 5372 H 519.611 3.97672 5.71691 0
M  V30 5373 H 517.238 4.60529 6.04828 0
M  V30 5374 N 518.813 -1.54241 0.323641 0
M  V30 5375 C 520.041 -2.04985 -0.280871 0
M  V30 5376 C 520.456 -1.19978 -1.45777 0
M  V30 5377 O 519.813 -0.230471 -1.81039 0
M  V30 5378 C 519.864 -3.54353 -0.715258 0
M  V30 5379 O 519.585 -4.36132 0.414817 0
M  V30 5380 C 521.086 -4.21189 -1.38257 0
M  V30 5381 H 518.306 -0.66851 -0.0577502 0
M  V30 5382 H 520.85 -1.99029 0.469852 0
M  V30 5383 H 519.005 -3.60596 -1.41596 0
M  V30 5384 H 519.419 -5.2445 0.0725227 0
M  V30 5385 H 520.893 -5.27154 -1.63745 0
M  V30 5386 H 521.37 -3.72307 -2.32989 0
M  V30 5387 H 521.976 -4.19085 -0.724447 0
M  V30 5388 N 520.291 -0.0518155 -1.57515 0
M  V30 5389 C 521.201 0.937539 -2.15052 0
M  V30 5390 C 522.217 1.34121 -1.10849 0
M  V30 5391 O 523.393 1.418 -1.4302 0
M  V30 5392 C 520.458 2.19379 -2.68466 0
M  V30 5393 C 519.519 1.84841 -3.87469 0
M  V30 5394 C 518.752 3.04477 -4.38326 0
M  V30 5395 O 518.975 4.17868 -3.88256 0
M  V30 5396 O 517.909 2.85453 -5.29906 0
M  V30 5397 H 521.735 0.478201 -2.99912 0
M  V30 5398 H 519.32 0.17012 -1.48428 0
M  V30 5399 H 521.202 2.93084 -3.02787 0
M  V30 5400 H 519.877 2.64449 -1.86677 0
M  V30 5401 H 518.784 1.08449 -3.58036 0
M  V30 5402 H 520.117 1.44569 -4.7049 0
M  V30 5403 N 521.769 1.56035 0.221574 0
M  V30 5404 C 523.046 1.69837 0.970301 0
M  V30 5405 C 523.426 0.599065 2.02421 0
M  V30 5406 O 522.774 -0.393929 2.25079 0
M  V30 5407 C 522.984 3.11148 1.58076 0
M  V30 5408 C 524.332 3.70555 2.07302 0
M  V30 5409 O 525.356 3.14109 1.6797 0
M  V30 5410 O 524.215 4.69562 2.79596 0
M  V30 5411 H 521.309 0.691727 0.453257 0
M  V30 5412 H 523.855 1.68353 0.213358 0
M  V30 5413 H 522.627 3.82617 0.819759 0
M  V30 5414 H 522.25 3.16749 2.40324 0
M  V30 5415 N 523.247 -0.488276 1.49845 0
M  V30 5416 C 524.524 -1.24959 1.50481 0
M  V30 5417 C 524.904 -2.09735 0.239698 0
M  V30 5418 O 524.252 -2.14865 -0.777524 0
M  V30 5419 C 524.462 -2.0954 2.79095 0
M  V30 5420 C 525.81 -2.68305 3.29086 0
M  V30 5421 O 526.834 -2.19797 2.80299 0
M  V30 5422 O 525.693 -3.56643 4.14087 0
M  V30 5423 H 522.787 -0.566133 0.602845 0
M  V30 5424 H 525.333 -0.501504 1.6212 0
M  V30 5425 H 524.105 -1.46958 3.62656 0
M  V30 5426 H 523.728 -2.91517 2.70377 0
M  V30 5427 N 524.725 -1.39134 -0.740242 0
M  V30 5428 C 525.635 -1.39697 -1.88473 0
M  V30 5429 C 526.651 -0.292403 -1.71526 0
M  V30 5430 O 527.827 -0.533021 -1.94219 0
M  V30 5431 C 524.892 -1.23382 -3.24003 0
M  V30 5432 C 523.953 -2.43763 -3.53381 0
M  V30 5433 C 523.186 -2.28216 -4.82445 0
M  V30 5434 O 523.409 -1.28288 -5.55786 0
M  V30 5435 O 522.343 -3.1709 -5.11603 0
M  V30 5436 H 526.169 -2.36159 -1.90952 0
M  V30 5437 H 523.754 -1.20194 -0.887346 0
M  V30 5438 H 525.636 -1.16395 -4.05006 0
M  V30 5439 H 524.311 -0.300121 -3.22306 0
M  V30 5440 H 523.218 -2.56325 -2.72485 0
M  V30 5441 H 524.551 -3.35808 -3.59852 0
M  V30 5442 N 526.204 0.969867 -1.24223 0
M  V30 5443 C 527.151 2.06407 -1.0327 0
M  V30 5444 C 528.121 1.66014 0.0533 0
M  V30 5445 O 529.306 1.90533 -0.100896 0
M  V30 5446 C 526.446 3.3909 -0.641262 0
M  V30 5447 C 525.559 3.9269 -1.80051 0
M  V30 5448 C 524.694 5.13631 -1.35486 0
M  V30 5449 C 523.733 5.59423 -2.48419 0
M  V30 5450 N 522.87 6.71586 -2.04737 0
M  V30 5451 H 527.71 2.23663 -1.96923 0
M  V30 5452 H 525.247 1.09624 -0.980862 0
M  V30 5453 H 527.205 4.15323 -0.395351 0
M  V30 5454 H 525.835 3.21765 0.258269 0
M  V30 5455 H 524.887 3.13116 -2.16014 0
M  V30 5456 H 526.199 4.22636 -2.64916 0
M  V30 5457 H 525.353 5.97231 -1.0677 0
M  V30 5458 H 524.092 4.85364 -0.476722 0
M  V30 5459 H 523.097 4.74398 -2.77897 0
M  V30 5460 H 524.322 5.89705 -3.36786 0
M  V30 5461 H 522.268 6.45058 -1.19318 0
M  V30 5462 H 522.185 7.0097 -2.83156 0
M  V30 5463 H 523.453 7.58633 -1.79154 0
M  V30 5464 N 527.682 1.05563 1.17022 0
M  V30 5465 C 528.928 0.769074 1.87652 0
M  V30 5466 C 529.261 -0.702326 1.81055 0
M  V30 5467 O 528.536 -1.5139 1.22112 0
M  V30 5468 C 528.819 1.25492 3.37526 0
M  V30 5469 C 528.672 2.78953 3.52853 0
M  V30 5470 C 529.991 0.856919 4.31677 0
M  V30 5471 H 527.11 0.280854 0.681388 0
M  V30 5472 H 529.752 1.31027 1.37593 0
M  V30 5473 H 527.902 0.794516 3.80289 0
M  V30 5474 H 529.574 3.33146 3.19079 0
M  V30 5475 H 527.817 3.18046 2.95007 0
M  V30 5476 H 528.488 3.08011 4.58076 0
M  V30 5477 H 530.964 1.25334 3.96775 0
M  V30 5478 H 529.84 1.22443 5.35069 0
M  V30 5479 H 530.101 -0.238787 4.41455 0
M  V30 5480 N 529.16 -1.33526 0.837174 0
M  V30 5481 C 530.093 -2.27192 0.214233 0
M  V30 5482 C 531.071 -1.49575 -0.637657 0
M  V30 5483 O 532.255 -1.78753 -0.598291 0
M  V30 5484 C 529.382 -3.31401 -0.699367 0
M  V30 5485 C 528.428 -4.26431 0.0768429 0
M  V30 5486 S 529.261 -5.15954 1.4336 0
M  V30 5487 C 530.417 -6.23692 0.525251 0
M  V30 5488 H 530.65 -2.79679 1.00831 0
M  V30 5489 H 528.183 -1.4079 0.633834 0
M  V30 5490 H 530.141 -3.91924 -1.22088 0
M  V30 5491 H 528.802 -2.77732 -1.46709 0
M  V30 5492 H 527.995 -5.00193 -0.618268 0
M  V30 5493 H 527.597 -3.70235 0.529364 0
M  V30 5494 H 529.889 -6.76931 -0.277575 0
M  V30 5495 H 530.832 -6.97283 1.23299 0
M  V30 5496 H 531.24 -5.64398 0.107351 0
M  V30 5497 N 530.638 -0.59345 -1.46 0
M  V30 5498 C 531.57 0.171569 -2.28557 0
M  V30 5499 C 532.583 0.845273 -1.39137 0
M  V30 5500 O 533.772 0.713033 -1.6364 0
M  V30 5501 C 530.872 1.26311 -3.14482 0
M  V30 5502 C 530.045 0.679258 -4.32094 0
M  V30 5503 C 529.104 1.65987 -4.99334 0
M  V30 5504 O 528.13 1.19171 -5.56585 0
M  V30 5505 N 529.332 2.99414 -4.97324 0
M  V30 5506 H 532.097 -0.536771 -2.94854 0
M  V30 5507 H 529.658 -0.431954 -1.56031 0
M  V30 5508 H 531.65 1.91863 -3.5633 0
M  V30 5509 H 530.22 1.87416 -2.50188 0
M  V30 5510 H 529.44 -0.153992 -3.93899 0
M  V30 5511 H 530.728 0.26916 -5.08088 0
M  V30 5512 H 530.126 3.40064 -4.52076 0
M  V30 5513 H 528.683 3.60426 -5.4308 0
M  V30 5514 N 532.116 1.54067 -0.331816 0
M  V30 5515 C 533.049 2.20886 0.573127 0
M  V30 5516 C 534.027 1.18876 1.10938 0
M  V30 5517 O 535.211 1.47649 1.17184 0
M  V30 5518 C 532.338 2.87706 1.78726 0
M  V30 5519 C 531.384 4.03505 1.38152 0
M  V30 5520 S 532.217 5.33919 0.41123 0
M  V30 5521 C 533.373 6.04236 1.63246 0
M  V30 5522 H 533.606 2.97299 0.00555737 0
M  V30 5523 H 531.139 1.53964 -0.115893 0
M  V30 5524 H 533.097 3.26825 2.48386 0
M  V30 5525 H 531.758 2.1108 2.32603 0
M  V30 5526 H 530.951 4.49152 2.28645 0
M  V30 5527 H 530.553 3.66102 0.764524 0
M  V30 5528 H 532.845 6.26917 2.56869 0
M  V30 5529 H 533.788 6.97546 1.218 0
M  V30 5530 H 534.196 5.34247 1.82318 0
M  V30 5531 N 533.594 0.0601682 1.57485 0
M  V30 5532 C 534.824 -0.620037 1.97076 0
M  V30 5533 C 535.232 -1.64381 0.936784 0
M  V30 5534 O 534.575 -1.83497 -0.0863377 0
M  V30 5535 C 534.637 -1.35617 3.32939 0
M  V30 5536 C 534.301 -0.487208 4.54396 0
M  V30 5537 C 535.298 0.250428 5.19297 0
M  V30 5538 C 532.983 -0.415494 5.00579 0
M  V30 5539 C 534.977 1.04812 6.28723 0
M  V30 5540 C 532.664 0.385879 6.0988 0
M  V30 5541 C 533.662 1.11637 6.73815 0
M  V30 5542 O 533.35 1.90454 7.81014 0
M  V30 5543 H 533.082 -0.173664 0.653312 0
M  V30 5544 H 535.636 0.1256 2.05016 0
M  V30 5545 H 533.866 -2.14763 3.2158 0
M  V30 5546 H 535.555 -1.92749 3.57215 0
M  V30 5547 H 536.321 0.204546 4.84568 0
M  V30 5548 H 532.2 -0.973679 4.506 0
M  V30 5549 H 535.744 1.6188 6.78558 0
M  V30 5550 H 531.641 0.433366 6.44044 0
M  V30 5551 H 532.409 1.82762 7.97835 0
M  V30 5552 N 535.072 -1.5615 -0.213296 0
M  V30 5553 C 536.002 -1.96109 -1.26742 0
M  V30 5554 C 536.983 -0.830448 -1.48451 0
M  V30 5555 O 538.168 -1.09339 -1.60495 0
M  V30 5556 C 535.298 -2.28492 -2.61551 0
M  V30 5557 C 534.252 -3.44124 -2.54485 0
M  V30 5558 C 533.578 -3.62134 -3.93399 0
M  V30 5559 C 534.878 -4.78855 -2.08556 0
M  V30 5560 H 536.572 -2.84412 -0.935434 0
M  V30 5561 H 534.118 -1.36836 -0.44854 0
M  V30 5562 H 536.071 -2.55039 -3.3546 0
M  V30 5563 H 534.795 -1.37052 -2.96453 0
M  V30 5564 H 533.454 -3.17639 -1.83033 0
M  V30 5565 H 533.102 -2.68055 -4.25623 0
M  V30 5566 H 532.802 -4.39913 -3.89551 0
M  V30 5567 H 534.326 -3.91038 -4.68958 0
M  V30 5568 H 535.74 -5.04552 -2.72213 0
M  V30 5569 H 534.137 -5.59975 -2.1575 0
M  V30 5570 H 535.207 -4.73657 -1.03811 0
M  V30 5571 N 536.55 0.480323 -1.50102 0
M  V30 5572 C 537.961 1.06142 -1.53593 0
M  V30 5573 C 538.312 1.93335 -0.334055 0
M  V30 5574 O 537.437 2.09188 0.55403 0
M  V30 5575 C 538.032 1.9317 -2.78336 0
M  V30 5576 C 536.591 2.46405 -2.84538 0
M  V30 5577 C 535.738 1.24521 -2.4777 0
M  V30 5578 H 538.689 0.26333 -1.565 0
M  V30 5579 H 538.71 2.78123 -2.59669 0
M  V30 5580 H 538.222 1.29683 -3.65792 0
M  V30 5581 H 536.323 3.13472 -2.01411 0
M  V30 5582 H 536.436 2.82143 -3.87211 0
M  V30 5583 H 534.8 1.57706 -2.00003 0
M  V30 5584 H 535.583 0.627102 -3.37524 0
M  V30 5585 N 538.028 1.39524 0.732853 0
M  V30 5586 C 539.275 1.36865 1.49246 0
M  V30 5587 C 539.603 -0.0347118 1.94469 0
M  V30 5588 O 538.858 -1.01596 1.67262 0
M  V30 5589 C 539.157 2.28916 2.74468 0
M  V30 5590 C 538.823 3.76506 2.481 0
M  V30 5591 C 537.485 4.16721 2.40619 0
M  V30 5592 C 539.837 4.69846 2.25598 0
M  V30 5593 C 537.165 5.48334 2.08679 0
M  V30 5594 C 539.517 6.01739 1.95174 0
M  V30 5595 C 538.181 6.41015 1.86163 0
M  V30 5596 H 537.451 0.500824 0.546129 0
M  V30 5597 H 540.098 1.72047 0.840958 0
M  V30 5598 H 538.403 1.86859 3.4437 0
M  V30 5599 H 540.1 2.2415 3.32502 0
M  V30 5600 H 536.69 3.44635 2.54803 0
M  V30 5601 H 540.874 4.39608 2.30344 0
M  V30 5602 H 536.13 5.77685 2.00226 0
M  V30 5603 H 540.304 6.73591 1.76771 0
M  V30 5604 H 537.931 7.42917 1.61179 0
M  V30 5605 N 539.506 -0.963266 1.24736 0
M  V30 5606 C 540.746 -1.72172 1.10165 0
M  V30 5607 C 541.11 -1.88731 -0.352784 0
M  V30 5608 O 542.311 -2.61549 -0.620107 0
M  V30 5609 C 540.582 -3.0724 1.82589 0
M  V30 5610 S 542.141 -3.98449 1.83803 0
M  V30 5611 H 538.959 -0.591901 0.393922 0
M  V30 5612 H 541.561 -1.14955 1.58132 0
M  V30 5613 H 540.265 -2.92851 2.87518 0
M  V30 5614 H 539.796 -3.69521 1.34973 0
M  V30 5615 H 541.811 -4.87805 0.908883 0
M  V30 5616 N 540.985 -1.06182 -1.16461 0
M  V30 5617 C 542.233 -0.776326 -1.86595 0
M  V30 5618 C 542.554 0.69921 -1.82033 0
M  V30 5619 O 541.824 1.50579 -1.2531 0
M  V30 5620 H 540.404 -0.284184 -0.690832 0
M  V30 5621 H 543.066 -1.34308 -1.41235 0
M  V30 5622 H 542.162 -1.10022 -2.92064 0
M  V30 5623 N 542.463 1.3308 -0.844243 0
M  V30 5624 C 543.712 1.96868 -0.438833 0
M  V30 5625 C 544.025 1.67599 1.00846 0
M  V30 5626 O 545.231 2.25043 1.51881 0
M  V30 5627 C 543.687 3.5234 -0.73377 0
M  V30 5628 C 543.295 3.90481 -2.1961 0
M  V30 5629 C 545.039 4.22653 -0.395574 0
M  V30 5630 C 542.946 5.38954 -2.43481 0
M  V30 5631 H 541.876 0.736749 -0.160364 0
M  V30 5632 H 544.527 1.51623 -1.03358 0
M  V30 5633 H 542.909 3.95941 -0.068589 0
M  V30 5634 H 544.083 3.57922 -2.90221 0
M  V30 5635 H 542.398 3.33165 -2.4978 0
M  V30 5636 H 544.995 5.31848 -0.551477 0
M  V30 5637 H 545.338 4.11004 0.661921 0
M  V30 5638 H 545.871 3.84601 -1.01621 0
M  V30 5639 H 542.61 5.55612 -3.47816 0
M  V30 5640 H 542.13 5.72954 -1.77437 0
M  V30 5641 H 543.809 6.05907 -2.26905 0
M  V30 5642 N 543.941 0.601185 1.45683 0
M  V30 5643 C 544.904 -0.111398 2.28929 0
M  V30 5644 C 545.904 -0.801246 1.39416 0
M  V30 5645 O 547.094 -0.650383 1.61603 0
M  V30 5646 C 544.226 -1.16773 3.20276 0
M  V30 5647 H 545.419 0.620412 2.93413 0
M  V30 5648 H 542.972 0.359946 1.52099 0
M  V30 5649 H 543.707 -1.93051 2.60579 0
M  V30 5650 H 543.492 -0.677358 3.86205 0
M  V30 5651 H 544.982 -1.66698 3.82886 0
M  V30 5652 N 545.419 -1.53889 0.339982 0
M  V30 5653 C 546.668 -2.00035 -0.258604 0
M  V30 5654 C 546.981 -1.23179 -1.51942 0
M  V30 5655 O 548.187 -1.59784 -2.19503 0
M  V30 5656 C 546.643 -3.56249 -0.511359 0
M  V30 5657 C 546.251 -4.41957 0.733349 0
M  V30 5658 C 547.995 -4.1082 -1.069 0
M  V30 5659 C 545.902 -5.89673 0.451591 0
M  V30 5660 H 544.832 -0.747284 -0.10041 0
M  V30 5661 H 547.483 -1.77776 0.454758 0
M  V30 5662 H 545.865 -3.7456 -1.28533 0
M  V30 5663 H 547.039 -4.35421 1.50815 0
M  V30 5664 H 545.354 -3.9836 1.21237 0
M  V30 5665 H 547.951 -5.18789 -1.2947 0
M  V30 5666 H 548.294 -3.63817 -2.02343 0
M  V30 5667 H 548.827 -3.96205 -0.355817 0
M  V30 5668 H 545.566 -6.40903 1.37565 0
M  V30 5669 H 545.086 -5.99122 -0.285193 0
M  V30 5670 H 546.765 -6.46965 0.0675067 0
M  V30 5671 N 546.897 -0.0685191 -1.57451 0
M  V30 5672 C 548.122 0.613919 -1.98106 0
M  V30 5673 C 548.547 1.62551 -0.946501 0
M  V30 5674 O 547.905 1.81085 0.0882824 0
M  V30 5675 C 547.953 1.26189 -3.378 0
M  V30 5676 O 547.057 2.37773 -3.36954 0
M  V30 5677 H 546.398 0.158163 -0.644888 0
M  V30 5678 H 548.928 -0.142063 -2.04106 0
M  V30 5679 H 548.938 1.60951 -3.74912 0
M  V30 5680 H 547.613 0.520625 -4.12629 0
M  V30 5681 H 546.19 2.04829 -3.11608 0
M  V30 5682 N 548.375 1.56261 0.205012 0
M  V30 5683 C 549.323 1.94631 1.27364 0
M  V30 5684 C 550.317 0.830434 1.47649 0
M  V30 5685 O 551.523 1.01538 1.48627 0
M  V30 5686 H 547.898 0.618755 0.427371 0
M  V30 5687 H 549.869 2.83768 0.922941 0
M  V30 5688 C 548.618 2.29358 2.61324 0
M  V30 5689 H 547.941 3.14744 2.46528 0
M  V30 5690 H 549.381 2.60076 3.34868 0
M  V30 5691 C 547.84 1.12461 3.17575 0
M  V30 5692 O 548.37 0.394407 3.99759 0
M  V30 5693 N 546.576 0.904036 2.7618 0
M  V30 5694 H 546.123 1.49956 2.09454 0
M  V30 5695 H 546.081 0.123662 3.14157 0
M  V30 5696 N 549.853 -0.472356 1.50355 0
M  V30 5697 C 550.816 -1.5529 1.68576 0
M  V30 5698 C 551.816 -1.50863 0.556511 0
M  V30 5699 O 553.006 -1.53505 0.823516 0
M  V30 5700 C 550.138 -2.94921 1.70981 0
M  V30 5701 H 551.331 -1.40451 2.64978 0
M  V30 5702 H 548.884 -0.698645 1.39816 0
M  V30 5703 H 549.619 -3.15204 0.762675 0
M  V30 5704 H 549.404 -2.99541 2.53017 0
M  V30 5705 H 550.894 -3.73372 1.87037 0
M  V30 5706 N 551.331 -1.39911 -0.725443 0
M  V30 5707 C 552.263 -1.35301 -1.85003 0
M  V30 5708 C 553.276 -0.260102 -1.60709 0
M  V30 5709 O 554.465 -0.519749 -1.70766 0
M  V30 5710 C 551.565 -1.08039 -3.21218 0
M  V30 5711 C 550.738 -2.28793 -3.7279 0
M  V30 5712 C 549.797 -1.97841 -4.87591 0
M  V30 5713 O 548.823 -2.70616 -5.00755 0
M  V30 5714 N 550.025 -0.950367 -5.72668 0
M  V30 5715 H 552.79 -2.32218 -1.89459 0
M  V30 5716 H 550.351 -1.34137 -0.90658 0
M  V30 5717 H 552.343 -0.853354 -3.95601 0
M  V30 5718 H 550.913 -0.198229 -3.11971 0
M  V30 5719 H 550.133 -2.67388 -2.8965 0
M  V30 5720 H 551.421 -3.09317 -4.03981 0
M  V30 5721 H 550.819 -0.347436 -5.64632 0
M  V30 5722 H 549.376 -0.783232 -6.47077 0
M  V30 5723 N 552.809 0.956637 -1.25245 0
M  V30 5724 C 553.739 2.07058 -1.07931 0
M  V30 5725 C 554.72 1.70096 0.0110361 0
M  V30 5726 O 555.905 1.93555 -0.158121 0
M  V30 5727 C 553.035 3.40272 -0.695124 0
M  V30 5728 C 551.989 3.91235 -1.73549 0
M  V30 5729 C 551.315 5.20921 -1.20604 0
M  V30 5730 C 552.615 4.17837 -3.13385 0
M  V30 5731 H 554.309 2.218 -2.01109 0
M  V30 5732 H 551.855 1.06581 -0.968326 0
M  V30 5733 H 553.808 4.1765 -0.560949 0
M  V30 5734 H 552.532 3.25462 0.272355 0
M  V30 5735 H 551.191 3.16025 -1.85807 0
M  V30 5736 H 550.839 5.02479 -0.228846 0
M  V30 5737 H 550.539 5.55987 -1.90136 0
M  V30 5738 H 552.063 6.00897 -1.08421 0
M  V30 5739 H 553.477 4.8588 -3.04292 0
M  V30 5740 H 551.874 4.64154 -3.80369 0
M  V30 5741 H 552.944 3.2419 -3.60595 0
M  V30 5742 N 554.287 1.06798 1.15896 0
M  V30 5743 C 555.534 0.787767 1.86549 0
M  V30 5744 C 555.862 -0.685959 1.82002 0
M  V30 5745 O 555.117 -1.5188 1.23414 0
M  V30 5746 C 555.416 1.23414 3.35416 0
M  V30 5747 C 555.082 2.71285 3.6016 0
M  V30 5748 C 553.744 3.11676 3.66622 0
M  V30 5749 C 556.096 3.6676 3.7032 0
M  V30 5750 C 553.424 4.4637 3.8075 0
M  V30 5751 C 555.776 5.01209 3.8597 0
M  V30 5752 C 554.44 5.41229 3.90676 0
M  V30 5753 H 553.71 0.288264 0.682631 0
M  V30 5754 H 556.357 1.338 1.37003 0
M  V30 5755 H 554.662 0.60319 3.87129 0
M  V30 5756 H 556.359 0.994298 3.88477 0
M  V30 5757 H 552.949 2.39015 3.55767 0
M  V30 5758 H 557.133 3.36685 3.64633 0
M  V30 5759 H 552.389 4.76855 3.82648 0
M  V30 5760 H 556.563 5.75067 3.92773 0
M  V30 5761 H 554.19 6.45602 4.01375 0
M  V30 5762 N 555.766 -1.3263 0.851289 0
M  V30 5763 C 556.729 -2.27247 0.298541 0
M  V30 5764 C 557.729 -1.51467 -0.539847 0
M  V30 5765 O 558.919 -1.7061 -0.351843 0
M  V30 5766 C 556.051 -3.35964 -0.578004 0
M  V30 5767 H 557.244 -2.7765 1.13359 0
M  V30 5768 H 554.797 -1.43245 0.625354 0
M  V30 5769 H 555.532 -2.90823 -1.435 0
M  V30 5770 H 555.317 -3.92094 0.0220539 0
M  V30 5771 H 556.807 -4.06472 -0.957626 0
M  V30 5772 N 557.244 -0.608902 -1.45362 0
M  V30 5773 C 558.207 0.0992563 -2.28985 0
M  V30 5774 C 559.207 0.793841 -1.39838 0
M  V30 5775 O 560.397 0.641804 -1.61946 0
M  V30 5776 C 557.529 1.15073 -3.20891 0
M  V30 5777 H 558.722 -0.635964 -2.93079 0
M  V30 5778 H 556.275 -0.368007 -1.51906 0
M  V30 5779 H 557.01 1.91667 -2.616 0
M  V30 5780 H 556.795 0.656867 -3.86559 0
M  V30 5781 H 558.285 1.64665 -3.83765 0
M  V30 5782 N 558.722 1.53707 -0.348139 0
M  V30 5783 C 559.947 2.05877 0.250883 0
M  V30 5784 C 560.372 1.22115 1.43072 0
M  V30 5785 O 559.73 0.235986 1.79758 0
M  V30 5786 C 559.778 3.54886 0.639416 0
M  V30 5787 O 558.882 3.73948 1.73888 0
M  V30 5788 H 558.223 0.662754 0.040653 0
M  V30 5789 H 560.753 1.98303 -0.503685 0
M  V30 5790 H 560.763 3.97601 0.915295 0
M  V30 5791 H 559.438 4.153 -0.223386 0
M  V30 5792 H 558.015 3.43134 1.45991 0
M  V30 5793 N 560.2 0.0768682 1.57412 0
M  V30 5794 C 561.616 -0.279772 1.57129 0
M  V30 5795 C 561.816 -1.69688 1.08666 0
M  V30 5796 O 560.872 -2.40953 0.754843 0
M  V30 5797 C 562.185 -0.0848055 3.0058 0
M  V30 5798 C 563.733 -0.153954 3.12621 0
M  V30 5799 C 564.208 0.0127946 4.57998 0
M  V30 5800 N 565.699 -0.0426435 4.6318 0
M  V30 5801 C 566.434 0.0618892 5.73367 0
M  V30 5802 N 565.93 0.220229 6.9245 0
M  V30 5803 N 567.723 0.00446072 5.621 0
M  V30 5804 H 559.874 1.00297 1.87228 0
M  V30 5805 H 562.137 0.391565 0.863354 0
M  V30 5806 H 561.843 0.89325 3.40168 0
M  V30 5807 H 561.717 -0.834961 3.67843 0
M  V30 5808 H 564.104 -1.1225 2.72917 0
M  V30 5809 H 564.185 0.627389 2.47987 0
M  V30 5810 H 563.829 0.978128 4.98392 0
M  V30 5811 H 563.759 -0.788016 5.20671 0
M  V30 5812 H 566.25 -0.163226 3.77547 0
M  V30 5813 H 566.563 0.291999 7.72248 0
M  V30 5814 H 564.908 0.255658 6.9453 0
M  V30 5815 H 568.099 -0.117979 4.67951 0
M  V30 5816 H 568.272 0.0893796 6.47938 0
M  V30 5817 N 561.678 -1.56367 -0.196722 0
M  V30 5818 C 562.625 -1.94417 -1.24382 0
M  V30 5819 C 563.595 -0.804543 -1.45315 0
M  V30 5820 O 564.78 -1.06256 -1.58475 0
M  V30 5821 C 561.92 -2.28757 -2.58388 0
M  V30 5822 C 561.033 -3.55775 -2.45047 0
M  V30 5823 C 560.168 -3.79445 -3.71746 0
M  V30 5824 C 559.207 -4.99894 -3.53231 0
M  V30 5825 N 558.344 -5.19826 -4.71938 0
M  V30 5826 H 563.184 -2.83691 -0.912338 0
M  V30 5827 H 560.721 -1.40392 -0.439135 0
M  V30 5828 H 562.679 -2.46682 -3.36457 0
M  V30 5829 H 561.309 -1.42625 -2.89582 0
M  V30 5830 H 560.361 -3.45905 -1.58284 0
M  V30 5831 H 561.673 -4.44 -2.27299 0
M  V30 5832 H 560.827 -3.97601 -4.58256 0
M  V30 5833 H 559.566 -2.89546 -3.92446 0
M  V30 5834 H 558.571 -4.81662 -2.65107 0
M  V30 5835 H 559.796 -5.913 -3.33978 0
M  V30 5836 H 557.742 -4.32875 -4.92905 0
M  V30 5837 H 557.659 -6.02228 -4.57009 0
M  V30 5838 H 558.927 -5.42439 -5.59803 0
M  V30 5839 N 563.156 0.464375 -1.50603 0
M  V30 5840 C 564.066 1.58723 -1.72754 0
M  V30 5841 C 565.082 1.62925 -0.610844 0
M  V30 5842 O 566.258 1.8067 -0.889963 0
M  V30 5843 C 563.323 2.94897 -1.82309 0
M  V30 5844 C 562.384 3.0103 -3.06071 0
M  V30 5845 C 561.617 4.30708 -3.1516 0
M  V30 5846 O 561.84 5.2159 -2.30868 0
M  V30 5847 O 560.774 4.42571 -4.0794 0
M  V30 5848 H 564.6 1.42954 -2.67951 0
M  V30 5849 H 562.185 0.644579 -1.3478 0
M  V30 5850 H 564.067 3.75764 -1.90735 0
M  V30 5851 H 562.742 3.10851 -0.902967 0
M  V30 5852 H 561.649 2.19217 -3.03142 0
M  V30 5853 H 562.982 2.90014 -3.97684 0
M  V30 5854 N 564.634 1.40294 0.718013 0
M  V30 5855 C 565.864 1.41544 1.50495 0
M  V30 5856 C 566.272 0.0127877 1.89196 0
M  V30 5857 O 565.615 -0.97305 1.55812 0
M  V30 5858 C 565.677 2.24021 2.81167 0
M  V30 5859 C 565.341 3.72463 2.64803 0
M  V30 5860 C 566.338 4.65154 2.32223 0
M  V30 5861 C 564.023 4.1625 2.81143 0
M  V30 5862 C 566.017 5.99618 2.16189 0
M  V30 5863 C 563.704 5.50784 2.64727 0
M  V30 5864 C 564.702 6.42283 2.32297 0
M  V30 5865 O 564.39 7.74337 2.16004 0
M  V30 5866 H 564.122 0.484819 0.471091 0
M  V30 5867 H 566.676 1.84948 0.893488 0
M  V30 5868 H 564.906 1.75393 3.44636 0
M  V30 5869 H 566.595 2.17243 3.42871 0
M  V30 5870 H 567.361 4.32622 2.19234 0
M  V30 5871 H 563.24 3.45352 3.05373 0
M  V30 5872 H 566.784 6.71 1.90799 0
M  V30 5873 H 562.681 5.82902 2.773 0
M  V30 5874 H 563.449 7.85244 2.30942 0
M  V30 5875 N 566.112 -0.949982 1.2575 0
M  V30 5876 C 567.022 -2.08109 1.08295 0
M  V30 5877 C 568.038 -1.7399 0.0188181 0
M  V30 5878 O 569.214 -2.00187 0.220724 0
M  V30 5879 C 566.279 -3.39383 0.708534 0
M  V30 5880 C 565.34 -3.8734 1.85111 0
M  V30 5881 C 564.573 -5.12349 1.49447 0
M  V30 5882 O 564.796 -5.6905 0.392212 0
M  V30 5883 O 563.73 -5.5513 2.32624 0
M  V30 5884 H 567.556 -2.25738 2.03165 0
M  V30 5885 H 565.141 -1.06545 1.04731 0
M  V30 5886 H 567.023 -4.18277 0.512061 0
M  V30 5887 H 565.698 -3.23013 -0.210854 0
M  V30 5888 H 564.605 -3.09429 2.10248 0
M  V30 5889 H 565.938 -4.08216 2.74991 0
M  V30 5890 N 567.59 -1.07411 -1.15328 0
M  V30 5891 C 569.006 -0.799759 -1.38116 0
M  V30 5892 C 569.206 0.59572 -1.92493 0
M  V30 5893 O 568.262 1.35433 -2.13106 0
M  V30 5894 C 569.575 -1.87407 -2.35158 0
M  V30 5895 C 571.123 -1.89889 -2.48819 0
M  V30 5896 C 571.598 -2.96406 -3.49153 0
M  V30 5897 N 573.089 -2.95512 -3.56689 0
M  V30 5898 C 573.824 -3.74575 -4.34144 0
M  V30 5899 N 573.32 -4.63488 -5.14928 0
M  V30 5900 N 575.113 -3.62919 -4.29239 0
M  V30 5901 H 567.264 -1.97411 -0.78374 0
M  V30 5902 H 569.527 -0.856113 -0.407154 0
M  V30 5903 H 569.233 -2.8768 -2.0232 0
M  V30 5904 H 569.107 -1.73471 -3.34944 0
M  V30 5905 H 571.494 -0.902677 -2.80955 0
M  V30 5906 H 571.575 -2.07904 -1.49029 0
M  V30 5907 H 571.219 -3.96227 -3.17752 0
M  V30 5908 H 571.149 -2.75638 -4.48699 0
M  V30 5909 H 573.64 -2.31061 -2.99031 0
M  V30 5910 H 573.953 -5.20445 -5.71276 0
M  V30 5911 H 572.298 -4.67537 -5.14232 0
M  V30 5912 H 575.489 -2.92833 -3.65194 0
M  V30 5913 H 575.662 -4.24777 -4.89355 0
M  V30 5914 N 569.068 1.32177 -0.85831 0
M  V30 5915 C 570.293 2.01847 -0.476718 0
M  V30 5916 C 570.718 1.64065 0.920021 0
M  V30 5917 O 570.076 0.843189 1.60499 0
M  V30 5918 C 570.124 3.55097 -0.627578 0
M  V30 5919 O 569.228 4.11012 0.338086 0
M  V30 5920 H 568.569 0.635907 -0.191099 0
M  V30 5921 H 571.099 1.68641 -1.15851 0
M  V30 5922 H 571.109 4.04718 -0.516476 0
M  V30 5923 H 569.784 3.81938 -1.64609 0
M  V30 5924 H 568.361 3.72451 0.182917 0
M  V30 5925 N 570.547 0.616602 1.45037 0
M  V30 5926 C 571.963 0.280994 1.57107 0
M  V30 5927 C 572.163 -1.21627 1.60653 0
M  V30 5928 O 571.219 -1.9997 1.54169 0
M  V30 5929 C 572.532 0.960116 2.8496 0
M  V30 5930 C 574.08 0.936884 2.98649 0
M  V30 5931 C 574.555 1.59619 4.29285 0
M  V30 5932 N 576.046 1.5621 4.36065 0
M  V30 5933 C 576.781 2.04131 5.35834 0
M  V30 5934 N 576.277 2.60177 6.4209 0
M  V30 5935 N 578.07 1.94845 5.27249 0
M  V30 5936 H 570.221 1.58867 1.40979 0
M  V30 5937 H 572.484 0.666024 0.674623 0
M  V30 5938 H 572.19 2.01473 2.88273 0
M  V30 5939 H 572.064 0.488921 3.74018 0
M  V30 5940 H 574.451 -0.109209 2.94898 0
M  V30 5941 H 574.532 1.44643 2.10979 0
M  V30 5942 H 574.176 2.64166 4.33796 0
M  V30 5943 H 574.106 1.06159 5.15789 0
M  V30 5944 H 576.597 1.15276 3.59889 0
M  V30 5945 H 576.91 2.94513 7.1448 0
M  V30 5946 H 575.255 2.64221 6.42816 0
M  V30 5947 H 578.446 1.50792 4.43147 0
M  V30 5948 H 578.619 2.32504 6.04852 0
M  V30 5949 N 572.025 -1.5352 0.356285 0
M  V30 5950 C 572.988 -2.24071 -0.482182 0
M  V30 5951 C 573.988 -1.24531 -1.01729 0
M  V30 5952 O 575.178 -1.48876 -0.904513 0
M  V30 5953 C 572.31 -2.97025 -1.67299 0
M  V30 5954 H 573.503 -2.99596 0.135031 0
M  V30 5955 H 571.056 -1.55928 0.107825 0
M  V30 5956 H 571.791 -2.25719 -2.32855 0
M  V30 5957 H 571.576 -3.7005 -1.29636 0
M  V30 5958 H 573.066 -3.50683 -2.26741 0
M  V30 5959 N 573.503 -0.0852151 -1.57369 0
M  V30 5960 C 574.433 0.874556 -2.16503 0
M  V30 5961 C 575.414 1.30111 -1.09568 0
M  V30 5962 O 576.599 1.36977 -1.37662 0
M  V30 5963 C 573.729 2.13731 -2.73745 0
M  V30 5964 C 572.683 1.84971 -3.85966 0
M  V30 5965 C 572.009 3.17991 -4.29867 0
M  V30 5966 C 573.309 1.14442 -5.09608 0
M  V30 5967 H 575.003 0.381899 -2.96954 0
M  V30 5968 H 572.549 0.18225 -1.42842 0
M  V30 5969 H 574.502 2.81302 -3.13763 0
M  V30 5970 H 573.226 2.65263 -1.90534 0
M  V30 5971 H 571.885 1.19801 -3.46473 0
M  V30 5972 H 571.533 3.6739 -3.4356 0
M  V30 5973 H 571.233 2.99534 -5.05523 0
M  V30 5974 H 572.757 3.86737 -4.72511 0
M  V30 5975 H 574.171 1.72105 -5.46857 0
M  V30 5976 H 572.568 1.06197 -5.90629 0
M  V30 5977 H 573.638 0.12559 -4.84737 0
M  V30 5978 N 574.981 1.5647 0.188427 0
M  V30 5979 C 575.911 1.98101 1.23606 0
M  V30 5980 C 576.892 0.853961 1.47111 0
M  V30 5981 O 578.077 1.11879 1.58735 0
M  V30 5982 C 575.207 2.32624 2.57882 0
M  V30 5983 C 574.161 3.48129 2.48978 0
M  V30 5984 C 573.487 3.68347 3.87588 0
M  V30 5985 C 574.787 4.82112 2.00911 0
M  V30 5986 H 576.481 2.85864 0.890068 0
M  V30 5987 H 574.027 1.37532 0.426714 0
M  V30 5988 H 575.98 2.60343 3.3136 0
M  V30 5989 H 574.704 1.41751 2.94235 0
M  V30 5990 H 573.363 3.20511 1.77956 0
M  V30 5991 H 573.011 2.74793 4.21305 0
M  V30 5992 H 572.711 4.46055 3.82503 0
M  V30 5993 H 574.235 3.98449 4.62678 0
M  V30 5994 H 575.649 5.08819 2.64151 0
M  V30 5995 H 574.046 5.63337 2.06814 0
M  V30 5996 H 575.116 4.75249 0.96262 0
M  V30 5997 N 576.459 -0.456382 1.50847 0
M  V30 5998 C 577.369 -1.57805 1.73594 0
M  V30 5999 C 578.385 -1.62599 0.619476 0
M  V30 6000 O 579.561 -1.80195 0.899532 0
M  V30 6001 C 576.626 -2.93926 1.8387 0
M  V30 6002 C 575.687 -2.99402 3.07663 0
M  V30 6003 C 574.92 -4.29031 3.1744 0
M  V30 6004 O 575.143 -5.20358 2.33631 0
M  V30 6005 O 574.077 -4.40401 4.10281 0
M  V30 6006 H 577.903 -1.41531 2.68705 0
M  V30 6007 H 575.488 -0.637422 1.3512 0
M  V30 6008 H 577.37 -3.74747 1.92725 0
M  V30 6009 H 576.045 -3.10368 0.91944 0
M  V30 6010 H 574.952 -2.17606 3.043 0
M  V30 6011 H 576.285 -2.87901 3.99216 0
M  V30 6012 N 577.937 -1.40673 -0.710563 0
M  V30 6013 C 579.183 -1.39428 -1.47267 0
M  V30 6014 C 579.516 0.00182129 -1.942 0
M  V30 6015 O 578.791 0.971387 -1.68506 0
M  V30 6016 C 579.074 -2.38812 -2.6952 0
M  V30 6017 C 578.927 -3.87467 -2.28449 0
M  V30 6018 C 580.246 -2.3566 -3.71689 0
M  V30 6019 H 577.365 -0.507768 -0.534173 0
M  V30 6020 H 580.007 -1.71843 -0.810547 0
M  V30 6021 H 578.157 -2.113 -3.26013 0
M  V30 6022 H 579.829 -4.25825 -1.77399 0
M  V30 6023 H 578.072 -4.03058 -1.60395 0
M  V30 6024 H 578.743 -4.5253 -3.16103 0
M  V30 6025 H 581.219 -2.6004 -3.24836 0
M  V30 6026 H 580.095 -3.07237 -4.54859 0
M  V30 6027 H 580.356 -1.36996 -4.20339 0
M  V30 6028 N 579.415 0.9433 -1.26252 0
M  V30 6029 C 580.661 1.69175 -1.11837 0
M  V30 6030 C 580.994 1.91238 0.337891 0
M  V30 6031 O 580.269 1.49152 1.24836 0
M  V30 6032 C 580.552 3.06783 -1.88563 0
M  V30 6033 C 580.405 2.9206 -3.42083 0
M  V30 6034 C 581.724 4.06865 -1.67776 0
M  V30 6035 H 578.843 0.61399 -0.407658 0
M  V30 6036 H 581.485 1.09572 -1.55222 0
M  V30 6037 H 579.635 3.57663 -1.51689 0
M  V30 6038 H 581.307 2.48419 -3.88698 0
M  V30 6039 H 579.55 2.27731 -3.69217 0
M  V30 6040 H 580.221 3.89651 -3.90994 0
M  V30 6041 H 582.697 3.64939 -1.99897 0
M  V30 6042 H 581.573 5.01168 -2.23879 0
M  V30 6043 H 581.834 4.37705 -0.621816 0
M  V30 6044 N 580.893 1.08022 1.14757 0
M  V30 6045 C 581.841 0.701088 2.21783 0
M  V30 6046 C 582.835 -0.291311 1.66876 0
M  V30 6047 O 584.041 -0.154296 1.79337 0
M  V30 6048 H 580.416 0.208668 0.722469 0
M  V30 6049 H 582.387 1.61321 2.51034 0
M  V30 6050 C 581.136 0.122278 3.47485 0
M  V30 6051 H 580.459 0.877065 3.90061 0
M  V30 6052 H 581.899 -0.105248 4.23869 0
M  V30 6053 C 580.358 -1.13883 3.17068 0
M  V30 6054 O 580.888 -2.22429 3.34497 0
M  V30 6055 N 579.094 -1.04767 2.71058 0
M  V30 6056 H 578.641 -0.164302 2.57075 0
M  V30 6057 H 578.599 -1.89224 2.51081 0
M  V30 6058 N 582.371 -1.3172 0.865308 0
M  V30 6059 C 583.648 -1.91574 0.394789 0
M  V30 6060 C 584.028 -1.78769 -1.12271 0
M  V30 6061 O 583.376 -1.19245 -1.94918 0
M  V30 6062 C 583.586 -3.37957 0.870982 0
M  V30 6063 C 584.934 -4.15073 0.894384 0
M  V30 6064 O 585.958 -3.4672 0.816325 0
M  V30 6065 O 584.817 -5.37151 1.00651 0
M  V30 6066 H 581.911 -0.818649 0.117229 0
M  V30 6067 H 584.457 -1.4042 0.952913 0
M  V30 6068 H 583.229 -3.41269 1.91444 0
M  V30 6069 H 582.852 -3.96534 0.290907 0
M  V30 6070 N 583.85 -0.624285 -1.44708 0
M  V30 6071 C 584.779 0.0717025 -2.3339 0
M  V30 6072 C 585.76 0.841814 -1.47809 0
M  V30 6073 O 586.946 0.809056 -1.76544 0
M  V30 6074 C 584.076 1.05852 -3.30776 0
M  V30 6075 C 583.029 0.400503 -4.26122 0
M  V30 6076 C 582.356 1.49674 -5.13324 0
M  V30 6077 C 583.656 -0.688924 -5.17737 0
M  V30 6078 H 585.35 -0.668819 -2.91834 0
M  V30 6079 H 582.896 -0.32308 -1.40329 0
M  V30 6080 H 584.849 1.5541 -3.91696 0
M  V30 6081 H 583.572 1.82984 -2.70526 0
M  V30 6082 H 582.231 -0.0743687 -3.66525 0
M  V30 6083 H 581.88 2.25877 -4.49431 0
M  V30 6084 H 581.58 1.06188 -5.77926 0
M  V30 6085 H 583.104 1.99427 -5.77115 0
M  V30 6086 H 584.518 -0.276724 -5.72632 0
M  V30 6087 H 582.915 -1.04652 -5.90904 0
M  V30 6088 H 583.985 -1.55884 -4.5916 0
M  V30 6089 N 585.328 1.53329 -0.364422 0
M  V30 6090 C 586.575 2.01239 0.225634 0
M  V30 6091 C 586.903 1.25172 1.48869 0
M  V30 6092 O 586.158 0.333289 1.92841 0
M  V30 6093 C 586.457 3.52911 0.564661 0
M  V30 6094 C 586.123 4.46837 -0.603936 0
M  V30 6095 C 584.785 4.72234 -0.924585 0
M  V30 6096 C 587.137 5.02409 -1.38691 0
M  V30 6097 C 584.465 5.50454 -2.0302 0
M  V30 6098 C 586.817 5.81836 -2.48293 0
M  V30 6099 C 585.481 6.0552 -2.80894 0
M  V30 6100 H 584.751 0.736386 0.0825654 0
M  V30 6101 H 587.398 1.84948 -0.496645 0
M  V30 6102 H 585.703 3.67144 1.36794 0
M  V30 6103 H 587.4 3.87455 1.03344 0
M  V30 6104 H 583.99 4.27217 -0.343983 0
M  V30 6105 H 588.174 4.82735 -1.15243 0
M  V30 6106 H 583.43 5.67024 -2.28678 0
M  V30 6107 H 587.604 6.23905 -3.0938 0
M  V30 6108 H 585.231 6.65916 -3.66688 0
M  V30 6109 N 586.806 0.0935595 1.57322 0
M  V30 6110 C 587.716 -0.880192 2.17462 0
M  V30 6111 C 588.732 -1.31135 1.14366 0
M  V30 6112 O 589.908 -1.37958 1.46729 0
M  V30 6113 C 586.973 -2.12184 2.74188 0
M  V30 6114 C 586.034 -1.74503 3.92234 0
M  V30 6115 C 585.267 -2.92748 4.46245 0
M  V30 6116 O 585.49 -4.07427 3.99198 0
M  V30 6117 O 584.424 -2.71303 5.37288 0
M  V30 6118 H 588.25 -0.398516 3.01074 0
M  V30 6119 H 585.835 -0.130707 1.48827 0
M  V30 6120 H 587.717 -2.84953 3.10451 0
M  V30 6121 H 586.392 -2.59407 1.93623 0
M  V30 6122 H 585.299 -0.989186 3.60785 0
M  V30 6123 H 586.632 -1.32044 4.74157 0
M  V30 6124 N 588.284 -1.56567 -0.180126 0
M  V30 6125 C 589.194 -1.98947 -1.24327 0
M  V30 6126 C 590.21 -0.899446 -1.4895 0
M  V30 6127 O 591.386 -1.20639 -1.61271 0
M  V30 6128 C 588.451 -2.33328 -2.56435 0
M  V30 6129 C 587.512 -3.56114 -2.39752 0
M  V30 6130 C 586.745 -3.88845 -3.65561 0
M  V30 6131 O 586.968 -3.22662 -4.70368 0
M  V30 6132 O 585.902 -4.82226 -3.60197 0
M  V30 6133 H 589.728 -2.89634 -0.913565 0
M  V30 6134 H 587.313 -1.44319 -0.386306 0
M  V30 6135 H 589.195 -2.5645 -3.34382 0
M  V30 6136 H 587.87 -1.45806 -2.89002 0
M  V30 6137 H 586.777 -3.38221 -1.59866 0
M  V30 6138 H 588.11 -4.4415 -2.12113 0
M  V30 6139 N 589.762 0.448376 -1.51087 0
M  V30 6140 C 590.694 1.56146 -1.67783 0
M  V30 6141 C 591.707 1.52913 -0.55871 0
M  V30 6142 O 592.896 1.57889 -0.83267 0
M  V30 6143 C 589.996 2.95057 -1.66716 0
M  V30 6144 C 589.169 3.22915 -2.95033 0
M  V30 6145 C 588.228 4.41495 -2.86302 0
M  V30 6146 O 587.254 4.40688 -3.60254 0
M  V30 6147 N 588.456 5.44443 -2.014 0
M  V30 6148 H 591.221 1.42232 -2.638 0
M  V30 6149 H 588.782 0.637153 -1.48835 0
M  V30 6150 H 590.774 3.72388 -1.58458 0
M  V30 6151 H 589.344 3.02624 -0.783403 0
M  V30 6152 H 588.564 2.33985 -3.17245 0
M  V30 6153 H 589.852 3.38349 -3.79996 0
M  V30 6154 H 589.25 5.4793 -1.40674 0
M  V30 6155 H 587.807 6.2067 -1.99029 0
M  V30 6156 N 591.24 1.41047 0.703093 0
M  V30 6157 C 592.468 1.4334 1.49202 0
M  V30 6158 C 592.883 0.0365596 1.88765 0
M  V30 6159 O 592.24 -0.942419 1.56284 0
M  V30 6160 C 592.291 2.33538 2.75939 0
M  V30 6161 O 592.012 3.67786 2.38045 0
M  V30 6162 C 593.513 2.44555 3.6974 0
M  V30 6163 H 590.733 0.488472 0.460039 0
M  V30 6164 H 593.277 1.85245 0.86629 0
M  V30 6165 H 591.432 1.94962 3.34766 0
M  V30 6166 H 591.846 4.15816 3.19683 0
M  V30 6167 H 593.32 3.11849 4.55471 0
M  V30 6168 H 593.797 1.47447 4.1371 0
M  V30 6169 H 594.403 2.83735 3.16819 0
M  V30 6170 N 592.718 -0.936591 1.26751 0
M  V30 6171 C 593.995 -1.66094 1.03306 0
M  V30 6172 C 594.375 -2.06568 -0.435058 0
M  V30 6173 O 593.723 -1.79305 -1.41641 0
M  V30 6174 C 593.933 -2.86969 1.98619 0
M  V30 6175 C 595.281 -3.58516 2.27489 0
M  V30 6176 O 596.305 -2.97082 1.96522 0
M  V30 6177 O 595.164 -4.69181 2.80235 0
M  V30 6178 H 592.258 -0.727568 0.393158 0
M  V30 6179 H 594.804 -0.987914 1.3798 0
M  V30 6180 H 593.576 -2.53985 2.9767 0
M  V30 6181 H 593.199 -3.61996 1.64454 0
M  V30 6182 N 594.196 -1.08629 -1.14182 0
M  V30 6183 C 595.126 -0.740003 -2.21464 0
M  V30 6184 C 596.107 0.278591 -1.67803 0
M  V30 6185 O 597.292 0.148461 -1.93632 0
M  V30 6186 C 594.422 -0.150952 -3.46972 0
M  V30 6187 C 593.376 -1.09815 -4.13672 0
M  V30 6188 C 592.702 -0.3712 -5.3341 0
M  V30 6189 C 594.002 -2.43722 -4.61949 0
M  V30 6190 H 595.696 -1.63697 -2.50686 0
M  V30 6191 H 593.242 -0.788526 -1.20492 0
M  V30 6192 H 595.195 0.103325 -4.21273 0
M  V30 6193 H 593.919 0.781164 -3.1712 0
M  V30 6194 H 592.578 -1.33756 -3.41328 0
M  V30 6195 H 592.226 0.564792 -4.99819 0
M  V30 6196 H 591.926 -1.00267 -5.78982 0
M  V30 6197 H 593.45 -0.12503 -6.10472 0
M  V30 6198 H 594.864 -2.24034 -5.27714 0
M  V30 6199 H 593.261 -3.02582 -5.18232 0
M  V30 6200 H 594.331 -3.05082 -3.76899 0
M  V30 6201 N 595.674 1.31259 -0.872281 0
M  V30 6202 C 596.584 2.32221 -0.333255 0
M  V30 6203 C 597.6 1.6481 0.558013 0
M  V30 6204 O 598.776 1.96212 0.454175 0
M  V30 6205 C 595.841 3.43708 0.454479 0
M  V30 6206 C 594.902 4.26774 -0.465024 0
M  V30 6207 C 594.135 5.32937 0.28521 0
M  V30 6208 O 594.358 5.49968 1.513 0
M  V30 6209 O 593.292 6.00834 -0.358126 0
M  V30 6210 H 597.118 2.80252 -1.17016 0
M  V30 6211 H 594.703 1.352 -0.635724 0
M  V30 6212 H 596.585 4.11656 0.900963 0
M  V30 6213 H 595.26 2.97836 1.26789 0
M  V30 6214 H 594.167 3.61571 -0.960055 0
M  V30 6215 H 595.5 4.76217 -1.2441 0
M  V30 6216 N 597.152 0.631951 1.44375 0
M  V30 6217 C 598.099 -0.0724807 2.30686 0
M  V30 6218 C 599.069 -0.835975 1.43529 0
M  V30 6219 O 600.254 -0.816849 1.7243 0
M  V30 6220 C 597.394 -1.04753 3.28817 0
M  V30 6221 C 596.507 -0.282367 4.31076 0
M  V30 6222 C 595.642 -1.2493 5.163 0
M  V30 6223 C 594.681 -0.473349 6.10267 0
M  V30 6224 N 593.818 -1.39079 6.88187 0
M  V30 6225 H 598.658 0.669477 2.90383 0
M  V30 6226 H 596.195 0.341927 1.43071 0
M  V30 6227 H 598.153 -1.62623 3.842 0
M  V30 6228 H 596.783 -1.75661 2.70819 0
M  V30 6229 H 595.835 0.412268 3.78159 0
M  V30 6230 H 597.147 0.321955 4.9776 0
M  V30 6231 H 596.301 -1.89931 5.76204 0
M  V30 6232 H 595.04 -1.88755 4.49692 0
M  V30 6233 H 594.045 0.190142 5.49471 0
M  V30 6234 H 595.27 0.16019 6.78911 0
M  V30 6235 H 593.216 -2.01623 6.24247 0
M  V30 6236 H 593.133 -0.840513 7.51313 0
M  V30 6237 H 594.401 -2.02961 7.52613 0
M  V30 6238 N 598.631 -1.53133 0.372548 0
M  V30 6239 C 599.88 -2.00539 -0.216115 0
M  V30 6240 C 600.193 -1.26374 -1.49295 0
M  V30 6241 O 601.399 -1.64404 -2.16064 0
M  V30 6242 C 599.855 -3.57253 -0.435678 0
M  V30 6243 C 599.463 -4.40302 0.82693 0
M  V30 6244 C 601.207 -4.12995 -0.981618 0
M  V30 6245 C 599.114 -5.88583 0.576567 0
M  V30 6246 H 598.044 -0.749246 -0.084536 0
M  V30 6247 H 600.695 -1.76771 0.492364 0
M  V30 6248 H 599.077 -3.77202 -1.20559 0
M  V30 6249 H 600.251 -4.32124 1.60017 0
M  V30 6250 H 598.566 -3.95699 1.29659 0
M  V30 6251 H 601.163 -5.21418 -1.18436 0
M  V30 6252 H 601.506 -3.68027 -1.94581 0
M  V30 6253 H 602.039 -3.96871 -0.271696 0
M  V30 6254 H 598.778 -6.37841 1.51128 0
M  V30 6255 H 598.298 -5.99592 -0.158047 0
M  V30 6256 H 599.977 -6.46676 0.204722 0
M  V30 6257 N 600.109 -0.101901 -1.5727 0
M  V30 6258 C 601.355 0.561027 -1.94885 0
M  V30 6259 C 601.688 1.6741 -0.984258 0
M  V30 6260 O 600.963 1.94491 -0.0184767 0
M  V30 6261 C 601.246 1.10982 -3.42571 0
M  V30 6262 C 601.099 0.00133418 -4.498 0
M  V30 6263 C 602.418 2.00608 -3.9172 0
M  V30 6264 H 599.537 0.202467 -0.708644 0
M  V30 6265 H 602.179 -0.173992 -1.89202 0
M  V30 6266 H 600.329 1.73621 -3.47546 0
M  V30 6267 H 602.001 -0.63322 -4.56933 0
M  V30 6268 H 600.244 -0.664143 -4.28686 0
M  V30 6269 H 600.915 0.426253 -5.50352 0
M  V30 6270 H 603.391 1.47864 -3.88941 0
M  V30 6271 H 602.267 2.3593 -4.95609 0
M  V30 6272 H 602.528 2.92608 -3.3141 0
M  V30 6273 N 601.587 1.56661 0.17182 0
M  V30 6274 C 602.534 1.96371 1.21273 0
M  V30 6275 C 603.504 0.82756 1.44016 0
M  V30 6276 O 604.689 1.08764 1.56764 0
M  V30 6277 C 601.829 2.32838 2.54716 0
M  V30 6278 C 600.942 3.59628 2.39356 0
M  V30 6279 C 600.077 3.85311 3.65662 0
M  V30 6280 C 599.116 5.0545 3.45234 0
M  V30 6281 N 598.253 5.27268 4.63608 0
M  V30 6282 H 603.093 2.85106 0.86709 0
M  V30 6283 H 600.63 1.41073 0.416744 0
M  V30 6284 H 602.588 2.52004 3.3249 0
M  V30 6285 H 601.218 1.47214 2.87277 0
M  V30 6286 H 600.27 3.4838 1.52761 0
M  V30 6287 H 601.582 4.4756 2.20207 0
M  V30 6288 H 600.736 4.04841 4.51872 0
M  V30 6289 H 599.475 2.95753 3.8779 0
M  V30 6290 H 598.48 4.85819 2.5741 0
M  V30 6291 H 599.705 5.96538 3.24529 0
M  V30 6292 H 597.651 4.40662 4.85956 0
M  V30 6293 H 597.568 6.09422 4.4737 0
M  V30 6294 H 598.836 5.51277 5.51103 0
M  V30 6295 N 603.065 -0.440357 1.51323 0
M  V30 6296 C 604.012 -1.53429 1.72419 0
M  V30 6297 C 604.982 -1.56165 0.565826 0
M  V30 6298 O 606.167 -1.73222 0.799917 0
M  V30 6299 C 603.307 -2.91169 1.85242 0
M  V30 6300 C 602.42 -2.97985 3.12777 0
M  V30 6301 C 601.555 -4.26829 3.16212 0
M  V30 6302 C 600.594 -4.27501 4.38074 0
M  V30 6303 N 599.731 -5.47866 4.39076 0
M  V30 6304 H 604.571 -1.34743 2.65797 0
M  V30 6305 H 602.108 -0.654608 1.31732 0
M  V30 6306 H 604.066 -3.71087 1.90658 0
M  V30 6307 H 602.696 -3.0842 0.952744 0
M  V30 6308 H 601.748 -2.10749 3.16685 0
M  V30 6309 H 603.06 -2.94342 4.02696 0
M  V30 6310 H 602.214 -5.15118 3.20527 0
M  V30 6311 H 600.953 -4.33124 2.24176 0
M  V30 6312 H 599.958 -3.37606 4.33938 0
M  V30 6313 H 601.183 -4.22873 5.31371 0
M  V30 6314 H 599.129 -5.54887 3.49909 0
M  V30 6315 H 599.046 -5.46091 5.22801 0
M  V30 6316 H 600.314 -6.38195 4.4758 0
M  V30 6317 N 604.543 -1.41418 -0.695603 0
M  V30 6318 C 605.792 -1.40073 -1.4513 0
M  V30 6319 C 606.105 -0.0130439 -1.95596 0
M  V30 6320 O 607.311 0.123032 -2.71221 0
M  V30 6321 C 605.767 -2.46286 -2.62433 0
M  V30 6322 C 605.375 -3.90962 -2.18753 0
M  V30 6323 C 607.119 -2.54077 -3.40066 0
M  V30 6324 C 605.026 -4.88728 -3.33015 0
M  V30 6325 H 603.956 -0.520903 -0.545138 0
M  V30 6326 H 606.607 -1.67242 -0.75515 0
M  V30 6327 H 604.989 -2.12248 -3.34315 0
M  V30 6328 H 606.163 -4.34248 -1.54161 0
M  V30 6329 H 604.478 -3.86831 -1.54114 0
M  V30 6330 H 607.075 -3.24303 -4.25125 0
M  V30 6331 H 607.418 -1.5776 -3.8525 0
M  V30 6332 H 607.951 -2.87206 -2.75241 0
M  V30 6333 H 604.69 -5.86449 -2.92844 0
M  V30 6334 H 604.21 -4.50091 -3.96457 0
M  V30 6335 H 605.889 -5.09483 -3.98793 0
M  V30 6336 N 606.021 0.929856 -1.27246 0
M  V30 6337 C 606.954 2.03069 -1.04106 0
M  V30 6338 C 607.932 1.62556 0.0378417 0
M  V30 6339 O 609.116 1.88197 -0.106869 0
M  V30 6340 C 606.243 3.33718 -0.578778 0
M  V30 6341 C 605.289 3.93209 -1.65193 0
M  V30 6342 S 606.122 4.26068 -3.24386 0
M  V30 6343 C 607.278 5.598 -2.79954 0
M  V30 6344 H 607.511 2.22386 -1.97311 0
M  V30 6345 H 605.044 1.07269 -1.11053 0
M  V30 6346 H 607.002 4.09261 -0.31874 0
M  V30 6347 H 605.663 3.12328 0.333182 0
M  V30 6348 H 604.856 4.87482 -1.27973 0
M  V30 6349 H 604.458 3.24243 -1.86393 0
M  V30 6350 H 606.75 6.39004 -2.25123 0
M  V30 6351 H 607.693 6.01917 -3.72963 0
M  V30 6352 H 608.101 5.20219 -2.19164 0
M  V30 6353 N 607.499 1.09233 1.13605 0
M  V30 6354 C 608.449 0.6994 2.17008 0
M  V30 6355 C 609.433 -0.285238 1.58352 0
M  V30 6356 O 610.625 -0.09592 1.7674 0
M  V30 6357 C 607.754 0.11938 3.43092 0
M  V30 6358 C 606.84 1.13031 4.0876 0
M  V30 6359 N 607.231 2.31673 4.49623 0
M  V30 6360 C 605.529 0.967999 4.35369 0
M  V30 6361 C 606.23 2.95964 5.00779 0
M  V30 6362 N 605.206 2.23534 4.95513 0
M  V30 6363 H 609.008 1.60272 2.46354 0
M  V30 6364 H 606.522 0.968257 1.30378 0
M  V30 6365 H 608.519 -0.180122 4.16511 0
M  V30 6366 H 607.179 -0.778816 3.15221 0
M  V30 6367 H 608.19 2.69277 4.42391 0
M  V30 6368 H 604.867 0.124319 4.17315 0
M  V30 6369 H 606.257 3.96813 5.42208 0
M  V30 6370 N 608.977 -1.30795 0.87923 0
M  V30 6371 C 610.393 -1.48981 0.57243 0
M  V30 6372 C 610.593 -1.80719 -0.891236 0
M  V30 6373 O 609.649 -1.89136 -1.67283 0
M  V30 6374 C 610.962 -2.61721 1.48063 0
M  V30 6375 C 612.51 -2.75603 1.48365 0
M  V30 6376 C 612.985 -3.91449 2.37763 0
M  V30 6377 N 614.476 -3.98751 2.35695 0
M  V30 6378 C 615.211 -4.87684 3.01583 0
M  V30 6379 N 614.707 -5.81454 3.76674 0
M  V30 6380 N 616.5 -4.81005 2.90844 0
M  V30 6381 H 608.651 -1.08465 1.82617 0
M  V30 6382 H 610.914 -0.536813 0.781368 0
M  V30 6383 H 610.62 -2.45073 2.52254 0
M  V30 6384 H 610.494 -3.58071 1.18596 0
M  V30 6385 H 612.881 -2.9166 0.44927 0
M  V30 6386 H 612.962 -1.79891 1.81859 0
M  V30 6387 H 612.606 -3.76149 3.41283 0
M  V30 6388 H 612.536 -4.86487 2.01589 0
M  V30 6389 H 615.027 -3.31668 1.81121 0
M  V30 6390 H 615.34 -6.46063 4.24054 0
M  V30 6391 H 613.685 -5.81403 3.80782 0
M  V30 6392 H 616.876 -4.06728 2.31711 0
M  V30 6393 H 617.049 -5.50107 3.42471 0
M  V30 6394 N 610.455 -0.639598 -1.44038 0
M  V30 6395 C 611.418 0.0506628 -2.29144 0
M  V30 6396 C 612.418 0.764001 -1.41491 0
M  V30 6397 O 613.608 0.607309 -1.63271 0
M  V30 6398 C 610.74 1.0824 -3.2326 0
M  V30 6399 H 611.933 -0.697987 -2.91664 0
M  V30 6400 H 609.486 -0.400146 -1.51091 0
M  V30 6401 H 610.221 1.86075 -2.65606 0
M  V30 6402 H 610.006 0.574725 -3.87865 0
M  V30 6403 H 611.496 1.56487 -3.87171 0
M  V30 6404 N 611.933 1.52934 -0.380664 0
M  V30 6405 C 612.865 2.23822 0.493581 0
M  V30 6406 C 613.878 1.25761 1.03383 0
M  V30 6407 O 615.067 1.5189 0.937633 0
M  V30 6408 C 612.167 2.9342 1.69582 0
M  V30 6409 C 611.34 4.18115 1.28445 0
M  V30 6410 C 610.399 4.70788 2.35042 0
M  V30 6411 O 609.425 5.34093 1.96807 0
M  V30 6412 N 610.627 4.49899 3.66839 0
M  V30 6413 H 613.392 2.99484 -0.11371 0
M  V30 6414 H 610.953 1.60577 -0.206587 0
M  V30 6415 H 612.945 3.2556 2.40401 0
M  V30 6416 H 611.515 2.21119 2.20965 0
M  V30 6417 H 610.735 3.92109 0.405503 0
M  V30 6418 H 612.023 4.99152 0.986132 0
M  V30 6419 H 611.421 3.99349 4.0067 0
M  V30 6420 H 609.978 4.86551 4.33718 0
M  V30 6421 N 613.412 0.11024 1.57214 0
M  V30 6422 C 614.64 -0.557834 1.99238 0
M  V30 6423 C 615.055 -1.60778 0.989734 0
M  V30 6424 O 614.412 -1.82491 -0.0186092 0
M  V30 6425 C 614.463 -1.19189 3.41286 0
M  V30 6426 O 614.184 -0.183919 4.37714 0
M  V30 6427 C 615.685 -1.94413 3.98395 0
M  V30 6428 H 612.905 -0.148392 0.654386 0
M  V30 6429 H 615.449 0.193996 2.03578 0
M  V30 6430 H 613.604 -1.89456 3.37913 0
M  V30 6431 H 614.018 -0.643475 5.20538 0
M  V30 6432 H 615.492 -2.34116 4.99894 0
M  V30 6433 H 615.969 -2.81592 3.3705 0
M  V30 6434 H 616.575 -1.28928 4.05287 0
M  V30 6435 N 614.89 -1.56749 -0.16351 0
M  V30 6436 C 615.82 -2.00042 -1.20438 0
M  V30 6437 C 616.801 -0.877256 -1.45733 0
M  V30 6438 O 617.986 -1.1439 -1.56935 0
M  V30 6439 C 615.116 -2.36697 -2.54149 0
M  V30 6440 C 614.07 -3.52046 -2.43408 0
M  V30 6441 C 613.396 -3.74466 -3.81679 0
M  V30 6442 C 614.696 -4.85247 -1.93216 0
M  V30 6443 H 616.39 -2.87244 -0.844477 0
M  V30 6444 H 613.936 -1.38194 -0.40478 0
M  V30 6445 H 615.889 -2.65582 -3.27176 0
M  V30 6446 H 614.613 -1.46414 -2.91943 0
M  V30 6447 H 613.272 -3.23301 -1.72834 0
M  V30 6448 H 612.92 -2.81461 -4.1688 0
M  V30 6449 H 612.62 -4.52084 -3.75359 0
M  V30 6450 H 614.144 -4.0576 -4.5628 0
M  V30 6451 H 615.558 -5.12957 -2.56023 0
M  V30 6452 H 613.955 -5.66556 -1.97825 0
M  V30 6453 H 615.025 -4.7672 -0.88689 0
M  V30 6454 N 616.368 0.432326 -1.51554 0
M  V30 6455 C 617.298 1.53242 -1.76179 0
M  V30 6456 C 618.279 1.58717 -0.611801 0
M  V30 6457 O 619.464 1.74364 -0.855033 0
M  V30 6458 C 616.594 2.91278 -1.89141 0
M  V30 6459 C 615.548 3.00663 -3.04608 0
M  V30 6460 C 614.874 4.40728 -3.02759 0
M  V30 6461 C 616.174 2.74281 -4.44485 0
M  V30 6462 H 617.868 1.32886 -2.68294 0
M  V30 6463 H 615.414 0.637841 -1.29103 0
M  V30 6464 H 617.367 3.68203 -2.04951 0
M  V30 6465 H 616.091 3.12877 -0.936785 0
M  V30 6466 H 614.75 2.26179 -2.88511 0
M  V30 6467 H 614.398 4.59301 -2.05065 0
M  V30 6468 H 614.098 4.47936 -3.80299 0
M  V30 6469 H 615.622 5.19619 -3.20669 0
M  V30 6470 H 617.036 3.40936 -4.60907 0
M  V30 6471 H 615.433 2.92893 -5.23769 0
M  V30 6472 H 616.503 1.69856 -4.54177 0
M  V30 6473 N 617.846 1.41785 0.688094 0
M  V30 6474 C 618.793 1.44221 1.80191 0
M  V30 6475 C 619.763 0.295688 1.63447 0
M  V30 6476 O 620.948 0.49783 1.84191 0
M  V30 6477 C 618.088 1.33743 3.1813 0
M  V30 6478 C 617.201 2.58325 3.46254 0
M  V30 6479 C 616.336 2.40086 4.73848 0
M  V30 6480 C 615.375 3.60107 4.94964 0
M  V30 6481 N 614.512 3.40892 6.13789 0
M  V30 6482 H 619.352 2.39411 1.77444 0
M  V30 6483 H 616.889 1.18876 0.866423 0
M  V30 6484 H 618.847 1.25669 3.97823 0
M  V30 6485 H 617.477 0.42157 3.20035 0
M  V30 6486 H 616.529 2.7682 2.60912 0
M  V30 6487 H 617.841 3.4758 3.57756 0
M  V30 6488 H 616.995 2.29522 5.61609 0
M  V30 6489 H 615.734 1.483 4.64606 0
M  V30 6490 H 614.739 3.71118 4.05649 0
M  V30 6491 H 615.964 4.52857 5.06061 0
M  V30 6492 H 613.91 2.51812 6.05745 0
M  V30 6493 H 613.827 4.23727 6.26092 0
M  V30 6494 H 615.095 3.34114 7.04264 0
M  V30 6495 N 619.324 -0.923095 1.27737 0
M  V30 6496 C 620.564 -1.6858 1.15586 0
M  V30 6497 C 620.928 -1.89758 -0.292562 0
M  V30 6498 O 622.129 -2.6339 -0.536583 0
M  V30 6499 C 620.4 -3.01275 1.92271 0
M  V30 6500 S 621.959 -3.924 1.96387 0
M  V30 6501 H 618.777 -0.579069 0.412554 0
M  V30 6502 H 621.379 -1.09866 1.61709 0
M  V30 6503 H 620.083 -2.83556 2.96689 0
M  V30 6504 H 619.614 -3.6504 1.46661 0
M  V30 6505 H 621.629 -4.84667 1.06361 0
M  V30 6506 N 620.802 -1.09834 -1.13024 0
M  V30 6507 C 621.712 -0.753731 -2.22162 0
M  V30 6508 C 622.728 0.246105 -1.72251 0
M  V30 6509 O 623.904 0.0864051 -2.01215 0
M  V30 6510 C 620.969 -0.183958 -3.46212 0
M  V30 6511 C 620.03 -1.24028 -4.10993 0
M  V30 6512 C 619.263 -0.697597 -5.29121 0
M  V30 6513 O 619.486 0.478092 -5.68393 0
M  V30 6514 O 618.42 -1.4546 -5.84059 0
M  V30 6515 H 622.246 -1.66456 -2.5402 0
M  V30 6516 H 619.831 -0.873026 -1.21238 0
M  V30 6517 H 621.713 0.130257 -4.21199 0
M  V30 6518 H 620.388 0.699823 -3.16045 0
M  V30 6519 H 619.295 -1.60725 -3.37814 0
M  V30 6520 H 620.628 -2.09685 -4.45301 0
M  V30 6521 N 622.28 1.30327 -0.886154 0
M  V30 6522 C 623.696 1.48676 -0.580323 0
M  V30 6523 C 623.896 1.81189 0.881639 0
M  V30 6524 O 622.952 1.90021 1.66278 0
M  V30 6525 C 624.265 2.60932 -1.49449 0
M  V30 6526 C 625.813 2.74812 -1.49824 0
M  V30 6527 C 626.288 3.90183 -2.39836 0
M  V30 6528 N 627.779 3.97495 -2.37806 0
M  V30 6529 C 628.514 4.86078 -3.04165 0
M  V30 6530 N 628.01 5.79448 -3.79753 0
M  V30 6531 N 629.803 4.79456 -2.93391 0
M  V30 6532 H 621.954 1.07495 -1.8319 0
M  V30 6533 H 624.217 0.532661 -0.784204 0
M  V30 6534 H 623.923 2.43731 -2.5355 0
M  V30 6535 H 623.797 3.57437 -1.20494 0
M  V30 6536 H 626.184 2.91418 -0.464731 0
M  V30 6537 H 626.265 1.78924 -1.82811 0
M  V30 6538 H 625.909 3.74334 -3.43273 0
M  V30 6539 H 625.839 4.85411 -2.04166 0
M  V30 6540 H 628.33 3.30703 -1.82877 0
M  V30 6541 H 628.643 6.43805 -4.27475 0
M  V30 6542 H 626.988 5.79376 -3.8386 0
M  V30 6543 H 630.179 4.05494 -2.33864 0
M  V30 6544 H 630.352 5.48283 -3.45383 0
M  V30 6545 N 623.758 0.647228 1.43697 0
M  V30 6546 C 624.998 0.16171 2.03759 0
M  V30 6547 C 625.362 -1.19951 1.49919 0
M  V30 6548 O 626.563 -1.77808 2.01588 0
M  V30 6549 C 624.834 0.16505 3.57019 0
M  V30 6550 S 626.393 -0.253497 4.38067 0
M  V30 6551 H 623.211 0.0689985 0.707644 0
M  V30 6552 H 625.813 0.854224 1.7585 0
M  V30 6553 H 624.517 1.15858 3.93707 0
M  V30 6554 H 624.048 -0.548194 3.89562 0
M  V30 6555 H 626.063 -1.49385 4.73179 0
M  V30 6556 N 625.236 -1.5273 0.388769 0
M  V30 6557 C 626.461 -2.0647 -0.19621 0
M  V30 6558 C 626.886 -1.25865 -1.39784 0
M  V30 6559 O 626.244 -0.283562 -1.79069 0
M  V30 6560 C 626.292 -3.56456 -0.5451 0
M  V30 6561 O 625.396 -3.78426 -1.63912 0
M  V30 6562 H 624.737 -0.663599 -0.023067 0
M  V30 6563 H 627.267 -1.96898 0.556084 0
M  V30 6564 H 627.277 -3.99888 -0.809557 0
M  V30 6565 H 625.952 -4.14561 0.333417 0
M  V30 6566 H 624.529 -3.46884 -1.36842 0
M  V30 6567 N 626.714 -0.118576 -1.57153 0
M  V30 6568 C 627.96 0.540326 -1.95469 0
M  V30 6569 C 628.293 1.66356 -1.00196 0
M  V30 6570 O 627.568 1.94461 -0.039104 0
M  V30 6571 C 627.851 1.07342 -3.43729 0
M  V30 6572 C 627.704 -0.0463732 -4.49776 0
M  V30 6573 C 629.023 1.96442 -3.93826 0
M  V30 6574 H 626.142 0.19494 -0.710751 0
M  V30 6575 H 628.784 -0.19405 -1.89006 0
M  V30 6576 H 626.934 1.69925 -3.49368 0
M  V30 6577 H 628.606 -0.681648 -4.56236 0
M  V30 6578 H 626.849 -0.709574 -4.27957 0
M  V30 6579 H 627.52 0.367856 -5.50773 0
M  V30 6580 H 629.996 1.43731 -3.90488 0
M  V30 6581 H 628.872 2.3066 -4.98084 0
M  V30 6582 H 629.133 2.89077 -3.34495 0
M  V30 6583 N 628.193 1.56834 0.155195 0
M  V30 6584 C 629.123 2.00678 1.19376 0
M  V30 6585 C 630.104 0.884973 1.45266 0
M  V30 6586 O 631.289 1.1522 1.56326 0
M  V30 6587 C 628.419 2.38042 2.5289 0
M  V30 6588 C 627.373 3.53332 2.41538 0
M  V30 6589 C 626.699 3.76485 3.79688 0
M  V30 6590 C 627.999 4.86265 1.9064 0
M  V30 6591 H 629.693 2.87688 0.829232 0
M  V30 6592 H 627.239 1.38407 0.397445 0
M  V30 6593 H 629.192 2.67314 3.25763 0
M  V30 6594 H 627.916 1.4796 2.91162 0
M  V30 6595 H 626.575 3.24213 1.71117 0
M  V30 6596 H 626.223 2.83667 4.15382 0
M  V30 6597 H 625.923 4.54068 3.72956 0
M  V30 6598 H 627.447 4.08174 4.54122 0
M  V30 6599 H 628.861 5.14308 2.53299 0
M  V30 6600 H 627.258 5.67597 1.94818 0
M  V30 6601 H 628.328 4.77184 0.861596 0
M  V30 6602 N 629.671 -0.424282 1.51781 0
M  V30 6603 C 630.601 -1.52305 1.7699 0
M  V30 6604 C 631.582 -1.5839 0.620209 0
M  V30 6605 O 632.767 -1.73908 0.864268 0
M  V30 6606 C 629.897 -2.90271 1.90683 0
M  V30 6607 C 628.851 -2.99043 3.06198 0
M  V30 6608 C 628.177 -4.39116 3.05092 0
M  V30 6609 C 629.477 -2.7192 4.45934 0
M  V30 6610 H 631.171 -1.31461 2.68995 0
M  V30 6611 H 628.717 -0.630985 1.29439 0
M  V30 6612 H 630.67 -3.6711 2.06901 0
M  V30 6613 H 629.394 -3.12376 0.953365 0
M  V30 6614 H 628.053 -2.24646 2.89706 0
M  V30 6615 H 627.701 -4.58207 2.07498 0
M  V30 6616 H 627.401 -4.45912 3.82669 0
M  V30 6617 H 628.925 -5.17911 3.2342 0
M  V30 6618 H 630.339 -3.38487 4.62709 0
M  V30 6619 H 628.736 -2.90111 5.25315 0
M  V30 6620 H 629.806 -1.67445 4.55072 0
M  V30 6621 N 631.149 -1.42148 -0.680565 0
M  V30 6622 C 632.079 -1.4796 -1.80638 0
M  V30 6623 C 633.06 -0.336728 -1.66734 0
M  V30 6624 O 634.245 -0.550247 -1.86242 0
M  V30 6625 C 631.375 -1.37569 -3.18892 0
M  V30 6626 C 630.329 -2.49823 -3.47524 0
M  V30 6627 C 629.655 -2.24491 -4.85291 0
M  V30 6628 C 630.955 -3.92144 -3.44994 0
M  V30 6629 H 632.649 -2.42184 -1.76032 0
M  V30 6630 H 630.195 -1.16566 -0.845481 0
M  V30 6631 H 632.148 -1.40243 -3.97379 0
M  V30 6632 H 630.872 -0.398357 -3.24162 0
M  V30 6633 H 629.531 -2.46455 -2.71395 0
M  V30 6634 H 629.179 -1.25066 -4.87204 0
M  V30 6635 H 628.879 -2.99722 -5.05411 0
M  V30 6636 H 630.403 -2.28906 -5.66069 0
M  V30 6637 H 631.817 -3.97145 -4.13459 0
M  V30 6638 H 630.214 -4.67179 -3.76648 0
M  V30 6639 H 631.284 -4.19225 -2.43676 0
M  V30 6640 N 632.627 0.916307 -1.28225 0
M  V30 6641 C 633.537 2.05165 -1.13775 0
M  V30 6642 C 634.553 1.73879 -0.0649418 0
M  V30 6643 O 635.729 1.99531 -0.273722 0
M  V30 6644 C 632.794 3.37385 -0.798267 0
M  V30 6645 C 631.855 3.82296 -1.95316 0
M  V30 6646 C 631.088 5.08206 -1.62978 0
M  V30 6647 O 631.311 5.6781 -0.542948 0
M  V30 6648 O 630.245 5.48768 -2.47261 0
M  V30 6649 H 634.071 2.20273 -2.09078 0
M  V30 6650 H 631.656 1.0373 -1.07519 0
M  V30 6651 H 633.538 4.16773 -0.62278 0
M  V30 6652 H 632.213 3.23458 0.125139 0
M  V30 6653 H 631.12 3.03746 -2.18378 0
M  V30 6654 H 632.453 4.00782 -2.85718 0
M  V30 6655 N 634.105 1.10431 1.1244 0
M  V30 6656 C 635.382 0.758797 1.80282 0
M  V30 6657 C 635.762 -0.754727 1.97147 0
M  V30 6658 O 635.11 -1.68094 1.54779 0
M  V30 6659 C 635.32 1.50982 3.14651 0
M  V30 6660 C 636.668 1.68232 3.8985 0
M  V30 6661 O 637.692 1.47319 3.24308 0
M  V30 6662 O 636.551 2.02905 5.07437 0
M  V30 6663 H 633.645 0.273756 0.780376 0
M  V30 6664 H 636.191 1.20713 1.19275 0
M  V30 6665 H 634.963 2.53989 2.97666 0
M  V30 6666 H 634.586 1.05435 3.83366 0
M  V30 6667 N 635.583 -1.29855 0.893053 0
M  V30 6668 C 636.832 -1.95104 0.511597 0
M  V30 6669 C 637.145 -1.71226 -0.945567 0
M  V30 6670 O 638.351 -2.30525 -1.43424 0
M  V30 6671 C 636.807 -3.49374 0.864034 0
M  V30 6672 C 636.415 -3.82061 2.33952 0
M  V30 6673 C 638.159 -4.20894 0.552167 0
M  V30 6674 C 636.066 -5.29546 2.63316 0
M  V30 6675 H 634.996 -0.73029 0.187597 0
M  V30 6676 H 637.647 -1.47682 1.08914 0
M  V30 6677 H 636.029 -3.95413 0.215493 0
M  V30 6678 H 637.203 -3.46904 3.03305 0
M  V30 6679 H 635.518 -3.23665 2.61973 0
M  V30 6680 H 638.115 -5.29435 0.748489 0
M  V30 6681 H 638.458 -4.13178 -0.508924 0
M  V30 6682 H 638.991 -3.80564 1.15825 0
M  V30 6683 H 635.73 -5.4232 3.68197 0
M  V30 6684 H 635.25 -5.65974 1.9858 0
M  V30 6685 H 636.929 -5.97068 2.49236 0
M  V30 6686 N 637.061 -0.65484 -1.43351 0
M  V30 6687 C 637.971 0.0363603 -2.34572 0
M  V30 6688 C 638.987 0.810432 -1.53974 0
M  V30 6689 O 640.163 0.757308 -1.86619 0
M  V30 6690 C 637.228 0.989733 -3.32273 0
M  V30 6691 C 636.289 0.212414 -4.28774 0
M  V30 6692 C 635.522 1.12038 -5.21808 0
M  V30 6693 O 635.745 2.35967 -5.19303 0
M  V30 6694 O 634.679 0.59191 -5.98982 0
M  V30 6695 H 638.505 -0.714527 -2.95175 0
M  V30 6696 H 636.09 -0.415029 -1.4352 0
M  V30 6697 H 637.972 1.53759 -3.92347 0
M  V30 6698 H 636.647 1.72082 -2.74171 0
M  V30 6699 H 635.554 -0.379062 -3.72175 0
M  V30 6700 H 636.887 -0.479138 -4.89862 0
M  V30 6701 N 638.539 1.52521 -0.396863 0
M  V30 6702 C 639.764 2.06571 0.185258 0
M  V30 6703 C 640.189 1.26605 1.39115 0
M  V30 6704 O 639.547 0.293055 1.78916 0
M  V30 6705 C 639.595 3.5674 0.526189 0
M  V30 6706 O 638.699 3.7929 1.61903 0
M  V30 6707 H 638.04 0.663712 0.0195474 0
M  V30 6708 H 640.57 1.966 -0.566519 0
M  V30 6709 H 640.58 4.00311 0.788338 0
M  V30 6710 H 639.255 4.14379 -0.355397 0
M  V30 6711 H 637.832 3.47605 1.35 0
M  V30 6712 N 640.017 0.126909 1.57088 0
M  V30 6713 C 641.428 -0.397201 1.82426 0
M  V30 6714 C 641.779 -1.66084 1.04453 0
M  V30 6715 O 640.904 -2.14534 0.283552 0
M  V30 6716 C 641.499 -0.727411 3.30899 0
M  V30 6717 C 640.058 -1.19612 3.56889 0
M  V30 6718 C 639.205 -0.20885 2.76512 0
M  V30 6719 H 642.156 0.351924 1.54749 0
M  V30 6720 H 642.177 -1.58407 3.45959 0
M  V30 6721 H 641.689 0.19247 3.87622 0
M  V30 6722 H 639.79 -2.13263 3.05532 0
M  V30 6723 H 639.903 -1.13598 4.65438 0
M  V30 6724 H 638.267 -0.697479 2.44964 0
M  V30 6725 H 639.05 0.704267 3.35998 0
M  V30 6726 N 641.495 -1.56914 -0.146875 0
M  V30 6727 C 642.741 -1.83628 -0.860741 0
M  V30 6728 C 643.074 -0.708528 -1.80813 0
M  V30 6729 O 642.349 0.287838 -1.92358 0
M  V30 6730 C 642.632 -3.20836 -1.63511 0
M  V30 6731 C 642.485 -4.44174 -0.709199 0
M  V30 6732 C 643.804 -3.55268 -2.59756 0
M  V30 6733 H 640.923 -0.667949 -0.311468 0
M  V30 6734 H 643.565 -1.89582 -0.125936 0
M  V30 6735 H 641.715 -3.15891 -2.26153 0
M  V30 6736 H 643.387 -4.61205 -0.0937781 0
M  V30 6737 H 641.63 -4.33796 -0.0187856 0
M  V30 6738 H 642.301 -5.36785 -1.28707 0
M  V30 6739 H 644.777 -3.60824 -2.07232 0
M  V30 6740 H 643.653 -4.52303 -3.10987 0
M  V30 6741 H 643.914 -2.81231 -3.41118 0
M  V30 6742 N 642.974 0.416227 -1.52004 0
M  V30 6743 C 644.22 1.16555 -1.6596 0
M  V30 6744 C 644.553 1.90347 -0.384906 0
M  V30 6745 O 643.828 1.84474 0.616405 0
M  V30 6746 C 644.111 2.1657 -2.87696 0
M  V30 6747 C 643.964 1.46722 -4.25197 0
M  V30 6748 C 645.283 3.17321 -3.04951 0
M  V30 6749 H 642.402 0.422369 -0.603965 0
M  V30 6750 H 645.044 0.452141 -1.84542 0
M  V30 6751 H 643.194 2.77411 -2.71985 0
M  V30 6752 H 644.866 0.89056 -4.52622 0
M  V30 6753 H 643.109 0.769263 -4.26925 0
M  V30 6754 H 643.78 2.19665 -5.0641 0
M  V30 6755 H 646.256 2.66552 -3.19514 0
M  V30 6756 H 645.132 3.84573 -3.91656 0
M  V30 6757 H 645.393 3.84643 -2.17951 0
M  V30 6758 N 644.452 1.42507 0.673017 0
M  V30 6759 C 645.399 1.46124 1.78651 0
M  V30 6760 C 646.369 0.313007 1.63124 0
M  V30 6761 O 647.554 0.517337 1.83653 0
M  V30 6762 C 644.694 1.3711 3.16694 0
M  V30 6763 C 643.807 2.61983 3.43495 0
M  V30 6764 C 642.942 2.45098 4.71275 0
M  V30 6765 C 641.981 3.65336 4.91117 0
M  V30 6766 N 641.118 3.47383 6.10139 0
M  V30 6767 H 645.958 2.4128 1.74895 0
M  V30 6768 H 643.495 1.19788 0.853766 0
M  V30 6769 H 645.453 1.29881 3.96468 0
M  V30 6770 H 644.083 0.45549 3.1957 0
M  V30 6771 H 643.135 2.79571 2.57961 0
M  V30 6772 H 644.447 3.51355 3.5405 0
M  V30 6773 H 643.601 2.35466 5.59143 0
M  V30 6774 H 642.34 1.53219 4.63007 0
M  V30 6775 H 641.345 3.754 4.0169 0
M  V30 6776 H 642.57 4.58199 5.01229 0
M  V30 6777 H 640.516 2.58222 6.0304 0
M  V30 6778 H 640.433 4.30344 6.21563 0
M  V30 6779 H 641.701 3.41565 7.00681 0
M  V30 6780 N 645.93 -0.909495 1.28709 0
M  V30 6781 C 647.177 -1.65905 1.16111 0
M  V30 6782 C 647.505 -1.92334 -0.289436 0
M  V30 6783 O 646.76 -1.52495 -1.22653 0
M  V30 6784 C 647.059 -3.02117 1.90945 0
M  V30 6785 C 646.725 -2.95332 3.40719 0
M  V30 6786 C 645.387 -2.93189 3.81567 0
M  V30 6787 C 647.739 -2.85264 4.36204 0
M  V30 6788 C 645.067 -2.78784 5.16233 0
M  V30 6789 C 647.419 -2.724 5.70948 0
M  V30 6790 C 646.083 -2.68617 6.11066 0
M  V30 6791 H 645.353 -0.60709 0.42488 0
M  V30 6792 H 648 -1.05932 1.59533 0
M  V30 6793 H 646.305 -3.65901 1.40085 0
M  V30 6794 H 648.002 -3.59026 1.7861 0
M  V30 6795 H 644.592 -2.97797 3.08245 0
M  V30 6796 H 648.776 -2.86005 4.05605 0
M  V30 6797 H 644.032 -2.74254 5.46438 0
M  V30 6798 H 648.206 -2.63579 6.44592 0
M  V30 6799 H 645.833 -2.57213 7.15364 0
M  V30 6800 N 647.408 -1.11026 -1.11852 0
M  V30 6801 C 648.636 -0.878818 -1.87308 0
M  V30 6802 C 649.051 0.57111 -1.79955 0
M  V30 6803 O 648.408 1.39409 -1.17777 0
M  V30 6804 C 648.459 -1.3264 -3.36287 0
M  V30 6805 O 648.18 -2.71948 -3.43476 0
M  V30 6806 C 649.681 -1.12974 -4.28663 0
M  V30 6807 H 646.901 -0.315015 -0.592458 0
M  V30 6808 H 649.445 -1.47649 -1.41492 0
M  V30 6809 H 647.6 -0.772269 -3.79625 0
M  V30 6810 H 648.014 -2.91241 -4.3621 0
M  V30 6811 H 649.488 -1.49198 -5.31454 0
M  V30 6812 H 649.965 -0.0689127 -4.39146 0
M  V30 6813 H 650.571 -1.67064 -3.91113 0
M  V30 6814 N 648.886 1.2938 -0.899927 0
M  V30 6815 C 649.833 2.27713 -0.376243 0
M  V30 6816 C 650.803 1.57016 0.541774 0
M  V30 6817 O 651.988 1.84997 0.466966 0
M  V30 6818 C 649.128 3.42889 0.39 0
M  V30 6819 C 648.241 4.28369 -0.558938 0
M  V30 6820 C 647.376 5.30726 0.224379 0
M  V30 6821 C 646.415 6.07862 -0.719068 0
M  V30 6822 N 645.552 7.02094 0.0298569 0
M  V30 6823 H 650.392 2.71888 -1.21988 0
M  V30 6824 H 647.929 1.33724 -0.612879 0
M  V30 6825 H 649.887 4.08443 0.850314 0
M  V30 6826 H 648.517 2.99743 1.19809 0
M  V30 6827 H 647.569 3.62986 -1.13777 0
M  V30 6828 H 648.881 4.82068 -1.2811 0
M  V30 6829 H 648.035 6.02098 0.745881 0
M  V30 6830 H 646.774 4.77759 0.979674 0
M  V30 6831 H 645.779 5.35353 -1.25207 0
M  V30 6832 H 647.004 6.62917 -1.4737 0
M  V30 6833 H 644.95 6.51496 0.767415 0
M  V30 6834 H 644.867 7.5335 -0.632391 0
M  V30 6835 H 646.135 7.77685 0.531615 0
M  V30 6836 N 650.364 0.662433 1.43002 0
M  V30 6837 C 651.589 0.186003 2.06564 0
M  V30 6838 C 652.014 -1.14314 1.49379 0
M  V30 6839 O 651.372 -1.70824 0.607346 0
M  V30 6840 C 651.42 0.118269 3.60406 0
M  V30 6841 O 650.524 -0.916859 4.02079 0
M  V30 6842 H 649.865 0.0990981 0.656563 0
M  V30 6843 H 652.395 0.907958 1.8335 0
M  V30 6844 H 652.405 -0.0619981 4.07953 0
M  V30 6845 H 651.08 1.08849 4.01403 0
M  V30 6846 H 649.657 -0.708635 3.66105 0
M  V30 6847 N 651.842 -1.52309 0.404946 0
M  V30 6848 C 653.089 -2.01767 -0.1722 0
M  V30 6849 C 653.417 -1.29075 -1.45498 0
M  V30 6850 O 652.672 -0.3843 -1.9189 0
M  V30 6851 C 652.971 -3.54284 -0.470895 0
M  V30 6852 C 652.637 -4.45079 0.722194 0
M  V30 6853 C 651.299 -4.69617 1.04946 0
M  V30 6854 C 653.651 -4.98555 1.51962 0
M  V30 6855 C 650.979 -5.44878 2.17543 0
M  V30 6856 C 653.331 -5.75049 2.63632 0
M  V30 6857 C 651.995 -5.9786 2.9685 0
M  V30 6858 H 651.265 -0.738316 -0.0630125 0
M  V30 6859 H 653.912 -1.83566 0.545506 0
M  V30 6860 H 652.217 -3.70642 -1.27012 0
M  V30 6861 H 653.914 -3.90058 -0.930346 0
M  V30 6862 H 650.504 -4.26155 0.457131 0
M  V30 6863 H 654.688 -4.79509 1.28002 0
M  V30 6864 H 649.944 -5.60762 2.43631 0
M  V30 6865 H 654.118 -6.15483 3.25813 0
M  V30 6866 H 651.745 -6.5596 3.84215 0
M  V30 6867 N 653.32 -0.135238 -1.57019 0
M  V30 6868 C 654.23 0.822226 -2.19719 0
M  V30 6869 C 655.246 1.28057 -1.17802 0
M  V30 6870 O 656.422 1.3402 -1.50335 0
M  V30 6871 C 653.487 2.0484 -2.79717 0
M  V30 6872 C 652.548 1.64042 -3.96723 0
M  V30 6873 C 651.781 2.80814 -4.53849 0
M  V30 6874 O 652.004 3.967 -4.0986 0
M  V30 6875 O 650.938 2.56963 -5.44292 0
M  V30 6876 H 654.764 0.318552 -3.02025 0
M  V30 6877 H 652.349 0.0912021 -1.49121 0
M  V30 6878 H 654.231 2.76622 -3.17897 0
M  V30 6879 H 652.906 2.54182 -2.00432 0
M  V30 6880 H 651.813 0.893182 -3.63281 0
M  V30 6881 H 653.146 1.19426 -4.77492 0
M  V30 6882 N 654.798 1.5699 0.138552 0
M  V30 6883 C 655.728 2.01933 1.17241 0
M  V30 6884 C 656.709 0.90033 1.44319 0
M  V30 6885 O 657.894 1.16872 1.55095 0
M  V30 6886 C 655.024 2.40711 2.50351 0
M  V30 6887 C 653.978 3.55874 2.37776 0
M  V30 6888 C 653.304 3.80491 3.75674 0
M  V30 6889 C 654.604 4.8826 1.85472 0
M  V30 6890 H 656.298 2.88551 0.798672 0
M  V30 6891 H 653.844 1.3882 0.382743 0
M  V30 6892 H 655.797 2.70754 3.22909 0
M  V30 6893 H 654.521 1.5104 2.89576 0
M  V30 6894 H 653.18 3.2601 1.67669 0
M  V30 6895 H 652.828 2.88057 4.12349 0
M  V30 6896 H 652.528 4.57998 3.68119 0
M  V30 6897 H 654.052 4.12967 4.49767 0
M  V30 6898 H 655.466 5.16965 2.4783 0
M  V30 6899 H 653.863 5.69631 1.88787 0
M  V30 6900 H 654.933 4.78071 0.810935 0
M  V30 6901 N 656.276 -0.40816 1.52223 0
M  V30 6902 C 657.209 -1.51834 1.70357 0
M  V30 6903 C 658.187 -1.52973 0.551171 0
M  V30 6904 O 659.371 -1.71667 0.778642 0
M  V30 6905 C 656.498 -2.90362 1.74378 0
M  V30 6906 C 655.544 -3.0713 2.95928 0
M  V30 6907 S 656.377 -2.80342 4.56255 0
M  V30 6908 C 657.533 -4.21098 4.63063 0
M  V30 6909 H 657.766 -1.36223 2.64255 0
M  V30 6910 H 655.299 -0.599798 1.42274 0
M  V30 6911 H 657.257 -3.70199 1.77379 0
M  V30 6912 H 655.918 -3.03314 0.816063 0
M  V30 6913 H 655.111 -4.08482 2.95226 0
M  V30 6914 H 654.713 -2.3516 2.90819 0
M  V30 6915 H 657.005 -5.14749 4.40499 0
M  V30 6916 H 657.948 -4.26823 5.65002 0
M  V30 6917 H 658.356 -4.06114 3.92086 0
M  V30 6918 N 657.755 -1.42862 -0.66545 0
M  V30 6919 C 658.98 -1.47456 -1.45848 0
M  V30 6920 C 659.405 -0.0900312 -1.87884 0
M  V30 6921 O 658.763 0.913587 -1.56599 0
M  V30 6922 C 658.811 -2.41514 -2.67774 0
M  V30 6923 O 657.915 -1.89296 -3.66389 0
M  V30 6924 H 657.256 -0.499236 -0.437789 0
M  V30 6925 H 659.786 -1.8765 -0.815394 0
M  V30 6926 H 659.796 -2.58409 -3.15735 0
M  V30 6927 H 658.471 -3.42099 -2.36519 0
M  V30 6928 H 657.048 -1.82003 -3.25468 0
M  V30 6929 N 659.233 0.902656 -1.29189 0
M  V30 6930 C 660.644 1.46809 -1.15343 0
M  V30 6931 C 660.995 1.94568 0.252517 0
M  V30 6932 O 660.12 1.83454 1.14777 0
M  V30 6933 C 660.715 2.66829 -2.08776 0
M  V30 6934 C 659.274 3.19518 -1.98961 0
M  V30 6935 C 658.421 1.92212 -1.99874 0
M  V30 6936 H 661.372 0.714282 -1.41717 0
M  V30 6937 H 661.393 3.42465 -1.65826 0
M  V30 6938 H 660.905 2.32039 -3.11094 0
M  V30 6939 H 659.006 3.59008 -0.99721 0
M  V30 6940 H 659.119 3.84016 -2.86477 0
M  V30 6941 H 657.483 2.0979 -1.44431 0
M  V30 6942 H 658.266 1.59702 -3.03891 0
M  V30 6943 N 660.711 1.11618 1.11262 0
M  V30 6944 C 661.658 0.7762 2.17356 0
M  V30 6945 C 662.628 -0.253152 1.6416 0
M  V30 6946 O 663.813 -0.129655 1.90359 0
M  V30 6947 C 660.953 0.227581 3.44349 0
M  V30 6948 C 660.066 1.31372 4.1154 0
M  V30 6949 C 659.201 0.72544 5.26223 0
M  V30 6950 C 658.24 1.7913 5.85302 0
M  V30 6951 N 657.377 1.22237 6.91377 0
M  V30 6952 H 662.217 1.68508 2.45783 0
M  V30 6953 H 659.754 0.841475 1.20655 0
M  V30 6954 H 661.712 -0.108483 4.17059 0
M  V30 6955 H 660.342 -0.644486 3.16301 0
M  V30 6956 H 659.394 1.7667 3.36885 0
M  V30 6957 H 660.706 2.12005 4.51504 0
M  V30 6958 H 659.86 0.339541 6.05749 0
M  V30 6959 H 658.599 -0.112188 4.87571 0
M  V30 6960 H 657.604 2.18648 5.04453 0
M  V30 6961 H 658.829 2.63199 6.26022 0
M  V30 6962 H 656.775 0.406423 6.5474 0
M  V30 6963 H 656.692 1.9654 7.30006 0
M  V30 6964 H 657.96 0.863426 7.74703 0
M  V30 6965 N 662.189 -1.289 0.906776 0
M  V30 6966 C 663.429 -1.97046 0.543329 0
M  V30 6967 C 663.793 -1.69862 -0.895034 0
M  V30 6968 O 664.994 -2.31521 -1.36571 0
M  V30 6969 C 663.265 -3.47489 0.835833 0
M  V30 6970 S 664.824 -4.3498 0.577756 0
M  V30 6971 H 661.642 -0.681908 0.201302 0
M  V30 6972 H 664.244 -1.5657 1.17073 0
M  V30 6973 H 662.948 -3.64768 1.88075 0
M  V30 6974 H 662.479 -3.92907 0.196817 0
M  V30 6975 H 664.494 -4.92868 -0.574052 0
M  V30 6976 N 663.667 -0.670007 -1.42649 0
M  V30 6977 C 664.892 -0.196955 -2.06463 0
M  V30 6978 C 665.317 1.1352 -1.49983 0
M  V30 6979 O 664.675 1.705 -0.616397 0
M  V30 6980 C 664.723 -0.137381 -3.60338 0
M  V30 6981 O 663.827 0.895523 -4.02559 0
M  V30 6982 H 663.168 -0.102579 -0.656029 0
M  V30 6983 H 665.698 -0.917669 -1.82866 0
M  V30 6984 H 665.708 0.0403625 -4.0798 0
M  V30 6985 H 664.383 -1.10977 -4.0082 0
M  V30 6986 H 662.96 0.689209 -3.66476 0
M  V30 6987 N 665.145 1.52092 -0.413018 0
M  V30 6988 C 666.108 2.25706 0.398687 0
M  V30 6989 C 667.108 1.28221 0.970368 0
M  V30 6990 O 668.298 1.52131 0.848635 0
M  V30 6991 C 665.43 3.03029 1.5616 0
M  V30 6992 H 666.623 2.98888 -0.246131 0
M  V30 6993 H 664.176 1.5542 -0.165622 0
M  V30 6994 H 664.911 2.34205 2.24317 0
M  V30 6995 H 664.696 3.74606 1.15812 0
M  V30 6996 H 666.186 3.58857 2.13569 0
M  V30 6997 N 666.623 0.143563 1.56945 0
M  V30 6998 C 667.9 -0.553285 1.87612 0
M  V30 6999 C 668.28 -1.83195 1.04894 0
M  V30 7000 O 667.628 -2.28102 0.134773 0
M  V30 7001 C 667.838 -0.822055 3.3918 0
M  V30 7002 C 669.186 -1.16435 4.08324 0
M  V30 7003 O 670.21 -0.911522 3.4434 0
M  V30 7004 O 669.069 -1.63996 5.21313 0
M  V30 7005 H 666.163 -0.281851 0.777489 0
M  V30 7006 H 668.709 0.179916 1.68744 0
M  V30 7007 H 667.481 0.0830265 3.91212 0
M  V30 7008 H 667.104 -1.60956 3.63564 0
M  V30 7009 N 668.101 -1.57061 -0.130224 0
M  V30 7010 C 669.064 -1.98593 -1.14426 0
M  V30 7011 C 670.064 -0.874584 -1.34936 0
M  V30 7012 O 671.254 -1.14086 -1.31643 0
M  V30 7013 C 668.386 -2.31639 -2.50112 0
M  V30 7014 H 669.579 -2.89374 -0.787561 0
M  V30 7015 H 667.132 -1.51756 -0.374146 0
M  V30 7016 H 667.867 -1.43703 -2.90723 0
M  V30 7017 H 667.652 -3.12684 -2.36583 0
M  V30 7018 H 669.142 -2.64551 -3.23114 0
M  V30 7019 N 669.579 0.400081 -1.52437 0
M  V30 7020 C 670.489 1.51253 -1.79331 0
M  V30 7021 C 671.505 1.60188 -0.679396 0
M  V30 7022 O 672.681 1.76733 -0.965791 0
M  V30 7023 C 669.746 2.869 -1.94652 0
M  V30 7024 C 668.807 2.87777 -3.18564 0
M  V30 7025 C 668.04 4.16954 -3.33145 0
M  V30 7026 O 668.263 5.11329 -2.52783 0
M  V30 7027 O 667.197 4.2487 -4.26343 0
M  V30 7028 H 671.023 1.31461 -2.73773 0
M  V30 7029 H 668.608 0.586834 -1.37392 0
M  V30 7030 H 670.49 3.67336 -2.065 0
M  V30 7031 H 669.165 3.06741 -1.034 0
M  V30 7032 H 668.072 2.06162 -3.12167 0
M  V30 7033 H 669.405 2.72886 -4.09627 0
M  V30 7034 N 671.057 1.43213 0.657864 0
M  V30 7035 C 672.005 1.48271 1.79216 0
M  V30 7036 C 672.999 0.35675 1.65601 0
M  V30 7037 O 674.205 0.530535 1.72004 0
M  V30 7038 H 670.58 0.464729 0.591211 0
M  V30 7039 H 672.551 2.43792 1.7207 0
M  V30 7040 C 671.3 1.41837 3.17455 0
M  V30 7041 H 670.623 2.27781 3.28567 0
M  V30 7042 H 672.063 1.49438 3.96793 0
M  V30 7043 C 670.522 0.135347 3.36628 0
M  V30 7044 O 671.052 -0.805199 3.93547 0
M  V30 7045 N 669.258 0.0470316 2.90562 0
M  V30 7046 H 668.805 0.813221 2.44427 0
M  V30 7047 H 668.763 -0.810737 3.03767 0
M  V30 7048 N 672.536 -0.895792 1.29666 0
M  V30 7049 C 673.761 -1.68528 1.20885 0
M  V30 7050 C 674.186 -1.8673 -0.226595 0
M  V30 7051 O 673.544 -1.39044 -1.16347 0
M  V30 7052 C 673.592 -3.04512 1.93144 0
M  V30 7053 O 672.696 -3.92963 1.25115 0
M  V30 7054 H 672.037 -0.515371 0.418675 0
M  V30 7055 H 674.567 -1.11878 1.71302 0
M  V30 7056 H 674.577 -3.54628 2.0175 0
M  V30 7057 H 673.252 -2.90582 2.97548 0
M  V30 7058 H 671.829 -3.51399 1.24794 0
M  V30 7059 N 674.014 -1.12206 -1.10668 0
M  V30 7060 C 675.261 -0.875875 -1.82578 0
M  V30 7061 C 675.589 0.598342 -1.85068 0
M  V30 7062 O 674.844 1.45818 -1.3052 0
M  V30 7063 C 675.143 -1.39276 -3.29146 0
M  V30 7064 C 674.809 -2.8816 -3.46806 0
M  V30 7065 C 673.471 -3.28813 -3.51334 0
M  V30 7066 C 675.823 -3.8401 -3.52399 0
M  V30 7067 C 673.151 -4.64028 -3.59019 0
M  V30 7068 C 675.503 -5.19053 -3.61617 0
M  V30 7069 C 674.167 -5.59252 -3.64408 0
M  V30 7070 H 673.437 -0.320505 -0.6681 0
M  V30 7071 H 676.084 -1.40184 -1.30464 0
M  V30 7072 H 674.389 -0.787207 -3.8381 0
M  V30 7073 H 676.086 -1.17851 -3.83291 0
M  V30 7074 H 672.676 -2.55716 -3.43958 0
M  V30 7075 H 676.86 -3.53698 -3.48154 0
M  V30 7076 H 672.116 -4.94568 -3.59461 0
M  V30 7077 H 676.29 -5.93152 -3.64889 0
M  V30 7078 H 673.917 -6.64017 -3.70116 0
M  V30 7079 N 675.492 1.28418 -0.913599 0
M  V30 7080 C 676.439 2.27301 -0.400373 0
M  V30 7081 C 677.409 1.57582 0.52509 0
M  V30 7082 O 678.594 1.85482 0.447318 0
M  V30 7083 C 675.734 3.43284 0.35361 0
M  V30 7084 C 674.847 4.27752 -0.604341 0
M  V30 7085 C 673.982 5.30934 0.168075 0
M  V30 7086 C 673.021 6.07065 -0.783499 0
M  V30 7087 N 672.158 7.02086 -0.0446112 0
M  V30 7088 H 676.998 2.70579 -1.24865 0
M  V30 7089 H 674.535 1.33067 -0.627028 0
M  V30 7090 H 676.493 4.09322 0.806945 0
M  V30 7091 H 675.123 3.00997 1.16623 0
M  V30 7092 H 674.175 3.61759 -1.17621 0
M  V30 7093 H 675.487 4.80682 -1.33216 0
M  V30 7094 H 674.641 6.02855 0.681979 0
M  V30 7095 H 673.38 4.78771 0.928947 0
M  V30 7096 H 672.385 5.33995 -1.30878 0
M  V30 7097 H 673.61 6.61317 -1.54392 0
M  V30 7098 H 671.556 6.52273 0.698272 0
M  V30 7099 H 671.473 7.52637 -0.712258 0
M  V30 7100 H 672.741 7.78205 0.449102 0
M  V30 7101 N 676.97 0.677563 1.42291 0
M  V30 7102 C 677.88 0.000962654 2.346 0
M  V30 7103 C 678.896 -0.785833 1.55244 0
M  V30 7104 O 680.072 -0.727523 1.87801 0
M  V30 7105 C 677.137 -0.936746 3.33805 0
M  V30 7106 C 676.198 -0.144173 4.29058 0
M  V30 7107 C 675.431 -1.03722 5.23524 0
M  V30 7108 O 675.654 -2.27675 5.22992 0
M  V30 7109 O 674.588 -0.496542 5.99848 0
M  V30 7110 H 678.414 0.761397 2.94001 0
M  V30 7111 H 675.999 0.43781 1.42841 0
M  V30 7112 H 677.881 -1.47497 3.94744 0
M  V30 7113 H 676.556 -1.67698 2.76874 0
M  V30 7114 H 675.463 0.438224 3.71524 0
M  V30 7115 H 676.796 0.55701 4.89038 0
M  V30 7116 N 678.448 -1.51871 0.421078 0
M  V30 7117 C 679.673 -2.0684 -0.152371 0
M  V30 7118 C 680.098 -1.28802 -1.37083 0
M  V30 7119 O 679.456 -0.321482 -1.78427 0
M  V30 7120 C 679.504 -3.57532 -0.469368 0
M  V30 7121 O 678.608 -3.81818 -1.55848 0
M  V30 7122 H 677.949 -0.663939 -0.00898586 0
M  V30 7123 H 680.479 -1.95674 0.597724 0
M  V30 7124 H 680.489 -4.01515 -0.724553 0
M  V30 7125 H 679.164 -4.13761 0.421276 0
M  V30 7126 H 677.741 -3.49709 -1.29453 0
M  V30 7127 N 679.926 -0.151884 -1.56866 0
M  V30 7128 C 680.859 0.824094 -2.128 0
M  V30 7129 C 681.837 1.2391 -1.05286 0
M  V30 7130 O 683.021 1.33433 -1.33146 0
M  V30 7131 C 680.148 2.1072 -2.65169 0
M  V30 7132 C 679.194 1.83774 -3.84876 0
M  V30 7133 S 680.027 1.02436 -5.25611 0
M  V30 7134 C 681.183 2.31855 -5.81373 0
M  V30 7135 H 681.416 0.348456 -2.95251 0
M  V30 7136 H 678.949 0.0624794 -1.54274 0
M  V30 7137 H 680.907 2.84428 -2.95992 0
M  V30 7138 H 679.568 2.55398 -1.8284 0
M  V30 7139 H 678.761 2.78929 -4.19779 0
M  V30 7140 H 678.363 1.18172 -3.5484 0
M  V30 7141 H 680.655 3.27469 -5.93102 0
M  V30 7142 H 681.598 2.01449 -6.7884 0
M  V30 7143 H 682.006 2.42727 -5.09651 0
M  V30 7144 N 681.404 1.57128 0.121893 0
M  V30 7145 C 682.314 2.03425 1.16857 0
M  V30 7146 C 683.33 0.954108 1.45509 0
M  V30 7147 O 684.506 1.26541 1.56682 0
M  V30 7148 C 681.571 2.42685 2.47599 0
M  V30 7149 C 680.632 3.64767 2.2637 0
M  V30 7150 C 679.865 4.02145 3.50878 0
M  V30 7151 O 680.088 3.39897 4.58068 0
M  V30 7152 O 679.022 4.95262 3.42051 0
M  V30 7153 H 682.848 2.92825 0.80544 0
M  V30 7154 H 680.433 1.45654 0.332477 0
M  V30 7155 H 682.315 2.68684 3.24634 0
M  V30 7156 H 680.99 1.56432 2.83392 0
M  V30 7157 H 679.897 3.43922 1.47203 0
M  V30 7158 H 681.23 4.51716 1.95482 0
M  V30 7159 N 682.882 -0.391992 1.52647 0
M  V30 7160 C 683.829 -1.47866 1.77213 0
M  V30 7161 C 684.799 -1.54286 0.615223 0
M  V30 7162 O 685.984 -1.7059 0.854622 0
M  V30 7163 C 683.124 -2.85129 1.94411 0
M  V30 7164 C 682.237 -2.87883 3.22098 0
M  V30 7165 C 681.372 -4.16553 3.29631 0
M  V30 7166 C 680.411 -4.13348 4.51453 0
M  V30 7167 N 679.548 -5.33619 4.56284 0
M  V30 7168 H 684.388 -1.26219 2.6995 0
M  V30 7169 H 681.925 -0.612367 1.33748 0
M  V30 7170 H 683.883 -3.64833 2.02367 0
M  V30 7171 H 682.513 -3.05232 1.05038 0
M  V30 7172 H 681.565 -2.00567 3.23229 0
M  V30 7173 H 682.877 -2.81382 4.11856 0
M  V30 7174 H 682.031 -5.0466 3.36753 0
M  V30 7175 H 680.77 -4.25773 2.37842 0
M  V30 7176 H 679.775 -3.23629 4.44459 0
M  V30 7177 H 681 -4.05754 5.44555 0
M  V30 7178 H 678.946 -5.43474 3.67385 0
M  V30 7179 H 678.863 -5.29182 5.3991 0
M  V30 7180 H 680.131 -6.23632 4.67657 0
M  V30 7181 N 684.36 -1.4356 -0.65026 0
M  V30 7182 C 685.585 -1.48995 -1.44275 0
M  V30 7183 C 686.01 -0.109954 -1.87778 0
M  V30 7184 O 685.368 0.896926 -1.57559 0
M  V30 7185 C 685.416 -2.44341 -2.65198 0
M  V30 7186 O 684.52 -1.93172 -3.6436 0
M  V30 7187 H 683.861 -0.503852 -0.432469 0
M  V30 7188 H 686.391 -1.88504 -0.795446 0
M  V30 7189 H 686.401 -2.61743 -3.12977 0
M  V30 7190 H 685.076 -3.44588 -2.32877 0
M  V30 7191 H 683.653 -1.85445 -3.23519 0
M  V30 7192 N 685.838 0.888903 -1.30139 0
M  V30 7193 C 687.063 1.67884 -1.21777 0
M  V30 7194 C 687.488 1.86848 0.216689 0
M  V30 7195 O 686.846 1.39659 1.15608 0
M  V30 7196 C 686.894 3.03483 -1.94757 0
M  V30 7197 O 685.998 3.92294 -1.27198 0
M  V30 7198 H 685.339 0.513144 -0.421402 0
M  V30 7199 H 687.869 1.10968 -1.71893 0
M  V30 7200 H 687.879 3.53553 -2.03627 0
M  V30 7201 H 686.554 2.89 -2.99085 0
M  V30 7202 H 685.131 3.50732 -1.26655 0
M  V30 7203 N 687.317 1.12792 1.10072 0
M  V30 7204 C 688.547 0.907189 1.85617 0
M  V30 7205 C 688.955 -0.547181 1.81115 0
M  V30 7206 O 688.298 -1.39024 1.20075 0
M  V30 7207 C 688.36 1.30872 3.34832 0
M  V30 7208 C 688.024 2.77516 3.6309 0
M  V30 7209 C 689.021 3.75696 3.59373 0
M  V30 7210 C 686.706 3.14513 3.91646 0
M  V30 7211 C 688.7 5.08888 3.83812 0
M  V30 7212 C 686.387 4.47886 4.15742 0
M  V30 7213 C 687.385 5.44882 4.11816 0
M  V30 7214 O 687.073 6.7585 4.35295 0
M  V30 7215 H 686.805 0.323855 0.593375 0
M  V30 7216 H 689.359 1.50262 1.40038 0
M  V30 7217 H 687.589 0.656518 3.81086 0
M  V30 7218 H 689.278 1.06153 3.91773 0
M  V30 7219 H 690.044 3.48458 3.37345 0
M  V30 7220 H 685.923 2.39622 3.93831 0
M  V30 7221 H 689.467 5.84586 3.80663 0
M  V30 7222 H 685.364 4.74851 4.37249 0
M  V30 7223 H 686.132 6.81853 4.52791 0
M  V30 7224 N 688.795 -1.27931 0.920396 0
M  V30 7225 C 690.02 -1.99343 0.572478 0
M  V30 7226 C 690.445 -1.68267 -0.840696 0
M  V30 7227 O 689.803 -0.918805 -1.56294 0
M  V30 7228 C 689.851 -3.51698 0.796284 0
M  V30 7229 O 688.955 -4.12157 -0.141602 0
M  V30 7230 H 688.296 -0.626065 0.221221 0
M  V30 7231 H 690.826 -1.62921 1.23765 0
M  V30 7232 H 690.836 -4.01793 0.708984 0
M  V30 7233 H 689.511 -3.73649 1.82644 0
M  V30 7234 H 688.088 -3.729 -0.005007 0
M  V30 7235 N 690.273 -0.685099 -1.4193 0
M  V30 7236 C 691.55 -0.140152 -1.95097 0
M  V30 7237 C 691.93 1.34745 -1.62502 0
M  V30 7238 O 691.278 2.08872 -0.926534 0
M  V30 7239 C 691.488 -0.420268 -3.4646 0
M  V30 7240 C 692.836 -0.342338 -4.23218 0
M  V30 7241 O 693.86 -0.354592 -3.54431 0
M  V30 7242 O 692.719 -0.293404 -5.45712 0
M  V30 7243 H 689.813 -0.00885998 -0.826953 0
M  V30 7244 H 692.359 -0.760539 -1.51703 0
M  V30 7245 H 691.131 -1.45037 -3.63428 0
M  V30 7246 H 690.754 0.231616 -3.96925 0
M  V30 7247 N 691.751 1.51645 -0.429126 0
M  V30 7248 C 692.997 2.02967 0.132584 0
M  V30 7249 C 693.352 1.30804 1.41096 0
M  V30 7250 O 692.645 0.411705 1.87124 0
M  V30 7251 C 692.839 3.54989 0.414472 0
M  V30 7252 C 692.668 4.41879 -0.83503 0
M  V30 7253 C 691.438 4.86482 -1.36614 0
M  V30 7254 C 693.636 4.84727 -1.71886 0
M  V30 7255 N 691.618 5.5756 -2.56904 0
M  V30 7256 C 692.989 5.54788 -2.76786 0
M  V30 7257 C 695.044 4.66721 -1.73425 0
M  V30 7258 C 693.747 6.08753 -3.8316 0
M  V30 7259 C 695.773 5.21597 -2.7873 0
M  V30 7260 C 695.135 5.91598 -3.8235 0
M  V30 7261 H 691.234 0.781942 0.00956367 0
M  V30 7262 H 693.818 1.8561 -0.587957 0
M  V30 7263 H 691.989 3.72378 1.10405 0
M  V30 7264 H 693.721 3.92982 0.966817 0
M  V30 7265 H 690.476 4.64553 -0.921255 0
M  V30 7266 H 690.9 5.97731 -3.17879 0
M  V30 7267 H 695.542 4.1207 -0.946467 0
M  V30 7268 H 693.26 6.62464 -4.62782 0
M  V30 7269 H 696.846 5.09522 -2.80853 0
M  V30 7270 H 695.726 6.33299 -4.62495 0
M  V30 7271 N 693.229 0.160201 1.56784 0
M  V30 7272 C 694.159 -0.770264 2.2043 0
M  V30 7273 C 695.14 -1.24736 1.15651 0
M  V30 7274 O 696.325 -1.30253 1.44041 0
M  V30 7275 C 693.455 -2.00427 2.83631 0
M  V30 7276 C 692.409 -1.66345 3.94352 0
M  V30 7277 C 691.735 -2.97119 4.4455 0
M  V30 7278 C 693.035 -0.899972 5.14488 0
M  V30 7279 H 694.729 -0.239783 2.98438 0
M  V30 7280 H 692.275 -0.113891 1.43549 0
M  V30 7281 H 694.228 -2.66012 3.26827 0
M  V30 7282 H 692.952 -2.5587 2.02973 0
M  V30 7283 H 691.611 -1.03133 3.51794 0
M  V30 7284 H 691.259 -3.5058 3.60698 0
M  V30 7285 H 690.959 -2.75073 5.19238 0
M  V30 7286 H 692.483 -3.63753 4.90425 0
M  V30 7287 H 693.897 -1.45818 5.54446 0
M  V30 7288 H 692.294 -0.778968 5.95023 0
M  V30 7289 H 693.364 0.105827 4.84785 0
M  V30 7290 N 694.707 -1.5719 -0.113559 0
M  V30 7291 C 695.956 -1.84325 -0.818984 0
M  V30 7292 C 696.269 -0.746685 -1.80787 0
M  V30 7293 O 697.475 -0.904596 -2.55987 0
M  V30 7294 C 695.931 -3.26818 -1.50724 0
M  V30 7295 C 695.539 -4.44498 -0.559065 0
M  V30 7296 C 697.283 -3.63196 -2.19748 0
M  V30 7297 C 695.19 -5.7802 -1.25086 0
M  V30 7298 H 694.12 -0.687507 -0.309596 0
M  V30 7299 H 696.771 -1.8336 -0.0717621 0
M  V30 7300 H 695.153 -3.22269 -2.30128 0
M  V30 7301 H 696.327 -4.60356 0.202146 0
M  V30 7302 H 694.642 -4.16393 0.024495 0
M  V30 7303 H 697.239 -4.60226 -2.72206 0
M  V30 7304 H 697.582 -2.90899 -2.97798 0
M  V30 7305 H 698.115 -3.69553 -1.47226 0
M  V30 7306 H 694.854 -6.53501 -0.511539 0
M  V30 7307 H 694.374 -5.66038 -1.98395 0
M  V30 7308 H 696.053 -6.2196 -1.78253 0
M  V30 7309 N 696.185 0.383891 -1.52853 0
M  V30 7310 C 697.133 1.48965 -1.7864 0
M  V30 7311 C 698.127 1.56242 -0.654577 0
M  V30 7312 O 699.333 1.59347 -0.83716 0
M  V30 7313 H 695.708 0.495892 -0.565328 0
M  V30 7314 H 697.679 1.24411 -2.71228 0
M  V30 7315 C 696.428 2.86036 -1.97683 0
M  V30 7316 H 695.751 2.81188 -2.84206 0
M  V30 7317 H 697.191 3.62632 -2.19713 0
M  V30 7318 C 695.65 3.28428 -0.750776 0
M  V30 7319 O 696.18 4.0164 0.0693491 0
M  V30 7320 N 694.386 2.84765 -0.579427 0
M  V30 7321 H 693.933 2.25353 -1.24795 0
M  V30 7322 H 693.891 3.13486 0.239544 0
M  V30 7323 N 697.663 1.43903 0.642637 0
M  V30 7324 C 698.611 1.50164 1.77634 0
M  V30 7325 C 699.605 0.374294 1.65213 0
M  V30 7326 O 700.811 0.548748 1.71431 0
M  V30 7327 H 697.186 0.470974 0.586249 0
M  V30 7328 H 699.157 2.45603 1.69474 0
M  V30 7329 C 697.906 1.45196 3.15933 0
M  V30 7330 H 697.229 2.31253 3.26132 0
M  V30 7331 H 698.669 1.53638 3.95185 0
M  V30 7332 C 697.128 0.171043 3.36466 0
M  V30 7333 O 697.658 -0.763413 3.94379 0
M  V30 7334 N 695.864 0.077847 2.90496 0
M  V30 7335 H 695.411 0.8391 2.43551 0
M  V30 7336 H 695.369 -0.778473 3.0461 0
M  V30 7337 N 699.141 -0.881989 1.30609 0
M  V30 7338 C 700.366 -1.67236 1.22665 0
M  V30 7339 C 700.791 -1.8696 -0.206777 0
M  V30 7340 O 700.149 -1.4027 -1.14865 0
M  V30 7341 C 700.197 -3.02446 1.96363 0
M  V30 7342 O 699.301 -3.91614 1.29276 0
M  V30 7343 H 698.642 -0.510902 0.424117 0
M  V30 7344 H 701.172 -1.10055 1.72479 0
M  V30 7345 H 701.182 -3.52468 2.055 0
M  V30 7346 H 699.857 -2.8741 3.00613 0
M  V30 7347 H 698.434 -3.50055 1.28514 0
M  V30 7348 N 700.619 -1.13374 -1.09472 0
M  V30 7349 C 701.868 -0.889844 -1.8101 0
M  V30 7350 C 702.181 0.585686 -1.86625 0
M  V30 7351 O 703.387 0.946497 -2.54467 0
M  V30 7352 C 701.843 -1.54241 -3.25174 0
M  V30 7353 C 701.451 -3.05343 -3.27826 0
M  V30 7354 C 703.195 -1.37919 -4.0147 0
M  V30 7355 C 701.102 -3.63486 -4.6651 0
M  V30 7356 H 700.032 -0.329256 -0.678311 0
M  V30 7357 H 702.683 -1.36139 -1.23038 0
M  V30 7358 H 701.065 -0.998525 -3.83204 0
M  V30 7359 H 702.239 -3.66307 -2.79563 0
M  V30 7360 H 700.554 -3.21175 -2.65019 0
M  V30 7361 H 703.151 -1.78771 -5.03929 0
M  V30 7362 H 703.494 -0.323987 -4.15037 0
M  V30 7363 H 704.027 -1.89284 -3.49881 0
M  V30 7364 H 700.766 -4.68811 -4.58145 0
M  V30 7365 H 700.286 -3.073 -5.15099 0
M  V30 7366 H 701.965 -3.63134 -5.35484 0
M  V30 7367 N 702.098 1.27442 -0.927168 0
M  V30 7368 C 703.061 2.2512 -0.430525 0
M  V30 7369 C 704.061 1.54357 0.450619 0
M  V30 7370 O 705.251 1.72371 0.251774 0
M  V30 7371 C 702.383 3.38763 0.381144 0
M  V30 7372 H 703.576 2.70569 -1.29354 0
M  V30 7373 H 701.129 1.39355 -0.707806 0
M  V30 7374 H 701.864 2.98695 1.263 0
M  V30 7375 H 701.649 3.91298 -0.250618 0
M  V30 7376 H 703.139 4.11364 0.719012 0
M  V30 7377 N 703.576 0.692616 1.41565 0
M  V30 7378 C 704.486 0.0258451 2.34586 0
M  V30 7379 C 705.502 -0.769324 1.56069 0
M  V30 7380 O 706.678 -0.707563 1.88562 0
M  V30 7381 C 703.743 -0.901289 3.3478 0
M  V30 7382 C 702.804 -0.0986579 4.29187 0
M  V30 7383 C 702.037 -0.981634 5.24595 0
M  V30 7384 O 702.26 -2.22115 5.25377 0
M  V30 7385 O 701.194 -0.432892 6.00341 0
M  V30 7386 H 705.02 0.792537 2.93177 0
M  V30 7387 H 702.605 0.452935 1.42369 0
M  V30 7388 H 704.487 -1.43302 3.96286 0
M  V30 7389 H 703.162 -1.64752 2.78637 0
M  V30 7390 H 702.069 0.477604 3.71039 0
M  V30 7391 H 703.402 0.608848 4.8842 0
M  V30 7392 N 705.054 -1.51416 0.437162 0
M  V30 7393 C 705.984 -2.30631 -0.364922 0
M  V30 7394 C 706.965 -1.36037 -1.02118 0
M  V30 7395 O 708.15 -1.64956 -1.02485 0
M  V30 7396 C 705.28 -3.1482 -1.46648 0
M  V30 7397 C 704.234 -4.17691 -0.933717 0
M  V30 7398 C 703.56 -4.904 -2.13101 0
M  V30 7399 C 704.86 -5.2229 0.0317201 0
M  V30 7400 H 706.554 -2.97932 0.29614 0
M  V30 7401 H 704.1 -1.4328 0.143865 0
M  V30 7402 H 706.053 -3.69017 -2.03481 0
M  V30 7403 H 704.777 -2.4534 -2.15583 0
M  V30 7404 H 703.436 -3.64545 -0.387602 0
M  V30 7405 H 703.084 -4.17423 -2.80654 0
M  V30 7406 H 702.784 -5.59962 -1.78092 0
M  V30 7407 H 704.308 -5.4742 -2.70487 0
M  V30 7408 H 705.722 -5.7156 -0.446302 0
M  V30 7409 H 704.119 -5.99378 0.29437 0
M  V30 7410 H 705.189 -4.75131 0.968447 0
M  V30 7411 N 706.532 -0.168513 -1.56696 0
M  V30 7412 C 707.778 0.477865 -1.9709 0
M  V30 7413 C 708.111 1.63084 -1.05438 0
M  V30 7414 O 707.386 1.94238 -0.10095 0
M  V30 7415 C 707.669 0.963521 -3.4697 0
M  V30 7416 C 707.522 -0.189443 -4.49401 0
M  V30 7417 C 708.841 1.83813 -3.99876 0
M  V30 7418 H 705.96 0.172229 -0.716593 0
M  V30 7419 H 708.602 -0.254083 -1.88293 0
M  V30 7420 H 706.752 1.58724 -3.54597 0
M  V30 7421 H 708.424 -0.826451 -4.53836 0
M  V30 7422 H 706.667 -0.845366 -4.25483 0
M  V30 7423 H 707.338 0.192446 -5.51664 0
M  V30 7424 H 709.814 1.31235 -3.94863 0
M  V30 7425 H 708.69 2.14697 -5.0517 0
M  V30 7426 H 708.951 2.78289 -3.43523 0
M  V30 7427 N 708.01 1.57248 0.105221 0
M  V30 7428 C 708.973 2.00388 1.11252 0
M  V30 7429 C 709.973 0.89594 1.33527 0
M  V30 7430 O 711.163 1.16166 1.29811 0
M  V30 7431 C 708.295 2.35589 2.46395 0
M  V30 7432 H 709.488 2.90591 0.741424 0
M  V30 7433 H 707.041 1.52332 0.349956 0
M  V30 7434 H 707.776 1.4831 2.884 0
M  V30 7435 H 707.561 3.16408 2.31578 0
M  V30 7436 H 709.051 2.69658 3.18864 0
M  V30 7437 N 709.488 -0.375779 1.53054 0
M  V30 7438 C 710.713 -1.14484 1.7294 0
M  V30 7439 C 711.138 -1.82572 0.452668 0
M  V30 7440 O 710.496 -1.71343 -0.592567 0
M  V30 7441 C 710.544 -2.15857 2.88857 0
M  V30 7442 O 709.648 -3.22725 2.56753 0
M  V30 7443 H 708.989 -0.332666 0.574656 0
M  V30 7444 H 711.519 -0.436025 1.999 0
M  V30 7445 H 711.529 -2.59631 3.14731 0
M  V30 7446 H 710.204 -1.65689 3.81471 0
M  V30 7447 H 708.781 -2.83996 2.41663 0
M  V30 7448 N 710.966 -1.44241 -0.634997 0
M  V30 7449 C 712.194 -1.50296 -1.42193 0
M  V30 7450 C 712.609 -0.12658 -1.88375 0
M  V30 7451 O 711.966 0.86678 -1.60603 0
M  V30 7452 C 712.017 -2.46437 -2.64482 0
M  V30 7453 O 711.738 -3.78724 -2.20226 0
M  V30 7454 C 713.239 -2.61918 -3.57651 0
M  V30 7455 H 710.459 -0.509865 -0.43621 0
M  V30 7456 H 713.003 -1.89167 -0.776921 0
M  V30 7457 H 711.158 -2.10712 -3.25083 0
M  V30 7458 H 711.572 -4.30595 -2.9948 0
M  V30 7459 H 713.046 -3.33225 -4.40074 0
M  V30 7460 H 713.523 -1.67017 -4.06204 0
M  V30 7461 H 714.129 -2.98528 -3.02921 0
M  V30 7462 N 712.444 0.87505 -1.31075 0
M  V30 7463 C 713.692 1.62447 -1.20231 0
M  V30 7464 C 714.013 1.93506 0.240888 0
M  V30 7465 O 713.283 1.57847 1.16022 0
M  V30 7466 H 711.863 0.602207 -0.441991 0
M  V30 7467 H 714.525 1.04788 -1.64334 0
M  V30 7468 H 713.621 2.57031 -1.77036 0
M  V30 7469 N 713.922 1.13953 1.08869 0
M  V30 7470 C 714.852 0.844824 2.17681 0
M  V30 7471 C 715.833 -0.198213 1.68941 0
M  V30 7472 O 717.018 -0.0559073 1.9412 0
M  V30 7473 C 714.148 0.316325 3.45856 0
M  V30 7474 C 713.102 1.29426 4.07962 0
M  V30 7475 C 712.428 0.625275 5.31031 0
M  V30 7476 C 713.728 2.65484 4.49795 0
M  V30 7477 H 715.422 1.75471 2.42591 0
M  V30 7478 H 712.968 0.845116 1.16592 0
M  V30 7479 H 714.921 0.0977876 4.21287 0
M  V30 7480 H 713.645 -0.628972 3.20486 0
M  V30 7481 H 712.304 1.49889 3.34558 0
M  V30 7482 H 711.952 -0.325678 5.01945 0
M  V30 7483 H 711.652 1.27777 5.73539 0
M  V30 7484 H 713.176 0.416152 6.0918 0
M  V30 7485 H 714.59 2.48957 5.16424 0
M  V30 7486 H 712.987 3.26963 5.03205 0
M  V30 7487 H 714.057 3.22717 3.61914 0
M  V30 7488 N 715.4 -1.26948 0.933913 0
M  V30 7489 C 716.811 -1.76058 0.621324 0
M  V30 7490 C 717.162 -1.76175 -0.863522 0
M  V30 7491 O 716.287 -1.36921 -1.67576 0
M  V30 7492 C 716.882 -3.19713 1.12111 0
M  V30 7493 C 715.441 -3.66465 0.859074 0
M  V30 7494 C 714.588 -2.46186 1.27624 0
M  V30 7495 H 717.539 -1.13127 1.11301 0
M  V30 7496 H 717.56 -3.77566 0.471608 0
M  V30 7497 H 717.072 -3.19596 2.20182 0
M  V30 7498 H 715.173 -3.72021 -0.207566 0
M  V30 7499 H 715.286 -4.55636 1.48098 0
M  V30 7500 H 713.65 -2.45042 0.694727 0
M  V30 7501 H 714.433 -2.48774 2.36572 0
M  V30 7502 N 716.879 -0.700114 -1.41195 0
M  V30 7503 C 718.125 -0.233351 -2.01453 0
M  V30 7504 C 718.458 1.16548 -1.55339 0
M  V30 7505 O 717.733 1.78756 -0.766575 0
M  V30 7506 C 718.016 -0.2961 -3.58881 0
M  V30 7507 C 717.869 -1.7322 -4.15108 0
M  V30 7508 C 719.188 0.341525 -4.38773 0
M  V30 7509 H 716.307 -0.0862667 -0.731934 0
M  V30 7510 H 718.949 -0.889693 -1.67882 0
M  V30 7511 H 717.099 0.262736 -3.87611 0
M  V30 7512 H 718.771 -2.34523 -3.97236 0
M  V30 7513 H 717.014 -2.2649 -3.69979 0
M  V30 7514 H 717.685 -1.7276 -5.24269 0
M  V30 7515 H 720.161 -0.134461 -4.15883 0
M  V30 7516 H 719.037 0.267098 -5.4825 0
M  V30 7517 H 719.298 1.42289 -4.18577 0
M  V30 7518 N 718.357 1.51182 -0.445186 0
M  V30 7519 C 719.305 2.29531 0.376597 0
M  V30 7520 C 720.299 1.35711 1.01385 0
M  V30 7521 O 721.505 1.53018 0.947922 0
M  V30 7522 H 717.88 0.738803 0.140267 0
M  V30 7523 H 719.851 2.96838 -0.304958 0
M  V30 7524 C 718.6 3.1552 1.4609 0
M  V30 7525 H 717.923 3.87605 0.979912 0
M  V30 7526 H 719.363 3.73384 2.009 0
M  V30 7527 C 717.822 2.31406 2.44852 0
M  V30 7528 O 718.352 1.97912 3.49562 0
M  V30 7529 N 716.558 1.94478 2.15932 0
M  V30 7530 H 716.105 2.21917 1.30808 0
M  V30 7531 H 716.063 1.38498 2.82251 0
M  V30 7532 N 719.835 0.176821 1.56605 0
M  V30 7533 C 721.084 -0.466833 1.96223 0
M  V30 7534 C 721.397 -1.64015 1.06576 0
M  V30 7535 O 722.603 -2.3504 1.35898 0
M  V30 7536 C 721.059 -0.881921 3.48927 0
M  V30 7537 C 720.667 0.266102 4.47209 0
M  V30 7538 C 722.411 -1.49368 3.97353 0
M  V30 7539 C 720.318 -0.168923 5.91159 0
M  V30 7540 H 719.248 -0.178178 0.732645 0
M  V30 7541 H 721.899 0.265929 1.81563 0
M  V30 7542 H 720.281 -1.67082 3.59026 0
M  V30 7543 H 721.455 1.04349 4.4883 0
M  V30 7544 H 719.77 0.788178 4.08872 0
M  V30 7545 H 722.367 -1.8313 5.02362 0
M  V30 7546 H 722.71 -2.3936 3.40606 0
M  V30 7547 H 723.243 -0.769114 3.90294 0
M  V30 7548 H 719.982 0.696351 6.51791 0
M  V30 7549 H 719.502 -0.911552 5.92833 0
M  V30 7550 H 721.181 -0.610938 6.44109 0
M  V30 7551 N 721.313 -1.57302 -0.09688 0
M  V30 7552 C 722.538 -1.9058 -0.818169 0
M  V30 7553 C 722.963 -0.770921 -1.71576 0
M  V30 7554 O 722.321 0.277588 -1.79162 0
M  V30 7555 C 722.369 -3.22714 -1.60898 0
M  V30 7556 O 721.473 -3.10178 -2.71779 0
M  V30 7557 H 720.814 -0.624759 -0.224882 0
M  V30 7558 H 723.344 -2.04471 -0.07264 0
M  V30 7559 H 723.354 -3.55978 -1.99358 0
M  V30 7560 H 722.029 -4.04899 -0.950227 0
M  V30 7561 H 720.606 -2.88424 -2.3636 0
M  V30 7562 N 722.791 0.367657 -1.53252 0
M  V30 7563 C 724.068 1.12606 -1.59935 0
M  V30 7564 C 724.448 2.07167 -0.405606 0
M  V30 7565 O 723.796 2.20364 0.604323 0
M  V30 7566 C 724.006 1.86699 -2.94863 0
M  V30 7567 C 725.354 2.41306 -3.49366 0
M  V30 7568 O 726.378 1.96828 -2.96879 0
M  V30 7569 O 725.237 3.2261 -4.41118 0
M  V30 7570 H 722.331 0.516438 -0.645926 0
M  V30 7571 H 724.877 0.371088 -1.65593 0
M  V30 7572 H 723.649 1.17674 -3.73187 0
M  V30 7573 H 723.272 2.6911 -2.92687 0
M  V30 7574 N 724.269 1.44576 0.627338 0
M  V30 7575 C 725.232 1.51372 1.72102 0
M  V30 7576 C 726.232 0.395329 1.55865 0
M  V30 7577 O 727.422 0.658094 1.61291 0
M  V30 7578 C 724.554 1.39129 3.11217 0
M  V30 7579 H 725.747 2.48798 1.6745 0
M  V30 7580 H 723.3 1.31724 0.841336 0
M  V30 7581 H 724.035 0.428114 3.21462 0
M  V30 7582 H 723.82 2.20229 3.24409 0
M  V30 7583 H 725.31 1.46874 3.90919 0
M  V30 7584 N 725.747 -0.868086 1.31537 0
M  V30 7585 C 726.977 -1.65162 1.24118 0
M  V30 7586 C 727.385 -1.88187 -0.195558 0
M  V30 7587 O 726.728 -1.44154 -1.13866 0
M  V30 7588 C 726.79 -3.04119 1.91708 0
M  V30 7589 C 726.454 -3.04194 3.4105 0
M  V30 7590 C 727.451 -2.82016 4.36764 0
M  V30 7591 C 725.136 -3.25256 3.82772 0
M  V30 7592 C 727.13 -2.80881 5.72175 0
M  V30 7593 C 724.817 -3.23749 5.18295 0
M  V30 7594 C 725.815 -3.01589 6.12808 0
M  V30 7595 O 725.503 -2.9993 7.45853 0
M  V30 7596 H 725.235 -0.521597 0.430015 0
M  V30 7597 H 727.789 -1.09165 1.73989 0
M  V30 7598 H 726.019 -3.61849 1.36389 0
M  V30 7599 H 727.708 -3.64701 1.78179 0
M  V30 7600 H 728.474 -2.65525 4.05859 0
M  V30 7601 H 724.353 -3.41534 3.09638 0
M  V30 7602 H 727.897 -2.63503 6.45919 0
M  V30 7603 H 723.794 -3.39781 5.48834 0
M  V30 7604 H 724.562 -3.15979 7.55049 0
M  V30 7605 N 727.225 -1.14528 -1.08264 0
M  V30 7606 C 728.157 -0.791325 -2.15106 0
M  V30 7607 C 729.17 0.192449 -1.61659 0
M  V30 7608 O 730.359 -0.0294704 -1.78476 0
M  V30 7609 C 727.459 -0.154183 -3.38549 0
M  V30 7610 C 726.632 -1.17305 -4.21377 0
M  V30 7611 C 725.691 -0.559401 -5.23218 0
M  V30 7612 O 724.717 -1.22277 -5.55911 0
M  V30 7613 N 725.919 0.663159 -5.767 0
M  V30 7614 H 728.684 -1.71076 -2.46075 0
M  V30 7615 H 726.245 -1.0399 -1.24087 0
M  V30 7616 H 728.237 0.268884 -4.03806 0
M  V30 7617 H 726.807 0.668418 -3.0537 0
M  V30 7618 H 726.027 -1.773 -3.52077 0
M  V30 7619 H 727.315 -1.86128 -4.73533 0
M  V30 7620 H 726.713 1.22066 -5.52373 0
M  V30 7621 H 725.27 1.02871 -6.43631 0
M  V30 7622 N 728.703 1.26451 -0.940633 0
M  V30 7623 C 729.98 1.88947 -0.505811 0
M  V30 7624 C 730.36 1.85011 1.01657 0
M  V30 7625 O 729.708 1.30406 1.87634 0
M  V30 7626 C 729.918 3.32304 -1.06654 0
M  V30 7627 C 731.266 4.09153 -1.13486 0
M  V30 7628 O 732.29 3.41371 -1.01708 0
M  V30 7629 O 731.149 5.30369 -1.31797 0
M  V30 7630 H 728.243 0.810422 -0.164759 0
M  V30 7631 H 730.789 1.34625 -1.03316 0
M  V30 7632 H 729.561 3.29527 -2.11015 0
M  V30 7633 H 729.184 3.94164 -0.521603 0
M  V30 7634 N 730.181 0.707592 1.40822 0
M  V30 7635 C 731.592 0.317011 1.83989 0
M  V30 7636 C 731.943 -1.14697 1.59182 0
M  V30 7637 O 731.068 -1.8818 1.06852 0
M  V30 7638 C 731.663 0.568593 3.33995 0
M  V30 7639 C 730.222 0.231804 3.75686 0
M  V30 7640 C 729.369 0.844933 2.64114 0
M  V30 7641 H 732.32 0.907349 1.30203 0
M  V30 7642 H 732.341 -0.168798 3.80125 0
M  V30 7643 H 731.853 1.63417 3.52018 0
M  V30 7644 H 729.954 -0.82903 3.6326 0
M  V30 7645 H 730.067 0.695219 4.74029 0
M  V30 7646 H 728.431 0.273588 2.53226 0
M  V30 7647 H 729.214 1.91462 2.84951 0
M  V30 7648 N 731.66 -1.50943 0.453197 0
M  V30 7649 C 733.076 -1.59245 0.106342 0
M  V30 7650 C 733.276 -1.46287 -1.38572 0
M  V30 7651 O 732.332 -1.31219 -2.15726 0
M  V30 7652 C 733.645 -2.93797 0.640595 0
M  V30 7653 C 735.193 -3.07148 0.602435 0
M  V30 7654 C 735.668 -4.44247 1.11393 0
M  V30 7655 N 737.159 -4.50611 1.07258 0
M  V30 7656 C 737.894 -5.55049 1.43905 0
M  V30 7657 N 737.39 -6.66828 1.87914 0
M  V30 7658 N 739.183 -5.45494 1.35621 0
M  V30 7659 H 731.334 -1.5761 1.42382 0
M  V30 7660 H 733.597 -0.74384 0.587713 0
M  V30 7661 H 733.303 -3.087 1.68515 0
M  V30 7662 H 733.177 -3.77127 0.0742272 0
M  V30 7663 H 735.564 -2.91903 -0.433171 0
M  V30 7664 H 735.645 -2.25619 1.20539 0
M  V30 7665 H 735.289 -4.60239 2.14808 0
M  V30 7666 H 735.219 -5.2434 0.487353 0
M  V30 7667 H 737.71 -3.70391 0.749585 0
M  V30 7668 H 738.023 -7.42558 2.14072 0
M  V30 7669 H 736.368 -6.67995 1.91853 0
M  V30 7670 H 739.559 -4.57053 1.01093 0
M  V30 7671 H 739.732 -6.2677 1.64508 0
M  V30 7672 N 733.138 -0.185124 -1.56509 0
M  V30 7673 C 734.385 0.456258 -1.97293 0
M  V30 7674 C 734.713 1.62314 -1.07165 0
M  V30 7675 O 733.968 1.95398 -0.108621 0
M  V30 7676 C 734.267 0.967977 -3.44042 0
M  V30 7677 C 733.933 -0.084476 -4.50821 0
M  V30 7678 C 732.595 -0.373689 -4.79747 0
M  V30 7679 C 734.947 -0.79812 -5.15053 0
M  V30 7680 C 732.275 -1.3817 -5.70198 0
M  V30 7681 C 734.627 -1.79521 -6.06593 0
M  V30 7682 C 733.291 -2.09172 -6.3388 0
M  V30 7683 H 732.561 0.166957 -0.721946 0
M  V30 7684 H 735.208 -0.279992 -1.89442 0
M  V30 7685 H 733.513 1.78231 -3.48914 0
M  V30 7686 H 735.21 1.47347 -3.72948 0
M  V30 7687 H 731.8 0.15111 -4.28334 0
M  V30 7688 H 735.984 -0.587903 -4.92806 0
M  V30 7689 H 731.24 -1.61745 -5.89617 0
M  V30 7690 H 735.414 -2.35347 -6.55427 0
M  V30 7691 H 733.041 -2.87427 -7.03768 0
M  V30 7692 N 734.616 1.57351 0.0885366 0
M  V30 7693 C 735.893 1.77449 0.822873 0
M  V30 7694 C 736.273 0.768463 1.96616 0
M  V30 7695 O 735.621 -0.201757 2.27608 0
M  V30 7696 C 735.831 3.23425 1.31137 0
M  V30 7697 C 737.179 3.86791 1.75152 0
M  V30 7698 O 738.203 3.27215 1.40745 0
M  V30 7699 O 737.062 4.91568 2.38794 0
M  V30 7700 H 734.156 0.727653 0.393002 0
M  V30 7701 H 736.702 1.69556 0.0699095 0
M  V30 7702 H 735.474 3.88188 0.49254 0
M  V30 7703 H 735.097 3.35977 2.12615 0
M  V30 7704 N 736.094 -0.359525 1.53444 0
M  V30 7705 C 737.057 -1.42357 1.7963 0
M  V30 7706 C 738.057 -1.46319 0.666884 0
M  V30 7707 O 739.247 -1.46974 0.935113 0
M  V30 7708 C 736.379 -2.81425 1.92387 0
M  V30 7709 H 737.572 -1.20409 2.74666 0
M  V30 7710 H 735.125 -0.593007 1.44614 0
M  V30 7711 H 735.86 -3.08679 0.994384 0
M  V30 7712 H 735.645 -2.79947 2.74539 0
M  V30 7713 H 737.135 -3.5847 2.14218 0
M  V30 7714 N 737.572 -1.44907 -0.619662 0
M  V30 7715 C 738.482 -1.55168 -1.75955 0
M  V30 7716 C 739.498 -0.43672 -1.6843 0
M  V30 7717 O 740.674 -0.695704 -1.89002 0
M  V30 7718 C 737.739 -1.50397 -3.12381 0
M  V30 7719 C 736.8 -2.72835 -3.31451 0
M  V30 7720 C 736.033 -2.68283 -4.61368 0
M  V30 7721 O 736.256 -1.74929 -5.42914 0
M  V30 7722 O 735.19 -3.59308 -4.82889 0
M  V30 7723 H 739.016 -2.51493 -1.7025 0
M  V30 7724 H 736.601 -1.27282 -0.782289 0
M  V30 7725 H 738.483 -1.50301 -3.93685 0
M  V30 7726 H 737.158 -0.572197 -3.18603 0
M  V30 7727 H 736.065 -2.78496 -2.49781 0
M  V30 7728 H 737.398 -3.65098 -3.30098 0
M  V30 7729 N 739.05 0.861098 -1.31996 0
M  V30 7730 C 740.013 1.95068 -1.20338 0
M  V30 7731 C 741.013 1.60289 -0.128114 0
M  V30 7732 O 742.203 1.70048 -0.378044 0
M  V30 7733 C 739.335 3.30153 -0.849205 0
M  V30 7734 H 740.528 2.06833 -2.17164 0
M  V30 7735 H 738.081 1.05049 -1.15734 0
M  V30 7736 H 738.816 3.24087 0.117508 0
M  V30 7737 H 738.601 3.56771 -1.62655 0
M  V30 7738 H 740.091 4.10025 -0.791782 0
M  V30 7739 N 740.528 1.15101 1.07655 0
M  V30 7740 C 741.805 0.834578 1.76902 0
M  V30 7741 C 742.185 -0.670431 2.00171 0
M  V30 7742 O 741.533 -1.61378 1.6177 0
M  V30 7743 C 741.743 1.64191 3.07965 0
M  V30 7744 C 743.091 1.84615 3.82364 0
M  V30 7745 O 744.115 1.60941 3.17768 0
M  V30 7746 O 742.974 2.24244 4.98374 0
M  V30 7747 H 740.068 0.306608 0.768063 0
M  V30 7748 H 742.614 1.25663 1.14048 0
M  V30 7749 H 741.386 2.66386 2.86626 0
M  V30 7750 H 741.009 1.216 3.78549 0
M  V30 7751 N 742.006 -1.2595 0.947325 0
M  V30 7752 C 742.938 -2.25336 0.41906 0
M  V30 7753 C 743.951 -1.56135 -0.461051 0
M  V30 7754 O 745.14 -1.76438 -0.270505 0
M  V30 7755 C 742.24 -3.36334 -0.416233 0
M  V30 7756 C 741.413 -4.35088 0.449162 0
M  V30 7757 C 740.472 -5.25185 -0.326716 0
M  V30 7758 O 739.498 -5.68548 0.272374 0
M  V30 7759 N 740.7 -5.57388 -1.6217 0
M  V30 7760 H 743.465 -2.71298 1.27348 0
M  V30 7761 H 741.026 -1.39781 0.81688 0
M  V30 7762 H 743.018 -3.93564 -0.942826 0
M  V30 7763 H 741.588 -2.89819 -1.17148 0
M  V30 7764 H 740.808 -3.76841 1.15692 0
M  V30 7765 H 742.096 -4.98056 1.04008 0
M  V30 7766 H 741.494 -5.2405 -2.13046 0
M  V30 7767 H 740.051 -6.17234 -2.0944 0
M  V30 7768 N 743.484 -0.715051 -1.40445 0
M  V30 7769 C 744.733 -0.251322 -2.00128 0
M  V30 7770 C 745.046 1.16194 -1.57347 0
M  V30 7771 O 746.252 1.72416 -2.09726 0
M  V30 7772 C 744.708 -0.398407 -3.57688 0
M  V30 7773 C 744.316 -1.81828 -4.09442 0
M  V30 7774 C 746.06 0.00455625 -4.245 0
M  V30 7775 C 743.967 -1.91598 -5.59503 0
M  V30 7776 H 742.897 -0.0902081 -0.748584 0
M  V30 7777 H 745.548 -0.886062 -1.6069 0
M  V30 7778 H 743.93 0.304908 -3.94824 0
M  V30 7779 H 745.104 -2.55193 -3.83684 0
M  V30 7780 H 743.419 -2.17266 -3.55225 0
M  V30 7781 H 746.016 -0.0477303 -5.34679 0
M  V30 7782 H 746.359 1.04636 -4.02935 0
M  V30 7783 H 746.892 -0.649184 -3.92467 0
M  V30 7784 H 743.631 -2.93898 -5.85922 0
M  V30 7785 H 743.151 -1.22644 -5.87127 0
M  V30 7786 H 744.83 -1.68785 -6.24596 0
M  V30 7787 N 744.962 1.50701 -0.461195 0
M  V30 7788 C 746.187 2.07171 0.0974773 0
M  V30 7789 C 746.612 1.32391 1.3362 0
M  V30 7790 O 745.97 0.368676 1.77512 0
M  V30 7791 C 746.018 3.58651 0.374409 0
M  V30 7792 O 745.122 3.85816 1.4567 0
M  V30 7793 H 744.463 0.663944 -0.00862047 0
M  V30 7794 H 746.993 1.94021 -0.649394 0
M  V30 7795 H 747.003 4.03295 0.617843 0
M  V30 7796 H 745.678 4.12498 -0.530829 0
M  V30 7797 H 744.255 3.53018 1.20136 0
M  V30 7798 N 746.441 0.193421 1.56409 0
M  V30 7799 C 747.689 -0.444908 1.97142 0
M  V30 7800 C 748.01 -1.62268 1.08139 0
M  V30 7801 O 747.28 -1.95307 0.152326 0
M  V30 7802 H 745.86 -0.16736 0.728011 0
M  V30 7803 H 748.522 0.279763 1.92882 0
M  V30 7804 H 747.618 -0.790159 3.01932 0
M  V30 7805 N 747.919 -1.57396 -0.0801906 0
M  V30 7806 C 749.166 -1.86836 -0.780927 0
M  V30 7807 C 749.494 -0.784012 -1.77999 0
M  V30 7808 O 748.749 0.220881 -1.94449 0
M  V30 7809 C 749.048 -3.22915 -1.53169 0
M  V30 7810 C 748.714 -4.45843 -0.67339 0
M  V30 7811 C 747.376 -4.79213 -0.436829 0
M  V30 7812 C 749.728 -5.21142 -0.0776786 0
M  V30 7813 C 747.056 -5.853 0.405062 0
M  V30 7814 C 749.408 -6.28119 0.751619 0
M  V30 7815 C 748.072 -6.59995 0.998131 0
M  V30 7816 H 747.342 -0.683682 -0.285761 0
M  V30 7817 H 749.989 -1.91454 -0.0419435 0
M  V30 7818 H 748.294 -3.14049 -2.34265 0
M  V30 7819 H 749.991 -3.42926 -2.07853 0
M  V30 7820 H 746.581 -4.19721 -0.867891 0
M  V30 7821 H 750.765 -4.95682 -0.247572 0
M  V30 7822 H 746.021 -6.084 0.60488 0
M  V30 7823 H 750.195 -6.8563 1.22 0
M  V30 7824 H 747.822 -7.42027 1.65227 0
M  V30 7825 N 749.397 0.351382 -1.53633 0
M  V30 7826 C 750.347 1.4316 -1.77452 0
M  V30 7827 C 751.331 1.48076 -0.62946 0
M  V30 7828 O 752.523 1.53078 -0.888599 0
M  V30 7829 C 749.652 2.80409 -1.98055 0
M  V30 7830 C 748.738 2.79915 -3.18604 0
M  V30 7831 N 749.129 2.49057 -4.40232 0
M  V30 7832 C 747.427 3.11067 -3.19614 0
M  V30 7833 C 748.128 2.566 -5.22045 0
M  V30 7834 N 747.104 2.919 -4.5858 0
M  V30 7835 H 750.906 1.18188 -2.69089 0
M  V30 7836 H 748.42 0.559684 -1.52451 0
M  V30 7837 H 750.417 3.58231 -2.13251 0
M  V30 7838 H 749.077 3.06334 -1.07655 0
M  V30 7839 H 750.088 2.22395 -4.67719 0
M  V30 7840 H 746.765 3.42215 -2.39154 0
M  V30 7841 H 748.155 2.35968 -6.29101 0
M  V30 7842 N 750.875 1.45233 0.611969 0
M  V30 7843 C 752.124 1.48296 1.36716 0
M  V30 7844 C 752.437 0.12706 1.95187 0
M  V30 7845 O 753.643 0.0353066 2.71477 0
M  V30 7846 C 752.099 2.61168 2.47627 0
M  V30 7847 C 751.707 4.03051 1.95587 0
M  V30 7848 C 753.451 2.73472 3.24674 0
M  V30 7849 C 751.358 5.07312 3.03954 0
M  V30 7850 H 750.288 0.5518 0.513841 0
M  V30 7851 H 752.939 1.7136 0.656359 0
M  V30 7852 H 751.321 2.31379 3.21372 0
M  V30 7853 H 752.495 4.42497 1.2858 0
M  V30 7854 H 750.81 3.95158 1.31298 0
M  V30 7855 H 753.407 3.48537 4.05494 0
M  V30 7856 H 753.75 1.79953 3.75397 0
M  V30 7857 H 754.283 3.02765 2.58028 0
M  V30 7858 H 751.022 6.02525 2.58154 0
M  V30 7859 H 750.542 4.7244 3.69541 0
M  V30 7860 H 752.221 5.31867 3.6841 0
M  V30 7861 N 752.353 -0.854086 1.3245 0
M  V30 7862 C 753.769 -1.14238 1.11453 0
M  V30 7863 C 753.969 -2.01228 -0.10461 0
M  V30 7864 O 753.025 -2.39845 -0.789339 0
M  V30 7865 C 754.338 -1.81916 2.39431 0
M  V30 7866 C 755.886 -1.94549 2.45193 0
M  V30 7867 C 756.361 -2.65642 3.73093 0
M  V30 7868 N 757.852 -2.73167 3.74078 0
M  V30 7869 C 758.587 -3.28828 4.69744 0
M  V30 7870 N 758.083 -3.85295 5.75778 0
M  V30 7871 N 759.876 -3.26936 4.57241 0
M  V30 7872 H 752.027 -0.274786 2.10615 0
M  V30 7873 H 754.29 -0.184375 0.929898 0
M  V30 7874 H 753.996 -1.25452 3.28565 0
M  V30 7875 H 753.87 -2.82068 2.50434 0
M  V30 7876 H 756.257 -2.50172 1.56518 0
M  V30 7877 H 756.338 -0.933914 2.38142 0
M  V30 7878 H 755.982 -2.10683 4.62142 0
M  V30 7879 H 755.912 -3.6724 3.77415 0
M  V30 7880 H 758.403 -2.33108 2.97438 0
M  V30 7881 H 758.716 -4.25925 6.44832 0
M  V30 7882 H 757.061 -3.83625 5.79531 0
M  V30 7883 H 760.252 -2.8207 3.7357 0
M  V30 7884 H 760.425 -3.70014 5.31971 0
M  V30 7885 N 753.831 -1.1567 -1.07043 0
M  V30 7886 C 755.056 -0.957946 -1.83952 0
M  V30 7887 C 755.481 0.488807 -1.81638 0
M  V30 7888 O 754.839 1.34869 -1.21162 0
M  V30 7889 C 754.887 -1.48064 -3.288 0
M  V30 7890 O 753.991 -0.681921 -4.06723 0
M  V30 7891 H 753.332 -0.341453 -0.569479 0
M  V30 7892 H 755.862 -1.53728 -1.35015 0
M  V30 7893 H 755.872 -1.49484 -3.7963 0
M  V30 7894 H 754.547 -2.53388 -3.29799 0
M  V30 7895 H 753.124 -0.737612 -3.65532 0
M  V30 7896 N 755.309 1.25446 -0.953992 0
M  V30 7897 C 756.555 1.9343 -0.60933 0
M  V30 7898 C 756.888 1.74542 0.851388 0
M  V30 7899 O 756.163 1.09014 1.61078 0
M  V30 7900 C 756.446 3.46844 -0.968041 0
M  V30 7901 C 756.299 3.74961 -2.48444 0
M  V30 7902 C 757.618 4.37334 -0.492641 0
M  V30 7903 H 754.737 0.702502 -0.222844 0
M  V30 7904 H 757.379 1.48076 -1.19053 0
M  V30 7905 H 755.529 3.85604 -0.473465 0
M  V30 7906 H 757.201 3.45841 -3.05273 0
M  V30 7907 H 755.444 3.20589 -2.92241 0
M  V30 7908 H 756.115 4.82246 -2.68594 0
M  V30 7909 H 758.591 4.05873 -0.916878 0
M  V30 7910 H 757.467 5.43439 -0.772331 0
M  V30 7911 H 757.728 4.37908 0.607403 0
M  V30 7912 N 756.787 0.722489 1.40064 0
M  V30 7913 C 757.717 0.0892452 2.33329 0
M  V30 7914 C 758.698 -0.737992 1.53257 0
M  V30 7915 O 759.883 -0.685516 1.81698 0
M  V30 7916 C 757.013 -0.828139 3.37282 0
M  V30 7917 C 755.967 -0.106005 4.27869 0
M  V30 7918 C 755.293 -1.13957 5.22415 0
M  V30 7919 C 756.593 1.04395 5.11761 0
M  V30 7920 H 758.287 0.868269 2.86534 0
M  V30 7921 H 755.833 0.418982 1.3777 0
M  V30 7922 H 757.786 -1.28058 4.01471 0
M  V30 7923 H 756.51 -1.63914 2.82489 0
M  V30 7924 H 755.169 0.326683 3.65142 0
M  V30 7925 H 754.817 -1.9438 4.63924 0
M  V30 7926 H 754.517 -0.661233 5.83868 0
M  V30 7927 H 756.041 -1.59197 5.89482 0
M  V30 7928 H 757.455 0.670541 5.69365 0
M  V30 7929 H 755.852 1.4511 5.82291 0
M  V30 7930 H 756.922 1.87144 4.47331 0
M  V30 7931 N 758.265 -1.50454 0.469181 0
M  V30 7932 C 759.505 -2.04222 -0.0852381 0
M  V30 7933 C 759.869 -1.34357 -1.37158 0
M  V30 7934 O 761.07 -1.78669 -2.00825 0
M  V30 7935 C 759.341 -3.56403 -0.266778 0
M  V30 7936 S 760.9 -4.31811 -0.780028 0
M  V30 7937 H 757.718 -0.7108 -0.0168589 0
M  V30 7938 H 760.32 -1.8487 0.635883 0
M  V30 7939 H 759.024 -4.04807 0.67525 0
M  V30 7940 H 758.555 -3.80106 -1.01407 0
M  V30 7941 H 760.57 -4.51706 -2.05368 0
M  V30 7942 N 759.743 -0.201713 -1.56304 0
M  V30 7943 C 760.989 0.435952 -1.98059 0
M  V30 7944 C 761.322 1.60811 -1.08873 0
M  V30 7945 O 760.597 1.9398 -0.142128 0
M  V30 7946 C 760.88 0.889706 -3.48936 0
M  V30 7947 C 760.733 -0.284725 -4.48898 0
M  V30 7948 C 762.052 1.7529 -4.03685 0
M  V30 7949 H 759.171 0.15699 -0.720085 0
M  V30 7950 H 761.813 -0.293965 -1.87712 0
M  V30 7951 H 759.963 1.51166 -3.57884 0
M  V30 7952 H 761.635 -0.922531 -4.51981 0
M  V30 7953 H 759.878 -0.935427 -4.23594 0
M  V30 7954 H 760.549 0.0753865 -5.51949 0
M  V30 7955 H 763.025 1.2283 -3.97558 0
M  V30 7956 H 761.901 2.03933 -5.0961 0
M  V30 7957 H 762.162 2.70939 -3.49348 0
M  V30 7958 N 761.222 1.57436 0.0718424 0
M  V30 7959 C 762.633 1.75975 0.623678 0
M  V30 7960 C 762.984 0.827155 1.77912 0
M  V30 7961 O 762.109 0.0112425 2.16397 0
M  V30 7962 C 762.704 3.1911 1.13816 0
M  V30 7963 C 761.263 3.38994 1.63586 0
M  V30 7964 C 760.41 2.71684 0.555261 0
M  V30 7965 H 763.361 1.57948 -0.154328 0
M  V30 7966 H 763.382 3.23267 2.00696 0
M  V30 7967 H 762.894 3.86962 0.296998 0
M  V30 7968 H 760.995 2.76256 2.50027 0
M  V30 7969 H 761.108 4.47436 1.71283 0
M  V30 7970 H 759.472 2.34236 1.00029 0
M  V30 7971 H 760.255 3.42191 -0.275712 0
M  V30 7972 N 762.7 -0.34323 1.53817 0
M  V30 7973 C 763.949 -1.08086 1.70295 0
M  V30 7974 C 764.262 -1.89794 0.47302 0
M  V30 7975 O 765.468 -2.66498 0.518754 0
M  V30 7976 C 763.924 -1.97097 3.01133 0
M  V30 7977 C 763.532 -1.20594 4.31464 0
M  V30 7978 C 765.276 -2.70715 3.26976 0
M  V30 7979 C 763.183 -2.08636 5.53376 0
M  V30 7980 H 762.113 -0.407228 0.634572 0
M  V30 7981 H 764.764 -0.340328 1.80316 0
M  V30 7982 H 763.146 -2.74971 2.84969 0
M  V30 7983 H 764.32 -0.476282 4.58332 0
M  V30 7984 H 762.635 -0.587426 4.12236 0
M  V30 7985 H 765.232 -3.36857 4.15248 0
M  V30 7986 H 765.575 -3.37299 2.43998 0
M  V30 7987 H 766.108 -1.99914 3.43917 0
M  V30 7988 H 762.847 -1.46594 6.38898 0
M  V30 7989 H 762.367 -2.7939 5.30755 0
M  V30 7990 H 764.046 -2.67682 5.89029 0
M  V30 7991 N 764.178 -1.45556 -0.604258 0
M  V30 7992 C 765.424 -1.50958 -1.3632 0
M  V30 7993 C 765.779 -0.15051 -1.9181 0
M  V30 7994 O 765.072 0.838035 -1.72301 0
M  V30 7995 C 765.266 -2.52697 -2.52743 0
M  V30 7996 C 765.095 -3.98364 -2.08654 0
M  V30 7997 C 763.865 -4.66295 -1.94671 0
M  V30 7998 C 766.063 -4.86801 -1.6592 0
M  V30 7999 N 764.045 -5.96669 -1.44428 0
M  V30 8000 C 765.416 -6.06829 -1.27115 0
M  V30 8001 C 767.471 -4.73634 -1.53542 0
M  V30 8002 C 766.174 -7.15149 -0.771676 0
M  V30 8003 C 768.2 -5.82005 -1.04998 0
M  V30 8004 C 767.562 -7.01191 -0.671599 0
M  V30 8005 H 763.661 -0.607329 -0.492621 0
M  V30 8006 H 766.245 -1.82048 -0.69041 0
M  V30 8007 H 764.416 -2.23554 -3.17614 0
M  V30 8008 H 766.148 -2.48227 -3.19633 0
M  V30 8009 H 762.903 -4.21496 -2.15959 0
M  V30 8010 H 763.327 -6.66003 -1.21528 0
M  V30 8011 H 767.969 -3.81898 -1.81421 0
M  V30 8012 H 765.687 -8.06671 -0.480442 0
M  V30 8013 H 769.273 -5.73851 -0.958423 0
M  V30 8014 H 768.153 -7.83619 -0.301752 0
M  V30 8015 N 765.656 0.84705 -1.32902 0
M  V30 8016 C 766.604 1.97765 -1.22441 0
M  V30 8017 C 767.598 1.68919 -0.127546 0
M  V30 8018 O 768.804 1.77633 -0.290973 0
M  V30 8019 H 765.179 0.649072 -0.379748 0
M  V30 8020 H 767.15 2.03713 -2.18044 0
M  V30 8021 C 765.899 3.33834 -0.972125 0
M  V30 8022 H 765.222 3.56564 -1.80837 0
M  V30 8023 H 766.662 4.13467 -0.939209 0
M  V30 8024 C 765.121 3.35328 0.325059 0
M  V30 8025 O 765.651 3.78887 1.33445 0
M  V30 8026 N 763.857 2.88488 0.349718 0
M  V30 8027 H 763.404 2.53234 -0.472236 0
M  V30 8028 H 763.362 2.8987 1.21748 0
M  V30 8029 N 767.134 1.16236 1.06428 0
M  V30 8030 C 768.359 0.967688 1.83441 0
M  V30 8031 C 768.784 -0.479167 1.81894 0
M  V30 8032 O 768.142 -1.34224 1.21875 0
M  V30 8033 C 768.19 1.49806 3.2801 0
M  V30 8034 O 767.294 0.703481 4.06356 0
M  V30 8035 H 766.635 0.344468 0.56766 0
M  V30 8036 H 769.165 1.54442 1.34197 0
M  V30 8037 H 769.175 1.51495 3.78831 0
M  V30 8038 H 767.85 2.55133 3.2845 0
M  V30 8039 H 766.427 0.756986 3.65136 0
M  V30 8040 N 768.612 -1.24939 0.960631 0
M  V30 8041 C 769.56 -2.27659 0.47686 0
M  V30 8042 C 770.554 -1.63148 -0.455961 0
M  V30 8043 O 771.76 -1.76911 -0.332029 0
M  V30 8044 H 768.135 -0.739651 0.135723 0
M  V30 8045 H 770.106 -2.65844 1.35534 0
M  V30 8046 C 768.855 -3.46976 -0.224191 0
M  V30 8047 H 768.178 -3.96854 0.484471 0
M  V30 8048 H 769.618 -4.20717 -0.526615 0
M  V30 8049 C 768.077 -3.04159 -1.44876 0
M  V30 8050 O 768.607 -3.10697 -2.54618 0
M  V30 8051 N 766.813 -2.59284 -1.31226 0
M  V30 8052 H 766.36 -2.54164 -0.419361 0
M  V30 8053 H 766.318 -2.31 -2.13275 0
M  V30 8054 N 770.09 -0.729906 -1.39679 0
M  V30 8055 C 771.04 -0.0627678 -2.27914 0
M  V30 8056 C 772.024 0.717867 -1.43998 0
M  V30 8057 O 773.216 0.587713 -1.66958 0
M  V30 8058 C 770.345 0.847564 -3.32673 0
M  V30 8059 C 769.431 0.0613515 -4.24056 0
M  V30 8060 N 769.822 -0.962863 -4.96551 0
M  V30 8061 C 768.12 0.291773 -4.45045 0
M  V30 8062 C 768.821 -1.43652 -5.63683 0
M  V30 8063 N 767.797 -0.756044 -5.38317 0
M  V30 8064 H 771.599 -0.847545 -2.81414 0
M  V30 8065 H 769.113 -0.563776 -1.523 0
M  V30 8066 H 771.11 1.34094 -3.94746 0
M  V30 8067 H 769.77 1.63156 -2.80732 0
M  V30 8068 H 770.781 -1.34409 -5.00154 0
M  V30 8069 H 767.458 1.05097 -4.04056 0
M  V30 8070 H 768.848 -2.28835 -6.31731 0
M  V30 8071 N 771.568 1.50203 -0.477153 0
M  V30 8072 C 772.5 2.26508 0.350239 0
M  V30 8073 C 773.513 1.32081 0.95176 0
M  V30 8074 O 774.702 1.57546 0.839139 0
M  V30 8075 C 771.802 3.0361 1.50579 0
M  V30 8076 C 770.975 4.25438 1.01595 0
M  V30 8077 C 770.034 4.84783 2.04626 0
M  V30 8078 O 769.06 5.45528 1.62442 0
M  V30 8079 N 770.262 4.72318 3.37485 0
M  V30 8080 H 773.027 2.98155 -0.30394 0
M  V30 8081 H 770.588 1.58938 -0.308289 0
M  V30 8082 H 772.58 3.4019 2.1921 0
M  V30 8083 H 771.15 2.34724 2.06455 0
M  V30 8084 H 770.37 3.93894 0.155316 0
M  V30 8085 H 771.658 5.04413 0.666694 0
M  V30 8086 H 771.056 4.24022 3.74462 0
M  V30 8087 H 769.613 5.13149 4.01897 0
M  V30 8088 N 773.046 0.209999 1.56195 0
M  V30 8089 C 774.295 -0.425106 1.97169 0
M  V30 8090 C 774.608 -1.61718 1.10031 0
M  V30 8091 O 775.814 -2.32105 1.40853 0
M  V30 8092 C 774.27 -0.80771 3.50719 0
M  V30 8093 C 773.878 0.360902 4.46544 0
M  V30 8094 C 775.622 -1.40906 4.00432 0
M  V30 8095 C 773.529 -0.0434919 5.91384 0
M  V30 8096 H 772.459 -0.162598 0.736259 0
M  V30 8097 H 775.11 0.304382 1.80958 0
M  V30 8098 H 773.492 -1.59429 3.62489 0
M  V30 8099 H 774.666 1.13846 4.46515 0
M  V30 8100 H 772.981 0.874729 4.07109 0
M  V30 8101 H 775.578 -1.72433 5.06133 0
M  V30 8102 H 775.921 -2.32081 3.45607 0
M  V30 8103 H 776.454 -0.686154 3.91838 0
M  V30 8104 H 773.193 0.834448 6.50167 0
M  V30 8105 H 772.713 -0.785598 5.94633 0
M  V30 8106 H 774.392 -0.474176 6.4526 0
M  V30 8107 N 774.524 -1.57472 -0.0634922 0
M  V30 8108 C 775.773 -1.86837 -0.759928 0
M  V30 8109 C 776.086 -0.803823 -1.7832 0
M  V30 8110 O 777.292 -0.985578 -2.52979 0
M  V30 8111 C 775.748 -3.31448 -1.4025 0
M  V30 8112 C 775.356 -4.46052 -0.417368 0
M  V30 8113 C 777.1 -3.70003 -2.08082 0
M  V30 8114 C 775.007 -5.81707 -1.06633 0
M  V30 8115 H 773.937 -0.697009 -0.287567 0
M  V30 8116 H 776.588 -1.83495 -0.0133914 0
M  V30 8117 H 774.97 -3.29427 -2.19759 0
M  V30 8118 H 776.144 -4.5948 0.348503 0
M  V30 8119 H 774.459 -4.16104 0.156955 0
M  V30 8120 H 777.056 -4.68653 -2.57426 0
M  V30 8121 H 777.399 -3.00226 -2.88393 0
M  V30 8122 H 777.932 -3.7405 -1.35394 0
M  V30 8123 H 774.671 -6.54798 -0.303374 0
M  V30 8124 H 774.191 -5.72064 -1.80286 0
M  V30 8125 H 775.87 -6.27317 -1.58376 0
M  V30 8126 N 776.003 0.335068 -1.53997 0
M  V30 8127 C 777.251 1.07223 -1.71312 0
M  V30 8128 C 777.572 1.88911 -0.483486 0
M  V30 8129 O 776.842 1.89344 0.50257 0
M  V30 8130 H 775.422 0.398846 -0.63161 0
M  V30 8131 H 778.084 0.374288 -1.91272 0
M  V30 8132 H 777.18 1.7448 -2.58772 0
M  V30 8133 N 777.481 1.45874 0.596531 0
M  V30 8134 C 778.727 1.5069 1.35722 0
M  V30 8135 C 779.06 0.152506 1.936 0
M  V30 8136 O 778.335 -0.834411 1.75692 0
M  V30 8137 C 778.618 2.59474 2.4969 0
M  V30 8138 C 778.471 4.04396 1.96937 0
M  V30 8139 C 779.79 2.64451 3.51787 0
M  V30 8140 H 776.909 0.548611 0.492133 0
M  V30 8141 H 779.551 1.77741 0.671428 0
M  V30 8142 H 777.701 2.36539 3.08191 0
M  V30 8143 H 779.373 4.38576 1.43 0
M  V30 8144 H 777.616 4.14529 1.27859 0
M  V30 8145 H 778.287 4.76218 2.79143 0
M  V30 8146 H 780.763 2.85031 3.03145 0
M  V30 8147 H 779.639 3.42411 4.29006 0
M  V30 8148 H 779.9 1.69965 4.08123 0
M  V30 8149 N 778.959 -0.83999 1.33349 0
M  V30 8150 C 779.922 -1.93128 1.23426 0
M  V30 8151 C 780.922 -1.60065 0.153599 0
M  V30 8152 O 782.112 -1.69425 0.405049 0
M  V30 8153 C 779.244 -3.28761 0.901622 0
M  V30 8154 H 780.437 -2.03352 2.20427 0
M  V30 8155 H 777.99 -1.03194 1.17391 0
M  V30 8156 H 778.725 -3.24233 -0.0659337 0
M  V30 8157 H 778.51 -3.54138 1.68311 0
M  V30 8158 H 780 -4.08714 0.856913 0
M  V30 8159 N 780.437 -1.16799 -1.0581 0
M  V30 8160 C 781.369 -0.836774 -2.13379 0
M  V30 8161 C 782.382 0.158116 -1.6203 0
M  V30 8162 O 783.571 -0.0673211 -1.78373 0
M  V30 8163 C 780.671 -0.225959 -3.38146 0
M  V30 8164 C 779.844 -1.26217 -4.18794 0
M  V30 8165 C 778.903 -0.670257 -5.21914 0
M  V30 8166 O 777.929 -1.34042 -5.53192 0
M  V30 8167 N 779.131 0.540683 -5.77977 0
M  V30 8168 H 781.896 -1.76257 -2.42391 0
M  V30 8169 H 779.457 -1.06599 -1.21853 0
M  V30 8170 H 781.449 0.18317 -4.04285 0
M  V30 8171 H 780.019 0.603494 -3.06719 0
M  V30 8172 H 779.239 -1.84729 -3.48237 0
M  V30 8173 H 780.527 -1.9613 -4.69479 0
M  V30 8174 H 779.925 1.10322 -5.54838 0
M  V30 8175 H 778.482 0.891958 -6.45668 0
M  V30 8176 N 781.915 1.24427 -0.967243 0
M  V30 8177 C 783.161 1.92772 -0.629812 0
M  V30 8178 C 783.494 1.75436 0.832827 0
M  V30 8179 O 782.769 1.10716 1.59913 0
M  V30 8180 C 783.052 3.45798 -1.00477 0
M  V30 8181 C 782.905 3.72304 -2.52407 0
M  V30 8182 C 784.224 4.36787 -0.538999 0
M  V30 8183 H 781.343 0.700099 -0.230282 0
M  V30 8184 H 783.985 1.46805 -1.20616 0
M  V30 8185 H 782.135 3.8508 -0.514336 0
M  V30 8186 H 783.807 3.42584 -3.08924 0
M  V30 8187 H 782.05 3.17472 -2.95625 0
M  V30 8188 H 782.721 4.7937 -2.73693 0
M  V30 8189 H 785.197 4.04877 -0.959874 0
M  V30 8190 H 784.073 5.4259 -0.829926 0
M  V30 8191 H 784.334 4.38527 0.560923 0
M  V30 8192 N 783.393 0.737304 1.3929 0
M  V30 8193 C 784.323 0.113988 2.33222 0
M  V30 8194 C 785.304 -0.721695 1.54031 0
M  V30 8195 O 786.489 -0.666206 1.82415 0
M  V30 8196 C 783.619 -0.792319 3.38141 0
M  V30 8197 C 782.573 -0.0606178 4.27957 0
M  V30 8198 C 781.899 -1.08409 5.23595 0
M  V30 8199 C 783.199 1.09817 5.10625 0
M  V30 8200 H 784.893 0.898611 2.85596 0
M  V30 8201 H 782.439 0.433571 1.37318 0
M  V30 8202 H 784.392 -1.23793 4.02807 0
M  V30 8203 H 783.116 -1.60908 2.84211 0
M  V30 8204 H 781.775 0.365393 3.64775 0
M  V30 8205 H 781.423 -1.89449 4.6596 0
M  V30 8206 H 781.123 -0.599269 5.84536 0
M  V30 8207 H 782.647 -1.52936 5.91137 0
M  V30 8208 H 784.061 0.730892 5.68622 0
M  V30 8209 H 782.458 1.51278 5.80719 0
M  V30 8210 H 783.528 1.91878 4.45321 0
M  V30 8211 N 784.871 -1.49948 0.485112 0
M  V30 8212 C 785.819 -2.30449 -0.315609 0
M  V30 8213 C 786.813 -1.38351 -0.977516 0
M  V30 8214 O 788.019 -1.55477 -0.907019 0
M  V30 8215 H 784.394 -0.742262 -0.120629 0
M  V30 8216 H 786.365 -2.95925 0.383552 0
M  V30 8217 C 785.114 -3.19283 -1.37673 0
M  V30 8218 H 784.437 -3.90067 -0.876801 0
M  V30 8219 H 785.877 -3.78579 -1.90929 0
M  V30 8220 C 784.336 -2.37817 -2.38631 0
M  V30 8221 O 784.866 -2.0711 -3.44192 0
M  V30 8222 N 783.072 -2.00135 -2.107 0
M  V30 8223 H 782.619 -2.25307 -1.24878 0
M  V30 8224 H 782.577 -1.45933 -2.7848 0
M  V30 8225 N 786.349 -0.21828 -1.56081 0
M  V30 8226 C 787.765 0.137168 -1.59009 0
M  V30 8227 C 787.965 1.59215 -1.23503 0
M  V30 8228 O 787.021 2.33178 -0.968716 0
M  V30 8229 C 788.334 -0.186162 -3.00123 0
M  V30 8230 C 789.882 -0.128135 -3.12738 0
M  V30 8231 C 790.357 -0.425094 -4.56023 0
M  V30 8232 N 791.848 -0.374547 -4.61683 0
M  V30 8233 C 792.583 -0.57786 -5.70481 0
M  V30 8234 N 792.079 -0.842771 -6.87655 0
M  V30 8235 N 793.872 -0.510521 -5.59777 0
M  V30 8236 H 786.023 -1.16746 -1.77437 0
M  V30 8237 H 788.286 -0.467706 -0.824594 0
M  V30 8238 H 787.992 -1.19589 -3.30744 0
M  V30 8239 H 787.866 0.500388 -3.73866 0
M  V30 8240 H 790.253 0.872224 -2.81915 0
M  V30 8241 H 790.334 -0.848112 -2.41331 0
M  V30 8242 H 789.978 -1.42288 -4.87562 0
M  V30 8243 H 789.908 0.316038 -5.25651 0
M  V30 8244 H 792.399 -0.177356 -3.77484 0
M  V30 8245 H 792.712 -0.986095 -7.66483 0
M  V30 8246 H 791.057 -0.879929 -6.89407 0
M  V30 8247 H 794.248 -0.303813 -4.67113 0
M  V30 8248 H 794.421 -0.672378 -6.44502 0
M  V30 8249 N 787.827 1.57504 0.0551401 0
M  V30 8250 C 788.757 2.07864 1.06372 0
M  V30 8251 C 789.738 0.975565 1.39344 0
M  V30 8252 O 790.923 1.24929 1.48682 0
M  V30 8253 C 788.053 2.53643 2.3724 0
M  V30 8254 C 787.007 3.67978 2.18578 0
M  V30 8255 C 786.333 3.9987 3.54976 0
M  V30 8256 C 787.633 4.97405 1.59329 0
M  V30 8257 H 789.327 2.92379 0.644595 0
M  V30 8258 H 786.873 1.40654 0.308619 0
M  V30 8259 H 788.826 2.8749 3.08103 0
M  V30 8260 H 787.55 1.66177 2.81163 0
M  V30 8261 H 786.209 3.3444 1.50152 0
M  V30 8262 H 785.857 3.0951 3.965 0
M  V30 8263 H 785.557 4.76867 3.43324 0
M  V30 8264 H 787.081 4.36228 4.27244 0
M  V30 8265 H 788.495 5.29375 2.20078 0
M  V30 8266 H 786.892 5.78837 1.58327 0
M  V30 8267 H 787.962 4.81697 0.55638 0
M  V30 8268 N 789.305 -0.326896 1.54172 0
M  V30 8269 C 790.582 -1.08326 1.62864 0
M  V30 8270 C 790.962 -2.06018 0.46039 0
M  V30 8271 O 790.31 -2.21889 -0.545685 0
M  V30 8272 C 790.52 -1.78816 2.9971 0
M  V30 8273 C 791.868 -2.31958 3.55641 0
M  V30 8274 O 792.892 -1.88888 3.01993 0
M  V30 8275 O 791.751 -3.10801 4.49517 0
M  V30 8276 H 788.845 -0.499131 0.659392 0
M  V30 8277 H 791.391 -0.327054 1.66519 0
M  V30 8278 H 790.163 -1.07739 3.76176 0
M  V30 8279 H 789.786 -2.61255 2.99719 0
M  V30 8280 N 790.784 -1.46188 -0.588786 0
M  V30 8281 C 792.032 -1.50885 -1.34455 0
M  V30 8282 C 792.353 -0.159555 -1.94346 0
M  V30 8283 O 791.623 0.813239 -1.78222 0
M  V30 8284 H 790.203 -0.555707 -0.499198 0
M  V30 8285 H 792.865 -1.82277 -0.690014 0
M  V30 8286 H 791.961 -2.25816 -2.15438 0
M  V30 8287 N 792.262 0.832906 -1.33792 0
M  V30 8288 C 793.209 1.94314 -1.24541 0
M  V30 8289 C 794.179 1.65646 -0.122753 0
M  V30 8290 O 795.364 1.88394 -0.30204 0
M  V30 8291 C 792.504 3.30395 -0.996641 0
M  V30 8292 C 791.617 3.71422 -2.20612 0
M  V30 8293 C 790.752 4.96401 -1.89101 0
M  V30 8294 C 789.791 5.2998 -3.06247 0
M  V30 8295 N 788.928 6.46137 -2.74685 0
M  V30 8296 H 793.768 2.01559 -2.19495 0
M  V30 8297 H 791.305 0.986243 -1.09141 0
M  V30 8298 H 793.263 4.08803 -0.832817 0
M  V30 8299 H 791.893 3.22691 -0.0838242 0
M  V30 8300 H 790.945 2.88488 -2.47949 0
M  V30 8301 H 792.257 3.92215 -3.0817 0
M  V30 8302 H 791.411 5.82572 -1.69396 0
M  V30 8303 H 790.15 4.7759 -0.987882 0
M  V30 8304 H 789.155 4.42312 -3.26559 0
M  V30 8305 H 790.38 5.50737 -3.97323 0
M  V30 8306 H 788.326 6.28801 -1.86938 0
M  V30 8307 H 788.243 6.67054 -3.55774 0
M  V30 8308 H 789.511 7.35403 -2.58461 0
M  V30 8309 N 793.74 1.17359 1.05189 0
M  V30 8310 C 795.151 0.96793 1.5965 0
M  V30 8311 C 795.502 -0.485355 1.90102 0
M  V30 8312 O 794.627 -1.36066 1.6827 0
M  V30 8313 C 795.222 1.75068 2.90063 0
M  V30 8314 C 793.781 1.58969 3.41183 0
M  V30 8315 C 792.928 1.75231 2.14917 0
M  V30 8316 H 795.879 1.32067 0.880001 0
M  V30 8317 H 795.9 1.23308 3.59966 0
M  V30 8318 H 795.412 2.80835 2.67868 0
M  V30 8319 H 793.513 0.556906 3.68415 0
M  V30 8320 H 793.626 2.38067 4.15766 0
M  V30 8321 H 791.99 1.18073 2.25679 0
M  V30 8322 H 792.773 2.8241 1.95191 0
M  V30 8323 N 795.218 -1.23913 0.973828 0
M  V30 8324 C 796.465 -1.92151 0.639079 0
M  V30 8325 C 796.793 -1.76064 -0.826545 0
M  V30 8326 O 796.048 -1.11126 -1.61088 0
M  V30 8327 C 796.347 -3.4406 0.967356 0
M  V30 8328 C 796.013 -3.80321 2.42212 0
M  V30 8329 C 794.675 -3.8993 2.81971 0
M  V30 8330 C 797.027 -3.97935 3.36596 0
M  V30 8331 C 794.355 -4.14575 4.15144 0
M  V30 8332 C 796.707 -4.24079 4.69404 0
M  V30 8333 C 795.371 -4.31908 5.08932 0
M  V30 8334 H 794.641 -0.70313 0.233856 0
M  V30 8335 H 797.288 -1.47072 1.22646 0
M  V30 8336 H 795.593 -3.90667 0.297807 0
M  V30 8337 H 797.29 -3.95077 0.686654 0
M  V30 8338 H 793.88 -3.73411 2.10385 0
M  V30 8339 H 798.064 -3.89908 3.07059 0
M  V30 8340 H 793.32 -4.18858 4.45385 0
M  V30 8341 H 797.494 -4.36652 5.42502 0
M  V30 8342 H 795.121 -4.50758 6.12145 0
M  V30 8343 N 796.696 -0.74468 -1.38897 0
M  V30 8344 C 797.973 -0.222773 -1.94327 0
M  V30 8345 C 798.353 1.27731 -1.68071 0
M  V30 8346 O 797.701 2.04754 -1.01429 0
M  V30 8347 C 797.911 -0.566836 -3.44366 0
M  V30 8348 C 799.259 -0.521531 -4.21385 0
M  V30 8349 O 800.283 -0.504599 -3.52608 0
M  V30 8350 O 799.142 -0.524595 -5.43976 0
M  V30 8351 H 796.236 -0.0439259 -0.825833 0
M  V30 8352 H 798.782 -0.824197 -1.48341 0
M  V30 8353 H 797.554 -1.60321 -3.56949 0
M  V30 8354 H 797.177 0.0630577 -3.9755 0
M  V30 8355 N 798.174 1.49689 -0.493057 0
M  V30 8356 C 799.451 1.9525 0.116907 0
M  V30 8357 C 799.831 1.43429 1.54892 0
M  V30 8358 O 799.179 0.644621 2.19219 0
M  V30 8359 C 799.389 3.4898 0.037705 0
M  V30 8360 C 800.737 4.24052 0.215621 0
M  V30 8361 O 801.761 3.5602 0.113266 0
M  V30 8362 O 800.62 5.44847 0.42477 0
M  V30 8363 H 797.714 0.820973 0.099662 0
M  V30 8364 H 800.26 1.60367 -0.555029 0
M  V30 8365 H 799.032 3.79309 -0.961251 0
M  V30 8366 H 798.655 3.9046 0.750137 0
M  V30 8367 N 799.652 0.226554 1.55963 0
M  V30 8368 C 800.615 -0.668015 2.19249 0
M  V30 8369 C 801.615 -1.11794 1.1558 0
M  V30 8370 O 802.805 -1.02593 1.40784 0
M  V30 8371 C 799.937 -1.91571 2.81981 0
M  V30 8372 H 801.13 -0.116175 2.99675 0
M  V30 8373 H 798.683 -0.0230497 1.56283 0
M  V30 8374 H 799.418 -2.50929 2.05439 0
M  V30 8375 H 799.203 -1.6015 3.57903 0
M  V30 8376 H 800.693 -2.55294 3.30477 0
M  V30 8377 N 801.13 -1.57531 -0.0467866 0
M  V30 8378 C 802.407 -1.79568 -0.775536 0
M  V30 8379 C 802.787 -0.820322 -1.94509 0
M  V30 8380 O 802.135 0.14134 -2.28062 0
M  V30 8381 C 802.345 -3.26789 -1.22516 0
M  V30 8382 C 803.693 -3.91299 -1.64835 0
M  V30 8383 O 804.717 -3.30831 -1.3202 0
M  V30 8384 O 803.576 -4.97727 -2.25677 0
M  V30 8385 H 800.67 -0.737817 -0.373572 0
M  V30 8386 H 803.216 -1.69682 -0.0249302 0
M  V30 8387 H 801.988 -3.89357 -0.389446 0
M  V30 8388 H 801.611 -3.41496 -2.03633 0
M  V30 8389 N 802.608 0.318715 -1.54344 0
M  V30 8390 C 803.54 1.41364 -1.80413 0
M  V30 8391 C 804.553 1.47627 -0.686294 0
M  V30 8392 O 805.742 1.50264 -0.963486 0
M  V30 8393 C 802.842 2.79867 -1.91123 0
M  V30 8394 C 802.015 2.96749 -3.21339 0
M  V30 8395 C 801.074 4.15642 -3.22689 0
M  V30 8396 O 800.1 4.08571 -3.96306 0
M  V30 8397 N 801.302 5.25416 -2.46817 0
M  V30 8398 H 804.067 1.19363 -2.74905 0
M  V30 8399 H 801.628 0.508722 -1.537 0
M  V30 8400 H 803.62 3.57619 -1.89448 0
M  V30 8401 H 802.19 2.94896 -1.03706 0
M  V30 8402 H 801.41 2.06257 -3.35934 0
M  V30 8403 H 802.698 3.04927 -4.07304 0
M  V30 8404 H 802.096 5.34037 -1.86605 0
M  V30 8405 H 800.653 6.01569 -2.50915 0
M  V30 8406 N 804.086 1.46499 0.581025 0
M  V30 8407 C 805.502 1.31491 0.904563 0
M  V30 8408 C 805.702 0.287598 1.99437 0
M  V30 8409 O 804.758 -0.309247 2.50599 0
M  V30 8410 C 806.071 2.70163 1.32032 0
M  V30 8411 C 807.619 2.78266 1.43308 0
M  V30 8412 C 808.094 4.17524 1.8825 0
M  V30 8413 N 809.585 4.19949 1.9544 0
M  V30 8414 C 810.32 5.24594 2.31493 0
M  V30 8415 N 809.816 6.39564 2.66326 0
M  V30 8416 N 811.609 5.11961 2.32062 0
M  V30 8417 H 803.76 2.11946 -0.138856 0
M  V30 8418 H 806.023 0.948 0.000548528 0
M  V30 8419 H 805.729 3.46655 0.593554 0
M  V30 8420 H 805.603 3.00379 2.2815 0
M  V30 8421 H 807.99 2.02061 2.15071 0
M  V30 8422 H 808.071 2.51732 0.45438 0
M  V30 8423 H 807.715 4.94225 1.17065 0
M  V30 8424 H 807.645 4.41466 2.87081 0
M  V30 8425 H 810.136 3.36996 1.71004 0
M  V30 8426 H 810.449 7.15187 2.92793 0
M  V30 8427 H 808.794 6.42923 2.6396 0
M  V30 8428 H 811.985 4.21177 2.04272 0
M  V30 8429 H 812.158 5.93626 2.5983 0
M  V30 8430 N 805.565 -0.825799 1.34232 0
M  V30 8431 C 806.495 -1.95151 1.28212 0
M  V30 8432 C 807.476 -1.69345 0.160123 0
M  V30 8433 O 808.661 -1.90983 0.352019 0
M  V30 8434 C 805.791 -3.31554 1.03388 0
M  V30 8435 C 804.745 -3.71793 2.12023 0
M  V30 8436 C 804.071 -5.06147 1.72392 0
M  V30 8437 C 805.371 -3.84193 3.53826 0
M  V30 8438 H 807.065 -2.00445 2.22401 0
M  V30 8439 H 804.611 -0.962996 1.07063 0
M  V30 8440 H 806.564 -4.09889 0.978225 0
M  V30 8441 H 805.288 -3.26551 0.0564142 0
M  V30 8442 H 803.947 -2.95731 2.16654 0
M  V30 8443 H 803.595 -4.97628 0.733137 0
M  V30 8444 H 803.295 -5.34041 2.451 0
M  V30 8445 H 804.819 -5.86943 1.68317 0
M  V30 8446 H 806.233 -4.52806 3.51624 0
M  V30 8447 H 804.63 -4.23538 4.2513 0
M  V30 8448 H 805.7 -2.86272 3.91377 0
M  V30 8449 N 807.043 -1.17915 -1.04565 0
M  V30 8450 C 808.29 -0.971424 -1.77678 0
M  V30 8451 C 808.618 0.499401 -1.87979 0
M  V30 8452 O 807.873 1.38695 -1.38066 0
M  V30 8453 C 808.172 -1.56528 -3.213 0
M  V30 8454 C 807.838 -3.06138 -3.31044 0
M  V30 8455 C 806.5 -3.46974 -3.33411 0
M  V30 8456 C 808.852 -4.02151 -3.31548 0
M  V30 8457 C 806.18 -4.82406 -3.33918 0
M  V30 8458 C 808.532 -5.37492 -3.33595 0
M  V30 8459 C 807.196 -5.77782 -3.34251 0
M  V30 8460 H 806.466 -0.355469 -0.650171 0
M  V30 8461 H 809.113 -1.46902 -1.22849 0
M  V30 8462 H 807.418 -0.98955 -3.79098 0
M  V30 8463 H 809.115 -1.38003 -3.76505 0
M  V30 8464 H 805.705 -2.73589 -3.29919 0
M  V30 8465 H 809.889 -3.71656 -3.28916 0
M  V30 8466 H 805.145 -5.12927 -3.3274 0
M  V30 8467 H 809.319 -6.1166 -3.32934 0
M  V30 8468 H 806.946 -6.82702 -3.34397 0
M  V30 8469 N 808.521 1.23394 -0.980386 0
M  V30 8470 C 809.431 2.28561 -0.528864 0
M  V30 8471 C 810.447 1.68946 0.416329 0
M  V30 8472 O 811.623 1.99355 0.286251 0
M  V30 8473 C 808.688 3.46323 0.16155 0
M  V30 8474 C 807.749 4.21297 -0.825044 0
M  V30 8475 C 806.982 5.33437 -0.167483 0
M  V30 8476 O 807.205 5.60812 1.04146 0
M  V30 8477 O 806.139 5.95637 -0.866047 0
M  V30 8478 H 809.965 2.69326 -1.40346 0
M  V30 8479 H 807.55 1.29325 -0.748019 0
M  V30 8480 H 809.432 4.17811 0.548841 0
M  V30 8481 H 808.107 3.0751 1.01092 0
M  V30 8482 H 807.014 3.52134 -1.26303 0
M  V30 8483 H 808.347 4.6396 -1.64322 0
M  V30 8484 N 809.999 0.752036 1.385 0
M  V30 8485 C 810.962 0.131587 2.28822 0
M  V30 8486 C 811.962 -0.649149 1.47115 0
M  V30 8487 O 813.152 -0.475645 1.67581 0
M  V30 8488 C 810.284 -0.822101 3.30839 0
M  V30 8489 H 811.477 0.927551 2.85196 0
M  V30 8490 H 809.03 0.518945 1.47434 0
M  V30 8491 H 809.765 -1.6438 2.79553 0
M  V30 8492 H 809.55 -0.264689 3.91206 0
M  V30 8493 H 811.04 -1.25226 3.98382 0
M  V30 8494 N 811.477 -1.49425 0.500989 0
M  V30 8495 C 812.724 -2.02453 -0.0435355 0
M  V30 8496 C 813.052 -1.38067 -1.36995 0
M  V30 8497 O 812.307 -0.505557 -1.89057 0
M  V30 8498 C 812.606 -3.56562 -0.24463 0
M  V30 8499 C 812.272 -4.39585 1.00379 0
M  V30 8500 C 810.934 -4.61992 1.346 0
M  V30 8501 C 813.286 -4.87881 1.83361 0
M  V30 8502 C 810.614 -5.2994 2.51755 0
M  V30 8503 C 812.966 -5.57119 2.99669 0
M  V30 8504 C 811.63 -5.77771 3.3427 0
M  V30 8505 H 810.9 -0.740829 -0.0159308 0
M  V30 8506 H 813.547 -1.79725 0.661143 0
M  V30 8507 H 811.852 -3.77969 -1.03183 0
M  V30 8508 H 813.549 -3.95185 -0.6804 0
M  V30 8509 H 810.139 -4.22385 0.727225 0
M  V30 8510 H 814.323 -4.70398 1.58237 0
M  V30 8511 H 809.579 -5.44133 2.788 0
M  V30 8512 H 813.753 -5.93516 3.64296 0
M  V30 8513 H 811.38 -6.30197 4.25154 0
M  V30 8514 N 812.955 -0.234822 -1.55841 0
M  V30 8515 C 814.201 0.393843 -1.98939 0
M  V30 8516 C 814.534 1.58466 -1.1226 0
M  V30 8517 O 813.809 1.93635 -0.183242 0
M  V30 8518 C 814.092 0.815492 -3.50745 0
M  V30 8519 C 813.945 -0.379878 -4.48193 0
M  V30 8520 C 815.264 1.66687 -4.07312 0
M  V30 8521 H 812.383 0.141681 -0.723253 0
M  V30 8522 H 815.025 -0.333716 -1.87046 0
M  V30 8523 H 813.175 1.43541 -3.6101 0
M  V30 8524 H 814.847 -1.0182 -4.49923 0
M  V30 8525 H 813.09 -1.02507 -4.21515 0
M  V30 8526 H 813.761 -0.0417069 -5.51984 0
M  V30 8527 H 816.237 1.14369 -4.00074 0
M  V30 8528 H 815.113 1.93078 -5.13821 0
M  V30 8529 H 815.374 2.63468 -3.55017 0
M  V30 8530 N 814.433 1.57553 0.0384317 0
M  V30 8531 C 815.682 1.88022 0.730108 0
M  V30 8532 C 815.995 0.83209 1.77019 0
M  V30 8533 O 817.201 1.0257 2.51379 0
M  V30 8534 C 815.657 3.33637 1.3496 0
M  V30 8535 C 815.265 4.46659 0.346352 0
M  V30 8536 C 817.009 3.73266 2.02169 0
M  V30 8537 C 814.916 5.8333 0.973652 0
M  V30 8538 H 813.846 0.701496 0.276442 0
M  V30 8539 H 816.497 1.83493 -0.0158028 0
M  V30 8540 H 814.879 3.32882 2.1449 0
M  V30 8541 H 816.053 4.58868 -0.421558 0
M  V30 8542 H 814.368 4.15802 -0.223133 0
M  V30 8543 H 816.965 4.72689 2.49938 0
M  V30 8544 H 817.308 3.04776 2.8358 0
M  V30 8545 H 817.841 3.76156 1.29427 0
M  V30 8546 H 814.58 6.55197 0.199163 0
M  V30 8547 H 814.1 5.7486 1.71162 0
M  V30 8548 H 815.779 6.29757 1.48376 0
M  V30 8549 N 815.911 -0.310526 1.54511 0
M  V30 8550 C 817.158 -1.04691 1.73338 0
M  V30 8551 C 817.486 -1.87584 0.514038 0
M  V30 8552 O 816.741 -1.89096 -0.504119 0
M  V30 8553 C 817.04 -1.98942 2.96912 0
M  V30 8554 C 816.706 -1.321 4.31115 0
M  V30 8555 C 815.368 -1.13603 4.67598 0
M  V30 8556 C 817.72 -0.842362 5.14348 0
M  V30 8557 C 815.048 -0.459102 5.84901 0
M  V30 8558 C 817.4 -0.179202 6.32346 0
M  V30 8559 C 816.064 0.0178111 6.67498 0
M  V30 8560 H 815.334 -0.38309 0.634289 0
M  V30 8561 H 817.981 -0.322723 1.88761 0
M  V30 8562 H 816.286 -2.77856 2.76231 0
M  V30 8563 H 817.983 -2.55972 3.08674 0
M  V30 8564 H 814.573 -1.47502 4.02419 0
M  V30 8565 H 818.757 -0.973013 4.86668 0
M  V30 8566 H 814.013 -0.295385 6.10686 0
M  V30 8567 H 818.187 0.199619 6.96114 0
M  V30 8568 H 815.814 0.544356 7.58249 0
M  V30 8569 N 817.389 -1.46805 -0.573248 0
M  V30 8570 C 818.629 -1.5417 -1.34205 0
M  V30 8571 C 818.993 -0.192675 -1.91031 0
M  V30 8572 O 820.194 -0.141111 -2.68429 0
M  V30 8573 C 818.465 -2.61682 -2.43428 0
M  V30 8574 S 820.024 -2.88519 -3.30609 0
M  V30 8575 H 816.842 -0.544592 -0.4571 0
M  V30 8576 H 819.444 -1.84094 -0.658001 0
M  V30 8577 H 818.148 -3.58319 -2.00088 0
M  V30 8578 H 817.679 -2.33521 -3.16594 0
M  V30 8579 H 819.694 -2.2451 -4.42504 0
M  V30 8580 N 818.867 0.818669 -1.34668 0
M  V30 8581 C 820.115 1.57201 -1.27013 0
M  V30 8582 C 820.436 1.94354 0.158599 0
M  V30 8583 O 819.706 1.62626 1.09223 0
M  V30 8584 H 818.286 0.582919 -0.467135 0
M  V30 8585 H 820.948 0.977234 -1.6863 0
M  V30 8586 H 820.044 2.49291 -1.87778 0
M  V30 8587 N 820.346 1.18468 1.03938 0
M  V30 8588 C 821.276 0.936389 2.13902 0
M  V30 8589 C 822.257 -0.126381 1.6963 0
M  V30 8590 O 823.442 0.0264757 1.94182 0
M  V30 8591 C 820.572 0.462729 3.44204 0
M  V30 8592 C 819.526 1.46613 4.02105 0
M  V30 8593 C 818.852 0.84994 5.27902 0
M  V30 8594 C 820.152 2.84323 4.3813 0
M  V30 8595 H 821.846 1.85602 2.3493 0
M  V30 8596 H 819.392 0.893806 1.12903 0
M  V30 8597 H 821.345 0.276382 4.20493 0
M  V30 8598 H 820.069 -0.492477 3.22866 0
M  V30 8599 H 818.728 1.63944 3.27899 0
M  V30 8600 H 818.376 -0.112493 5.02874 0
M  V30 8601 H 818.076 1.51988 5.67603 0
M  V30 8602 H 819.6 0.674152 6.06867 0
M  V30 8603 H 821.014 2.70636 5.054 0
M  V30 8604 H 819.411 3.48012 4.88884 0
M  V30 8605 H 820.481 3.37776 3.47901 0
M  V30 8606 N 821.824 -1.22873 0.986916 0
M  V30 8607 C 823.072 -1.91084 0.658121 0
M  V30 8608 C 823.393 -1.77304 -0.811675 0
M  V30 8609 O 822.663 -1.15649 -1.58121 0
M  V30 8610 H 821.243 -0.707251 0.240427 0
M  V30 8611 H 823.905 -1.49357 1.25213 0
M  V30 8612 H 823.001 -2.98373 0.915428 0
M  V30 8613 N 823.302 -0.75937 -1.38099 0
M  V30 8614 C 824.551 -0.314864 -1.99227 0
M  V30 8615 C 824.864 1.1113 -1.60964 0
M  V30 8616 O 826.07 1.65657 -2.15105 0
M  V30 8617 C 824.526 -0.512001 -3.56239 0
M  V30 8618 C 824.134 -1.94762 -4.0345 0
M  V30 8619 C 825.878 -0.130497 -4.24299 0
M  V30 8620 C 823.785 -2.09301 -5.53125 0
M  V30 8621 H 822.715 -0.113978 -0.745335 0
M  V30 8622 H 825.366 -0.936736 -1.57789 0
M  V30 8623 H 823.748 0.179144 -3.95595 0
M  V30 8624 H 824.922 -2.67271 -3.75371 0
M  V30 8625 H 823.237 -2.28457 -3.48133 0
M  V30 8626 H 825.834 -0.21781 -5.34256 0
M  V30 8627 H 826.177 0.917644 -4.0606 0
M  V30 8628 H 826.71 -0.773716 -3.90203 0
M  V30 8629 H 823.449 -3.1239 -5.76275 0
M  V30 8630 H 822.969 -1.41261 -5.82928 0
M  V30 8631 H 824.648 -1.88571 -6.1891 0
M  V30 8632 N 824.78 1.49157 -0.508906 0
M  V30 8633 C 825.728 2.30922 0.278906 0
M  V30 8634 C 826.722 1.39889 0.955382 0
M  V30 8635 O 827.928 1.56901 0.882169 0
M  V30 8636 H 824.303 0.744087 0.108805 0
M  V30 8637 H 826.274 2.95277 -0.430583 0
M  V30 8638 C 825.023 3.21432 1.32576 0
M  V30 8639 H 824.346 3.91413 0.814634 0
M  V30 8640 H 825.786 3.81568 1.84882 0
M  V30 8641 C 824.245 2.41583 2.34817 0
M  V30 8642 O 824.775 2.1256 3.40854 0
M  V30 8643 N 822.981 2.03462 2.07489 0
M  V30 8644 H 822.528 2.27265 1.21278 0
M  V30 8645 H 822.486 1.50345 2.76123 0
M  V30 8646 N 826.258 0.243083 1.55714 0
M  V30 8647 C 827.206 -0.674349 2.2261 0
M  V30 8648 C 828.2 -1.18307 1.21243 0
M  V30 8649 O 829.406 -1.1404 1.39265 0
M  V30 8650 H 825.781 -0.235941 0.714028 0
M  V30 8651 H 827.752 -0.0869446 2.98273 0
M  V30 8652 C 826.501 -1.86206 2.93637 0
M  V30 8653 H 825.824 -1.47975 3.71407 0
M  V30 8654 H 827.264 -2.4813 3.43813 0
M  V30 8655 C 825.723 -2.73084 1.97298 0
M  V30 8656 O 826.253 -3.72497 1.50361 0
M  V30 8657 N 824.459 -2.39571 1.64482 0
M  V30 8658 H 824.006 -1.5878 2.02846 0
M  V30 8659 H 823.964 -2.97976 1.00288 0
M  V30 8660 N 827.736 -1.57571 -0.0300757 0
M  V30 8661 C 828.964 -1.93485 -0.732891 0
M  V30 8662 C 829.379 -0.842758 -1.68947 0
M  V30 8663 O 828.736 0.180904 -1.81601 0
M  V30 8664 C 828.787 -3.29328 -1.49082 0
M  V30 8665 O 828.508 -4.34341 -0.572639 0
M  V30 8666 C 830.009 -3.79517 -2.29088 0
M  V30 8667 H 827.229 -0.638588 -0.206026 0
M  V30 8668 H 829.773 -2.04496 0.0120966 0
M  V30 8669 H 827.928 -3.19716 -2.1877 0
M  V30 8670 H 828.342 -5.12748 -1.10406 0
M  V30 8671 H 829.816 -4.77081 -2.77665 0
M  V30 8672 H 830.293 -3.10659 -3.10464 0
M  V30 8673 H 830.899 -3.92208 -1.64477 0
M  V30 8674 N 829.214 0.302327 -1.54673 0
M  V30 8675 C 830.463 1.03533 -1.73101 0
M  V30 8676 C 830.776 1.88473 -0.523174 0
M  V30 8677 O 831.982 2.65029 -0.589229 0
M  V30 8678 C 830.438 1.89043 -3.06252 0
M  V30 8679 C 830.046 1.09112 -4.3451 0
M  V30 8680 C 831.79 2.61951 -3.34039 0
M  V30 8681 C 829.697 1.93891 -5.58713 0
M  V30 8682 H 828.627 0.390261 -0.645145 0
M  V30 8683 H 831.278 0.2924 -1.81155 0
M  V30 8684 H 829.66 2.67319 -2.92159 0
M  V30 8685 H 830.834 0.354596 -4.59434 0
M  V30 8686 H 829.149 0.477923 -4.13648 0
M  V30 8687 H 831.746 3.25729 -4.24033 0
M  V30 8688 H 832.089 3.30711 -2.52855 0
M  V30 8689 H 832.622 1.90725 -3.49097 0
M  V30 8690 H 829.361 1.29604 -6.4256 0
M  V30 8691 H 828.881 2.6522 -5.37976 0
M  V30 8692 H 830.56 2.51971 -5.95919 0
M  V30 8693 N 830.692 1.47107 0.565454 0
M  V30 8694 C 831.625 1.53505 1.68853 0
M  V30 8695 C 832.603 0.387806 1.57908 0
M  V30 8696 O 833.787 0.594433 1.78882 0
M  V30 8697 C 830.914 1.42985 3.07039 0
M  V30 8698 C 829.96 2.62109 3.36454 0
M  V30 8699 S 830.793 4.2436 3.26617 0
M  V30 8700 C 831.949 4.16378 4.67312 0
M  V30 8701 H 832.182 2.48522 1.63169 0
M  V30 8702 H 829.715 1.35204 0.745609 0
M  V30 8703 H 831.673 1.37602 3.8675 0
M  V30 8704 H 830.334 0.493671 3.10196 0
M  V30 8705 H 829.527 2.50788 4.37174 0
M  V30 8706 H 829.129 2.64571 2.64345 0
M  V30 8707 H 831.421 3.84123 5.58082 0
M  V30 8708 H 832.364 5.17156 4.83689 0
M  V30 8709 H 832.772 3.47363 4.44971 0
M  V30 8710 N 832.17 -0.811516 1.35101 0
M  V30 8711 C 833.4 -1.59749 1.31011 0
M  V30 8712 C 833.808 -1.88847 -0.115566 0
M  V30 8713 O 833.151 -1.48854 -1.07649 0
M  V30 8714 C 833.213 -2.95714 2.04435 0
M  V30 8715 C 832.877 -2.89456 3.53645 0
M  V30 8716 C 833.874 -2.63237 4.48333 0
M  V30 8717 C 831.559 -3.08728 3.96222 0
M  V30 8718 C 833.553 -2.56361 5.83573 0
M  V30 8719 C 831.24 -3.01475 5.3156 0
M  V30 8720 C 832.238 -2.75326 6.25048 0
M  V30 8721 O 831.926 -2.68026 7.57903 0
M  V30 8722 H 831.658 -0.502889 0.45175 0
M  V30 8723 H 834.212 -1.01687 1.78462 0
M  V30 8724 H 832.442 -3.55739 1.51613 0
M  V30 8725 H 834.131 -3.56816 1.93487 0
M  V30 8726 H 834.897 -2.48072 4.16756 0
M  V30 8727 H 830.776 -3.28094 3.23845 0
M  V30 8728 H 834.32 -2.35871 6.56514 0
M  V30 8729 H 830.217 -3.16197 5.62752 0
M  V30 8730 H 830.985 -2.8367 7.67772 0
M  V30 8731 N 833.648 -1.19017 -1.03309 0
M  V30 8732 C 834.925 -0.899659 -1.73682 0
M  V30 8733 C 835.305 0.595677 -2.02521 0
M  V30 8734 O 834.653 1.55263 -1.67648 0
M  V30 8735 C 834.863 -1.75508 -3.01659 0
M  V30 8736 C 836.211 -1.98679 -3.75249 0
M  V30 8737 O 837.235 -1.72624 -3.11576 0
M  V30 8738 O 836.094 -2.42587 -4.89708 0
M  V30 8739 H 833.188 -0.334903 -0.756154 0
M  V30 8740 H 835.734 -1.29809 -1.09305 0
M  V30 8741 H 834.506 -2.7684 -2.76542 0
M  V30 8742 H 834.129 -1.35565 -3.73775 0
M  V30 8743 N 835.127 1.22348 -0.993418 0
M  V30 8744 C 836.059 2.23626 -0.502404 0
M  V30 8745 C 837.072 1.57739 0.402784 0
M  V30 8746 O 838.261 1.77321 0.204835 0
M  V30 8747 C 835.361 3.37647 0.291118 0
M  V30 8748 C 834.534 4.33121 -0.610332 0
M  V30 8749 C 833.593 5.26035 0.131572 0
M  V30 8750 O 832.619 5.67145 -0.483199 0
M  V30 8751 N 833.821 5.63023 1.41371 0
M  V30 8752 H 836.586 2.66385 -1.37329 0
M  V30 8753 H 834.147 1.36653 -0.868196 0
M  V30 8754 H 836.139 3.96792 0.796107 0
M  V30 8755 H 834.709 2.93967 1.0631 0
M  V30 8756 H 833.929 3.72287 -1.29598 0
M  V30 8757 H 835.217 4.93853 -1.22422 0
M  V30 8758 H 834.615 5.31596 1.93449 0
M  V30 8759 H 833.172 6.24582 1.86388 0
M  V30 8760 N 836.605 0.766683 1.37694 0
M  V30 8761 C 837.851 0.329201 2.0011 0
M  V30 8762 C 838.184 -1.09004 1.60723 0
M  V30 8763 O 837.459 -1.74895 0.850989 0
M  V30 8764 C 837.742 0.466989 3.57059 0
M  V30 8765 C 837.595 1.92828 4.06371 0
M  V30 8766 C 838.914 -0.131792 4.39903 0
M  V30 8767 H 836.033 0.12109 0.726984 0
M  V30 8768 H 838.675 0.968779 1.63446 0
M  V30 8769 H 836.825 -0.0775023 3.88423 0
M  V30 8770 H 838.497 2.53208 3.85595 0
M  V30 8771 H 836.74 2.43884 3.58752 0
M  V30 8772 H 837.411 1.97577 5.15429 0
M  V30 8773 H 839.887 0.332731 4.14768 0
M  V30 8774 H 838.763 -0.005217 5.489 0
M  V30 8775 H 839.024 -1.22156 4.24889 0
M  V30 8776 N 838.083 -1.48885 0.516809 0
M  V30 8777 C 839.03 -2.29408 -0.253125 0
M  V30 8778 C 840 -1.36533 -0.945935 0
M  V30 8779 O 841.185 -1.65495 -0.949527 0
M  V30 8780 C 838.325 -3.19592 -1.30211 0
M  V30 8781 C 837.438 -4.27535 -0.61948 0
M  V30 8782 C 836.573 -5.04916 -1.65026 0
M  V30 8783 C 835.612 -6.04677 -0.950368 0
M  V30 8784 N 834.749 -6.75164 -1.92608 0
M  V30 8785 H 839.589 -2.94738 0.439744 0
M  V30 8786 H 837.126 -1.45311 0.2287 0
M  V30 8787 H 839.084 -3.70267 -1.92245 0
M  V30 8788 H 837.714 -2.56213 -1.96353 0
M  V30 8789 H 836.766 -3.80228 0.114505 0
M  V30 8790 H 838.078 -4.98752 -0.0693016 0
M  V30 8791 H 837.232 -5.59539 -2.34523 0
M  V30 8792 H 835.971 -4.33508 -2.23432 0
M  V30 8793 H 834.976 -5.4927 -0.241252 0
M  V30 8794 H 836.201 -6.78077 -0.372599 0
M  V30 8795 H 834.147 -6.06517 -2.49946 0
M  V30 8796 H 834.064 -7.4241 -1.42699 0
M  V30 8797 H 835.332 -7.34384 -2.61345 0
M  V30 8798 N 839.561 -0.251338 -1.55583 0
M  V30 8799 C 840.508 0.646337 -2.21565 0
M  V30 8800 C 841.478 1.16796 -1.18102 0
M  V30 8801 O 842.663 1.22162 -1.46564 0
M  V30 8802 C 839.803 1.83557 -2.92234 0
M  V30 8803 C 838.916 1.35006 -4.10363 0
M  V30 8804 C 838.051 2.4992 -4.68736 0
M  V30 8805 C 837.09 1.98253 -5.79105 0
M  V30 8806 N 836.227 3.06551 -6.31642 0
M  V30 8807 H 841.067 0.0769881 -2.97901 0
M  V30 8808 H 838.604 0.026238 -1.47077 0
M  V30 8809 H 840.562 2.53425 -3.31408 0
M  V30 8810 H 839.192 2.37733 -2.18364 0
M  V30 8811 H 838.244 0.545274 -3.76472 0
M  V30 8812 H 839.556 0.931435 -4.90026 0
M  V30 8813 H 838.71 3.27823 -5.10507 0
M  V30 8814 H 837.449 2.95086 -3.88298 0
M  V30 8815 H 836.454 1.18822 -5.36807 0
M  V30 8816 H 837.679 1.54051 -6.61396 0
M  V30 8817 H 835.625 3.51143 -5.54107 0
M  V30 8818 H 835.542 2.69033 -7.06511 0
M  V30 8819 H 836.81 3.84499 -6.78071 0
M  V30 8820 N 841.039 1.57585 0.0217189 0
M  V30 8821 C 842.264 1.94267 0.726309 0
M  V30 8822 C 842.689 0.851904 1.67703 0
M  V30 8823 O 842.047 -0.191792 1.80283 0
M  V30 8824 C 842.095 3.30023 1.45318 0
M  V30 8825 O 841.199 3.22791 2.5667 0
M  V30 8826 H 840.54 0.634777 0.194818 0
M  V30 8827 H 843.07 2.04585 -0.0249985 0
M  V30 8828 H 843.08 3.65084 1.82147 0
M  V30 8829 H 841.755 4.08972 0.755962 0
M  V30 8830 H 840.332 2.99373 2.2233 0
M  V30 8831 N 842.517 -0.29412 1.54831 0
M  V30 8832 C 843.763 -1.02602 1.75626 0
M  V30 8833 C 844.118 -1.84689 0.539232 0
M  V30 8834 O 843.411 -1.85788 -0.468322 0
M  V30 8835 C 843.605 -1.95782 2.99006 0
M  V30 8836 C 843.434 -1.22861 4.32591 0
M  V30 8837 C 842.204 -0.95294 4.96233 0
M  V30 8838 C 844.402 -0.629592 5.10432 0
M  V30 8839 N 842.384 -0.194728 6.13591 0
M  V30 8840 C 843.755 -0.00449586 6.2 0
M  V30 8841 C 845.81 -0.535327 4.95014 0
M  V30 8842 C 844.513 0.705754 7.15829 0
M  V30 8843 C 846.539 0.161284 5.9118 0
M  V30 8844 C 845.901 0.775203 7.00121 0
M  V30 8845 H 842 -0.358143 0.695167 0
M  V30 8846 H 844.584 -0.303896 1.92314 0
M  V30 8847 H 842.755 -2.65238 2.83731 0
M  V30 8848 H 844.487 -2.62175 3.08296 0
M  V30 8849 H 841.242 -1.25285 4.56728 0
M  V30 8850 H 841.666 0.171093 6.76784 0
M  V30 8851 H 846.308 -0.995662 4.10909 0
M  V30 8852 H 844.026 1.17784 7.9947 0
M  V30 8853 H 847.612 0.234256 5.81328 0
M  V30 8854 H 846.492 1.30566 7.73254 0
M  V30 8855 N 843.995 -1.47404 -0.557645 0
M  V30 8856 C 844.958 -1.59411 -1.64684 0
M  V30 8857 C 845.958 -0.469244 -1.53801 0
M  V30 8858 O 847.148 -0.734298 -1.57967 0
M  V30 8859 C 844.28 -1.5382 -3.04224 0
M  V30 8860 H 845.473 -2.56504 -1.55389 0
M  V30 8861 H 843.026 -1.35588 -0.777531 0
M  V30 8862 H 843.761 -0.581 -3.19053 0
M  V30 8863 H 843.546 -2.35456 -3.13533 0
M  V30 8864 H 845.036 -1.65358 -3.83466 0
M  V30 8865 N 845.473 0.80434 -1.35529 0
M  V30 8866 C 846.42 1.91629 -1.28635 0
M  V30 8867 C 847.39 1.65348 -0.157862 0
M  V30 8868 O 848.575 1.87711 -0.341934 0
M  V30 8869 C 845.715 3.28207 -1.0665 0
M  V30 8870 C 844.828 3.66659 -2.28441 0
M  V30 8871 C 843.963 4.92279 -1.99588 0
M  V30 8872 C 843.002 5.23365 -3.1742 0
M  V30 8873 N 842.139 6.40165 -2.88328 0
M  V30 8874 H 846.979 1.96858 -2.23721 0
M  V30 8875 H 844.516 0.962871 -1.11208 0
M  V30 8876 H 846.474 4.06945 -0.919343 0
M  V30 8877 H 845.104 3.22441 -0.152253 0
M  V30 8878 H 844.156 2.83164 -2.54013 0
M  V30 8879 H 845.468 3.8559 -3.1642 0
M  V30 8880 H 844.622 5.78847 -1.81715 0
M  V30 8881 H 843.361 4.75387 -1.08896 0
M  V30 8882 H 842.366 4.35285 -3.35867 0
M  V30 8883 H 843.591 5.42185 -4.08916 0
M  V30 8884 H 841.537 6.24694 -2.00233 0
M  V30 8885 H 841.454 6.59357 -3.69843 0
M  V30 8886 H 842.722 7.29755 -2.74002 0
M  V30 8887 N 846.951 1.19563 1.02676 0
M  V30 8888 C 847.883 0.893054 2.11086 0
M  V30 8889 C 848.896 -0.115101 1.62393 0
M  V30 8890 O 850.085 0.11459 1.78132 0
M  V30 8891 C 847.185 0.315533 3.37428 0
M  V30 8892 C 846.358 1.37276 4.153 0
M  V30 8893 C 845.417 0.808398 5.19953 0
M  V30 8894 O 844.443 1.48661 5.49444 0
M  V30 8895 N 845.645 -0.387253 5.79207 0
M  V30 8896 H 848.41 1.82622 2.37633 0
M  V30 8897 H 845.971 1.09792 1.18984 0
M  V30 8898 H 847.963 -0.0759166 4.04629 0
M  V30 8899 H 846.533 -0.521961 3.08211 0
M  V30 8900 H 845.753 1.93897 3.43217 0
M  V30 8901 H 847.041 2.08509 4.64114 0
M  V30 8902 H 846.439 -0.955725 5.57568 0
M  V30 8903 H 844.996 -0.720457 6.47806 0
M  V30 8904 N 848.429 -1.21819 0.999893 0
M  V30 8905 C 849.654 -1.95298 0.698094 0
M  V30 8906 C 850.079 -1.73273 -0.731982 0
M  V30 8907 O 849.437 -1.01634 -1.50134 0
M  V30 8908 C 849.485 -3.45922 1.01834 0
M  V30 8909 O 848.589 -4.12223 0.120801 0
M  V30 8910 H 847.93 -0.610729 0.260588 0
M  V30 8911 H 850.46 -1.5472 1.33876 0
M  V30 8912 H 850.47 -3.96471 0.963074 0
M  V30 8913 H 849.145 -3.61278 2.06037 0
M  V30 8914 H 847.722 -3.72177 0.232153 0
M  V30 8915 N 849.908 -0.773975 -1.37286 0
M  V30 8916 C 851.154 -0.339809 -1.99933 0
M  V30 8917 C 851.487 1.0815 -1.61299 0
M  V30 8918 O 850.762 1.74442 -0.860252 0
M  V30 8919 C 851.045 -0.485919 -3.56806 0
M  V30 8920 C 850.898 -1.9498 -4.05343 0
M  V30 8921 C 852.217 0.108461 -4.39966 0
M  V30 8922 H 849.336 -0.124944 -0.726332 0
M  V30 8923 H 851.978 -0.977433 -1.6293 0
M  V30 8924 H 850.128 0.0569023 -3.88458 0
M  V30 8925 H 851.8 -2.5525 -3.84246 0
M  V30 8926 H 850.043 -2.45784 -3.57453 0
M  V30 8927 H 850.714 -2.00308 -5.14374 0
M  V30 8928 H 853.19 -0.354722 -4.14585 0
M  V30 8929 H 852.066 -0.0238926 -5.48895 0
M  V30 8930 H 852.327 1.19901 -4.25531 0
M  V30 8931 N 851.386 1.48609 -0.524698 0
M  V30 8932 C 852.349 2.28041 0.230166 0
M  V30 8933 C 853.349 1.35065 0.872584 0
M  V30 8934 O 854.539 1.58007 0.73345 0
M  V30 8935 C 851.671 3.13778 1.33252 0
M  V30 8936 H 852.864 2.96239 -0.467161 0
M  V30 8937 H 850.417 1.53763 -0.280452 0
M  V30 8938 H 851.152 2.502 2.06327 0
M  V30 8939 H 850.937 3.82165 0.877058 0
M  V30 8940 H 852.427 3.7371 1.86362 0
M  V30 8941 N 852.864 0.259585 1.55447 0
M  V30 8942 C 853.794 -0.62852 2.24882 0
M  V30 8943 C 854.775 -1.17128 1.23349 0
M  V30 8944 O 855.96 -1.20829 1.52033 0
M  V30 8945 C 853.09 -1.81983 2.95803 0
M  V30 8946 C 852.044 -1.40929 4.04132 0
M  V30 8947 C 851.37 -2.68246 4.62545 0
M  V30 8948 C 852.67 -0.570956 5.1917 0
M  V30 8949 H 854.364 -0.0495021 2.99359 0
M  V30 8950 H 851.91 -0.0223688 1.43983 0
M  V30 8951 H 853.863 -2.44689 3.43082 0
M  V30 8952 H 852.587 -2.42444 2.18835 0
M  V30 8953 H 851.246 -0.805519 3.57641 0
M  V30 8954 H 850.894 -3.26931 3.82263 0
M  V30 8955 H 850.594 -2.41495 5.35681 0
M  V30 8956 H 852.118 -3.31827 5.12565 0
M  V30 8957 H 853.532 -1.10262 5.62597 0
M  V30 8958 H 851.929 -0.398979 5.98772 0
M  V30 8959 H 852.999 0.413918 4.8313 0
M  V30 8960 N 854.342 -1.57594 -0.0133615 0
M  V30 8961 C 855.619 -1.81173 -0.737273 0
M  V30 8962 C 855.999 -0.861395 -1.92726 0
M  V30 8963 O 855.347 0.0929324 -2.28311 0
M  V30 8964 C 855.557 -3.29314 -1.15557 0
M  V30 8965 C 856.905 -3.94707 -1.56498 0
M  V30 8966 O 857.929 -3.33557 -1.24973 0
M  V30 8967 O 856.788 -5.02402 -2.15069 0
M  V30 8968 H 853.882 -0.745575 -0.357837 0
M  V30 8969 H 856.428 -1.69696 0.0110674 0
M  V30 8970 H 855.2 -3.90096 -0.30677 0
M  V30 8971 H 854.823 -3.45739 -1.96343 0
M  V30 8972 N 855.82 0.285905 -1.54985 0
M  V30 8973 C 857.066 1.02071 -1.75241 0
M  V30 8974 C 857.399 1.864 -0.544842 0
M  V30 8975 O 856.674 1.89034 0.457844 0
M  V30 8976 C 856.957 1.91409 -3.05016 0
M  V30 8977 C 856.81 1.10158 -4.36102 0
M  V30 8978 C 858.129 2.90335 -3.30747 0
M  V30 8979 H 855.248 0.369663 -0.637588 0
M  V30 8980 H 857.89 0.294114 -1.8771 0
M  V30 8981 H 856.04 2.53362 -2.94517 0
M  V30 8982 H 857.712 0.503756 -4.58541 0
M  V30 8983 H 855.955 0.404675 -4.31908 0
M  V30 8984 H 856.626 1.75956 -5.23205 0
M  V30 8985 H 859.102 2.38514 -3.40955 0
M  V30 8986 H 857.978 3.49997 -4.2284 0
M  V30 8987 H 858.239 3.64787 -2.49765 0
M  V30 8988 N 857.298 1.47698 0.54982 0
M  V30 8989 C 858.228 1.63622 1.66583 0
M  V30 8990 C 859.209 0.485477 1.63025 0
M  V30 8991 O 860.394 0.715692 1.80531 0
M  V30 8992 C 857.524 1.65721 3.05211 0
M  V30 8993 C 856.478 2.80097 3.2362 0
M  V30 8994 C 855.804 2.67272 4.63109 0
M  V30 8995 C 857.104 4.21612 3.08286 0
M  V30 8996 H 858.798 2.57049 1.53512 0
M  V30 8997 H 856.344 1.23705 0.737099 0
M  V30 8998 H 858.297 1.75451 3.83138 0
M  V30 8999 H 857.021 0.688593 3.19258 0
M  V30 9000 H 855.68 2.69889 2.48104 0
M  V30 9001 H 855.328 1.68422 4.73965 0
M  V30 9002 H 855.028 3.44008 4.76374 0
M  V30 9003 H 856.552 2.78942 5.43161 0
M  V30 9004 H 857.966 4.32758 3.76024 0
M  V30 9005 H 856.363 4.99193 3.33057 0
M  V30 9006 H 857.433 4.39462 2.04942 0
M  V30 9007 N 858.776 -0.797141 1.35954 0
M  V30 9008 C 860.001 -1.59097 1.33053 0
M  V30 9009 C 860.426 -1.87897 -0.0874592 0
M  V30 9010 O 859.784 -1.47291 -1.05712 0
M  V30 9011 C 859.832 -2.89346 2.152 0
M  V30 9012 O 858.936 -3.826 1.5392 0
M  V30 9013 H 858.277 -0.482895 0.45575 0
M  V30 9014 H 860.807 -0.988633 1.79129 0
M  V30 9015 H 860.817 -3.38686 2.27499 0
M  V30 9016 H 859.492 -2.6771 3.18283 0
M  V30 9017 H 858.069 -3.41174 1.50516 0
M  V30 9018 N 860.254 -1.20106 -1.0204 0
M  V30 9019 C 861.484 -1.0329 -1.78927 0
M  V30 9020 C 861.892 0.421115 -1.84454 0
M  V30 9021 O 861.235 1.30422 -1.29367 0
M  V30 9022 C 861.297 -1.53627 -3.25021 0
M  V30 9023 C 860.961 -3.01869 -3.4311 0
M  V30 9024 C 861.958 -3.9956 -3.32638 0
M  V30 9025 C 859.643 -3.40746 -3.6905 0
M  V30 9026 C 861.637 -5.34119 -3.47844 0
M  V30 9027 C 859.324 -4.75462 -3.839 0
M  V30 9028 C 860.322 -5.71957 -3.73302 0
M  V30 9029 O 860.01 -7.04231 -3.87703 0
M  V30 9030 H 859.742 -0.363962 -0.569656 0
M  V30 9031 H 862.296 -1.59551 -1.29354 0
M  V30 9032 H 860.526 -0.917481 -3.75658 0
M  V30 9033 H 862.215 -1.32889 -3.8353 0
M  V30 9034 H 862.981 -3.70869 -3.12539 0
M  V30 9035 H 858.86 -2.66182 -3.76388 0
M  V30 9036 H 862.404 -6.09421 -3.39488 0
M  V30 9037 H 858.301 -5.03844 -4.03499 0
M  V30 9038 H 859.069 -7.11425 -4.04744 0
M  V30 9039 N 861.732 1.21287 -1.00634 0
M  V30 9040 C 862.682 2.21541 -0.53886 0
M  V30 9041 C 863.666 1.55842 0.400256 0
M  V30 9042 O 864.858 1.75566 0.224889 0
M  V30 9043 C 861.987 3.43047 0.131796 0
M  V30 9044 C 861.073 4.1593 -0.828419 0
M  V30 9045 N 861.464 4.65359 -1.98178 0
M  V30 9046 C 859.762 4.41281 -0.647083 0
M  V30 9047 C 860.463 5.21079 -2.58557 0
M  V30 9048 N 859.439 5.10531 -1.86705 0
M  V30 9049 H 863.241 2.57413 -1.41831 0
M  V30 9050 H 860.755 1.37109 -0.870338 0
M  V30 9051 H 862.752 4.14079 0.484178 0
M  V30 9052 H 861.412 3.08683 1.00721 0
M  V30 9053 H 862.423 4.60896 -2.3621 0
M  V30 9054 H 859.1 4.17107 0.181139 0
M  V30 9055 H 860.49 5.6977 -3.56107 0
M  V30 9056 N 863.21 0.781244 1.36873 0
M  V30 9057 C 864.173 0.180094 2.28491 0
M  V30 9058 C 865.173 -0.617798 1.48458 0
M  V30 9059 O 866.363 -0.439991 1.68552 0
M  V30 9060 C 863.495 -0.751741 3.32508 0
M  V30 9061 H 864.688 0.987837 2.83164 0
M  V30 9062 H 862.241 0.550102 1.463 0
M  V30 9063 H 862.976 -1.58413 2.82977 0
M  V30 9064 H 862.761 -0.181649 3.91679 0
M  V30 9065 H 864.251 -1.16748 4.00949 0
M  V30 9066 N 864.689 -1.48329 0.532571 0
M  V30 9067 C 865.917 -2.069 0.00354299 0
M  V30 9068 C 866.332 -1.38876 -1.27902 0
M  V30 9069 O 865.689 -0.477119 -1.76153 0
M  V30 9070 C 865.74 -3.60821 -0.221416 0
M  V30 9071 O 865.461 -4.26291 1.01034 0
M  V30 9072 C 866.962 -4.36194 -0.790531 0
M  V30 9073 H 864.182 -0.670103 0.0346836 0
M  V30 9074 H 866.726 -1.90682 0.738955 0
M  V30 9075 H 864.881 -3.76636 -0.906884 0
M  V30 9076 H 865.295 -5.18475 0.792683 0
M  V30 9077 H 866.769 -5.44657 -0.897347 0
M  V30 9078 H 867.246 -4.00798 -1.79605 0
M  V30 9079 H 867.852 -4.25064 -0.141546 0
M  V30 9080 N 866.167 -0.267825 -1.55308 0
M  V30 9081 C 867.407 0.352316 -2.01341 0
M  V30 9082 C 867.771 1.53593 -1.1521 0
M  V30 9083 O 868.972 2.22521 -1.50791 0
M  V30 9084 C 867.243 0.731857 -3.49827 0
M  V30 9085 S 868.802 1.33956 -4.17853 0
M  V30 9086 H 865.62 0.109927 -0.702451 0
M  V30 9087 H 868.222 -0.387955 -1.91612 0
M  V30 9088 H 866.926 -0.138561 -4.10166 0
M  V30 9089 H 866.457 1.50378 -3.63525 0
M  V30 9090 H 868.472 2.62831 -4.20874 0
M  V30 9091 N 867.645 1.57599 0.00500368 0
M  V30 9092 C 868.87 1.95026 0.705663 0
M  V30 9093 C 869.295 0.869643 1.6679 0
M  V30 9094 O 868.653 -0.172659 1.80476 0
M  V30 9095 C 868.701 3.31545 1.4181 0
M  V30 9096 O 867.805 3.25495 2.53232 0
M  V30 9097 H 867.146 0.636808 0.188074 0
M  V30 9098 H 869.676 2.04547 -0.046696 0
M  V30 9099 H 869.686 3.66996 1.78265 0
M  V30 9100 H 868.361 4.09751 0.712543 0
M  V30 9101 H 866.938 3.01714 2.19142 0
M  V30 9102 N 869.123 -0.277682 1.55134 0
M  V30 9103 C 870.07 -1.34313 1.87693 0
M  V30 9104 C 871.04 -1.49298 0.727973 0
M  V30 9105 O 872.225 -1.6378 0.978807 0
M  V30 9106 C 869.365 -2.69922 2.15026 0
M  V30 9107 C 868.478 -2.63197 3.42565 0
M  V30 9108 C 867.613 -3.90955 3.59622 0
M  V30 9109 C 866.652 -3.78722 4.8087 0
M  V30 9110 N 865.789 -4.98303 4.94609 0
M  V30 9111 H 870.629 -1.05847 2.78569 0
M  V30 9112 H 868.166 -0.511469 1.37922 0
M  V30 9113 H 870.124 -3.48817 2.28872 0
M  V30 9114 H 868.754 -2.966 1.2739 0
M  V30 9115 H 867.806 -1.76038 3.37216 0
M  V30 9116 H 869.118 -2.50056 4.31594 0
M  V30 9117 H 868.272 -4.78291 3.7326 0
M  V30 9118 H 867.011 -4.06957 2.6877 0
M  V30 9119 H 866.016 -2.89769 4.67241 0
M  V30 9120 H 867.241 -3.64242 5.73153 0
M  V30 9121 H 865.187 -5.14725 4.06687 0
M  V30 9122 H 865.104 -4.87675 5.77676 0
M  V30 9123 H 866.372 -5.87225 5.12628 0
M  V30 9124 N 870.601 -1.47988 -0.541979 0
M  V30 9125 C 871.564 -1.61148 -1.62984 0
M  V30 9126 C 872.564 -0.48553 -1.53295 0
M  V30 9127 O 873.754 -0.751012 -1.5718 0
M  V30 9128 C 870.886 -1.57038 -3.02576 0
M  V30 9129 H 872.079 -2.58138 -1.52659 0
M  V30 9130 H 869.632 -1.36405 -0.763106 0
M  V30 9131 H 870.367 -0.614807 -3.18419 0
M  V30 9132 H 870.152 -2.38769 -3.11018 0
M  V30 9133 H 871.642 -1.69416 -3.81691 0
M  V30 9134 N 872.079 0.78992 -1.36375 0
M  V30 9135 C 872.989 1.93386 -1.32812 0
M  V30 9136 C 874.005 1.72468 -0.230377 0
M  V30 9137 O 875.181 1.96014 -0.462657 0
M  V30 9138 C 872.246 3.2824 -1.11621 0
M  V30 9139 C 871.307 3.61939 -2.30865 0
M  V30 9140 C 870.54 4.90359 -2.10675 0
M  V30 9141 O 870.763 5.6005 -1.08168 0
M  V30 9142 O 869.697 5.22702 -2.9844 0
M  V30 9143 H 873.523 1.99342 -2.29121 0
M  V30 9144 H 871.108 0.9301 -1.16917 0
M  V30 9145 H 872.99 4.08939 -1.01719 0
M  V30 9146 H 871.665 3.23178 -0.183732 0
M  V30 9147 H 870.572 2.81549 -2.46335 0
M  V30 9148 H 871.905 3.71725 -3.22617 0
M  V30 9149 N 873.557 1.20646 1.01402 0
M  V30 9150 C 874.803 1.0197 1.753 0
M  V30 9151 C 875.136 -0.446803 1.8899 0
M  V30 9152 O 874.411 -1.33169 1.41762 0
M  V30 9153 C 874.694 1.70693 3.17074 0
M  V30 9154 C 874.547 3.24805 3.11162 0
M  V30 9155 C 875.866 1.44212 4.15802 0
M  V30 9156 H 872.985 0.371844 0.636318 0
M  V30 9157 H 875.627 1.48696 1.18277 0
M  V30 9158 H 873.777 1.30968 3.65759 0
M  V30 9159 H 875.449 3.73841 2.70261 0
M  V30 9160 H 873.692 3.55576 2.48492 0
M  V30 9161 H 874.363 3.68049 4.11393 0
M  V30 9162 H 876.839 1.7868 3.75783 0
M  V30 9163 H 875.715 1.94825 5.13161 0
M  V30 9164 H 875.976 0.370252 4.40547 0
M  V30 9165 N 875.035 -1.20752 1.01276 0
M  V30 9166 C 876.312 -1.85676 0.615112 0
M  V30 9167 C 876.692 -1.90623 -0.906976 0
M  V30 9168 O 876.04 -1.41124 -1.79712 0
M  V30 9169 C 876.25 -3.2552 1.25847 0
M  V30 9170 C 877.598 -4.0184 1.37148 0
M  V30 9171 O 878.622 -3.3486 1.21438 0
M  V30 9172 O 877.481 -5.21783 1.62495 0
M  V30 9173 H 874.575 -0.799437 0.211729 0
M  V30 9174 H 877.121 -1.28372 1.10989 0
M  V30 9175 H 875.893 -3.16664 2.29869 0
M  V30 9176 H 875.516 -3.90452 0.750524 0
M  V30 9177 N 876.513 -0.788492 -1.36457 0
M  V30 9178 C 877.46 -0.18435 -2.30063 0
M  V30 9179 C 878.43 0.67128 -1.51931 0
M  V30 9180 O 879.615 0.620152 -1.8044 0
M  V30 9181 C 876.755 0.675596 -3.38422 0
M  V30 9182 C 875.868 -0.198475 -4.31544 0
M  V30 9183 C 875.003 0.667757 -5.26986 0
M  V30 9184 C 874.042 -0.207825 -6.11747 0
M  V30 9185 N 873.179 0.617335 -6.99381 0
M  V30 9186 H 878.019 -0.988056 -2.81143 0
M  V30 9187 H 875.556 -0.498815 -1.38384 0
M  V30 9188 H 877.514 1.18916 -3.99894 0
M  V30 9189 H 876.144 1.44474 -2.88664 0
M  V30 9190 H 875.196 -0.829995 -3.71235 0
M  V30 9191 H 876.508 -0.873163 -4.91098 0
M  V30 9192 H 875.662 1.24716 -5.93743 0
M  V30 9193 H 874.401 1.37607 -4.67884 0
M  V30 9194 H 873.406 -0.799638 -5.43954 0
M  V30 9195 H 874.631 -0.913729 -6.72925 0
M  V30 9196 H 872.577 1.30996 -6.42788 0
M  V30 9197 H 872.494 0.000307255 -7.56 0
M  V30 9198 H 873.762 1.1806 -7.70508 0
M  V30 9199 N 877.991 1.48044 -0.54043 0
M  V30 9200 C 879.238 2.02497 -0.0101567 0
M  V30 9201 C 879.566 1.41651 1.33286 0
M  V30 9202 O 878.821 0.555504 1.8765 0
M  V30 9203 C 879.12 3.57085 0.150008 0
M  V30 9204 C 878.786 4.36769 -1.11998 0
M  V30 9205 C 877.448 4.58261 -1.46801 0
M  V30 9206 C 879.8 4.82848 -1.96232 0
M  V30 9207 C 877.128 5.23079 -2.65717 0
M  V30 9208 C 879.48 5.48977 -3.14335 0
M  V30 9209 C 878.144 5.68705 -3.49472 0
M  V30 9210 H 877.414 0.740991 -0.00371661 0
M  V30 9211 H 880.061 1.77909 -0.708562 0
M  V30 9212 H 878.366 3.80572 0.931259 0
M  V30 9213 H 880.063 3.96851 0.575384 0
M  V30 9214 H 876.653 4.20309 -0.838957 0
M  V30 9215 H 880.837 4.66038 -1.70654 0
M  V30 9216 H 876.093 5.36549 -2.93129 0
M  V30 9217 H 880.267 5.83649 -3.79904 0
M  V30 9218 H 877.894 6.18703 -4.41713 0
M  V30 9219 N 879.47 0.276058 1.55163 0
M  V30 9220 C 880.417 -0.611006 2.22565 0
M  V30 9221 C 881.387 -1.14902 1.19945 0
M  V30 9222 O 882.572 -1.19815 1.48489 0
M  V30 9223 C 879.712 -1.78885 2.95117 0
M  V30 9224 C 878.825 -1.2846 4.12458 0
M  V30 9225 C 877.96 -2.42432 4.72652 0
M  V30 9226 C 876.999 -1.89015 5.82185 0
M  V30 9227 N 876.136 -2.96463 6.36439 0
M  V30 9228 H 880.976 -0.0295849 2.97985 0
M  V30 9229 H 878.513 -0.00283607 1.471 0
M  V30 9230 H 880.471 -2.48121 3.35398 0
M  V30 9231 H 879.101 -2.34229 2.22119 0
M  V30 9232 H 878.153 -0.485312 3.77292 0
M  V30 9233 H 879.465 -0.853358 4.91446 0
M  V30 9234 H 878.619 -3.19659 5.15658 0
M  V30 9235 H 877.358 -2.88872 3.92943 0
M  V30 9236 H 876.363 -1.10267 5.38629 0
M  V30 9237 H 877.588 -1.43509 6.63763 0
M  V30 9238 H 875.534 -3.42283 5.59623 0
M  V30 9239 H 875.451 -2.57759 7.10701 0
M  V30 9240 H 876.719 -3.73663 6.84103 0
M  V30 9241 N 880.948 -1.576 0.00335426 0
M  V30 9242 C 881.911 -2.07576 -0.971838 0
M  V30 9243 C 882.911 -0.985796 -1.27038 0
M  V30 9244 O 884.101 -1.24833 -1.21501 0
M  V30 9245 C 881.233 -2.52003 -2.29581 0
M  V30 9246 H 882.426 -2.95008 -0.539481 0
M  V30 9247 H 879.979 -1.54381 -0.244186 0
M  V30 9248 H 880.714 -1.67825 -2.77498 0
M  V30 9249 H 880.499 -3.31609 -2.09231 0
M  V30 9250 H 881.989 -2.90983 -2.99531 0
M  V30 9251 N 882.426 0.269451 -1.5528 0
M  V30 9252 C 883.389 1.31642 -1.87625 0
M  V30 9253 C 884.389 1.42182 -0.751058 0
M  V30 9254 O 885.579 1.41272 -1.01921 0
M  V30 9255 C 882.711 2.6973 -2.08467 0
M  V30 9256 H 883.904 1.0419 -2.81219 0
M  V30 9257 H 881.457 0.507685 -1.47825 0
M  V30 9258 H 882.192 3.02356 -1.17266 0
M  V30 9259 H 881.977 2.63465 -2.90394 0
M  V30 9260 H 883.467 3.4537 -2.34753 0
M  V30 9261 N 883.904 1.48273 0.534124 0
M  V30 9262 C 884.852 1.62926 1.66005 0
M  V30 9263 C 885.846 0.495814 1.61982 0
M  V30 9264 O 887.052 0.6744 1.66889 0
M  V30 9265 H 883.427 0.513163 0.549698 0
M  V30 9266 H 885.398 2.57498 1.50789 0
M  V30 9267 C 884.147 1.68231 3.04292 0
M  V30 9268 H 883.47 2.54807 3.0808 0
M  V30 9269 H 884.91 1.82528 3.827 0
M  V30 9270 C 883.369 0.420154 3.3427 0
M  V30 9271 O 883.899 -0.468769 3.98955 0
M  V30 9272 N 882.105 0.293115 2.89118 0
M  V30 9273 H 881.652 1.01745 2.36655 0
M  V30 9274 H 881.61 -0.550376 3.09545 0
M  V30 9275 N 885.382 -0.782676 1.36792 0
M  V30 9276 C 886.631 -1.53605 1.30723 0
M  V30 9277 C 886.944 -1.95294 -0.109296 0
M  V30 9278 O 888.15 -2.69921 -0.292398 0
M  V30 9279 C 886.606 -2.77321 2.29393 0
M  V30 9280 C 886.214 -2.42774 3.76517 0
M  V30 9281 C 887.958 -3.55289 2.32314 0
M  V30 9282 C 885.865 -3.62926 4.66947 0
M  V30 9283 H 884.795 -0.576646 0.485794 0
M  V30 9284 H 887.446 -0.858255 1.62192 0
M  V30 9285 H 885.828 -3.46934 1.90927 0
M  V30 9286 H 887.002 -1.81014 4.23758 0
M  V30 9287 H 885.317 -1.78002 3.76436 0
M  V30 9288 H 887.914 -4.44573 2.97083 0
M  V30 9289 H 888.257 -3.94361 1.3336 0
M  V30 9290 H 888.79 -2.92662 2.69432 0
M  V30 9291 H 885.529 -3.28944 5.66989 0
M  V30 9292 H 885.049 -4.23828 4.24418 0
M  V30 9293 H 886.728 -4.29873 4.83548 0
M  V30 9294 N 886.86 -1.21182 -1.00761 0
M  V30 9295 C 888.271 -1.02652 -1.55947 0
M  V30 9296 C 888.622 0.414466 -1.91772 0
M  V30 9297 O 887.747 1.29727 -1.73204 0
M  V30 9298 C 888.342 -1.85713 -2.83366 0
M  V30 9299 C 886.901 -1.71523 -3.35048 0
M  V30 9300 C 886.048 -1.83087 -2.08265 0
M  V30 9301 H 888.999 -1.35242 -0.830379 0
M  V30 9302 H 889.02 -1.36583 -3.55141 0
M  V30 9303 H 888.532 -2.90584 -2.5726 0
M  V30 9304 H 886.633 -0.693257 -3.66094 0
M  V30 9305 H 886.746 -2.53333 -4.06644 0
M  V30 9306 H 885.11 -1.26367 -2.21141 0
M  V30 9307 H 885.893 -2.8946 -1.84575 0
M  V30 9308 N 888.338 1.20213 -1.01915 0
M  V30 9309 C 889.268 2.25336 -0.612023 0
M  V30 9310 C 890.249 1.65933 0.374186 0
M  V30 9311 O 891.434 1.92464 0.259053 0
M  V30 9312 C 888.564 3.47267 0.047904 0
M  V30 9313 C 887.518 4.1928 -0.859557 0
M  V30 9314 C 886.844 5.3466 -0.0652655 0
M  V30 9315 C 888.144 4.75143 -2.1688 0
M  V30 9316 H 889.838 2.59645 -1.49079 0
M  V30 9317 H 887.384 1.24808 -0.718263 0
M  V30 9318 H 889.337 4.19991 0.344294 0
M  V30 9319 H 888.061 3.12129 0.961404 0
M  V30 9320 H 886.72 3.48425 -1.13999 0
M  V30 9321 H 886.368 4.95767 0.849964 0
M  V30 9322 H 886.068 5.83772 -0.669618 0
M  V30 9323 H 887.592 6.10187 0.224612 0
M  V30 9324 H 889.006 5.39672 -1.9346 0
M  V30 9325 H 887.403 5.34702 -2.72422 0
M  V30 9326 H 888.473 3.93744 -2.83008 0
M  V30 9327 N 889.816 0.795718 1.36037 0
M  V30 9328 C 891.062 0.371574 1.99367 0
M  V30 9329 C 891.395 -1.0557 1.62999 0
M  V30 9330 O 890.67 -1.73051 0.887895 0
M  V30 9331 C 890.953 0.542622 3.55988 0
M  V30 9332 C 890.806 2.01404 4.0219 0
M  V30 9333 C 892.125 -0.0384527 4.40083 0
M  V30 9334 H 889.244 0.136483 0.724252 0
M  V30 9335 H 891.886 1.00323 1.61355 0
M  V30 9336 H 890.036 0.0049053 3.885 0
M  V30 9337 H 891.708 2.6133 3.80137 0
M  V30 9338 H 889.951 2.51439 3.53498 0
M  V30 9339 H 890.622 2.08466 5.11122 0
M  V30 9340 H 893.098 0.420634 4.13968 0
M  V30 9341 H 891.974 0.111214 5.48787 0
M  V30 9342 H 892.235 -1.13116 4.27384 0
M  V30 9343 N 891.294 -1.47756 0.548274 0
M  V30 9344 C 892.519 -2.07387 0.023475 0
M  V30 9345 C 892.944 -1.39956 -1.25674 0
M  V30 9346 O 892.302 -0.471543 -1.7506 0
M  V30 9347 C 892.35 -3.60224 -0.164669 0
M  V30 9348 O 891.454 -3.93653 -1.22928 0
M  V30 9349 H 890.795 -0.662312 0.0473156 0
M  V30 9350 H 893.325 -1.89905 0.761409 0
M  V30 9351 H 893.335 -4.06211 -0.38166 0
M  V30 9352 H 892.01 -4.08702 0.770425 0
M  V30 9353 H 890.587 -3.59422 -0.993495 0
M  V30 9354 N 892.772 -0.284283 -1.55015 0
M  V30 9355 C 893.682 0.60906 -2.26556 0
M  V30 9356 C 894.698 1.16246 -1.29472 0
M  V30 9357 O 895.874 1.1908 -1.62425 0
M  V30 9358 C 892.939 1.77246 -2.97968 0
M  V30 9359 C 892 1.25482 -4.10552 0
M  V30 9360 C 891.233 2.36277 -4.78549 0
M  V30 9361 O 891.456 3.55829 -4.45805 0
M  V30 9362 O 890.39 2.03914 -5.66306 0
M  V30 9363 H 894.216 0.0292298 -3.03686 0
M  V30 9364 H 891.801 -0.0513466 -1.49312 0
M  V30 9365 H 893.683 2.45062 -3.42815 0
M  V30 9366 H 892.358 2.33921 -2.23747 0
M  V30 9367 H 891.265 0.542859 -3.7014 0
M  V30 9368 H 892.598 0.733708 -4.86701 0
M  V30 9369 N 894.251 1.57596 -0.0117121 0
M  V30 9370 C 895.181 2.12188 0.9746 0
M  V30 9371 C 896.162 1.03379 1.35081 0
M  V30 9372 O 897.347 1.31123 1.4325 0
M  V30 9373 C 894.477 2.63477 2.26268 0
M  V30 9374 C 893.431 3.76917 2.02774 0
M  V30 9375 C 892.757 4.14566 3.37697 0
M  V30 9376 C 894.057 5.03715 1.38089 0
M  V30 9377 H 895.751 2.9485 0.520007 0
M  V30 9378 H 893.297 1.41836 0.248685 0
M  V30 9379 H 895.25 3.00299 2.95633 0
M  V30 9380 H 893.974 1.77953 2.73862 0
M  V30 9381 H 892.633 3.40507 1.35832 0
M  V30 9382 H 892.281 3.26048 3.83016 0
M  V30 9383 H 891.981 4.91 3.22789 0
M  V30 9384 H 893.505 4.53956 4.08358 0
M  V30 9385 H 894.919 5.38233 1.97428 0
M  V30 9386 H 893.316 5.85032 1.33634 0
M  V30 9387 H 894.386 4.83624 0.351575 0
M  V30 9388 N 895.729 -0.261212 1.5542 0
M  V30 9389 C 896.692 -1.30645 1.8832 0
M  V30 9390 C 897.692 -1.41782 0.758588 0
M  V30 9391 O 898.882 -1.40729 1.02669 0
M  V30 9392 C 896.014 -2.6862 2.09895 0
M  V30 9393 H 897.207 -1.02698 2.81768 0
M  V30 9394 H 894.76 -0.499838 1.48092 0
M  V30 9395 H 895.495 -3.0173 1.18868 0
M  V30 9396 H 895.28 -2.61921 2.91787 0
M  V30 9397 H 896.77 -3.44121 2.36581 0
M  V30 9398 N 897.207 -1.48554 -0.526253 0
M  V30 9399 C 898.456 -1.56014 -1.27837 0
M  V30 9400 C 898.769 -0.240643 -1.94114 0
M  V30 9401 O 899.975 -0.193525 -2.70809 0
M  V30 9402 C 898.431 -2.75161 -2.31979 0
M  V30 9403 C 898.039 -4.13768 -1.71755 0
M  V30 9404 C 899.783 -2.91936 -3.08178 0
M  V30 9405 C 897.69 -5.24171 -2.7386 0
M  V30 9406 H 896.62 -0.58082 -0.480795 0
M  V30 9407 H 899.271 -1.74895 -0.555335 0
M  V30 9408 H 897.653 -2.49722 -3.07335 0
M  V30 9409 H 898.827 -4.49241 -1.02563 0
M  V30 9410 H 897.142 -4.02141 -1.08036 0
M  V30 9411 H 899.739 -3.71586 -3.84484 0
M  V30 9412 H 900.082 -2.01533 -3.64267 0
M  V30 9413 H 900.615 -3.17294 -2.39937 0
M  V30 9414 H 897.354 -6.16552 -2.22586 0
M  V30 9415 H 896.874 -4.93181 -3.41368 0
M  V30 9416 H 898.553 -5.52442 -3.36774 0
M  V30 9417 N 898.685 0.775411 -1.37205 0
M  V30 9418 C 899.962 1.5229 -1.22748 0
M  V30 9419 C 900.342 2.10327 0.180487 0
M  V30 9420 O 899.69 1.95206 1.18772 0
M  V30 9421 C 899.9 2.60671 -2.3206 0
M  V30 9422 C 901.248 3.28173 -2.6942 0
M  V30 9423 O 902.272 2.70963 -2.31208 0
M  V30 9424 O 901.131 4.31598 -3.3524 0
M  V30 9425 H 898.225 0.674326 -0.478762 0
M  V30 9426 H 900.771 0.812691 -1.48975 0
M  V30 9427 H 899.543 2.1588 -3.26361 0
M  V30 9428 H 899.166 3.39296 -2.07277 0
M  V30 9429 N 900.163 1.21714 1.00117 0
M  V30 9430 C 901.44 0.945391 1.71236 0
M  V30 9431 C 901.82 -0.541772 2.0403 0
M  V30 9432 O 901.168 -1.50763 1.71705 0
M  V30 9433 C 901.378 1.83444 2.96899 0
M  V30 9434 C 902.726 2.08558 3.69849 0
M  V30 9435 O 903.75 1.80824 3.06889 0
M  V30 9436 O 902.609 2.55485 4.83104 0
M  V30 9437 H 899.703 0.354834 0.747009 0
M  V30 9438 H 902.249 1.32661 1.05825 0
M  V30 9439 H 901.021 2.84075 2.69105 0
M  V30 9440 H 900.644 1.45428 3.70049 0
M  V30 9441 N 901.641 -1.19671 1.02551 0
M  V30 9442 C 902.89 -1.88591 0.715272 0
M  V30 9443 C 903.203 -1.80274 -0.758982 0
M  V30 9444 O 904.409 -2.44413 -1.18213 0
M  V30 9445 C 902.865 -3.38264 1.22905 0
M  V30 9446 C 902.473 -3.55146 2.73084 0
M  V30 9447 C 904.217 -4.12683 0.994649 0
M  V30 9448 C 902.124 -4.98693 3.17897 0
M  V30 9449 H 901.054 -0.706326 0.263857 0
M  V30 9450 H 903.705 -1.35322 1.23936 0
M  V30 9451 H 902.087 -3.9091 0.632892 0
M  V30 9452 H 903.261 -3.12845 3.38326 0
M  V30 9453 H 901.576 -2.94112 2.94766 0
M  V30 9454 H 904.173 -5.18536 1.30478 0
M  V30 9455 H 904.516 -4.16243 -0.0686466 0
M  V30 9456 H 905.049 -3.66164 1.55464 0
M  V30 9457 H 901.788 -5.00293 4.23542 0
M  V30 9458 H 901.308 -5.4177 2.57381 0
M  V30 9459 H 902.987 -5.67327 3.11045 0
M  V30 9460 N 903.119 -0.802921 -1.35613 0
M  V30 9461 C 904.069 -0.183492 -2.2726 0
M  V30 9462 C 905.053 0.640527 -1.47601 0
M  V30 9463 O 906.245 0.498386 -1.69838 0
M  V30 9464 C 903.374 0.67003 -3.36698 0
M  V30 9465 C 902.46 -0.163517 -4.23785 0
M  V30 9466 N 902.851 -1.22472 -4.90749 0
M  V30 9467 C 901.149 0.0554547 -4.45966 0
M  V30 9468 C 901.85 -1.73329 -5.55276 0
M  V30 9469 N 900.826 -1.04033 -5.33552 0
M  V30 9470 H 904.628 -0.995525 -2.76526 0
M  V30 9471 H 902.142 -0.643714 -1.49098 0
M  V30 9472 H 904.139 1.12981 -4.01299 0
M  V30 9473 H 902.799 1.48045 -2.88986 0
M  V30 9474 H 903.81 -1.60733 -4.92327 0
M  V30 9475 H 900.487 0.835312 -4.09058 0
M  V30 9476 H 901.877 -2.62 -6.18713 0
M  V30 9477 N 904.597 1.47463 -0.556102 0
M  V30 9478 C 905.844 2.02475 -0.0316337 0
M  V30 9479 C 906.172 1.43057 1.31777 0
M  V30 9480 O 905.427 0.575376 1.87051 0
M  V30 9481 C 905.726 3.57224 0.112126 0
M  V30 9482 C 905.392 4.35557 -1.16624 0
M  V30 9483 C 904.054 4.56678 -1.51654 0
M  V30 9484 C 906.406 4.8074 -2.01342 0
M  V30 9485 C 903.734 5.20231 -2.7125 0
M  V30 9486 C 906.086 5.45613 -3.2014 0
M  V30 9487 C 904.75 5.64967 -3.55484 0
M  V30 9488 H 904.02 0.74091 -0.0115756 0
M  V30 9489 H 906.667 1.77148 -0.727392 0
M  V30 9490 H 904.972 3.81538 0.890842 0
M  V30 9491 H 906.669 3.97438 0.533261 0
M  V30 9492 H 903.259 4.19395 -0.883489 0
M  V30 9493 H 907.443 4.64201 -1.75587 0
M  V30 9494 H 902.699 5.3341 -2.98804 0
M  V30 9495 H 906.873 5.79587 -3.86073 0
M  V30 9496 H 904.5 6.13984 -4.4825 0
M  V30 9497 N 906.075 0.2925 1.54862 0
M  V30 9498 C 907.352 -0.371946 1.92031 0
M  V30 9499 C 907.732 -1.72363 1.21878 0
M  V30 9500 O 907.08 -2.25779 0.351573 0
M  V30 9501 C 907.29 -0.495027 3.45471 0
M  V30 9502 C 908.638 -0.769855 4.17562 0
M  V30 9503 O 909.662 -0.579168 3.5146 0
M  V30 9504 O 908.521 -1.13561 5.34571 0
M  V30 9505 H 905.615 -0.206463 0.800813 0
M  V30 9506 H 908.161 0.339933 1.6626 0
M  V30 9507 H 906.933 0.455528 3.88639 0
M  V30 9508 H 906.556 -1.2557 3.7725 0
M  V30 9509 N 907.553 -1.57587 0.0200696 0
M  V30 9510 C 908.83 -1.82696 -0.698677 0
M  V30 9511 C 909.21 -0.902082 -1.90855 0
M  V30 9512 O 908.558 0.0444834 -2.28457 0
M  V30 9513 C 908.768 -3.31691 -1.08546 0
M  V30 9514 C 910.116 -3.97938 -1.4809 0
M  V30 9515 O 911.14 -3.36133 -1.17869 0
M  V30 9516 O 909.999 -5.06851 -2.04364 0
M  V30 9517 H 907.093 -0.752997 -0.341942 0
M  V30 9518 H 909.639 -1.69635 0.04706 0
M  V30 9519 H 908.411 -3.90659 -0.223956 0
M  V30 9520 H 908.034 -3.49825 -1.88965 0
M  V30 9521 N 909.032 0.252966 -1.55557 0
M  V30 9522 C 910.279 0.981852 -1.77104 0
M  V30 9523 C 910.607 1.85547 -0.583305 0
M  V30 9524 O 909.862 1.90836 0.43359 0
M  V30 9525 C 910.161 1.87785 -3.04091 0
M  V30 9526 C 909.827 1.16009 -4.35721 0
M  V30 9527 C 908.489 0.961697 -4.71492 0
M  V30 9528 C 910.841 0.650884 -5.1712 0
M  V30 9529 C 908.169 0.241704 -5.86202 0
M  V30 9530 C 910.521 -0.0556124 -6.32576 0
M  V30 9531 C 909.185 -0.265536 -6.66972 0
M  V30 9532 H 908.455 0.359285 -0.64807 0
M  V30 9533 H 911.102 0.252443 -1.89829 0
M  V30 9534 H 909.407 2.67412 -2.86353 0
M  V30 9535 H 911.104 2.44339 -3.17961 0
M  V30 9536 H 907.694 1.32465 -4.07616 0
M  V30 9537 H 911.878 0.791719 -4.89944 0
M  V30 9538 H 907.134 0.0685292 -6.11362 0
M  V30 9539 H 911.308 -0.457839 -6.94893 0
M  V30 9540 H 908.935 -0.8254 -7.55706 0
M  V30 9541 N 910.51 1.48831 0.518367 0
M  V30 9542 C 911.735 1.61379 1.30275 0
M  V30 9543 C 912.16 0.278571 1.86026 0
M  V30 9544 O 911.518 -0.751427 1.64995 0
M  V30 9545 C 911.566 2.67225 2.42122 0
M  V30 9546 O 910.67 2.25192 3.45489 0
M  V30 9547 H 910.011 0.540742 0.385349 0
M  V30 9548 H 912.541 1.949 0.622498 0
M  V30 9549 H 912.551 2.88859 2.8814 0
M  V30 9550 H 911.226 3.64155 2.00907 0
M  V30 9551 H 909.803 2.13819 3.05509 0
M  V30 9552 N 911.988 -0.768124 1.37614 0
M  V30 9553 C 912.918 -1.89537 1.36374 0
M  V30 9554 C 913.899 -1.68513 0.231803 0
M  V30 9555 O 915.084 -1.89318 0.432705 0
M  V30 9556 C 912.214 -3.26871 1.17358 0
M  V30 9557 C 911.168 -3.62466 2.27602 0
M  V30 9558 C 910.494 -4.9838 1.93705 0
M  V30 9559 C 911.794 -3.68841 3.69802 0
M  V30 9560 H 913.488 -1.90832 2.30702 0
M  V30 9561 H 911.034 -0.91672 1.11051 0
M  V30 9562 H 912.987 -4.05371 1.15119 0
M  V30 9563 H 911.711 -3.26018 0.194865 0
M  V30 9564 H 910.37 -2.86276 2.29002 0
M  V30 9565 H 910.018 -4.94071 0.943539 0
M  V30 9566 H 909.718 -5.23165 2.6753 0
M  V30 9567 H 911.242 -5.79276 1.93059 0
M  V30 9568 H 912.656 -4.37485 3.70513 0
M  V30 9569 H 911.053 -4.05126 4.42711 0
M  V30 9570 H 912.123 -2.69415 4.03167 0
M  V30 9571 N 913.466 -1.22244 -0.994698 0
M  V30 9572 C 914.743 -0.954459 -1.70732 0
M  V30 9573 C 915.123 0.530945 -2.04314 0
M  V30 9574 O 914.471 1.49851 -1.72502 0
M  V30 9575 C 914.681 -1.85016 -2.95922 0
M  V30 9576 C 916.029 -2.10517 -3.68738 0
M  V30 9577 O 917.053 -1.82449 -3.05926 0
M  V30 9578 O 915.912 -2.58044 -4.81742 0
M  V30 9579 H 913.006 -0.35879 -0.745116 0
M  V30 9580 H 915.552 -1.33221 -1.0512 0
M  V30 9581 H 914.324 -2.85498 -2.67594 0
M  V30 9582 H 913.947 -1.47388 -3.69273 0
M  V30 9583 N 914.944 1.19125 -1.03184 0
M  V30 9584 C 916.19 1.89163 -0.731111 0
M  V30 9585 C 916.523 1.79604 0.738662 0
M  V30 9586 O 915.798 1.19037 1.53819 0
M  V30 9587 C 916.081 3.39986 -1.18666 0
M  V30 9588 C 915.934 3.58401 -2.71788 0
M  V30 9589 C 917.253 4.33316 -0.769772 0
M  V30 9590 H 914.372 0.686908 -0.267069 0
M  V30 9591 H 917.014 1.40205 -1.28229 0
M  V30 9592 H 915.164 3.81813 -0.717736 0
M  V30 9593 H 916.836 3.25727 -3.26649 0
M  V30 9594 H 915.079 3.01355 -3.12038 0
M  V30 9595 H 915.75 4.64189 -2.98719 0
M  V30 9596 H 918.226 3.9922 -1.17314 0
M  V30 9597 H 917.102 5.37427 -1.11637 0
M  V30 9598 H 917.363 4.40884 0.327681 0
M  V30 9599 N 916.422 0.810101 1.35185 0
M  V30 9600 C 917.699 0.315235 1.93043 0
M  V30 9601 C 918.079 -1.19567 1.73974 0
M  V30 9602 O 917.427 -1.99682 1.11083 0
M  V30 9603 C 917.637 0.730492 3.41269 0
M  V30 9604 C 918.985 0.721985 4.18417 0
M  V30 9605 O 920.009 0.672258 3.49799 0
M  V30 9606 O 918.868 0.783535 5.40854 0
M  V30 9607 H 915.962 0.0832774 0.822796 0
M  V30 9608 H 918.508 0.894034 1.4424 0
M  V30 9609 H 917.28 1.77169 3.48894 0
M  V30 9610 H 916.903 0.12669 3.97398 0
M  V30 9611 N 917.9 -1.47166 0.563914 0
M  V30 9612 C 918.863 -2.28571 -0.169624 0
M  V30 9613 C 919.863 -1.37331 -0.836467 0
M  V30 9614 O 921.053 -1.59896 -0.6913 0
M  V30 9615 C 918.185 -3.17201 -1.24886 0
M  V30 9616 H 919.378 -2.94896 0.545539 0
M  V30 9617 H 916.931 -1.52966 0.321121 0
M  V30 9618 H 917.666 -2.55582 -1.99621 0
M  V30 9619 H 917.451 -3.84356 -0.775426 0
M  V30 9620 H 918.941 -3.7852 -1.76388 0
M  V30 9621 N 919.378 -0.300708 -1.54705 0
M  V30 9622 C 920.311 0.617513 -2.19686 0
M  V30 9623 C 921.289 1.1331 -1.16617 0
M  V30 9624 O 922.473 1.20135 -1.45258 0
M  V30 9625 C 919.6 1.84486 -2.84047 0
M  V30 9626 C 918.646 1.46253 -4.0064 0
M  V30 9627 S 919.479 0.518718 -5.32982 0
M  V30 9628 C 920.635 1.75387 -6.00825 0
M  V30 9629 H 920.868 0.0654548 -2.97228 0
M  V30 9630 H 918.401 -0.0848492 -1.54167 0
M  V30 9631 H 920.359 2.54921 -3.21754 0
M  V30 9632 H 919.02 2.36808 -2.06351 0
M  V30 9633 H 918.213 2.37648 -4.44454 0
M  V30 9634 H 917.815 0.838129 -3.64488 0
M  V30 9635 H 920.107 2.69448 -6.21614 0
M  V30 9636 H 921.05 1.35829 -6.9495 0
M  V30 9637 H 921.458 1.93045 -5.30466 0
M  V30 9638 N 920.856 1.57574 -0.0284266 0
M  V30 9639 C 922.105 1.9095 0.649704 0
M  V30 9640 C 922.418 0.906421 1.7333 0
M  V30 9641 O 923.624 1.1314 2.46803 0
M  V30 9642 C 922.08 3.39061 1.20687 0
M  V30 9643 C 921.688 4.47726 0.156597 0
M  V30 9644 C 923.432 3.81505 1.86156 0
M  V30 9645 C 921.339 5.86935 0.725365 0
M  V30 9646 H 920.269 0.712589 0.24644 0
M  V30 9647 H 922.92 1.83261 -0.0936143 0
M  V30 9648 H 921.302 3.41679 2.00178 0
M  V30 9649 H 922.476 4.56667 -0.6158 0
M  V30 9650 H 920.791 4.14481 -0.399288 0
M  V30 9651 H 923.388 4.82865 2.29665 0
M  V30 9652 H 923.731 3.16529 2.70398 0
M  V30 9653 H 924.264 3.81307 1.13356 0
M  V30 9654 H 921.003 6.55453 -0.0789081 0
M  V30 9655 H 920.523 5.81602 1.46627 0
M  V30 9656 H 922.202 6.35483 1.21532 0
M  V30 9657 N 922.334 -0.244713 1.55689 0
M  V30 9658 C 923.562 -0.989944 1.8168 0
M  V30 9659 C 923.977 -1.78863 0.604449 0
M  V30 9660 O 923.334 -1.77437 -0.426907 0
M  V30 9661 C 923.385 -1.92607 3.05916 0
M  V30 9662 O 923.106 -1.1597 4.22472 0
M  V30 9663 C 924.607 -2.78711 3.44724 0
M  V30 9664 H 921.827 -0.2912 0.604519 0
M  V30 9665 H 924.371 -0.266938 2.0275 0
M  V30 9666 H 922.526 -2.60333 2.8689 0
M  V30 9667 H 922.94 -1.79311 4.92898 0
M  V30 9668 H 924.414 -3.40141 4.34751 0
M  V30 9669 H 924.891 -3.49935 2.6541 0
M  V30 9670 H 925.497 -2.16435 3.66109 0
M  V30 9671 N 923.813 -1.49104 -0.510467 0
M  V30 9672 C 924.776 -1.64569 -1.59529 0
M  V30 9673 C 925.776 -0.517937 -1.5223 0
M  V30 9674 O 926.966 -0.784183 -1.55551 0
M  V30 9675 C 924.098 -1.6342 -2.99177 0
M  V30 9676 H 925.291 -2.61318 -1.4715 0
M  V30 9677 H 922.844 -1.37993 -0.734001 0
M  V30 9678 H 923.579 -0.68221 -3.17043 0
M  V30 9679 H 923.364 -2.45312 -3.05883 0
M  V30 9680 H 924.854 -1.77474 -3.78011 0
M  V30 9681 N 925.291 0.760815 -1.38019 0
M  V30 9682 C 926.254 1.85604 -1.34476 0
M  V30 9683 C 927.254 1.58897 -0.24666 0
M  V30 9684 O 928.444 1.66776 -0.50314 0
M  V30 9685 C 925.576 3.22945 -1.09176 0
M  V30 9686 H 926.769 1.90155 -2.31908 0
M  V30 9687 H 924.322 0.961746 -1.23208 0
M  V30 9688 H 925.057 3.24066 -0.123216 0
M  V30 9689 H 924.842 3.43723 -1.88672 0
M  V30 9690 H 926.332 4.03022 -1.09375 0
M  V30 9691 N 926.769 1.22769 0.988202 0
M  V30 9692 C 927.699 1.02627 2.09738 0
M  V30 9693 C 928.68 -0.0543211 1.70013 0
M  V30 9694 O 929.865 0.108811 1.93895 0
M  V30 9695 C 926.995 0.608302 3.41931 0
M  V30 9696 C 925.949 1.63536 3.95525 0
M  V30 9697 C 925.275 1.07308 5.23822 0
M  V30 9698 C 926.575 3.02649 4.25677 0
M  V30 9699 H 928.269 1.954 2.26847 0
M  V30 9700 H 925.815 0.940888 1.09011 0
M  V30 9701 H 927.768 0.454478 4.18942 0
M  V30 9702 H 926.492 -0.355095 3.24664 0
M  V30 9703 H 925.151 1.77704 3.20651 0
M  V30 9704 H 924.799 0.100894 5.02899 0
M  V30 9705 H 924.499 1.75925 5.60646 0
M  V30 9706 H 926.023 0.930938 6.03462 0
M  V30 9707 H 927.437 2.91828 4.93467 0
M  V30 9708 H 925.834 3.68434 4.73684 0
M  V30 9709 H 926.904 3.52228 3.33262 0
M  V30 9710 N 928.247 -1.18576 1.03814 0
M  V30 9711 C 929.663 -1.4051 0.756909 0
M  V30 9712 C 929.863 -1.9057 -0.654631 0
M  V30 9713 O 928.919 -2.0884 -1.41922 0
M  V30 9714 C 930.232 -2.4081 1.80087 0
M  V30 9715 C 931.78 -2.54541 1.82148 0
M  V30 9716 C 932.255 -3.58102 2.85529 0
M  V30 9717 N 933.746 -3.65607 2.84404 0
M  V30 9718 C 934.481 -4.45458 3.61047 0
M  V30 9719 N 933.977 -5.28937 4.47434 0
M  V30 9720 N 935.77 -4.40196 3.49548 0
M  V30 9721 H 927.921 -0.844075 1.94908 0
M  V30 9722 H 930.184 -0.433287 0.843188 0
M  V30 9723 H 929.89 -2.1107 2.81322 0
M  V30 9724 H 929.764 -3.4012 1.63089 0
M  V30 9725 H 932.151 -2.83598 0.815855 0
M  V30 9726 H 932.232 -1.55352 2.03223 0
M  V30 9727 H 931.876 -3.29786 3.86269 0
M  V30 9728 H 931.806 -4.56963 2.6171 0
M  V30 9729 H 934.297 -3.05994 2.21756 0
M  V30 9730 H 934.61 -5.8701 5.02632 0
M  V30 9731 H 932.955 -5.28366 4.51503 0
M  V30 9732 H 936.146 -3.74026 2.81464 0
M  V30 9733 H 936.319 -5.02186 4.09528 0
M  V30 9734 N 929.725 -0.817259 -1.34754 0
M  V30 9735 C 930.658 -0.180483 -2.27485 0
M  V30 9736 C 931.636 0.659792 -1.48612 0
M  V30 9737 O 932.82 0.624761 -1.77845 0
M  V30 9738 C 929.947 0.748487 -3.30326 0
M  V30 9739 C 928.993 -0.0135304 -4.26498 0
M  V30 9740 S 929.826 -1.35685 -5.18025 0
M  V30 9741 C 930.982 -0.432605 -6.24403 0
M  V30 9742 H 931.215 -0.966677 -2.81145 0
M  V30 9743 H 928.748 -0.612864 -1.41716 0
M  V30 9744 H 930.706 1.27893 -3.90069 0
M  V30 9745 H 929.367 1.50816 -2.75524 0
M  V30 9746 H 928.56 0.692454 -4.9922 0
M  V30 9747 H 928.162 -0.474344 -3.7098 0
M  V30 9748 H 930.454 0.378035 -6.76444 0
M  V30 9749 H 931.397 -1.12934 -6.99036 0
M  V30 9750 H 931.805 -0.0235533 -5.64495 0
M  V30 9751 N 931.203 1.46865 -0.571711 0
M  V30 9752 C 932.45 2.0243 -0.0531071 0
M  V30 9753 C 932.778 1.44446 1.30252 0
M  V30 9754 O 932.033 0.595182 1.8643 0
M  V30 9755 C 932.332 3.57323 0.0742311 0
M  V30 9756 C 931.998 4.34295 -1.21237 0
M  V30 9757 C 930.66 4.55044 -1.56489 0
M  V30 9758 C 933.012 4.78577 -2.0643 0
M  V30 9759 C 930.34 5.17325 -2.76752 0
M  V30 9760 C 932.692 5.42186 -3.25909 0
M  V30 9761 C 931.356 5.61165 -3.61456 0
M  V30 9762 H 930.626 0.740745 -0.0194333 0
M  V30 9763 H 933.273 1.76366 -0.74614 0
M  V30 9764 H 931.578 3.82461 0.850325 0
M  V30 9765 H 933.275 3.97982 0.491077 0
M  V30 9766 H 929.865 4.18435 -0.927922 0
M  V30 9767 H 934.049 4.62313 -1.80501 0
M  V30 9768 H 929.305 5.30211 -3.04444 0
M  V30 9769 H 933.479 5.75459 -3.92198 0
M  V30 9770 H 931.106 6.09195 -4.54737 0
M  V30 9771 N 932.681 0.308908 1.54543 0
M  V30 9772 C 933.614 -0.605854 2.20011 0
M  V30 9773 C 934.592 -1.1269 1.17216 0
M  V30 9774 O 935.776 -1.19363 1.45893 0
M  V30 9775 C 932.903 -1.82977 2.85021 0
M  V30 9776 C 931.949 -1.44126 4.0141 0
M  V30 9777 S 932.782 -0.490445 5.33249 0
M  V30 9778 C 933.938 -1.72198 6.01746 0
M  V30 9779 H 934.171 -0.0496911 2.97258 0
M  V30 9780 H 931.704 0.0930238 1.5412 0
M  V30 9781 H 933.662 -2.53211 3.23102 0
M  V30 9782 H 932.323 -2.35711 2.07604 0
M  V30 9783 H 931.516 -2.35288 4.45708 0
M  V30 9784 H 931.118 -0.818788 3.64927 0
M  V30 9785 H 933.41 -2.66147 6.23034 0
M  V30 9786 H 934.353 -1.32142 6.95661 0
M  V30 9787 H 934.761 -1.90229 5.31482 0
M  V30 9788 N 934.159 -1.57557 0.0367827 0
M  V30 9789 C 935.069 -2.14148 -0.958017 0
M  V30 9790 C 936.085 -1.09564 -1.35173 0
M  V30 9791 O 937.261 -1.4166 -1.43158 0
M  V30 9792 C 934.326 -2.6636 -2.21931 0
M  V30 9793 C 933.387 -3.85688 -1.8853 0
M  V30 9794 C 932.62 -4.35401 -3.08645 0
M  V30 9795 O 932.843 -3.8425 -4.21554 0
M  V30 9796 O 931.777 -5.27158 -2.90497 0
M  V30 9797 H 935.603 -2.99442 -0.506797 0
M  V30 9798 H 933.188 -1.48259 -0.184275 0
M  V30 9799 H 935.07 -2.99976 -2.9596 0
M  V30 9800 H 933.745 -1.84145 -2.66219 0
M  V30 9801 H 932.652 -3.56985 -1.11861 0
M  V30 9802 H 933.985 -4.69089 -1.49052 0
M  V30 9803 N 935.637 0.236453 -1.55816 0
M  V30 9804 C 936.567 1.29639 -1.94206 0
M  V30 9805 C 937.548 1.49667 -0.808319 0
M  V30 9806 O 938.733 1.621 -1.06945 0
M  V30 9807 C 935.863 2.64914 -2.24584 0
M  V30 9808 C 934.817 2.59565 -3.40308 0
M  V30 9809 C 934.143 3.98732 -3.56254 0
M  V30 9810 C 935.443 2.15642 -4.75706 0
M  V30 9811 H 937.137 0.977552 -2.82992 0
M  V30 9812 H 934.683 0.468804 -1.36155 0
M  V30 9813 H 936.636 3.39209 -2.50031 0
M  V30 9814 H 935.36 2.98455 -1.32636 0
M  V30 9815 H 934.019 1.87728 -3.14887 0
M  V30 9816 H 933.667 4.29556 -2.61707 0
M  V30 9817 H 933.367 3.96039 -4.34082 0
M  V30 9818 H 934.891 4.74711 -3.84033 0
M  V30 9819 H 936.305 2.79673 -5.00456 0
M  V30 9820 H 934.702 2.24039 -5.56711 0
M  V30 9821 H 935.772 1.10831 -4.72064 0
M  V30 9822 N 937.115 1.49373 0.502552 0
M  V30 9823 C 938.363 1.58467 1.25429 0
M  V30 9824 C 938.684 0.272593 1.93085 0
M  V30 9825 O 937.954 -0.707947 1.82661 0
M  V30 9826 H 936.534 0.583866 0.46595 0
M  V30 9827 H 939.196 1.8599 0.582568 0
M  V30 9828 H 938.292 2.37993 2.01906 0
M  V30 9829 N 938.594 -0.753485 1.38421 0
M  V30 9830 C 939.527 -1.87525 1.30037 0
M  V30 9831 C 940.505 -1.6163 0.177379 0
M  V30 9832 O 941.689 -1.85132 0.354716 0
M  V30 9833 C 938.816 -3.23138 1.01485 0
M  V30 9834 C 937.862 -3.67921 2.15723 0
M  V30 9835 S 938.695 -3.79447 3.77863 0
M  V30 9836 C 939.851 -5.17879 3.51499 0
M  V30 9837 H 940.084 -1.94351 2.24978 0
M  V30 9838 H 937.617 -0.916475 1.24258 0
M  V30 9839 H 939.575 -4.01455 0.856959 0
M  V30 9840 H 938.236 -3.13991 0.0826199 0
M  V30 9841 H 937.429 -4.66287 1.91292 0
M  V30 9842 H 937.031 -2.96758 2.2762 0
M  V30 9843 H 939.323 -6.03636 3.0762 0
M  V30 9844 H 940.266 -5.47331 4.49259 0
M  V30 9845 H 940.674 -4.86681 2.8601 0
M  V30 9846 N 940.072 -1.23292 -0.981677 0
M  V30 9847 C 941.318 -1.06582 -1.72535 0
M  V30 9848 C 941.651 0.396538 -1.90108 0
M  V30 9849 O 940.926 1.29363 -1.45243 0
M  V30 9850 C 941.209 -1.7904 -3.12437 0
M  V30 9851 C 941.062 -3.32941 -3.02441 0
M  V30 9852 C 942.381 -1.55185 -4.11832 0
M  V30 9853 H 939.5 -0.388585 -0.626236 0
M  V30 9854 H 942.142 -1.51779 -1.14293 0
M  V30 9855 H 940.292 -1.40619 -3.62158 0
M  V30 9856 H 941.964 -3.80875 -2.60254 0
M  V30 9857 H 940.207 -3.62039 -2.38977 0
M  V30 9858 H 940.878 -3.78827 -4.0149 0
M  V30 9859 H 943.354 -1.88581 -3.70913 0
M  V30 9860 H 942.23 -2.08362 -5.07815 0
M  V30 9861 H 942.491 -0.486925 -4.3941 0
M  V30 9862 N 941.55 1.18024 -1.04442 0
M  V30 9863 C 942.482 2.21294 -0.596799 0
M  V30 9864 C 943.495 1.59305 0.33552 0
M  V30 9865 O 944.684 1.7803 0.129443 0
M  V30 9866 C 941.784 3.38578 0.147648 0
M  V30 9867 C 940.957 4.30143 -0.793484 0
M  V30 9868 C 940.016 5.2612 -0.0916561 0
M  V30 9869 O 939.042 5.64586 -0.72331 0
M  V30 9870 N 940.244 5.68512 1.17364 0
M  V30 9871 H 943.009 2.6032 -1.48504 0
M  V30 9872 H 940.57 1.32847 -0.925374 0
M  V30 9873 H 942.562 3.99812 0.627098 0
M  V30 9874 H 941.132 2.98212 0.937466 0
M  V30 9875 H 940.352 3.66456 -1.45272 0
M  V30 9876 H 941.64 4.88216 -1.43258 0
M  V30 9877 H 941.038 5.39322 1.70729 0
M  V30 9878 H 939.595 6.31925 1.5973 0
M  V30 9879 N 943.028 0.824394 1.34319 0
M  V30 9880 C 943.975 0.245282 2.29493 0
M  V30 9881 C 944.945 -0.630762 1.53657 0
M  V30 9882 O 946.13 -0.572094 1.82021 0
M  V30 9883 C 943.27 -0.585631 3.40095 0
M  V30 9884 C 942.383 0.312821 4.30866 0
M  V30 9885 C 941.518 -0.527801 5.28571 0
M  V30 9886 C 940.557 0.369946 6.10981 0
M  V30 9887 N 939.694 -0.43169 7.00772 0
M  V30 9888 H 944.534 1.06225 2.78425 0
M  V30 9889 H 942.071 0.53533 1.37013 0
M  V30 9890 H 944.029 -1.08271 4.02906 0
M  V30 9891 H 942.659 -1.3677 2.92393 0
M  V30 9892 H 941.711 0.928129 3.68904 0
M  V30 9893 H 943.023 1.00306 4.8861 0
M  V30 9894 H 942.177 -1.0893 5.96841 0
M  V30 9895 H 940.916 -1.25154 4.71368 0
M  V30 9896 H 939.921 0.943577 5.41643 0
M  V30 9897 H 941.146 1.09182 6.70266 0
M  V30 9898 H 939.092 -1.13908 6.46035 0
M  V30 9899 H 939.009 0.200133 7.55735 0
M  V30 9900 H 940.277 -0.975894 7.73367 0
M  V30 9901 N 944.506 -1.46559 0.579492 0
M  V30 9902 C 945.753 -2.02399 0.0638418 0
M  V30 9903 C 946.081 -1.45135 -1.29484 0
M  V30 9904 O 945.336 -0.605061 -1.86112 0
M  V30 9905 C 945.635 -3.57357 -0.0552803 0
M  V30 9906 C 945.301 -4.33646 1.23539 0
M  V30 9907 C 943.963 -4.54207 1.589 0
M  V30 9908 C 946.315 -4.77476 2.08965 0
M  V30 9909 C 943.643 -5.1585 2.79492 0
M  V30 9910 C 945.995 -5.4045 3.2878 0
M  V30 9911 C 944.659 -5.5924 3.64427 0
M  V30 9912 H 943.929 -0.740632 0.0233614 0
M  V30 9913 H 946.576 -1.75968 0.755482 0
M  V30 9914 H 944.881 -3.82907 -0.83003 0
M  V30 9915 H 946.578 -3.98237 -0.469964 0
M  V30 9916 H 943.168 -4.17937 0.9501 0
M  V30 9917 H 947.352 -4.61349 1.8295 0
M  V30 9918 H 942.608 -5.28589 3.07252 0
M  V30 9919 H 946.782 -5.73371 3.95245 0
M  V30 9920 H 944.409 -6.06775 4.57961 0
M  V30 9921 N 945.984 -0.3171 -1.54377 0
M  V30 9922 C 946.931 0.551782 -2.24107 0
M  V30 9923 C 947.901 1.11681 -1.22949 0
M  V30 9924 O 949.086 1.15836 -1.51614 0
M  V30 9925 C 946.226 1.70997 -2.99756 0
M  V30 9926 C 945.339 1.17479 -4.15719 0
M  V30 9927 C 944.474 2.29815 -4.78914 0
M  V30 9928 C 943.513 1.73513 -5.86992 0
M  V30 9929 N 942.65 2.79485 -6.44075 0
M  V30 9930 H 947.49 -0.049431 -2.97959 0
M  V30 9931 H 945.027 -0.0361658 -1.47056 0
M  V30 9932 H 946.985 2.39141 -3.41859 0
M  V30 9933 H 945.615 2.28257 -2.28251 0
M  V30 9934 H 944.667 0.385109 -3.78446 0
M  V30 9935 H 945.979 0.72276 -4.93536 0
M  V30 9936 H 945.133 3.05875 -5.23952 0
M  V30 9937 H 943.872 2.78352 -4.00464 0
M  V30 9938 H 942.877 0.959475 -5.41363 0
M  V30 9939 H 944.102 1.2586 -6.67335 0
M  V30 9940 H 942.048 3.27325 -5.68502 0
M  V30 9941 H 941.965 2.38825 -7.17286 0
M  V30 9942 H 943.233 3.55394 -6.93769 0
M  V30 9943 N 947.462 1.57535 -0.0451378 0
M  V30 9944 C 948.711 1.91628 0.629415 0
M  V30 9945 C 949.024 0.924754 1.72359 0
M  V30 9946 O 950.23 1.15751 2.45589 0
M  V30 9947 C 948.686 3.40322 1.17084 0
M  V30 9948 C 948.294 4.47867 0.109101 0
M  V30 9949 C 950.038 3.83458 1.82099 0
M  V30 9950 C 947.945 5.87671 0.663072 0
M  V30 9951 H 946.875 0.715163 0.238868 0
M  V30 9952 H 949.526 1.83151 -0.113046 0
M  V30 9953 H 947.908 3.43783 1.96543 0
M  V30 9954 H 949.082 4.55988 -0.664201 0
M  V30 9955 H 947.397 4.14034 -0.443227 0
M  V30 9956 H 949.994 4.85273 2.2453 0
M  V30 9957 H 950.337 3.19379 2.67026 0
M  V30 9958 H 950.87 3.82488 1.09305 0
M  V30 9959 H 947.609 6.55332 -0.148423 0
M  V30 9960 H 947.129 5.83124 1.4045 0
M  V30 9961 H 948.808 6.36737 1.14785 0
M  V30 9962 N 948.94 -0.228186 1.55939 0
M  V30 9963 C 950.217 -0.977492 1.69424 0
M  V30 9964 C 950.597 -2.02674 0.590479 0
M  V30 9965 O 949.945 -2.2491 -0.403467 0
M  V30 9966 C 950.155 -1.59394 3.10475 0
M  V30 9967 C 951.503 -2.08871 3.69673 0
M  V30 9968 O 952.527 -1.693 3.13394 0
M  V30 9969 O 951.386 -2.81584 4.68372 0
M  V30 9970 H 948.48 -0.456185 0.6898 0
M  V30 9971 H 951.026 -0.220492 1.68261 0
M  V30 9972 H 949.798 -0.835971 3.82266 0
M  V30 9973 H 949.421 -2.41665 3.15727 0
M  V30 9974 N 950.418 -1.49637 -0.494624 0
M  V30 9975 C 951.648 -1.62928 -1.27036 0
M  V30 9976 C 952.056 -0.302464 -1.86767 0
M  V30 9977 O 951.399 0.722878 -1.68879 0
M  V30 9978 C 951.461 -2.64449 -2.43531 0
M  V30 9979 C 951.125 -4.08632 -2.0462 0
M  V30 9980 C 952.122 -4.95238 -1.58225 0
M  V30 9981 C 949.807 -4.54405 -2.1406 0
M  V30 9982 C 951.801 -6.25658 -1.21782 0
M  V30 9983 C 949.488 -5.84836 -1.77228 0
M  V30 9984 C 950.486 -6.70287 -1.31165 0
M  V30 9985 O 950.174 -7.98287 -0.948339 0
M  V30 9986 H 949.906 -0.551263 -0.391261 0
M  V30 9987 H 952.46 -1.96453 -0.599621 0
M  V30 9988 H 950.69 -2.26117 -3.137 0
M  V30 9989 H 952.379 -2.67203 -3.05545 0
M  V30 9990 H 953.145 -4.611 -1.50373 0
M  V30 9991 H 949.024 -3.88056 -2.48865 0
M  V30 9992 H 952.568 -6.92309 -0.857566 0
M  V30 9993 H 948.465 -6.18502 -1.84732 0
M  V30 9994 H 949.233 -8.11353 -1.07925 0
M  V30 9995 N 951.896 0.746133 -1.38819 0
M  V30 9996 C 952.806 1.89063 -1.38897 0
M  V30 9997 C 953.822 1.71648 -0.28513 0
M  V30 9998 O 954.998 1.94443 -0.524783 0
M  V30 9999 C 952.063 3.24523 -1.22007 0
M  V30 10000 C 951.124 3.54411 -2.42263 0
M  V30 10001 C 950.357 4.83408 -2.26169 0
M  V30 10002 O 950.58 5.56325 -1.25931 0
M  V30 10003 O 949.514 5.12943 -3.14918 0
M  V30 10004 H 953.34 1.91951 -2.35347 0
M  V30 10005 H 950.925 0.892433 -1.19816 0
M  V30 10006 H 952.807 4.05496 -1.14677 0
M  V30 10007 H 951.482 3.2243 -0.286455 0
M  V30 10008 H 950.389 2.73569 -2.55168 0
M  V30 10009 H 951.722 3.61273 -3.3428 0
M  V30 10010 N 953.375 1.23811 0.975125 0
M  V30 10011 C 954.603 1.10019 1.75224 0
M  V30 10012 C 955.018 -0.34791 1.85567 0
M  V30 10013 O 954.375 -1.24043 1.33864 0
M  V30 10014 C 954.426 1.72572 3.1765 0
M  V30 10015 O 954.147 3.11719 3.07836 0
M  V30 10016 C 955.648 1.64292 4.11732 0
M  V30 10017 H 952.868 0.38476 0.549728 0
M  V30 10018 H 955.412 1.63768 1.22476 0
M  V30 10019 H 953.567 1.22843 3.67408 0
M  V30 10020 H 953.981 3.42152 3.97533 0
M  V30 10021 H 955.455 2.12754 5.09352 0
M  V30 10022 H 955.932 0.602722 4.35045 0
M  V30 10023 H 956.538 2.13411 3.6788 0
M  V30 10024 N 954.853 -1.17469 1.05066 0
M  V30 10025 C 955.783 -2.23635 0.671552 0
M  V30 10026 C 956.764 -1.66867 -0.33006 0
M  V30 10027 O 957.949 -1.93084 -0.207933 0
M  V30 10028 C 955.079 -3.47272 0.0441845 0
M  V30 10029 C 954.033 -4.16854 0.97042 0
M  V30 10030 C 953.359 -5.34299 0.206998 0
M  V30 10031 C 954.659 -4.69225 2.29401 0
M  V30 10032 H 956.353 -2.55602 1.55911 0
M  V30 10033 H 953.899 -1.2286 0.751101 0
M  V30 10034 H 955.852 -4.20756 -0.23282 0
M  V30 10035 H 954.576 -3.14568 -0.878311 0
M  V30 10036 H 953.235 -3.4528 1.23197 0
M  V30 10037 H 952.883 -4.97846 -0.718222 0
M  V30 10038 H 952.583 -5.81792 0.82416 0
M  V30 10039 H 954.107 -6.10568 -0.0627525 0
M  V30 10040 H 955.521 -5.34353 2.077 0
M  V30 10041 H 953.918 -5.27291 2.86503 0
M  V30 10042 H 954.988 -3.86102 2.93348 0
M  V30 10043 N 956.331 -0.831506 -1.3388 0
M  V30 10044 C 957.571 -0.429648 -1.99833 0
M  V30 10045 C 957.935 0.990796 -1.6446 0
M  V30 10046 O 959.136 1.49599 -2.23324 0
M  V30 10047 C 957.407 -0.635558 -3.51704 0
M  V30 10048 S 958.966 -0.327824 -4.37574 0
M  V30 10049 H 955.784 -0.161939 -0.692313 0
M  V30 10050 H 958.386 -1.07919 -1.63015 0
M  V30 10051 H 957.09 -1.66887 -3.74936 0
M  V30 10052 H 956.621 0.0284073 -3.9339 0
M  V30 10053 H 958.636 0.855231 -4.88774 0
M  V30 10054 N 957.809 1.4625 -0.587256 0
M  V30 10055 C 959.225 1.57641 -0.249284 0
M  V30 10056 C 959.425 1.58169 1.24839 0
M  V30 10057 O 958.481 1.50109 2.03036 0
M  V30 10058 C 959.794 2.86837 -0.902509 0
M  V30 10059 C 961.342 3.00476 -0.876524 0
M  V30 10060 C 961.817 4.32414 -1.50938 0
M  V30 10061 N 963.308 4.39124 -1.47392 0
M  V30 10062 C 964.043 5.39838 -1.93293 0
M  V30 10063 N 963.539 6.47202 -2.47188 0
M  V30 10064 N 965.332 5.31068 -1.84183 0
M  V30 10065 H 957.483 1.44151 -1.55994 0
M  V30 10066 H 959.746 0.687905 -0.652297 0
M  V30 10067 H 959.452 2.92274 -1.95624 0
M  V30 10068 H 959.326 3.74927 -0.413466 0
M  V30 10069 H 961.713 2.94618 0.168601 0
M  V30 10070 H 961.794 2.1385 -1.40363 0
M  V30 10071 H 961.438 4.3903 -2.55372 0
M  V30 10072 H 961.368 5.17823 -0.957455 0
M  V30 10073 H 963.859 3.62138 -1.08002 0
M  V30 10074 H 964.172 7.20269 -2.80058 0
M  V30 10075 H 962.517 6.48009 -2.51216 0
M  V30 10076 H 965.708 4.46095 -1.41833 0
M  V30 10077 H 965.881 6.09414 -2.2027 0
M  V30 10078 N 959.287 0.325282 1.54207 0
M  V30 10079 C 960.533 -0.269944 2.01601 0
M  V30 10080 C 960.888 -1.49643 1.20933 0
M  V30 10081 O 960.181 -1.89486 0.283838 0
M  V30 10082 C 960.375 -0.654292 3.5136 0
M  V30 10083 C 960.204 0.533397 4.46525 0
M  V30 10084 C 958.974 1.03304 4.94628 0
M  V30 10085 C 961.172 1.38613 4.95269 0
M  V30 10086 N 959.154 2.18495 5.73701 0
M  V30 10087 C 960.525 2.38519 5.72284 0
M  V30 10088 C 962.58 1.41369 4.77409 0
M  V30 10089 C 961.283 3.40988 6.3334 0
M  V30 10090 C 963.309 2.4271 5.39301 0
M  V30 10091 C 962.671 3.41343 6.16169 0
M  V30 10092 H 958.77 -0.0625778 0.779492 0
M  V30 10093 H 961.354 0.460711 1.89171 0
M  V30 10094 H 959.525 -1.35408 3.64032 0
M  V30 10095 H 961.257 -1.23114 3.85519 0
M  V30 10096 H 958.012 0.604045 4.69732 0
M  V30 10097 H 958.436 2.76605 6.17915 0
M  V30 10098 H 963.078 0.664796 4.17541 0
M  V30 10099 H 960.796 4.16784 6.92327 0
M  V30 10100 H 964.382 2.45647 5.27398 0
M  V30 10101 H 963.262 4.18476 6.6321 0
M  V30 10102 N 960.765 -1.57509 0.0534917 0
M  V30 10103 C 961.695 -2.14698 -0.917999 0
M  V30 10104 C 962.676 -1.06924 -1.32292 0
M  V30 10105 O 963.861 -1.34875 -1.39723 0
M  V30 10106 C 960.991 -2.69383 -2.19203 0
M  V30 10107 C 959.945 -3.82161 -1.9271 0
M  V30 10108 C 959.271 -4.23373 -3.26587 0
M  V30 10109 C 960.571 -5.07199 -1.24686 0
M  V30 10110 H 962.265 -2.96125 -0.44165 0
M  V30 10111 H 959.811 -1.42446 -0.210993 0
M  V30 10112 H 961.764 -3.08031 -2.87567 0
M  V30 10113 H 960.488 -1.85151 -2.69048 0
M  V30 10114 H 959.147 -3.43989 -1.26757 0
M  V30 10115 H 958.795 -3.36089 -3.74237 0
M  V30 10116 H 958.495 -4.99385 -3.09658 0
M  V30 10117 H 960.019 -4.64623 -3.96178 0
M  V30 10118 H 961.433 -5.43279 -1.83088 0
M  V30 10119 H 959.83 -5.88369 -1.18076 0
M  V30 10120 H 960.9 -4.84386 -0.223227 0
M  V30 10121 N 962.243 0.219913 -1.56058 0
M  V30 10122 C 963.173 1.27572 -1.9557 0
M  V30 10123 C 964.154 1.48801 -0.824148 0
M  V30 10124 O 965.339 1.60957 -1.08658 0
M  V30 10125 C 962.469 2.62517 -2.27381 0
M  V30 10126 C 961.423 2.55941 -3.43042 0
M  V30 10127 C 960.749 3.94931 -3.60463 0
M  V30 10128 C 962.049 2.10584 -4.77966 0
M  V30 10129 H 963.743 0.947482 -2.84013 0
M  V30 10130 H 961.289 0.454337 -1.36645 0
M  V30 10131 H 963.242 3.36538 -2.53615 0
M  V30 10132 H 961.966 2.97031 -1.35794 0
M  V30 10133 H 960.625 1.84377 -3.1686 0
M  V30 10134 H 960.273 4.26756 -2.66249 0
M  V30 10135 H 959.973 3.91413 -4.38258 0
M  V30 10136 H 961.497 4.70611 -3.89046 0
M  V30 10137 H 962.911 2.74349 -5.03394 0
M  V30 10138 H 961.308 2.18122 -5.59055 0
M  V30 10139 H 962.378 1.05818 -4.73213 0
M  V30 10140 N 963.721 1.49897 0.486681 0
M  V30 10141 C 964.949 1.63837 1.26353 0
M  V30 10142 C 965.364 0.315428 1.86146 0
M  V30 10143 O 964.721 -0.700831 1.68507 0
M  V30 10144 C 964.772 2.71792 2.38351 0
M  V30 10145 O 964.493 3.98956 1.81013 0
M  V30 10146 C 965.994 2.96566 3.2949 0
M  V30 10147 H 963.214 0.551158 0.382709 0
M  V30 10148 H 965.758 1.96023 0.582694 0
M  V30 10149 H 963.913 2.42344 3.02238 0
M  V30 10150 H 964.327 4.58536 2.54647 0
M  V30 10151 H 965.801 3.75803 4.04322 0
M  V30 10152 H 966.278 2.07031 3.87343 0
M  V30 10153 H 966.884 3.27485 2.71355 0
M  V30 10154 N 965.199 -0.738761 1.39212 0
M  V30 10155 C 966.445 -1.50046 1.36433 0
M  V30 10156 C 966.778 -1.94157 -0.0409474 0
M  V30 10157 O 966.053 -1.66515 -1.00514 0
M  V30 10158 C 966.336 -2.74277 2.33333 0
M  V30 10159 C 966.189 -2.36209 3.82786 0
M  V30 10160 C 967.508 -3.76361 2.28123 0
M  V30 10161 H 964.627 -0.544294 0.496903 0
M  V30 10162 H 967.269 -0.845005 1.70175 0
M  V30 10163 H 965.419 -3.30204 2.04689 0
M  V30 10164 H 967.091 -1.85942 4.22165 0
M  V30 10165 H 965.334 -1.68483 3.99745 0
M  V30 10166 H 966.005 -3.25156 4.46069 0
M  V30 10167 H 968.481 -3.30009 2.53443 0
M  V30 10168 H 967.357 -4.60957 2.9801 0
M  V30 10169 H 967.618 -4.23013 1.28499 0
M  V30 10170 N 966.677 -1.24326 -0.968545 0
M  V30 10171 C 968.093 -1.00847 -1.23701 0
M  V30 10172 C 968.293 0.283235 -1.99499 0
M  V30 10173 O 967.349 0.999607 -2.31871 0
M  V30 10174 C 968.662 -2.22295 -2.02498 0
M  V30 10175 C 970.21 -2.26911 -2.15593 0
M  V30 10176 C 970.685 -3.47978 -2.97784 0
M  V30 10177 N 972.176 -3.48289 -3.05367 0
M  V30 10178 C 972.911 -4.38625 -3.69318 0
M  V30 10179 N 972.407 -5.39213 -4.34995 0
M  V30 10180 N 974.2 -4.26339 -3.66322 0
M  V30 10181 H 966.351 -2.07335 -0.461087 0
M  V30 10182 H 968.614 -0.909805 -0.26638 0
M  V30 10183 H 968.32 -3.161 -1.54188 0
M  V30 10184 H 968.194 -2.24344 -3.03232 0
M  V30 10185 H 970.581 -1.33639 -2.63106 0
M  V30 10186 H 970.662 -2.28888 -1.14209 0
M  V30 10187 H 970.306 -4.41564 -2.50965 0
M  V30 10188 H 970.236 -3.43244 -3.99364 0
M  V30 10189 H 972.727 -2.75517 -2.58648 0
M  V30 10190 H 973.04 -6.04378 -4.81608 0
M  V30 10191 H 971.385 -5.43101 -4.33667 0
M  V30 10192 H 974.576 -3.46991 -3.14189 0
M  V30 10193 H 974.749 -4.9694 -4.15878 0
M  V30 10194 N 968.156 1.1691 -1.05688 0
M  V30 10195 C 969.103 2.21095 -0.662246 0
M  V30 10196 C 970.073 1.62623 0.338083 0
M  V30 10197 O 971.258 1.89428 0.228362 0
M  V30 10198 C 968.398 3.45066 -0.0484018 0
M  V30 10199 C 967.511 4.17809 -1.09817 0
M  V30 10200 C 966.646 5.29281 -0.451114 0
M  V30 10201 C 965.685 5.93817 -1.48484 0
M  V30 10202 N 964.822 6.96793 -0.861588 0
M  V30 10203 H 969.662 2.54204 -1.55513 0
M  V30 10204 H 967.199 1.24863 -0.777665 0
M  V30 10205 H 969.157 4.15932 0.324978 0
M  V30 10206 H 967.787 3.12526 0.807918 0
M  V30 10207 H 966.839 3.45608 -1.58932 0
M  V30 10208 H 968.151 4.61907 -1.88265 0
M  V30 10209 H 967.305 6.06695 -0.0244251 0
M  V30 10210 H 966.044 4.8633 0.365306 0
M  V30 10211 H 965.049 5.1513 -1.92149 0
M  V30 10212 H 966.274 6.38848 -2.30325 0
M  V30 10213 H 964.22 6.55967 -0.0657688 0
M  V30 10214 H 964.137 7.39229 -1.58354 0
M  V30 10215 H 965.405 7.78142 -0.45984 0
M  V30 10216 N 969.634 0.838594 1.33437 0
M  V30 10217 C 970.582 0.260158 2.31141 0
M  V30 10218 C 971.576 -0.607706 1.58124 0
M  V30 10219 O 972.782 -0.497298 1.72994 0
M  V30 10220 H 969.157 0.0654031 0.74915 0
M  V30 10221 H 971.128 1.09874 2.77435 0
M  V30 10222 C 969.877 -0.550234 3.43319 0
M  V30 10223 H 969.2 0.108262 3.99653 0
M  V30 10224 H 970.64 -0.920815 4.1388 0
M  V30 10225 C 969.099 -1.729 2.89149 0
M  V30 10226 O 969.629 -2.82769 2.85315 0
M  V30 10227 N 967.835 -1.5508 2.45761 0
M  V30 10228 H 967.382 -0.657055 2.49079 0
M  V30 10229 H 967.34 -2.34099 2.0987 0
M  V30 10230 N 971.112 -1.45937 0.595003 0
M  V30 10231 C 972.342 -2.06399 0.0911607 0
M  V30 10232 C 972.75 -1.44236 -1.22444 0
M  V30 10233 O 972.093 -0.546265 -1.7539 0
M  V30 10234 C 972.155 -3.59242 -0.136079 0
M  V30 10235 C 971.819 -4.43668 1.09579 0
M  V30 10236 C 972.816 -4.79437 2.01088 0
M  V30 10237 C 970.501 -4.84616 1.32109 0
M  V30 10238 C 972.495 -5.54995 3.13464 0
M  V30 10239 C 970.182 -5.5993 2.44788 0
M  V30 10240 C 971.18 -5.95035 3.35294 0
M  V30 10241 O 970.868 -6.68825 4.46014 0
M  V30 10242 H 970.6 -0.673316 0.0601779 0
M  V30 10243 H 973.154 -1.88365 0.819005 0
M  V30 10244 H 971.384 -3.75629 -0.918676 0
M  V30 10245 H 973.073 -4.0159 -0.589954 0
M  V30 10246 H 973.839 -4.48371 1.84902 0
M  V30 10247 H 969.718 -4.56735 0.625662 0
M  V30 10248 H 973.262 -5.82314 3.84131 0
M  V30 10249 H 969.159 -5.90411 2.60931 0
M  V30 10250 H 969.927 -6.87262 4.44537 0
M  V30 10251 N 972.59 -0.333456 -1.54032 0
M  V30 10252 C 974.006 0.0188405 -1.59589 0
M  V30 10253 C 974.206 1.49615 -1.34972 0
M  V30 10254 O 973.262 2.2535 -1.13901 0
M  V30 10255 C 974.575 -0.408273 -2.97915 0
M  V30 10256 C 976.123 -0.359763 -3.10926 0
M  V30 10257 C 976.598 -0.76219 -4.51613 0
M  V30 10258 N 978.089 -0.715981 -4.57633 0
M  V30 10259 C 978.824 -0.999436 -5.64623 0
M  V30 10260 N 978.32 -1.35053 -6.79509 0
M  V30 10261 N 980.113 -0.924343 -5.54448 0
M  V30 10262 H 972.264 -1.29587 -1.68289 0
M  V30 10263 H 974.527 -0.527584 -0.787629 0
M  V30 10264 H 974.233 -1.43793 -3.20962 0
M  V30 10265 H 974.107 0.221685 -3.76548 0
M  V30 10266 H 976.494 0.660703 -2.87609 0
M  V30 10267 H 976.575 -1.02479 -2.34375 0
M  V30 10268 H 976.219 -1.78062 -4.75664 0
M  V30 10269 H 976.149 -0.0747478 -5.26547 0
M  V30 10270 H 978.64 -0.456875 -3.75128 0
M  V30 10271 H 978.953 -1.55194 -7.57057 0
M  V30 10272 H 977.298 -1.38889 -6.80981 0
M  V30 10273 H 980.489 -0.649469 -4.63573 0
M  V30 10274 H 980.662 -1.1486 -6.37739 0
M  V30 10275 N 974.068 1.57479 -0.061844 0
M  V30 10276 C 975.001 2.07734 0.94455 0
M  V30 10277 C 975.979 0.980207 1.29733 0
M  V30 10278 O 977.163 1.2529 1.40836 0
M  V30 10279 C 974.29 2.52673 2.25553 0
M  V30 10280 C 973.336 3.73725 2.05503 0
M  V30 10281 S 974.169 5.18886 1.32354 0
M  V30 10282 C 975.325 5.67148 2.64753 0
M  V30 10283 H 975.558 2.92772 0.516888 0
M  V30 10284 H 973.091 1.53663 0.150684 0
M  V30 10285 H 975.049 2.79226 3.00904 0
M  V30 10286 H 973.71 1.67921 2.65445 0
M  V30 10287 H 972.903 4.03125 3.025 0
M  V30 10288 H 972.505 3.47494 1.3829 0
M  V30 10289 H 974.797 5.73385 3.60882 0
M  V30 10290 H 975.74 6.66196 2.39976 0
M  V30 10291 H 976.148 4.94921 2.71502 0
M  V30 10292 N 975.546 -0.211634 1.56173 0
M  V30 10293 C 976.792 -0.935935 1.79911 0
M  V30 10294 C 977.125 -1.83589 0.633155 0
M  V30 10295 O 976.4 -1.91004 -0.367132 0
M  V30 10296 C 976.683 -1.76638 3.13801 0
M  V30 10297 C 976.536 -0.892259 4.40861 0
M  V30 10298 C 977.855 -2.74224 3.44223 0
M  V30 10299 H 974.974 -0.338822 0.654499 0
M  V30 10300 H 977.616 -0.20422 1.88899 0
M  V30 10301 H 975.766 -2.39021 3.0627 0
M  V30 10302 H 977.438 -0.284407 4.60422 0
M  V30 10303 H 975.681 -0.198145 4.33347 0
M  V30 10304 H 976.352 -1.50793 5.31004 0
M  V30 10305 H 978.828 -2.21975 3.51946 0
M  V30 10306 H 977.704 -3.29424 4.39057 0
M  V30 10307 H 977.965 -3.52455 2.66885 0
M  V30 10308 N 977.024 -1.50153 -0.478725 0
M  V30 10309 C 977.954 -1.71384 -1.58587 0
M  V30 10310 C 978.935 -0.562705 -1.60523 0
M  V30 10311 O 980.12 -0.80101 -1.76911 0
M  V30 10312 C 977.25 -1.80094 -2.96957 0
M  V30 10313 C 976.204 -2.95218 -3.09888 0
M  V30 10314 C 975.53 -2.89063 -4.49829 0
M  V30 10315 C 976.83 -4.35841 -2.8782 0
M  V30 10316 H 978.524 -2.64081 -1.41073 0
M  V30 10317 H 976.07 -1.27081 -0.677239 0
M  V30 10318 H 978.023 -1.93531 -3.74331 0
M  V30 10319 H 976.747 -0.840131 -3.1561 0
M  V30 10320 H 975.406 -2.81419 -2.34944 0
M  V30 10321 H 975.054 -1.90844 -4.6539 0
M  V30 10322 H 974.754 -3.66345 -4.59418 0
M  V30 10323 H 976.278 -3.04539 -5.29234 0
M  V30 10324 H 977.692 -4.50205 -3.54948 0
M  V30 10325 H 976.089 -5.14515 -3.0886 0
M  V30 10326 H 977.159 -4.48739 -1.83742 0
M  V30 10327 N 978.502 0.731368 -1.39602 0
M  V30 10328 C 979.732 1.51839 -1.40102 0
M  V30 10329 C 980.14 1.89199 0.00526634 0
M  V30 10330 O 979.483 1.54877 0.987874 0
M  V30 10331 C 979.545 2.83292 -2.21328 0
M  V30 10332 C 979.209 2.68345 -3.69919 0
M  V30 10333 C 980.206 2.36651 -4.62917 0
M  V30 10334 C 977.891 2.85102 -4.13548 0
M  V30 10335 C 979.885 2.21901 -5.97527 0
M  V30 10336 C 977.572 2.69971 -5.48233 0
M  V30 10337 C 978.57 2.38416 -6.40037 0
M  V30 10338 O 978.258 2.23383 -7.72241 0
M  V30 10339 H 977.99 0.475695 -0.480302 0
M  V30 10340 H 980.544 0.911096 -1.84087 0
M  V30 10341 H 978.774 3.46294 -1.72096 0
M  V30 10342 H 980.463 3.44928 -2.13961 0
M  V30 10343 H 981.229 2.23352 -4.3051 0
M  V30 10344 H 977.108 3.08655 -3.42423 0
M  V30 10345 H 980.652 1.97193 -6.69149 0
M  V30 10346 H 976.549 2.82849 -5.8023 0
M  V30 10347 H 977.317 2.38425 -7.83004 0
M  V30 10348 N 979.98 1.24838 0.961938 0
M  V30 10349 C 980.93 1.01276 2.04272 0
M  V30 10350 C 981.914 -0.0478239 1.60829 0
M  V30 10351 O 983.106 0.166616 1.76214 0
M  V30 10352 C 980.235 0.625659 3.37551 0
M  V30 10353 C 979.321 1.72262 3.87539 0
M  V30 10354 N 979.712 2.95644 4.104 0
M  V30 10355 C 978.01 1.60146 4.16256 0
M  V30 10356 C 978.711 3.66796 4.51482 0
M  V30 10357 N 977.687 2.94383 4.56989 0
M  V30 10358 H 981.489 1.94956 2.19931 0
M  V30 10359 H 979.003 1.15049 1.14619 0
M  V30 10360 H 981 0.438072 4.14592 0
M  V30 10361 H 979.66 -0.303887 3.23275 0
M  V30 10362 H 980.671 3.31764 3.97685 0
M  V30 10363 H 977.348 0.740353 4.10883 0
M  V30 10364 H 978.738 4.72664 4.77534 0
M  V30 10365 N 981.458 -1.16348 1.06306 0
M  V30 10366 C 982.406 -2.22799 0.668087 0
M  V30 10367 C 983.4 -1.66426 -0.316051 0
M  V30 10368 O 984.606 -1.79089 -0.180902 0
M  V30 10369 H 980.981 -0.725487 0.19792 0
M  V30 10370 H 982.952 -2.53401 1.57577 0
M  V30 10371 C 981.701 -3.47628 0.0706797 0
M  V30 10372 H 981.024 -3.9132 0.819064 0
M  V30 10373 H 982.464 -4.23666 -0.16816 0
M  V30 10374 C 980.923 -3.15343 -1.18577 0
M  V30 10375 O 981.453 -3.31158 -2.27371 0
M  V30 10376 N 979.659 -2.69472 -1.08779 0
M  V30 10377 H 979.206 -2.56803 -0.202447 0
M  V30 10378 H 979.164 -2.48244 -1.92931 0
M  V30 10379 N 982.937 -0.845659 -1.3299 0
M  V30 10380 C 984.183 -0.454563 -1.98256 0
M  V30 10381 C 984.538 0.976983 -1.65749 0
M  V30 10382 O 983.831 1.67481 -0.930631 0
M  V30 10383 C 984.025 -0.6201 -3.51979 0
M  V30 10384 C 983.854 -2.06619 -3.99423 0
M  V30 10385 C 982.624 -2.70283 -4.26937 0
M  V30 10386 C 984.822 -3.03573 -4.15148 0
M  V30 10387 N 982.804 -4.05896 -4.60567 0
M  V30 10388 C 984.175 -4.24149 -4.52214 0
M  V30 10389 C 986.23 -2.99888 -3.97457 0
M  V30 10390 C 984.933 -5.41527 -4.73435 0
M  V30 10391 C 986.959 -4.16502 -4.19858 0
M  V30 10392 C 986.321 -5.35835 -4.57231 0
M  V30 10393 H 982.42 -0.214896 -0.751893 0
M  V30 10394 H 985.004 -1.09515 -1.6098 0
M  V30 10395 H 983.175 -0.00926528 -3.88399 0
M  V30 10396 H 984.907 -0.199782 -4.04207 0
M  V30 10397 H 981.662 -2.21377 -4.18676 0
M  V30 10398 H 982.086 -4.75824 -4.81581 0
M  V30 10399 H 986.728 -2.08753 -3.67671 0
M  V30 10400 H 984.446 -6.332 -5.02079 0
M  V30 10401 H 988.032 -4.15075 -4.07681 0
M  V30 10402 H 986.912 -6.24568 -4.74219 0
M  V30 10403 N 984.415 1.45619 -0.602734 0
M  V30 10404 C 985.831 1.57368 -0.26599 0
M  V30 10405 C 986.031 1.59485 1.23154 0
M  V30 10406 O 985.087 1.52254 2.01432 0
M  V30 10407 C 986.4 2.85863 -0.932881 0
M  V30 10408 C 987.948 2.9953 -0.908344 0
M  V30 10409 C 988.423 4.30789 -1.55515 0
M  V30 10410 N 989.914 4.37536 -1.52042 0
M  V30 10411 C 990.649 5.37758 -1.99008 0
M  V30 10412 N 990.145 6.44544 -2.54038 0
M  V30 10413 N 991.938 5.29085 -1.89805 0
M  V30 10414 H 984.089 1.42489 -1.57514 0
M  V30 10415 H 986.352 0.680948 -0.659556 0
M  V30 10416 H 986.058 2.90183 -1.98713 0
M  V30 10417 H 985.932 3.74467 -0.453209 0
M  V30 10418 H 988.319 2.9478 0.137344 0
M  V30 10419 H 988.4 2.12349 -1.42623 0
M  V30 10420 H 988.044 4.36297 -2.60014 0
M  V30 10421 H 987.974 5.16778 -1.01232 0
M  V30 10422 H 990.465 3.60972 -1.11837 0
M  V30 10423 H 990.778 7.17258 -2.87682 0
M  V30 10424 H 989.123 6.45308 -2.58075 0
M  V30 10425 H 992.314 4.44566 -1.46556 0
M  V30 10426 H 992.487 6.07043 -2.26722 0
M  V30 10427 N 985.893 0.34162 1.53853 0
M  V30 10428 C 986.843 -0.531995 2.21707 0
M  V30 10429 C 987.827 -1.06759 1.2038 0
M  V30 10430 O 989.019 -1.00161 1.45934 0
M  V30 10431 C 986.148 -1.6834 2.99193 0
M  V30 10432 C 985.234 -1.16184 4.07875 0
M  V30 10433 N 985.625 -0.361348 5.04508 0
M  V30 10434 C 983.923 -1.43891 4.22151 0
M  V30 10435 C 984.624 -0.0785378 5.81647 0
M  V30 10436 N 983.6 -0.669651 5.3946 0
M  V30 10437 H 987.402 0.0866825 2.93772 0
M  V30 10438 H 984.916 0.148386 1.61721 0
M  V30 10439 H 986.913 -2.32121 3.46303 0
M  V30 10440 H 985.573 -2.30538 2.28653 0
M  V30 10441 H 986.584 -0.00259906 5.179 0
M  V30 10442 H 983.261 -2.06542 3.62832 0
M  V30 10443 H 984.651 0.567068 6.69503 0
M  V30 10444 N 987.371 -1.57444 0.0701946 0
M  V30 10445 C 988.334 -2.11511 -0.882923 0
M  V30 10446 C 989.334 -1.03879 -1.22743 0
M  V30 10447 O 990.524 -1.29874 -1.16097 0
M  V30 10448 C 987.656 -2.61514 -2.18686 0
M  V30 10449 H 988.849 -2.9703 -0.413873 0
M  V30 10450 H 986.402 -1.55278 -0.178488 0
M  V30 10451 H 987.137 -1.79443 -2.70131 0
M  V30 10452 H 986.922 -3.40185 -1.94978 0
M  V30 10453 H 988.412 -3.03425 -2.86919 0
M  V30 10454 N 988.849 0.203349 -1.56283 0
M  V30 10455 C 990.096 0.92501 -1.80138 0
M  V30 10456 C 990.424 1.83598 -0.64204 0
M  V30 10457 O 989.679 1.92119 0.372658 0
M  V30 10458 C 989.978 1.78016 -3.09912 0
M  V30 10459 C 989.644 1.02088 -4.39191 0
M  V30 10460 C 988.306 0.811208 -4.74313 0
M  V30 10461 C 990.658 0.486037 -5.18929 0
M  V30 10462 C 987.986 0.0550856 -5.86674 0
M  V30 10463 C 990.338 -0.256833 -6.32078 0
M  V30 10464 C 989.002 -0.477594 -6.65789 0
M  V30 10465 H 988.272 0.338485 -0.659173 0
M  V30 10466 H 990.919 0.191923 -1.90536 0
M  V30 10467 H 989.224 2.58167 -2.94715 0
M  V30 10468 H 990.921 2.341 -3.25574 0
M  V30 10469 H 987.511 1.1943 -4.11624 0
M  V30 10470 H 991.695 0.635446 -4.92215 0
M  V30 10471 H 986.951 -0.126006 -6.1127 0
M  V30 10472 H 991.125 -0.678683 -6.93085 0
M  V30 10473 H 988.752 -1.0654 -7.52697 0
M  V30 10474 N 990.327 1.50405 0.470755 0
M  V30 10475 C 991.275 1.6982 1.58946 0
M  V30 10476 C 992.269 0.56407 1.59733 0
M  V30 10477 O 993.475 0.744576 1.63878 0
M  V30 10478 H 989.85 0.536016 0.527438 0
M  V30 10479 H 991.821 2.63662 1.39732 0
M  V30 10480 C 990.57 1.80986 2.96883 0
M  V30 10481 H 989.893 2.67645 2.96996 0
M  V30 10482 H 991.333 1.98596 3.74614 0
M  V30 10483 C 989.792 0.561551 3.32187 0
M  V30 10484 O 990.322 -0.299136 4.00585 0
M  V30 10485 N 988.528 0.415476 2.87615 0
M  V30 10486 H 988.075 1.11691 2.32127 0
M  V30 10487 H 988.033 -0.418592 3.11601 0
M  V30 10488 N 991.805 -0.723954 1.39988 0
M  V30 10489 C 993.051 -1.48591 1.38017 0
M  V30 10490 C 993.384 -1.94189 -0.0203522 0
M  V30 10491 O 992.659 -1.67572 -0.987422 0
M  V30 10492 C 992.942 -2.71786 2.36229 0
M  V30 10493 C 992.795 -2.32136 3.8527 0
M  V30 10494 C 994.114 -3.73921 2.32102 0
M  V30 10495 H 991.233 -0.538993 0.502648 0
M  V30 10496 H 993.875 -0.826908 1.71062 0
M  V30 10497 H 992.025 -3.28015 2.0818 0
M  V30 10498 H 993.697 -1.81454 4.24113 0
M  V30 10499 H 991.94 -1.64234 4.01509 0
M  V30 10500 H 992.611 -3.20406 4.49493 0
M  V30 10501 H 995.087 -3.27303 2.56928 0
M  V30 10502 H 993.963 -4.5777 3.02882 0
M  V30 10503 H 994.224 -4.21627 1.32979 0
M  V30 10504 N 993.283 -1.25346 -0.955304 0
M  V30 10505 C 994.523 -1.11259 -1.71467 0
M  V30 10506 C 994.887 0.340759 -1.88952 0
M  V30 10507 O 996.088 0.60344 -2.61939 0
M  V30 10508 C 994.359 -1.84541 -3.06071 0
M  V30 10509 S 995.918 -1.86337 -3.97271 0
M  V30 10510 H 992.736 -0.397683 -0.58938 0
M  V30 10511 H 995.338 -1.58861 -1.13945 0
M  V30 10512 H 994.042 -2.89377 -2.91014 0
M  V30 10513 H 993.573 -1.37323 -3.68654 0
M  V30 10514 H 995.588 -0.939925 -4.87216 0
M  V30 10515 N 994.761 1.15782 -1.06922 0
M  V30 10516 C 995.693 2.19978 -0.643604 0
M  V30 10517 C 996.706 1.59981 0.301653 0
M  V30 10518 O 997.895 1.78265 0.0916508 0
M  V30 10519 C 994.995 3.38815 0.0757973 0
M  V30 10520 C 994.168 4.28363 -0.884545 0
M  V30 10521 C 993.227 5.25807 -0.203233 0
M  V30 10522 O 992.253 5.62924 -0.842904 0
M  V30 10523 N 993.455 5.70874 1.05279 0
M  V30 10524 H 996.22 2.57112 -1.53992 0
M  V30 10525 H 993.781 1.30855 -0.953344 0
M  V30 10526 H 995.773 4.01052 0.542151 0
M  V30 10527 H 994.343 3.00133 0.874 0
M  V30 10528 H 993.563 3.63292 -1.53012 0
M  V30 10529 H 994.851 4.85067 -1.53581 0
M  V30 10530 H 994.249 5.42822 1.5925 0
M  V30 10531 H 992.806 6.35171 1.46289 0
M  V30 10532 N 996.239 0.8527 1.3254 0
M  V30 10533 C 997.169 0.311234 2.31416 0
M  V30 10534 C 998.15 -0.588557 1.59593 0
M  V30 10535 O 999.335 -0.509211 1.87405 0
M  V30 10536 C 996.465 -0.502892 3.4364 0
M  V30 10537 C 995.419 0.302296 4.26931 0
M  V30 10538 C 994.745 -0.636445 5.30899 0
M  V30 10539 C 996.045 1.52697 4.99481 0
M  V30 10540 H 997.739 1.13742 2.76953 0
M  V30 10541 H 995.285 0.548389 1.33149 0
M  V30 10542 H 997.238 -0.892092 4.11849 0
M  V30 10543 H 995.962 -1.36242 2.96826 0
M  V30 10544 H 994.621 0.673226 3.60365 0
M  V30 10545 H 994.269 -1.49277 4.80339 0
M  V30 10546 H 993.969 -0.101716 5.87512 0
M  V30 10547 H 995.493 -1.02286 6.01972 0
M  V30 10548 H 996.907 1.21017 5.60382 0
M  V30 10549 H 995.304 1.9995 5.65809 0
M  V30 10550 H 996.374 2.28929 4.27457 0
M  V30 10551 N 997.718 -1.45297 0.610449 0
M  V30 10552 C 998.651 -2.27669 -0.155637 0
M  V30 10553 C 999.629 -1.37308 -0.870936 0
M  V30 10554 O 1000.81 -1.66739 -0.879228 0
M  V30 10555 C 997.94 -3.15748 -1.2256 0
M  V30 10556 C 996.986 -4.2207 -0.613116 0
M  V30 10557 S 997.819 -5.32337 0.581183 0
M  V30 10558 C 998.975 -6.23985 -0.489298 0
M  V30 10559 H 999.208 -2.92295 0.543205 0
M  V30 10560 H 996.741 -1.49181 0.398044 0
M  V30 10561 H 998.699 -3.67051 -1.83804 0
M  V30 10562 H 997.36 -2.50381 -1.89652 0
M  V30 10563 H 996.553 -4.83633 -1.41827 0
M  V30 10564 H 996.155 -3.73923 -0.0757482 0
M  V30 10565 H 998.447 -6.63553 -1.36759 0
M  V30 10566 H 999.39 -7.08042 0.0902456 0
M  V30 10567 H 999.798 -5.58718 -0.805911 0
M  V30 10568 N 999.196 -0.349774 -1.5367 0
M  V30 10569 C 1000.44 0.244827 -2.01015 0
M  V30 10570 C 1000.77 1.50057 -1.23746 0
M  V30 10571 O 1000.03 1.9315 -0.314872 0
M  V30 10572 C 1000.32 0.598311 -3.52356 0
M  V30 10573 C 999.991 -0.56127 -4.47393 0
M  V30 10574 C 998.653 -0.879481 -4.73095 0
M  V30 10575 C 1001 -1.3389 -5.03709 0
M  V30 10576 C 998.333 -1.97758 -5.52366 0
M  V30 10577 C 1000.68 -2.4273 -5.84179 0
M  V30 10578 C 999.349 -2.75103 -6.08173 0
M  V30 10579 H 998.619 0.0895884 -0.735564 0
M  V30 10580 H 1001.27 -0.478975 -1.85413 0
M  V30 10581 H 999.571 1.40291 -3.65822 0
M  V30 10582 H 1001.27 1.07036 -3.86451 0
M  V30 10583 H 997.858 -0.303201 -4.27526 0
M  V30 10584 H 1002.04 -1.10632 -4.83812 0
M  V30 10585 H 997.298 -2.23257 -5.6918 0
M  V30 10586 H 1001.47 -3.03412 -6.26828 0
M  V30 10587 H 999.099 -3.60317 -6.69385 0
M  V30 10588 N 1000.67 1.57404 -0.0785433 0
M  V30 10589 C 1001.64 2.11977 0.871693 0
M  V30 10590 C 1002.64 1.04529 1.2219 0
M  V30 10591 O 1003.83 1.30488 1.15406 0
M  V30 10592 C 1000.96 2.6267 2.17296 0
M  V30 10593 H 1002.15 2.97246 0.398115 0
M  V30 10594 H 999.705 1.5537 0.170251 0
M  V30 10595 H 1000.44 1.80873 2.69175 0
M  V30 10596 H 1000.22 3.41214 1.93171 0
M  V30 10597 H 1001.71 3.04943 2.85306 0
M  V30 10598 N 1002.15 -0.195058 1.56388 0
M  V30 10599 C 1003.08 -1.26978 1.8961 0
M  V30 10600 C 1004.06 -1.43946 0.756199 0
M  V30 10601 O 1005.25 -1.59335 1.0072 0
M  V30 10602 C 1002.37 -2.63638 2.12632 0
M  V30 10603 C 1001.42 -2.6354 3.35334 0
M  V30 10604 S 1002.25 -2.1497 4.90457 0
M  V30 10605 C 1003.41 -3.53454 5.16547 0
M  V30 10606 H 1003.64 -0.986091 2.8047 0
M  V30 10607 H 1001.17 -0.398552 1.49167 0
M  V30 10608 H 1003.13 -3.42304 2.26579 0
M  V30 10609 H 1001.79 -2.89218 1.22522 0
M  V30 10610 H 1000.99 -3.64027 3.48569 0
M  V30 10611 H 1000.59 -1.92956 3.20381 0
M  V30 10612 H 1002.88 -4.49318 5.0707 0
M  V30 10613 H 1003.82 -3.45113 6.18306 0
M  V30 10614 H 1004.23 -3.48368 4.44185 0
M  V30 10615 N 1003.63 -1.50653 -0.462772 0
M  V30 10616 C 1004.56 -1.73056 -1.5676 0
M  V30 10617 C 1005.54 -0.579699 -1.59917 0
M  V30 10618 O 1006.73 -0.819729 -1.76051 0
M  V30 10619 C 1003.86 -1.83234 -2.9503 0
M  V30 10620 C 1002.81 -2.98488 -3.06739 0
M  V30 10621 C 1002.14 -2.93818 -4.46738 0
M  V30 10622 C 1003.44 -4.38869 -2.83181 0
M  V30 10623 H 1005.13 -2.65562 -1.38265 0
M  V30 10624 H 1002.68 -1.27792 -0.663722 0
M  V30 10625 H 1004.63 -1.97491 -3.72257 0
M  V30 10626 H 1003.35 -0.873558 -3.14701 0
M  V30 10627 H 1002.01 -2.83895 -2.31946 0
M  V30 10628 H 1001.66 -1.95769 -4.63339 0
M  V30 10629 H 1001.36 -3.71197 -4.55507 0
M  V30 10630 H 1002.88 -3.10135 -5.25974 0
M  V30 10631 H 1004.3 -4.53945 -3.50153 0
M  V30 10632 H 1002.69 -5.17762 -3.03386 0
M  V30 10633 H 1003.76 -4.50663 -1.78972 0
M  V30 10634 N 1005.11 0.71652 -1.4037 0
M  V30 10635 C 1006.34 1.50563 -1.4191 0
M  V30 10636 C 1006.75 1.88791 -0.0185456 0
M  V30 10637 O 1006.11 1.55378 0.957289 0
M  V30 10638 C 1006.16 2.78155 -2.30894 0
M  V30 10639 O 1005.88 2.41543 -3.65497 0
M  V30 10640 C 1007.38 3.72057 -2.41016 0
M  V30 10641 H 1004.6 0.464679 -0.48406 0
M  V30 10642 H 1007.15 0.883927 -1.8441 0
M  V30 10643 H 1005.3 3.36611 -1.91759 0
M  V30 10644 H 1005.71 3.23636 -4.12747 0
M  V30 10645 H 1007.19 4.58426 -3.07489 0
M  V30 10646 H 1007.67 4.15098 -1.43492 0
M  V30 10647 H 1008.27 3.19512 -2.80699 0
M  V30 10648 N 1006.59 1.25851 0.948643 0
M  V30 10649 C 1007.81 1.13711 1.72851 0
M  V30 10650 C 1008.23 -0.308471 1.86263 0
M  V30 10651 O 1007.59 -1.21175 1.36465 0
M  V30 10652 C 1007.64 1.79271 3.13918 0
M  V30 10653 O 1007.36 3.18179 3.01154 0
M  V30 10654 C 1008.86 1.72988 4.08154 0
M  V30 10655 H 1006.08 0.396334 0.541443 0
M  V30 10656 H 1008.62 1.66329 1.18974 0
M  V30 10657 H 1006.78 1.30609 3.64719 0
M  V30 10658 H 1007.19 3.50507 3.90186 0
M  V30 10659 H 1008.67 2.2351 5.04725 0
M  V30 10660 H 1009.14 0.694866 4.33668 0
M  V30 10661 H 1009.75 2.21166 3.63271 0
M  V30 10662 N 1008.06 -1.15214 1.07534 0
M  V30 10663 C 1009.03 -2.18209 0.701237 0
M  V30 10664 C 1010.03 -1.58693 -0.25946 0
M  V30 10665 O 1011.22 -1.74154 -0.0401744 0
M  V30 10666 C 1008.35 -3.40883 0.0338703 0
M  V30 10667 H 1009.54 -2.5282 1.61314 0
M  V30 10668 H 1007.1 -1.29707 0.872105 0
M  V30 10669 H 1007.83 -3.11843 -0.890187 0
M  V30 10670 H 1007.62 -3.85342 0.72486 0
M  V30 10671 H 1009.11 -4.17056 -0.213152 0
M  V30 10672 N 1009.54 -0.859717 -1.32086 0
M  V30 10673 C 1010.79 -0.464662 -1.96686 0
M  V30 10674 C 1011.11 0.98412 -1.68345 0
M  V30 10675 O 1010.38 1.68847 -0.993361 0
M  V30 10676 H 1008.96 -0.168838 -0.727669 0
M  V30 10677 H 1011.62 -1.09726 -1.61079 0
M  V30 10678 H 1010.72 -0.613904 -3.06003 0
M  V30 10679 N 1011.02 1.44971 -0.618145 0
M  V30 10680 C 1012.27 2.02159 -0.117482 0
M  V30 10681 C 1012.6 1.48517 1.2559 0
M  V30 10682 O 1011.85 0.654192 1.84442 0
M  V30 10683 C 1012.15 3.57378 -0.0394861 0
M  V30 10684 C 1011.82 4.30218 -1.34993 0
M  V30 10685 C 1010.48 4.49835 -1.70886 0
M  V30 10686 C 1012.83 4.71768 -2.21551 0
M  V30 10687 C 1010.16 5.08258 -2.9307 0
M  V30 10688 C 1012.51 5.31543 -3.42993 0
M  V30 10689 C 1011.17 5.49381 -3.79126 0
M  V30 10690 H 1010.44 0.739752 -0.0429897 0
M  V30 10691 H 1013.09 1.73903 -0.801871 0
M  V30 10692 H 1011.4 3.84973 0.728217 0
M  V30 10693 H 1013.09 3.99343 0.364213 0
M  V30 10694 H 1009.68 4.15271 -1.06057 0
M  V30 10695 H 1013.87 4.56336 -1.95117 0
M  V30 10696 H 1009.12 5.20257 -3.21158 0
M  V30 10697 H 1013.3 5.62691 -4.10308 0
M  V30 10698 H 1010.92 5.94419 -4.73888 0
M  V30 10699 N 1012.5 0.357919 1.53482 0
M  V30 10700 C 1013.43 -0.526753 2.23065 0
M  V30 10701 C 1014.44 -1.05239 1.24212 0
M  V30 10702 O 1015.63 -0.960078 1.50482 0
M  V30 10703 C 1012.73 -1.73919 2.9087 0
M  V30 10704 C 1011.91 -1.34638 4.16163 0
M  V30 10705 C 1010.96 -2.42005 4.67247 0
M  V30 10706 O 1009.99 -2.04714 5.31113 0
M  V30 10707 N 1011.19 -3.73478 4.44404 0
M  V30 10708 H 1013.96 0.0692386 2.9962 0
M  V30 10709 H 1011.52 0.182726 1.60866 0
M  V30 10710 H 1013.51 -2.45207 3.21956 0
M  V30 10711 H 1012.08 -2.24223 2.17814 0
M  V30 10712 H 1011.3 -0.463667 3.91464 0
M  V30 10713 H 1012.59 -1.06012 4.97633 0
M  V30 10714 H 1011.99 -4.06555 3.93357 0
M  V30 10715 H 1010.54 -4.40893 4.80059 0
M  V30 10716 N 1013.98 -1.5736 0.0868897 0
M  V30 10717 C 1015.25 -1.85495 -0.620561 0
M  V30 10718 C 1015.63 -0.982218 -1.86857 0
M  V30 10719 O 1014.98 -0.0524529 -2.2844 0
M  V30 10720 C 1015.19 -3.35996 -0.943798 0
M  V30 10721 C 1016.54 -4.03861 -1.31079 0
M  V30 10722 O 1017.56 -3.4083 -1.03507 0
M  V30 10723 O 1016.42 -5.15062 -1.82683 0
M  V30 10724 H 1013.52 -0.766822 -0.309697 0
M  V30 10725 H 1016.06 -1.69282 0.118966 0
M  V30 10726 H 1014.83 -3.91257 -0.0580628 0
M  V30 10727 H 1014.46 -3.57525 -1.73958 0
M  V30 10728 N 1015.45 0.186762 -1.56489 0
M  V30 10729 C 1016.7 0.904077 -1.80303 0
M  V30 10730 C 1017.02 1.84073 -0.661538 0
M  V30 10731 O 1018.22 2.59928 -0.784197 0
M  V30 10732 C 1016.68 1.65806 -3.19432 0
M  V30 10733 C 1016.29 0.765807 -4.41406 0
M  V30 10734 C 1018.03 2.36451 -3.52549 0
M  V30 10735 C 1015.94 1.51913 -5.71556 0
M  V30 10736 H 1014.87 0.34133 -0.672317 0
M  V30 10737 H 1017.52 0.157218 -1.82825 0
M  V30 10738 H 1015.9 2.44911 -3.11183 0
M  V30 10739 H 1017.07 0.0128225 -4.60798 0
M  V30 10740 H 1015.39 0.169772 -4.16054 0
M  V30 10741 H 1017.99 2.93378 -4.47027 0
M  V30 10742 H 1018.33 3.11044 -2.7669 0
M  V30 10743 H 1018.86 1.64305 -3.62283 0
M  V30 10744 H 1015.6 0.815829 -6.50403 0
M  V30 10745 H 1015.12 2.24583 -5.56168 0
M  V30 10746 H 1016.8 2.07073 -6.12968 0
M  V30 10747 N 1016.93 1.50896 0.454776 0
M  V30 10748 C 1017.86 1.73885 1.5584 0
M  V30 10749 C 1018.84 0.588172 1.59607 0
M  V30 10750 O 1020.03 0.829054 1.75614 0
M  V30 10751 C 1017.16 1.84796 2.94054 0
M  V30 10752 C 1016.11 3.00111 3.05152 0
M  V30 10753 C 1015.44 2.96183 4.45174 0
M  V30 10754 C 1016.74 4.40365 2.80849 0
M  V30 10755 H 1018.43 2.66292 1.36854 0
M  V30 10756 H 1015.98 1.28142 0.656936 0
M  V30 10757 H 1017.93 1.99462 3.71204 0
M  V30 10758 H 1016.66 0.890235 3.14233 0
M  V30 10759 H 1015.31 2.85121 2.30438 0
M  V30 10760 H 1014.96 1.98224 4.62295 0
M  V30 10761 H 1014.66 3.73608 4.53532 0
M  V30 10762 H 1016.19 3.1292 5.24322 0
M  V30 10763 H 1017.6 4.55795 3.47741 0
M  V30 10764 H 1016 5.19363 3.00636 0
M  V30 10765 H 1017.07 4.51606 1.76579 0
M  V30 10766 N 1018.41 -0.709066 1.40748 0
M  V30 10767 C 1019.64 -1.49808 1.42707 0
M  V30 10768 C 1020.05 -1.88778 0.0285574 0
M  V30 10769 O 1019.41 -1.55883 -0.949035 0
M  V30 10770 C 1019.46 -2.76926 2.32366 0
M  V30 10771 O 1019.18 -2.39602 3.66773 0
M  V30 10772 C 1020.68 -3.70773 2.42986 0
M  V30 10773 H 1017.9 -0.462106 0.486517 0
M  V30 10774 H 1020.45 -0.874135 1.84876 0
M  V30 10775 H 1018.6 -3.3559 1.93541 0
M  V30 10776 H 1019.02 -3.21443 4.14457 0
M  V30 10777 H 1020.49 -4.56789 3.09916 0
M  V30 10778 H 1020.97 -4.14332 1.45691 0
M  V30 10779 H 1021.57 -3.18019 2.8239 0
M  V30 10780 N 1019.89 -1.26353 -0.941956 0
M  V30 10781 C 1020.8 -1.09618 -2.07415 0
M  V30 10782 C 1021.82 -0.0298963 -1.73974 0
M  V30 10783 O 1022.99 -0.233466 -2.00042 0
M  V30 10784 C 1020.06 -0.73013 -3.38925 0
M  V30 10785 C 1019.12 -1.87574 -3.86153 0
M  V30 10786 C 1018.35 -1.52706 -5.11387 0
M  V30 10787 O 1018.57 -0.428438 -5.68789 0
M  V30 10788 O 1017.51 -2.36154 -5.53638 0
M  V30 10789 H 1021.33 -2.04598 -2.2444 0
M  V30 10790 H 1018.92 -1.05407 -1.05876 0
M  V30 10791 H 1020.8 -0.538684 -4.17943 0
M  V30 10792 H 1019.48 0.190282 -3.2314 0
M  V30 10793 H 1018.38 -2.12214 -3.08084 0
M  V30 10794 H 1019.72 -2.77585 -4.06457 0
M  V30 10795 N 1021.37 1.14642 -1.08144 0
M  V30 10796 C 1022.61 1.85892 -0.810683 0
M  V30 10797 C 1022.95 1.82575 0.661821 0
M  V30 10798 O 1022.22 1.25454 1.48632 0
M  V30 10799 C 1022.5 3.34647 -1.32979 0
M  V30 10800 C 1022.36 3.46551 -2.86744 0
M  V30 10801 C 1023.68 4.29661 -0.952864 0
M  V30 10802 H 1020.8 0.674963 -0.295963 0
M  V30 10803 H 1023.44 1.3464 -1.3406 0
M  V30 10804 H 1021.59 3.78425 -0.87903 0
M  V30 10805 H 1023.26 3.11579 -3.40171 0
M  V30 10806 H 1021.5 2.87849 -3.24539 0
M  V30 10807 H 1022.17 4.51101 -3.18138 0
M  V30 10808 H 1024.65 3.93885 -1.34141 0
M  V30 10809 H 1023.53 5.32209 -1.34331 0
M  V30 10810 H 1023.79 4.41877 0.140392 0
M  V30 10811 N 1022.85 0.866709 1.31628 0
M  V30 10812 C 1023.76 0.323408 2.3236 0
M  V30 10813 C 1024.77 -0.564995 1.64572 0
M  V30 10814 O 1025.95 -0.462489 1.96018 0
M  V30 10815 C 1023.01 -0.469045 3.43513 0
M  V30 10816 C 1022.07 0.446928 4.26967 0
M  V30 10817 C 1021.31 -0.307799 5.32812 0
M  V30 10818 O 1021.53 -1.5363 5.49321 0
M  V30 10819 O 1020.46 0.332653 6.0098 0
M  V30 10820 H 1024.29 1.15827 2.80745 0
M  V30 10821 H 1021.87 0.629987 1.35468 0
M  V30 10822 H 1023.76 -0.918405 4.1127 0
M  V30 10823 H 1022.43 -1.28051 2.97296 0
M  V30 10824 H 1021.34 0.944719 3.61975 0
M  V30 10825 H 1022.67 1.2239 4.76741 0
M  V30 10826 N 1024.32 -1.44642 0.625825 0
M  V30 10827 C 1025.57 -2.01308 0.125682 0
M  V30 10828 C 1025.89 -1.49773 -1.25807 0
M  V30 10829 O 1027.09 -1.98533 -1.85194 0
M  V30 10830 C 1025.55 -3.59479 0.17395 0
M  V30 10831 C 1025.16 -4.20011 1.55868 0
M  V30 10832 C 1026.9 -4.2364 -0.270005 0
M  V30 10833 C 1024.81 -5.7039 1.56235 0
M  V30 10834 H 1023.74 -0.75276 0.0432194 0
M  V30 10835 H 1026.39 -1.65916 0.783842 0
M  V30 10836 H 1024.77 -3.92145 -0.551212 0
M  V30 10837 H 1025.94 -3.98891 2.307 0
M  V30 10838 H 1024.26 -3.68116 1.94627 0
M  V30 10839 H 1026.86 -5.33931 -0.28672 0
M  V30 10840 H 1027.2 -3.95603 -1.29629 0
M  V30 10841 H 1027.73 -3.95759 0.402487 0
M  V30 10842 H 1024.47 -6.03154 2.56683 0
M  V30 10843 H 1023.99 -5.93648 0.856881 0
M  V30 10844 H 1025.67 -6.33929 1.29396 0
M  V30 10845 N 1025.8 -0.366053 -1.5329 0
M  V30 10846 C 1026.73 0.47211 -2.28677 0
M  V30 10847 C 1027.71 1.08353 -1.31125 0
M  V30 10848 O 1028.9 1.10069 -1.59995 0
M  V30 10849 C 1026.03 1.61174 -3.07637 0
M  V30 10850 C 1024.98 1.12755 -4.12881 0
M  V30 10851 C 1024.31 2.35745 -4.79925 0
M  V30 10852 C 1025.61 0.211954 -5.2187 0
M  V30 10853 H 1027.3 -0.156838 -2.98989 0
M  V30 10854 H 1024.85 -0.0768709 -1.43795 0
M  V30 10855 H 1026.8 2.20473 -3.59123 0
M  V30 10856 H 1025.52 2.26793 -2.35016 0
M  V30 10857 H 1024.18 0.557234 -3.6234 0
M  V30 10858 H 1023.83 2.99821 -4.03877 0
M  V30 10859 H 1023.53 2.04019 -5.51044 0
M  V30 10860 H 1025.06 2.95729 -5.34207 0
M  V30 10861 H 1026.47 0.71244 -5.68856 0
M  V30 10862 H 1024.87 -0.0144501 -6.00098 0
M  V30 10863 H 1025.94 -0.745753 -4.79131 0
M  V30 10864 N 1027.28 1.57312 -0.0952337 0
M  V30 10865 C 1028.24 2.12889 0.849161 0
M  V30 10866 C 1029.24 1.05819 1.21075 0
M  V30 10867 O 1030.43 1.31704 1.14016 0
M  V30 10868 C 1027.56 2.6496 2.14498 0
M  V30 10869 H 1028.76 2.97651 0.366566 0
M  V30 10870 H 1026.31 1.55542 0.153762 0
M  V30 10871 H 1027.05 1.83718 2.67242 0
M  V30 10872 H 1026.83 3.43244 1.89542 0
M  V30 10873 H 1028.32 3.07952 2.82056 0
M  V30 10874 N 1028.76 -0.17846 1.56586 0
M  V30 10875 C 1030 -0.897562 1.81856 0
M  V30 10876 C 1030.34 -1.82204 0.671955 0
M  V30 10877 O 1029.61 -1.91739 -0.326535 0
M  V30 10878 C 1029.89 -1.69942 3.17477 0
M  V30 10879 C 1029.75 -0.798545 4.42655 0
M  V30 10880 C 1031.07 -2.66861 3.49962 0
M  V30 10881 H 1028.19 -0.324863 0.661539 0
M  V30 10882 H 1030.83 -0.164106 1.8929 0
M  V30 10883 H 1028.98 -2.32471 3.11271 0
M  V30 10884 H 1030.65 -0.18668 4.60922 0
M  V30 10885 H 1028.89 -0.106181 4.3367 0
M  V30 10886 H 1029.56 -1.39496 5.34083 0
M  V30 10887 H 1032.04 -2.1446 3.56576 0
M  V30 10888 H 1030.92 -3.20037 4.45946 0
M  V30 10889 H 1031.18 -3.46715 2.74301 0
M  V30 10890 N 1030.24 -1.51135 -0.446768 0
M  V30 10891 C 1031.48 -1.62571 -1.19388 0
M  V30 10892 C 1031.8 -0.3432 -1.92566 0
M  V30 10893 O 1033 -0.336804 -2.69403 0
M  V30 10894 C 1031.46 -2.87071 -2.17068 0
M  V30 10895 C 1031.07 -4.22291 -1.49581 0
M  V30 10896 C 1032.81 -3.07862 -2.9227 0
M  V30 10897 C 1030.72 -5.3795 -2.45689 0
M  V30 10898 H 1029.65 -0.60549 -0.449331 0
M  V30 10899 H 1032.3 -1.77593 -0.461846 0
M  V30 10900 H 1030.68 -2.65662 -2.93666 0
M  V30 10901 H 1031.86 -4.54046 -0.786054 0
M  V30 10902 H 1030.17 -4.07302 -0.865677 0
M  V30 10903 H 1032.77 -3.91444 -3.64246 0
M  V30 10904 H 1033.11 -2.20559 -3.53072 0
M  V30 10905 H 1033.64 -3.29566 -2.2278 0
M  V30 10906 H 1030.38 -6.27484 -1.89591 0
M  V30 10907 H 1029.9 -5.10583 -3.14746 0
M  V30 10908 H 1031.58 -5.69517 -3.07017 0
M  V30 10909 N 1031.71 0.701592 -1.41122 0
M  V30 10910 C 1032.96 1.46376 -1.40363 0
M  V30 10911 C 1033.29 1.94197 -0.0105442 0
M  V30 10912 O 1032.57 1.69121 0.960637 0
M  V30 10913 C 1032.85 2.67994 -2.40523 0
M  V30 10914 C 1032.7 2.25977 -3.88914 0
M  V30 10915 C 1034.02 3.70181 -2.38022 0
M  V30 10916 H 1031.14 0.530929 -0.511159 0
M  V30 10917 H 1033.78 0.799588 -1.72356 0
M  V30 10918 H 1031.93 3.24661 -2.13372 0
M  V30 10919 H 1033.61 1.74684 -4.26946 0
M  V30 10920 H 1031.85 1.57826 -4.04071 0
M  V30 10921 H 1032.52 3.13215 -4.54533 0
M  V30 10922 H 1035 3.23174 -2.62103 0
M  V30 10923 H 1033.87 4.52894 -3.10127 0
M  V30 10924 H 1034.13 4.19458 -1.3967 0
M  V30 10925 N 1033.19 1.2685 0.935242 0
M  V30 10926 C 1034.44 1.12522 1.67878 0
M  V30 10927 C 1034.76 -0.330894 1.92172 0
M  V30 10928 O 1034.03 -1.23259 1.52263 0
M  V30 10929 H 1032.61 0.413418 0.622169 0
M  V30 10930 H 1035.27 1.59267 1.12339 0
M  V30 10931 H 1034.37 1.64853 2.65009 0
M  V30 10932 N 1034.67 -1.14067 1.0875 0
M  V30 10933 C 1035.91 -1.8684 0.828873 0
M  V30 10934 C 1036.27 -1.81235 -0.633879 0
M  V30 10935 O 1037.48 -2.49178 -1.00815 0
M  V30 10936 C 1035.75 -3.31299 1.34073 0
M  V30 10937 S 1037.31 -4.21645 1.21494 0
M  V30 10938 H 1034.12 -0.644622 0.299972 0
M  V30 10939 H 1036.73 -1.37526 1.38949 0
M  V30 10940 H 1035.43 -3.32929 2.39972 0
M  V30 10941 H 1034.96 -3.85672 0.775944 0
M  V30 10942 H 1036.98 -4.95937 0.161446 0
M  V30 10943 N 1036.15 -0.873678 -1.31166 0
M  V30 10944 C 1037.08 -0.348011 -2.30892 0
M  V30 10945 C 1038.06 0.563092 -1.60509 0
M  V30 10946 O 1039.24 0.479332 -1.88192 0
M  V30 10947 C 1036.37 0.448158 -3.44396 0
M  V30 10948 C 1035.33 -0.370179 -4.26396 0
M  V30 10949 C 1034.65 0.551903 -5.31844 0
M  V30 10950 C 1035.95 -1.60624 -4.96988 0
M  V30 10951 H 1037.65 -1.18134 -2.75109 0
M  V30 10952 H 1035.19 -0.569502 -1.3226 0
M  V30 10953 H 1037.15 0.826458 -4.13216 0
M  V30 10954 H 1035.87 1.31503 -2.98956 0
M  V30 10955 H 1034.53 -0.730472 -3.59249 0
M  V30 10956 H 1034.18 1.41616 -4.82653 0
M  V30 10957 H 1033.88 0.00823478 -5.87599 0
M  V30 10958 H 1035.4 0.926965 -6.03523 0
M  V30 10959 H 1036.82 -1.29917 -5.58386 0
M  V30 10960 H 1035.21 -2.08926 -5.62557 0
M  V30 10961 H 1036.28 -2.357 -4.23761 0
M  V30 10962 N 1037.63 1.44308 -0.633487 0
M  V30 10963 C 1038.87 2.03904 -0.14226 0
M  V30 10964 C 1039.23 1.48768 1.21376 0
M  V30 10965 O 1040.43 1.99882 1.79724 0
M  V30 10966 C 1038.7 3.5716 -0.130975 0
M  V30 10967 S 1040.26 4.37805 0.295287 0
M  V30 10968 H 1037.08 0.70827 -0.0622429 0
M  V30 10969 H 1039.68 1.76657 -0.837405 0
M  V30 10970 H 1038.39 3.94794 -1.12096 0
M  V30 10971 H 1037.92 3.89021 0.585342 0
M  V30 10972 H 1039.93 4.71732 1.53894 0
M  V30 10973 N 1039.1 0.374177 1.53094 0
M  V30 10974 C 1040.05 -0.484848 2.22785 0
M  V30 10975 C 1041.04 -1.04181 1.22617 0
M  V30 10976 O 1042.23 -0.97043 1.48026 0
M  V30 10977 C 1039.36 -1.61956 3.02696 0
M  V30 10978 C 1038.45 -1.07506 4.10248 0
M  V30 10979 N 1038.84 -0.254253 5.05161 0
M  V30 10980 C 1037.13 -1.34904 4.25108 0
M  V30 10981 C 1037.84 0.0448558 5.81683 0
M  V30 10982 N 1036.81 -0.555073 5.40759 0
M  V30 10983 H 1040.61 0.148976 2.93522 0
M  V30 10984 H 1038.13 0.182656 1.6137 0
M  V30 10985 H 1040.12 -2.24723 3.51148 0
M  V30 10986 H 1038.78 -2.25636 2.33492 0
M  V30 10987 H 1039.8 0.107256 5.17789 0
M  V30 10988 H 1036.47 -1.98799 3.67131 0
M  V30 10989 H 1037.86 0.708952 6.68149 0
M  V30 10990 N 1040.58 -1.57259 0.103575 0
M  V30 10991 C 1041.86 -1.86143 -0.600852 0
M  V30 10992 C 1042.24 -1.00198 -1.85805 0
M  V30 10993 O 1041.59 -0.0766791 -2.28371 0
M  V30 10994 C 1041.8 -3.36978 -0.908108 0
M  V30 10995 C 1043.15 -4.05228 -1.26788 0
M  V30 10996 O 1044.17 -3.41908 -0.998859 0
M  V30 10997 O 1043.03 -5.16971 -1.7721 0
M  V30 10998 H 1040.12 -0.770064 -0.301547 0
M  V30 10999 H 1042.67 -1.69147 0.136914 0
M  V30 11000 H 1041.44 -3.91296 -0.0165615 0
M  V30 11001 H 1041.06 -3.5935 -1.70156 0
M  V30 11002 N 1042.06 0.170153 -1.56679 0
M  V30 11003 C 1042.99 1.21285 -1.9953 0
M  V30 11004 C 1043.97 1.46104 -0.871071 0
M  V30 11005 O 1045.16 1.57419 -1.13724 0
M  V30 11006 C 1042.29 2.5515 -2.35618 0
M  V30 11007 C 1041.24 2.44898 -3.51011 0
M  V30 11008 C 1040.57 3.83263 -3.72845 0
M  V30 11009 C 1041.87 1.95271 -4.84424 0
M  V30 11010 H 1043.56 0.856646 -2.86883 0
M  V30 11011 H 1041.11 0.410634 -1.38021 0
M  V30 11012 H 1043.06 3.28299 -2.64193 0
M  V30 11013 H 1041.78 2.92561 -1.45175 0
M  V30 11014 H 1040.44 1.74203 -3.22566 0
M  V30 11015 H 1040.09 4.18069 -2.79691 0
M  V30 11016 H 1039.79 3.77272 -4.50488 0
M  V30 11017 H 1041.31 4.57996 -4.03822 0
M  V30 11018 H 1042.73 2.58195 -5.11867 0
M  V30 11019 H 1041.13 2.00225 -5.65712 0
M  V30 11020 H 1042.2 0.90709 -4.7634 0
M  V30 11021 N 1043.54 1.5137 0.438746 0
M  V30 11022 C 1044.82 1.54508 1.19944 0
M  V30 11023 C 1045.2 0.308525 2.08833 0
M  V30 11024 O 1044.54 -0.706461 2.17305 0
M  V30 11025 C 1044.75 2.85833 2.00251 0
M  V30 11026 C 1046.1 3.37729 2.5734 0
M  V30 11027 O 1047.13 2.87374 2.10463 0
M  V30 11028 O 1045.98 4.25589 3.42836 0
M  V30 11029 H 1043.08 0.621132 0.546007 0
M  V30 11030 H 1045.62 1.63682 0.447931 0
M  V30 11031 H 1044.4 3.67291 1.34955 0
M  V30 11032 H 1044.02 2.79815 2.8247 0
M  V30 11033 N 1045.02 -0.694098 1.41492 0
M  V30 11034 C 1045.97 -1.80016 1.39923 0
M  V30 11035 C 1046.95 -1.58561 0.273377 0
M  V30 11036 O 1048.14 -1.69368 0.514157 0
M  V30 11037 C 1045.27 -3.18333 1.28526 0
M  V30 11038 C 1044.36 -3.45478 2.45979 0
M  V30 11039 N 1044.75 -3.43313 3.71443 0
M  V30 11040 C 1043.05 -3.76033 2.39824 0
M  V30 11041 C 1043.75 -3.69404 4.4935 0
M  V30 11042 N 1042.72 -3.89221 3.79484 0
M  V30 11043 H 1046.53 -1.76707 2.34844 0
M  V30 11044 H 1044.04 -0.894148 1.35568 0
M  V30 11045 H 1046.04 -3.97567 1.25484 0
M  V30 11046 H 1044.7 -3.22852 0.345904 0
M  V30 11047 H 1045.71 -3.2366 4.04308 0
M  V30 11048 H 1042.38 -3.87913 1.54368 0
M  V30 11049 H 1043.77 -3.73854 5.58285 0
M  V30 11050 N 1046.49 -1.27344 -0.928501 0
M  V30 11051 C 1047.91 -1.04732 -1.2043 0
M  V30 11052 C 1048.11 0.219623 -2.003 0
M  V30 11053 O 1047.17 0.925333 -2.34934 0
M  V30 11054 C 1048.48 -2.28625 -1.95323 0
M  V30 11055 C 1050.03 -2.33655 -2.08265 0
M  V30 11056 C 1050.5 -3.57275 -2.86563 0
M  V30 11057 N 1051.99 -3.57828 -2.94132 0
M  V30 11058 C 1052.73 -4.50152 -3.55177 0
M  V30 11059 N 1052.22 -5.52779 -4.17621 0
M  V30 11060 N 1054.02 -4.37777 -3.52573 0
M  V30 11061 H 1046.17 -2.08697 -0.394892 0
M  V30 11062 H 1048.43 -0.91782 -0.2373 0
M  V30 11063 H 1048.14 -3.20845 -1.44054 0
M  V30 11064 H 1048.01 -2.33878 -2.95941 0
M  V30 11065 H 1050.4 -1.41942 -2.58721 0
M  V30 11066 H 1050.48 -2.32406 -1.0687 0
M  V30 11067 H 1050.12 -4.49325 -2.3679 0
M  V30 11068 H 1050.05 -3.55775 -3.88242 0
M  V30 11069 H 1052.54 -2.83607 -2.49751 0
M  V30 11070 H 1052.86 -6.19394 -4.62137 0
M  V30 11071 H 1051.2 -5.56622 -4.16169 0
M  V30 11072 H 1054.39 -3.56811 -3.02991 0
M  V30 11073 H 1054.57 -5.09919 -3.99858 0
M  V30 11074 N 1047.97 1.13488 -1.09353 0
M  V30 11075 C 1049.22 1.84383 -0.827488 0
M  V30 11076 C 1049.54 1.83892 0.648745 0
M  V30 11077 O 1048.81 1.29415 1.47066 0
M  V30 11078 H 1047.39 0.682732 -0.303127 0
M  V30 11079 H 1050.05 1.37477 -1.38152 0
M  V30 11080 H 1049.15 2.88919 -1.18035 0
M  V30 11081 N 1049.45 0.880621 1.30701 0
M  V30 11082 C 1050.68 0.511682 2.00473 0
M  V30 11083 C 1051.09 -0.898684 1.6604 0
M  V30 11084 O 1050.45 -1.59035 0.895218 0
M  V30 11085 C 1050.5 0.671723 3.55204 0
M  V30 11086 O 1050.22 2.02656 3.8841 0
M  V30 11087 C 1051.72 0.3052 4.42248 0
M  V30 11088 H 1048.94 0.198231 0.64105 0
M  V30 11089 H 1051.49 1.18472 1.66687 0
M  V30 11090 H 1049.64 0.0461066 3.87373 0
M  V30 11091 H 1050.06 2.04202 4.83117 0
M  V30 11092 H 1051.53 0.468095 5.50012 0
M  V30 11093 H 1052.01 -0.756456 4.32637 0
M  V30 11094 H 1052.61 0.906959 4.15517 0
M  V30 11095 N 1050.93 -1.4397 0.641131 0
M  V30 11096 C 1051.88 -2.32495 -0.0698668 0
M  V30 11097 C 1052.87 -1.47922 -0.825555 0
M  V30 11098 O 1054.08 -1.64206 -0.737323 0
M  V30 11099 H 1050.45 -0.750861 -0.0413706 0
M  V30 11100 H 1052.42 -2.90201 0.694682 0
M  V30 11101 C 1051.17 -3.32063 -1.03098 0
M  V30 11102 H 1050.5 -3.97157 -0.458923 0
M  V30 11103 H 1051.94 -3.96664 -1.49778 0
M  V30 11104 C 1050.39 -2.61743 -2.12113 0
M  V30 11105 O 1050.92 -2.42385 -3.20332 0
M  V30 11106 N 1049.13 -2.21316 -1.88328 0
M  V30 11107 H 1048.68 -2.37261 -1.00324 0
M  V30 11108 H 1048.64 -1.74594 -2.61465 0
M  V30 11109 N 1052.41 -0.382291 -1.52893 0
M  V30 11110 C 1053.36 0.471187 -2.27778 0
M  V30 11111 C 1054.35 1.0691 -1.31402 0
M  V30 11112 O 1055.56 1.01038 -1.48967 0
M  V30 11113 H 1051.93 0.170696 -0.732371 0
M  V30 11114 H 1053.9 -0.181954 -2.97845 0
M  V30 11115 C 1052.65 1.59012 -3.09209 0
M  V30 11116 H 1051.97 1.13935 -3.83222 0
M  V30 11117 H 1053.41 2.16167 -3.64757 0
M  V30 11118 C 1051.87 2.54212 -2.21084 0
M  V30 11119 O 1052.4 3.57447 -1.83288 0
M  V30 11120 N 1050.61 2.23789 -1.85383 0
M  V30 11121 H 1050.16 1.39872 -2.16318 0
M  V30 11122 H 1050.11 2.87737 -1.26708 0
M  V30 11123 N 1053.89 1.57202 -0.111913 0
M  V30 11124 C 1054.85 2.13778 0.826534 0
M  V30 11125 C 1055.85 1.07097 1.19945 0
M  V30 11126 O 1057.04 1.32906 1.12613 0
M  V30 11127 C 1054.17 2.6722 2.11675 0
M  V30 11128 H 1055.36 2.98023 0.334975 0
M  V30 11129 H 1052.92 1.55696 0.137256 0
M  V30 11130 H 1053.65 1.86542 2.65278 0
M  V30 11131 H 1053.44 3.45235 1.8589 0
M  V30 11132 H 1054.93 3.10926 2.78774 0
M  V30 11133 N 1055.36 -0.161842 1.56767 0
M  V30 11134 C 1056.61 -0.876925 1.82527 0
M  V30 11135 C 1056.94 -1.81831 0.690492 0
M  V30 11136 O 1056.19 -1.9304 -0.32159 0
M  V30 11137 C 1056.49 -1.69736 3.14522 0
M  V30 11138 C 1056.16 -0.904075 4.41743 0
M  V30 11139 C 1054.82 -0.685168 4.76297 0
M  V30 11140 C 1057.17 -0.348282 5.20035 0
M  V30 11141 C 1054.5 0.10048 5.86614 0
M  V30 11142 C 1056.85 0.424327 6.31175 0
M  V30 11143 C 1055.52 0.653948 6.64289 0
M  V30 11144 H 1054.79 -0.320889 0.667915 0
M  V30 11145 H 1057.43 -0.141338 1.90978 0
M  V30 11146 H 1055.74 -2.50262 3.01456 0
M  V30 11147 H 1057.44 -2.25386 3.31666 0
M  V30 11148 H 1054.03 -1.08474 4.14646 0
M  V30 11149 H 1058.21 -0.504721 4.93727 0
M  V30 11150 H 1053.47 0.288029 6.10721 0
M  V30 11151 H 1057.64 0.862203 6.91042 0
M  V30 11152 H 1055.27 1.26459 7.49608 0
M  V30 11153 N 1056.84 -1.516 -0.430713 0
M  V30 11154 C 1057.77 -1.69594 -1.54177 0
M  V30 11155 C 1058.79 -0.576518 -1.5225 0
M  V30 11156 O 1059.98 -0.85104 -1.56906 0
M  V30 11157 C 1057.08 -1.70148 -2.93092 0
M  V30 11158 C 1056.25 -2.98782 -3.1945 0
M  V30 11159 C 1055.31 -2.91435 -4.38123 0
M  V30 11160 O 1054.33 -3.65372 -4.36454 0
M  V30 11161 N 1055.54 -2.0774 -5.42056 0
M  V30 11162 H 1058.3 -2.65442 -1.39143 0
M  V30 11163 H 1055.86 -1.49569 -0.61974 0
M  V30 11164 H 1057.85 -1.62793 -3.70514 0
M  V30 11165 H 1056.42 -0.818667 -3.0169 0
M  V30 11166 H 1055.64 -3.19954 -2.30267 0
M  V30 11167 H 1056.93 -3.83919 -3.33892 0
M  V30 11168 H 1056.33 -1.47059 -5.46251 0
M  V30 11169 H 1054.89 -2.06259 -6.18305 0
M  V30 11170 N 1058.32 0.686584 -1.41858 0
M  V30 11171 C 1059.28 1.78214 -1.44126 0
M  V30 11172 C 1060.28 1.57366 -0.330541 0
M  V30 11173 O 1061.47 1.63874 -0.590837 0
M  V30 11174 C 1058.6 3.16704 -1.26142 0
M  V30 11175 H 1059.8 1.77594 -2.41661 0
M  V30 11176 H 1057.35 0.895085 -1.28132 0
M  V30 11177 H 1058.09 3.22957 -0.294823 0
M  V30 11178 H 1057.87 3.33238 -2.06627 0
M  V30 11179 H 1059.36 3.96658 -1.30584 0
M  V30 11180 N 1059.8 1.27835 0.921735 0
M  V30 11181 C 1060.74 1.11075 2.02314 0
M  V30 11182 C 1061.71 0.0101195 1.66097 0
M  V30 11183 O 1062.9 0.173564 1.90009 0
M  V30 11184 C 1060.04 0.770251 3.36394 0
M  V30 11185 C 1059.15 1.94912 3.8553 0
M  V30 11186 C 1058.29 1.54996 5.08084 0
M  V30 11187 C 1057.33 2.69595 5.49531 0
M  V30 11188 N 1056.46 2.30227 6.6328 0
M  V30 11189 H 1061.3 2.05319 2.15982 0
M  V30 11190 H 1058.84 1.022 1.058 0
M  V30 11191 H 1060.8 0.553624 4.1351 0
M  V30 11192 H 1059.43 -0.135238 3.22517 0
M  V30 11193 H 1058.48 2.27811 3.04641 0
M  V30 11194 H 1059.79 2.80858 4.12214 0
M  V30 11195 H 1058.95 1.29493 5.9272 0
M  V30 11196 H 1057.69 0.661676 4.83191 0
M  V30 11197 H 1056.69 2.95806 4.63442 0
M  V30 11198 H 1057.92 3.59054 5.76417 0
M  V30 11199 H 1055.86 1.43858 6.40032 0
M  V30 11200 H 1055.78 3.09711 6.89649 0
M  V30 11201 H 1057.05 2.07987 7.5124 0
M  V30 11202 N 1061.28 -1.12907 1.09954 0
M  V30 11203 C 1062.5 -1.88679 0.861099 0
M  V30 11204 C 1062.93 -1.78853 -0.582499 0
M  V30 11205 O 1062.28 -1.13992 -1.4098 0
M  V30 11206 C 1062.33 -3.36047 1.30785 0
M  V30 11207 O 1061.44 -4.09716 0.469728 0
M  V30 11208 H 1060.78 -0.586447 0.31141 0
M  V30 11209 H 1063.31 -1.42818 1.46507 0
M  V30 11210 H 1063.32 -3.86882 1.29562 0
M  V30 11211 H 1061.99 -3.42516 2.35914 0
M  V30 11212 H 1060.57 -3.6887 0.54674 0
M  V30 11213 N 1062.75 -0.88754 -1.30232 0
M  V30 11214 C 1064 -0.506277 -1.95656 0
M  V30 11215 C 1064.32 0.948191 -1.70395 0
M  V30 11216 O 1063.59 1.66701 -1.02895 0
M  V30 11217 H 1062.17 -0.184235 -0.723924 0
M  V30 11218 H 1064.83 -1.13118 -1.58715 0
M  V30 11219 H 1063.93 -0.678673 -3.04632 0
M  V30 11220 N 1064.23 1.43628 -0.648757 0
M  V30 11221 C 1065.46 2.06732 -0.166284 0
M  V30 11222 C 1065.88 1.48281 1.15734 0
M  V30 11223 O 1065.24 0.591018 1.71396 0
M  V30 11224 C 1065.29 3.60502 -0.0838732 0
M  V30 11225 O 1064.39 4.01186 0.955185 0
M  V30 11226 H 1063.73 0.657479 -0.0928285 0
M  V30 11227 H 1066.26 1.84208 -0.890421 0
M  V30 11228 H 1066.27 4.07875 0.100923 0
M  V30 11229 H 1064.95 4.02424 -1.05014 0
M  V30 11230 H 1063.53 3.65412 0.743537 0
M  V30 11231 N 1065.71 0.390394 1.52688 0
M  V30 11232 C 1066.67 -0.432149 2.25089 0
M  V30 11233 C 1067.67 -0.989296 1.26766 0
M  V30 11234 O 1068.86 -0.871126 1.50854 0
M  V30 11235 C 1066 -1.60642 3.00678 0
M  V30 11236 H 1067.19 0.201734 2.99221 0
M  V30 11237 H 1064.74 0.142531 1.55649 0
M  V30 11238 H 1065.48 -2.2777 2.3085 0
M  V30 11239 H 1065.26 -1.21361 3.72846 0
M  V30 11240 H 1066.75 -2.18873 3.55647 0
M  V30 11241 N 1067.19 -1.57141 0.120249 0
M  V30 11242 C 1068.12 -2.18398 -0.826112 0
M  V30 11243 C 1069.1 -1.12439 -1.27638 0
M  V30 11244 O 1070.28 -1.40679 -1.33877 0
M  V30 11245 C 1067.41 -2.78438 -2.0758 0
M  V30 11246 C 1066.37 -3.89991 -1.76327 0
M  V30 11247 C 1065.69 -4.36844 -3.08336 0
M  V30 11248 C 1066.99 -5.12031 -1.03062 0
M  V30 11249 H 1068.69 -2.97731 -0.315656 0
M  V30 11250 H 1066.23 -1.43213 -0.150387 0
M  V30 11251 H 1068.19 -3.19951 -2.74243 0
M  V30 11252 H 1066.91 -1.96396 -2.60953 0
M  V30 11253 H 1065.57 -3.49055 -1.12053 0
M  V30 11254 H 1065.22 -3.51659 -3.59646 0
M  V30 11255 H 1064.92 -5.1207 -2.88199 0
M  V30 11256 H 1066.44 -4.81009 -3.76116 0
M  V30 11257 H 1067.86 -5.50555 -1.59881 0
M  V30 11258 H 1066.25 -5.92848 -0.930146 0
M  V30 11259 H 1067.32 -4.84897 -0.017582 0
M  V30 11260 N 1068.67 0.153526 -1.5685 0
M  V30 11261 C 1069.63 1.17362 -1.96873 0
M  V30 11262 C 1070.63 1.36219 -0.854456 0
M  V30 11263 O 1071.82 1.33322 -1.1212 0
M  V30 11264 C 1068.95 2.53523 -2.27901 0
M  V30 11265 H 1070.14 0.830432 -2.88173 0
M  V30 11266 H 1067.7 0.396633 -1.51184 0
M  V30 11267 H 1068.43 2.92824 -1.39371 0
M  V30 11268 H 1068.22 2.41198 -3.09137 0
M  V30 11269 H 1069.71 3.27006 -2.59725 0
M  V30 11270 N 1070.14 1.51827 0.422667 0
M  V30 11271 C 1071.08 1.70409 1.53275 0
M  V30 11272 C 1072.09 0.584584 1.51942 0
M  V30 11273 O 1073.28 0.859349 1.56453 0
M  V30 11274 C 1070.38 1.717 2.92185 0
M  V30 11275 C 1069.55 3.00472 3.17861 0
M  V30 11276 C 1068.61 2.93755 4.36571 0
M  V30 11277 O 1067.64 3.67682 4.3451 0
M  V30 11278 N 1068.84 2.10612 5.40946 0
M  V30 11279 H 1071.6 2.66176 1.37734 0
M  V30 11280 H 1069.16 1.49895 0.611799 0
M  V30 11281 H 1071.16 1.64756 3.69645 0
M  V30 11282 H 1069.73 0.834655 3.01251 0
M  V30 11283 H 1068.95 3.21171 2.28567 0
M  V30 11284 H 1070.23 3.85684 3.31851 0
M  V30 11285 H 1069.63 1.49954 5.45463 0
M  V30 11286 H 1068.19 2.09535 6.17202 0
M  V30 11287 N 1071.62 -0.679052 1.4222 0
M  V30 11288 C 1072.55 -1.80481 1.48152 0
M  V30 11289 C 1073.53 -1.66698 0.338502 0
M  V30 11290 O 1074.72 -1.86183 0.552228 0
M  V30 11291 C 1071.85 -3.18746 1.37908 0
M  V30 11292 C 1070.8 -3.47258 2.50192 0
M  V30 11293 C 1070.13 -4.85052 2.25008 0
M  V30 11294 C 1071.43 -3.44576 3.92511 0
M  V30 11295 H 1073.12 -1.75774 2.42371 0
M  V30 11296 H 1070.67 -0.844241 1.16656 0
M  V30 11297 H 1072.62 -3.97229 1.40666 0
M  V30 11298 H 1071.35 -3.24119 0.401806 0
M  V30 11299 H 1070 -2.71133 2.46744 0
M  V30 11300 H 1069.65 -4.8707 1.25584 0
M  V30 11301 H 1069.35 -5.05092 3.00259 0
M  V30 11302 H 1070.88 -5.65825 2.29508 0
M  V30 11303 H 1072.29 -4.13036 3.97585 0
M  V30 11304 H 1070.69 -3.76151 4.67579 0
M  V30 11305 H 1071.76 -2.4323 4.19484 0
M  V30 11306 N 1073.1 -1.28322 -0.914942 0
M  V30 11307 C 1074.33 -1.18083 -1.69529 0
M  V30 11308 C 1074.74 0.263274 -1.87359 0
M  V30 11309 O 1074.08 1.18988 -1.39955 0
M  V30 11310 C 1074.14 -1.8062 -3.10832 0
M  V30 11311 C 1073.81 -3.29861 -3.16292 0
M  V30 11312 C 1074.8 -4.26313 -2.97578 0
M  V30 11313 C 1072.49 -3.70797 -3.38843 0
M  V30 11314 C 1074.48 -5.61677 -3.01326 0
M  V30 11315 C 1072.17 -5.06287 -3.42223 0
M  V30 11316 C 1073.17 -6.01537 -3.23485 0
M  V30 11317 O 1072.86 -7.34556 -3.26624 0
M  V30 11318 H 1072.59 -0.410931 -0.53676 0
M  V30 11319 H 1075.14 -1.6994 -1.15367 0
M  V30 11320 H 1073.37 -1.23255 -3.66531 0
M  V30 11321 H 1075.06 -1.64915 -3.70888 0
M  V30 11322 H 1075.83 -3.96023 -2.79984 0
M  V30 11323 H 1071.71 -2.97124 -3.52475 0
M  V30 11324 H 1075.25 -6.36 -2.86618 0
M  V30 11325 H 1071.15 -5.36228 -3.59346 0
M  V30 11326 H 1071.92 -7.43167 -3.42994 0
M  V30 11327 N 1074.58 1.12322 -1.10551 0
M  V30 11328 C 1075.83 1.83495 -0.846998 0
M  V30 11329 C 1076.15 1.8457 0.629205 0
M  V30 11330 O 1075.42 1.30968 1.45686 0
M  V30 11331 H 1074 0.679479 -0.310351 0
M  V30 11332 H 1076.66 1.36004 -1.39602 0
M  V30 11333 H 1075.76 2.87651 -1.21092 0
M  V30 11334 N 1076.06 0.894434 1.2976 0
M  V30 11335 C 1077.28 0.532916 1.99919 0
M  V30 11336 C 1077.7 -0.881022 1.66983 0
M  V30 11337 O 1077.06 -1.58076 0.912035 0
M  V30 11338 C 1077.11 0.70936 3.54472 0
M  V30 11339 O 1076.83 2.06764 3.86239 0
M  V30 11340 C 1078.33 0.352089 4.419 0
M  V30 11341 H 1075.55 0.205019 0.638912 0
M  V30 11342 H 1078.09 1.20233 1.65421 0
M  V30 11343 H 1076.25 0.0871901 3.87302 0
M  V30 11344 H 1076.66 2.09315 4.80924 0
M  V30 11345 H 1078.14 0.526405 5.49484 0
M  V30 11346 H 1078.61 -0.710527 4.33415 0
M  V30 11347 H 1079.22 0.950979 4.14532 0
M  V30 11348 N 1077.53 -1.43282 0.656365 0
M  V30 11349 C 1078.76 -2.06641 0.177245 0
M  V30 11350 C 1079.18 -1.48893 -1.14946 0
M  V30 11351 O 1078.54 -0.600099 -1.7108 0
M  V30 11352 C 1078.59 -3.60453 0.10299 0
M  V30 11353 O 1077.69 -4.01687 -0.933895 0
M  V30 11354 H 1077.04 -0.656978 0.096314 0
M  V30 11355 H 1079.57 -1.83733 0.900178 0
M  V30 11356 H 1079.58 -4.07923 -0.079291 0
M  V30 11357 H 1078.25 -4.01861 1.07147 0
M  V30 11358 H 1076.83 -3.65801 -0.724148 0
M  V30 11359 N 1079.01 -0.398486 -1.52479 0
M  V30 11360 C 1079.98 0.420206 -2.25315 0
M  V30 11361 C 1080.98 0.982559 -1.27289 0
M  V30 11362 O 1082.17 0.863113 -1.51314 0
M  V30 11363 C 1079.3 1.59045 -3.01525 0
M  V30 11364 H 1080.49 -0.217599 -2.9911 0
M  V30 11365 H 1078.04 -0.150784 -1.55571 0
M  V30 11366 H 1078.78 2.26542 -2.32054 0
M  V30 11367 H 1078.56 1.19382 -3.73484 0
M  V30 11368 H 1080.05 2.16984 -3.56802 0
M  V30 11369 N 1080.49 1.57075 -0.12858 0
M  V30 11370 C 1081.72 1.99876 0.534544 0
M  V30 11371 C 1082.13 1.00843 1.59612 0
M  V30 11372 O 1081.49 0.00268947 1.825 0
M  V30 11373 C 1081.54 3.42654 1.15198 0
M  V30 11374 O 1081.26 4.37899 0.132823 0
M  V30 11375 C 1082.76 4.00637 1.8975 0
M  V30 11376 H 1079.98 0.656073 0.140744 0
M  V30 11377 H 1082.53 2.03337 -0.217742 0
M  V30 11378 H 1080.68 3.40101 1.85499 0
M  V30 11379 H 1081.1 5.21253 0.582682 0
M  V30 11380 H 1082.57 5.02592 2.28266 0
M  V30 11381 H 1083.05 3.40313 2.7764 0
M  V30 11382 H 1083.65 4.06764 1.2419 0
M  V30 11383 N 1081.97 -0.145205 1.5693 0
M  V30 11384 C 1082.9 -1.18096 2.01434 0
M  V30 11385 C 1083.88 -1.447 0.894204 0
M  V30 11386 O 1085.07 -1.55589 1.16214 0
M  V30 11387 C 1082.2 -2.51369 2.39647 0
M  V30 11388 C 1081.15 -2.39283 3.54863 0
M  V30 11389 C 1080.48 -3.77283 3.78895 0
M  V30 11390 C 1081.78 -1.8754 4.87469 0
M  V30 11391 H 1083.47 -0.810897 2.8821 0
M  V30 11392 H 1081.02 -0.388624 1.38657 0
M  V30 11393 H 1082.97 -3.24054 2.69382 0
M  V30 11394 H 1081.69 -2.90214 1.49811 0
M  V30 11395 H 1080.35 -1.6905 3.25296 0
M  V30 11396 H 1080 -4.13567 2.86307 0
M  V30 11397 H 1079.7 -3.70057 4.56433 0
M  V30 11398 H 1081.22 -4.51514 4.11057 0
M  V30 11399 H 1082.64 -2.50019 5.1591 0
M  V30 11400 H 1081.03 -1.912 5.68826 0
M  V30 11401 H 1082.1 -0.831194 4.77723 0
M  V30 11402 N 1083.45 -1.52049 -0.414609 0
M  V30 11403 C 1084.36 -1.7788 -1.52958 0
M  V30 11404 C 1085.37 -0.66408 -1.60829 0
M  V30 11405 O 1086.55 -0.948882 -1.77646 0
M  V30 11406 C 1083.61 -1.91906 -2.88744 0
M  V30 11407 C 1082.68 -3.15803 -2.90804 0
M  V30 11408 C 1081.91 -3.29151 -4.20114 0
M  V30 11409 O 1082.13 -2.47892 -5.13718 0
M  V30 11410 O 1081.07 -4.2227 -4.28919 0
M  V30 11411 H 1084.89 -2.72506 -1.34067 0
M  V30 11412 H 1082.48 -1.36826 -0.599918 0
M  V30 11413 H 1084.36 -2.02986 -3.6929 0
M  V30 11414 H 1083.03 -1.00468 -3.07714 0
M  V30 11415 H 1081.94 -3.10185 -2.09131 0
M  V30 11416 H 1083.27 -4.07004 -2.76783 0
M  V30 11417 N 1084.93 0.6715 -1.42579 0
M  V30 11418 C 1085.88 1.77767 -1.42769 0
M  V30 11419 C 1086.86 1.58106 -0.298568 0
M  V30 11420 O 1088.05 1.68528 -0.541037 0
M  V30 11421 C 1085.18 3.16248 -1.33574 0
M  V30 11422 C 1084.27 3.41521 -2.51445 0
M  V30 11423 N 1084.66 3.37361 -3.76857 0
M  V30 11424 C 1082.96 3.7217 -2.45776 0
M  V30 11425 C 1083.66 3.62209 -4.5517 0
M  V30 11426 N 1082.63 3.83134 -3.85628 0
M  V30 11427 H 1086.43 1.72949 -2.37626 0
M  V30 11428 H 1083.95 0.872467 -1.36974 0
M  V30 11429 H 1085.95 3.9552 -1.31793 0
M  V30 11430 H 1084.61 3.22261 -0.397223 0
M  V30 11431 H 1085.62 3.17187 -4.09406 0
M  V30 11432 H 1082.29 3.85408 -1.6052 0
M  V30 11433 H 1083.68 3.64925 -5.64162 0
M  V30 11434 N 1086.4 1.28806 0.908124 0
M  V30 11435 C 1087.35 1.09849 1.99793 0
M  V30 11436 C 1088.34 0.0204321 1.60887 0
M  V30 11437 O 1089.53 0.241204 1.75349 0
M  V30 11438 C 1086.66 0.768263 3.34593 0
M  V30 11439 C 1085.74 1.88544 3.79884 0
M  V30 11440 N 1086.14 3.12784 3.97492 0
M  V30 11441 C 1084.43 1.77657 4.09089 0
M  V30 11442 C 1085.13 3.85615 4.35518 0
M  V30 11443 N 1084.11 3.13501 4.44092 0
M  V30 11444 H 1087.91 2.04108 2.11464 0
M  V30 11445 H 1085.43 1.19807 1.09636 0
M  V30 11446 H 1087.42 0.613521 4.12361 0
M  V30 11447 H 1086.08 -0.166501 3.24273 0
M  V30 11448 H 1087.09 3.48333 3.83255 0
M  V30 11449 H 1083.77 0.913956 4.07373 0
M  V30 11450 H 1085.16 4.92492 4.57057 0
M  V30 11451 N 1087.88 -1.11734 1.11145 0
M  V30 11452 C 1088.83 -2.15789 0.736133 0
M  V30 11453 C 1089.82 -1.58813 -0.25832 0
M  V30 11454 O 1091.01 -1.76877 -0.0659078 0
M  V30 11455 C 1088.14 -3.4284 0.177597 0
M  V30 11456 C 1087.22 -4.06783 1.19953 0
M  V30 11457 N 1087.61 -4.45626 2.39271 0
M  V30 11458 C 1085.91 -4.33663 1.04176 0
M  V30 11459 C 1086.61 -4.95684 3.04422 0
M  V30 11460 N 1085.59 -4.91648 2.31912 0
M  V30 11461 H 1089.39 -2.43598 1.6443 0
M  V30 11462 H 1086.9 -1.28716 0.990247 0
M  V30 11463 H 1088.9 -4.16756 -0.109402 0
M  V30 11464 H 1087.56 -3.16498 -0.725201 0
M  V30 11465 H 1088.57 -4.37757 2.76747 0
M  V30 11466 H 1085.25 -4.17044 0.195132 0
M  V30 11467 H 1086.64 -5.35394 4.05959 0
M  V30 11468 N 1089.36 -0.901303 -1.29284 0
M  V30 11469 C 1090.61 -0.528043 -1.95494 0
M  V30 11470 C 1090.93 0.92597 -1.71044 0
M  V30 11471 O 1090.19 1.67185 -1.01723 0
M  V30 11472 C 1090.49 -0.768828 -3.49033 0
M  V30 11473 C 1090.15 -2.20045 -3.93562 0
M  V30 11474 C 1088.82 -2.59189 -4.05431 0
M  V30 11475 C 1091.17 -3.13266 -4.1655 0
M  V30 11476 C 1088.5 -3.90733 -4.37658 0
M  V30 11477 C 1090.85 -4.4436 -4.50252 0
M  V30 11478 C 1089.51 -4.83375 -4.60331 0
M  V30 11479 H 1088.78 -0.193225 -0.715364 0
M  V30 11480 H 1091.43 -1.14027 -1.53851 0
M  V30 11481 H 1089.73 -0.0736997 -3.91731 0
M  V30 11482 H 1091.43 -0.459384 -3.9836 0
M  V30 11483 H 1088.02 -1.88666 -3.84842 0
M  V30 11484 H 1092.21 -2.84237 -4.06845 0
M  V30 11485 H 1087.46 -4.2068 -4.43665 0
M  V30 11486 H 1091.64 -5.16618 -4.66989 0
M  V30 11487 H 1089.26 -5.8534 -4.85058 0
M  V30 11488 N 1090.84 1.42931 -0.663954 0
M  V30 11489 C 1091.79 2.32577 0.03287 0
M  V30 11490 C 1092.78 1.49217 0.801918 0
M  V30 11491 O 1093.99 1.65358 0.711106 0
M  V30 11492 H 1090.36 0.751424 0.0294198 0
M  V30 11493 H 1092.33 2.89059 -0.740763 0
M  V30 11494 C 1091.08 3.33661 0.978025 0
M  V30 11495 H 1090.4 3.97837 0.395681 0
M  V30 11496 H 1091.84 3.98997 1.43448 0
M  V30 11497 C 1090.3 2.65085 2.07922 0
M  V30 11498 O 1090.83 2.4745 3.16435 0
M  V30 11499 N 1089.04 2.24285 1.84783 0
M  V30 11500 H 1088.59 2.38827 0.965368 0
M  V30 11501 H 1088.54 1.78732 2.58655 0
M  V30 11502 N 1092.32 0.406567 1.52266 0
M  V30 11503 C 1093.27 -0.437483 2.23763 0
M  V30 11504 C 1094.25 -1.01557 1.248 0
M  V30 11505 O 1095.44 -0.938813 1.50051 0
M  V30 11506 C 1092.57 -1.55499 3.06064 0
M  V30 11507 C 1091.66 -0.987799 4.12436 0
M  V30 11508 N 1092.05 -0.147044 5.05586 0
M  V30 11509 C 1090.35 -1.25857 4.27874 0
M  V30 11510 C 1091.05 0.168229 5.81457 0
M  V30 11511 N 1090.02 -0.440245 5.41814 0
M  V30 11512 H 1093.82 0.211203 2.9314 0
M  V30 11513 H 1091.34 0.216843 1.60946 0
M  V30 11514 H 1093.34 -2.17224 3.55836 0
M  V30 11515 H 1092 -2.20632 2.38226 0
M  V30 11516 H 1093.01 0.217062 5.17445 0
M  V30 11517 H 1089.68 -1.90967 3.71265 0
M  V30 11518 H 1091.07 0.850516 6.66495 0
M  V30 11519 N 1093.79 -1.57004 0.136909 0
M  V30 11520 C 1094.76 -2.15066 -0.792419 0
M  V30 11521 C 1095.76 -1.08991 -1.18226 0
M  V30 11522 O 1096.95 -1.34681 -1.10484 0
M  V30 11523 C 1094.08 -2.70554 -2.07397 0
M  V30 11524 H 1095.27 -2.98519 -0.28752 0
M  V30 11525 H 1092.83 -1.55895 -0.112469 0
M  V30 11526 H 1093.56 -1.90739 -2.62277 0
M  V30 11527 H 1093.35 -3.48149 -1.80374 0
M  V30 11528 H 1094.84 -3.15322 -2.73792 0
M  V30 11529 N 1095.27 0.136881 -1.57004 0
M  V30 11530 C 1096.52 0.849031 -1.84172 0
M  V30 11531 C 1096.85 1.80359 -0.720027 0
M  V30 11532 O 1096.13 1.92538 0.275584 0
M  V30 11533 C 1096.41 1.61465 -3.21871 0
M  V30 11534 C 1096.26 0.680902 -4.44616 0
M  V30 11535 C 1097.58 2.57488 -3.56914 0
M  V30 11536 H 1094.7 0.307209 -0.669919 0
M  V30 11537 H 1097.34 0.113862 -1.89659 0
M  V30 11538 H 1095.49 2.24137 -3.17325 0
M  V30 11539 H 1097.16 0.0644094 -4.61255 0
M  V30 11540 H 1095.41 -0.00883629 -4.33799 0
M  V30 11541 H 1096.08 1.25286 -5.37594 0
M  V30 11542 H 1098.55 2.0493 -3.62136 0
M  V30 11543 H 1097.43 3.08101 -4.54274 0
M  V30 11544 H 1097.69 3.39321 -2.83397 0
M  V30 11545 N 1096.75 1.52266 0.40654 0
M  V30 11546 C 1097.68 1.70519 1.51653 0
M  V30 11547 C 1098.66 0.552798 1.52915 0
M  V30 11548 O 1099.85 0.780468 1.71584 0
M  V30 11549 C 1096.97 1.74686 2.90176 0
M  V30 11550 C 1096.02 2.96255 3.06815 0
M  V30 11551 S 1096.85 4.56553 2.79856 0
M  V30 11552 C 1098.01 4.63511 4.20605 0
M  V30 11553 H 1098.24 2.64399 1.35942 0
M  V30 11554 H 1095.77 1.42337 0.598284 0
M  V30 11555 H 1097.73 1.77773 3.7001 0
M  V30 11556 H 1096.39 0.819291 3.03227 0
M  V30 11557 H 1095.59 2.95661 4.08167 0
M  V30 11558 H 1095.19 2.91069 2.34851 0
M  V30 11559 H 1097.48 4.41047 5.1428 0
M  V30 11560 H 1098.42 5.65456 4.26222 0
M  V30 11561 H 1098.83 3.92518 4.05697 0
M  V30 11562 N 1098.23 -0.663929 1.42933 0
M  V30 11563 C 1099.48 -1.41973 1.43271 0
M  V30 11564 C 1099.79 -1.95518 0.0566103 0
M  V30 11565 O 1101 -2.71428 -0.0625862 0
M  V30 11566 C 1099.45 -2.56882 2.52071 0
M  V30 11567 C 1099.06 -2.0999 3.95737 0
M  V30 11568 C 1100.8 -3.34322 2.61589 0
M  V30 11569 C 1098.71 -3.22046 4.96025 0
M  V30 11570 H 1097.64 -0.5334 0.532917 0
M  V30 11571 H 1100.29 -0.717709 1.68882 0
M  V30 11572 H 1098.67 -3.29504 2.19643 0
M  V30 11573 H 1099.85 -1.44449 4.37574 0
M  V30 11574 H 1098.16 -1.45459 3.90168 0
M  V30 11575 H 1100.76 -4.17796 3.33692 0
M  V30 11576 H 1101.1 -3.8164 1.66302 0
M  V30 11577 H 1101.64 -2.68775 2.93266 0
M  V30 11578 H 1098.38 -2.79708 5.92827 0
M  V30 11579 H 1097.9 -3.86333 4.5881 0
M  V30 11580 H 1099.57 -3.87345 5.1824 0
M  V30 11581 N 1099.71 -1.29285 -0.901281 0
M  V30 11582 C 1100.64 -1.16832 -2.0217 0
M  V30 11583 C 1101.62 -0.0629265 -1.69984 0
M  V30 11584 O 1102.8 -0.242123 -1.92685 0
M  V30 11585 C 1099.93 -0.842406 -3.36929 0
M  V30 11586 C 1098.89 -1.90394 -3.8332 0
M  V30 11587 C 1098.21 -1.43138 -5.15185 0
M  V30 11588 C 1099.51 -3.31254 -4.03817 0
M  V30 11589 H 1101.21 -2.10562 -2.12847 0
M  V30 11590 H 1098.75 -1.01375 -1.0227 0
M  V30 11591 H 1100.71 -0.741999 -4.14816 0
M  V30 11592 H 1099.43 0.130598 -3.26339 0
M  V30 11593 H 1098.09 -1.99371 -3.07647 0
M  V30 11594 H 1097.74 -0.447091 -5.01009 0
M  V30 11595 H 1097.44 -2.14129 -5.47195 0
M  V30 11596 H 1098.96 -1.34444 -5.95615 0
M  V30 11597 H 1100.37 -3.25129 -4.72191 0
M  V30 11598 H 1098.77 -4.00189 -4.47178 0
M  V30 11599 H 1099.84 -3.74349 -3.08206 0
M  V30 11600 N 1101.18 1.11143 -1.11736 0
M  V30 11601 C 1102.12 2.1705 -0.736325 0
M  V30 11602 C 1103.13 1.61116 0.233528 0
M  V30 11603 O 1104.32 1.78493 0.0159602 0
M  V30 11604 C 1101.42 3.38832 -0.067974 0
M  V30 11605 C 1100.59 4.24226 -1.06543 0
M  V30 11606 C 1099.65 5.24472 -0.426063 0
M  V30 11607 O 1098.68 5.58843 -1.0809 0
M  V30 11608 N 1099.88 5.74825 0.809711 0
M  V30 11609 H 1102.64 2.50349 -1.64758 0
M  V30 11610 H 1100.2 1.26693 -1.00799 0
M  V30 11611 H 1102.2 4.02991 0.371563 0
M  V30 11612 H 1100.77 3.0357 0.745917 0
M  V30 11613 H 1099.99 3.56475 -1.68283 0
M  V30 11614 H 1101.27 4.78117 -1.74016 0
M  V30 11615 H 1100.67 5.49088 1.36084 0
M  V30 11616 H 1099.23 6.40804 1.19218 0
M  V30 11617 N 1102.66 0.908147 1.28804 0
M  V30 11618 C 1103.89 0.553431 1.9988 0
M  V30 11619 C 1104.31 -0.856714 1.67458 0
M  V30 11620 O 1103.67 -1.57163 0.903849 0
M  V30 11621 C 1103.72 0.762688 3.52442 0
M  V30 11622 O 1102.82 -0.180924 4.12003 0
M  V30 11623 H 1102.16 0.215237 0.628147 0
M  V30 11624 H 1104.69 1.22205 1.64095 0
M  V30 11625 H 1104.7 0.670612 4.02451 0
M  V30 11626 H 1103.38 1.79071 3.75375 0
M  V30 11627 H 1101.96 -0.0405897 3.72878 0
M  V30 11628 N 1104.14 -1.42577 0.671525 0
M  V30 11629 C 1105.05 -2.34598 -0.00898225 0
M  V30 11630 C 1106.07 -1.54909 -0.792407 0
M  V30 11631 O 1107.24 -1.87491 -0.735477 0
M  V30 11632 C 1104.31 -3.33405 -0.950888 0
M  V30 11633 C 1103.37 -4.28993 -0.16236 0
M  V30 11634 C 1102.6 -5.2308 -1.0594 0
M  V30 11635 O 1102.82 -5.22022 -2.2989 0
M  V30 11636 O 1101.76 -5.99632 -0.521966 0
M  V30 11637 H 1105.58 -2.94321 0.748927 0
M  V30 11638 H 1103.17 -1.43025 0.43175 0
M  V30 11639 H 1105.05 -3.94115 -1.49169 0
M  V30 11640 H 1103.73 -2.7616 -1.68871 0
M  V30 11641 H 1102.63 -3.71707 0.42247 0
M  V30 11642 H 1103.97 -4.8927 0.536274 0
M  V30 11643 N 1105.62 -0.414636 -1.52048 0
M  V30 11644 C 1106.87 0.159034 -2.01473 0
M  V30 11645 C 1107.19 1.45176 -1.30188 0
M  V30 11646 O 1106.46 1.91134 -0.429469 0
M  V30 11647 H 1105.04 0.0617604 -0.744443 0
M  V30 11648 H 1107.7 -0.552141 -1.86916 0
M  V30 11649 H 1106.8 0.351217 -3.10118 0
M  V30 11650 N 1107.1 1.56929 -0.145233 0
M  V30 11651 C 1108.05 2.13246 0.806846 0
M  V30 11652 C 1109.03 1.05984 1.21063 0
M  V30 11653 O 1110.22 1.32165 1.17734 0
M  V30 11654 C 1107.35 2.75622 2.04663 0
M  V30 11655 C 1106.44 3.90006 1.66603 0
M  V30 11656 N 1106.83 4.95946 0.993545 0
M  V30 11657 C 1105.13 4.0068 1.95886 0
M  V30 11658 C 1105.83 5.76032 0.810087 0
M  V30 11659 N 1104.8 5.26739 1.34339 0
M  V30 11660 H 1108.61 2.92527 0.283806 0
M  V30 11661 H 1106.12 1.62302 0.0563676 0
M  V30 11662 H 1108.12 3.14329 2.73867 0
M  V30 11663 H 1106.78 1.97815 2.57487 0
M  V30 11664 H 1107.79 5.13748 0.654508 0
M  V30 11665 H 1104.46 3.33946 2.50572 0
M  V30 11666 H 1105.85 6.71315 0.280209 0
M  V30 11667 N 1108.58 -0.128553 1.57075 0
M  V30 11668 C 1109.52 -1.17719 2.00611 0
M  V30 11669 C 1110.52 -1.43423 0.90146 0
M  V30 11670 O 1111.72 -1.43498 1.08666 0
M  V30 11671 H 1108.1 -0.396683 0.638864 0
M  V30 11672 H 1110.07 -0.783437 2.87932 0
M  V30 11673 C 1108.82 -2.49826 2.41831 0
M  V30 11674 H 1108.14 -2.30883 3.26394 0
M  V30 11675 H 1109.58 -3.21784 2.761 0
M  V30 11676 C 1108.04 -3.11712 1.27816 0
M  V30 11677 O 1108.57 -3.9736 0.588917 0
M  V30 11678 N 1106.78 -2.71442 1.03767 0
M  V30 11679 H 1106.32 -2.01891 1.59994 0
M  V30 11680 H 1106.28 -3.1318 0.276743 0
M  V30 11681 N 1110.05 -1.5248 -0.398459 0
M  V30 11682 C 1111.3 -1.66287 -1.14155 0
M  V30 11683 C 1111.62 -0.40429 -1.91376 0
M  V30 11684 O 1112.82 -0.422341 -2.68195 0
M  V30 11685 C 1111.28 -2.93831 -2.07825 0
M  V30 11686 C 1110.89 -4.26836 -1.3607 0
M  V30 11687 C 1112.63 -3.17004 -2.82327 0
M  V30 11688 C 1110.54 -5.45495 -2.28451 0
M  V30 11689 H 1109.47 -0.619478 -0.42984 0
M  V30 11690 H 1112.12 -1.78972 -0.405112 0
M  V30 11691 H 1110.5 -2.7487 -2.85065 0
M  V30 11692 H 1111.67 -4.56317 -0.641205 0
M  V30 11693 H 1109.99 -4.0985 -0.735659 0
M  V30 11694 H 1112.59 -4.02834 -3.51609 0
M  V30 11695 H 1112.93 -2.3168 -3.45876 0
M  V30 11696 H 1113.46 -3.36487 -2.12183 0
M  V30 11697 H 1110.2 -6.33198 -1.69532 0
M  V30 11698 H 1109.72 -5.20338 -2.98343 0
M  V30 11699 H 1111.4 -5.78996 -2.88743 0
M  V30 11700 N 1111.53 0.65634 -1.43283 0
M  V30 11701 C 1112.78 1.41627 -1.44734 0
M  V30 11702 C 1113.11 1.94372 -0.0704893 0
M  V30 11703 O 1112.36 1.72511 0.924037 0
M  V30 11704 C 1112.66 2.61688 -2.43421 0
M  V30 11705 C 1112.33 2.2738 -3.8937 0
M  V30 11706 C 1110.99 2.17735 -4.29121 0
M  V30 11707 C 1113.34 1.99863 -4.81357 0
M  V30 11708 C 1110.67 1.78725 -5.58815 0
M  V30 11709 C 1113.02 1.62352 -6.11412 0
M  V30 11710 C 1111.68 1.51231 -6.50143 0
M  V30 11711 H 1110.95 0.51825 -0.529621 0
M  V30 11712 H 1113.6 0.746701 -1.76342 0
M  V30 11713 H 1111.91 3.33763 -2.05206 0
M  V30 11714 H 1113.6 3.19896 -2.41801 0
M  V30 11715 H 1110.19 2.35795 -3.57908 0
M  V30 11716 H 1114.38 2.06237 -4.5142 0
M  V30 11717 H 1109.63 1.68698 -5.87666 0
M  V30 11718 H 1113.81 1.40091 -6.82164 0
M  V30 11719 H 1111.43 1.20774 -7.50545 0
M  V30 11720 N 1113.01 1.29761 0.894412 0
M  V30 11721 C 1113.97 1.15335 1.98067 0
M  V30 11722 C 1114.97 0.0872804 1.60563 0
M  V30 11723 O 1116.16 0.334645 1.70955 0
M  V30 11724 C 1113.29 0.764907 3.32208 0
M  V30 11725 H 1114.49 2.11829 2.12293 0
M  V30 11726 H 1112.04 1.13023 1.0796 0
M  V30 11727 H 1112.78 -0.199948 3.23683 0
M  V30 11728 H 1112.56 1.53523 3.60795 0
M  V30 11729 H 1114.05 0.687176 4.11907 0
M  V30 11730 N 1114.49 -1.10549 1.12324 0
M  V30 11731 C 1115.44 -2.18944 0.785248 0
M  V30 11732 C 1116.43 -1.67867 -0.227389 0
M  V30 11733 O 1117.64 -1.79796 -0.0857162 0
M  V30 11734 H 1114.01 -0.713976 0.236098 0
M  V30 11735 H 1115.98 -2.44692 1.70788 0
M  V30 11736 C 1114.73 -3.46765 0.25485 0
M  V30 11737 H 1114.05 -3.86428 1.02534 0
M  V30 11738 H 1115.49 -4.23962 0.0566526 0
M  V30 11739 C 1113.95 -3.21185 -1.01695 0
M  V30 11740 O 1114.48 -3.42745 -2.09497 0
M  V30 11741 N 1112.69 -2.7486 -0.943423 0
M  V30 11742 H 1112.24 -2.57515 -0.0660366 0
M  V30 11743 H 1112.19 -2.58122 -1.795 0
M  V30 11744 N 1115.97 -0.914965 -1.28321 0
M  V30 11745 C 1116.9 -0.421292 -2.29668 0
M  V30 11746 C 1117.88 0.511743 -1.6222 0
M  V30 11747 O 1119.06 0.419218 -1.89621 0
M  V30 11748 C 1116.19 0.338364 -3.45648 0
M  V30 11749 C 1115.15 -0.505646 -4.25003 0
M  V30 11750 C 1114.47 0.382421 -5.33331 0
M  V30 11751 C 1115.77 -1.76354 -4.91626 0
M  V30 11752 H 1117.47 -1.26826 -2.71211 0
M  V30 11753 H 1115.01 -0.611291 -1.30381 0
M  V30 11754 H 1116.96 0.694578 -4.15636 0
M  V30 11755 H 1115.69 1.21925 -3.02988 0
M  V30 11756 H 1114.35 -0.844395 -3.56743 0
M  V30 11757 H 1114 1.26189 -4.86914 0
M  V30 11758 H 1113.7 -0.17871 -5.87328 0
M  V30 11759 H 1115.22 0.73449 -6.06166 0
M  V30 11760 H 1116.63 -1.47616 -5.5397 0
M  V30 11761 H 1115.03 -2.26717 -5.55625 0
M  V30 11762 H 1116.1 -2.49063 -4.16048 0
M  V30 11763 N 1117.44 1.42219 -0.679077 0
M  V30 11764 C 1118.67 2.06333 -0.210097 0
M  V30 11765 C 1119.09 1.50703 1.12562 0
M  V30 11766 O 1118.45 0.627241 1.70104 0
M  V30 11767 C 1118.5 3.60243 -0.160322 0
M  V30 11768 O 1117.6 4.03122 0.869872 0
M  V30 11769 H 1116.94 0.655362 -0.106754 0
M  V30 11770 H 1119.47 1.82278 -0.929294 0
M  V30 11771 H 1119.48 4.07997 0.014384 0
M  V30 11772 H 1118.16 4.00106 -1.13526 0
M  V30 11773 H 1116.74 3.66907 0.66586 0
M  V30 11774 N 1118.92 0.422693 1.51826 0
M  V30 11775 C 1120.15 -0.15017 2.06856 0
M  V30 11776 C 1120.57 -1.36946 1.28948 0
M  V30 11777 O 1119.93 -1.78393 0.32338 0
M  V30 11778 C 1119.98 -0.465563 3.57582 0
M  V30 11779 O 1119.08 -1.55442 3.81984 0
M  V30 11780 H 1118.42 -0.00827931 0.663948 0
M  V30 11781 H 1120.95 0.599806 1.95611 0
M  V30 11782 H 1120.96 -0.720279 4.01592 0
M  V30 11783 H 1119.64 0.425679 4.13716 0
M  V30 11784 H 1118.21 -1.29081 3.49846 0
M  V30 11785 N 1120.4 -1.5685 0.153553 0
M  V30 11786 C 1121.35 -2.1709 -0.783626 0
M  V30 11787 C 1122.32 -1.10567 -1.23952 0
M  V30 11788 O 1123.5 -1.38638 -1.31088 0
M  V30 11789 C 1120.64 -2.80183 -2.01473 0
M  V30 11790 C 1119.75 -4.01117 -1.60403 0
M  V30 11791 C 1118.89 -4.5219 -2.78743 0
M  V30 11792 C 1117.93 -5.65574 -2.34079 0
M  V30 11793 N 1117.07 -6.11235 -3.4545 0
M  V30 11794 H 1121.91 -2.96836 -0.263127 0
M  V30 11795 H 1119.44 -1.46625 -0.11816 0
M  V30 11796 H 1121.4 -3.14912 -2.73654 0
M  V30 11797 H 1120.03 -2.03071 -2.50923 0
M  V30 11798 H 1119.08 -3.72325 -0.779631 0
M  V30 11799 H 1120.39 -4.83243 -1.23605 0
M  V30 11800 H 1119.55 -4.89008 -3.59105 0
M  V30 11801 H 1118.29 -3.69085 -3.18791 0
M  V30 11802 H 1117.29 -5.28326 -1.52158 0
M  V30 11803 H 1118.52 -6.50468 -1.95109 0
M  V30 11804 H 1116.46 -5.31064 -3.85106 0
M  V30 11805 H 1116.38 -6.88304 -3.12687 0
M  V30 11806 H 1117.65 -6.527 -4.26149 0
M  V30 11807 N 1121.88 0.120221 -1.57141 0
M  V30 11808 C 1122.79 1.16641 -2.03549 0
M  V30 11809 C 1123.8 1.45407 -0.955656 0
M  V30 11810 O 1124.98 1.56547 -1.26708 0
M  V30 11811 C 1122.04 2.4734 -2.42948 0
M  V30 11812 C 1121.11 2.25982 -3.65008 0
M  V30 11813 C 1120.34 3.50449 -4.02518 0
M  V30 11814 O 1120.56 4.57706 -3.40384 0
M  V30 11815 O 1119.5 3.41524 -4.95626 0
M  V30 11816 H 1123.32 0.802323 -2.9291 0
M  V30 11817 H 1120.91 0.330927 -1.45689 0
M  V30 11818 H 1122.79 3.24348 -2.69029 0
M  V30 11819 H 1121.46 2.83225 -1.56733 0
M  V30 11820 H 1120.37 1.46837 -3.44078 0
M  V30 11821 H 1121.7 1.95002 -4.51924 0
M  V30 11822 N 1123.36 1.52689 0.390367 0
M  V30 11823 C 1124.59 1.71292 1.1551 0
M  V30 11824 C 1124.99 0.430405 1.84239 0
M  V30 11825 O 1124.34 -0.604823 1.73458 0
M  V30 11826 C 1124.4 2.80597 2.24735 0
M  V30 11827 C 1124.06 4.21757 1.75984 0
M  V30 11828 C 1125.06 5.04961 1.23733 0
M  V30 11829 C 1122.75 4.68071 1.82248 0
M  V30 11830 C 1124.74 6.32561 0.783926 0
M  V30 11831 C 1122.43 5.95656 1.36519 0
M  V30 11832 C 1123.42 6.7773 0.846786 0
M  V30 11833 O 1123.11 8.02923 0.396164 0
M  V30 11834 H 1122.84 0.576906 0.352356 0
M  V30 11835 H 1125.4 2.00117 0.462865 0
M  V30 11836 H 1123.63 2.4719 2.97378 0
M  V30 11837 H 1125.32 2.87616 2.86412 0
M  V30 11838 H 1126.08 4.70363 1.18251 0
M  V30 11839 H 1121.96 4.04278 2.21541 0
M  V30 11840 H 1125.51 6.96572 0.378612 0
M  V30 11841 H 1121.4 6.29758 1.41686 0
M  V30 11842 H 1122.17 8.16861 0.517766 0
M  V30 11843 N 1124.83 -0.648732 1.43629 0
M  V30 11844 C 1126.06 -1.44117 1.49148 0
M  V30 11845 C 1126.48 -1.87767 0.111952 0
M  V30 11846 O 1125.84 -1.57655 -0.895249 0
M  V30 11847 C 1125.89 -2.64938 2.44623 0
M  V30 11848 O 1124.99 -3.64155 1.93559 0
M  V30 11849 H 1124.34 -0.431933 0.504312 0
M  V30 11850 H 1126.87 -0.793439 1.88589 0
M  V30 11851 H 1126.88 -3.12698 2.62076 0
M  V30 11852 H 1125.55 -2.3251 3.44836 0
M  V30 11853 H 1124.13 -3.23322 1.85789 0
M  V30 11854 N 1126.31 -1.30234 -0.887518 0
M  V30 11855 C 1127.59 -1.09572 -1.62029 0
M  V30 11856 C 1127.97 0.355877 -2.08079 0
M  V30 11857 O 1127.32 1.34692 -1.84582 0
M  V30 11858 C 1127.53 -2.0943 -2.79177 0
M  V30 11859 C 1128.88 -2.4101 -3.4957 0
M  V30 11860 O 1129.9 -2.0772 -2.89363 0
M  V30 11861 O 1128.76 -2.97943 -4.5814 0
M  V30 11862 H 1125.85 -0.420648 -0.712028 0
M  V30 11863 H 1128.4 -1.41651 -0.934517 0
M  V30 11864 H 1127.17 -3.07149 -2.42436 0
M  V30 11865 H 1126.79 -1.78154 -3.55453 0
M  V30 11866 N 1127.79 1.09952 -1.12909 0
M  V30 11867 C 1128.72 2.18477 -0.824014 0
M  V30 11868 C 1129.7 1.68744 0.214324 0
M  V30 11869 O 1130.89 1.94057 0.0744281 0
M  V30 11870 C 1128.02 3.46143 -0.283308 0
M  V30 11871 C 1126.97 4.09178 -1.25528 0
M  V30 11872 C 1126.3 5.31604 -0.574574 0
M  V30 11873 C 1127.6 4.52308 -2.6118 0
M  V30 11874 H 1129.29 2.44254 -1.73148 0
M  V30 11875 H 1126.84 1.17394 -0.833952 0
M  V30 11876 H 1128.79 4.21361 -0.057583 0
M  V30 11877 H 1127.51 3.19872 0.659525 0
M  V30 11878 H 1126.17 3.35973 -1.4669 0
M  V30 11879 H 1125.82 5.01611 0.37356 0
M  V30 11880 H 1125.52 5.74732 -1.22299 0
M  V30 11881 H 1127.04 6.0955 -0.358004 0
M  V30 11882 H 1128.46 5.18776 -2.44017 0
M  V30 11883 H 1126.86 5.06302 -3.22147 0
M  V30 11884 H 1127.93 3.64977 -3.19249 0
M  V30 11885 N 1129.27 0.921757 1.27833 0
M  V30 11886 C 1130.2 0.360683 2.25332 0
M  V30 11887 C 1131.18 -0.53961 1.53385 0
M  V30 11888 O 1132.36 -0.48146 1.82248 0
M  V30 11889 C 1129.49 -0.483626 3.35229 0
M  V30 11890 C 1128.54 0.352405 4.25042 0
M  V30 11891 S 1129.37 1.76421 5.05605 0
M  V30 11892 C 1130.53 0.92742 6.18991 0
M  V30 11893 H 1130.76 1.18703 2.72574 0
M  V30 11894 H 1128.29 0.72354 1.36397 0
M  V30 11895 H 1130.25 -0.964914 3.98998 0
M  V30 11896 H 1128.91 -1.28444 2.86637 0
M  V30 11897 H 1128.1 -0.293558 5.03144 0
M  V30 11898 H 1127.71 0.767643 3.66037 0
M  V30 11899 H 1130 0.160698 6.77309 0
M  V30 11900 H 1130.94 1.68126 6.87851 0
M  V30 11901 H 1131.35 0.472056 5.62523 0
M  V30 11902 N 1130.75 -1.41857 0.686609 0
M  V30 11903 C 1131.68 -2.29188 -0.0234289 0
M  V30 11904 C 1132.69 -1.44311 -0.753541 0
M  V30 11905 O 1133.88 -1.67908 -0.605734 0
M  V30 11906 C 1130.98 -3.21991 -1.05713 0
M  V30 11907 C 1130.15 -4.35581 -0.398453 0
M  V30 11908 C 1129.21 -5.09022 -1.33354 0
M  V30 11909 O 1128.24 -5.63126 -0.829334 0
M  V30 11910 N 1129.44 -5.15643 -2.66632 0
M  V30 11911 H 1132.21 -2.90766 0.726295 0
M  V30 11912 H 1129.77 -1.52912 0.531937 0
M  V30 11913 H 1131.76 -3.6799 -1.68421 0
M  V30 11914 H 1130.33 -2.61782 -1.70847 0
M  V30 11915 H 1129.55 -3.92079 0.408358 0
M  V30 11916 H 1130.84 -5.08765 0.0599239 0
M  V30 11917 H 1130.23 -4.73118 -3.10122 0
M  V30 11918 H 1128.79 -5.65248 -3.24558 0
M  V30 11919 N 1132.22 -0.430739 -1.51599 0
M  V30 11920 C 1133.15 0.374695 -2.30474 0
M  V30 11921 C 1134.14 1.02694 -1.35602 0
M  V30 11922 O 1135.32 1.03184 -1.6452 0
M  V30 11923 C 1132.45 1.47981 -3.14196 0
M  V30 11924 C 1131.4 0.951415 -4.17291 0
M  V30 11925 C 1130.73 2.15177 -4.89492 0
M  V30 11926 C 1132.03 -0.00957951 -5.22299 0
M  V30 11927 H 1133.72 -0.283508 -2.98055 0
M  V30 11928 H 1131.27 -0.13779 -1.43339 0
M  V30 11929 H 1133.22 2.05043 -3.68151 0
M  V30 11930 H 1131.95 2.16621 -2.44424 0
M  V30 11931 H 1130.61 0.403052 -3.64378 0
M  V30 11932 H 1130.25 2.82421 -4.1623 0
M  V30 11933 H 1129.95 1.80464 -5.59202 0
M  V30 11934 H 1131.48 2.72806 -5.46269 0
M  V30 11935 H 1132.89 0.470527 -5.71366 0
M  V30 11936 H 1131.29 -0.268959 -5.99497 0
M  V30 11937 H 1132.36 -0.948297 -4.75537 0
M  V30 11938 N 1133.7 1.56767 -0.161869 0
M  V30 11939 C 1134.63 2.20511 0.767918 0
M  V30 11940 C 1135.61 1.15783 1.24612 0
M  V30 11941 O 1136.8 1.44179 1.301 0
M  V30 11942 C 1133.93 2.83844 2.00125 0
M  V30 11943 C 1132.88 3.94528 1.65926 0
M  V30 11944 C 1132.21 4.44866 2.96646 0
M  V30 11945 C 1133.51 5.14583 0.894497 0
M  V30 11946 H 1135.2 2.98464 0.236607 0
M  V30 11947 H 1132.75 1.43561 0.112363 0
M  V30 11948 H 1134.7 3.27109 2.65664 0
M  V30 11949 H 1133.43 2.03246 2.55654 0
M  V30 11950 H 1132.08 3.51904 1.02759 0
M  V30 11951 H 1131.73 3.61071 3.50196 0
M  V30 11952 H 1131.43 5.19531 2.74521 0
M  V30 11953 H 1132.96 4.90812 3.6323 0
M  V30 11954 H 1134.37 5.54601 1.45228 0
M  V30 11955 H 1132.77 5.95105 0.772636 0
M  V30 11956 H 1133.84 4.84773 -0.110986 0
M  V30 11957 N 1135.18 -0.111886 1.57202 0
M  V30 11958 C 1136.13 -1.13688 2.00858 0
M  V30 11959 C 1137.1 -1.40752 0.881939 0
M  V30 11960 O 1138.28 -1.52498 1.14669 0
M  V30 11961 C 1135.42 -2.45641 2.42393 0
M  V30 11962 C 1134.54 -2.25452 3.68504 0
M  V30 11963 C 1133.67 -3.50686 3.9899 0
M  V30 11964 C 1132.71 -3.25685 5.18262 0
M  V30 11965 N 1131.85 -4.4314 5.44583 0
M  V30 11966 H 1136.69 -0.757611 2.88209 0
M  V30 11967 H 1134.22 -0.362582 1.42561 0
M  V30 11968 H 1136.18 -3.22627 2.64514 0
M  V30 11969 H 1134.81 -2.81447 1.58074 0
M  V30 11970 H 1133.86 -1.39349 3.53958 0
M  V30 11971 H 1135.18 -2.0296 4.55641 0
M  V30 11972 H 1134.33 -4.36087 4.21797 0
M  V30 11973 H 1133.07 -3.76216 3.10343 0
M  V30 11974 H 1132.07 -2.38675 4.95292 0
M  V30 11975 H 1133.3 -3.01518 6.08493 0
M  V30 11976 H 1131.24 -4.68778 4.58893 0
M  V30 11977 H 1131.16 -4.23778 6.26058 0
M  V30 11978 H 1132.43 -5.29654 5.71915 0
M  V30 11979 N 1136.66 -1.52894 -0.382264 0
M  V30 11980 C 1137.59 -1.74413 -1.48703 0
M  V30 11981 C 1138.6 -0.624663 -1.50339 0
M  V30 11982 O 1139.79 -0.900527 -1.54119 0
M  V30 11983 C 1136.89 -1.79387 -2.8753 0
M  V30 11984 C 1136.07 -3.08794 -3.09783 0
M  V30 11985 C 1135.12 -3.05226 -4.2863 0
M  V30 11986 O 1134.15 -3.79073 -4.24609 0
M  V30 11987 N 1135.35 -2.2488 -5.35172 0
M  V30 11988 H 1138.12 -2.69734 -1.30628 0
M  V30 11989 H 1135.68 -1.51465 -0.571842 0
M  V30 11990 H 1137.67 -1.74498 -3.65147 0
M  V30 11991 H 1136.24 -0.914233 -2.98932 0
M  V30 11992 H 1135.46 -3.27118 -2.19971 0
M  V30 11993 H 1136.75 -3.94347 -3.21509 0
M  V30 11994 H 1136.15 -1.64363 -5.41296 0
M  V30 11995 H 1134.7 -2.25825 -6.1143 0
M  V30 11996 N 1138.14 0.641106 -1.43971 0
M  V30 11997 C 1139.36 1.43324 -1.4991 0
M  V30 11998 C 1139.79 1.87705 -0.121908 0
M  V30 11999 O 1139.15 1.58127 0.886875 0
M  V30 12000 C 1139.19 2.63637 -2.46025 0
M  V30 12001 O 1138.3 3.63123 -1.95488 0
M  V30 12002 H 1137.64 0.429252 -0.506595 0
M  V30 12003 H 1140.17 0.783427 -1.89007 0
M  V30 12004 H 1140.18 3.11304 -2.63731 0
M  V30 12005 H 1138.85 2.30678 -3.46064 0
M  V30 12006 H 1137.43 3.22332 -1.87501 0
M  V30 12007 N 1139.62 1.30703 0.880598 0
M  V30 12008 C 1140.86 1.19142 1.62752 0
M  V30 12009 C 1141.18 -0.251795 1.93973 0
M  V30 12010 O 1142.38 -0.488971 2.67061 0
M  V30 12011 C 1140.84 2.08503 2.93351 0
M  V30 12012 C 1140.45 3.57758 2.69653 0
M  V30 12013 C 1142.19 2.05715 3.71324 0
M  V30 12014 C 1140.1 4.39161 3.96096 0
M  V30 12015 H 1139.03 0.442332 0.610622 0
M  V30 12016 H 1141.68 1.55483 0.974547 0
M  V30 12017 H 1140.06 1.65049 3.59965 0
M  V30 12018 H 1141.24 4.09388 2.11513 0
M  V30 12019 H 1139.55 3.62414 2.0505 0
M  V30 12020 H 1142.15 2.63783 4.65105 0
M  V30 12021 H 1142.49 1.04168 4.03057 0
M  V30 12022 H 1143.02 2.47313 3.11579 0
M  V30 12023 H 1139.76 5.4142 3.69519 0
M  V30 12024 H 1139.28 3.92293 4.53725 0
M  V30 12025 H 1140.96 4.50823 4.64077 0
M  V30 12026 N 1141.09 -1.09351 1.1349 0
M  V30 12027 C 1142.02 -2.18037 0.835588 0
M  V30 12028 C 1143 -1.68856 -0.205373 0
M  V30 12029 O 1144.19 -1.94094 -0.0641357 0
M  V30 12030 C 1141.32 -3.45987 0.301661 0
M  V30 12031 C 1140.27 -4.08507 1.27696 0
M  V30 12032 C 1139.6 -5.31292 0.602758 0
M  V30 12033 C 1140.9 -4.50916 2.63575 0
M  V30 12034 H 1142.59 -2.43332 1.74441 0
M  V30 12035 H 1140.14 -1.1695 0.840166 0
M  V30 12036 H 1142.09 -4.21324 0.079928 0
M  V30 12037 H 1140.82 -3.20217 -0.642552 0
M  V30 12038 H 1139.48 -3.3519 1.4847 0
M  V30 12039 H 1139.12 -5.01802 -0.346953 0
M  V30 12040 H 1138.82 -5.74075 1.25345 0
M  V30 12041 H 1140.35 -6.09351 0.390325 0
M  V30 12042 H 1141.76 -5.17474 2.46765 0
M  V30 12043 H 1140.16 -5.04586 3.24827 0
M  V30 12044 H 1141.23 -3.63279 3.2118 0
M  V30 12045 N 1142.57 -0.928524 -1.27343 0
M  V30 12046 C 1143.53 -0.43292 -2.25074 0
M  V30 12047 C 1144.53 0.448976 -1.54405 0
M  V30 12048 O 1145.72 0.249939 -1.72398 0
M  V30 12049 C 1142.86 0.377539 -3.38803 0
M  V30 12050 H 1144.05 -1.29642 -2.70431 0
M  V30 12051 H 1141.6 -0.709289 -1.3928 0
M  V30 12052 H 1142.34 1.25982 -2.98829 0
M  V30 12053 H 1142.12 -0.254782 -3.91271 0
M  V30 12054 H 1143.61 0.714634 -4.1144 0
M  V30 12055 N 1144.05 1.41491 -0.694123 0
M  V30 12056 C 1145.28 2.05579 -0.233466 0
M  V30 12057 C 1145.69 1.5223 1.11675 0
M  V30 12058 O 1145.05 0.669937 1.69759 0
M  V30 12059 C 1145.1 3.61047 -0.180967 0
M  V30 12060 O 1144.82 4.12421 -1.47785 0
M  V30 12061 C 1146.32 4.42278 0.300853 0
M  V30 12062 H 1143.54 0.662097 -0.108943 0
M  V30 12063 H 1146.09 1.81288 -0.946299 0
M  V30 12064 H 1144.24 3.84381 0.482678 0
M  V30 12065 H 1144.66 5.06454 -1.364 0
M  V30 12066 H 1146.13 5.51256 0.286464 0
M  V30 12067 H 1146.61 4.18276 1.33948 0
M  V30 12068 H 1147.21 4.24004 -0.331741 0
M  V30 12069 N 1145.53 0.438773 1.51369 0
M  V30 12070 C 1146.8 -0.18722 1.94702 0
M  V30 12071 C 1147.18 -1.59962 1.37752 0
M  V30 12072 O 1146.53 -2.214 0.565171 0
M  V30 12073 C 1146.74 -0.163491 3.48617 0
M  V30 12074 C 1148.09 -0.368355 4.22999 0
M  V30 12075 O 1149.11 -0.241541 3.5538 0
M  V30 12076 O 1147.97 -0.620916 5.42961 0
M  V30 12077 H 1145.07 -0.129194 0.816846 0
M  V30 12078 H 1147.61 0.496855 1.62263 0
M  V30 12079 H 1146.39 0.823882 3.82528 0
M  V30 12080 H 1146.01 -0.890414 3.87501 0
M  V30 12081 N 1147.01 -1.56678 0.170181 0
M  V30 12082 C 1147.94 -2.20916 -0.756213 0
M  V30 12083 C 1148.92 -1.16442 -1.23997 0
M  V30 12084 O 1150.1 -1.44867 -1.29333 0
M  V30 12085 C 1147.23 -2.84901 -1.98617 0
M  V30 12086 C 1146.19 -3.95403 -1.63831 0
M  V30 12087 C 1145.51 -4.46432 -2.94282 0
M  V30 12088 C 1146.81 -5.15051 -0.867195 0
M  V30 12089 H 1148.51 -2.98585 -0.220776 0
M  V30 12090 H 1146.05 -1.43619 -0.104748 0
M  V30 12091 H 1148 -3.28514 -2.63926 0
M  V30 12092 H 1146.73 -2.04598 -2.54572 0
M  V30 12093 H 1145.39 -3.52444 -1.00891 0
M  V30 12094 H 1145.04 -3.62923 -3.48276 0
M  V30 12095 H 1144.74 -5.20979 -2.71762 0
M  V30 12096 H 1146.26 -4.92731 -3.60622 0
M  V30 12097 H 1147.67 -5.55363 -1.42285 0
M  V30 12098 H 1146.07 -5.95507 -0.741065 0
M  V30 12099 H 1147.14 -4.84707 0.136693 0
M  V30 12100 N 1148.48 0.103547 -1.57259 0
M  V30 12101 C 1149.71 0.82235 -1.89855 0
M  V30 12102 C 1150.13 1.72694 -0.76303 0
M  V30 12103 O 1149.48 1.8056 0.265421 0
M  V30 12104 C 1149.53 1.64282 -3.22015 0
M  V30 12105 O 1149.26 0.774628 -4.31197 0
M  V30 12106 C 1150.76 2.46543 -3.68418 0
M  V30 12107 H 1147.98 0.235591 -0.628282 0
M  V30 12108 H 1150.52 0.0833106 -2.0433 0
M  V30 12109 H 1148.68 2.33446 -3.09163 0
M  V30 12110 H 1149.09 1.34205 -5.0704 0
M  V30 12111 H 1150.56 2.99618 -4.63609 0
M  V30 12112 H 1151.04 3.24618 -2.95838 0
M  V30 12113 H 1151.65 1.82594 -3.84109 0
M  V30 12114 N 1149.96 1.53094 0.37415 0
M  V30 12115 C 1150.89 1.81901 1.46404 0
M  V30 12116 C 1151.87 0.671949 1.56265 0
M  V30 12117 O 1153.06 0.920978 1.70973 0
M  V30 12118 C 1150.19 2.00123 2.83845 0
M  V30 12119 C 1149.14 3.15864 2.88814 0
M  V30 12120 C 1148.47 3.19364 4.28848 0
M  V30 12121 C 1149.77 4.54633 2.57112 0
M  V30 12122 H 1151.46 2.73172 1.22546 0
M  V30 12123 H 1149.01 1.31444 0.588087 0
M  V30 12124 H 1150.96 2.18859 3.6011 0
M  V30 12125 H 1149.68 1.05555 3.09072 0
M  V30 12126 H 1148.34 2.96935 2.15 0
M  V30 12127 H 1147.99 2.2245 4.51137 0
M  V30 12128 H 1147.69 3.97123 4.3309 0
M  V30 12129 H 1149.22 3.40273 5.06997 0
M  V30 12130 H 1150.63 4.73587 3.23091 0
M  V30 12131 H 1149.03 5.34569 2.72683 0
M  V30 12132 H 1150.1 4.60331 1.52392 0
M  V30 12133 N 1151.44 -0.633461 1.44309 0
M  V30 12134 C 1152.67 -1.41827 1.50229 0
M  V30 12135 C 1153.08 -1.88786 0.125082 0
M  V30 12136 O 1152.42 -1.61314 -0.878836 0
M  V30 12137 C 1152.48 -2.67372 2.40317 0
M  V30 12138 C 1152.15 -2.42224 3.87526 0
M  V30 12139 C 1153.14 -2.04199 4.7812 0
M  V30 12140 C 1150.83 -2.55936 4.32206 0
M  V30 12141 C 1152.82 -1.80211 6.11394 0
M  V30 12142 C 1150.51 -2.31563 5.65528 0
M  V30 12143 C 1151.51 -1.93758 6.5494 0
M  V30 12144 O 1151.2 -1.69654 7.85794 0
M  V30 12145 H 1150.93 -0.441478 0.51193 0
M  V30 12146 H 1153.48 -0.782118 1.89927 0
M  V30 12147 H 1151.71 -3.33616 1.95543 0
M  V30 12148 H 1153.4 -3.2937 2.37214 0
M  V30 12149 H 1154.17 -1.93164 4.44874 0
M  V30 12150 H 1150.05 -2.84333 3.62872 0
M  V30 12151 H 1153.59 -1.50628 6.81144 0
M  V30 12152 H 1149.49 -2.42206 5.98336 0
M  V30 12153 H 1150.25 -1.83919 7.97569 0
M  V30 12154 N 1152.92 -1.31168 -0.873655 0
M  V30 12155 C 1154.17 -1.20642 -1.6264 0
M  V30 12156 C 1154.49 0.236286 -1.93059 0
M  V30 12157 O 1153.75 1.18401 -1.55819 0
M  V30 12158 C 1154.05 -1.99204 -2.96736 0
M  V30 12159 C 1153.71 -3.48734 -2.85824 0
M  V30 12160 C 1152.38 -3.89507 -2.82555 0
M  V30 12161 C 1154.73 -4.43905 -2.73127 0
M  V30 12162 C 1152.06 -5.23724 -2.64442 0
M  V30 12163 C 1154.41 -5.78242 -2.56551 0
M  V30 12164 C 1153.07 -6.18241 -2.51663 0
M  V30 12165 H 1152.34 -0.44146 -0.595142 0
M  V30 12166 H 1154.99 -1.62394 -1.01492 0
M  V30 12167 H 1153.29 -1.50122 -3.61899 0
M  V30 12168 H 1154.99 -1.88443 -3.53963 0
M  V30 12169 H 1151.58 -3.1634 -2.89184 0
M  V30 12170 H 1155.76 -4.13338 -2.7471 0
M  V30 12171 H 1151.02 -5.53794 -2.59081 0
M  V30 12172 H 1155.19 -6.51616 -2.45702 0
M  V30 12173 H 1152.82 -7.22185 -2.37387 0
M  V30 12174 N 1154.4 1.08748 -1.14068 0
M  V30 12175 C 1155.31 2.19123 -0.837998 0
M  V30 12176 C 1156.32 1.73065 0.180164 0
M  V30 12177 O 1157.5 2.01398 0.00952285 0
M  V30 12178 C 1154.56 3.45257 -0.316 0
M  V30 12179 C 1153.62 4.05959 -1.39628 0
M  V30 12180 C 1152.86 5.26072 -0.899095 0
M  V30 12181 O 1153.08 5.69804 0.260744 0
M  V30 12182 O 1152.01 5.7808 -1.67652 0
M  V30 12183 H 1155.84 2.4748 -1.76033 0
M  V30 12184 H 1153.43 1.17816 -0.918675 0
M  V30 12185 H 1155.31 4.21389 -0.0306425 0
M  V30 12186 H 1153.98 3.18486 0.578654 0
M  V30 12187 H 1152.89 3.31432 -1.73505 0
M  V30 12188 H 1154.22 4.36971 -2.26533 0
M  V30 12189 N 1155.87 0.935264 1.26849 0
M  V30 12190 C 1157.29 0.636661 1.46352 0
M  V30 12191 C 1157.49 -0.811823 1.84423 0
M  V30 12192 O 1156.55 -1.58902 1.9623 0
M  V30 12193 C 1157.86 1.59301 2.55036 0
M  V30 12194 C 1159.41 1.60207 2.68892 0
M  V30 12195 C 1159.88 2.54558 3.80742 0
M  V30 12196 N 1161.37 2.52809 3.88126 0
M  V30 12197 C 1162.11 3.225 4.74111 0
M  V30 12198 N 1161.6 4.01598 5.64527 0
M  V30 12199 N 1163.4 3.11481 4.67906 0
M  V30 12200 H 1155.55 1.8716 1.00423 0
M  V30 12201 H 1157.81 0.803968 0.502334 0
M  V30 12202 H 1157.52 2.62671 2.33874 0
M  V30 12203 H 1157.39 1.34052 3.52576 0
M  V30 12204 H 1159.78 0.575649 2.89431 0
M  V30 12205 H 1159.86 1.89508 1.71815 0
M  V30 12206 H 1159.5 3.57314 3.60956 0
M  V30 12207 H 1159.43 2.22549 4.77263 0
M  V30 12208 H 1161.92 1.9537 3.2348 0
M  V30 12209 H 1162.24 4.51742 6.27016 0
M  V30 12210 H 1160.58 4.057 5.64298 0
M  V30 12211 H 1163.77 2.49175 3.9627 0
M  V30 12212 H 1163.95 3.66064 5.34697 0
M  V30 12213 N 1157.35 -1.41121 0.701616 0
M  V30 12214 C 1158.77 -1.55162 0.373766 0
M  V30 12215 C 1158.97 -1.6759 -1.11875 0
M  V30 12216 O 1158.02 -1.65768 -1.90465 0
M  V30 12217 C 1159.34 -2.78758 1.12759 0
M  V30 12218 C 1160.89 -2.92561 1.11253 0
M  V30 12219 C 1161.36 -4.19052 1.84822 0
M  V30 12220 N 1162.85 -4.26023 1.81821 0
M  V30 12221 C 1163.59 -5.22771 2.3558 0
M  V30 12222 N 1163.08 -6.25512 2.97836 0
M  V30 12223 N 1164.88 -5.14752 2.25802 0
M  V30 12224 H 1157.03 -1.31299 1.66956 0
M  V30 12225 H 1159.29 -0.633894 0.704898 0
M  V30 12226 H 1159 -2.75804 2.18231 0
M  V30 12227 H 1158.87 -3.70456 0.710095 0
M  V30 12228 H 1161.26 -2.95026 0.0660506 0
M  V30 12229 H 1161.34 -2.0202 1.56913 0
M  V30 12230 H 1160.98 -4.17349 2.89452 0
M  V30 12231 H 1160.91 -5.08577 1.36592 0
M  V30 12232 H 1163.4 -3.52411 1.36438 0
M  V30 12233 H 1163.72 -6.95736 3.36409 0
M  V30 12234 H 1162.06 -6.25997 3.01916 0
M  V30 12235 H 1165.25 -4.33414 1.76833 0
M  V30 12236 H 1165.42 -5.89983 2.68001 0
M  V30 12237 N 1158.83 -0.446794 -1.51134 0
M  V30 12238 C 1160.06 0.114893 -2.06581 0
M  V30 12239 C 1160.47 1.35642 -1.31327 0
M  V30 12240 O 1159.83 1.78595 -0.375506 0
M  V30 12241 C 1159.88 0.427589 -3.58962 0
M  V30 12242 O 1159.6 -0.764669 -4.31375 0
M  V30 12243 C 1161.1 1.03891 -4.30954 0
M  V30 12244 H 1158.32 0.00373031 -0.67099 0
M  V30 12245 H 1160.87 -0.628596 -1.94599 0
M  V30 12246 H 1159.02 1.12099 -3.70827 0
M  V30 12247 H 1159.44 -0.494605 -5.22163 0
M  V30 12248 H 1160.91 1.20764 -5.38628 0
M  V30 12249 H 1161.39 2.02252 -3.8986 0
M  V30 12250 H 1161.99 0.384623 -4.23557 0
M  V30 12251 N 1160.31 1.56586 -0.178487 0
M  V30 12252 C 1161.22 2.21903 0.761321 0
M  V30 12253 C 1162.23 1.21289 1.2476 0
M  V30 12254 O 1163.41 1.53974 1.29823 0
M  V30 12255 C 1160.48 2.85259 1.97048 0
M  V30 12256 C 1159.54 4.01095 1.53039 0
M  V30 12257 C 1158.77 4.61421 2.68191 0
M  V30 12258 O 1158.99 4.20644 3.85247 0
M  V30 12259 O 1157.93 5.51171 2.41855 0
M  V30 12260 H 1161.75 3.02788 0.235141 0
M  V30 12261 H 1159.34 1.49316 0.0500442 0
M  V30 12262 H 1161.22 3.25404 2.6775 0
M  V30 12263 H 1159.89 2.07366 2.48558 0
M  V30 12264 H 1158.8 3.65606 0.792661 0
M  V30 12265 H 1160.13 4.80603 1.06213 0
M  V30 12266 N 1161.79 -0.095206 1.57312 0
M  V30 12267 C 1163.03 -0.798719 1.86083 0
M  V30 12268 C 1163.36 -1.78739 0.766991 0
M  V30 12269 O 1162.62 -1.9423 -0.239425 0
M  V30 12270 C 1162.92 -1.56244 3.21438 0
M  V30 12271 C 1162.58 -0.715903 4.4518 0
M  V30 12272 C 1161.24 -0.482537 4.78774 0
M  V30 12273 C 1163.6 -0.127404 5.21044 0
M  V30 12274 C 1160.92 0.349193 5.8566 0
M  V30 12275 C 1163.28 0.691649 6.28808 0
M  V30 12276 C 1161.94 0.935107 6.60918 0
M  V30 12277 H 1161.21 -0.292272 0.680924 0
M  V30 12278 H 1163.86 -0.0602105 1.91405 0
M  V30 12279 H 1162.16 -2.37251 3.118 0
M  V30 12280 H 1163.86 -2.11116 3.40927 0
M  V30 12281 H 1160.45 -0.907902 4.18874 0
M  V30 12282 H 1164.63 -0.29486 4.95423 0
M  V30 12283 H 1159.89 0.546797 6.0895 0
M  V30 12284 H 1164.06 1.15452 6.86763 0
M  V30 12285 H 1161.69 1.58139 7.4357 0
M  V30 12286 N 1163.26 -1.53291 -0.366026 0
M  V30 12287 C 1164.51 -1.69451 -1.10872 0
M  V30 12288 C 1164.84 -0.446078 -1.89316 0
M  V30 12289 O 1164.09 0.571962 -1.87155 0
M  V30 12290 C 1164.39 -2.89547 -2.09517 0
M  V30 12291 C 1164.06 -4.26073 -1.47556 0
M  V30 12292 C 1162.72 -4.63199 -1.30386 0
M  V30 12293 C 1165.07 -5.10977 -1.02724 0
M  V30 12294 C 1162.4 -5.82866 -0.669666 0
M  V30 12295 C 1164.75 -6.31289 -0.407052 0
M  V30 12296 C 1163.42 -6.67128 -0.222839 0
M  V30 12297 H 1162.69 -0.620066 -0.405708 0
M  V30 12298 H 1165.33 -1.87475 -0.390563 0
M  V30 12299 H 1163.64 -2.66034 -2.87634 0
M  V30 12300 H 1165.34 -2.99245 -2.66933 0
M  V30 12301 H 1161.93 -3.9684 -1.61914 0
M  V30 12302 H 1166.11 -4.82844 -1.14783 0
M  V30 12303 H 1161.37 -6.09224 -0.515351 0
M  V30 12304 H 1165.54 -6.96381 -0.0514661 0
M  V30 12305 H 1163.17 -7.59718 0.270647 0
M  V30 12306 N 1164.74 0.6258 -1.44643 0
M  V30 12307 C 1165.65 1.76611 -1.5442 0
M  V30 12308 C 1166.67 1.68614 -0.429576 0
M  V30 12309 O 1167.84 1.89296 -0.687686 0
M  V30 12310 C 1164.91 3.13015 -1.49071 0
M  V30 12311 C 1163.97 3.32604 -2.71428 0
M  V30 12312 C 1163.2 4.62501 -2.66325 0
M  V30 12313 O 1163.43 5.43651 -1.72626 0
M  V30 12314 O 1162.36 4.84408 -3.57258 0
M  V30 12315 H 1166.19 1.71315 -2.50769 0
M  V30 12316 H 1163.77 0.787677 -1.26949 0
M  V30 12317 H 1165.65 3.94318 -1.48631 0
M  V30 12318 H 1164.33 3.18842 -0.558686 0
M  V30 12319 H 1163.24 2.50959 -2.77435 0
M  V30 12320 H 1164.57 3.31642 -3.63695 0
M  V30 12321 N 1166.22 1.31629 0.866686 0
M  V30 12322 C 1167.15 1.22151 1.99001 0
M  V30 12323 C 1168.13 0.107972 1.69757 0
M  V30 12324 O 1169.32 0.293125 1.91975 0
M  V30 12325 C 1166.45 0.93144 3.34577 0
M  V30 12326 C 1165.4 2.0049 3.78137 0
M  V30 12327 C 1164.73 1.56747 5.11209 0
M  V30 12328 C 1166.03 3.41844 3.94892 0
M  V30 12329 H 1167.72 2.16132 2.0719 0
M  V30 12330 H 1165.27 1.04051 0.995463 0
M  V30 12331 H 1167.22 0.851719 4.12703 0
M  V30 12332 H 1165.94 -0.0440289 3.2657 0
M  V30 12333 H 1164.6 2.07457 3.02253 0
M  V30 12334 H 1164.25 0.579767 4.99648 0
M  V30 12335 H 1163.95 2.28562 5.41326 0
M  V30 12336 H 1165.47 1.50188 5.91841 0
M  V30 12337 H 1166.89 3.37534 4.63405 0
M  V30 12338 H 1165.29 4.11905 4.36411 0
M  V30 12339 H 1166.36 3.82389 2.98172 0
M  V30 12340 N 1167.7 -1.08142 1.14644 0
M  V30 12341 C 1168.95 -1.80849 0.917685 0
M  V30 12342 C 1169.28 -1.86123 -0.554249 0
M  V30 12343 O 1168.55 -1.33907 -1.41065 0
M  V30 12344 C 1168.84 -3.26325 1.52264 0
M  V30 12345 C 1168.69 -3.29244 3.06461 0
M  V30 12346 C 1170.01 -4.23375 1.20175 0
M  V30 12347 H 1167.13 -0.656559 0.334812 0
M  V30 12348 H 1169.77 -1.26595 1.41682 0
M  V30 12349 H 1167.92 -3.72656 1.09817 0
M  V30 12350 H 1169.59 -2.91216 3.57758 0
M  V30 12351 H 1167.83 -2.68438 3.40769 0
M  V30 12352 H 1168.51 -4.31785 3.43897 0
M  V30 12353 H 1170.98 -3.85394 1.56877 0
M  V30 12354 H 1169.86 -5.23472 1.65132 0
M  V30 12355 H 1170.12 -4.41944 0.117474 0
M  V30 12356 N 1169.18 -0.941978 -1.26351 0
M  V30 12357 C 1170.4 -0.606231 -1.98342 0
M  V30 12358 C 1170.83 0.812014 -1.6967 0
M  V30 12359 O 1170.19 1.54712 -0.9452 0
M  V30 12360 C 1170.23 -0.855864 -3.50296 0
M  V30 12361 O 1169.34 0.0716251 -4.12338 0
M  V30 12362 H 1168.68 -0.231815 -0.62222 0
M  V30 12363 H 1171.21 -1.26513 -1.60797 0
M  V30 12364 H 1171.22 -0.777079 -4.00531 0
M  V30 12365 H 1169.89 -1.8896 -3.70496 0
M  V30 12366 H 1168.47 -0.0582866 -3.72854 0
M  V30 12367 N 1170.66 1.40747 -0.709091 0
M  V30 12368 C 1171.6 2.30741 -0.0523584 0
M  V30 12369 C 1172.57 1.4784 0.757145 0
M  V30 12370 O 1173.76 1.76595 0.72242 0
M  V30 12371 C 1170.9 3.34 0.868203 0
M  V30 12372 C 1170.01 4.31972 0.0488686 0
M  V30 12373 C 1169.15 5.223 0.968311 0
M  V30 12374 C 1168.18 6.11934 0.142682 0
M  V30 12375 N 1167.32 6.947 1.01665 0
M  V30 12376 H 1172.16 2.86338 -0.825509 0
M  V30 12377 H 1169.7 1.41013 -0.418785 0
M  V30 12378 H 1171.66 3.92431 1.41611 0
M  V30 12379 H 1170.29 2.79921 1.6076 0
M  V30 12380 H 1169.34 3.75377 -0.616137 0
M  V30 12381 H 1170.65 4.95291 -0.590625 0
M  V30 12382 H 1169.8 5.85631 1.58498 0
M  V30 12383 H 1168.54 4.5924 1.64164 0
M  V30 12384 H 1167.55 5.47639 -0.486965 0
M  V30 12385 H 1168.77 6.77052 -0.527046 0
M  V30 12386 H 1166.72 6.34236 1.67575 0
M  V30 12387 H 1166.64 7.54759 0.433045 0
M  V30 12388 H 1167.9 7.62487 1.6197 0
M  V30 12389 N 1172.13 0.454803 1.50895 0
M  V30 12390 C 1173.38 -0.105562 2.01824 0
M  V30 12391 C 1173.7 -1.41673 1.33992 0
M  V30 12392 O 1172.97 -1.89929 0.479994 0
M  V30 12393 H 1171.55 -0.0420011 0.745818 0
M  V30 12394 H 1174.21 0.601504 1.85386 0
M  V30 12395 H 1173.31 -0.268872 3.1094 0
M  V30 12396 N 1173.61 -1.56489 0.186789 0
M  V30 12397 C 1174.52 -2.22304 -0.749543 0
M  V30 12398 C 1175.54 -1.21949 -1.24115 0
M  V30 12399 O 1176.71 -1.5466 -1.29005 0
M  V30 12400 C 1173.78 -2.863 -1.95533 0
M  V30 12401 C 1172.84 -4.01901 -1.5091 0
M  V30 12402 C 1172.07 -4.62837 -2.6574 0
M  V30 12403 O 1172.3 -4.22681 -3.8301 0
M  V30 12404 O 1171.23 -5.52446 -2.38929 0
M  V30 12405 H 1175.06 -3.02909 -0.21908 0
M  V30 12406 H 1172.64 -1.49341 -0.0421249 0
M  V30 12407 H 1174.52 -3.2682 -2.6602 0
M  V30 12408 H 1173.2 -2.08681 -2.47455 0
M  V30 12409 H 1172.1 -3.66021 -0.773261 0
M  V30 12410 H 1173.44 -4.8116 -1.03663 0
M  V30 12411 N 1175.09 0.086862 -1.5736 0
M  V30 12412 C 1176.32 0.801004 -1.9044 0
M  V30 12413 C 1176.73 1.72396 -0.779513 0
M  V30 12414 O 1176.07 1.81894 0.256972 0
M  V30 12415 C 1176.13 1.66055 -3.18851 0
M  V30 12416 C 1175.8 0.908561 -4.47877 0
M  V30 12417 C 1176.79 0.234621 -5.1937 0
M  V30 12418 C 1174.48 0.8802 -4.94528 0
M  V30 12419 C 1176.47 -0.45762 -6.35755 0
M  V30 12420 C 1174.16 0.184179 -6.10822 0
M  V30 12421 C 1175.16 -0.483545 -6.81286 0
M  V30 12422 O 1174.85 -1.16839 -7.95364 0
M  V30 12423 H 1174.58 0.233794 -0.634284 0
M  V30 12424 H 1177.13 0.0660113 -2.05294 0
M  V30 12425 H 1175.36 2.43798 -3.00165 0
M  V30 12426 H 1177.05 2.252 -3.37698 0
M  V30 12427 H 1177.82 0.247938 -4.84366 0
M  V30 12428 H 1173.7 1.38938 -4.39565 0
M  V30 12429 H 1177.24 -0.979369 -6.90691 0
M  V30 12430 H 1173.14 0.168737 -6.45279 0
M  V30 12431 H 1173.9 -1.07612 -8.11395 0
M  V30 12432 N 1176.57 1.53483 0.357892 0
M  V30 12433 C 1177.84 1.60649 1.11585 0
M  V30 12434 C 1178.22 0.418789 2.06904 0
M  V30 12435 O 1177.57 -0.590279 2.20744 0
M  V30 12436 C 1177.78 2.96046 1.84818 0
M  V30 12437 C 1179.13 3.50895 2.39076 0
M  V30 12438 O 1180.15 2.98126 1.94934 0
M  V30 12439 O 1179.01 4.43163 3.19794 0
M  V30 12440 H 1176.11 0.649202 0.512315 0
M  V30 12441 H 1178.65 1.65826 0.360537 0
M  V30 12442 H 1177.43 3.73929 1.15296 0
M  V30 12443 H 1177.05 2.94395 2.6724 0
M  V30 12444 N 1178.05 -0.61812 1.44973 0
M  V30 12445 C 1179.29 -1.37754 1.4965 0
M  V30 12446 C 1179.65 -1.91945 0.132201 0
M  V30 12447 O 1178.94 -1.71493 -0.854439 0
M  V30 12448 C 1179.13 -2.55143 2.50274 0
M  V30 12449 C 1178.96 -2.12446 3.96354 0
M  V30 12450 C 1177.73 -1.99112 4.64416 0
M  V30 12451 C 1179.93 -1.70557 4.85196 0
M  V30 12452 N 1177.91 -1.50114 5.95264 0
M  V30 12453 C 1179.28 -1.329 6.05589 0
M  V30 12454 C 1181.34 -1.58054 4.72147 0
M  V30 12455 C 1180.04 -0.839882 7.1438 0
M  V30 12456 C 1182.07 -1.10547 5.80976 0
M  V30 12457 C 1181.43 -0.738477 7.00518 0
M  V30 12458 H 1177.53 -0.498393 0.602601 0
M  V30 12459 H 1180.11 -0.70775 1.81381 0
M  V30 12460 H 1178.28 -3.19732 2.20513 0
M  V30 12461 H 1180.02 -3.21988 2.45166 0
M  V30 12462 H 1176.77 -2.19971 4.19416 0
M  V30 12463 H 1177.19 -1.27878 6.64813 0
M  V30 12464 H 1181.84 -1.85056 3.8015 0
M  V30 12465 H 1179.55 -0.557395 8.06175 0
M  V30 12466 H 1183.14 -1.01314 5.72911 0
M  V30 12467 H 1182.02 -0.376513 7.83296 0
M  V30 12468 N 1179.52 -1.32087 -0.859693 0
M  V30 12469 C 1180.47 -1.20549 -1.98924 0
M  V30 12470 C 1181.47 -0.111422 -1.69033 0
M  V30 12471 O 1182.67 -0.27401 -1.77902 0
M  V30 12472 H 1179.05 -0.373538 -0.652667 0
M  V30 12473 H 1181.02 -2.16091 -2.05785 0
M  V30 12474 C 1179.77 -0.940226 -3.34746 0
M  V30 12475 H 1179.09 -1.77427 -3.58273 0
M  V30 12476 H 1180.53 -0.899712 -4.14344 0
M  V30 12477 C 1178.99 0.357042 -3.35003 0
M  V30 12478 O 1179.52 1.37054 -3.77596 0
M  V30 12479 N 1177.72 0.37723 -2.88141 0
M  V30 12480 H 1177.27 -0.448051 -2.53674 0
M  V30 12481 H 1177.23 1.24509 -2.88695 0
M  V30 12482 N 1181 1.07532 -1.15215 0
M  V30 12483 C 1182.25 1.79474 -0.920439 0
M  V30 12484 C 1182.56 1.87593 0.553926 0
M  V30 12485 O 1183.77 2.56037 0.903169 0
M  V30 12486 C 1182.23 3.22509 -1.59738 0
M  V30 12487 C 1181.83 3.22596 -3.10863 0
M  V30 12488 C 1183.58 3.99072 -1.44714 0
M  V30 12489 C 1181.48 4.60273 -3.71352 0
M  V30 12490 H 1180.41 0.672625 -0.340722 0
M  V30 12491 H 1183.07 1.2071 -1.38208 0
M  V30 12492 H 1181.45 3.81454 -1.06342 0
M  V30 12493 H 1182.62 2.73306 -3.70999 0
M  V30 12494 H 1180.94 2.5953 -3.25627 0
M  V30 12495 H 1183.53 5.00823 -1.87299 0
M  V30 12496 H 1183.88 4.14428 -0.394386 0
M  V30 12497 H 1184.41 3.46617 -1.95195 0
M  V30 12498 H 1181.15 4.50122 -4.76519 0
M  V30 12499 H 1180.67 5.09809 -3.15998 0
M  V30 12500 H 1182.35 5.29243 -3.7217 0
M  V30 12501 N 1182.48 0.948665 1.2585 0
M  V30 12502 C 1183.43 0.462904 2.2611 0
M  V30 12503 C 1184.4 -0.481433 1.5897 0
M  V30 12504 O 1185.58 -0.395997 1.86645 0
M  V30 12505 C 1182.72 -0.258808 3.44128 0
M  V30 12506 C 1181.84 0.722072 4.25923 0
M  V30 12507 C 1180.97 -0.0215958 5.31196 0
M  V30 12508 C 1180.01 0.950612 6.04673 0
M  V30 12509 N 1179.15 0.238209 7.01696 0
M  V30 12510 H 1183.99 1.32279 2.67032 0
M  V30 12511 H 1181.52 0.663485 1.31287 0
M  V30 12512 H 1183.48 -0.693759 4.11391 0
M  V30 12513 H 1182.11 -1.08278 3.04098 0
M  V30 12514 H 1181.16 1.27552 3.58378 0
M  V30 12515 H 1182.48 1.46421 4.76825 0
M  V30 12516 H 1181.63 -0.51547 6.04506 0
M  V30 12517 H 1180.37 -0.796563 4.81151 0
M  V30 12518 H 1179.37 1.45554 5.30183 0
M  V30 12519 H 1180.6 1.72571 6.56808 0
M  V30 12520 H 1178.54 -0.518129 6.53951 0
M  V30 12521 H 1178.46 0.919542 7.50387 0
M  V30 12522 H 1179.73 -0.234325 7.79148 0
M  V30 12523 N 1183.96 -1.40369 0.716545 0
M  V30 12524 C 1184.91 -2.32539 0.053472 0
M  V30 12525 C 1185.9 -1.5209 -0.745984 0
M  V30 12526 O 1187.11 -1.67883 -0.649245 0
M  V30 12527 H 1183.48 -0.751998 -0.00151088 0
M  V30 12528 H 1185.45 -2.86111 0.847535 0
M  V30 12529 C 1184.2 -3.37061 -0.853515 0
M  V30 12530 H 1183.52 -3.99032 -0.247754 0
M  V30 12531 H 1184.96 -4.04046 -1.28541 0
M  V30 12532 C 1183.42 -2.72619 -1.97941 0
M  V30 12533 O 1183.95 -2.59024 -3.07033 0
M  V30 12534 N 1182.16 -2.30988 -1.76332 0
M  V30 12535 H 1181.71 -2.42246 -0.876063 0
M  V30 12536 H 1181.66 -1.88209 -2.51843 0
M  V30 12537 N 1185.44 -0.462799 -1.50652 0
M  V30 12538 C 1186.39 0.354133 -2.25233 0
M  V30 12539 C 1187.37 0.968553 -1.28483 0
M  V30 12540 O 1188.56 0.882476 -1.53432 0
M  V30 12541 C 1185.69 1.44033 -3.11624 0
M  V30 12542 C 1184.78 0.834046 -4.15818 0
M  V30 12543 N 1185.17 -0.0407022 -5.05784 0
M  V30 12544 C 1183.47 1.0989 -4.3225 0
M  V30 12545 C 1184.17 -0.383917 -5.80432 0
M  V30 12546 N 1183.14 0.238851 -5.43075 0
M  V30 12547 H 1186.95 -0.319855 -2.92154 0
M  V30 12548 H 1184.46 -0.276428 -1.6003 0
M  V30 12549 H 1186.46 2.03868 -3.63653 0
M  V30 12550 H 1185.12 2.11639 -2.4625 0
M  V30 12551 H 1186.13 -0.408959 -5.16283 0
M  V30 12552 H 1182.8 1.77056 -3.78097 0
M  V30 12553 H 1184.19 -1.0973 -6.62879 0
M  V30 12554 N 1186.91 1.56388 -0.195085 0
M  V30 12555 C 1188.33 1.58788 0.160758 0
M  V30 12556 C 1188.53 1.21125 1.61031 0
M  V30 12557 O 1187.59 0.933994 2.34591 0
M  V30 12558 C 1188.9 3.00366 -0.141588 0
M  V30 12559 C 1190.45 3.12893 -0.0816947 0
M  V30 12560 C 1190.92 4.56604 -0.35735 0
M  V30 12561 N 1192.41 4.62188 -0.305968 0
M  V30 12562 C 1193.15 5.71276 -0.493108 0
M  V30 12563 N 1192.64 6.8883 -0.740595 0
M  V30 12564 N 1194.44 5.60473 -0.427365 0
M  V30 12565 H 1186.59 1.79151 -1.14099 0
M  V30 12566 H 1188.85 0.831446 -0.455413 0
M  V30 12567 H 1188.56 3.32483 -1.14666 0
M  V30 12568 H 1188.43 3.73082 0.555834 0
M  V30 12569 H 1190.82 2.80589 0.913978 0
M  V30 12570 H 1190.9 2.42564 -0.812193 0
M  V30 12571 H 1190.54 4.8962 -1.35034 0
M  V30 12572 H 1190.47 5.25124 0.394036 0
M  V30 12573 H 1192.96 3.77705 -0.121298 0
M  V30 12574 H 1193.28 7.67862 -0.872201 0
M  V30 12575 H 1191.62 6.90637 -0.777488 0
M  V30 12576 H 1194.81 4.67513 -0.234436 0
M  V30 12577 H 1194.99 6.45429 -0.576627 0
M  V30 12578 N 1188.39 -0.0785156 1.57404 0
M  V30 12579 C 1189.67 -0.811557 1.77969 0
M  V30 12580 C 1190.05 -1.96123 0.780966 0
M  V30 12581 O 1189.4 -2.27731 -0.18726 0
M  V30 12582 C 1189.61 -1.29075 3.24254 0
M  V30 12583 C 1190.96 -1.72685 3.87898 0
M  V30 12584 O 1191.98 -1.38658 3.28104 0
M  V30 12585 O 1190.84 -2.3566 4.93079 0
M  V30 12586 H 1187.93 -0.388361 0.73014 0
M  V30 12587 H 1190.48 -0.0591118 1.69597 0
M  V30 12588 H 1189.25 -0.467813 3.88494 0
M  V30 12589 H 1188.87 -2.10472 3.37324 0
M  V30 12590 N 1189.87 -1.5367 -0.349747 0
M  V30 12591 C 1191.12 -1.69835 -1.08807 0
M  V30 12592 C 1191.43 -0.46497 -1.89993 0
M  V30 12593 O 1192.64 -0.507452 -2.66716 0
M  V30 12594 C 1191.09 -3.00294 -1.98372 0
M  V30 12595 C 1190.7 -4.30949 -1.22422 0
M  V30 12596 C 1192.45 -3.25826 -2.72099 0
M  V30 12597 C 1190.35 -5.52486 -2.1098 0
M  V30 12598 H 1189.28 -0.63284 -0.409915 0
M  V30 12599 H 1191.93 -1.80171 -0.347968 0
M  V30 12600 H 1190.32 -2.838 -2.76176 0
M  V30 12601 H 1191.49 -4.58126 -0.495707 0
M  V30 12602 H 1189.81 -4.11983 -0.604896 0
M  V30 12603 H 1192.4 -4.13817 -3.38615 0
M  V30 12604 H 1192.75 -2.42566 -3.3833 0
M  V30 12605 H 1193.28 -3.43067 -2.0137 0
M  V30 12606 H 1190.02 -6.38271 -1.49301 0
M  V30 12607 H 1189.54 -5.29566 -2.81638 0
M  V30 12608 H 1191.22 -5.87889 -2.70176 0
M  V30 12609 N 1191.35 0.610423 -1.45298 0
M  V30 12610 C 1192.6 1.36951 -1.49167 0
M  V30 12611 C 1192.92 1.9405 -0.132292 0
M  V30 12612 O 1192.18 1.75363 0.868686 0
M  V30 12613 C 1192.48 2.53812 -2.51623 0
M  V30 12614 C 1192.14 2.14877 -3.96407 0
M  V30 12615 C 1190.81 2.03972 -4.35831 0
M  V30 12616 C 1193.16 1.84448 -4.87472 0
M  V30 12617 C 1190.49 1.60856 -5.64218 0
M  V30 12618 C 1192.84 1.42818 -6.16268 0
M  V30 12619 C 1191.5 1.3047 -6.54625 0
M  V30 12620 H 1190.77 0.501138 -0.54584 0
M  V30 12621 H 1193.42 0.690221 -1.78629 0
M  V30 12622 H 1191.72 3.27066 -2.1572 0
M  V30 12623 H 1193.42 3.12041 -2.51856 0
M  V30 12624 H 1190.01 2.2429 -3.65229 0
M  V30 12625 H 1194.19 1.91771 -4.57753 0
M  V30 12626 H 1189.45 1.49916 -5.92735 0
M  V30 12627 H 1193.62 1.18318 -6.86275 0
M  V30 12628 H 1191.25 0.968347 -7.54007 0
M  V30 12629 N 1192.83 1.32541 0.852676 0
M  V30 12630 C 1194.24 1.11575 1.14119 0
M  V30 12631 C 1194.44 -0.102469 2.01239 0
M  V30 12632 O 1193.5 -0.786786 2.39929 0
M  V30 12633 C 1194.81 2.39624 1.81661 0
M  V30 12634 C 1196.36 2.454 1.94288 0
M  V30 12635 C 1196.83 3.73375 2.65245 0
M  V30 12636 N 1198.33 3.74368 2.72769 0
M  V30 12637 C 1199.06 4.70094 3.28328 0
M  V30 12638 N 1198.56 5.76187 3.84682 0
M  V30 12639 N 1200.35 4.57588 3.26449 0
M  V30 12640 H 1192.5 2.10644 0.272544 0
M  V30 12641 H 1194.76 0.930094 0.183385 0
M  V30 12642 H 1194.47 3.28698 1.25102 0
M  V30 12643 H 1194.34 2.50734 2.81802 0
M  V30 12644 H 1196.73 1.56784 2.50005 0
M  V30 12645 H 1196.81 2.38241 0.931379 0
M  V30 12646 H 1196.46 4.62366 2.10191 0
M  V30 12647 H 1196.39 3.77806 3.66838 0
M  V30 12648 H 1198.88 2.97685 2.32791 0
M  V30 12649 H 1199.19 6.45285 4.25238 0
M  V30 12650 H 1197.53 5.79939 3.83008 0
M  V30 12651 H 1200.73 3.7387 2.81672 0
M  V30 12652 H 1200.9 5.32365 3.69448 0
M  V30 12653 N 1194.3 -1.0692 1.15784 0
M  V30 12654 C 1195.53 -1.83849 0.959903 0
M  V30 12655 C 1195.95 -1.8169 -0.486873 0
M  V30 12656 O 1195.31 -1.21305 -1.34739 0
M  V30 12657 C 1195.36 -3.28642 1.48414 0
M  V30 12658 O 1194.46 -4.0665 0.686249 0
M  V30 12659 H 1193.81 -0.569115 0.342059 0
M  V30 12660 H 1196.34 -1.34851 1.53871 0
M  V30 12661 H 1196.35 -3.7947 1.49888 0
M  V30 12662 H 1195.02 -3.29529 2.53739 0
M  V30 12663 H 1193.6 -3.65453 0.741501 0
M  V30 12664 N 1195.78 -0.955326 -1.25345 0
M  V30 12665 C 1196.72 -0.420299 -2.24296 0
M  V30 12666 C 1197.69 0.498753 -1.54762 0
M  V30 12667 O 1198.88 0.432971 -1.8346 0
M  V30 12668 C 1196 0.394576 -3.36394 0
M  V30 12669 C 1195.05 -0.464973 -4.23958 0
M  V30 12670 S 1195.88 -1.89764 -5.00749 0
M  V30 12671 C 1197.04 -1.09121 -6.16314 0
M  V30 12672 H 1197.27 -1.25888 -2.69331 0
M  V30 12673 H 1194.81 -0.759449 -1.34431 0
M  V30 12674 H 1196.76 0.858788 -4.01416 0
M  V30 12675 H 1195.42 1.20799 -2.89942 0
M  V30 12676 H 1194.62 0.160055 -5.03746 0
M  V30 12677 H 1194.22 -0.864422 -3.63873 0
M  V30 12678 H 1196.51 -0.340218 -6.76645 0
M  V30 12679 H 1197.45 -1.86304 -6.83152 0
M  V30 12680 H 1197.86 -0.621033 -5.61073 0
M  V30 12681 N 1197.26 1.39987 -0.723979 0
M  V30 12682 C 1198.19 2.3332 -0.0917282 0
M  V30 12683 C 1199.17 1.53335 0.736361 0
M  V30 12684 O 1200.36 1.81771 0.683582 0
M  V30 12685 C 1197.49 3.3737 0.824549 0
M  V30 12686 C 1196.44 4.2788 0.101452 0
M  V30 12687 C 1195.77 5.22536 1.13401 0
M  V30 12688 C 1197.07 5.11649 -1.04939 0
M  V30 12689 H 1198.76 2.86441 -0.871318 0
M  V30 12690 H 1196.31 1.37725 -0.420448 0
M  V30 12691 H 1198.26 4.01607 1.27631 0
M  V30 12692 H 1196.98 2.82663 1.63613 0
M  V30 12693 H 1195.64 3.65107 -0.330569 0
M  V30 12694 H 1195.29 4.64131 1.93886 0
M  V30 12695 H 1194.99 5.83938 0.65502 0
M  V30 12696 H 1196.52 5.89651 1.58569 0
M  V30 12697 H 1197.93 5.69293 -0.6766 0
M  V30 12698 H 1196.33 5.82137 -1.45729 0
M  V30 12699 H 1197.4 4.47132 -1.8762 0
M  V30 12700 N 1198.74 0.470782 1.50404 0
M  V30 12701 C 1199.67 -0.369532 2.25188 0
M  V30 12702 C 1200.65 -0.996478 1.28488 0
M  V30 12703 O 1201.83 -1.03247 1.57709 0
M  V30 12704 C 1198.96 -1.51775 3.02791 0
M  V30 12705 C 1198.01 -1.00821 4.14412 0
M  V30 12706 S 1198.84 0.076844 5.35445 0
M  V30 12707 C 1200 -1.07525 6.16595 0
M  V30 12708 H 1200.23 0.265286 2.96114 0
M  V30 12709 H 1197.76 0.255662 1.52269 0
M  V30 12710 H 1199.72 -2.17582 3.48092 0
M  V30 12711 H 1198.38 -2.12408 2.31391 0
M  V30 12712 H 1197.57 -1.8678 4.68112 0
M  V30 12713 H 1197.18 -0.427851 3.71545 0
M  V30 12714 H 1199.47 -1.98693 6.47709 0
M  V30 12715 H 1200.41 -0.577518 7.05741 0
M  V30 12716 H 1200.82 -1.32894 5.48634 0
M  V30 12717 N 1200.22 -1.56282 0.203376 0
M  V30 12718 C 1201.45 -2.02198 -0.438572 0
M  V30 12719 C 1201.86 -1.08343 -1.54619 0
M  V30 12720 O 1201.22 -0.0897594 -1.82279 0
M  V30 12721 C 1201.27 -3.4776 -0.987184 0
M  V30 12722 O 1200.99 -4.38034 0.0762552 0
M  V30 12723 C 1202.49 -4.09234 -1.70419 0
M  V30 12724 H 1199.71 -0.662041 -0.109282 0
M  V30 12725 H 1202.25 -2.02067 0.314509 0
M  V30 12726 H 1200.41 -3.48564 -1.69061 0
M  V30 12727 H 1200.82 -5.2344 -0.333322 0
M  V30 12728 H 1202.3 -5.1291 -2.04027 0
M  V30 12729 H 1202.77 -3.53172 -2.61087 0
M  V30 12730 H 1203.38 -4.12226 -1.04641 0
M  V30 12731 N 1201.7 0.070167 -1.57444 0
M  V30 12732 C 1202.66 1.06761 -2.02817 0
M  V30 12733 C 1203.66 1.31498 -0.925462 0
M  V30 12734 O 1204.85 1.27192 -1.19029 0
M  V30 12735 C 1201.98 2.41086 -2.41019 0
M  V30 12736 H 1203.17 0.67651 -2.9217 0
M  V30 12737 H 1200.73 0.315936 -1.53074 0
M  V30 12738 H 1201.46 2.85025 -1.54697 0
M  V30 12739 H 1201.25 2.24472 -3.21488 0
M  V30 12740 H 1202.74 3.12778 -2.76694 0
M  V30 12741 N 1203.17 1.53854 0.341593 0
M  V30 12742 C 1204.41 1.72909 1.09004 0
M  V30 12743 C 1204.78 0.48304 1.85824 0
M  V30 12744 O 1205.98 0.550651 2.63099 0
M  V30 12745 C 1204.25 2.95884 2.00468 0
M  V30 12746 S 1205.81 3.3576 2.82508 0
M  V30 12747 H 1202.63 0.608187 0.368279 0
M  V30 12748 H 1205.23 1.92001 0.368222 0
M  V30 12749 H 1203.93 3.84742 1.42836 0
M  V30 12750 H 1203.46 2.79263 2.77084 0
M  V30 12751 H 1205.48 2.89647 4.02888 0
M  V30 12752 N 1204.65 -0.602709 1.4562 0
M  V30 12753 C 1205.93 -1.36224 1.40366 0
M  V30 12754 C 1206.31 -2.1096 0.0767645 0
M  V30 12755 O 1205.66 -2.08207 -0.941378 0
M  V30 12756 C 1205.87 -2.30499 2.62052 0
M  V30 12757 C 1207.21 -2.92954 3.07348 0
M  V30 12758 O 1208.24 -2.40818 2.62459 0
M  V30 12759 O 1207.1 -3.87601 3.85263 0
M  V30 12760 H 1204.19 -0.611064 0.557253 0
M  V30 12761 H 1206.74 -0.625391 1.57756 0
M  V30 12762 H 1205.51 -1.74566 3.50203 0
M  V30 12763 H 1205.13 -3.11556 2.4702 0
M  V30 12764 N 1206.13 -1.32992 -0.845635 0
M  V30 12765 C 1207.06 -1.25301 -1.97033 0
M  V30 12766 C 1208.04 -0.134966 -1.69564 0
M  V30 12767 O 1209.23 -0.323629 -1.91484 0
M  V30 12768 C 1206.36 -0.984551 -3.33052 0
M  V30 12769 C 1205.31 -2.06481 -3.749 0
M  V30 12770 C 1204.64 -1.6486 -5.08651 0
M  V30 12771 C 1205.94 -3.48083 -3.89404 0
M  V30 12772 H 1207.63 -2.194 -2.03725 0
M  V30 12773 H 1205.18 -1.05621 -0.978783 0
M  V30 12774 H 1207.13 -0.917269 -4.11296 0
M  V30 12775 H 1205.85 -0.00793116 -3.26599 0
M  V30 12776 H 1204.51 -2.1224 -2.98915 0
M  V30 12777 H 1204.16 -0.659183 -4.98662 0
M  V30 12778 H 1203.86 -2.37145 -5.37621 0
M  V30 12779 H 1205.38 -1.59585 -5.89377 0
M  V30 12780 H 1206.8 -3.44863 -4.57976 0
M  V30 12781 H 1205.19 -4.18796 -4.29802 0
M  V30 12782 H 1206.26 -3.87084 -2.92051 0
M  V30 12783 N 1207.61 1.06304 -1.1635 0
M  V30 12784 C 1208.86 1.78747 -0.943074 0
M  V30 12785 C 1209.18 1.87646 0.530483 0
M  V30 12786 O 1208.45 1.38506 1.38538 0
M  V30 12787 H 1207.03 0.662072 -0.345932 0
M  V30 12788 H 1209.69 1.28413 -1.46615 0
M  V30 12789 H 1208.78 2.80828 -1.3617 0
M  V30 12790 N 1209.09 0.96196 1.24836 0
M  V30 12791 C 1210.05 0.492443 2.23847 0
M  V30 12792 C 1211.05 -0.40788 1.55541 0
M  V30 12793 O 1212.24 -0.204143 1.73 0
M  V30 12794 C 1209.37 -0.287578 3.39685 0
M  V30 12795 H 1210.56 1.36767 2.66899 0
M  V30 12796 H 1208.12 0.745967 1.3735 0
M  V30 12797 H 1208.85 -1.18015 3.02064 0
M  V30 12798 H 1208.64 0.358431 3.90458 0
M  V30 12799 H 1210.13 -0.605297 4.1319 0
M  V30 12800 N 1210.56 -1.39601 0.731392 0
M  V30 12801 C 1211.81 -2.00883 0.278168 0
M  V30 12802 C 1212.14 -1.57897 -1.13059 0
M  V30 12803 O 1211.42 -0.806203 -1.77005 0
M  V30 12804 C 1211.7 -3.58132 0.375969 0
M  V30 12805 C 1211.55 -4.11147 1.82423 0
M  V30 12806 C 1212.87 -4.39425 -0.243702 0
M  V30 12807 H 1209.99 -0.729831 0.102549 0
M  V30 12808 H 1212.63 -1.65859 0.926869 0
M  V30 12809 H 1210.78 -3.881 -0.176329 0
M  V30 12810 H 1212.46 -3.91914 2.43313 0
M  V30 12811 H 1210.7 -3.64842 2.34675 0
M  V30 12812 H 1211.37 -5.20291 1.84396 0
M  V30 12813 H 1213.85 -4.1548 0.227067 0
M  V30 12814 H 1212.72 -5.48709 -0.144907 0
M  V30 12815 H 1212.98 -4.21642 -1.32929 0
M  V30 12816 N 1212.04 -0.478751 -1.50152 0
M  V30 12817 C 1213.27 0.0710485 -2.06778 0
M  V30 12818 C 1213.69 1.32826 -1.34174 0
M  V30 12819 O 1213.04 1.77758 -0.413304 0
M  V30 12820 C 1213.09 0.351351 -3.59789 0
M  V30 12821 O 1212.81 -0.855998 -4.29656 0
M  V30 12822 C 1214.32 0.947269 -4.33061 0
M  V30 12823 H 1211.54 -0.0105032 -0.670918 0
M  V30 12824 H 1214.08 -0.669732 -1.93222 0
M  V30 12825 H 1212.23 1.04207 -3.73121 0
M  V30 12826 H 1212.65 -0.605252 -5.20996 0
M  V30 12827 H 1214.12 1.09312 -5.41068 0
M  V30 12828 H 1214.6 1.93937 -3.94062 0
M  V30 12829 H 1215.21 0.294693 -4.24278 0
M  V30 12830 N 1213.52 1.56172 -0.211661 0
M  V30 12831 C 1214.47 2.19849 0.702515 0
M  V30 12832 C 1215.44 1.15091 1.19763 0
M  V30 12833 O 1216.62 1.43408 1.25852 0
M  V30 12834 C 1213.76 2.87468 1.90935 0
M  V30 12835 C 1212.88 4.06794 1.45406 0
M  V30 12836 C 1212.01 4.62224 2.61769 0
M  V30 12837 C 1211.05 5.73872 2.12926 0
M  V30 12838 N 1210.19 6.23635 3.22526 0
M  V30 12839 H 1215.03 2.97608 0.152777 0
M  V30 12840 H 1212.56 1.46962 0.0636596 0
M  V30 12841 H 1214.52 3.24851 2.61777 0
M  V30 12842 H 1213.15 2.12244 2.43213 0
M  V30 12843 H 1212.2 3.74962 0.640907 0
M  V30 12844 H 1213.52 4.87497 1.05584 0
M  V30 12845 H 1212.67 5.01999 3.40709 0
M  V30 12846 H 1211.41 3.80662 3.04873 0
M  V30 12847 H 1210.41 5.33609 1.32445 0
M  V30 12848 H 1211.64 6.57262 1.70833 0
M  V30 12849 H 1209.58 5.44991 3.65131 0
M  V30 12850 H 1209.5 6.99435 2.86926 0
M  V30 12851 H 1210.77 6.68066 4.01631 0
M  V30 12852 N 1215 -0.0618163 1.57479 0
M  V30 12853 C 1216.41 -0.612461 1.76368 0
M  V30 12854 C 1216.76 -1.77381 0.838466 0
M  V30 12855 O 1215.89 -2.16386 0.0250211 0
M  V30 12856 C 1216.48 -1.11782 3.19829 0
M  V30 12857 C 1215.04 -1.61424 3.40028 0
M  V30 12858 C 1214.19 -0.53795 2.72032 0
M  V30 12859 H 1217.14 0.164382 1.57846 0
M  V30 12860 H 1217.16 -1.98634 3.24538 0
M  V30 12861 H 1216.67 -0.272353 3.87143 0
M  V30 12862 H 1214.77 -2.48263 2.77842 0
M  V30 12863 H 1214.88 -1.68431 4.48517 0
M  V30 12864 H 1213.25 -0.985355 2.34868 0
M  V30 12865 H 1214.03 0.297495 3.42009 0
M  V30 12866 N 1216.48 -1.54033 -0.333429 0
M  V30 12867 C 1217.72 -1.72958 -1.07038 0
M  V30 12868 C 1218.08 -0.492055 -1.86002 0
M  V30 12869 O 1217.37 0.515453 -1.84536 0
M  V30 12870 C 1217.56 -2.93926 -2.03328 0
M  V30 12871 C 1217.39 -4.29324 -1.33831 0
M  V30 12872 C 1216.16 -4.93647 -1.07892 0
M  V30 12873 C 1218.36 -5.08664 -0.75929 0
M  V30 12874 N 1216.34 -6.12897 -0.35082 0
M  V30 12875 C 1217.71 -6.19788 -0.162281 0
M  V30 12876 C 1219.77 -4.93491 -0.661131 0
M  V30 12877 C 1218.47 -7.17394 0.523351 0
M  V30 12878 C 1220.5 -5.91399 0.0107794 0
M  V30 12879 C 1219.86 -7.01867 0.596775 0
M  V30 12880 H 1215.96 -0.685828 -0.375718 0
M  V30 12881 H 1218.54 -1.91478 -0.35274 0
M  V30 12882 H 1216.71 -2.76889 -2.72373 0
M  V30 12883 H 1218.45 -3.01524 -2.69936 0
M  V30 12884 H 1215.2 -4.53392 -1.36868 0
M  V30 12885 H 1215.63 -6.77 -0.00120039 0
M  V30 12886 H 1220.27 -4.08242 -1.09991 0
M  V30 12887 H 1217.99 -8.02209 0.973994 0
M  V30 12888 H 1221.57 -5.81736 0.0862353 0
M  V30 12889 H 1220.45 -7.76327 1.10845 0
M  V30 12890 N 1217.95 0.594978 -1.45938 0
M  V30 12891 C 1218.86 1.73296 -1.58132 0
M  V30 12892 C 1219.88 1.67665 -0.465245 0
M  V30 12893 O 1221.06 1.87794 -0.727684 0
M  V30 12894 C 1218.12 3.09783 -1.55677 0
M  V30 12895 C 1217.18 3.26772 -2.78422 0
M  V30 12896 C 1216.42 4.56748 -2.76075 0
M  V30 12897 O 1216.64 5.39867 -1.84119 0
M  V30 12898 O 1215.57 4.76721 -3.67452 0
M  V30 12899 H 1219.4 1.65957 -2.54346 0
M  V30 12900 H 1216.98 0.760572 -1.28591 0
M  V30 12901 H 1218.87 3.91077 -1.56961 0
M  V30 12902 H 1217.54 3.17585 -0.626191 0
M  V30 12903 H 1216.45 2.45018 -2.82696 0
M  V30 12904 H 1217.78 3.23853 -3.70648 0
M  V30 12905 N 1219.43 1.33438 0.838571 0
M  V30 12906 C 1220.68 1.24259 1.58879 0
M  V30 12907 C 1220.99 -0.189957 1.94675 0
M  V30 12908 O 1222.2 -0.40376 2.68481 0
M  V30 12909 C 1220.66 2.1773 2.86569 0
M  V30 12910 C 1220.26 3.66156 2.58135 0
M  V30 12911 C 1222.01 2.17424 3.64591 0
M  V30 12912 C 1219.92 4.5154 3.81923 0
M  V30 12913 H 1218.85 0.461534 0.59624 0
M  V30 12914 H 1221.5 1.58504 0.924588 0
M  V30 12915 H 1219.88 1.76418 3.54532 0
M  V30 12916 H 1221.05 4.1591 1.98382 0
M  V30 12917 H 1219.37 3.68754 1.93416 0
M  V30 12918 H 1221.96 2.78446 4.56478 0
M  V30 12919 H 1222.31 1.16939 3.99539 0
M  V30 12920 H 1222.84 2.571 3.03553 0
M  V30 12921 H 1219.58 5.52902 3.52107 0
M  V30 12922 H 1219.1 4.06529 4.41015 0
M  V30 12923 H 1220.78 4.65359 4.495 0
M  V30 12924 N 1220.91 -1.05686 1.16912 0
M  V30 12925 C 1222.14 -1.82821 0.979348 0
M  V30 12926 C 1222.56 -1.82196 -0.467575 0
M  V30 12927 O 1221.92 -1.22727 -1.33445 0
M  V30 12928 C 1221.97 -3.2705 1.51891 0
M  V30 12929 O 1221.07 -4.05899 0.729341 0
M  V30 12930 H 1220.41 -0.565455 0.348076 0
M  V30 12931 H 1222.94 -1.33211 1.55293 0
M  V30 12932 H 1222.95 -3.77859 1.53904 0
M  V30 12933 H 1221.63 -3.26819 2.5722 0
M  V30 12934 H 1220.2 -3.64646 0.780221 0
M  V30 12935 N 1222.39 -0.968567 -1.24324 0
M  V30 12936 C 1223.8 -0.675239 -1.44612 0
M  V30 12937 C 1224 0.762641 -1.8651 0
M  V30 12938 O 1223.06 1.53644 -2.00374 0
M  V30 12939 C 1224.37 -1.66007 -2.50723 0
M  V30 12940 C 1225.92 -1.6728 -2.6455 0
M  V30 12941 C 1226.4 -2.64563 -3.73859 0
M  V30 12942 N 1227.89 -2.6301 -3.81287 0
M  V30 12943 C 1228.62 -3.34957 -4.65394 0
M  V30 12944 N 1228.12 -4.16424 -5.53681 0
M  V30 12945 N 1229.91 -3.23778 -4.59483 0
M  V30 12946 H 1222.06 -1.89757 -0.954257 0
M  V30 12947 H 1224.33 -0.817004 -0.480841 0
M  V30 12948 H 1224.03 -2.68779 -2.26827 0
M  V30 12949 H 1223.91 -1.43353 -3.48898 0
M  V30 12950 H 1226.29 -0.652184 -2.87803 0
M  V30 12951 H 1226.37 -1.93997 -1.6673 0
M  V30 12952 H 1226.02 -3.66759 -3.51355 0
M  V30 12953 H 1225.95 -2.35124 -4.71194 0
M  V30 12954 H 1228.44 -2.03877 -3.18186 0
M  V30 12955 H 1228.75 -4.68207 -6.14818 0
M  V30 12956 H 1227.1 -4.20518 -5.53344 0
M  V30 12957 H 1230.29 -2.59594 -3.89524 0
M  V30 12958 H 1230.46 -3.80112 -5.24804 0
M  V30 12959 N 1223.87 1.39211 -0.738786 0
M  V30 12960 C 1224.8 2.29117 -0.0616489 0
M  V30 12961 C 1225.81 1.47008 0.699462 0
M  V30 12962 O 1227 1.70041 0.542998 0
M  V30 12963 C 1224.1 3.25692 0.936893 0
M  V30 12964 C 1223.27 4.3676 0.236515 0
M  V30 12965 C 1222.33 5.1362 1.1437 0
M  V30 12966 O 1221.36 5.65816 0.619762 0
M  V30 12967 N 1222.56 5.25184 2.4731 0
M  V30 12968 H 1225.33 2.8787 -0.833711 0
M  V30 12969 H 1222.89 1.50832 -0.588323 0
M  V30 12970 H 1224.88 3.73987 1.54648 0
M  V30 12971 H 1223.45 2.67943 1.61014 0
M  V30 12972 H 1222.67 3.90293 -0.553594 0
M  V30 12973 H 1223.96 5.08192 -0.248707 0
M  V30 12974 H 1223.35 4.84302 2.92349 0
M  V30 12975 H 1221.91 5.76905 3.03355 0
M  V30 12976 N 1225.34 0.486708 1.49896 0
M  V30 12977 C 1226.59 -0.0629451 2.02702 0
M  V30 12978 C 1226.92 -1.37956 1.36681 0
M  V30 12979 O 1226.2 -1.88025 0.497678 0
M  V30 12980 C 1226.48 -0.230461 3.59362 0
M  V30 12981 C 1226.33 1.10828 4.35933 0
M  V30 12982 C 1227.65 -0.977785 4.29101 0
M  V30 12983 H 1224.77 -0.0214017 0.736689 0
M  V30 12984 H 1227.41 0.635339 1.79063 0
M  V30 12985 H 1225.56 -0.825222 3.79634 0
M  V30 12986 H 1227.24 1.74082 4.27192 0
M  V30 12987 H 1225.48 1.7011 3.99055 0
M  V30 12988 H 1226.15 0.944532 5.43859 0
M  V30 12989 H 1228.63 -0.473505 4.13397 0
M  V30 12990 H 1227.5 -1.06382 5.38492 0
M  V30 12991 H 1227.76 -2.01813 3.9335 0
M  V30 12992 N 1226.82 -1.56058 0.219941 0
M  V30 12993 C 1227.79 -2.18964 -0.677303 0
M  V30 12994 C 1228.79 -1.15105 -1.12283 0
M  V30 12995 O 1229.98 -1.40348 -1.03189 0
M  V30 12996 C 1227.11 -2.81167 -1.92764 0
M  V30 12997 H 1228.3 -2.99623 -0.128877 0
M  V30 12998 H 1225.85 -1.56272 -0.0296744 0
M  V30 12999 H 1226.59 -2.04374 -2.51797 0
M  V30 13000 H 1226.37 -3.5722 -1.61666 0
M  V30 13001 H 1227.86 -3.29391 -2.56693 0
M  V30 13002 N 1228.3 0.053464 -1.57509 0
M  V30 13003 C 1229.21 1.07902 -2.08313 0
M  V30 13004 C 1230.23 1.41223 -1.01647 0
M  V30 13005 O 1231.4 1.51032 -1.33233 0
M  V30 13006 C 1228.47 2.36813 -2.5322 0
M  V30 13007 C 1227.53 2.10297 -3.74264 0
M  V30 13008 C 1226.76 3.33062 -4.1702 0
M  V30 13009 O 1226.99 4.42857 -3.59491 0
M  V30 13010 O 1225.92 3.20195 -5.09665 0
M  V30 13011 H 1229.75 0.677368 -2.9605 0
M  V30 13012 H 1227.33 0.268838 -1.46961 0
M  V30 13013 H 1229.21 3.12645 -2.82544 0
M  V30 13014 H 1227.89 2.76323 -1.68605 0
M  V30 13015 H 1226.79 1.32111 -3.49996 0
M  V30 13016 H 1228.13 1.75658 -4.59788 0
M  V30 13017 N 1229.78 1.54207 0.325255 0
M  V30 13018 C 1230.71 1.86467 1.40543 0
M  V30 13019 C 1231.69 0.721324 1.54048 0
M  V30 13020 O 1232.88 0.974905 1.67956 0
M  V30 13021 C 1230.01 2.09052 2.77335 0
M  V30 13022 C 1228.96 3.24893 2.78619 0
M  V30 13023 C 1228.29 3.32846 4.1847 0
M  V30 13024 C 1229.59 4.62582 2.42518 0
M  V30 13025 H 1231.28 2.76932 1.13794 0
M  V30 13026 H 1228.83 1.33248 0.545971 0
M  V30 13027 H 1230.78 2.30204 3.52964 0
M  V30 13028 H 1229.5 1.15335 3.05558 0
M  V30 13029 H 1228.16 3.03625 2.05444 0
M  V30 13030 H 1227.81 2.3669 4.43832 0
M  V30 13031 H 1227.51 4.10701 4.20237 0
M  V30 13032 H 1229.03 3.56231 4.95915 0
M  V30 13033 H 1230.45 4.83627 3.07861 0
M  V30 13034 H 1228.84 5.42974 2.55538 0
M  V30 13035 H 1229.91 4.64946 1.3767 0
M  V30 13036 N 1231.26 -0.58723 1.46251 0
M  V30 13037 C 1232.5 -1.3476 1.51551 0
M  V30 13038 C 1232.84 -1.93499 0.16483 0
M  V30 13039 O 1232.11 -1.7622 -0.823207 0
M  V30 13040 C 1232.39 -2.48033 2.61059 0
M  V30 13041 C 1232.25 -1.94358 4.05642 0
M  V30 13042 C 1233.57 -3.50096 2.66685 0
M  V30 13043 H 1230.69 -0.48863 0.551733 0
M  V30 13044 H 1233.33 -0.660097 1.78165 0
M  V30 13045 H 1231.48 -3.06679 2.38496 0
M  V30 13046 H 1233.15 -1.40204 4.39478 0
M  V30 13047 H 1231.39 -1.25217 4.15335 0
M  V30 13048 H 1232.06 -2.76105 4.77986 0
M  V30 13049 H 1234.54 -3.01324 2.86955 0
M  V30 13050 H 1233.42 -4.26817 3.45135 0
M  V30 13051 H 1233.68 -4.07032 1.7256 0
M  V30 13052 N 1232.74 -1.33881 -0.831482 0
M  V30 13053 C 1233.96 -1.28812 -1.61911 0
M  V30 13054 C 1234.38 0.139519 -1.88284 0
M  V30 13055 O 1233.74 1.08397 -1.46821 0
M  V30 13056 C 1233.79 -2.06806 -2.96502 0
M  V30 13057 O 1233.51 -3.44 -2.71285 0
M  V30 13058 C 1235.01 -2.09033 -3.90922 0
M  V30 13059 H 1232.23 -0.443473 -0.50356 0
M  V30 13060 H 1234.77 -1.76365 -1.03516 0
M  V30 13061 H 1232.93 -1.62915 -3.51479 0
M  V30 13062 H 1233.34 -3.84213 -3.57044 0
M  V30 13063 H 1234.82 -2.68044 -4.82552 0
M  V30 13064 H 1235.29 -1.08249 -4.25651 0
M  V30 13065 H 1235.9 -2.52975 -3.41883 0
M  V30 13066 N 1234.21 1.05064 -1.1747 0
M  V30 13067 C 1235.44 1.82299 -0.98903 0
M  V30 13068 C 1235.86 1.82441 0.457907 0
M  V30 13069 O 1235.22 1.23433 1.32793 0
M  V30 13070 C 1235.27 3.26239 -1.53624 0
M  V30 13071 O 1234.37 4.05507 -0.750857 0
M  V30 13072 H 1233.71 0.563601 -0.35107 0
M  V30 13073 H 1236.24 1.32386 -1.55997 0
M  V30 13074 H 1236.25 3.77038 -1.55906 0
M  V30 13075 H 1234.93 3.25451 -2.58949 0
M  V30 13076 H 1233.51 3.64227 -0.799548 0
M  V30 13077 N 1235.69 0.975146 1.23809 0
M  V30 13078 C 1236.6 0.51917 2.28783 0
M  V30 13079 C 1237.62 -0.423487 1.68768 0
M  V30 13080 O 1238.79 -0.294699 1.99232 0
M  V30 13081 C 1235.86 -0.176229 3.46252 0
M  V30 13082 C 1234.92 0.807177 4.21643 0
M  V30 13083 C 1234.15 0.144869 5.33503 0
M  V30 13084 O 1234.38 -1.06522 5.60365 0
M  V30 13085 O 1233.31 0.84079 5.95999 0
M  V30 13086 H 1237.14 1.39204 2.69919 0
M  V30 13087 H 1234.72 0.74253 1.29641 0
M  V30 13088 H 1236.6 -0.566547 4.17574 0
M  V30 13089 H 1235.28 -1.02394 3.07078 0
M  V30 13090 H 1234.18 1.2481 3.52666 0
M  V30 13091 H 1235.52 1.62354 4.64653 0
M  V30 13092 N 1237.17 -1.38817 0.746158 0
M  V30 13093 C 1238.42 -2.0028 0.299016 0
M  V30 13094 C 1238.74 -1.59221 -1.11709 0
M  V30 13095 O 1238 -0.817595 -1.77803 0
M  V30 13096 C 1238.3 -3.55571 0.361086 0
M  V30 13097 C 1237.96 -4.16317 1.73179 0
M  V30 13098 C 1236.63 -4.32622 2.10693 0
M  V30 13099 C 1238.98 -4.49905 2.63126 0
M  V30 13100 C 1236.31 -4.79808 3.3764 0
M  V30 13101 C 1238.66 -4.98504 3.89457 0
M  V30 13102 C 1237.32 -5.13016 4.27049 0
M  V30 13103 H 1236.59 -0.732877 0.109418 0
M  V30 13104 H 1239.24 -1.65977 0.955186 0
M  V30 13105 H 1237.54 -3.89966 -0.378655 0
M  V30 13106 H 1239.24 -4.01 -0.00319228 0
M  V30 13107 H 1235.83 -4.04035 1.43015 0
M  V30 13108 H 1240.02 -4.36916 2.3541 0
M  V30 13109 H 1235.27 -4.89229 3.66695 0
M  V30 13110 H 1239.45 -5.23464 4.59302 0
M  V30 13111 H 1237.07 -5.4934 5.25481 0
M  V30 13112 N 1238.65 -0.49465 -1.49636 0
M  V30 13113 C 1239.89 0.0521172 -2.02433 0
M  V30 13114 C 1240.22 1.37579 -1.37485 0
M  V30 13115 O 1239.48 1.8927 -0.497538 0
M  V30 13116 C 1239.78 0.259743 -3.56455 0
M  V30 13117 C 1239.44 -0.985143 -4.40007 0
M  V30 13118 C 1238.1 -1.3264 -4.62558 0
M  V30 13119 C 1240.46 -1.81291 -4.88654 0
M  V30 13120 C 1237.78 -2.49506 -5.31003 0
M  V30 13121 C 1240.14 -2.97305 -5.58384 0
M  V30 13122 C 1238.8 -3.31818 -5.79183 0
M  V30 13123 H 1238.07 0.0190711 -0.740755 0
M  V30 13124 H 1240.72 -0.653519 -1.80004 0
M  V30 13125 H 1239.02 1.04785 -3.77528 0
M  V30 13126 H 1240.72 0.697146 -3.94893 0
M  V30 13127 H 1237.31 -0.709313 -4.2269 0
M  V30 13128 H 1241.49 -1.56242 -4.71065 0
M  V30 13129 H 1236.75 -2.76491 -5.4531 0
M  V30 13130 H 1240.92 -3.61777 -5.95055 0
M  V30 13131 H 1238.55 -4.22478 -6.31994 0
M  V30 13132 N 1240.13 1.55939 -0.228214 0
M  V30 13133 C 1241.04 2.24213 0.690339 0
M  V30 13134 C 1242.05 1.25197 1.20838 0
M  V30 13135 O 1243.23 1.58026 1.24859 0
M  V30 13136 C 1240.29 2.91384 1.87873 0
M  V30 13137 C 1239.35 4.05761 1.40201 0
M  V30 13138 C 1238.59 4.6972 2.53376 0
M  V30 13139 O 1238.81 4.32687 3.71669 0
M  V30 13140 O 1237.74 5.58587 2.24198 0
M  V30 13141 H 1241.57 3.03383 0.138692 0
M  V30 13142 H 1239.15 1.494 0.00251504 0
M  V30 13143 H 1241.04 3.33758 2.57262 0
M  V30 13144 H 1239.71 2.15168 2.41835 0
M  V30 13145 H 1238.62 3.67943 0.675945 0
M  V30 13146 H 1239.95 4.83739 0.908691 0
M  V30 13147 N 1241.6 -0.0451101 1.57535 0
M  V30 13148 C 1242.54 -1.07792 2.02271 0
M  V30 13149 C 1243.55 -1.33423 0.932854 0
M  V30 13150 O 1244.74 -1.31193 1.2104 0
M  V30 13151 C 1241.84 -2.42314 2.36933 0
M  V30 13152 C 1241.01 -2.36266 3.68099 0
M  V30 13153 C 1240.07 -3.53108 3.9013 0
M  V30 13154 O 1239.1 -3.33327 4.61391 0
M  V30 13155 N 1240.3 -4.74415 3.3453 0
M  V30 13156 H 1243.06 -0.696744 2.91489 0
M  V30 13157 H 1240.62 -0.233336 1.6021 0
M  V30 13158 H 1242.62 -3.19171 2.48821 0
M  V30 13159 H 1241.19 -2.72335 1.53468 0
M  V30 13160 H 1240.41 -1.44615 3.66715 0
M  V30 13161 H 1241.69 -2.29351 4.54175 0
M  V30 13162 H 1241.09 -4.93388 2.76739 0
M  V30 13163 H 1239.65 -5.48692 3.51825 0
M  V30 13164 N 1243.08 -1.54377 -0.317073 0
M  V30 13165 C 1244.33 -1.72551 -1.05216 0
M  V30 13166 C 1244.65 -0.5055 -1.88334 0
M  V30 13167 O 1243.92 0.480439 -1.89917 0
M  V30 13168 H 1242.5 -0.636222 -0.391447 0
M  V30 13169 H 1245.16 -1.91696 -0.35194 0
M  V30 13170 H 1244.26 -2.60791 -1.71448 0
M  V30 13171 N 1244.56 0.579466 -1.4656 0
M  V30 13172 C 1245.84 1.33973 -1.42515 0
M  V30 13173 C 1246.22 2.10812 -0.110317 0
M  V30 13174 O 1245.57 2.09679 0.908135 0
M  V30 13175 C 1245.78 2.26301 -2.65686 0
M  V30 13176 C 1247.12 2.88027 -3.1197 0
M  V30 13177 O 1248.15 2.36612 -2.66257 0
M  V30 13178 O 1247.01 3.81423 -3.9138 0
M  V30 13179 H 1244.1 0.602121 -0.566903 0
M  V30 13180 H 1246.65 0.600214 -1.58731 0
M  V30 13181 H 1245.42 1.68973 -3.52936 0
M  V30 13182 H 1245.04 3.07586 -2.51945 0
M  V30 13183 N 1246.04 1.3432 0.824371 0
M  V30 13184 C 1247.45 1.1397 1.11727 0
M  V30 13185 C 1247.65 -0.0597597 2.01411 0
M  V30 13186 O 1246.71 -0.735717 2.41544 0
M  V30 13187 C 1248.02 2.43423 1.76538 0
M  V30 13188 C 1249.57 2.49466 1.89039 0
M  V30 13189 C 1250.05 3.78917 2.57266 0
M  V30 13190 N 1251.54 3.8007 2.64767 0
M  V30 13191 C 1252.27 4.76953 3.18282 0
M  V30 13192 N 1251.77 5.84217 3.72373 0
M  V30 13193 N 1253.56 4.6441 3.1667 0
M  V30 13194 H 1245.71 2.11175 0.227802 0
M  V30 13195 H 1247.98 0.933774 0.163615 0
M  V30 13196 H 1247.68 3.31278 1.18102 0
M  V30 13197 H 1247.56 2.56655 2.7642 0
M  V30 13198 H 1249.94 1.62052 2.46623 0
M  V30 13199 H 1250.02 2.40163 0.880635 0
M  V30 13200 H 1249.67 4.6672 2.00336 0
M  V30 13201 H 1249.6 3.85502 3.58742 0
M  V30 13202 H 1252.09 3.02556 2.26425 0
M  V30 13203 H 1252.4 6.54159 4.11455 0
M  V30 13204 H 1250.75 5.87933 3.70621 0
M  V30 13205 H 1253.94 3.7976 2.73678 0
M  V30 13206 H 1254.11 5.40081 3.58073 0
M  V30 13207 N 1247.52 -1.0444 1.18026 0
M  V30 13208 C 1248.43 -2.15862 0.918747 0
M  V30 13209 C 1249.44 -1.73614 -0.115808 0
M  V30 13210 O 1250.62 -2.01294 0.0652312 0
M  V30 13211 C 1247.68 -3.43846 0.443922 0
M  V30 13212 C 1246.74 -4.00497 1.54599 0
M  V30 13213 C 1245.98 -5.22373 1.09372 0
M  V30 13214 O 1246.2 -5.70379 -0.049085 0
M  V30 13215 O 1245.13 -5.71459 1.88992 0
M  V30 13216 H 1248.96 -2.40776 1.85097 0
M  V30 13217 H 1246.55 -1.14326 0.961769 0
M  V30 13218 H 1248.43 -4.20985 0.187017 0
M  V30 13219 H 1247.1 -3.20414 -0.460051 0
M  V30 13220 H 1246.01 -3.24764 1.85686 0
M  V30 13221 H 1247.34 -4.28262 2.42595 0
M  V30 13222 N 1248.99 -0.981699 -1.2329 0
M  V30 13223 C 1250.41 -0.690539 -1.43888 0
M  V30 13224 C 1250.61 0.742816 -1.87309 0
M  V30 13225 O 1249.67 1.5151 -2.01993 0
M  V30 13226 C 1250.98 -1.68657 -2.48948 0
M  V30 13227 C 1252.53 -1.70076 -2.62761 0
M  V30 13228 C 1253 -2.68513 -3.71032 0
M  V30 13229 N 1254.49 -2.67039 -3.78476 0
M  V30 13230 C 1255.23 -3.39874 -4.61815 0
M  V30 13231 N 1254.72 -4.22273 -5.49233 0
M  V30 13232 N 1256.52 -3.28633 -4.56023 0
M  V30 13233 H 1248.67 -1.90758 -0.934077 0
M  V30 13234 H 1250.93 -0.822058 -0.472149 0
M  V30 13235 H 1250.64 -2.7117 -2.23964 0
M  V30 13236 H 1250.51 -1.47045 -3.47358 0
M  V30 13237 H 1252.9 -0.682673 -2.87095 0
M  V30 13238 H 1252.98 -1.95754 -1.64663 0
M  V30 13239 H 1252.62 -3.70464 -3.47446 0
M  V30 13240 H 1252.55 -2.40109 -4.68674 0
M  V30 13241 H 1255.04 -2.07241 -3.16006 0
M  V30 13242 H 1255.36 -4.74702 -6.09818 0
M  V30 13243 H 1253.7 -4.26364 -5.48852 0
M  V30 13244 H 1256.89 -2.6371 -3.86749 0
M  V30 13245 H 1257.07 -3.85656 -5.20743 0
M  V30 13246 N 1250.47 1.3842 -0.753509 0
M  V30 13247 C 1251.4 2.33073 -0.141198 0
M  V30 13248 C 1252.38 1.54863 0.70367 0
M  V30 13249 O 1253.57 1.8318 0.644872 0
M  V30 13250 C 1250.7 3.39043 0.752802 0
M  V30 13251 C 1249.65 4.27999 0.0106692 0
M  V30 13252 C 1248.98 5.24824 1.02291 0
M  V30 13253 C 1250.28 5.09308 -1.15768 0
M  V30 13254 H 1251.97 2.84528 -0.93188 0
M  V30 13255 H 1249.52 1.36802 -0.449567 0
M  V30 13256 H 1251.47 4.04224 1.19083 0
M  V30 13257 H 1250.2 2.8607 1.57581 0
M  V30 13258 H 1248.85 3.64323 -0.407939 0
M  V30 13259 H 1248.5 4.68139 1.83998 0
M  V30 13260 H 1248.2 5.85196 0.53101 0
M  V30 13261 H 1249.73 5.92882 1.46026 0
M  V30 13262 H 1251.14 5.6773 -0.797203 0
M  V30 13263 H 1249.54 5.78914 -1.58044 0
M  V30 13264 H 1250.61 4.43051 -1.97062 0
M  V30 13265 N 1251.95 0.502579 1.49372 0
M  V30 13266 C 1252.86 -0.279532 2.32929 0
M  V30 13267 C 1253.88 -0.965806 1.44735 0
M  V30 13268 O 1255.05 -0.946839 1.77755 0
M  V30 13269 C 1252.12 -1.32913 3.20211 0
M  V30 13270 C 1251.18 -0.656121 4.24256 0
M  V30 13271 C 1250.41 -1.65571 5.07368 0
M  V30 13272 O 1250.63 -2.88571 4.92019 0
M  V30 13273 O 1249.57 -1.21016 5.89609 0
M  V30 13274 H 1253.39 0.404427 3.00995 0
M  V30 13275 H 1250.98 0.263888 1.47051 0
M  V30 13276 H 1252.86 -1.93635 3.74277 0
M  V30 13277 H 1251.54 -1.99598 2.54837 0
M  V30 13278 H 1250.44 -0.00911489 3.74099 0
M  V30 13279 H 1251.78 -0.0316802 4.9219 0
M  V30 13280 N 1253.43 -1.55816 0.23648 0
M  V30 13281 C 1254.36 -2.23924 -0.661834 0
M  V30 13282 C 1255.34 -1.21597 -1.18946 0
M  V30 13283 O 1256.52 -1.50222 -1.23073 0
M  V30 13284 C 1253.65 -2.93069 -1.86355 0
M  V30 13285 C 1252.61 -4.01996 -1.46913 0
M  V30 13286 C 1251.93 -4.58512 -2.75083 0
M  V30 13287 C 1253.23 -5.18265 -0.647964 0
M  V30 13288 H 1254.93 -2.99253 -0.0939368 0
M  V30 13289 H 1252.47 -1.43934 -0.0437407 0
M  V30 13290 H 1254.43 -3.39412 -2.49755 0
M  V30 13291 H 1253.15 -2.15212 -2.45665 0
M  V30 13292 H 1251.81 -3.56406 -0.858522 0
M  V30 13293 H 1251.46 -3.77368 -3.3257 0
M  V30 13294 H 1251.16 -5.32037 -2.49421 0
M  V30 13295 H 1252.68 -5.07583 -3.39399 0
M  V30 13296 H 1254.1 -5.60898 -1.18602 0
M  V30 13297 H 1252.49 -5.98114 -0.487823 0
M  V30 13298 H 1253.56 -4.83691 0.342151 0
M  V30 13299 N 1254.91 0.036755 -1.57557 0
M  V30 13300 C 1255.85 1.03975 -2.06053 0
M  V30 13301 C 1256.82 1.36384 -0.948089 0
M  V30 13302 O 1258.01 1.46853 -1.21815 0
M  V30 13303 C 1255.15 2.33796 -2.53837 0
M  V30 13304 C 1254.26 2.07614 -3.78841 0
M  V30 13305 C 1253.4 3.3125 -4.15267 0
M  V30 13306 C 1252.44 3.00587 -5.33211 0
M  V30 13307 N 1251.57 4.16653 -5.65106 0
M  V30 13308 H 1256.41 0.61924 -2.91495 0
M  V30 13309 H 1253.95 0.294151 -1.44129 0
M  V30 13310 H 1255.91 3.09639 -2.79606 0
M  V30 13311 H 1254.54 2.73584 -1.71323 0
M  V30 13312 H 1253.59 1.22302 -3.60203 0
M  V30 13313 H 1254.9 1.80989 -4.64806 0
M  V30 13314 H 1254.06 4.15466 -4.42123 0
M  V30 13315 H 1252.79 3.60981 -3.27939 0
M  V30 13316 H 1251.8 2.14772 -5.06115 0
M  V30 13317 H 1253.02 2.72142 -6.22186 0
M  V30 13318 H 1250.97 4.4635 -4.80737 0
M  V30 13319 H 1250.89 3.93425 -6.45564 0
M  V30 13320 H 1252.16 5.01764 -5.96534 0
M  V30 13321 N 1256.39 1.54543 0.308881 0
M  V30 13322 C 1257.32 1.87947 1.38557 0
M  V30 13323 C 1258.3 0.737622 1.53275 0
M  V30 13324 O 1259.48 0.992664 1.66913 0
M  V30 13325 C 1256.61 2.11982 2.75102 0
M  V30 13326 C 1255.57 3.2783 2.75158 0
M  V30 13327 C 1254.89 3.37266 4.14917 0
M  V30 13328 C 1256.19 4.65129 2.37598 0
M  V30 13329 H 1257.89 2.78123 1.1085 0
M  V30 13330 H 1255.43 1.3382 0.531808 0
M  V30 13331 H 1257.38 2.33935 3.50503 0
M  V30 13332 H 1256.11 1.18569 3.04317 0
M  V30 13333 H 1254.77 3.05787 2.02212 0
M  V30 13334 H 1254.42 2.41384 4.41296 0
M  V30 13335 H 1254.12 4.15135 4.15857 0
M  V30 13336 H 1255.64 3.61471 4.92109 0
M  V30 13337 H 1257.05 4.86865 3.02714 0
M  V30 13338 H 1255.45 5.45653 2.49765 0
M  V30 13339 H 1256.52 4.6638 1.32731 0
M  V30 13340 N 1257.86 -0.571685 1.46866 0
M  V30 13341 C 1259.09 -1.35524 1.56336 0
M  V30 13342 C 1259.51 -1.87647 0.208359 0
M  V30 13343 O 1258.86 -1.64219 -0.796136 0
M  V30 13344 C 1258.91 -2.53518 2.57703 0
M  V30 13345 O 1258.64 -2.03552 3.87941 0
M  V30 13346 C 1260.14 -3.45925 2.77219 0
M  V30 13347 H 1257.36 -0.41363 0.528348 0
M  V30 13348 H 1259.9 -0.693943 1.92366 0
M  V30 13349 H 1258.06 -3.15615 2.24647 0
M  V30 13350 H 1258.47 -2.80476 4.43208 0
M  V30 13351 H 1259.94 -4.2517 3.52043 0
M  V30 13352 H 1260.42 -3.98559 1.8452 0
M  V30 13353 H 1261.03 -2.89655 3.11416 0
M  V30 13354 N 1259.34 -1.34755 -0.817236 0
M  V30 13355 C 1260.75 -1.24594 -1.39044 0
M  V30 13356 C 1261.1 0.126184 -1.95794 0
M  V30 13357 O 1260.23 1.02675 -1.90491 0
M  V30 13358 C 1260.82 -2.25592 -2.52772 0
M  V30 13359 C 1259.38 -2.19204 -3.05984 0
M  V30 13360 C 1258.53 -2.11884 -1.78886 0
M  V30 13361 H 1261.48 -1.46039 -0.621155 0
M  V30 13362 H 1261.5 -1.87622 -3.31026 0
M  V30 13363 H 1261.01 -3.25447 -2.11438 0
M  V30 13364 H 1259.11 -1.22725 -3.51809 0
M  V30 13365 H 1259.23 -3.10707 -3.64689 0
M  V30 13366 H 1257.59 -1.57694 -2.00012 0
M  V30 13367 H 1258.37 -3.13582 -1.39719 0
M  V30 13368 N 1260.82 1.03812 -1.18578 0
M  V30 13369 C 1262.04 1.8124 -1.00831 0
M  V30 13370 C 1262.47 1.82917 0.43853 0
M  V30 13371 O 1261.83 1.24835 1.31476 0
M  V30 13372 C 1261.88 3.24592 -1.57075 0
M  V30 13373 O 1260.98 4.04688 -0.793824 0
M  V30 13374 H 1260.32 0.559846 -0.357028 0
M  V30 13375 H 1262.85 1.30724 -1.57393 0
M  V30 13376 H 1262.86 3.75363 -1.59896 0
M  V30 13377 H 1261.54 3.22686 -2.62387 0
M  V30 13378 H 1260.11 3.63359 -0.838134 0
M  V30 13379 N 1262.3 0.988223 1.22768 0
M  V30 13380 C 1263.26 0.539813 2.22752 0
M  V30 13381 C 1264.26 -0.374796 1.56371 0
M  V30 13382 O 1265.45 -0.167402 1.73394 0
M  V30 13383 C 1262.58 -0.215461 3.40218 0
M  V30 13384 H 1263.78 1.42397 2.63938 0
M  V30 13385 H 1261.33 0.774933 1.35737 0
M  V30 13386 H 1262.06 -1.11581 3.045 0
M  V30 13387 H 1261.85 0.441173 3.8961 0
M  V30 13388 H 1263.34 -0.517517 4.14381 0
M  V30 13389 N 1263.78 -1.38018 0.760839 0
M  V30 13390 C 1265.02 -1.99194 0.316984 0
M  V30 13391 C 1265.34 -1.61083 -1.10958 0
M  V30 13392 O 1266.54 -2.15281 -1.65428 0
M  V30 13393 C 1265 -3.56185 0.515792 0
M  V30 13394 C 1264.61 -4.03242 1.95191 0
M  V30 13395 C 1266.35 -4.24285 0.135013 0
M  V30 13396 C 1264.26 -5.52902 2.0989 0
M  V30 13397 H 1263.19 -0.745214 0.114771 0
M  V30 13398 H 1265.84 -1.5769 0.938415 0
M  V30 13399 H 1264.22 -3.95613 -0.174934 0
M  V30 13400 H 1265.4 -3.75086 2.6767 0
M  V30 13401 H 1263.71 -3.47889 2.28827 0
M  V30 13402 H 1266.31 -5.34233 0.223495 0
M  V30 13403 H 1266.65 -4.06158 -0.913322 0
M  V30 13404 H 1267.18 -3.90121 0.777868 0
M  V30 13405 H 1263.92 -5.75942 3.13003 0
M  V30 13406 H 1263.44 -5.82778 1.41881 0
M  V30 13407 H 1265.12 -6.18709 1.89229 0
M  V30 13408 N 1265.25 -0.510493 -1.49103 0
M  V30 13409 C 1266.5 0.0306436 -2.02477 0
M  V30 13410 C 1266.83 1.36113 -1.38937 0
M  V30 13411 O 1266.08 1.88731 -0.517584 0
M  V30 13412 C 1266.38 0.221921 -3.5671 0
M  V30 13413 C 1266.05 -1.03176 -4.38937 0
M  V30 13414 C 1264.71 -1.37539 -4.61125 0
M  V30 13415 C 1267.06 -1.86464 -4.86704 0
M  V30 13416 C 1264.39 -2.55124 -5.28326 0
M  V30 13417 C 1266.74 -3.03211 -5.55199 0
M  V30 13418 C 1265.41 -3.37943 -5.75631 0
M  V30 13419 H 1264.68 0.0112133 -0.740915 0
M  V30 13420 H 1267.32 -0.672574 -1.79301 0
M  V30 13421 H 1265.63 1.00775 -3.78618 0
M  V30 13422 H 1267.33 0.655223 -3.95611 0
M  V30 13423 H 1263.92 -0.754105 -4.21914 0
M  V30 13424 H 1268.1 -1.61229 -4.69381 0
M  V30 13425 H 1263.36 -2.8226 -5.42346 0
M  V30 13426 H 1267.53 -3.68068 -5.91185 0
M  V30 13427 H 1265.16 -4.29158 -6.27477 0
M  V30 13428 N 1266.73 1.55688 -0.24474 0
M  V30 13429 C 1268.01 1.90796 0.430821 0
M  V30 13430 C 1268.39 1.1652 1.76029 0
M  V30 13431 O 1267.74 0.281978 2.26753 0
M  V30 13432 C 1267.95 3.43786 0.601027 0
M  V30 13433 C 1269.29 4.14998 0.897894 0
M  V30 13434 O 1270.32 3.49513 0.68697 0
M  V30 13435 O 1269.18 5.30826 1.29945 0
M  V30 13436 H 1266.27 0.794086 0.230991 0
M  V30 13437 H 1268.82 1.67227 -0.288646 0
M  V30 13438 H 1267.59 3.89856 -0.335804 0
M  V30 13439 H 1267.21 3.73211 1.37112 0
M  V30 13440 N 1268.21 -0.0283989 1.57574 0
M  V30 13441 C 1269.63 -0.384054 1.5491 0
M  V30 13442 C 1269.83 -1.76564 0.970947 0
M  V30 13443 O 1268.88 -2.45455 0.592288 0
M  V30 13444 C 1270.19 -0.285297 2.99344 0
M  V30 13445 C 1271.74 -0.36233 3.10896 0
M  V30 13446 C 1272.22 -0.293014 4.57062 0
M  V30 13447 N 1273.71 -0.351788 4.61862 0
M  V30 13448 C 1274.44 -0.321054 5.725 0
M  V30 13449 N 1273.94 -0.242573 6.92375 0
M  V30 13450 N 1275.73 -0.370832 5.60875 0
M  V30 13451 H 1267.88 0.87573 1.93506 0
M  V30 13452 H 1270.15 0.33305 0.887571 0
M  V30 13453 H 1269.85 0.664146 3.45372 0
M  V30 13454 H 1269.73 -1.07869 3.61447 0
M  V30 13455 H 1272.11 -1.30221 2.64814 0
M  V30 13456 H 1272.19 0.460422 2.51622 0
M  V30 13457 H 1271.84 0.643197 5.03811 0
M  V30 13458 H 1271.77 -1.13388 5.14248 0
M  V30 13459 H 1274.26 -0.414929 3.75615 0
M  V30 13460 H 1274.57 -0.224239 7.72475 0
M  V30 13461 H 1272.92 -0.208612 6.94687 0
M  V30 13462 H 1276.11 -0.430141 4.6612 0
M  V30 13463 H 1276.28 -0.343412 6.47089 0
M  V30 13464 N 1269.69 -1.54705 -0.300681 0
M  V30 13465 C 1270.64 -1.86433 -1.39087 0
M  V30 13466 C 1271.63 -0.738101 -1.52474 0
M  V30 13467 O 1272.84 -0.922096 -1.54588 0
M  V30 13468 H 1269.21 -0.591314 -0.464599 0
M  V30 13469 H 1271.18 -2.77558 -1.09563 0
M  V30 13470 C 1269.93 -2.1286 -2.74929 0
M  V30 13471 H 1269.25 -2.98994 -2.6541 0
M  V30 13472 H 1270.69 -2.39 -3.50222 0
M  V30 13473 C 1269.15 -0.92726 -3.23888 0
M  V30 13474 O 1269.68 -0.147921 -4.01428 0
M  V30 13475 N 1267.89 -0.732553 -2.81215 0
M  V30 13476 H 1267.44 -1.36797 -2.18276 0
M  V30 13477 H 1267.39 0.0696902 -3.14323 0
M  V30 13478 N 1271.17 0.563888 -1.47167 0
M  V30 13479 C 1272.58 0.889156 -1.32537 0
M  V30 13480 C 1272.78 1.99088 -0.310854 0
M  V30 13481 O 1271.84 2.50943 0.27998 0
M  V30 13482 C 1273.15 1.28871 -2.71685 0
M  V30 13483 C 1274.7 1.40051 -2.79919 0
M  V30 13484 C 1275.17 1.83364 -4.19692 0
M  V30 13485 N 1276.67 1.90526 -4.22201 0
M  V30 13486 C 1277.4 2.25355 -5.2726 0
M  V30 13487 N 1276.9 2.58844 -6.42629 0
M  V30 13488 N 1278.69 2.26071 -5.14634 0
M  V30 13489 H 1270.84 -0.163581 -2.11769 0
M  V30 13490 H 1273.1 -0.0105151 -0.947942 0
M  V30 13491 H 1272.81 0.553057 -3.47324 0
M  V30 13492 H 1272.68 2.24629 -3.03021 0
M  V30 13493 H 1275.07 2.12698 -2.04557 0
M  V30 13494 H 1275.15 0.424971 -2.52245 0
M  V30 13495 H 1274.8 1.11289 -4.95557 0
M  V30 13496 H 1274.73 2.81909 -4.44786 0
M  V30 13497 H 1277.22 1.67059 -3.38968 0
M  V30 13498 H 1277.53 2.84427 -7.18555 0
M  V30 13499 H 1275.87 2.56439 -6.4596 0
M  V30 13500 H 1279.07 1.99343 -4.23533 0
M  V30 13501 H 1279.24 2.52885 -5.96618 0
M  V30 13502 N 1272.64 1.35187 0.810078 0
M  V30 13503 C 1273.59 1.27822 1.92173 0
M  V30 13504 C 1274.56 0.150851 1.65414 0
M  V30 13505 O 1275.75 0.333973 1.87854 0
M  V30 13506 C 1272.89 1.05258 3.28656 0
M  V30 13507 C 1272 2.26884 3.67624 0
M  V30 13508 C 1271.13 1.97499 4.9312 0
M  V30 13509 C 1270.17 3.15198 5.24706 0
M  V30 13510 N 1269.31 2.85612 6.41381 0
M  V30 13511 H 1274.15 2.22884 1.97804 0
M  V30 13512 H 1271.69 1.10799 0.967577 0
M  V30 13513 H 1273.65 0.902084 4.07331 0
M  V30 13514 H 1272.28 0.138583 3.22502 0
M  V30 13515 H 1271.33 2.5281 2.84238 0
M  V30 13516 H 1272.64 3.14783 3.86928 0
M  V30 13517 H 1271.79 1.7926 5.79613 0
M  V30 13518 H 1270.53 1.0688 4.75844 0
M  V30 13519 H 1269.54 3.34019 4.36705 0
M  V30 13520 H 1270.76 4.06614 5.43913 0
M  V30 13521 H 1268.71 1.97583 6.25537 0
M  V30 13522 H 1268.63 3.67044 6.60919 0
M  V30 13523 H 1269.89 2.70906 7.3091 0
M  V30 13524 N 1274.12 -1.03182 1.19127 0
M  V30 13525 C 1275.4 -1.73586 0.901507 0
M  V30 13526 C 1275.78 -2.02585 -0.593521 0
M  V30 13527 O 1275.13 -1.67813 -1.55084 0
M  V30 13528 C 1275.34 -3.01472 1.75829 0
M  V30 13529 C 1276.69 -3.75037 1.99078 0
M  V30 13530 O 1277.71 -3.11392 1.72956 0
M  V30 13531 O 1276.57 -4.8945 2.43108 0
M  V30 13532 H 1273.66 -0.755797 0.335708 0
M  V30 13533 H 1276.21 -1.09167 1.29925 0
M  V30 13534 H 1274.98 -2.76247 2.77134 0
M  V30 13535 H 1274.6 -3.73631 1.35963 0
M  V30 13536 N 1275.6 -0.99472 -1.22242 0
M  V30 13537 C 1276.51 -0.555502 -2.27928 0
M  V30 13538 C 1277.53 0.396584 -1.6942 0
M  V30 13539 O 1278.7 0.262965 -1.99676 0
M  V30 13540 C 1275.77 0.121121 -3.46488 0
M  V30 13541 C 1274.83 -0.874155 -4.20306 0
M  V30 13542 C 1274.06 -0.229726 -5.33205 0
M  V30 13543 O 1274.28 0.975935 -5.61989 0
M  V30 13544 O 1273.22 -0.935501 -5.94586 0
M  V30 13545 H 1277.04 -1.4348 -2.6767 0
M  V30 13546 H 1274.63 -0.763061 -1.28444 0
M  V30 13547 H 1276.51 0.500043 -4.18423 0
M  V30 13548 H 1275.19 0.974959 -3.08668 0
M  V30 13549 H 1274.09 -1.30404 -3.50636 0
M  V30 13550 H 1275.43 -1.69725 -4.62011 0
M  V30 13551 N 1277.08 1.37613 -0.768148 0
M  V30 13552 C 1278.01 2.3291 -0.165911 0
M  V30 13553 C 1278.99 1.556 0.687205 0
M  V30 13554 O 1280.17 1.83854 0.625407 0
M  V30 13555 C 1277.3 3.39822 0.7168 0
M  V30 13556 C 1276.26 4.27986 -0.0347264 0
M  V30 13557 C 1275.58 5.2588 0.967192 0
M  V30 13558 C 1276.88 5.08052 -1.21164 0
M  V30 13559 H 1278.58 2.83524 -0.962006 0
M  V30 13560 H 1276.12 1.36318 -0.464051 0
M  V30 13561 H 1278.08 4.05464 1.14789 0
M  V30 13562 H 1276.8 2.87725 1.54538 0
M  V30 13563 H 1275.46 3.6387 -0.446557 0
M  V30 13564 H 1275.11 4.70064 1.79022 0
M  V30 13565 H 1274.81 5.85726 0.468913 0
M  V30 13566 H 1276.33 5.94397 1.3973 0
M  V30 13567 H 1277.75 5.66853 -0.857373 0
M  V30 13568 H 1276.14 5.77206 -1.64176 0
M  V30 13569 H 1277.21 4.40936 -2.0175 0
M  V30 13570 N 1278.56 0.518393 1.4883 0
M  V30 13571 C 1279.97 0.0749773 1.86549 0
M  V30 13572 C 1280.32 -1.34429 1.4291 0
M  V30 13573 O 1279.44 -2.00481 0.814648 0
M  V30 13574 C 1280.04 0.129289 3.38553 0
M  V30 13575 C 1278.6 -0.258871 3.75509 0
M  V30 13576 C 1277.74 0.494185 2.72861 0
M  V30 13577 H 1280.7 0.730266 1.409 0
M  V30 13578 H 1280.72 -0.661844 3.747 0
M  V30 13579 H 1280.23 1.16237 3.70285 0
M  V30 13580 H 1278.33 -1.29453 3.49389 0
M  V30 13581 H 1278.44 0.0726769 4.79045 0
M  V30 13582 H 1276.81 -0.0581428 2.54634 0
M  V30 13583 H 1277.59 1.52767 3.07436 0
M  V30 13584 N 1280.03 -1.55556 0.252993 0
M  V30 13585 C 1281.45 -1.59276 -0.101714 0
M  V30 13586 C 1281.65 -1.27018 -1.56424 0
M  V30 13587 O 1280.71 -1.02042 -2.30963 0
M  V30 13588 C 1282.02 -2.99634 0.252969 0
M  V30 13589 C 1283.57 -3.12375 0.197767 0
M  V30 13590 C 1284.04 -4.54963 0.52657 0
M  V30 13591 N 1285.53 -4.60734 0.477296 0
M  V30 13592 C 1286.27 -5.69052 0.704793 0
M  V30 13593 N 1285.76 -6.85607 0.99574 0
M  V30 13594 N 1287.56 -5.58501 0.635086 0
M  V30 13595 H 1279.71 -1.74793 1.2067 0
M  V30 13596 H 1281.97 -0.813971 0.485958 0
M  V30 13597 H 1281.68 -3.27998 1.26926 0
M  V30 13598 H 1281.55 -3.74888 -0.416984 0
M  V30 13599 H 1283.94 -2.83788 -0.809209 0
M  V30 13600 H 1284.02 -2.39382 0.901659 0
M  V30 13601 H 1283.66 -4.84271 1.53113 0
M  V30 13602 H 1283.59 -5.26224 -0.198869 0
M  V30 13603 H 1286.08 -3.76995 0.261398 0
M  V30 13604 H 1286.4 -7.64096 1.15659 0
M  V30 13605 H 1284.74 -6.87276 1.03328 0
M  V30 13606 H 1287.93 -4.6632 0.407789 0
M  V30 13607 H 1288.11 -6.42845 0.815777 0
M  V30 13608 N 1281.51 0.0200419 -1.57587 0
M  V30 13609 C 1282.44 1.01715 -2.10181 0
M  V30 13610 C 1283.42 1.37136 -1.00636 0
M  V30 13611 O 1284.61 1.45862 -1.2821 0
M  V30 13612 C 1281.74 2.31531 -2.58865 0
M  V30 13613 C 1280.69 2.10327 -3.72755 0
M  V30 13614 C 1280.02 3.45981 -4.07678 0
M  V30 13615 C 1281.32 1.4821 -5.0083 0
M  V30 13616 H 1283.01 0.579307 -2.93742 0
M  V30 13617 H 1280.56 0.277211 -1.41307 0
M  V30 13618 H 1282.51 3.01623 -2.94281 0
M  V30 13619 H 1281.24 2.77392 -1.72399 0
M  V30 13620 H 1279.89 1.42665 -3.37701 0
M  V30 13621 H 1279.54 3.89508 -3.18265 0
M  V30 13622 H 1279.24 3.32616 -4.84397 0
M  V30 13623 H 1280.77 4.17421 -4.45637 0
M  V30 13624 H 1282.18 2.08232 -5.34146 0
M  V30 13625 H 1280.58 1.45393 -5.82221 0
M  V30 13626 H 1281.65 0.448942 -4.82817 0
M  V30 13627 N 1282.99 1.54862 0.292472 0
M  V30 13628 C 1283.92 1.82786 1.38282 0
M  V30 13629 C 1284.94 0.711253 1.46441 0
M  V30 13630 O 1286.12 0.988851 1.48607 0
M  V30 13631 C 1283.22 1.95845 2.76582 0
M  V30 13632 C 1282.4 3.2633 2.91252 0
M  V30 13633 C 1281.46 3.29697 4.10105 0
M  V30 13634 O 1280.48 4.03184 4.01785 0
M  V30 13635 N 1281.68 2.557 5.21151 0
M  V30 13636 H 1284.45 2.76891 1.1468 0
M  V30 13637 H 1282.01 1.54541 0.482561 0
M  V30 13638 H 1284 1.95491 3.54352 0
M  V30 13639 H 1282.57 1.08696 2.93094 0
M  V30 13640 H 1281.79 3.39387 2.00525 0
M  V30 13641 H 1283.08 4.12421 2.9797 0
M  V30 13642 H 1282.48 1.95642 5.30792 0
M  V30 13643 H 1281.04 2.61089 5.97223 0
M  V30 13644 N 1284.47 -0.556076 1.47464 0
M  V30 13645 C 1285.4 -1.67275 1.62915 0
M  V30 13646 C 1286.38 -1.63229 0.478562 0
M  V30 13647 O 1287.56 -1.80833 0.708032 0
M  V30 13648 C 1284.69 -3.05911 1.64426 0
M  V30 13649 C 1283.65 -3.24804 2.78722 0
M  V30 13650 C 1282.97 -4.64238 2.65307 0
M  V30 13651 C 1284.27 -3.10071 4.20302 0
M  V30 13652 H 1285.97 -1.54601 2.56396 0
M  V30 13653 H 1283.51 -0.742337 1.23391 0
M  V30 13654 H 1285.47 -3.83878 1.73826 0
M  V30 13655 H 1284.19 -3.19547 0.675053 0
M  V30 13656 H 1282.85 -2.49246 2.68835 0
M  V30 13657 H 1282.5 -4.74675 1.66412 0
M  V30 13658 H 1282.2 -4.77828 3.41986 0
M  V30 13659 H 1283.72 -5.44339 2.76637 0
M  V30 13660 H 1285.14 -3.77855 4.3116 0
M  V30 13661 H 1283.53 -3.3517 4.97776 0
M  V30 13662 H 1284.6 -2.06803 4.38589 0
M  V30 13663 N 1285.95 -1.35615 -0.802897 0
M  V30 13664 C 1286.86 -1.3096 -1.94645 0
M  V30 13665 C 1287.87 -0.213909 -1.7268 0
M  V30 13666 O 1289.05 -0.443932 -1.96446 0
M  V30 13667 C 1286.11 -1.08483 -3.2929 0
M  V30 13668 C 1285.18 -2.27401 -3.64126 0
M  V30 13669 C 1284.41 -2.05987 -4.92347 0
M  V30 13670 O 1284.63 -1.02819 -5.61057 0
M  V30 13671 O 1283.57 -2.93439 -5.25526 0
M  V30 13672 H 1287.39 -2.27209 -2.01519 0
M  V30 13673 H 1284.98 -1.16024 -0.941214 0
M  V30 13674 H 1286.86 -0.978118 -4.09891 0
M  V30 13675 H 1285.53 -0.152885 -3.23339 0
M  V30 13676 H 1284.44 -2.43638 -2.83886 0
M  V30 13677 H 1285.77 -3.19055 -3.74786 0
M  V30 13678 N 1287.43 1.02549 -1.19673 0
M  V30 13679 C 1288.67 1.76382 -1.01296 0
M  V30 13680 C 1289.03 1.87036 0.451162 0
M  V30 13681 O 1288.32 1.37859 1.33062 0
M  V30 13682 C 1288.51 3.18597 -1.61959 0
M  V30 13683 C 1288.34 3.21808 -3.14117 0
M  V30 13684 C 1287.11 3.2956 -3.83038 0
M  V30 13685 C 1289.31 3.08576 -4.11443 0
M  V30 13686 N 1287.29 3.22181 -5.22564 0
M  V30 13687 C 1288.66 3.08868 -5.37588 0
M  V30 13688 C 1290.72 2.92728 -4.02759 0
M  V30 13689 C 1289.42 2.94938 -6.56052 0
M  V30 13690 C 1291.45 2.80149 -5.20837 0
M  V30 13691 C 1290.81 2.81098 -6.45882 0
M  V30 13692 H 1286.91 0.656544 -0.424822 0
M  V30 13693 H 1289.49 1.22046 -1.517 0
M  V30 13694 H 1287.66 3.71247 -1.14151 0
M  V30 13695 H 1289.4 3.80812 -1.36984 0
M  V30 13696 H 1286.15 3.3592 -3.33848 0
M  V30 13697 H 1286.57 3.21889 -5.95581 0
M  V30 13698 H 1291.22 2.90814 -3.069 0
M  V30 13699 H 1288.93 2.95603 -7.52093 0
M  V30 13700 H 1292.52 2.68917 -5.15921 0
M  V30 13701 H 1291.4 2.71471 -7.35713 0
M  V30 13702 N 1288.9 1.00119 1.21713 0
M  V30 13703 C 1290.15 0.67713 1.89994 0
M  V30 13704 C 1290.47 -0.795149 1.78709 0
M  V30 13705 O 1291.67 -1.23113 2.41982 0
M  V30 13706 C 1290.13 1.16065 3.40671 0
M  V30 13707 C 1289.74 2.65874 3.60576 0
M  V30 13708 C 1291.48 0.911302 4.14603 0
M  V30 13709 C 1289.39 3.07785 5.04997 0
M  V30 13710 H 1288.32 0.249572 0.711498 0
M  V30 13711 H 1290.97 1.21185 1.37792 0
M  V30 13712 H 1289.35 0.554005 3.92106 0
M  V30 13713 H 1290.52 3.31954 3.19598 0
M  V30 13714 H 1288.84 2.88781 2.99991 0
M  V30 13715 H 1291.44 1.20004 5.2106 0
M  V30 13716 H 1291.78 -0.152495 4.16021 0
M  V30 13717 H 1292.31 1.48055 3.69222 0
M  V30 13718 H 1289.05 4.13376 5.08724 0
M  V30 13719 H 1288.57 2.46414 5.46846 0
M  V30 13720 H 1290.25 2.99552 5.73479 0
M  V30 13721 N 1290.38 -1.37203 0.775435 0
M  V30 13722 C 1291.66 -1.93783 0.266005 0
M  V30 13723 C 1292.04 -1.70875 -1.23956 0
M  V30 13724 O 1291.39 -1.05965 -2.02444 0
M  V30 13725 C 1291.6 -3.43018 0.643404 0
M  V30 13726 C 1292.94 -4.20119 0.615267 0
M  V30 13727 O 1293.97 -3.51396 0.583018 0
M  V30 13728 O 1292.83 -5.42673 0.645637 0
M  V30 13729 H 1289.92 -0.824649 0.0623107 0
M  V30 13730 H 1292.47 -1.46468 0.857036 0
M  V30 13731 H 1291.24 -3.5329 1.68232 0
M  V30 13732 H 1290.86 -3.97592 0.0255138 0
M  V30 13733 N 1291.86 -0.526279 -1.48553 0
M  V30 13734 C 1293.08 0.00731432 -2.07399 0
M  V30 13735 C 1293.51 1.27737 -1.38075 0
M  V30 13736 O 1292.87 1.75741 -0.445503 0
M  V30 13737 C 1292.92 0.218126 -3.5994 0
M  V30 13738 O 1292.02 1.28759 -3.91784 0
M  V30 13739 H 1291.36 -0.0374784 -0.662941 0
M  V30 13740 H 1293.89 -0.733133 -1.91014 0
M  V30 13741 H 1293.9 0.44192 -4.056 0
M  V30 13742 H 1292.58 -0.709668 -4.09801 0
M  V30 13743 H 1291.15 1.04674 -3.57907 0
M  V30 13744 N 1293.34 1.5542 -0.261239 0
M  V30 13745 C 1294.59 1.9846 0.360052 0
M  V30 13746 C 1294.9 1.15288 1.58013 0
M  V30 13747 O 1296.11 1.48408 2.27348 0
M  V30 13748 C 1294.56 3.53185 0.691964 0
M  V30 13749 C 1294.17 4.45116 -0.507521 0
M  V30 13750 C 1295.91 4.04848 1.27665 0
M  V30 13751 C 1293.82 5.91207 -0.150966 0
M  V30 13752 H 1292.75 0.741207 0.138303 0
M  V30 13753 H 1295.4 1.79859 -0.363712 0
M  V30 13754 H 1293.78 3.67535 1.47425 0
M  V30 13755 H 1294.96 4.42531 -1.28465 0
M  V30 13756 H 1293.27 4.04013 -1.0081 0
M  V30 13757 H 1295.87 5.11529 1.55699 0
M  V30 13758 H 1296.21 3.5305 2.20593 0
M  V30 13759 H 1296.75 3.93882 0.556955 0
M  V30 13760 H 1293.48 6.47072 -1.04776 0
M  V30 13761 H 1293 5.96894 0.589671 0
M  V30 13762 H 1294.68 6.4647 0.261772 0
M  V30 13763 N 1294.82 -0.0116844 1.57596 0
M  V30 13764 C 1296.06 -0.703597 1.91908 0
M  V30 13765 C 1296.42 -1.71581 0.861628 0
M  V30 13766 O 1297.62 -2.45724 1.08963 0
M  V30 13767 C 1295.89 -1.34031 3.31316 0
M  V30 13768 S 1297.45 -2.05896 3.87495 0
M  V30 13769 H 1294.27 -0.23269 0.671846 0
M  V30 13770 H 1296.87 0.0421973 1.95454 0
M  V30 13771 H 1295.57 -0.590617 4.06128 0
M  V30 13772 H 1295.11 -2.12428 3.31116 0
M  V30 13773 H 1297.12 -3.33266 3.67626 0
M  V30 13774 N 1296.29 -1.55015 -0.284256 0
M  V30 13775 C 1297.23 -1.82031 -1.37623 0
M  V30 13776 C 1298.2 -0.672564 -1.48038 0
M  V30 13777 O 1299.39 -0.914349 -1.64839 0
M  V30 13778 C 1296.52 -1.97193 -2.75377 0
M  V30 13779 C 1295.56 -3.19699 -2.82303 0
M  V30 13780 S 1296.39 -4.77348 -2.42691 0
M  V30 13781 C 1297.55 -4.95468 -3.82442 0
M  V30 13782 H 1297.78 -2.74366 -1.14502 0
M  V30 13783 H 1295.32 -1.46642 -0.483283 0
M  V30 13784 H 1297.27 -2.06614 -3.54713 0
M  V30 13785 H 1295.94 -1.05766 -2.95757 0
M  V30 13786 H 1295.13 -3.27161 -3.83382 0
M  V30 13787 H 1294.73 -3.08811 -2.10978 0
M  V30 13788 H 1297.02 -4.80519 -4.77606 0
M  V30 13789 H 1297.97 -5.97538 -3.7994 0
M  V30 13790 H 1298.37 -4.23516 -3.73222 0
M  V30 13791 N 1297.77 0.548248 -1.47757 0
M  V30 13792 C 1299.18 1.13033 -1.48595 0
M  V30 13793 C 1299.53 1.94657 -0.245575 0
M  V30 13794 O 1298.66 2.06445 0.648813 0
M  V30 13795 C 1299.25 2.05657 -2.69241 0
M  V30 13796 C 1297.81 2.59119 -2.73009 0
M  V30 13797 C 1296.96 1.35686 -2.41836 0
M  V30 13798 H 1299.91 0.334397 -1.55137 0
M  V30 13799 H 1299.93 2.89671 -2.4672 0
M  V30 13800 H 1299.44 1.46222 -3.595 0
M  V30 13801 H 1297.54 3.22327 -1.86912 0
M  V30 13802 H 1297.66 2.99501 -3.73946 0
M  V30 13803 H 1296.02 1.66659 -1.92606 0
M  V30 13804 H 1296.8 0.780311 -3.34314 0
M  V30 13805 N 1299.25 1.36039 0.795694 0
M  V30 13806 C 1300.18 1.32528 1.92246 0
M  V30 13807 C 1301.16 0.197805 1.68946 0
M  V30 13808 O 1302.35 0.394474 1.90151 0
M  V30 13809 C 1299.48 1.10748 3.29169 0
M  V30 13810 C 1298.43 2.20253 3.66978 0
M  V30 13811 C 1297.76 1.83624 5.02181 0
M  V30 13812 C 1299.06 3.62296 3.76216 0
M  V30 13813 H 1300.75 2.2681 1.95442 0
M  V30 13814 H 1298.3 1.09181 0.938908 0
M  V30 13815 H 1300.25 1.06929 4.07608 0
M  V30 13816 H 1298.97 0.129141 3.26345 0
M  V30 13817 H 1297.63 2.23187 2.90832 0
M  V30 13818 H 1297.28 0.843804 4.95872 0
M  V30 13819 H 1296.98 2.56935 5.28449 0
M  V30 13820 H 1298.5 1.81349 5.83048 0
M  V30 13821 H 1299.92 3.61623 4.44861 0
M  V30 13822 H 1298.31 4.34459 4.13963 0
M  V30 13823 H 1299.38 3.97657 2.77483 0
M  V30 13824 N 1300.73 -1.01913 1.20215 0
M  V30 13825 C 1301.96 -1.78817 1.0348 0
M  V30 13826 C 1302.37 -1.84499 -0.419152 0
M  V30 13827 O 1301.71 -1.29506 -1.30284 0
M  V30 13828 C 1301.77 -3.24858 1.53973 0
M  V30 13829 C 1301.44 -3.42788 3.02234 0
M  V30 13830 C 1302.43 -3.32213 3.99914 0
M  V30 13831 C 1300.12 -3.68687 3.41138 0
M  V30 13832 C 1302.11 -3.47276 5.34489 0
M  V30 13833 C 1299.8 -3.83394 4.7587 0
M  V30 13834 C 1300.8 -3.72693 5.72354 0
M  V30 13835 O 1300.48 -3.86953 7.04643 0
M  V30 13836 H 1300.22 -0.569268 0.364568 0
M  V30 13837 H 1302.77 -1.29184 1.59689 0
M  V30 13838 H 1301 -3.7556 0.921478 0
M  V30 13839 H 1302.69 -3.83388 1.33297 0
M  V30 13840 H 1303.46 -3.12145 3.71202 0
M  V30 13841 H 1299.33 -3.76104 2.66583 0
M  V30 13842 H 1302.88 -3.3884 6.09782 0
M  V30 13843 H 1298.78 -4.02962 5.04273 0
M  V30 13844 H 1299.54 -4.03986 7.11855 0
M  V30 13845 N 1302.21 -1.00763 -1.2118 0
M  V30 13846 C 1303.14 -0.528468 -2.23024 0
M  V30 13847 C 1304.15 0.384348 -1.58198 0
M  V30 13848 O 1305.34 0.184127 -1.77548 0
M  V30 13849 C 1302.44 0.251693 -3.37964 0
M  V30 13850 C 1301.61 -0.660838 -4.32379 0
M  V30 13851 C 1300.67 0.0701723 -5.26153 0
M  V30 13852 O 1299.7 -0.549355 -5.66543 0
M  V30 13853 N 1300.9 1.34791 -5.64634 0
M  V30 13854 H 1303.67 -1.40428 -2.64764 0
M  V30 13855 H 1301.23 -0.884085 -1.3563 0
M  V30 13856 H 1303.22 0.749746 -3.97694 0
M  V30 13857 H 1301.79 1.02872 -2.95188 0
M  V30 13858 H 1301.01 -1.33934 -3.7075 0
M  V30 13859 H 1302.3 -1.28177 -4.9239 0
M  V30 13860 H 1301.69 1.87232 -5.33817 0
M  V30 13861 H 1300.25 1.79086 -6.26715 0
M  V30 13862 N 1303.68 1.3679 -0.7827 0
M  V30 13863 C 1304.65 2.28472 -0.182525 0
M  V30 13864 C 1305.65 1.48524 0.616217 0
M  V30 13865 O 1306.84 1.68599 0.438197 0
M  V30 13866 C 1303.97 3.32588 0.748202 0
M  V30 13867 H 1305.16 2.83059 -0.99085 0
M  V30 13868 H 1302.72 1.46241 -0.551658 0
M  V30 13869 H 1303.45 2.83145 1.58112 0
M  V30 13870 H 1303.24 3.91698 0.177481 0
M  V30 13871 H 1304.73 4.01073 1.16321 0
M  V30 13872 N 1305.16 0.53415 1.48272 0
M  V30 13873 C 1306.09 -0.215037 2.32508 0
M  V30 13874 C 1307.07 -0.931083 1.42355 0
M  V30 13875 O 1308.26 -0.916051 1.71237 0
M  V30 13876 C 1305.39 -1.25985 3.23643 0
M  V30 13877 C 1304.34 -0.661692 4.22854 0
M  V30 13878 C 1303.67 -1.80946 5.03153 0
M  V30 13879 C 1304.97 0.369358 5.20992 0
M  V30 13880 H 1306.66 0.488158 2.95394 0
M  V30 13881 H 1304.21 0.236206 1.4205 0
M  V30 13882 H 1306.16 -1.79195 3.81402 0
M  V30 13883 H 1304.89 -1.99268 2.58766 0
M  V30 13884 H 1303.54 -0.151082 3.66289 0
M  V30 13885 H 1303.19 -2.53077 4.34696 0
M  V30 13886 H 1302.89 -1.41513 5.70305 0
M  V30 13887 H 1304.42 -2.34526 5.63764 0
M  V30 13888 H 1305.83 -0.0758076 5.7325 0
M  V30 13889 H 1304.23 0.681301 5.9622 0
M  V30 13890 H 1305.3 1.27363 4.67875 0
M  V30 13891 N 1306.64 -1.55279 0.269478 0
M  V30 13892 C 1307.89 -1.99767 -0.34943 0
M  V30 13893 C 1308.22 -1.15762 -1.55926 0
M  V30 13894 O 1307.49 -0.22633 -1.93179 0
M  V30 13895 C 1307.78 -3.52474 -0.73716 0
M  V30 13896 C 1307.63 -4.47236 0.479621 0
M  V30 13897 C 1308.95 -4.10924 -1.57573 0
M  V30 13898 H 1306.07 -0.72623 -0.125535 0
M  V30 13899 H 1308.71 -1.86257 0.375298 0
M  V30 13900 H 1306.86 -3.64118 -1.35464 0
M  V30 13901 H 1308.53 -4.47543 1.11816 0
M  V30 13902 H 1306.78 -4.19127 1.11871 0
M  V30 13903 H 1307.45 -5.51754 0.164653 0
M  V30 13904 H 1309.92 -4.02522 -1.05429 0
M  V30 13905 H 1308.8 -5.17995 -1.81584 0
M  V30 13906 H 1309.06 -3.60798 -2.55495 0
M  V30 13907 N 1308.12 0.00332656 -1.576 0
M  V30 13908 C 1309.07 0.99581 -2.08212 0
M  V30 13909 C 1310.04 1.34342 -0.976804 0
M  V30 13910 O 1311.22 1.44236 -1.24902 0
M  V30 13911 C 1308.36 2.2836 -2.58739 0
M  V30 13912 C 1307.47 1.99531 -3.8316 0
M  V30 13913 C 1306.61 3.22367 -4.222 0
M  V30 13914 C 1305.65 2.89209 -5.39467 0
M  V30 13915 N 1304.78 4.04572 -5.73817 0
M  V30 13916 H 1309.62 0.55727 -2.92743 0
M  V30 13917 H 1307.16 0.263513 -1.4472 0
M  V30 13918 H 1309.12 3.03639 -2.86111 0
M  V30 13919 H 1307.75 2.69889 -1.77087 0
M  V30 13920 H 1306.8 1.14634 -3.62716 0
M  V30 13921 H 1308.11 1.71089 -4.6854 0
M  V30 13922 H 1307.27 4.05994 -4.50837 0
M  V30 13923 H 1306.01 3.53944 -3.35522 0
M  V30 13924 H 1305.01 2.03989 -5.10557 0
M  V30 13925 H 1306.24 2.58883 -6.27819 0
M  V30 13926 H 1304.18 4.36052 -4.90096 0
M  V30 13927 H 1304.1 3.79643 -6.53764 0
M  V30 13928 H 1305.37 4.88998 -6.07043 0
M  V30 13929 N 1309.6 1.55164 0.276031 0
M  V30 13930 C 1310.84 1.75887 1.00953 0
M  V30 13931 C 1311.18 0.5567 1.8605 0
M  V30 13932 O 1310.45 -0.445799 1.89322 0
M  V30 13933 C 1310.73 3.06228 1.89463 0
M  V30 13934 C 1310.59 4.36795 1.07379 0
M  V30 13935 C 1311.91 3.32589 2.88223 0
M  V30 13936 H 1309.02 0.639929 0.365596 0
M  V30 13937 H 1311.67 1.87893 0.282156 0
M  V30 13938 H 1309.82 2.96124 2.51481 0
M  V30 13939 H 1311.49 4.58853 0.474549 0
M  V30 13940 H 1309.73 4.32157 0.377165 0
M  V30 13941 H 1310.4 5.24315 1.72621 0
M  V30 13942 H 1312.88 3.42467 2.36338 0
M  V30 13943 H 1311.75 4.2506 3.47297 0
M  V30 13944 H 1312.02 2.52083 3.6319 0
M  V30 13945 N 1311.07 -0.540404 1.48045 0
M  V30 13946 C 1312.02 -1.66695 1.62221 0
M  V30 13947 C 1313.02 -1.6219 0.488943 0
M  V30 13948 O 1314.22 -1.67173 0.66732 0
M  V30 13949 H 1310.6 -0.551868 0.510828 0
M  V30 13950 H 1312.57 -1.51879 2.56856 0
M  V30 13951 C 1311.32 -3.05002 1.6694 0
M  V30 13952 H 1310.64 -3.09157 2.53499 0
M  V30 13953 H 1312.08 -3.8347 1.80904 0
M  V30 13954 C 1310.54 -3.34445 0.40598 0
M  V30 13955 O 1311.07 -3.98753 -0.485676 0
M  V30 13956 N 1309.28 -2.8924 0.280857 0
M  V30 13957 H 1308.82 -2.37085 1.00741 0
M  V30 13958 H 1308.78 -3.09309 -0.563493 0
M  V30 13959 N 1312.55 -1.36459 -0.788468 0
M  V30 13960 C 1313.8 -1.30935 -1.54867 0
M  V30 13961 C 1314.13 0.110916 -1.93883 0
M  V30 13962 O 1313.41 1.06452 -1.62783 0
M  V30 13963 C 1313.69 -2.23294 -2.8251 0
M  V30 13964 C 1313.54 -3.74022 -2.49856 0
M  V30 13965 C 1314.86 -2.14407 -3.84341 0
M  V30 13966 H 1311.98 -0.476958 -0.561854 0
M  V30 13967 H 1314.62 -1.67018 -0.905805 0
M  V30 13968 H 1312.77 -1.92652 -3.37369 0
M  V30 13969 H 1314.44 -4.15187 -2.01041 0
M  V30 13970 H 1312.69 -3.93411 -1.82785 0
M  V30 13971 H 1313.36 -4.34057 -3.41026 0
M  V30 13972 H 1315.83 -2.41381 -3.38932 0
M  V30 13973 H 1314.71 -2.81199 -4.71401 0
M  V30 13974 H 1314.97 -1.13166 -4.27371 0
M  V30 13975 N 1314.03 1.01274 -1.20754 0
M  V30 13976 C 1314.98 2.09894 -0.959852 0
M  V30 13977 C 1315.95 1.65726 0.111351 0
M  V30 13978 O 1317.13 1.90769 -0.0341721 0
M  V30 13979 C 1314.27 3.41126 -0.52223 0
M  V30 13980 C 1313.39 3.98749 -1.66202 0
M  V30 13981 C 1312.52 5.18057 -1.17432 0
M  V30 13982 C 1311.56 5.67772 -2.28694 0
M  V30 13983 N 1310.7 6.78338 -1.81114 0
M  V30 13984 H 1315.54 2.30416 -1.88977 0
M  V30 13985 H 1313.07 1.12989 -0.941906 0
M  V30 13986 H 1315.03 4.16451 -0.249799 0
M  V30 13987 H 1313.66 3.20665 0.370688 0
M  V30 13988 H 1312.71 3.20483 -2.04927 0
M  V30 13989 H 1314.03 4.31646 -2.49967 0
M  V30 13990 H 1313.18 6.00601 -0.858086 0
M  V30 13991 H 1311.92 4.86735 -0.306614 0
M  V30 13992 H 1310.92 4.8383 -2.61129 0
M  V30 13993 H 1312.15 6.01127 -3.15948 0
M  V30 13994 H 1310.09 6.48837 -0.966761 0
M  V30 13995 H 1310.01 7.10448 -2.58457 0
M  V30 13996 H 1311.28 7.64437 -1.52502 0
M  V30 13997 N 1315.51 1.01404 1.20644 0
M  V30 13998 C 1316.44 0.602465 2.25594 0
M  V30 13999 C 1317.42 -0.381216 1.65773 0
M  V30 14000 O 1318.61 -0.267209 1.92353 0
M  V30 14001 C 1315.74 -0.0626245 3.47244 0
M  V30 14002 C 1314.69 0.841776 4.1964 0
M  V30 14003 C 1314.02 0.0426002 5.34683 0
M  V30 14004 C 1315.32 2.14864 4.76058 0
M  V30 14005 H 1317.01 1.47977 2.60275 0
M  V30 14006 H 1314.56 0.712966 1.25111 0
M  V30 14007 H 1316.51 -0.362095 4.19841 0
M  V30 14008 H 1315.23 -0.974627 3.11719 0
M  V30 14009 H 1313.89 1.12521 3.48905 0
M  V30 14010 H 1313.54 -0.870973 4.95402 0
M  V30 14011 H 1313.24 0.644866 5.84051 0
M  V30 14012 H 1314.76 -0.250476 6.10086 0
M  V30 14013 H 1316.18 1.9117 5.40488 0
M  V30 14014 H 1314.57 2.70153 5.35852 0
M  V30 14015 H 1315.64 2.81336 3.9494 0
M  V30 14016 N 1316.99 -1.36373 0.789944 0
M  V30 14017 C 1317.93 -2.30043 0.186798 0
M  V30 14018 C 1318.9 -1.52002 -0.669663 0
M  V30 14019 O 1320.09 -1.80506 -0.618232 0
M  V30 14020 C 1317.23 -3.38494 -0.671994 0
M  V30 14021 C 1316.34 -4.31522 0.203067 0
M  V30 14022 C 1315.48 -5.27057 -0.662148 0
M  V30 14023 C 1314.52 -6.11725 0.214335 0
M  V30 14024 N 1313.65 -6.99446 -0.609892 0
M  V30 14025 H 1318.49 -2.81038 0.991048 0
M  V30 14026 H 1316.03 -1.38331 0.500288 0
M  V30 14027 H 1317.99 -4.0002 -1.1849 0
M  V30 14028 H 1316.62 -2.88818 -1.44167 0
M  V30 14029 H 1315.67 -3.71146 0.833945 0
M  V30 14030 H 1316.98 -4.91005 0.878389 0
M  V30 14031 H 1316.14 -5.93875 -1.24084 0
M  V30 14032 H 1314.88 -4.6803 -1.37109 0
M  V30 14033 H 1313.88 -5.43868 0.805426 0
M  V30 14034 H 1315.11 -6.72827 0.92089 0
M  V30 14035 H 1313.05 -6.42927 -1.30312 0
M  V30 14036 H 1312.97 -7.56 0.00773786 0
M  V30 14037 H 1314.24 -7.70633 -1.1724 0
M  V30 14038 N 1318.47 -0.542005 -1.47987 0
M  V30 14039 C 1319.88 -0.104646 -1.86406 0
M  V30 14040 C 1320.23 1.32139 -1.4503 0
M  V30 14041 O 1319.35 1.99159 -0.846439 0
M  V30 14042 C 1319.95 -0.183133 -3.38305 0
M  V30 14043 C 1318.51 0.199098 -3.75873 0
M  V30 14044 C 1317.65 -0.537532 -2.7204 0
M  V30 14045 H 1320.6 -0.75259 -1.3972 0
M  V30 14046 H 1320.63 0.602149 -3.75705 0
M  V30 14047 H 1320.14 -1.22113 -3.68389 0
M  V30 14048 H 1318.24 1.23878 -3.51404 0
M  V30 14049 H 1318.35 -0.14888 -4.78869 0
M  V30 14050 H 1316.72 0.0176255 -2.54694 0
M  V30 14051 H 1317.5 -1.57639 -3.04967 0
M  V30 14052 N 1319.94 1.55134 -0.277709 0
M  V30 14053 C 1320.88 2.18745 0.650058 0
M  V30 14054 C 1321.85 1.14922 1.15029 0
M  V30 14055 O 1323.04 1.43458 1.22278 0
M  V30 14056 C 1320.17 2.81277 1.88683 0
M  V30 14057 C 1319.21 3.98425 1.52185 0
M  V30 14058 S 1320.04 5.32153 0.597782 0
M  V30 14059 C 1321.2 5.98155 1.84287 0
M  V30 14060 H 1321.43 2.97098 0.109571 0
M  V30 14061 H 1318.97 1.54276 -0.0619536 0
M  V30 14062 H 1320.92 3.17934 2.59669 0
M  V30 14063 H 1319.59 2.02813 2.39845 0
M  V30 14064 H 1318.78 4.40877 2.4422 0
M  V30 14065 H 1318.38 3.63203 0.892146 0
M  V30 14066 H 1320.67 6.17546 2.78646 0
M  V30 14067 H 1321.62 6.92857 1.46131 0
M  V30 14068 H 1322.02 5.27541 2.00899 0
M  V30 14069 N 1321.42 0.00503138 1.57599 0
M  V30 14070 C 1322.35 -0.983586 2.11773 0
M  V30 14071 C 1323.33 -1.35518 1.02805 0
M  V30 14072 O 1324.52 -1.43804 1.30514 0
M  V30 14073 C 1321.65 -2.27383 2.62515 0
M  V30 14074 C 1320.6 -2.0437 3.76054 0
M  V30 14075 C 1319.93 -3.39451 4.1313 0
M  V30 14076 C 1321.23 -1.40223 5.03125 0
M  V30 14077 H 1322.92 -0.532501 2.94627 0
M  V30 14078 H 1320.47 -0.254696 1.4173 0
M  V30 14079 H 1322.42 -2.96903 2.99043 0
M  V30 14080 H 1321.14 -2.74614 1.7679 0
M  V30 14081 H 1319.8 -1.37275 3.39928 0
M  V30 14082 H 1319.45 -3.84395 3.24422 0
M  V30 14083 H 1319.15 -3.24868 4.89627 0
M  V30 14084 H 1320.68 -4.10279 4.52221 0
M  V30 14085 H 1322.09 -1.99708 5.37392 0
M  V30 14086 H 1320.49 -1.36112 5.8446 0
M  V30 14087 H 1321.56 -0.372073 4.8347 0
M  V30 14088 N 1322.9 -1.55308 -0.267798 0
M  V30 14089 C 1324.18 -1.66881 -1.02029 0
M  V30 14090 C 1324.56 -0.538708 -2.04111 0
M  V30 14091 O 1323.9 0.460575 -2.2381 0
M  V30 14092 C 1324.11 -3.06318 -1.67243 0
M  V30 14093 C 1325.46 -3.64237 -2.18212 0
M  V30 14094 O 1326.49 -3.08984 -1.77221 0
M  V30 14095 O 1325.35 -4.61055 -2.93413 0
M  V30 14096 H 1322.44 -0.677967 -0.473593 0
M  V30 14097 H 1324.99 -1.67646 -0.263242 0
M  V30 14098 H 1323.76 -3.80015 -0.932985 0
M  V30 14099 H 1323.38 -3.09475 -2.49622 0
M  V30 14100 N 1324.38 0.532545 -1.4833 0
M  V30 14101 C 1325.6 1.31809 -1.60129 0
M  V30 14102 C 1326.03 1.86283 -0.260807 0
M  V30 14103 O 1325.39 1.6427 0.767137 0
M  V30 14104 C 1325.43 2.44661 -2.64903 0
M  V30 14105 O 1324.54 3.47622 -2.21885 0
M  V30 14106 H 1323.88 0.390492 -0.53704 0
M  V30 14107 H 1326.41 0.641068 -1.94297 0
M  V30 14108 H 1326.42 2.90883 -2.86096 0
M  V30 14109 H 1325.09 2.04373 -3.62222 0
M  V30 14110 H 1323.67 3.07536 -2.10894 0
M  V30 14111 N 1325.86 1.36875 0.78122 0
M  V30 14112 C 1327.1 1.31754 1.54171 0
M  V30 14113 C 1327.43 -0.100632 1.93939 0
M  V30 14114 O 1326.71 -1.05587 1.63345 0
M  V30 14115 C 1326.99 2.24789 2.81322 0
M  V30 14116 C 1326.85 3.75342 2.47868 0
M  V30 14117 C 1328.16 2.16442 3.83198 0
M  V30 14118 H 1325.28 0.479931 0.559317 0
M  V30 14119 H 1327.93 1.67497 0.896935 0
M  V30 14120 H 1326.08 1.94438 3.36342 0
M  V30 14121 H 1327.75 4.16247 1.98836 0
M  V30 14122 H 1325.99 3.94375 1.80696 0
M  V30 14123 H 1326.66 4.3586 3.38719 0
M  V30 14124 H 1329.14 2.43175 3.37647 0
M  V30 14125 H 1328.01 2.83695 4.69903 0
M  V30 14126 H 1328.27 1.15431 4.26765 0
M  V30 14127 N 1327.33 -1.00632 1.21289 0
M  V30 14128 C 1328.3 -2.07543 0.972548 0
M  V30 14129 C 1329.3 -1.60703 -0.0559244 0
M  V30 14130 O 1330.49 -1.73255 0.181213 0
M  V30 14131 C 1327.62 -3.37696 0.466297 0
M  V30 14132 H 1328.81 -2.30298 1.92101 0
M  V30 14133 H 1326.36 -1.17588 1.02969 0
M  V30 14134 H 1327.1 -3.2062 -0.487148 0
M  V30 14135 H 1326.88 -3.73024 1.20813 0
M  V30 14136 H 1328.37 -4.16388 0.317962 0
M  V30 14137 N 1328.81 -1.02043 -1.20104 0
M  V30 14138 C 1330.04 -0.731315 -1.93544 0
M  V30 14139 C 1330.45 0.708582 -1.74999 0
M  V30 14140 O 1329.81 1.481 -1.06642 0
M  V30 14141 C 1329.86 -1.06233 -3.45538 0
M  V30 14142 O 1329.58 -2.44568 -3.63481 0
M  V30 14143 C 1331.08 -0.794818 -4.36116 0
M  V30 14144 H 1328.3 -0.268248 -0.615048 0
M  V30 14145 H 1330.85 -1.36264 -1.52488 0
M  V30 14146 H 1329 -0.476341 -3.8446 0
M  V30 14147 H 1329.42 -2.5663 -4.57429 0
M  V30 14148 H 1330.89 -1.07647 -5.41402 0
M  V30 14149 H 1331.37 0.270944 -4.38363 0
M  V30 14150 H 1331.97 -1.36314 -4.02863 0
M  V30 14151 N 1330.29 1.35952 -0.797165 0
M  V30 14152 C 1331.24 2.31831 -0.188958 0
M  V30 14153 C 1332.23 1.56181 0.656042 0
M  V30 14154 O 1333.44 1.71383 0.550259 0
M  V30 14155 H 1329.81 0.750807 -0.0423354 0
M  V30 14156 H 1331.78 2.80683 -1.0129 0
M  V30 14157 C 1330.53 3.41464 0.655547 0
M  V30 14158 H 1329.86 3.99797 0.0146854 0
M  V30 14159 H 1331.3 4.10853 1.04765 0
M  V30 14160 C 1329.76 2.83696 1.81709 0
M  V30 14161 O 1330.29 2.76484 2.91409 0
M  V30 14162 N 1328.49 2.40876 1.62564 0
M  V30 14163 H 1328.04 2.46941 0.733337 0
M  V30 14164 H 1328 2.02572 2.40441 0
M  V30 14165 N 1331.77 0.549846 1.47697 0
M  V30 14166 C 1333.18 0.209085 1.58225 0
M  V30 14167 C 1333.38 -1.28823 1.54941 0
M  V30 14168 O 1332.44 -2.0679 1.44893 0
M  V30 14169 C 1333.75 0.829219 2.89041 0
M  V30 14170 C 1335.3 0.79977 3.0261 0
M  V30 14171 C 1335.78 1.39884 4.36115 0
M  V30 14172 N 1337.27 1.36169 4.42733 0
M  V30 14173 C 1338 1.79492 5.44583 0
M  V30 14174 N 1337.5 2.30637 6.53283 0
M  V30 14175 N 1339.29 1.70608 5.35583 0
M  V30 14176 H 1331.44 1.52275 1.48074 0
M  V30 14177 H 1333.71 0.634579 0.704283 0
M  V30 14178 H 1333.41 1.88122 2.97158 0
M  V30 14179 H 1333.29 0.317916 3.75858 0
M  V30 14180 H 1335.67 -0.243525 2.94093 0
M  V30 14181 H 1335.75 1.34875 2.17353 0
M  V30 14182 H 1335.4 2.44116 4.45387 0
M  V30 14183 H 1335.33 0.825362 5.20092 0
M  V30 14184 H 1337.82 0.987505 3.64769 0
M  V30 14185 H 1338.13 2.61637 7.27163 0
M  V30 14186 H 1336.48 2.34643 6.54192 0
M  V30 14187 H 1339.67 1.30434 4.4956 0
M  V30 14188 H 1339.84 2.0469 6.14822 0
M  V30 14189 N 1333.25 -1.54984 0.285932 0
M  V30 14190 C 1334.47 -2.04699 -0.333621 0
M  V30 14191 C 1334.9 -1.16252 -1.47875 0
M  V30 14192 O 1334.25 -0.163376 -1.80562 0
M  V30 14193 C 1334.3 -3.52022 -0.78187 0
M  V30 14194 O 1333.41 -3.66639 -1.88812 0
M  V30 14195 H 1332.75 -0.660579 -0.0673203 0
M  V30 14196 H 1335.28 -2.00171 0.423386 0
M  V30 14197 H 1335.29 -3.93591 -1.07473 0
M  V30 14198 H 1333.96 -4.15862 0.055893 0
M  V30 14199 H 1332.54 -3.36974 -1.59696 0
M  V30 14200 N 1334.72 -0.0133892 -1.57594 0
M  V30 14201 C 1335.67 0.97367 -2.09257 0
M  V30 14202 C 1336.64 1.33298 -0.990998 0
M  V30 14203 O 1337.83 1.42903 -1.26425 0
M  V30 14204 C 1334.97 2.25603 -2.61147 0
M  V30 14205 C 1334.08 1.95456 -3.85254 0
M  V30 14206 C 1333.21 3.17871 -4.25596 0
M  V30 14207 C 1332.25 2.83471 -5.42504 0
M  V30 14208 N 1331.39 3.98464 -5.78075 0
M  V30 14209 H 1336.23 0.526189 -2.93318 0
M  V30 14210 H 1333.77 0.248148 -1.44992 0
M  V30 14211 H 1335.73 3.00587 -2.89315 0
M  V30 14212 H 1334.36 2.67995 -1.7994 0
M  V30 14213 H 1333.41 1.10781 -3.63912 0
M  V30 14214 H 1334.72 1.6611 -4.70328 0
M  V30 14215 H 1333.87 4.0119 -4.55117 0
M  V30 14216 H 1332.61 3.50365 -3.39257 0
M  V30 14217 H 1331.62 1.98562 -5.12692 0
M  V30 14218 H 1332.84 2.5221 -6.30529 0
M  V30 14219 H 1330.79 4.3083 -4.94694 0
M  V30 14220 H 1330.71 3.72688 -6.57753 0
M  V30 14221 H 1331.97 4.82532 -6.12195 0
M  V30 14222 N 1336.2 1.55448 0.259558 0
M  V30 14223 C 1337.45 1.77868 0.986641 0
M  V30 14224 C 1337.8 0.580238 1.83442 0
M  V30 14225 O 1337.1 -0.426821 1.86785 0
M  V30 14226 C 1337.29 3.03292 1.89073 0
M  V30 14227 C 1337.12 4.35221 1.13194 0
M  V30 14228 C 1335.89 4.98233 0.842166 0
M  V30 14229 C 1338.09 5.11708 0.515735 0
M  V30 14230 N 1336.07 6.13873 0.0579998 0
M  V30 14231 C 1337.44 6.19856 -0.133613 0
M  V30 14232 C 1339.5 4.96083 0.424928 0
M  V30 14233 C 1338.2 7.1408 -0.865032 0
M  V30 14234 C 1340.22 5.90674 -0.292931 0
M  V30 14235 C 1339.59 6.98221 -0.930965 0
M  V30 14236 H 1335.69 0.702973 0.342569 0
M  V30 14237 H 1338.27 1.92943 0.260982 0
M  V30 14238 H 1336.44 2.89569 2.58852 0
M  V30 14239 H 1338.17 3.1406 2.55242 0
M  V30 14240 H 1334.93 4.59406 1.1508 0
M  V30 14241 H 1335.35 6.76235 -0.321806 0
M  V30 14242 H 1339.99 4.13025 0.903883 0
M  V30 14243 H 1337.71 7.96648 -1.35563 0
M  V30 14244 H 1341.3 5.80662 -0.363691 0
M  V30 14245 H 1340.18 7.70154 -1.47758 0
M  V30 14246 N 1337.68 -0.524672 1.4861 0
M  V30 14247 C 1338.59 -1.65554 1.6622 0
M  V30 14248 C 1339.61 -1.65254 0.54471 0
M  V30 14249 O 1340.78 -1.84109 0.816454 0
M  V30 14250 C 1337.85 -3.02003 1.7028 0
M  V30 14251 C 1336.91 -3.13116 2.93695 0
M  V30 14252 C 1336.14 -4.43055 2.97553 0
M  V30 14253 O 1336.36 -5.30468 2.09667 0
M  V30 14254 O 1335.3 -4.58646 3.89779 0
M  V30 14255 H 1339.12 -1.53633 2.61974 0
M  V30 14256 H 1336.71 -0.698354 1.32073 0
M  V30 14257 H 1338.59 -3.83143 1.75441 0
M  V30 14258 H 1337.27 -3.14236 0.777002 0
M  V30 14259 H 1336.17 -2.31251 2.94064 0
M  V30 14260 H 1337.51 -3.058 3.85677 0
M  V30 14261 N 1339.16 -1.37287 -0.77395 0
M  V30 14262 C 1340.07 -1.35059 -1.91823 0
M  V30 14263 C 1341.08 -0.250489 -1.72188 0
M  V30 14264 O 1342.26 -0.485501 -1.95461 0
M  V30 14265 C 1339.33 -1.15444 -3.26915 0
M  V30 14266 C 1338.39 -2.35073 -3.5922 0
M  V30 14267 C 1337.62 -2.16384 -4.87867 0
M  V30 14268 O 1337.84 -1.14696 -5.58749 0
M  V30 14269 O 1336.78 -3.0452 -5.19183 0
M  V30 14270 H 1340.6 -2.31432 -1.96654 0
M  V30 14271 H 1338.19 -1.17994 -0.916392 0
M  V30 14272 H 1340.07 -1.06484 -4.07724 0
M  V30 14273 H 1338.74 -0.221435 -3.22942 0
M  V30 14274 H 1337.65 -2.49604 -2.78655 0
M  V30 14275 H 1338.98 -3.26933 -3.67934 0
M  V30 14276 N 1340.64 0.999871 -1.21821 0
M  V30 14277 C 1341.57 2.10708 -1.00621 0
M  V30 14278 C 1342.55 1.69954 0.0705417 0
M  V30 14279 O 1343.73 1.9399 -0.0903042 0
M  V30 14280 C 1340.86 3.42496 -0.575646 0
M  V30 14281 C 1339.82 3.97068 -1.59754 0
M  V30 14282 C 1339.14 5.24822 -1.02304 0
M  V30 14283 C 1340.44 4.28545 -2.98574 0
M  V30 14284 H 1342.14 2.28701 -1.93226 0
M  V30 14285 H 1339.68 1.09903 -0.930443 0
M  V30 14286 H 1341.64 4.19357 -0.414481 0
M  V30 14287 H 1340.36 3.2431 0.386059 0
M  V30 14288 H 1339.02 3.22332 -1.74636 0
M  V30 14289 H 1338.67 5.02972 -0.0529016 0
M  V30 14290 H 1338.37 5.62299 -1.70567 0
M  V30 14291 H 1339.89 6.04322 -0.873312 0
M  V30 14292 H 1341.3 4.96229 -2.87106 0
M  V30 14293 H 1339.7 4.77178 -3.63897 0
M  V30 14294 H 1340.77 3.36607 -3.49032 0
M  V30 14295 N 1342.11 1.02678 1.19562 0
M  V30 14296 C 1343.06 0.576385 2.20594 0
M  V30 14297 C 1344.05 -0.373747 1.56499 0
M  V30 14298 O 1345.24 -0.195058 1.75922 0
M  V30 14299 C 1342.37 -0.0735507 3.43221 0
M  V30 14300 C 1341.46 0.898896 4.14464 0
M  V30 14301 N 1341.85 2.06048 4.61928 0
M  V30 14302 C 1340.14 0.721889 4.40119 0
M  V30 14303 C 1340.85 2.67364 5.16615 0
M  V30 14304 N 1339.82 1.95344 5.07289 0
M  V30 14305 H 1343.62 1.46179 2.54968 0
M  V30 14306 H 1341.14 0.893484 1.35612 0
M  V30 14307 H 1343.13 -0.413825 4.14841 0
M  V30 14308 H 1341.79 -0.954671 3.10348 0
M  V30 14309 H 1342.81 2.43999 4.5682 0
M  V30 14310 H 1339.48 -0.110317 4.17354 0
M  V30 14311 H 1340.87 3.65726 5.63644 0
M  V30 14312 N 1343.59 -1.35528 0.804364 0
M  V30 14313 C 1344.52 -2.28562 0.170893 0
M  V30 14314 C 1345.54 -1.50178 -0.628526 0
M  V30 14315 O 1346.73 -1.72438 -0.461252 0
M  V30 14316 C 1343.83 -3.29792 -0.780434 0
M  V30 14317 C 1343 -4.37391 -0.0278619 0
M  V30 14318 C 1342.06 -5.18492 -0.897341 0
M  V30 14319 O 1341.08 -5.68128 -0.349098 0
M  V30 14320 N 1342.29 -5.36385 -2.21971 0
M  V30 14321 H 1345.05 -2.83565 0.970108 0
M  V30 14322 H 1342.61 -1.47854 0.659617 0
M  V30 14323 H 1344.6 -3.80939 -1.36628 0
M  V30 14324 H 1343.17 -2.7532 -1.48046 0
M  V30 14325 H 1342.39 -3.87208 0.739178 0
M  V30 14326 H 1343.68 -5.06426 0.490889 0
M  V30 14327 H 1343.08 -4.97699 -2.6891 0
M  V30 14328 H 1341.64 -5.90721 -2.75485 0
M  V30 14329 N 1345.07 -0.557671 -1.47404 0
M  V30 14330 C 1346.02 0.189765 -2.30019 0
M  V30 14331 C 1346.99 0.907923 -1.3909 0
M  V30 14332 O 1348.17 0.903528 -1.68051 0
M  V30 14333 C 1345.31 1.21348 -3.23061 0
M  V30 14334 C 1344.43 0.501343 -4.29081 0
M  V30 14335 C 1343.56 1.51039 -5.09275 0
M  V30 14336 C 1342.6 0.783254 -6.07068 0
M  V30 14337 N 1341.74 1.73916 -6.80219 0
M  V30 14338 H 1346.58 -0.520856 -2.93413 0
M  V30 14339 H 1344.11 -0.268686 -1.44625 0
M  V30 14340 H 1346.07 1.81961 -3.75428 0
M  V30 14341 H 1344.7 1.89213 -2.61531 0
M  V30 14342 H 1343.75 -0.219317 -3.79767 0
M  V30 14343 H 1345.07 -0.0682656 -4.98753 0
M  V30 14344 H 1344.22 2.19004 -5.65793 0
M  V30 14345 H 1342.96 2.11392 -4.39505 0
M  V30 14346 H 1341.96 0.0896883 -5.49727 0
M  V30 14347 H 1343.19 0.185464 -6.78847 0
M  V30 14348 H 1341.14 2.33125 -6.13179 0
M  V30 14349 H 1341.05 1.22171 -7.46063 0
M  V30 14350 H 1342.32 2.40993 -7.41311 0
M  V30 14351 N 1346.55 1.54831 -0.294147 0
M  V30 14352 C 1347.97 1.59489 0.0594489 0
M  V30 14353 C 1348.17 1.31121 1.53002 0
M  V30 14354 O 1347.22 1.08129 2.28176 0
M  V30 14355 C 1348.53 2.98858 -0.332323 0
M  V30 14356 C 1350.08 3.1174 -0.280518 0
M  V30 14357 C 1350.56 4.53407 -0.64701 0
M  V30 14358 N 1352.05 4.59307 -0.599284 0
M  V30 14359 C 1352.78 5.66983 -0.85542 0
M  V30 14360 N 1352.28 6.82726 -1.17717 0
M  V30 14361 N 1354.07 5.56621 -0.78294 0
M  V30 14362 H 1346.22 1.71532 -1.25262 0
M  V30 14363 H 1348.49 0.800801 -0.507368 0
M  V30 14364 H 1348.19 3.24517 -1.35578 0
M  V30 14365 H 1348.07 3.75862 0.317443 0
M  V30 14366 H 1350.45 2.85834 0.733683 0
M  V30 14367 H 1350.53 2.36907 -0.96481 0
M  V30 14368 H 1350.18 4.80042 -1.65899 0
M  V30 14369 H 1350.11 5.26567 0.0592796 0
M  V30 14370 H 1352.6 3.76169 -0.361259 0
M  V30 14371 H 1352.91 7.60761 -1.35877 0
M  V30 14372 H 1351.26 6.84295 -1.21513 0
M  V30 14373 H 1354.45 4.65075 -0.531282 0
M  V30 14374 H 1354.62 6.40456 -0.985929 0
M  V30 14375 N 1348.03 0.0217466 1.57585 0
M  V30 14376 C 1348.96 -0.961069 2.12804 0
M  V30 14377 C 1349.94 -1.3442 1.04237 0
M  V30 14378 O 1351.12 -1.42412 1.32032 0
M  V30 14379 C 1348.25 -2.24586 2.64912 0
M  V30 14380 C 1347.21 -2.0037 3.78201 0
M  V30 14381 C 1346.53 -3.35051 4.16708 0
M  V30 14382 C 1347.83 -1.34879 5.04584 0
M  V30 14383 H 1349.53 -0.501222 2.95175 0
M  V30 14384 H 1347.07 -0.239649 1.41992 0
M  V30 14385 H 1349.03 -2.93715 3.02175 0
M  V30 14386 H 1347.75 -2.72723 1.79693 0
M  V30 14387 H 1346.41 -1.33662 3.41365 0
M  V30 14388 H 1346.06 -3.80932 3.28481 0
M  V30 14389 H 1345.76 -3.19656 4.93045 0
M  V30 14390 H 1347.28 -4.05459 4.56547 0
M  V30 14391 H 1348.7 -1.93997 5.3948 0
M  V30 14392 H 1347.09 -1.29906 5.85871 0
M  V30 14393 H 1348.16 -0.320774 4.83838 0
M  V30 14394 N 1349.51 -1.55583 -0.251311 0
M  V30 14395 C 1350.44 -1.9296 -1.31486 0
M  V30 14396 C 1351.42 -0.794001 -1.50431 0
M  V30 14397 O 1352.6 -1.05393 -1.63113 0
M  V30 14398 C 1349.73 -2.22046 -2.67045 0
M  V30 14399 C 1348.69 -3.37816 -2.62801 0
M  V30 14400 C 1348.01 -3.52433 -4.02113 0
M  V30 14401 C 1349.31 -4.73626 -2.20171 0
M  V30 14402 H 1351.01 -2.82046 -1.00451 0
M  V30 14403 H 1348.55 -1.35702 -0.481775 0
M  V30 14404 H 1350.5 -2.46783 -3.41579 0
M  V30 14405 H 1349.23 -1.29782 -2.99707 0
M  V30 14406 H 1347.89 -3.13081 -1.90724 0
M  V30 14407 H 1347.54 -2.57597 -4.32034 0
M  V30 14408 H 1347.24 -4.30283 -4.00163 0
M  V30 14409 H 1348.76 -3.79486 -4.78354 0
M  V30 14410 H 1350.17 -4.97764 -2.84436 0
M  V30 14411 H 1348.57 -5.54547 -2.29341 0
M  V30 14412 H 1349.64 -4.70985 -1.1533 0
M  V30 14413 N 1350.98 0.516783 -1.48886 0
M  V30 14414 C 1351.95 1.60226 -1.63891 0
M  V30 14415 C 1352.95 1.52448 -0.511479 0
M  V30 14416 O 1354.14 1.55882 -0.777582 0
M  V30 14417 C 1351.27 2.99867 -1.62151 0
M  V30 14418 H 1352.46 1.48256 -2.60692 0
M  V30 14419 H 1350.01 0.739844 -1.37681 0
M  V30 14420 H 1350.75 3.1733 -0.668764 0
M  V30 14421 H 1350.53 3.0692 -2.44013 0
M  V30 14422 H 1352.02 3.7876 -1.7587 0
M  V30 14423 N 1352.46 1.37696 0.766659 0
M  V30 14424 C 1353.69 1.36564 1.56093 0
M  V30 14425 C 1354.11 -0.0455828 1.88045 0
M  V30 14426 O 1353.47 -1.02405 1.49609 0
M  V30 14427 C 1353.52 2.21592 2.84481 0
M  V30 14428 O 1352.62 1.62404 3.79076 0
M  V30 14429 H 1351.96 0.466394 0.472623 0
M  V30 14430 H 1354.49 1.81287 0.948486 0
M  V30 14431 H 1354.5 2.34987 3.33534 0
M  V30 14432 H 1353.18 3.24167 2.60554 0
M  V30 14433 H 1351.75 1.58078 3.37736 0
M  V30 14434 N 1353.94 -0.993397 1.22349 0
M  V30 14435 C 1355.17 -1.76838 1.07406 0
M  V30 14436 C 1355.58 -1.8503 -0.37542 0
M  V30 14437 O 1354.94 -1.32008 -1.26016 0
M  V30 14438 C 1354.99 -3.20177 1.67837 0
M  V30 14439 O 1354.71 -3.12429 3.07115 0
M  V30 14440 C 1356.21 -4.14125 1.58161 0
M  V30 14441 H 1353.43 -0.555379 0.376557 0
M  V30 14442 H 1355.98 -1.24893 1.61932 0
M  V30 14443 H 1354.13 -3.69191 1.17375 0
M  V30 14444 H 1354.55 -4.02568 3.36213 0
M  V30 14445 H 1356.02 -5.12455 2.05169 0
M  V30 14446 H 1356.5 -4.35892 0.538073 0
M  V30 14447 H 1357.1 -3.71008 2.07926 0
M  V30 14448 N 1355.42 -1.03311 -1.19015 0
M  V30 14449 C 1356.38 -0.622114 -2.20596 0
M  V30 14450 C 1357.38 0.316502 -1.57654 0
M  V30 14451 O 1358.57 0.102932 -1.73896 0
M  V30 14452 C 1355.7 0.0890432 -3.40784 0
M  V30 14453 H 1356.9 -1.52095 -2.58471 0
M  V30 14454 H 1354.45 -0.824777 -1.32767 0
M  V30 14455 H 1355.18 1.00203 -3.08431 0
M  V30 14456 H 1354.97 -0.58547 -3.87704 0
M  V30 14457 H 1356.46 0.363366 -4.16016 0
M  V30 14458 N 1356.9 1.35099 -0.81154 0
M  V30 14459 C 1358.12 2.03391 -0.405805 0
M  V30 14460 C 1358.55 1.60745 0.97686 0
M  V30 14461 O 1357.9 0.786518 1.63351 0
M  V30 14462 C 1357.95 3.57075 -0.502954 0
M  V30 14463 O 1357.06 4.09577 0.481681 0
M  V30 14464 H 1356.4 0.642203 -0.168733 0
M  V30 14465 H 1358.93 1.72591 -1.0988 0
M  V30 14466 H 1358.94 4.06277 -0.37456 0
M  V30 14467 H 1357.61 3.87463 -1.51145 0
M  V30 14468 H 1356.19 3.71583 0.313115 0
M  V30 14469 N 1358.37 0.56548 1.47106 0
M  V30 14470 C 1359.6 0.0476763 2.07345 0
M  V30 14471 C 1360.02 -1.24032 1.41413 0
M  V30 14472 O 1359.38 -1.74498 0.491941 0
M  V30 14473 C 1359.43 -0.122618 3.60391 0
M  V30 14474 O 1358.53 -1.18326 3.9506 0
M  V30 14475 H 1357.87 0.0550419 0.661715 0
M  V30 14476 H 1360.4 0.78352 1.89003 0
M  V30 14477 H 1360.41 -0.334227 4.06629 0
M  V30 14478 H 1359.09 0.81807 4.07775 0
M  V30 14479 H 1357.67 -0.951481 3.60557 0
M  V30 14480 N 1359.85 -1.54672 0.302354 0
M  V30 14481 C 1361.08 -2.05041 -0.311891 0
M  V30 14482 C 1361.5 -1.17814 -1.46634 0
M  V30 14483 O 1360.86 -0.182517 -1.80379 0
M  V30 14484 C 1360.91 -3.52831 -0.744489 0
M  V30 14485 O 1360.01 -3.68621 -1.84913 0
M  V30 14486 H 1359.35 -0.661255 -0.0603102 0
M  V30 14487 H 1361.88 -1.99711 0.444593 0
M  V30 14488 H 1361.89 -3.94708 -1.03293 0
M  V30 14489 H 1360.57 -4.1578 0.0999976 0
M  V30 14490 H 1359.15 -3.38649 -1.56113 0
M  V30 14491 N 1361.33 -0.0301034 -1.57571 0
M  V30 14492 C 1362.74 0.508591 -1.79639 0
M  V30 14493 C 1363.09 1.72191 -0.940458 0
M  V30 14494 O 1362.22 2.15872 -0.151138 0
M  V30 14495 C 1362.81 0.929446 -3.25802 0
M  V30 14496 C 1361.37 1.41325 -3.48861 0
M  V30 14497 C 1360.52 0.378433 -2.74706 0
M  V30 14498 H 1363.47 -0.256131 -1.56619 0
M  V30 14499 H 1363.49 1.79374 -3.35567 0
M  V30 14500 H 1363 0.0461738 -3.88073 0
M  V30 14501 H 1361.1 2.31641 -2.91844 0
M  V30 14502 H 1361.22 1.41995 -4.57574 0
M  V30 14503 H 1359.58 0.846744 -2.40213 0
M  V30 14504 H 1360.36 -0.49639 -3.39692 0
M  V30 14505 N 1362.81 1.55714 0.243056 0
M  V30 14506 C 1363.77 1.89832 1.28438 0
M  V30 14507 C 1364.77 0.775083 1.40887 0
M  V30 14508 O 1365.96 1.04304 1.39521 0
M  V30 14509 C 1363.09 2.13016 2.66153 0
M  V30 14510 H 1364.29 2.82947 0.994022 0
M  V30 14511 H 1361.84 1.48665 0.482521 0
M  V30 14512 H 1362.57 1.22381 3.00322 0
M  V30 14513 H 1362.36 2.94824 2.58498 0
M  V30 14514 H 1363.85 2.40581 3.41336 0
M  V30 14515 N 1364.29 -0.50888 1.49158 0
M  V30 14516 C 1365.51 -1.29245 1.62205 0
M  V30 14517 C 1365.94 -1.85845 0.29041 0
M  V30 14518 O 1365.29 -1.6547 -0.740906 0
M  V30 14519 C 1365.34 -2.40415 2.68762 0
M  V30 14520 O 1364.45 -3.44048 2.27387 0
M  V30 14521 H 1363.79 -0.381898 0.543185 0
M  V30 14522 H 1366.32 -0.610076 1.95293 0
M  V30 14523 H 1366.33 -2.86295 2.90688 0
M  V30 14524 H 1365 -1.98584 3.65427 0
M  V30 14525 H 1363.58 -3.04141 2.1576 0
M  V30 14526 N 1365.76 -1.381 -0.759346 0
M  V30 14527 C 1367.01 -1.3419 -1.52055 0
M  V30 14528 C 1367.34 0.0697657 -1.94075 0
M  V30 14529 O 1366.62 1.02975 -1.65004 0
M  V30 14530 C 1366.9 -2.29236 -2.7771 0
M  V30 14531 C 1366.75 -3.79237 -2.41866 0
M  V30 14532 C 1368.07 -2.22511 -3.79706 0
M  V30 14533 H 1365.19 -0.488768 -0.551611 0
M  V30 14534 H 1367.83 -1.68902 -0.870174 0
M  V30 14535 H 1365.98 -1.99764 -3.33206 0
M  V30 14536 H 1367.66 -4.19358 -1.92189 0
M  V30 14537 H 1365.9 -3.97199 -1.74399 0
M  V30 14538 H 1366.57 -4.41193 -3.31742 0
M  V30 14539 H 1369.05 -2.48516 -3.33735 0
M  V30 14540 H 1367.92 -2.91134 -4.6533 0
M  V30 14541 H 1368.18 -1.22206 -4.24874 0
M  V30 14542 N 1367.24 0.986894 -1.22875 0
M  V30 14543 C 1368.18 2.07604 -0.947406 0
M  V30 14544 C 1369.15 1.62214 0.111904 0
M  V30 14545 O 1370.34 1.88488 -0.0209682 0
M  V30 14546 C 1367.46 3.3601 -0.42605 0
M  V30 14547 C 1366.51 4.00331 -1.47097 0
M  V30 14548 S 1367.34 4.40412 -3.04627 0
M  V30 14549 C 1368.5 5.7198 -2.54145 0
M  V30 14550 H 1368.73 2.31149 -1.86969 0
M  V30 14551 H 1366.27 1.1222 -1.06047 0
M  V30 14552 H 1368.22 4.10288 -0.131846 0
M  V30 14553 H 1366.88 3.10484 0.475211 0
M  V30 14554 H 1366.08 4.92809 -1.05618 0
M  V30 14555 H 1365.68 3.32403 -1.71418 0
M  V30 14556 H 1367.97 6.48602 -1.9576 0
M  V30 14557 H 1368.91 6.18293 -3.45137 0
M  V30 14558 H 1369.32 5.29669 -1.95221 0
M  V30 14559 N 1368.72 1.0394 1.18466 0
M  V30 14560 C 1369.97 0.743141 1.88694 0
M  V30 14561 C 1370.3 -0.727211 1.8007 0
M  V30 14562 O 1369.57 -1.53058 1.20014 0
M  V30 14563 C 1369.86 1.20829 3.39223 0
M  V30 14564 C 1369.71 2.74064 3.56664 0
M  V30 14565 C 1371.03 0.797348 4.32817 0
M  V30 14566 H 1368.15 0.271437 0.685194 0
M  V30 14567 H 1370.79 1.29119 1.39386 0
M  V30 14568 H 1368.94 0.742033 3.81348 0
M  V30 14569 H 1370.61 3.28717 3.2364 0
M  V30 14570 H 1368.86 3.1395 2.99362 0
M  V30 14571 H 1369.53 3.01668 4.62277 0
M  V30 14572 H 1372 1.19854 3.98465 0
M  V30 14573 H 1370.88 1.15057 5.36706 0
M  V30 14574 H 1371.14 -0.299601 4.41084 0
M  V30 14575 N 1370.2 -1.34667 0.818693 0
M  V30 14576 C 1371.16 -2.27908 0.243037 0
M  V30 14577 C 1372.16 -1.50106 -0.576622 0
M  V30 14578 O 1373.35 -1.69701 -0.393342 0
M  V30 14579 C 1370.48 -3.34455 -0.659759 0
M  V30 14580 H 1371.68 -2.80332 1.06555 0
M  V30 14581 H 1369.23 -1.44727 0.590237 0
M  V30 14582 H 1369.96 -2.87238 -1.50549 0
M  V30 14583 H 1369.75 -3.92031 -0.073567 0
M  V30 14584 H 1371.24 -4.04016 -1.05646 0
M  V30 14585 N 1371.68 -0.573274 -1.46804 0
M  V30 14586 C 1372.62 0.165358 -2.30207 0
M  V30 14587 C 1373.59 0.89312 -1.40045 0
M  V30 14588 O 1374.78 0.885653 -1.68999 0
M  V30 14589 C 1371.92 1.17915 -3.2433 0
M  V30 14590 C 1371.03 0.455805 -4.29589 0
M  V30 14591 C 1370.17 1.45629 -5.10848 0
M  V30 14592 C 1369.21 0.718822 -6.07865 0
M  V30 14593 N 1368.34 1.66691 -6.82025 0
M  V30 14594 H 1373.18 -0.551947 -2.92844 0
M  V30 14595 H 1370.72 -0.28401 -1.44332 0
M  V30 14596 H 1372.68 1.77969 -3.77337 0
M  V30 14597 H 1371.31 1.86429 -2.63523 0
M  V30 14598 H 1370.36 -0.259584 -3.79513 0
M  V30 14599 H 1371.67 -0.121161 -4.98653 0
M  V30 14600 H 1370.83 2.1299 -5.68084 0
M  V30 14601 H 1369.56 2.06718 -4.41723 0
M  V30 14602 H 1368.57 0.0313773 -5.49791 0
M  V30 14603 H 1369.79 0.113452 -6.79005 0
M  V30 14604 H 1367.74 2.26608 -6.15617 0
M  V30 14605 H 1367.66 1.14251 -7.47317 0
M  V30 14606 H 1368.93 2.33117 -7.43826 0
M  V30 14607 N 1373.15 1.5451 -0.310553 0
M  V30 14608 C 1374.06 2.27557 0.570518 0
M  V30 14609 C 1375.08 1.31426 1.14032 0
M  V30 14610 O 1376.26 1.64423 1.16306 0
M  V30 14611 C 1373.32 3.00933 1.72163 0
M  V30 14612 C 1372.38 4.12623 1.18495 0
M  V30 14613 C 1371.62 4.8249 2.28121 0
M  V30 14614 O 1371.84 4.5178 3.48211 0
M  V30 14615 O 1370.77 5.69686 1.94273 0
M  V30 14616 H 1374.6 3.03692 -0.0223195 0
M  V30 14617 H 1372.18 1.49203 -0.0766821 0
M  V30 14618 H 1374.07 3.46925 2.39208 0
M  V30 14619 H 1372.74 2.27685 2.3009 0
M  V30 14620 H 1371.65 3.71008 0.479956 0
M  V30 14621 H 1372.98 4.87876 0.650994 0
M  V30 14622 N 1374.63 0.0384594 1.57553 0
M  V30 14623 C 1375.91 -0.677308 1.83499 0
M  V30 14624 C 1376.29 -1.89789 0.924294 0
M  V30 14625 O 1375.64 -2.28493 -0.0178185 0
M  V30 14626 C 1375.85 -1.04667 3.32935 0
M  V30 14627 C 1377.2 -1.43436 3.99639 0
M  V30 14628 O 1378.22 -1.13938 3.37486 0
M  V30 14629 O 1377.08 -1.98435 5.09201 0
M  V30 14630 H 1374.17 -0.333131 0.756936 0
M  V30 14631 H 1376.72 0.066854 1.69568 0
M  V30 14632 H 1375.49 -0.178349 3.90893 0
M  V30 14633 H 1375.11 -1.8487 3.52007 0
M  V30 14634 N 1376.11 -1.55841 -0.234795 0
M  V30 14635 C 1377.53 -1.48536 -0.583885 0
M  V30 14636 C 1377.73 -0.731018 -1.87772 0
M  V30 14637 O 1376.78 -0.265287 -2.51103 0
M  V30 14638 C 1378.1 -2.93017 -0.675389 0
M  V30 14639 C 1379.64 -3.03459 -0.766906 0
M  V30 14640 C 1380.12 -4.49272 -0.889868 0
M  V30 14641 N 1381.61 -4.5326 -0.95443 0
M  V30 14642 C 1382.35 -5.63346 -1.06905 0
M  V30 14643 N 1381.84 -6.83215 -1.14845 0
M  V30 14644 N 1383.63 -5.51169 -1.10315 0
M  V30 14645 H 1375.79 -2.0332 0.614405 0
M  V30 14646 H 1378.05 -0.923581 0.213779 0
M  V30 14647 H 1377.75 -3.51099 0.205493 0
M  V30 14648 H 1377.63 -3.4418 -1.54337 0
M  V30 14649 H 1380.02 -2.4545 -1.63823 0
M  V30 14650 H 1380.1 -2.55487 0.126472 0
M  V30 14651 H 1379.74 -5.07895 -0.0230489 0
M  V30 14652 H 1379.67 -4.94937 -1.79847 0
M  V30 14653 H 1382.16 -3.6693 -0.903923 0
M  V30 14654 H 1382.47 -7.62863 -1.23532 0
M  V30 14655 H 1380.82 -6.85952 -1.11781 0
M  V30 14656 H 1384.01 -4.56453 -1.03769 0
M  V30 14657 H 1384.18 -6.36998 -1.18903 0
M  V30 14658 N 1377.59 0.500963 -1.49426 0
M  V30 14659 C 1378.54 1.62335 -1.66584 0
M  V30 14660 C 1379.53 1.60837 -0.531773 0
M  V30 14661 O 1380.74 1.65345 -0.711408 0
M  V30 14662 H 1377.11 0.538131 -0.52528 0
M  V30 14663 H 1379.08 1.45016 -2.60793 0
M  V30 14664 C 1377.83 3.00469 -1.74968 0
M  V30 14665 H 1377.16 3.02328 -2.61607 0
M  V30 14666 H 1378.6 3.78539 -1.91008 0
M  V30 14667 C 1377.05 3.33251 -0.49451 0
M  V30 14668 O 1377.58 3.99901 0.379783 0
M  V30 14669 N 1375.79 2.88393 -0.357445 0
M  V30 14670 H 1375.34 2.3433 -1.06991 0
M  V30 14671 H 1375.3 3.10694 0.481287 0
M  V30 14672 O 1379.11 1.48006 0.64625 0
M  V30 14673 H 1379.8 1.43604 1.29991 0
M  V30 END ATOM
M  V30 BEGIN BOND
M  V30 END BOND
M  V30 END CTAB
M  END
$$$$
