drugbank_target|O00341 Excitatory amino acid transporter 5 (DB00142)
 OpenBabel12092120083D

  0  0  0     0  0            999 V3000
M  V30 BEGIN CTAB
M  V30 COUNTS 8676 8758 0 0 0
M  V30 BEGIN ATOM
M  V30 1 H -0.908 1.98254 -0.117106 0
M  V30 2 N 0 1.576 0 0
M  V30 3 C 0.933 2.03868 1.02534 0
M  V30 4 C 1.911 0.928543 1.3348 0
M  V30 5 O 3.095 1.19667 1.45644 0
M  V30 6 C 0.222 2.43627 2.35294 0
M  V30 7 C -0.732 3.65373 2.2001 0
M  V30 8 S 0.101 5.13292 1.52614 0
M  V30 9 C 1.257 5.56322 2.86805 0
M  V30 10 H 1.49 2.90518 0.631377 0
M  V30 11 H -0.977 1.52953 0.210867 0
M  V30 12 H 0.981 2.67203 3.11629 0
M  V30 13 H -0.358 1.57376 2.7183 0
M  V30 14 H -1.165 3.90944 3.18086 0
M  V30 15 H -1.563 3.418 1.51819 0
M  V30 16 H 0.729 5.58782 3.83104 0
M  V30 17 H 1.672 6.56266 2.65933 0
M  V30 18 H 2.08 4.83886 2.90714 0
M  V30 19 N 1.4781 -0.272755 1.55222 0
M  V30 20 C 2.7241 -1.00581 1.761 0
M  V30 21 C 3.0571 -1.85932 0.560625 0
M  V30 22 O 2.3321 -1.89416 -0.441801 0
M  V30 23 C 2.6151 -1.88816 3.06628 0
M  V30 24 C 2.4681 -1.06457 4.37021 0
M  V30 25 C 3.7871 -2.8752 3.33197 0
M  V30 26 H 0.9061 -0.364244 0.640699 0
M  V30 27 H 3.5481 -0.278189 1.87952 0
M  V30 28 H 1.6981 -2.50856 2.96654 0
M  V30 29 H 3.3701 -0.464863 4.58952 0
M  V30 30 H 1.6131 -0.368043 4.32236 0
M  V30 31 H 2.2841 -1.71514 5.24678 0
M  V30 32 H 4.7601 -2.35615 3.42965 0
M  V30 33 H 3.6361 -3.46399 4.25792 0
M  V30 34 H 3.8971 -3.62657 2.52849 0
M  V30 35 N 2.9562 -1.48159 -0.537278 0
M  V30 36 C 4.3672 -1.49429 -1.11928 0
M  V30 37 C 4.7182 -0.26 -1.9447 0
M  V30 38 O 3.8432 0.633489 -2.0692 0
M  V30 39 C 4.4382 -2.70758 -2.03656 0
M  V30 40 C 2.9972 -2.74923 -2.57088 0
M  V30 41 C 2.1442 -2.42835 -1.3389 0
M  V30 42 H 5.0952 -1.55381 -0.322886 0
M  V30 43 H 5.1162 -2.48861 -2.87834 0
M  V30 44 H 4.6282 -3.60575 -1.43553 0
M  V30 45 H 2.7292 -1.89296 -3.20933 0
M  V30 46 H 2.8422 -3.76157 -2.9672 0
M  V30 47 H 1.2062 -1.93836 -1.65226 0
M  V30 48 H 1.9892 -3.34884 -0.755504 0
M  V30 49 N 4.4343 0.785586 -1.36625 0
M  V30 50 C 5.3843 1.88822 -1.27789 0
M  V30 51 C 6.3683 1.60014 -0.168579 0
M  V30 52 O 7.5603 1.72381 -0.401737 0
M  V30 53 C 4.6893 3.26092 -1.07327 0
M  V30 54 C 3.7753 3.60897 -2.22743 0
M  V30 55 N 4.1663 3.66982 -3.48077 0
M  V30 56 C 2.4643 3.90981 -2.14593 0
M  V30 57 C 3.1653 3.98137 -4.24101 0
M  V30 58 N 2.1413 4.13319 -3.53084 0
M  V30 59 H 5.9433 1.91759 -2.22723 0
M  V30 60 H 3.4573 0.981311 -1.29399 0
M  V30 61 H 5.4543 4.04954 -0.990842 0
M  V30 62 H 4.1143 3.24428 -0.132977 0
M  V30 63 H 5.1253 3.49531 -3.82163 0
M  V30 64 H 1.8023 3.9722 -1.2854 0
M  V30 65 H 3.1923 4.09737 -5.32509 0
M  V30 66 N 5.9124 1.20967 1.01018 0
M  V30 67 C 6.8754 0.965918 2.07853 0
M  V30 68 C 7.8754 -0.0610545 1.60684 0
M  V30 69 O 9.0654 0.175681 1.73312 0
M  V30 70 C 6.1974 0.455513 3.37843 0
M  V30 71 H 7.3904 1.91365 2.3091 0
M  V30 72 H 4.9434 1.02594 1.17916 0
M  V30 73 H 5.6784 -0.497381 3.20463 0
M  V30 74 H 5.4634 1.19622 3.73407 0
M  V30 75 H 6.9534 0.304667 4.16487 0
M  V30 76 N 7.3905 -1.2043 1.01659 0
M  V30 77 C 8.6395 -1.89118 0.701237 0
M  V30 78 C 8.9525 -1.79705 -0.772358 0
M  V30 79 O 10.1585 -2.43528 -1.20026 0
M  V30 80 C 8.6145 -3.39168 1.20388 0
M  V30 81 C 8.2225 -3.57166 2.70438 0
M  V30 82 C 9.9665 -4.1341 0.963953 0
M  V30 83 C 7.8735 -5.01042 3.14183 0
M  V30 84 H 6.8035 -0.708267 0.2586 0
M  V30 85 H 9.4545 -1.36239 1.22927 0
M  V30 86 H 7.8365 -3.91369 0.603824 0
M  V30 87 H 9.0105 -3.15351 3.35992 0
M  V30 88 H 7.3255 -2.96294 2.92572 0
M  V30 89 H 9.9225 -5.19491 1.26621 0
M  V30 90 H 10.2655 -4.16181 -0.099578 0
M  V30 91 H 10.7985 -3.67309 1.52738 0
M  V30 92 H 7.5375 -5.03426 4.19812 0
M  V30 93 H 7.0575 -5.43668 2.53348 0
M  V30 94 H 8.7365 -5.69623 3.0682 0
M  V30 95 N 8.8686 -0.792821 -1.36206 0
M  V30 96 C 9.7986 -0.207853 -2.32573 0
M  V30 97 C 10.7796 0.659055 -1.56813 0
M  V30 98 O 11.9646 0.592176 -1.84951 0
M  V30 99 C 9.0946 0.655449 -3.41059 0
M  V30 100 C 8.0486 -0.111842 -4.27854 0
M  V30 101 C 7.3746 0.872274 -5.27537 0
M  V30 102 C 8.6746 -1.30299 -5.05786 0
M  V30 103 H 10.3686 -1.01294 -2.81744 0
M  V30 104 H 7.9146 -0.48854 -1.3546 0
M  V30 105 H 9.8676 1.07464 -4.07467 0
M  V30 106 H 8.5916 1.49328 -2.90463 0
M  V30 107 H 7.2506 -0.512053 -3.63006 0
M  V30 108 H 6.8986 1.70523 -4.73214 0
M  V30 109 H 6.5986 0.363291 -5.86476 0
M  V30 110 H 8.1226 1.28996 -5.96818 0
M  V30 111 H 9.5366 -0.959379 -5.65216 0
M  V30 112 H 7.9336 -1.7455 -5.74154 0
M  V30 113 H 9.0036 -2.09663 -4.37229 0
M  V30 114 N 10.3467 1.47872 -0.545128 0
M  V30 115 C 11.3097 2.28337 0.198717 0
M  V30 116 C 12.3097 1.36255 0.853888 0
M  V30 117 O 13.4997 1.59003 0.711606 0
M  V30 118 C 10.6317 3.15585 1.28915 0
M  V30 119 H 11.8247 2.95567 -0.507941 0
M  V30 120 H 9.3777 1.53362 -0.301616 0
M  V30 121 H 10.1127 2.53019 2.02859 0
M  V30 122 H 9.8977 3.83337 0.824309 0
M  V30 123 H 11.3877 3.76243 1.81194 0
M  V30 124 N 11.8248 0.280983 1.55075 0
M  V30 125 C 13.2408 -0.0729964 1.59433 0
M  V30 126 C 13.4408 -1.5411 1.29817 0
M  V30 127 O 12.4968 -2.29086 1.06187 0
M  V30 128 C 13.8098 0.306921 2.9913 0
M  V30 129 C 15.3578 0.254023 3.11968 0
M  V30 130 C 15.8328 0.608467 4.5394 0
M  V30 131 N 17.3238 0.560241 4.59799 0
M  V30 132 C 18.0588 0.80722 5.6769 0
M  V30 133 N 17.5548 1.11912 6.83701 0
M  V30 134 N 19.3478 0.735623 5.57266 0
M  V30 135 H 11.4988 1.238 1.7259 0
M  V30 136 H 13.7618 0.500547 0.805082 0
M  V30 137 H 13.4678 1.32816 3.25657 0
M  V30 138 H 13.3418 -0.349363 3.75579 0
M  V30 139 H 15.7288 -0.75794 2.852 0
M  V30 140 H 15.8098 0.944649 2.37718 0
M  V30 141 H 15.4538 1.61814 4.81434 0
M  V30 142 H 15.3838 -0.104013 5.26497 0
M  V30 143 H 17.8748 0.329288 3.76463 0
M  V30 144 H 18.1878 1.29409 7.61888 0
M  V30 145 H 16.5328 1.15695 6.85303 0
M  V30 146 H 19.7238 0.491752 4.6551 0
M  V30 147 H 19.8968 0.931482 6.4127 0
M  V30 148 N 13.3029 -1.57598 0.00835791 0
M  V30 149 C 14.5509 -1.90551 -0.6734 0
M  V30 150 C 14.8719 -0.883301 -1.73847 0
M  V30 151 O 14.1419 0.0781442 -1.95744 0
M  V30 152 H 12.7219 -0.703312 -0.251717 0
M  V30 153 H 15.3839 -1.94833 0.0512592 0
M  V30 154 H 14.4799 -2.9056 -1.13935 0
M  V30 155 N 14.781 0.264519 -1.55364 0
M  V30 156 C 16.197 0.61215 -1.47394 0
M  V30 157 C 16.397 1.89134 -0.695018 0
M  V30 158 O 15.453 2.51563 -0.217275 0
M  V30 159 C 16.766 0.731235 -2.91674 0
M  V30 160 C 18.314 0.82473 -3.01939 0
M  V30 161 C 18.789 0.975522 -4.4749 0
M  V30 162 N 20.28 1.04083 -4.51354 0
M  V30 163 C 21.015 1.17646 -5.61201 0
M  V30 164 N 20.511 1.27874 -6.80896 0
M  V30 165 N 22.304 1.20823 -5.48961 0
M  V30 166 H 14.455 -0.575456 -2.04456 0
M  V30 167 H 16.718 -0.196099 -0.927496 0
M  V30 168 H 16.424 -0.138392 -3.51428 0
M  V30 169 H 16.298 1.60883 -3.41169 0
M  V30 170 H 18.685 1.68482 -2.42276 0
M  V30 171 H 18.766 -0.0776479 -2.55682 0
M  V30 172 H 18.41 0.120058 -5.07758 0
M  V30 173 H 18.34 1.89268 -4.91412 0
M  V30 174 H 20.831 0.973846 -3.65136 0
M  V30 175 H 21.144 1.38081 -7.60364 0
M  V30 176 H 19.489 1.24863 -6.83692 0
M  V30 177 H 22.68 1.12469 -4.54388 0
M  V30 178 H 22.853 1.31049 -6.3461 0
M  V30 179 N 16.2591 1.48442 0.529413 0
M  V30 180 C 17.5361 1.46978 1.29062 0
M  V30 181 C 17.9161 0.181769 2.10316 0
M  V30 182 O 17.2641 -0.836481 2.12639 0
M  V30 183 C 17.4741 2.7321 2.17157 0
M  V30 184 C 18.8221 3.21562 2.77278 0
M  V30 185 O 19.8461 2.74131 2.27444 0
M  V30 186 O 18.7051 4.04094 3.67927 0
M  V30 187 H 15.7991 0.587003 0.582543 0
M  V30 188 H 18.3451 1.60676 0.546021 0
M  V30 189 H 17.1171 3.58465 1.56903 0
M  V30 190 H 16.7401 2.62235 2.98862 0
M  V30 191 N 17.7372 -0.778329 1.37039 0
M  V30 192 C 18.9832 -1.53892 1.32079 0
M  V30 193 C 19.3162 -1.9396 -0.0965386 0
M  V30 194 O 18.5912 -1.63568 -1.05242 0
M  V30 195 C 18.8742 -2.80847 2.25382 0
M  V30 196 C 18.7272 -2.47076 3.75864 0
M  V30 197 C 20.0462 -3.82741 2.1725 0
M  V30 198 H 17.1652 -0.558303 0.48111 0
M  V30 199 H 19.8072 -0.893397 1.67685 0
M  V30 200 H 17.9572 -3.35931 1.95148 0
M  V30 201 H 19.6292 -1.97957 4.16666 0
M  V30 202 H 17.8722 -1.79863 3.94755 0
M  V30 203 H 18.5432 -3.37798 4.36574 0
M  V30 204 H 21.0192 -3.37133 2.43887 0
M  V30 205 H 19.8952 -4.69303 2.84686 0
M  V30 206 H 20.1562 -4.2652 1.16331 0
M  V30 207 N 19.2153 -1.21501 -1.00376 0
M  V30 208 C 20.4553 -1.04444 -1.75701 0
M  V30 209 C 20.8193 0.414644 -1.87469 0
M  V30 210 O 22.0203 0.705763 -2.59369 0
M  V30 211 C 20.2913 -1.72389 -3.13077 0
M  V30 212 S 21.8503 -1.70604 -4.04277 0
M  V30 213 H 18.6683 -0.374249 -0.604532 0
M  V30 214 H 21.2703 -1.54267 -1.20091 0
M  V30 215 H 19.9743 -2.77734 -3.02146 0
M  V30 216 H 19.5053 -1.22751 -3.73759 0
M  V30 217 H 21.5203 -0.748012 -4.9053 0
M  V30 218 N 20.6934 1.19889 -1.02296 0
M  V30 219 C 22.1094 1.41462 -0.738954 0
M  V30 220 C 22.3094 1.89721 0.678846 0
M  V30 221 O 21.3654 2.07016 1.4457 0
M  V30 222 C 22.6784 2.43083 -1.77005 0
M  V30 223 C 24.2264 2.5684 -1.78892 0
M  V30 224 C 24.7014 3.61709 -2.80945 0
M  V30 225 N 26.1924 3.69199 -2.79725 0
M  V30 226 C 26.9274 4.50019 -3.55345 0
M  V30 227 N 26.4234 5.34592 -4.40662 0
M  V30 228 N 28.2164 4.44612 -3.43914 0
M  V30 229 H 20.3674 0.868827 -1.93817 0
M  V30 230 H 22.6304 0.44399 -0.837602 0
M  V30 231 H 22.3364 2.14636 -2.78612 0
M  V30 232 H 22.2104 3.4217 -1.58744 0
M  V30 233 H 24.5974 2.84614 -0.779674 0
M  V30 234 H 24.6784 1.57927 -2.01228 0
M  V30 235 H 24.3224 3.34678 -3.82038 0
M  V30 236 H 24.2524 4.60259 -2.5587 0
M  V30 237 H 26.7434 3.08794 -2.17842 0
M  V30 238 H 27.0564 5.93363 -4.95116 0
M  V30 239 H 25.4014 5.34073 -4.44737 0
M  V30 240 H 28.5924 3.7758 -2.76679 0
M  V30 241 H 28.7654 5.0736 -4.031 0
M  V30 242 N 22.1715 0.800033 1.35784 0
M  V30 243 C 23.5875 0.482977 1.52117 0
M  V30 244 C 23.7875 -0.996948 1.75109 0
M  V30 245 O 22.8435 -1.78216 1.78872 0
M  V30 246 C 24.1565 1.32264 2.70049 0
M  V30 247 C 25.7045 1.31742 2.83924 0
M  V30 248 C 26.1795 2.14106 4.04874 0
M  V30 249 N 27.6705 2.11607 4.12039 0
M  V30 250 C 28.4055 2.72099 5.04727 0
M  V30 251 N 27.9015 3.41492 6.02789 0
M  V30 252 N 29.6945 2.61776 4.97423 0
M  V30 253 H 21.8455 1.75856 1.19115 0
M  V30 254 H 24.1085 0.748122 0.582252 0
M  V30 255 H 23.8145 2.37261 2.59616 0
M  V30 256 H 23.6885 0.971303 3.6448 0
M  V30 257 H 26.0755 0.275333 2.93813 0
M  V30 258 H 26.1565 1.70859 1.9037 0
M  V30 259 H 25.8005 3.18351 3.95746 0
M  V30 260 H 25.7305 1.72353 4.97596 0
M  V30 261 H 28.2215 1.61112 3.41835 0
M  V30 262 H 28.5345 3.84953 6.70098 0
M  V30 263 H 26.8795 3.45596 6.02983 0
M  V30 264 H 30.0705 2.07157 4.19766 0
M  V30 265 H 30.2435 3.0921 5.69468 0
M  V30 266 N 23.6496 -1.47581 0.552962 0
M  V30 267 C 24.5976 -2.31648 -0.21023 0
M  V30 268 C 25.5916 -1.42663 -0.913432 0
M  V30 269 O 26.7976 -1.5945 -0.835201 0
M  V30 270 H 23.1726 -0.746989 -0.0866676 0
M  V30 271 H 25.1436 -2.93869 0.518051 0
M  V30 272 C 23.8926 -3.25226 -1.22976 0
M  V30 273 H 23.2156 -3.93658 -0.698077 0
M  V30 274 H 24.6556 -3.86889 -1.73473 0
M  V30 275 C 23.1146 -2.48448 -2.27542 0
M  V30 276 O 23.6446 -2.22585 -3.34393 0
M  V30 277 N 21.8506 -2.09532 -2.01357 0
M  V30 278 H 21.3976 -2.30765 -1.14478 0
M  V30 279 H 21.3556 -1.58476 -2.71538 0
M  V30 280 N 25.1277 -0.289203 -1.54924 0
M  V30 281 C 26.3757 0.322879 -1.99504 0
M  V30 282 C 26.6967 1.55313 -1.1791 0
M  V30 283 O 25.9667 1.94001 -0.272097 0
M  V30 284 H 24.5467 0.122291 -0.736922 0
M  V30 285 H 27.2087 -0.397802 -1.90797 0
M  V30 286 H 26.3047 0.603061 -3.06218 0
M  V30 287 N 26.6058 1.57591 -0.0167156 0
M  V30 288 C 27.5358 2.12496 0.967858 0
M  V30 289 C 28.5168 1.03807 1.34752 0
M  V30 290 O 29.7018 1.31577 1.42833 0
M  V30 291 C 26.8318 2.64194 2.25431 0
M  V30 292 C 25.7858 3.77559 2.01576 0
M  V30 293 C 25.1118 4.15636 3.36379 0
M  V30 294 C 26.4118 5.04151 1.36489 0
M  V30 295 H 28.1058 2.95013 0.510643 0
M  V30 296 H 25.6518 1.41915 0.244181 0
M  V30 297 H 27.6048 3.01236 2.94678 0
M  V30 298 H 26.3288 1.78821 2.73296 0
M  V30 299 H 24.9878 3.40937 1.34751 0
M  V30 300 H 24.6358 3.27263 3.81979 0
M  V30 301 H 24.3358 4.92022 3.21229 0
M  V30 302 H 25.8598 4.5525 4.06915 0
M  V30 303 H 27.2738 5.38857 1.95718 0
M  V30 304 H 25.6708 5.85453 1.31776 0
M  V30 305 H 26.7408 4.83733 0.336219 0
M  V30 306 N 28.0839 -0.256276 1.55502 0
M  V30 307 C 29.0139 -1.32102 1.92539 0
M  V30 308 C 29.9949 -1.50684 0.789194 0
M  V30 309 O 31.1799 -1.63449 1.04872 0
M  V30 310 C 28.3099 -2.67752 2.21192 0
M  V30 311 C 27.2639 -2.63878 3.36975 0
M  V30 312 C 26.5899 -4.03236 3.51147 0
M  V30 313 C 27.8899 -2.21682 4.72921 0
M  V30 314 H 29.5839 -1.01351 2.81724 0
M  V30 315 H 27.1299 -0.486105 1.35547 0
M  V30 316 H 29.0829 -3.42365 2.45691 0
M  V30 317 H 27.8069 -3.0012 1.28824 0
M  V30 318 H 26.4659 -1.91722 3.12471 0
M  V30 319 H 26.1139 -4.32854 2.56216 0
M  V30 320 H 25.8139 -4.01535 4.29003 0
M  V30 321 H 27.3379 -4.79563 3.77957 0
M  V30 322 H 28.7519 -2.86023 4.96854 0
M  V30 323 H 27.1489 -2.3111 5.53812 0
M  V30 324 H 28.2189 -1.16833 4.70615 0
M  V30 325 N 29.562 -1.4872 -0.521534 0
M  V30 326 C 30.811 -1.56419 -1.27341 0
M  V30 327 C 31.124 -0.246805 -1.94037 0
M  V30 328 O 32.33 -0.202122 -2.70747 0
M  V30 329 C 30.786 -2.75896 -2.31105 0
M  V30 330 C 30.394 -4.14311 -1.70441 0
M  V30 331 C 32.138 -2.92913 -3.07249 0
M  V30 332 C 30.045 -5.25038 -2.72194 0
M  V30 333 H 28.975 -0.582344 -0.478949 0
M  V30 334 H 31.626 -1.75071 -0.549779 0
M  V30 335 H 30.008 -2.50697 -3.06541 0
M  V30 336 H 31.182 -4.49564 -1.01136 0
M  V30 337 H 29.497 -4.02482 -1.06759 0
M  V30 338 H 32.094 -3.72805 -3.83302 0
M  V30 339 H 32.437 -2.02689 -3.63625 0
M  V30 340 H 32.97 -3.18054 -2.38928 0
M  V30 341 H 29.709 -6.17255 -2.20627 0
M  V30 342 H 29.229 -4.94263 -3.39801 0
M  V30 343 H 30.908 -5.53508 -3.35019 0
M  V30 344 N 31.0401 0.771051 -1.3745 0
M  V30 345 C 31.9701 1.89827 -1.3597 0
M  V30 346 C 32.9511 1.68562 -0.228216 0
M  V30 347 O 34.1361 1.8941 -0.428675 0
M  V30 348 C 31.2661 3.2712 -1.16662 0
M  V30 349 C 30.2201 3.6295 -2.2683 0
M  V30 350 C 29.5461 4.98791 -1.92644 0
M  V30 351 C 30.8461 3.69627 -3.69017 0
M  V30 352 H 32.5401 1.91323 -2.30295 0
M  V30 353 H 30.0861 0.919082 -1.10855 0
M  V30 354 H 32.0391 4.05615 -1.14256 0
M  V30 355 H 30.7631 3.26059 -0.187926 0
M  V30 356 H 29.4221 2.86763 -2.28392 0
M  V30 357 H 29.0701 4.94271 -0.933021 0
M  V30 358 H 28.7701 5.23733 -2.66416 0
M  V30 359 H 30.2941 5.79685 -1.91826 0
M  V30 360 H 31.7081 4.38273 -3.69581 0
M  V30 361 H 30.1051 4.06067 -4.41848 0
M  V30 362 H 31.1751 2.70273 -4.02592 0
M  V30 363 N 32.5182 1.22032 0.997298 0
M  V30 364 C 33.7432 1.06921 1.77715 0
M  V30 365 C 34.1682 -0.376226 1.84299 0
M  V30 366 O 33.5262 -1.27165 1.29223 0
M  V30 367 C 33.5742 1.67996 3.19076 0
M  V30 368 O 32.6782 0.930653 4.01762 0
M  V30 369 H 32.0192 0.375814 0.547412 0
M  V30 370 H 34.5492 1.61737 1.25309 0
M  V30 371 H 34.5592 1.72538 3.69723 0
M  V30 372 H 33.2342 2.73182 3.13599 0
M  V30 373 H 31.8112 0.960917 3.60307 0
M  V30 374 N 33.9963 -1.19345 1.0293 0
M  V30 375 C 35.2423 -1.89318 0.727083 0
M  V30 376 C 35.5753 -1.79446 -0.742483 0
M  V30 377 O 34.8503 -1.1871 -1.54072 0
M  V30 378 C 35.1333 -3.40238 1.17942 0
M  V30 379 C 34.9863 -3.58979 2.71024 0
M  V30 380 C 36.3053 -4.33479 0.760548 0
M  V30 381 H 33.4243 -0.687475 0.265606 0
M  V30 382 H 36.0663 -1.40477 1.2793 0
M  V30 383 H 34.2163 -3.81964 0.709608 0
M  V30 384 H 35.8883 -3.26421 3.25955 0
M  V30 385 H 34.1313 -3.02018 3.11396 0
M  V30 386 H 34.8023 -4.64823 2.9773 0
M  V30 387 H 37.2783 -3.99469 1.16464 0
M  V30 388 H 36.1543 -5.37664 1.10493 0
M  V30 389 H 36.4153 -4.40813 -0.337063 0
M  V30 390 N 35.4744 -0.807222 -1.35358 0
M  V30 391 C 36.4044 -0.232509 -2.3234 0
M  V30 392 C 37.3854 0.642386 -1.57504 0
M  V30 393 O 38.5704 0.572526 -1.85569 0
M  V30 394 C 35.7004 0.619238 -3.41735 0
M  V30 395 C 34.6544 -0.157215 -4.27711 0
M  V30 396 C 33.9804 0.816273 -5.28433 0
M  V30 397 C 35.2804 -1.35656 -5.04376 0
M  V30 398 H 36.9744 -1.04276 -2.80654 0
M  V30 399 H 34.5204 -0.50288 -1.34934 0
M  V30 400 H 36.4734 1.03137 -4.08584 0
M  V30 401 H 35.1974 1.46239 -2.92031 0
M  V30 402 H 33.8564 -0.550525 -3.62443 0
M  V30 403 H 33.5044 1.65494 -4.74996 0
M  V30 404 H 33.2044 0.301067 -5.86828 0
M  V30 405 H 34.7284 1.22659 -5.98153 0
M  V30 406 H 36.1424 -1.01927 -5.64166 0
M  V30 407 H 34.5394 -1.8063 -5.7227 0
M  V30 408 H 35.6094 -2.14288 -4.34981 0
M  V30 409 N 36.9525 1.47285 -0.560781 0
M  V30 410 C 38.1775 2.07359 -0.0410566 0
M  V30 411 C 38.6025 1.41017 1.24483 0
M  V30 412 O 37.9605 0.486368 1.74654 0
M  V30 413 C 38.0085 3.6035 0.134123 0
M  V30 414 O 37.1125 3.94681 1.19587 0
M  V30 415 H 36.4535 0.661887 -0.0529291 0
M  V30 416 H 38.9835 1.89252 -0.777482 0
M  V30 417 H 38.9935 4.0652 0.347207 0
M  V30 418 H 37.6685 4.08034 -0.805047 0
M  V30 419 H 36.2455 3.60251 0.962987 0
M  V30 420 N 38.4306 0.297415 1.54768 0
M  V30 421 C 39.6766 -0.313376 2.00364 0
M  V30 422 C 40.0096 -1.53815 1.18553 0
M  V30 423 O 39.2846 -1.92739 0.261103 0
M  V30 424 C 39.5676 -0.673525 3.53745 0
M  V30 425 C 39.4206 0.560133 4.46299 0
M  V30 426 C 40.7396 -1.50143 4.13697 0
M  V30 427 H 37.8586 -0.112428 0.728374 0
M  V30 428 H 40.5006 0.4088 1.8555 0
M  V30 429 H 38.6506 -1.28881 3.665 0
M  V30 430 H 40.3226 1.19863 4.45455 0
M  V30 431 H 38.5656 1.19405 4.17043 0
M  V30 432 H 39.2366 0.26405 5.51368 0
M  V30 433 H 41.7126 -0.981588 4.04356 0
M  V30 434 H 40.5886 -1.72221 5.21182 0
M  V30 435 H 40.8496 -2.48952 3.65343 0
M  V30 436 N 39.9087 -1.5758 0.0250728 0
M  V30 437 C 41.1577 -1.90811 -0.653767 0
M  V30 438 C 41.4707 -0.90273 -1.73523 0
M  V30 439 O 42.6767 -1.12614 -2.47043 0
M  V30 440 C 41.1327 -3.38804 -1.21409 0
M  V30 441 C 40.7407 -4.47692 -0.166126 0
M  V30 442 C 42.4847 -3.81108 -1.86967 0
M  V30 443 C 40.3917 -5.86779 -0.737856 0
M  V30 444 H 39.3217 -0.712063 -0.247956 0
M  V30 445 H 41.9727 -1.83281 0.0897137 0
M  V30 446 H 40.3547 -3.41252 -2.00905 0
M  V30 447 H 41.5287 -4.56797 0.606079 0
M  V30 448 H 39.8437 -4.14565 0.390466 0
M  V30 449 H 42.4407 -4.82375 -2.30692 0
M  V30 450 H 42.7837 -3.15953 -2.71071 0
M  V30 451 H 43.3167 -3.81065 -1.14167 0
M  V30 452 H 40.0557 -6.55468 0.0649577 0
M  V30 453 H 39.5757 -5.81288 -1.47864 0
M  V30 454 H 41.2547 -6.35223 -1.22884 0
M  V30 455 N 41.3868 0.248026 -1.55636 0
M  V30 456 C 42.6328 0.97767 -1.77678 0
M  V30 457 C 42.9658 1.85016 -0.590135 0
M  V30 458 O 42.2408 1.90095 0.411611 0
M  V30 459 C 42.5238 1.83914 -3.09593 0
M  V30 460 C 42.3768 0.99491 -4.38659 0
M  V30 461 C 43.6958 2.82183 -3.37729 0
M  V30 462 H 40.8148 0.354005 -0.646413 0
M  V30 463 H 43.4568 0.248253 -1.88371 0
M  V30 464 H 41.6068 2.46104 -3.00608 0
M  V30 465 H 43.2788 0.391789 -4.59633 0
M  V30 466 H 41.5218 0.299231 -4.32767 0
M  V30 467 H 42.1928 1.63145 -5.2734 0
M  V30 468 H 44.6688 2.30129 -3.4667 0
M  V30 469 H 43.5448 3.39582 -4.31249 0
M  V30 470 H 43.8058 3.58588 -2.58586 0
M  V30 471 N 42.8649 1.48995 0.513639 0
M  V30 472 C 44.1129 1.57531 1.26604 0
M  V30 473 C 44.4339 0.258236 1.93283 0
M  V30 474 O 43.7039 -0.721502 1.8213 0
M  V30 475 H 42.2839 0.580387 0.470276 0
M  V30 476 H 44.9459 1.85552 0.596373 0
M  V30 477 H 44.0419 2.36486 2.03669 0
M  V30 478 N 44.343 -0.763751 1.37857 0
M  V30 479 C 45.583 -1.53551 1.34913 0
M  V30 480 C 45.947 -1.91895 -0.0635882 0
M  V30 481 O 47.148 -2.67916 -0.217825 0
M  V30 482 C 45.419 -2.76126 2.26912 0
M  V30 483 S 46.978 -3.66105 2.41893 0
M  V30 484 H 43.796 -0.52559 0.478828 0
M  V30 485 H 46.398 -0.897435 1.73685 0
M  V30 486 H 45.102 -2.4605 3.28463 0
M  V30 487 H 44.633 -3.44887 1.89253 0
M  V30 488 H 46.648 -4.68473 1.63545 0
M  V30 489 N 45.8211 -1.22559 -0.990812 0
M  V30 490 C 46.7511 -1.0218 -2.09956 0
M  V30 491 C 47.7321 0.0579394 -1.70001 0
M  V30 492 O 48.9171 -0.104684 -1.93918 0
M  V30 493 C 46.0471 -0.601023 -3.4206 0
M  V30 494 C 45.0011 -1.62694 -3.95872 0
M  V30 495 C 44.3271 -1.06193 -5.24049 0
M  V30 496 C 45.6271 -3.01743 -4.2632 0
M  V30 497 H 47.3211 -1.94916 -2.27262 0
M  V30 498 H 44.8671 -0.938566 -1.09211 0
M  V30 499 H 46.8201 -0.445561 -4.19038 0
M  V30 500 H 45.5441 0.362005 -3.24588 0
M  V30 501 H 44.2031 -1.77021 -3.21028 0
M  V30 502 H 43.8511 -0.0901903 -5.02919 0
M  V30 503 H 43.5511 -1.74732 -5.61019 0
M  V30 504 H 45.0751 -0.918092 -6.03658 0
M  V30 505 H 46.4891 -2.90777 -4.94087 0
M  V30 506 H 44.8861 -3.67425 -4.74467 0
M  V30 507 H 45.9561 -3.51518 -3.34011 0
M  V30 508 N 47.2992 1.18797 -1.03562 0
M  V30 509 C 48.2292 2.24472 -0.643019 0
M  V30 510 C 49.2102 1.66433 0.351283 0
M  V30 511 O 50.3952 1.92803 0.232505 0
M  V30 512 C 47.5252 3.473 4.24935e-05 0
M  V30 513 C 46.4792 4.18055 -0.917257 0
M  V30 514 C 45.8052 5.34519 -0.138941 0
M  V30 515 C 47.1052 4.72109 -2.23407 0
M  V30 516 H 48.7992 2.57566 -1.52643 0
M  V30 517 H 46.3452 1.23806 -0.735394 0
M  V30 518 H 48.2982 4.20426 0.286383 0
M  V30 519 H 47.0222 3.13424 0.918299 0
M  V30 520 H 45.6812 3.46821 -1.1879 0
M  V30 521 H 45.3292 4.96891 0.781562 0
M  V30 522 H 45.0292 5.82794 -0.750005 0
M  V30 523 H 46.5532 6.10438 0.1405 0
M  V30 524 H 47.9672 5.36955 -2.00879 0
M  V30 525 H 46.3642 5.30897 -2.79765 0
M  V30 526 H 47.4342 3.89807 -2.88407 0
M  V30 527 N 48.7773 0.814389 1.34928 0
M  V30 528 C 50.0253 0.397636 1.9815 0
M  V30 529 C 50.3463 -1.04069 1.64908 0
M  V30 530 O 49.6163 -1.72121 0.93548 0
M  V30 531 H 48.1963 0.144043 0.732981 0
M  V30 532 H 50.8583 1.04195 1.6471 0
M  V30 533 H 49.9543 0.509688 3.0791 0
M  V30 534 N 50.2554 -1.46986 0.568584 0
M  V30 535 C 51.5024 -2.02441 0.0487986 0
M  V30 536 C 51.8304 -1.44169 -1.30559 0
M  V30 537 O 51.0854 -0.591213 -1.86556 0
M  V30 538 C 51.3844 -3.57306 -0.081836 0
M  V30 539 C 51.0504 -4.34552 1.20313 0
M  V30 540 C 49.7124 -4.55376 1.5552 0
M  V30 541 C 52.0644 -4.79016 2.05411 0
M  V30 542 C 49.3924 -5.17913 2.7565 0
M  V30 543 C 51.7444 -5.42879 3.24754 0
M  V30 544 C 50.4084 -5.61933 3.60261 0
M  V30 545 H 49.6784 -0.740785 0.0178567 0
M  V30 546 H 52.3254 -1.76525 0.742384 0
M  V30 547 H 50.6304 -3.8228 -0.858463 0
M  V30 548 H 52.3274 -3.97876 -0.499546 0
M  V30 549 H 48.9174 -4.18631 0.919014 0
M  V30 550 H 53.1014 -4.62696 1.79516 0
M  V30 551 H 48.3574 -5.30858 3.03315 0
M  V30 552 H 52.5314 -5.76293 3.90973 0
M  V30 553 H 50.1584 -6.10161 4.53439 0
M  V30 554 N 51.7335 -0.305618 -1.54608 0
M  V30 555 C 52.9805 0.302298 -2.00231 0
M  V30 556 C 53.3085 1.5354 -1.19398 0
M  V30 557 O 52.5635 1.93973 -0.259423 0
M  V30 558 C 52.8625 0.698983 -3.50498 0
M  V30 559 C 52.5285 -0.432903 -4.48817 0
M  V30 560 C 51.1905 -0.743622 -4.75419 0
M  V30 561 C 53.5425 -1.19409 -5.07337 0
M  V30 562 C 50.8705 -1.81857 -5.57804 0
M  V30 563 C 53.2225 -2.25899 -5.90891 0
M  V30 564 C 51.8865 -2.57572 -6.15803 0
M  V30 565 H 51.1565 0.110619 -0.732697 0
M  V30 566 H 53.8035 -0.425674 -1.86709 0
M  V30 567 H 52.1085 1.50711 -3.61654 0
M  V30 568 H 53.8055 1.1806 -3.83227 0
M  V30 569 H 50.3955 -0.18063 -4.28219 0
M  V30 570 H 54.5795 -0.967295 -4.86782 0
M  V30 571 H 49.8355 -2.06864 -5.75341 0
M  V30 572 H 54.0095 -2.85335 -6.35261 0
M  V30 573 H 51.6365 -3.40998 -6.7943 0
M  V30 574 N 53.2116 1.57565 -0.0334293 0
M  V30 575 C 54.1416 2.13511 0.945265 0
M  V30 576 C 55.1226 1.05231 1.33643 0
M  V30 577 O 56.3076 1.33084 1.41429 0
M  V30 578 C 53.4376 2.6657 2.22616 0
M  V30 579 C 52.3916 3.79676 1.97561 0
M  V30 580 C 51.7176 4.1918 3.31952 0
M  V30 581 C 53.0176 5.0557 1.31135 0
M  V30 582 H 54.7116 2.95538 0.479325 0
M  V30 583 H 52.2576 1.42166 0.229115 0
M  V30 584 H 54.2106 3.04344 2.91466 0
M  V30 585 H 52.9346 1.8171 2.71384 0
M  V30 586 H 51.5936 3.42347 1.31127 0
M  V30 587 H 51.2416 3.31296 3.78487 0
M  V30 588 H 50.9416 4.95402 3.15992 0
M  V30 589 H 52.4656 4.59541 4.02063 0
M  V30 590 H 53.8796 5.40903 1.89992 0
M  V30 591 H 52.2766 5.86818 1.25559 0
M  V30 592 H 53.3466 4.84062 0.284894 0
M  V30 593 N 54.6897 -0.239769 1.55765 0
M  V30 594 C 56.1057 -0.588624 1.48349 0
M  V30 595 C 56.3057 -1.88005 0.72502 0
M  V30 596 O 55.3617 -2.51186 0.257269 0
M  V30 597 C 56.6747 -0.68474 2.928 0
M  V30 598 C 58.2227 -0.77659 3.03213 0
M  V30 599 C 58.6977 -0.904207 4.48986 0
M  V30 600 N 60.1887 -0.968896 4.52953 0
M  V30 601 C 60.9237 -1.08703 5.63002 0
M  V30 602 N 60.4197 -1.17026 6.82845 0
M  V30 603 N 62.2127 -1.12074 5.50814 0
M  V30 604 H 54.3637 0.607911 2.03515 0
M  V30 605 H 56.6267 0.21083 0.924259 0
M  V30 606 H 56.3327 0.194284 3.51163 0
M  V30 607 H 56.2067 -1.55435 3.43686 0
M  V30 608 H 58.5937 -1.64606 2.44926 0
M  V30 609 H 58.6747 0.118315 2.55526 0
M  V30 610 H 58.3187 -0.0392633 5.07885 0
M  V30 611 H 58.2487 -1.81426 4.9436 0
M  V30 612 H 60.7397 -0.915633 3.6664 0
M  V30 613 H 61.0527 -1.25966 7.62465 0
M  V30 614 H 59.3977 -1.13971 6.85591 0
M  V30 615 H 62.5887 -1.05226 4.5612 0
M  V30 616 H 62.7617 -1.20936 6.36615 0
M  V30 617 N 56.1678 -1.49265 -0.50573 0
M  V30 618 C 57.3958 -1.62215 -1.28429 0
M  V30 619 C 57.8108 -0.291697 -1.86533 0
M  V30 620 O 57.1678 0.722233 -1.67601 0
M  V30 621 C 57.2188 -2.68735 -2.41793 0
M  V30 622 O 56.9398 -3.96619 -1.86078 0
M  V30 623 C 58.4408 -2.92346 -3.3324 0
M  V30 624 H 55.6608 -0.546239 -0.389697 0
M  V30 625 H 58.2048 -1.95265 -0.607609 0
M  V30 626 H 56.3598 -2.38476 -3.053 0
M  V30 627 H 56.7738 -4.55256 -2.60465 0
M  V30 628 H 58.2478 -3.70623 -4.09075 0
M  V30 629 H 58.7248 -2.02081 -3.89948 0
M  V30 630 H 59.3308 -3.24003 -2.75503 0
M  V30 631 N 57.6459 0.756429 -1.3826 0
M  V30 632 C 59.0619 1.0591 -1.19395 0
M  V30 633 C 59.2619 2.01459 -0.0406567 0
M  V30 634 O 58.3179 2.44909 0.614467 0
M  V30 635 C 59.6309 1.64191 -2.51916 0
M  V30 636 C 61.1789 1.76376 -2.58574 0
M  V30 637 C 61.6539 2.38069 -3.91264 0
M  V30 638 N 63.1449 2.45503 -3.92788 0
M  V30 639 C 63.8799 2.94126 -4.92217 0
M  V30 640 N 63.3759 3.42805 -6.02043 0
M  V30 641 N 65.1689 2.9314 -4.7961 0
M  V30 642 H 57.3199 0.122313 -2.12048 0
M  V30 643 H 59.5829 0.116892 -0.940766 0
M  V30 644 H 59.2889 1.01451 -3.3675 0
M  V30 645 H 59.1629 2.6329 -2.70108 0
M  V30 646 H 61.5499 2.38244 -1.74137 0
M  V30 647 H 61.6309 0.759894 -2.44252 0
M  V30 648 H 61.2749 1.76835 -4.76121 0
M  V30 649 H 61.2049 3.39091 -4.02895 0
M  V30 650 H 63.6959 2.1107 -3.13461 0
M  V30 651 H 64.0089 3.78354 -6.73846 0
M  V30 652 H 62.3539 3.4087 -6.05667 0
M  V30 653 H 65.5449 2.54419 -3.92923 0
M  V30 654 H 65.7179 3.30721 -5.5725 0
M  V30 655 N 59.124 1.23083 0.984299 0
M  V30 656 C 60.54 0.992637 1.24975 0
M  V30 657 C 60.74 -0.308618 1.99123 0
M  V30 658 O 59.796 -1.02905 2.30579 0
M  V30 659 C 61.109 2.19698 2.05312 0
M  V30 660 C 62.657 2.24147 2.18465 0
M  V30 661 C 63.132 3.44157 3.02192 0
M  V30 662 N 64.623 3.44372 3.09777 0
M  V30 663 C 65.358 4.33886 3.74874 0
M  V30 664 N 64.854 5.3363 4.41827 0
M  V30 665 N 66.647 4.21639 3.71721 0
M  V30 666 H 58.798 2.06731 0.487453 0
M  V30 667 H 61.061 0.906339 0.277944 0
M  V30 668 H 60.767 3.1411 1.58201 0
M  V30 669 H 60.641 2.20465 3.06064 0
M  V30 670 H 63.028 1.30277 2.64786 0
M  V30 671 H 63.109 2.27415 1.17115 0
M  V30 672 H 62.753 4.38332 2.56568 0
M  V30 673 H 62.683 3.3813 4.03702 0
M  V30 674 H 65.174 2.72201 2.62135 0
M  V30 675 H 65.487 5.98196 4.89266 0
M  V30 676 H 63.832 5.37534 4.40548 0
M  V30 677 H 67.023 3.42962 3.18582 0
M  V30 678 H 67.196 4.91604 4.22173 0
M  V30 679 N 60.6021 -1.18246 1.0419 0
M  V30 680 C 61.5321 -2.24127 0.654914 0
M  V30 681 C 62.5131 -1.66617 -0.342451 0
M  V30 682 O 63.6981 -1.92924 -0.222277 0
M  V30 683 C 60.8281 -3.47295 0.0183757 0
M  V30 684 C 59.7821 -4.17563 0.939414 0
M  V30 685 C 59.1081 -5.34438 0.167286 0
M  V30 686 C 60.4081 -4.70917 2.25908 0
M  V30 687 H 62.1021 -2.56753 1.54007 0
M  V30 688 H 59.6481 -1.23414 0.74195 0
M  V30 689 H 61.6011 -4.20572 -0.264082 0
M  V30 690 H 60.3251 -3.13907 -0.901664 0
M  V30 691 H 58.9841 -3.46186 1.20628 0
M  V30 692 H 58.6321 -4.97298 -0.7552 0
M  V30 693 H 58.3321 -5.82388 0.780901 0
M  V30 694 H 59.8561 -6.10504 -0.108125 0
M  V30 695 H 61.2701 -5.35882 2.03724 0
M  V30 696 H 59.6671 -5.29406 2.82577 0
M  V30 697 H 60.7371 -3.88272 2.9047 0
M  V30 698 N 62.0802 -0.821533 -1.34494 0
M  V30 699 C 63.3052 -0.420873 -2.03085 0
M  V30 700 C 63.7302 0.964915 -1.61465 0
M  V30 701 O 63.0882 1.62763 -0.798607 0
M  V30 702 C 63.1362 -0.529414 -3.56693 0
M  V30 703 O 62.2402 0.451302 -4.09923 0
M  V30 704 H 61.5812 -0.173489 -0.640935 0
M  V30 705 H 64.1112 -1.11157 -1.71771 0
M  V30 706 H 64.1212 -0.404671 -4.05988 0
M  V30 707 H 62.7962 -1.54014 -3.86332 0
M  V30 708 H 61.3732 0.285558 -3.71805 0
M  V30 709 N 63.5583 1.46682 -0.576371 0
M  V30 710 C 64.9693 1.86112 -0.148091 0
M  V30 711 C 65.3203 1.48073 1.2872 0
M  V30 712 O 64.4453 0.892656 1.97131 0
M  V30 713 C 65.0403 3.37786 -0.261982 0
M  V30 714 C 63.5993 3.76235 0.111384 0
M  V30 715 C 62.7463 2.70713 -0.60083 0
M  V30 716 H 65.6973 1.37927 -0.78497 0
M  V30 717 H 65.7183 3.77007 0.514364 0
M  V30 718 H 65.2303 3.6544 -1.30671 0
M  V30 719 H 63.3313 3.54198 1.15649 0
M  V30 720 H 63.4443 4.78391 -0.26052 0
M  V30 721 H 61.8083 2.54666 -0.0417783 0
M  V30 722 H 62.5913 3.01208 -1.64708 0
M  V30 723 N 65.0364 0.313813 1.54444 0
M  V30 724 C 65.9684 -0.590425 2.21465 0
M  V30 725 C 66.9814 -1.08753 1.21147 0
M  V30 726 O 68.1704 -1.00278 1.4767 0
M  V30 727 C 65.2704 -1.82179 2.85769 0
M  V30 728 C 64.4434 -1.46502 4.12136 0
M  V30 729 C 63.5024 -2.55288 4.60124 0
M  V30 730 O 62.5284 -2.19842 5.25032 0
M  V30 731 N 63.7304 -3.86053 4.33525 0
M  V30 732 H 66.4954 -0.0166033 2.99695 0
M  V30 733 H 64.0564 0.136578 1.61323 0
M  V30 734 H 66.0484 -2.54328 3.14801 0
M  V30 735 H 64.6184 -2.30369 2.11303 0
M  V30 736 H 63.8384 -0.575595 3.89975 0
M  V30 737 H 65.1264 -1.20221 4.94393 0
M  V30 738 H 64.5244 -4.17654 3.81552 0
M  V30 739 H 63.0814 -4.54461 4.67235 0
M  V30 740 N 66.5145 -1.57545 0.0417849 0
M  V30 741 C 67.4245 -2.14451 -0.951213 0
M  V30 742 C 68.4405 -1.09992 -1.34825 0
M  V30 743 O 69.6165 -1.42114 -1.42708 0
M  V30 744 C 66.6815 -2.67063 -2.21084 0
M  V30 745 C 65.7425 -3.86284 -1.87304 0
M  V30 746 C 64.9755 -4.36378 -3.07261 0
M  V30 747 O 65.1985 -3.85587 -4.20332 0
M  V30 748 O 64.1325 -5.28077 -2.88822 0
M  V30 749 H 67.9585 -2.99601 -0.497287 0
M  V30 750 H 65.5435 -1.48317 -0.179567 0
M  V30 751 H 67.4255 -3.00914 -2.95006 0
M  V30 752 H 66.1005 -1.84989 -2.65633 0
M  V30 753 H 65.0075 -3.57338 -1.10727 0
M  V30 754 H 66.3405 -4.6956 -1.47562 0
M  V30 755 N 67.9926 0.231505 -1.5589 0
M  V30 756 C 69.2416 0.955346 -1.7764 0
M  V30 757 C 69.5546 1.85893 -0.608546 0
M  V30 758 O 70.7606 2.62067 -0.70943 0
M  V30 759 C 69.2166 1.74886 -3.14552 0
M  V30 760 C 68.8246 0.891915 -4.39032 0
M  V30 761 C 70.5686 2.46452 -3.45633 0
M  V30 762 C 68.4756 1.68221 -5.66971 0
M  V30 763 H 67.4056 0.360446 -0.662265 0
M  V30 764 H 70.0566 0.209516 -1.823 0
M  V30 765 H 68.4386 2.53723 -3.04041 0
M  V30 766 H 69.6126 0.144793 -4.60572 0
M  V30 767 H 67.9276 0.288863 -4.15397 0
M  V30 768 H 70.5246 3.06061 -4.38441 0
M  V30 769 H 70.8676 3.18841 -2.67668 0
M  V30 770 H 71.4006 1.74613 -3.57428 0
M  V30 771 H 68.1396 1.00178 -6.478 0
M  V30 772 H 67.6596 2.4042 -5.49507 0
M  V30 773 H 69.3386 2.24544 -6.06786 0
M  V30 774 N 69.4707 1.49531 0.497807 0
M  V30 775 C 70.6957 1.63159 1.28039 0
M  V30 776 C 71.1207 0.30418 1.85624 0
M  V30 777 O 70.4787 -0.728618 1.66015 0
M  V30 778 C 70.5267 2.70537 2.38416 0
M  V30 779 O 69.6307 2.29931 3.42353 0
M  V30 780 H 68.9717 0.546001 0.377861 0
M  V30 781 H 71.5017 1.9574 0.59558 0
M  V30 782 H 71.5117 2.92802 2.84132 0
M  V30 783 H 70.1867 3.6689 1.95869 0
M  V30 784 H 68.7637 2.18009 3.02533 0
M  V30 785 N 70.9488 -0.749086 1.3866 0
M  V30 786 C 72.1788 -1.53611 1.38157 0
M  V30 787 C 72.5868 -1.89177 -0.0293595 0
M  V30 788 O 71.9298 -1.53606 -1.00752 0
M  V30 789 C 71.9918 -2.86087 2.17702 0
M  V30 790 C 71.6558 -2.73034 3.66472 0
M  V30 791 C 72.6528 -2.42526 4.59866 0
M  V30 792 C 70.3378 -2.90345 4.09884 0
M  V30 793 C 72.3318 -2.29492 5.94653 0
M  V30 794 C 70.0188 -2.7693 5.4475 0
M  V30 795 C 71.0168 -2.46547 6.36949 0
M  V30 796 O 70.7048 -2.33199 7.69333 0
M  V30 797 H 70.4368 -0.481773 0.474205 0
M  V30 798 H 72.9908 -0.934465 1.82912 0
M  V30 799 H 71.2208 -3.48458 1.67672 0
M  V30 800 H 72.9098 -3.47625 2.09551 0
M  V30 801 H 73.6758 -2.28816 4.27631 0
M  V30 802 H 69.5548 -3.1299 3.38464 0
M  V30 803 H 73.0988 -2.05698 6.66584 0
M  V30 804 H 68.9958 -2.90215 5.76581 0
M  V30 805 H 69.7638 -2.48376 7.79905 0
M  V30 806 N 72.4269 -1.23603 -0.977757 0
M  V30 807 C 73.6739 -1.06971 -1.71941 0
M  V30 808 C 74.0019 0.393009 -1.90488 0
M  V30 809 O 73.2569 1.30719 -1.4564 0
M  V30 810 C 73.5559 -1.7433 -3.11999 0
M  V30 811 C 73.2219 -3.24252 -3.13323 0
M  V30 812 C 71.8839 -3.65156 -3.13392 0
M  V30 813 C 74.2359 -4.20141 -3.08433 0
M  V30 814 C 71.5639 -5.00403 -3.0629 0
M  V30 815 C 73.9159 -5.55384 -3.02873 0
M  V30 816 C 72.5799 -5.95647 -3.01265 0
M  V30 817 H 71.8499 -0.391433 -0.629175 0
M  V30 818 H 74.4969 -1.53572 -1.14403 0
M  V30 819 H 72.8019 -1.20096 -3.7294 0
M  V30 820 H 74.4989 -1.58936 -3.68158 0
M  V30 821 H 71.0889 -2.91692 -3.14029 0
M  V30 822 H 75.2729 -3.89547 -3.07517 0
M  V30 823 H 70.5289 -5.3081 -3.03399 0
M  V30 824 H 74.7029 -6.29398 -2.98046 0
M  V30 825 H 72.3299 -7.0041 -2.95516 0
M  V30 826 N 73.905 1.17692 -1.04816 0
M  V30 827 C 74.837 2.21103 -0.603822 0
M  V30 828 C 75.85 1.59411 0.33046 0
M  V30 829 O 77.039 1.7807 0.12379 0
M  V30 830 C 74.139 3.38623 0.136898 0
M  V30 831 C 73.312 4.29888 -0.807137 0
M  V30 832 C 72.371 5.26088 -0.10836 0
M  V30 833 O 71.397 5.64353 -0.741232 0
M  V30 834 N 72.599 5.68882 1.15558 0
M  V30 835 H 75.364 2.59848 -1.49329 0
M  V30 836 H 72.925 1.32553 -0.929587 0
M  V30 837 H 74.917 4.00009 0.614401 0
M  V30 838 H 73.487 2.98508 0.927993 0
M  V30 839 H 72.707 3.65993 -1.46434 0
M  V30 840 H 73.995 4.87759 -1.44807 0
M  V30 841 H 73.393 5.39861 1.69015 0
M  V30 842 H 71.95 6.32429 1.57722 0
M  V30 843 N 75.3831 0.828654 1.34056 0
M  V30 844 C 76.6301 0.419458 1.98108 0
M  V30 845 C 76.9581 -1.01886 1.65679 0
M  V30 846 O 76.2131 -1.72539 0.923512 0
M  V30 847 C 76.5121 0.575226 3.52741 0
M  V30 848 C 76.1781 1.98012 4.05095 0
M  V30 849 C 74.8401 2.36442 4.19104 0
M  V30 850 C 77.1921 2.89824 4.33188 0
M  V30 851 C 74.5201 3.66009 4.58535 0
M  V30 852 C 76.8721 4.1886 4.74066 0
M  V30 853 C 75.5361 4.5726 4.86281 0
M  V30 854 H 74.8061 0.153491 0.724929 0
M  V30 855 H 77.4531 1.05371 1.59904 0
M  V30 856 H 75.7581 -0.142385 3.91541 0
M  V30 857 H 77.4551 0.239057 4.00287 0
M  V30 858 H 74.0451 1.67162 3.94658 0
M  V30 859 H 78.2291 2.61375 4.21897 0
M  V30 860 H 73.4851 3.95579 4.66184 0
M  V30 861 H 77.6591 4.90086 4.94761 0
M  V30 862 H 75.2861 5.57707 5.16592 0
M  V30 863 N 76.8612 -1.46375 0.584142 0
M  V30 864 C 78.2722 -1.86031 0.157959 0
M  V30 865 C 78.6232 -1.48753 -1.27933 0
M  V30 866 O 77.7482 -0.903098 -1.96655 0
M  V30 867 C 78.3432 -3.37642 0.279892 0
M  V30 868 C 76.9022 -3.76289 -0.09143 0
M  V30 869 C 76.0492 -2.7039 0.615178 0
M  V30 870 H 79.0002 -1.37509 0.792274 0
M  V30 871 H 79.0212 -3.77275 -0.494364 0
M  V30 872 H 78.5332 -3.64742 1.32607 0
M  V30 873 H 76.6342 -3.54806 -1.13769 0
M  V30 874 H 76.7472 -4.78246 0.285886 0
M  V30 875 H 75.1112 -2.5464 0.0552833 0
M  V30 876 H 75.8942 -3.0033 1.66303 0
M  V30 877 N 78.3393 -0.321999 -1.54275 0
M  V30 878 C 79.5873 0.280489 -2.00144 0
M  V30 879 C 79.9083 1.52777 -1.21178 0
M  V30 880 O 79.1783 1.9338 -0.313187 0
M  V30 881 H 77.7583 0.106632 -0.73935 0
M  V30 882 H 80.4203 -0.438184 -1.8991 0
M  V30 883 H 79.5163 0.537972 -3.07428 0
M  V30 884 N 79.8174 1.5752 -0.0501392 0
M  V30 885 C 80.7274 2.14952 0.939827 0
M  V30 886 C 81.7434 1.10706 1.34239 0
M  V30 887 O 82.9194 1.42869 1.41952 0
M  V30 888 C 79.9844 2.68232 2.19665 0
M  V30 889 C 79.0454 3.87272 1.85253 0
M  V30 890 C 78.2784 4.38002 3.04943 0
M  V30 891 O 78.5014 3.87811 4.18281 0
M  V30 892 O 77.4354 5.29602 2.86017 0
M  V30 893 H 81.2614 2.9986 0.481392 0
M  V30 894 H 78.8464 1.4841 0.171699 0
M  V30 895 H 80.7284 3.02475 2.93406 0
M  V30 896 H 79.4034 1.86395 2.64648 0
M  V30 897 H 78.3104 3.5792 1.0883 0
M  V30 898 H 79.6434 4.70336 1.4507 0
M  V30 899 N 81.2955 -0.223234 1.56011 0
M  V30 900 C 82.2255 -1.27988 1.95298 0
M  V30 901 C 83.2065 -1.48976 0.820979 0
M  V30 902 O 84.3915 -1.61188 1.08315 0
M  V30 903 C 81.5215 -2.63 2.26822 0
M  V30 904 C 80.4755 -2.56671 3.42497 0
M  V30 905 C 79.8015 -3.95697 3.59622 0
M  V30 906 C 81.1015 -2.11601 4.77517 0
M  V30 907 H 82.7955 -0.953525 2.8381 0
M  V30 908 H 80.3415 -0.457244 1.36548 0
M  V30 909 H 82.2945 -3.37077 2.52898 0
M  V30 910 H 81.0185 -2.9732 1.35161 0
M  V30 911 H 79.6775 -1.85051 3.16467 0
M  V30 912 H 79.3255 -4.27322 2.6534 0
M  V30 913 H 79.0255 -3.92345 4.37424 0
M  V30 914 H 80.5495 -4.71438 3.88044 0
M  V30 915 H 81.9635 -2.7542 5.02809 0
M  V30 916 H 80.3605 -2.19311 5.5859 0
M  V30 917 H 81.4305 -1.06824 4.72987 0
M  V30 918 N 82.7736 -1.49793 -0.48987 0
M  V30 919 C 83.7036 -1.70201 -1.59856 0
M  V30 920 C 84.6846 -0.55076 -1.60937 0
M  V30 921 O 85.8696 -0.787841 -1.77501 0
M  V30 922 C 82.9996 -1.77882 -2.98287 0
M  V30 923 C 81.9536 -2.92907 -3.12073 0
M  V30 924 C 81.2796 -2.85712 -4.51965 0
M  V30 925 C 82.5796 -4.3369 -2.91051 0
M  V30 926 H 84.2736 -2.63025 -1.43032 0
M  V30 927 H 81.8196 -1.26574 -0.686664 0
M  V30 928 H 83.7726 -1.90744 -3.75759 0
M  V30 929 H 82.4966 -0.816653 -3.16225 0
M  V30 930 H 81.1556 -2.79665 -2.37029 0
M  V30 931 H 80.8036 -1.8738 -4.66795 0
M  V30 932 H 80.5036 -3.62921 -4.62128 0
M  V30 933 H 82.0276 -3.00598 -5.31482 0
M  V30 934 H 83.4416 -4.47555 -3.58284 0
M  V30 935 H 81.8386 -5.12205 -3.12675 0
M  V30 936 H 82.9086 -4.47362 -1.87071 0
M  V30 937 N 84.2517 0.741722 -1.39055 0
M  V30 938 C 85.1847 1.86416 -1.31622 0
M  V30 939 C 86.1627 1.61473 -0.191076 0
M  V30 940 O 87.3467 1.84825 -0.370399 0
M  V30 941 C 84.4737 3.22266 -1.04221 0
M  V30 942 C 83.5197 3.66079 -2.18834 0
M  V30 943 S 84.3527 3.7623 -3.81066 0
M  V30 944 C 85.5087 5.14881 -3.55877 0
M  V30 945 H 85.7417 1.92437 -2.26617 0
M  V30 946 H 83.2747 0.905907 -1.25031 0
M  V30 947 H 85.2327 4.00714 -0.890964 0
M  V30 948 H 83.8937 3.1391 -0.109237 0
M  V30 949 H 83.0867 4.64648 -1.95238 0
M  V30 950 H 82.6887 2.94817 -2.30128 0
M  V30 951 H 84.9807 6.01006 -3.12726 0
M  V30 952 H 85.9237 5.43503 -4.53884 0
M  V30 953 H 86.3317 4.84239 -2.90126 0
M  V30 954 N 85.7298 1.2412 0.971189 0
M  V30 955 C 87.1458 1.00584 1.23916 0
M  V30 956 C 87.3458 -0.287481 1.99439 0
M  V30 957 O 86.4018 -1.00454 2.31658 0
M  V30 958 C 87.7148 2.21864 2.0297 0
M  V30 959 C 89.2628 2.26452 2.16076 0
M  V30 960 C 89.7378 3.47343 2.98524 0
M  V30 961 N 91.2288 3.47639 3.06107 0
M  V30 962 C 91.9638 4.37837 3.70251 0
M  V30 963 N 91.4598 5.38286 4.36142 0
M  V30 964 N 93.2528 4.25558 3.67228 0
M  V30 965 H 85.4038 2.07236 0.465499 0
M  V30 966 H 87.6668 0.909236 0.268315 0
M  V30 967 H 87.3728 3.15771 1.54861 0
M  V30 968 H 87.2468 2.23698 3.03709 0
M  V30 969 H 89.6338 1.33078 2.6339 0
M  V30 970 H 89.7148 2.28645 1.14696 0
M  V30 971 H 89.3588 4.41029 2.51905 0
M  V30 972 H 89.2888 3.42393 4.00093 0
M  V30 973 H 91.7798 2.74966 2.59233 0
M  V30 974 H 92.0928 6.03352 4.82894 0
M  V30 975 H 90.4378 5.42176 4.34822 0
M  V30 976 H 93.6288 3.46322 3.14927 0
M  V30 977 H 93.8018 4.96054 4.16935 0
M  V30 978 N 87.2079 -1.17134 1.05439 0
M  V30 979 C 88.1409 -2.2012 0.601855 0
M  V30 980 C 89.1189 -1.58314 -0.370854 0
M  V30 981 O 90.3029 -1.8638 -0.281882 0
M  V30 982 C 87.4299 -3.38491 -0.118868 0
M  V30 983 C 86.4759 -4.18752 0.809242 0
M  V30 984 S 87.3089 -4.83602 2.29977 0
M  V30 985 C 88.4649 -6.0536 1.59029 0
M  V30 986 H 88.6979 -2.58165 1.47438 0
M  V30 987 H 86.2309 -1.27788 0.866573 0
M  V30 988 H 88.1889 -4.07084 -0.528495 0
M  V30 989 H 86.8499 -2.98829 -0.967465 0
M  V30 990 H 86.0429 -5.03373 0.251379 0
M  V30 991 H 85.6449 -3.5561 1.15835 0
M  V30 992 H 87.9369 -6.71615 0.891017 0
M  V30 993 H 88.8799 -6.65679 2.41407 0
M  V30 994 H 89.2879 -5.54138 1.07663 0
M  V30 995 N 88.686 -0.835752 -1.33615 0
M  V30 996 C 89.616 -0.281739 -2.31794 0
M  V30 997 C 90.597 0.608833 -1.58831 0
M  V30 998 O 91.782 0.533035 -1.86741 0
M  V30 999 C 88.912 0.546612 -3.42971 0
M  V30 1000 C 87.866 -0.247904 -4.27281 0
M  V30 1001 C 87.192 0.704001 -5.30045 0
M  V30 1002 C 88.492 -1.46324 -5.01385 0
M  V30 1003 H 90.186 -1.10206 -2.78379 0
M  V30 1004 H 87.732 -0.531388 -1.33837 0
M  V30 1005 H 89.685 0.944467 -4.1068 0
M  V30 1006 H 88.409 1.40011 -2.95067 0
M  V30 1007 H 87.068 -0.627281 -3.61194 0
M  V30 1008 H 86.716 1.55381 -4.78399 0
M  V30 1009 H 86.416 0.176524 -5.87335 0
M  V30 1010 H 87.94 1.09944 -6.0062 0
M  V30 1011 H 89.354 -1.13871 -5.61877 0
M  V30 1012 H 87.751 -1.92728 -5.6831 0
M  V30 1013 H 88.821 -2.23467 -4.30338 0
M  V30 1014 N 90.1641 1.46063 -0.591896 0
M  V30 1015 C 91.1111 2.30399 0.136069 0
M  V30 1016 C 92.0811 1.41169 0.875238 0
M  V30 1017 O 93.2661 1.70112 0.86409 0
M  V30 1018 C 90.4061 3.25804 1.13781 0
M  V30 1019 C 89.5191 4.30134 0.401137 0
M  V30 1020 C 88.6541 5.12659 1.39121 0
M  V30 1021 C 87.6931 6.0873 0.641462 0
M  V30 1022 N 86.8301 6.8409 1.58004 0
M  V30 1023 H 91.6701 2.92118 -0.589144 0
M  V30 1024 H 89.2071 1.43959 -0.302342 0
M  V30 1025 H 91.1651 3.79569 1.73156 0
M  V30 1026 H 89.7951 2.65872 1.83062 0
M  V30 1027 H 88.8471 3.79152 -0.307826 0
M  V30 1028 H 90.1591 4.98458 -0.184565 0
M  V30 1029 H 89.3131 5.70747 2.05749 0
M  V30 1030 H 88.0521 4.44316 2.01084 0
M  V30 1031 H 87.0571 5.49786 -0.0385419 0
M  V30 1032 H 88.2821 6.79095 0.0270945 0
M  V30 1033 H 86.2281 6.18449 2.18761 0
M  V30 1034 H 86.1451 7.48709 1.04738 0
M  V30 1035 H 87.4131 7.4673 2.23639 0
M  V30 1036 N 91.6422 0.330177 1.54103 0
M  V30 1037 C 92.5752 -0.575477 2.20825 0
M  V30 1038 C 93.5532 -1.11064 1.18758 0
M  V30 1039 O 94.7372 -1.17341 1.47524 0
M  V30 1040 C 91.8642 -1.79032 2.87516 0
M  V30 1041 C 90.9102 -1.38581 4.03358 0
M  V30 1042 S 91.7432 -0.416911 5.33875 0
M  V30 1043 C 92.8992 -1.63889 6.04062 0
M  V30 1044 H 93.1322 -0.00872114 2.97299 0
M  V30 1045 H 90.6652 0.114254 1.53977 0
M  V30 1046 H 92.6232 -2.48734 3.2656 0
M  V30 1047 H 91.2842 -2.32827 2.10832 0
M  V30 1048 H 90.4772 -2.29123 4.48908 0
M  V30 1049 H 90.0792 -0.768419 3.66021 0
M  V30 1050 H 92.3712 -2.57536 6.26643 0
M  V30 1051 H 93.3142 -1.22542 6.97416 0
M  V30 1052 H 93.7222 -1.82887 5.34053 0
M  V30 1053 N 93.1203 -1.57491 0.0584922 0
M  V30 1054 C 94.0533 -2.07533 -0.948969 0
M  V30 1055 C 95.0313 -0.977444 -1.29942 0
M  V30 1056 O 96.2153 -1.2499 -1.41102 0
M  V30 1057 C 93.3423 -2.52192 -2.2609 0
M  V30 1058 C 92.3883 -3.73287 -2.06298 0
M  V30 1059 S 93.2213 -5.18603 -1.33459 0
M  V30 1060 C 94.3773 -5.66583 -2.65959 0
M  V30 1061 H 94.6103 -2.92662 -0.523118 0
M  V30 1062 H 92.1433 -1.53631 -0.153954 0
M  V30 1063 H 94.1013 -2.78585 -3.01498 0
M  V30 1064 H 92.7623 -1.67356 -2.65802 0
M  V30 1065 H 91.9553 -4.0248 -3.03357 0
M  V30 1066 H 91.5573 -3.47199 -1.39029 0
M  V30 1067 H 93.8493 -5.72616 -3.62101 0
M  V30 1068 H 94.7923 -6.65684 -2.41393 0
M  V30 1069 H 95.2003 -4.94342 -2.72554 0
M  V30 1070 N 94.5984 0.214957 -1.56127 0
M  V30 1071 C 95.8474 0.936451 -1.78643 0
M  V30 1072 C 96.1604 1.85237 -0.628229 0
M  V30 1073 O 97.3664 2.613 -0.737186 0
M  V30 1074 C 95.8224 1.7154 -3.16389 0
M  V30 1075 C 95.4304 0.845299 -4.39953 0
M  V30 1076 C 97.1744 2.42772 -3.48227 0
M  V30 1077 C 95.0814 1.62198 -5.68723 0
M  V30 1078 H 94.0114 0.353401 -0.666051 0
M  V30 1079 H 96.6624 0.190169 -1.82512 0
M  V30 1080 H 95.0444 2.50484 -3.06715 0
M  V30 1081 H 96.2184 0.0959353 -4.607 0
M  V30 1082 H 94.5334 0.244789 -4.1568 0
M  V30 1083 H 97.1304 3.01394 -4.41663 0
M  V30 1084 H 97.4734 3.15984 -2.71035 0
M  V30 1085 H 98.0064 1.70813 -3.5926 0
M  V30 1086 H 94.7454 0.933011 -6.48826 0
M  V30 1087 H 94.2654 2.34579 -5.52026 0
M  V30 1088 H 95.9444 2.18095 -6.09133 0
M  V30 1089 N 96.0765 1.50051 0.48192 0
M  V30 1090 C 97.0065 1.71046 1.58951 0
M  V30 1091 C 97.9875 0.559288 1.60642 0
M  V30 1092 O 99.1725 0.797243 1.77081 0
M  V30 1093 C 96.3025 1.79462 2.97339 0
M  V30 1094 C 95.2565 2.94558 3.10515 0
M  V30 1095 C 94.5825 2.88105 4.50444 0
M  V30 1096 C 95.8825 4.35227 2.88747 0
M  V30 1097 H 97.5765 2.6378 1.41635 0
M  V30 1098 H 95.1225 1.26936 0.679942 0
M  V30 1099 H 97.0755 1.92734 3.74742 0
M  V30 1100 H 95.7995 0.833412 3.15788 0
M  V30 1101 H 94.4585 2.80918 2.35543 0
M  V30 1102 H 94.1065 1.89853 4.65795 0
M  V30 1103 H 93.8065 3.65366 4.60197 0
M  V30 1104 H 95.3305 3.03412 5.29881 0
M  V30 1105 H 96.7445 4.49449 3.55905 0
M  V30 1106 H 95.1415 5.13856 3.09955 0
M  V30 1107 H 96.2115 4.48347 1.84696 0
M  V30 1108 N 97.5546 -0.734337 1.39446 0
M  V30 1109 C 98.9656 -1.31264 1.32766 0
M  V30 1110 C 99.3166 -1.96198 -0.00767497 0
M  V30 1111 O 98.4416 -1.96346 -0.909796 0
M  V30 1112 C 99.0366 -2.38682 2.4045 0
M  V30 1113 C 97.5956 -2.92184 2.37288 0
M  V30 1114 C 96.7426 -1.6576 2.22304 0
M  V30 1115 H 99.6936 -0.531799 1.49525 0
M  V30 1116 H 99.7146 -3.19087 2.07276 0
M  V30 1117 H 99.2266 -1.91392 3.37625 0
M  V30 1118 H 97.3276 -3.43752 1.43754 0
M  V30 1119 H 97.4406 -3.45253 3.3217 0
M  V30 1120 H 95.8046 -1.9012 1.69489 0
M  V30 1121 H 96.5876 -1.20521 3.21449 0
M  V30 1122 N 99.0327 -1.24633 -0.964593 0
M  V30 1123 C 99.9627 -1.06611 -2.07741 0
M  V30 1124 C 100.944 0.0218666 -1.70086 0
M  V30 1125 O 102.129 -0.145793 -1.93652 0
M  V30 1126 C 99.2587 -0.673444 -3.40708 0
M  V30 1127 C 98.2127 -1.71054 -3.92332 0
M  V30 1128 C 97.5387 -1.17285 -5.21678 0
M  V30 1129 C 98.8387 -3.10718 -4.19824 0
M  V30 1130 H 100.533 -1.99693 -2.23076 0
M  V30 1131 H 98.0787 -0.96152 -1.07195 0
M  V30 1132 H 100.032 -0.534345 -4.17998 0
M  V30 1133 H 98.7557 0.293073 -3.25282 0
M  V30 1134 H 97.4147 -1.83791 -3.17201 0
M  V30 1135 H 97.0627 -0.196847 -5.02615 0
M  V30 1136 H 96.7627 -1.86592 -5.57187 0
M  V30 1137 H 98.2867 -1.04593 -6.01575 0
M  V30 1138 H 99.7007 -3.01192 -4.87808 0
M  V30 1139 H 98.0977 -3.77406 -4.66567 0
M  V30 1140 H 99.1677 -3.58524 -3.26479 0
M  V30 1141 N 100.511 1.16574 -1.06058 0
M  V30 1142 C 101.757 1.87324 -0.777022 0
M  V30 1143 C 102.09 1.81351 0.694645 0
M  V30 1144 O 101.365 1.22753 1.50871 0
M  V30 1145 C 101.648 3.36991 -1.26922 0
M  V30 1146 C 101.501 3.51667 -2.80447 0
M  V30 1147 C 102.82 4.3131 -0.87521 0
M  V30 1148 H 99.9388 0.680191 -0.28374 0
M  V30 1149 H 102.581 1.37036 -1.3161 0
M  V30 1150 H 100.731 3.79949 -0.81063 0
M  V30 1151 H 102.403 3.17664 -3.34495 0
M  V30 1152 H 100.646 2.93656 -3.19294 0
M  V30 1153 H 101.317 4.56766 -3.0995 0
M  V30 1154 H 103.793 3.9624 -1.27014 0
M  V30 1155 H 102.669 5.34545 -1.2471 0
M  V30 1156 H 102.93 4.41552 0.220071 0
M  V30 1157 N 101.989 0.842826 1.3317 0
M  V30 1158 C 103.235 0.441099 1.97945 0
M  V30 1159 C 103.568 -0.998024 1.66593 0
M  V30 1160 O 102.843 -1.69839 0.947898 0
M  V30 1161 C 103.126 0.666841 3.53872 0
M  V30 1162 C 102.979 2.15352 3.94897 0
M  V30 1163 C 104.298 0.115544 4.39948 0
M  V30 1164 H 101.417 0.161739 0.719034 0
M  V30 1165 H 104.059 1.05907 1.57746 0
M  V30 1166 H 102.209 0.140828 3.88245 0
M  V30 1167 H 103.881 2.7447 3.70761 0
M  V30 1168 H 102.124 2.63653 3.44484 0
M  V30 1169 H 102.795 2.26221 5.03516 0
M  V30 1170 H 105.271 0.565213 4.12243 0
M  V30 1171 H 104.147 0.303152 5.48062 0
M  V30 1172 H 104.408 -0.980935 4.3108 0
M  V30 1173 N 103.467 -1.45747 0.599634 0
M  V30 1174 C 104.692 -2.07178 0.0960198 0
M  V30 1175 C 105.117 -1.44268 -1.207 0
M  V30 1176 O 104.475 -0.532503 -1.73303 0
M  V30 1177 C 104.523 -3.60579 -0.0385348 0
M  V30 1178 O 103.627 -3.97713 -1.0908 0
M  V30 1179 H 102.968 -0.660251 0.0704593 0
M  V30 1180 H 105.498 -1.87124 0.827385 0
M  V30 1181 H 105.508 -4.07298 -0.239304 0
M  V30 1182 H 104.183 -4.05756 0.912947 0
M  V30 1183 H 102.76 -3.62678 -0.867135 0
M  V30 1184 N 104.945 -0.338344 -1.53925 0
M  V30 1185 C 106.17 0.263987 -2.05713 0
M  V30 1186 C 106.595 1.43847 -1.21201 0
M  V30 1187 O 105.953 1.79904 -0.224535 0
M  V30 1188 C 106.001 0.662 -3.54471 0
M  V30 1189 O 105.105 1.76265 -3.72833 0
M  V30 1190 H 104.446 0.0448722 -0.662482 0
M  V30 1191 H 106.976 -0.491048 -1.9862 0
M  V30 1192 H 106.986 0.940594 -3.9701 0
M  V30 1193 H 105.661 -0.196937 -4.15433 0
M  V30 1194 H 104.238 1.48173 -3.42198 0
M  V30 1195 N 106.423 1.57458 -0.0668435 0
M  V30 1196 C 107.353 2.15468 0.899764 0
M  V30 1197 C 108.334 1.08042 1.31381 0
M  V30 1198 O 109.519 1.36054 1.38574 0
M  V30 1199 C 106.649 2.71232 2.16911 0
M  V30 1200 C 105.603 3.83781 1.89463 0
M  V30 1201 C 104.929 4.26127 3.22986 0
M  V30 1202 C 106.229 5.08238 1.20381 0
M  V30 1203 H 107.923 2.96488 0.416529 0
M  V30 1204 H 105.469 1.4262 0.198908 0
M  V30 1205 H 107.422 3.10458 2.84945 0
M  V30 1206 H 106.146 1.87426 2.67468 0
M  V30 1207 H 104.805 3.45051 1.23836 0
M  V30 1208 H 104.453 3.39249 3.71374 0
M  V30 1209 H 104.153 5.01993 3.05413 0
M  V30 1210 H 105.677 4.67966 3.92225 0
M  V30 1211 H 107.091 5.44811 1.78475 0
M  V30 1212 H 105.488 5.89349 1.13083 0
M  V30 1213 H 106.558 4.84558 0.182153 0
M  V30 1214 N 107.901 -0.206675 1.56239 0
M  V30 1215 C 108.834 -1.28383 1.88661 0
M  V30 1216 C 109.812 -1.44504 0.745481 0
M  V30 1217 O 110.996 -1.60079 0.995336 0
M  V30 1218 C 108.123 -2.65211 2.10667 0
M  V30 1219 C 107.169 -2.66025 3.33366 0
M  V30 1220 S 108.002 -2.18609 4.88846 0
M  V30 1221 C 109.158 -3.57283 5.13906 0
M  V30 1222 H 109.391 -1.00691 2.7973 0
M  V30 1223 H 106.924 -0.409627 1.48867 0
M  V30 1224 H 108.882 -3.43979 2.24029 0
M  V30 1225 H 107.543 -2.90121 1.20369 0
M  V30 1226 H 106.736 -3.66607 3.45855 0
M  V30 1227 H 106.338 -1.95331 3.18938 0
M  V30 1228 H 108.63 -4.53074 5.03717 0
M  V30 1229 H 109.573 -3.49699 6.15724 0
M  V30 1230 H 109.981 -3.51659 4.41583 0
M  V30 1231 N 109.379 -1.50304 -0.473955 0
M  V30 1232 C 110.604 -1.65175 -1.25427 0
M  V30 1233 C 111.029 -0.333673 -1.85117 0
M  V30 1234 O 110.387 0.702114 -1.67153 0
M  V30 1235 C 110.435 -2.74295 -2.34082 0
M  V30 1236 O 109.539 -2.35349 -3.38651 0
M  V30 1237 H 108.88 -0.551944 -0.369126 0
M  V30 1238 H 111.41 -1.96662 -0.564364 0
M  V30 1239 H 111.42 -2.97285 -2.79438 0
M  V30 1240 H 110.095 -3.69959 -1.90008 0
M  V30 1241 H 108.672 -2.22794 -2.99027 0
M  V30 1242 N 110.857 0.726932 -1.39834 0
M  V30 1243 C 112.105 1.4837 -1.37225 0
M  V30 1244 C 112.426 1.94979 0.0284857 0
M  V30 1245 O 111.696 1.69555 0.981213 0
M  V30 1246 H 110.276 0.55043 -0.505011 0
M  V30 1247 H 112.938 0.862468 -1.74778 0
M  V30 1248 H 112.034 2.36198 -2.04003 0
M  V30 1249 N 112.336 1.25143 0.95797 0
M  V30 1250 C 113.266 1.07711 2.07173 0
M  V30 1251 C 114.247 -0.0128462 1.70095 0
M  V30 1252 O 115.432 0.156061 1.93572 0
M  V30 1253 C 112.562 0.691503 3.40346 0
M  V30 1254 C 111.516 1.73132 3.9142 0
M  V30 1255 C 110.842 1.20049 5.21049 0
M  V30 1256 C 112.142 3.1294 4.1817 0
M  V30 1257 H 113.836 2.00873 2.22014 0
M  V30 1258 H 111.382 0.967191 1.06684 0
M  V30 1259 H 113.335 0.556505 4.17709 0
M  V30 1260 H 112.059 -0.275819 3.25433 0
M  V30 1261 H 110.718 1.8547 3.16222 0
M  V30 1262 H 110.366 0.223499 5.02503 0
M  V30 1263 H 110.066 1.89545 5.56189 0
M  V30 1264 H 111.59 1.07782 6.01012 0
M  V30 1265 H 113.004 3.03775 4.86203 0
M  V30 1266 H 111.401 3.79875 4.64559 0
M  V30 1267 H 112.471 3.6025 3.24573 0
M  V30 1268 N 113.814 -1.1601 1.06675 0
M  V30 1269 C 114.777 -2.18724 0.685001 0
M  V30 1270 C 115.777 -1.58496 -0.271246 0
M  V30 1271 O 116.967 -1.74119 -0.0531156 0
M  V30 1272 C 114.099 -3.40899 0.00853648 0
M  V30 1273 H 115.292 -2.54011 1.59431 0
M  V30 1274 H 112.845 -1.30352 0.862441 0
M  V30 1275 H 113.58 -3.11173 -0.913337 0
M  V30 1276 H 113.365 -3.8587 0.696204 0
M  V30 1277 H 114.855 -4.16886 -0.24414 0
M  V30 1278 N 115.292 -0.849877 -1.32721 0
M  V30 1279 C 116.517 -0.463856 -2.02146 0
M  V30 1280 C 116.942 0.930449 -1.63476 0
M  V30 1281 O 116.3 1.61033 -0.832952 0
M  V30 1282 C 116.348 -0.604955 -3.55489 0
M  V30 1283 O 115.452 0.36425 -4.10788 0
M  V30 1284 H 114.793 -0.187046 -0.637111 0
M  V30 1285 H 117.323 -1.14775 -1.69375 0
M  V30 1286 H 117.333 -0.490696 -4.05038 0
M  V30 1287 H 116.008 -1.62174 -3.82978 0
M  V30 1288 H 114.585 0.206628 -3.72327 0
M  V30 1289 N 116.77 1.45427 -0.607355 0
M  V30 1290 C 117.7 2.3329 0.0989352 0
M  V30 1291 C 118.681 1.46816 0.859007 0
M  V30 1292 O 119.866 1.75588 0.829604 0
M  V30 1293 C 116.996 3.29518 1.09705 0
M  V30 1294 C 115.95 4.25626 0.450206 0
M  V30 1295 C 115.276 5.11542 1.55655 0
M  V30 1296 C 116.576 5.18505 -0.628455 0
M  V30 1297 H 118.27 2.92595 -0.634716 0
M  V30 1298 H 115.816 1.40696 -0.306681 0
M  V30 1299 H 117.769 3.89855 1.59971 0
M  V30 1300 H 116.493 2.68372 1.86129 0
M  V30 1301 H 115.152 3.66586 -0.0315886 0
M  V30 1302 H 114.8 4.46765 2.31107 0
M  V30 1303 H 114.5 5.76647 1.12925 0
M  V30 1304 H 116.024 5.74748 2.06148 0
M  V30 1305 H 117.438 5.72916 -0.209877 0
M  V30 1306 H 115.835 5.92085 -0.977489 0
M  V30 1307 H 116.905 4.60948 -1.50514 0
M  V30 1308 N 118.248 0.346503 1.53744 0
M  V30 1309 C 119.525 -0.304532 1.93215 0
M  V30 1310 C 119.905 -1.67993 1.27834 0
M  V30 1311 O 119.253 -2.24411 0.430352 0
M  V30 1312 C 119.463 -0.373852 3.46992 0
M  V30 1313 C 120.811 -0.62329 4.2 0
M  V30 1314 O 121.835 -0.455847 3.53271 0
M  V30 1315 O 120.694 -0.947879 5.38217 0
M  V30 1316 H 117.788 -0.178318 0.807547 0
M  V30 1317 H 120.334 0.397895 1.64969 0
M  V30 1318 H 119.106 0.591224 3.86808 0
M  V30 1319 H 118.729 -1.12294 3.81413 0
M  V30 1320 N 119.726 -1.57421 0.075193 0
M  V30 1321 C 120.689 -2.11791 -0.876203 0
M  V30 1322 C 121.689 -1.04268 -1.22412 0
M  V30 1323 O 122.879 -1.30242 -1.15684 0
M  V30 1324 C 120.011 -2.62207 -2.17854 0
M  V30 1325 H 121.204 -2.9716 -0.40444 0
M  V30 1326 H 118.757 -1.55333 -0.173557 0
M  V30 1327 H 119.492 -1.803 -2.6956 0
M  V30 1328 H 119.277 -3.40802 -1.93897 0
M  V30 1329 H 120.767 -3.04335 -2.85955 0
M  V30 1330 N 121.204 0.198386 -1.56346 0
M  V30 1331 C 122.151 1.24589 -1.94284 0
M  V30 1332 C 123.121 1.454 -0.802997 0
M  V30 1333 O 124.306 1.58588 -1.06087 0
M  V30 1334 C 121.446 2.58631 -2.28482 0
M  V30 1335 C 120.559 2.45426 -3.55514 0
M  V30 1336 C 119.694 3.7215 -3.79049 0
M  V30 1337 C 118.733 3.53763 -4.99518 0
M  V30 1338 N 117.87 4.72491 -5.19323 0
M  V30 1339 H 122.71 0.915356 -2.83593 0
M  V30 1340 H 120.247 0.440629 -1.40346 0
M  V30 1341 H 122.205 3.3672 -2.46324 0
M  V30 1342 H 120.835 2.89734 -1.42317 0
M  V30 1343 H 119.887 1.58652 -3.45737 0
M  V30 1344 H 121.199 2.27772 -4.43758 0
M  V30 1345 H 120.353 4.58679 -3.97113 0
M  V30 1346 H 119.092 3.92754 -2.89129 0
M  V30 1347 H 118.097 2.65619 -4.8138 0
M  V30 1348 H 119.322 3.34607 -5.90944 0
M  V30 1349 H 117.268 4.93365 -4.3235 0
M  V30 1350 H 117.185 4.5765 -6.01741 0
M  V30 1351 H 118.453 5.6038 -5.41843 0
M  V30 1352 N 122.682 1.50554 0.465978 0
M  V30 1353 C 123.91 1.65563 1.24083 0
M  V30 1354 C 124.325 0.341051 1.85694 0
M  V30 1355 O 123.682 -0.677543 1.69457 0
M  V30 1356 C 123.733 2.75051 2.34583 0
M  V30 1357 O 123.454 4.01413 1.75497 0
M  V30 1358 C 124.955 3.01078 3.25372 0
M  V30 1359 H 122.175 0.55638 0.375077 0
M  V30 1360 H 124.719 1.96807 0.555624 0
M  V30 1361 H 122.874 2.46486 2.9887 0
M  V30 1362 H 123.288 4.62002 2.48303 0
M  V30 1363 H 124.762 3.81339 3.99105 0
M  V30 1364 H 125.239 2.12349 3.84453 0
M  V30 1365 H 125.845 3.31194 2.66816 0
M  V30 1366 N 124.16 -0.719506 1.40217 0
M  V30 1367 C 125.385 -1.51371 1.4178 0
M  V30 1368 C 125.81 -1.88091 0.0182355 0
M  V30 1369 O 125.168 -1.52997 -0.972707 0
M  V30 1370 C 125.216 -2.768 2.31115 0
M  V30 1371 O 124.32 -3.73349 1.7517 0
M  V30 1372 H 123.661 -0.456529 0.482159 0
M  V30 1373 H 126.191 -0.88644 1.844 0
M  V30 1374 H 126.201 -3.25371 2.46167 0
M  V30 1375 H 124.876 -2.49407 3.3282 0
M  V30 1376 H 123.453 -3.32179 1.69444 0
M  V30 1377 N 125.638 -1.25649 -0.95132 0
M  V30 1378 C 126.863 -1.13443 -1.73624 0
M  V30 1379 C 127.288 0.307565 -1.85568 0
M  V30 1380 O 126.646 1.22282 -1.33854 0
M  V30 1381 C 126.694 -1.79723 -3.12621 0
M  V30 1382 O 125.798 -1.07912 -3.98031 0
M  V30 1383 H 125.139 -0.395872 -0.533086 0
M  V30 1384 H 127.669 -1.66276 -1.1922 0
M  V30 1385 H 127.679 -1.86141 -3.63064 0
M  V30 1386 H 126.354 -2.84633 -3.03244 0
M  V30 1387 H 124.931 -1.09398 -3.56492 0
M  V30 1388 N 127.117 1.15442 -1.07289 0
M  V30 1389 C 128.533 1.38201 -0.798288 0
M  V30 1390 C 128.733 1.92429 0.597769 0
M  V30 1391 O 127.789 2.12962 1.3566 0
M  V30 1392 C 129.102 2.35357 -1.87156 0
M  V30 1393 C 130.65 2.49021 -1.89624 0
M  V30 1394 C 131.125 3.49468 -2.96034 0
M  V30 1395 N 132.616 3.57003 -2.95132 0
M  V30 1396 C 133.351 4.34543 -3.74112 0
M  V30 1397 N 132.847 5.15421 -4.6294 0
M  V30 1398 N 134.64 4.29625 -3.62462 0
M  V30 1399 H 126.791 0.78584 -1.97328 0
M  V30 1400 H 129.054 0.408065 -0.855679 0
M  V30 1401 H 128.76 2.02626 -2.87464 0
M  V30 1402 H 128.634 3.35129 -1.73114 0
M  V30 1403 H 131.021 2.81051 -0.899687 0
M  V30 1404 H 131.102 1.4925 -2.07745 0
M  V30 1405 H 130.746 3.18173 -3.95889 0
M  V30 1406 H 130.676 4.48992 -2.75161 0
M  V30 1407 H 133.167 2.99276 -2.30743 0
M  V30 1408 H 133.48 5.7183 -5.19837 0
M  V30 1409 H 131.825 5.14729 -4.66989 0
M  V30 1410 H 135.016 3.65505 -2.92444 0
M  V30 1411 H 135.189 4.89807 -4.24256 0
M  V30 1412 N 128.595 0.856903 1.32268 0
M  V30 1413 C 129.525 0.31858 2.31316 0
M  V30 1414 C 130.506 -0.583487 1.59779 0
M  V30 1415 O 131.691 -0.503259 1.87566 0
M  V30 1416 C 128.821 -0.491979 3.43798 0
M  V30 1417 C 127.775 0.315849 4.26833 0
M  V30 1418 C 127.101 -0.619586 5.31098 0
M  V30 1419 C 128.401 1.54282 4.98993 0
M  V30 1420 H 130.095 1.14621 2.76591 0
M  V30 1421 H 127.641 0.552613 1.32974 0
M  V30 1422 H 129.594 -0.879012 4.1213 0
M  V30 1423 H 128.318 -1.35299 2.97257 0
M  V30 1424 H 126.977 0.684664 3.6015 0
M  V30 1425 H 126.625 -1.47751 4.8081 0
M  V30 1426 H 126.325 -0.0830621 5.87541 0
M  V30 1427 H 127.849 -1.00375 6.02293 0
M  V30 1428 H 129.263 1.22796 5.59995 0
M  V30 1429 H 127.66 2.01745 5.65172 0
M  V30 1430 H 128.73 2.30285 4.26728 0
M  V30 1431 N 130.073 -1.45103 0.615059 0
M  V30 1432 C 131.321 -2.01784 0.112955 0
M  V30 1433 C 131.642 -1.48504 -1.26378 0
M  V30 1434 O 130.912 -0.682245 -1.83636 0
M  V30 1435 H 129.492 -0.745993 0.0387668 0
M  V30 1436 H 132.154 -1.77808 0.798141 0
M  V30 1437 H 131.25 -3.12025 0.0684069 0
M  V30 1438 N 131.551 -0.354651 -1.53558 0
M  V30 1439 C 132.797 0.238797 -2.01389 0
M  V30 1440 C 133.13 1.49309 -1.2418 0
M  V30 1441 O 132.405 1.91638 -0.332457 0
M  V30 1442 C 132.688 0.541771 -3.56001 0
M  V30 1443 C 132.541 -0.725388 -4.43912 0
M  V30 1444 C 133.86 1.34685 -4.18984 0
M  V30 1445 H 130.979 0.0853177 -0.732045 0
M  V30 1446 H 133.621 -0.477384 -1.83905 0
M  V30 1447 H 131.771 1.15189 -3.71031 0
M  V30 1448 H 133.443 -1.36313 -4.407 0
M  V30 1449 H 131.686 -1.34801 -4.12324 0
M  V30 1450 H 132.357 -0.468505 -5.50008 0
M  V30 1451 H 134.833 0.830837 -4.07721 0
M  V30 1452 H 133.709 1.52759 -5.27215 0
M  V30 1453 H 133.97 2.35221 -3.74331 0
M  V30 1454 N 133.029 1.57378 -0.0835403 0
M  V30 1455 C 133.959 2.1641 0.87686 0
M  V30 1456 C 134.94 1.09429 1.30228 0
M  V30 1457 O 136.125 1.37516 1.37124 0
M  V30 1458 C 133.255 2.73517 2.14022 0
M  V30 1459 C 132.209 3.85769 1.85381 0
M  V30 1460 C 131.535 4.29529 3.18448 0
M  V30 1461 C 132.835 5.09486 1.14984 0
M  V30 1462 H 134.529 2.96914 0.385059 0
M  V30 1463 H 132.075 1.42823 0.18377 0
M  V30 1464 H 134.028 3.13463 2.81636 0
M  V30 1465 H 132.752 1.90252 2.65465 0
M  V30 1466 H 131.411 3.46345 1.20169 0
M  V30 1467 H 131.059 3.43169 3.67755 0
M  V30 1468 H 130.759 5.05204 3.00071 0
M  V30 1469 H 132.283 4.72099 3.8724 0
M  V30 1470 H 133.697 5.46674 1.72687 0
M  V30 1471 H 132.094 5.90515 1.06826 0
M  V30 1472 H 133.164 4.84724 0.130749 0
M  V30 1473 N 134.507 -0.190092 1.56449 0
M  V30 1474 C 135.735 -0.925772 1.85033 0
M  V30 1475 C 136.15 -1.76638 0.666658 0
M  V30 1476 O 135.507 -1.78822 -0.364565 0
M  V30 1477 C 135.558 -1.81786 3.12468 0
M  V30 1478 O 135.279 -1.01118 4.26271 0
M  V30 1479 C 136.78 -2.6648 3.54265 0
M  V30 1480 H 134 -0.269872 0.614337 0
M  V30 1481 H 136.544 -0.195837 2.0356 0
M  V30 1482 H 134.699 -2.50136 2.95822 0
M  V30 1483 H 135.113 -1.61956 4.98869 0
M  V30 1484 H 136.587 -3.24722 4.46385 0
M  V30 1485 H 137.064 -3.40434 2.77491 0
M  V30 1486 H 137.67 -2.03493 3.73458 0
M  V30 1487 N 135.985 -1.50799 -0.457987 0
M  V30 1488 C 137.231 -1.62683 -1.21088 0
M  V30 1489 C 137.564 -0.332268 -1.91336 0
M  V30 1490 O 136.839 0.667043 -1.82704 0
M  V30 1491 C 137.122 -2.81615 -2.24422 0
M  V30 1492 C 136.975 -4.20989 -1.58392 0
M  V30 1493 C 138.294 -2.96085 -3.2561 0
M  V30 1494 H 135.413 -0.592087 -0.438864 0
M  V30 1495 H 138.055 -1.83225 -0.50286 0
M  V30 1496 H 136.205 -2.64231 -2.84806 0
M  V30 1497 H 137.877 -4.49994 -1.01504 0
M  V30 1498 H 136.12 -4.24641 -0.886704 0
M  V30 1499 H 136.791 -5.0016 -2.33547 0
M  V30 1500 H 139.267 -3.12042 -2.75262 0
M  V30 1501 H 138.143 -3.80902 -3.95228 0
M  V30 1502 H 138.404 -2.0726 -3.90507 0
M  V30 1503 N 137.463 0.71206 -1.40597 0
M  V30 1504 C 138.426 1.80785 -1.40888 0
M  V30 1505 C 139.426 1.57937 -0.302103 0
M  V30 1506 O 140.616 1.64913 -0.561182 0
M  V30 1507 C 137.748 3.18927 -1.20409 0
M  V30 1508 H 138.941 1.81924 -2.38419 0
M  V30 1509 H 136.494 0.91805 -1.26497 0
M  V30 1510 H 137.229 3.23436 -0.236522 0
M  V30 1511 H 137.014 3.36911 -2.00582 0
M  V30 1512 H 138.504 3.98949 -1.23408 0
M  V30 1513 N 138.941 1.26152 0.944643 0
M  V30 1514 C 140.171 1.14094 1.72239 0
M  V30 1515 C 140.579 -0.306931 1.86694 0
M  V30 1516 O 139.922 -1.22222 1.3714 0
M  V30 1517 C 139.984 1.73316 3.14963 0
M  V30 1518 C 139.648 3.2239 3.23904 0
M  V30 1519 C 140.645 4.19252 3.07447 0
M  V30 1520 C 138.33 3.62788 3.47405 0
M  V30 1521 C 140.324 5.54491 3.14353 0
M  V30 1522 C 138.011 4.98162 3.53947 0
M  V30 1523 C 139.009 5.93823 3.37436 0
M  V30 1524 O 138.697 7.26732 3.43679 0
M  V30 1525 H 138.429 0.398292 0.546205 0
M  V30 1526 H 140.983 1.67201 1.19301 0
M  V30 1527 H 139.213 1.14667 3.69308 0
M  V30 1528 H 140.902 1.56214 3.74636 0
M  V30 1529 H 141.668 3.8938 2.8915 0
M  V30 1530 H 137.547 2.88816 3.59313 0
M  V30 1531 H 141.091 6.29137 3.01384 0
M  V30 1532 H 136.988 5.27695 3.71763 0
M  V30 1533 H 137.756 7.3496 3.60245 0
M  V30 1534 N 140.419 -1.14872 1.07899 0
M  V30 1535 C 141.649 -1.89386 0.825631 0
M  V30 1536 C 142.057 -1.78565 -0.625406 0
M  V30 1537 O 141.4 -1.13918 -1.44113 0
M  V30 1538 C 141.462 -3.40206 1.16191 0
M  V30 1539 C 141.126 -3.74812 2.61467 0
M  V30 1540 C 142.123 -3.75367 3.59716 0
M  V30 1541 C 139.808 -4.0495 2.97189 0
M  V30 1542 C 141.802 -4.05574 4.9172 0
M  V30 1543 C 139.489 -4.34821 4.29388 0
M  V30 1544 C 140.487 -4.35116 5.26463 0
M  V30 1545 O 140.175 -4.64267 6.56286 0
M  V30 1546 H 139.907 -0.606894 0.297751 0
M  V30 1547 H 142.461 -1.46438 1.44031 0
M  V30 1548 H 140.691 -3.8358 0.490214 0
M  V30 1549 H 142.38 -3.96018 0.890193 0
M  V30 1550 H 143.146 -3.52176 3.33462 0
M  V30 1551 H 139.025 -4.03876 2.22273 0
M  V30 1552 H 142.569 -4.05719 5.67484 0
M  V30 1553 H 138.466 -4.5748 4.55392 0
M  V30 1554 H 139.234 -4.82007 6.61522 0
M  V30 1555 N 141.898 -0.863906 -1.31812 0
M  V30 1556 C 142.828 -0.330843 -2.31144 0
M  V30 1557 C 143.809 0.575005 -1.60087 0
M  V30 1558 O 144.994 0.493304 -1.8783 0
M  V30 1559 C 142.124 0.47374 -3.44054 0
M  V30 1560 C 141.078 -0.338481 -4.26659 0
M  V30 1561 C 140.404 0.591412 -5.31419 0
M  V30 1562 C 141.704 -1.56926 -4.98168 0
M  V30 1563 H 143.398 -1.16086 -2.75979 0
M  V30 1564 H 140.944 -0.559657 -1.32679 0
M  V30 1565 H 142.897 0.857143 -4.12591 0
M  V30 1566 H 141.621 1.33721 -2.9797 0
M  V30 1567 H 140.28 -0.703754 -3.59782 0
M  V30 1568 H 139.928 1.45199 -4.81587 0
M  V30 1569 H 139.628 0.0519022 -5.87577 0
M  V30 1570 H 141.152 0.97179 -6.02817 0
M  V30 1571 H 142.566 -1.25764 -5.59336 0
M  V30 1572 H 140.963 -2.04739 -5.64094 0
M  V30 1573 H 142.033 -2.32544 -4.25501 0
M  V30 1574 N 143.376 1.44774 -0.622745 0
M  V30 1575 C 144.622 2.02968 -0.13257 0
M  V30 1576 C 144.977 1.48047 1.22881 0
M  V30 1577 O 144.27 0.651625 1.80179 0
M  V30 1578 C 144.464 3.57364 -0.0508323 0
M  V30 1579 C 144.293 4.27262 -1.40275 0
M  V30 1580 C 143.063 4.64577 -1.98737 0
M  V30 1581 C 145.261 4.58248 -2.3348 0
M  V30 1582 N 143.243 5.19404 -3.27251 0
M  V30 1583 C 144.614 5.14069 -3.46603 0
M  V30 1584 C 146.669 4.40195 -2.32664 0
M  V30 1585 C 145.372 5.53738 -4.59093 0
M  V30 1586 C 147.398 4.80907 -3.44213 0
M  V30 1587 C 146.76 5.36834 -4.56058 0
M  V30 1588 H 142.859 0.776541 -0.0922354 0
M  V30 1589 H 145.443 1.76385 -0.82441 0
M  V30 1590 H 143.614 3.83576 0.610265 0
M  V30 1591 H 145.346 4.02219 0.447397 0
M  V30 1592 H 142.101 4.48622 -1.51774 0
M  V30 1593 H 142.525 5.51301 -3.92933 0
M  V30 1594 H 147.167 3.96257 -1.47446 0
M  V30 1595 H 144.885 5.96635 -5.45025 0
M  V30 1596 H 148.471 4.68659 -3.44747 0
M  V30 1597 H 147.351 5.67755 -5.40947 0
M  V30 1598 N 144.854 0.36279 1.53368 0
M  V30 1599 C 146.082 -0.228613 2.05633 0
M  V30 1600 C 146.497 -1.42676 1.23649 0
M  V30 1601 O 145.854 -1.80394 0.27647 0
M  V30 1602 C 145.905 -0.624845 3.56059 0
M  V30 1603 O 145.626 0.525675 4.34935 0
M  V30 1604 C 147.127 -1.27493 4.24571 0
M  V30 1605 H 144.347 -0.0407183 0.669763 0
M  V30 1606 H 146.891 0.520352 1.97769 0
M  V30 1607 H 145.046 -1.32373 3.64083 0
M  V30 1608 H 145.46 0.205969 5.24095 0
M  V30 1609 H 146.934 -1.50277 5.31151 0
M  V30 1610 H 147.411 -2.23439 3.78116 0
M  V30 1611 H 148.017 -0.617558 4.20792 0
M  V30 1612 N 146.332 -1.57332 0.0918853 0
M  V30 1613 C 147.56 -1.98574 -0.581048 0
M  V30 1614 C 147.975 -0.970903 -1.61923 0
M  V30 1615 O 147.332 0.0399054 -1.82456 0
M  V30 1616 C 147.383 -3.39872 -1.23164 0
M  V30 1617 O 147.104 -4.37469 -0.234989 0
M  V30 1618 C 148.605 -3.96099 -1.99049 0
M  V30 1619 H 145.825 -0.65261 -0.156018 0
M  V30 1620 H 148.369 -2.0379 0.170225 0
M  V30 1621 H 146.524 -3.35679 -1.93386 0
M  V30 1622 H 146.938 -5.19751 -0.70418 0
M  V30 1623 H 148.412 -4.97127 -2.39934 0
M  V30 1624 H 148.889 -3.3374 -2.85507 0
M  V30 1625 H 149.495 -4.03755 -1.3365 0
M  V30 1626 N 147.81 0.181792 -1.56548 0
M  V30 1627 C 149.057 0.900097 -1.81396 0
M  V30 1628 C 149.385 1.82695 -0.667281 0
M  V30 1629 O 148.64 1.92614 0.346146 0
M  V30 1630 C 148.939 1.73728 -3.12335 0
M  V30 1631 C 148.605 0.960255 -4.40556 0
M  V30 1632 C 147.267 0.745766 -4.75386 0
M  V30 1633 C 149.619 0.414477 -5.19549 0
M  V30 1634 C 146.947 -0.0257694 -5.86694 0
M  V30 1635 C 149.299 -0.343916 -6.31664 0
M  V30 1636 C 147.963 -0.569301 -6.65068 0
M  V30 1637 H 147.233 0.329369 -0.663775 0
M  V30 1638 H 149.88 0.165647 -1.90782 0
M  V30 1639 H 148.185 2.54081 -2.98245 0
M  V30 1640 H 149.882 2.29591 -3.28769 0
M  V30 1641 H 146.472 1.13746 -4.13231 0
M  V30 1642 H 150.656 0.567554 -4.93044 0
M  V30 1643 H 145.912 -0.210233 -6.11038 0
M  V30 1644 H 150.086 -0.774133 -6.92084 0
M  V30 1645 H 147.713 -1.16903 -7.51158 0
M  V30 1646 N 149.288 1.51039 0.449983 0
M  V30 1647 C 150.221 1.66105 1.56474 0
M  V30 1648 C 151.199 0.508776 1.54435 0
M  V30 1649 O 152.383 0.731005 1.73749 0
M  V30 1650 C 149.51 1.66304 2.9506 0
M  V30 1651 C 148.556 2.87346 3.15174 0
M  V30 1652 S 149.389 4.4835 2.92818 0
M  V30 1653 C 150.545 4.51274 4.33708 0
M  V30 1654 H 150.778 2.60397 1.43459 0
M  V30 1655 H 148.311 1.40565 0.638805 0
M  V30 1656 H 150.269 1.67103 3.74949 0
M  V30 1657 H 148.93 0.732108 3.05449 0
M  V30 1658 H 148.123 2.83849 4.16468 0
M  V30 1659 H 147.725 2.84223 2.43091 0
M  V30 1660 H 150.017 4.26136 5.26701 0
M  V30 1661 H 150.96 5.53017 4.42242 0
M  V30 1662 H 151.368 3.80738 4.16772 0
M  V30 1663 N 150.766 -0.704594 1.40972 0
M  V30 1664 C 151.729 -1.80035 1.41845 0
M  V30 1665 C 152.729 -1.57774 0.310474 0
M  V30 1666 O 153.919 -1.64613 0.56992 0
M  V30 1667 C 151.051 -3.18284 1.22098 0
M  V30 1668 H 152.244 -1.80658 2.3938 0
M  V30 1669 H 149.797 -0.911329 1.26982 0
M  V30 1670 H 150.532 -3.23306 0.253672 0
M  V30 1671 H 150.317 -3.35843 2.02366 0
M  V30 1672 H 151.807 -3.98289 1.25522 0
M  V30 1673 N 152.244 -1.26651 -0.937939 0
M  V30 1674 C 153.49 -1.12553 -1.687 0
M  V30 1675 C 153.823 0.329782 -1.91379 0
M  V30 1676 O 153.098 1.24202 -1.4968 0
M  V30 1677 C 153.381 -1.89862 -3.05981 0
M  V30 1678 C 153.234 -3.43318 -2.90607 0
M  V30 1679 C 154.553 -1.69499 -4.0615 0
M  V30 1680 H 151.672 -0.410257 -0.612257 0
M  V30 1681 H 154.314 -1.55685 -1.08913 0
M  V30 1682 H 152.464 -1.53204 -3.57017 0
M  V30 1683 H 154.136 -3.89747 -2.46769 0
M  V30 1684 H 152.379 -3.70179 -2.26164 0
M  V30 1685 H 153.05 -3.92642 -3.8799 0
M  V30 1686 H 155.526 -2.01442 -3.64088 0
M  V30 1687 H 154.402 -2.26002 -5.00214 0
M  V30 1688 H 154.663 -0.640365 -4.37438 0
M  V30 1689 N 153.722 1.14298 -1.08507 0
M  V30 1690 C 154.971 1.84708 -0.810305 0
M  V30 1691 C 155.284 1.83903 0.666271 0
M  V30 1692 O 156.49 2.50112 1.05624 0
M  V30 1693 C 154.946 3.31572 -1.39957 0
M  V30 1694 C 154.554 3.40791 -2.90801 0
M  V30 1695 C 156.298 4.07087 -1.20334 0
M  V30 1696 C 154.205 4.81872 -3.4286 0
M  V30 1697 H 153.135 0.691985 -0.299454 0
M  V30 1698 H 155.786 1.28841 -1.30661 0
M  V30 1699 H 154.168 3.87183 -0.830976 0
M  V30 1700 H 155.342 2.95225 -3.53806 0
M  V30 1701 H 153.657 2.78732 -3.0935 0
M  V30 1702 H 156.254 5.11225 -1.56693 0
M  V30 1703 H 156.597 4.16054 -0.143237 0
M  V30 1704 H 157.13 3.57779 -1.73893 0
M  V30 1705 H 153.869 4.78094 -4.48449 0
M  V30 1706 H 153.389 5.27972 -2.84615 0
M  V30 1707 H 155.068 5.50765 -3.39509 0
M  V30 1708 N 155.201 0.870884 1.31352 0
M  V30 1709 C 156.447 0.482987 1.96965 0
M  V30 1710 C 156.78 -0.962462 1.68672 0
M  V30 1711 O 156.055 -1.6779 0.98371 0
M  V30 1712 C 156.338 0.741752 3.52378 0
M  V30 1713 C 156.191 2.2368 3.9024 0
M  V30 1714 C 157.51 0.208838 4.39604 0
M  V30 1715 H 154.629 0.176955 0.715441 0
M  V30 1716 H 157.271 1.09229 1.55464 0
M  V30 1717 H 155.421 0.223149 3.87859 0
M  V30 1718 H 157.093 2.82273 3.64856 0
M  V30 1719 H 155.336 2.70901 3.38814 0
M  V30 1720 H 156.007 2.3685 4.98604 0
M  V30 1721 H 158.483 0.652529 4.10952 0
M  V30 1722 H 157.359 0.419336 5.47296 0
M  V30 1723 H 157.62 -0.889275 4.33064 0
M  V30 1724 N 156.679 -1.44442 0.630414 0
M  V30 1725 C 157.927 -2.01653 0.134351 0
M  V30 1726 C 158.248 -1.49836 -1.24796 0
M  V30 1727 O 157.518 -0.701684 -1.82902 0
M  V30 1728 H 156.098 -0.74554 0.0466769 0
M  V30 1729 H 158.76 -1.76952 0.816955 0
M  V30 1730 H 157.856 -3.11935 0.101498 0
M  V30 1731 N 158.157 -0.370918 -1.53173 0
M  V30 1732 C 159.406 0.218249 -2.00516 0
M  V30 1733 C 159.719 1.49429 -1.26215 0
M  V30 1734 O 160.925 2.16239 -1.64174 0
M  V30 1735 C 159.381 0.43948 -3.57207 0
M  V30 1736 C 158.989 -0.822244 -4.4039 0
M  V30 1737 C 160.733 0.986012 -4.1289 0
M  V30 1738 C 158.64 -0.570304 -5.88644 0
M  V30 1739 H 157.57 0.0853333 -0.749156 0
M  V30 1740 H 160.221 -0.490483 -1.76823 0
M  V30 1741 H 158.603 1.20961 -3.77074 0
M  V30 1742 H 159.777 -1.59557 -4.32294 0
M  V30 1743 H 158.092 -1.29238 -3.95836 0
M  V30 1744 H 160.689 1.18991 -5.21292 0
M  V30 1745 H 161.032 1.94972 -3.6782 0
M  V30 1746 H 161.565 0.27592 -3.96842 0
M  V30 1747 H 158.304 -1.50449 -6.38001 0
M  V30 1748 H 157.824 0.164427 -5.99575 0
M  V30 1749 H 159.503 -0.19784 -6.46697 0
M  V30 1750 N 159.635 1.57281 -0.100228 0
M  V30 1751 C 160.882 1.94537 0.562268 0
M  V30 1752 C 161.21 0.982315 1.67871 0
M  V30 1753 O 160.465 0.00280936 1.957 0
M  V30 1754 C 160.764 3.38305 1.15259 0
M  V30 1755 C 160.43 4.50618 0.159409 0
M  V30 1756 C 159.092 4.81066 -0.113741 0
M  V30 1757 C 161.444 5.18615 -0.518461 0
M  V30 1758 C 158.772 5.76835 -1.07137 0
M  V30 1759 C 161.124 6.15412 -1.46459 0
M  V30 1760 C 159.788 6.44262 -1.74592 0
M  V30 1761 H 159.058 0.711863 0.205748 0
M  V30 1762 H 161.705 1.90679 -0.17715 0
M  V30 1763 H 160.01 3.38766 1.96836 0
M  V30 1764 H 161.707 3.64435 1.67297 0
M  V30 1765 H 158.297 4.2689 0.382491 0
M  V30 1766 H 162.481 4.95264 -0.320581 0
M  V30 1767 H 157.737 5.975 -1.29628 0
M  V30 1768 H 161.911 6.67194 -1.99564 0
M  V30 1769 H 159.538 7.1828 -2.48953 0
M  V30 1770 N 161.113 -0.173488 1.56642 0
M  V30 1771 C 162.046 -1.24353 1.91342 0
M  V30 1772 C 163.024 -1.4289 0.775965 0
M  V30 1773 O 164.208 -1.57932 1.02907 0
M  V30 1774 C 161.335 -2.60683 2.16245 0
M  V30 1775 C 160.381 -2.58894 3.38934 0
M  V30 1776 S 161.214 -2.0819 4.93373 0
M  V30 1777 C 162.37 -3.46302 5.21369 0
M  V30 1778 H 162.603 -0.947345 2.81803 0
M  V30 1779 H 160.136 -0.377958 1.49703 0
M  V30 1780 H 162.094 -3.39149 2.31275 0
M  V30 1781 H 160.755 -2.87502 1.26496 0
M  V30 1782 H 159.948 -3.59188 3.53553 0
M  V30 1783 H 159.55 -1.88522 3.2301 0
M  V30 1784 H 161.842 -4.42287 5.13214 0
M  V30 1785 H 162.785 -3.3656 6.23003 0
M  V30 1786 H 163.193 -3.42214 4.48943 0
M  V30 1787 N 162.591 -1.51276 -0.441967 0
M  V30 1788 C 163.837 -1.63958 -1.19355 0
M  V30 1789 C 164.17 -0.352543 -1.90973 0
M  V30 1790 O 163.445 0.647627 -1.83401 0
M  V30 1791 C 163.728 -2.83979 -2.21422 0
M  V30 1792 C 163.581 -4.22646 -1.53918 0
M  V30 1793 C 164.9 -2.99521 -3.22451 0
M  V30 1794 H 162.019 -0.596709 -0.432559 0
M  V30 1795 H 164.661 -1.83748 -0.483398 0
M  V30 1796 H 162.811 -2.67237 -2.81987 0
M  V30 1797 H 164.483 -4.51045 -0.967256 0
M  V30 1798 H 162.726 -4.25558 -0.841615 0
M  V30 1799 H 163.397 -5.02609 -2.28229 0
M  V30 1800 H 165.873 -3.14944 -2.71937 0
M  V30 1801 H 164.749 -3.85072 -3.91166 0
M  V30 1802 H 165.01 -2.11391 -3.88287 0
M  V30 1803 N 164.069 0.697108 -1.41344 0
M  V30 1804 C 165.294 1.49096 -1.44171 0
M  V30 1805 C 165.719 1.88038 -0.0481568 0
M  V30 1806 O 165.077 1.54525 0.948243 0
M  V30 1807 C 165.125 2.73088 -2.3549 0
M  V30 1808 O 164.229 3.70514 -1.81088 0
M  V30 1809 H 163.57 0.448801 -0.489361 0
M  V30 1810 H 166.1 0.856992 -1.85787 0
M  V30 1811 H 166.11 3.21413 -2.51312 0
M  V30 1812 H 164.785 2.44081 -3.36745 0
M  V30 1813 H 163.362 3.29441 -1.74708 0
M  V30 1814 N 165.547 1.27147 0.931209 0
M  V30 1815 C 166.796 1.12664 1.67302 0
M  V30 1816 C 167.109 -0.327718 1.92835 0
M  V30 1817 O 168.315 -0.593392 2.64936 0
M  V30 1818 C 166.771 1.9683 3.01307 0
M  V30 1819 C 166.379 3.46901 2.83485 0
M  V30 1820 C 168.123 1.90985 3.79111 0
M  V30 1821 C 166.03 4.23279 4.13024 0
M  V30 1822 H 164.96 0.41803 0.627509 0
M  V30 1823 H 167.611 1.51539 1.03481 0
M  V30 1824 H 165.993 1.50797 3.66164 0
M  V30 1825 H 167.167 4.00773 2.27415 0
M  V30 1826 H 165.482 3.54088 2.19113 0
M  V30 1827 H 168.079 2.45328 4.75098 0
M  V30 1828 H 168.422 0.882718 4.06834 0
M  V30 1829 H 168.955 2.34895 3.21044 0
M  V30 1830 H 165.694 5.26503 3.90481 0
M  V30 1831 H 165.214 3.74186 4.6877 0
M  V30 1832 H 166.893 4.32265 4.81411 0
M  V30 1833 N 167.025 -1.13721 1.09112 0
M  V30 1834 C 168.274 -1.84275 0.82009 0
M  V30 1835 C 168.587 -1.84253 -0.656509 0
M  V30 1836 O 169.793 -2.50668 -1.04296 0
M  V30 1837 C 168.249 -3.30825 1.41714 0
M  V30 1838 C 167.857 -3.39244 2.92605 0
M  V30 1839 C 169.601 -4.06443 1.22492 0
M  V30 1840 C 167.508 -4.80047 3.45411 0
M  V30 1841 H 166.438 -0.690387 0.30312 0
M  V30 1842 H 169.089 -1.28146 1.31343 0
M  V30 1843 H 167.471 -3.86737 0.851498 0
M  V30 1844 H 168.645 -2.93344 3.55367 0
M  V30 1845 H 166.96 -2.77088 3.10823 0
M  V30 1846 H 169.557 -5.10387 1.59402 0
M  V30 1847 H 169.9 -4.15972 0.165299 0
M  V30 1848 H 170.433 -3.56852 1.75788 0
M  V30 1849 H 167.172 -4.75709 4.50978 0
M  V30 1850 H 166.692 -5.26455 2.87411 0
M  V30 1851 H 168.371 -5.48957 3.42425 0
M  V30 1852 N 168.503 -0.877838 -1.30888 0
M  V30 1853 C 169.453 -0.310872 -2.25871 0
M  V30 1854 C 170.437 0.556596 -1.50966 0
M  V30 1855 O 171.629 0.402187 -1.7237 0
M  V30 1856 C 168.758 0.479821 -3.3993 0
M  V30 1857 C 167.844 -0.401333 -4.22197 0
M  V30 1858 N 168.235 -1.49848 -4.83093 0
M  V30 1859 C 166.533 -0.195167 -4.45573 0
M  V30 1860 C 167.234 -2.0425 -5.44662 0
M  V30 1861 N 166.21 -1.33843 -5.26865 0
M  V30 1862 H 170.012 -1.1493 -2.70496 0
M  V30 1863 H 167.526 -0.726458 -1.45246 0
M  V30 1864 H 169.523 0.902582 -4.07012 0
M  V30 1865 H 168.183 1.31577 -2.96846 0
M  V30 1866 H 169.194 -1.88137 -4.82519 0
M  V30 1867 H 165.871 0.604192 -4.13105 0
M  V30 1868 H 167.261 -2.96345 -6.03017 0
M  V30 1869 N 169.982 1.44106 -0.638065 0
M  V30 1870 C 171.393 1.85316 -0.226894 0
M  V30 1871 C 171.744 1.53399 1.22324 0
M  V30 1872 O 170.869 0.975463 1.93167 0
M  V30 1873 C 171.464 3.3637 -0.405013 0
M  V30 1874 C 170.023 3.76369 -0.0482902 0
M  V30 1875 C 169.17 2.67921 -0.715108 0
M  V30 1876 H 172.121 1.34474 -0.842764 0
M  V30 1877 H 172.142 3.7885 0.354 0
M  V30 1878 H 171.654 3.59569 -1.46053 0
M  V30 1879 H 169.755 3.58784 1.00522 0
M  V30 1880 H 169.868 4.76856 -0.463187 0
M  V30 1881 H 168.232 2.54259 -0.149753 0
M  V30 1882 H 169.015 2.93951 -1.77335 0
M  V30 1883 N 171.46 0.379036 1.52974 0
M  V30 1884 C 172.708 -0.206014 2.01047 0
M  V30 1885 C 173.029 -1.48175 1.26765 0
M  V30 1886 O 172.299 -1.92085 0.384743 0
M  V30 1887 H 170.879 -0.0791184 0.742798 0
M  V30 1888 H 173.541 0.508366 1.88153 0
M  V30 1889 H 172.637 -0.423501 3.09213 0
M  V30 1890 N 172.938 -1.57226 0.108567 0
M  V30 1891 C 174.163 -1.99604 -0.563303 0
M  V30 1892 C 174.588 -0.987563 -1.6009 0
M  V30 1893 O 173.946 0.0421687 -1.81251 0
M  V30 1894 C 173.994 -3.40902 -1.17552 0
M  V30 1895 O 173.098 -3.42896 -2.2912 0
M  V30 1896 H 172.439 -0.648704 -0.1417 0
M  V30 1897 H 174.969 -2.03679 0.193961 0
M  V30 1898 H 174.979 -3.78886 -1.51357 0
M  V30 1899 H 173.654 -4.1382 -0.415445 0
M  V30 1900 H 172.231 -3.1672 -1.96832 0
M  V30 1901 N 174.416 0.165178 -1.56732 0
M  V30 1902 C 175.379 1.18822 -1.95995 0
M  V30 1903 C 176.379 1.3685 -0.84431 0
M  V30 1904 O 177.569 1.34152 -1.11126 0
M  V30 1905 C 174.701 2.5521 -2.26011 0
M  V30 1906 H 175.894 0.851825 -2.87548 0
M  V30 1907 H 173.447 0.407857 -1.50885 0
M  V30 1908 H 174.182 2.93852 -1.37191 0
M  V30 1909 H 173.967 2.43489 -3.07336 0
M  V30 1910 H 175.457 3.28927 -2.57288 0
M  V30 1911 N 175.894 1.51508 0.433938 0
M  V30 1912 C 176.857 1.72473 1.50949 0
M  V30 1913 C 177.857 0.594725 1.49398 0
M  V30 1914 O 179.047 0.862315 1.5136 0
M  V30 1915 C 176.179 1.78431 2.90474 0
M  V30 1916 H 177.372 2.68467 1.33662 0
M  V30 1917 H 174.925 1.41549 0.662836 0
M  V30 1918 H 175.66 0.842645 3.13161 0
M  V30 1919 H 175.445 2.60558 2.93005 0
M  V30 1920 H 176.935 1.96479 3.68491 0
M  V30 1921 N 177.372 -0.689602 1.41712 0
M  V30 1922 C 178.304 -1.815 1.39966 0
M  V30 1923 C 179.317 -1.59995 0.300917 0
M  V30 1924 O 180.506 -1.69387 0.563039 0
M  V30 1925 C 177.606 -3.18364 1.16179 0
M  V30 1926 C 176.779 -3.66847 2.38206 0
M  V30 1927 C 175.838 -4.82398 2.10186 0
M  V30 1928 O 174.864 -4.93706 2.83272 0
M  V30 1929 N 176.066 -5.70064 1.0958 0
M  V30 1930 H 178.831 -1.83488 2.36965 0
M  V30 1931 H 176.392 -0.872149 1.36401 0
M  V30 1932 H 178.384 -3.93301 0.953756 0
M  V30 1933 H 176.954 -3.11365 0.27756 0
M  V30 1934 H 176.174 -2.82751 2.74673 0
M  V30 1935 H 177.462 -3.95978 3.19498 0
M  V30 1936 H 176.86 -5.63565 0.491019 0
M  V30 1937 H 175.417 -6.44874 0.947656 0
M  V30 1938 N 178.85 -1.27639 -0.924453 0
M  V30 1939 C 179.797 -1.10644 -2.0255 0
M  V30 1940 C 180.767 -0.00658438 -1.66099 0
M  V30 1941 O 181.952 -0.16952 -1.90045 0
M  V30 1942 C 179.092 -0.76309 -3.36557 0
M  V30 1943 C 178.205 -1.94091 -3.85944 0
M  V30 1944 C 177.34 -1.53914 -5.08413 0
M  V30 1945 C 176.379 -2.68425 -5.50104 0
M  V30 1946 N 175.516 -2.28815 -6.63768 0
M  V30 1947 H 180.356 -2.04858 -2.16419 0
M  V30 1948 H 177.893 -1.01974 -1.06017 0
M  V30 1949 H 179.851 -0.544822 -4.13627 0
M  V30 1950 H 178.481 0.142102 -3.22487 0
M  V30 1951 H 177.533 -2.27162 -3.05125 0
M  V30 1952 H 178.845 -2.7998 -4.12811 0
M  V30 1953 H 177.999 -1.28231 -5.92994 0
M  V30 1954 H 176.738 -0.651391 -4.8333 0
M  V30 1955 H 175.743 -2.94819 -4.64071 0
M  V30 1956 H 176.968 -3.57826 -5.7718 0
M  V30 1957 H 174.914 -1.42495 -6.40337 0
M  V30 1958 H 174.831 -3.08242 -6.90306 0
M  V30 1959 H 176.099 -2.06387 -7.51681 0
M  V30 1960 N 180.328 1.1314 -1.09713 0
M  V30 1961 C 181.238 2.22242 -0.751367 0
M  V30 1962 C 182.254 1.72224 0.247938 0
M  V30 1963 O 183.43 2.01205 0.0885463 0
M  V30 1964 C 180.495 3.46231 -0.180274 0
M  V30 1965 C 179.556 4.11125 -1.2359 0
M  V30 1966 C 178.789 5.29195 -0.691966 0
M  V30 1967 O 179.012 5.68342 0.48414 0
M  V30 1968 O 177.946 5.84214 -1.44838 0
M  V30 1969 H 181.772 2.54197 -1.66186 0
M  V30 1970 H 179.357 1.21331 -0.871735 0
M  V30 1971 H 181.239 4.21185 0.134739 0
M  V30 1972 H 179.914 3.1597 0.703185 0
M  V30 1973 H 178.821 3.37985 -1.60366 0
M  V30 1974 H 180.154 4.45524 -2.09211 0
M  V30 1975 N 181.806 0.884767 1.30421 0
M  V30 1976 C 183.034 0.518044 2.0031 0
M  V30 1977 C 183.449 -0.893408 1.66324 0
M  V30 1978 O 182.806 -1.5875 0.900262 0
M  V30 1979 C 182.857 0.682997 3.54989 0
M  V30 1980 O 182.578 2.03888 3.87764 0
M  V30 1981 C 184.079 0.31924 4.42149 0
M  V30 1982 H 181.299 0.200265 0.640418 0
M  V30 1983 H 183.843 1.19001 1.6631 0
M  V30 1984 H 181.998 0.0584052 3.87356 0
M  V30 1985 H 182.412 2.05735 4.82466 0
M  V30 1986 H 183.886 0.485555 5.4986 0
M  V30 1987 H 184.363 -0.742717 4.32875 0
M  V30 1988 H 184.969 0.920147 4.15227 0
M  V30 1989 N 183.284 -1.43765 0.645699 0
M  V30 1990 C 184.512 -2.06253 0.163556 0
M  V30 1991 C 184.927 -1.48352 -1.16778 0
M  V30 1992 O 184.284 -0.611932 -1.71935 0
M  V30 1993 C 184.335 -3.61453 0.0583186 0
M  V30 1994 O 184.056 -4.172 1.33702 0
M  V30 1995 C 185.557 -4.41002 -0.450795 0
M  V30 1996 H 182.777 -0.665413 0.0864077 0
M  V30 1997 H 185.321 -1.84396 0.884222 0
M  V30 1998 H 183.476 -3.82522 -0.612865 0
M  V30 1999 H 183.89 -5.10791 1.19131 0
M  V30 2000 H 185.364 -5.49966 -0.473403 0
M  V30 2001 H 185.841 -4.13488 -1.48068 0
M  V30 2002 H 186.447 -4.24886 0.187637 0
M  V30 2003 N 184.763 -0.387143 -1.52771 0
M  V30 2004 C 185.673 0.456442 -2.30117 0
M  V30 2005 C 186.689 1.07342 -1.36944 0
M  V30 2006 O 187.865 1.07971 -1.70013 0
M  V30 2007 C 184.93 1.56957 -3.09136 0
M  V30 2008 C 183.991 0.977916 -4.18014 0
M  V30 2009 C 183.224 2.038 -4.93256 0
M  V30 2010 O 183.447 3.25271 -4.68567 0
M  V30 2011 O 182.381 1.6565 -5.78657 0
M  V30 2012 H 186.207 -0.17359 -3.03203 0
M  V30 2013 H 183.792 -0.150919 -1.48636 0
M  V30 2014 H 185.674 2.21628 -3.58412 0
M  V30 2015 H 184.349 2.18461 -2.38865 0
M  V30 2016 H 183.256 0.294525 -3.72939 0
M  V30 2017 H 184.589 0.407128 -4.90513 0
M  V30 2018 N 186.241 1.57166 -0.116904 0
M  V30 2019 C 187.173 2.12271 0.864507 0
M  V30 2020 C 188.186 1.06494 1.23138 0
M  V30 2021 O 189.375 1.33873 1.18069 0
M  V30 2022 C 186.475 2.60564 2.16702 0
M  V30 2023 C 185.648 3.90416 1.97216 0
M  V30 2024 C 184.707 4.24329 3.11178 0
M  V30 2025 O 183.733 4.93182 2.84184 0
M  V30 2026 N 184.935 3.8148 4.37554 0
M  V30 2027 H 187.7 2.97102 0.393726 0
M  V30 2028 H 185.261 1.61759 0.0675805 0
M  V30 2029 H 187.253 2.80282 2.91932 0
M  V30 2030 H 185.823 1.80623 2.55135 0
M  V30 2031 H 185.043 3.79627 1.06192 0
M  V30 2032 H 186.331 4.75327 1.81499 0
M  V30 2033 H 185.729 3.25943 4.62361 0
M  V30 2034 H 184.286 4.06311 5.09661 0
M  V30 2035 N 187.719 -0.156864 1.56817 0
M  V30 2036 C 188.944 -0.890331 1.87318 0
M  V30 2037 C 189.369 -1.74394 0.704855 0
M  V30 2038 O 188.727 -1.77972 -0.345786 0
M  V30 2039 C 188.775 -1.73102 3.16336 0
M  V30 2040 O 187.879 -2.83422 2.99576 0
M  V30 2041 H 187.22 -0.24857 0.615718 0
M  V30 2042 H 189.75 -0.150649 2.04045 0
M  V30 2043 H 189.76 -2.12803 3.48107 0
M  V30 2044 H 188.435 -1.10412 4.00976 0
M  V30 2045 H 187.012 -2.47199 2.7919 0
M  V30 2046 N 189.197 -1.51736 -0.425897 0
M  V30 2047 C 190.445 -1.64644 -1.17204 0
M  V30 2048 C 190.766 -0.370486 -1.91448 0
M  V30 2049 O 190.036 0.614088 -1.86026 0
M  V30 2050 H 188.616 -0.606819 -0.435638 0
M  V30 2051 H 191.278 -1.88713 -0.487177 0
M  V30 2052 H 190.374 -2.47958 -1.89534 0
M  V30 2053 N 190.675 0.682077 -1.42076 0
M  V30 2054 C 191.622 1.79578 -1.44984 0
M  V30 2055 C 192.592 1.6332 -0.302614 0
M  V30 2056 O 193.777 1.83978 -0.505633 0
M  V30 2057 C 190.917 3.1756 -1.35091 0
M  V30 2058 C 190.03 3.45156 -2.59791 0
M  V30 2059 C 189.165 4.72826 -2.42093 0
M  V30 2060 C 188.204 4.93433 -3.62202 0
M  V30 2061 N 187.341 6.12338 -3.43491 0
M  V30 2062 H 192.181 1.76427 -2.40161 0
M  V30 2063 H 189.718 0.861376 -1.19242 0
M  V30 2064 H 191.676 3.97287 -1.27354 0
M  V30 2065 H 190.306 3.19854 -0.435133 0
M  V30 2066 H 189.358 2.59736 -2.77923 0
M  V30 2067 H 190.67 3.5628 -3.49094 0
M  V30 2068 H 189.824 5.60631 -2.319 0
M  V30 2069 H 188.563 4.63973 -1.50268 0
M  V30 2070 H 187.568 4.04073 -3.72834 0
M  V30 2071 H 188.793 5.04136 -4.54998 0
M  V30 2072 H 186.739 6.04672 -2.54377 0
M  V30 2073 H 186.656 6.2429 -4.26377 0
M  V30 2074 H 187.924 7.02841 -3.37097 0
M  V30 2075 N 192.153 1.28127 0.917671 0
M  V30 2076 C 193.564 1.13622 1.48145 0
M  V30 2077 C 193.915 -0.275207 1.9426 0
M  V30 2078 O 193.04 -1.1691 1.82102 0
M  V30 2079 C 193.635 2.05648 2.69248 0
M  V30 2080 C 192.194 1.95219 3.21818 0
M  V30 2081 C 191.341 1.97618 1.94532 0
M  V30 2082 H 194.292 1.40874 0.730772 0
M  V30 2083 H 194.313 1.61818 3.44377 0
M  V30 2084 H 193.825 3.08365 2.35653 0
M  V30 2085 H 191.926 0.955244 3.60147 0
M  V30 2086 H 192.039 2.81976 3.87333 0
M  V30 2087 H 190.403 1.41973 2.11461 0
M  V30 2088 H 191.186 3.02007 1.63238 0
M  V30 2089 N 193.631 -1.12557 1.10312 0
M  V30 2090 C 194.88 -1.83395 0.839588 0
M  V30 2091 C 195.193 -1.84939 -0.636929 0
M  V30 2092 O 196.399 -2.51761 -1.01631 0
M  V30 2093 C 194.855 -3.29303 1.45215 0
M  V30 2094 C 194.463 -3.36122 2.96186 0
M  V30 2095 C 196.207 -4.05121 1.26796 0
M  V30 2096 C 194.114 -4.76357 3.50483 0
M  V30 2097 H 193.044 -0.687133 0.310425 0
M  V30 2098 H 195.695 -1.26746 1.32694 0
M  V30 2099 H 194.077 -3.85812 0.892469 0
M  V30 2100 H 195.251 -2.89559 3.58458 0
M  V30 2101 H 193.566 -2.73776 3.13745 0
M  V30 2102 H 196.163 -5.08668 1.64806 0
M  V30 2103 H 196.506 -4.15773 0.209409 0
M  V30 2104 H 197.039 -3.54967 1.79563 0
M  V30 2105 H 193.778 -4.70899 4.55998 0
M  V30 2106 H 193.298 -5.23377 2.92978 0
M  V30 2107 H 194.977 -5.45294 3.48228 0
M  V30 2108 N 195.109 -0.891671 -1.2995 0
M  V30 2109 C 196.042 -0.307994 -2.26112 0
M  V30 2110 C 197.02 0.575262 -1.52084 0
M  V30 2111 O 198.204 0.523864 -1.81074 0
M  V30 2112 C 195.331 0.561734 -3.34009 0
M  V30 2113 C 194.377 -0.253107 -4.25748 0
M  V30 2114 S 195.21 -1.64572 -5.09584 0
M  V30 2115 C 196.366 -0.782699 -6.20987 0
M  V30 2116 H 196.599 -1.12309 -2.75271 0
M  V30 2117 H 194.132 -0.691509 -1.38049 0
M  V30 2118 H 196.09 1.05777 -3.96638 0
M  V30 2119 H 194.751 1.35099 -2.83561 0
M  V30 2120 H 193.944 0.410908 -5.02322 0
M  V30 2121 H 193.546 -0.682004 -3.67729 0
M  V30 2122 H 195.838 -0.00257476 -6.775 0
M  V30 2123 H 196.781 -1.52026 -6.91588 0
M  V30 2124 H 197.189 -0.340638 -5.63471 0
M  V30 2125 N 196.587 1.43421 -0.653314 0
M  V30 2126 C 197.812 2.06678 -0.172846 0
M  V30 2127 C 198.237 1.48648 1.15262 0
M  V30 2128 O 197.595 0.596457 1.71208 0
M  V30 2129 C 197.643 3.60474 -0.0953184 0
M  V30 2130 O 196.747 4.01487 0.942442 0
M  V30 2131 H 196.088 0.657181 -0.0949155 0
M  V30 2132 H 198.618 1.83925 -0.896265 0
M  V30 2133 H 198.628 4.07905 0.0879728 0
M  V30 2134 H 197.303 4.02088 -1.06291 0
M  V30 2135 H 195.88 3.65646 0.731932 0
M  V30 2136 N 198.065 0.39524 1.52563 0
M  V30 2137 C 199.29 -0.187456 2.06551 0
M  V30 2138 C 199.715 -1.39249 1.26457 0
M  V30 2139 O 199.073 -1.78947 0.291151 0
M  V30 2140 C 199.121 -0.529985 3.56684 0
M  V30 2141 O 198.225 -1.62307 3.79118 0
M  V30 2142 H 197.566 -0.0202537 0.663691 0
M  V30 2143 H 200.096 0.564426 1.96661 0
M  V30 2144 H 200.106 -0.792598 4.00227 0
M  V30 2145 H 198.781 0.350987 4.14416 0
M  V30 2146 H 197.358 -1.3537 3.47461 0
M  V30 2147 N 199.544 -1.57102 0.125237 0
M  V30 2148 C 200.507 -2.14471 -0.80838 0
M  V30 2149 C 201.507 -1.0811 -1.19033 0
M  V30 2150 O 202.697 -1.33856 -1.11482 0
M  V30 2151 C 199.829 -2.69005 -2.09402 0
M  V30 2152 H 201.022 -2.98297 -0.309696 0
M  V30 2153 H 198.575 -1.55807 -0.124051 0
M  V30 2154 H 199.31 -1.88785 -2.63687 0
M  V30 2155 H 199.095 -3.46799 -1.82957 0
M  V30 2156 H 200.585 -3.13278 -2.76128 0
M  V30 2157 N 201.022 0.148545 -1.56898 0
M  V30 2158 C 202.299 0.890019 -1.74178 0
M  V30 2159 C 202.679 1.99407 -0.692839 0
M  V30 2160 O 202.027 2.26671 0.288505 0
M  V30 2161 C 202.237 1.43389 -3.18183 0
M  V30 2162 C 203.585 1.89791 -3.79822 0
M  V30 2163 O 204.609 1.53134 -3.21603 0
M  V30 2164 O 203.468 2.57387 -4.82093 0
M  V30 2165 H 200.562 0.420496 -0.712118 0
M  V30 2166 H 203.108 0.134591 -1.69165 0
M  V30 2167 H 201.88 0.640383 -3.86024 0
M  V30 2168 H 201.503 2.25287 -3.27615 0
M  V30 2169 N 202.5 1.5196 0.417844 0
M  V30 2170 C 203.463 1.74065 1.49111 0
M  V30 2171 C 204.463 0.610537 1.48758 0
M  V30 2172 O 205.653 0.87832 1.50437 0
M  V30 2173 C 202.785 1.81502 2.88565 0
M  V30 2174 H 203.978 2.69869 1.30807 0
M  V30 2175 H 201.531 1.42244 0.647785 0
M  V30 2176 H 202.266 0.875813 3.1225 0
M  V30 2177 H 202.051 2.63651 2.90225 0
M  V30 2178 H 203.541 2.00376 3.66387 0
M  V30 2179 N 203.978 -0.674533 1.42435 0
M  V30 2180 C 204.908 -1.80009 1.48724 0
M  V30 2181 C 205.889 -1.6659 0.343793 0
M  V30 2182 O 207.074 -1.86007 0.558137 0
M  V30 2183 C 204.204 -3.18306 1.38919 0
M  V30 2184 C 203.158 -3.46461 2.51294 0
M  V30 2185 C 202.484 -4.84335 2.26547 0
M  V30 2186 C 203.784 -3.43328 3.93603 0
M  V30 2187 H 205.478 -1.75004 2.42928 0
M  V30 2188 H 203.024 -0.840533 1.16923 0
M  V30 2189 H 204.977 -3.9678 1.41927 0
M  V30 2190 H 203.701 -3.2399 0.412094 0
M  V30 2191 H 202.36 -2.70348 2.47604 0
M  V30 2192 H 202.008 -4.86669 1.2713 0
M  V30 2193 H 201.708 -5.04136 3.01861 0
M  V30 2194 H 203.232 -5.65094 2.31304 0
M  V30 2195 H 204.646 -4.11772 3.98894 0
M  V30 2196 H 203.043 -3.74664 4.68771 0
M  V30 2197 H 204.113 -2.41897 4.20255 0
M  V30 2198 N 205.456 -1.28612 -0.910864 0
M  V30 2199 C 206.386 -1.15326 -2.03032 0
M  V30 2200 C 207.367 -0.0502924 -1.70026 0
M  V30 2201 O 208.552 -0.227797 -1.92859 0
M  V30 2202 C 205.682 -0.817343 -3.37545 0
M  V30 2203 C 204.636 -1.8754 -3.84724 0
M  V30 2204 C 203.962 -1.39305 -5.16235 0
M  V30 2205 C 205.262 -3.28244 -4.06267 0
M  V30 2206 H 206.956 -2.08975 -2.14406 0
M  V30 2207 H 204.502 -1.00612 -1.03021 0
M  V30 2208 H 206.455 -0.711151 -4.15356 0
M  V30 2209 H 205.179 0.154846 -3.26233 0
M  V30 2210 H 203.838 -1.97079 -3.09121 0
M  V30 2211 H 203.486 -0.409846 -5.01328 0
M  V30 2212 H 203.186 -2.10057 -5.48771 0
M  V30 2213 H 204.71 -1.30014 -5.96598 0
M  V30 2214 H 206.124 -3.21611 -4.74594 0
M  V30 2215 H 204.521 -3.96855 -4.5014 0
M  V30 2216 H 205.591 -3.72048 -3.10979 0
M  V30 2217 N 206.934 1.1197 -1.10907 0
M  V30 2218 C 208.211 1.79959 -0.766432 0
M  V30 2219 C 208.591 1.97466 0.746363 0
M  V30 2220 O 207.939 1.55491 1.67436 0
M  V30 2221 C 208.149 3.14009 -1.52314 0
M  V30 2222 C 209.497 3.89134 -1.69883 0
M  V30 2223 O 210.521 3.2368 -1.48692 0
M  V30 2224 O 209.38 5.06572 -2.05054 0
M  V30 2225 H 206.474 0.779208 -0.277062 0
M  V30 2226 H 209.02 1.18762 -1.21217 0
M  V30 2227 H 207.792 2.96587 -2.55249 0
M  V30 2228 H 207.415 3.82915 -1.07059 0
M  V30 2229 N 208.412 0.89855 1.29475 0
M  V30 2230 C 209.342 0.39201 2.30186 0
M  V30 2231 C 210.323 -0.532359 1.61555 0
M  V30 2232 O 211.508 -0.443331 1.89072 0
M  V30 2233 C 208.638 -0.382353 3.45189 0
M  V30 2234 C 207.592 0.451483 4.25612 0
M  V30 2235 C 206.918 -0.450307 5.328 0
M  V30 2236 C 208.218 1.70079 4.93832 0
M  V30 2237 H 209.912 1.23362 2.72804 0
M  V30 2238 H 207.458 0.594638 1.31149 0
M  V30 2239 H 209.411 -0.747451 4.14718 0
M  V30 2240 H 208.135 -1.25774 3.01411 0
M  V30 2241 H 206.794 0.798897 3.57789 0
M  V30 2242 H 206.442 -1.32379 4.85268 0
M  V30 2243 H 206.142 0.103902 5.87508 0
M  V30 2244 H 207.666 -0.811623 6.05182 0
M  V30 2245 H 209.08 1.40549 5.55805 0
M  V30 2246 H 207.477 2.19623 5.58467 0
M  V30 2247 H 208.547 2.43744 4.19186 0
M  V30 2248 N 209.89 -1.43072 0.660911 0
M  V30 2249 C 211.139 -2.00942 0.174735 0
M  V30 2250 C 211.452 -1.52797 -1.22117 0
M  V30 2251 O 212.658 -2.02991 -1.80297 0
M  V30 2252 C 211.114 -3.58948 0.261559 0
M  V30 2253 C 210.722 -4.16085 1.66064 0
M  V30 2254 C 212.466 -4.24173 -0.166617 0
M  V30 2255 C 210.373 -5.6641 1.70098 0
M  V30 2256 H 209.303 -0.751483 0.0615631 0
M  V30 2257 H 211.954 -1.63955 0.824069 0
M  V30 2258 H 210.336 -3.93372 -0.455421 0
M  V30 2259 H 211.51 -3.93147 2.40359 0
M  V30 2260 H 209.825 -3.6326 2.03546 0
M  V30 2261 H 212.422 -5.34471 -0.156433 0
M  V30 2262 H 212.765 -3.98647 -1.19943 0
M  V30 2263 H 213.298 -3.94659 0.498875 0
M  V30 2264 H 210.037 -5.96715 2.71315 0
M  V30 2265 H 209.557 -5.91382 1.00139 0
M  V30 2266 H 211.236 -6.30585 1.44816 0
M  V30 2267 N 211.368 -0.403325 -1.52352 0
M  V30 2268 C 212.784 -0.0539281 -1.59509 0
M  V30 2269 C 212.984 1.43307 -1.41652 0
M  V30 2270 O 212.04 2.19924 -1.24056 0
M  V30 2271 C 213.353 -0.543654 -2.95745 0
M  V30 2272 C 214.901 -0.501125 -3.08962 0
M  V30 2273 C 215.376 -0.967267 -4.47669 0
M  V30 2274 N 216.867 -0.923849 -4.53893 0
M  V30 2275 C 217.602 -1.25578 -5.5948 0
M  V30 2276 N 217.098 -1.65889 -6.72646 0
M  V30 2277 N 218.891 -1.17613 -5.49658 0
M  V30 2278 H 211.042 -1.37123 -1.62206 0
M  V30 2279 H 213.305 -0.56294 -0.76276 0
M  V30 2280 H 213.011 -1.58275 -3.14073 0
M  V30 2281 H 212.885 0.0498042 -3.77167 0
M  V30 2282 H 215.272 0.528909 -2.90321 0
M  V30 2283 H 215.353 -1.13056 -2.2946 0
M  V30 2284 H 214.997 -1.9956 -4.67053 0
M  V30 2285 H 214.927 -0.314698 -5.25659 0
M  V30 2286 H 217.418 -0.627403 -3.72655 0
M  V30 2287 H 217.731 -1.89543 -7.49195 0
M  V30 2288 H 216.076 -1.69787 -6.73942 0
M  V30 2289 H 219.267 -0.860115 -4.6013 0
M  V30 2290 H 219.44 -1.43812 -6.3184 0
M  V30 2291 N 212.846 1.57033 -0.133567 0
M  V30 2292 C 213.794 2.17348 0.828412 0
M  V30 2293 C 214.788 1.12671 1.26498 0
M  V30 2294 O 215.994 1.30947 1.23502 0
M  V30 2295 H 212.369 0.695775 0.285309 0
M  V30 2296 H 214.34 2.96935 0.295372 0
M  V30 2297 C 213.089 2.79893 2.06289 0
M  V30 2298 H 212.412 3.60147 1.73592 0
M  V30 2299 H 213.852 3.25615 2.71572 0
M  V30 2300 C 212.311 1.77713 2.86216 0
M  V30 2301 O 212.841 1.23937 3.82103 0
M  V30 2302 N 211.047 1.47321 2.50489 0
M  V30 2303 H 210.594 1.91243 1.7258 0
M  V30 2304 H 210.552 0.79199 3.04261 0
M  V30 2305 N 214.325 -0.140222 1.56975 0
M  V30 2306 C 215.258 -1.20266 1.93936 0
M  V30 2307 C 216.236 -1.41212 0.806099 0
M  V30 2308 O 217.42 -1.55713 1.06234 0
M  V30 2309 C 214.547 -2.56037 2.21726 0
M  V30 2310 C 213.593 -2.51646 3.44349 0
M  V30 2311 S 214.426 -1.97678 4.97678 0
M  V30 2312 C 215.582 -3.35165 5.28597 0
M  V30 2313 H 215.815 -0.887358 2.83749 0
M  V30 2314 H 213.348 -0.346119 1.50471 0
M  V30 2315 H 215.306 -3.34167 2.38416 0
M  V30 2316 H 213.967 -2.84755 1.32566 0
M  V30 2317 H 213.16 -3.51608 3.61092 0
M  V30 2318 H 212.762 -1.81628 3.26936 0
M  V30 2319 H 215.054 -4.31302 5.2248 0
M  V30 2320 H 215.997 -3.23269 6.30002 0
M  V30 2321 H 216.405 -3.32614 4.56101 0
M  V30 2322 N 215.803 -1.52179 -0.40978 0
M  V30 2323 C 217.05 -1.66206 -1.15679 0
M  V30 2324 C 217.378 -0.391674 -1.90516 0
M  V30 2325 O 216.633 0.62533 -1.8544 0
M  V30 2326 C 216.932 -2.83428 -2.17723 0
M  V30 2327 C 216.598 -4.21672 -1.59699 0
M  V30 2328 C 215.26 -4.59274 -1.43599 0
M  V30 2329 C 217.612 -5.07825 -1.17317 0
M  V30 2330 C 214.94 -5.80709 -0.836328 0
M  V30 2331 C 217.292 -6.29864 -0.587691 0
M  V30 2332 C 215.956 -6.66216 -0.413818 0
M  V30 2333 H 215.226 -0.608192 -0.423301 0
M  V30 2334 H 217.873 -1.86279 -0.444097 0
M  V30 2335 H 216.178 -2.57687 -2.95135 0
M  V30 2336 H 217.875 -2.91477 -2.75394 0
M  V30 2337 H 214.465 -3.9204 -1.73213 0
M  V30 2338 H 218.649 -4.79359 -1.28565 0
M  V30 2339 H 213.905 -6.07498 -0.689626 0
M  V30 2340 H 218.079 -6.95948 -0.250894 0
M  V30 2341 H 215.706 -7.60182 0.0529471 0
M  V30 2342 N 217.281 0.66697 -1.42791 0
M  V30 2343 C 218.692 1.2478 -1.38877 0
M  V30 2344 C 219.043 1.96012 -0.0859426 0
M  V30 2345 O 218.168 2.00463 0.815081 0
M  V30 2346 C 218.763 2.26938 -2.51564 0
M  V30 2347 C 217.322 2.80529 -2.50959 0
M  V30 2348 C 216.469 1.54965 -2.29959 0
M  V30 2349 H 219.42 0.459853 -1.51892 0
M  V30 2350 H 219.441 3.08834 -2.22265 0
M  V30 2351 H 218.953 1.75065 -3.46372 0
M  V30 2352 H 217.054 3.36502 -1.59991 0
M  V30 2353 H 217.167 3.29012 -3.48265 0
M  V30 2354 H 215.531 1.81817 -1.78366 0
M  V30 2355 H 216.314 1.05047 -3.26833 0
M  V30 2356 N 218.759 1.29093 0.90403 0
M  V30 2357 C 219.722 1.1386 1.98919 0
M  V30 2358 C 220.722 0.0753457 1.60623 0
M  V30 2359 O 221.912 0.321931 1.71199 0
M  V30 2360 C 219.044 0.740198 3.32767 0
M  V30 2361 H 220.237 2.10246 2.13861 0
M  V30 2362 H 217.79 1.12218 1.08797 0
M  V30 2363 H 218.525 -0.223997 3.23525 0
M  V30 2364 H 218.31 1.50838 3.61926 0
M  V30 2365 H 219.8 0.656546 4.12407 0
M  V30 2366 N 220.237 -1.11381 1.11499 0
M  V30 2367 C 221.185 -2.19522 0.768956 0
M  V30 2368 C 222.179 -1.67693 -0.239857 0
M  V30 2369 O 223.385 -1.79727 -0.0990755 0
M  V30 2370 H 219.76 -0.715711 0.230786 0
M  V30 2371 H 221.731 -2.45954 1.68964 0
M  V30 2372 C 220.48 -3.46945 0.229073 0
M  V30 2373 H 219.803 -3.8718 0.996596 0
M  V30 2374 H 221.243 -4.23993 0.0251441 0
M  V30 2375 C 219.702 -3.2042 -1.04079 0
M  V30 2376 O 220.232 -3.41178 -2.12038 0
M  V30 2377 N 218.438 -2.74151 -0.963823 0
M  V30 2378 H 217.985 -2.57459 -0.0851722 0
M  V30 2379 H 217.943 -2.56781 -1.81414 0
M  V30 2380 N 221.715 -0.905404 -1.28997 0
M  V30 2381 C 222.645 -0.404212 -2.29975 0
M  V30 2382 C 223.626 0.523784 -1.61835 0
M  V30 2383 O 224.811 0.433298 -1.89304 0
M  V30 2384 C 221.941 0.364042 -3.45387 0
M  V30 2385 C 220.895 -0.474048 -4.25367 0
M  V30 2386 C 220.221 0.422045 -5.33032 0
M  V30 2387 C 221.521 -1.72696 -4.92923 0
M  V30 2388 H 223.215 -1.24807 -2.72146 0
M  V30 2389 H 220.761 -0.601585 -1.30832 0
M  V30 2390 H 222.714 0.725447 -4.15109 0
M  V30 2391 H 221.438 1.24174 -3.02074 0
M  V30 2392 H 220.097 -0.81786 -3.57361 0
M  V30 2393 H 219.745 1.29804 -4.85963 0
M  V30 2394 H 219.445 -0.135057 -5.87445 0
M  V30 2395 H 220.969 0.779517 -6.05604 0
M  V30 2396 H 222.383 -1.43495 -5.55051 0
M  V30 2397 H 220.78 -2.22582 -5.57295 0
M  V30 2398 H 221.85 -2.45964 -4.17887 0
M  V30 2399 N 223.193 1.4272 -0.668489 0
M  V30 2400 C 224.439 2.01923 -0.188419 0
M  V30 2401 C 224.772 1.52704 1.19979 0
M  V30 2402 O 224.047 0.726566 1.8042 0
M  V30 2403 C 224.33 3.59451 -0.216085 0
M  V30 2404 C 224.183 4.18864 -1.6393 0
M  V30 2405 C 225.502 4.37903 0.439179 0
M  V30 2406 H 222.621 0.733674 -0.0699412 0
M  V30 2407 H 225.263 1.69822 -0.852076 0
M  V30 2408 H 223.413 3.86929 0.349012 0
M  V30 2409 H 225.085 4.02362 -2.25616 0
M  V30 2410 H 223.328 3.74933 -2.18193 0
M  V30 2411 H 223.999 5.27987 -1.61039 0
M  V30 2412 H 226.475 4.16079 -0.0417878 0
M  V30 2413 H 225.351 5.47519 0.389157 0
M  V30 2414 H 225.612 4.15303 1.51577 0
M  V30 2415 N 224.671 0.411399 1.52136 0
M  V30 2416 C 225.581 -0.419774 2.30814 0
M  V30 2417 C 226.597 -1.0515 1.38634 0
M  V30 2418 O 227.773 -1.05252 1.71709 0
M  V30 2419 C 224.838 -1.52019 3.11594 0
M  V30 2420 C 223.899 -0.91129 4.19516 0
M  V30 2421 C 223.132 -1.95927 4.96436 0
M  V30 2422 O 223.355 -3.17775 4.73683 0
M  V30 2423 O 222.289 -1.56423 5.81219 0
M  V30 2424 H 226.115 0.221805 3.02889 0
M  V30 2425 H 223.7 0.174547 1.48377 0
M  V30 2426 H 225.582 -2.15898 3.61892 0
M  V30 2427 H 224.257 -2.14633 2.42311 0
M  V30 2428 H 223.164 -0.235157 3.7336 0
M  V30 2429 H 224.497 -0.32904 4.91099 0
M  V30 2430 N 226.149 -1.5696 0.141893 0
M  V30 2431 C 227.112 -2.15316 -0.785587 0
M  V30 2432 C 228.112 -1.09366 -1.1788 0
M  V30 2433 O 229.302 -1.35031 -1.10056 0
M  V30 2434 C 226.434 -2.71211 -2.06537 0
M  V30 2435 H 227.627 -2.98608 -0.278041 0
M  V30 2436 H 225.18 -1.5593 -0.107519 0
M  V30 2437 H 225.915 -1.91571 -2.6167 0
M  V30 2438 H 225.7 -3.4872 -1.79268 0
M  V30 2439 H 227.19 -3.16189 -2.72789 0
M  V30 2440 N 227.627 0.131896 -1.57047 0
M  V30 2441 C 228.855 0.856461 -1.88341 0
M  V30 2442 C 229.27 1.74042 -0.731757 0
M  V30 2443 O 228.627 1.80051 0.297945 0
M  V30 2444 C 228.678 1.70064 -3.18999 0
M  V30 2445 O 228.399 0.852278 -4.2973 0
M  V30 2446 C 229.9 2.53148 -3.63911 0
M  V30 2447 H 227.12 0.246885 -0.62393 0
M  V30 2448 H 229.664 0.120152 -2.04147 0
M  V30 2449 H 227.819 2.38984 -3.04902 0
M  V30 2450 H 228.233 1.43329 -5.04537 0
M  V30 2451 H 229.707 3.07931 -4.58129 0
M  V30 2452 H 230.184 3.29901 -2.89935 0
M  V30 2453 H 230.79 1.89492 -3.80753 0
M  V30 2454 N 229.106 1.52395 0.401703 0
M  V30 2455 C 230.353 1.66817 1.14796 0
M  V30 2456 C 230.681 0.401772 1.90305 0
M  V30 2457 O 229.936 -0.615487 1.85769 0
M  V30 2458 C 230.235 2.84578 2.16217 0
M  V30 2459 C 229.901 4.22513 1.5746 0
M  V30 2460 C 228.563 4.60029 1.41161 0
M  V30 2461 C 230.915 5.0844 1.14622 0
M  V30 2462 C 228.243 5.81144 0.80552 0
M  V30 2463 C 230.595 6.30167 0.55428 0
M  V30 2464 C 229.259 6.66426 0.378482 0
M  V30 2465 H 228.529 0.610428 0.420069 0
M  V30 2466 H 231.176 1.86512 0.434212 0
M  V30 2467 H 229.481 2.59248 2.93764 0
M  V30 2468 H 231.178 2.92933 2.73845 0
M  V30 2469 H 227.768 3.92953 1.71132 0
M  V30 2470 H 231.952 4.80034 1.26021 0
M  V30 2471 H 227.208 6.07855 0.657399 0
M  V30 2472 H 231.382 6.96071 0.213983 0
M  V30 2473 H 229.009 7.60143 -0.0932606 0
M  V30 2474 N 230.584 -0.659388 1.43143 0
M  V30 2475 C 231.531 -1.77249 1.47822 0
M  V30 2476 C 232.501 -1.62818 0.328558 0
M  V30 2477 O 233.686 -1.83151 0.534838 0
M  V30 2478 C 230.826 -3.15371 1.40126 0
M  V30 2479 C 229.939 -3.4098 2.65249 0
M  V30 2480 C 229.074 -4.68915 2.49584 0
M  V30 2481 C 228.113 -4.87608 3.70006 0
M  V30 2482 N 227.25 -6.06796 3.53189 0
M  V30 2483 H 232.09 -1.72584 2.42938 0
M  V30 2484 H 229.627 -0.842297 1.20598 0
M  V30 2485 H 231.585 -3.9521 1.33659 0
M  V30 2486 H 230.215 -3.19121 0.485964 0
M  V30 2487 H 229.267 -2.55282 2.8202 0
M  V30 2488 H 230.579 -3.50681 3.54717 0
M  V30 2489 H 229.733 -5.56871 2.4079 0
M  V30 2490 H 228.472 -4.61524 1.5763 0
M  V30 2491 H 227.477 -3.9809 3.79215 0
M  V30 2492 H 228.702 -4.96834 4.62961 0
M  V30 2493 H 226.648 -6.00549 2.63965 0
M  V30 2494 H 226.565 -6.17428 4.36255 0
M  V30 2495 H 227.833 -6.9739 3.48236 0
M  V30 2496 N 232.062 -1.29571 -0.897171 0
M  V30 2497 C 232.994 -1.10724 -2.00681 0
M  V30 2498 C 234.007 -0.0540026 -1.6271 0
M  V30 2499 O 235.196 -0.298783 -1.75982 0
M  V30 2500 C 232.296 -0.663912 -3.32333 0
M  V30 2501 C 231.469 -1.79622 -3.98816 0
M  V30 2502 C 230.528 -1.34349 -5.0876 0
M  V30 2503 O 229.554 -2.04864 -5.31055 0
M  V30 2504 N 230.756 -0.215764 -5.80099 0
M  V30 2505 H 233.521 -2.06291 -2.17403 0
M  V30 2506 H 231.082 -1.21544 -1.06951 0
M  V30 2507 H 233.074 -0.344295 -4.03233 0
M  V30 2508 H 231.644 0.199375 -3.11964 0
M  V30 2509 H 230.864 -2.28459 -3.21248 0
M  V30 2510 H 232.152 -2.55535 -4.39976 0
M  V30 2511 H 231.55 0.372091 -5.64475 0
M  V30 2512 H 230.107 0.0444707 -6.51785 0
M  V30 2513 N 233.54 1.10788 -1.12088 0
M  V30 2514 C 234.77 1.86191 -0.895351 0
M  V30 2515 C 235.178 1.80763 0.558702 0
M  V30 2516 O 234.521 1.19188 1.39785 0
M  V30 2517 C 234.583 3.35659 -1.28737 0
M  V30 2518 C 234.247 3.64849 -2.75198 0
M  V30 2519 C 235.244 3.61757 -3.734 0
M  V30 2520 C 232.929 3.93641 -3.12013 0
M  V30 2521 C 234.923 3.87045 -5.06434 0
M  V30 2522 C 232.61 4.18585 -4.4523 0
M  V30 2523 C 233.608 4.15277 -5.42249 0
M  V30 2524 O 233.296 4.3959 -6.73065 0
M  V30 2525 H 233.028 0.595425 -0.32007 0
M  V30 2526 H 235.582 1.40992 -1.49367 0
M  V30 2527 H 233.812 3.81497 -0.63224 0
M  V30 2528 H 235.501 3.92441 -1.03656 0
M  V30 2529 H 236.267 3.39557 -3.46303 0
M  V30 2530 H 232.146 3.95348 -2.37109 0
M  V30 2531 H 235.69 3.84378 -5.82151 0
M  V30 2532 H 231.587 4.40264 -4.72057 0
M  V30 2533 H 232.355 4.57123 -6.78956 0
M  V30 2534 N 235.018 0.912232 1.28515 0
M  V30 2535 C 236.434 0.610159 1.47476 0
M  V30 2536 C 236.634 -0.844955 1.82928 0
M  V30 2537 O 235.69 -1.62416 1.93332 0
M  V30 2538 C 237.003 1.54675 2.57868 0
M  V30 2539 C 238.551 1.55331 2.71738 0
M  V30 2540 C 239.026 2.47649 3.85272 0
M  V30 2541 N 240.517 2.45767 3.92623 0
M  V30 2542 C 241.252 3.13896 4.79851 0
M  V30 2543 N 240.748 3.9135 5.71679 0
M  V30 2544 N 242.541 3.02991 4.73448 0
M  V30 2545 H 234.692 1.85318 1.03783 0
M  V30 2546 H 236.955 0.794777 0.516753 0
M  V30 2547 H 236.661 2.5841 2.38574 0
M  V30 2548 H 236.535 1.27671 3.54937 0
M  V30 2549 H 238.922 0.52335 2.90422 0
M  V30 2550 H 239.003 1.86378 1.75205 0
M  V30 2551 H 238.647 3.50745 3.67342 0
M  V30 2552 H 238.577 2.13904 4.81199 0
M  V30 2553 H 241.068 1.89503 3.26951 0
M  V30 2554 H 241.381 4.40359 6.35062 0
M  V30 2555 H 239.726 3.95455 5.71524 0
M  V30 2556 H 242.917 2.41987 4.007 0
M  V30 2557 H 243.09 3.5636 5.41213 0
M  V30 2558 N 236.496 -1.42363 0.676048 0
M  V30 2559 C 237.724 -2.05859 0.207268 0
M  V30 2560 C 238.139 -1.50796 -1.13605 0
M  V30 2561 O 237.496 -0.648265 -1.70598 0
M  V30 2562 C 237.547 -3.61248 0.134975 0
M  V30 2563 O 237.268 -4.1427 1.42521 0
M  V30 2564 C 238.769 -4.41859 -0.357151 0
M  V30 2565 H 235.989 -0.663431 0.100503 0
M  V30 2566 H 238.533 -1.82479 0.923136 0
M  V30 2567 H 236.688 -3.83735 -0.531588 0
M  V30 2568 H 237.102 -5.0815 1.29939 0
M  V30 2569 H 238.576 -5.50847 -0.356641 0
M  V30 2570 H 239.053 -4.16536 -1.39264 0
M  V30 2571 H 239.659 -4.24392 0.27772 0
M  V30 2572 N 237.974 -0.419461 -1.51915 0
M  V30 2573 C 238.921 0.400927 -2.27291 0
M  V30 2574 C 239.891 1.03224 -1.30131 0
M  V30 2575 O 241.076 1.05455 -1.59009 0
M  V30 2576 C 238.216 1.50603 -3.10504 0
M  V30 2577 C 237.329 0.89462 -4.22635 0
M  V30 2578 C 236.464 1.97328 -4.93189 0
M  V30 2579 C 235.503 1.33935 -5.97267 0
M  V30 2580 N 234.64 2.3586 -6.61298 0
M  V30 2581 H 239.48 -0.248251 -2.96964 0
M  V30 2582 H 237.017 -0.134266 -1.46486 0
M  V30 2583 H 238.975 2.15783 -3.57062 0
M  V30 2584 H 237.605 2.12509 -2.42981 0
M  V30 2585 H 236.657 0.131583 -3.80172 0
M  V30 2586 H 237.969 0.391641 -4.9726 0
M  V30 2587 H 237.123 2.70211 -5.43204 0
M  V30 2588 H 235.862 2.50994 -4.18155 0
M  V30 2589 H 234.867 0.595896 -5.46561 0
M  V30 2590 H 236.092 0.810252 -6.74249 0
M  V30 2591 H 234.038 2.88639 -5.89087 0
M  V30 2592 H 233.955 1.90403 -7.3163 0
M  V30 2593 H 235.223 3.08282 -7.15949 0
M  V30 2594 N 239.452 1.56882 -0.150215 0
M  V30 2595 C 240.68 2.00593 0.506948 0
M  V30 2596 C 241.095 1.03033 1.58208 0
M  V30 2597 O 240.452 0.0278396 1.82479 0
M  V30 2598 C 240.503 3.44209 1.10465 0
M  V30 2599 O 240.224 4.3804 0.0724636 0
M  V30 2600 C 241.725 4.03214 1.84211 0
M  V30 2601 H 238.945 0.65795 0.13169 0
M  V30 2602 H 241.489 2.03018 -0.245743 0
M  V30 2603 H 239.644 3.42625 1.80795 0
M  V30 2604 H 240.058 5.22007 0.510793 0
M  V30 2605 H 241.532 5.0569 2.21318 0
M  V30 2606 H 242.009 3.44107 2.72923 0
M  V30 2607 H 242.615 4.08437 1.18572 0
M  V30 2608 N 240.93 -0.123565 1.57115 0
M  V30 2609 C 242.158 -0.846461 1.88793 0
M  V30 2610 C 242.573 -1.73652 0.740976 0
M  V30 2611 O 241.93 -1.80207 -0.288393 0
M  V30 2612 C 241.981 -1.6837 3.19897 0
M  V30 2613 O 241.702 -0.829477 4.30176 0
M  V30 2614 C 243.203 -2.51214 3.65248 0
M  V30 2615 H 240.423 -0.243573 0.625231 0
M  V30 2616 H 242.967 -0.109324 2.04208 0
M  V30 2617 H 241.122 -2.37364 3.06165 0
M  V30 2618 H 241.536 -1.40651 5.0529 0
M  V30 2619 H 243.01 -3.05497 4.59756 0
M  V30 2620 H 243.487 -3.28359 2.9168 0
M  V30 2621 H 244.093 -1.8747 3.81752 0
M  V30 2622 N 242.408 -1.52605 -0.393616 0
M  V30 2623 C 243.819 -1.59417 -0.971761 0
M  V30 2624 C 244.17 -0.444173 -1.91106 0
M  V30 2625 O 243.295 0.433382 -2.12016 0
M  V30 2626 C 243.89 -2.88936 -1.76921 0
M  V30 2627 C 242.449 -2.98175 -2.29714 0
M  V30 2628 C 241.596 -2.54491 -1.10135 0
M  V30 2629 H 244.547 -1.57751 -0.173317 0
M  V30 2630 H 244.568 -2.75163 -2.62804 0
M  V30 2631 H 244.08 -3.72616 -1.08532 0
M  V30 2632 H 242.181 -2.19024 -3.01429 0
M  V30 2633 H 242.294 -4.02726 -2.59517 0
M  V30 2634 H 240.658 -2.08702 -1.45999 0
M  V30 2635 H 241.441 -3.4056 -0.432874 0
M  V30 2636 N 243.887 0.651787 -1.4349 0
M  V30 2637 C 245.133 1.41376 -1.45398 0
M  V30 2638 C 245.466 1.94041 -0.0784823 0
M  V30 2639 O 244.741 1.72379 0.900878 0
M  V30 2640 C 245.024 2.59414 -2.49752 0
M  V30 2641 C 244.877 2.12232 -3.96582 0
M  V30 2642 C 246.196 3.61626 -2.50827 0
M  V30 2643 H 243.315 0.512719 -0.529422 0
M  V30 2644 H 245.957 0.738796 -1.75048 0
M  V30 2645 H 244.107 3.16997 -2.246 0
M  V30 2646 H 245.779 1.59639 -4.32797 0
M  V30 2647 H 244.022 1.43592 -4.09346 0
M  V30 2648 H 244.693 2.9712 -4.65214 0
M  V30 2649 H 247.169 3.13805 -2.7325 0
M  V30 2650 H 246.045 4.41766 -3.25783 0
M  V30 2651 H 246.306 4.14314 -1.5426 0
M  V30 2652 N 245.365 1.30045 0.890287 0
M  V30 2653 C 246.611 1.18737 1.64406 0
M  V30 2654 C 246.944 -0.258525 1.92472 0
M  V30 2655 O 246.219 -1.18562 1.54186 0
M  V30 2656 C 246.502 2.01087 2.98724 0
M  V30 2657 C 246.355 3.53867 2.77665 0
M  V30 2658 C 247.674 1.84457 3.9958 0
M  V30 2659 H 244.793 0.432698 0.596608 0
M  V30 2660 H 247.435 1.5962 1.0306 0
M  V30 2661 H 245.585 1.66349 3.51084 0
M  V30 2662 H 247.257 3.98637 2.32133 0
M  V30 2663 H 245.5 3.78318 2.12269 0
M  V30 2664 H 246.171 4.06772 3.7315 0
M  V30 2665 H 248.647 2.14817 3.56361 0
M  V30 2666 H 247.523 2.44411 4.91482 0
M  V30 2667 H 247.784 0.802276 4.3476 0
M  V30 2668 N 246.843 -1.10192 1.12674 0
M  V30 2669 C 247.79 -2.16606 0.796906 0
M  V30 2670 C 248.76 -1.64394 -0.237476 0
M  V30 2671 O 249.945 -1.90474 -0.111484 0
M  V30 2672 C 247.085 -3.44116 0.26043 0
M  V30 2673 C 246.198 -4.10268 1.35293 0
M  V30 2674 C 245.333 -5.25507 0.775621 0
M  V30 2675 C 244.372 -5.83567 1.84706 0
M  V30 2676 N 243.509 -6.90179 1.28829 0
M  V30 2677 H 248.349 -2.44163 1.70846 0
M  V30 2678 H 245.886 -1.19846 0.85295 0
M  V30 2679 H 247.844 -4.17143 -0.0686814 0
M  V30 2680 H 246.474 -3.16901 -0.614274 0
M  V30 2681 H 245.526 -3.35184 1.79877 0
M  V30 2682 H 246.838 -4.4946 2.16303 0
M  V30 2683 H 245.992 -6.05398 0.397327 0
M  V30 2684 H 244.731 -4.87656 -0.0656581 0
M  V30 2685 H 243.736 -5.02344 2.23452 0
M  V30 2686 H 244.961 -6.23482 2.69161 0
M  V30 2687 H 242.907 -6.54322 0.468881 0
M  V30 2688 H 242.824 -7.28097 2.03497 0
M  V30 2689 H 244.092 -7.73844 0.937311 0
M  V30 2690 N 248.321 -0.919034 -1.28029 0
M  V30 2691 C 249.546 -0.570357 -1.99403 0
M  V30 2692 C 249.971 0.842486 -1.68178 0
M  V30 2693 O 249.329 1.56391 -0.917141 0
M  V30 2694 C 249.377 -0.792541 -3.51783 0
M  V30 2695 O 248.481 0.145988 -4.12142 0
M  V30 2696 H 247.822 -0.220555 -0.6263 0
M  V30 2697 H 250.352 -1.23592 -1.63053 0
M  V30 2698 H 250.362 -0.704708 -4.01868 0
M  V30 2699 H 249.037 -1.82247 -3.73844 0
M  V30 2700 H 247.614 0.00897528 -3.72899 0
M  V30 2701 N 249.799 1.42003 -0.683588 0
M  V30 2702 C 251.21 1.84501 -0.285736 0
M  V30 2703 C 251.561 1.57213 1.17382 0
M  V30 2704 O 250.686 1.03642 1.89966 0
M  V30 2705 C 251.281 3.34912 -0.511821 0
M  V30 2706 C 249.84 3.76025 -0.168005 0
M  V30 2707 C 248.987 2.6551 -0.799983 0
M  V30 2708 H 251.938 1.31724 -0.885119 0
M  V30 2709 H 251.959 3.79784 0.233292 0
M  V30 2710 H 251.471 3.54741 -1.57418 0
M  V30 2711 H 249.572 3.61801 0.890567 0
M  V30 2712 H 249.685 4.75141 -0.614661 0
M  V30 2713 H 248.049 2.53654 -0.230568 0
M  V30 2714 H 248.832 2.8816 -1.86597 0
M  V30 2715 N 251.277 0.427512 1.51691 0
M  V30 2716 C 252.224 -0.388867 2.275 0
M  V30 2717 C 253.194 -1.02532 1.30677 0
M  V30 2718 O 254.379 -1.0461 1.59566 0
M  V30 2719 C 251.519 -1.48954 3.11298 0
M  V30 2720 C 250.632 -0.872194 4.23104 0
M  V30 2721 C 249.767 -1.94709 4.94228 0
M  V30 2722 C 248.806 -1.30766 5.97969 0
M  V30 2723 N 247.943 -2.32349 6.62539 0
M  V30 2724 H 252.783 0.263997 2.96828 0
M  V30 2725 H 250.32 0.142033 1.46413 0
M  V30 2726 H 252.278 -2.13887 3.58201 0
M  V30 2727 H 250.908 -2.11217 2.44105 0
M  V30 2728 H 249.96 -0.111419 3.80237 0
M  V30 2729 H 251.272 -0.365264 4.97461 0
M  V30 2730 H 250.426 -2.67327 5.44629 0
M  V30 2731 H 249.165 -2.48773 4.1948 0
M  V30 2732 H 248.17 -0.566902 5.4687 0
M  V30 2733 H 249.395 -0.774483 6.74669 0
M  V30 2734 H 247.341 -2.85511 5.90609 0
M  V30 2735 H 247.258 -1.8652 7.3263 0
M  V30 2736 H 248.526 -3.04481 7.17574 0
M  V30 2737 N 252.755 -1.56801 0.158532 0
M  V30 2738 C 254.001 -1.96781 -0.490405 0
M  V30 2739 C 254.334 -1.04397 -1.63753 0
M  V30 2740 O 253.609 -0.0885805 -1.94298 0
M  V30 2741 C 253.892 -3.4635 -0.985594 0
M  V30 2742 C 253.745 -4.49512 0.160824 0
M  V30 2743 C 255.064 -3.98697 -1.86355 0
M  V30 2744 H 252.183 -0.715482 -0.176788 0
M  V30 2745 H 254.825 -1.88451 0.242088 0
M  V30 2746 H 252.975 -3.53579 -1.60978 0
M  V30 2747 H 254.647 -4.54353 0.797537 0
M  V30 2748 H 252.89 -4.26013 0.818256 0
M  V30 2749 H 253.561 -5.51531 -0.227569 0
M  V30 2750 H 256.037 -3.94019 -1.33746 0
M  V30 2751 H 254.913 -5.03792 -2.17909 0
M  V30 2752 H 255.174 -3.41744 -2.8047 0
M  V30 2753 N 254.233 0.115231 -1.57178 0
M  V30 2754 C 255.196 1.12526 -1.99676 0
M  V30 2755 C 256.196 1.34095 -0.88742 0
M  V30 2756 O 257.386 1.30548 -1.15337 0
M  V30 2757 C 254.518 2.4789 -2.34015 0
M  V30 2758 H 255.711 0.759912 -2.90113 0
M  V30 2759 H 253.264 0.359648 -1.52106 0
M  V30 2760 H 253.999 2.89339 -1.4647 0
M  V30 2761 H 253.784 2.33588 -3.14927 0
M  V30 2762 H 255.274 3.20575 -2.67622 0
M  V30 2763 N 255.711 1.52812 0.385517 0
M  V30 2764 C 257.122 1.5993 0.963293 0
M  V30 2765 C 257.473 0.454302 1.90868 0
M  V30 2766 O 256.598 -0.422132 2.12243 0
M  V30 2767 C 257.193 2.89871 1.75387 0
M  V30 2768 C 255.752 2.99389 2.28129 0
M  V30 2769 C 254.899 2.55071 1.08783 0
M  V30 2770 H 257.85 1.5784 0.164948 0
M  V30 2771 H 257.871 2.76553 2.61341 0
M  V30 2772 H 257.383 3.73186 1.06554 0
M  V30 2773 H 255.484 2.20619 3.00263 0
M  V30 2774 H 255.597 4.04096 2.57377 0
M  V30 2775 H 253.961 2.09473 1.4489 0
M  V30 2776 H 254.744 3.40785 0.414807 0
M  V30 2777 N 257.189 -0.644168 1.43834 0
M  V30 2778 C 258.099 -1.78563 1.52159 0
M  V30 2779 C 259.115 -1.69147 0.408069 0
M  V30 2780 O 260.291 -1.90156 0.663524 0
M  V30 2781 C 257.356 -3.14888 1.45073 0
M  V30 2782 C 256.417 -3.36034 2.6717 0
M  V30 2783 C 255.65 -4.65855 2.60413 0
M  V30 2784 O 255.873 -5.45805 1.65689 0
M  V30 2785 O 254.807 -4.88918 3.5106 0
M  V30 2786 H 258.633 -1.74494 2.48567 0
M  V30 2787 H 256.218 -0.80378 1.25935 0
M  V30 2788 H 258.1 -3.96179 1.43597 0
M  V30 2789 H 256.775 -3.19528 0.518037 0
M  V30 2790 H 255.682 -2.54472 2.74217 0
M  V30 2791 H 257.015 -3.36247 3.59442 0
M  V30 2792 N 258.668 -1.30515 -0.883378 0
M  V30 2793 C 259.578 -1.18959 -2.02203 0
M  V30 2794 C 260.594 -0.109172 -1.73657 0
M  V30 2795 O 261.77 -0.324413 -1.9877 0
M  V30 2796 C 258.835 -0.883871 -3.35244 0
M  V30 2797 C 257.896 -2.04982 -3.77201 0
M  V30 2798 C 257.129 -1.75859 -5.03894 0
M  V30 2799 O 257.352 -0.687276 -5.66244 0
M  V30 2800 O 256.286 -2.61146 -5.42297 0
M  V30 2801 H 260.112 -2.14616 -2.1488 0
M  V30 2802 H 257.697 -1.10124 -1.0096 0
M  V30 2803 H 259.579 -0.728644 -4.15053 0
M  V30 2804 H 258.254 0.0427798 -3.23672 0
M  V30 2805 H 257.161 -2.26038 -2.9809 0
M  V30 2806 H 258.494 -2.95825 -3.93381 0
M  V30 2807 N 260.146 1.09593 -1.13257 0
M  V30 2808 C 261.109 2.14359 -0.811358 0
M  V30 2809 C 262.109 1.59808 0.178377 0
M  V30 2810 O 263.299 1.74132 -0.0484911 0
M  V30 2811 C 260.431 3.40269 -0.207276 0
M  V30 2812 H 261.624 2.44284 -1.73969 0
M  V30 2813 H 259.177 1.25102 -0.936973 0
M  V30 2814 H 259.912 3.15969 0.73036 0
M  V30 2815 H 259.697 3.81154 -0.919992 0
M  V30 2816 H 261.187 4.176 0.000667944 0
M  V30 2817 N 261.624 0.925811 1.2754 0
M  V30 2818 C 263.035 0.610102 1.7645 0
M  V30 2819 C 263.386 -0.874723 1.75622 0
M  V30 2820 O 262.511 -1.68444 1.35851 0
M  V30 2821 C 263.106 1.10073 3.20421 0
M  V30 2822 C 261.665 0.835723 3.67005 0
M  V30 2823 C 260.812 1.26054 2.46993 0
M  V30 2824 H 263.763 1.10579 1.13833 0
M  V30 2825 H 263.784 0.447557 3.77859 0
M  V30 2826 H 263.296 2.18143 3.20991 0
M  V30 2827 H 261.397 -0.231249 3.71882 0
M  V30 2828 H 261.51 1.45193 4.56569 0
M  V30 2829 H 259.874 0.679111 2.45479 0
M  V30 2830 H 260.657 2.34984 2.50275 0
M  V30 2831 N 263.102 -1.41638 0.69111 0
M  V30 2832 C 264.513 -1.84346 0.295517 0
M  V30 2833 C 264.864 -1.57833 -1.16547 0
M  V30 2834 O 263.989 -1.04648 -1.89414 0
M  V30 2835 C 264.584 -3.34636 0.529575 0
M  V30 2836 C 263.143 -3.7593 0.187944 0
M  V30 2837 C 262.29 -2.65082 0.814052 0
M  V30 2838 H 265.241 -1.31253 0.892092 0
M  V30 2839 H 265.262 -3.79903 -0.213148 0
M  V30 2840 H 264.774 -3.53901 1.59297 0
M  V30 2841 H 262.875 -3.62268 -0.871367 0
M  V30 2842 H 262.988 -4.74808 0.63985 0
M  V30 2843 H 261.352 -2.53528 0.244017 0
M  V30 2844 H 262.135 -2.87167 1.88123 0
M  V30 2845 N 264.58 -0.43555 -1.51462 0
M  V30 2846 C 265.996 -0.0877501 -1.59359 0
M  V30 2847 C 266.196 1.4027 -1.4466 0
M  V30 2848 O 265.252 2.17243 -1.28693 0
M  V30 2849 C 266.565 -0.606264 -2.94525 0
M  V30 2850 C 268.113 -0.566548 -3.0783 0
M  V30 2851 C 268.588 -1.06201 -4.45517 0
M  V30 2852 N 270.079 -1.01992 -4.51832 0
M  V30 2853 C 270.814 -1.37417 -5.5669 0
M  V30 2854 N 270.31 -1.80119 -6.68976 0
M  V30 2855 N 272.103 -1.29245 -5.47039 0
M  V30 2856 H 264.254 -1.40533 -1.59261 0
M  V30 2857 H 266.517 -0.578992 -0.750648 0
M  V30 2858 H 266.223 -1.64901 -3.10645 0
M  V30 2859 H 266.097 -0.0302097 -3.77188 0
M  V30 2860 H 268.484 0.467208 -2.91378 0
M  V30 2861 H 268.565 -1.17898 -2.2701 0
M  V30 2862 H 268.209 -2.09422 -4.62715 0
M  V30 2863 H 268.139 -0.426127 -5.24873 0
M  V30 2864 H 270.63 -0.706308 -3.71241 0
M  V30 2865 H 270.943 -2.05392 -7.45006 0
M  V30 2866 H 269.288 -1.84044 -6.70189 0
M  V30 2867 H 272.479 -0.957522 -4.58202 0
M  V30 2868 H 272.652 -1.57182 -6.28648 0
M  V30 2869 N 266.058 1.56714 -0.166846 0
M  V30 2870 C 267.474 1.58473 0.189372 0
M  V30 2871 C 267.674 1.18201 1.63189 0
M  V30 2872 O 266.73 0.891528 2.36237 0
M  V30 2873 C 268.043 3.00573 -0.0873872 0
M  V30 2874 C 269.591 3.1299 -0.0252443 0
M  V30 2875 C 270.066 4.57174 -0.274934 0
M  V30 2876 N 271.557 4.62665 -0.222553 0
M  V30 2877 C 272.292 5.72072 -0.389985 0
M  V30 2878 N 271.788 6.90054 -0.616229 0
M  V30 2879 N 273.581 5.61153 -0.326202 0
M  V30 2880 H 265.732 1.8118 -1.10849 0
M  V30 2881 H 267.995 0.839525 -0.440342 0
M  V30 2882 H 267.701 3.34497 -1.0865 0
M  V30 2883 H 267.575 3.72019 0.623037 0
M  V30 2884 H 269.962 2.78895 0.96444 0
M  V30 2885 H 270.043 2.43989 -0.768309 0
M  V30 2886 H 269.687 4.91976 -1.26181 0
M  V30 2887 H 269.617 5.24328 0.48869 0
M  V30 2888 H 272.108 3.77863 -0.0531512 0
M  V30 2889 H 272.421 7.69311 -0.733559 0
M  V30 2890 H 270.766 6.91927 -0.652791 0
M  V30 2891 H 273.957 4.67859 -0.150072 0
M  V30 2892 H 274.13 6.46364 -0.460116 0
M  V30 2893 N 267.536 -0.106894 1.57237 0
M  V30 2894 C 268.785 -0.811163 1.8467 0
M  V30 2895 C 269.098 -1.80469 0.754342 0
M  V30 2896 O 270.304 -2.55601 0.915439 0
M  V30 2897 C 268.76 -1.49337 3.27454 0
M  V30 2898 C 268.368 -0.540217 4.44731 0
M  V30 2899 C 270.112 -2.18206 3.64124 0
M  V30 2900 C 268.019 -1.22634 5.78545 0
M  V30 2901 H 266.949 -0.306679 0.688813 0
M  V30 2902 H 269.6 -0.0639887 1.83388 0
M  V30 2903 H 267.982 -2.2876 3.23241 0
M  V30 2904 H 269.156 0.221659 4.60267 0
M  V30 2905 H 267.471 0.042146 4.16379 0
M  V30 2906 H 270.068 -2.70253 4.61376 0
M  V30 2907 H 270.411 -2.96562 2.92158 0
M  V30 2908 H 270.944 -1.45658 3.70174 0
M  V30 2909 H 267.683 -0.483832 6.53712 0
M  V30 2910 H 267.203 -1.95993 5.66874 0
M  V30 2911 H 268.882 -1.75615 6.2271 0
M  V30 2912 N 269.014 -1.53014 -0.377408 0
M  V30 2913 C 269.944 -1.81589 -1.46791 0
M  V30 2914 C 270.925 -0.668622 -1.56408 0
M  V30 2915 O 272.11 -0.917337 -1.71168 0
M  V30 2916 C 269.24 -1.99519 -2.8427 0
M  V30 2917 C 268.194 -3.15249 -2.89486 0
M  V30 2918 C 267.52 -3.18451 -4.29527 0
M  V30 2919 C 268.82 -4.54084 -2.58079 0
M  V30 2920 H 270.514 -2.7291 -1.23127 0
M  V30 2921 H 268.06 -1.31319 -0.590883 0
M  V30 2922 H 270.013 -2.18092 -3.60575 0
M  V30 2923 H 268.737 -1.04897 -3.09296 0
M  V30 2924 H 267.396 -2.96477 -2.15631 0
M  V30 2925 H 267.044 -2.2149 -4.5161 0
M  V30 2926 H 266.744 -3.962 -4.33934 0
M  V30 2927 H 268.268 -3.39193 -5.07721 0
M  V30 2928 H 269.682 -4.72899 -3.24098 0
M  V30 2929 H 268.079 -5.33987 -2.7382 0
M  V30 2930 H 269.149 -4.60006 -1.53372 0
M  V30 2931 N 270.492 0.636531 -1.44174 0
M  V30 2932 C 271.741 1.39213 -1.45954 0
M  V30 2933 C 272.054 1.95374 -0.0939119 0
M  V30 2934 O 273.26 2.71498 0.0107767 0
M  V30 2935 C 271.716 2.52025 -2.56927 0
M  V30 2936 C 271.324 2.024 -3.99673 0
M  V30 2937 C 273.068 3.29269 -2.67922 0
M  V30 2938 C 270.975 3.12521 -5.0208 0
M  V30 2939 H 269.905 0.523132 -0.542999 0
M  V30 2940 H 272.556 0.685349 -1.70221 0
M  V30 2941 H 270.938 3.25253 -2.25891 0
M  V30 2942 H 272.112 1.36073 -4.40251 0
M  V30 2943 H 270.427 1.37987 -3.92872 0
M  V30 2944 H 273.024 4.11352 -3.41605 0
M  V30 2945 H 273.367 3.78397 -1.73555 0
M  V30 2946 H 273.9 2.63129 -2.98342 0
M  V30 2947 H 270.639 2.68343 -5.98057 0
M  V30 2948 H 270.159 3.77507 -4.66099 0
M  V30 2949 H 271.838 3.77385 -5.25538 0
M  V30 2950 N 271.97 1.30982 0.876444 0
M  V30 2951 C 273.2 1.23063 1.65949 0
M  V30 2952 C 273.608 -0.207537 1.88058 0
M  V30 2953 O 272.951 -1.14781 1.43426 0
M  V30 2954 C 273.013 1.89768 3.05333 0
M  V30 2955 C 272.677 3.39106 3.0636 0
M  V30 2956 C 273.674 4.3496 2.84791 0
M  V30 2957 C 271.359 3.80693 3.27686 0
M  V30 2958 C 273.353 5.70375 2.84519 0
M  V30 2959 C 271.04 5.16223 3.27043 0
M  V30 2960 C 272.038 6.10875 3.05485 0
M  V30 2961 O 271.726 7.43928 3.04674 0
M  V30 2962 H 271.458 0.426685 0.524324 0
M  V30 2963 H 274.012 1.7329 1.10271 0
M  V30 2964 H 272.242 1.34082 3.6271 0
M  V30 2965 H 273.931 1.75853 3.65829 0
M  V30 2966 H 274.697 4.0416 2.68103 0
M  V30 2967 H 270.576 3.07457 3.43499 0
M  V30 2968 H 274.12 6.44228 2.67611 0
M  V30 2969 H 270.017 5.4666 3.43269 0
M  V30 2970 H 270.785 7.53022 3.2078 0
M  V30 2971 N 273.449 -1.08991 1.13837 0
M  V30 2972 C 274.697 -1.80899 0.901098 0
M  V30 2973 C 275.018 -1.86356 -0.574134 0
M  V30 2974 O 274.288 -1.35235 -1.41733 0
M  V30 2975 H 272.868 -0.669966 0.330386 0
M  V30 2976 H 275.53 -1.318 1.43578 0
M  V30 2977 H 274.626 -2.83929 1.29578 0
M  V30 2978 N 274.927 -0.932562 -1.27047 0
M  V30 2979 C 276.173 -0.576412 -1.94436 0
M  V30 2980 C 276.506 0.880891 -1.73072 0
M  V30 2981 O 275.781 1.62905 -1.06264 0
M  V30 2982 C 276.064 -0.909031 -3.48437 0
M  V30 2983 C 275.917 -2.42044 -3.79123 0
M  V30 2984 C 277.236 -0.418341 -4.38107 0
M  V30 2985 H 274.355 -0.210888 -0.706184 0
M  V30 2986 H 276.997 -1.16522 -1.50075 0
M  V30 2987 H 275.147 -0.407947 -3.86352 0
M  V30 2988 H 276.819 -2.99359 -3.50973 0
M  V30 2989 H 275.062 -2.86758 -3.25503 0
M  V30 2990 H 275.733 -2.6037 -4.86736 0
M  V30 2991 H 278.209 -0.847856 -4.0737 0
M  V30 2992 H 277.085 -0.679981 -5.44672 0
M  V30 2993 H 277.346 0.681642 -4.36814 0
M  V30 2994 N 276.405 1.4127 -0.698611 0
M  V30 2995 C 277.337 2.292 0.00399731 0
M  V30 2996 C 278.35 1.44944 0.741279 0
M  V30 2997 O 279.539 1.68416 0.591477 0
M  V30 2998 C 276.639 3.22875 1.02979 0
M  V30 2999 C 275.812 4.35904 0.36151 0
M  V30 3000 C 274.871 5.10134 1.29033 0
M  V30 3001 O 273.897 5.63809 0.781562 0
M  V30 3002 N 275.099 5.17885 2.6225 0
M  V30 3003 H 277.864 2.9014 -0.750921 0
M  V30 3004 H 275.425 1.52455 -0.544882 0
M  V30 3005 H 277.417 3.69404 1.65296 0
M  V30 3006 H 275.987 2.63221 1.68622 0
M  V30 3007 H 275.207 3.91719 -0.441584 0
M  V30 3008 H 276.495 5.08696 -0.103055 0
M  V30 3009 H 275.893 4.7573 3.061 0
M  V30 3010 H 274.45 5.6798 3.19754 0
M  V30 3011 N 277.883 0.443576 1.51229 0
M  V30 3012 C 278.793 -0.370721 2.31652 0
M  V30 3013 C 279.809 -1.02186 1.40833 0
M  V30 3014 O 280.985 -1.01586 1.73903 0
M  V30 3015 C 278.05 -1.45376 3.14749 0
M  V30 3016 C 277.111 -0.822099 4.21355 0
M  V30 3017 C 276.344 -1.85353 5.0048 0
M  V30 3018 O 276.567 -3.07656 4.80316 0
M  V30 3019 O 275.501 -1.4406 5.84406 0
M  V30 3020 H 279.327 0.286002 3.0235 0
M  V30 3021 H 276.912 0.20598 1.47973 0
M  V30 3022 H 278.794 -2.08173 3.66391 0
M  V30 3023 H 277.469 -2.09445 2.46809 0
M  V30 3024 H 276.376 -0.155909 3.73775 0
M  V30 3025 H 277.709 -0.224797 4.91686 0
M  V30 3026 N 279.361 -1.56624 0.175154 0
M  V30 3027 C 280.271 -2.21741 -0.766042 0
M  V30 3028 C 281.287 -1.21023 -1.25018 0
M  V30 3029 O 282.463 -1.53697 -1.3015 0
M  V30 3030 C 279.528 -2.84839 -1.97655 0
M  V30 3031 C 278.589 -4.00769 -1.53892 0
M  V30 3032 C 277.822 -4.60849 -2.69173 0
M  V30 3033 O 278.045 -4.19823 -3.86141 0
M  V30 3034 O 276.979 -5.50655 -2.43028 0
M  V30 3035 H 280.805 -3.02738 -0.241585 0
M  V30 3036 H 278.39 -1.49305 -0.053222 0
M  V30 3037 H 280.272 -3.24834 -2.68442 0
M  V30 3038 H 278.947 -2.06836 -2.48999 0
M  V30 3039 H 277.854 -3.65436 -0.80044 0
M  V30 3040 H 279.187 -4.80376 -1.07236 0
M  V30 3041 N 280.839 0.0985539 -1.57292 0
M  V30 3042 C 281.787 1.1387 -2.02821 0
M  V30 3043 C 282.781 1.41676 -0.928666 0
M  V30 3044 O 283.987 1.41398 -1.11385 0
M  V30 3045 H 280.362 0.384419 -0.646317 0
M  V30 3046 H 282.333 0.728347 -2.89375 0
M  V30 3047 C 281.082 2.45166 -2.46554 0
M  V30 3048 H 280.405 2.24613 -3.3074 0
M  V30 3049 H 281.845 3.16456 -2.8219 0
M  V30 3050 C 280.304 3.09216 -1.33742 0
M  V30 3051 O 280.834 3.96163 -0.66464 0
M  V30 3052 N 279.04 2.69413 -1.08928 0
M  V30 3053 H 278.587 1.98801 -1.63817 0
M  V30 3054 H 278.545 3.12594 -0.336458 0
M  V30 3055 N 282.317 1.53212 0.369288 0
M  V30 3056 C 283.565 1.68881 1.11012 0
M  V30 3057 C 283.886 0.441285 1.89941 0
M  V30 3058 O 283.156 -0.544623 1.88177 0
M  V30 3059 H 281.736 0.622569 0.412816 0
M  V30 3060 H 284.398 1.90391 0.416802 0
M  V30 3061 H 283.494 2.54822 1.80201 0
M  V30 3062 N 283.795 -0.628877 1.44509 0
M  V30 3063 C 285.02 -1.42048 1.5112 0
M  V30 3064 C 285.445 -1.87594 0.137818 0
M  V30 3065 O 284.803 -1.58873 -0.873437 0
M  V30 3066 C 284.851 -2.61541 2.48251 0
M  V30 3067 O 283.955 -3.61453 1.98559 0
M  V30 3068 H 283.296 -0.424942 0.510216 0
M  V30 3069 H 285.826 -0.767374 1.89664 0
M  V30 3070 H 285.836 -3.09057 2.66361 0
M  V30 3071 H 284.511 -2.27736 3.48007 0
M  V30 3072 H 283.088 -3.20731 1.90227 0
M  V30 3073 N 285.273 -1.31445 -0.869486 0
M  V30 3074 C 286.223 -1.15731 -1.96444 0
M  V30 3075 C 287.207 -0.0681855 -1.60755 0
M  V30 3076 O 288.399 -0.293154 -1.74555 0
M  V30 3077 C 285.528 -0.867255 -3.32165 0
M  V30 3078 C 284.614 -1.99738 -3.74119 0
M  V30 3079 N 285.005 -3.24447 -3.88031 0
M  V30 3080 C 283.303 -1.89723 -4.03635 0
M  V30 3081 C 284.004 -3.98374 -4.23879 0
M  V30 3082 N 282.98 -3.26547 -4.3459 0
M  V30 3083 H 286.782 -2.10296 -2.05312 0
M  V30 3084 H 284.296 -1.23009 -1.06031 0
M  V30 3085 H 286.293 -0.735668 -4.10358 0
M  V30 3086 H 284.953 0.0701614 -3.24624 0
M  V30 3087 H 285.964 -3.59557 -3.72746 0
M  V30 3088 H 282.641 -1.03449 -4.04481 0
M  V30 3089 H 284.031 -5.05844 -4.42235 0
M  V30 3090 N 286.751 1.08385 -1.14413 0
M  V30 3091 C 287.997 1.81044 -0.913834 0
M  V30 3092 C 288.33 1.86004 0.558209 0
M  V30 3093 O 287.605 1.33606 1.4135 0
M  V30 3094 C 287.888 3.26648 -1.51569 0
M  V30 3095 C 287.741 3.29895 -3.0576 0
M  V30 3096 C 289.06 4.23629 -1.19273 0
M  V30 3097 H 286.179 0.65727 -0.333414 0
M  V30 3098 H 288.821 1.26896 -1.41412 0
M  V30 3099 H 286.971 3.72889 -1.09023 0
M  V30 3100 H 288.643 2.91977 -3.57137 0
M  V30 3101 H 286.886 2.69163 -3.40197 0
M  V30 3102 H 287.557 4.32516 -3.42977 0
M  V30 3103 H 290.033 3.85727 -1.56057 0
M  V30 3104 H 288.909 5.23822 -1.64017 0
M  V30 3105 H 289.17 4.41968 -0.108068 0
M  V30 3106 N 288.23 0.939286 1.26551 0
M  V30 3107 C 289.162 0.404704 2.25599 0
M  V30 3108 C 290.175 -0.470983 1.55838 0
M  V30 3109 O 291.364 -0.281734 1.76263 0
M  V30 3110 C 288.464 -0.43764 3.36062 0
M  V30 3111 C 287.637 0.421449 4.35365 0
M  V30 3112 C 286.696 -0.36015 5.24966 0
M  V30 3113 O 285.722 0.236167 5.6871 0
M  V30 3114 N 286.924 -1.65715 5.56344 0
M  V30 3115 H 289.689 1.25618 2.72103 0
M  V30 3116 H 287.25 0.807963 1.40298 0
M  V30 3117 H 289.242 -0.967866 3.92956 0
M  V30 3118 H 287.812 -1.18991 2.89067 0
M  V30 3119 H 287.032 1.1329 3.7757 0
M  V30 3120 H 288.32 1.00835 4.98708 0
M  V30 3121 H 287.718 -2.16378 5.22682 0
M  V30 3122 H 286.275 -2.13366 6.15888 0
M  V30 3123 N 289.708 -1.40897 0.706093 0
M  V30 3124 C 290.656 -2.32572 0.0361893 0
M  V30 3125 C 291.65 -1.51532 -0.757266 0
M  V30 3126 O 292.856 -1.67396 -0.661703 0
M  V30 3127 H 289.231 -0.751966 -0.00709935 0
M  V30 3128 H 291.202 -2.86733 0.826249 0
M  V30 3129 C 289.951 -3.36418 -0.87854 0
M  V30 3130 H 289.274 -3.98836 -0.277401 0
M  V30 3131 H 290.714 -4.0308 -1.3154 0
M  V30 3132 C 289.173 -2.71141 -1.99961 0
M  V30 3133 O 289.703 -2.56735 -3.0895 0
M  V30 3134 N 287.909 -2.29671 -1.78043 0
M  V30 3135 H 287.456 -2.41588 -0.894042 0
M  V30 3136 H 287.414 -1.86332 -2.53235 0
M  V30 3137 N 291.186 -0.45159 -1.50991 0
M  V30 3138 C 292.433 0.110074 -2.02201 0
M  V30 3139 C 292.761 1.4146 -1.33489 0
M  V30 3140 O 292.016 1.90617 -0.443125 0
M  V30 3141 C 292.315 0.361728 -3.55565 0
M  V30 3142 C 291.981 -0.858717 -4.42648 0
M  V30 3143 C 290.643 -1.19338 -4.66167 0
M  V30 3144 C 292.995 -1.67221 -4.93646 0
M  V30 3145 C 290.323 -2.34195 -5.37931 0
M  V30 3146 C 292.675 -2.8119 -5.6667 0
M  V30 3147 C 291.339 -3.15094 -5.88449 0
M  V30 3148 H 290.609 0.040279 -0.739904 0
M  V30 3149 H 293.256 -0.601696 -1.81802 0
M  V30 3150 H 291.561 1.15554 -3.74372 0
M  V30 3151 H 293.258 0.80996 -3.92735 0
M  V30 3152 H 289.848 -0.58796 -4.24548 0
M  V30 3153 H 294.032 -1.42686 -4.75347 0
M  V30 3154 H 289.288 -2.6076 -5.53005 0
M  V30 3155 H 293.462 -3.44585 -6.05173 0
M  V30 3156 H 291.089 -4.04204 -6.43835 0
M  V30 3157 N 292.664 1.56529 -0.183458 0
M  V30 3158 C 293.627 2.17324 0.728223 0
M  V30 3159 C 294.627 1.12453 1.14939 0
M  V30 3160 O 295.817 1.37902 1.06437 0
M  V30 3161 C 292.949 2.76591 1.99274 0
M  V30 3162 H 294.142 2.99241 0.198772 0
M  V30 3163 H 291.695 1.5616 0.0661391 0
M  V30 3164 H 292.43 1.98441 2.56499 0
M  V30 3165 H 292.215 3.5335 1.69959 0
M  V30 3166 H 293.705 3.23311 2.6431 0
M  V30 3167 N 294.142 -0.090211 1.57342 0
M  V30 3168 C 295.072 -1.10976 2.05443 0
M  V30 3169 C 296.053 -1.41482 0.944284 0
M  V30 3170 O 297.238 -1.51428 1.21586 0
M  V30 3171 C 294.368 -2.42831 2.48295 0
M  V30 3172 C 293.322 -2.26721 3.63018 0
M  V30 3173 C 292.648 -3.63796 3.91863 0
M  V30 3174 C 293.948 -1.7037 4.93732 0
M  V30 3175 H 295.642 -0.709564 2.9087 0
M  V30 3176 H 293.188 -0.339874 1.39932 0
M  V30 3177 H 295.141 -3.14431 2.80555 0
M  V30 3178 H 293.865 -2.84795 1.59873 0
M  V30 3179 H 292.524 -1.57565 3.31012 0
M  V30 3180 H 292.172 -4.03297 3.00601 0
M  V30 3181 H 291.872 -3.53861 4.69101 0
M  V30 3182 H 293.396 -4.36855 4.26603 0
M  V30 3183 H 294.81 -2.31816 5.24342 0
M  V30 3184 H 293.207 -1.71181 5.75167 0
M  V30 3185 H 294.277 -0.663542 4.80339 0
M  V30 3186 N 295.62 -1.53406 -0.361157 0
M  V30 3187 C 296.897 -1.60411 -1.11927 0
M  V30 3188 C 297.277 -0.414385 -2.06993 0
M  V30 3189 O 296.625 0.594976 -2.20618 0
M  V30 3190 C 296.835 -2.95652 -1.85448 0
M  V30 3191 C 298.183 -3.50386 -2.39823 0
M  V30 3192 O 299.207 -2.97711 -1.95568 0
M  V30 3193 O 298.066 -4.42482 -3.20737 0
M  V30 3194 H 295.16 -0.64811 -0.513695 0
M  V30 3195 H 297.706 -1.65749 -0.364065 0
M  V30 3196 H 296.478 -3.73682 -1.16091 0
M  V30 3197 H 296.101 -2.93825 -2.67866 0
M  V30 3198 N 297.098 0.621204 -1.44841 0
M  V30 3199 C 298.028 1.74366 -1.55303 0
M  V30 3200 C 299.009 1.65199 -0.405385 0
M  V30 3201 O 300.194 1.83807 -0.626787 0
M  V30 3202 C 297.324 3.12931 -1.50637 0
M  V30 3203 C 296.278 3.36896 -2.63979 0
M  V30 3204 C 295.604 4.75594 -2.44366 0
M  V30 3205 C 296.904 3.28483 -4.06074 0
M  V30 3206 H 298.598 1.65867 -2.49256 0
M  V30 3207 H 296.144 0.796558 -1.19962 0
M  V30 3208 H 298.097 3.9124 -1.56555 0
M  V30 3209 H 296.821 3.22237 -0.532057 0
M  V30 3210 H 295.48 2.60972 -2.57467 0
M  V30 3211 H 295.128 4.81616 -1.45105 0
M  V30 3212 H 294.828 4.92586 -3.20364 0
M  V30 3213 H 296.352 5.5612 -2.52117 0
M  V30 3214 H 297.766 3.96684 -4.13902 0
M  V30 3215 H 296.163 3.57008 -4.82354 0
M  V30 3216 H 297.233 2.26133 -4.28943 0
M  V30 3217 N 298.576 1.31904 0.862503 0
M  V30 3218 C 299.804 1.24998 1.64873 0
M  V30 3219 C 300.219 -0.183425 1.87907 0
M  V30 3220 O 299.576 -1.11794 1.44251 0
M  V30 3221 C 299.627 1.99829 3.01248 0
M  V30 3222 O 299.348 3.37575 2.79239 0
M  V30 3223 C 300.849 1.99852 3.95694 0
M  V30 3224 H 298.069 0.431599 0.513773 0
M  V30 3225 H 300.613 1.73901 1.07604 0
M  V30 3226 H 298.768 1.54668 3.55185 0
M  V30 3227 H 299.182 3.75776 3.65914 0
M  V30 3228 H 300.656 2.56709 4.88676 0
M  V30 3229 H 301.133 0.982852 4.28062 0
M  V30 3230 H 301.739 2.44926 3.47694 0
M  V30 3231 N 300.054 -1.07777 1.14986 0
M  V30 3232 C 301.465 -1.61766 0.932127 0
M  V30 3233 C 301.816 -1.88974 -0.527581 0
M  V30 3234 O 300.941 -1.65198 -1.39781 0
M  V30 3235 C 301.536 -2.93891 1.68563 0
M  V30 3236 C 300.095 -3.44639 1.5133 0
M  V30 3237 C 299.242 -2.18767 1.704 0
M  V30 3238 H 302.193 -0.909201 1.30074 0
M  V30 3239 H 302.214 -3.62623 1.15259 0
M  V30 3240 H 301.726 -2.74057 2.74799 0
M  V30 3241 H 299.827 -3.69564 0.474702 0
M  V30 3242 H 299.94 -4.20966 2.28746 0
M  V30 3243 H 298.304 -2.28253 1.13016 0
M  V30 3244 H 299.087 -2.01433 2.77992 0
M  V30 3245 N 301.532 -0.945985 -1.26051 0
M  V30 3246 C 302.943 -0.638096 -1.75457 0
M  V30 3247 C 303.294 0.846672 -1.76991 0
M  V30 3248 O 302.419 1.66262 -1.38513 0
M  V30 3249 C 303.014 -1.15157 -3.18629 0
M  V30 3250 C 301.573 -0.894004 -3.65629 0
M  V30 3251 C 300.72 -1.29967 -2.44957 0
M  V30 3252 H 303.671 -1.12376 -1.1206 0
M  V30 3253 H 303.692 -0.507615 -3.77099 0
M  V30 3254 H 303.204 -2.23222 -3.1748 0
M  V30 3255 H 301.305 0.172057 -3.72203 0
M  V30 3256 H 301.418 -1.52439 -4.54202 0
M  V30 3257 H 299.782 -0.718078 -2.44368 0
M  V30 3258 H 300.565 -2.38935 -2.46505 0
M  V30 3259 N 303.011 1.40521 -0.713556 0
M  V30 3260 C 304.422 1.83853 -0.324807 0
M  V30 3261 C 304.773 1.59667 1.14021 0
M  V30 3262 O 303.898 1.07649 1.87725 0
M  V30 3263 C 304.493 3.33751 -0.582746 0
M  V30 3264 C 303.052 3.75584 -0.247727 0
M  V30 3265 C 302.199 2.63753 -0.856121 0
M  V30 3266 H 305.15 1.29817 -0.91286 0
M  V30 3267 H 305.171 3.80194 0.152682 0
M  V30 3268 H 304.683 3.51322 -1.64908 0
M  V30 3269 H 302.784 3.63608 0.813624 0
M  V30 3270 H 302.897 4.7373 -0.715307 0
M  V30 3271 H 301.261 2.53108 -0.28432 0
M  V30 3272 H 302.044 2.84137 -1.92668 0
M  V30 3273 N 304.489 0.459591 1.5075 0
M  V30 3274 C 305.399 -0.34613 2.32033 0
M  V30 3275 C 306.415 -1.00686 1.41909 0
M  V30 3276 O 307.591 -0.997361 1.7497 0
M  V30 3277 C 304.656 -1.42029 3.16273 0
M  V30 3278 C 303.717 -0.777362 4.22203 0
M  V30 3279 C 302.95 -1.80034 5.02418 0
M  V30 3280 O 303.173 -3.02544 4.83553 0
M  V30 3281 O 302.107 -1.37853 5.85901 0
M  V30 3282 H 305.933 0.318054 3.0203 0
M  V30 3283 H 303.518 0.221663 1.47746 0
M  V30 3284 H 305.4 -2.04275 3.68578 0
M  V30 3285 H 304.075 -2.06815 2.49016 0
M  V30 3286 H 302.982 -0.116256 3.73919 0
M  V30 3287 H 304.315 -0.172634 4.91897 0
M  V30 3288 N 305.967 -1.56429 0.191757 0
M  V30 3289 C 307.213 -1.97777 -0.448554 0
M  V30 3290 C 307.546 -1.07847 -1.61501 0
M  V30 3291 O 306.821 -0.129774 -1.94067 0
M  V30 3292 C 307.104 -3.48362 -0.911906 0
M  V30 3293 C 306.957 -4.4907 0.256136 0
M  V30 3294 C 308.276 -4.02561 -1.77857 0
M  V30 3295 H 305.395 -0.719071 -0.161572 0
M  V30 3296 H 308.037 -1.87896 0.282007 0
M  V30 3297 H 306.187 -3.56914 -1.53442 0
M  V30 3298 H 307.859 -4.5256 0.893733 0
M  V30 3299 H 306.102 -4.24181 0.908436 0
M  V30 3300 H 306.773 -5.51889 -0.11053 0
M  V30 3301 H 309.249 -3.96767 -1.25359 0
M  V30 3302 H 308.125 -5.08301 -2.07174 0
M  V30 3303 H 308.386 -3.47616 -2.73158 0
M  V30 3304 N 307.445 0.0818655 -1.57387 0
M  V30 3305 C 308.691 0.784074 -1.8703 0
M  V30 3306 C 309.024 1.77729 -0.782689 0
M  V30 3307 O 308.299 1.93384 0.208051 0
M  V30 3308 C 308.582 1.50105 -3.27323 0
M  V30 3309 C 308.435 0.524925 -4.46727 0
M  V30 3310 C 309.754 2.44843 -3.65705 0
M  V30 3311 H 306.873 0.283582 -0.680257 0
M  V30 3312 H 309.515 0.0474352 -1.89941 0
M  V30 3313 H 307.665 2.12897 -3.24972 0
M  V30 3314 H 309.337 -0.0970111 -4.61198 0
M  V30 3315 H 307.58 -0.160606 -4.33503 0
M  V30 3316 H 308.251 1.064 -5.41648 0
M  V30 3317 H 310.727 1.92135 -3.69085 0
M  V30 3318 H 309.603 2.92018 -4.64776 0
M  V30 3319 H 309.864 3.29197 -2.95096 0
M  V30 3320 N 308.923 1.53595 0.353017 0
M  V30 3321 C 310.153 1.74058 1.11299 0
M  V30 3322 C 310.561 0.475205 1.83135 0
M  V30 3323 O 309.904 -0.562344 1.74881 0
M  V30 3324 C 309.966 2.85994 2.17825 0
M  V30 3325 C 309.63 4.25923 1.65647 0
M  V30 3326 C 310.627 5.07829 1.11383 0
M  V30 3327 C 308.312 4.72377 1.7078 0
M  V30 3328 C 310.306 6.34285 0.629439 0
M  V30 3329 C 307.993 5.98808 1.21953 0
M  V30 3330 C 308.991 6.79594 0.681265 0
M  V30 3331 O 308.679 8.03651 0.200248 0
M  V30 3332 H 308.411 0.585327 0.338183 0
M  V30 3333 H 310.965 2.01186 0.413927 0
M  V30 3334 H 309.195 2.54368 2.91262 0
M  V30 3335 H 310.884 2.94515 2.79313 0
M  V30 3336 H 311.65 4.73107 1.06746 0
M  V30 3337 H 307.529 4.0956 2.11617 0
M  V30 3338 H 311.073 6.97288 0.208636 0
M  V30 3339 H 306.97 6.33026 1.26287 0
M  V30 3340 H 307.738 8.1788 0.318416 0
M  V30 3341 N 310.401 -0.613514 1.45168 0
M  V30 3342 C 311.348 -1.72456 1.53387 0
M  V30 3343 C 312.318 -1.6169 0.380191 0
M  V30 3344 O 313.503 -1.81356 0.592836 0
M  V30 3345 C 310.643 -3.10753 1.50088 0
M  V30 3346 C 309.756 -3.32368 2.75963 0
M  V30 3347 C 308.891 -4.60737 2.64376 0
M  V30 3348 C 307.93 -4.7559 3.85332 0
M  V30 3349 N 307.067 -5.95253 3.72315 0
M  V30 3350 H 311.907 -1.64768 2.48305 0
M  V30 3351 H 309.444 -0.803503 1.23216 0
M  V30 3352 H 311.402 -3.90758 1.46164 0
M  V30 3353 H 310.032 -3.17413 0.587243 0
M  V30 3354 H 309.084 -2.4618 2.89999 0
M  V30 3355 H 310.396 -3.39218 3.65695 0
M  V30 3356 H 309.55 -5.48928 2.58385 0
M  V30 3357 H 308.289 -4.56275 1.72233 0
M  V30 3358 H 307.294 -3.85824 3.91688 0
M  V30 3359 H 308.519 -4.81854 4.78533 0
M  V30 3360 H 306.465 -5.91847 2.82937 0
M  V30 3361 H 306.382 -6.03236 4.55677 0
M  V30 3362 H 307.65 -6.85958 3.70246 0
M  V30 3363 N 311.879 -1.3236 -0.855495 0
M  V30 3364 C 313.104 -1.2601 -1.64731 0
M  V30 3365 C 313.529 0.169068 -1.87339 0
M  V30 3366 O 312.887 1.12016 -1.42556 0
M  V30 3367 C 312.935 -2.02417 -2.98429 0
M  V30 3368 O 312.039 -1.3714 -3.8893 0
M  V30 3369 H 311.38 -0.434325 -0.502253 0
M  V30 3370 H 313.91 -1.74661 -1.06558 0
M  V30 3371 H 313.92 -2.12559 -3.48257 0
M  V30 3372 H 312.595 -3.06343 -2.81295 0
M  V30 3373 H 311.172 -1.3554 -3.47395 0
M  V30 3374 N 313.357 1.07166 -1.15556 0
M  V30 3375 C 314.267 2.17947 -0.868116 0
M  V30 3376 C 315.283 1.73297 0.156297 0
M  V30 3377 O 316.459 2.01392 -0.0182327 0
M  V30 3378 C 313.524 3.44789 -0.36355 0
M  V30 3379 C 312.585 4.03996 -1.45209 0
M  V30 3380 C 311.818 5.24783 -0.971508 0
M  V30 3381 O 312.041 5.70109 0.182194 0
M  V30 3382 O 310.975 5.75715 -1.75603 0
M  V30 3383 H 314.801 2.4503 -1.79427 0
M  V30 3384 H 312.386 1.16539 -0.934824 0
M  V30 3385 H 314.268 4.21307 -0.0887113 0
M  V30 3386 H 312.943 3.19253 0.534708 0
M  V30 3387 H 311.85 3.29009 -1.78056 0
M  V30 3388 H 313.183 4.33808 -2.32533 0
M  V30 3389 N 314.835 0.952656 1.25548 0
M  V30 3390 C 316.246 0.647392 1.75116 0
M  V30 3391 C 316.597 -0.837274 1.77438 0
M  V30 3392 O 315.722 -1.65525 1.39393 0
M  V30 3393 C 316.317 1.16845 3.18014 0
M  V30 3394 C 314.876 0.913382 3.6515 0
M  V30 3395 C 314.023 1.31265 2.44264 0
M  V30 3396 H 316.974 1.12968 1.11462 0
M  V30 3397 H 316.995 0.527606 3.76824 0
M  V30 3398 H 316.507 2.24902 3.16292 0
M  V30 3399 H 314.608 -0.152316 3.72289 0
M  V30 3400 H 314.721 1.54845 4.53387 0
M  V30 3401 H 313.085 0.731028 2.43984 0
M  V30 3402 H 313.868 2.40239 2.45234 0
M  V30 3403 N 316.313 -1.40141 0.720998 0
M  V30 3404 C 317.561 -2.0039 0.262323 0
M  V30 3405 C 317.882 -1.57469 -1.15015 0
M  V30 3406 O 317.152 -0.816582 -1.78069 0
M  V30 3407 H 315.732 -0.741063 0.093996 0
M  V30 3408 H 318.394 -1.71398 0.927835 0
M  V30 3409 H 317.49 -3.10658 0.299671 0
M  V30 3410 N 317.792 -0.46758 -1.50504 0
M  V30 3411 C 319.02 0.0864133 -2.06719 0
M  V30 3412 C 319.435 1.33819 -1.33184 0
M  V30 3413 O 318.792 1.78061 -0.400083 0
M  V30 3414 C 318.843 0.378079 -3.59517 0
M  V30 3415 O 318.564 -0.824044 -4.3028 0
M  V30 3416 C 320.065 0.979426 -4.32345 0
M  V30 3417 H 317.285 -0.00551697 -0.670977 0
M  V30 3418 H 319.829 -0.655354 -1.93715 0
M  V30 3419 H 317.984 1.06977 -3.72337 0
M  V30 3420 H 318.398 -0.566518 -5.21432 0
M  V30 3421 H 319.872 1.1333 -5.40241 0
M  V30 3422 H 320.349 1.9686 -3.9261 0
M  V30 3423 H 320.955 0.326216 -4.24047 0
M  V30 3424 N 319.27 1.56325 -0.20005 0
M  V30 3425 C 320.495 2.02548 0.44597 0
M  V30 3426 C 320.92 1.07922 1.5406 0
M  V30 3427 O 320.278 0.0635775 1.81188 0
M  V30 3428 C 320.326 3.47175 0.974761 0
M  V30 3429 O 319.43 3.55671 2.08739 0
M  V30 3430 H 318.771 0.655862 0.103638 0
M  V30 3431 H 321.301 2.02201 -0.312381 0
M  V30 3432 H 321.311 3.87067 1.2901 0
M  V30 3433 H 319.986 4.15538 0.17347 0
M  V30 3434 H 318.563 3.27657 1.78032 0
M  V30 3435 N 320.748 -0.0735177 1.57428 0
M  V30 3436 C 322.025 -0.805903 1.78226 0
M  V30 3437 C 322.405 -1.95874 0.787189 0
M  V30 3438 O 321.753 -2.2779 -0.180029 0
M  V30 3439 C 321.963 -1.28045 3.24662 0
M  V30 3440 C 323.311 -1.71453 3.88444 0
M  V30 3441 O 324.335 -1.37616 3.28543 0
M  V30 3442 O 323.194 -2.34093 4.93825 0
M  V30 3443 H 320.288 -0.386041 0.73137 0
M  V30 3444 H 322.834 -0.0537269 1.69615 0
M  V30 3445 H 321.606 -0.455476 3.8864 0
M  V30 3446 H 321.229 -2.094 3.37991 0
M  V30 3447 N 322.226 -1.5378 -0.344866 0
M  V30 3448 C 323.474 -1.70625 -1.08311 0
M  V30 3449 C 323.795 -0.471447 -1.89215 0
M  V30 3450 O 323.065 0.514616 -1.8902 0
M  V30 3451 H 321.645 -0.629058 -0.402859 0
M  V30 3452 H 324.307 -1.9103 -0.386459 0
M  V30 3453 H 323.403 -2.57656 -1.76124 0
M  V30 3454 N 323.704 0.605807 -1.45491 0
M  V30 3455 C 324.637 1.73022 -1.48791 0
M  V30 3456 C 325.615 1.58917 -0.344112 0
M  V30 3457 O 326.799 1.80453 -0.544876 0
M  V30 3458 C 323.926 3.10865 -1.34463 0
M  V30 3459 C 322.972 3.43554 -2.5273 0
M  V30 3460 S 323.805 3.38196 -4.15191 0
M  V30 3461 C 324.961 4.78616 -4.03333 0
M  V30 3462 H 325.194 1.69961 -2.43928 0
M  V30 3463 H 322.727 0.782611 -1.33096 0
M  V30 3464 H 324.685 3.90398 -1.26884 0
M  V30 3465 H 323.346 3.1144 -0.40794 0
M  V30 3466 H 322.539 4.43924 -2.38637 0
M  V30 3467 H 322.141 2.71541 -2.5718 0
M  V30 3468 H 324.433 5.68463 -3.68587 0
M  V30 3469 H 325.376 4.97767 -5.03621 0
M  V30 3470 H 325.784 4.54381 -3.34959 0
M  V30 3471 N 325.182 1.32811 0.848464 0
M  V30 3472 C 326.13 1.22231 1.97895 0
M  V30 3473 C 327.124 0.125749 1.68933 0
M  V30 3474 O 328.33 0.289083 1.77663 0
M  V30 3475 H 324.705 0.379058 0.649476 0
M  V30 3476 H 326.676 2.17828 2.03945 0
M  V30 3477 C 325.425 0.968572 3.33937 0
M  V30 3478 H 324.748 1.80458 3.56756 0
M  V30 3479 H 326.188 0.934808 4.13567 0
M  V30 3480 C 324.647 -0.328628 3.35293 0
M  V30 3481 O 325.177 -1.33848 3.78745 0
M  V30 3482 N 323.383 -0.352788 2.88451 0
M  V30 3483 H 322.93 0.469541 2.53285 0
M  V30 3484 H 322.888 -1.22057 2.89741 0
M  V30 3485 N 326.66 -1.06551 1.16123 0
M  V30 3486 C 327.906 -1.79567 0.94252 0
M  V30 3487 C 328.239 -1.86869 -0.528547 0
M  V30 3488 O 327.514 -1.35838 -1.39206 0
M  V30 3489 C 327.797 -3.24195 1.56747 0
M  V30 3490 C 327.65 -3.24989 3.10969 0
M  V30 3491 C 328.969 -4.21678 1.25998 0
M  V30 3492 H 326.088 -0.651883 0.343828 0
M  V30 3493 H 328.73 -1.2463 1.43413 0
M  V30 3494 H 326.88 -3.71107 1.14942 0
M  V30 3495 H 328.552 -2.86258 3.61737 0
M  V30 3496 H 326.795 -2.63716 3.44436 0
M  V30 3497 H 327.466 -4.27005 3.49815 0
M  V30 3498 H 329.942 -3.83196 1.62174 0
M  V30 3499 H 328.818 -5.21146 1.7233 0
M  V30 3500 H 329.079 -4.4174 0.178367 0
M  V30 3501 N 328.138 -0.959301 -1.25041 0
M  V30 3502 C 329.068 -0.501388 -2.28053 0
M  V30 3503 C 330.049 0.454673 -1.63911 0
M  V30 3504 O 331.234 0.352618 -1.90972 0
M  V30 3505 C 328.364 0.217224 -3.4662 0
M  V30 3506 C 327.318 -0.654034 -4.22973 0
M  V30 3507 C 326.644 0.195589 -5.34342 0
M  V30 3508 C 327.944 -1.93447 -4.85155 0
M  V30 3509 H 329.638 -1.36238 -2.66608 0
M  V30 3510 H 327.184 -0.656534 -1.28163 0
M  V30 3511 H 329.137 0.548732 -4.17812 0
M  V30 3512 H 327.861 1.1125 -3.07068 0
M  V30 3513 H 326.52 -0.968693 -3.5357 0
M  V30 3514 H 326.168 1.09076 -4.91031 0
M  V30 3515 H 325.868 -0.384091 -5.86343 0
M  V30 3516 H 327.392 0.521958 -6.08365 0
M  V30 3517 H 328.806 -1.66908 -5.48466 0
M  V30 3518 H 327.203 -2.46018 -5.47353 0
M  V30 3519 H 328.273 -2.63466 -4.07079 0
M  V30 3520 N 329.616 1.39756 -0.72842 0
M  V30 3521 C 330.864 2.00248 -0.272946 0
M  V30 3522 C 331.185 1.58077 1.14178 0
M  V30 3523 O 330.455 0.826014 1.77634 0
M  V30 3524 H 329.035 0.740554 -0.0979247 0
M  V30 3525 H 331.697 1.70903 -0.936912 0
M  V30 3526 H 330.793 3.10495 -0.316142 0
M  V30 3527 N 331.094 0.475555 1.50254 0
M  V30 3528 C 332.343 -0.0795996 2.01543 0
M  V30 3529 C 332.656 -1.4038 1.36209 0
M  V30 3530 O 333.862 -2.04415 1.7868 0
M  V30 3531 C 332.318 -0.192363 3.59386 0
M  V30 3532 C 331.926 1.12367 4.33679 0
M  V30 3533 C 333.67 -0.699238 4.18701 0
M  V30 3534 C 331.577 0.974453 5.83317 0
M  V30 3535 H 330.507 -0.0335228 0.753254 0
M  V30 3536 H 333.158 0.611128 1.73025 0
M  V30 3537 H 331.54 -0.946974 3.84511 0
M  V30 3538 H 332.714 1.88958 4.20276 0
M  V30 3539 H 331.029 1.562 3.85993 0
M  V30 3540 H 333.626 -0.827978 5.28251 0
M  V30 3541 H 333.969 -1.69171 3.80377 0
M  V30 3542 H 334.502 -0.00188807 3.978 0
M  V30 3543 H 331.241 1.94042 6.26121 0
M  V30 3544 H 330.761 0.248998 5.99283 0
M  V30 3545 H 332.44 0.642867 6.43798 0
M  V30 3546 N 332.573 -1.56217 0.208337 0
M  V30 3547 C 333.819 -1.98242 -0.427552 0
M  V30 3548 C 334.152 -1.09554 -1.60348 0
M  V30 3549 O 333.427 -0.15035 -1.93918 0
M  V30 3550 C 333.71 -3.4931 -0.874907 0
M  V30 3551 C 333.563 -4.48773 0.303751 0
M  V30 3552 C 334.882 -4.04424 -1.73577 0
M  V30 3553 H 332.001 -0.720744 -0.153936 0
M  V30 3554 H 334.643 -1.87586 0.30192 0
M  V30 3555 H 332.793 -3.58522 -1.49648 0
M  V30 3556 H 334.465 -4.51586 0.941682 0
M  V30 3557 H 332.708 -4.23194 0.953375 0
M  V30 3558 H 333.379 -5.51976 -0.0519883 0
M  V30 3559 H 335.855 -3.98075 -1.21143 0
M  V30 3560 H 334.731 -5.1047 -2.01771 0
M  V30 3561 H 334.992 -3.50494 -2.69456 0
M  V30 3562 N 334.051 0.0651679 -1.57465 0
M  V30 3563 C 335.298 0.763063 -1.87573 0
M  V30 3564 C 335.626 1.77242 -0.800961 0
M  V30 3565 O 334.881 1.94651 0.202316 0
M  V30 3566 C 335.18 1.50081 -3.24362 0
M  V30 3567 C 334.846 0.630816 -4.46466 0
M  V30 3568 C 333.508 0.391082 -4.79608 0
M  V30 3569 C 335.86 0.0279465 -5.21193 0
M  V30 3570 C 333.188 -0.460894 -5.84887 0
M  V30 3571 C 335.54 -0.811522 -6.27373 0
M  V30 3572 C 334.204 -1.06106 -6.59013 0
M  V30 3573 H 333.474 0.279224 -0.686378 0
M  V30 3574 H 336.121 0.0236726 -1.91485 0
M  V30 3575 H 334.426 2.31258 -3.16271 0
M  V30 3576 H 336.123 2.04571 -3.44894 0
M  V30 3577 H 332.713 0.8278 -4.2053 0
M  V30 3578 H 336.897 0.200262 -4.95896 0
M  V30 3579 H 332.153 -0.662907 -6.07796 0
M  V30 3580 H 336.327 -1.28537 -6.84435 0
M  V30 3581 H 333.954 -1.723 -7.40417 0
M  V30 3582 N 335.529 1.53961 0.336706 0
M  V30 3583 C 336.776 1.71536 1.07618 0
M  V30 3584 C 337.104 0.482125 1.8843 0
M  V30 3585 O 336.359 -0.536142 1.88213 0
M  V30 3586 C 336.658 2.93493 2.03953 0
M  V30 3587 C 336.324 4.28811 1.39399 0
M  V30 3588 C 334.986 4.65602 1.21523 0
M  V30 3589 C 337.338 5.12844 0.929541 0
M  V30 3590 C 334.666 5.84037 0.558312 0
M  V30 3591 C 337.018 6.31951 0.286505 0
M  V30 3592 C 335.682 6.67432 0.0954869 0
M  V30 3593 H 334.952 0.627696 0.393801 0
M  V30 3594 H 337.599 1.88186 0.354715 0
M  V30 3595 H 335.904 2.71475 2.82504 0
M  V30 3596 H 337.601 3.04285 2.61174 0
M  V30 3597 H 334.191 3.99858 1.54311 0
M  V30 3598 H 338.375 4.84947 1.05548 0
M  V30 3599 H 333.631 6.10097 0.398995 0
M  V30 3600 H 337.805 6.96352 -0.0814376 0
M  V30 3601 H 335.432 7.59063 -0.415579 0
M  V30 3602 N 337.007 -0.598083 1.45811 0
M  V30 3603 C 338.232 -1.3881 1.54099 0
M  V30 3604 C 338.657 -1.8726 0.177578 0
M  V30 3605 O 338.015 -1.6069 -0.839541 0
M  V30 3606 C 338.063 -2.56217 2.53743 0
M  V30 3607 O 337.167 -3.5716 2.06182 0
M  V30 3608 H 336.508 -0.414024 0.519115 0
M  V30 3609 H 339.038 -0.726971 1.91249 0
M  V30 3610 H 339.048 -3.03337 2.72856 0
M  V30 3611 H 337.723 -2.20303 3.5276 0
M  V30 3612 H 336.3 -3.16624 1.96987 0
M  V30 3613 N 338.485 -1.33259 -0.841409 0
M  V30 3614 C 339.448 -1.23221 -1.9326 0
M  V30 3615 C 340.448 -0.151895 -1.60081 0
M  V30 3616 O 341.638 -0.403246 -1.69468 0
M  V30 3617 C 338.77 -0.898123 -3.28856 0
M  V30 3618 H 339.963 -2.2021 -2.03587 0
M  V30 3619 H 337.516 -1.17281 -1.03319 0
M  V30 3620 H 338.251 0.0693841 -3.24226 0
M  V30 3621 H 338.036 -1.67934 -3.54317 0
M  V30 3622 H 339.526 -0.852563 -4.08805 0
M  V30 3623 N 339.963 1.05934 -1.16686 0
M  V30 3624 C 341.191 1.8249 -0.974929 0
M  V30 3625 C 341.606 1.82679 0.476861 0
M  V30 3626 O 340.963 1.2486 1.33103 0
M  V30 3627 C 341.014 3.28943 -1.49929 0
M  V30 3628 O 340.735 3.28886 -2.89423 0
M  V30 3629 C 342.236 4.22215 -1.35089 0
M  V30 3630 H 339.456 0.575295 -0.345365 0
M  V30 3631 H 342 1.33631 -1.548 0
M  V30 3632 H 340.155 3.751 -0.968423 0
M  V30 3633 H 340.569 4.20493 -3.13506 0
M  V30 3634 H 342.043 5.22987 -1.76603 0
M  V30 3635 H 342.52 4.38195 -0.296935 0
M  V30 3636 H 343.126 3.81907 -1.87155 0
M  V30 3637 N 341.441 0.965919 1.2453 0
M  V30 3638 C 342.374 0.4393 2.23932 0
M  V30 3639 C 343.352 -0.485615 1.55179 0
M  V30 3640 O 344.536 -0.417402 1.83821 0
M  V30 3641 C 341.663 -0.366042 3.36716 0
M  V30 3642 C 340.709 0.5009 4.23548 0
M  V30 3643 S 341.542 1.94002 4.99123 0
M  V30 3644 C 342.698 1.14342 6.15367 0
M  V30 3645 H 342.931 1.28167 2.68254 0
M  V30 3646 H 340.464 0.770819 1.33782 0
M  V30 3647 H 342.422 -0.824724 4.0213 0
M  V30 3648 H 341.083 -1.18337 2.90956 0
M  V30 3649 H 340.276 -0.117341 5.03863 0
M  V30 3650 H 339.878 0.89524 3.63127 0
M  V30 3651 H 342.17 0.397572 6.76332 0
M  V30 3652 H 343.113 1.92089 6.81548 0
M  V30 3653 H 343.521 0.668579 5.60527 0
M  V30 3654 N 342.919 -1.39368 0.735821 0
M  V30 3655 C 344.167 -2.00101 0.283562 0
M  V30 3656 C 344.488 -1.5868 -1.13338 0
M  V30 3657 O 343.758 -0.835423 -1.77193 0
M  V30 3658 H 342.338 -0.740024 0.101851 0
M  V30 3659 H 345 -1.70404 0.945962 0
M  V30 3660 H 344.096 -3.10323 0.332604 0
M  V30 3661 N 344.397 -0.483516 -1.5 0
M  V30 3662 C 345.646 0.0689102 -2.01582 0
M  V30 3663 C 345.959 1.39655 -1.36952 0
M  V30 3664 O 347.165 2.03465 -1.79762 0
M  V30 3665 C 345.621 0.173302 -3.59483 0
M  V30 3666 C 345.229 -1.14665 -4.33077 0
M  V30 3667 C 346.973 0.677024 -4.19066 0
M  V30 3668 C 344.88 -1.00537 -5.82792 0
M  V30 3669 H 343.81 0.0295277 -0.753422 0
M  V30 3670 H 346.461 -0.620295 -1.72698 0
M  V30 3671 H 344.843 0.926569 -3.85007 0
M  V30 3672 H 346.017 -1.91184 -4.19268 0
M  V30 3673 H 344.332 -1.58244 -3.85159 0
M  V30 3674 H 346.929 0.799952 -5.28682 0
M  V30 3675 H 347.272 1.67151 -3.81269 0
M  V30 3676 H 347.805 -0.0192083 -3.97795 0
M  V30 3677 H 344.544 -1.9736 -6.25083 0
M  V30 3678 H 344.064 -0.280776 -5.99142 0
M  V30 3679 H 345.743 -0.677 -6.43448 0
M  V30 3680 N 345.875 1.56104 -0.216619 0
M  V30 3681 C 346.808 2.16026 0.735395 0
M  V30 3682 C 347.786 1.1032 1.1945 0
M  V30 3683 O 348.97 1.38549 1.27814 0
M  V30 3684 C 346.097 2.73656 1.99575 0
M  V30 3685 C 345.143 3.92146 1.67702 0
M  V30 3686 S 345.976 5.29397 0.806145 0
M  V30 3687 C 347.132 5.90463 2.07617 0
M  V30 3688 H 347.365 2.96439 0.226072 0
M  V30 3689 H 344.898 1.544 -0.00136639 0
M  V30 3690 H 346.856 3.075 2.71945 0
M  V30 3691 H 345.517 1.93245 2.47619 0
M  V30 3692 H 344.71 4.30954 2.61332 0
M  V30 3693 H 344.312 3.59423 1.03398 0
M  V30 3694 H 346.604 6.06136 3.02664 0
M  V30 3695 H 347.547 6.86589 1.73207 0
M  V30 3696 H 347.955 5.19252 2.21445 0
M  V30 3697 N 347.353 -0.0568162 1.57498 0
M  V30 3698 C 348.283 -1.06593 2.0775 0
M  V30 3699 C 349.264 -1.39448 0.974082 0
M  V30 3700 O 350.449 -1.48815 1.24771 0
M  V30 3701 C 347.579 -2.37509 2.5339 0
M  V30 3702 C 346.533 -2.1897 3.67745 0
M  V30 3703 C 345.859 -3.55402 3.99492 0
M  V30 3704 C 347.159 -1.59859 4.97235 0
M  V30 3705 H 348.853 -0.647706 2.9231 0
M  V30 3706 H 346.399 -0.310116 1.40621 0
M  V30 3707 H 348.352 -3.08409 2.87162 0
M  V30 3708 H 347.076 -2.8134 1.65878 0
M  V30 3709 H 345.735 -1.50508 3.3428 0
M  V30 3710 H 345.383 -3.9683 3.09088 0
M  V30 3711 H 345.083 -3.43831 4.76502 0
M  V30 3712 H 346.607 -4.27708 4.35773 0
M  V30 3713 H 348.021 -2.20642 5.29141 0
M  V30 3714 H 346.418 -1.58942 5.78669 0
M  V30 3715 H 347.488 -0.561506 4.81638 0
M  V30 3716 N 348.832 -1.54138 -0.328536 0
M  V30 3717 C 350.08 -1.71765 -1.06496 0
M  V30 3718 C 350.401 -0.49149 -1.88704 0
M  V30 3719 O 349.671 0.494539 -1.89555 0
M  V30 3720 H 348.251 -0.633295 -0.396164 0
M  V30 3721 H 350.913 -1.91429 -0.366176 0
M  V30 3722 H 350.009 -2.5951 -1.73381 0
M  V30 3723 N 350.31 0.590341 -1.46126 0
M  V30 3724 C 351.726 0.912917 -1.30912 0
M  V30 3725 C 351.926 1.99616 -0.274893 0
M  V30 3726 O 350.982 2.50397 0.325197 0
M  V30 3727 C 352.295 1.3375 -2.69317 0
M  V30 3728 C 353.843 1.45077 -2.77348 0
M  V30 3729 C 354.318 1.90904 -4.16317 0
M  V30 3730 N 355.809 1.9811 -4.18696 0
M  V30 3731 C 356.544 2.34828 -5.23109 0
M  V30 3732 N 356.04 2.70393 -6.37856 0
M  V30 3733 N 357.833 2.35317 -5.10473 0
M  V30 3734 H 349.984 -0.125358 -2.1203 0
M  V30 3735 H 352.247 0.00658481 -0.947977 0
M  V30 3736 H 351.953 0.615614 -3.4627 0
M  V30 3737 H 351.827 2.30058 -2.9892 0
M  V30 3738 H 354.214 2.16353 -2.00687 0
M  V30 3739 H 354.295 0.4704 -2.51438 0
M  V30 3740 H 353.939 1.20209 -4.9347 0
M  V30 3741 H 353.869 2.89886 -4.39629 0
M  V30 3742 H 356.36 1.73146 -3.359 0
M  V30 3743 H 356.673 2.97341 -7.13308 0
M  V30 3744 H 355.018 2.68048 -6.41229 0
M  V30 3745 H 358.209 2.0695 -4.19868 0
M  V30 3746 H 358.382 2.63605 -5.9196 0
M  V30 3747 N 351.788 1.33704 0.83433 0
M  V30 3748 C 352.721 1.18675 1.94914 0
M  V30 3749 C 353.699 0.0811145 1.62398 0
M  V30 3750 O 354.883 0.244186 1.86912 0
M  V30 3751 C 352.01 0.821231 3.28593 0
M  V30 3752 C 351.056 1.93501 3.80079 0
M  V30 3753 S 351.889 3.54671 4.01209 0
M  V30 3754 C 353.045 3.20136 5.37833 0
M  V30 3755 H 353.278 2.13043 2.07364 0
M  V30 3756 H 350.811 1.18598 0.988624 0
M  V30 3757 H 352.769 0.617123 4.05835 0
M  V30 3758 H 351.43 -0.103927 3.13928 0
M  V30 3759 H 350.623 1.63273 4.76821 0
M  V30 3760 H 350.225 2.09601 3.09747 0
M  V30 3761 H 352.517 2.71242 6.20833 0
M  V30 3762 H 353.46 4.15975 5.73036 0
M  V30 3763 H 353.868 2.56613 5.02802 0
M  V30 3764 N 353.266 -1.05314 1.17247 0
M  V30 3765 C 354.514 -1.77941 0.958194 0
M  V30 3766 C 354.835 -1.88089 -0.514556 0
M  V30 3767 O 354.105 -1.39676 -1.37359 0
M  V30 3768 H 352.685 -0.659116 0.351533 0
M  V30 3769 H 355.347 -1.27166 1.47699 0
M  V30 3770 H 354.443 -2.79663 1.38546 0
M  V30 3771 N 354.744 -0.972509 -1.24016 0
M  V30 3772 C 356.021 -0.553733 -1.87598 0
M  V30 3773 C 356.401 0.969158 -1.87538 0
M  V30 3774 O 355.749 1.84255 -1.35139 0
M  V30 3775 C 355.959 -1.15076 -3.29482 0
M  V30 3776 C 357.307 -1.23862 -4.06132 0
M  V30 3777 O 358.331 -1.10363 -3.38672 0
M  V30 3778 O 357.19 -1.45252 -5.26844 0
M  V30 3779 H 354.284 -0.185331 -0.805966 0
M  V30 3780 H 356.83 -1.06709 -1.31952 0
M  V30 3781 H 355.602 -2.19333 -3.2405 0
M  V30 3782 H 355.225 -0.621746 -3.92709 0
M  V30 3783 N 356.222 1.38976 -0.743202 0
M  V30 3784 C 357.447 2.05161 -0.303936 0
M  V30 3785 C 357.872 1.55677 1.05576 0
M  V30 3786 O 357.23 0.704131 1.67068 0
M  V30 3787 C 357.278 3.59138 -0.324373 0
M  V30 3788 O 356.382 4.06668 0.685204 0
M  V30 3789 H 355.723 0.649815 -0.136518 0
M  V30 3790 H 358.253 1.77852 -1.01142 0
M  V30 3791 H 358.263 4.07639 -0.171618 0
M  V30 3792 H 356.938 3.94515 -1.31647 0
M  V30 3793 H 355.515 3.69561 0.497913 0
M  V30 3794 N 357.7 0.491464 1.49741 0
M  V30 3795 C 358.948 -0.0563141 2.02022 0
M  V30 3796 C 359.269 -1.38363 1.37407 0
M  V30 3797 O 358.539 -1.88702 0.526166 0
M  V30 3798 H 357.119 -0.0238014 0.746621 0
M  V30 3799 H 359.781 0.646533 1.83864 0
M  V30 3800 H 358.877 -0.192967 3.11503 0
M  V30 3801 N 359.178 -1.55987 0.224894 0
M  V30 3802 C 360.141 -2.19178 -0.670348 0
M  V30 3803 C 361.141 -1.15461 -1.11917 0
M  V30 3804 O 362.331 -1.40675 -1.02743 0
M  V30 3805 C 359.463 -2.81777 -1.9187 0
M  V30 3806 H 360.656 -2.99662 -0.119364 0
M  V30 3807 H 358.209 -1.5628 -0.0247128 0
M  V30 3808 H 358.944 -2.05172 -2.51147 0
M  V30 3809 H 358.729 -3.57732 -1.60531 0
M  V30 3810 H 360.219 -3.30205 -2.55645 0
M  V30 3811 N 360.656 0.0484629 -1.57525 0
M  V30 3812 C 362.067 0.597486 -1.76881 0
M  V30 3813 C 362.418 1.76664 -0.853475 0
M  V30 3814 O 361.543 2.16357 -0.0433656 0
M  V30 3815 C 362.138 1.09066 -3.20765 0
M  V30 3816 C 360.697 1.58535 -3.41385 0
M  V30 3817 C 359.844 0.514868 -2.72478 0
M  V30 3818 H 362.795 -0.177758 -1.57701 0
M  V30 3819 H 362.816 1.95875 -3.2621 0
M  V30 3820 H 362.328 0.239521 -3.8736 0
M  V30 3821 H 360.429 2.45898 -2.79937 0
M  V30 3822 H 360.542 1.64622 -4.49929 0
M  V30 3823 H 358.906 0.965407 -2.35695 0
M  V30 3824 H 359.689 -0.32648 -3.41744 0
M  V30 3825 N 362.134 1.5431 0.320358 0
M  V30 3826 C 363.064 1.86912 1.3995 0
M  V30 3827 C 364.045 0.726211 1.53819 0
M  V30 3828 O 365.23 0.980233 1.67646 0
M  V30 3829 C 362.36 2.09932 2.7667 0
M  V30 3830 C 361.314 3.25776 2.77586 0
M  V30 3831 C 360.64 3.34173 4.17412 0
M  V30 3832 C 361.94 4.6335 2.41048 0
M  V30 3833 H 363.634 2.77292 1.12914 0
M  V30 3834 H 361.18 1.33421 0.541738 0
M  V30 3835 H 363.133 2.31324 3.52232 0
M  V30 3836 H 361.857 1.16304 3.0519 0
M  V30 3837 H 360.516 3.04276 2.04479 0
M  V30 3838 H 360.164 2.38098 4.43078 0
M  V30 3839 H 359.864 4.12033 4.18931 0
M  V30 3840 H 361.388 3.57803 4.94782 0
M  V30 3841 H 362.802 4.84602 3.06324 0
M  V30 3842 H 361.199 5.43782 2.53813 0
M  V30 3843 H 362.269 4.65381 1.36193 0
M  V30 3844 N 363.613 -0.582584 1.46437 0
M  V30 3845 C 364.859 -1.34278 1.51978 0
M  V30 3846 C 365.192 -1.93446 0.170973 0
M  V30 3847 O 364.467 -1.76481 -0.817608 0
M  V30 3848 C 364.75 -2.47203 2.61845 0
M  V30 3849 C 364.603 -1.93069 4.06257 0
M  V30 3850 C 365.922 -3.49247 2.67795 0
M  V30 3851 H 363.041 -0.486876 0.553282 0
M  V30 3852 H 365.683 -0.654437 1.78374 0
M  V30 3853 H 363.833 -3.0592 2.39469 0
M  V30 3854 H 365.505 -1.38808 4.3992 0
M  V30 3855 H 363.748 -1.23898 4.1573 0
M  V30 3856 H 364.419 -2.74586 4.7886 0
M  V30 3857 H 366.895 -3.00411 2.8791 0
M  V30 3858 H 365.771 -4.25719 3.46489 0
M  V30 3859 H 366.032 -4.06482 1.73852 0
M  V30 3860 N 365.091 -1.34144 -0.827227 0
M  V30 3861 C 366.316 -1.29476 -1.62021 0
M  V30 3862 C 366.741 0.129292 -1.87655 0
M  V30 3863 O 366.099 1.08967 -1.449 0
M  V30 3864 C 366.147 -2.08702 -2.94068 0
M  V30 3865 O 365.251 -1.45359 -3.85933 0
M  V30 3866 H 364.592 -0.444881 -0.492927 0
M  V30 3867 H 367.122 -1.76882 -1.02829 0
M  V30 3868 H 367.132 -2.19898 -3.43669 0
M  V30 3869 H 365.807 -3.12241 -2.74734 0
M  V30 3870 H 364.384 -1.42879 -3.44442 0
M  V30 3871 N 366.569 1.04691 -1.17803 0
M  V30 3872 C 367.816 1.77782 -0.969532 0
M  V30 3873 C 368.144 1.87926 0.501401 0
M  V30 3874 O 367.399 1.37918 1.38842 0
M  V30 3875 C 367.698 3.21467 -1.56186 0
M  V30 3876 C 367.364 3.3137 -3.05786 0
M  V30 3877 C 366.026 3.3378 -3.46619 0
M  V30 3878 C 368.378 3.31976 -4.01797 0
M  V30 3879 C 365.706 3.34431 -4.82051 0
M  V30 3880 C 368.058 3.34167 -5.37136 0
M  V30 3881 C 366.722 3.34866 -5.77426 0
M  V30 3882 H 365.992 0.650549 -0.354777 0
M  V30 3883 H 368.639 1.23006 -1.46772 0
M  V30 3884 H 366.944 3.79203 -0.985515 0
M  V30 3885 H 368.641 3.76652 -1.37602 0
M  V30 3886 H 365.231 3.3021 -2.73238 0
M  V30 3887 H 369.415 3.29311 -3.71306 0
M  V30 3888 H 364.671 3.33285 -5.12573 0
M  V30 3889 H 368.845 3.33585 -6.11305 0
M  V30 3890 H 366.472 3.35124 -6.82346 0
M  V30 3891 N 368.047 0.979072 1.23499 0
M  V30 3892 C 369.287 0.655228 1.93613 0
M  V30 3893 C 369.651 -0.796336 1.74707 0
M  V30 3894 O 370.852 -1.23094 2.38959 0
M  V30 3895 C 369.123 1.03337 3.42135 0
M  V30 3896 S 370.682 0.825793 4.3096 0
M  V30 3897 H 367.5 0.240004 0.669267 0
M  V30 3898 H 370.102 1.25843 1.49612 0
M  V30 3899 H 368.806 2.08646 3.53405 0
M  V30 3900 H 368.337 0.421397 3.91137 0
M  V30 3901 H 370.352 -0.290991 4.95346 0
M  V30 3902 N 369.525 -1.3858 0.750561 0
M  V30 3903 C 370.457 -2.29057 0.0810714 0
M  V30 3904 C 371.47 -1.47596 -0.686973 0
M  V30 3905 O 372.659 -1.70495 -0.528563 0
M  V30 3906 C 369.759 -3.26475 -0.909247 0
M  V30 3907 C 368.932 -4.36945 -0.199478 0
M  V30 3908 C 367.991 -5.14572 -1.10011 0
M  V30 3909 O 367.017 -5.66321 -0.57177 0
M  V30 3910 N 368.219 -5.27262 -2.42849 0
M  V30 3911 H 370.984 -2.87153 0.858087 0
M  V30 3912 H 368.545 -1.50328 0.60109 0
M  V30 3913 H 370.537 -3.75285 -1.51471 0
M  V30 3914 H 369.107 -2.69298 -1.58736 0
M  V30 3915 H 368.327 -3.8981 0.586664 0
M  V30 3916 H 369.615 -5.07963 0.291783 0
M  V30 3917 H 369.013 -4.86763 -2.88233 0
M  V30 3918 H 367.57 -5.79456 -2.98453 0
M  V30 3919 N 371.003 -0.499398 -1.49478 0
M  V30 3920 C 372.243 0.0440751 -2.04352 0
M  V30 3921 C 372.607 1.34423 -1.37093 0
M  V30 3922 O 373.808 1.97184 -1.82679 0
M  V30 3923 C 372.079 0.194918 -3.56868 0
M  V30 3924 S 373.638 0.69287 -4.33295 0
M  V30 3925 H 370.456 0.00253458 -0.710995 0
M  V30 3926 H 373.058 -0.673 -1.83551 0
M  V30 3927 H 371.762 -0.756672 -4.03364 0
M  V30 3928 H 371.293 0.93728 -3.82071 0
M  V30 3929 H 373.308 1.96226 -4.55752 0
M  V30 3930 N 372.481 1.55866 -0.233164 0
M  V30 3931 C 373.411 2.23783 0.666599 0
M  V30 3932 C 374.392 1.21343 1.19205 0
M  V30 3933 O 375.577 1.4996 1.23392 0
M  V30 3934 C 372.707 2.92671 1.86978 0
M  V30 3935 C 371.661 4.01682 1.47768 0
M  V30 3936 C 370.987 4.57926 2.76058 0
M  V30 3937 C 372.287 5.18126 0.658993 0
M  V30 3938 H 373.981 2.99232 0.100306 0
M  V30 3939 H 371.527 1.43924 0.046804 0
M  V30 3940 H 373.48 3.3888 2.50476 0
M  V30 3941 H 372.204 2.14688 2.46123 0
M  V30 3942 H 370.863 3.56222 0.866106 0
M  V30 3943 H 370.511 3.76659 3.33372 0
M  V30 3944 H 370.211 5.31505 2.50552 0
M  V30 3945 H 371.735 5.06859 3.40479 0
M  V30 3946 H 373.149 5.60644 1.19795 0
M  V30 3947 H 371.546 5.98009 0.500552 0
M  V30 3948 H 372.616 4.83763 -0.331856 0
M  V30 3949 N 373.959 -0.0401083 1.57549 0
M  V30 3950 C 374.907 -1.06264 2.06908 0
M  V30 3951 C 375.901 -1.38132 0.980608 0
M  V30 3952 O 377.107 -1.37167 1.16556 0
M  V30 3953 H 373.482 -0.360166 0.660139 0
M  V30 3954 H 375.453 -0.620445 2.91878 0
M  V30 3955 C 374.202 -2.35846 2.55483 0
M  V30 3956 H 373.525 -2.12183 3.38849 0
M  V30 3957 H 374.965 -3.05765 2.93741 0
M  V30 3958 C 373.424 -3.0404 1.45126 0
M  V30 3959 O 373.954 -3.93424 0.811216 0
M  V30 3960 N 372.16 -2.65184 1.18852 0
M  V30 3961 H 371.707 -1.92584 1.71083 0
M  V30 3962 H 371.665 -3.1113 0.452244 0
M  V30 3963 N 375.437 -1.54477 -0.31217 0
M  V30 3964 C 376.347 -1.87695 -1.4074 0
M  V30 3965 C 377.363 -0.769975 -1.56036 0
M  V30 3966 O 378.539 -1.06537 -1.70915 0
M  V30 3967 C 375.604 -2.10755 -2.75287 0
M  V30 3968 C 374.665 -3.34514 -2.69071 0
M  V30 3969 C 373.898 -3.56465 -3.97201 0
M  V30 3970 O 374.121 -2.81637 -4.96021 0
M  V30 3971 O 373.055 -4.49964 -3.9977 0
M  V30 3972 H 376.881 -2.80849 -1.15574 0
M  V30 3973 H 374.466 -1.40526 -0.507228 0
M  V30 3974 H 376.348 -2.27188 -3.54913 0
M  V30 3975 H 375.023 -1.20788 -3.0032 0
M  V30 3976 H 373.93 -3.23456 -1.87955 0
M  V30 3977 H 375.263 -4.24575 -2.48992 0
M  V30 3978 N 376.915 0.57481 -1.46744 0
M  V30 3979 C 378.14 1.36341 -1.56288 0
M  V30 3980 C 378.565 1.86954 -0.207347 0
M  V30 3981 O 377.923 1.62006 0.813871 0
M  V30 3982 C 377.971 2.52147 -2.57787 0
M  V30 3983 O 377.075 3.53834 -2.11838 0
M  V30 3984 H 376.416 0.405713 -0.525636 0
M  V30 3985 H 378.946 0.696453 -1.92382 0
M  V30 3986 H 378.956 2.98958 -2.77648 0
M  V30 3987 H 377.631 2.14663 -3.5622 0
M  V30 3988 H 376.208 3.1345 -2.01999 0
M  V30 3989 N 378.394 1.34581 0.820102 0
M  V30 3990 C 379.64 1.27285 1.57881 0
M  V30 3991 C 379.973 -0.156137 1.93571 0
M  V30 3992 O 379.248 -1.10222 1.60254 0
M  V30 3993 C 379.531 2.16639 2.87645 0
M  V30 3994 C 379.384 3.68088 2.58517 0
M  V30 3995 C 380.703 2.05378 3.8924 0
M  V30 3996 H 377.822 0.463714 0.572833 0
M  V30 3997 H 380.464 1.64859 0.944539 0
M  V30 3998 H 378.614 1.84725 3.41773 0
M  V30 3999 H 380.286 4.10382 2.10676 0
M  V30 4000 H 378.529 3.89038 1.91917 0
M  V30 4001 H 379.2 4.2598 3.51063 0
M  V30 4002 H 381.676 2.33404 3.44473 0
M  V30 4003 H 380.552 2.7012 4.77835 0
M  V30 4004 H 380.813 1.0316 4.29896 0
M  V30 4005 N 379.872 -1.04064 1.18357 0
M  V30 4006 C 380.805 -2.11618 0.854 0
M  V30 4007 C 381.783 -1.61555 -0.184043 0
M  V30 4008 O 382.967 -1.88395 -0.0630048 0
M  V30 4009 C 380.094 -3.37574 0.27597 0
M  V30 4010 C 379.14 -4.06485 1.2912 0
M  V30 4011 S 379.973 -4.53543 2.84709 0
M  V30 4012 C 381.129 -5.82732 2.28417 0
M  V30 4013 H 381.362 -2.39247 1.76488 0
M  V30 4014 H 378.895 -1.16832 1.00944 0
M  V30 4015 H 380.853 -4.10468 -0.051026 0
M  V30 4016 H 379.514 -3.0806 -0.613028 0
M  V30 4017 H 378.707 -4.97024 0.835633 0
M  V30 4018 H 378.309 -3.39708 1.56443 0
M  V30 4019 H 380.601 -6.56677 1.66677 0
M  V30 4020 H 381.544 -6.33052 3.17256 0
M  V30 4021 H 381.952 -5.37838 1.71436 0
M  V30 4022 N 381.35 -0.985608 -1.22978 0
M  V30 4023 C 382.297 -0.529825 -2.24636 0
M  V30 4024 C 383.267 0.434028 -1.60329 0
M  V30 4025 O 384.452 0.340414 -1.87739 0
M  V30 4026 C 381.592 0.156533 -3.44745 0
M  V30 4027 C 380.705 -0.848197 -4.23591 0
M  V30 4028 C 379.84 -0.136109 -5.31026 0
M  V30 4029 C 378.879 -1.1297 -6.01585 0
M  V30 4030 N 378.016 -0.446415 -7.00679 0
M  V30 4031 H 382.856 -1.40148 -2.62988 0
M  V30 4032 H 380.393 -0.702168 -1.29259 0
M  V30 4033 H 382.351 0.571324 -4.1327 0
M  V30 4034 H 380.981 0.992025 -3.07179 0
M  V30 4035 H 380.033 -1.38135 -3.54433 0
M  V30 4036 H 381.345 -1.60512 -4.72268 0
M  V30 4037 H 380.499 0.335784 -6.0577 0
M  V30 4038 H 379.238 0.653373 -4.83304 0
M  V30 4039 H 378.243 -1.6123 -5.25628 0
M  V30 4040 H 379.468 -1.91993 -6.51395 0
M  V30 4041 H 377.414 0.323763 -6.55201 0
M  V30 4042 H 377.331 -1.1419 -7.47326 0
M  V30 4043 H 378.599 0.00291697 -7.795 0
M  V30 4044 N 382.828 1.3818 -0.7579 0
M  V30 4045 C 384.077 1.99261 -0.312744 0
M  V30 4046 C 384.39 1.60846 1.11301 0
M  V30 4047 O 385.596 2.14929 1.65885 0
M  V30 4048 C 384.052 3.56294 -0.50821 0
M  V30 4049 C 383.66 4.03657 -1.94333 0
M  V30 4050 C 385.404 4.24313 -0.125982 0
M  V30 4051 C 383.311 5.53347 -2.08712 0
M  V30 4052 H 382.241 0.745456 -0.113185 0
M  V30 4053 H 384.892 1.57889 -0.935056 0
M  V30 4054 H 383.274 3.95575 0.183353 0
M  V30 4055 H 384.448 3.75655 -2.66871 0
M  V30 4056 H 382.763 3.48376 -2.28086 0
M  V30 4057 H 385.36 5.34279 -0.212125 0
M  V30 4058 H 385.703 4.05962 0.921964 0
M  V30 4059 H 386.236 3.90285 -0.769563 0
M  V30 4060 H 382.975 5.76607 -3.11777 0
M  V30 4061 H 382.495 5.83078 -1.4064 0
M  V30 4062 H 384.174 6.19111 -1.87912 0
M  V30 4063 N 384.306 0.507319 1.49211 0
M  V30 4064 C 385.552 -0.0350047 2.0277 0
M  V30 4065 C 385.885 -1.3606 1.38569 0
M  V30 4066 O 385.16 -1.87321 0.523542 0
M  V30 4067 C 385.443 -0.180916 3.59645 0
M  V30 4068 C 385.296 1.16825 4.34364 0
M  V30 4069 C 386.615 -0.918558 4.30407 0
M  V30 4070 H 383.734 -0.0112473 0.736914 0
M  V30 4071 H 386.376 0.659956 1.7817 0
M  V30 4072 H 384.526 -0.772826 3.80736 0
M  V30 4073 H 386.198 1.79952 4.24753 0
M  V30 4074 H 384.441 1.75594 3.96673 0
M  V30 4075 H 385.112 1.01939 5.42506 0
M  V30 4076 H 387.588 -0.41649 4.1401 0
M  V30 4077 H 386.464 -0.989505 5.39907 0
M  V30 4078 H 386.725 -1.96373 3.96093 0
M  V30 4079 N 385.784 -1.5574 0.241426 0
M  V30 4080 C 386.747 -2.19877 -0.647063 0
M  V30 4081 C 387.747 -1.16642 -1.10686 0
M  V30 4082 O 388.937 -1.41757 -1.01245 0
M  V30 4083 C 386.069 -2.83797 -1.88871 0
M  V30 4084 H 387.262 -2.99772 -0.087574 0
M  V30 4085 H 384.815 -1.56298 -0.00813574 0
M  V30 4086 H 385.55 -2.07824 -2.48957 0
M  V30 4087 H 385.335 -3.59414 -1.56728 0
M  V30 4088 H 386.825 -3.32898 -2.52129 0
M  V30 4089 N 387.262 0.0317525 -1.57568 0
M  V30 4090 C 388.508 0.724175 -1.8943 0
M  V30 4091 C 388.841 1.75149 -0.838836 0
M  V30 4092 O 388.116 1.93948 0.146422 0
M  V30 4093 C 388.399 1.39615 -3.31933 0
M  V30 4094 C 388.252 0.382537 -4.4817 0
M  V30 4095 C 389.571 2.33084 -3.73309 0
M  V30 4096 H 386.69 0.261797 -0.688935 0
M  V30 4097 H 389.332 -0.013017 -1.89996 0
M  V30 4098 H 387.482 2.02451 -3.31581 0
M  V30 4099 H 389.154 -0.243689 -4.60656 0
M  V30 4100 H 387.397 -0.29844 -4.32772 0
M  V30 4101 H 388.068 0.891145 -5.44759 0
M  V30 4102 H 390.544 1.80295 -3.7501 0
M  V30 4103 H 389.42 2.77084 -4.73831 0
M  V30 4104 H 389.681 3.19643 -3.05419 0
M  V30 4105 N 388.74 1.54641 0.303973 0
M  V30 4106 C 389.703 1.84646 1.35789 0
M  V30 4107 C 390.703 0.7192 1.4382 0
M  V30 4108 O 391.893 0.987491 1.43507 0
M  V30 4109 C 389.025 2.02407 2.74307 0
M  V30 4110 H 390.218 2.78829 1.10429 0
M  V30 4111 H 387.771 1.46658 0.540487 0
M  V30 4112 H 388.506 1.10502 3.04893 0
M  V30 4113 H 388.291 2.84453 2.69868 0
M  V30 4114 H 389.781 2.27002 3.50514 0
M  V30 4115 N 390.218 -0.567019 1.47046 0
M  V30 4116 C 391.464 -1.32658 1.53394 0
M  V30 4117 C 391.797 -1.93254 0.19148 0
M  V30 4118 O 391.072 -1.77338 -0.798844 0
M  V30 4119 C 391.355 -2.44412 2.64452 0
M  V30 4120 C 391.208 -1.88749 4.08282 0
M  V30 4121 C 392.527 -3.46387 2.71485 0
M  V30 4122 H 389.646 -0.48098 0.558415 0
M  V30 4123 H 392.288 -0.635481 1.79058 0
M  V30 4124 H 390.438 -3.03363 2.427 0
M  V30 4125 H 392.11 -1.34134 4.41368 0
M  V30 4126 H 390.353 -1.19481 4.17021 0
M  V30 4127 H 391.024 -2.69491 4.81745 0
M  V30 4128 H 393.5 -2.9734 2.91081 0
M  V30 4129 H 392.376 -4.2202 3.50985 0
M  V30 4130 H 392.637 -4.04616 1.78153 0
M  V30 4131 N 391.696 -1.35014 -0.812953 0
M  V30 4132 C 392.942 -1.29129 -1.57154 0
M  V30 4133 C 393.297 0.134922 -1.91926 0
M  V30 4134 O 392.59 1.08373 -1.58006 0
M  V30 4135 C 392.784 -2.12524 -2.87347 0
M  V30 4136 C 392.613 -3.6311 -2.65294 0
M  V30 4137 C 391.383 -4.32363 -2.61516 0
M  V30 4138 C 393.581 -4.56897 -2.36114 0
M  V30 4139 N 391.563 -5.68735 -2.31113 0
M  V30 4140 C 392.934 -5.81345 -2.15494 0
M  V30 4141 C 394.989 -4.45706 -2.21925 0
M  V30 4142 C 393.692 -6.95862 -1.82122 0
M  V30 4143 C 395.718 -5.60066 -1.89948 0
M  V30 4144 C 395.08 -6.83539 -1.7016 0
M  V30 4145 H 391.179 -0.527764 -0.577052 0
M  V30 4146 H 393.763 -1.6983 -0.952146 0
M  V30 4147 H 391.934 -1.74104 -3.47192 0
M  V30 4148 H 393.666 -1.98207 -3.5284 0
M  V30 4149 H 390.421 -3.84907 -2.75941 0
M  V30 4150 H 390.845 -6.40694 -2.18724 0
M  V30 4151 H 395.487 -3.50855 -2.35925 0
M  V30 4152 H 393.205 -7.90685 -1.6686 0
M  V30 4153 H 396.791 -5.53357 -1.79687 0
M  V30 4154 H 395.671 -7.70531 -1.45777 0
M  V30 4155 N 393.175 1.03435 -1.18907 0
M  V30 4156 C 394.405 1.8012 -1.01195 0
M  V30 4157 C 394.813 1.8395 0.442613 0
M  V30 4158 O 394.156 1.27836 1.31923 0
M  V30 4159 C 394.218 3.26792 -1.49823 0
M  V30 4160 C 393.882 3.46609 -2.97844 0
M  V30 4161 C 394.879 3.37278 -3.95651 0
M  V30 4162 C 392.564 3.73001 -3.36416 0
M  V30 4163 C 394.558 3.54054 -5.30023 0
M  V30 4164 C 392.245 3.89423 -4.70949 0
M  V30 4165 C 393.243 3.79951 -5.67562 0
M  V30 4166 O 392.931 3.95895 -6.99659 0
M  V30 4167 H 392.663 0.573865 -0.357289 0
M  V30 4168 H 395.217 1.31207 -1.58031 0
M  V30 4169 H 393.447 3.76703 -0.873578 0
M  V30 4170 H 395.136 3.85055 -1.28404 0
M  V30 4171 H 395.902 3.16846 -3.67197 0
M  V30 4172 H 391.781 3.79469 -2.61772 0
M  V30 4173 H 395.325 3.46577 -6.05417 0
M  V30 4174 H 391.222 4.09351 -4.99101 0
M  V30 4175 H 391.99 4.13019 -7.06653 0
M  V30 4176 N 394.653 0.992116 1.22453 0
M  V30 4177 C 395.9 0.667534 1.91181 0
M  V30 4178 C 396.228 -0.800317 1.77271 0
M  V30 4179 O 395.483 -1.59421 1.13505 0
M  V30 4180 C 395.782 1.01832 3.42586 0
M  V30 4181 C 395.448 2.47831 3.76684 0
M  V30 4182 C 394.11 2.87729 3.85701 0
M  V30 4183 C 396.462 3.42466 3.92895 0
M  V30 4184 C 393.79 4.21252 4.08367 0
M  V30 4185 C 396.142 4.75648 4.17064 0
M  V30 4186 C 394.806 5.15288 4.24305 0
M  V30 4187 H 394.076 0.244268 0.699581 0
M  V30 4188 H 396.723 1.24816 1.45235 0
M  V30 4189 H 395.028 0.355769 3.90181 0
M  V30 4190 H 396.725 0.745228 3.94014 0
M  V30 4191 H 393.315 2.15905 3.70247 0
M  V30 4192 H 397.499 3.12814 3.85307 0
M  V30 4193 H 392.755 4.51554 4.122 0
M  V30 4194 H 396.929 5.48924 4.2855 0
M  V30 4195 H 394.556 6.18769 4.41621 0
M  V30 4196 N 396.131 -1.37776 0.765217 0
M  V30 4197 C 397.542 -1.82521 0.392819 0
M  V30 4198 C 397.893 -1.63789 -1.08017 0
M  V30 4199 O 397.018 -1.14542 -1.83601 0
M  V30 4200 C 397.613 -3.31358 0.706214 0
M  V30 4201 C 396.172 -3.74406 0.386952 0
M  V30 4202 C 395.319 -2.60394 0.953422 0
M  V30 4203 H 398.27 -1.2634 0.960412 0
M  V30 4204 H 398.291 -3.80498 -0.0114706 0
M  V30 4205 H 397.803 -3.44959 1.77833 0
M  V30 4206 H 395.904 -3.66377 -0.678112 0
M  V30 4207 H 396.017 -4.70749 0.890636 0
M  V30 4208 H 394.381 -2.51878 0.378064 0
M  V30 4209 H 395.164 -2.76791 2.03081 0
M  V30 4210 N 397.609 -0.515225 -1.4894 0
M  V30 4211 C 398.856 0.024215 -2.02486 0
M  V30 4212 C 399.184 1.35671 -1.39368 0
M  V30 4213 O 398.439 1.88566 -0.523574 0
M  V30 4214 C 398.738 0.210595 -3.56779 0
M  V30 4215 C 398.404 -1.04569 -4.38607 0
M  V30 4216 C 397.066 -1.39002 -4.60686 0
M  V30 4217 C 399.418 -1.88008 -4.86109 0
M  V30 4218 C 396.746 -2.568 -5.27514 0
M  V30 4219 C 399.098 -3.04972 -5.54234 0
M  V30 4220 C 397.762 -3.39768 -5.74555 0
M  V30 4221 H 397.032 0.00886088 -0.740947 0
M  V30 4222 H 399.679 -0.678263 -1.79086 0
M  V30 4223 H 397.984 0.99572 -3.78936 0
M  V30 4224 H 399.681 0.642659 -3.95817 0
M  V30 4225 H 396.271 -0.767497 -4.21672 0
M  V30 4226 H 400.455 -1.62719 -4.68867 0
M  V30 4227 H 395.711 -2.8398 -5.41447 0
M  V30 4228 H 399.885 -3.69943 -5.90013 0
M  V30 4229 H 397.512 -4.31148 -6.26112 0
M  V30 4230 N 399.087 1.5561 -0.249682 0
M  V30 4231 C 400.335 1.98618 0.373548 0
M  V30 4232 C 400.656 1.13919 1.58264 0
M  V30 4233 O 399.926 0.222637 1.94631 0
M  V30 4234 H 398.506 0.733571 0.141006 0
M  V30 4235 H 401.168 1.91748 -0.349117 0
M  V30 4236 H 400.264 3.04584 0.680796 0
M  V30 4237 N 400.565 -0.0233959 1.57583 0
M  V30 4238 C 401.814 -0.712133 1.8871 0
M  V30 4239 C 402.127 -1.76217 0.848944 0
M  V30 4240 O 403.333 -2.50389 1.04964 0
M  V30 4241 C 401.789 -1.3177 3.3491 0
M  V30 4242 C 401.397 -0.303715 4.46969 0
M  V30 4243 C 403.141 -1.98598 3.75179 0
M  V30 4244 C 401.048 -0.917945 5.84233 0
M  V30 4245 H 399.978 -0.269735 0.704101 0
M  V30 4246 H 402.629 0.0333114 1.8347 0
M  V30 4247 H 401.011 -2.11304 3.34913 0
M  V30 4248 H 402.185 0.465325 4.58445 0
M  V30 4249 H 400.5 0.2628 4.1557 0
M  V30 4250 H 403.097 -2.45416 4.75053 0
M  V30 4251 H 403.44 -2.80659 3.07468 0
M  V30 4252 H 403.973 -1.25831 3.77374 0
M  V30 4253 H 400.712 -0.136633 6.55358 0
M  V30 4254 H 400.232 -1.65669 5.76467 0
M  V30 4255 H 401.911 -1.4236 6.31144 0
M  V30 4256 N 402.043 -1.548 -0.295768 0
M  V30 4257 C 403.289 -1.74588 -1.03184 0
M  V30 4258 C 403.622 -0.532962 -1.86744 0
M  V30 4259 O 402.897 0.469872 -1.88739 0
M  V30 4260 C 403.18 -3.03791 -1.93347 0
M  V30 4261 C 403.033 -4.35392 -1.12933 0
M  V30 4262 C 404.352 -3.28892 -2.92435 0
M  V30 4263 H 401.471 -0.635221 -0.373715 0
M  V30 4264 H 404.113 -1.87519 -0.30606 0
M  V30 4265 H 402.263 -2.92898 -2.55232 0
M  V30 4266 H 403.935 -4.58211 -0.532943 0
M  V30 4267 H 402.178 -4.31642 -0.432168 0
M  V30 4268 H 402.849 -5.22074 -1.79284 0
M  V30 4269 H 405.325 -3.39429 -2.4068 0
M  V30 4270 H 404.201 -4.20603 -3.52682 0
M  V30 4271 H 404.462 -2.47437 -3.6637 0
M  V30 4272 N 403.521 0.559213 -1.47345 0
M  V30 4273 C 404.768 1.31648 -1.53867 0
M  V30 4274 C 405.096 1.93468 -0.200104 0
M  V30 4275 O 404.351 1.78295 0.806799 0
M  V30 4276 C 404.65 2.44853 -2.6035 0
M  V30 4277 C 404.316 2.00876 -4.03683 0
M  V30 4278 C 402.978 1.88599 -4.42701 0
M  V30 4279 C 405.33 1.67279 -4.93626 0
M  V30 4280 C 402.658 1.41017 -5.69501 0
M  V30 4281 C 405.01 1.21169 -6.20887 0
M  V30 4282 C 403.674 1.07487 -6.58789 0
M  V30 4283 H 402.944 0.481734 -0.56304 0
M  V30 4284 H 405.591 0.627301 -1.80934 0
M  V30 4285 H 403.896 3.19318 -2.27032 0
M  V30 4286 H 405.593 3.03039 -2.62619 0
M  V30 4287 H 402.183 2.11374 -3.72853 0
M  V30 4288 H 406.367 1.75638 -4.64182 0
M  V30 4289 H 401.623 1.29086 -5.97618 0
M  V30 4290 H 405.797 0.942345 -6.89995 0
M  V30 4291 H 403.424 0.703946 -7.56934 0
M  V30 4292 N 404.999 1.35443 0.805782 0
M  V30 4293 C 405.929 1.31095 1.93226 0
M  V30 4294 C 406.91 0.185244 1.69088 0
M  V30 4295 O 408.095 0.380332 1.90439 0
M  V30 4296 C 405.225 1.08299 3.29983 0
M  V30 4297 C 404.179 2.17519 3.68605 0
M  V30 4298 C 403.505 1.79887 5.03532 0
M  V30 4299 C 404.805 3.5949 3.78898 0
M  V30 4300 H 406.499 2.25352 1.97122 0
M  V30 4301 H 404.045 1.0848 0.946996 0
M  V30 4302 H 405.998 1.03897 4.08391 0
M  V30 4303 H 404.722 0.104885 3.26432 0
M  V30 4304 H 403.381 2.2102 2.92482 0
M  V30 4305 H 403.029 0.80693 4.96485 0
M  V30 4306 H 402.729 2.53001 5.30344 0
M  V30 4307 H 404.253 1.77011 5.84379 0
M  V30 4308 H 405.667 3.58307 4.47536 0
M  V30 4309 H 404.064 4.31371 4.1718 0
M  V30 4310 H 405.134 3.95584 2.80431 0
M  V30 4311 N 406.477 -1.02803 1.19454 0
M  V30 4312 C 407.726 -1.7562 0.991996 0
M  V30 4313 C 408.039 -1.89672 -0.477901 0
M  V30 4314 O 409.245 -2.59468 -0.799287 0
M  V30 4315 C 407.701 -3.15812 1.72601 0
M  V30 4316 C 407.309 -3.0981 3.23607 0
M  V30 4317 C 409.053 -3.92918 1.60674 0
M  V30 4318 C 406.96 -4.44939 3.89594 0
M  V30 4319 H 405.89 -0.658352 0.367543 0
M  V30 4320 H 408.541 -1.15044 1.42959 0
M  V30 4321 H 406.923 -3.7686 1.21624 0
M  V30 4322 H 408.097 -2.58138 3.81709 0
M  V30 4323 H 406.412 -2.46201 3.35819 0
M  V30 4324 H 409.009 -4.9287 2.07323 0
M  V30 4325 H 409.352 -4.12502 0.561025 0
M  V30 4326 H 409.885 -3.38472 2.09001 0
M  V30 4327 H 406.624 -4.30559 4.94267 0
M  V30 4328 H 406.144 -4.96664 3.36281 0
M  V30 4329 H 407.823 -5.1382 3.93189 0
M  V30 4330 N 407.956 -0.998596 -1.21925 0
M  V30 4331 C 408.919 -0.558679 -2.22287 0
M  V30 4332 C 409.919 0.361525 -1.56683 0
M  V30 4333 O 411.109 0.152695 -1.73529 0
M  V30 4334 C 408.241 0.18661 -3.40389 0
M  V30 4335 H 409.434 -1.4463 -2.62721 0
M  V30 4336 H 406.987 -0.786413 -1.35075 0
M  V30 4337 H 407.722 1.08996 -3.05435 0
M  V30 4338 H 407.507 -0.474188 -3.89222 0
M  V30 4339 H 408.997 0.482367 -4.14805 0
M  V30 4340 N 409.434 1.37368 -0.772513 0
M  V30 4341 C 410.682 1.99279 -0.336516 0
M  V30 4342 C 411.003 1.6163 1.09091 0
M  V30 4343 O 410.273 0.882109 1.74916 0
M  V30 4344 H 408.853 0.737063 -0.121435 0
M  V30 4345 H 411.515 1.67836 -0.990809 0
M  V30 4346 H 410.611 3.09332 -0.414763 0
M  V30 4347 N 410.912 0.523116 1.48665 0
M  V30 4348 C 411.859 -0.243398 2.29513 0
M  V30 4349 C 412.829 -0.940139 1.36933 0
M  V30 4350 O 414.014 -0.942503 1.65896 0
M  V30 4351 C 411.154 -1.28855 3.20141 0
M  V30 4352 C 410.267 -0.60135 4.27794 0
M  V30 4353 C 409.402 -1.62884 5.05611 0
M  V30 4354 C 408.441 -0.924726 6.05075 0
M  V30 4355 N 407.578 -1.89744 6.75975 0
M  V30 4356 H 412.418 0.452234 2.94549 0
M  V30 4357 H 409.955 0.234858 1.45213 0
M  V30 4358 H 411.913 -1.90674 3.71079 0
M  V30 4359 H 410.543 -1.95266 2.57043 0
M  V30 4360 H 409.595 0.130623 3.80176 0
M  V30 4361 H 410.907 -0.0481585 4.98777 0
M  V30 4362 H 410.061 -2.32149 5.60528 0
M  V30 4363 H 408.8 -2.21592 4.34452 0
M  V30 4364 H 407.805 -0.217966 5.49368 0
M  V30 4365 H 409.03 -0.343851 6.78229 0
M  V30 4366 H 406.976 -2.47373 6.07571 0
M  V30 4367 H 406.893 -1.3955 7.43009 0
M  V30 4368 H 408.161 -2.58229 7.35485 0
M  V30 4369 N 412.39 -1.55475 0.257931 0
M  V30 4370 C 413.639 -1.98383 -0.364275 0
M  V30 4371 C 413.952 -1.14952 -1.58258 0
M  V30 4372 O 415.158 -1.47924 -2.27664 0
M  V30 4373 C 413.614 -3.53037 -0.699479 0
M  V30 4374 C 413.222 -4.45223 0.498046 0
M  V30 4375 C 414.966 -4.04575 -1.28526 0
M  V30 4376 C 412.873 -5.91238 0.138383 0
M  V30 4377 H 411.803 -0.740911 -0.13988 0
M  V30 4378 H 414.454 -1.79936 0.359883 0
M  V30 4379 H 412.836 -3.6722 -1.48207 0
M  V30 4380 H 414.01 -4.42803 1.27522 0
M  V30 4381 H 412.325 -4.04226 0.999503 0
M  V30 4382 H 414.922 -5.11196 -1.56788 0
M  V30 4383 H 415.265 -3.5258 -2.21344 0
M  V30 4384 H 415.798 -3.93762 -0.565337 0
M  V30 4385 H 412.537 -6.47294 1.03398 0
M  V30 4386 H 412.057 -5.96768 -0.602374 0
M  V30 4387 H 413.736 -6.46413 -0.27553 0
M  V30 4388 N 413.868 0.0150385 -1.57593 0
M  V30 4389 C 414.798 1.01047 -2.10503 0
M  V30 4390 C 415.779 1.36816 -1.01071 0
M  V30 4391 O 416.964 1.45455 -1.28672 0
M  V30 4392 C 414.094 2.30708 -2.59598 0
M  V30 4393 C 413.048 2.09142 -3.73421 0
M  V30 4394 C 412.374 3.44685 -4.08774 0
M  V30 4395 C 413.674 1.46619 -5.01298 0
M  V30 4396 H 415.368 0.569978 -2.93925 0
M  V30 4397 H 412.914 0.272724 -1.41394 0
M  V30 4398 H 414.867 3.00687 -2.95238 0
M  V30 4399 H 413.591 2.76843 -1.73279 0
M  V30 4400 H 412.25 1.41592 -3.38153 0
M  V30 4401 H 411.898 3.88495 -3.195 0
M  V30 4402 H 411.598 3.31077 -4.8545 0
M  V30 4403 H 413.122 4.16004 -4.4696 0
M  V30 4404 H 414.536 2.06535 -5.34805 0
M  V30 4405 H 412.933 1.43544 -5.82679 0
M  V30 4406 H 414.003 0.433611 -4.82957 0
M  V30 4407 N 415.346 1.54954 0.287554 0
M  V30 4408 C 416.256 1.8991 1.37736 0
M  V30 4409 C 417.272 0.794701 1.54792 0
M  V30 4410 O 418.448 1.09243 1.69198 0
M  V30 4411 C 415.513 2.15108 2.71899 0
M  V30 4412 C 414.574 3.38752 2.63715 0
M  V30 4413 C 413.807 3.62739 3.91479 0
M  V30 4414 O 414.03 2.89492 4.91478 0
M  V30 4415 O 412.964 4.56267 3.92561 0
M  V30 4416 H 416.79 2.82652 1.11092 0
M  V30 4417 H 414.375 1.41315 0.484807 0
M  V30 4418 H 416.257 2.32806 3.51254 0
M  V30 4419 H 414.932 1.25551 2.9836 0
M  V30 4420 H 413.839 3.26405 1.82786 0
M  V30 4421 H 415.172 4.28483 2.42205 0
M  V30 4422 N 416.824 -0.551391 1.4764 0
M  V30 4423 C 417.757 -1.6738 1.5511 0
M  V30 4424 C 418.735 -1.5753 0.402856 0
M  V30 4425 O 419.919 -1.78307 0.611475 0
M  V30 4426 C 417.046 -3.05661 1.45908 0
M  V30 4427 C 416.092 -3.33938 2.65307 0
M  V30 4428 S 416.925 -3.22553 4.27457 0
M  V30 4429 C 418.081 -4.63317 4.20818 0
M  V30 4430 H 418.314 -1.6079 2.50068 0
M  V30 4431 H 415.847 -0.732674 1.35909 0
M  V30 4432 H 417.805 -3.8542 1.41286 0
M  V30 4433 H 416.466 -3.09711 0.523248 0
M  V30 4434 H 415.659 -4.34761 2.54948 0
M  V30 4435 H 415.261 -2.61809 2.67081 0
M  V30 4436 H 417.553 -5.54391 3.89431 0
M  V30 4437 H 418.496 -4.78732 5.21748 0
M  V30 4438 H 418.904 -4.41636 3.51593 0
M  V30 4439 N 418.302 -1.35869 -0.798587 0
M  V30 4440 C 419.579 -1.20145 -1.54352 0
M  V30 4441 C 419.959 0.216161 -2.0999 0
M  V30 4442 O 419.307 1.22068 -1.93162 0
M  V30 4443 C 419.517 -2.27602 -2.64572 0
M  V30 4444 C 420.865 -2.63811 -3.32699 0
M  V30 4445 O 421.889 -2.26576 -2.74849 0
M  V30 4446 O 420.748 -3.27866 -4.37226 0
M  V30 4447 H 417.842 -0.467248 -0.682355 0
M  V30 4448 H 420.388 -1.47574 -0.837859 0
M  V30 4449 H 419.16 -3.2265 -2.21388 0
M  V30 4450 H 418.783 -2.01488 -3.42766 0
M  V30 4451 N 419.78 1.02168 -1.19998 0
M  V30 4452 C 421.057 1.72816 -0.916191 0
M  V30 4453 C 421.437 2.03081 0.576325 0
M  V30 4454 O 420.785 1.69122 1.53656 0
M  V30 4455 C 420.995 2.9997 -1.78378 0
M  V30 4456 C 422.343 3.73336 -2.02251 0
M  V30 4457 O 423.367 3.09914 -1.75589 0
M  V30 4458 O 422.226 4.87371 -2.47249 0
M  V30 4459 H 419.32 0.752924 -0.342103 0
M  V30 4460 H 421.866 1.08062 -1.30846 0
M  V30 4461 H 420.638 2.73888 -2.79466 0
M  V30 4462 H 420.261 3.72464 -1.39126 0
M  V30 4463 N 421.258 1.00505 1.21394 0
M  V30 4464 C 422.669 0.721082 1.72213 0
M  V30 4465 C 423.02 -0.761263 1.80829 0
M  V30 4466 O 422.145 -1.59464 1.46288 0
M  V30 4467 C 422.74 1.30228 3.12772 0
M  V30 4468 C 421.299 1.06743 3.60947 0
M  V30 4469 C 420.446 1.41507 2.38477 0
M  V30 4470 H 423.397 1.17594 1.06571 0
M  V30 4471 H 423.418 0.686955 3.74247 0
M  V30 4472 H 422.93 2.38115 3.06468 0
M  V30 4473 H 421.031 0.00572162 3.726 0
M  V30 4474 H 421.144 1.73936 4.46411 0
M  V30 4475 H 419.508 0.833852 2.40664 0
M  V30 4476 H 420.291 2.50424 2.34824 0
M  V30 4477 N 422.737 -1.36956 0.779787 0
M  V30 4478 C 424.153 -1.52817 0.460342 0
M  V30 4479 C 424.353 -1.7361 -1.02283 0
M  V30 4480 O 423.409 -1.76207 -1.80852 0
M  V30 4481 C 424.722 -2.71983 1.28241 0
M  V30 4482 C 426.27 -2.85849 1.27512 0
M  V30 4483 C 426.745 -4.08008 2.08072 0
M  V30 4484 N 428.236 -4.15135 2.05467 0
M  V30 4485 C 428.971 -5.08711 2.64577 0
M  V30 4486 N 428.467 -6.07792 3.32506 0
M  V30 4487 N 430.26 -5.01254 2.54363 0
M  V30 4488 H 422.411 -1.21713 1.74068 0
M  V30 4489 H 424.674 -0.593294 0.739396 0
M  V30 4490 H 424.38 -2.63109 2.33381 0
M  V30 4491 H 424.254 -3.65882 0.917088 0
M  V30 4492 H 426.641 -2.94189 0.231686 0
M  V30 4493 H 426.722 -1.92886 1.68014 0
M  V30 4494 H 426.366 -4.00429 3.12441 0
M  V30 4495 H 426.296 -5.001 1.64947 0
M  V30 4496 H 428.787 -3.44189 1.5602 0
M  V30 4497 H 429.1 -6.75739 3.74963 0
M  V30 4498 H 427.445 -6.08047 3.36606 0
M  V30 4499 H 430.636 -4.22795 2.00902 0
M  V30 4500 H 430.809 -5.73995 3.00722 0
M  V30 4501 N 424.215 -0.530993 -1.48385 0
M  V30 4502 C 425.178 0.220497 -2.28137 0
M  V30 4503 C 426.178 0.866851 -1.35434 0
M  V30 4504 O 427.368 0.726746 -1.58316 0
M  V30 4505 C 424.5 1.31921 -3.1434 0
M  V30 4506 H 425.693 -0.479714 -2.96038 0
M  V30 4507 H 423.246 -0.286968 -1.53643 0
M  V30 4508 H 423.981 2.05264 -2.51072 0
M  V30 4509 H 423.766 0.86085 -3.82533 0
M  V30 4510 H 425.256 1.84776 -3.74497 0
M  V30 4511 N 425.693 1.55336 -0.266172 0
M  V30 4512 C 426.939 1.99692 0.353681 0
M  V30 4513 C 427.272 1.1543 1.56172 0
M  V30 4514 O 426.547 0.222218 1.93226 0
M  V30 4515 C 426.83 3.52316 0.74466 0
M  V30 4516 C 426.683 4.47337 -0.470101 0
M  V30 4517 C 428.002 4.10588 1.58447 0
M  V30 4518 H 425.121 0.725961 0.12708 0
M  V30 4519 H 427.763 1.86336 -0.371333 0
M  V30 4520 H 425.913 3.63829 1.36239 0
M  V30 4521 H 427.585 4.4778 -1.10864 0
M  V30 4522 H 425.828 4.19364 -1.10978 0
M  V30 4523 H 426.499 5.51788 -0.15291 0
M  V30 4524 H 428.975 4.02297 1.06286 0
M  V30 4525 H 427.851 5.17607 1.82686 0
M  V30 4526 H 428.112 3.60253 2.56262 0
M  V30 4527 N 427.171 -0.0066808 1.57599 0
M  V30 4528 C 428.419 -0.691552 1.899 0
M  V30 4529 C 428.74 -1.74682 0.866672 0
M  V30 4530 O 428.01 -1.95661 -0.0968189 0
M  V30 4531 H 426.59 -0.258416 0.700878 0
M  V30 4532 H 429.252 0.0326655 1.94873 0
M  V30 4533 H 428.348 -1.16702 2.8946 0
M  V30 4534 N 428.649 -1.55105 -0.279332 0
M  V30 4535 C 429.596 -1.8755 -1.34513 0
M  V30 4536 C 430.566 -0.726384 -1.49375 0
M  V30 4537 O 431.751 -0.977063 -1.63884 0
M  V30 4538 C 428.891 -2.14738 -2.70151 0
M  V30 4539 C 428.004 -3.42285 -2.63562 0
M  V30 4540 C 427.139 -3.59206 -3.91337 0
M  V30 4541 C 426.178 -4.80467 -3.79233 0
M  V30 4542 N 425.315 -4.94079 -4.98829 0
M  V30 4543 H 430.155 -2.78456 -1.06143 0
M  V30 4544 H 427.692 -1.37867 -0.512936 0
M  V30 4545 H 429.65 -2.28501 -3.49061 0
M  V30 4546 H 428.28 -1.27075 -2.96735 0
M  V30 4547 H 427.332 -3.37029 -1.76397 0
M  V30 4548 H 428.644 -4.31328 -2.50515 0
M  V30 4549 H 427.798 -3.72751 -4.78687 0
M  V30 4550 H 426.537 -2.68337 -4.07243 0
M  V30 4551 H 425.542 -4.66932 -2.90266 0
M  V30 4552 H 426.767 -5.72765 -3.64852 0
M  V30 4553 H 424.713 -4.06139 -5.15158 0
M  V30 4554 H 424.63 -5.77156 -4.8829 0
M  V30 4555 H 425.898 -5.12003 -5.8777 0
M  V30 4556 N 430.127 0.543554 -1.4793 0
M  V30 4557 C 431.074 1.64942 -1.6144 0
M  V30 4558 C 432.044 1.59692 -0.456903 0
M  V30 4559 O 433.229 1.78321 -0.678688 0
M  V30 4560 C 430.369 3.03238 -1.64744 0
M  V30 4561 C 429.482 3.18823 -2.91506 0
M  V30 4562 C 428.617 4.47599 -2.86057 0
M  V30 4563 C 427.656 4.56664 -4.07584 0
M  V30 4564 N 426.793 5.76811 -4.00292 0
M  V30 4565 H 431.633 1.52733 -2.55884 0
M  V30 4566 H 429.17 0.7438 -1.2691 0
M  V30 4567 H 431.128 3.83339 -1.64641 0
M  V30 4568 H 429.758 3.1425 -0.738017 0
M  V30 4569 H 428.81 2.32064 -3.01414 0
M  V30 4570 H 430.122 3.21384 -3.81463 0
M  V30 4571 H 429.276 5.35975 -2.84281 0
M  V30 4572 H 428.015 4.47538 -1.93807 0
M  V30 4573 H 427.02 3.66697 -4.09651 0
M  V30 4574 H 428.245 4.58474 -5.00978 0
M  V30 4575 H 426.191 5.77673 -3.10853 0
M  V30 4576 H 426.108 5.80808 -4.8394 0
M  V30 4577 H 427.376 6.67512 -4.02553 0
M  V30 4578 N 431.605 1.3629 0.791371 0
M  V30 4579 C 432.535 1.33137 1.91825 0
M  V30 4580 C 433.516 0.203168 1.68882 0
M  V30 4581 O 434.701 0.400509 1.90025 0
M  V30 4582 C 431.831 1.11793 3.28816 0
M  V30 4583 C 430.785 2.21417 3.66277 0
M  V30 4584 C 430.111 1.85218 5.01596 0
M  V30 4585 C 431.411 3.63489 3.75064 0
M  V30 4586 H 433.105 2.2743 1.9472 0
M  V30 4587 H 430.651 1.09479 0.935437 0
M  V30 4588 H 432.604 1.08222 4.07266 0
M  V30 4589 H 431.328 0.139501 3.26302 0
M  V30 4590 H 429.987 2.2411 2.90121 0
M  V30 4591 H 429.635 0.859544 4.95602 0
M  V30 4592 H 429.335 2.58611 5.27631 0
M  V30 4593 H 430.859 1.832 5.82469 0
M  V30 4594 H 432.273 3.63034 4.43711 0
M  V30 4595 H 430.67 4.35771 4.12582 0
M  V30 4596 H 431.74 3.98536 2.76219 0
M  V30 4597 N 433.083 -1.0153 1.20538 0
M  V30 4598 C 434.331 -1.74803 1.01432 0
M  V30 4599 C 434.652 -1.8963 -0.454456 0
M  V30 4600 O 433.922 -1.43975 -1.32846 0
M  V30 4601 H 432.502 -0.647598 0.372324 0
M  V30 4602 H 435.164 -1.22402 1.5167 0
M  V30 4603 H 434.26 -2.75114 1.47373 0
M  V30 4604 N 434.561 -1.01147 -1.20859 0
M  V30 4605 C 435.808 -0.697865 -1.90095 0
M  V30 4606 C 436.136 0.772014 -1.78522 0
M  V30 4607 O 435.391 1.57595 -1.16027 0
M  V30 4608 C 435.69 -1.0727 -3.40922 0
M  V30 4609 C 435.356 -2.53792 -3.72693 0
M  V30 4610 C 434.018 -2.93829 -3.81075 0
M  V30 4611 C 436.37 -3.48674 -3.87397 0
M  V30 4612 C 433.698 -4.27696 -4.01613 0
M  V30 4613 C 436.05 -4.82223 -4.09444 0
M  V30 4614 C 434.714 -5.21973 -4.16054 0
M  V30 4615 H 433.984 -0.255367 -0.695607 0
M  V30 4616 H 436.631 -1.27111 -1.43231 0
M  V30 4617 H 434.936 -0.417799 -3.89566 0
M  V30 4618 H 436.633 -0.807818 -3.92779 0
M  V30 4619 H 433.223 -2.21768 -3.66765 0
M  V30 4620 H 437.407 -3.18904 -3.80281 0
M  V30 4621 H 432.663 -4.58055 -4.04964 0
M  V30 4622 H 436.837 -5.55672 -4.19763 0
M  V30 4623 H 434.464 -6.25717 -4.31721 0
M  V30 4624 N 436.039 1.36541 -0.78704 0
M  V30 4625 C 437.269 2.03266 -0.369662 0
M  V30 4626 C 437.677 1.59481 1.01796 0
M  V30 4627 O 437.02 0.778612 1.66383 0
M  V30 4628 C 437.082 3.57779 -0.351371 0
M  V30 4629 C 436.746 4.24756 -1.68617 0
M  V30 4630 C 437.743 4.47811 -2.64124 0
M  V30 4631 C 435.428 4.62277 -1.96481 0
M  V30 4632 C 437.422 5.07464 -3.85693 0
M  V30 4633 C 435.109 5.21649 -3.18317 0
M  V30 4634 C 436.107 5.44182 -4.12741 0
M  V30 4635 O 435.795 6.02307 -5.32429 0
M  V30 4636 H 435.527 0.658977 -0.150751 0
M  V30 4637 H 438.081 1.75548 -1.0664 0
M  V30 4638 H 436.311 3.84606 0.401847 0
M  V30 4639 H 438 4.05879 0.0410147 0
M  V30 4640 H 438.766 4.19221 -2.43883 0
M  V30 4641 H 434.645 4.44065 -1.23805 0
M  V30 4642 H 438.189 5.24968 -4.59407 0
M  V30 4643 H 434.086 5.49664 -3.38437 0
M  V30 4644 H 434.854 6.20775 -5.33461 0
M  V30 4645 N 437.518 0.538854 1.48102 0
M  V30 4646 C 438.743 0.0102694 2.07397 0
M  V30 4647 C 439.168 -1.26562 1.39153 0
M  V30 4648 O 438.526 -1.75357 0.460387 0
M  V30 4649 C 438.574 -0.187602 3.60112 0
M  V30 4650 O 437.678 -1.25432 3.92862 0
M  V30 4651 H 437.019 0.0430975 0.6626 0
M  V30 4652 H 439.549 0.749301 1.90385 0
M  V30 4653 H 439.559 -0.407517 4.0596 0
M  V30 4654 H 438.234 0.744386 4.09184 0
M  V30 4655 H 436.811 -1.01636 3.58782 0
M  V30 4656 N 438.996 -1.55193 0.274407 0
M  V30 4657 C 440.242 -1.99877 -0.343086 0
M  V30 4658 C 440.575 -1.16256 -1.55558 0
M  V30 4659 O 439.85 -0.232462 -1.93106 0
M  V30 4660 C 440.133 -3.52706 -0.725965 0
M  V30 4661 C 439.986 -4.47081 0.493818 0
M  V30 4662 C 441.305 -4.11422 -1.56268 0
M  V30 4663 H 438.424 -0.726625 -0.123229 0
M  V30 4664 H 441.066 -1.86136 0.38121 0
M  V30 4665 H 439.216 -3.64546 -1.34307 0
M  V30 4666 H 440.888 -4.47186 1.13237 0
M  V30 4667 H 439.131 -4.1877 1.13201 0
M  V30 4668 H 439.802 -5.51699 0.18217 0
M  V30 4669 H 442.278 -4.02855 -1.04151 0
M  V30 4670 H 441.154 -5.18568 -1.79939 0
M  V30 4671 H 441.415 -3.61607 -2.54348 0
M  V30 4672 N 440.474 -0.00167713 -1.576 0
M  V30 4673 C 441.702 0.693759 -1.94922 0
M  V30 4674 C 442.117 1.67215 -0.876626 0
M  V30 4675 O 441.474 1.81929 0.144279 0
M  V30 4676 C 441.525 1.42416 -3.32265 0
M  V30 4677 O 441.246 0.485014 -4.35407 0
M  V30 4678 C 442.747 2.21395 -3.84056 0
M  V30 4679 H 439.967 0.193118 -0.642609 0
M  V30 4680 H 442.511 -0.0532952 -2.04431 0
M  V30 4681 H 440.666 2.12284 -3.24059 0
M  V30 4682 H 441.08 1.00053 -5.14868 0
M  V30 4683 H 442.554 2.67996 -4.82578 0
M  V30 4684 H 443.031 3.04142 -3.16851 0
M  V30 4685 H 443.637 1.56542 -3.95443 0
M  V30 4686 N 441.952 1.55251 0.271103 0
M  V30 4687 C 443.198 1.76207 1.00394 0
M  V30 4688 C 443.531 0.562604 1.85872 0
M  V30 4689 O 442.806 -0.439785 1.89463 0
M  V30 4690 C 443.089 3.06828 1.8849 0
M  V30 4691 C 442.942 4.37134 1.05992 0
M  V30 4692 C 444.261 3.33503 2.87165 0
M  V30 4693 H 441.38 0.641086 0.363562 0
M  V30 4694 H 444.022 1.87982 0.276189 0
M  V30 4695 H 442.172 2.96921 2.5054 0
M  V30 4696 H 443.844 4.59001 0.459978 0
M  V30 4697 H 442.087 4.32275 0.363443 0
M  V30 4698 H 442.758 5.2486 1.70955 0
M  V30 4699 H 445.234 3.43215 2.3525 0
M  V30 4700 H 444.11 4.2616 3.45946 0
M  V30 4701 H 444.371 2.53235 3.62387 0
M  V30 4702 N 443.43 -0.535701 1.48216 0
M  V30 4703 C 444.676 -1.29375 1.56173 0
M  V30 4704 C 445.009 -1.92804 0.232429 0
M  V30 4705 O 444.284 -1.78992 -0.761048 0
M  V30 4706 C 444.567 -2.38747 2.69577 0
M  V30 4707 C 444.42 -1.80046 4.12193 0
M  V30 4708 C 445.739 -3.40551 2.78771 0
M  V30 4709 H 442.858 -0.469027 0.568491 0
M  V30 4710 H 445.5 -0.597358 1.80365 0
M  V30 4711 H 443.65 -2.98147 2.4908 0
M  V30 4712 H 445.322 -1.24742 4.44114 0
M  V30 4713 H 443.565 -1.10609 4.19462 0
M  V30 4714 H 444.236 -2.59212 4.87353 0
M  V30 4715 H 446.712 -2.91099 2.97322 0
M  V30 4716 H 445.588 -4.1448 3.59857 0
M  V30 4717 H 445.849 -4.00746 1.86696 0
M  V30 4718 N 444.908 -1.36708 -0.784132 0
M  V30 4719 C 446.148 -1.32618 -1.55537 0
M  V30 4720 C 446.512 0.0920681 -1.91779 0
M  V30 4721 O 447.713 0.257573 -2.67563 0
M  V30 4722 C 445.984 -2.22788 -2.79464 0
M  V30 4723 S 447.543 -2.36432 -3.69656 0
M  V30 4724 H 444.361 -0.470973 -0.53264 0
M  V30 4725 H 446.963 -1.72333 -0.92312 0
M  V30 4726 H 445.667 -3.24774 -2.50899 0
M  V30 4727 H 445.198 -1.84112 -3.47658 0
M  V30 4728 H 447.213 -1.56573 -4.7085 0
M  V30 4729 N 446.386 1.0089 -1.21074 0
M  V30 4730 C 447.634 1.74262 -1.02358 0
M  V30 4731 C 447.955 1.89869 0.444393 0
M  V30 4732 O 447.225 1.44677 1.32081 0
M  V30 4733 H 445.805 0.645615 -0.375754 0
M  V30 4734 H 448.467 1.21596 -1.52317 0
M  V30 4735 H 447.563 2.74328 -1.4883 0
M  V30 4736 N 447.864 1.01787 1.20321 0
M  V30 4737 C 448.794 0.609625 2.25401 0
M  V30 4738 C 449.775 -0.375951 1.65893 0
M  V30 4739 O 450.96 -0.261101 1.92437 0
M  V30 4740 C 448.09 -0.0515995 3.47262 0
M  V30 4741 C 447.044 0.855095 4.19371 0
M  V30 4742 C 446.37 0.0595757 5.34667 0
M  V30 4743 C 447.67 2.16374 4.75373 0
M  V30 4744 H 449.364 1.48803 2.59804 0
M  V30 4745 H 446.91 0.716934 1.24884 0
M  V30 4746 H 448.863 -0.348764 4.19954 0
M  V30 4747 H 447.587 -0.964726 3.12027 0
M  V30 4748 H 446.246 1.13628 3.48546 0
M  V30 4749 H 445.894 -0.85524 4.95676 0
M  V30 4750 H 445.594 0.663406 5.83843 0
M  V30 4751 H 447.118 -0.231105 6.10162 0
M  V30 4752 H 448.532 1.92885 5.39878 0
M  V30 4753 H 446.929 2.71853 5.34991 0
M  V30 4754 H 447.999 2.82589 3.94045 0
M  V30 4755 N 449.342 -1.36122 0.79427 0
M  V30 4756 C 450.588 -1.99406 0.369452 0
M  V30 4757 C 450.921 -1.62886 -1.05743 0
M  V30 4758 O 450.196 -0.886053 -1.73145 0
M  V30 4759 C 450.479 -3.56046 0.538833 0
M  V30 4760 C 450.332 -4.02404 2.00976 0
M  V30 4761 C 451.651 -4.40079 -0.0431359 0
M  V30 4762 H 448.77 -0.724397 0.135712 0
M  V30 4763 H 451.412 -1.61461 1.00151 0
M  V30 4764 H 449.562 -3.885 0.000771004 0
M  V30 4765 H 451.234 -3.80415 2.60926 0
M  V30 4766 H 449.477 -3.53765 2.51063 0
M  V30 4767 H 450.148 -5.11344 2.07922 0
M  V30 4768 H 452.624 -4.14013 0.416228 0
M  V30 4769 H 451.5 -5.48799 0.105374 0
M  V30 4770 H 451.761 -4.27264 -1.13571 0
M  V30 4771 N 450.82 -0.546701 -1.47814 0
M  V30 4772 C 451.75 0.195317 -2.32682 0
M  V30 4773 C 452.731 0.918981 -1.43139 0
M  V30 4774 O 453.916 0.901501 -1.72008 0
M  V30 4775 C 451.046 1.23237 -3.247 0
M  V30 4776 C 450 0.625818 -4.234 0
M  V30 4777 C 449.326 1.76674 -5.04669 0
M  V30 4778 C 450.626 -0.413515 -5.2066 0
M  V30 4779 H 452.32 -0.513184 -2.94969 0
M  V30 4780 H 449.866 -0.248241 -1.41844 0
M  V30 4781 H 451.819 1.75955 -3.82907 0
M  V30 4782 H 450.543 1.97067 -2.60446 0
M  V30 4783 H 449.202 0.120023 -3.66403 0
M  V30 4784 H 448.85 2.49383 -4.36826 0
M  V30 4785 H 448.55 1.36673 -5.71484 0
M  V30 4786 H 450.074 2.29738 -5.65732 0
M  V30 4787 H 451.488 0.0272042 -5.73294 0
M  V30 4788 H 449.885 -0.731825 -5.95621 0
M  V30 4789 H 450.955 -1.31325 -4.66778 0
M  V30 4790 N 452.299 1.55045 -0.282633 0
M  V30 4791 C 453.249 2.19514 0.616249 0
M  V30 4792 C 454.233 1.16216 1.11277 0
M  V30 4793 O 455.425 1.42004 1.05659 0
M  V30 4794 C 452.554 2.92548 1.7964 0
M  V30 4795 C 451.64 4.03142 1.31671 0
M  V30 4796 N 452.031 5.0276 0.553695 0
M  V30 4797 C 450.329 4.1635 1.59903 0
M  V30 4798 C 451.03 5.80923 0.30054 0
M  V30 4799 N 450.006 5.3651 0.875116 0
M  V30 4800 H 453.808 2.93889 0.0255363 0
M  V30 4801 H 451.322 1.62169 -0.0865362 0
M  V30 4802 H 453.319 3.37188 2.45173 0
M  V30 4803 H 451.979 2.19685 2.39099 0
M  V30 4804 H 452.99 5.17512 0.20032 0
M  V30 4805 H 449.667 3.54682 2.20243 0
M  V30 4806 H 451.057 6.7118 -0.311053 0
M  V30 4807 N 453.777 0.010035 1.57597 0
M  V30 4808 C 455.025 -0.671371 1.90623 0
M  V30 4809 C 455.346 -1.73753 0.885151 0
M  V30 4810 O 454.616 -1.95752 -0.0760611 0
M  V30 4811 H 453.196 -0.250968 0.703579 0
M  V30 4812 H 455.858 0.0533325 1.94827 0
M  V30 4813 H 454.954 -1.13626 2.90681 0
M  V30 4814 N 455.255 -1.55392 -0.262866 0
M  V30 4815 C 456.185 -1.91978 -1.32917 0
M  V30 4816 C 457.166 -0.7828 -1.51017 0
M  V30 4817 O 458.351 -1.04178 -1.63892 0
M  V30 4818 C 455.481 -2.20055 -2.68687 0
M  V30 4819 C 454.435 -3.35854 -2.65304 0
M  V30 4820 C 453.761 -3.49435 -4.04721 0
M  V30 4821 C 455.061 -4.71977 -2.23685 0
M  V30 4822 H 456.755 -2.81292 -1.02544 0
M  V30 4823 H 454.301 -1.3534 -0.491846 0
M  V30 4824 H 456.254 -2.44237 -3.43404 0
M  V30 4825 H 454.978 -1.27551 -3.00663 0
M  V30 4826 H 453.637 -3.11655 -1.93045 0
M  V30 4827 H 453.285 -2.54379 -4.33936 0
M  V30 4828 H 452.985 -4.27297 -4.0335 0
M  V30 4829 H 454.509 -3.7592 -4.81161 0
M  V30 4830 H 455.923 -4.95637 -2.88127 0
M  V30 4831 H 454.32 -5.52828 -2.33456 0
M  V30 4832 H 455.39 -4.70115 -1.18827 0
M  V30 4833 N 456.733 0.527833 -1.48498 0
M  V30 4834 C 457.98 1.28354 -1.56625 0
M  V30 4835 C 458.308 1.93 -0.241096 0
M  V30 4836 O 457.563 1.79967 0.768798 0
M  V30 4837 C 457.862 2.39275 -2.65485 0
M  V30 4838 C 457.528 1.92268 -4.07853 0
M  V30 4839 C 456.19 1.79166 -4.46602 0
M  V30 4840 C 458.542 1.56771 -4.97064 0
M  V30 4841 C 455.87 1.28905 -5.72364 0
M  V30 4842 C 458.222 1.07972 -6.23318 0
M  V30 4843 C 456.886 0.934887 -6.60921 0
M  V30 4844 H 456.156 0.469682 -0.573131 0
M  V30 4845 H 458.803 0.588781 -1.82224 0
M  V30 4846 H 457.108 3.1443 -2.33754 0
M  V30 4847 H 458.805 2.974 -2.68988 0
M  V30 4848 H 455.395 2.03417 -3.77252 0
M  V30 4849 H 459.579 1.65753 -4.67803 0
M  V30 4850 H 454.835 1.16381 -6.00221 0
M  V30 4851 H 459.009 0.795775 -6.91838 0
M  V30 4852 H 456.636 0.543231 -7.58257 0
M  V30 4853 N 458.211 1.37122 0.776871 0
M  V30 4854 C 459.46 1.31373 1.53049 0
M  V30 4855 C 459.773 -0.101016 1.95339 0
M  V30 4856 O 460.979 -0.280953 2.70042 0
M  V30 4857 C 459.435 2.30567 2.76346 0
M  V30 4858 C 459.043 3.77543 2.41175 0
M  V30 4859 C 460.787 2.33818 3.54301 0
M  V30 4860 C 458.694 4.68481 3.60943 0
M  V30 4861 H 457.624 0.488234 0.574581 0
M  V30 4862 H 460.275 1.62554 0.851372 0
M  V30 4863 H 458.657 1.92396 3.46121 0
M  V30 4864 H 459.831 4.24521 1.79216 0
M  V30 4865 H 458.146 3.77187 1.76405 0
M  V30 4866 H 460.743 2.98965 4.4331 0
M  V30 4867 H 461.086 1.3503 3.93793 0
M  V30 4868 H 461.619 2.7067 2.91518 0
M  V30 4869 H 458.358 5.68378 3.26537 0
M  V30 4870 H 457.878 4.2621 4.22025 0
M  V30 4871 H 459.557 4.85366 4.27819 0
M  V30 4872 N 459.689 -1.00246 1.21608 0
M  V30 4873 C 460.619 -2.10921 1.00172 0
M  V30 4874 C 461.6 -1.69938 -0.0741587 0
M  V30 4875 O 462.785 -1.94009 0.0861753 0
M  V30 4876 C 459.915 -3.42618 0.568355 0
M  V30 4877 C 458.869 -3.97407 1.58909 0
M  V30 4878 C 458.195 -5.25038 1.01187 0
M  V30 4879 C 459.495 -4.2918 2.97661 0
M  V30 4880 H 461.189 -2.29112 1.92739 0
M  V30 4881 H 458.735 -1.10101 0.928102 0
M  V30 4882 H 460.688 -4.19444 0.405555 0
M  V30 4883 H 459.412 -3.24227 -0.392961 0
M  V30 4884 H 458.071 -3.22703 1.73949 0
M  V30 4885 H 457.719 -5.02982 0.0421965 0
M  V30 4886 H 457.419 -5.62661 1.6937 0
M  V30 4887 H 458.943 -6.04507 0.860448 0
M  V30 4888 H 460.357 -4.96839 2.86049 0
M  V30 4889 H 458.754 -4.77952 3.6288 0
M  V30 4890 H 459.824 -3.3735 3.48315 0
M  V30 4891 N 461.167 -1.02423 -1.1978 0
M  V30 4892 C 462.578 -0.748389 -1.71044 0
M  V30 4893 C 462.929 0.732398 -1.82017 0
M  V30 4894 O 462.054 1.57116 -1.48807 0
M  V30 4895 C 462.649 -1.35187 -3.1066 0
M  V30 4896 C 461.208 -1.12472 -3.59203 0
M  V30 4897 C 460.355 -1.45283 -2.36195 0
M  V30 4898 H 463.306 -1.19275 -1.04686 0
M  V30 4899 H 463.327 -0.746408 -3.73107 0
M  V30 4900 H 462.839 -2.4296 -3.02642 0
M  V30 4901 H 460.94 -0.0649983 -3.72543 0
M  V30 4902 H 461.053 -1.81016 -4.43588 0
M  V30 4903 H 459.417 -0.872034 -2.39307 0
M  V30 4904 H 460.2 -2.54129 -2.30811 0
M  V30 4905 N 462.645 1.35699 -0.801477 0
M  V30 4906 C 463.575 2.32436 -0.222658 0
M  V30 4907 C 464.556 1.5723 0.649057 0
M  V30 4908 O 465.741 1.85324 0.580387 0
M  V30 4909 C 462.871 3.41469 0.633719 0
M  V30 4910 C 461.825 4.27774 -0.139083 0
M  V30 4911 C 461.151 5.28082 0.838666 0
M  V30 4912 C 462.451 5.04946 -1.33517 0
M  V30 4913 H 464.145 2.81094 -1.03086 0
M  V30 4914 H 461.691 1.35146 -0.497155 0
M  V30 4915 H 463.644 4.08143 1.04868 0
M  V30 4916 H 462.368 2.91408 1.47475 0
M  V30 4917 H 461.027 3.62673 -0.535156 0
M  V30 4918 H 460.675 4.7429 1.67506 0
M  V30 4919 H 460.375 5.86695 0.32594 0
M  V30 4920 H 461.899 5.97628 1.25194 0
M  V30 4921 H 463.313 5.64593 -0.995349 0
M  V30 4922 H 461.71 5.7303 -1.78202 0
M  V30 4923 H 462.78 4.35886 -2.12442 0
M  V30 4924 N 464.123 0.554532 1.47522 0
M  V30 4925 C 465.053 -0.182974 2.32782 0
M  V30 4926 C 466.034 -0.911377 1.43624 0
M  V30 4927 O 467.219 -0.892366 1.72483 0
M  V30 4928 C 464.349 -1.21513 3.25349 0
M  V30 4929 C 463.303 -0.603355 4.23726 0
M  V30 4930 C 462.629 -1.73995 5.05598 0
M  V30 4931 C 463.929 0.441121 5.20434 0
M  V30 4932 H 465.623 0.52882 2.94693 0
M  V30 4933 H 463.169 0.255759 1.41711 0
M  V30 4934 H 465.122 -1.73922 3.83835 0
M  V30 4935 H 463.846 -1.95683 2.61487 0
M  V30 4936 H 462.505 -0.10059 3.66462 0
M  V30 4937 H 462.153 -2.47063 4.38143 0
M  V30 4938 H 461.853 -1.3364 5.72201 0
M  V30 4939 H 463.377 -2.26735 5.66942 0
M  V30 4940 H 464.791 0.00319931 5.733 0
M  V30 4941 H 463.188 0.763402 5.95224 0
M  V30 4942 H 464.258 1.33799 4.66075 0
M  V30 4943 N 465.601 -1.54893 0.290851 0
M  V30 4944 C 466.831 -2.04047 -0.323818 0
M  V30 4945 C 467.239 -1.16809 -1.48837 0
M  V30 4946 O 466.582 -0.184145 -1.82775 0
M  V30 4947 C 466.644 -3.49248 -0.852395 0
M  V30 4948 C 466.308 -4.56623 0.185557 0
M  V30 4949 C 467.305 -5.09985 1.01053 0
M  V30 4950 C 464.99 -5.01252 0.324332 0
M  V30 4951 C 466.984 -6.06507 1.96031 0
M  V30 4952 C 464.671 -5.97596 1.27757 0
M  V30 4953 C 465.669 -6.50107 2.09405 0
M  V30 4954 O 465.357 -7.44565 3.03114 0
M  V30 4955 H 465.089 -0.671735 -0.0758129 0
M  V30 4956 H 467.643 -2.00947 0.425393 0
M  V30 4957 H 465.873 -3.49639 -1.65195 0
M  V30 4958 H 467.562 -3.81654 -1.38185 0
M  V30 4959 H 468.328 -4.76307 0.914129 0
M  V30 4960 H 464.207 -4.60015 -0.301213 0
M  V30 4961 H 467.751 -6.47418 2.598 0
M  V30 4962 H 463.648 -6.30691 1.37473 0
M  V30 4963 H 464.416 -7.62334 2.97976 0
M  V30 4964 N 467.08 -0.0183926 -1.57589 0
M  V30 4965 C 468.327 0.662562 -1.91354 0
M  V30 4966 C 468.655 1.72747 -0.893788 0
M  V30 4967 O 467.91 1.9545 0.0988509 0
M  V30 4968 C 468.209 1.32676 -3.31861 0
M  V30 4969 C 467.875 0.393267 -4.49182 0
M  V30 4970 C 466.537 0.136302 -4.81007 0
M  V30 4971 C 468.889 -0.248366 -5.20608 0
M  V30 4972 C 466.217 -0.770282 -5.81621 0
M  V30 4973 C 468.569 -1.14294 -6.22189 0
M  V30 4974 C 467.233 -1.4089 -6.52462 0
M  V30 4975 H 466.503 0.242448 -0.700214 0
M  V30 4976 H 469.15 -0.0778629 -1.91342 0
M  V30 4977 H 467.455 2.14168 -3.28084 0
M  V30 4978 H 469.152 1.86001 -3.55253 0
M  V30 4979 H 465.742 0.603723 -4.24327 0
M  V30 4980 H 469.926 -0.062883 -4.9626 0
M  V30 4981 H 465.182 -0.984154 -6.03427 0
M  V30 4982 H 469.356 -1.64637 -6.76659 0
M  V30 4983 H 466.983 -2.11306 -7.30242 0
M  V30 4984 N 468.558 1.5553 0.254621 0
M  V30 4985 C 469.805 1.77 0.983736 0
M  V30 4986 C 470.133 0.58133 1.85609 0
M  V30 4987 O 469.388 -0.435621 1.9079 0
M  V30 4988 C 469.687 3.03891 1.88109 0
M  V30 4989 C 469.353 4.35597 1.16472 0
M  V30 4990 C 468.015 4.7139 0.966714 0
M  V30 4991 C 470.367 5.1705 0.656387 0
M  V30 4992 C 467.695 5.86176 0.247942 0
M  V30 4993 C 470.047 6.32581 -0.0488807 0
M  V30 4994 C 468.711 6.67 -0.258438 0
M  V30 4995 H 467.981 0.647688 0.359974 0
M  V30 4996 H 470.628 1.89802 0.254463 0
M  V30 4997 H 468.933 2.86068 2.67717 0
M  V30 4998 H 470.63 3.17701 2.44677 0
M  V30 4999 H 467.22 4.07475 1.32899 0
M  V30 5000 H 471.404 4.8986 0.796933 0
M  V30 5001 H 466.66 6.11354 0.075035 0
M  V30 5002 H 470.834 6.94942 -0.450444 0
M  V30 5003 H 468.461 7.55793 -0.817358 0
M  V30 5004 N 470.036 -0.519951 1.48776 0
M  V30 5005 C 471.285 -1.27175 1.56555 0
M  V30 5006 C 471.598 -1.9401 0.248869 0
M  V30 5007 O 472.804 -2.70725 0.205004 0
M  V30 5008 C 471.26 -2.30811 2.76142 0
M  V30 5009 C 470.868 -1.7 4.14493 0
M  V30 5010 C 472.612 -3.06937 2.9324 0
M  V30 5011 C 470.519 -2.71635 5.25327 0
M  V30 5012 H 469.449 -0.478329 0.582853 0
M  V30 5013 H 472.1 -0.547916 1.75129 0
M  V30 5014 H 470.482 -3.06274 2.51023 0
M  V30 5015 H 471.656 -1.00658 4.49672 0
M  V30 5016 H 469.971 -1.06331 4.02595 0
M  V30 5017 H 472.568 -3.82905 3.73213 0
M  V30 5018 H 472.911 -3.63409 2.03075 0
M  V30 5019 H 473.444 -2.38589 3.18308 0
M  V30 5020 H 470.183 -2.1997 6.1749 0
M  V30 5021 H 469.703 -3.39275 4.94624 0
M  V30 5022 H 471.382 -3.34429 5.53865 0
M  V30 5023 N 471.514 -1.37532 -0.769588 0
M  V30 5024 C 472.742 -1.36059 -1.55871 0
M  V30 5025 C 473.157 0.053544 -1.88724 0
M  V30 5026 O 472.514 1.01591 -1.5161 0
M  V30 5027 C 472.565 -2.20107 -2.86767 0
M  V30 5028 O 472.286 -3.56009 -2.55321 0
M  V30 5029 C 473.787 -2.26636 -3.80987 0
M  V30 5030 H 471.007 -0.465967 -0.482821 0
M  V30 5031 H 473.551 -1.80901 -0.953686 0
M  V30 5032 H 471.706 -1.78768 -3.43687 0
M  V30 5033 H 472.12 -4.0009 -3.39158 0
M  V30 5034 H 473.594 -2.89763 -4.69831 0
M  V30 5035 H 474.071 -1.2754 -4.20274 0
M  V30 5036 H 474.677 -2.68296 -3.29996 0
M  V30 5037 N 472.992 0.995999 -1.22138 0
M  V30 5038 C 473.939 2.08551 -0.988687 0
M  V30 5039 C 474.909 1.65864 0.0885021 0
M  V30 5040 O 476.094 1.90704 -0.0604589 0
M  V30 5041 C 473.234 3.40374 -0.569191 0
M  V30 5042 C 472.347 3.96421 -1.71681 0
M  V30 5043 C 471.482 5.1639 -1.2456 0
M  V30 5044 C 470.521 5.64567 -2.36497 0
M  V30 5045 N 469.658 6.75777 -1.90445 0
M  V30 5046 H 474.498 2.2779 -1.92135 0
M  V30 5047 H 472.035 1.1168 -0.957388 0
M  V30 5048 H 473.993 4.16068 -0.307166 0
M  V30 5049 H 472.623 3.21145 0.326462 0
M  V30 5050 H 471.675 3.17628 -2.09324 0
M  V30 5051 H 472.987 4.2816 -2.55891 0
M  V30 5052 H 472.141 5.99362 -0.940774 0
M  V30 5053 H 470.88 4.86266 -0.373662 0
M  V30 5054 H 469.885 4.80185 -2.67772 0
M  V30 5055 H 471.11 5.96716 -3.24202 0
M  V30 5056 H 469.056 6.47443 -1.05609 0
M  V30 5057 H 468.973 7.06818 -2.68223 0
M  V30 5058 H 470.241 7.62262 -1.63022 0
M  V30 5059 N 474.47 1.03057 1.19235 0
M  V30 5060 C 475.417 0.612832 2.22515 0
M  V30 5061 C 476.387 -0.374224 1.61829 0
M  V30 5062 O 477.572 -0.270501 1.88873 0
M  V30 5063 C 474.712 -0.028475 3.45088 0
M  V30 5064 C 473.825 1.00483 4.20151 0
M  V30 5065 C 472.96 0.333102 5.30155 0
M  V30 5066 C 471.999 1.3522 5.96977 0
M  V30 5067 N 471.136 0.70616 6.9854 0
M  V30 5068 H 475.976 1.49812 2.57605 0
M  V30 5069 H 473.513 0.749658 1.26564 0
M  V30 5070 H 475.471 -0.417548 4.15105 0
M  V30 5071 H 474.101 -0.877334 3.10649 0
M  V30 5072 H 473.153 1.51194 3.49062 0
M  V30 5073 H 474.465 1.77929 4.65986 0
M  V30 5074 H 473.619 -0.110725 6.06599 0
M  V30 5075 H 472.358 -0.473547 4.85396 0
M  V30 5076 H 471.363 1.80627 5.19282 0
M  V30 5077 H 472.588 2.16037 6.4382 0
M  V30 5078 H 470.534 -0.0803667 6.55951 0
M  V30 5079 H 470.451 1.41848 7.42573 0
M  V30 5080 H 471.719 0.286391 7.78974 0
M  V30 5081 N 475.948 -1.35272 0.808662 0
M  V30 5082 C 476.896 -2.31663 0.208606 0
M  V30 5083 C 477.89 -1.56731 -0.642778 0
M  V30 5084 O 479.096 -1.71843 -0.53571 0
M  V30 5085 H 475.471 -0.750421 0.0486993 0
M  V30 5086 H 477.442 -2.79814 1.03666 0
M  V30 5087 C 476.191 -3.42008 -0.626573 0
M  V30 5088 H 475.514 -3.99795 0.0192103 0
M  V30 5089 H 476.954 -4.11727 -1.01278 0
M  V30 5090 C 475.413 -2.85226 -1.79298 0
M  V30 5091 O 475.943 -2.78945 -2.89055 0
M  V30 5092 N 474.149 -2.42245 -1.60516 0
M  V30 5093 H 473.696 -2.47554 -0.712375 0
M  V30 5094 H 473.654 -2.04603 -2.38715 0
M  V30 5095 N 477.426 -0.562348 -1.47226 0
M  V30 5096 C 478.837 -0.130325 -1.86245 0
M  V30 5097 C 479.188 1.30128 -1.46838 0
M  V30 5098 O 478.313 1.97974 -0.873805 0
M  V30 5099 C 478.908 -0.229738 -3.3802 0
M  V30 5100 C 477.467 0.14728 -3.76112 0
M  V30 5101 C 476.614 -0.574971 -2.71274 0
M  V30 5102 H 479.565 -0.771773 -1.3867 0
M  V30 5103 H 479.586 0.550316 -3.76499 0
M  V30 5104 H 479.098 -1.27178 -3.66671 0
M  V30 5105 H 477.199 1.19023 -3.53078 0
M  V30 5106 H 477.312 -0.214858 -4.78618 0
M  V30 5107 H 475.676 -0.0174756 -2.54694 0
M  V30 5108 H 476.459 -1.61827 -3.02766 0
M  V30 5109 N 478.904 1.54736 -0.299062 0
M  V30 5110 C 480.153 1.99279 0.311549 0
M  V30 5111 C 480.466 1.19107 1.55154 0
M  V30 5112 O 481.672 1.53908 2.23662 0
M  V30 5113 C 480.128 3.54768 0.605632 0
M  V30 5114 C 479.736 4.43746 -0.615914 0
M  V30 5115 C 481.48 4.07841 1.17754 0
M  V30 5116 C 479.387 5.90663 -0.29509 0
M  V30 5117 H 478.317 0.744359 0.120187 0
M  V30 5118 H 480.968 1.78919 -0.407464 0
M  V30 5119 H 479.35 3.71021 1.38419 0
M  V30 5120 H 480.524 4.39267 -1.39218 0
M  V30 5121 H 478.839 4.01434 -1.10633 0
M  V30 5122 H 481.436 5.15174 1.43179 0
M  V30 5123 H 481.779 3.58324 2.11918 0
M  V30 5124 H 482.312 3.95123 0.460739 0
M  V30 5125 H 479.051 6.44325 -1.20524 0
M  V30 5126 H 478.571 5.98155 0.44394 0
M  V30 5127 H 480.25 6.46916 0.104048 0
M  V30 5128 N 480.382 0.0267497 1.57577 0
M  V30 5129 C 481.628 -0.653371 1.91987 0
M  V30 5130 C 481.961 -1.71915 0.903263 0
M  V30 5131 O 481.236 -1.94358 -0.0743387 0
M  V30 5132 C 481.519 -1.272 3.36886 0
M  V30 5133 C 481.372 -0.215938 4.49281 0
M  V30 5134 C 482.691 -2.19069 3.81703 0
M  V30 5135 H 479.81 -0.236047 0.698177 0
M  V30 5136 H 482.452 0.0835236 1.89816 0
M  V30 5137 H 480.602 -1.90005 3.38866 0
M  V30 5138 H 482.274 0.41449 4.59434 0
M  V30 5139 H 480.517 0.458855 4.31366 0
M  V30 5140 H 481.188 -0.688347 5.47691 0
M  V30 5141 H 483.664 -1.66253 3.81444 0
M  V30 5142 H 482.54 -2.59307 4.83788 0
M  V30 5143 H 482.801 -3.08087 3.17072 0
M  V30 5144 N 481.861 -1.55662 -0.24637 0
M  V30 5145 C 483.108 -1.77519 -0.974335 0
M  V30 5146 C 483.436 -0.591165 -1.85298 0
M  V30 5147 O 482.691 0.425497 -1.91018 0
M  V30 5148 C 482.99 -3.04885 -1.86494 0
M  V30 5149 C 482.656 -4.36209 -1.14161 0
M  V30 5150 C 481.318 -4.71896 -0.941701 0
M  V30 5151 C 483.67 -5.17391 -0.628957 0
M  V30 5152 C 480.998 -5.86299 -0.216852 0
M  V30 5153 C 483.35 -6.32546 0.0824273 0
M  V30 5154 C 482.014 -6.66853 0.293807 0
M  V30 5155 H 481.284 -0.649588 -0.356535 0
M  V30 5156 H 483.931 -1.89934 -0.244394 0
M  V30 5157 H 482.236 -2.87484 -2.66196 0
M  V30 5158 H 483.933 -3.18994 -2.42989 0
M  V30 5159 H 480.523 -4.08174 -1.30736 0
M  V30 5160 H 484.707 -4.90276 -0.770943 0
M  V30 5161 H 479.963 -6.11385 -0.0426124 0
M  V30 5162 H 484.137 -6.94693 0.487292 0
M  V30 5163 H 481.764 -7.55349 0.857428 0
M  V30 5164 N 483.339 0.512053 -1.4905 0
M  V30 5165 C 484.588 1.26343 -1.57227 0
M  V30 5166 C 484.901 1.93876 -0.259155 0
M  V30 5167 O 486.107 2.70612 -0.219358 0
M  V30 5168 C 484.563 2.29343 -2.77362 0
M  V30 5169 C 484.171 1.67799 -4.15388 0
M  V30 5170 C 485.915 3.05378 -2.94864 0
M  V30 5171 C 483.822 2.68845 -5.2676 0
M  V30 5172 H 482.752 0.475231 -0.585382 0
M  V30 5173 H 485.403 0.53862 -1.75417 0
M  V30 5174 H 483.785 3.04938 -2.52643 0
M  V30 5175 H 484.959 0.982715 -4.50199 0
M  V30 5176 H 483.274 1.04194 -4.03153 0
M  V30 5177 H 485.871 3.80921 -3.75238 0
M  V30 5178 H 486.214 3.62327 -2.05 0
M  V30 5179 H 486.747 2.36898 -3.19569 0
M  V30 5180 H 483.486 2.16692 -6.18647 0
M  V30 5181 H 483.006 3.36647 -4.96416 0
M  V30 5182 H 484.685 3.31487 -5.5563 0
M  V30 5183 N 484.817 1.37938 0.762283 0
M  V30 5184 C 486.233 1.18945 1.06415 0
M  V30 5185 C 486.433 0.0321163 2.01474 0
M  V30 5186 O 485.489 -0.624844 2.44647 0
M  V30 5187 C 486.802 2.51218 1.65258 0
M  V30 5188 C 488.35 2.57824 1.7747 0
M  V30 5189 C 488.825 3.90251 2.39725 0
M  V30 5190 N 490.316 3.91744 2.47166 0
M  V30 5191 C 491.051 4.90966 2.96209 0
M  V30 5192 N 490.547 6.00585 3.45354 0
M  V30 5193 N 492.34 4.78363 2.9517 0
M  V30 5194 H 484.491 2.11994 0.131301 0
M  V30 5195 H 486.754 0.940262 0.120879 0
M  V30 5196 H 486.46 3.36317 1.02878 0
M  V30 5197 H 486.334 2.68989 2.64433 0
M  V30 5198 H 488.721 1.73126 2.3898 0
M  V30 5199 H 488.802 2.43928 0.770241 0
M  V30 5200 H 488.446 4.75368 1.78852 0
M  V30 5201 H 488.376 4.01454 3.40796 0
M  V30 5202 H 490.867 3.12563 2.12397 0
M  V30 5203 H 491.18 6.72236 3.81207 0
M  V30 5204 H 489.525 6.04217 3.43434 0
M  V30 5205 H 492.716 3.91841 2.56082 0
M  V30 5206 H 492.889 5.55843 3.33081 0
M  V30 5207 N 486.295 -0.989507 1.22664 0
M  V30 5208 C 487.543 -1.72612 1.05117 0
M  V30 5209 C 487.864 -1.90552 -0.414131 0
M  V30 5210 O 487.134 -1.4676 -1.29762 0
M  V30 5211 H 485.714 -0.639555 0.385977 0
M  V30 5212 H 488.376 -1.19158 1.54232 0
M  V30 5213 H 487.472 -2.71926 1.53175 0
M  V30 5214 N 487.773 -1.03688 -1.18687 0
M  V30 5215 C 489.022 -0.733235 -1.879 0
M  V30 5216 C 489.335 0.741745 -1.8099 0
M  V30 5217 O 490.541 1.15875 -2.4553 0
M  V30 5218 C 488.997 -1.26127 -3.37076 0
M  V30 5219 C 488.605 -2.76461 -3.52524 0
M  V30 5220 C 490.349 -1.03398 -4.11715 0
M  V30 5221 C 488.256 -3.22642 -4.95637 0
M  V30 5222 H 487.186 -0.270584 -0.703776 0
M  V30 5223 H 489.837 -1.25222 -1.34133 0
M  V30 5224 H 488.219 -0.670165 -3.90288 0
M  V30 5225 H 489.393 -3.41296 -3.09602 0
M  V30 5226 H 487.708 -2.97559 -2.91286 0
M  V30 5227 H 490.305 -1.3542 -5.17267 0
M  V30 5228 H 490.648 0.0289246 -4.1629 0
M  V30 5229 H 491.181 -1.5895 -3.64664 0
M  V30 5230 H 487.92 -4.28296 -4.96228 0
M  V30 5231 H 487.44 -2.62539 -5.39289 0
M  V30 5232 H 489.119 -3.16444 -5.64333 0
M  V30 5233 N 489.251 1.34841 -0.815825 0
M  V30 5234 C 490.181 2.32187 -0.247298 0
M  V30 5235 C 491.162 1.5791 0.632344 0
M  V30 5236 O 492.347 1.8593 0.560698 0
M  V30 5237 C 489.477 3.42122 0.597466 0
M  V30 5238 C 488.431 4.27602 -0.184446 0
M  V30 5239 C 487.757 5.28942 0.782609 0
M  V30 5240 C 489.057 5.03502 -1.38865 0
M  V30 5241 H 490.751 2.79985 -1.06061 0
M  V30 5242 H 488.297 1.34611 -0.511461 0
M  V30 5243 H 490.25 4.09232 1.00533 0
M  V30 5244 H 488.974 2.92956 1.44376 0
M  V30 5245 H 487.633 3.62085 -0.573592 0
M  V30 5246 H 487.281 4.7604 1.62466 0
M  V30 5247 H 486.981 5.87008 0.263695 0
M  V30 5248 H 488.505 5.98922 1.18848 0
M  V30 5249 H 489.919 5.63506 -1.05518 0
M  V30 5250 H 488.316 5.71108 -1.8427 0
M  V30 5251 H 489.386 4.33608 -2.17054 0
M  V30 5252 N 490.729 0.570148 1.46925 0
M  V30 5253 C 491.661 -0.207909 2.28255 0
M  V30 5254 C 492.674 -0.867301 1.37774 0
M  V30 5255 O 493.863 -0.738976 1.62485 0
M  V30 5256 C 490.963 -1.31298 3.12433 0
M  V30 5257 C 490.136 -0.747915 4.30958 0
M  V30 5258 C 489.195 -1.7391 4.9663 0
M  V30 5259 O 488.221 -1.2801 5.54619 0
M  V30 5260 N 489.423 -3.07288 4.92498 0
M  V30 5261 H 492.188 0.489794 2.95671 0
M  V30 5262 H 489.749 0.407076 1.56699 0
M  V30 5263 H 491.741 -1.97507 3.53232 0
M  V30 5264 H 490.311 -1.91373 2.47175 0
M  V30 5265 H 489.531 0.0913066 3.94094 0
M  V30 5266 H 490.819 -0.349958 5.07595 0
M  V30 5267 H 490.217 -3.47213 4.46609 0
M  V30 5268 H 488.774 -3.69021 5.37277 0
M  V30 5269 N 492.207 -1.54576 0.307264 0
M  V30 5270 C 493.17 -2.22423 -0.553224 0
M  V30 5271 C 494.17 -1.21231 -1.05639 0
M  V30 5272 O 495.36 -1.45923 -0.951419 0
M  V30 5273 C 492.492 -2.91552 -1.76664 0
M  V30 5274 H 493.685 -2.99874 0.0396484 0
M  V30 5275 H 491.238 -1.56192 0.0581629 0
M  V30 5276 H 491.973 -2.18196 -2.39918 0
M  V30 5277 H 491.758 -3.65738 -1.41343 0
M  V30 5278 H 493.248 -3.43292 -2.37783 0
M  V30 5279 N 493.685 -0.035106 -1.57561 0
M  V30 5280 C 494.615 0.942993 -2.13612 0
M  V30 5281 C 495.596 1.33531 -1.05373 0
M  V30 5282 O 496.781 1.41287 -1.33235 0
M  V30 5283 C 493.911 2.22332 -2.66807 0
M  V30 5284 C 492.865 1.97156 -3.79886 0
M  V30 5285 C 492.191 3.31506 -4.19533 0
M  V30 5286 C 493.491 1.30596 -5.05709 0
M  V30 5287 H 495.185 0.476179 -2.95589 0
M  V30 5288 H 492.731 0.227602 -1.4219 0
M  V30 5289 H 494.684 2.91142 -3.04654 0
M  V30 5290 H 493.408 2.7119 -1.81999 0
M  V30 5291 H 492.067 1.30763 -3.42486 0
M  V30 5292 H 491.715 3.78134 -3.31698 0
M  V30 5293 H 491.415 3.15465 -4.95738 0
M  V30 5294 H 492.939 4.01574 -4.59968 0
M  V30 5295 H 494.353 1.89416 -5.41105 0
M  V30 5296 H 492.75 1.24934 -5.86951 0
M  V30 5297 H 493.82 0.279742 -4.84092 0
M  V30 5298 N 495.163 1.55791 0.238111 0
M  V30 5299 C 496.093 1.94068 1.29846 0
M  V30 5300 C 497.074 0.806726 1.49753 0
M  V30 5301 O 498.259 1.06772 1.62214 0
M  V30 5302 C 495.389 2.24302 2.65153 0
M  V30 5303 C 494.343 3.40032 2.59927 0
M  V30 5304 C 493.669 3.55829 3.99111 0
M  V30 5305 C 494.969 4.75476 2.16148 0
M  V30 5306 H 496.663 2.82887 0.980563 0
M  V30 5307 H 494.209 1.36105 0.470253 0
M  V30 5308 H 496.162 2.4967 3.39475 0
M  V30 5309 H 494.886 1.32318 2.98596 0
M  V30 5310 H 493.545 3.14687 1.88063 0
M  V30 5311 H 493.193 2.6125 4.29834 0
M  V30 5312 H 492.893 4.3366 3.96501 0
M  V30 5313 H 494.417 3.83528 4.7512 0
M  V30 5314 H 495.831 5.00158 2.80205 0
M  V30 5315 H 494.228 5.56472 2.24631 0
M  V30 5316 H 495.298 4.71946 1.11333 0
M  V30 5317 N 496.642 -0.504142 1.49319 0
M  V30 5318 C 497.891 -1.25507 1.57895 0
M  V30 5319 C 498.204 -1.93735 0.269433 0
M  V30 5320 O 499.41 -2.70492 0.233706 0
M  V30 5321 C 497.866 -2.27869 2.78574 0
M  V30 5322 C 497.474 -1.65594 4.16272 0
M  V30 5323 C 499.218 -3.0381 2.96479 0
M  V30 5324 C 497.125 -2.66048 5.28178 0
M  V30 5325 H 496.055 -0.47212 0.587894 0
M  V30 5326 H 498.706 -0.52931 1.757 0
M  V30 5327 H 497.088 -3.03594 2.54257 0
M  V30 5328 H 498.262 -0.958826 4.50714 0
M  V30 5329 H 496.577 -1.02055 4.037 0
M  V30 5330 H 499.174 -3.78925 3.77253 0
M  V30 5331 H 499.517 -3.61235 2.06918 0
M  V30 5332 H 500.05 -2.352 3.20821 0
M  V30 5333 H 496.789 -2.13408 6.19788 0
M  V30 5334 H 496.309 -3.34009 4.98195 0
M  V30 5335 H 497.988 -3.28536 5.57381 0
M  V30 5336 N 498.12 -1.38341 -0.754957 0
M  V30 5337 C 499.083 -1.35262 -1.85032 0
M  V30 5338 C 500.083 -0.253393 -1.58791 0
M  V30 5339 O 501.273 -0.510205 -1.66561 0
M  V30 5340 C 498.405 -1.10544 -3.22479 0
M  V30 5341 H 499.598 -2.32712 -1.8917 0
M  V30 5342 H 497.151 -1.23614 -0.956515 0
M  V30 5343 H 497.886 -0.136952 -3.24011 0
M  V30 5344 H 497.671 -1.90127 -3.4292 0
M  V30 5345 H 499.161 -1.11082 -4.02555 0
M  V30 5346 N 499.598 0.982988 -1.23187 0
M  V30 5347 C 500.528 2.09301 -1.03515 0
M  V30 5348 C 501.509 1.70035 0.0471136 0
M  V30 5349 O 502.694 1.93847 -0.117029 0
M  V30 5350 C 499.824 3.4167 -0.622791 0
M  V30 5351 C 498.778 3.94828 -1.65211 0
M  V30 5352 C 498.104 5.23362 -1.09527 0
M  V30 5353 C 499.404 4.2439 -3.04451 0
M  V30 5354 H 501.098 2.26016 -1.96359 0
M  V30 5355 H 498.644 1.08611 -0.945501 0
M  V30 5356 H 500.597 4.18746 -0.472233 0
M  V30 5357 H 499.321 3.24811 0.341329 0
M  V30 5358 H 497.98 3.19895 -1.79061 0
M  V30 5359 H 497.628 5.02852 -0.122211 0
M  V30 5360 H 497.328 5.59895 -1.783 0
M  V30 5361 H 498.852 6.03062 -0.956511 0
M  V30 5362 H 500.266 4.92225 -2.93917 0
M  V30 5363 H 498.663 4.72118 -3.70438 0
M  V30 5364 H 499.733 3.31765 -3.53638 0
M  V30 5365 N 501.076 1.04316 1.18135 0
M  V30 5366 C 502.039 0.640794 2.2006 0
M  V30 5367 C 503.039 -0.303124 1.57917 0
M  V30 5368 O 504.229 -0.0881855 1.73977 0
M  V30 5369 C 501.361 -0.060148 3.40847 0
M  V30 5370 H 502.554 1.54281 2.57172 0
M  V30 5371 H 500.107 0.836004 1.32063 0
M  V30 5372 H 500.842 -0.975845 3.0927 0
M  V30 5373 H 500.627 0.618319 3.87194 0
M  V30 5374 H 502.117 -0.328082 4.16309 0
M  V30 5375 N 502.554 -1.34406 0.822964 0
M  V30 5376 C 503.782 -2.02508 0.424039 0
M  V30 5377 C 504.197 -1.61975 -0.970022 0
M  V30 5378 O 503.554 -0.825228 -1.62777 0
M  V30 5379 C 503.605 -3.57789 0.516657 0
M  V30 5380 O 503.326 -3.96853 1.85577 0
M  V30 5381 C 504.827 -4.43157 0.112637 0
M  V30 5382 H 502.047 -0.649063 0.170173 0
M  V30 5383 H 504.591 -1.7168 1.11113 0
M  V30 5384 H 502.746 -3.87207 -0.122353 0
M  V30 5385 H 503.16 -4.91538 1.83005 0
M  V30 5386 H 504.634 -5.51527 0.228526 0
M  V30 5387 H 505.111 -4.28939 -0.943837 0
M  V30 5388 H 505.717 -4.19067 0.725449 0
M  V30 5389 N 504.032 -0.577932 -1.46621 0
M  V30 5390 C 505.257 -0.0652536 -2.07297 0
M  V30 5391 C 505.682 1.22828 -1.4246 0
M  V30 5392 O 505.04 1.74075 -0.506718 0
M  V30 5393 C 505.088 0.0920589 -3.60482 0
M  V30 5394 O 504.192 1.14972 -3.96049 0
M  V30 5395 H 503.533 -0.06065 -0.661224 0
M  V30 5396 H 506.063 -0.799515 -1.88332 0
M  V30 5397 H 506.073 0.299741 -4.06897 0
M  V30 5398 H 504.748 -0.852612 -4.07067 0
M  V30 5399 H 503.325 0.920879 -3.61351 0
M  V30 5400 N 505.51 1.54411 -0.315457 0
M  V30 5401 C 506.735 2.05299 0.294496 0
M  V30 5402 C 507.16 1.19052 1.4563 0
M  V30 5403 O 506.518 0.197804 1.80218 0
M  V30 5404 C 506.566 3.5345 0.714549 0
M  V30 5405 O 505.67 3.70175 1.81781 0
M  V30 5406 H 505.011 0.661743 0.0547019 0
M  V30 5407 H 507.541 1.99327 -0.461508 0
M  V30 5408 H 507.551 3.9557 0.999426 0
M  V30 5409 H 506.226 4.1568 -0.135244 0
M  V30 5410 H 504.803 3.3996 1.53236 0
M  V30 5411 N 506.988 0.0434614 1.5754 0
M  V30 5412 C 508.213 -0.645358 1.97104 0
M  V30 5413 C 508.638 -1.64037 0.920521 0
M  V30 5414 O 507.996 -1.80922 -0.11708 0
M  V30 5415 C 508.044 -1.31547 3.35749 0
M  V30 5416 O 507.148 -2.43103 3.33129 0
M  V30 5417 H 506.489 -0.168403 0.64229 0
M  V30 5418 H 509.019 0.109573 2.04306 0
M  V30 5419 H 509.029 -1.66895 3.72304 0
M  V30 5420 H 507.704 -0.586205 4.11748 0
M  V30 5421 H 506.281 -2.0976 3.0831 0
M  V30 5422 N 508.466 -1.55915 -0.229846 0
M  V30 5423 C 509.691 -1.8296 -0.976743 0
M  V30 5424 C 510.116 -0.622735 -1.77493 0
M  V30 5425 O 509.474 0.428431 -1.76165 0
M  V30 5426 C 509.522 -3.07916 -1.8767 0
M  V30 5427 O 508.626 -2.86028 -2.97088 0
M  V30 5428 H 507.967 -0.603453 -0.277021 0
M  V30 5429 H 510.497 -2.0312 -0.245669 0
M  V30 5430 H 510.507 -3.37802 -2.2881 0
M  V30 5431 H 509.182 -3.95389 -1.28996 0
M  V30 5432 H 507.759 -2.67355 -2.59954 0
M  V30 5433 N 509.944 0.496216 -1.49584 0
M  V30 5434 C 510.907 1.57952 -1.66084 0
M  V30 5435 C 511.907 1.51729 -0.53244 0
M  V30 5436 O 513.097 1.54796 -0.79899 0
M  V30 5437 C 510.229 2.97604 -1.66268 0
M  V30 5438 H 511.422 1.44649 -2.6271 0
M  V30 5439 H 508.975 0.7208 -1.38687 0
M  V30 5440 H 509.71 3.16378 -0.712432 0
M  V30 5441 H 509.495 3.03528 -2.4822 0
M  V30 5442 H 510.985 3.76301 -1.81073 0
M  V30 5443 N 511.423 1.38739 0.74761 0
M  V30 5444 C 512.651 1.38521 1.53686 0
M  V30 5445 C 513.066 -0.0235129 1.88785 0
M  V30 5446 O 512.423 -0.991662 1.53207 0
M  V30 5447 C 512.474 2.24641 2.83229 0
M  V30 5448 O 512.195 3.60026 2.49625 0
M  V30 5449 C 513.696 2.32669 3.77333 0
M  V30 5450 H 510.916 0.473589 0.475347 0
M  V30 5451 H 513.46 1.82395 0.924786 0
M  V30 5452 H 511.615 1.84213 3.40799 0
M  V30 5453 H 512.029 4.05435 3.3275 0
M  V30 5454 H 513.503 2.97201 4.65162 0
M  V30 5455 H 513.98 1.3421 4.18192 0
M  V30 5456 H 514.586 2.73512 3.25685 0
M  V30 5457 N 512.901 -0.976442 1.23707 0
M  V30 5458 C 513.831 -2.08749 1.04624 0
M  V30 5459 C 514.812 -1.70057 -0.0380956 0
M  V30 5460 O 515.997 -1.93782 0.127308 0
M  V30 5461 C 513.127 -3.41335 0.640902 0
M  V30 5462 C 512.081 -3.93947 1.67302 0
M  V30 5463 C 511.407 -5.22774 1.12301 0
M  V30 5464 C 512.707 -4.22769 3.06697 0
M  V30 5465 H 514.401 -2.24972 1.97555 0
M  V30 5466 H 511.947 -1.08108 0.951247 0
M  V30 5467 H 513.9 -4.18489 0.494434 0
M  V30 5468 H 512.624 -3.24988 -0.324099 0
M  V30 5469 H 511.283 -3.18941 1.80755 0
M  V30 5470 H 510.931 -5.0278 0.148877 0
M  V30 5471 H 510.631 -5.58942 1.81267 0
M  V30 5472 H 512.155 -6.02546 0.988479 0
M  V30 5473 H 513.569 -4.90659 2.96524 0
M  V30 5474 H 511.966 -4.70147 3.72937 0
M  V30 5475 H 513.036 -3.29885 3.55392 0
M  V30 5476 N 514.379 -1.04941 -1.1758 0
M  V30 5477 C 515.79 -0.784501 -1.69418 0
M  V30 5478 C 516.141 0.693625 -1.8353 0
M  V30 5479 O 515.266 1.53925 -1.52106 0
M  V30 5480 C 515.861 -1.41746 -3.07723 0
M  V30 5481 C 514.42 -1.20066 -3.56737 0
M  V30 5482 C 513.567 -1.5026 -2.33061 0
M  V30 5483 H 516.518 -1.21469 -1.02133 0
M  V30 5484 H 516.539 -0.825381 -3.7144 0
M  V30 5485 H 516.051 -2.49325 -2.9742 0
M  V30 5486 H 514.152 -0.144006 -3.72322 0
M  V30 5487 H 514.265 -1.90384 -4.39648 0
M  V30 5488 H 512.629 -0.922598 -2.37403 0
M  V30 5489 H 513.412 -2.58967 -2.25368 0
M  V30 5490 N 515.857 1.33968 -0.830081 0
M  V30 5491 C 517.106 1.97323 -0.417928 0
M  V30 5492 C 517.419 1.6652 1.02618 0
M  V30 5493 O 518.625 2.2342 1.54259 0
M  V30 5494 C 517.081 3.53099 -0.696359 0
M  V30 5495 C 516.689 3.92788 -2.15457 0
M  V30 5496 C 518.433 4.23049 -0.350724 0
M  V30 5497 C 516.34 5.41506 -2.37751 0
M  V30 5498 H 515.27 0.738409 -0.152541 0
M  V30 5499 H 517.921 1.52711 -1.01744 0
M  V30 5500 H 516.303 3.95991 -0.0265904 0
M  V30 5501 H 517.477 3.6098 -2.86408 0
M  V30 5502 H 515.792 3.35795 -2.46232 0
M  V30 5503 H 518.389 5.32403 -0.495036 0
M  V30 5504 H 518.732 4.10279 0.705476 0
M  V30 5505 H 519.265 3.85657 -0.975362 0
M  V30 5506 H 516.004 5.5927 -3.41903 0
M  V30 5507 H 515.524 5.74804 -1.7135 0
M  V30 5508 H 517.203 6.0828 -2.20465 0
M  V30 5509 N 517.335 0.585699 1.46312 0
M  V30 5510 C 518.563 0.0781299 2.06752 0
M  V30 5511 C 518.978 -1.22812 1.43396 0
M  V30 5512 O 518.335 -1.74318 0.540314 0
M  V30 5513 C 518.386 -0.0911927 3.61385 0
M  V30 5514 O 518.107 1.16336 4.22371 0
M  V30 5515 C 519.608 -0.632765 4.38761 0
M  V30 5516 H 516.828 0.0588188 0.668417 0
M  V30 5517 H 519.372 0.807218 1.87894 0
M  V30 5518 H 517.527 -0.770514 3.7966 0
M  V30 5519 H 517.941 0.979082 5.15281 0
M  V30 5520 H 519.415 -0.70041 5.47538 0
M  V30 5521 H 519.892 -1.65039 4.07012 0
M  V30 5522 H 520.498 0.0117856 4.25298 0
M  V30 5523 N 518.813 -1.54241 0.323641 0
M  V30 5524 C 520.06 -2.0057 -0.27891 0
M  V30 5525 C 520.388 -1.21181 -1.52136 0
M  V30 5526 O 519.643 -0.282043 -1.93657 0
M  V30 5527 C 519.942 -3.5129 -0.658031 0
M  V30 5528 C 519.608 -4.48281 0.485252 0
M  V30 5529 C 518.27 -4.74519 0.799055 0
M  V30 5530 C 520.622 -5.05909 1.25322 0
M  V30 5531 C 517.95 -5.55643 1.88354 0
M  V30 5532 C 520.302 -5.88215 2.32779 0
M  V30 5533 C 518.966 -6.12755 2.64741 0
M  V30 5534 H 518.236 -0.733938 -0.10206 0
M  V30 5535 H 520.883 -1.862 0.447435 0
M  V30 5536 H 519.188 -3.63388 -1.4648 0
M  V30 5537 H 520.885 -3.84578 -1.1358 0
M  V30 5538 H 517.475 -4.27979 0.230593 0
M  V30 5539 H 521.659 -4.8562 1.02404 0
M  V30 5540 H 516.915 -5.72888 2.13564 0
M  V30 5541 H 521.089 -6.31888 2.92729 0
M  V30 5542 H 518.716 -6.75404 3.48904 0
M  V30 5543 N 520.291 -0.0518155 -1.57515 0
M  V30 5544 C 521.238 0.922352 -2.11569 0
M  V30 5545 C 522.208 1.30842 -1.02321 0
M  V30 5546 O 523.393 1.39778 -1.29872 0
M  V30 5547 C 520.533 2.19167 -2.6657 0
M  V30 5548 C 519.646 1.86003 -3.89906 0
M  V30 5549 C 518.781 3.07398 -4.33221 0
M  V30 5550 C 517.82 2.70158 -5.49255 0
M  V30 5551 N 516.957 3.84248 -5.8762 0
M  V30 5552 H 521.797 0.454506 -2.94514 0
M  V30 5553 H 519.334 0.212718 -1.45554 0
M  V30 5554 H 521.292 2.93443 -2.96559 0
M  V30 5555 H 519.922 2.63528 -1.86421 0
M  V30 5556 H 518.974 1.01874 -3.66505 0
M  V30 5557 H 520.286 1.54592 -4.74239 0
M  V30 5558 H 519.44 3.89972 -4.64765 0
M  V30 5559 H 518.179 3.41988 -3.477 0
M  V30 5560 H 517.184 1.86001 -5.17382 0
M  V30 5561 H 518.409 2.36759 -6.36492 0
M  V30 5562 H 516.355 4.18638 -5.05053 0
M  V30 5563 H 516.272 3.56538 -6.66646 0
M  V30 5564 H 517.54 4.6746 -6.2378 0
M  V30 5565 N 521.769 1.56035 0.221574 0
M  V30 5566 C 523.009 1.80822 0.953038 0
M  V30 5567 C 523.373 0.625316 1.81532 0
M  V30 5568 O 524.574 0.752491 2.58052 0
M  V30 5569 C 522.845 3.10503 1.76983 0
M  V30 5570 S 524.404 3.56604 2.55693 0
M  V30 5571 H 521.222 0.634849 0.320137 0
M  V30 5572 H 523.824 1.94274 0.218619 0
M  V30 5573 H 522.528 3.94636 1.12651 0
M  V30 5574 H 522.059 2.99858 2.54655 0
M  V30 5575 H 524.074 3.1994 3.79279 0
M  V30 5576 N 523.247 -0.488276 1.49845 0
M  V30 5577 C 524.177 -1.59675 1.70371 0
M  V30 5578 C 525.158 -1.60878 0.552473 0
M  V30 5579 O 526.343 -1.77417 0.78973 0
M  V30 5580 C 523.473 -2.98098 1.782 0
M  V30 5581 C 522.427 -3.11761 2.93239 0
M  V30 5582 C 521.753 -4.51661 2.86193 0
M  V30 5583 C 523.053 -2.90589 4.33999 0
M  V30 5584 H 524.747 -1.42752 2.63177 0
M  V30 5585 H 522.293 -0.685317 1.26647 0
M  V30 5586 H 524.246 -3.75555 1.91144 0
M  V30 5587 H 522.97 -3.16138 0.820018 0
M  V30 5588 H 521.629 -2.36732 2.79917 0
M  V30 5589 H 521.277 -4.66595 1.87877 0
M  V30 5590 H 520.977 -4.61742 3.63412 0
M  V30 5591 H 522.501 -5.31162 3.01163 0
M  V30 5592 H 523.915 -3.57807 4.47936 0
M  V30 5593 H 522.312 -3.1213 5.12538 0
M  V30 5594 H 523.382 -1.86595 4.4756 0
M  V30 5595 N 524.725 -1.39134 -0.740242 0
M  V30 5596 C 525.655 -1.40165 -1.86751 0
M  V30 5597 C 526.636 -0.265708 -1.68012 0
M  V30 5598 O 527.821 -0.47076 -1.88408 0
M  V30 5599 C 524.951 -1.2392 -3.2444 0
M  V30 5600 C 523.905 -2.34858 -3.57807 0
M  V30 5601 C 523.231 -2.03707 -4.94376 0
M  V30 5602 C 524.531 -3.77159 -3.61315 0
M  V30 5603 H 526.225 -2.345 -1.86145 0
M  V30 5604 H 523.771 -1.12875 -0.89416 0
M  V30 5605 H 525.724 -1.23263 -4.02969 0
M  V30 5606 H 524.448 -0.26051 -3.25559 0
M  V30 5607 H 523.107 -2.34723 -2.81604 0
M  V30 5608 H 522.755 -1.04289 -4.9207 0
M  V30 5609 H 522.455 -2.78016 -5.17669 0
M  V30 5610 H 523.979 -2.04691 -5.75268 0
M  V30 5611 H 525.393 -3.79252 -4.29931 0
M  V30 5612 H 523.79 -4.50784 -3.96124 0
M  V30 5613 H 524.86 -4.08513 -2.61238 0
M  V30 5614 N 526.204 0.969867 -1.24223 0
M  V30 5615 C 527.114 2.09806 -1.0497 0
M  V30 5616 C 528.13 1.73998 0.00886455 0
M  V30 5617 O 529.306 2.00513 -0.188848 0
M  V30 5618 C 526.371 3.40467 -0.654452 0
M  V30 5619 C 525.432 3.90236 -1.78926 0
M  V30 5620 C 524.665 5.14662 -1.41277 0
M  V30 5621 O 524.888 5.69602 -0.301632 0
M  V30 5622 O 523.822 5.58761 -2.23763 0
M  V30 5623 H 527.648 2.28942 -1.99548 0
M  V30 5624 H 525.233 1.08197 -1.03023 0
M  V30 5625 H 527.115 4.19039 -0.445452 0
M  V30 5626 H 525.79 3.22636 0.262216 0
M  V30 5627 H 524.697 3.12735 -2.05299 0
M  V30 5628 H 526.03 4.1254 -2.68462 0
M  V30 5629 N 527.682 1.05563 1.17022 0
M  V30 5630 C 528.63 0.653887 2.2322 0
M  V30 5631 C 529.624 -0.326642 1.66221 0
M  V30 5632 O 530.83 -0.192301 1.7897 0
M  V30 5633 H 527.205 0.193297 0.726733 0
M  V30 5634 H 529.176 1.5596 2.54399 0
M  V30 5635 C 527.925 0.0485434 3.47666 0
M  V30 5636 H 527.248 0.79413 3.91834 0
M  V30 5637 H 528.688 -0.195133 4.23551 0
M  V30 5638 C 527.147 -1.20583 3.14581 0
M  V30 5639 O 527.677 -2.29475 3.29703 0
M  V30 5640 N 525.883 -1.10493 2.68774 0
M  V30 5641 H 525.43 -0.218795 2.56669 0
M  V30 5642 H 525.388 -1.94507 2.47011 0
M  V30 5643 N 529.16 -1.33526 0.837174 0
M  V30 5644 C 530.108 -2.31168 0.257698 0
M  V30 5645 C 531.102 -1.5806 -0.609388 0
M  V30 5646 O 532.308 -1.72941 -0.499139 0
M  V30 5647 H 528.683 -0.74922 0.0646058 0
M  V30 5648 H 530.654 -2.77552 1.09578 0
M  V30 5649 C 529.403 -3.4326 -0.553887 0
M  V30 5650 H 528.726 -3.99665 0.104008 0
M  V30 5651 H 530.166 -4.13782 -0.925219 0
M  V30 5652 C 528.625 -2.88965 -1.73207 0
M  V30 5653 O 529.155 -2.85013 -2.83073 0
M  V30 5654 N 527.361 -2.45596 -1.55342 0
M  V30 5655 H 526.908 -2.49009 -0.659705 0
M  V30 5656 H 526.866 -2.0962 -2.34322 0
M  V30 5657 N 530.638 -0.59345 -1.46 0
M  V30 5658 C 531.588 0.154751 -2.27474 0
M  V30 5659 C 532.572 0.851849 -1.365 0
M  V30 5660 O 533.764 0.744171 -1.60596 0
M  V30 5661 C 530.893 1.16079 -3.2308 0
M  V30 5662 C 529.979 0.465256 -4.2154 0
M  V30 5663 N 530.37 -0.485197 -5.03467 0
M  V30 5664 C 528.668 0.714634 -4.40237 0
M  V30 5665 C 529.369 -0.892709 -5.74809 0
M  V30 5666 N 528.345 -0.239511 -5.43072 0
M  V30 5667 H 532.147 -0.57546 -2.88211 0
M  V30 5668 H 529.661 -0.416046 -1.5698 0
M  V30 5669 H 531.658 1.71108 -3.80168 0
M  V30 5670 H 530.318 1.89171 -2.63903 0
M  V30 5671 H 531.329 -0.861258 -5.10689 0
M  V30 5672 H 528.006 1.43131 -3.92199 0
M  V30 5673 H 529.396 -1.67581 -6.50666 0
M  V30 5674 N 532.116 1.54067 -0.331816 0
M  V30 5675 C 533.365 1.99895 0.269209 0
M  V30 5676 C 533.678 1.22371 1.52593 0
M  V30 5677 O 534.884 1.58618 2.20347 0
M  V30 5678 C 533.34 3.55972 0.530244 0
M  V30 5679 C 532.948 4.4234 -0.709901 0
M  V30 5680 C 534.692 4.10247 1.09077 0
M  V30 5681 C 532.599 5.89905 -0.420312 0
M  V30 5682 H 531.529 0.746741 0.104371 0
M  V30 5683 H 534.18 1.78014 -0.445324 0
M  V30 5684 H 532.562 3.73873 1.30518 0
M  V30 5685 H 533.736 4.36215 -1.48504 0
M  V30 5686 H 532.051 3.98997 -1.19123 0
M  V30 5687 H 534.648 5.18095 1.32219 0
M  V30 5688 H 534.991 3.62739 2.0427 0
M  V30 5689 H 535.524 3.96011 0.376824 0
M  V30 5690 H 532.263 6.41623 -1.34164 0
M  V30 5691 H 531.783 5.98962 0.316962 0
M  V30 5692 H 533.462 6.46991 -0.0331956 0
M  V30 5693 N 533.594 0.0601682 1.57485 0
M  V30 5694 C 534.871 -0.651956 1.84415 0
M  V30 5695 C 535.251 -1.88498 0.950361 0
M  V30 5696 O 534.599 -2.28496 0.0136719 0
M  V30 5697 C 534.809 -1.00069 3.34346 0
M  V30 5698 C 536.157 -1.37915 4.01578 0
M  V30 5699 O 537.181 -1.09277 3.39024 0
M  V30 5700 O 536.04 -1.91399 5.11887 0
M  V30 5701 H 533.134 -0.322668 0.761455 0
M  V30 5702 H 535.68 0.0902159 1.6946 0
M  V30 5703 H 534.452 -0.124463 3.91102 0
M  V30 5704 H 534.075 -1.80001 3.54521 0
M  V30 5705 N 535.072 -1.5615 -0.213296 0
M  V30 5706 C 536.488 -1.49327 -0.56336 0
M  V30 5707 C 536.688 -0.756826 -1.86747 0
M  V30 5708 O 535.744 -0.299866 -2.50713 0
M  V30 5709 C 537.057 -2.9392 -0.634944 0
M  V30 5710 C 538.605 -3.04487 -0.725013 0
M  V30 5711 C 539.08 -4.50456 -0.82787 0
M  V30 5712 N 540.571 -4.54533 -0.891876 0
M  V30 5713 C 541.306 -5.64766 -0.991315 0
M  V30 5714 N 540.802 -6.84733 -1.05419 0
M  V30 5715 N 542.595 -5.52637 -1.02709 0
M  V30 5716 H 534.746 -2.02453 0.642366 0
M  V30 5717 H 537.009 -0.920548 0.226487 0
M  V30 5718 H 536.715 -3.50783 0.253859 0
M  V30 5719 H 536.589 -3.46274 -1.49579 0
M  V30 5720 H 538.976 -2.47685 -1.60425 0
M  V30 5721 H 539.057 -2.55289 0.161669 0
M  V30 5722 H 538.701 -5.07878 0.0469464 0
M  V30 5723 H 538.631 -4.97369 -1.73009 0
M  V30 5724 H 541.122 -3.68141 -0.85327 0
M  V30 5725 H 541.435 -7.64493 -1.13007 0
M  V30 5726 H 539.78 -6.87427 -1.02318 0
M  V30 5727 H 542.971 -4.5784 -0.974687 0
M  V30 5728 H 543.144 -6.38576 -1.10113 0
M  V30 5729 N 536.55 0.480323 -1.50102 0
M  V30 5730 C 537.966 0.813295 -1.37323 0
M  V30 5731 C 538.166 1.97027 -0.422206 0
M  V30 5732 O 537.222 2.5212 0.138563 0
M  V30 5733 C 538.535 1.13404 -2.78496 0
M  V30 5734 C 540.083 1.24104 -2.87345 0
M  V30 5735 C 540.558 1.59497 -4.29331 0
M  V30 5736 N 542.049 1.66507 -4.32238 0
M  V30 5737 C 542.784 1.95378 -5.39087 0
M  V30 5738 N 542.28 2.22333 -6.56155 0
M  V30 5739 N 544.073 1.96803 -5.26522 0
M  V30 5740 H 536.224 -0.282291 -2.10516 0
M  V30 5741 H 538.487 -0.063752 -0.945854 0
M  V30 5742 H 538.193 0.357064 -3.49883 0
M  V30 5743 H 538.067 2.07251 -3.15162 0
M  V30 5744 H 540.454 2.00871 -2.16183 0
M  V30 5745 H 540.535 0.282593 -2.54234 0
M  V30 5746 H 540.179 0.832736 -5.01027 0
M  V30 5747 H 540.109 2.56477 -4.59921 0
M  V30 5748 H 542.6 1.47753 -3.47818 0
M  V30 5749 H 542.913 2.43611 -7.33399 0
M  V30 5750 H 541.258 2.19745 -6.59346 0
M  V30 5751 H 544.449 1.75235 -4.34062 0
M  V30 5752 H 544.622 2.18969 -6.09883 0
M  V30 5753 N 538.028 1.39524 0.732853 0
M  V30 5754 C 539.277 1.36175 1.48792 0
M  V30 5755 C 539.59 -0.0388195 1.95561 0
M  V30 5756 O 540.796 -0.194899 2.708 0
M  V30 5757 C 539.252 2.39242 2.68871 0
M  V30 5758 C 538.86 3.85024 2.29042 0
M  V30 5759 C 540.604 2.44972 3.46683 0
M  V30 5760 C 538.511 4.79727 3.45856 0
M  V30 5761 H 537.441 0.506267 0.558757 0
M  V30 5762 H 540.092 1.65181 0.799226 0
M  V30 5763 H 538.474 2.0331 3.39825 0
M  V30 5764 H 539.648 4.30008 1.6562 0
M  V30 5765 H 537.963 3.82609 1.64316 0
M  V30 5766 H 540.56 3.12918 4.33574 0
M  V30 5767 H 540.903 1.4749 3.89297 0
M  V30 5768 H 541.436 2.79808 2.82759 0
M  V30 5769 H 538.175 5.78479 3.08289 0
M  V30 5770 H 537.695 4.39421 4.08251 0
M  V30 5771 H 539.374 4.98731 4.12161 0
M  V30 5772 N 539.506 -0.963266 1.24736 0
M  V30 5773 C 540.469 -2.04013 1.04457 0
M  V30 5774 C 541.469 -1.608 0.000335555 0
M  V30 5775 O 542.659 -1.72515 0.241719 0
M  V30 5776 C 539.791 -3.35858 0.584162 0
M  V30 5777 H 540.984 -2.23436 2.00041 0
M  V30 5778 H 538.537 -1.13914 1.07021 0
M  V30 5779 H 539.272 -3.22128 -0.374673 0
M  V30 5780 H 539.057 -3.68568 1.3379 0
M  V30 5781 H 540.547 -4.1502 0.463451 0
M  V30 5782 N 540.985 -1.06182 -1.16461 0
M  V30 5783 C 542.401 -0.785065 -1.38956 0
M  V30 5784 C 542.601 0.616103 -1.9185 0
M  V30 5785 O 541.657 1.37686 -2.11657 0
M  V30 5786 C 542.97 -1.84902 -2.37132 0
M  V30 5787 C 544.518 -1.8724 -2.50819 0
M  V30 5788 C 544.993 -2.92686 -3.52277 0
M  V30 5789 N 546.484 -2.91712 -3.59803 0
M  V30 5790 C 547.219 -3.69949 -4.38093 0
M  V30 5791 N 546.715 -4.58 -5.19815 0
M  V30 5792 N 548.508 -3.58346 -4.33064 0
M  V30 5793 H 540.659 -1.96569 -0.804634 0
M  V30 5794 H 542.922 -0.851747 -0.416211 0
M  V30 5795 H 542.628 -2.85518 -2.0536 0
M  V30 5796 H 542.502 -1.69908 -3.36766 0
M  V30 5797 H 544.889 -0.872827 -2.81897 0
M  V30 5798 H 544.97 -2.06311 -1.51226 0
M  V30 5799 H 544.614 -3.92835 -3.21937 0
M  V30 5800 H 544.544 -2.70864 -4.51598 0
M  V30 5801 H 547.035 -2.27876 -3.01464 0
M  V30 5802 H 547.348 -5.14357 -5.76764 0
M  V30 5803 H 545.693 -4.62056 -5.19162 0
M  V30 5804 H 548.884 -2.88943 -3.68279 0
M  V30 5805 H 549.057 -4.19563 -4.93833 0
M  V30 5806 N 542.463 1.3308 -0.844243 0
M  V30 5807 C 543.71 1.97605 -0.44255 0
M  V30 5808 C 544.038 1.66856 0.999458 0
M  V30 5809 O 543.293 0.943586 1.7145 0
M  V30 5810 C 543.592 3.52045 -0.616354 0
M  V30 5811 C 543.258 4.02757 -2.02726 0
M  V30 5812 C 541.92 4.16316 -2.41317 0
M  V30 5813 C 544.272 4.29776 -2.9486 0
M  V30 5814 C 541.6 4.54232 -3.71335 0
M  V30 5815 C 543.952 4.69146 -4.24364 0
M  V30 5816 C 542.616 4.80911 -4.62904 0
M  V30 5817 H 541.886 0.723088 -0.161941 0
M  V30 5818 H 544.533 1.58663 -1.0723 0
M  V30 5819 H 542.838 3.91681 0.0966812 0
M  V30 5820 H 544.535 3.99981 -0.285756 0
M  V30 5821 H 541.125 3.9268 -1.71756 0
M  V30 5822 H 545.309 4.18818 -2.6628 0
M  V30 5823 H 540.565 4.61535 -4.00993 0
M  V30 5824 H 544.739 4.89008 -4.95827 0
M  V30 5825 H 542.366 5.10048 -5.63698 0
M  V30 5826 N 543.941 0.601185 1.45683 0
M  V30 5827 C 545.187 0.0940202 2.02582 0
M  V30 5828 C 545.52 -1.26972 1.46941 0
M  V30 5829 O 544.795 -1.83613 0.641612 0
M  V30 5830 C 545.078 0.0481715 3.60068 0
M  V30 5831 C 544.931 1.44212 4.26055 0
M  V30 5832 C 546.25 -0.642975 4.35378 0
M  V30 5833 H 543.369 0.0356404 0.736138 0
M  V30 5834 H 546.011 0.771929 1.73612 0
M  V30 5835 H 544.161 -0.529128 3.8488 0
M  V30 5836 H 545.833 2.06601 4.12449 0
M  V30 5837 H 544.076 2.00465 3.84703 0
M  V30 5838 H 544.747 1.36234 5.34925 0
M  V30 5839 H 547.223 -0.152351 4.15821 0
M  V30 5840 H 546.099 -0.644141 5.45107 0
M  V30 5841 H 546.36 -1.70785 4.0778 0
M  V30 5842 N 545.419 -1.53889 0.339982 0
M  V30 5843 C 546.349 -2.27843 -0.510856 0
M  V30 5844 C 547.33 -1.29267 -1.10563 0
M  V30 5845 O 548.515 -1.58104 -1.12768 0
M  V30 5846 C 545.645 -3.04857 -1.66372 0
M  V30 5847 C 544.599 -4.10907 -1.19746 0
M  V30 5848 C 543.925 -4.75855 -2.43857 0
M  V30 5849 C 545.225 -5.21435 -0.300501 0
M  V30 5850 H 546.919 -2.99212 0.106067 0
M  V30 5851 H 544.465 -1.43904 0.0524533 0
M  V30 5852 H 546.418 -3.5533 -2.26537 0
M  V30 5853 H 545.142 -2.31133 -2.30749 0
M  V30 5854 H 543.801 -3.61342 -0.618654 0
M  V30 5855 H 543.449 -3.9873 -3.06633 0
M  V30 5856 H 543.149 -5.47502 -2.13343 0
M  V30 5857 H 544.673 -5.2911 -3.04754 0
M  V30 5858 H 546.087 -5.67565 -0.80889 0
M  V30 5859 H 544.484 -6.00036 -0.0874076 0
M  V30 5860 H 545.554 -4.80328 0.664321 0
M  V30 5861 N 546.897 -0.0685191 -1.57451 0
M  V30 5862 C 548.308 0.464634 -1.80826 0
M  V30 5863 C 548.659 1.69847 -0.982169 0
M  V30 5864 O 547.784 2.15439 -0.203734 0
M  V30 5865 C 548.379 0.849721 -3.27971 0
M  V30 5866 C 546.938 1.32776 -3.52204 0
M  V30 5867 C 546.085 0.311332 -2.75547 0
M  V30 5868 H 549.036 -0.294248 -1.55948 0
M  V30 5869 H 549.057 1.71138 -3.39841 0
M  V30 5870 H 548.569 -0.0484736 -3.8807 0
M  V30 5871 H 546.67 2.24456 -2.97406 0
M  V30 5872 H 546.783 1.30794 -4.60901 0
M  V30 5873 H 545.147 0.787915 -2.42206 0
M  V30 5874 H 545.93 -0.579078 -3.38381 0
M  V30 5875 N 548.375 1.56261 0.205012 0
M  V30 5876 C 549.621 1.80306 0.9283 0
M  V30 5877 C 549.954 0.640932 1.83319 0
M  V30 5878 O 549.229 -0.359032 1.91158 0
M  V30 5879 C 549.512 3.14547 1.75306 0
M  V30 5880 C 549.365 4.41236 0.873562 0
M  V30 5881 C 550.684 3.45382 2.72762 0
M  V30 5882 H 547.803 0.655929 0.336044 0
M  V30 5883 H 550.445 1.88984 0.196211 0
M  V30 5884 H 548.595 3.0728 2.37721 0
M  V30 5885 H 550.267 4.60539 0.264887 0
M  V30 5886 H 548.51 4.33427 0.179773 0
M  V30 5887 H 549.181 5.31639 1.48541 0
M  V30 5888 H 551.657 3.52884 2.20481 0
M  V30 5889 H 550.533 4.40449 3.2756 0
M  V30 5890 H 550.794 2.68377 3.51321 0
M  V30 5891 N 549.853 -0.472356 1.50355 0
M  V30 5892 C 551.101 -1.22211 1.60962 0
M  V30 5893 C 551.422 -1.92497 0.311439 0
M  V30 5894 O 550.692 -1.8405 -0.671002 0
M  V30 5895 H 549.272 -0.454092 0.593135 0
M  V30 5896 H 551.934 -0.544977 1.87126 0
M  V30 5897 H 551.03 -1.9707 2.42012 0
M  V30 5898 N 551.331 -1.39911 -0.725443 0
M  V30 5899 C 552.294 -1.39156 -1.82121 0
M  V30 5900 C 553.294 -0.287018 -1.58218 0
M  V30 5901 O 554.484 -0.545421 -1.65441 0
M  V30 5902 C 551.616 -1.1736 -3.20062 0
M  V30 5903 H 552.809 -2.36672 -1.84191 0
M  V30 5904 H 550.362 -1.25615 -0.930079 0
M  V30 5905 H 551.097 -0.205648 -3.23647 0
M  V30 5906 H 550.882 -1.97358 -3.3881 0
M  V30 5907 H 552.372 -1.19596 -4.00108 0
M  V30 5908 N 552.809 0.956637 -1.25245 0
M  V30 5909 C 554.037 1.73571 -1.12608 0
M  V30 5910 C 554.452 1.86063 0.320324 0
M  V30 5911 O 553.809 1.35691 1.22042 0
M  V30 5912 C 553.86 3.15053 -1.77268 0
M  V30 5913 O 553.581 3.03174 -3.16255 0
M  V30 5914 C 555.082 4.09248 -1.70386 0
M  V30 5915 H 552.302 0.543955 -0.392879 0
M  V30 5916 H 554.846 1.20031 -1.65568 0
M  V30 5917 H 553.001 3.65543 -1.28284 0
M  V30 5918 H 553.415 3.9241 -3.48015 0
M  V30 5919 H 554.889 5.06138 -2.20291 0
M  V30 5920 H 555.366 4.34102 -0.667239 0
M  V30 5921 H 555.972 3.64672 -2.18849 0
M  V30 5922 N 554.287 1.06798 1.15896 0
M  V30 5923 C 555.536 0.782796 1.8589 0
M  V30 5924 C 555.849 -0.693498 1.82893 0
M  V30 5925 O 557.055 -1.09325 2.48516 0
M  V30 5926 C 555.511 1.3502 3.33613 0
M  V30 5927 C 555.119 2.8571 3.45071 0
M  V30 5928 C 556.863 1.14278 4.08829 0
M  V30 5929 C 554.77 3.35669 4.86909 0
M  V30 5930 H 553.7 0.289149 0.696354 0
M  V30 5931 H 556.351 1.28734 1.30766 0
M  V30 5932 H 554.733 0.773407 3.88374 0
M  V30 5933 H 555.907 3.49385 3.00445 0
M  V30 5934 H 554.222 3.05178 2.83294 0
M  V30 5935 H 556.819 1.49087 5.13495 0
M  V30 5936 H 557.162 0.0814575 4.1622 0
M  V30 5937 H 557.695 1.68563 3.60321 0
M  V30 5938 H 554.434 4.41302 4.84698 0
M  V30 5939 H 553.954 2.76745 5.32139 0
M  V30 5940 H 555.633 3.31296 5.55745 0
M  V30 5941 N 555.766 -1.3263 0.851289 0
M  V30 5942 C 556.714 -2.30882 0.282202 0
M  V30 5943 C 557.708 -1.58697 -0.592589 0
M  V30 5944 O 558.914 -1.73461 -0.480768 0
M  V30 5945 H 555.289 -0.748492 0.0725487 0
M  V30 5946 H 557.26 -2.76374 1.12516 0
M  V30 5947 C 556.009 -3.43828 -0.517449 0
M  V30 5948 H 555.332 -3.99532 0.146392 0
M  V30 5949 H 556.772 -4.1474 -0.88128 0
M  V30 5950 C 555.231 -2.90786 -1.70133 0
M  V30 5951 O 555.761 -2.88 -2.80034 0
M  V30 5952 N 553.967 -2.4723 -1.52728 0
M  V30 5953 H 553.514 -2.49695 -0.633257 0
M  V30 5954 H 553.472 -2.12094 -2.32085 0
M  V30 5955 N 557.244 -0.608902 -1.45362 0
M  V30 5956 C 558.177 0.158059 -2.27652 0
M  V30 5957 C 559.155 0.872397 -1.37215 0
M  V30 5958 O 560.339 0.881002 -1.66645 0
M  V30 5959 C 557.466 1.22896 -3.15617 0
M  V30 5960 C 556.512 0.617607 -4.22005 0
M  V30 5961 S 557.345 -0.575518 -5.32398 0
M  V30 5962 C 558.501 0.495938 -6.23932 0
M  V30 5963 H 558.734 -0.540095 -2.92353 0
M  V30 5964 H 556.267 -0.396456 -1.49223 0
M  V30 5965 H 558.225 1.84195 -3.66855 0
M  V30 5966 H 556.886 1.89919 -2.50179 0
M  V30 5967 H 556.079 1.42341 -4.83482 0
M  V30 5968 H 555.681 0.0797273 -3.73915 0
M  V30 5969 H 557.973 1.37465 -6.63408 0
M  V30 5970 H 558.916 -0.0827108 -7.08052 0
M  V30 5971 H 559.324 0.811856 -5.58631 0
M  V30 5972 N 558.722 1.53707 -0.348139 0
M  V30 5973 C 559.999 1.93247 0.302475 0
M  V30 5974 C 560.379 1.28012 1.67857 0
M  V30 5975 O 559.727 0.43274 2.24365 0
M  V30 5976 C 559.937 3.47031 0.370159 0
M  V30 5977 C 561.285 4.20066 0.61882 0
M  V30 5978 O 562.309 3.53319 0.452087 0
M  V30 5979 O 561.168 5.38318 0.94215 0
M  V30 5980 H 558.262 0.807736 0.177458 0
M  V30 5981 H 560.808 1.64927 -0.399651 0
M  V30 5982 H 559.58 3.86745 -0.59534 0
M  V30 5983 H 559.203 3.81532 1.11888 0
M  V30 5984 N 560.2 0.0768682 1.57412 0
M  V30 5985 C 561.448 -0.589918 1.93299 0
M  V30 5986 C 561.769 -1.69842 0.958049 0
M  V30 5987 O 561.039 -1.95899 0.00703261 0
M  V30 5988 H 559.619 -0.220901 0.713591 0
M  V30 5989 H 562.281 0.135917 1.94425 0
M  V30 5990 H 561.377 -1.01195 2.95239 0
M  V30 5991 N 561.678 -1.56367 -0.196722 0
M  V30 5992 C 562.906 -1.84639 -0.933608 0
M  V30 5993 C 563.321 -0.659164 -1.76919 0
M  V30 5994 O 562.678 0.372142 -1.78665 0
M  V30 5995 C 562.729 -3.11694 -1.83109 0
M  V30 5996 O 562.45 -4.25838 -1.02924 0
M  V30 5997 C 563.951 -3.53132 -2.67979 0
M  V30 5998 H 561.171 -0.613188 -0.272473 0
M  V30 5999 H 563.715 -2.03475 -0.204465 0
M  V30 6000 H 561.87 -2.94759 -2.51387 0
M  V30 6001 H 562.284 -4.98178 -1.64069 0
M  V30 6002 H 563.758 -4.45005 -3.26611 0
M  V30 6003 H 564.235 -2.76045 -3.41608 0
M  V30 6004 H 564.841 -3.72592 -2.05074 0
M  V30 6005 N 563.156 0.464375 -1.50603 0
M  V30 6006 C 564.119 1.54393 -1.69397 0
M  V30 6007 C 565.119 1.50566 -0.564504 0
M  V30 6008 O 566.309 1.53066 -0.831645 0
M  V30 6009 C 563.441 2.9401 -1.72543 0
M  V30 6010 H 564.634 1.39044 -2.65719 0
M  V30 6011 H 562.187 0.69122 -1.40185 0
M  V30 6012 H 562.922 3.14795 -0.77938 0
M  V30 6013 H 562.707 2.98195 -2.54602 0
M  V30 6014 H 564.197 3.72375 -1.89015 0
M  V30 6015 N 564.634 1.40294 0.718013 0
M  V30 6016 C 565.564 1.43118 1.84498 0
M  V30 6017 C 566.545 0.292403 1.67568 0
M  V30 6018 O 567.73 0.500675 1.87635 0
M  V30 6019 C 564.86 1.29065 3.22427 0
M  V30 6020 C 563.814 2.40521 3.54025 0
M  V30 6021 C 563.14 2.11546 4.91073 0
M  V30 6022 C 564.44 3.82859 3.55269 0
M  V30 6023 H 566.134 2.37432 1.82391 0
M  V30 6024 H 563.68 1.14283 0.87609 0
M  V30 6025 H 565.633 1.29658 4.00957 0
M  V30 6026 H 564.357 0.312271 3.25104 0
M  V30 6027 H 563.016 2.39173 2.77834 0
M  V30 6028 H 562.664 1.12104 4.90348 0
M  V30 6029 H 562.364 2.86216 5.1318 0
M  V30 6030 H 563.888 2.13817 5.71939 0
M  V30 6031 H 565.302 3.86044 4.23843 0
M  V30 6032 H 563.699 4.57029 3.88902 0
M  V30 6033 H 564.769 4.12617 2.54706 0
M  V30 6034 N 566.112 -0.949982 1.2575 0
M  V30 6035 C 567.342 -1.72721 1.13363 0
M  V30 6036 C 567.75 -1.86562 -0.314842 0
M  V30 6037 O 567.093 -1.36621 -1.22803 0
M  V30 6038 C 567.155 -3.15695 1.7198 0
M  V30 6039 C 566.819 -3.25268 3.21014 0
M  V30 6040 C 567.816 -3.09222 4.17945 0
M  V30 6041 C 565.501 -3.4894 3.61312 0
M  V30 6042 C 567.495 -3.16701 5.53154 0
M  V30 6043 C 565.182 -3.56055 4.96657 0
M  V30 6044 C 566.18 -3.3995 5.92387 0
M  V30 6045 O 565.868 -3.46757 7.25269 0
M  V30 6046 H 565.6 -0.547888 0.395973 0
M  V30 6047 H 568.154 -1.20009 1.66694 0
M  V30 6048 H 566.384 -3.69791 1.13101 0
M  V30 6049 H 568.073 -3.75295 1.54624 0
M  V30 6050 H 568.839 -2.90798 3.88151 0
M  V30 6051 H 564.718 -3.60534 2.87291 0
M  V30 6052 H 568.262 -3.04048 6.27854 0
M  V30 6053 H 564.159 -3.73997 5.26115 0
M  V30 6054 H 564.927 -3.63358 7.33426 0
M  V30 6055 N 567.59 -1.07411 -1.15328 0
M  V30 6056 C 568.5 -0.706438 -2.23711 0
M  V30 6057 C 569.516 0.282586 -1.7169 0
M  V30 6058 O 570.692 0.129066 -2.00986 0
M  V30 6059 C 567.757 -0.11048 -3.46524 0
M  V30 6060 C 566.818 -1.15282 -4.13532 0
M  V30 6061 C 566.051 -0.585205 -5.30482 0
M  V30 6062 O 566.274 0.598549 -5.67251 0
M  V30 6063 O 565.208 -1.33039 -5.87013 0
M  V30 6064 H 569.034 -1.61031 -2.57493 0
M  V30 6065 H 566.619 -0.847113 -1.23062 0
M  V30 6066 H 568.501 0.21957 -4.20828 0
M  V30 6067 H 567.176 0.766703 -3.14489 0
M  V30 6068 H 566.083 -1.53523 -3.41147 0
M  V30 6069 H 567.416 -2.00192 -4.49649 0
M  V30 6070 N 569.068 1.32177 -0.85831 0
M  V30 6071 C 570.031 2.27086 -0.310588 0
M  V30 6072 C 571.031 1.51751 0.531806 0
M  V30 6073 O 572.221 1.70794 0.34279 0
M  V30 6074 C 569.353 3.36266 0.560179 0
M  V30 6075 H 570.546 2.77045 -1.1483 0
M  V30 6076 H 568.099 1.42911 -0.632942 0
M  V30 6077 H 568.834 2.9158 1.41956 0
M  V30 6078 H 568.619 3.92077 -0.0428473 0
M  V30 6079 H 570.109 4.06974 0.936056 0
M  V30 6080 N 570.547 0.616602 1.45037 0
M  V30 6081 C 571.793 0.115501 2.02471 0
M  V30 6082 C 572.126 -1.25406 1.4828 0
M  V30 6083 O 571.401 -1.82922 0.661051 0
M  V30 6084 C 571.684 0.0863588 3.59996 0
M  V30 6085 C 571.537 1.48723 4.24501 0
M  V30 6086 C 572.856 -0.596762 4.36035 0
M  V30 6087 H 569.975 0.0434461 0.735718 0
M  V30 6088 H 572.617 0.7903 1.72784 0
M  V30 6089 H 570.767 -0.488277 3.85419 0
M  V30 6090 H 572.439 2.10964 4.10234 0
M  V30 6091 H 570.682 2.04534 3.82555 0
M  V30 6092 H 571.353 1.419 5.3345 0
M  V30 6093 H 573.829 -0.10824 4.15959 0
M  V30 6094 H 572.705 -0.586289 5.4576 0
M  V30 6095 H 572.966 -1.66451 4.09569 0
M  V30 6096 N 572.025 -1.5352 0.356285 0
M  V30 6097 C 572.988 -2.24071 -0.482182 0
M  V30 6098 C 573.988 -1.24531 -1.01729 0
M  V30 6099 O 575.178 -1.48876 -0.904513 0
M  V30 6100 C 572.31 -2.97025 -1.67299 0
M  V30 6101 H 573.503 -2.99596 0.135031 0
M  V30 6102 H 571.056 -1.55928 0.107825 0
M  V30 6103 H 571.791 -2.25719 -2.32855 0
M  V30 6104 H 571.576 -3.7005 -1.29636 0
M  V30 6105 H 573.066 -3.50683 -2.26741 0
M  V30 6106 N 573.503 -0.0852151 -1.57369 0
M  V30 6107 C 574.466 0.8627 -2.12344 0
M  V30 6108 C 575.466 1.21746 -1.05046 0
M  V30 6109 O 576.656 1.14852 -1.30976 0
M  V30 6110 C 573.788 2.1618 -2.63589 0
M  V30 6111 H 574.981 0.385511 -2.97412 0
M  V30 6112 H 572.534 0.163663 -1.55441 0
M  V30 6113 H 573.269 2.68406 -1.82013 0
M  V30 6114 H 573.054 1.91723 -3.4203 0
M  V30 6115 H 574.544 2.84011 -3.06149 0
M  V30 6116 N 574.981 1.5647 0.188427 0
M  V30 6117 C 576.23 1.80207 0.905995 0
M  V30 6118 C 576.543 0.659579 1.84144 0
M  V30 6119 O 577.749 0.781431 2.60011 0
M  V30 6120 C 576.205 3.19255 1.66145 0
M  V30 6121 C 575.813 4.41324 0.770504 0
M  V30 6122 C 577.557 3.52298 2.36826 0
M  V30 6123 C 575.464 5.71394 1.52521 0
M  V30 6124 H 574.394 0.671953 0.342045 0
M  V30 6125 H 577.045 1.82808 0.159164 0
M  V30 6126 H 575.427 3.10922 2.45242 0
M  V30 6127 H 576.601 4.60797 0.0177261 0
M  V30 6128 H 574.916 4.16035 0.174199 0
M  V30 6129 H 577.513 4.46715 2.93854 0
M  V30 6130 H 577.856 2.76359 3.11338 0
M  V30 6131 H 578.389 3.62108 1.6469 0
M  V30 6132 H 575.128 6.50316 0.82275 0
M  V30 6133 H 574.648 5.55928 2.25175 0
M  V30 6134 H 576.327 6.12747 2.07725 0
M  V30 6135 N 576.459 -0.456382 1.50847 0
M  V30 6136 C 577.706 -1.20736 1.62571 0
M  V30 6137 C 578.034 -1.9163 0.332904 0
M  V30 6138 O 577.289 -1.8343 -0.682058 0
M  V30 6139 C 577.588 -2.26336 2.76599 0
M  V30 6140 C 577.254 -1.7259 4.16562 0
M  V30 6141 C 575.916 -1.57654 4.54641 0
M  V30 6142 C 578.268 -1.32877 5.03977 0
M  V30 6143 C 575.596 -1.0145 5.77862 0
M  V30 6144 C 577.948 -0.7811 6.27759 0
M  V30 6145 C 576.612 -0.618488 6.64628 0
M  V30 6146 H 575.882 -0.441803 0.594888 0
M  V30 6147 H 578.529 -0.501169 1.84826 0
M  V30 6148 H 576.834 -3.0292 2.48489 0
M  V30 6149 H 578.531 -2.84227 2.82871 0
M  V30 6150 H 575.121 -1.85187 3.86528 0
M  V30 6151 H 579.305 -1.43245 4.75179 0
M  V30 6152 H 574.561 -0.876109 6.0509 0
M  V30 6153 H 578.735 -0.464783 6.94847 0
M  V30 6154 H 576.362 -0.180838 7.59985 0
M  V30 6155 N 577.937 -1.40673 -0.710563 0
M  V30 6156 C 579.186 -1.38525 -1.46607 0
M  V30 6157 C 579.499 0.0077024 -1.95598 0
M  V30 6158 O 580.705 0.151792 -2.71075 0
M  V30 6159 C 579.161 -2.43489 -2.6503 0
M  V30 6160 C 578.769 -3.88619 -2.22888 0
M  V30 6161 C 580.513 -2.50456 -3.42742 0
M  V30 6162 C 578.42 -4.85168 -3.3818 0
M  V30 6163 H 577.35 -0.515092 -0.550632 0
M  V30 6164 H 580.001 -1.66431 -0.772846 0
M  V30 6165 H 578.383 -2.0869 -3.36548 0
M  V30 6166 H 579.557 -4.32588 -1.58758 0
M  V30 6167 H 577.872 -3.85174 -1.58208 0
M  V30 6168 H 580.469 -3.19776 -4.28541 0
M  V30 6169 H 580.812 -1.53665 -3.86902 0
M  V30 6170 H 581.345 -2.84271 -2.78271 0
M  V30 6171 H 578.084 -5.8331 -2.99047 0
M  V30 6172 H 577.604 -4.4586 -4.01209 0
M  V30 6173 H 579.283 -5.05225 -4.04174 0
M  V30 6174 N 579.415 0.9433 -1.26252 0
M  V30 6175 C 580.378 2.02326 -1.07689 0
M  V30 6176 C 581.378 1.60779 -0.0259174 0
M  V30 6177 O 582.568 1.72108 -0.269134 0
M  V30 6178 C 579.7 3.34886 -0.63752 0
M  V30 6179 H 580.893 2.20225 -2.0357 0
M  V30 6180 H 578.446 1.12197 -1.08819 0
M  V30 6181 H 579.181 3.22684 0.323377 0
M  V30 6182 H 578.966 3.66393 -1.39637 0
M  V30 6183 H 580.456 4.14231 -0.529418 0
M  V30 6184 N 580.893 1.08022 1.14757 0
M  V30 6185 C 581.825 0.664566 2.19354 0
M  V30 6186 C 582.838 -0.286374 1.60261 0
M  V30 6187 O 584.027 -0.0746362 1.78344 0
M  V30 6188 C 581.127 -0.0434634 3.38872 0
M  V30 6189 C 580.3 0.925381 4.27499 0
M  V30 6190 C 579.359 0.253398 5.2559 0
M  V30 6191 O 578.385 0.896581 5.62094 0
M  V30 6192 N 579.587 -0.998263 5.71852 0
M  V30 6193 H 582.352 1.56438 2.55631 0
M  V30 6194 H 579.913 0.965788 1.29939 0
M  V30 6195 H 581.905 -0.503857 4.01551 0
M  V30 6196 H 580.475 -0.845321 3.00954 0
M  V30 6197 H 579.695 1.56472 3.61815 0
M  V30 6198 H 580.983 1.58203 4.8358 0
M  V30 6199 H 580.381 -1.54063 5.44317 0
M  V30 6200 H 578.938 -1.40222 6.36538 0
M  V30 6201 N 582.371 -1.3172 0.865308 0
M  V30 6202 C 583.617 -1.97168 0.474633 0
M  V30 6203 C 583.95 -1.68263 -0.969604 0
M  V30 6204 O 583.225 -0.976588 -1.68205 0
M  V30 6205 C 583.508 -3.52689 0.726808 0
M  V30 6206 C 583.361 -3.91185 2.22024 0
M  V30 6207 C 584.68 -4.39689 0.190201 0
M  V30 6208 H 581.799 -0.716185 0.17392 0
M  V30 6209 H 584.441 -1.55925 1.08569 0
M  V30 6210 H 582.591 -3.8795 0.206705 0
M  V30 6211 H 584.263 -3.66049 2.80724 0
M  V30 6212 H 582.506 -3.3996 2.69462 0
M  V30 6213 H 583.177 -4.99604 2.34735 0
M  V30 6214 H 585.653 -4.11225 0.635103 0
M  V30 6215 H 584.529 -5.47469 0.396132 0
M  V30 6216 H 584.79 -4.32683 -0.907625 0
M  V30 6217 N 583.85 -0.624285 -1.44708 0
M  V30 6218 C 584.798 0.0969952 -2.32398 0
M  V30 6219 C 585.792 0.842762 -1.46949 0
M  V30 6220 O 586.998 0.756436 -1.63334 0
M  V30 6221 H 583.373 0.0501306 -0.750327 0
M  V30 6222 H 585.344 -0.660767 -2.90992 0
M  V30 6223 C 584.093 1.06967 -3.30837 0
M  V30 6224 H 583.416 0.505242 -3.96595 0
M  V30 6225 H 584.856 1.54397 -3.94889 0
M  V30 6226 C 583.315 2.15153 -2.5925 0
M  V30 6227 O 583.845 3.23139 -2.3863 0
M  V30 6228 N 582.051 1.90898 -2.19103 0
M  V30 6229 H 581.598 1.03086 -2.36074 0
M  V30 6230 H 581.556 2.63485 -1.71531 0
M  V30 6231 N 585.328 1.53329 -0.364422 0
M  V30 6232 C 586.276 2.27212 0.497737 0
M  V30 6233 C 587.27 1.30146 1.08437 0
M  V30 6234 O 588.476 1.47778 1.0277 0
M  V30 6235 H 584.851 0.730329 0.179232 0
M  V30 6236 H 586.822 2.98037 -0.147182 0
M  V30 6237 C 585.571 3.07333 1.6261 0
M  V30 6238 H 584.894 3.81866 1.184 0
M  V30 6239 H 586.334 3.62209 2.20409 0
M  V30 6240 C 584.793 2.18102 2.56775 0
M  V30 6241 O 585.323 1.79104 3.59562 0
M  V30 6242 N 583.529 1.82759 2.25937 0
M  V30 6243 H 583.076 2.14671 1.42387 0
M  V30 6244 H 583.034 1.23342 2.89196 0
M  V30 6245 N 586.806 0.0935595 1.57322 0
M  V30 6246 C 588.036 -0.578095 1.98347 0
M  V30 6247 C 588.444 -1.62357 0.971441 0
M  V30 6248 O 587.787 -1.83639 -0.0473959 0
M  V30 6249 C 587.849 -1.28525 3.3574 0
M  V30 6250 C 587.513 -0.390714 4.55327 0
M  V30 6251 C 588.51 0.360522 5.18648 0
M  V30 6252 C 586.195 -0.309221 5.01347 0
M  V30 6253 C 588.189 1.18125 6.26359 0
M  V30 6254 C 585.876 0.515157 6.08925 0
M  V30 6255 C 586.874 1.25904 6.71295 0
M  V30 6256 O 586.562 2.06978 7.76798 0
M  V30 6257 H 586.294 -0.159767 0.656849 0
M  V30 6258 H 588.848 0.169058 2.04703 0
M  V30 6259 H 587.078 -2.07894 3.26063 0
M  V30 6260 H 588.767 -1.85128 3.61223 0
M  V30 6261 H 589.533 0.307285 4.84026 0
M  V30 6262 H 585.412 -0.877881 4.52564 0
M  V30 6263 H 588.956 1.76236 6.74971 0
M  V30 6264 H 584.853 0.56988 6.42979 0
M  V30 6265 H 585.621 1.99644 7.93779 0
M  V30 6266 N 588.284 -1.56567 -0.180126 0
M  V30 6267 C 589.194 -1.98947 -1.24327 0
M  V30 6268 C 590.21 -0.899446 -1.4895 0
M  V30 6269 O 591.386 -1.20639 -1.61271 0
M  V30 6270 C 588.451 -2.33328 -2.56435 0
M  V30 6271 C 587.512 -3.56114 -2.39752 0
M  V30 6272 C 586.745 -3.88845 -3.65561 0
M  V30 6273 O 586.968 -3.22662 -4.70368 0
M  V30 6274 O 585.902 -4.82226 -3.60197 0
M  V30 6275 H 589.728 -2.89634 -0.913565 0
M  V30 6276 H 587.313 -1.44319 -0.386306 0
M  V30 6277 H 589.195 -2.5645 -3.34382 0
M  V30 6278 H 587.87 -1.45806 -2.89002 0
M  V30 6279 H 586.777 -3.38221 -1.59866 0
M  V30 6280 H 588.11 -4.4415 -2.12113 0
M  V30 6281 N 589.762 0.448376 -1.51087 0
M  V30 6282 C 590.692 1.55102 -1.74544 0
M  V30 6283 C 591.673 1.59357 -0.594932 0
M  V30 6284 O 592.858 1.75261 -0.836491 0
M  V30 6285 C 589.988 2.93268 -1.86041 0
M  V30 6286 C 588.942 3.03877 -3.01402 0
M  V30 6287 C 588.268 4.43914 -2.98068 0
M  V30 6288 C 589.568 2.7898 -4.41551 0
M  V30 6289 H 591.262 1.35724 -2.66869 0
M  V30 6290 H 588.808 0.651498 -1.28419 0
M  V30 6291 H 590.761 3.70356 -2.01034 0
M  V30 6292 H 589.485 3.13853 -0.903548 0
M  V30 6293 H 588.144 2.29227 -2.86096 0
M  V30 6294 H 587.792 4.6145 -2.00182 0
M  V30 6295 H 587.492 4.51944 -3.75527 0
M  V30 6296 H 589.016 5.22991 -3.1514 0
M  V30 6297 H 590.43 3.45805 -4.57265 0
M  V30 6298 H 588.827 2.98431 -5.20633 0
M  V30 6299 H 589.897 1.74663 -4.5235 0
M  V30 6300 N 591.24 1.41047 0.703093 0
M  V30 6301 C 592.517 1.30493 1.45708 0
M  V30 6302 C 592.897 -0.0709892 2.10981 0
M  V30 6303 O 592.245 -1.08471 2.01113 0
M  V30 6304 C 592.455 2.45287 2.48265 0
M  V30 6305 C 593.803 2.86104 3.13735 0
M  V30 6306 O 594.827 2.44971 2.58587 0
M  V30 6307 O 593.686 3.57206 4.13601 0
M  V30 6308 H 590.78 0.513144 0.648546 0
M  V30 6309 H 593.326 1.52995 0.734208 0
M  V30 6310 H 592.098 3.37135 1.98635 0
M  V30 6311 H 591.721 2.24622 3.28071 0
M  V30 6312 N 592.718 -0.936591 1.26751 0
M  V30 6313 C 593.965 -1.68331 1.12566 0
M  V30 6314 C 594.293 -1.91677 -0.330168 0
M  V30 6315 O 593.548 -1.49859 -1.2586 0
M  V30 6316 C 593.847 -3.06099 1.84494 0
M  V30 6317 C 593.513 -3.02493 3.34378 0
M  V30 6318 C 592.175 -3.01217 3.75262 0
M  V30 6319 C 594.527 -2.94453 4.30055 0
M  V30 6320 C 591.855 -2.89672 5.10203 0
M  V30 6321 C 594.207 -2.84449 5.65041 0
M  V30 6322 C 592.871 -2.81518 6.0523 0
M  V30 6323 H 592.141 -0.615965 0.411907 0
M  V30 6324 H 594.788 -1.09292 1.5725 0
M  V30 6325 H 593.093 -3.6879 1.32292 0
M  V30 6326 H 594.79 -3.62733 1.70955 0
M  V30 6327 H 591.38 -3.04269 3.01858 0
M  V30 6328 H 595.564 -2.94544 3.99447 0
M  V30 6329 H 590.82 -2.85783 5.40498 0
M  V30 6330 H 594.994 -2.77192 6.38856 0
M  V30 6331 H 592.621 -2.72329 7.09747 0
M  V30 6332 N 594.196 -1.08629 -1.14182 0
M  V30 6333 C 595.444 -0.815731 -1.84906 0
M  V30 6334 C 595.765 0.660441 -1.83475 0
M  V30 6335 O 595.035 1.47888 -1.28476 0
M  V30 6336 H 593.615 -0.298773 -0.684648 0
M  V30 6337 H 596.277 -1.37274 -1.38354 0
M  V30 6338 H 595.373 -1.16193 -2.89665 0
M  V30 6339 N 595.674 1.31259 -0.872281 0
M  V30 6340 C 596.606 2.27396 -0.28697 0
M  V30 6341 C 597.619 1.53181 0.551297 0
M  V30 6342 O 598.808 1.74561 0.372914 0
M  V30 6343 C 595.908 3.33335 0.611617 0
M  V30 6344 C 595.081 4.36966 -0.194729 0
M  V30 6345 C 594.14 5.22387 0.632358 0
M  V30 6346 O 593.166 5.69169 0.0595691 0
M  V30 6347 N 594.368 5.46985 1.94391 0
M  V30 6348 H 597.133 2.78261 -1.11314 0
M  V30 6349 H 594.694 1.44306 -0.733994 0
M  V30 6350 H 596.686 3.87398 1.17068 0
M  V30 6351 H 595.256 2.82496 1.33846 0
M  V30 6352 H 594.476 3.82945 -0.935241 0
M  V30 6353 H 595.764 5.03273 -0.747935 0
M  V30 6354 H 595.162 5.10737 2.43237 0
M  V30 6355 H 593.719 6.03973 2.45071 0
M  V30 6356 N 597.152 0.631951 1.44375 0
M  V30 6357 C 598.401 0.134214 2.01253 0
M  V30 6358 C 598.714 -1.25171 1.50305 0
M  V30 6359 O 599.92 -1.8435 1.99317 0
M  V30 6360 C 598.376 0.189187 3.59402 0
M  V30 6361 C 597.984 1.57647 4.19346 0
M  V30 6362 C 599.728 -0.252044 4.23751 0
M  V30 6363 C 597.635 1.58651 5.69722 0
M  V30 6364 H 596.565 0.0464101 0.75257 0
M  V30 6365 H 599.216 0.790868 1.65582 0
M  V30 6366 H 597.598 -0.534584 3.92375 0
M  V30 6367 H 598.772 2.32389 3.97909 0
M  V30 6368 H 597.087 1.96186 3.67288 0
M  V30 6369 H 599.684 -0.264084 5.34047 0
M  V30 6370 H 600.027 -1.27951 3.96149 0
M  V30 6371 H 600.56 0.41926 3.95584 0
M  V30 6372 H 597.299 2.59237 6.0206 0
M  V30 6373 H 596.819 0.882039 5.93279 0
M  V30 6374 H 598.498 1.32082 6.33375 0
M  V30 6375 N 598.631 -1.53133 0.372548 0
M  V30 6376 C 599.88 -2.00539 -0.216115 0
M  V30 6377 C 600.193 -1.26374 -1.49295 0
M  V30 6378 O 601.399 -1.64404 -2.16064 0
M  V30 6379 C 599.855 -3.57253 -0.435678 0
M  V30 6380 C 599.463 -4.40302 0.82693 0
M  V30 6381 C 601.207 -4.12995 -0.981618 0
M  V30 6382 C 599.114 -5.88583 0.576567 0
M  V30 6383 H 598.044 -0.749246 -0.084536 0
M  V30 6384 H 600.695 -1.76771 0.492364 0
M  V30 6385 H 599.077 -3.77202 -1.20559 0
M  V30 6386 H 600.251 -4.32124 1.60017 0
M  V30 6387 H 598.566 -3.95699 1.29659 0
M  V30 6388 H 601.163 -5.21418 -1.18436 0
M  V30 6389 H 601.506 -3.68027 -1.94581 0
M  V30 6390 H 602.039 -3.96871 -0.271696 0
M  V30 6391 H 598.778 -6.37841 1.51128 0
M  V30 6392 H 598.298 -5.99592 -0.158047 0
M  V30 6393 H 599.977 -6.46676 0.204722 0
M  V30 6394 N 600.109 -0.101901 -1.5727 0
M  V30 6395 C 601.337 0.568392 -1.98939 0
M  V30 6396 C 601.752 1.61301 -0.981194 0
M  V30 6397 O 601.109 1.82478 0.0282869 0
M  V30 6398 C 601.16 1.20997 -3.40649 0
M  V30 6399 O 600.881 0.207129 -4.3761 0
M  V30 6400 C 602.382 1.96523 -3.97358 0
M  V30 6401 H 599.602 0.15186 -0.65359 0
M  V30 6402 H 602.146 -0.183198 -2.03678 0
M  V30 6403 H 600.301 1.91245 -3.36904 0
M  V30 6404 H 600.715 0.671071 -5.20189 0
M  V30 6405 H 602.189 2.36764 -4.98645 0
M  V30 6406 H 602.666 2.83376 -3.35552 0
M  V30 6407 H 603.272 1.31076 -4.04598 0
M  V30 6408 N 601.587 1.56661 0.17182 0
M  V30 6409 C 602.836 1.81158 0.886831 0
M  V30 6410 C 603.149 0.679072 1.83434 0
M  V30 6411 O 604.355 0.808964 2.59168 0
M  V30 6412 C 602.811 3.20999 1.6275 0
M  V30 6413 C 602.419 4.42117 0.723652 0
M  V30 6414 C 604.163 3.5479 2.33076 0
M  V30 6415 C 602.07 5.7298 1.46452 0
M  V30 6416 H 601 0.675543 0.334899 0
M  V30 6417 H 603.651 1.82967 0.139765 0
M  V30 6418 H 602.033 3.13506 2.4193 0
M  V30 6419 H 603.207 4.60789 -0.0311485 0
M  V30 6420 H 601.522 4.16197 0.130063 0
M  V30 6421 H 604.119 4.49806 2.89099 0
M  V30 6422 H 604.462 2.79646 3.08389 0
M  V30 6423 H 604.995 3.63834 1.6084 0
M  V30 6424 H 601.734 6.51152 0.753729 0
M  V30 6425 H 601.254 5.58285 2.19266 0
M  V30 6426 H 602.933 6.14916 2.01214 0
M  V30 6427 N 603.065 -0.440357 1.51323 0
M  V30 6428 C 604.29 -1.21716 1.67928 0
M  V30 6429 C 604.715 -1.84328 0.374826 0
M  V30 6430 O 604.073 -1.68675 -0.664706 0
M  V30 6431 C 604.121 -2.27914 2.79442 0
M  V30 6432 O 603.225 -3.33325 2.42834 0
M  V30 6433 H 602.566 -0.35674 0.560029 0
M  V30 6434 H 605.096 -0.520417 1.97871 0
M  V30 6435 H 605.106 -2.72746 3.03436 0
M  V30 6436 H 603.781 -1.8172 3.741 0
M  V30 6437 H 602.358 -2.9399 2.294 0
M  V30 6438 N 604.543 -1.41418 -0.695603 0
M  V30 6439 C 605.792 -1.40073 -1.4513 0
M  V30 6440 C 606.105 -0.0130439 -1.95596 0
M  V30 6441 O 607.311 0.123032 -2.71221 0
M  V30 6442 C 605.767 -2.46286 -2.62433 0
M  V30 6443 C 605.375 -3.90962 -2.18753 0
M  V30 6444 C 607.119 -2.54077 -3.40066 0
M  V30 6445 C 605.026 -4.88728 -3.33015 0
M  V30 6446 H 603.956 -0.520903 -0.545138 0
M  V30 6447 H 606.607 -1.67242 -0.75515 0
M  V30 6448 H 604.989 -2.12248 -3.34315 0
M  V30 6449 H 606.163 -4.34248 -1.54161 0
M  V30 6450 H 604.478 -3.86831 -1.54114 0
M  V30 6451 H 607.075 -3.24303 -4.25125 0
M  V30 6452 H 607.418 -1.5776 -3.8525 0
M  V30 6453 H 607.951 -2.87206 -2.75241 0
M  V30 6454 H 604.69 -5.86449 -2.92844 0
M  V30 6455 H 604.21 -4.50091 -3.96457 0
M  V30 6456 H 605.889 -5.09483 -3.98793 0
M  V30 6457 N 606.021 0.929856 -1.27246 0
M  V30 6458 C 607.249 1.71144 -1.16265 0
M  V30 6459 C 607.664 1.867 0.280786 0
M  V30 6460 O 607.021 1.38249 1.19136 0
M  V30 6461 C 607.072 3.11222 -1.83911 0
M  V30 6462 O 606.793 2.96398 -3.22614 0
M  V30 6463 C 608.294 4.05541 -1.79028 0
M  V30 6464 H 605.514 0.535499 -0.404328 0
M  V30 6465 H 608.058 1.16492 -1.68077 0
M  V30 6466 H 606.213 3.6274 -1.36009 0
M  V30 6467 H 606.627 3.8494 -3.56261 0
M  V30 6468 H 608.101 5.01351 -2.30978 0
M  V30 6469 H 608.578 4.32589 -0.759168 0
M  V30 6470 H 609.184 3.59947 -2.26535 0
M  V30 6471 N 607.499 1.09233 1.13605 0
M  V30 6472 C 608.462 0.733553 2.17144 0
M  V30 6473 C 609.462 -0.235873 1.59061 0
M  V30 6474 O 610.652 -0.0143167 1.74194 0
M  V30 6475 C 607.784 0.084471 3.40795 0
M  V30 6476 H 608.977 1.65049 2.50397 0
M  V30 6477 H 606.53 0.891264 1.28399 0
M  V30 6478 H 607.265 -0.843795 3.1313 0
M  V30 6479 H 607.05 0.781985 3.84223 0
M  V30 6480 H 608.54 -0.151216 4.17326 0
M  V30 6481 N 608.977 -1.30795 0.87923 0
M  V30 6482 C 610.205 -2.00527 0.509548 0
M  V30 6483 C 610.62 -1.65944 -0.90045 0
M  V30 6484 O 609.977 -0.893525 -1.5913 0
M  V30 6485 C 610.028 -3.55276 0.667943 0
M  V30 6486 O 609.749 -3.88625 2.02242 0
M  V30 6487 C 611.25 -4.4228 0.300494 0
M  V30 6488 H 608.47 -0.641261 0.197549 0
M  V30 6489 H 611.014 -1.66813 1.18295 0
M  V30 6490 H 609.169 -3.87377 0.0419843 0
M  V30 6491 H 609.583 -4.83334 2.03688 0
M  V30 6492 H 611.057 -5.50061 0.462242 0
M  V30 6493 H 611.534 -4.32556 -0.76106 0
M  V30 6494 H 612.14 -4.15613 0.902536 0
M  V30 6495 N 610.455 -0.639598 -1.44038 0
M  V30 6496 C 611.418 0.0506628 -2.29144 0
M  V30 6497 C 612.418 0.764001 -1.41491 0
M  V30 6498 O 613.608 0.607309 -1.63271 0
M  V30 6499 C 610.74 1.0824 -3.2326 0
M  V30 6500 H 611.933 -0.697987 -2.91664 0
M  V30 6501 H 609.486 -0.400146 -1.51091 0
M  V30 6502 H 610.221 1.86075 -2.65606 0
M  V30 6503 H 610.006 0.574725 -3.87865 0
M  V30 6504 H 611.496 1.56487 -3.87171 0
M  V30 6505 N 611.933 1.52934 -0.380664 0
M  V30 6506 C 612.896 2.24809 0.446473 0
M  V30 6507 C 613.896 1.26133 0.997347 0
M  V30 6508 O 615.086 1.50297 0.880714 0
M  V30 6509 C 612.218 2.99649 1.62553 0
M  V30 6510 H 613.411 2.99343 -0.182677 0
M  V30 6511 H 610.964 1.55736 -0.132618 0
M  V30 6512 H 611.699 2.29395 2.29235 0
M  V30 6513 H 611.484 3.72066 1.23732 0
M  V30 6514 H 612.974 3.54246 2.21133 0
M  V30 6515 N 613.412 0.11024 1.57214 0
M  V30 6516 C 614.637 -0.561179 1.99664 0
M  V30 6517 C 615.062 -1.59985 0.989266 0
M  V30 6518 O 614.42 -1.81255 -0.0402399 0
M  V30 6519 C 614.468 -1.17189 3.41027 0
M  V30 6520 O 613.572 -2.28755 3.4314 0
M  V30 6521 H 612.913 -0.14101 0.648855 0
M  V30 6522 H 615.443 0.196128 2.03658 0
M  V30 6523 H 615.453 -1.50954 3.79047 0
M  V30 6524 H 614.128 -0.411041 4.13864 0
M  V30 6525 H 612.705 -1.96495 3.16929 0
M  V30 6526 N 614.89 -1.56749 -0.16351 0
M  V30 6527 C 616.139 -1.81626 -0.877211 0
M  V30 6528 C 616.452 -0.688791 -1.83071 0
M  V30 6529 O 617.658 -0.822697 -2.58735 0
M  V30 6530 C 616.114 -3.21858 -1.61045 0
M  V30 6531 C 615.722 -4.42494 -0.700195 0
M  V30 6532 C 617.466 -3.56021 -2.31192 0
M  V30 6533 C 615.373 -5.73748 -1.43412 0
M  V30 6534 H 614.303 -0.67731 -0.331312 0
M  V30 6535 H 616.954 -1.83039 -0.13006 0
M  V30 6536 H 615.336 -3.14784 -2.40264 0
M  V30 6537 H 616.51 -4.60766 0.0555849 0
M  V30 6538 H 614.825 -4.1626 -0.10799 0
M  V30 6539 H 617.422 -4.51333 -2.8671 0
M  V30 6540 H 617.765 -2.81277 -3.06902 0
M  V30 6541 H 618.298 -3.64682 -1.58909 0
M  V30 6542 H 615.037 -6.51543 -0.719186 0
M  V30 6543 H 614.557 -5.5944 -2.16302 0
M  V30 6544 H 616.236 -6.15975 -1.9795 0
M  V30 6545 N 616.368 0.432326 -1.51554 0
M  V30 6546 C 617.616 1.17901 -1.64146 0
M  V30 6547 C 617.937 1.91604 -0.362367 0
M  V30 6548 O 617.207 1.85764 0.621968 0
M  V30 6549 H 615.787 0.438206 -0.604966 0
M  V30 6550 H 618.449 0.495172 -1.88505 0
M  V30 6551 H 617.545 1.90584 -2.47152 0
M  V30 6552 N 617.846 1.41785 0.688094 0
M  V30 6553 C 618.809 1.43936 1.78368 0
M  V30 6554 C 619.809 0.328866 1.57401 0
M  V30 6555 O 620.999 0.589093 1.63937 0
M  V30 6556 C 618.131 1.25804 3.16838 0
M  V30 6557 H 619.324 2.41472 1.77852 0
M  V30 6558 H 616.877 1.28037 0.896448 0
M  V30 6559 H 617.612 0.291386 3.22988 0
M  V30 6560 H 617.397 2.06272 3.33458 0
M  V30 6561 H 618.887 1.30162 3.96797 0
M  V30 6562 N 619.324 -0.923095 1.27737 0
M  V30 6563 C 620.287 -2.00587 1.10894 0
M  V30 6564 C 621.287 -1.60718 0.0514927 0
M  V30 6565 O 622.477 -1.71658 0.296481 0
M  V30 6566 C 619.609 -3.33829 0.690717 0
M  V30 6567 H 620.802 -2.16959 2.07048 0
M  V30 6568 H 618.355 -1.10451 1.1059 0
M  V30 6569 H 619.09 -3.23157 -0.272 0
M  V30 6570 H 618.875 -3.64125 1.45448 0
M  V30 6571 H 620.365 -4.13336 0.595252 0
M  V30 6572 N 620.802 -1.09834 -1.13024 0
M  V30 6573 C 622.05 -0.835297 -1.8403 0
M  V30 6574 C 622.371 0.640944 -1.84165 0
M  V30 6575 O 621.641 1.46517 -1.30037 0
M  V30 6576 H 620.221 -0.306018 -0.681441 0
M  V30 6577 H 622.883 -1.38734 -1.36891 0
M  V30 6578 H 621.979 -1.19258 -2.88416 0
M  V30 6579 N 622.28 1.30327 -0.886154 0
M  V30 6580 C 623.529 1.95373 -0.501243 0
M  V30 6581 C 623.842 1.70722 0.954634 0
M  V30 6582 O 625.048 2.29761 1.44644 0
M  V30 6583 C 623.504 3.49828 -0.845493 0
M  V30 6584 C 623.112 3.83296 -2.31922 0
M  V30 6585 C 624.856 4.2118 -0.529838 0
M  V30 6586 C 622.763 5.30935 -2.60504 0
M  V30 6587 H 621.693 0.731274 -0.183722 0
M  V30 6588 H 624.344 1.48258 -1.08129 0
M  V30 6589 H 622.726 3.95522 -0.19452 0
M  V30 6590 H 623.9 3.48508 -3.01461 0
M  V30 6591 H 622.215 3.2505 -2.60253 0
M  V30 6592 H 624.812 5.29825 -0.720401 0
M  V30 6593 H 625.155 4.12902 0.530828 0
M  V30 6594 H 625.688 3.81173 -1.13806 0
M  V30 6595 H 622.427 5.44265 -3.65316 0
M  V30 6596 H 621.947 5.67019 -1.95575 0
M  V30 6597 H 623.626 5.98381 -2.46066 0
M  V30 6598 N 623.758 0.647228 1.43697 0
M  V30 6599 C 625.169 0.238689 1.85168 0
M  V30 6600 C 625.52 -1.21345 1.54175 0
M  V30 6601 O 624.645 -1.92542 0.987743 0
M  V30 6602 C 625.24 0.426422 3.36106 0
M  V30 6603 C 623.799 0.0722541 3.76331 0
M  V30 6604 C 622.946 0.732153 2.6746 0
M  V30 6605 H 625.897 0.851309 1.33934 0
M  V30 6606 H 625.918 -0.32987 3.79067 0
M  V30 6607 H 625.43 1.48339 3.58632 0
M  V30 6608 H 623.531 -0.982355 3.59417 0
M  V30 6609 H 623.644 0.493541 4.76551 0
M  V30 6610 H 622.008 0.16594 2.54159 0
M  V30 6611 H 622.791 1.79204 2.92816 0
M  V30 6612 N 625.236 -1.5273 0.388769 0
M  V30 6613 C 626.168 -2.24081 -0.481704 0
M  V30 6614 C 627.181 -1.26307 -1.02715 0
M  V30 6615 O 628.37 -1.52386 -0.929565 0
M  V30 6616 C 625.47 -2.94315 -1.68024 0
M  V30 6617 C 624.643 -4.18791 -1.26226 0
M  V30 6618 C 623.702 -4.72028 -2.32542 0
M  V30 6619 O 622.728 -5.35129 -1.93972 0
M  V30 6620 N 623.93 -4.51838 -3.64448 0
M  V30 6621 H 626.695 -2.9942 0.129591 0
M  V30 6622 H 624.256 -1.60465 0.2151 0
M  V30 6623 H 626.248 -3.26831 -2.38671 0
M  V30 6624 H 624.818 -2.22287 -2.19789 0
M  V30 6625 H 624.038 -3.92318 -0.384703 0
M  V30 6626 H 625.326 -4.99668 -0.959647 0
M  V30 6627 H 624.724 -4.01468 -3.98547 0
M  V30 6628 H 623.281 -4.88845 -4.31131 0
M  V30 6629 N 626.714 -0.118576 -1.57153 0
M  V30 6630 C 627.677 0.817464 -2.14127 0
M  V30 6631 C 628.677 1.1949 -1.07604 0
M  V30 6632 O 629.867 1.12048 -1.33382 0
M  V30 6633 C 626.999 2.10541 -2.68115 0
M  V30 6634 H 628.192 0.322339 -2.98163 0
M  V30 6635 H 625.745 0.130655 -1.55753 0
M  V30 6636 H 626.48 2.64485 -1.87665 0
M  V30 6637 H 626.265 1.84425 -3.4602 0
M  V30 6638 H 627.755 2.77453 -3.12105 0
M  V30 6639 N 628.193 1.56834 0.155195 0
M  V30 6640 C 629.441 1.82536 0.867462 0
M  V30 6641 C 629.762 0.698168 1.82073 0
M  V30 6642 O 629.032 -0.280807 1.93877 0
M  V30 6643 H 627.612 0.673401 0.323327 0
M  V30 6644 H 630.274 1.94313 0.151156 0
M  V30 6645 H 629.37 2.77171 1.43466 0
M  V30 6646 N 629.671 -0.424282 1.51781 0
M  V30 6647 C 630.601 -1.52305 1.7699 0
M  V30 6648 C 631.582 -1.5839 0.620209 0
M  V30 6649 O 632.767 -1.73908 0.864268 0
M  V30 6650 C 629.897 -2.90271 1.90683 0
M  V30 6651 C 628.851 -2.99043 3.06198 0
M  V30 6652 C 628.177 -4.39116 3.05092 0
M  V30 6653 C 629.477 -2.7192 4.45934 0
M  V30 6654 H 631.171 -1.31461 2.68995 0
M  V30 6655 H 628.717 -0.630985 1.29439 0
M  V30 6656 H 630.67 -3.6711 2.06901 0
M  V30 6657 H 629.394 -3.12376 0.953365 0
M  V30 6658 H 628.053 -2.24646 2.89706 0
M  V30 6659 H 627.701 -4.58207 2.07498 0
M  V30 6660 H 627.401 -4.45912 3.82669 0
M  V30 6661 H 628.925 -5.17911 3.2342 0
M  V30 6662 H 630.339 -3.38487 4.62709 0
M  V30 6663 H 628.736 -2.90111 5.25315 0
M  V30 6664 H 629.806 -1.67445 4.55072 0
M  V30 6665 N 631.149 -1.42148 -0.680565 0
M  V30 6666 C 632.395 -1.42521 -1.44277 0
M  V30 6667 C 632.728 -0.0393718 -1.9416 0
M  V30 6668 O 632.003 0.935425 -1.70529 0
M  V30 6669 C 632.286 -2.44475 -2.64394 0
M  V30 6670 C 632.139 -3.92226 -2.20179 0
M  V30 6671 C 633.458 -2.43491 -3.66606 0
M  V30 6672 H 630.577 -0.518985 -0.523282 0
M  V30 6673 H 633.219 -1.73524 -0.773914 0
M  V30 6674 H 631.369 -2.18168 -3.21458 0
M  V30 6675 H 633.041 -4.29493 -1.68327 0
M  V30 6676 H 631.284 -4.0637 -1.5181 0
M  V30 6677 H 631.955 -4.59133 -3.06433 0
M  V30 6678 H 634.431 -2.66872 -3.19247 0
M  V30 6679 H 633.307 -3.16816 -4.4824 0
M  V30 6680 H 633.568 -1.45881 -4.17338 0
M  V30 6681 N 632.627 0.916307 -1.28225 0
M  V30 6682 C 633.855 1.69901 -1.18073 0
M  V30 6683 C 634.27 1.86988 0.260968 0
M  V30 6684 O 633.627 1.39505 1.17663 0
M  V30 6685 C 633.678 3.09254 -1.87201 0
M  V30 6686 O 633.399 2.92959 -3.2574 0
M  V30 6687 C 634.9 4.0362 -1.83319 0
M  V30 6688 H 632.12 0.531181 -0.409985 0
M  V30 6689 H 634.664 1.14703 -1.69303 0
M  V30 6690 H 632.819 3.61277 -1.39848 0
M  V30 6691 H 633.233 3.81139 -3.60324 0
M  V30 6692 H 634.707 4.98873 -2.36282 0
M  V30 6693 H 635.184 4.3176 -0.805007 0
M  V30 6694 H 635.79 3.57524 -2.3034 0
M  V30 6695 N 634.105 1.10431 1.1244 0
M  V30 6696 C 635.038 0.696987 2.17296 0
M  V30 6697 C 636.016 -0.301673 1.59777 0
M  V30 6698 O 637.2 -0.200583 1.8743 0
M  V30 6699 C 634.327 0.0284094 3.38688 0
M  V30 6700 C 633.373 0.990536 4.14838 0
M  V30 6701 S 634.206 2.50785 4.73146 0
M  V30 6702 C 635.362 1.85198 5.97873 0
M  V30 6703 H 635.595 1.58523 2.51511 0
M  V30 6704 H 633.128 0.921312 1.239 0
M  V30 6705 H 635.086 -0.351009 4.08997 0
M  V30 6706 H 633.747 -0.836629 3.02753 0
M  V30 6707 H 632.94 0.469991 5.01804 0
M  V30 6708 H 632.542 1.31186 3.50237 0
M  V30 6709 H 634.834 1.18217 6.67106 0
M  V30 6710 H 635.777 2.7012 6.54554 0
M  V30 6711 H 636.185 1.31653 5.48933 0
M  V30 6712 N 635.583 -1.29855 0.893053 0
M  V30 6713 C 636.829 -1.96116 0.516349 0
M  V30 6714 C 637.162 -1.70281 -0.933695 0
M  V30 6715 O 636.437 -1.01205 -1.66096 0
M  V30 6716 C 636.72 -3.51068 0.801455 0
M  V30 6717 C 636.573 -3.86387 2.30272 0
M  V30 6718 C 637.892 -4.39186 0.283423 0
M  V30 6719 H 635.011 -0.712335 0.189072 0
M  V30 6720 H 637.653 -1.53587 1.11852 0
M  V30 6721 H 635.803 -3.87424 0.288949 0
M  V30 6722 H 637.475 -3.60012 2.88425 0
M  V30 6723 H 635.718 -3.34167 2.76613 0
M  V30 6724 H 636.389 -4.94512 2.45279 0
M  V30 6725 H 638.865 -4.09785 0.722187 0
M  V30 6726 H 637.741 -5.46505 0.512169 0
M  V30 6727 H 638.002 -4.34511 -0.815643 0
M  V30 6728 N 637.061 -0.65484 -1.43351 0
M  V30 6729 C 638.31 -0.166215 -2.01014 0
M  V30 6730 C 638.623 1.22764 -1.52278 0
M  V30 6731 O 639.829 1.81156 -2.02224 0
M  V30 6732 C 638.285 -0.246341 -3.59056 0
M  V30 6733 C 637.893 -1.64299 -4.16785 0
M  V30 6734 C 639.637 0.184597 -4.24098 0
M  V30 6735 C 637.544 -1.67695 -5.67126 0
M  V30 6736 H 636.474 -0.0583769 -0.751737 0
M  V30 6737 H 639.125 -0.817111 -1.64303 0
M  V30 6738 H 637.507 0.472092 -3.93176 0
M  V30 6739 H 638.681 -2.3869 -3.94162 0
M  V30 6740 H 636.996 -2.02004 -3.6412 0
M  V30 6741 H 639.593 0.179088 -5.344 0
M  V30 6742 H 639.936 1.21632 -3.98135 0
M  V30 6743 H 640.469 -0.482141 -3.94867 0
M  V30 6744 H 637.208 -2.68783 -5.9786 0
M  V30 6745 H 636.728 -0.976313 -5.91801 0
M  V30 6746 H 638.407 -1.42142 -6.31193 0
M  V30 6747 N 638.539 1.52521 -0.396863 0
M  V30 6748 C 639.785 2.01971 0.183169 0
M  V30 6749 C 640.118 1.2825 1.45827 0
M  V30 6750 O 639.393 0.385179 1.90648 0
M  V30 6751 C 639.676 3.5736 0.443391 0
M  V30 6752 C 639.529 4.41743 -0.84753 0
M  V30 6753 C 640.848 4.22539 1.2308 0
M  V30 6754 H 637.967 0.734119 0.0650976 0
M  V30 6755 H 640.609 1.82519 -0.527918 0
M  V30 6756 H 638.759 3.74066 1.04914 0
M  V30 6757 H 640.431 4.36773 -1.48414 0
M  V30 6758 H 638.674 4.0845 -1.4612 0
M  V30 6759 H 639.345 5.48507 -0.620003 0
M  V30 6760 H 641.821 4.09857 0.718084 0
M  V30 6761 H 640.697 5.31227 1.38162 0
M  V30 6762 H 640.958 3.80675 2.24808 0
M  V30 6763 N 640.017 0.126909 1.57088 0
M  V30 6764 C 640.947 -0.816847 2.18746 0
M  V30 6765 C 641.928 -1.27161 1.12979 0
M  V30 6766 O 643.113 -1.33279 1.41246 0
M  V30 6767 C 640.243 -2.06398 2.79315 0
M  V30 6768 C 639.197 -1.74673 3.90735 0
M  V30 6769 C 638.523 -3.06482 4.38147 0
M  V30 6770 C 639.823 -1.0089 5.12463 0
M  V30 6771 H 641.517 -0.303032 2.97863 0
M  V30 6772 H 639.063 -0.144314 1.43275 0
M  V30 6773 H 641.016 -2.72885 3.2111 0
M  V30 6774 H 639.74 -2.60118 1.975 0
M  V30 6775 H 638.399 -1.10572 3.49527 0
M  V30 6776 H 638.047 -3.58152 3.5318 0
M  V30 6777 H 637.747 -2.86025 5.13287 0
M  V30 6778 H 639.271 -3.74073 4.82599 0
M  V30 6779 H 640.685 -1.57546 5.51228 0
M  V30 6780 H 639.082 -0.905006 5.93237 0
M  V30 6781 H 640.152 0.00297335 4.849 0
M  V30 6782 N 641.495 -1.56914 -0.146875 0
M  V30 6783 C 642.723 -1.87515 -0.874394 0
M  V30 6784 C 643.138 -0.715116 -1.74733 0
M  V30 6785 O 642.495 0.315113 -1.79759 0
M  V30 6786 C 642.546 -3.17362 -1.731 0
M  V30 6787 O 642.267 -4.28897 -0.893245 0
M  V30 6788 C 643.768 -3.61479 -2.56609 0
M  V30 6789 H 640.988 -0.621546 -0.252827 0
M  V30 6790 H 643.532 -2.04023 -0.139627 0
M  V30 6791 H 641.687 -3.02608 -2.41883 0
M  V30 6792 H 642.101 -5.03146 -1.48137 0
M  V30 6793 H 643.575 -4.5517 -3.12289 0
M  V30 6794 H 644.052 -2.86773 -3.32653 0
M  V30 6795 H 644.658 -3.78927 -1.93117 0
M  V30 6796 N 642.974 0.416227 -1.52004 0
M  V30 6797 C 644.199 1.19029 -1.69843 0
M  V30 6798 C 644.624 1.83708 -0.404103 0
M  V30 6799 O 643.982 1.69711 0.637787 0
M  V30 6800 C 644.03 2.23439 -2.83032 0
M  V30 6801 O 643.134 3.29419 -2.48106 0
M  V30 6802 H 642.475 0.347785 -0.565634 0
M  V30 6803 H 645.005 0.488871 -1.98674 0
M  V30 6804 H 645.015 2.67884 -3.07737 0
M  V30 6805 H 643.69 1.75745 -3.76944 0
M  V30 6806 H 642.267 2.90303 -2.34048 0
M  V30 6807 N 644.452 1.42507 0.673017 0
M  V30 6808 C 645.698 1.43284 1.43519 0
M  V30 6809 C 646.031 0.049668 1.94136 0
M  V30 6810 O 645.306 -0.926369 1.71022 0
M  V30 6811 C 645.589 2.45874 2.63093 0
M  V30 6812 C 645.442 3.93388 2.18096 0
M  V30 6813 C 646.761 2.45431 3.6531 0
M  V30 6814 H 643.88 0.521752 0.520522 0
M  V30 6815 H 646.522 1.73932 0.764701 0
M  V30 6816 H 644.672 2.19869 3.20296 0
M  V30 6817 H 646.344 4.30379 1.66046 0
M  V30 6818 H 644.587 4.07169 1.49652 0
M  V30 6819 H 645.258 4.60752 3.03993 0
M  V30 6820 H 647.734 2.68561 3.17827 0
M  V30 6821 H 646.61 3.19189 4.46553 0
M  V30 6822 H 646.871 1.48092 4.16559 0
M  V30 6823 N 645.93 -0.909495 1.28709 0
M  V30 6824 C 647.178 -1.65577 1.15882 0
M  V30 6825 C 647.499 -1.928 -0.292108 0
M  V30 6826 O 646.769 -1.54716 -1.20166 0
M  V30 6827 H 645.349 -0.613714 0.425869 0
M  V30 6828 H 648.011 -1.09108 1.61498 0
M  V30 6829 H 647.107 -2.61634 1.70159 0
M  V30 6830 N 647.408 -1.11026 -1.11852 0
M  V30 6831 C 648.338 -0.786812 -2.19844 0
M  V30 6832 C 649.319 0.242935 -1.68356 0
M  V30 6833 O 650.504 0.107355 -1.93903 0
M  V30 6834 C 647.634 -0.224516 -3.46574 0
M  V30 6835 C 646.588 -1.18564 -4.1125 0
M  V30 6836 C 645.914 -0.484261 -5.32503 0
M  V30 6837 C 647.214 -2.53465 -4.56676 0
M  V30 6838 H 648.908 -1.68978 -2.47158 0
M  V30 6839 H 646.454 -0.813906 -1.18792 0
M  V30 6840 H 648.407 0.0139435 -4.21398 0
M  V30 6841 H 647.131 0.713722 -3.18706 0
M  V30 6842 H 645.79 -1.40966 -3.38414 0
M  V30 6843 H 645.438 0.458646 -5.00905 0
M  V30 6844 H 645.138 -1.12526 -5.76725 0
M  V30 6845 H 646.662 -0.254492 -6.10069 0
M  V30 6846 H 648.076 -2.35177 -5.22843 0
M  V30 6847 H 646.473 -3.13507 -5.11697 0
M  V30 6848 H 647.543 -3.13008 -3.70343 0
M  V30 6849 N 648.886 1.2938 -0.899927 0
M  V30 6850 C 650.297 1.77644 -0.574427 0
M  V30 6851 C 650.648 1.73824 0.909928 0
M  V30 6852 O 649.773 1.32429 1.71147 0
M  V30 6853 C 650.368 3.22573 -1.03595 0
M  V30 6854 C 648.927 3.68614 -0.76161 0
M  V30 6855 C 648.074 2.49483 -1.21052 0
M  V30 6856 H 651.025 1.16038 -1.08263 0
M  V30 6857 H 651.046 3.78684 -0.371337 0
M  V30 6858 H 650.558 3.25321 -2.11631 0
M  V30 6859 H 648.659 3.7134 0.306127 0
M  V30 6860 H 648.772 4.59402 -1.35965 0
M  V30 6861 H 647.136 2.46798 -0.629515 0
M  V30 6862 H 647.919 2.54959 -2.29893 0
M  V30 6863 N 650.364 0.662433 1.43002 0
M  V30 6864 C 651.592 0.187615 2.06048 0
M  V30 6865 C 652.007 -1.15039 1.49705 0
M  V30 6866 O 651.364 -1.71209 0.631956 0
M  V30 6867 C 651.415 0.100498 3.6136 0
M  V30 6868 O 651.136 1.38562 4.15611 0
M  V30 6869 C 652.637 -0.399298 4.41498 0
M  V30 6870 H 649.857 0.0941675 0.664359 0
M  V30 6871 H 652.401 0.905681 1.83351 0
M  V30 6872 H 650.556 -0.568181 3.83211 0
M  V30 6873 H 650.97 1.25084 5.09366 0
M  V30 6874 H 652.444 -0.409187 5.50481 0
M  V30 6875 H 652.921 -1.43232 4.15188 0
M  V30 6876 H 653.527 0.23721 4.24638 0
M  V30 6877 N 651.842 -1.52309 0.404946 0
M  V30 6878 C 653.119 -1.94237 -0.230544 0
M  V30 6879 C 653.499 -1.34154 -1.6299 0
M  V30 6880 O 652.847 -0.515713 -2.22604 0
M  V30 6881 C 653.057 -3.48166 -0.241106 0
M  V30 6882 C 654.405 -4.22074 -0.462488 0
M  V30 6883 O 655.429 -3.54754 -0.320644 0
M  V30 6884 O 654.288 -5.41443 -0.741708 0
M  V30 6885 H 651.382 -0.813766 -0.147358 0
M  V30 6886 H 653.928 -1.6333 0.460587 0
M  V30 6887 H 652.7 -3.84269 0.738467 0
M  V30 6888 H 652.323 -3.85422 -0.97651 0
M  V30 6889 N 653.32 -0.135238 -1.57019 0
M  V30 6890 C 654.597 0.563227 -1.87316 0
M  V30 6891 C 654.977 1.83749 -1.03921 0
M  V30 6892 O 654.325 2.2817 -0.122675 0
M  V30 6893 C 654.535 0.840031 -3.3874 0
M  V30 6894 C 655.883 1.18598 -4.077 0
M  V30 6895 O 656.907 0.92977 -3.43851 0
M  V30 6896 O 655.766 1.66758 -5.20436 0
M  V30 6897 H 652.86 0.285971 -0.775983 0
M  V30 6898 H 655.406 -0.170965 -1.68837 0
M  V30 6899 H 654.178 -0.0622785 -3.9125 0
M  V30 6900 H 653.801 1.62882 -3.62706 0
M  V30 6901 N 654.798 1.5699 0.138552 0
M  V30 6902 C 656.047 1.82998 0.848205 0
M  V30 6903 C 656.36 0.717829 1.81952 0
M  V30 6904 O 657.566 0.863756 2.57394 0
M  V30 6905 C 656.022 3.24379 1.55904 0
M  V30 6906 C 655.63 4.43552 0.62971 0
M  V30 6907 C 657.374 3.59654 2.25498 0
M  V30 6908 C 655.281 5.75957 1.34266 0
M  V30 6909 H 654.211 0.682495 0.320495 0
M  V30 6910 H 656.862 1.83222 0.100924 0
M  V30 6911 H 655.244 3.18567 2.35226 0
M  V30 6912 H 656.418 4.6062 -0.128882 0
M  V30 6913 H 654.733 4.16379 0.0417526 0
M  V30 6914 H 657.33 4.55837 2.79493 0
M  V30 6915 H 657.673 2.86124 3.02388 0
M  V30 6916 H 658.206 3.67164 1.53087 0
M  V30 6917 H 654.945 6.52604 0.615441 0
M  V30 6918 H 654.465 5.62811 2.07375 0
M  V30 6919 H 656.144 6.19046 1.88126 0
M  V30 6920 N 656.276 -0.40816 1.52223 0
M  V30 6921 C 657.504 -1.17672 1.70179 0
M  V30 6922 C 657.919 -1.84257 0.411696 0
M  V30 6923 O 657.276 -1.7192 -0.612354 0
M  V30 6924 C 657.327 -2.23911 2.83806 0
M  V30 6925 O 657.048 -1.60044 4.0782 0
M  V30 6926 C 658.549 -3.1364 3.13281 0
M  V30 6927 H 655.769 -0.353562 0.570293 0
M  V30 6928 H 658.313 -0.480083 1.98785 0
M  V30 6929 H 656.468 -2.89242 2.57717 0
M  V30 6930 H 656.882 -2.30484 4.71145 0
M  V30 6931 H 658.356 -3.84255 3.96298 0
M  V30 6932 H 658.833 -3.76066 2.26872 0
M  V30 6933 H 659.439 -2.53977 3.41139 0
M  V30 6934 N 657.755 -1.42862 -0.66545 0
M  V30 6935 C 658.685 -1.49867 -1.79059 0
M  V30 6936 C 659.666 -0.354394 -1.66367 0
M  V30 6937 O 660.851 -0.569969 -1.85647 0
M  V30 6938 C 657.981 -1.40943 -3.17415 0
M  V30 6939 C 656.935 -2.53495 -3.44854 0
M  V30 6940 C 656.261 -2.29626 -4.82883 0
M  V30 6941 C 657.561 -3.95781 -3.40815 0
M  V30 6942 H 659.255 -2.44037 -1.73453 0
M  V30 6943 H 656.801 -1.17456 -0.833071 0
M  V30 6944 H 658.754 -1.4445 -3.95869 0
M  V30 6945 H 657.478 -0.432716 -3.23721 0
M  V30 6946 H 656.137 -2.4932 -2.68766 0
M  V30 6947 H 655.785 -1.30226 -4.8585 0
M  V30 6948 H 655.485 -3.05065 -5.02204 0
M  V30 6949 H 657.009 -2.34897 -5.63609 0
M  V30 6950 H 658.423 -4.01508 -4.09224 0
M  V30 6951 H 656.82 -4.71148 -3.71672 0
M  V30 6952 H 657.89 -4.21786 -2.39216 0
M  V30 6953 N 659.233 0.902656 -1.29189 0
M  V30 6954 C 660.482 1.6475 -1.16362 0
M  V30 6955 C 660.795 1.93517 0.284682 0
M  V30 6956 O 662.001 2.66192 0.534229 0
M  V30 6957 C 660.457 2.96848 -2.03493 0
M  V30 6958 C 660.065 2.75687 -3.5313 0
M  V30 6959 C 661.809 3.74762 -1.99383 0
M  V30 6960 C 659.716 4.03492 -4.32375 0
M  V30 6961 H 658.646 0.618041 -0.431904 0
M  V30 6962 H 661.297 1.0008 -1.53806 0
M  V30 6963 H 659.679 3.62715 -1.58916 0
M  V30 6964 H 660.853 2.18431 -4.05739 0
M  V30 6965 H 659.168 2.11171 -3.58881 0
M  V30 6966 H 661.765 4.69515 -2.5585 0
M  V30 6967 H 662.108 4.04767 -0.973123 0
M  V30 6968 H 662.641 3.15732 -2.41988 0
M  V30 6969 H 659.38 3.78656 -5.3507 0
M  V30 6970 H 658.9 4.60318 -3.84535 0
M  V30 6971 H 660.579 4.71662 -4.42881 0
M  V30 6972 N 660.711 1.11618 1.11262 0
M  V30 6973 C 661.96 0.860934 1.82403 0
M  V30 6974 C 662.273 -0.615303 1.8567 0
M  V30 6975 O 663.479 -0.986861 2.52929 0
M  V30 6976 C 661.935 1.49048 3.27586 0
M  V30 6977 C 661.543 3.00089 3.32642 0
M  V30 6978 C 663.287 1.31515 4.03614 0
M  V30 6979 C 661.194 3.56019 4.72234 0
M  V30 6980 H 660.124 0.318423 0.683464 0
M  V30 6981 H 662.775 1.34165 1.25188 0
M  V30 6982 H 661.157 0.937434 3.84744 0
M  V30 6983 H 662.331 3.61813 2.85356 0
M  V30 6984 H 660.646 3.16919 2.70096 0
M  V30 6985 H 663.243 1.70732 5.0671 0
M  V30 6986 H 663.586 0.257917 4.155 0
M  V30 6987 H 664.119 1.83694 3.52848 0
M  V30 6988 H 660.858 4.61463 4.65545 0
M  V30 6989 H 660.378 2.99066 5.19923 0
M  V30 6990 H 662.057 3.54568 5.41193 0
M  V30 6991 N 662.189 -1.289 0.906776 0
M  V30 6992 C 663.152 -2.25777 0.394656 0
M  V30 6993 C 664.152 -1.53621 -0.475119 0
M  V30 6994 O 665.342 -1.71949 -0.279165 0
M  V30 6995 C 662.474 -3.38113 -0.43499 0
M  V30 6996 H 663.667 -2.72592 1.25033 0
M  V30 6997 H 661.22 -1.40463 0.685547 0
M  V30 6998 H 661.955 -2.96648 -1.31036 0
M  V30 6999 H 661.74 -3.91647 0.188334 0
M  V30 7000 H 663.23 -4.10168 -0.784365 0
M  V30 7001 N 663.667 -0.670007 -1.42649 0
M  V30 7002 C 664.913 -0.190568 -2.01903 0
M  V30 7003 C 665.246 1.19817 -1.52832 0
M  V30 7004 O 664.521 1.80342 -0.728485 0
M  V30 7005 C 664.804 -0.21991 -3.59428 0
M  V30 7006 C 664.657 -1.64376 -4.18689 0
M  V30 7007 C 665.976 0.434519 -4.3795 0
M  V30 7008 H 663.095 -0.0707219 -0.733599 0
M  V30 7009 H 665.737 -0.853883 -1.69732 0
M  V30 7010 H 663.887 0.344894 -3.86966 0
M  V30 7011 H 665.559 -2.26044 -4.02122 0
M  V30 7012 H 663.802 -2.18591 -3.747 0
M  V30 7013 H 664.473 -1.61601 -5.27815 0
M  V30 7014 H 666.949 -0.0462156 -4.16074 0
M  V30 7015 H 665.825 0.38333 -5.4756 0
M  V30 7016 H 666.086 1.51135 -4.15464 0
M  V30 7017 N 665.145 1.52092 -0.413018 0
M  V30 7018 C 666.422 1.94356 0.22024 0
M  V30 7019 C 666.802 1.35017 1.62277 0
M  V30 7020 O 666.15 0.527511 2.22328 0
M  V30 7021 C 666.36 3.48289 0.222638 0
M  V30 7022 C 667.708 4.22313 0.440098 0
M  V30 7023 O 668.732 3.54919 0.301826 0
M  V30 7024 O 667.591 5.41829 0.712984 0
M  V30 7025 H 664.685 0.814536 0.14304 0
M  V30 7026 H 667.231 1.63083 -0.469242 0
M  V30 7027 H 666.003 3.83872 -0.758836 0
M  V30 7028 H 665.626 3.85934 0.956057 0
M  V30 7029 N 666.623 0.143563 1.56945 0
M  V30 7030 C 667.869 -0.502787 1.97088 0
M  V30 7031 C 668.224 -1.62703 1.02691 0
M  V30 7032 O 667.517 -1.91502 0.0613323 0
M  V30 7033 C 667.711 -1.05885 3.41355 0
M  V30 7034 C 667.54 0.00998209 4.49699 0
M  V30 7035 C 666.31 0.450229 5.0329 0
M  V30 7036 C 668.508 0.800174 5.08037 0
M  V30 7037 N 666.49 1.50227 5.95235 0
M  V30 7038 C 667.861 1.70279 5.96158 0
M  V30 7039 C 669.916 0.848344 4.9062 0
M  V30 7040 C 668.619 2.64945 6.68728 0
M  V30 7041 C 670.645 1.78281 5.63888 0
M  V30 7042 C 670.007 2.67296 6.51715 0
M  V30 7043 H 666.106 -0.152891 0.766908 0
M  V30 7044 H 668.69 0.23737 1.93248 0
M  V30 7045 H 666.861 -1.76863 3.45795 0
M  V30 7046 H 668.593 -1.67154 3.68567 0
M  V30 7047 H 665.348 0.0531355 4.7357 0
M  V30 7048 H 665.772 2.02795 6.45913 0
M  V30 7049 H 670.414 0.174228 4.22441 0
M  V30 7050 H 668.132 3.33358 7.36137 0
M  V30 7051 H 671.718 1.82584 5.52408 0
M  V30 7052 H 670.598 3.38428 7.07415 0
M  V30 7053 N 668.101 -1.57061 -0.130224 0
M  V30 7054 C 669.064 -1.98593 -1.14426 0
M  V30 7055 C 670.064 -0.874584 -1.34936 0
M  V30 7056 O 671.254 -1.14086 -1.31643 0
M  V30 7057 C 668.386 -2.31639 -2.50112 0
M  V30 7058 H 669.579 -2.89374 -0.787561 0
M  V30 7059 H 667.132 -1.51756 -0.374146 0
M  V30 7060 H 667.867 -1.43703 -2.90723 0
M  V30 7061 H 667.652 -3.12684 -2.36583 0
M  V30 7062 H 669.142 -2.64551 -3.23114 0
M  V30 7063 N 669.579 0.400081 -1.52437 0
M  V30 7064 C 670.509 1.4947 -1.7939 0
M  V30 7065 C 671.49 1.57383 -0.645329 0
M  V30 7066 O 672.675 1.72511 -0.891826 0
M  V30 7067 C 669.805 2.87201 -1.95276 0
M  V30 7068 C 668.759 2.94134 -3.10917 0
M  V30 7069 C 668.085 4.34207 -3.1204 0
M  V30 7070 C 669.385 2.64791 -4.50203 0
M  V30 7071 H 671.079 1.27165 -2.71052 0
M  V30 7072 H 668.625 0.610312 -1.30427 0
M  V30 7073 H 670.578 3.63772 -2.12715 0
M  V30 7074 H 669.302 3.10819 -1.00294 0
M  V30 7075 H 667.961 2.20009 -2.93243 0
M  V30 7076 H 667.609 4.54848 -2.14761 0
M  V30 7077 H 667.309 4.39768 -3.89715 0
M  V30 7078 H 668.833 5.127 -3.31619 0
M  V30 7079 H 670.247 3.31083 -4.68035 0
M  V30 7080 H 668.644 2.81717 -5.29864 0
M  V30 7081 H 669.714 1.60184 -4.57678 0
M  V30 7082 N 671.057 1.43213 0.657864 0
M  V30 7083 C 672.334 1.35063 1.41483 0
M  V30 7084 C 672.714 -0.0038314 2.111 0
M  V30 7085 O 672.062 -1.02018 2.04462 0
M  V30 7086 C 672.272 2.53061 2.40335 0
M  V30 7087 C 673.62 2.9594 3.04474 0
M  V30 7088 O 674.644 2.53074 2.50663 0
M  V30 7089 O 673.503 3.70184 4.02027 0
M  V30 7090 H 670.597 0.533517 0.631893 0
M  V30 7091 H 673.143 1.55253 0.685162 0
M  V30 7092 H 671.915 3.43283 1.87809 0
M  V30 7093 H 671.538 2.34945 3.20759 0
M  V30 7094 N 672.536 -0.895792 1.29666 0
M  V30 7095 C 673.952 -1.17726 1.07763 0
M  V30 7096 C 674.152 -2.00794 -0.168576 0
M  V30 7097 O 673.208 -2.37213 -0.865244 0
M  V30 7098 C 674.521 -1.89441 2.33522 0
M  V30 7099 C 676.069 -2.02251 2.3888 0
M  V30 7100 C 676.544 -2.77378 3.64452 0
M  V30 7101 N 678.035 -2.8493 3.65198 0
M  V30 7102 C 678.77 -3.43606 4.59045 0
M  V30 7103 N 678.266 -4.03417 5.63228 0
M  V30 7104 N 680.059 -3.41317 4.46608 0
M  V30 7105 H 672.21 -0.341652 2.09634 0
M  V30 7106 H 674.473 -0.213865 0.923561 0
M  V30 7107 H 674.179 -1.35842 3.24407 0
M  V30 7108 H 674.053 -2.89893 2.41334 0
M  V30 7109 H 676.44 -2.55025 1.4848 0
M  V30 7110 H 676.521 -1.0092 2.3505 0
M  V30 7111 H 676.165 -2.25279 4.55205 0
M  V30 7112 H 676.095 -3.79062 3.65541 0
M  V30 7113 H 678.586 -2.42453 2.89871 0
M  V30 7114 H 678.899 -4.46224 6.30955 0
M  V30 7115 H 677.244 -4.01868 5.67033 0
M  V30 7116 H 680.435 -2.93812 3.64407 0
M  V30 7117 H 680.608 -3.86751 5.1993 0
M  V30 7118 N 674.014 -1.12206 -1.10668 0
M  V30 7119 C 675.261 -0.875875 -1.82578 0
M  V30 7120 C 675.589 0.598342 -1.85068 0
M  V30 7121 O 674.844 1.45818 -1.3052 0
M  V30 7122 C 675.143 -1.39276 -3.29146 0
M  V30 7123 C 674.809 -2.8816 -3.46806 0
M  V30 7124 C 673.471 -3.28813 -3.51334 0
M  V30 7125 C 675.823 -3.8401 -3.52399 0
M  V30 7126 C 673.151 -4.64028 -3.59019 0
M  V30 7127 C 675.503 -5.19053 -3.61617 0
M  V30 7128 C 674.167 -5.59252 -3.64408 0
M  V30 7129 H 673.437 -0.320505 -0.6681 0
M  V30 7130 H 676.084 -1.40184 -1.30464 0
M  V30 7131 H 674.389 -0.787207 -3.8381 0
M  V30 7132 H 676.086 -1.17851 -3.83291 0
M  V30 7133 H 672.676 -2.55716 -3.43958 0
M  V30 7134 H 676.86 -3.53698 -3.48154 0
M  V30 7135 H 672.116 -4.94568 -3.59461 0
M  V30 7136 H 676.29 -5.93152 -3.64889 0
M  V30 7137 H 673.917 -6.64017 -3.70116 0
M  V30 7138 N 675.492 1.28418 -0.913599 0
M  V30 7139 C 676.908 1.47411 -0.611728 0
M  V30 7140 C 677.108 1.83018 0.843008 0
M  V30 7141 O 676.164 1.93505 1.6221 0
M  V30 7142 C 677.477 2.57703 -1.5495 0
M  V30 7143 C 679.025 2.71572 -1.5562 0
M  V30 7144 C 679.5 3.85008 -2.48058 0
M  V30 7145 N 680.991 3.92361 -2.46184 0
M  V30 7146 C 681.726 4.79516 -3.14407 0
M  V30 7147 N 681.222 5.71262 -3.91958 0
M  V30 7148 N 683.015 4.73125 -3.03495 0
M  V30 7149 H 675.166 1.03585 -1.85429 0
M  V30 7150 H 677.429 0.515907 -0.795326 0
M  V30 7151 H 677.135 2.38298 -2.58663 0
M  V30 7152 H 677.009 3.54801 -1.28048 0
M  V30 7153 H 679.396 2.90366 -0.526441 0
M  V30 7154 H 679.477 1.75006 -1.86565 0
M  V30 7155 H 679.121 3.66969 -3.51136 0
M  V30 7156 H 679.051 4.80971 -2.14416 0
M  V30 7157 H 681.542 3.26749 -1.89851 0
M  V30 7158 H 681.855 6.34593 -4.41034 0
M  V30 7159 H 680.2 5.71103 -3.96063 0
M  V30 7160 H 683.391 4.00442 -2.42413 0
M  V30 7161 H 683.564 5.40834 -3.56935 0
M  V30 7162 N 676.97 0.677563 1.42291 0
M  V30 7163 C 678.198 0.209459 2.05837 0
M  V30 7164 C 678.613 -1.13444 1.50917 0
M  V30 7165 O 677.97 -1.70529 0.65008 0
M  V30 7166 C 678.021 0.138819 3.61233 0
M  V30 7167 O 677.742 1.42962 4.14118 0
M  V30 7168 C 679.243 -0.352449 4.41897 0
M  V30 7169 H 676.463 0.101209 0.663323 0
M  V30 7170 H 679.007 0.925077 1.8238 0
M  V30 7171 H 677.162 -0.527505 3.83792 0
M  V30 7172 H 677.576 1.3048 5.08011 0
M  V30 7173 H 679.05 -0.350778 5.50884 0
M  V30 7174 H 679.527 -1.3882 4.16684 0
M  V30 7175 H 680.133 0.282236 4.24362 0
M  V30 7176 N 678.448 -1.51871 0.421078 0
M  V30 7177 C 679.381 -2.23851 -0.443369 0
M  V30 7178 C 680.359 -1.25142 -1.03818 0
M  V30 7179 O 681.543 -1.5423 -1.08377 0
M  V30 7180 C 678.67 -2.97637 -1.61648 0
M  V30 7181 C 677.716 -4.10873 -1.14391 0
M  V30 7182 S 678.549 -5.35408 -0.0992403 0
M  V30 7183 C 679.705 -6.12726 -1.27739 0
M  V30 7184 H 679.938 -2.96826 0.167786 0
M  V30 7185 H 677.471 -1.53027 0.205461 0
M  V30 7186 H 679.429 -3.40751 -2.28909 0
M  V30 7187 H 678.09 -2.24282 -2.199 0
M  V30 7188 H 677.283 -4.61718 -2.02069 0
M  V30 7189 H 676.885 -3.69937 -0.549775 0
M  V30 7190 H 679.177 -6.40827 -2.19881 0
M  V30 7191 H 680.12 -7.03461 -0.809239 0
M  V30 7192 H 680.528 -5.43968 -1.5086 0
M  V30 7193 N 679.926 -0.151884 -1.56866 0
M  V30 7194 C 681.175 0.497992 -1.95456 0
M  V30 7195 C 681.488 1.6569 -1.03953 0
M  V30 7196 O 682.694 2.37173 -1.32142 0
M  V30 7197 C 681.15 0.93732 -3.4748 0
M  V30 7198 C 680.758 -0.194921 -4.47576 0
M  V30 7199 C 682.502 1.55671 -3.94926 0
M  V30 7200 C 680.409 0.26295 -5.90815 0
M  V30 7201 H 679.339 0.189811 -0.729717 0
M  V30 7202 H 681.99 -0.237011 -1.81963 0
M  V30 7203 H 680.372 1.72773 -3.56322 0
M  V30 7204 H 681.546 -0.971951 -4.50433 0
M  V30 7205 H 679.861 -0.72303 -4.10075 0
M  V30 7206 H 682.458 1.91099 -4.99385 0
M  V30 7207 H 682.801 2.44748 -3.36755 0
M  V30 7208 H 683.334 0.831109 -3.89021 0
M  V30 7209 H 680.073 -0.592568 -6.52816 0
M  V30 7210 H 679.593 1.00575 -5.91308 0
M  V30 7211 H 681.272 0.713333 -6.43056 0
M  V30 7212 N 681.404 1.57128 0.121893 0
M  V30 7213 C 682.352 2.01109 1.16868 0
M  V30 7214 C 683.346 0.907532 1.43039 0
M  V30 7215 O 684.552 1.09274 1.43036 0
M  V30 7216 H 680.927 0.640539 0.393971 0
M  V30 7217 H 682.898 2.88261 0.771224 0
M  V30 7218 C 681.647 2.42887 2.48799 0
M  V30 7219 H 680.97 3.2737 2.29498 0
M  V30 7220 H 682.41 2.77461 3.20611 0
M  V30 7221 C 680.869 1.29137 3.11168 0
M  V30 7222 O 681.399 0.605756 3.97106 0
M  V30 7223 N 679.605 1.04916 2.71 0
M  V30 7224 H 679.152 1.60848 2.01211 0
M  V30 7225 H 679.11 0.290016 3.1306 0
M  V30 7226 N 682.882 -0.391992 1.52647 0
M  V30 7227 C 684.128 -1.139 1.67793 0
M  V30 7228 C 684.461 -1.89711 0.41514 0
M  V30 7229 O 683.736 -1.85431 -0.586979 0
M  V30 7230 C 684.019 -2.11966 2.91105 0
M  V30 7231 C 683.872 -1.39939 4.27478 0
M  V30 7232 C 685.191 -3.1243 3.09961 0
M  V30 7233 H 682.31 -0.412707 0.610608 0
M  V30 7234 H 684.952 -0.422725 1.85238 0
M  V30 7235 H 683.102 -2.73048 2.76364 0
M  V30 7236 H 684.774 -0.818439 4.53982 0
M  V30 7237 H 683.017 -0.701246 4.28095 0
M  V30 7238 H 683.688 -2.1158 5.09841 0
M  V30 7239 H 686.164 -2.61435 3.23714 0
M  V30 7240 H 685.04 -3.78294 3.97725 0
M  V30 7241 H 685.301 -3.81127 2.24042 0
M  V30 7242 N 684.36 -1.4356 -0.65026 0
M  V30 7243 C 685.29 -1.51758 -1.77459 0
M  V30 7244 C 686.271 -0.372019 -1.65982 0
M  V30 7245 O 687.456 -0.589627 -1.85033 0
M  V30 7246 C 684.586 -1.44302 -3.15902 0
M  V30 7247 C 683.54 -2.57138 -3.42146 0
M  V30 7248 C 682.866 -2.34735 -4.8042 0
M  V30 7249 C 684.166 -3.99373 -3.36598 0
M  V30 7250 H 685.86 -2.45863 -1.70855 0
M  V30 7251 H 683.406 -1.18333 -0.820566 0
M  V30 7252 H 685.359 -1.48641 -3.94314 0
M  V30 7253 H 684.083 -0.467026 -3.23244 0
M  V30 7254 H 682.742 -2.52157 -2.66106 0
M  V30 7255 H 682.39 -1.35372 -4.84441 0
M  V30 7256 H 682.09 -3.10375 -4.9894 0
M  V30 7257 H 683.614 -2.40862 -5.61086 0
M  V30 7258 H 685.028 -4.05826 -4.04942 0
M  V30 7259 H 683.425 -4.75063 -3.66654 0
M  V30 7260 H 684.495 -4.243 -2.34729 0
M  V30 7261 N 685.838 0.888903 -1.30139 0
M  V30 7262 C 687.086 1.63713 -1.18501 0
M  V30 7263 C 687.407 1.9324 0.261399 0
M  V30 7264 O 686.677 1.56608 1.17689 0
M  V30 7265 H 685.257 0.606861 -0.435579 0
M  V30 7266 H 687.919 1.06525 -1.63213 0
M  V30 7267 H 687.015 2.58894 -1.743 0
M  V30 7268 N 687.317 1.12792 1.10072 0
M  V30 7269 C 688.594 0.796867 1.78632 0
M  V30 7270 C 688.974 -0.712739 1.98704 0
M  V30 7271 O 688.322 -1.64773 1.5831 0
M  V30 7272 C 688.532 1.57622 3.11378 0
M  V30 7273 C 689.88 1.76463 3.86194 0
M  V30 7274 O 690.904 1.54165 3.2111 0
M  V30 7275 O 689.763 2.13623 5.03018 0
M  V30 7276 H 686.857 0.290248 0.774394 0
M  V30 7277 H 689.403 1.23215 1.16688 0
M  V30 7278 H 688.175 2.60246 2.92212 0
M  V30 7279 H 687.798 1.13543 3.81043 0
M  V30 7280 N 688.795 -1.27931 0.920396 0
M  V30 7281 C 689.758 -2.25345 0.41858 0
M  V30 7282 C 690.758 -1.54116 -0.458798 0
M  V30 7283 O 691.948 -1.72235 -0.260912 0
M  V30 7284 C 689.08 -3.38556 -0.399104 0
M  V30 7285 H 690.273 -2.71251 1.27918 0
M  V30 7286 H 687.826 -1.39728 0.700406 0
M  V30 7287 H 688.561 -2.98021 -1.27882 0
M  V30 7288 H 688.346 -3.91426 0.229863 0
M  V30 7289 H 689.836 -4.10976 -0.740817 0
M  V30 7290 N 690.273 -0.685099 -1.4193 0
M  V30 7291 C 691.203 -0.0273506 -2.33484 0
M  V30 7292 C 692.184 0.778366 -1.51246 0
M  V30 7293 O 693.369 0.733449 -1.79817 0
M  V30 7294 C 690.499 0.917272 -3.34968 0
M  V30 7295 C 689.453 0.21941 -4.27437 0
M  V30 7296 C 688.779 1.27768 -5.1921 0
M  V30 7297 C 690.079 -0.907894 -5.14349 0
M  V30 7298 H 691.773 -0.791994 -2.88735 0
M  V30 7299 H 689.319 -0.382308 -1.38832 0
M  V30 7300 H 691.272 1.38657 -3.97935 0
M  V30 7301 H 689.996 1.71346 -2.78043 0
M  V30 7302 H 688.655 -0.229757 -3.65879 0
M  V30 7303 H 688.303 2.06612 -4.58607 0
M  V30 7304 H 688.003 0.815803 -5.81909 0
M  V30 7305 H 689.527 1.7477 -5.85054 0
M  V30 7306 H 690.941 -0.519348 -5.70943 0
M  V30 7307 H 689.338 -1.2962 -5.85934 0
M  V30 7308 H 690.408 -1.75218 -4.52136 0
M  V30 7309 N 691.751 1.51645 -0.429126 0
M  V30 7310 C 692.714 2.26116 0.374726 0
M  V30 7311 C 693.714 1.29242 0.956714 0
M  V30 7312 O 694.904 1.53022 0.832452 0
M  V30 7313 C 692.036 3.04669 1.52937 0
M  V30 7314 H 693.229 2.9861 -0.277818 0
M  V30 7315 H 690.782 1.55236 -0.182097 0
M  V30 7316 H 691.517 2.36571 2.21821 0
M  V30 7317 H 691.302 3.75814 1.11833 0
M  V30 7318 H 692.792 3.61102 2.09751 0
M  V30 7319 N 693.229 0.160201 1.56784 0
M  V30 7320 C 694.192 -0.760405 2.16219 0
M  V30 7321 C 695.192 -1.16595 1.10735 0
M  V30 7322 O 696.382 -1.08472 1.36306 0
M  V30 7323 C 693.514 -2.03358 2.73603 0
M  V30 7324 H 694.707 -0.243173 2.98912 0
M  V30 7325 H 692.26 -0.0893139 1.56045 0
M  V30 7326 H 692.995 -2.59416 1.94612 0
M  V30 7327 H 692.78 -1.75186 3.50788 0
M  V30 7328 H 694.27 -2.69081 3.19351 0
M  V30 7329 N 694.707 -1.5719 -0.113559 0
M  V30 7330 C 695.955 -1.84772 -0.818761 0
M  V30 7331 C 696.276 -0.746196 -1.80158 0
M  V30 7332 O 695.546 0.229305 -1.94553 0
M  V30 7333 H 694.126 -0.681737 -0.305359 0
M  V30 7334 H 696.788 -1.94645 -0.0995845 0
M  V30 7335 H 695.884 -2.80878 -1.36067 0
M  V30 7336 N 696.185 0.383891 -1.52853 0
M  V30 7337 C 697.434 1.12563 -1.67369 0
M  V30 7338 C 697.747 1.90982 -0.422533 0
M  V30 7339 O 698.953 2.6778 -0.447914 0
M  V30 7340 C 697.409 2.05011 -2.95801 0
M  V30 7341 C 697.017 1.31991 -4.28115 0
M  V30 7342 C 698.761 2.79289 -3.19684 0
M  V30 7343 C 696.668 2.23235 -5.4765 0
M  V30 7344 H 695.598 0.42391 -0.623552 0
M  V30 7345 H 698.249 0.388016 -1.79351 0
M  V30 7346 H 696.631 2.82429 -2.77578 0
M  V30 7347 H 697.805 0.597633 -4.56908 0
M  V30 7348 H 696.12 0.696517 -4.10533 0
M  V30 7349 H 698.717 3.47749 -4.06171 0
M  V30 7350 H 699.06 3.43649 -2.3497 0
M  V30 7351 H 699.593 2.08962 -3.38496 0
M  V30 7352 H 696.332 1.63482 -6.34786 0
M  V30 7353 H 695.852 2.93364 -5.23161 0
M  V30 7354 H 697.531 2.83205 -5.81725 0
M  V30 7355 N 697.663 1.43903 0.642637 0
M  V30 7356 C 698.596 1.44339 1.76753 0
M  V30 7357 C 699.574 0.303558 1.59741 0
M  V30 7358 O 700.758 0.498775 1.81781 0
M  V30 7359 C 697.885 1.26508 3.14187 0
M  V30 7360 C 696.931 2.43905 3.49875 0
M  V30 7361 S 697.764 4.0645 3.48653 0
M  V30 7362 C 698.92 3.91021 4.88726 0
M  V30 7363 H 699.153 2.39523 1.76113 0
M  V30 7364 H 696.686 1.31061 0.81623 0
M  V30 7365 H 698.644 1.16908 3.93501 0
M  V30 7366 H 697.305 0.328548 3.12377 0
M  V30 7367 H 696.498 2.27262 4.49853 0
M  V30 7368 H 696.1 2.50186 2.77998 0
M  V30 7369 H 698.392 3.54 5.77659 0
M  V30 7370 H 699.335 4.9079 5.10423 0
M  V30 7371 H 699.743 3.23287 4.62759 0
M  V30 7372 N 699.141 -0.881989 1.30609 0
M  V30 7373 C 700.104 -1.96957 1.1722 0
M  V30 7374 C 701.104 -1.60472 0.102598 0
M  V30 7375 O 702.294 -1.70628 0.350943 0
M  V30 7376 C 699.426 -3.31463 0.796572 0
M  V30 7377 H 700.619 -2.10262 2.13846 0
M  V30 7378 H 698.172 -1.06877 1.14048 0
M  V30 7379 H 698.907 -3.23859 -0.169053 0
M  V30 7380 H 698.692 -3.59314 1.56959 0
M  V30 7381 H 700.182 -4.11233 0.72645 0
M  V30 7382 N 700.619 -1.13374 -1.09472 0
M  V30 7383 C 701.569 -0.77946 -2.14263 0
M  V30 7384 C 702.553 0.226271 -1.59301 0
M  V30 7385 O 703.745 0.0302581 -1.76974 0
M  V30 7386 C 700.874 -0.246635 -3.42413 0
M  V30 7387 C 699.96 -1.28124 -4.04283 0
M  V30 7388 N 700.351 -2.48201 -4.40715 0
M  V30 7389 C 698.649 -1.12892 -4.31476 0
M  V30 7390 C 699.35 -3.14347 -4.8945 0
M  V30 7391 N 698.326 -2.41771 -4.86876 0
M  V30 7392 H 702.128 -1.69305 -2.40235 0
M  V30 7393 H 699.642 -1.01598 -1.26695 0
M  V30 7394 H 701.639 0.0254131 -4.16892 0
M  V30 7395 H 700.299 0.661287 -3.17895 0
M  V30 7396 H 701.31 -2.85511 -4.32093 0
M  V30 7397 H 697.987 -0.279117 -4.16566 0
M  V30 7398 H 699.377 -4.16663 -5.27107 0
M  V30 7399 N 702.098 1.27442 -0.927168 0
M  V30 7400 C 703.347 1.93679 -0.563146 0
M  V30 7401 C 703.66 1.73673 0.899837 0
M  V30 7402 O 704.866 2.34247 1.37262 0
M  V30 7403 C 703.322 3.46961 -0.95636 0
M  V30 7404 C 702.93 3.75724 -2.43999 0
M  V30 7405 C 704.674 4.19282 -0.663565 0
M  V30 7406 C 702.581 5.22378 -2.77263 0
M  V30 7407 H 701.511 0.725059 -0.206894 0
M  V30 7408 H 704.162 1.44743 -1.12791 0
M  V30 7409 H 702.544 3.94703 -0.320254 0
M  V30 7410 H 703.718 3.38741 -3.12396 0
M  V30 7411 H 702.033 3.16605 -2.70463 0
M  V30 7412 H 704.63 5.27265 -0.888596 0
M  V30 7413 H 704.973 4.14382 0.399198 0
M  V30 7414 H 705.506 3.7736 -1.25875 0
M  V30 7415 H 702.245 5.32367 -3.82446 0
M  V30 7416 H 701.765 5.6051 -2.13516 0
M  V30 7417 H 703.444 5.9025 -2.64979 0
M  V30 7418 N 703.576 0.692616 1.41565 0
M  V30 7419 C 704.816 0.226453 2.03142 0
M  V30 7420 C 705.18 -1.1512 1.5366 0
M  V30 7421 O 706.381 -1.71305 2.07143 0
M  V30 7422 C 704.652 0.27855 3.56313 0
M  V30 7423 S 706.211 -0.114001 4.38652 0
M  V30 7424 H 703.029 0.0914767 0.705091 0
M  V30 7425 H 705.631 0.909737 1.73043 0
M  V30 7426 H 704.335 1.28325 3.89821 0
M  V30 7427 H 703.866 -0.423981 3.91109 0
M  V30 7428 H 705.881 -1.34256 4.77692 0
M  V30 7429 N 705.054 -1.51416 0.437162 0
M  V30 7430 C 706.47 -1.59349 0.0894459 0
M  V30 7431 C 706.67 -1.44809 -1.40116 0
M  V30 7432 O 705.726 -1.28924 -2.17106 0
M  V30 7433 C 707.039 -2.9446 0.609398 0
M  V30 7434 C 708.587 -3.07769 0.569824 0
M  V30 7435 C 709.062 -4.45404 1.06675 0
M  V30 7436 N 710.553 -4.51723 1.02473 0
M  V30 7437 C 711.288 -5.56544 1.3801 0
M  V30 7438 N 710.784 -6.68784 1.80831 0
M  V30 7439 N 712.577 -5.46901 1.29828 0
M  V30 7440 H 704.728 -1.59112 1.40703 0
M  V30 7441 H 706.991 -0.750031 0.579791 0
M  V30 7442 H 706.697 -3.1047 1.65231 0
M  V30 7443 H 706.571 -3.77184 0.0342236 0
M  V30 7444 H 708.958 -2.91428 -0.464107 0
M  V30 7445 H 709.039 -2.26885 1.1814 0
M  V30 7446 H 708.683 -4.62492 2.09914 0
M  V30 7447 H 708.613 -5.24827 0.431712 0
M  V30 7448 H 711.104 -3.71165 0.710258 0
M  V30 7449 H 711.417 -7.44787 2.06185 0
M  V30 7450 H 709.762 -6.69992 1.84757 0
M  V30 7451 H 712.953 -4.581 0.962397 0
M  V30 7452 H 713.126 -6.2848 1.57851 0
M  V30 7453 N 706.532 -0.168513 -1.56696 0
M  V30 7454 C 707.479 0.762875 -2.17828 0
M  V30 7455 C 708.449 1.22892 -1.11745 0
M  V30 7456 O 709.634 1.29759 -1.39883 0
M  V30 7457 C 706.774 1.9879 -2.82093 0
M  V30 7458 C 705.887 1.56568 -4.02629 0
M  V30 7459 C 705.022 2.74416 -4.54829 0
M  V30 7460 C 704.061 2.28671 -5.67782 0
M  V30 7461 N 703.198 3.39602 -6.14504 0
M  V30 7462 H 708.038 0.23479 -2.97074 0
M  V30 7463 H 705.575 0.104163 -1.46731 0
M  V30 7464 H 707.533 2.70636 -3.17509 0
M  V30 7465 H 706.163 2.48973 -2.05456 0
M  V30 7466 H 705.215 0.744067 -3.73052 0
M  V30 7467 H 706.527 1.18988 -4.844 0
M  V30 7468 H 705.681 3.54423 -4.92412 0
M  V30 7469 H 704.42 3.15254 -3.7211 0
M  V30 7470 H 703.425 1.4711 -5.29753 0
M  V30 7471 H 704.65 1.88894 -6.52301 0
M  V30 7472 H 702.596 3.80021 -5.34715 0
M  V30 7473 H 702.513 3.06105 -6.91257 0
M  V30 7474 H 703.781 4.19902 -6.56737 0
M  V30 7475 N 708.01 1.57248 0.105221 0
M  V30 7476 C 709.287 1.76566 0.841647 0
M  V30 7477 C 709.667 0.747566 1.9742 0
M  V30 7478 O 709.015 -0.225886 2.27381 0
M  V30 7479 C 709.225 3.22016 1.3456 0
M  V30 7480 C 710.573 3.84911 1.79244 0
M  V30 7481 O 711.597 3.25703 1.44207 0
M  V30 7482 O 710.456 4.89008 2.43995 0
M  V30 7483 H 707.55 0.723443 0.400698 0
M  V30 7484 H 710.096 1.69472 0.0878893 0
M  V30 7485 H 708.868 3.87644 0.533685 0
M  V30 7486 H 708.491 3.33703 2.16167 0
M  V30 7487 N 709.488 -0.375779 1.53054 0
M  V30 7488 C 710.735 -1.11948 1.68742 0
M  V30 7489 C 711.063 -1.89596 0.434015 0
M  V30 7490 O 710.318 -1.86787 -0.583867 0
M  V30 7491 C 710.617 -2.11356 2.88207 0
M  V30 7492 C 710.283 -1.50266 4.25124 0
M  V30 7493 C 708.945 -1.33333 4.62359 0
M  V30 7494 C 711.297 -1.05976 5.10312 0
M  V30 7495 C 708.625 -0.706765 5.82427 0
M  V30 7496 C 710.977 -0.447241 6.31017 0
M  V30 7497 C 709.641 -0.265314 6.66973 0
M  V30 7498 H 708.911 -0.409648 0.61747 0
M  V30 7499 H 711.558 -0.402492 1.87222 0
M  V30 7500 H 709.863 -2.89322 2.64197 0
M  V30 7501 H 711.56 -2.68833 2.97539 0
M  V30 7502 H 708.15 -1.64437 3.95801 0
M  V30 7503 H 712.334 -1.17855 4.82104 0
M  V30 7504 H 707.59 -0.554132 6.08884 0
M  V30 7505 H 711.764 -0.0958064 6.96334 0
M  V30 7506 H 709.391 0.222267 7.59875 0
M  V30 7507 N 710.966 -1.44241 -0.634997 0
M  V30 7508 C 711.929 -1.50457 -1.72903 0
M  V30 7509 C 712.929 -0.387058 -1.56072 0
M  V30 7510 O 714.119 -0.649531 -1.61638 0
M  V30 7511 C 711.251 -1.37477 -3.1195 0
M  V30 7512 H 712.444 -2.47907 -1.68767 0
M  V30 7513 H 709.997 -1.31276 -0.84831 0
M  V30 7514 H 710.732 -0.41106 -3.21684 0
M  V30 7515 H 710.517 -2.18506 -3.25573 0
M  V30 7516 H 712.007 -1.44799 -3.91692 0
M  V30 7517 N 712.444 0.87505 -1.31075 0
M  V30 7518 C 713.86 1.15997 -1.09622 0
M  V30 7519 C 714.06 2.01036 0.136611 0
M  V30 7520 O 713.116 2.38559 0.827397 0
M  V30 7521 C 714.429 1.85702 -2.36506 0
M  V30 7522 C 715.977 1.98425 -2.42067 0
M  V30 7523 C 716.452 2.71544 -3.68819 0
M  V30 7524 N 717.943 2.79084 -3.69684 0
M  V30 7525 C 718.678 3.36259 -4.64454 0
M  V30 7526 N 718.174 3.94406 -5.69575 0
M  V30 7527 N 719.967 3.34169 -4.51982 0
M  V30 7528 H 712.118 0.308258 -2.10151 0
M  V30 7529 H 714.381 0.199145 -0.926847 0
M  V30 7530 H 714.087 1.30663 -3.26527 0
M  V30 7531 H 713.961 2.86017 -2.45915 0
M  V30 7532 H 716.348 2.5263 -1.52518 0
M  V30 7533 H 716.429 0.971682 -2.36626 0
M  V30 7534 H 716.073 2.18008 -4.58732 0
M  V30 7535 H 716.003 3.73198 -3.71525 0
M  V30 7536 H 718.494 2.3781 -2.93691 0
M  V30 7537 H 718.807 4.36129 -6.37974 0
M  V30 7538 H 717.152 3.92797 -5.73355 0
M  V30 7539 H 720.343 2.87977 -3.69035 0
M  V30 7540 H 720.516 3.78431 -5.26017 0
M  V30 7541 N 713.922 1.13953 1.08869 0
M  V30 7542 C 715.199 0.815768 1.77777 0
M  V30 7543 C 715.579 -0.691624 1.99449 0
M  V30 7544 O 714.927 -1.63085 1.60049 0
M  V30 7545 C 715.137 1.60916 3.09689 0
M  V30 7546 C 716.485 1.80549 3.84301 0
M  V30 7547 O 717.509 1.57562 3.19457 0
M  V30 7548 O 716.368 2.18946 5.00724 0
M  V30 7549 H 713.462 0.298445 0.771271 0
M  V30 7550 H 716.008 1.24446 1.15374 0
M  V30 7551 H 714.78 2.6333 2.89435 0
M  V30 7552 H 714.403 1.17578 3.79817 0
M  V30 7553 N 715.4 -1.26948 0.933913 0
M  V30 7554 C 716.628 -1.98186 0.59414 0
M  V30 7555 C 717.043 -1.69614 -0.829257 0
M  V30 7556 O 716.4 -0.960213 -1.55197 0
M  V30 7557 C 716.451 -3.52123 0.818026 0
M  V30 7558 O 716.172 -3.79698 2.18543 0
M  V30 7559 C 717.673 -4.40608 0.48781 0
M  V30 7560 H 714.893 -0.632305 0.224569 0
M  V30 7561 H 717.437 -1.61646 1.25263 0
M  V30 7562 H 715.592 -3.86851 0.206246 0
M  V30 7563 H 716.006 -4.7426 2.24005 0
M  V30 7564 H 717.48 -5.47606 0.695126 0
M  V30 7565 H 717.957 -4.35394 -0.576913 0
M  V30 7566 H 718.563 -4.11411 1.078 0
M  V30 7567 N 716.879 -0.700114 -1.41195 0
M  V30 7568 C 718.127 -0.232546 -2.00758 0
M  V30 7569 C 718.448 1.1734 -1.55745 0
M  V30 7570 O 717.718 1.79262 -0.790058 0
M  V30 7571 H 716.298 -0.0829845 -0.742376 0
M  V30 7572 H 718.96 -0.902289 -1.72756 0
M  V30 7573 H 718.056 -0.253521 -3.11069 0
M  V30 7574 N 718.357 1.51182 -0.445186 0
M  V30 7575 C 719.585 2.06568 0.117091 0
M  V30 7576 C 720 1.31182 1.35781 0
M  V30 7577 O 719.357 0.373605 1.78635 0
M  V30 7578 C 719.408 3.58917 0.431408 0
M  V30 7579 O 719.129 4.31456 -0.760078 0
M  V30 7580 C 720.63 4.30843 1.0435 0
M  V30 7581 H 717.85 0.670985 0.00444436 0
M  V30 7582 H 720.394 1.94666 -0.626525 0
M  V30 7583 H 718.549 3.70708 1.12493 0
M  V30 7584 H 718.963 5.22215 -0.489048 0
M  V30 7585 H 720.437 5.38499 1.21337 0
M  V30 7586 H 720.914 3.89644 2.02667 0
M  V30 7587 H 721.52 4.23516 0.38913 0
M  V30 7588 N 719.835 0.176821 1.56605 0
M  V30 7589 C 720.745 -0.763682 2.21822 0
M  V30 7590 C 721.761 -1.24889 1.21156 0
M  V30 7591 O 722.937 -1.29987 1.53836 0
M  V30 7592 C 720.002 -1.97352 2.8505 0
M  V30 7593 C 719.063 -1.53466 4.00932 0
M  V30 7594 C 718.296 -2.68682 4.61135 0
M  V30 7595 O 718.519 -3.85694 4.20234 0
M  V30 7596 O 717.453 -2.42442 5.50913 0
M  V30 7597 H 721.279 -0.238363 3.02763 0
M  V30 7598 H 718.864 -0.0516331 1.49311 0
M  V30 7599 H 720.746 -2.68096 3.25119 0
M  V30 7600 H 719.421 -2.48779 2.07101 0
M  V30 7601 H 718.328 -0.796551 3.65521 0
M  V30 7602 H 719.661 -1.06724 4.8049 0
M  V30 7603 N 721.313 -1.57302 -0.09688 0
M  V30 7604 C 722.26 -2.01933 -1.11766 0
M  V30 7605 C 723.23 -0.895329 -1.39904 0
M  V30 7606 O 724.415 -1.16119 -1.51397 0
M  V30 7607 C 721.555 -2.44726 -2.43317 0
M  V30 7608 C 720.668 -3.70639 -2.21925 0
M  V30 7609 C 719.803 -4.02318 -3.46862 0
M  V30 7610 C 718.842 -5.21346 -3.20725 0
M  V30 7611 N 717.979 -5.48787 -4.37924 0
M  V30 7612 H 722.819 -2.88919 -0.730075 0
M  V30 7613 H 720.356 -1.42901 -0.348962 0
M  V30 7614 H 722.314 -2.6758 -3.20088 0
M  V30 7615 H 720.944 -1.60753 -2.79926 0
M  V30 7616 H 719.996 -3.55271 -1.35965 0
M  V30 7617 H 721.308 -4.57557 -1.98603 0
M  V30 7618 H 720.462 -4.25939 -4.32042 0
M  V30 7619 H 719.201 -3.13918 -3.73238 0
M  V30 7620 H 718.206 -4.97547 -2.33938 0
M  V30 7621 H 719.431 -6.11343 -2.95697 0
M  V30 7622 H 717.377 -4.63346 -4.64378 0
M  V30 7623 H 717.294 -6.30073 -4.17785 0
M  V30 7624 H 718.562 -5.76943 -5.24173 0
M  V30 7625 N 722.791 0.367657 -1.53252 0
M  V30 7626 C 723.721 1.45632 -1.8252 0
M  V30 7627 C 724.702 1.55979 -0.678568 0
M  V30 7628 O 725.887 1.70581 -0.928217 0
M  V30 7629 C 723.017 2.82994 -2.01325 0
M  V30 7630 C 721.971 2.87473 -3.17086 0
M  V30 7631 C 721.297 4.2749 -3.21179 0
M  V30 7632 C 722.597 2.55182 -4.55719 0
M  V30 7633 H 724.291 1.21387 -2.73689 0
M  V30 7634 H 721.837 0.58251 -1.31692 0
M  V30 7635 H 723.79 3.59179 -2.20383 0
M  V30 7636 H 722.514 3.08622 -1.06864 0
M  V30 7637 H 721.173 2.13739 -2.97844 0
M  V30 7638 H 720.821 4.5019 -2.24361 0
M  V30 7639 H 720.521 4.31403 -3.98955 0
M  V30 7640 H 722.045 5.0555 -3.42419 0
M  V30 7641 H 723.459 3.21081 -4.74953 0
M  V30 7642 H 721.856 2.70414 -5.3572 0
M  V30 7643 H 722.926 1.5044 -4.60973 0
M  V30 7644 N 724.269 1.44576 0.627338 0
M  V30 7645 C 725.199 1.54562 1.75022 0
M  V30 7646 C 726.18 0.398378 1.65369 0
M  V30 7647 O 727.365 0.61899 1.84071 0
M  V30 7648 C 724.495 1.49309 3.13567 0
M  V30 7649 C 723.449 2.62549 3.38012 0
M  V30 7650 C 722.775 2.42348 4.76625 0
M  V30 7651 C 724.075 4.04678 3.30202 0
M  V30 7652 H 725.769 2.4855 1.66922 0
M  V30 7653 H 723.315 1.19624 0.801636 0
M  V30 7654 H 725.268 1.54895 3.919 0
M  V30 7655 H 723.992 0.518392 3.2246 0
M  V30 7656 H 722.651 2.56358 2.62061 0
M  V30 7657 H 722.299 1.43062 4.82226 0
M  V30 7658 H 721.999 3.18273 4.93939 0
M  V30 7659 H 723.523 2.49758 5.57183 0
M  V30 7660 H 724.937 4.12217 3.98435 0
M  V30 7661 H 723.334 4.80836 3.5905 0
M  V30 7662 H 724.404 4.2798 2.27949 0
M  V30 7663 N 725.747 -0.868086 1.31537 0
M  V30 7664 C 727.158 -1.437 1.19195 0
M  V30 7665 C 727.509 -1.95169 -0.200842 0
M  V30 7666 O 726.634 -1.86432 -1.09872 0
M  V30 7667 C 727.229 -2.612 2.15778 0
M  V30 7668 C 725.788 -3.1413 2.07363 0
M  V30 7669 C 724.935 -1.86845 2.049 0
M  V30 7670 H 727.886 -0.676457 1.43561 0
M  V30 7671 H 727.907 -3.37948 1.74847 0
M  V30 7672 H 727.419 -2.23709 3.17137 0
M  V30 7673 H 725.52 -3.56238 1.09204 0
M  V30 7674 H 725.633 -3.76285 2.96557 0
M  V30 7675 H 723.997 -2.05886 1.49943 0
M  V30 7676 H 724.78 -1.51589 3.08019 0
M  V30 7677 N 727.225 -1.14528 -1.08264 0
M  V30 7678 C 728.465 -0.924808 -1.82282 0
M  V30 7679 C 728.829 0.538881 -1.84283 0
M  V30 7680 O 730.03 0.877355 -2.54079 0
M  V30 7681 C 728.301 -1.51102 -3.23887 0
M  V30 7682 S 729.86 -1.43232 -4.14765 0
M  V30 7683 H 726.678 -0.333052 -0.62817 0
M  V30 7684 H 729.28 -1.45905 -1.30123 0
M  V30 7685 H 727.984 -2.56942 -3.20014 0
M  V30 7686 H 727.515 -0.975234 -3.8112 0
M  V30 7687 H 729.53 -0.418843 -4.94429 0
M  V30 7688 N 728.703 1.26451 -0.940633 0
M  V30 7689 C 729.613 2.30128 -0.455881 0
M  V30 7690 C 730.629 1.67536 0.469867 0
M  V30 7691 O 731.805 1.98344 0.349529 0
M  V30 7692 C 728.87 3.45634 0.271648 0
M  V30 7693 C 727.931 4.23709 -0.690594 0
M  V30 7694 C 727.164 5.337 0.00231047 0
M  V30 7695 O 727.387 5.57215 1.21935 0
M  V30 7696 O 726.321 5.98091 -0.676111 0
M  V30 7697 H 730.147 2.73655 -1.31707 0
M  V30 7698 H 727.732 1.3164 -0.706497 0
M  V30 7699 H 729.614 4.15853 0.681486 0
M  V30 7700 H 728.289 3.04138 1.10824 0
M  V30 7701 H 727.196 3.55974 -1.15037 0
M  V30 7702 H 728.529 4.68953 -1.49478 0
M  V30 7703 N 730.181 0.707592 1.40822 0
M  V30 7704 C 731.409 0.253073 2.05346 0
M  V30 7705 C 731.824 -1.10218 1.53289 0
M  V30 7706 O 731.181 -1.69112 0.686105 0
M  V30 7707 C 731.232 0.215411 3.60858 0
M  V30 7708 O 730.953 1.51714 4.10992 0
M  V30 7709 C 732.454 -0.258636 4.42545 0
M  V30 7710 H 729.674 0.115256 0.661027 0
M  V30 7711 H 732.218 0.963555 1.80377 0
M  V30 7712 H 730.373 -0.445978 3.84824 0
M  V30 7713 H 730.787 1.41226 5.05129 0
M  V30 7714 H 732.261 -0.233849 5.51504 0
M  V30 7715 H 732.738 -1.2995 4.19535 0
M  V30 7716 H 733.344 0.372186 4.23668 0
M  V30 7717 N 731.66 -1.50943 0.453197 0
M  V30 7718 C 732.607 -2.28128 -0.350197 0
M  V30 7719 C 733.577 -1.32398 -1.00299 0
M  V30 7720 O 734.762 -1.61319 -1.01887 0
M  V30 7721 C 731.902 -3.13782 -1.43649 0
M  V30 7722 C 731.015 -4.24523 -0.800255 0
M  V30 7723 C 730.15 -4.97462 -1.86293 0
M  V30 7724 C 729.189 -6.00102 -1.20598 0
M  V30 7725 N 728.326 -6.66387 -2.21071 0
M  V30 7726 H 733.166 -2.96337 0.31434 0
M  V30 7727 H 730.703 -1.46151 0.166863 0
M  V30 7728 H 732.661 -3.6178 -2.07776 0
M  V30 7729 H 731.291 -2.47655 -2.07044 0
M  V30 7730 H 730.343 -3.80371 -0.0468651 0
M  V30 7731 H 731.655 -4.98009 -0.280777 0
M  V30 7732 H 730.809 -5.49088 -2.58044 0
M  V30 7733 H 729.548 -4.23642 -2.41617 0
M  V30 7734 H 728.553 -5.47753 -0.474 0
M  V30 7735 H 729.778 -6.75887 -0.659859 0
M  V30 7736 H 727.724 -5.9537 -2.75446 0
M  V30 7737 H 727.641 -7.3569 -1.74058 0
M  V30 7738 H 728.909 -7.22638 -2.92257 0
M  V30 7739 N 733.138 -0.185124 -1.56509 0
M  V30 7740 C 734.549 0.329221 -1.83774 0
M  V30 7741 C 734.9 1.62093 -1.10545 0
M  V30 7742 O 734.025 2.13334 -0.36298 0
M  V30 7743 C 734.62 0.604099 -3.33371 0
M  V30 7744 C 733.179 1.06284 -3.61083 0
M  V30 7745 C 732.326 0.10608 -2.77097 0
M  V30 7746 H 735.277 -0.409116 -1.53336 0
M  V30 7747 H 735.298 1.45458 -3.51599 0
M  V30 7748 H 734.81 -0.336201 -3.86641 0
M  V30 7749 H 732.911 2.01777 -3.13236 0
M  V30 7750 H 733.024 0.962453 -4.69333 0
M  V30 7751 H 731.388 0.606082 -2.47384 0
M  V30 7752 H 732.171 -0.828486 -3.33153 0
M  V30 7753 N 734.616 1.57351 0.0885366 0
M  V30 7754 C 735.862 1.86696 0.791996 0
M  V30 7755 C 736.195 0.775148 1.78059 0
M  V30 7756 O 735.47 -0.216247 1.93294 0
M  V30 7757 C 735.753 3.26684 1.51491 0
M  V30 7758 C 735.606 4.465 0.543858 0
M  V30 7759 C 736.925 3.64664 2.46391 0
M  V30 7760 H 734.044 0.679049 0.286463 0
M  V30 7761 H 736.686 1.89919 0.0554866 0
M  V30 7762 H 734.836 3.24067 2.14273 0
M  V30 7763 H 736.508 4.61235 -0.0774597 0
M  V30 7764 H 734.751 4.33567 -0.142228 0
M  V30 7765 H 735.422 5.41192 1.08696 0
M  V30 7766 H 737.898 3.68267 1.93698 0
M  V30 7767 H 736.774 4.63534 2.93986 0
M  V30 7768 H 737.035 2.93698 3.30445 0
M  V30 7769 N 736.094 -0.359525 1.53444 0
M  V30 7770 C 737.319 -1.12644 1.74144 0
M  V30 7771 C 737.744 -1.82082 0.472007 0
M  V30 7772 O 737.102 -1.71962 -0.57436 0
M  V30 7773 C 737.15 -2.12781 2.9113 0
M  V30 7774 O 736.254 -3.19984 2.60162 0
M  V30 7775 H 735.595 -0.326553 0.578152 0
M  V30 7776 H 738.125 -0.414798 2.00351 0
M  V30 7777 H 738.135 -2.56278 3.17467 0
M  V30 7778 H 736.81 -1.61634 3.83207 0
M  V30 7779 H 735.387 -2.81417 2.44661 0
M  V30 7780 N 737.572 -1.44907 -0.619662 0
M  V30 7781 C 738.502 -1.55488 -1.742 0
M  V30 7782 C 739.483 -0.407143 -1.65156 0
M  V30 7783 O 740.668 -0.628743 -1.8374 0
M  V30 7784 C 737.798 -1.5097 -3.1277 0
M  V30 7785 C 736.752 -2.64337 -3.36615 0
M  V30 7786 C 736.078 -2.44872 -4.75333 0
M  V30 7787 C 737.378 -4.06423 -3.28051 0
M  V30 7788 H 739.072 -2.49432 -1.65602 0
M  V30 7789 H 736.618 -1.20047 -0.795281 0
M  V30 7790 H 738.571 -1.56971 -3.91073 0
M  V30 7791 H 737.295 -0.535486 -3.2218 0
M  V30 7792 H 735.954 -2.57744 -2.60698 0
M  V30 7793 H 735.602 -1.45617 -4.81461 0
M  V30 7794 H 735.302 -3.20888 -4.92244 0
M  V30 7795 H 736.826 -2.52709 -5.55851 0
M  V30 7796 H 738.24 -4.14324 -3.96243 0
M  V30 7797 H 736.637 -4.82733 -3.56495 0
M  V30 7798 H 737.707 -4.29183 -2.25676 0
M  V30 7799 N 739.05 0.861098 -1.31996 0
M  V30 7800 C 739.982 1.97551 -1.16216 0
M  V30 7801 C 740.995 1.625 -0.0988527 0
M  V30 7802 O 742.184 1.75091 -0.3472 0
M  V30 7803 C 739.284 3.30376 -0.755307 0
M  V30 7804 C 738.457 3.93711 -1.90552 0
M  V30 7805 C 737.516 5.04862 -1.48328 0
M  V30 7806 O 736.542 5.25204 -2.19431 0
M  V30 7807 N 737.744 5.79283 -0.375656 0
M  V30 7808 H 740.509 2.11632 -2.12208 0
M  V30 7809 H 738.07 1.03559 -1.24448 0
M  V30 7810 H 740.062 4.0213 -0.455364 0
M  V30 7811 H 738.632 3.12395 0.113269 0
M  V30 7812 H 737.852 3.14825 -2.37231 0
M  V30 7813 H 739.14 4.32762 -2.67571 0
M  V30 7814 H 738.538 5.65286 0.216284 0
M  V30 7815 H 737.095 6.5166 -0.135289 0
M  V30 7816 N 740.528 1.15101 1.07655 0
M  V30 7817 C 741.438 0.858869 2.18313 0
M  V30 7818 C 742.454 -0.163641 1.73229 0
M  V30 7819 O 743.63 0.00969541 2.01398 0
M  V30 7820 C 740.695 0.34893 3.4494 0
M  V30 7821 C 739.756 1.43495 4.04608 0
M  V30 7822 C 738.989 0.949253 5.2519 0
M  V30 7823 O 739.212 -0.20636 5.70027 0
M  V30 7824 O 738.146 1.73161 5.76454 0
M  V30 7825 H 741.972 1.78386 2.45788 0
M  V30 7826 H 739.557 0.929876 1.16934 0
M  V30 7827 H 741.439 0.070851 4.2134 0
M  V30 7828 H 740.114 -0.548237 3.19024 0
M  V30 7829 H 739.021 1.7666 3.29761 0
M  V30 7830 H 740.354 2.30692 4.3479 0
M  V30 7831 N 742.006 -1.2595 0.947325 0
M  V30 7832 C 743.255 -1.92759 0.593887 0
M  V30 7833 C 743.568 -1.75083 -0.872093 0
M  V30 7834 O 744.774 -2.36401 -1.33518 0
M  V30 7835 C 743.23 -3.45395 1.01144 0
M  V30 7836 C 742.838 -3.71795 2.49946 0
M  V30 7837 C 744.582 -4.18173 0.730185 0
M  V30 7838 C 742.489 -5.17901 2.85539 0
M  V30 7839 H 741.419 -0.721676 0.218403 0
M  V30 7840 H 744.07 -1.4293 1.15079 0
M  V30 7841 H 742.452 -3.94143 0.383007 0
M  V30 7842 H 743.626 -3.33728 3.17746 0
M  V30 7843 H 741.941 -3.12263 2.75465 0
M  V30 7844 H 744.538 -5.25784 0.972367 0
M  V30 7845 H 744.881 -4.14964 -0.333223 0
M  V30 7846 H 745.414 -3.75309 1.31862 0
M  V30 7847 H 742.153 -5.26216 3.90867 0
M  V30 7848 H 741.673 -5.57042 2.22406 0
M  V30 7849 H 743.352 -5.8596 2.74336 0
M  V30 7850 N 743.484 -0.715051 -1.40445 0
M  V30 7851 C 744.73 -0.254705 -2.01194 0
M  V30 7852 C 745.063 1.14894 -1.56567 0
M  V30 7853 O 744.338 1.77933 -0.785491 0
M  V30 7854 C 744.621 -0.334148 -3.58546 0
M  V30 7855 C 744.474 -1.77613 -4.13248 0
M  V30 7856 C 745.793 0.294968 -4.3911 0
M  V30 7857 H 742.912 -0.094025 -0.730978 0
M  V30 7858 H 745.554 -0.907449 -1.66929 0
M  V30 7859 H 743.704 0.221609 -3.87867 0
M  V30 7860 H 745.376 -2.38723 -3.94727 0
M  V30 7861 H 743.619 -2.30402 -3.67556 0
M  V30 7862 H 744.29 -1.78311 -5.22407 0
M  V30 7863 H 746.766 -0.178563 -4.15717 0
M  V30 7864 H 745.642 0.208934 -5.48502 0
M  V30 7865 H 745.903 1.37841 -4.20062 0
M  V30 7866 N 744.962 1.50701 -0.461195 0
M  V30 7867 C 745.925 2.2686 0.326679 0
M  V30 7868 C 746.925 1.31243 0.929085 0
M  V30 7869 O 748.115 1.54754 0.799807 0
M  V30 7870 C 745.247 3.07844 1.46441 0
M  V30 7871 H 746.44 2.97954 -0.341095 0
M  V30 7872 H 743.993 1.54814 -0.214984 0
M  V30 7873 H 744.728 2.41223 2.16753 0
M  V30 7874 H 744.513 3.78101 1.03836 0
M  V30 7875 H 746.003 3.65469 2.02044 0
M  V30 7876 N 746.441 0.193421 1.56409 0
M  V30 7877 C 747.404 -0.714371 2.17783 0
M  V30 7878 C 748.404 -1.1422 1.13183 0
M  V30 7879 O 749.594 -1.05557 1.38576 0
M  V30 7880 C 746.726 -1.97509 2.77855 0
M  V30 7881 H 747.919 -0.179714 2.99361 0
M  V30 7882 H 745.472 -0.0561944 1.56199 0
M  V30 7883 H 746.207 -2.5523 2.0007 0
M  V30 7884 H 745.992 -1.67706 3.54425 0
M  V30 7885 H 747.482 -2.62246 3.24987 0
M  V30 7886 N 747.919 -1.57396 -0.0801906 0
M  V30 7887 C 748.851 -1.9982 -1.12271 0
M  V30 7888 C 749.864 -0.902902 -1.35468 0
M  V30 7889 O 751.053 -1.18088 -1.33856 0
M  V30 7890 C 748.153 -2.31476 -2.47532 0
M  V30 7891 C 747.326 -3.62745 -2.44407 0
M  V30 7892 C 746.385 -3.82168 -3.6171 0
M  V30 7893 O 745.411 -4.53852 -3.43522 0
M  V30 7894 N 746.613 -3.2388 -4.81749 0
M  V30 7895 H 749.378 -2.89864 -0.761501 0
M  V30 7896 H 746.939 -1.5965 -0.268965 0
M  V30 7897 H 748.931 -2.4165 -3.24634 0
M  V30 7898 H 747.501 -1.47364 -2.75686 0
M  V30 7899 H 746.721 -3.63403 -1.52747 0
M  V30 7900 H 748.009 -4.48954 -2.39412 0
M  V30 7901 H 747.407 -2.6568 -4.9943 0
M  V30 7902 H 745.964 -3.39515 -5.56392 0
M  V30 7903 N 749.397 0.351382 -1.53633 0
M  V30 7904 C 750.329 1.45159 -1.77374 0
M  V30 7905 C 751.342 1.4905 -0.654826 0
M  V30 7906 O 752.531 1.52274 -0.931396 0
M  V30 7907 C 749.631 2.83858 -1.85143 0
M  V30 7908 C 748.804 3.03498 -3.14972 0
M  V30 7909 C 747.863 4.22393 -3.138 0
M  V30 7910 O 746.889 4.16885 -3.87551 0
M  V30 7911 N 748.091 5.30533 -2.35617 0
M  V30 7912 H 750.856 1.25167 -2.72311 0
M  V30 7913 H 748.417 0.54121 -1.52586 0
M  V30 7914 H 750.409 3.61557 -1.8182 0
M  V30 7915 H 748.979 2.9703 -0.974275 0
M  V30 7916 H 748.199 2.13336 -3.31484 0
M  V30 7917 H 749.487 3.13498 -4.00745 0
M  V30 7918 H 748.885 5.37875 -1.75235 0
M  V30 7919 H 747.442 6.06756 -2.38098 0
M  V30 7920 N 750.875 1.45233 0.611969 0
M  V30 7921 C 751.823 1.53898 1.74408 0
M  V30 7922 C 752.817 0.409254 1.64382 0
M  V30 7923 O 754.023 0.584988 1.70229 0
M  V30 7924 H 750.398 0.483303 0.576127 0
M  V30 7925 H 752.369 2.49143 1.64227 0
M  V30 7926 C 751.118 1.51865 3.12782 0
M  V30 7927 H 750.441 2.38118 3.21154 0
M  V30 7928 H 751.881 1.61986 3.91838 0
M  V30 7929 C 750.34 0.242374 3.36027 0
M  V30 7930 O 750.87 -0.679587 3.9591 0
M  V30 7931 N 749.076 0.139448 2.90265 0
M  V30 7932 H 748.623 0.890571 2.41716 0
M  V30 7933 H 748.581 -0.713686 3.06193 0
M  V30 7934 N 752.353 -0.854086 1.3245 0
M  V30 7935 C 753.601 -1.60513 1.228 0
M  V30 7936 C 753.922 -1.93865 -0.210073 0
M  V30 7937 O 753.192 -1.59673 -1.13496 0
M  V30 7938 H 751.772 -0.595099 0.451516 0
M  V30 7939 H 754.434 -1.0216 1.6598 0
M  V30 7940 H 753.53 -2.54182 1.81102 0
M  V30 7941 N 753.831 -1.1567 -1.07043 0
M  V30 7942 C 755.071 -0.944089 -1.81291 0
M  V30 7943 C 755.435 0.519305 -1.84844 0
M  V30 7944 O 756.636 0.850357 -2.54995 0
M  V30 7945 C 754.907 -1.54528 -3.22267 0
M  V30 7946 S 756.466 -1.47623 -4.13223 0
M  V30 7947 H 753.284 -0.339696 -0.624602 0
M  V30 7948 H 755.886 -1.47277 -1.28568 0
M  V30 7949 H 754.59 -2.60321 -3.17271 0
M  V30 7950 H 754.121 -1.0156 -3.80065 0
M  V30 7951 H 756.136 -0.471261 -4.93957 0
M  V30 7952 N 755.309 1.25446 -0.953992 0
M  V30 7953 C 756.555 1.9343 -0.60933 0
M  V30 7954 C 756.888 1.74542 0.851388 0
M  V30 7955 O 756.163 1.09014 1.61078 0
M  V30 7956 C 756.446 3.46844 -0.968041 0
M  V30 7957 C 756.299 3.74961 -2.48444 0
M  V30 7958 C 757.618 4.37334 -0.492641 0
M  V30 7959 H 754.737 0.702502 -0.222844 0
M  V30 7960 H 757.379 1.48076 -1.19053 0
M  V30 7961 H 755.529 3.85604 -0.473465 0
M  V30 7962 H 757.201 3.45841 -3.05273 0
M  V30 7963 H 755.444 3.20589 -2.92241 0
M  V30 7964 H 756.115 4.82246 -2.68594 0
M  V30 7965 H 758.591 4.05873 -0.916878 0
M  V30 7966 H 757.467 5.43439 -0.772331 0
M  V30 7967 H 757.728 4.37908 0.607403 0
M  V30 7968 N 756.787 0.722489 1.40064 0
M  V30 7969 C 757.734 0.0743738 2.3068 0
M  V30 7970 C 758.704 -0.743004 1.48555 0
M  V30 7971 O 759.889 -0.705536 1.77276 0
M  V30 7972 C 757.029 -0.836292 3.34814 0
M  V30 7973 C 756.142 -0.00764663 4.31999 0
M  V30 7974 C 755.277 -0.918428 5.232 0
M  V30 7975 C 754.316 -0.0842838 6.12042 0
M  V30 7976 N 753.453 -0.950316 6.95639 0
M  V30 7977 H 758.293 0.852794 2.85537 0
M  V30 7978 H 755.83 0.432222 1.40607 0
M  V30 7979 H 757.788 -1.3786 3.93765 0
M  V30 7980 H 756.418 -1.58082 2.81443 0
M  V30 7981 H 755.47 0.651928 3.74772 0
M  V30 7982 H 756.782 0.63786 4.94705 0
M  V30 7983 H 755.936 -1.52902 5.87116 0
M  V30 7984 H 754.675 -1.59774 4.60786 0
M  V30 7985 H 753.68 0.5392 5.4715 0
M  V30 7986 H 754.905 0.591628 6.76518 0
M  V30 7987 H 752.851 -1.61515 6.35806 0
M  V30 7988 H 752.768 -0.361004 7.55138 0
M  V30 7989 H 754.036 -1.54687 7.63997 0
M  V30 7990 N 758.265 -1.50454 0.469181 0
M  V30 7991 C 759.49 -2.0722 -0.0864892 0
M  V30 7992 C 759.915 -1.33098 -1.32916 0
M  V30 7993 O 759.273 -0.378084 -1.77314 0
M  V30 7994 C 759.321 -3.58845 -0.355384 0
M  V30 7995 O 758.425 -3.86583 -1.43622 0
M  V30 7996 H 757.766 -0.663889 0.0121414 0
M  V30 7997 H 760.296 -1.93674 0.659674 0
M  V30 7998 H 760.306 -4.03617 -0.596447 0
M  V30 7999 H 758.981 -4.12211 0.552698 0
M  V30 8000 H 757.558 -3.5365 -1.18262 0
M  V30 8001 N 759.743 -0.201713 -1.56304 0
M  V30 8002 C 760.989 0.435952 -1.98059 0
M  V30 8003 C 761.322 1.60811 -1.08873 0
M  V30 8004 O 760.597 1.9398 -0.142128 0
M  V30 8005 C 760.88 0.889706 -3.48936 0
M  V30 8006 C 760.733 -0.284725 -4.48898 0
M  V30 8007 C 762.052 1.7529 -4.03685 0
M  V30 8008 H 759.171 0.15699 -0.720085 0
M  V30 8009 H 761.813 -0.293965 -1.87712 0
M  V30 8010 H 759.963 1.51166 -3.57884 0
M  V30 8011 H 761.635 -0.922531 -4.51981 0
M  V30 8012 H 759.878 -0.935427 -4.23594 0
M  V30 8013 H 760.549 0.0753865 -5.51949 0
M  V30 8014 H 763.025 1.2283 -3.97558 0
M  V30 8015 H 761.901 2.03933 -5.0961 0
M  V30 8016 H 762.162 2.70939 -3.49348 0
M  V30 8017 N 761.222 1.57436 0.0718424 0
M  V30 8018 C 762.185 2.02703 1.06977 0
M  V30 8019 C 763.185 0.924062 1.31597 0
M  V30 8020 O 764.375 1.18894 1.27318 0
M  V30 8021 C 761.507 2.40763 2.41342 0
M  V30 8022 H 762.7 2.92098 0.679619 0
M  V30 8023 H 760.253 1.5304 0.317565 0
M  V30 8024 H 760.988 1.54394 2.8519 0
M  V30 8025 H 760.773 3.21249 2.24814 0
M  V30 8026 H 762.263 2.76361 3.13073 0
M  V30 8027 N 762.7 -0.34323 1.53817 0
M  V30 8028 C 763.61 -1.44493 1.84821 0
M  V30 8029 C 764.626 -1.57556 0.738381 0
M  V30 8030 O 765.802 -1.73026 1.03072 0
M  V30 8031 C 762.867 -2.79478 2.05166 0
M  V30 8032 C 761.928 -2.75756 3.29025 0
M  V30 8033 C 761.161 -4.04302 3.4839 0
M  V30 8034 O 761.384 -5.01595 2.71586 0
M  V30 8035 O 760.318 -4.08754 4.41819 0
M  V30 8036 H 764.144 -1.21209 2.78464 0
M  V30 8037 H 761.729 -0.535437 1.39476 0
M  V30 8038 H 763.611 -3.59419 2.19991 0
M  V30 8039 H 762.286 -3.02692 1.14713 0
M  V30 8040 H 761.193 -1.94434 3.19603 0
M  V30 8041 H 762.526 -2.57495 4.19472 0
M  V30 8042 N 764.178 -1.45556 -0.604258 0
M  V30 8043 C 765.141 -1.54091 -1.69672 0
M  V30 8044 C 766.141 -0.420076 -1.55216 0
M  V30 8045 O 767.331 -0.683671 -1.60224 0
M  V30 8046 C 764.463 -1.44063 -3.08964 0
M  V30 8047 H 765.656 -2.51431 -1.6347 0
M  V30 8048 H 763.209 -1.33046 -0.820273 0
M  V30 8049 H 763.944 -0.479201 -3.2074 0
M  V30 8050 H 763.729 -2.25362 -3.20865 0
M  V30 8051 H 765.219 -1.53075 -3.88533 0
M  V30 8052 N 765.656 0.84705 -1.32902 0
M  V30 8053 C 766.881 1.63925 -1.27056 0
M  V30 8054 C 767.306 1.87443 0.157136 0
M  V30 8055 O 766.664 1.43266 1.11106 0
M  V30 8056 C 766.712 2.97134 -2.04313 0
M  V30 8057 O 765.816 3.88049 -1.39614 0
M  V30 8058 H 765.157 0.499477 -0.437514 0
M  V30 8059 H 767.687 1.05443 -1.75336 0
M  V30 8060 H 767.697 3.46896 -2.14772 0
M  V30 8061 H 766.372 2.79339 -3.08128 0
M  V30 8062 H 764.949 3.46525 -1.3775 0
M  V30 8063 N 767.134 1.16236 1.06428 0
M  V30 8064 C 768.044 0.881976 2.1739 0
M  V30 8065 C 769.06 -0.145259 1.73393 0
M  V30 8066 O 770.236 0.0310558 2.01376 0
M  V30 8067 C 767.301 0.385496 3.4455 0
M  V30 8068 C 766.362 1.47779 4.03063 0
M  V30 8069 C 765.595 1.0049 5.24154 0
M  V30 8070 O 765.818 -0.145889 5.70213 0
M  V30 8071 O 764.752 1.79265 5.74585 0
M  V30 8072 H 768.578 1.80983 2.43883 0
M  V30 8073 H 766.163 0.942226 1.15942 0
M  V30 8074 H 768.045 0.115536 4.21242 0
M  V30 8075 H 766.72 -0.514369 3.19587 0
M  V30 8076 H 765.627 1.80147 3.27869 0
M  V30 8077 H 766.96 2.35291 4.32318 0
M  V30 8078 N 768.612 -1.24939 0.960631 0
M  V30 8079 C 769.542 -2.28 0.503815 0
M  V30 8080 C 770.523 -1.63959 -0.452928 0
M  V30 8081 O 771.708 -1.91009 -0.350585 0
M  V30 8082 C 768.838 -3.46643 -0.213535 0
M  V30 8083 C 767.792 -4.22903 0.658535 0
M  V30 8084 C 767.118 -5.34363 -0.189902 0
M  V30 8085 C 768.418 -4.84949 1.93963 0
M  V30 8086 H 770.112 -2.66462 1.36521 0
M  V30 8087 H 767.658 -1.28093 0.657897 0
M  V30 8088 H 769.611 -4.1787 -0.544286 0
M  V30 8089 H 768.335 -3.07187 -1.10923 0
M  V30 8090 H 766.994 -3.53467 0.972455 0
M  V30 8091 H 766.642 -4.91147 -1.08553 0
M  V30 8092 H 766.342 -5.86302 0.390331 0
M  V30 8093 H 767.866 -6.0842 -0.515484 0
M  V30 8094 H 769.28 -5.48288 1.67491 0
M  V30 8095 H 767.677 -5.47091 2.46601 0
M  V30 8096 H 768.747 -4.06799 2.639 0
M  V30 8097 N 770.09 -0.729906 -1.39679 0
M  V30 8098 C 771.318 -0.285709 -2.04918 0
M  V30 8099 C 771.733 1.07765 -1.55023 0
M  V30 8100 O 771.09 1.67999 -0.712923 0
M  V30 8101 C 771.141 -0.272793 -3.60469 0
M  V30 8102 O 770.862 -1.58233 -4.08527 0
M  V30 8103 C 772.363 0.188199 -4.429 0
M  V30 8104 H 769.583 -0.125758 -0.65911 0
M  V30 8105 H 772.127 -0.992129 -1.78821 0
M  V30 8106 H 770.282 0.384699 -3.85485 0
M  V30 8107 H 770.696 -1.49245 -5.02818 0
M  V30 8108 H 772.17 0.14608 -5.51807 0
M  V30 8109 H 772.647 1.2326 -4.21549 0
M  V30 8110 H 773.253 -0.439541 -4.23023 0
M  V30 8111 N 771.568 1.50203 -0.477153 0
M  V30 8112 C 772.498 2.31517 0.303646 0
M  V30 8113 C 773.479 1.38696 0.984753 0
M  V30 8114 O 774.664 1.67615 0.980758 0
M  V30 8115 C 771.794 3.18598 1.38249 0
M  V30 8116 C 770.748 4.2002 0.822645 0
M  V30 8117 C 770.074 4.95878 2.00024 0
M  V30 8118 C 771.374 5.22023 -0.170185 0
M  V30 8119 H 773.068 2.97042 -0.375027 0
M  V30 8120 H 770.614 1.42848 -0.181802 0
M  V30 8121 H 772.567 3.74282 1.93625 0
M  V30 8122 H 771.291 2.5097 2.09002 0
M  V30 8123 H 769.95 3.65445 0.290813 0
M  V30 8124 H 769.598 4.24717 2.69489 0
M  V30 8125 H 769.298 5.64487 1.63183 0
M  V30 8126 H 770.822 5.54399 2.55878 0
M  V30 8127 H 772.236 5.72543 0.294606 0
M  V30 8128 H 770.633 5.98386 -0.453181 0
M  V30 8129 H 771.703 4.72396 -1.09408 0
M  V30 8130 N 773.046 0.209999 1.56195 0
M  V30 8131 C 774.294 -0.423974 1.97603 0
M  V30 8132 C 774.615 -1.61112 1.09854 0
M  V30 8133 O 773.885 -1.95134 0.173032 0
M  V30 8134 H 772.465 -0.159629 0.729745 0
M  V30 8135 H 775.127 0.300205 1.92574 0
M  V30 8136 H 774.223 -0.75809 3.02753 0
M  V30 8137 N 774.524 -1.57472 -0.0634922 0
M  V30 8138 C 775.935 -1.76303 -0.614337 0
M  V30 8139 C 776.286 -0.836578 -1.77471 0
M  V30 8140 O 775.411 -0.0227184 -2.16388 0
M  V30 8141 C 776.006 -3.19709 -1.12122 0
M  V30 8142 C 774.565 -3.39856 -1.61786 0
M  V30 8143 C 773.712 -2.71975 -0.540845 0
M  V30 8144 H 776.663 -1.57864 0.162702 0
M  V30 8145 H 776.684 -3.24326 -1.98979 0
M  V30 8146 H 776.196 -3.87114 -0.276472 0
M  V30 8147 H 774.297 -2.77578 -2.48558 0
M  V30 8148 H 774.41 -4.48338 -1.68908 0
M  V30 8149 H 772.774 -2.34763 -0.987854 0
M  V30 8150 H 773.557 -3.4204 0.293856 0
M  V30 8151 N 776.003 0.335068 -1.53997 0
M  V30 8152 C 777.231 1.09418 -1.756 0
M  V30 8153 C 777.646 1.82083 -0.499138 0
M  V30 8154 O 777.003 1.74646 0.529631 0
M  V30 8155 C 777.054 2.10115 -2.94166 0
M  V30 8156 O 776.775 1.40404 -4.14992 0
M  V30 8157 C 778.276 2.98336 -3.27888 0
M  V30 8158 H 775.496 0.32595 -0.586513 0
M  V30 8159 H 778.04 0.384693 -2.00849 0
M  V30 8160 H 776.195 2.76616 -2.71224 0
M  V30 8161 H 776.609 2.07743 -4.81605 0
M  V30 8162 H 778.083 3.6491 -4.1418 0
M  V30 8163 H 778.56 3.64814 -2.44556 0
M  V30 8164 H 779.166 2.37412 -3.52868 0
M  V30 8165 N 777.481 1.45874 0.596531 0
M  V30 8166 C 778.721 1.52015 1.36641 0
M  V30 8167 C 779.085 0.16226 1.91313 0
M  V30 8168 O 780.286 0.0983889 2.6862 0
M  V30 8169 C 778.557 2.57776 2.4756 0
M  V30 8170 S 780.116 2.83223 3.35157 0
M  V30 8171 H 776.934 0.537251 0.465706 0
M  V30 8172 H 779.536 1.83024 0.687205 0
M  V30 8173 H 778.24 3.55091 2.05764 0
M  V30 8174 H 777.771 2.28455 3.20269 0
M  V30 8175 H 779.786 2.17442 4.4602 0
M  V30 8176 N 778.959 -0.83999 1.33349 0
M  V30 8177 C 780.37 -1.41139 1.22216 0
M  V30 8178 C 780.721 -1.95551 -0.159398 0
M  V30 8179 O 779.846 -1.88721 -1.05893 0
M  V30 8180 C 780.441 -2.56564 2.21269 0
M  V30 8181 C 779 -3.09661 2.13979 0
M  V30 8182 C 778.147 -1.82457 2.08818 0
M  V30 8183 H 781.098 -0.645853 1.44964 0
M  V30 8184 H 781.119 -3.34163 1.81976 0
M  V30 8185 H 780.631 -2.16932 3.21811 0
M  V30 8186 H 778.732 -3.53841 1.16736 0
M  V30 8187 H 778.845 -3.6991 3.04472 0
M  V30 8188 H 777.209 -2.0266 1.54276 0
M  V30 8189 H 777.992 -1.45022 3.11165 0
M  V30 8190 N 780.437 -1.16799 -1.0581 0
M  V30 8191 C 781.387 -0.847231 -2.11674 0
M  V30 8192 C 782.371 0.175476 -1.5994 0
M  V30 8193 O 783.563 -0.0260602 -1.76981 0
M  V30 8194 C 780.692 -0.355446 -3.41455 0
M  V30 8195 C 779.778 -1.40922 -4.00002 0
M  V30 8196 N 780.169 -2.62096 -4.32596 0
M  V30 8197 C 778.467 -1.26562 -4.27666 0
M  V30 8198 C 779.168 -3.29759 -4.79201 0
M  V30 8199 N 778.144 -2.57138 -4.78938 0
M  V30 8200 H 781.946 -1.76862 -2.34727 0
M  V30 8201 H 779.46 -1.05577 -1.23399 0
M  V30 8202 H 781.457 -0.107231 -4.16762 0
M  V30 8203 H 780.117 0.559817 -3.19838 0
M  V30 8204 H 781.128 -2.99113 -4.22791 0
M  V30 8205 H 777.805 -0.411503 -4.15467 0
M  V30 8206 H 779.195 -4.33222 -5.13584 0
M  V30 8207 N 781.915 1.24427 -0.967243 0
M  V30 8208 C 782.865 2.23143 -0.468106 0
M  V30 8209 C 783.849 1.5449 0.449633 0
M  V30 8210 O 785.041 1.74761 0.28063 0
M  V30 8211 C 782.17 3.42454 0.240867 0
M  V30 8212 C 781.256 4.18355 -0.695674 0
M  V30 8213 N 781.647 4.71428 -1.83273 0
M  V30 8214 C 779.945 4.43116 -0.506365 0
M  V30 8215 C 780.646 5.29041 -2.41849 0
M  V30 8216 N 779.622 5.16213 -1.70369 0
M  V30 8217 H 783.424 2.61795 -1.3357 0
M  V30 8218 H 780.938 1.39809 -0.826277 0
M  V30 8219 H 782.935 4.12329 0.615668 0
M  V30 8220 H 781.595 3.05323 1.10491 0
M  V30 8221 H 782.606 4.68177 -2.21428 0
M  V30 8222 H 779.283 4.16319 0.313747 0
M  V30 8223 H 780.673 5.80811 -3.37799 0
M  V30 8224 N 783.393 0.737304 1.3929 0
M  V30 8225 C 784.639 0.286681 2.00763 0
M  V30 8226 C 784.972 -1.12388 1.58375 0
M  V30 8227 O 784.247 -1.76661 0.813699 0
M  V30 8228 C 784.53 0.391147 3.57969 0
M  V30 8229 C 784.383 1.84165 4.1037 0
M  V30 8230 C 785.702 -0.225072 4.39524 0
M  V30 8231 H 782.821 0.105642 0.729389 0
M  V30 8232 H 785.463 0.933892 1.65464 0
M  V30 8233 H 783.613 -0.159875 3.88171 0
M  V30 8234 H 785.285 2.44972 3.90879 0
M  V30 8235 H 783.528 2.3622 3.63844 0
M  V30 8236 H 784.199 1.866 5.19504 0
M  V30 8237 H 786.675 0.244677 4.1538 0
M  V30 8238 H 785.551 -0.121646 5.48765 0
M  V30 8239 H 785.812 -1.31141 4.22202 0
M  V30 8240 N 784.871 -1.49948 0.485112 0
M  V30 8241 C 786.282 -1.8667 0.0334041 0
M  V30 8242 C 786.633 -1.3988 -1.37579 0
M  V30 8243 O 785.758 -0.769788 -2.02245 0
M  V30 8244 C 786.353 -3.38757 0.0538426 0
M  V30 8245 C 784.912 -3.74839 -0.342453 0
M  V30 8246 C 784.059 -2.73894 0.433281 0
M  V30 8247 H 787.01 -1.42492 0.698699 0
M  V30 8248 H 787.031 -3.73132 -0.745146 0
M  V30 8249 H 786.543 -3.72782 1.07959 0
M  V30 8250 H 784.644 -3.46419 -1.37203 0
M  V30 8251 H 784.757 -4.79088 -0.0340503 0
M  V30 8252 H 783.121 -2.54441 -0.114849 0
M  V30 8253 H 783.904 -3.10763 1.45881 0
M  V30 8254 N 786.349 -0.21828 -1.56081 0
M  V30 8255 C 787.595 0.414921 -1.9851 0
M  V30 8256 C 787.928 1.59648 -1.10573 0
M  V30 8257 O 787.203 1.93818 -0.162695 0
M  V30 8258 C 787.486 0.852647 -3.4986 0
M  V30 8259 C 787.339 -0.33232 -4.48571 0
M  V30 8260 C 788.658 1.70998 -4.05521 0
M  V30 8261 H 785.777 0.149344 -0.72171 0
M  V30 8262 H 788.419 -0.313858 -1.8739 0
M  V30 8263 H 786.569 1.47362 -3.59467 0
M  V30 8264 H 788.241 -0.970418 -4.50977 0
M  V30 8265 H 786.484 -0.980302 -4.22578 0
M  V30 8266 H 787.155 0.0168407 -5.51997 0
M  V30 8267 H 789.631 1.18606 -3.98838 0
M  V30 8268 H 788.507 1.98517 -5.11744 0
M  V30 8269 H 788.768 2.67219 -3.52202 0
M  V30 8270 N 787.827 1.57504 0.0551401 0
M  V30 8271 C 788.759 2.0158 1.09078 0
M  V30 8272 C 789.772 0.92434 1.34014 0
M  V30 8273 O 790.961 1.20202 1.31961 0
M  V30 8274 C 788.061 2.35385 2.43818 0
M  V30 8275 C 787.234 3.66588 2.38605 0
M  V30 8276 C 786.293 3.87874 3.55585 0
M  V30 8277 O 785.319 4.59259 3.36258 0
M  V30 8278 N 786.521 3.31503 4.76536 0
M  V30 8279 H 789.286 2.91039 0.71529 0
M  V30 8280 H 786.847 1.60058 0.243532 0
M  V30 8281 H 788.839 2.46784 3.20749 0
M  V30 8282 H 787.409 1.51731 2.73307 0
M  V30 8283 H 786.629 3.65787 1.46947 0
M  V30 8284 H 787.917 4.52706 2.32239 0
M  V30 8285 H 787.315 2.73592 4.9514 0
M  V30 8286 H 785.872 3.48324 5.50921 0
M  V30 8287 N 789.305 -0.326896 1.54172 0
M  V30 8288 C 790.551 -1.06681 1.72473 0
M  V30 8289 C 790.884 -1.87779 0.49523 0
M  V30 8290 O 790.159 -1.87754 -0.507803 0
M  V30 8291 C 790.442 -1.99429 2.99834 0
M  V30 8292 C 790.295 -1.21682 4.33028 0
M  V30 8293 C 791.614 -2.99002 3.22933 0
M  V30 8294 H 788.733 -0.386438 0.627563 0
M  V30 8295 H 791.375 -0.343779 1.86864 0
M  V30 8296 H 789.525 -2.61081 2.87696 0
M  V30 8297 H 791.197 -0.625153 4.57044 0
M  V30 8298 H 789.44 -0.519045 4.30684 0
M  V30 8299 H 790.111 -1.89766 5.18356 0
M  V30 8300 H 792.587 -2.4747 3.34511 0
M  V30 8301 H 791.463 -3.61085 4.13412 0
M  V30 8302 H 791.724 -3.71281 2.40006 0
M  V30 8303 N 790.784 -1.46188 -0.588786 0
M  V30 8304 C 791.694 -1.58865 -1.72624 0
M  V30 8305 C 792.71 -0.472348 -1.67466 0
M  V30 8306 O 793.886 -0.735638 -1.87484 0
M  V30 8307 C 790.951 -1.56989 -3.0912 0
M  V30 8308 C 790.012 -2.79804 -3.25589 0
M  V30 8309 C 789.245 -2.78009 -4.55573 0
M  V30 8310 O 789.468 -1.86406 -5.39082 0
M  V30 8311 O 788.402 -3.6947 -4.75159 0
M  V30 8312 H 792.228 -2.55047 -1.64878 0
M  V30 8313 H 789.813 -1.28912 -0.755115 0
M  V30 8314 H 791.695 -1.58618 -3.90408 0
M  V30 8315 H 790.37 -0.639648 -3.17317 0
M  V30 8316 H 789.277 -2.83732 -2.43818 0
M  V30 8317 H 790.61 -3.72017 -3.22279 0
M  V30 8318 N 792.262 0.832906 -1.33792 0
M  V30 8319 C 793.194 1.95042 -1.2038 0
M  V30 8320 C 794.207 1.62253 -0.133299 0
M  V30 8321 O 795.396 1.74315 -0.384261 0
M  V30 8322 C 792.496 3.287 -0.825215 0
M  V30 8323 C 791.669 3.89581 -1.98861 0
M  V30 8324 C 790.728 5.01602 -1.59003 0
M  V30 8325 O 789.754 5.20431 -2.30522 0
M  V30 8326 N 790.956 5.78356 -0.498446 0
M  V30 8327 H 793.721 2.07083 -2.16649 0
M  V30 8328 H 791.282 1.00896 -1.26616 0
M  V30 8329 H 793.274 4.01074 -0.540559 0
M  V30 8330 H 791.844 3.12565 0.0469796 0
M  V30 8331 H 791.064 3.09723 -2.43856 0
M  V30 8332 H 792.352 4.26989 -2.76691 0
M  V30 8333 H 791.75 5.65618 0.0963297 0
M  V30 8334 H 790.307 6.51226 -0.273485 0
M  V30 8335 N 793.74 1.17359 1.05189 0
M  V30 8336 C 795.017 0.871914 1.75091 0
M  V30 8337 C 795.397 -0.627821 2.01548 0
M  V30 8338 O 794.745 -1.5791 1.65156 0
M  V30 8339 C 794.955 1.70687 3.04413 0
M  V30 8340 C 796.303 1.92684 3.78362 0
M  V30 8341 O 797.327 1.67645 3.14282 0
M  V30 8342 O 796.186 2.34765 4.93505 0
M  V30 8343 H 793.28 0.322831 0.761386 0
M  V30 8344 H 795.826 1.28054 1.11357 0
M  V30 8345 H 794.598 2.72405 2.80911 0
M  V30 8346 H 794.221 1.29602 3.75884 0
M  V30 8347 N 795.218 -1.23913 0.973828 0
M  V30 8348 C 796.128 -2.28838 0.516735 0
M  V30 8349 C 797.144 -1.68723 -0.425282 0
M  V30 8350 O 798.32 -1.99201 -0.296819 0
M  V30 8351 C 795.385 -3.46233 -0.179914 0
M  V30 8352 C 794.446 -4.21729 0.80269 0
M  V30 8353 C 793.679 -5.33518 0.139191 0
M  V30 8354 O 793.902 -5.60252 -1.07118 0
M  V30 8355 O 792.836 -5.96088 0.834447 0
M  V30 8356 H 796.662 -2.70067 1.38916 0
M  V30 8357 H 794.247 -1.2972 0.74115 0
M  V30 8358 H 796.129 -4.17514 -0.570991 0
M  V30 8359 H 794.804 -3.06969 -1.02721 0
M  V30 8360 H 793.711 -3.52799 1.24434 0
M  V30 8361 H 795.044 -4.64825 1.61859 0
M  V30 8362 N 796.696 -0.74468 -1.38897 0
M  V30 8363 C 797.606 -0.112892 -2.34328 0
M  V30 8364 C 798.622 0.71087 -1.58816 0
M  V30 8365 O 799.798 0.637092 -1.91058 0
M  V30 8366 C 796.863 0.776417 -3.37894 0
M  V30 8367 C 795.924 -0.0606999 -4.29257 0
M  V30 8368 C 795.157 0.786258 -5.27877 0
M  V30 8369 O 795.38 2.02463 -5.33259 0
M  V30 8370 O 794.314 0.209781 -6.01534 0
M  V30 8371 H 798.14 -0.900801 -2.90033 0
M  V30 8372 H 795.725 -0.505462 -1.4059 0
M  V30 8373 H 797.607 1.28496 -4.01331 0
M  V30 8374 H 796.282 1.54297 -2.84559 0
M  V30 8375 H 795.189 -0.614984 -3.69011 0
M  V30 8376 H 796.522 -0.789702 -4.85824 0
M  V30 8377 N 798.174 1.49689 -0.493057 0
M  V30 8378 C 799.104 2.31826 0.279073 0
M  V30 8379 C 800.085 1.39733 0.969987 0
M  V30 8380 O 801.27 1.68646 0.962925 0
M  V30 8381 C 798.4 3.20046 1.34862 0
M  V30 8382 C 797.354 4.20869 0.77805 0
M  V30 8383 C 796.68 4.97971 1.94753 0
M  V30 8384 C 797.98 5.21813 -0.225543 0
M  V30 8385 H 799.674 2.96627 -0.406512 0
M  V30 8386 H 797.22 1.42647 -0.196943 0
M  V30 8387 H 799.173 3.76315 1.89645 0
M  V30 8388 H 797.897 2.53172 2.06328 0
M  V30 8389 H 796.556 3.65733 0.252036 0
M  V30 8390 H 796.204 4.27552 2.64969 0
M  V30 8391 H 795.904 5.66186 1.57187 0
M  V30 8392 H 797.428 5.57082 2.49984 0
M  V30 8393 H 798.842 5.72823 0.233864 0
M  V30 8394 H 797.239 5.97872 -0.516622 0
M  V30 8395 H 798.309 4.71209 -1.14412 0
M  V30 8396 N 799.652 0.226554 1.55963 0
M  V30 8397 C 801.063 -0.280381 1.84583 0
M  V30 8398 C 801.414 -1.59105 1.14804 0
M  V30 8399 O 800.539 -2.12297 0.419414 0
M  V30 8400 C 801.134 -0.515499 3.34855 0
M  V30 8401 C 799.693 -0.966733 3.63774 0
M  V30 8402 C 798.84 -0.0325753 2.77281 0
M  V30 8403 H 801.791 0.449626 1.52197 0
M  V30 8404 H 801.812 -1.36085 3.55332 0
M  V30 8405 H 801.324 0.438594 3.85614 0
M  V30 8406 H 799.425 -1.93401 3.18476 0
M  V30 8407 H 799.538 -0.837679 4.7172 0
M  V30 8408 H 797.902 -0.540279 2.48904 0
M  V30 8409 H 798.685 0.916524 3.30839 0
M  V30 8410 N 801.13 -1.57531 -0.0467866 0
M  V30 8411 C 802.093 -2.04379 -1.03738 0
M  V30 8412 C 803.093 -0.944881 -1.3011 0
M  V30 8413 O 804.283 -1.20904 -1.25411 0
M  V30 8414 C 801.415 -2.44572 -2.37482 0
M  V30 8415 H 802.608 -2.93142 -0.633063 0
M  V30 8416 H 800.161 -1.53526 -0.293177 0
M  V30 8417 H 800.896 -1.58911 -2.82697 0
M  V30 8418 H 800.681 -3.24785 -2.19675 0
M  V30 8419 H 802.171 -2.81307 -3.08636 0
M  V30 8420 N 802.608 0.318715 -1.54344 0
M  V30 8421 C 803.571 1.37545 -1.83342 0
M  V30 8422 C 804.571 1.445 -0.705444 0
M  V30 8423 O 805.761 1.44443 -0.973752 0
M  V30 8424 C 802.893 2.76225 -1.99781 0
M  V30 8425 H 804.086 1.13084 -2.77762 0
M  V30 8426 H 801.639 0.554457 -1.46135 0
M  V30 8427 H 802.374 3.05934 -1.07588 0
M  V30 8428 H 802.159 2.7257 -2.81865 0
M  V30 8429 H 803.649 3.52664 -2.23647 0
M  V30 8430 N 804.086 1.46499 0.581025 0
M  V30 8431 C 805.311 1.55708 1.37002 0
M  V30 8432 C 805.736 0.19942 1.8704 0
M  V30 8433 O 805.094 -0.820731 1.61659 0
M  V30 8434 C 805.142 2.56716 2.53238 0
M  V30 8435 O 804.246 2.10336 3.54729 0
M  V30 8436 H 803.587 0.523912 0.407937 0
M  V30 8437 H 806.117 1.92085 0.704602 0
M  V30 8438 H 806.127 2.76378 3.00132 0
M  V30 8439 H 804.802 3.55307 2.16171 0
M  V30 8440 H 803.379 2.00669 3.14303 0
M  V30 8441 N 805.565 -0.825799 1.34232 0
M  V30 8442 C 806.495 -1.95151 1.28212 0
M  V30 8443 C 807.476 -1.69345 0.160123 0
M  V30 8444 O 808.661 -1.90983 0.352019 0
M  V30 8445 C 805.791 -3.31554 1.03388 0
M  V30 8446 C 804.745 -3.71793 2.12023 0
M  V30 8447 C 804.071 -5.06147 1.72392 0
M  V30 8448 C 805.371 -3.84193 3.53826 0
M  V30 8449 H 807.065 -2.00445 2.22401 0
M  V30 8450 H 804.611 -0.962996 1.07063 0
M  V30 8451 H 806.564 -4.09889 0.978225 0
M  V30 8452 H 805.288 -3.26551 0.0564142 0
M  V30 8453 H 803.947 -2.95731 2.16654 0
M  V30 8454 H 803.595 -4.97628 0.733137 0
M  V30 8455 H 803.295 -5.34041 2.451 0
M  V30 8456 H 804.819 -5.86943 1.68317 0
M  V30 8457 H 806.233 -4.52806 3.51624 0
M  V30 8458 H 804.63 -4.23538 4.2513 0
M  V30 8459 H 805.7 -2.86272 3.91377 0
M  V30 8460 N 807.043 -1.17915 -1.04565 0
M  V30 8461 C 807.991 -0.897919 -2.1457 0
M  V30 8462 C 808.985 0.139883 -1.68821 0
M  V30 8463 O 810.191 -0.00779463 -1.79998 0
M  V30 8464 H 806.566 -0.272867 -0.700748 0
M  V30 8465 H 808.537 -1.83268 -2.3549 0
M  V30 8466 C 807.286 -0.434634 -3.44973 0
M  V30 8467 H 806.609 -1.22469 -3.8058 0
M  V30 8468 H 808.049 -0.276804 -4.23095 0
M  V30 8469 C 806.508 0.848738 -3.26034 0
M  V30 8470 O 807.038 1.9141 -3.53164 0
M  V30 8471 N 805.244 0.799373 -2.79389 0
M  V30 8472 H 804.791 -0.0678192 -2.57511 0
M  V30 8473 H 804.749 1.6585 -2.67098 0
M  V30 8474 N 808.521 1.23394 -0.980386 0
M  V30 8475 C 809.471 2.22634 -0.491747 0
M  V30 8476 C 810.455 1.54958 0.433222 0
M  V30 8477 O 811.647 1.75049 0.262078 0
M  V30 8478 C 808.776 3.4269 0.204531 0
M  V30 8479 C 807.862 4.17594 -0.740007 0
M  V30 8480 N 808.253 4.69458 -1.88263 0
M  V30 8481 C 806.551 4.42554 -0.553335 0
M  V30 8482 C 807.252 5.26446 -2.47446 0
M  V30 8483 N 806.228 5.14377 -1.75834 0
M  V30 8484 H 810.03 2.60363 -1.36339 0
M  V30 8485 H 807.544 1.38924 -0.841059 0
M  V30 8486 H 809.541 4.12959 0.571901 0
M  V30 8487 H 808.201 3.06477 1.07246 0
M  V30 8488 H 809.212 4.65803 -2.26381 0
M  V30 8489 H 805.889 4.16629 0.269573 0
M  V30 8490 H 807.279 5.77195 -3.43941 0
M  V30 8491 N 809.999 0.752036 1.385 0
M  V30 8492 C 811.239 0.312408 2.01998 0
M  V30 8493 C 811.603 -1.085 1.58404 0
M  V30 8494 O 812.804 -1.62365 2.14222 0
M  V30 8495 C 811.075 0.429423 3.54811 0
M  V30 8496 S 812.634 0.0721487 4.38741 0
M  V30 8497 H 809.452 0.1213 0.700576 0
M  V30 8498 H 812.054 0.982312 1.69029 0
M  V30 8499 H 810.758 1.44743 3.84028 0
M  V30 8500 H 810.289 -0.257716 3.92555 0
M  V30 8501 H 812.304 -1.13875 4.82957 0
M  V30 8502 N 811.477 -1.49425 0.500989 0
M  V30 8503 C 812.705 -2.06861 -0.0403443 0
M  V30 8504 C 813.12 -1.36132 -1.30819 0
M  V30 8505 O 812.477 -0.439647 -1.77125 0
M  V30 8506 C 812.528 -3.6027 -0.297902 0
M  V30 8507 O 812.249 -4.28338 0.919686 0
M  V30 8508 C 813.75 -4.34419 -0.882876 0
M  V30 8509 H 810.97 -0.670688 0.0204619 0
M  V30 8510 H 813.514 -1.92207 0.698342 0
M  V30 8511 H 811.669 -3.74627 -0.98657 0
M  V30 8512 H 812.083 -5.2004 0.682528 0
M  V30 8513 H 813.557 -5.42631 -1.01268 0
M  V30 8514 H 814.034 -3.96898 -1.88066 0
M  V30 8515 H 814.64 -4.24669 -0.231677 0
M  V30 8516 N 812.955 -0.234822 -1.55841 0
M  V30 8517 C 814.204 0.393685 -1.97821 0
M  V30 8518 C 814.517 1.59947 -1.1259 0
M  V30 8519 O 815.723 2.29835 -1.44528 0
M  V30 8520 C 814.179 0.751811 -3.5196 0
M  V30 8521 C 813.787 -0.431898 -4.45913 0
M  V30 8522 C 815.531 1.34518 -4.02623 0
M  V30 8523 C 813.438 -0.0505976 -5.91378 0
M  V30 8524 H 812.368 0.150864 -0.738753 0
M  V30 8525 H 815.019 -0.333132 -1.80451 0
M  V30 8526 H 813.401 1.53642 -3.6498 0
M  V30 8527 H 814.575 -1.20935 -4.44647 0
M  V30 8528 H 812.89 -0.939385 -4.05666 0
M  V30 8529 H 815.487 1.64359 -5.08813 0
M  V30 8530 H 815.83 2.26554 -3.49255 0
M  V30 8531 H 816.363 0.623729 -3.9288 0
M  V30 8532 H 813.102 -0.937779 -6.48757 0
M  V30 8533 H 812.622 0.690898 -5.95808 0
M  V30 8534 H 814.301 0.37146 -6.45933 0
M  V30 8535 N 814.433 1.57553 0.0384317 0
M  V30 8536 C 815.365 2.02726 1.06934 0
M  V30 8537 C 816.378 0.938502 1.33026 0
M  V30 8538 O 817.567 1.21595 1.30678 0
M  V30 8539 C 814.667 2.37958 2.41308 0
M  V30 8540 C 813.84 3.69098 2.34703 0
M  V30 8541 C 812.899 3.91623 3.51451 0
M  V30 8542 O 811.925 4.628 3.31368 0
M  V30 8543 N 813.127 3.36538 4.72993 0
M  V30 8544 H 815.892 2.91781 0.684381 0
M  V30 8545 H 813.453 1.60307 0.226542 0
M  V30 8546 H 815.445 2.50172 3.18113 0
M  V30 8547 H 814.015 1.54621 2.71682 0
M  V30 8548 H 813.235 3.67325 1.43059 0
M  V30 8549 H 814.523 4.55144 2.27424 0
M  V30 8550 H 813.921 2.78828 4.92211 0
M  V30 8551 H 812.478 3.54148 5.47195 0
M  V30 8552 N 815.911 -0.310526 1.54511 0
M  V30 8553 C 817.16 -1.0445 1.72549 0
M  V30 8554 C 817.473 -1.88748 0.513172 0
M  V30 8555 O 818.679 -2.65338 0.575165 0
M  V30 8556 C 817.135 -1.90665 3.05246 0
M  V30 8557 C 816.743 -1.11415 4.33925 0
M  V30 8558 C 818.487 -2.63719 3.32645 0
M  V30 8559 C 816.394 -1.96852 5.57677 0
M  V30 8560 H 815.324 -0.393676 0.643067 0
M  V30 8561 H 817.975 -0.302003 1.80998 0
M  V30 8562 H 816.357 -2.68864 2.90737 0
M  V30 8563 H 817.531 -0.378956 4.59239 0
M  V30 8564 H 815.846 -0.499853 4.13389 0
M  V30 8565 H 818.443 -3.27974 4.223 0
M  V30 8566 H 818.786 -3.32047 2.51098 0
M  V30 8567 H 819.319 -1.92574 3.48081 0
M  V30 8568 H 816.058 -1.33009 6.41864 0
M  V30 8569 H 815.578 -2.68069 5.36562 0
M  V30 8570 H 817.257 -2.55127 5.94575 0
M  V30 8571 N 817.389 -1.46805 -0.573248 0
M  V30 8572 C 818.614 -1.56433 -1.36175 0
M  V30 8573 C 819.039 -0.209336 -1.86932 0
M  V30 8574 O 818.397 0.812146 -1.62092 0
M  V30 8575 C 818.445 -2.58055 -2.51873 0
M  V30 8576 O 817.549 -2.12214 -3.53609 0
M  V30 8577 H 816.89 -0.526068 -0.405153 0
M  V30 8578 H 819.42 -1.92456 -0.694405 0
M  V30 8579 H 819.43 -2.77966 -2.98662 0
M  V30 8580 H 818.105 -3.56448 -2.14284 0
M  V30 8581 H 816.682 -2.02333 -3.13234 0
M  V30 8582 N 818.867 0.818669 -1.34668 0
M  V30 8583 C 819.777 1.9616 -1.2868 0
M  V30 8584 C 820.793 1.72918 -0.193742 0
M  V30 8585 O 821.969 1.96951 -0.420975 0
M  V30 8586 C 819.034 3.30534 -1.04633 0
M  V30 8587 C 818.095 3.66755 -2.23136 0
M  V30 8588 C 817.328 4.94717 -2.00227 0
M  V30 8589 O 817.551 5.62218 -0.96264 0
M  V30 8590 O 816.485 5.28915 -2.87286 0
M  V30 8591 H 820.311 2.04157 -2.24842 0
M  V30 8592 H 817.896 0.954691 -1.14917 0
M  V30 8593 H 819.778 4.11005 -0.930216 0
M  V30 8594 H 818.453 3.23495 -0.115139 0
M  V30 8595 H 817.36 2.8671 -2.40308 0
M  V30 8596 H 818.693 3.78484 -3.1466 0
M  V30 8597 N 820.346 1.18468 1.03938 0
M  V30 8598 C 821.276 0.936389 2.13902 0
M  V30 8599 C 822.257 -0.126381 1.6963 0
M  V30 8600 O 823.442 0.0264757 1.94182 0
M  V30 8601 C 820.572 0.462729 3.44204 0
M  V30 8602 C 819.526 1.46613 4.02105 0
M  V30 8603 C 818.852 0.84994 5.27902 0
M  V30 8604 C 820.152 2.84323 4.3813 0
M  V30 8605 H 821.846 1.85602 2.3493 0
M  V30 8606 H 819.392 0.893806 1.12903 0
M  V30 8607 H 821.345 0.276382 4.20493 0
M  V30 8608 H 820.069 -0.492477 3.22866 0
M  V30 8609 H 818.728 1.63944 3.27899 0
M  V30 8610 H 818.376 -0.112493 5.02874 0
M  V30 8611 H 818.076 1.51988 5.67603 0
M  V30 8612 H 819.6 0.674152 6.06867 0
M  V30 8613 H 821.014 2.70636 5.054 0
M  V30 8614 H 819.411 3.48012 4.88884 0
M  V30 8615 H 820.481 3.37776 3.47901 0
M  V30 8616 N 821.824 -1.22873 0.986916 0
M  V30 8617 C 822.734 -2.28277 0.540978 0
M  V30 8618 C 823.75 -1.69164 -0.407363 0
M  V30 8619 O 824.926 -1.99504 -0.275674 0
M  V30 8620 C 821.991 -3.46404 -0.143181 0
M  V30 8621 C 821.052 -4.20854 0.847375 0
M  V30 8622 C 820.285 -5.33341 0.19577 0
M  V30 8623 O 820.508 -5.61356 -1.0117 0
M  V30 8624 O 819.442 -5.95169 0.897623 0
M  V30 8625 H 823.268 -2.68578 1.41773 0
M  V30 8626 H 820.853 -1.28927 0.754867 0
M  V30 8627 H 822.735 -4.18096 -0.526676 0
M  V30 8628 H 821.41 -3.08041 -0.994593 0
M  V30 8629 H 820.317 -3.51459 1.28169 0
M  V30 8630 H 821.65 -4.63082 1.6678 0
M  V30 8631 N 823.302 -0.75937 -1.38099 0
M  V30 8632 C 824.53 -0.329111 -2.04266 0
M  V30 8633 C 824.945 1.04453 -1.57274 0
M  V30 8634 O 824.302 1.66449 -0.748397 0
M  V30 8635 C 824.353 -0.349192 -3.5981 0
M  V30 8636 O 824.074 -1.66863 -4.05078 0
M  V30 8637 C 825.575 0.0942106 -4.432 0
M  V30 8638 H 822.795 -0.13971 -0.656294 0
M  V30 8639 H 825.339 -1.02984 -1.76677 0
M  V30 8640 H 823.494 0.302846 -3.86214 0
M  V30 8641 H 823.908 -1.59877 -4.9954 0
M  V30 8642 H 825.382 0.0290004 -5.51992 0
M  V30 8643 H 825.859 1.1429 -4.24069 0
M  V30 8644 H 826.465 -0.529171 -4.21995 0
M  V30 8645 N 824.78 1.49157 -0.508906 0
M  V30 8646 C 825.728 2.30922 0.278906 0
M  V30 8647 C 826.722 1.39889 0.955382 0
M  V30 8648 O 827.928 1.56901 0.882169 0
M  V30 8649 H 824.303 0.744087 0.108805 0
M  V30 8650 H 826.274 2.95277 -0.430583 0
M  V30 8651 C 825.023 3.21432 1.32576 0
M  V30 8652 H 824.346 3.91413 0.814634 0
M  V30 8653 H 825.786 3.81568 1.84882 0
M  V30 8654 C 824.245 2.41583 2.34817 0
M  V30 8655 O 824.775 2.1256 3.40854 0
M  V30 8656 N 822.981 2.03462 2.07489 0
M  V30 8657 H 822.528 2.27265 1.21278 0
M  V30 8658 H 822.486 1.50345 2.76123 0
M  V30 8659 N 826.258 0.243083 1.55714 0
M  V30 8660 C 827.504 -0.383287 1.99145 0
M  V30 8661 C 827.837 -1.57868 1.13098 0
M  V30 8662 O 827.112 -1.93535 0.193509 0
M  V30 8663 C 827.395 -0.796879 3.51172 0
M  V30 8664 C 827.248 0.403642 4.47985 0
M  V30 8665 C 828.567 -1.64525 4.08191 0
M  V30 8666 H 825.686 -0.137843 0.723995 0
M  V30 8667 H 828.328 0.343631 1.86867 0
M  V30 8668 H 826.478 -1.41625 3.61766 0
M  V30 8669 H 828.15 1.04204 4.49376 0
M  V30 8670 H 826.393 1.04741 4.20965 0
M  V30 8671 H 827.064 0.0709794 5.51954 0
M  V30 8672 H 829.54 -1.12246 4.00674 0
M  V30 8673 H 828.416 -1.9035 5.14838 0
M  V30 8674 H 828.677 -2.61582 3.56409 0
M  V30 8675 O 827.775 -1.61141 0.107569 0
M  V30 8676 H 828.466 -1.87321 -0.492993 0
M  V30 END ATOM
M  V30 BEGIN BOND
M  V30 END BOND
M  V30 END CTAB
M  END
$$$$
