drugbank_target|Q8IB72 DnaJ protein, putative (DB11638)
 OpenBabel12092121113D

  0  0  0     0  0            999 V3000
M  V30 BEGIN CTAB
M  V30 COUNTS 10887 10987 0 0 0
M  V30 BEGIN ATOM
M  V30 1 H -0.908 1.98254 -0.117106 0
M  V30 2 N 0 1.576 0 0
M  V30 3 C 0.933 2.03868 1.02534 0
M  V30 4 C 1.911 0.928543 1.3348 0
M  V30 5 O 3.095 1.19667 1.45644 0
M  V30 6 C 0.222 2.43627 2.35294 0
M  V30 7 C -0.732 3.65373 2.2001 0
M  V30 8 S 0.101 5.13292 1.52614 0
M  V30 9 C 1.257 5.56322 2.86805 0
M  V30 10 H 1.49 2.90518 0.631377 0
M  V30 11 H -0.977 1.52953 0.210867 0
M  V30 12 H 0.981 2.67203 3.11629 0
M  V30 13 H -0.358 1.57376 2.7183 0
M  V30 14 H -1.165 3.90944 3.18086 0
M  V30 15 H -1.563 3.418 1.51819 0
M  V30 16 H 0.729 5.58782 3.83104 0
M  V30 17 H 1.672 6.56266 2.65933 0
M  V30 18 H 2.08 4.83886 2.90714 0
M  V30 19 N 1.4781 -0.272755 1.55222 0
M  V30 20 C 2.7261 -1.00234 1.75492 0
M  V30 21 C 3.0471 -1.8681 0.5592 0
M  V30 22 O 2.3171 -1.91215 -0.425882 0
M  V30 23 H 0.8971 -0.373076 0.647166 0
M  V30 24 H 3.5591 -0.296926 1.92625 0
M  V30 25 H 2.6551 -1.63913 2.65592 0
M  V30 26 N 2.9562 -1.48159 -0.537278 0
M  V30 27 C 4.3722 -1.34118 -0.865129 0
M  V30 28 C 4.5722 -0.346678 -1.98495 0
M  V30 29 O 3.6282 0.234715 -2.51407 0
M  V30 30 C 4.9412 -2.73963 -1.23954 0
M  V30 31 C 6.4892 -2.82397 -1.34984 0
M  V30 32 C 6.9642 -4.22928 -1.75772 0
M  V30 33 N 8.4552 -4.25566 -1.82887 0
M  V30 34 C 9.1902 -5.31235 -2.15817 0
M  V30 35 N 8.6862 -6.47189 -2.47222 0
M  V30 36 N 10.4792 -5.18624 -2.16761 0
M  V30 37 H 2.6302 -2.1144 0.201715 0
M  V30 38 H 4.8932 -0.947598 0.0275949 0
M  V30 39 H 4.5992 -3.48264 -0.490381 0
M  V30 40 H 4.4732 -3.0702 -2.19132 0
M  V30 41 H 6.8602 -2.08356 -2.08978 0
M  V30 42 H 6.9412 -2.5297 -0.379448 0
M  V30 43 H 6.5852 -4.97482 -1.02341 0
M  V30 44 H 6.5152 -4.49794 -2.73848 0
M  V30 45 H 9.0062 -3.41924 -1.60924 0
M  V30 46 H 9.3192 -7.23564 -2.71433 0
M  V30 47 H 7.6642 -6.50476 -2.44757 0
M  V30 48 H 10.8552 -4.27056 -1.91679 0
M  V30 49 H 11.0282 -6.01078 -2.42093 0
M  V30 50 N 4.4343 0.785586 -1.36625 0
M  V30 51 C 5.3813 1.89838 -1.31264 0
M  V30 52 C 6.3513 1.65115 -0.180633 0
M  V30 53 O 7.5363 1.87222 -0.36777 0
M  V30 54 C 4.6763 3.26706 -1.11163 0
M  V30 55 C 3.7893 3.63476 -2.33472 0
M  V30 56 C 2.9243 4.89481 -2.06353 0
M  V30 57 C 1.9633 5.18941 -3.24602 0
M  V30 58 N 1.1003 6.36131 -2.97123 0
M  V30 59 H 5.9403 1.93756 -2.26413 0
M  V30 60 H 3.4773 0.947454 -1.12524 0
M  V30 61 H 5.4353 4.05639 -0.975337 0
M  V30 62 H 4.0653 3.222 -0.196674 0
M  V30 63 H 3.1173 2.79636 -2.57891 0
M  V30 64 H 4.4293 3.81193 -3.21704 0
M  V30 65 H 3.5833 5.76288 -1.89675 0
M  V30 66 H 2.3223 4.73841 -1.15437 0
M  V30 67 H 1.3273 4.30615 -3.41834 0
M  V30 68 H 2.5523 5.36498 -4.16349 0
M  V30 69 H 0.4983 6.21875 -2.08823 0
M  V30 70 H 0.4153 6.54198 -3.78894 0
M  V30 71 H 1.6833 7.2591 -2.84033 0
M  V30 72 N 5.9124 1.20967 1.01018 0
M  V30 73 C 6.8754 0.965918 2.07853 0
M  V30 74 C 7.8754 -0.0610545 1.60684 0
M  V30 75 O 9.0654 0.175681 1.73312 0
M  V30 76 C 6.1974 0.455513 3.37843 0
M  V30 77 H 7.3904 1.91365 2.3091 0
M  V30 78 H 4.9434 1.02594 1.17916 0
M  V30 79 H 5.6784 -0.497381 3.20463 0
M  V30 80 H 5.4634 1.19622 3.73407 0
M  V30 81 H 6.9534 0.304667 4.16487 0
M  V30 82 N 7.3905 -1.2043 1.01659 0
M  V30 83 C 8.6155 -1.94318 0.724942 0
M  V30 84 C 9.0405 -1.74266 -0.708034 0
M  V30 85 O 8.3985 -1.03694 -1.48719 0
M  V30 86 C 8.4465 -3.44486 1.06591 0
M  V30 87 O 7.5505 -4.12017 0.177599 0
M  V30 88 H 6.8915 -0.60708 0.26898 0
M  V30 89 H 9.4215 -1.52861 1.35995 0
M  V30 90 H 9.4315 -3.95106 1.01762 0
M  V30 91 H 8.1065 -3.58404 2.10997 0
M  V30 92 H 6.6835 -3.71821 0.283421 0
M  V30 93 N 8.8686 -0.792821 -1.36206 0
M  V30 94 C 9.8166 -0.181555 -2.3189 0
M  V30 95 C 10.8106 0.661025 -1.55971 0
M  V30 96 O 12.0166 0.555728 -1.71206 0
M  V30 97 H 8.3916 -0.0399382 -0.750939 0
M  V30 98 H 10.3626 -1.00394 -2.81005 0
M  V30 99 C 9.1116 0.666444 -3.41253 0
M  V30 100 H 8.4346 0.0274489 -3.99791 0
M  V30 101 H 9.8746 1.06076 -4.10517 0
M  V30 102 C 8.3336 1.82614 -2.83114 0
M  V30 103 O 8.8636 2.9229 -2.75553 0
M  V30 104 N 7.0696 1.63333 -2.40356 0
M  V30 105 H 6.6166 0.741217 -2.46706 0
M  V30 106 H 6.5746 2.41087 -2.01803 0
M  V30 107 N 10.3467 1.47872 -0.545128 0
M  V30 108 C 11.6237 1.9554 0.0485222 0
M  V30 109 C 12.0037 1.4876 1.49779 0
M  V30 110 O 11.3517 0.720925 2.16829 0
M  V30 111 C 11.5617 3.48898 -0.084417 0
M  V30 112 C 12.9097 4.24547 0.0671239 0
M  V30 113 O 13.9337 3.56198 -0.0113649 0
M  V30 114 O 12.7927 5.45999 0.233882 0
M  V30 115 H 9.8867 0.823957 0.0708773 0
M  V30 116 H 12.4327 1.58327 -0.610798 0
M  V30 117 H 11.2047 3.75714 -1.09337 0
M  V30 118 H 10.8277 3.92845 0.613066 0
M  V30 119 N 11.8248 0.280983 1.55075 0
M  V30 120 C 13.0498 -0.340154 2.04592 0
M  V30 121 C 13.4748 -1.48246 1.15779 0
M  V30 122 O 12.8328 -1.80614 0.15761 0
M  V30 123 C 12.8808 -0.793104 3.5177 0
M  V30 124 O 11.9848 -1.89981 3.66034 0
M  V30 125 H 11.3258 -0.0694289 0.66036 0
M  V30 126 H 13.8558 0.416993 2.00306 0
M  V30 127 H 13.8658 -1.08729 3.93245 0
M  V30 128 H 12.5408 0.0426163 4.15878 0
M  V30 129 H 11.1178 -1.60771 3.36463 0
M  V30 130 N 13.3029 -1.57598 0.00835791 0
M  V30 131 C 14.5329 -1.94931 -0.684496 0
M  V30 132 C 14.9409 -0.882233 -1.67372 0
M  V30 133 O 14.2839 0.146621 -1.83114 0
M  V30 134 C 14.3459 -3.283 -1.4649 0
M  V30 135 C 14.0099 -4.52548 -0.63634 0
M  V30 136 C 15.0069 -5.19839 0.0795586 0
M  V30 137 C 12.6919 -4.98942 -0.579849 0
M  V30 138 C 14.6859 -6.3183 0.840843 0
M  V30 139 C 12.3729 -6.10819 0.185155 0
M  V30 140 C 13.3709 -6.77121 0.894227 0
M  V30 141 O 13.0589 -7.86853 1.64673 0
M  V30 142 H 12.7909 -0.647249 -0.19505 0
M  V30 143 H 15.3449 -2.05318 0.0581272 0
M  V30 144 H 13.5749 -3.14345 -2.2522 0
M  V30 145 H 15.2639 -3.50685 -2.04389 0
M  V30 146 H 16.0299 -4.84979 0.0451202 0
M  V30 147 H 11.9089 -4.47155 -1.1213 0
M  V30 148 H 15.4529 -6.83513 1.39483 0
M  V30 149 H 11.3499 -6.4512 0.221384 0
M  V30 150 H 12.1179 -8.03412 1.56432 0
M  V30 151 N 14.781 0.264519 -1.55364 0
M  V30 152 C 15.691 1.34902 -1.91934 0
M  V30 153 C 16.707 1.53595 -0.817593 0
M  V30 154 O 17.883 1.67558 -1.11742 0
M  V30 155 C 14.948 2.68676 -2.19121 0
M  V30 156 C 14.009 2.58657 -3.4263 0
M  V30 157 C 13.242 3.86051 -3.68511 0
M  V30 158 O 13.465 4.87126 -2.96757 0
M  V30 159 O 12.399 3.85744 -4.62045 0
M  V30 160 H 16.225 1.06883 -2.8427 0
M  V30 161 H 13.81 0.463775 -1.42019 0
M  V30 162 H 15.692 3.47759 -2.37995 0
M  V30 163 H 14.367 2.96463 -1.29966 0
M  V30 164 H 13.274 1.7792 -3.29082 0
M  V30 165 H 14.607 2.35818 -4.32031 0
M  V30 166 N 16.2591 1.48442 0.529413 0
M  V30 167 C 17.2071 1.63452 1.65487 0
M  V30 168 C 18.2011 0.500955 1.61823 0
M  V30 169 O 19.4071 0.679695 1.66674 0
M  V30 170 H 15.7821 0.514905 0.548066 0
M  V30 171 H 17.7531 2.57975 1.49971 0
M  V30 172 C 16.5021 1.69196 3.03756 0
M  V30 173 H 15.8251 2.55784 3.07269 0
M  V30 174 H 17.2651 1.83743 3.82119 0
M  V30 175 C 15.7241 0.430765 3.34135 0
M  V30 176 O 16.2541 -0.4561 3.99102 0
M  V30 177 N 14.4601 0.302293 2.89023 0
M  V30 178 H 14.0071 1.02496 2.36331 0
M  V30 179 H 13.9651 -0.540546 3.09718 0
M  V30 180 N 17.7372 -0.778329 1.37039 0
M  V30 181 C 18.9622 -1.57248 1.35233 0
M  V30 182 C 19.3872 -1.87999 -0.0615568 0
M  V30 183 O 18.7452 -1.48734 -1.03672 0
M  V30 184 C 18.7932 -2.86353 2.19167 0
M  V30 185 O 17.8972 -3.80442 1.59178 0
M  V30 186 H 17.2382 -0.476569 0.462362 0
M  V30 187 H 19.7682 -0.963853 1.80474 0
M  V30 188 H 19.7782 -3.35519 2.32145 0
M  V30 189 H 18.4532 -2.63299 3.21942 0
M  V30 190 H 17.0302 -3.39067 1.55203 0
M  V30 191 N 19.2153 -1.21501 -1.00376 0
M  V30 192 C 20.4923 -0.941745 -1.71437 0
M  V30 193 C 20.8723 0.546114 -2.03914 0
M  V30 194 O 20.2203 1.51128 -1.71384 0
M  V30 195 C 20.4303 -1.82812 -2.97289 0
M  V30 196 C 21.7783 -2.07771 -3.70292 0
M  V30 197 O 22.8023 -1.80171 -3.07273 0
M  V30 198 O 21.6613 -2.54456 -4.83647 0
M  V30 199 H 18.7553 -0.353243 -0.747762 0
M  V30 200 H 21.3013 -1.32436 -1.06108 0
M  V30 201 H 20.0733 -2.83501 -2.69709 0
M  V30 202 H 19.6963 -1.4464 -3.70358 0
M  V30 203 N 20.6934 1.19889 -1.02296 0
M  V30 204 C 21.9394 1.89701 -0.717033 0
M  V30 205 C 22.2724 1.7905 0.751989 0
M  V30 206 O 21.5474 1.17891 1.547 0
M  V30 207 C 21.8304 3.40858 -1.16136 0
M  V30 208 C 21.6834 3.60411 -2.69117 0
M  V30 209 C 23.0024 4.33876 -0.737549 0
M  V30 210 H 20.1214 0.688874 -0.261957 0
M  V30 211 H 22.7634 1.41154 -1.27183 0
M  V30 212 H 20.9134 3.82335 -0.689342 0
M  V30 213 H 22.5854 3.28145 -3.2422 0
M  V30 214 H 20.8284 3.03665 -3.0979 0
M  V30 215 H 21.4994 4.66396 -2.95261 0
M  V30 216 H 23.9754 4.00081 -1.14344 0
M  V30 217 H 22.8514 5.38242 -1.0764 0
M  V30 218 H 23.1124 4.40628 0.360436 0
M  V30 219 N 22.1715 0.800033 1.35784 0
M  V30 220 C 23.1195 0.193851 2.31791 0
M  V30 221 C 24.1135 -0.652744 1.56319 0
M  V30 222 O 25.3195 -0.546641 1.71499 0
M  V30 223 H 21.6945 0.04392 0.750716 0
M  V30 224 H 23.6655 1.01883 2.80468 0
M  V30 225 C 22.4145 -0.648338 3.41602 0
M  V30 226 H 21.7375 -0.00624665 3.998 0
M  V30 227 H 23.1775 -1.03898 4.11073 0
M  V30 228 C 21.6365 -1.8111 2.84079 0
M  V30 229 O 22.1665 -2.90825 2.77099 0
M  V30 230 N 20.3725 -1.62056 2.41218 0
M  V30 231 H 19.9195 -0.728123 2.47095 0
M  V30 232 H 19.8775 -2.40013 2.03079 0
M  V30 233 N 23.6496 -1.47581 0.552962 0
M  V30 234 C 24.8976 -2.02082 0.0272703 0
M  V30 235 C 25.2186 -1.4301 -1.32563 0
M  V30 236 O 24.4886 -0.603745 -1.86365 0
M  V30 237 H 23.0686 -0.746966 0.00709182 0
M  V30 238 H 25.7306 -1.81033 0.722008 0
M  V30 239 H 24.8266 -3.12034 -0.0639951 0
M  V30 240 N 25.1277 -0.289203 -1.54924 0
M  V30 241 C 26.0907 0.579144 -2.21762 0
M  V30 242 C 27.0907 1.07047 -1.1999 0
M  V30 243 O 28.2807 0.968384 -1.44803 0
M  V30 244 C 25.4127 1.80055 -2.8947 0
M  V30 245 H 26.6057 -0.00464908 -2.999 0
M  V30 246 H 24.1587 -0.0399306 -1.56249 0
M  V30 247 H 24.8937 2.42449 -2.15381 0
M  V30 248 H 24.6787 1.45602 -3.64064 0
M  V30 249 H 26.1687 2.41773 -3.40493 0
M  V30 250 N 26.6058 1.57591 -0.0167156 0
M  V30 251 C 27.8518 1.91567 0.665582 0
M  V30 252 C 28.1848 0.892298 1.72487 0
M  V30 253 O 27.4598 -0.0867127 1.94307 0
M  V30 254 C 27.7428 3.36069 1.29342 0
M  V30 255 C 27.5958 4.49135 0.244541 0
M  V30 256 C 28.9148 3.803 2.21495 0
M  V30 257 H 26.0338 0.69666 0.240488 0
M  V30 258 H 28.6758 1.89866 -0.0714356 0
M  V30 259 H 26.8258 3.3765 1.92158 0
M  V30 260 H 28.4978 4.59689 -0.385228 0
M  V30 261 H 26.7408 4.3165 -0.431379 0
M  V30 262 H 27.4118 5.47242 0.723207 0
M  V30 263 H 29.8878 3.80377 1.68678 0
M  V30 264 H 28.7638 4.82127 2.62382 0
M  V30 265 H 29.0248 3.15104 3.101 0
M  V30 266 N 28.0839 -0.256276 1.55502 0
M  V30 267 C 29.3089 -1.00766 1.81276 0
M  V30 268 C 29.7339 -1.78524 0.59252 0
M  V30 269 O 29.0919 -1.75413 -0.45827 0
M  V30 270 C 29.1399 -1.92869 3.04687 0
M  V30 271 O 28.2439 -3.019 2.80945 0
M  V30 272 H 27.5849 -0.287224 0.598664 0
M  V30 273 H 30.1149 -0.280109 2.02674 0
M  V30 274 H 30.1249 -2.34511 3.33869 0
M  V30 275 H 28.7999 -1.35689 3.93143 0
M  V30 276 H 27.3769 -2.64454 2.62904 0
M  V30 277 N 29.562 -1.4872 -0.521534 0
M  V30 278 C 30.509 -1.63871 -1.62527 0
M  V30 279 C 31.479 -0.480559 -1.58996 0
M  V30 280 O 32.664 -0.705085 -1.77294 0
M  V30 281 C 29.804 -1.69227 -3.00759 0
M  V30 282 C 28.917 -2.96207 -3.14461 0
M  V30 283 C 28.052 -2.92671 -4.43303 0
M  V30 284 C 27.091 -4.14318 -4.50563 0
M  V30 285 N 26.228 -4.0881 -5.70805 0
M  V30 286 H 31.068 -2.58123 -1.48918 0
M  V30 287 H 28.605 -1.28 -0.724878 0
M  V30 288 H 30.563 -1.70314 -3.80853 0
M  V30 289 H 29.193 -0.784586 -3.1312 0
M  V30 290 H 28.245 -3.04826 -2.27564 0
M  V30 291 H 29.557 -3.86192 -3.15686 0
M  V30 292 H 28.711 -2.92206 -5.31696 0
M  V30 293 H 27.45 -2.00429 -4.44612 0
M  V30 294 H 26.455 -4.15049 -3.60575 0
M  V30 295 H 27.68 -5.07729 -4.50986 0
M  V30 296 H 25.626 -3.19394 -5.72995 0
M  V30 297 H 25.543 -4.92509 -5.7356 0
M  V30 298 H 26.811 -4.12418 -6.61462 0
M  V30 299 N 31.0401 0.771051 -1.3745 0
M  V30 300 C 32.4561 1.07171 -1.18265 0
M  V30 301 C 32.6561 2.01491 -0.019287 0
M  V30 302 O 31.7121 2.44244 0.640408 0
M  V30 303 C 33.0251 1.66854 -2.50161 0
M  V30 304 C 34.5731 1.79109 -2.56689 0
M  V30 305 C 35.0481 2.42205 -3.88717 0
M  V30 306 N 36.5391 2.49655 -3.90162 0
M  V30 307 C 37.2741 2.9933 -4.8907 0
M  V30 308 N 36.7701 3.49172 -5.98374 0
M  V30 309 N 38.5631 2.9821 -4.76474 0
M  V30 310 H 30.7141 0.144796 -2.11906 0
M  V30 311 H 32.9771 0.126863 -0.939473 0
M  V30 312 H 32.6831 1.05017 -3.35655 0
M  V30 313 H 32.5571 2.6614 -2.673 0
M  V30 314 H 34.9441 2.40077 -1.71601 0
M  V30 315 H 35.0251 0.785757 -2.43433 0
M  V30 316 H 34.6691 1.81875 -4.74219 0
M  V30 317 H 34.5991 3.43345 -3.99276 0
M  V30 318 H 37.0901 2.14383 -3.11205 0
M  V30 319 H 37.4031 3.8548 -6.69795 0
M  V30 320 H 35.7481 3.47275 -6.02018 0
M  V30 321 H 38.9391 2.58572 -3.90203 0
M  V30 322 H 39.1121 3.36613 -5.53711 0
M  V30 323 N 32.5182 1.22032 0.997298 0
M  V30 324 C 33.4652 0.986467 2.08656 0
M  V30 325 C 34.4352 -0.0902671 1.65855 0
M  V30 326 O 35.6202 0.0584294 1.90711 0
M  V30 327 C 32.7602 0.565569 3.40434 0
M  V30 328 C 31.8732 1.71259 3.96604 0
M  V30 329 C 31.0082 1.24011 5.16522 0
M  V30 330 C 30.0472 2.35896 5.64818 0
M  V30 331 N 29.1842 1.89726 6.7598 0
M  V30 332 H 34.0242 1.91892 2.27994 0
M  V30 333 H 31.5612 0.956199 1.11782 0
M  V30 334 H 33.5192 0.302738 4.161 0
M  V30 335 H 32.1492 -0.329879 3.2111 0
M  V30 336 H 31.2012 2.08986 3.17851 0
M  V30 337 H 32.5132 2.55436 4.28432 0
M  V30 338 H 31.6672 0.934395 5.99461 0
M  V30 339 H 30.4062 0.368487 4.86306 0
M  V30 340 H 29.4112 2.67261 4.8047 0
M  V30 341 H 30.6362 3.23567 5.97061 0
M  V30 342 H 28.5822 1.0492 6.47555 0
M  V30 343 H 28.4992 2.67471 7.07103 0
M  V30 344 H 29.7672 1.62211 7.62435 0
M  V30 345 N 33.9963 -1.19345 1.0293 0
M  V30 346 C 35.2213 -1.93538 0.745511 0
M  V30 347 C 35.6463 -1.75007 -0.689511 0
M  V30 348 O 35.0043 -1.05265 -1.47611 0
M  V30 349 C 35.0523 -3.43336 1.10239 0
M  V30 350 O 34.1563 -4.11806 0.221289 0
M  V30 351 H 33.4973 -0.604193 0.275404 0
M  V30 352 H 36.0273 -1.5141 1.37609 0
M  V30 353 H 36.0373 -3.94004 1.05947 0
M  V30 354 H 34.7123 -3.56146 2.14786 0
M  V30 355 H 33.2893 -3.715 0.322842 0
M  V30 356 N 35.4744 -0.807222 -1.35358 0
M  V30 357 C 36.4214 -0.216037 -2.29787 0
M  V30 358 C 37.3914 0.650278 -1.52842 0
M  V30 359 O 38.5764 0.595227 -1.81278 0
M  V30 360 C 35.7164 0.628893 -3.39321 0
M  V30 361 C 34.8294 -0.257927 -4.31229 0
M  V30 362 C 33.9644 0.595069 -5.27856 0
M  V30 363 C 33.0034 -0.292111 -6.11403 0
M  V30 364 N 32.1404 0.520895 -7.00165 0
M  V30 365 H 36.9804 -1.02671 -2.79755 0
M  V30 366 H 34.5174 -0.517839 -1.37684 0
M  V30 367 H 36.4754 1.13393 -4.01494 0
M  V30 368 H 35.1054 1.40482 -2.90628 0
M  V30 369 H 34.1574 -0.881076 -3.70056 0
M  V30 370 H 35.4694 -0.940759 -4.89848 0
M  V30 371 H 34.6234 1.16522 -5.95405 0
M  V30 372 H 33.3624 1.31146 -4.69736 0
M  V30 373 H 32.3674 -0.874525 -5.428 0
M  V30 374 H 33.5924 -1.00638 -6.71602 0
M  V30 375 H 31.5384 1.22125 -6.44532 0
M  V30 376 H 31.4554 -0.103877 -7.55929 0
M  V30 377 H 32.7234 1.0743 -7.72062 0
M  V30 378 N 36.9525 1.47285 -0.560781 0
M  V30 379 C 38.2005 2.02064 -0.0379868 0
M  V30 380 C 38.5215 1.43711 1.31803 0
M  V30 381 O 37.7915 0.61362 1.86042 0
M  V30 382 H 36.3715 0.746918 -0.0110531 0
M  V30 383 H 39.0335 1.80648 -0.731598 0
M  V30 384 H 38.1295 3.12064 0.0474463 0
M  V30 385 N 38.4306 0.297415 1.54768 0
M  V30 386 C 39.3776 -0.580276 2.23386 0
M  V30 387 C 40.3476 -1.13238 1.21517 0
M  V30 388 O 41.5326 -1.17757 1.50126 0
M  V30 389 C 38.6726 -1.74801 2.97555 0
M  V30 390 C 37.7856 -1.22764 4.1419 0
M  V30 391 C 36.9206 -2.35895 4.75949 0
M  V30 392 C 35.9596 -1.80974 5.84735 0
M  V30 393 N 35.0966 -2.87664 6.40464 0
M  V30 394 H 39.9366 0.0114833 2.97998 0
M  V30 395 H 37.4736 0.0174361 1.4709 0
M  V30 396 H 39.4316 -2.43475 3.38786 0
M  V30 397 H 38.0616 -2.31145 2.25326 0
M  V30 398 H 37.1136 -0.433271 3.77924 0
M  V30 399 H 38.4256 -0.785551 4.92575 0
M  V30 400 H 37.5796 -3.12523 5.20014 0
M  V30 401 H 36.3186 -2.83429 3.96887 0
M  V30 402 H 35.3236 -1.02834 5.40097 0
M  V30 403 H 36.5486 -1.34348 6.65678 0
M  V30 404 H 34.4946 -3.34538 5.64287 0
M  V30 405 H 34.4116 -2.4794 7.14186 0
M  V30 406 H 35.6796 -3.642 6.89187 0
M  V30 407 N 39.9087 -1.5758 0.0250728 0
M  V30 408 C 41.1857 -1.82917 -0.692873 0
M  V30 409 C 41.5657 -0.908137 -1.90568 0
M  V30 410 O 40.9137 0.0372298 -2.2847 0
M  V30 411 C 41.1237 -3.32034 -1.07492 0
M  V30 412 C 42.4717 -3.98406 -1.46826 0
M  V30 413 O 43.4957 -3.36505 -1.16801 0
M  V30 414 O 42.3547 -5.07497 -2.02754 0
M  V30 415 H 39.4487 -0.754079 -0.33955 0
M  V30 416 H 41.9947 -1.69619 0.0524456 0
M  V30 417 H 40.7667 -3.90728 -0.211552 0
M  V30 418 H 40.3897 -3.50424 -1.87854 0
M  V30 419 N 41.3868 0.248026 -1.55636 0
M  V30 420 C 42.6638 0.998988 -1.68165 0
M  V30 421 C 43.0438 2.03409 -0.564621 0
M  V30 422 O 42.3918 2.24378 0.432076 0
M  V30 423 C 42.6018 1.63334 -3.0842 0
M  V30 424 C 43.9498 2.13562 -3.66983 0
M  V30 425 O 44.9738 1.73277 -3.11213 0
M  V30 426 O 43.8328 2.87526 -4.64749 0
M  V30 427 H 40.9268 0.464933 -0.683935 0
M  V30 428 H 43.4728 0.241902 -1.67967 0
M  V30 429 H 42.2448 0.884583 -3.8117 0
M  V30 430 H 41.8678 2.45666 -3.12624 0
M  V30 431 N 42.8649 1.48995 0.513639 0
M  V30 432 C 44.1139 1.57093 1.2651 0
M  V30 433 C 44.4269 0.257091 1.93903 0
M  V30 434 O 45.6329 0.216478 2.70636 0
M  V30 435 C 44.0889 2.77118 2.29638 0
M  V30 436 C 43.6969 4.15209 1.68241 0
M  V30 437 C 45.4409 2.94538 3.05692 0
M  V30 438 C 43.3479 5.26474 2.69406 0
M  V30 439 H 42.2779 0.584876 0.475854 0
M  V30 440 H 44.9289 1.7536 0.540487 0
M  V30 441 H 43.3109 2.52319 3.05207 0
M  V30 442 H 44.4849 4.50094 0.987505 0
M  V30 443 H 42.7999 4.03042 1.04623 0
M  V30 444 H 45.3969 3.74832 3.8132 0
M  V30 445 H 45.7399 2.04614 3.62545 0
M  V30 446 H 46.2729 3.19316 2.37238 0
M  V30 447 H 43.0119 6.18417 2.17351 0
M  V30 448 H 42.5319 4.96058 3.37175 0
M  V30 449 H 44.2109 5.55277 3.32078 0
M  V30 450 N 44.343 -0.763751 1.37857 0
M  V30 451 C 45.291 -1.89864 1.34367 0
M  V30 452 C 46.285 -1.67816 0.231143 0
M  V30 453 O 47.491 -1.75508 0.399617 0
M  V30 454 H 43.866 -0.624501 0.41893 0
M  V30 455 H 45.837 -1.89925 2.30155 0
M  V30 456 C 44.586 -3.27227 1.1755 0
M  V30 457 H 43.909 -3.44773 2.02414 0
M  V30 458 H 45.349 -4.06911 1.1916 0
M  V30 459 C 43.808 -3.36692 -0.118311 0
M  V30 460 O 44.338 -3.86374 -1.09902 0
M  V30 461 N 42.544 -2.90092 -0.171717 0
M  V30 462 H 42.091 -2.49853 0.627012 0
M  V30 463 H 42.049 -2.96806 -1.03699 0
M  V30 464 N 45.8211 -1.22559 -0.990812 0
M  V30 465 C 47.0981 -0.959875 -1.70428 0
M  V30 466 C 47.4781 0.524455 -2.04481 0
M  V30 467 O 46.8261 1.49302 -1.72977 0
M  V30 468 C 47.0361 -1.85955 -2.95333 0
M  V30 469 C 48.3841 -2.11687 -3.68068 0
M  V30 470 O 49.4081 -1.8342 -3.05345 0
M  V30 471 O 48.2671 -2.59572 -4.80921 0
M  V30 472 H 45.3611 -0.361154 -0.743974 0
M  V30 473 H 47.9071 -1.33554 -1.04697 0
M  V30 474 H 46.6791 -2.86346 -2.66687 0
M  V30 475 H 46.3021 -1.4856 -3.68803 0
M  V30 476 N 47.2992 1.18797 -1.03562 0
M  V30 477 C 48.5482 1.87978 -0.731235 0
M  V30 478 C 48.8612 1.80911 0.743671 0
M  V30 479 O 50.0672 2.45407 1.16137 0
M  V30 480 C 48.5232 3.3721 -1.25768 0
M  V30 481 C 48.1312 3.52818 -2.76085 0
M  V30 482 C 49.8752 4.11825 -1.0296 0
M  V30 483 C 47.7822 4.9598 -3.22114 0
M  V30 484 H 46.7122 0.704063 -0.269835 0
M  V30 485 H 49.3632 1.34266 -1.25079 0
M  V30 486 H 47.7452 3.90359 -0.666011 0
M  V30 487 H 48.9192 3.09965 -3.40966 0
M  V30 488 H 47.2342 2.91602 -2.97249 0
M  V30 489 H 49.8312 5.17411 -1.34869 0
M  V30 490 H 50.1742 4.16287 0.0333546 0
M  V30 491 H 50.7072 3.64833 -1.58562 0
M  V30 492 H 47.4462 4.96684 -4.27768 0
M  V30 493 H 46.9662 5.39569 -2.61965 0
M  V30 494 H 48.6452 5.6467 -3.15844 0
M  V30 495 N 48.7773 0.814389 1.34928 0
M  V30 496 C 49.7103 0.175641 2.27523 0
M  V30 497 C 50.6883 -0.662953 1.48471 0
M  V30 498 O 51.8723 -0.628545 1.77712 0
M  V30 499 C 48.9993 -0.755516 3.30166 0
M  V30 500 C 48.0453 0.00445305 4.265 0
M  V30 501 S 48.8783 1.34582 5.18313 0
M  V30 502 C 50.0343 0.419315 6.24494 0
M  V30 503 H 50.2673 0.960691 2.8135 0
M  V30 504 H 47.8003 0.609846 1.41846 0
M  V30 505 H 49.7583 -1.28723 3.89796 0
M  V30 506 H 48.4193 -1.51402 2.75202 0
M  V30 507 H 47.6123 -0.703077 4.99072 0
M  V30 508 H 47.2143 0.466447 3.7108 0
M  V30 509 H 49.5063 -0.392432 6.76362 0
M  V30 510 H 50.4493 1.11446 6.99275 0
M  V30 511 H 50.8573 0.0115389 5.64499 0
M  V30 512 N 50.2554 -1.46986 0.568584 0
M  V30 513 C 51.2034 -2.31858 -0.185649 0
M  V30 514 C 52.1974 -1.43624 -0.898249 0
M  V30 515 O 53.4034 -1.60327 -0.818242 0
M  V30 516 H 49.7784 -0.747866 -0.0787399 0
M  V30 517 H 51.7494 -2.93303 0.549191 0
M  V30 518 C 50.4984 -3.26513 -1.19519 0
M  V30 519 H 49.8214 -3.94377 -0.656285 0
M  V30 520 H 51.2614 -3.88707 -1.6936 0
M  V30 521 C 49.7204 -2.50847 -2.24894 0
M  V30 522 O 50.2504 -2.26119 -3.32014 0
M  V30 523 N 48.4564 -2.11656 -1.99124 0
M  V30 524 H 48.0034 -2.31966 -1.12024 0
M  V30 525 H 47.9614 -1.61347 -2.69842 0
M  V30 526 N 51.7335 -0.305618 -1.54608 0
M  V30 527 C 53.0105 0.355652 -1.92339 0
M  V30 528 C 53.3905 1.71324 -1.23335 0
M  V30 529 O 52.7385 2.25473 -0.370702 0
M  V30 530 C 52.9485 0.46572 -3.45879 0
M  V30 531 C 54.2965 0.734426 -4.182 0
M  V30 532 O 55.3205 0.54935 -3.51938 0
M  V30 533 O 54.1795 1.09024 -5.35515 0
M  V30 534 H 51.2735 0.199666 -0.802535 0
M  V30 535 H 53.8195 -0.354017 -1.65966 0
M  V30 536 H 52.5915 -0.488461 -3.88239 0
M  V30 537 H 52.2145 1.22367 -3.78301 0
M  V30 538 N 53.2116 1.57565 -0.0334293 0
M  V30 539 C 54.1416 2.13511 0.945265 0
M  V30 540 C 55.1226 1.05231 1.33643 0
M  V30 541 O 56.3076 1.33084 1.41429 0
M  V30 542 C 53.4376 2.6657 2.22616 0
M  V30 543 C 52.3916 3.79676 1.97561 0
M  V30 544 C 51.7176 4.1918 3.31952 0
M  V30 545 C 53.0176 5.0557 1.31135 0
M  V30 546 H 54.7116 2.95538 0.479325 0
M  V30 547 H 52.2576 1.42166 0.229115 0
M  V30 548 H 54.2106 3.04344 2.91466 0
M  V30 549 H 52.9346 1.8171 2.71384 0
M  V30 550 H 51.5936 3.42347 1.31127 0
M  V30 551 H 51.2416 3.31296 3.78487 0
M  V30 552 H 50.9416 4.95402 3.15992 0
M  V30 553 H 52.4656 4.59541 4.02063 0
M  V30 554 H 53.8796 5.40903 1.89992 0
M  V30 555 H 52.2766 5.86818 1.25559 0
M  V30 556 H 53.3466 4.84062 0.284894 0
M  V30 557 N 54.6897 -0.239769 1.55765 0
M  V30 558 C 55.6377 -1.31668 1.91745 0
M  V30 559 C 56.6317 -1.49462 0.797338 0
M  V30 560 O 57.8377 -1.50852 0.982021 0
M  V30 561 H 54.2127 -0.441048 0.609082 0
M  V30 562 H 56.1837 -0.985923 2.81642 0
M  V30 563 C 54.9327 -2.66368 2.2348 0
M  V30 564 H 54.2557 -2.53478 3.09175 0
M  V30 565 H 55.6957 -3.40578 2.52553 0
M  V30 566 C 54.1547 -3.20002 1.05359 0
M  V30 567 O 54.6847 -4.00538 0.305261 0
M  V30 568 N 52.8907 -2.78126 0.842292 0
M  V30 569 H 52.4377 -2.12742 1.45253 0
M  V30 570 H 52.3957 -3.14354 0.053652 0
M  V30 571 N 56.1678 -1.49265 -0.50573 0
M  V30 572 C 57.1148 -1.65585 -1.6078 0
M  V30 573 C 58.0848 -0.497396 -1.58478 0
M  V30 574 O 59.2698 -0.72385 -1.76536 0
M  V30 575 C 56.4098 -1.72408 -2.98948 0
M  V30 576 C 55.5228 -2.99525 -3.11301 0
M  V30 577 C 54.6578 -2.97356 -4.40174 0
M  V30 578 C 53.6968 -4.19074 -4.46143 0
M  V30 579 N 52.8338 -4.14841 -5.66437 0
M  V30 580 H 57.6738 -2.59688 -1.46172 0
M  V30 581 H 55.2108 -1.28761 -0.711261 0
M  V30 582 H 57.1688 -1.74344 -3.79025 0
M  V30 583 H 55.7988 -0.817753 -3.1227 0
M  V30 584 H 54.8508 -3.07222 -2.24318 0
M  V30 585 H 56.1628 -3.89518 -3.11572 0
M  V30 586 H 55.3168 -2.97829 -5.28567 0
M  V30 587 H 54.0558 -2.05133 -4.42461 0
M  V30 588 H 53.0608 -4.1885 -3.56153 0
M  V30 589 H 54.2858 -5.12483 -4.45575 0
M  V30 590 H 52.2318 -3.25453 -5.69575 0
M  V30 591 H 52.1488 -4.98564 -5.68304 0
M  V30 592 H 53.4168 -4.1941 -6.57051 0
M  V30 593 N 57.6459 0.756429 -1.3826 0
M  V30 594 C 58.5929 1.87011 -1.35261 0
M  V30 595 C 59.5629 1.64695 -0.215616 0
M  V30 596 O 60.7479 1.864 -0.407399 0
M  V30 597 C 57.8879 3.24275 -1.18068 0
M  V30 598 C 57.0009 3.58442 -2.41129 0
M  V30 599 C 56.1359 4.84994 -2.16689 0
M  V30 600 C 55.1749 5.11939 -3.35537 0
M  V30 601 N 54.3119 6.29685 -3.10549 0
M  V30 602 H 59.1519 1.8891 -2.30472 0
M  V30 603 H 56.6889 0.923373 -1.14509 0
M  V30 604 H 58.6469 4.03479 -1.06116 0
M  V30 605 H 57.2769 3.21711 -0.264973 0
M  V30 606 H 56.3289 2.74103 -2.63764 0
M  V30 607 H 57.6409 3.74283 -3.29717 0
M  V30 608 H 56.7949 5.72135 -2.01857 0
M  V30 609 H 55.5339 4.71286 -1.25462 0
M  V30 610 H 54.5389 4.23268 -3.50891 0
M  V30 611 H 55.7639 5.27546 -4.27635 0
M  V30 612 H 53.7099 6.17306 -2.21967 0
M  V30 613 H 53.6269 6.46014 -3.92686 0
M  V30 614 H 54.8949 7.19722 -2.99367 0
M  V30 615 N 59.124 1.23083 0.984299 0
M  V30 616 C 60.071 1.00854 2.07598 0
M  V30 617 C 61.041 -0.0726709 1.65941 0
M  V30 618 O 62.226 0.0786535 1.90638 0
M  V30 619 C 59.366 0.601645 3.39815 0
M  V30 620 C 58.479 1.75456 3.94765 0
M  V30 621 C 57.614 1.29482 5.15177 0
M  V30 622 C 56.653 2.41873 5.62284 0
M  V30 623 N 55.79 1.96885 6.73929 0
M  V30 624 H 60.63 1.943 2.25946 0
M  V30 625 H 58.167 0.968001 1.10762 0
M  V30 626 H 60.125 0.346854 4.15756 0
M  V30 627 H 58.755 -0.295803 3.21442 0
M  V30 628 H 57.807 2.12346 3.15616 0
M  V30 629 H 59.119 2.59965 4.25699 0
M  V30 630 H 58.273 0.997923 5.98437 0
M  V30 631 H 57.012 0.420046 4.85888 0
M  V30 632 H 56.017 2.72342 4.77608 0
M  V30 633 H 57.242 3.29881 5.93595 0
M  V30 634 H 55.188 1.11782 6.46406 0
M  V30 635 H 55.105 2.74956 7.04227 0
M  V30 636 H 56.373 1.70289 7.60672 0
M  V30 637 N 60.6021 -1.18246 1.0419 0
M  V30 638 C 61.5351 -2.20746 0.578474 0
M  V30 639 C 62.5131 -1.57912 -0.387624 0
M  V30 640 O 63.6971 -1.86071 -0.301634 0
M  V30 641 C 60.8241 -3.38346 -0.154762 0
M  V30 642 C 59.8701 -4.19587 0.764782 0
M  V30 643 S 60.7031 -4.86014 2.24835 0
M  V30 644 C 61.8591 -6.07012 1.526 0
M  V30 645 H 62.0921 -2.59715 1.44691 0
M  V30 646 H 59.6251 -1.287 0.85297 0
M  V30 647 H 61.5831 -4.065 -0.571641 0
M  V30 648 H 60.2441 -2.97786 -0.999105 0
M  V30 649 H 59.4371 -5.03611 0.197976 0
M  V30 650 H 59.0391 -3.56818 1.12057 0
M  V30 651 H 61.3311 -6.72523 0.819733 0
M  V30 652 H 62.2741 -6.68202 2.34333 0
M  V30 653 H 62.6821 -5.55249 1.01779 0
M  V30 654 N 62.0802 -0.821533 -1.34494 0
M  V30 655 C 63.0282 -0.230702 -2.31453 0
M  V30 656 C 64.0222 0.627793 -1.57338 0
M  V30 657 O 65.2282 0.519288 -1.72347 0
M  V30 658 H 61.6032 -0.0558577 -0.749923 0
M  V30 659 H 63.5742 -1.06332 -2.78812 0
M  V30 660 C 62.3232 0.59391 -3.4259 0
M  V30 661 H 61.6462 -0.0573588 -3.99759 0
M  V30 662 H 63.0862 0.973446 -4.12674 0
M  V30 663 C 61.5452 1.76568 -2.86924 0
M  V30 664 O 62.0752 2.8638 -2.81691 0
M  V30 665 N 60.2812 1.58198 -2.43766 0
M  V30 666 H 59.8282 0.68872 -2.48222 0
M  V30 667 H 59.7862 2.36752 -2.06871 0
M  V30 668 N 63.5583 1.46682 -0.576371 0
M  V30 669 C 64.4683 2.34032 0.163141 0
M  V30 670 C 65.4843 1.49367 0.892501 0
M  V30 671 O 66.6603 1.82252 0.857106 0
M  V30 672 C 63.7253 3.26435 1.16795 0
M  V30 673 C 62.7863 4.26998 0.443944 0
M  V30 674 C 62.0193 5.14986 1.40088 0
M  V30 675 O 62.2423 5.05785 2.637 0
M  V30 676 O 61.1763 5.94906 0.914917 0
M  V30 677 H 65.0023 2.98607 -0.55388 0
M  V30 678 H 62.5873 1.45554 -0.336821 0
M  V30 679 H 64.4693 3.83459 1.74748 0
M  V30 680 H 63.1443 2.64465 1.86655 0
M  V30 681 H 62.0513 3.7368 -0.177271 0
M  V30 682 H 63.3843 4.91736 -0.213566 0
M  V30 683 N 65.0364 0.313813 1.54444 0
M  V30 684 C 65.9834 -0.55655 2.23989 0
M  V30 685 C 66.9534 -1.11943 1.22711 0
M  V30 686 O 68.1384 -1.16158 1.51367 0
M  V30 687 C 65.2784 -1.71635 2.99392 0
M  V30 688 C 64.3914 -1.18364 4.15468 0
M  V30 689 C 63.5264 -2.30834 4.78424 0
M  V30 690 C 62.5654 -1.74762 5.86622 0
M  V30 691 N 61.7024 -2.80855 6.43479 0
M  V30 692 H 66.5424 0.0430893 2.97969 0
M  V30 693 H 64.0794 0.0330359 1.47063 0
M  V30 694 H 66.0374 -2.39868 3.41349 0
M  V30 695 H 64.6674 -2.28742 2.27765 0
M  V30 696 H 63.7194 -0.393163 3.78363 0
M  V30 697 H 65.0314 -0.733262 4.93381 0
M  V30 698 H 64.1854 -3.0699 5.23299 0
M  V30 699 H 62.9244 -2.79204 3.99871 0
M  V30 700 H 61.9294 -0.970995 5.41158 0
M  V30 701 H 63.1544 -1.2728 6.67066 0
M  V30 702 H 61.1004 -3.28535 5.67804 0
M  V30 703 H 61.0174 -2.40351 7.16776 0
M  V30 704 H 62.2854 -3.5687 6.93011 0
M  V30 705 N 66.5145 -1.57545 0.0417849 0
M  V30 706 C 67.4615 -2.10977 -0.935805 0
M  V30 707 C 68.4315 -1.01486 -1.31491 0
M  V30 708 O 69.6165 -1.2898 -1.40602 0
M  V30 709 C 66.7565 -2.65169 -2.2086 0
M  V30 710 C 65.8695 -3.88714 -1.88482 0
M  V30 711 C 65.0045 -4.31254 -3.1015 0
M  V30 712 C 64.0435 -5.47524 -2.7365 0
M  V30 713 N 63.1805 -5.85162 -3.87982 0
M  V30 714 H 68.0205 -2.94218 -0.473249 0
M  V30 715 H 65.5575 -1.45415 -0.221981 0
M  V30 716 H 67.5155 -2.94685 -2.95325 0
M  V30 717 H 66.1455 -1.8474 -2.64709 0
M  V30 718 H 65.1975 -3.65849 -1.04205 0
M  V30 719 H 66.5095 -4.73245 -1.57608 0
M  V30 720 H 65.6635 -4.62273 -3.92923 0
M  V30 721 H 64.4025 -3.45516 -3.44195 0
M  V30 722 H 63.4075 -5.16187 -1.89291 0
M  V30 723 H 64.6325 -6.34971 -2.40807 0
M  V30 724 H 62.5785 -5.02377 -4.21846 0
M  V30 725 H 62.4955 -6.64362 -3.60775 0
M  V30 726 H 63.7635 -6.20791 -4.71422 0
M  V30 727 N 67.9926 0.231505 -1.5589 0
M  V30 728 C 68.9406 1.30649 -1.92441 0
M  V30 729 C 69.9346 1.49037 -0.805254 0
M  V30 730 O 71.1406 1.50329 -0.990007 0
M  V30 731 H 67.5156 0.437812 -0.611412 0
M  V30 732 H 69.4866 0.970973 -2.82161 0
M  V30 733 C 68.2356 2.65179 -2.24889 0
M  V30 734 H 67.5586 2.51835 -3.10514 0
M  V30 735 H 68.9986 3.39234 -2.54355 0
M  V30 736 C 67.4576 3.19439 -1.07054 0
M  V30 737 O 67.9876 4.00371 -0.326499 0
M  V30 738 N 66.1936 2.77675 -0.85703 0
M  V30 739 H 65.7406 2.11969 -1.46379 0
M  V30 740 H 65.6986 3.14321 -0.0703223 0
M  V30 741 N 69.4707 1.49531 0.497807 0
M  V30 742 C 70.4037 1.61043 1.6168 0
M  V30 743 C 71.3817 0.459386 1.55976 0
M  V30 744 O 72.5657 0.675358 1.75986 0
M  V30 745 C 69.6927 1.56833 3.00202 0
M  V30 746 C 68.7387 2.77173 3.24156 0
M  V30 747 S 69.5717 4.38808 3.06933 0
M  V30 748 C 70.7277 4.37248 4.47845 0
M  V30 749 H 70.9607 2.55702 1.51671 0
M  V30 750 H 68.4937 1.38462 0.683201 0
M  V30 751 H 70.4517 1.55089 3.80076 0
M  V30 752 H 69.1127 0.634561 3.07623 0
M  V30 753 H 68.3057 2.70456 4.25288 0
M  V30 754 H 67.9077 2.76346 2.5201 0
M  V30 755 H 70.1997 4.09164 5.39992 0
M  V30 756 H 71.1427 5.38668 4.59612 0
M  V30 757 H 71.5507 3.67286 4.28674 0
M  V30 758 N 70.9488 -0.749086 1.3866 0
M  V30 759 C 71.8958 -1.86291 1.36251 0
M  V30 760 C 72.8658 -1.64578 0.224347 0
M  V30 761 O 74.0508 -1.86181 0.417279 0
M  V30 762 C 71.1908 -3.23644 1.19786 0
M  V30 763 C 70.3038 -3.57158 2.43027 0
M  V30 764 C 69.4388 -4.83838 2.19258 0
M  V30 765 C 68.4778 -5.10152 3.38247 0
M  V30 766 N 67.6148 -6.28029 3.13884 0
M  V30 767 H 72.4548 -1.87685 2.3147 0
M  V30 768 H 69.9918 -0.917287 1.14997 0
M  V30 769 H 71.9498 -4.0291 1.08254 0
M  V30 770 H 70.5798 -3.21566 0.282031 0
M  V30 771 H 69.6318 -2.72701 2.65214 0
M  V30 772 H 70.9438 -3.7253 3.31697 0
M  V30 773 H 70.0978 -5.71057 2.04888 0
M  V30 774 H 68.8368 -4.70614 1.2796 0
M  V30 775 H 67.8418 -4.21401 3.53131 0
M  V30 776 H 69.0668 -5.25271 4.30427 0
M  V30 777 H 67.0128 -6.1612 2.25238 0
M  V30 778 H 66.9298 -6.43922 3.96106 0
M  V30 779 H 68.1978 -7.18124 3.03179 0
M  V30 780 N 72.4269 -1.23603 -0.977757 0
M  V30 781 C 73.7039 -0.977897 -1.69401 0
M  V30 782 C 74.0839 0.502738 -2.05026 0
M  V30 783 O 73.4319 1.47459 -1.74551 0
M  V30 784 C 73.6419 -1.89077 -2.93345 0
M  V30 785 C 74.9899 -2.15579 -3.65802 0
M  V30 786 O 76.0139 -1.86648 -3.03383 0
M  V30 787 O 74.8729 -2.64658 -4.78141 0
M  V30 788 H 71.9669 -0.369025 -0.740101 0
M  V30 789 H 74.5129 -1.34657 -1.03274 0
M  V30 790 H 73.2849 -2.89158 -2.63634 0
M  V30 791 H 72.9079 -1.52463 -3.67207 0
M  V30 792 N 73.905 1.17692 -1.04816 0
M  V30 793 C 74.852 2.21581 -0.645797 0
M  V30 794 C 75.822 1.62367 0.350159 0
M  V30 795 O 77.007 1.89254 0.242433 0
M  V30 796 C 74.147 3.45092 -0.0227568 0
M  V30 797 C 73.26 4.18613 -1.06709 0
M  V30 798 C 72.395 5.29602 -0.411767 0
M  V30 799 C 71.434 5.94904 -1.44067 0
M  V30 800 N 70.571 6.97414 -0.809781 0
M  V30 801 H 75.411 2.55353 -1.5362 0
M  V30 802 H 72.948 1.25438 -0.768364 0
M  V30 803 H 74.906 4.15679 0.35588 0
M  V30 804 H 73.536 3.11917 0.831122 0
M  V30 805 H 72.588 3.46779 -1.5636 0
M  V30 806 H 73.9 4.63293 -1.84827 0
M  V30 807 H 73.054 6.06696 0.0206623 0
M  V30 808 H 71.793 4.86045 0.401438 0
M  V30 809 H 70.798 5.16544 -1.88316 0
M  V30 810 H 72.023 6.40542 -2.25571 0
M  V30 811 H 69.969 6.55998 -0.0170186 0
M  V30 812 H 69.886 7.40386 -1.52856 0
M  V30 813 H 71.154 7.78463 -0.401999 0
M  V30 814 N 75.3831 0.828654 1.34056 0
M  V30 815 C 76.3301 0.252567 2.29414 0
M  V30 816 C 77.3001 -0.62588 1.53857 0
M  V30 817 O 78.4851 -0.566312 1.82202 0
M  V30 818 C 75.6251 -0.574831 3.40279 0
M  V30 819 C 74.7381 0.326499 4.30764 0
M  V30 820 C 73.8731 -0.511016 5.28736 0
M  V30 821 C 72.9121 0.389342 6.1086 0
M  V30 822 N 72.0491 -0.409439 7.00905 0
M  V30 823 H 76.8891 1.07108 2.78086 0
M  V30 824 H 74.4261 0.539677 1.36843 0
M  V30 825 H 76.3841 -1.06992 4.03248 0
M  V30 826 H 75.0141 -1.35841 2.92826 0
M  V30 827 H 74.0661 0.939837 3.68607 0
M  V30 828 H 75.3781 1.01857 4.88289 0
M  V30 829 H 74.5321 -1.07035 5.97184 0
M  V30 830 H 73.2711 -1.23657 4.71763 0
M  V30 831 H 72.2761 0.960769 5.4134 0
M  V30 832 H 73.5011 1.1131 6.69916 0
M  V30 833 H 71.4471 -1.11856 6.46393 0
M  V30 834 H 71.3641 0.224126 7.55668 0
M  V30 835 H 72.6321 -0.951336 7.73673 0
M  V30 836 N 76.8612 -1.46375 0.584142 0
M  V30 837 C 78.1382 -1.956 0.0033388 0
M  V30 838 C 78.5182 -1.52679 -1.45782 0
M  V30 839 O 77.8662 -0.77816 -2.14842 0
M  V30 840 C 78.0762 -3.48551 0.176891 0
M  V30 841 C 79.4242 -4.24576 0.0454609 0
M  V30 842 O 80.4482 -3.56043 0.105801 0
M  V30 843 O 79.3072 -5.46427 -0.0890376 0
M  V30 844 H 76.4012 -0.825547 -0.0490066 0
M  V30 845 H 78.9472 -1.56652 0.65256 0
M  V30 846 H 77.7192 -3.72683 1.1926 0
M  V30 847 H 77.3422 -3.94332 -0.508695 0
M  V30 848 N 78.3393 -0.321999 -1.54275 0
M  V30 849 C 79.5873 0.280489 -2.00144 0
M  V30 850 C 79.9083 1.52777 -1.21178 0
M  V30 851 O 79.1783 1.9338 -0.313187 0
M  V30 852 H 77.7583 0.106632 -0.73935 0
M  V30 853 H 80.4203 -0.438184 -1.8991 0
M  V30 854 H 79.5163 0.537972 -3.07428 0
M  V30 855 N 79.8174 1.5752 -0.0501392 0
M  V30 856 C 80.7654 2.12651 0.942459 0
M  V30 857 C 81.7594 1.05807 1.32292 0
M  V30 858 O 82.9654 1.24217 1.3027 0
M  V30 859 H 79.3404 0.679673 0.321789 0
M  V30 860 H 81.3114 2.94951 0.452356 0
M  V30 861 C 80.0604 2.68565 2.20836 0
M  V30 862 H 79.3834 3.50439 1.92439 0
M  V30 863 H 80.8234 3.10761 2.8845 0
M  V30 864 C 79.2824 1.62291 2.95234 0
M  V30 865 O 79.8124 1.03508 3.88135 0
M  V30 866 N 78.0184 1.33836 2.57946 0
M  V30 867 H 77.5654 1.81826 1.82475 0
M  V30 868 H 77.5234 0.629595 3.08032 0
M  V30 869 N 81.2955 -0.223234 1.56011 0
M  V30 870 C 82.5425 -0.947875 1.78946 0
M  V30 871 C 82.8705 -1.844 0.618608 0
M  V30 872 O 82.1255 -1.91629 -0.397093 0
M  V30 873 C 82.4245 -1.81948 3.0762 0
M  V30 874 C 82.0905 -1.07672 4.37856 0
M  V30 875 C 80.7525 -0.871544 4.73242 0
M  V30 876 C 83.1045 -0.552081 5.18268 0
M  V30 877 C 80.4325 -0.129791 5.86556 0
M  V30 878 C 82.7845 0.17632 6.32354 0
M  V30 879 C 81.4485 0.39277 6.66343 0
M  V30 880 H 80.7185 -0.346852 0.654809 0
M  V30 881 H 83.3655 -0.216171 1.90276 0
M  V30 882 H 81.6705 -2.61899 2.91404 0
M  V30 883 H 83.3675 -2.38227 3.22566 0
M  V30 884 H 79.9575 -1.24662 4.1007 0
M  V30 885 H 84.1415 -0.698076 4.91366 0
M  V30 886 H 79.3975 0.048153 6.11381 0
M  V30 887 H 83.5715 0.590367 6.93893 0
M  V30 888 H 81.1985 0.969466 7.53993 0
M  V30 889 N 82.7736 -1.49793 -0.48987 0
M  V30 890 C 83.9986 -1.63836 -1.27172 0
M  V30 891 C 84.4236 -0.31402 -1.8546 0
M  V30 892 O 83.7816 0.719803 -1.66399 0
M  V30 893 C 83.8296 -2.71797 -2.36978 0
M  V30 894 O 82.9336 -2.31744 -3.41128 0
M  V30 895 H 82.2746 -0.547997 -0.37496 0
M  V30 896 H 84.8046 -1.96053 -0.585191 0
M  V30 897 H 84.8146 -2.94305 -2.82575 0
M  V30 898 H 83.4896 -3.67923 -1.93921 0
M  V30 899 H 82.0666 -2.1961 -3.01373 0
M  V30 900 N 84.2517 0.741722 -1.39055 0
M  V30 901 C 85.4997 1.49818 -1.35643 0
M  V30 902 C 85.8207 1.94938 0.0491642 0
M  V30 903 O 85.0907 1.68505 0.999141 0
M  V30 904 H 83.6707 0.555755 -0.499144 0
M  V30 905 H 86.3327 0.880957 -1.73854 0
M  V30 906 H 85.4287 2.38348 -2.01486 0
M  V30 907 N 85.7298 1.2412 0.971189 0
M  V30 908 C 86.6778 1.02812 2.08644 0
M  V30 909 C 87.6718 -0.0358403 1.69362 0
M  V30 910 O 88.8778 0.118429 1.7961 0
M  V30 911 H 85.2528 0.315428 0.682649 0
M  V30 912 H 87.2238 1.97397 2.23779 0
M  V30 913 C 85.9728 0.645874 3.41649 0
M  V30 914 H 85.2958 1.45632 3.72332 0
M  V30 915 H 86.7358 0.536366 4.20594 0
M  V30 916 C 85.1948 -0.646713 3.30635 0
M  V30 917 O 85.7248 -1.69338 3.64263 0
M  V30 918 N 83.9308 -0.626115 2.83775 0
M  V30 919 H 83.4778 0.225988 2.56607 0
M  V30 920 H 83.4358 -1.49117 2.76788 0
M  V30 921 N 87.2079 -1.17134 1.05439 0
M  V30 922 C 88.1409 -2.2012 0.601855 0
M  V30 923 C 89.1189 -1.58314 -0.370854 0
M  V30 924 O 90.3029 -1.8638 -0.281882 0
M  V30 925 C 87.4299 -3.38491 -0.118868 0
M  V30 926 C 86.4759 -4.18752 0.809242 0
M  V30 927 S 87.3089 -4.83602 2.29977 0
M  V30 928 C 88.4649 -6.0536 1.59029 0
M  V30 929 H 88.6979 -2.58165 1.47438 0
M  V30 930 H 86.2309 -1.27788 0.866573 0
M  V30 931 H 88.1889 -4.07084 -0.528495 0
M  V30 932 H 86.8499 -2.98829 -0.967465 0
M  V30 933 H 86.0429 -5.03373 0.251379 0
M  V30 934 H 85.6449 -3.5561 1.15835 0
M  V30 935 H 87.9369 -6.71615 0.891017 0
M  V30 936 H 88.8799 -6.65679 2.41407 0
M  V30 937 H 89.2879 -5.54138 1.07663 0
M  V30 938 N 88.686 -0.835752 -1.33615 0
M  V30 939 C 89.935 -0.426289 -1.97144 0
M  V30 940 C 90.248 1.01912 -1.66953 0
M  V30 941 O 91.454 1.53311 -2.24072 0
M  V30 942 C 89.91 -0.711321 -3.52801 0
M  V30 943 C 89.518 -2.1712 -3.91871 0
M  V30 944 C 91.262 -0.368654 -4.22896 0
M  V30 945 C 89.169 -2.40044 -5.40493 0
M  V30 946 H 88.099 -0.15567 -0.737755 0
M  V30 947 H 90.75 -1.0239 -1.52278 0
M  V30 948 H 89.132 -0.0433766 -3.95976 0
M  V30 949 H 90.306 -2.87936 -3.59763 0
M  V30 950 H 88.621 -2.47654 -3.34749 0
M  V30 951 H 91.218 -0.517601 -5.32189 0
M  V30 952 H 91.561 0.688078 -4.10574 0
M  V30 953 H 92.094 -0.991702 -3.8524 0
M  V30 954 H 88.833 -3.44271 -5.57815 0
M  V30 955 H 88.353 -1.73785 -5.74072 0
M  V30 956 H 90.032 -2.23042 -6.0734 0
M  V30 957 N 90.1641 1.46063 -0.591896 0
M  V30 958 C 91.4121 2.01938 -0.0808391 0
M  V30 959 C 91.7331 1.46475 1.28725 0
M  V30 960 O 91.0031 0.652944 1.84698 0
M  V30 961 H 89.5831 0.746516 -0.0268938 0
M  V30 962 H 92.2451 1.79055 -0.769752 0
M  V30 963 H 91.3411 3.12094 -0.0187578 0
M  V30 964 N 91.6422 0.330177 1.54103 0
M  V30 965 C 92.8902 -0.269871 2.0029 0
M  V30 966 C 93.2112 -1.52133 1.21986 0
M  V30 967 O 92.4812 -1.93212 0.323438 0
M  V30 968 H 91.0612 -0.10271 0.739905 0
M  V30 969 H 93.7232 0.448249 1.89675 0
M  V30 970 H 92.8192 -0.52166 3.07709 0
M  V30 971 N 93.1203 -1.57491 0.0584922 0
M  V30 972 C 94.0533 -2.07533 -0.948969 0
M  V30 973 C 95.0313 -0.977444 -1.29942 0
M  V30 974 O 96.2153 -1.2499 -1.41102 0
M  V30 975 C 93.3423 -2.52192 -2.2609 0
M  V30 976 C 92.3883 -3.73287 -2.06298 0
M  V30 977 S 93.2213 -5.18603 -1.33459 0
M  V30 978 C 94.3773 -5.66583 -2.65959 0
M  V30 979 H 94.6103 -2.92662 -0.523118 0
M  V30 980 H 92.1433 -1.53631 -0.153954 0
M  V30 981 H 94.1013 -2.78585 -3.01498 0
M  V30 982 H 92.7623 -1.67356 -2.65802 0
M  V30 983 H 91.9553 -4.0248 -3.03357 0
M  V30 984 H 91.5573 -3.47199 -1.39029 0
M  V30 985 H 93.8493 -5.72616 -3.62101 0
M  V30 986 H 94.7923 -6.65684 -2.41393 0
M  V30 987 H 95.2003 -4.94342 -2.72554 0
M  V30 988 N 94.5984 0.214957 -1.56127 0
M  V30 989 C 95.8284 0.953707 -1.8327 0
M  V30 990 C 96.2364 1.78181 -0.636262 0
M  V30 991 O 95.5794 1.79191 0.404516 0
M  V30 992 C 95.6414 1.91516 -3.0424 0
M  V30 993 C 95.3054 1.27094 -4.38972 0
M  V30 994 C 96.3024 0.657575 -5.15725 0
M  V30 995 C 93.9874 1.28073 -4.85698 0
M  V30 996 C 95.9814 0.0625968 -6.37369 0
M  V30 997 C 93.6684 0.681914 -6.07283 0
M  V30 998 C 94.6664 0.0739046 -6.8296 0
M  V30 999 O 94.3544 -0.515582 -8.02245 0
M  V30 1000 H 94.0864 0.284764 -0.613095 0
M  V30 1001 H 96.6404 0.233283 -2.04071 0
M  V30 1002 H 94.8704 2.67475 -2.79274 0
M  V30 1003 H 96.5594 2.52001 -3.18198 0
M  V30 1004 H 97.3254 0.642288 -4.80728 0
M  V30 1005 H 93.2044 1.74337 -4.26764 0
M  V30 1006 H 96.7484 -0.412593 -6.96379 0
M  V30 1007 H 92.6454 0.694636 -6.41752 0
M  V30 1008 H 93.4134 -0.410544 -8.1747 0
M  V30 1009 N 96.0765 1.50051 0.48192 0
M  V30 1010 C 97.0235 1.68122 1.58125 0
M  V30 1011 C 97.9935 0.522545 1.57666 0
M  V30 1012 O 99.1785 0.751844 1.75362 0
M  V30 1013 C 96.3185 1.77142 2.96167 0
M  V30 1014 C 95.4315 3.0444 3.06497 0
M  V30 1015 C 94.5665 3.04321 4.35387 0
M  V30 1016 C 93.6055 4.26118 4.3942 0
M  V30 1017 N 92.7425 4.238 5.59766 0
M  V30 1018 H 97.5825 2.6198 1.42022 0
M  V30 1019 H 95.1195 1.29877 0.690687 0
M  V30 1020 H 97.0775 1.80352 3.76203 0
M  V30 1021 H 95.7075 0.867329 3.1093 0
M  V30 1022 H 94.7595 3.10752 2.19402 0
M  V30 1023 H 96.0715 3.94426 3.05336 0
M  V30 1024 H 95.2255 3.062 5.23762 0
M  V30 1025 H 93.9645 2.12147 4.39141 0
M  V30 1026 H 92.9695 4.24463 3.49444 0
M  V30 1027 H 94.1945 5.19507 4.37366 0
M  V30 1028 H 92.1405 3.34474 5.64326 0
M  V30 1029 H 92.0575 5.07542 5.60301 0
M  V30 1030 H 93.3255 4.2981 6.50295 0
M  V30 1031 N 97.5546 -0.734337 1.39446 0
M  V30 1032 C 98.5026 -1.86971 1.38364 0
M  V30 1033 C 99.4966 -1.67288 0.266687 0
M  V30 1034 O 100.703 -1.74621 0.436755 0
M  V30 1035 H 97.0776 -0.615474 0.432082 0
M  V30 1036 H 99.0486 -1.85 2.34132 0
M  V30 1037 C 97.7976 -3.2466 1.24465 0
M  V30 1038 H 97.1206 -3.40402 2.09682 0
M  V30 1039 H 98.5606 -4.04292 1.27764 0
M  V30 1040 C 97.0196 -3.36867 -0.0468674 0
M  V30 1041 O 97.5496 -3.88618 -1.01681 0
M  V30 1042 N 95.7556 -2.90391 -0.110145 0
M  V30 1043 H 95.3026 -2.48466 0.679868 0
M  V30 1044 H 95.2606 -2.98939 -0.973799 0
M  V30 1045 N 99.0327 -1.24633 -0.964593 0
M  V30 1046 C 99.9797 -1.04144 -2.05968 0
M  V30 1047 C 100.95 0.046262 -1.66036 0
M  V30 1048 O 102.135 -0.108972 -1.90489 0
M  V30 1049 C 99.2747 -0.65563 -3.38815 0
M  V30 1050 C 98.3877 -1.81714 -3.91923 0
M  V30 1051 C 97.5227 -1.37662 -5.13052 0
M  V30 1052 C 96.5617 -2.50788 -5.58365 0
M  V30 1053 N 95.6987 -2.07582 -6.70712 0
M  V30 1054 H 100.539 -1.9787 -2.22827 0
M  V30 1055 H 98.0757 -0.9855 -1.09208 0
M  V30 1056 H 100.034 -0.412954 -4.15151 0
M  V30 1057 H 98.6637 0.244627 -3.21872 0
M  V30 1058 H 97.7157 -2.1734 -3.12198 0
M  V30 1059 H 99.0277 -2.66705 -4.21509 0
M  V30 1060 H 98.1817 -1.093 -5.96773 0
M  V30 1061 H 96.9207 -0.497293 -4.85158 0
M  V30 1062 H 95.9257 -2.79906 -4.73215 0
M  V30 1063 H 97.1507 -3.39283 -5.88272 0
M  V30 1064 H 95.0967 -1.22051 -6.44546 0
M  V30 1065 H 95.0137 -2.86125 -6.99763 0
M  V30 1066 H 96.2817 -1.82369 -7.57867 0
M  V30 1067 N 100.511 1.16574 -1.06058 0
M  V30 1068 C 101.441 2.23057 -0.690488 0
M  V30 1069 C 102.422 1.67141 0.315901 0
M  V30 1070 O 103.607 1.93253 0.191556 0
M  V30 1071 C 100.737 3.47222 -0.073625 0
M  V30 1072 C 99.6908 4.16016 -1.00573 0
M  V30 1073 C 99.0168 5.34104 -0.252289 0
M  V30 1074 C 100.317 4.67264 -2.33371 0
M  V30 1075 H 102.011 2.54271 -1.58072 0
M  V30 1076 H 99.5568 1.22218 -0.76149 0
M  V30 1077 H 101.51 4.20939 0.19714 0
M  V30 1078 H 100.234 3.15302 0.85161 0
M  V30 1079 H 98.8928 3.44223 -1.2612 0
M  V30 1080 H 98.5408 4.98437 0.675988 0
M  V30 1081 H 98.2408 5.81072 -0.873455 0
M  V30 1082 H 99.7648 6.10599 0.0109857 0
M  V30 1083 H 101.179 5.32573 -2.12223 0
M  V30 1084 H 99.5758 5.24843 -2.90963 0
M  V30 1085 H 100.646 3.83602 -2.96611 0
M  V30 1086 N 101.989 0.842826 1.3317 0
M  V30 1087 C 103.405 0.531128 1.50503 0
M  V30 1088 C 103.605 -0.940734 1.78192 0
M  V30 1089 O 102.661 -1.72436 1.84451 0
M  V30 1090 C 103.974 1.40789 2.65705 0
M  V30 1091 C 105.522 1.40708 2.79589 0
M  V30 1092 C 105.997 2.26878 3.97857 0
M  V30 1093 N 107.488 2.24609 4.05099 0
M  V30 1094 C 108.223 2.88019 4.95815 0
M  V30 1095 N 107.719 3.60496 5.9162 0
M  V30 1096 N 109.512 2.77469 4.88843 0
M  V30 1097 H 101.663 1.79557 1.1346 0
M  V30 1098 H 103.926 0.766267 0.558156 0
M  V30 1099 H 103.632 2.454 2.51936 0
M  V30 1100 H 103.506 1.08677 3.61205 0
M  V30 1101 H 105.893 0.368668 2.92788 0
M  V30 1102 H 105.974 1.76829 1.84838 0
M  V30 1103 H 105.618 3.3078 3.85418 0
M  V30 1104 H 105.548 1.88096 4.91861 0
M  V30 1105 H 108.039 1.71906 3.36536 0
M  V30 1106 H 108.352 4.06076 6.57512 0
M  V30 1107 H 106.697 3.64604 5.91683 0
M  V30 1108 H 109.888 2.20406 4.12963 0
M  V30 1109 H 110.061 3.2717 5.59342 0
M  V30 1110 N 103.467 -1.45747 0.599634 0
M  V30 1111 C 104.697 -2.06369 0.0977132 0
M  V30 1112 C 105.105 -1.44624 -1.21985 0
M  V30 1113 O 104.448 -0.551831 -1.75216 0
M  V30 1114 C 104.51 -3.59284 -0.124673 0
M  V30 1115 C 104.174 -4.43318 1.10987 0
M  V30 1116 C 105.171 -4.78796 2.02609 0
M  V30 1117 C 102.856 -4.84194 1.33647 0
M  V30 1118 C 104.85 -5.53997 3.15224 0
M  V30 1119 C 102.537 -5.5915 2.46565 0
M  V30 1120 C 103.535 -5.93968 3.37182 0
M  V30 1121 O 103.223 -6.67405 4.48136 0
M  V30 1122 H 102.955 -0.673122 0.0623153 0
M  V30 1123 H 105.509 -1.88104 0.824981 0
M  V30 1124 H 103.739 -3.75919 -0.906745 0
M  V30 1125 H 105.428 -4.01775 -0.577201 0
M  V30 1126 H 106.194 -4.47781 1.86325 0
M  V30 1127 H 102.073 -4.56534 0.64016 0
M  V30 1128 H 105.617 -5.81091 3.85978 0
M  V30 1129 H 101.514 -5.89579 2.62805 0
M  V30 1130 H 102.282 -6.85847 4.46717 0
M  V30 1131 N 104.945 -0.338344 -1.53925 0
M  V30 1132 C 106.194 0.260732 -2.00008 0
M  V30 1133 C 106.507 1.52073 -1.23017 0
M  V30 1134 O 107.713 2.19672 -1.5955 0
M  V30 1135 C 106.169 0.51515 -3.56194 0
M  V30 1136 C 105.777 -0.728645 -4.42035 0
M  V30 1137 C 107.521 1.07337 -4.10706 0
M  V30 1138 C 105.428 -0.445315 -5.89721 0
M  V30 1139 H 104.358 0.101205 -0.747177 0
M  V30 1140 H 107.009 -0.452866 -1.77824 0
M  V30 1141 H 105.391 1.28932 -3.74423 0
M  V30 1142 H 106.565 -1.50352 -4.35581 0
M  V30 1143 H 104.88 -1.20813 -3.98489 0
M  V30 1144 H 107.477 1.30022 -5.18651 0
M  V30 1145 H 107.82 2.0273 -3.63602 0
M  V30 1146 H 108.353 0.360034 -3.96167 0
M  V30 1147 H 105.092 -1.36883 -6.41049 0
M  V30 1148 H 104.612 0.291569 -5.99091 0
M  V30 1149 H 106.291 -0.0606218 -6.46972 0
M  V30 1150 N 106.423 1.57458 -0.0668435 0
M  V30 1151 C 107.353 2.15468 0.899764 0
M  V30 1152 C 108.334 1.08042 1.31381 0
M  V30 1153 O 109.519 1.36054 1.38574 0
M  V30 1154 C 106.649 2.71232 2.16911 0
M  V30 1155 C 105.603 3.83781 1.89463 0
M  V30 1156 C 104.929 4.26127 3.22986 0
M  V30 1157 C 106.229 5.08238 1.20381 0
M  V30 1158 H 107.923 2.96488 0.416529 0
M  V30 1159 H 105.469 1.4262 0.198908 0
M  V30 1160 H 107.422 3.10458 2.84945 0
M  V30 1161 H 106.146 1.87426 2.67468 0
M  V30 1162 H 104.805 3.45051 1.23836 0
M  V30 1163 H 104.453 3.39249 3.71374 0
M  V30 1164 H 104.153 5.01993 3.05413 0
M  V30 1165 H 105.677 4.67966 3.92225 0
M  V30 1166 H 107.091 5.44811 1.78475 0
M  V30 1167 H 105.488 5.89349 1.13083 0
M  V30 1168 H 106.558 4.84558 0.182153 0
M  V30 1169 N 107.901 -0.206675 1.56239 0
M  V30 1170 C 109.178 -0.954051 1.70755 0
M  V30 1171 C 109.558 -2.01841 0.618353 0
M  V30 1172 O 108.906 -2.25444 -0.372434 0
M  V30 1173 C 109.116 -1.551 3.12642 0
M  V30 1174 C 110.464 -2.03757 3.72516 0
M  V30 1175 O 111.488 -1.64965 3.15698 0
M  V30 1176 O 110.347 -2.75103 4.72208 0
M  V30 1177 H 107.441 -0.446636 0.696021 0
M  V30 1178 H 109.987 -0.197283 1.68549 0
M  V30 1179 H 108.759 -0.783212 3.83382 0
M  V30 1180 H 108.382 -2.37291 3.19028 0
M  V30 1181 N 109.379 -1.50304 -0.473955 0
M  V30 1182 C 110.327 -1.69482 -1.59307 0
M  V30 1183 C 111.321 -0.560669 -1.59853 0
M  V30 1184 O 112.527 -0.741087 -1.64036 0
M  V30 1185 H 108.902 -0.534892 -0.528578 0
M  V30 1186 H 110.873 -2.63364 -1.40293 0
M  V30 1187 C 109.622 -1.80354 -2.97267 0
M  V30 1188 H 108.945 -2.67012 -2.97564 0
M  V30 1189 H 110.385 -1.97798 -3.75036 0
M  V30 1190 C 108.844 -0.55448 -3.32306 0
M  V30 1191 O 109.374 0.307661 -4.0052 0
M  V30 1192 N 107.58 -0.409354 -2.87702 0
M  V30 1193 H 107.127 -1.11196 -2.32364 0
M  V30 1194 H 107.085 0.425223 -3.11511 0
M  V30 1195 N 110.857 0.726932 -1.39834 0
M  V30 1196 C 112.106 1.48214 -1.36805 0
M  V30 1197 C 112.419 1.95576 0.0305291 0
M  V30 1198 O 113.625 2.7088 0.183417 0
M  V30 1199 C 112.081 2.67854 -2.40379 0
M  V30 1200 C 111.689 2.27408 -3.85992 0
M  V30 1201 C 113.433 3.45641 -2.46439 0
M  V30 1202 C 111.34 3.43819 -4.81189 0
M  V30 1203 H 110.27 0.556606 -0.508631 0
M  V30 1204 H 112.921 0.792216 -1.65518 0
M  V30 1205 H 111.303 3.3896 -2.04749 0
M  V30 1206 H 112.477 1.63795 -4.30706 0
M  V30 1207 H 110.792 1.62692 -3.83302 0
M  V30 1208 H 113.389 4.32244 -3.14753 0
M  V30 1209 H 113.732 3.88669 -1.49139 0
M  V30 1210 H 114.265 2.8157 -2.81004 0
M  V30 1211 H 111.004 3.05834 -5.79781 0
M  V30 1212 H 110.524 4.06385 -4.41148 0
M  V30 1213 H 112.203 4.10043 -5.00474 0
M  V30 1214 N 112.336 1.25143 0.95797 0
M  V30 1215 C 113.585 1.0909 1.69654 0
M  V30 1216 C 113.898 -0.368548 1.92097 0
M  V30 1217 O 115.104 -0.649455 2.63618 0
M  V30 1218 C 113.56 1.90395 3.05414 0
M  V30 1219 C 113.168 3.4081 2.90779 0
M  V30 1220 C 114.912 1.82901 3.83076 0
M  V30 1221 C 112.819 4.14423 4.21909 0
M  V30 1222 H 111.749 0.404625 0.636235 0
M  V30 1223 H 114.4 1.4931 1.06672 0
M  V30 1224 H 112.782 1.42996 3.69281 0
M  V30 1225 H 113.956 3.95859 2.35865 0
M  V30 1226 H 112.271 3.49361 2.26575 0
M  V30 1227 H 114.868 2.35196 4.80195 0
M  V30 1228 H 115.211 0.796224 4.08615 0
M  V30 1229 H 115.744 2.28033 3.25954 0
M  V30 1230 H 112.483 5.18102 4.01561 0
M  V30 1231 H 112.003 3.64159 4.76601 0
M  V30 1232 H 113.682 4.21956 4.90471 0
M  V30 1233 N 113.814 -1.1601 1.06675 0
M  V30 1234 C 115.063 -1.85973 0.780818 0
M  V30 1235 C 115.376 -1.82819 -0.695444 0
M  V30 1236 O 116.582 -2.484 -1.09589 0
M  V30 1237 C 115.038 -3.33757 1.34665 0
M  V30 1238 C 114.646 -3.45374 2.85343 0
M  V30 1239 C 116.39 -4.0895 1.13843 0
M  V30 1240 C 114.297 -4.87266 3.35151 0
M  V30 1241 H 113.227 -0.696661 0.288407 0
M  V30 1242 H 115.878 -1.30903 1.28595 0
M  V30 1243 H 114.26 -3.88456 0.769274 0
M  V30 1244 H 115.434 -3.00816 3.49065 0
M  V30 1245 H 113.749 -2.83619 3.04876 0
M  V30 1246 H 116.346 -5.13654 1.4854 0
M  V30 1247 H 116.689 -4.16229 0.0770282 0
M  V30 1248 H 117.222 -3.605 1.68179 0
M  V30 1249 H 113.961 -4.85168 4.40786 0
M  V30 1250 H 113.481 -5.32433 2.76179 0
M  V30 1251 H 115.16 -5.56097 3.30704 0
M  V30 1252 N 115.292 -0.849877 -1.32721 0
M  V30 1253 C 116.541 -0.447175 -1.96681 0
M  V30 1254 C 116.854 1.00135 -1.68025 0
M  V30 1255 O 118.06 1.50926 -2.25685 0
M  V30 1256 C 116.516 -0.7487 -3.52026 0
M  V30 1257 C 116.124 -2.21264 -3.89546 0
M  V30 1258 C 117.868 -0.413487 -4.22481 0
M  V30 1259 C 115.775 -2.45763 -5.37917 0
M  V30 1260 H 114.705 -0.163486 -0.736063 0
M  V30 1261 H 117.356 -1.03999 -1.51183 0
M  V30 1262 H 115.738 -0.0853727 -3.95908 0
M  V30 1263 H 116.912 -2.91736 -3.56689 0
M  V30 1264 H 115.227 -2.5119 -3.32103 0
M  V30 1265 H 117.824 -0.574017 -5.3161 0
M  V30 1266 H 118.167 0.644492 -4.11281 0
M  V30 1267 H 118.7 -1.03251 -3.84167 0
M  V30 1268 H 115.439 -3.50168 -5.54132 0
M  V30 1269 H 114.959 -1.79864 -5.72197 0
M  V30 1270 H 116.638 -2.29471 -6.0494 0
M  V30 1271 N 116.77 1.45427 -0.607355 0
M  V30 1272 C 117.995 2.07124 -0.107006 0
M  V30 1273 C 118.42 1.44906 1.19933 0
M  V30 1274 O 117.778 0.541687 1.73019 0
M  V30 1275 C 117.826 3.60595 0.0194119 0
M  V30 1276 O 116.93 3.98285 1.0697 0
M  V30 1277 H 116.271 0.659868 -0.0739597 0
M  V30 1278 H 118.801 1.86683 -0.837297 0
M  V30 1279 H 118.811 4.07419 0.2177 0
M  V30 1280 H 117.486 4.05266 -0.934453 0
M  V30 1281 H 116.063 3.63133 0.847889 0
M  V30 1282 N 118.248 0.346503 1.53744 0
M  V30 1283 C 119.497 -0.250122 2.00143 0
M  V30 1284 C 119.81 -1.51418 1.23822 0
M  V30 1285 O 121.016 -2.18823 1.60713 0
M  V30 1286 C 119.472 -0.496252 3.56462 0
M  V30 1287 C 119.08 0.752077 4.41642 0
M  V30 1288 C 120.824 -1.05157 4.11269 0
M  V30 1289 C 118.731 0.476583 5.89477 0
M  V30 1290 H 117.661 -0.0972409 0.747703 0
M  V30 1291 H 120.312 0.46229 1.77581 0
M  V30 1292 H 118.694 -1.26944 3.75102 0
M  V30 1293 H 119.868 1.5266 4.34778 0
M  V30 1294 H 118.183 1.22925 3.97842 0
M  V30 1295 H 120.78 -1.27269 5.19333 0
M  V30 1296 H 121.123 -2.00799 3.64672 0
M  V30 1297 H 121.656 -0.339019 3.96353 0
M  V30 1298 H 118.395 1.4028 6.40314 0
M  V30 1299 H 117.915 -0.259794 5.99237 0
M  V30 1300 H 119.594 0.0949315 6.4693 0
M  V30 1301 N 119.726 -1.57421 0.075193 0
M  V30 1302 C 120.975 -1.92794 -0.592731 0
M  V30 1303 C 121.288 -0.957478 -1.70563 0
M  V30 1304 O 122.494 -1.20417 -2.43335 0
M  V30 1305 C 120.95 -3.42495 -1.10569 0
M  V30 1306 C 120.558 -4.47994 -0.0236121 0
M  V30 1307 C 122.302 -3.86864 -1.74748 0
M  V30 1308 C 120.209 -5.88829 -0.550803 0
M  V30 1309 H 119.139 -0.719591 -0.225177 0
M  V30 1310 H 121.79 -1.82902 0.147978 0
M  V30 1311 H 120.172 -3.47471 -1.89947 0
M  V30 1312 H 121.346 -4.54637 0.751099 0
M  V30 1313 H 119.661 -4.13113 0.522159 0
M  V30 1314 H 122.258 -4.8947 -2.15229 0
M  V30 1315 H 122.601 -3.24417 -2.60882 0
M  V30 1316 H 123.134 -3.84504 -1.01986 0
M  V30 1317 H 119.873 -6.54929 0.273457 0
M  V30 1318 H 119.393 -5.85698 -1.29296 0
M  V30 1319 H 121.072 -6.38811 -1.02613 0
M  V30 1320 N 121.204 0.198386 -1.56346 0
M  V30 1321 C 122.134 1.24865 -1.9731 0
M  V30 1322 C 123.115 1.47651 -0.844576 0
M  V30 1323 O 124.3 1.59444 -1.10866 0
M  V30 1324 C 121.43 2.59358 -2.30977 0
M  V30 1325 C 120.384 2.5119 -3.46537 0
M  V30 1326 C 119.71 3.89926 -3.65871 0
M  V30 1327 C 121.01 2.03977 -4.80823 0
M  V30 1328 H 122.704 0.908252 -2.85291 0
M  V30 1329 H 120.25 0.435462 -1.37258 0
M  V30 1330 H 122.203 3.33011 -2.58228 0
M  V30 1331 H 120.927 2.95132 -1.39874 0
M  V30 1332 H 119.586 1.79993 -3.19371 0
M  V30 1333 H 119.234 4.23046 -2.72105 0
M  V30 1334 H 118.934 3.85336 -4.4361 0
M  V30 1335 H 120.458 4.65205 -3.95495 0
M  V30 1336 H 121.872 2.67386 -5.07127 0
M  V30 1337 H 120.269 2.10397 -5.62008 0
M  V30 1338 H 121.339 0.992861 -4.74626 0
M  V30 1339 N 122.682 1.50554 0.465978 0
M  V30 1340 C 123.907 1.65838 1.24549 0
M  V30 1341 C 124.332 0.343486 1.84937 0
M  V30 1342 O 123.69 -0.69324 1.67523 0
M  V30 1343 C 123.738 2.75533 2.32624 0
M  V30 1344 O 122.842 2.37142 3.37398 0
M  V30 1345 H 122.183 0.553893 0.366194 0
M  V30 1346 H 124.713 1.96959 0.553927 0
M  V30 1347 H 124.723 2.98763 2.77857 0
M  V30 1348 H 123.398 3.70962 1.88043 0
M  V30 1349 H 121.975 2.24377 2.97841 0
M  V30 1350 N 124.16 -0.719506 1.40217 0
M  V30 1351 C 125.407 -1.47933 1.38283 0
M  V30 1352 C 125.735 -1.94493 -0.0161536 0
M  V30 1353 O 124.99 -1.68224 -0.999956 0
M  V30 1354 C 125.289 -2.72271 2.31524 0
M  V30 1355 C 124.955 -2.44496 3.78857 0
M  V30 1356 C 123.617 -2.36631 4.18998 0
M  V30 1357 C 125.969 -2.21104 4.71977 0
M  V30 1358 C 123.297 -2.03437 5.503 0
M  V30 1359 C 125.649 -1.89423 6.03574 0
M  V30 1360 C 124.313 -1.80038 6.42762 0
M  V30 1361 H 123.583 -0.541325 0.506012 0
M  V30 1362 H 126.23 -0.824502 1.72842 0
M  V30 1363 H 124.535 -3.42572 1.90137 0
M  V30 1364 H 126.232 -3.30348 2.27313 0
M  V30 1365 H 122.822 -2.51503 3.47051 0
M  V30 1366 H 127.006 -2.26139 4.41786 0
M  V30 1367 H 122.262 -1.94705 5.79569 0
M  V30 1368 H 126.436 -1.70336 6.75247 0
M  V30 1369 H 124.063 -1.54083 7.44421 0
M  V30 1370 N 125.638 -1.25649 -0.95132 0
M  V30 1371 C 126.884 -1.10757 -1.69884 0
M  V30 1372 C 127.217 0.350061 -1.91019 0
M  V30 1373 O 126.492 1.25783 -1.48354 0
M  V30 1374 C 126.775 -1.86606 -3.07978 0
M  V30 1375 C 126.628 -3.40217 -2.94232 0
M  V30 1376 C 127.947 -1.65182 -4.07925 0
M  V30 1377 H 125.066 -0.40374 -0.616574 0
M  V30 1378 H 127.708 -1.54521 -1.10558 0
M  V30 1379 H 125.858 -1.49409 -3.58621 0
M  V30 1380 H 127.53 -3.87108 -2.50889 0
M  V30 1381 H 125.773 -3.67759 -2.30078 0
M  V30 1382 H 126.444 -3.88505 -3.92133 0
M  V30 1383 H 128.92 -1.9757 -3.66204 0
M  V30 1384 H 127.796 -2.20683 -5.02583 0
M  V30 1385 H 128.057 -0.593933 -4.38092 0
M  V30 1386 N 127.117 1.15442 -1.07289 0
M  V30 1387 C 128.363 1.86489 -0.796846 0
M  V30 1388 C 128.696 1.82078 0.675371 0
M  V30 1389 O 127.971 1.24346 1.4956 0
M  V30 1390 C 128.254 3.35626 -1.30489 0
M  V30 1391 C 128.107 3.48673 -2.84161 0
M  V30 1392 C 129.426 4.30357 -0.920907 0
M  V30 1393 H 126.545 0.677144 -0.290939 0
M  V30 1394 H 129.187 1.35633 -1.33056 0
M  V30 1395 H 127.337 3.79068 -0.850883 0
M  V30 1396 H 129.009 3.14099 -3.37846 0
M  V30 1397 H 127.252 2.90253 -3.22391 0
M  V30 1398 H 127.923 4.53453 -3.14777 0
M  V30 1399 H 130.399 3.94871 -1.3121 0
M  V30 1400 H 129.275 5.33193 -1.30372 0
M  V30 1401 H 129.536 4.4176 0.173226 0
M  V30 1402 N 128.595 0.856903 1.32268 0
M  V30 1403 C 129.525 0.31858 2.31316 0
M  V30 1404 C 130.506 -0.583487 1.59779 0
M  V30 1405 O 131.691 -0.503259 1.87566 0
M  V30 1406 C 128.821 -0.491979 3.43798 0
M  V30 1407 C 127.775 0.315849 4.26833 0
M  V30 1408 C 127.101 -0.619586 5.31098 0
M  V30 1409 C 128.401 1.54282 4.98993 0
M  V30 1410 H 130.095 1.14621 2.76591 0
M  V30 1411 H 127.641 0.552613 1.32974 0
M  V30 1412 H 129.594 -0.879012 4.1213 0
M  V30 1413 H 128.318 -1.35299 2.97257 0
M  V30 1414 H 126.977 0.684664 3.6015 0
M  V30 1415 H 126.625 -1.47751 4.8081 0
M  V30 1416 H 126.325 -0.0830621 5.87541 0
M  V30 1417 H 127.849 -1.00375 6.02293 0
M  V30 1418 H 129.263 1.22796 5.59995 0
M  V30 1419 H 127.66 2.01745 5.65172 0
M  V30 1420 H 128.73 2.30285 4.26728 0
M  V30 1421 N 130.073 -1.45103 0.615059 0
M  V30 1422 C 131.322 -2.01396 0.110718 0
M  V30 1423 C 131.635 -1.48834 -1.26916 0
M  V30 1424 O 132.841 -1.97152 -1.86664 0
M  V30 1425 C 131.297 -3.59599 0.14723 0
M  V30 1426 C 130.905 -4.21158 1.52743 0
M  V30 1427 C 132.649 -4.23428 -0.30148 0
M  V30 1428 C 130.556 -5.71535 1.51992 0
M  V30 1429 H 129.486 -0.753061 0.0376241 0
M  V30 1430 H 132.137 -1.66494 0.77149 0
M  V30 1431 H 130.519 -3.91724 -0.580339 0
M  V30 1432 H 131.693 -4.00594 2.2773 0
M  V30 1433 H 130.008 -3.69552 1.91886 0
M  V30 1434 H 132.605 -5.33703 -0.326392 0
M  V30 1435 H 132.948 -3.94629 -1.32565 0
M  V30 1436 H 133.481 -3.96047 0.373065 0
M  V30 1437 H 130.22 -6.05044 2.52193 0
M  V30 1438 H 129.74 -5.94268 0.81274 0
M  V30 1439 H 131.419 -6.34873 1.24681 0
M  V30 1440 N 131.551 -0.354651 -1.53558 0
M  V30 1441 C 132.776 0.242153 -2.05981 0
M  V30 1442 C 133.201 1.42553 -1.2272 0
M  V30 1443 O 132.559 1.79656 -0.243604 0
M  V30 1444 C 132.607 0.624367 -3.55154 0
M  V30 1445 O 131.711 1.72301 -3.74681 0
M  V30 1446 H 131.052 0.0378432 -0.662921 0
M  V30 1447 H 133.582 -0.512087 -1.98088 0
M  V30 1448 H 133.592 0.898433 -3.97985 0
M  V30 1449 H 132.267 -0.240989 -4.15201 0
M  V30 1450 H 130.844 1.44535 -3.4375 0
M  V30 1451 N 133.029 1.57378 -0.0835403 0
M  V30 1452 C 134.276 1.9393 0.58287 0
M  V30 1453 C 134.604 0.964455 1.68904 0
M  V30 1454 O 133.859 -0.0179474 1.95692 0
M  V30 1455 C 134.158 3.37063 1.1884 0
M  V30 1456 C 133.824 4.50424 0.207194 0
M  V30 1457 C 132.486 4.81159 -0.0627115 0
M  V30 1458 C 134.838 5.19136 -0.463426 0
M  V30 1459 C 132.166 5.77939 -1.01012 0
M  V30 1460 C 134.518 6.16931 -1.39924 0
M  V30 1461 C 133.182 6.46078 -1.67749 0
M  V30 1462 H 132.452 0.70964 0.213287 0
M  V30 1463 H 135.099 1.90856 -0.156916 0
M  V30 1464 H 133.404 3.3666 2.00418 0
M  V30 1465 H 135.101 3.6264 1.71153 0
M  V30 1466 H 131.691 4.2646 0.427747 0
M  V30 1467 H 135.875 4.95576 -0.268034 0
M  V30 1468 H 131.131 5.98842 -1.23283 0
M  V30 1469 H 135.305 6.69273 -1.92476 0
M  V30 1470 H 132.932 7.2088 -2.41321 0
M  V30 1471 N 134.507 -0.190092 1.56449 0
M  V30 1472 C 135.454 -1.23557 1.94942 0
M  V30 1473 C 136.424 -1.44972 0.810696 0
M  V30 1474 O 137.609 -1.58023 1.06927 0
M  V30 1475 C 134.749 -2.57416 2.2985 0
M  V30 1476 C 133.862 -2.43537 3.5681 0
M  V30 1477 C 132.997 -3.70134 3.81017 0
M  V30 1478 C 132.036 -3.51109 5.01387 0
M  V30 1479 N 131.173 -4.6973 5.21822 0
M  V30 1480 H 136.013 -0.900304 2.84075 0
M  V30 1481 H 133.55 -0.43318 1.40577 0
M  V30 1482 H 135.508 -3.35409 2.48106 0
M  V30 1483 H 134.138 -2.88975 1.43852 0
M  V30 1484 H 133.19 -1.56816 3.46573 0
M  V30 1485 H 134.502 -2.25415 4.4496 0
M  V30 1486 H 133.656 -4.56566 3.9954 0
M  V30 1487 H 132.395 -3.91215 2.91207 0
M  V30 1488 H 131.4 -2.63063 4.82782 0
M  V30 1489 H 132.625 -3.31468 5.9271 0
M  V30 1490 H 130.571 -4.91065 4.34961 0
M  V30 1491 H 130.488 -4.54452 6.0416 0
M  V30 1492 H 131.756 -5.57499 5.44808 0
M  V30 1493 N 135.985 -1.50799 -0.457987 0
M  V30 1494 C 137.215 -1.65977 -1.23025 0
M  V30 1495 C 137.623 -0.347918 -1.85974 0
M  V30 1496 O 136.966 0.68148 -1.70592 0
M  V30 1497 C 137.028 -2.70309 -2.3701 0
M  V30 1498 C 136.692 -4.135 -1.94594 0
M  V30 1499 C 137.689 -4.98949 -1.46101 0
M  V30 1500 C 135.374 -4.5949 -2.02915 0
M  V30 1501 C 137.368 -6.28442 -1.06489 0
M  V30 1502 C 135.055 -5.88984 -1.62914 0
M  V30 1503 C 136.053 -6.73286 -1.1478 0
M  V30 1504 O 135.741 -8.00362 -0.75339 0
M  V30 1505 H 135.473 -0.56064 -0.377702 0
M  V30 1506 H 138.027 -1.97857 -0.551537 0
M  V30 1507 H 136.257 -2.337 -3.08093 0
M  V30 1508 H 137.946 -2.74574 -2.98938 0
M  V30 1509 H 138.712 -4.6463 -1.39084 0
M  V30 1510 H 134.591 -3.94009 -2.39328 0
M  V30 1511 H 138.135 -6.94194 -0.688488 0
M  V30 1512 H 134.032 -6.22822 -1.69595 0
M  V30 1513 H 134.8 -8.13744 -0.88108 0
M  V30 1514 N 137.463 0.71206 -1.40597 0
M  V30 1515 C 138.393 1.83889 -1.43899 0
M  V30 1516 C 139.374 1.67442 -0.299504 0
M  V30 1517 O 140.559 1.87421 -0.508624 0
M  V30 1518 C 137.689 3.21877 -1.30431 0
M  V30 1519 C 136.643 3.53002 -2.42019 0
M  V30 1520 C 135.969 4.90172 -2.13626 0
M  V30 1521 C 137.269 3.53643 -3.84362 0
M  V30 1522 H 138.963 1.81383 -2.38203 0
M  V30 1523 H 136.509 0.871237 -1.14654 0
M  V30 1524 H 138.462 4.00404 -1.31357 0
M  V30 1525 H 137.186 3.24968 -0.326049 0
M  V30 1526 H 135.845 2.76818 -2.40349 0
M  V30 1527 H 135.493 4.89869 -1.14182 0
M  V30 1528 H 135.193 5.11962 -2.88389 0
M  V30 1529 H 136.717 5.71028 -2.1624 0
M  V30 1530 H 138.131 4.22203 -3.87837 0
M  V30 1531 H 136.528 3.86961 -4.58673 0
M  V30 1532 H 137.598 2.52954 -4.13693 0
M  V30 1533 N 138.941 1.26152 0.944643 0
M  V30 1534 C 139.851 1.09176 2.07648 0
M  V30 1535 C 140.867 0.0261935 1.7398 0
M  V30 1536 O 142.043 0.229208 2.00091 0
M  V30 1537 C 139.108 0.722915 3.39079 0
M  V30 1538 C 138.169 1.86752 3.86552 0
M  V30 1539 C 137.402 1.51617 5.11711 0
M  V30 1540 O 137.625 0.416331 5.68879 0
M  V30 1541 O 136.559 2.34975 5.54139 0
M  V30 1542 H 140.385 2.0412 2.24875 0
M  V30 1543 H 137.97 1.05182 1.061 0
M  V30 1544 H 139.852 0.529787 4.18056 0
M  V30 1545 H 138.527 -0.197159 3.23099 0
M  V30 1546 H 137.434 2.11558 3.08535 0
M  V30 1547 H 138.767 2.76719 4.07047 0
M  V30 1548 N 140.419 -1.14872 1.07899 0
M  V30 1549 C 141.329 -2.2341 0.715915 0
M  V30 1550 C 142.345 -1.71808 -0.275306 0
M  V30 1551 O 143.521 -2.01039 -0.120545 0
M  V30 1552 C 140.586 -3.46474 0.125168 0
M  V30 1553 C 139.647 -4.13039 1.17034 0
M  V30 1554 C 138.88 -5.30229 0.607688 0
M  V30 1555 O 139.103 -5.675 -0.574497 0
M  V30 1556 O 138.037 -5.86444 1.35526 0
M  V30 1557 H 141.863 -2.56808 1.62121 0
M  V30 1558 H 139.448 -1.22702 0.852322 0
M  V30 1559 H 141.33 -4.20917 -0.201729 0
M  V30 1560 H 140.005 -3.14811 -0.753364 0
M  V30 1561 H 138.912 -3.40493 1.54968 0
M  V30 1562 H 140.245 -4.48796 2.02097 0
M  V30 1563 N 141.898 -0.863906 -1.31812 0
M  V30 1564 C 142.845 -0.313303 -2.28664 0
M  V30 1565 C 143.815 0.584868 -1.55462 0
M  V30 1566 O 145 0.517805 -1.83639 0
M  V30 1567 C 142.14 0.48441 -3.41683 0
M  V30 1568 C 141.253 -0.440594 -4.29747 0
M  V30 1569 C 140.388 0.370652 -5.29905 0
M  V30 1570 C 139.427 -0.551164 -6.09613 0
M  V30 1571 N 138.564 0.223462 -7.01744 0
M  V30 1572 H 143.404 -1.14444 -2.75148 0
M  V30 1573 H 140.941 -0.575769 -1.35364 0
M  V30 1574 H 142.899 0.962627 -4.05943 0
M  V30 1575 H 141.529 1.28029 -2.96325 0
M  V30 1576 H 140.581 -1.03724 -3.65986 0
M  V30 1577 H 141.893 -1.14767 -4.85417 0
M  V30 1578 H 141.047 0.911638 -5.99812 0
M  V30 1579 H 139.786 1.11105 -4.74876 0
M  V30 1580 H 138.791 -1.10396 -5.38603 0
M  V30 1581 H 140.016 -1.29032 -6.66729 0
M  V30 1582 H 137.962 0.946787 -6.49132 0
M  V30 1583 H 137.879 -0.424399 -7.54808 0
M  V30 1584 H 139.147 0.745876 -7.75923 0
M  V30 1585 N 143.376 1.44774 -0.622745 0
M  V30 1586 C 144.606 2.06187 -0.130532 0
M  V30 1587 C 145.014 1.46547 1.19669 0
M  V30 1588 O 144.357 0.579636 1.74316 0
M  V30 1589 C 144.419 3.59437 0.0674983 0
M  V30 1590 C 144.083 4.41496 -1.18026 0
M  V30 1591 C 145.08 4.75512 -2.102 0
M  V30 1592 C 142.765 4.82007 -1.41333 0
M  V30 1593 C 144.759 5.48912 -3.23998 0
M  V30 1594 C 142.446 5.55157 -2.55429 0
M  V30 1595 C 143.444 5.88528 -3.46589 0
M  V30 1596 O 143.132 6.60191 -4.58697 0
M  V30 1597 H 142.864 0.672045 -0.0730162 0
M  V30 1598 H 145.418 1.86768 -0.854802 0
M  V30 1599 H 143.648 3.77314 0.846825 0
M  V30 1600 H 145.337 4.02642 0.513209 0
M  V30 1601 H 146.103 4.4476 -1.93425 0
M  V30 1602 H 141.982 4.55457 -0.712709 0
M  V30 1603 H 145.526 5.74877 -3.95174 0
M  V30 1604 H 141.423 5.85324 -2.72151 0
M  V30 1605 H 142.191 6.78654 -4.57571 0
M  V30 1606 N 144.854 0.36279 1.53368 0
M  V30 1607 C 146.079 -0.231226 2.06107 0
M  V30 1608 C 146.504 -1.419 1.23474 0
M  V30 1609 O 145.862 -1.79524 0.253128 0
M  V30 1610 C 145.91 -0.605523 3.5548 0
M  V30 1611 O 145.014 -1.70312 3.7559 0
M  V30 1612 H 144.355 -0.034327 0.663112 0
M  V30 1613 H 146.885 0.522584 1.97814 0
M  V30 1614 H 146.895 -0.877314 3.98456 0
M  V30 1615 H 145.57 0.263004 4.15068 0
M  V30 1616 H 144.147 -1.4271 3.44512 0
M  V30 1617 N 146.332 -1.57332 0.0918853 0
M  V30 1618 C 147.581 -1.93412 -0.572249 0
M  V30 1619 C 147.894 -0.975515 -1.69538 0
M  V30 1620 O 149.1 -1.22991 -2.42045 0
M  V30 1621 C 147.556 -3.43648 -1.0693 0
M  V30 1622 C 147.164 -4.47994 0.0239049 0
M  V30 1623 C 148.908 -3.88695 -1.70635 0
M  V30 1624 C 146.815 -5.89381 -0.488319 0
M  V30 1625 H 145.745 -0.721939 -0.217532 0
M  V30 1626 H 148.396 -1.82735 0.167369 0
M  V30 1627 H 146.778 -3.49466 -1.8625 0
M  V30 1628 H 147.952 -4.53815 0.799277 0
M  V30 1629 H 146.267 -4.12536 0.565946 0
M  V30 1630 H 148.864 -4.91725 -2.10025 0
M  V30 1631 H 149.207 -3.27166 -2.57426 0
M  V30 1632 H 149.74 -3.85564 -0.979023 0
M  V30 1633 H 146.479 -6.54602 0.342906 0
M  V30 1634 H 145.999 -5.87037 -1.23077 0
M  V30 1635 H 147.678 -6.39863 -0.958317 0
M  V30 1636 N 147.81 0.181792 -1.56548 0
M  V30 1637 C 148.72 1.24538 -1.98815 0
M  V30 1638 C 149.736 1.49045 -0.897861 0
M  V30 1639 O 150.912 1.61399 -1.20467 0
M  V30 1640 C 147.977 2.56683 -2.33055 0
M  V30 1641 C 147.038 2.40131 -3.55859 0
M  V30 1642 C 146.271 3.65975 -3.88456 0
M  V30 1643 O 146.494 4.70711 -3.22161 0
M  V30 1644 O 145.428 3.6071 -4.81842 0
M  V30 1645 H 149.254 0.916647 -2.89536 0
M  V30 1646 H 146.839 0.387842 -1.44278 0
M  V30 1647 H 148.721 3.34655 -2.56094 0
M  V30 1648 H 147.396 2.89157 -1.45498 0
M  V30 1649 H 146.303 1.60226 -3.38051 0
M  V30 1650 H 147.636 2.12585 -4.43924 0
M  V30 1651 N 149.288 1.51039 0.449983 0
M  V30 1652 C 150.513 1.6715 1.22783 0
M  V30 1653 C 150.938 0.363081 1.84563 0
M  V30 1654 O 150.296 -0.675433 1.68249 0
M  V30 1655 C 150.344 2.77985 2.29689 0
M  V30 1656 O 149.448 2.40707 3.34864 0
M  V30 1657 H 148.789 0.557746 0.360299 0
M  V30 1658 H 151.319 1.97535 0.533005 0
M  V30 1659 H 151.329 3.01693 2.74673 0
M  V30 1660 H 150.004 3.72935 1.84098 0
M  V30 1661 H 148.581 2.27523 2.95445 0
M  V30 1662 N 150.766 -0.704594 1.40972 0
M  V30 1663 C 151.996 -1.49138 1.42974 0
M  V30 1664 C 152.404 -1.89175 0.0308406 0
M  V30 1665 O 151.747 -1.56734 -0.958138 0
M  V30 1666 C 151.809 -2.79016 2.26694 0
M  V30 1667 C 151.473 -2.61236 3.74973 0
M  V30 1668 C 152.47 -2.27773 4.67349 0
M  V30 1669 C 150.155 -2.77158 4.18914 0
M  V30 1670 C 152.149 -2.10457 6.01653 0
M  V30 1671 C 149.836 -2.59459 5.53285 0
M  V30 1672 C 150.834 -2.26158 6.4447 0
M  V30 1673 O 150.522 -2.08605 7.76363 0
M  V30 1674 H 150.254 -0.466443 0.489292 0
M  V30 1675 H 152.808 -0.8758 1.85793 0
M  V30 1676 H 151.038 -3.42947 1.78673 0
M  V30 1677 H 152.727 -3.40782 2.20504 0
M  V30 1678 H 153.493 -2.15095 4.34694 0
M  V30 1679 H 149.372 -3.02064 3.48251 0
M  V30 1680 H 152.916 -1.84387 6.72791 0
M  V30 1681 H 148.813 -2.71725 5.85522 0
M  V30 1682 H 149.581 -2.23439 7.87412 0
M  V30 1683 N 152.244 -1.26651 -0.937939 0
M  V30 1684 C 153.491 -1.12387 -1.6845 0
M  V30 1685 C 153.819 0.332208 -1.91642 0
M  V30 1686 O 153.074 1.2602 -1.49725 0
M  V30 1687 C 153.373 -1.84168 -3.06295 0
M  V30 1688 C 153.039 -3.34056 -3.02849 0
M  V30 1689 C 151.701 -3.74942 -3.01616 0
M  V30 1690 C 154.053 -4.29741 -2.9491 0
M  V30 1691 C 151.381 -5.09894 -2.90215 0
M  V30 1692 C 153.733 -5.64738 -2.8505 0
M  V30 1693 C 152.397 -6.0493 -2.82162 0
M  V30 1694 H 151.667 -0.411252 -0.616403 0
M  V30 1695 H 154.314 -1.57134 -1.09459 0
M  V30 1696 H 152.619 -1.319 -3.6893 0
M  V30 1697 H 154.316 -1.70569 -3.62915 0
M  V30 1698 H 150.906 -3.01534 -3.0459 0
M  V30 1699 H 155.09 -3.99133 -2.94969 0
M  V30 1700 H 150.346 -5.40194 -2.86358 0
M  V30 1701 H 154.52 -6.38561 -2.77872 0
M  V30 1702 H 152.147 -7.09457 -2.73084 0
M  V30 1703 N 153.722 1.14298 -1.08507 0
M  V30 1704 C 154.632 2.23027 -0.727753 0
M  V30 1705 C 155.648 1.71952 0.26619 0
M  V30 1706 O 156.824 2.011 0.109882 0
M  V30 1707 C 153.889 3.46403 -0.143541 0
M  V30 1708 C 152.95 4.12413 -1.19223 0
M  V30 1709 C 152.183 5.29899 -0.635798 0
M  V30 1710 O 152.406 5.67796 0.544393 0
M  V30 1711 O 151.34 5.85717 -1.38634 0
M  V30 1712 H 155.166 2.55945 -1.63481 0
M  V30 1713 H 152.751 1.22248 -0.858817 0
M  V30 1714 H 154.633 4.21018 0.179404 0
M  V30 1715 H 153.308 3.15206 0.736659 0
M  V30 1716 H 152.215 3.39667 -1.56772 0
M  V30 1717 H 153.548 4.47718 -2.04474 0
M  V30 1718 N 155.201 0.870884 1.31352 0
M  V30 1719 C 156.478 0.402907 1.91405 0
M  V30 1720 C 156.858 -1.11512 1.79244 0
M  V30 1721 O 156.206 -1.94411 1.2007 0
M  V30 1722 C 156.416 0.885301 3.37585 0
M  V30 1723 C 157.764 0.911971 4.14691 0
M  V30 1724 O 158.788 0.831016 3.46371 0
M  V30 1725 O 157.647 1.02927 5.3672 0
M  V30 1726 H 154.741 0.120698 0.818145 0
M  V30 1727 H 157.287 0.958857 1.40014 0
M  V30 1728 H 156.059 1.92889 3.40455 0
M  V30 1729 H 155.682 0.307714 3.96407 0
M  V30 1730 N 156.679 -1.44442 0.630414 0
M  V30 1731 C 157.927 -2.01653 0.134351 0
M  V30 1732 C 158.248 -1.49836 -1.24796 0
M  V30 1733 O 157.518 -0.701684 -1.82902 0
M  V30 1734 H 156.098 -0.74554 0.0466769 0
M  V30 1735 H 158.76 -1.76952 0.816955 0
M  V30 1736 H 157.856 -3.11935 0.101498 0
M  V30 1737 N 158.157 -0.370918 -1.53173 0
M  V30 1738 C 159.434 0.273754 -1.93675 0
M  V30 1739 C 159.814 1.65938 -1.3049 0
M  V30 1740 O 159.162 2.23698 -0.465999 0
M  V30 1741 C 159.372 0.318602 -3.47543 0
M  V30 1742 C 160.72 0.556392 -4.20939 0
M  V30 1743 O 161.744 0.399587 -3.53952 0
M  V30 1744 O 160.603 0.862133 -5.39657 0
M  V30 1745 H 157.697 0.165448 -0.810281 0
M  V30 1746 H 160.243 -0.42409 -1.64315 0
M  V30 1747 H 159.015 -0.652687 -3.85818 0
M  V30 1748 H 158.638 1.06212 -3.83151 0
M  V30 1749 N 159.635 1.57281 -0.100228 0
M  V30 1750 C 160.86 1.99302 0.573881 0
M  V30 1751 C 161.285 0.979059 1.60611 0
M  V30 1752 O 160.643 -0.0517803 1.81226 0
M  V30 1753 C 160.691 3.40274 1.19358 0
M  V30 1754 O 159.795 3.41676 2.30935 0
M  V30 1755 H 159.136 0.647944 0.145138 0
M  V30 1756 H 161.666 2.03779 -0.183156 0
M  V30 1757 H 161.676 3.78078 1.53365 0
M  V30 1758 H 160.351 4.13594 0.437385 0
M  V30 1759 H 158.928 3.15672 1.98509 0
M  V30 1760 N 161.113 -0.173488 1.56642 0
M  V30 1761 C 162.36 -0.890465 1.81871 0
M  V30 1762 C 162.688 -1.82339 0.67696 0
M  V30 1763 O 161.943 -1.92795 -0.335926 0
M  V30 1764 C 162.242 -1.72069 3.13252 0
M  V30 1765 C 161.908 -0.936878 4.41059 0
M  V30 1766 C 160.57 -0.720545 4.75775 0
M  V30 1767 C 162.922 -0.386919 5.19762 0
M  V30 1768 C 160.25 0.0568829 5.86672 0
M  V30 1769 C 162.602 0.37741 6.31473 0
M  V30 1770 C 161.266 0.604563 6.64757 0
M  V30 1771 H 160.536 -0.325844 0.665512 0
M  V30 1772 H 163.183 -0.155527 1.90867 0
M  V30 1773 H 161.488 -2.52496 2.99588 0
M  V30 1774 H 163.185 -2.27844 3.29982 0
M  V30 1775 H 159.775 -1.11553 4.13828 0
M  V30 1776 H 163.959 -0.541398 4.93338 0
M  V30 1777 H 159.215 0.242635 6.10918 0
M  V30 1778 H 163.389 0.810825 6.91664 0
M  V30 1779 H 161.016 1.20885 7.50527 0
M  V30 1780 N 162.591 -1.51276 -0.441967 0
M  V30 1781 C 163.868 -1.54252 -1.20273 0
M  V30 1782 C 164.248 -0.30408 -2.08898 0
M  V30 1783 O 163.596 0.711084 -2.17154 0
M  V30 1784 C 163.806 -2.85406 -2.00859 0
M  V30 1785 C 165.154 -3.37181 -2.58059 0
M  V30 1786 O 166.178 -2.86925 -2.11074 0
M  V30 1787 O 165.037 -4.24858 -3.43741 0
M  V30 1788 H 162.131 -0.619969 -0.547328 0
M  V30 1789 H 164.677 -1.63586 -0.451413 0
M  V30 1790 H 163.449 -3.67003 -1.35736 0
M  V30 1791 H 163.072 -2.79213 -2.83065 0
M  V30 1792 N 164.069 0.697108 -1.41344 0
M  V30 1793 C 165.299 1.48377 -1.43763 0
M  V30 1794 C 165.707 1.89156 -0.0408726 0
M  V30 1795 O 165.05 1.57239 0.949812 0
M  V30 1796 C 165.112 2.7781 -2.2817 0
M  V30 1797 C 164.776 2.59244 -3.76353 0
M  V30 1798 C 165.773 2.25292 -4.68551 0
M  V30 1799 C 163.458 2.74933 -4.20378 0
M  V30 1800 C 165.452 2.07264 -6.02761 0
M  V30 1801 C 163.139 2.56521 -5.54653 0
M  V30 1802 C 164.137 2.22737 -6.4566 0
M  V30 1803 O 163.825 2.04485 -7.77458 0
M  V30 1804 H 163.557 0.463842 -0.491759 0
M  V30 1805 H 166.111 0.865934 -1.86255 0
M  V30 1806 H 164.341 3.41995 -1.8049 0
M  V30 1807 H 166.03 3.39608 -2.22309 0
M  V30 1808 H 166.796 2.12787 -4.35829 0
M  V30 1809 H 162.675 3.00213 -3.49848 0
M  V30 1810 H 166.219 1.80817 -6.73759 0
M  V30 1811 H 162.116 2.68616 -5.86955 0
M  V30 1812 H 162.884 2.1926 -7.88586 0
M  V30 1813 N 165.547 1.27147 0.931209 0
M  V30 1814 C 166.777 1.15914 1.71019 0
M  V30 1815 C 167.185 -0.287112 1.87009 0
M  V30 1816 O 166.528 -1.20761 1.38429 0
M  V30 1817 C 166.59 1.76647 3.13107 0
M  V30 1818 C 166.254 3.25807 3.20467 0
M  V30 1819 C 167.251 4.22489 3.02983 0
M  V30 1820 C 164.936 3.66452 3.43538 0
M  V30 1821 C 166.93 5.57794 3.08454 0
M  V30 1822 C 164.617 5.01888 3.48643 0
M  V30 1823 C 165.615 5.97369 3.31119 0
M  V30 1824 O 165.303 7.30337 3.35952 0
M  V30 1825 H 165.035 0.404062 0.54195 0
M  V30 1826 H 167.589 1.68457 1.17521 0
M  V30 1827 H 165.819 1.18578 3.68071 0
M  V30 1828 H 167.508 1.60179 3.72958 0
M  V30 1829 H 168.274 3.92425 2.85004 0
M  V30 1830 H 164.153 2.92611 3.5623 0
M  V30 1831 H 167.697 6.32298 2.94694 0
M  V30 1832 H 163.594 5.31609 3.66145 0
M  V30 1833 H 164.362 7.38739 3.5243 0
M  V30 1834 N 167.025 -1.13721 1.09112 0
M  V30 1835 C 167.935 -2.22638 0.73957 0
M  V30 1836 C 168.951 -1.72091 -0.257068 0
M  V30 1837 O 170.127 -2.01155 -0.0992154 0
M  V30 1838 C 167.192 -3.46322 0.16191 0
M  V30 1839 C 166.253 -4.11775 1.21408 0
M  V30 1840 C 165.486 -5.29555 0.663891 0
M  V30 1841 O 165.709 -5.68077 -0.514274 0
M  V30 1842 O 164.643 -5.84973 1.41738 0
M  V30 1843 H 168.469 -2.55074 1.64836 0
M  V30 1844 H 166.054 -1.21791 0.865289 0
M  V30 1845 H 167.936 -4.21107 -0.157073 0
M  V30 1846 H 166.611 -3.15593 -0.719932 0
M  V30 1847 H 165.518 -3.3883 1.58571 0
M  V30 1848 H 166.851 -4.46627 2.06845 0
M  V30 1849 N 168.503 -0.877838 -1.30888 0
M  V30 1850 C 169.749 -0.493426 -1.96706 0
M  V30 1851 C 170.082 0.953504 -1.6918 0
M  V30 1852 O 169.357 1.67266 -0.992594 0
M  V30 1853 C 169.64 -0.760429 -3.51979 0
M  V30 1854 C 169.493 -2.25747 -3.89048 0
M  V30 1855 C 170.812 -0.232148 -4.39487 0
M  V30 1856 H 167.931 -0.180746 -0.714493 0
M  V30 1857 H 170.573 -1.10052 -1.54882 0
M  V30 1858 H 168.723 -0.243715 -3.87735 0
M  V30 1859 H 170.395 -2.84204 -3.63354 0
M  V30 1860 H 168.638 -2.72694 -3.37373 0
M  V30 1861 H 169.309 -2.39491 -4.97341 0
M  V30 1862 H 171.785 -0.674314 -4.106 0
M  V30 1863 H 170.661 -0.448355 -5.47066 0
M  V30 1864 H 170.922 0.866297 -4.33529 0
M  V30 1865 N 169.982 1.44106 -0.638065 0
M  V30 1866 C 170.912 2.33448 0.0494287 0
M  V30 1867 C 171.893 1.48606 0.827672 0
M  V30 1868 O 173.078 1.77308 0.792173 0
M  V30 1869 C 170.208 3.31771 1.02691 0
M  V30 1870 C 169.162 4.26485 0.359823 0
M  V30 1871 C 168.488 5.14729 1.44769 0
M  V30 1872 C 169.788 5.17056 -0.738296 0
M  V30 1873 H 171.482 2.91183 -0.696636 0
M  V30 1874 H 169.028 1.40014 -0.336456 0
M  V30 1875 H 170.981 3.93161 1.51666 0
M  V30 1876 H 169.705 2.7226 1.80395 0
M  V30 1877 H 168.364 3.66437 -0.10934 0
M  V30 1878 H 168.012 4.51566 2.21578 0
M  V30 1879 H 167.712 5.78913 1.00668 0
M  V30 1880 H 169.236 5.78991 1.93911 0
M  V30 1881 H 170.65 5.72342 -0.331354 0
M  V30 1882 H 169.047 5.89879 -1.10286 0
M  V30 1883 H 170.117 4.57652 -1.60258 0
M  V30 1884 N 171.46 0.379036 1.52974 0
M  V30 1885 C 172.407 -0.461048 2.26148 0
M  V30 1886 C 173.377 -1.06637 1.27349 0
M  V30 1887 O 174.562 -1.09633 1.56157 0
M  V30 1888 C 171.702 -1.58782 3.06402 0
M  V30 1889 C 170.815 -1.00636 4.20115 0
M  V30 1890 C 169.95 -2.10334 4.87784 0
M  V30 1891 C 168.989 -1.49724 5.93506 0
M  V30 1892 N 168.126 -2.5331 6.54812 0
M  V30 1893 H 172.966 0.169429 2.97518 0
M  V30 1894 H 170.503 0.0953806 1.4679 0
M  V30 1895 H 172.461 -2.25174 3.51215 0
M  V30 1896 H 171.091 -2.18876 2.37261 0
M  V30 1897 H 170.143 -0.232332 3.7969 0
M  V30 1898 H 171.455 -0.523343 4.96047 0
M  V30 1899 H 170.609 -2.84519 5.35849 0
M  V30 1900 H 169.348 -2.61992 4.11353 0
M  V30 1901 H 168.353 -0.740598 5.44789 0
M  V30 1902 H 169.578 -0.988732 6.71864 0
M  V30 1903 H 167.524 -3.04156 5.81227 0
M  V30 1904 H 167.441 -2.09734 7.26325 0
M  V30 1905 H 168.709 -3.27155 7.07524 0
M  V30 1906 N 172.938 -1.57226 0.108567 0
M  V30 1907 C 174.178 -1.96717 -0.555155 0
M  V30 1908 C 174.542 -0.990003 -1.64508 0
M  V30 1909 O 175.743 -1.2739 -2.36696 0
M  V30 1910 C 174.014 -3.40575 -1.08367 0
M  V30 1911 S 175.573 -4.02072 -1.75737 0
M  V30 1912 H 172.391 -0.687638 -0.180762 0
M  V30 1913 H 174.993 -1.94563 0.191172 0
M  V30 1914 H 173.697 -4.0945 -0.279092 0
M  V30 1915 H 173.228 -3.46356 -1.86551 0
M  V30 1916 H 175.243 -3.91977 -3.04251 0
M  V30 1917 N 174.416 0.165178 -1.56732 0
M  V30 1918 C 175.363 1.2044 -1.96883 0
M  V30 1919 C 176.333 1.43664 -0.833657 0
M  V30 1920 O 177.518 1.56302 -1.09427 0
M  V30 1921 C 174.658 2.53727 -2.33916 0
M  V30 1922 C 173.771 2.3783 -3.6064 0
M  V30 1923 C 172.906 3.64026 -3.86857 0
M  V30 1924 C 171.945 3.43088 -5.06909 0
M  V30 1925 N 171.082 4.61369 -5.29229 0
M  V30 1926 H 175.922 0.854996 -2.85471 0
M  V30 1927 H 173.459 0.41076 -1.41249 0
M  V30 1928 H 175.417 3.31419 -2.53411 0
M  V30 1929 H 174.047 2.8665 -1.48431 0
M  V30 1930 H 173.099 1.51282 -3.49024 0
M  V30 1931 H 174.411 2.18308 -4.4849 0
M  V30 1932 H 173.565 4.50152 -4.06753 0
M  V30 1933 H 172.304 3.86533 -2.97394 0
M  V30 1934 H 171.309 2.55349 -4.86906 0
M  V30 1935 H 172.534 3.21997 -5.97909 0
M  V30 1936 H 170.48 4.84084 -4.42718 0
M  V30 1937 H 170.397 4.44783 -6.11313 0
M  V30 1938 H 171.665 5.48761 -5.53608 0
M  V30 1939 N 175.894 1.51508 0.433938 0
M  V30 1940 C 177.31 1.39759 0.770682 0
M  V30 1941 C 177.51 0.482594 1.95636 0
M  V30 1942 O 176.566 -0.0609691 2.52426 0
M  V30 1943 C 177.879 2.81851 1.04787 0
M  V30 1944 C 179.427 2.91025 1.1521 0
M  V30 1945 C 179.902 4.34032 1.46219 0
M  V30 1946 N 181.393 4.37154 1.53136 0
M  V30 1947 C 182.128 5.4484 1.78709 0
M  V30 1948 N 181.624 6.62682 2.02051 0
M  V30 1949 N 183.417 5.32324 1.80519 0
M  V30 1950 H 175.568 2.09548 -0.346892 0
M  V30 1951 H 177.831 0.943446 -0.0928074 0
M  V30 1952 H 177.537 3.50815 0.249304 0
M  V30 1953 H 177.411 3.21386 1.97461 0
M  V30 1954 H 179.798 2.22257 1.94128 0
M  V30 1955 H 179.879 2.54983 0.204281 0
M  V30 1956 H 179.523 5.03351 0.678274 0
M  V30 1957 H 179.453 4.6759 2.42212 0
M  V30 1958 H 181.944 3.52197 1.36987 0
M  V30 1959 H 182.257 7.40543 2.20943 0
M  V30 1960 H 180.602 6.65791 1.99366 0
M  V30 1961 H 183.793 4.39246 1.61805 0
M  V30 1962 H 183.966 6.16328 2.00111 0
M  V30 1963 N 177.372 -0.689602 1.41712 0
M  V30 1964 C 178.62 -1.4468 1.4111 0
M  V30 1965 C 178.941 -1.94986 0.0232196 0
M  V30 1966 O 178.211 -1.72097 -0.935913 0
M  V30 1967 H 176.791 -0.536847 0.519427 0
M  V30 1968 H 179.453 -0.815825 1.77004 0
M  V30 1969 H 178.549 -2.30706 2.10193 0
M  V30 1970 N 178.85 -1.27639 -0.924453 0
M  V30 1971 C 180.127 -1.04887 -1.651 0
M  V30 1972 C 180.507 0.415327 -2.06974 0
M  V30 1973 O 179.855 1.39923 -1.80648 0
M  V30 1974 C 180.065 -2.01348 -2.85061 0
M  V30 1975 C 181.413 -2.30899 -3.56329 0
M  V30 1976 O 182.437 -1.99348 -2.95193 0
M  V30 1977 O 181.296 -2.84699 -4.66485 0
M  V30 1978 H 178.39 -0.400083 -0.723784 0
M  V30 1979 H 180.936 -1.38916 -0.974703 0
M  V30 1980 H 179.708 -3.0008 -2.51133 0
M  V30 1981 H 179.331 -1.679 -3.6041 0
M  V30 1982 N 180.328 1.1314 -1.09713 0
M  V30 1983 C 181.553 1.88862 -0.857081 0
M  V30 1984 C 181.978 1.78729 0.586304 0
M  V30 1985 O 181.336 1.13692 1.41222 0
M  V30 1986 C 181.384 3.36325 -1.30069 0
M  V30 1987 O 180.488 4.09815 -0.461007 0
M  V30 1988 H 179.829 0.587108 -0.310162 0
M  V30 1989 H 182.359 1.43129 -1.46203 0
M  V30 1990 H 182.369 3.87157 -1.28738 0
M  V30 1991 H 181.044 3.43017 -2.35185 0
M  V30 1992 H 179.621 3.68986 -0.538888 0
M  V30 1993 N 181.806 0.884767 1.30421 0
M  V30 1994 C 183.055 0.499164 1.95426 0
M  V30 1995 C 183.368 -0.95645 1.70621 0
M  V30 1996 O 184.574 -1.44889 2.29607 0
M  V30 1997 C 183.03 0.84177 3.49917 0
M  V30 1998 C 182.638 2.31514 3.83543 0
M  V30 1999 C 184.382 0.525355 4.21237 0
M  V30 2000 C 182.289 2.59939 5.31212 0
M  V30 2001 H 181.219 0.182944 0.73147 0
M  V30 2002 H 183.87 1.07971 1.48373 0
M  V30 2003 H 182.252 0.190311 3.95542 0
M  V30 2004 H 183.426 3.0109 3.48829 0
M  V30 2005 H 181.741 2.59907 3.25326 0
M  V30 2006 H 184.338 0.714762 5.29901 0
M  V30 2007 H 184.681 -0.535222 4.12845 0
M  V30 2008 H 185.214 1.134 3.81294 0
M  V30 2009 H 181.953 3.64736 5.44654 0
M  V30 2010 H 181.473 1.94972 5.67227 0
M  V30 2011 H 183.152 2.45429 5.98643 0
M  V30 2012 N 183.284 -1.43765 0.645699 0
M  V30 2013 C 184.216 -2.29027 -0.0890605 0
M  V30 2014 C 185.229 -1.42093 -0.794563 0
M  V30 2015 O 186.418 -1.66104 -0.653575 0
M  V30 2016 C 183.518 -3.18831 -1.14891 0
M  V30 2017 C 182.691 -4.34261 -0.523043 0
M  V30 2018 C 181.75 -5.04994 -1.47878 0
M  V30 2019 O 180.776 -5.6052 -0.990277 0
M  V30 2020 N 181.978 -5.07795 -2.81291 0
M  V30 2021 H 184.743 -2.92727 0.64272 0
M  V30 2022 H 182.304 -1.54373 0.487924 0
M  V30 2023 H 184.296 -3.63015 -1.78892 0
M  V30 2024 H 182.866 -2.56782 -1.78275 0
M  V30 2025 H 182.086 -3.93088 0.295896 0
M  V30 2026 H 183.374 -5.08728 -0.0858147 0
M  V30 2027 H 182.772 -4.64042 -3.23546 0
M  V30 2028 H 181.329 -5.55721 -3.40614 0
M  V30 2029 N 184.763 -0.387143 -1.52771 0
M  V30 2030 C 185.71 0.449048 -2.26389 0
M  V30 2031 C 186.68 1.05961 -1.27912 0
M  V30 2032 O 187.865 1.08804 -1.56737 0
M  V30 2033 C 185.005 1.57155 -3.0724 0
M  V30 2034 C 184.118 0.984066 -4.20643 0
M  V30 2035 C 183.253 2.07745 -4.88892 0
M  V30 2036 C 182.292 1.46574 -5.94292 0
M  V30 2037 N 181.429 2.49834 -6.56146 0
M  V30 2038 H 186.269 -0.185205 -2.97424 0
M  V30 2039 H 183.806 -0.103164 -1.46738 0
M  V30 2040 H 185.764 2.23309 -3.52405 0
M  V30 2041 H 184.394 2.17615 -2.38419 0
M  V30 2042 H 183.446 0.212193 -3.79808 0
M  V30 2043 H 184.758 0.497029 -4.96318 0
M  V30 2044 H 183.912 2.81673 -5.3735 0
M  V30 2045 H 182.651 2.59807 -4.12737 0
M  V30 2046 H 181.656 0.711696 -5.45174 0
M  V30 2047 H 182.881 0.953088 -6.72379 0
M  V30 2048 H 180.827 3.0107 -5.82832 0
M  V30 2049 H 180.744 2.05879 -7.27427 0
M  V30 2050 H 182.012 3.23399 -7.09249 0
M  V30 2051 N 186.241 1.57166 -0.116904 0
M  V30 2052 C 187.49 1.94298 0.541407 0
M  V30 2053 C 187.803 1.00236 1.67964 0
M  V30 2054 O 189.009 1.26826 2.40057 0
M  V30 2055 C 187.465 3.45306 1.01449 0
M  V30 2056 C 187.073 4.47899 -0.0951738 0
M  V30 2057 C 188.817 3.91361 1.6443 0
M  V30 2058 C 186.724 5.90083 0.394491 0
M  V30 2059 H 185.654 0.725308 0.206019 0
M  V30 2060 H 188.305 1.82446 -0.196419 0
M  V30 2061 H 186.687 3.52385 1.80667 0
M  V30 2062 H 187.861 4.52486 -0.871374 0
M  V30 2063 H 186.176 4.11583 -0.631505 0
M  V30 2064 H 188.773 4.95004 2.02176 0
M  V30 2065 H 189.116 3.3122 2.52189 0
M  V30 2066 H 189.649 3.87073 0.917559 0
M  V30 2067 H 186.388 6.53974 -0.447004 0
M  V30 2068 H 185.908 5.88921 1.13722 0
M  V30 2069 H 187.587 6.41307 0.856399 0
M  V30 2070 N 187.719 -0.156864 1.56817 0
M  V30 2071 C 188.666 -1.19394 1.97519 0
M  V30 2072 C 189.636 -1.4322 0.841265 0
M  V30 2073 O 190.821 -1.55719 1.10255 0
M  V30 2074 C 187.961 -2.52483 2.35258 0
M  V30 2075 C 187.074 -2.35914 3.61896 0
M  V30 2076 C 186.209 -3.61969 3.88782 0
M  V30 2077 C 185.248 -3.40395 5.08722 0
M  V30 2078 N 184.385 -4.58556 5.31668 0
M  V30 2079 H 189.225 -0.839845 2.85921 0
M  V30 2080 H 186.762 -0.403264 1.41464 0
M  V30 2081 H 188.72 -3.30071 2.55165 0
M  V30 2082 H 187.35 -2.85859 1.49949 0
M  V30 2083 H 186.402 -1.49429 3.49821 0
M  V30 2084 H 187.714 -2.15926 4.49641 0
M  V30 2085 H 186.868 -4.47989 4.09135 0
M  V30 2086 H 185.607 -3.84951 2.9944 0
M  V30 2087 H 184.612 -2.52763 4.88253 0
M  V30 2088 H 185.837 -3.18822 5.99608 0
M  V30 2089 H 183.783 -4.81729 4.45279 0
M  V30 2090 H 183.7 -4.41535 6.13664 0
M  V30 2091 H 184.968 -5.45817 5.5651 0
M  V30 2092 N 189.197 -1.51736 -0.425897 0
M  V30 2093 C 190.144 -1.73875 -1.51776 0
M  V30 2094 C 191.114 -0.580702 -1.55618 0
M  V30 2095 O 192.299 -0.81641 -1.72451 0
M  V30 2096 C 189.439 -1.88012 -2.89388 0
M  V30 2097 C 188.552 -3.15606 -2.94986 0
M  V30 2098 C 187.687 -3.20271 -4.23793 0
M  V30 2099 C 186.726 -4.42134 -4.23302 0
M  V30 2100 N 185.863 -4.44284 -5.43651 0
M  V30 2101 H 190.703 -2.67071 -1.32201 0
M  V30 2102 H 188.24 -1.32351 -0.642008 0
M  V30 2103 H 190.198 -1.9419 -3.69251 0
M  V30 2104 H 188.828 -0.98213 -3.07496 0
M  V30 2105 H 187.88 -3.18681 -2.07717 0
M  V30 2106 H 189.192 -4.05486 -2.90486 0
M  V30 2107 H 188.346 -3.25428 -5.12036 0
M  V30 2108 H 187.085 -2.28299 -4.30965 0
M  V30 2109 H 186.09 -4.3714 -3.3345 0
M  V30 2110 H 187.315 -5.35382 -4.17783 0
M  V30 2111 H 185.261 -3.55188 -5.51523 0
M  V30 2112 H 185.178 -5.27988 -5.41078 0
M  V30 2113 H 186.446 -4.53649 -6.33895 0
M  V30 2114 N 190.675 0.682077 -1.42076 0
M  V30 2115 C 191.623 1.81707 -1.45208 0
M  V30 2116 C 192.617 1.66183 -0.328591 0
M  V30 2117 O 193.823 1.7288 -0.501264 0
M  V30 2118 H 190.198 0.599014 -0.454628 0
M  V30 2119 H 192.169 1.76183 -2.40836 0
M  V30 2120 C 190.918 3.19816 -1.36428 0
M  V30 2121 H 190.241 3.32385 -2.22171 0
M  V30 2122 H 191.681 3.99272 -1.42681 0
M  V30 2123 C 190.14 3.36809 -0.078191 0
M  V30 2124 O 190.67 3.92124 0.87188 0
M  V30 2125 N 188.876 2.906 0.00229266 0
M  V30 2126 H 188.423 2.45772 -0.771616 0
M  V30 2127 H 188.381 3.02347 0.862179 0
M  V30 2128 N 192.153 1.28127 0.917671 0
M  V30 2129 C 193.383 1.17722 1.6978 0
M  V30 2130 C 193.791 -0.267261 1.87303 0
M  V30 2131 O 193.134 -1.19286 1.39702 0
M  V30 2132 C 193.196 1.79958 3.11216 0
M  V30 2133 C 192.86 3.29187 3.16993 0
M  V30 2134 C 193.857 4.25679 2.98485 0
M  V30 2135 C 191.542 3.70075 3.39632 0
M  V30 2136 C 193.536 5.61035 3.02521 0
M  V30 2137 C 191.223 5.05557 3.433 0
M  V30 2138 C 192.221 6.00847 3.24764 0
M  V30 2139 O 191.909 7.33859 3.28187 0
M  V30 2140 H 191.641 0.409788 0.537634 0
M  V30 2141 H 194.195 1.69694 1.15728 0
M  V30 2142 H 192.425 1.22475 3.66793 0
M  V30 2143 H 194.114 1.64125 3.71238 0
M  V30 2144 H 194.88 3.95426 2.80826 0
M  V30 2145 H 190.759 2.96373 3.53106 0
M  V30 2146 H 194.303 6.35388 2.87971 0
M  V30 2147 H 190.2 5.35462 3.60486 0
M  V30 2148 H 190.968 7.42436 3.44575 0
M  V30 2149 N 193.631 -1.12557 1.10312 0
M  V30 2150 C 195.047 -1.36036 0.834649 0
M  V30 2151 C 195.247 -1.93946 -0.546539 0
M  V30 2152 O 194.303 -2.16484 -1.29966 0
M  V30 2153 C 195.616 -2.30312 1.9333 0
M  V30 2154 C 197.164 -2.43906 1.9616 0
M  V30 2155 C 197.639 -3.41496 3.05195 0
M  V30 2156 N 199.13 -3.49053 3.04494 0
M  V30 2157 C 199.865 -4.24471 3.85502 0
M  V30 2158 N 199.361 -5.02966 4.76442 0
M  V30 2159 N 201.154 -4.19864 3.73725 0
M  V30 2160 H 193.305 -0.733246 1.99342 0
M  V30 2161 H 195.568 -0.385234 0.866198 0
M  V30 2162 H 195.274 -1.94933 2.92735 0
M  V30 2163 H 195.148 -3.30421 1.81939 0
M  V30 2164 H 197.535 -2.78567 0.973886 0
M  V30 2165 H 197.616 -1.4369 2.11629 0
M  V30 2166 H 197.26 -3.07565 4.04186 0
M  V30 2167 H 197.19 -4.41539 2.86968 0
M  V30 2168 H 199.681 -2.93053 2.38596 0
M  V30 2169 H 199.994 -5.57846 5.34815 0
M  V30 2170 H 198.339 -5.02167 4.80472 0
M  V30 2171 H 201.53 -3.57623 3.02032 0
M  V30 2172 H 201.703 -4.78386 4.37093 0
M  V30 2173 N 195.109 -0.891671 -1.2995 0
M  V30 2174 C 196.386 -0.433307 -1.9074 0
M  V30 2175 C 196.766 1.08646 -1.80995 0
M  V30 2176 O 196.114 1.92476 -1.23147 0
M  V30 2177 C 196.324 -0.938895 -3.36134 0
M  V30 2178 C 197.672 -0.977829 -4.13187 0
M  V30 2179 O 198.696 -0.886015 -3.45005 0
M  V30 2180 O 197.555 -1.11453 -5.35015 0
M  V30 2181 H 194.649 -0.133699 -0.816121 0
M  V30 2182 H 197.195 -0.981011 -1.38471 0
M  V30 2183 H 195.967 -1.98281 -3.37343 0
M  V30 2184 H 195.59 -0.37074 -3.95868 0
M  V30 2185 N 196.587 1.43421 -0.653314 0
M  V30 2186 C 197.517 2.33487 0.0246656 0
M  V30 2187 C 198.498 1.49475 0.811863 0
M  V30 2188 O 199.683 1.78139 0.773322 0
M  V30 2189 C 196.813 3.32841 0.99166 0
M  V30 2190 C 195.767 4.26842 0.314568 0
M  V30 2191 C 195.093 5.16236 1.39302 0
M  V30 2192 C 196.393 5.16243 -0.793095 0
M  V30 2193 H 198.087 2.90427 -0.727481 0
M  V30 2194 H 195.633 1.39649 -0.351287 0
M  V30 2195 H 197.586 3.94747 1.47487 0
M  V30 2196 H 196.31 2.74158 1.77497 0
M  V30 2197 H 194.969 3.663 -0.148199 0
M  V30 2198 H 194.617 4.53891 2.16776 0
M  V30 2199 H 194.317 5.79948 0.945223 0
M  V30 2200 H 195.841 5.81015 1.87759 0
M  V30 2201 H 197.255 5.71958 -0.392039 0
M  V30 2202 H 195.652 5.88676 -1.16536 0
M  V30 2203 H 196.722 4.55927 -1.65103 0
M  V30 2204 N 198.065 0.39524 1.52563 0
M  V30 2205 C 199.29 -0.187456 2.06551 0
M  V30 2206 C 199.715 -1.39249 1.26457 0
M  V30 2207 O 199.073 -1.78947 0.291151 0
M  V30 2208 C 199.121 -0.529985 3.56684 0
M  V30 2209 O 198.225 -1.62307 3.79118 0
M  V30 2210 H 197.566 -0.0202537 0.663691 0
M  V30 2211 H 200.096 0.564426 1.96661 0
M  V30 2212 H 200.106 -0.792598 4.00227 0
M  V30 2213 H 198.781 0.350987 4.14416 0
M  V30 2214 H 197.358 -1.3537 3.47461 0
M  V30 2215 N 199.544 -1.57102 0.125237 0
M  V30 2216 C 200.491 -2.15641 -0.822655 0
M  V30 2217 C 201.461 -1.08313 -1.25927 0
M  V30 2218 O 202.646 -1.36251 -1.33567 0
M  V30 2219 C 199.786 -2.76504 -2.06494 0
M  V30 2220 C 198.899 -3.98158 -1.67612 0
M  V30 2221 C 198.034 -4.47088 -2.86854 0
M  V30 2222 C 197.073 -5.6126 -2.44242 0
M  V30 2223 N 196.21 -6.04905 -3.56419 0
M  V30 2224 H 201.05 -2.96313 -0.316625 0
M  V30 2225 H 198.587 -1.46388 -0.144588 0
M  V30 2226 H 200.545 -3.09925 -2.79289 0
M  V30 2227 H 199.175 -1.98512 -2.54545 0
M  V30 2228 H 198.227 -3.70858 -0.846661 0
M  V30 2229 H 199.539 -4.80934 -1.32301 0
M  V30 2230 H 198.693 -4.82451 -3.67867 0
M  V30 2231 H 197.432 -3.63275 -3.25396 0
M  V30 2232 H 196.437 -5.25495 -1.61663 0
M  V30 2233 H 197.662 -6.46843 -2.0681 0
M  V30 2234 H 195.608 -5.24032 -3.94623 0
M  V30 2235 H 195.525 -6.82552 -3.25051 0
M  V30 2236 H 196.793 -6.44907 -4.37853 0
M  V30 2237 N 201.022 0.148545 -1.56898 0
M  V30 2238 C 201.954 1.20852 -1.9475 0
M  V30 2239 C 202.967 1.39265 -0.843152 0
M  V30 2240 O 204.156 1.38864 -1.12156 0
M  V30 2241 C 201.256 2.57362 -2.20495 0
M  V30 2242 C 200.429 2.59947 -3.51776 0
M  V30 2243 C 199.488 3.77984 -3.6608 0
M  V30 2244 O 198.514 3.62929 -4.38487 0
M  V30 2245 N 199.716 4.95375 -3.02629 0
M  V30 2246 H 202.481 0.886804 -2.86279 0
M  V30 2247 H 200.042 0.338121 -1.5833 0
M  V30 2248 H 202.034 3.34833 -2.27307 0
M  V30 2249 H 200.604 2.81832 -1.35238 0
M  V30 2250 H 199.824 1.68403 -3.56419 0
M  V30 2251 H 201.112 2.58704 -4.38121 0
M  V30 2252 H 200.51 5.10509 -2.43715 0
M  V30 2253 H 199.067 5.70627 -3.15004 0
M  V30 2254 N 202.5 1.5196 0.417844 0
M  V30 2255 C 203.73 1.69181 1.18581 0
M  V30 2256 C 204.138 0.397104 1.84986 0
M  V30 2257 O 203.481 -0.636011 1.72339 0
M  V30 2258 C 203.543 2.76497 2.29759 0
M  V30 2259 C 203.207 4.18514 1.83563 0
M  V30 2260 C 204.204 5.02648 1.32821 0
M  V30 2261 C 201.889 4.64708 1.90661 0
M  V30 2262 C 203.883 6.31044 0.897894 0
M  V30 2263 C 201.57 5.93096 1.47241 0
M  V30 2264 C 202.568 6.76093 0.968891 0
M  V30 2265 O 202.256 8.02078 0.540924 0
M  V30 2266 H 201.988 0.570457 0.362705 0
M  V30 2267 H 204.542 1.99249 0.498885 0
M  V30 2268 H 202.772 2.41786 3.01789 0
M  V30 2269 H 204.461 2.82403 2.91553 0
M  V30 2270 H 205.227 4.68154 1.26716 0
M  V30 2271 H 201.106 4.00216 2.28797 0
M  V30 2272 H 204.65 6.95776 0.504192 0
M  V30 2273 H 200.547 6.271 1.53022 0
M  V30 2274 H 201.315 8.15794 0.66502 0
M  V30 2275 N 203.978 -0.674533 1.42435 0
M  V30 2276 C 204.928 -1.7807 1.4239 0
M  V30 2277 C 205.912 -1.58169 0.295202 0
M  V30 2278 O 207.104 -1.68643 0.537449 0
M  V30 2279 C 204.233 -3.16532 1.32901 0
M  V30 2280 C 203.319 -3.42055 2.50717 0
M  V30 2281 N 203.71 -3.38162 3.76139 0
M  V30 2282 C 202.008 -3.72692 2.44983 0
M  V30 2283 C 202.709 -3.63177 4.54398 0
M  V30 2284 N 201.685 -3.83954 3.84812 0
M  V30 2285 H 205.487 -1.73454 2.37257 0
M  V30 2286 H 203.001 -0.875381 1.36788 0
M  V30 2287 H 204.998 -3.958 1.30951 0
M  V30 2288 H 203.658 -3.22345 0.390363 0
M  V30 2289 H 204.669 -3.18057 4.0873 0
M  V30 2290 H 201.346 -3.85749 1.59699 0
M  V30 2291 H 202.736 -3.66125 5.63384 0
M  V30 2292 N 205.456 -1.28612 -0.910864 0
M  V30 2293 C 206.867 -1.14406 -1.47541 0
M  V30 2294 C 207.218 0.264901 -1.94403 0
M  V30 2295 O 206.343 1.15942 -1.82719 0
M  V30 2296 C 206.938 -2.07073 -2.68153 0
M  V30 2297 C 205.497 -1.96923 -3.20778 0
M  V30 2298 C 204.644 -1.98646 -1.93481 0
M  V30 2299 H 207.595 -1.41259 -0.723291 0
M  V30 2300 H 207.616 -1.63642 -3.43514 0
M  V30 2301 H 207.128 -3.09611 -2.34015 0
M  V30 2302 H 205.229 -0.97433 -3.59635 0
M  V30 2303 H 205.342 -2.84026 -3.85832 0
M  V30 2304 H 203.706 -1.43093 -2.10705 0
M  V30 2305 H 204.489 -3.02868 -1.61634 0
M  V30 2306 N 206.934 1.1197 -1.10907 0
M  V30 2307 C 208.211 1.79959 -0.766432 0
M  V30 2308 C 208.591 1.97466 0.746363 0
M  V30 2309 O 207.939 1.55491 1.67436 0
M  V30 2310 C 208.149 3.14009 -1.52314 0
M  V30 2311 C 209.497 3.89134 -1.69883 0
M  V30 2312 O 210.521 3.2368 -1.48692 0
M  V30 2313 O 209.38 5.06572 -2.05054 0
M  V30 2314 H 206.474 0.779208 -0.277062 0
M  V30 2315 H 209.02 1.18762 -1.21217 0
M  V30 2316 H 207.792 2.96587 -2.55249 0
M  V30 2317 H 207.415 3.82915 -1.07059 0
M  V30 2318 N 208.412 0.89855 1.29475 0
M  V30 2319 C 209.637 0.538561 2.00285 0
M  V30 2320 C 210.062 -0.869135 1.66816 0
M  V30 2321 O 209.42 -1.57831 0.892145 0
M  V30 2322 C 209.468 0.736475 3.52999 0
M  V30 2323 O 208.572 -0.211537 4.11857 0
M  V30 2324 H 207.913 0.210563 0.62973 0
M  V30 2325 H 210.443 1.20982 1.64998 0
M  V30 2326 H 210.453 0.640685 4.02938 0
M  V30 2327 H 209.128 1.76276 3.76696 0
M  V30 2328 H 207.705 -0.0682991 3.72837 0
M  V30 2329 N 209.89 -1.43072 0.660911 0
M  V30 2330 C 210.838 -2.32569 -0.0378199 0
M  V30 2331 C 211.832 -1.49046 -0.805092 0
M  V30 2332 O 213.038 -1.65206 -0.714624 0
M  V30 2333 H 209.413 -0.75136 -0.031019 0
M  V30 2334 H 211.384 -2.89216 0.734609 0
M  V30 2335 C 210.133 -3.33453 -0.985124 0
M  V30 2336 H 209.456 -3.97752 -0.404147 0
M  V30 2337 H 210.896 -3.98691 -1.44297 0
M  V30 2338 C 209.355 -2.64642 -2.08486 0
M  V30 2339 O 209.885 -2.46776 -3.16961 0
M  V30 2340 N 208.091 -2.23891 -1.8526 0
M  V30 2341 H 207.638 -2.38621 -0.970449 0
M  V30 2342 H 207.596 -1.78181 -2.59034 0
M  V30 2343 N 211.368 -0.403325 -1.52352 0
M  V30 2344 C 212.315 0.425011 -2.26853 0
M  V30 2345 C 213.285 1.04598 -1.29029 0
M  V30 2346 O 214.47 1.07135 -1.57882 0
M  V30 2347 C 211.61 1.53888 -3.08889 0
M  V30 2348 C 210.723 0.939396 -4.21663 0
M  V30 2349 C 209.858 2.02547 -4.91068 0
M  V30 2350 C 208.897 1.40263 -5.95813 0
M  V30 2351 N 208.034 2.4286 -6.58759 0
M  V30 2352 H 212.874 -0.21674 -2.97211 0
M  V30 2353 H 210.411 -0.118722 -1.4662 0
M  V30 2354 H 212.369 2.19558 -3.54753 0
M  V30 2355 H 210.999 2.15074 -2.40714 0
M  V30 2356 H 210.051 0.171898 -3.80011 0
M  V30 2357 H 211.363 0.44436 -4.96817 0
M  V30 2358 H 210.517 2.75958 -5.40308 0
M  V30 2359 H 209.256 2.55415 -4.15469 0
M  V30 2360 H 208.261 0.653833 -5.45898 0
M  V30 2361 H 209.486 0.881719 -6.73352 0
M  V30 2362 H 207.432 2.94871 -5.85992 0
M  V30 2363 H 207.349 1.98152 -7.2957 0
M  V30 2364 H 208.617 3.15858 -7.12639 0
M  V30 2365 N 212.846 1.57033 -0.133567 0
M  V30 2366 C 213.794 2.17348 0.828412 0
M  V30 2367 C 214.788 1.12671 1.26498 0
M  V30 2368 O 215.994 1.30947 1.23502 0
M  V30 2369 H 212.369 0.695775 0.285309 0
M  V30 2370 H 214.34 2.96935 0.295372 0
M  V30 2371 C 213.089 2.79893 2.06289 0
M  V30 2372 H 212.412 3.60147 1.73592 0
M  V30 2373 H 213.852 3.25615 2.71572 0
M  V30 2374 C 212.311 1.77713 2.86216 0
M  V30 2375 O 212.841 1.23937 3.82103 0
M  V30 2376 N 211.047 1.47321 2.50489 0
M  V30 2377 H 210.594 1.91243 1.7258 0
M  V30 2378 H 210.552 0.79199 3.04261 0
M  V30 2379 N 214.325 -0.140222 1.56975 0
M  V30 2380 C 215.565 -0.857823 1.85528 0
M  V30 2381 C 215.929 -1.78039 0.718768 0
M  V30 2382 O 217.13 -2.53795 0.885521 0
M  V30 2383 C 215.401 -1.60615 3.19277 0
M  V30 2384 S 216.96 -2.36824 3.69405 0
M  V30 2385 H 213.778 -0.286727 0.650622 0
M  V30 2386 H 216.38 -0.117408 1.95147 0
M  V30 2387 H 215.084 -0.919994 3.99955 0
M  V30 2388 H 214.615 -2.38735 3.12681 0
M  V30 2389 H 216.63 -3.62148 3.3921 0
M  V30 2390 N 215.803 -1.52179 -0.40978 0
M  V30 2391 C 216.75 -1.75475 -1.49924 0
M  V30 2392 C 217.72 -0.597175 -1.54994 0
M  V30 2393 O 218.905 -0.834655 -1.71575 0
M  V30 2394 C 216.045 -1.9107 -2.87378 0
M  V30 2395 C 215.158 -3.18717 -2.91622 0
M  V30 2396 C 214.293 -3.24747 -4.20372 0
M  V30 2397 C 213.332 -4.46598 -4.18588 0
M  V30 2398 N 212.469 -4.50025 -5.38908 0
M  V30 2399 H 217.309 -2.68458 -1.29361 0
M  V30 2400 H 214.846 -1.33024 -0.627934 0
M  V30 2401 H 216.804 -1.98096 -3.6717 0
M  V30 2402 H 215.434 -1.01469 -3.06437 0
M  V30 2403 H 214.486 -3.20866 -2.04326 0
M  V30 2404 H 215.798 -4.08544 -2.86169 0
M  V30 2405 H 214.952 -3.30841 -5.08556 0
M  V30 2406 H 213.691 -2.32857 -4.28519 0
M  V30 2407 H 212.696 -4.40652 -3.28794 0
M  V30 2408 H 213.921 -5.39783 -4.12081 0
M  V30 2409 H 211.867 -3.61017 -5.47725 0
M  V30 2410 H 211.784 -5.33697 -5.35447 0
M  V30 2411 H 213.052 -4.60347 -6.29048 0
M  V30 2412 N 217.281 0.66697 -1.42791 0
M  V30 2413 C 218.558 1.4234 -1.34159 0
M  V30 2414 C 218.938 2.11093 0.0172729 0
M  V30 2415 O 218.286 2.03808 1.03318 0
M  V30 2416 C 218.496 2.41942 -2.51526 0
M  V30 2417 C 219.844 3.06353 -2.93995 0
M  V30 2418 O 220.868 2.52269 -2.51473 0
M  V30 2419 O 219.727 4.04376 -3.67617 0
M  V30 2420 H 216.821 0.635277 -0.529483 0
M  V30 2421 H 219.367 0.695034 -1.54814 0
M  V30 2422 H 218.139 1.89991 -3.42081 0
M  V30 2423 H 217.762 3.22249 -2.32898 0
M  V30 2424 N 218.759 1.29093 0.90403 0
M  V30 2425 C 219.999 1.18076 1.66845 0
M  V30 2426 C 220.363 -0.26436 1.90171 0
M  V30 2427 O 221.564 -0.497423 2.64157 0
M  V30 2428 C 219.835 1.96722 2.98388 0
M  V30 2429 S 221.394 2.0219 3.89441 0
M  V30 2430 H 218.212 0.421104 0.572881 0
M  V30 2431 H 220.814 1.63322 1.07453 0
M  V30 2432 H 219.518 3.00866 2.7912 0
M  V30 2433 H 219.049 1.52064 3.62823 0
M  V30 2434 H 221.064 1.13545 4.83034 0
M  V30 2435 N 220.237 -1.11381 1.11499 0
M  V30 2436 C 221.514 -1.7955 0.775965 0
M  V30 2437 C 221.894 -1.97859 -0.73588 0
M  V30 2438 O 221.242 -1.56376 -1.66609 0
M  V30 2439 C 221.452 -3.13196 1.53977 0
M  V30 2440 C 222.8 -3.88227 1.71944 0
M  V30 2441 O 223.824 -3.22887 1.50407 0
M  V30 2442 O 222.683 -5.05477 2.07738 0
M  V30 2443 H 219.777 -0.777728 0.28119 0
M  V30 2444 H 222.323 -1.18118 1.21845 0
M  V30 2445 H 221.095 -2.95229 2.56818 0
M  V30 2446 H 220.718 -3.82342 1.09088 0
M  V30 2447 N 221.715 -0.905404 -1.28997 0
M  V30 2448 C 222.662 -0.385892 -2.27551 0
M  V30 2449 C 223.632 0.535113 -1.57244 0
M  V30 2450 O 224.817 0.459119 -1.85194 0
M  V30 2451 C 221.957 0.375461 -3.43051 0
M  V30 2452 C 221.07 -0.577092 -4.28128 0
M  V30 2453 C 220.205 0.201879 -5.30816 0
M  V30 2454 C 219.244 -0.744829 -6.07551 0
M  V30 2455 N 218.381 9.42587e-05 -7.021 0
M  V30 2456 H 223.221 -1.23139 -2.71368 0
M  V30 2457 H 220.758 -0.618542 -1.33463 0
M  V30 2458 H 222.716 0.832992 -4.088 0
M  V30 2459 H 221.346 1.18537 -3.00248 0
M  V30 2460 H 220.398 -1.15315 -3.62501 0
M  V30 2461 H 221.71 -1.30152 -4.8152 0
M  V30 2462 H 220.864 0.720351 -6.02408 0
M  V30 2463 H 219.603 0.959413 -4.7817 0
M  V30 2464 H 218.608 -1.27475 -5.34818 0
M  V30 2465 H 219.833 -1.50178 -6.62286 0
M  V30 2466 H 217.779 0.739791 -6.51815 0
M  V30 2467 H 217.696 -0.664321 -7.53076 0
M  V30 2468 H 218.964 0.498644 -7.77903 0
M  V30 2469 N 223.193 1.4272 -0.668489 0
M  V30 2470 C 224.14 2.30796 0.0137489 0
M  V30 2471 C 225.11 1.4561 0.799177 0
M  V30 2472 O 226.295 1.74453 0.772702 0
M  V30 2473 C 223.435 3.31377 0.963507 0
M  V30 2474 C 222.548 4.31655 0.172569 0
M  V30 2475 C 221.683 5.19312 1.1175 0
M  V30 2476 C 220.722 6.11274 0.317886 0
M  V30 2477 N 219.859 6.91504 1.2152 0
M  V30 2478 H 224.699 2.88585 -0.743161 0
M  V30 2479 H 222.236 1.42154 -0.378226 0
M  V30 2480 H 224.194 3.88214 1.52792 0
M  V30 2481 H 222.824 2.75202 1.68712 0
M  V30 2482 H 221.876 3.76988 -0.508374 0
M  V30 2483 H 223.188 4.96779 -0.448527 0
M  V30 2484 H 222.342 5.80851 1.75206 0
M  V30 2485 H 221.081 4.5435 1.77249 0
M  V30 2486 H 220.086 5.48809 -0.329918 0
M  V30 2487 H 221.311 6.78283 -0.332917 0
M  V30 2488 H 219.257 6.29176 1.85671 0
M  V30 2489 H 219.174 7.53209 0.649036 0
M  V30 2490 H 220.442 7.57535 1.83742 0
M  V30 2491 N 224.671 0.411399 1.52136 0
M  V30 2492 C 225.918 -0.163645 2.01838 0
M  V30 2493 C 226.246 -1.4495 1.29691 0
M  V30 2494 O 225.501 -1.91725 0.392431 0
M  V30 2495 C 225.8 -0.455872 3.54481 0
M  V30 2496 C 225.466 0.741055 4.44769 0
M  V30 2497 C 224.128 1.06936 4.69167 0
M  V30 2498 C 226.48 1.54075 4.97906 0
M  V30 2499 C 223.808 2.19851 5.43951 0
M  V30 2500 C 226.16 2.66067 5.73926 0
M  V30 2501 C 224.824 2.99381 5.96596 0
M  V30 2502 H 224.094 -0.0598821 0.738576 0
M  V30 2503 H 226.741 0.553283 1.83333 0
M  V30 2504 H 225.046 -1.2544 3.71177 0
M  V30 2505 H 226.743 -0.913802 3.90449 0
M  V30 2506 H 223.333 0.475192 4.25958 0
M  V30 2507 H 227.517 1.30033 4.78963 0
M  V30 2508 H 222.773 2.46006 5.59724 0
M  V30 2509 H 226.947 3.28419 6.14096 0
M  V30 2510 H 224.574 3.86992 6.54325 0
M  V30 2511 N 226.149 -1.5696 0.141893 0
M  V30 2512 C 227.081 -2.13619 -0.830627 0
M  V30 2513 C 228.094 -1.08439 -1.21428 0
M  V30 2514 O 229.283 -1.35734 -1.15925 0
M  V30 2515 C 226.383 -2.63978 -2.12529 0
M  V30 2516 C 225.556 -3.93504 -1.9098 0
M  V30 2517 C 224.615 -4.29225 -3.04388 0
M  V30 2518 O 223.641 -4.97641 -2.76302 0
M  V30 2519 N 224.843 -3.88393 -4.31429 0
M  V30 2520 H 227.608 -2.97691 -0.34641 0
M  V30 2521 H 225.169 -1.61846 -0.0418375 0
M  V30 2522 H 227.161 -2.84891 -2.87436 0
M  V30 2523 H 225.731 -1.84659 -2.52229 0
M  V30 2524 H 224.951 -3.81269 -1.00139 0
M  V30 2525 H 226.239 -4.78154 -1.73914 0
M  V30 2526 H 225.637 -3.33257 -4.57117 0
M  V30 2527 H 224.194 -4.14368 -5.03133 0
M  V30 2528 N 227.627 0.131896 -1.57047 0
M  V30 2529 C 228.537 1.1815 -2.02676 0
M  V30 2530 C 229.553 1.46113 -0.944824 0
M  V30 2531 O 230.729 1.57485 -1.25541 0
M  V30 2532 C 227.794 2.49139 -2.41103 0
M  V30 2533 C 226.855 2.28688 -3.63318 0
M  V30 2534 C 226.088 3.53431 -3.99903 0
M  V30 2535 O 226.311 4.60223 -3.36973 0
M  V30 2536 O 225.245 3.45198 -4.93074 0
M  V30 2537 H 229.071 0.824069 -2.92306 0
M  V30 2538 H 226.656 0.341745 -1.45439 0
M  V30 2539 H 228.538 3.26338 -2.66611 0
M  V30 2540 H 227.213 2.84382 -1.54624 0
M  V30 2541 H 226.12 1.4939 -3.42977 0
M  V30 2542 H 227.453 1.98355 -4.50462 0
M  V30 2543 N 229.106 1.52395 0.401703 0
M  V30 2544 C 230.355 1.66044 1.14509 0
M  V30 2545 C 230.668 0.400216 1.91462 0
M  V30 2546 O 231.874 0.416632 2.68284 0
M  V30 2547 C 230.33 2.93388 2.0845 0
M  V30 2548 C 229.938 4.26545 1.36978 0
M  V30 2549 C 231.682 3.16402 2.83001 0
M  V30 2550 C 229.589 5.45007 2.29611 0
M  V30 2551 H 228.519 0.618562 0.431158 0
M  V30 2552 H 231.17 1.78886 0.40892 0
M  V30 2553 H 229.552 2.74263 2.8565 0
M  V30 2554 H 230.726 4.56179 0.650916 0
M  V30 2555 H 229.041 4.09692 0.74438 0
M  V30 2556 H 231.638 4.02085 3.52465 0
M  V30 2557 H 231.981 2.30943 3.46368 0
M  V30 2558 H 232.514 3.36034 2.12898 0
M  V30 2559 H 229.253 6.32835 1.70879 0
M  V30 2560 H 228.773 5.19702 2.9945 0
M  V30 2561 H 230.452 5.7838 2.89974 0
M  V30 2562 N 230.584 -0.659388 1.43143 0
M  V30 2563 C 231.812 -1.44723 1.47861 0
M  V30 2564 C 232.227 -1.88563 0.0945886 0
M  V30 2565 O 231.584 -1.59108 -0.893915 0
M  V30 2566 C 231.635 -2.68627 2.41913 0
M  V30 2567 O 231.356 -2.26623 3.74932 0
M  V30 2568 C 232.857 -3.62045 2.55809 0
M  V30 2569 H 230.077 -0.444801 0.502387 0
M  V30 2570 H 232.621 -0.808916 1.87821 0
M  V30 2571 H 230.776 -3.28613 2.05164 0
M  V30 2572 H 231.19 -3.06745 4.2545 0
M  V30 2573 H 232.664 -4.45666 3.25708 0
M  V30 2574 H 233.141 -4.08981 1.60099 0
M  V30 2575 H 233.747 -3.07944 2.93344 0
M  V30 2576 N 232.062 -1.29571 -0.897171 0
M  V30 2577 C 233.009 -1.14916 -2.00158 0
M  V30 2578 C 233.979 -0.0418149 -1.66047 0
M  V30 2579 O 235.164 -0.209793 -1.89643 0
M  V30 2580 C 232.304 -0.834307 -3.34863 0
M  V30 2581 C 231.417 -2.02234 -3.8174 0
M  V30 2582 C 230.552 -1.64664 -5.05034 0
M  V30 2583 C 229.591 -2.80033 -5.44286 0
M  V30 2584 N 228.728 -2.42843 -6.58765 0
M  V30 2585 H 233.568 -2.09403 -2.12025 0
M  V30 2586 H 231.105 -1.042 -1.0383 0
M  V30 2587 H 233.063 -0.632436 -4.12379 0
M  V30 2588 H 231.693 0.0736656 -3.22716 0
M  V30 2589 H 230.745 -2.33583 -3.00238 0
M  V30 2590 H 232.057 -2.88673 -4.06779 0
M  V30 2591 H 231.211 -1.4078 -5.9014 0
M  V30 2592 H 229.95 -0.753766 -4.8184 0
M  V30 2593 H 228.955 -3.04596 -4.57713 0
M  V30 2594 H 230.18 -3.69989 -5.6946 0
M  V30 2595 H 228.126 -1.56046 -6.3717 0
M  V30 2596 H 228.043 -3.22815 -6.83613 0
M  V30 2597 H 229.311 -2.22285 -7.47134 0
M  V30 2598 N 233.54 1.10788 -1.12088 0
M  V30 2599 C 234.503 2.15207 -0.788577 0
M  V30 2600 C 235.503 1.59609 0.195317 0
M  V30 2601 O 236.693 1.74174 -0.0300193 0
M  V30 2602 C 233.825 3.4047 -0.171174 0
M  V30 2603 H 235.018 2.46116 -1.71368 0
M  V30 2604 H 232.571 1.26089 -0.923652 0
M  V30 2605 H 233.306 3.15176 0.763832 0
M  V30 2606 H 233.091 3.82109 -0.879514 0
M  V30 2607 H 234.581 4.17576 0.04496 0
M  V30 2608 N 235.018 0.912232 1.28515 0
M  V30 2609 C 236.248 0.559604 1.98877 0
M  V30 2610 C 236.656 -0.863113 1.68366 0
M  V30 2611 O 235.999 -1.58304 0.931969 0
M  V30 2612 C 236.061 0.68703 3.52874 0
M  V30 2613 C 235.725 2.07901 4.06972 0
M  V30 2614 C 236.722 3.05157 4.20922 0
M  V30 2615 C 234.407 2.39178 4.417 0
M  V30 2616 C 236.401 4.31806 4.68852 0
M  V30 2617 C 234.088 3.66068 4.89324 0
M  V30 2618 C 235.086 4.62195 5.02856 0
M  V30 2619 O 234.774 5.86829 5.49442 0
M  V30 2620 H 234.506 0.212191 0.641834 0
M  V30 2621 H 237.06 1.22712 1.64715 0
M  V30 2622 H 235.29 -0.0375486 3.86682 0
M  V30 2623 H 236.979 0.341727 4.04459 0
M  V30 2624 H 237.745 2.82311 3.94367 0
M  V30 2625 H 233.624 1.65109 4.30418 0
M  V30 2626 H 237.168 5.06842 4.79329 0
M  V30 2627 H 233.065 3.88739 5.15318 0
M  V30 2628 H 233.833 5.89597 5.6773 0
M  V30 2629 N 236.496 -1.42363 0.676048 0
M  V30 2630 C 237.443 -2.308 -0.00150904 0
M  V30 2631 C 238.413 -1.46032 -0.791444 0
M  V30 2632 O 239.598 -1.74861 -0.76344 0
M  V30 2633 C 236.738 -3.31883 -0.945919 0
M  V30 2634 C 235.851 -4.31741 -0.149675 0
M  V30 2635 C 234.986 -5.19898 -1.08995 0
M  V30 2636 C 234.025 -6.11434 -0.285465 0
M  V30 2637 N 233.162 -6.92138 -1.17851 0
M  V30 2638 H 238.002 -2.88187 0.758455 0
M  V30 2639 H 235.539 -1.41952 0.38576 0
M  V30 2640 H 237.497 -3.89019 -1.50731 0
M  V30 2641 H 236.127 -2.76093 -1.6725 0
M  V30 2642 H 235.179 -3.76713 0.528359 0
M  V30 2643 H 236.491 -4.96534 0.474866 0
M  V30 2644 H 235.645 -5.81772 -1.72123 0
M  V30 2645 H 234.384 -4.55284 -1.74837 0
M  V30 2646 H 233.389 -5.48627 0.359018 0
M  V30 2647 H 234.614 -6.78097 0.368883 0
M  V30 2648 H 232.56 -6.30152 -1.82332 0
M  V30 2649 H 232.477 -7.53542 -0.609082 0
M  V30 2650 H 233.745 -7.58499 -1.79722 0
M  V30 2651 N 237.974 -0.419461 -1.51915 0
M  V30 2652 C 239.202 0.152136 -2.0634 0
M  V30 2653 C 239.617 1.37988 -1.28859 0
M  V30 2654 O 238.974 1.79243 -0.343232 0
M  V30 2655 C 239.025 0.492266 -3.58133 0
M  V30 2656 O 238.746 -0.686736 -4.32684 0
M  V30 2657 C 240.247 1.11648 -4.2901 0
M  V30 2658 H 237.467 0.0158325 -0.670813 0
M  V30 2659 H 240.011 -0.593394 -1.95702 0
M  V30 2660 H 238.166 1.18769 -3.68745 0
M  V30 2661 H 238.58 -0.400341 -5.2297 0
M  V30 2662 H 240.054 1.3046 -5.36362 0
M  V30 2663 H 240.531 2.09251 -3.86148 0
M  V30 2664 H 241.137 0.460958 -4.22795 0
M  V30 2665 N 239.452 1.56882 -0.150215 0
M  V30 2666 C 240.382 2.19935 0.784284 0
M  V30 2667 C 241.363 1.14854 1.25469 0
M  V30 2668 O 242.548 1.43209 1.31168 0
M  V30 2669 C 239.678 2.82349 2.02229 0
M  V30 2670 C 238.632 3.93285 1.68853 0
M  V30 2671 C 237.958 4.42649 2.99944 0
M  V30 2672 C 239.258 5.13904 0.932714 0
M  V30 2673 H 240.952 2.9828 0.258781 0
M  V30 2674 H 238.498 1.43473 0.123029 0
M  V30 2675 H 240.451 3.25126 2.68088 0
M  V30 2676 H 239.175 2.0134 2.57157 0
M  V30 2677 H 237.834 3.5113 1.05371 0
M  V30 2678 H 237.482 3.58458 3.52869 0
M  V30 2679 H 237.182 5.17476 2.78374 0
M  V30 2680 H 238.706 4.88099 3.66868 0
M  V30 2681 H 240.12 5.53506 1.49345 0
M  V30 2682 H 238.517 5.94515 0.81684 0
M  V30 2683 H 239.587 4.84842 -0.0749568 0
M  V30 2684 N 240.93 -0.123565 1.57115 0
M  V30 2685 C 242.155 -0.850398 1.89164 0
M  V30 2686 C 242.58 -1.7286 0.741688 0
M  V30 2687 O 241.938 -1.78665 -0.307958 0
M  V30 2688 C 241.986 -1.66353 3.19936 0
M  V30 2689 O 241.09 -2.77004 3.0552 0
M  V30 2690 H 240.431 -0.235454 0.620852 0
M  V30 2691 H 242.961 -0.107335 2.04318 0
M  V30 2692 H 242.971 -2.05372 3.52543 0
M  V30 2693 H 241.646 -1.01881 4.03228 0
M  V30 2694 H 240.223 -2.41221 2.84371 0
M  V30 2695 N 242.408 -1.52605 -0.393616 0
M  V30 2696 C 243.685 -1.58001 -1.15304 0
M  V30 2697 C 244.065 -0.370385 -2.07825 0
M  V30 2698 O 243.413 0.641638 -2.19306 0
M  V30 2699 C 243.623 -2.91652 -1.91677 0
M  V30 2700 C 244.971 -3.4522 -2.47201 0
M  V30 2701 O 245.995 -2.93495 -2.01839 0
M  V30 2702 O 244.854 -4.35579 -3.3005 0
M  V30 2703 H 241.948 -0.637068 -0.527327 0
M  V30 2704 H 244.494 -1.64939 -0.399141 0
M  V30 2705 H 243.266 -3.71136 -1.23992 0
M  V30 2706 H 242.889 -2.88077 -2.74039 0
M  V30 2707 N 243.887 0.651787 -1.4349 0
M  V30 2708 C 245.112 1.44434 -1.48841 0
M  V30 2709 C 245.537 1.8779 -0.107955 0
M  V30 2710 O 244.895 1.57464 0.898602 0
M  V30 2711 C 244.943 2.65458 -2.44059 0
M  V30 2712 O 244.047 3.64566 -1.92784 0
M  V30 2713 H 243.388 0.433005 -0.503391 0
M  V30 2714 H 245.918 0.797451 -1.88419 0
M  V30 2715 H 245.928 3.13255 -2.6141 0
M  V30 2716 H 244.603 2.33244 -3.4434 0
M  V30 2717 H 243.18 3.23716 -1.851 0
M  V30 2718 N 245.365 1.30045 0.890287 0
M  V30 2719 C 246.781 1.08261 1.17268 0
M  V30 2720 C 246.981 -0.160063 2.00863 0
M  V30 2721 O 246.037 -0.855181 2.37577 0
M  V30 2722 C 247.35 2.34323 1.8845 0
M  V30 2723 C 248.898 2.39735 2.01237 0
M  V30 2724 C 249.373 3.65625 2.7583 0
M  V30 2725 N 250.864 3.66402 2.83379 0
M  V30 2726 C 251.599 4.60498 3.41657 0
M  V30 2727 N 251.095 5.64933 4.01026 0
M  V30 2728 N 252.888 4.48051 3.39421 0
M  V30 2729 H 245.039 2.09777 0.332762 0
M  V30 2730 H 247.302 0.92446 0.209948 0
M  V30 2731 H 247.008 3.2498 1.34465 0
M  V30 2732 H 246.882 2.4256 2.88867 0
M  V30 2733 H 249.269 1.4956 2.54393 0
M  V30 2734 H 249.35 2.35476 0.999232 0
M  V30 2735 H 248.994 4.56156 2.23347 0
M  V30 2736 H 248.924 3.67144 3.77509 0
M  V30 2737 H 251.415 2.90896 2.41222 0
M  V30 2738 H 251.728 6.32841 4.43545 0
M  V30 2739 H 250.073 5.68732 3.99461 0
M  V30 2740 H 253.264 3.65649 2.92264 0
M  V30 2741 H 253.437 5.21565 3.84544 0
M  V30 2742 N 246.843 -1.10192 1.12674 0
M  V30 2743 C 247.773 -2.18652 0.819362 0
M  V30 2744 C 248.754 -1.68698 -0.217915 0
M  V30 2745 O 249.939 -1.94041 -0.0785581 0
M  V30 2746 C 247.069 -3.46202 0.27594 0
M  V30 2747 C 246.023 -4.09444 1.24656 0
M  V30 2748 C 245.349 -5.31725 0.563258 0
M  V30 2749 C 246.649 -4.52863 2.60217 0
M  V30 2750 H 248.343 -2.44622 1.72628 0
M  V30 2751 H 245.889 -1.17571 0.831451 0
M  V30 2752 H 247.842 -4.21372 0.0486149 0
M  V30 2753 H 246.566 -3.1973 -0.666331 0
M  V30 2754 H 245.225 -3.36284 1.45974 0
M  V30 2755 H 244.873 -5.0153 -0.384235 0
M  V30 2756 H 244.573 -5.74991 1.21075 0
M  V30 2757 H 246.097 -6.09624 0.34503 0
M  V30 2758 H 247.511 -5.19294 2.42913 0
M  V30 2759 H 245.908 -5.06986 3.21068 0
M  V30 2760 H 246.978 -3.65656 3.18471 0
M  V30 2761 N 248.321 -0.919034 -1.28029 0
M  V30 2762 C 249.268 -0.410005 -2.27129 0
M  V30 2763 C 250.238 0.518405 -1.57803 0
M  V30 2764 O 251.423 0.439451 -1.8567 0
M  V30 2765 C 248.563 0.339054 -3.4343 0
M  V30 2766 C 247.676 -0.622468 -4.27492 0
M  V30 2767 C 246.811 0.145567 -5.31001 0
M  V30 2768 C 245.85 -0.809226 -6.06727 0
M  V30 2769 N 244.987 -0.0743728 -7.02061 0
M  V30 2770 H 249.827 -1.26011 -2.70047 0
M  V30 2771 H 247.364 -0.632663 -1.328 0
M  V30 2772 H 249.322 0.789586 -4.0966 0
M  V30 2773 H 247.952 1.15346 -3.01488 0
M  V30 2774 H 247.004 -1.19153 -3.61257 0
M  V30 2775 H 248.316 -1.35252 -4.80113 0
M  V30 2776 H 247.47 0.656417 -6.03139 0
M  V30 2777 H 246.209 0.908643 -4.79161 0
M  V30 2778 H 245.214 -1.3314 -5.33436 0
M  V30 2779 H 246.439 -1.57194 -6.60656 0
M  V30 2780 H 244.385 0.670616 -6.52563 0
M  V30 2781 H 244.302 -0.744157 -7.52329 0
M  V30 2782 H 245.57 0.416109 -7.78389 0
M  V30 2783 N 249.799 1.42003 -0.683588 0
M  V30 2784 C 250.746 2.30798 -0.0107309 0
M  V30 2785 C 251.716 1.4645 0.783688 0
M  V30 2786 O 252.901 1.75263 0.754156 0
M  V30 2787 C 250.041 3.3238 0.928306 0
M  V30 2788 C 249.154 4.31814 0.126776 0
M  V30 2789 C 248.289 5.20468 1.06236 0
M  V30 2790 C 247.328 6.11577 0.253035 0
M  V30 2791 N 246.465 6.92754 1.14179 0
M  V30 2792 H 251.305 2.8778 -0.773727 0
M  V30 2793 H 248.842 1.41745 -0.393283 0
M  V30 2794 H 250.8 3.89813 1.48666 0
M  V30 2795 H 249.43 2.76976 1.65783 0
M  V30 2796 H 248.482 3.76427 -0.54833 0
M  V30 2797 H 249.794 4.96276 -0.501192 0
M  V30 2798 H 248.948 5.82677 1.69035 0
M  V30 2799 H 247.687 4.56204 1.7242 0
M  V30 2800 H 246.692 5.48428 -0.388108 0
M  V30 2801 H 247.917 6.77892 -0.404839 0
M  V30 2802 H 245.863 6.3111 1.78987 0
M  V30 2803 H 245.78 7.53855 0.569111 0
M  V30 2804 H 247.048 7.59441 1.75697 0
M  V30 2805 N 251.277 0.427512 1.51691 0
M  V30 2806 C 252.24 -0.377132 2.26076 0
M  V30 2807 C 253.24 -0.958089 1.29141 0
M  V30 2808 O 254.43 -0.83408 1.52934 0
M  V30 2809 C 251.562 -1.53262 3.04506 0
M  V30 2810 H 252.755 0.27464 2.9864 0
M  V30 2811 H 250.308 0.180445 1.55255 0
M  V30 2812 H 251.043 -2.22072 2.36335 0
M  V30 2813 H 250.828 -1.12232 3.75694 0
M  V30 2814 H 252.318 -2.10135 3.60878 0
M  V30 2815 N 252.755 -1.56801 0.158532 0
M  V30 2816 C 253.985 -2.00568 -0.495583 0
M  V30 2817 C 254.393 -1.03774 -1.58201 0
M  V30 2818 O 253.736 -0.0285797 -1.83678 0
M  V30 2819 C 253.798 -3.40768 -1.14532 0
M  V30 2820 C 253.462 -4.56553 -0.202101 0
M  V30 2821 C 254.459 -5.16714 0.574675 0
M  V30 2822 C 252.144 -5.02197 -0.101648 0
M  V30 2823 C 254.138 -6.20939 1.43924 0
M  V30 2824 C 251.825 -6.06274 0.766508 0
M  V30 2825 C 252.823 -6.65515 1.53555 0
M  V30 2826 O 252.511 -7.67575 2.38922 0
M  V30 2827 H 252.243 -0.662893 -0.13247 0
M  V30 2828 H 254.797 -2.03829 0.253559 0
M  V30 2829 H 253.027 -3.34381 -1.94233 0
M  V30 2830 H 254.716 -3.6857 -1.70033 0
M  V30 2831 H 255.482 -4.82341 0.507167 0
M  V30 2832 H 251.361 -4.55807 -0.689994 0
M  V30 2833 H 254.905 -6.67107 2.03996 0
M  V30 2834 H 250.802 -6.40073 0.835266 0
M  V30 2835 H 251.57 -7.84844 2.32296 0
M  V30 2836 N 254.233 0.115231 -1.57178 0
M  V30 2837 C 255.51 0.852873 -1.76027 0
M  V30 2838 C 255.89 1.97892 -0.73498 0
M  V30 2839 O 255.238 2.27232 0.24036 0
M  V30 2840 C 255.448 1.36608 -3.21153 0
M  V30 2841 C 256.796 1.81692 -3.83762 0
M  V30 2842 O 257.82 1.46278 -3.24779 0
M  V30 2843 O 256.679 2.47104 -4.87444 0
M  V30 2844 H 253.773 0.405296 -0.720877 0
M  V30 2845 H 256.319 0.0986785 -1.69413 0
M  V30 2846 H 255.091 0.558357 -3.87296 0
M  V30 2847 H 254.714 2.18287 -3.3232 0
M  V30 2848 N 255.711 1.52812 0.385517 0
M  V30 2849 C 256.659 1.78482 1.49155 0
M  V30 2850 C 257.653 0.652914 1.56312 0
M  V30 2851 O 258.859 0.835464 1.59436 0
M  V30 2852 H 255.234 0.5648 0.496493 0
M  V30 2853 H 257.205 2.71095 1.24699 0
M  V30 2854 C 255.954 1.97378 2.86247 0
M  V30 2855 H 255.277 2.83907 2.81491 0
M  V30 2856 H 256.717 2.19327 3.62866 0
M  V30 2857 C 255.176 0.74728 3.28508 0
M  V30 2858 O 255.706 -0.0736232 4.01633 0
M  V30 2859 N 253.912 0.576396 2.84826 0
M  V30 2860 H 253.459 1.24555 2.25486 0
M  V30 2861 H 253.417 -0.24288 3.1346 0
M  V30 2862 N 257.189 -0.644168 1.43834 0
M  V30 2863 C 258.414 -1.43642 1.49605 0
M  V30 2864 C 258.839 -1.8773 0.117913 0
M  V30 2865 O 258.197 -1.57938 -0.890239 0
M  V30 2866 C 258.245 -2.6416 2.45463 0
M  V30 2867 O 257.349 -3.63538 1.94714 0
M  V30 2868 H 256.69 -0.430329 0.50568 0
M  V30 2869 H 259.22 -0.787448 1.8884 0
M  V30 2870 H 259.23 -3.11864 2.63068 0
M  V30 2871 H 257.905 -2.31414 3.45572 0
M  V30 2872 H 256.482 -3.2273 1.86814 0
M  V30 2873 N 258.668 -1.30515 -0.883378 0
M  V30 2874 C 259.615 -1.17032 -1.98927 0
M  V30 2875 C 260.585 -0.0594241 -1.65994 0
M  V30 2876 O 261.77 -0.229895 -1.8941 0
M  V30 2877 C 258.91 -0.869777 -3.33959 0
M  V30 2878 C 258.023 -2.06271 -3.79574 0
M  V30 2879 C 257.158 -1.70011 -5.03259 0
M  V30 2880 C 256.197 -2.8579 -5.41286 0
M  V30 2881 N 255.334 -2.49816 -6.56153 0
M  V30 2882 H 260.174 -2.1164 -2.09792 0
M  V30 2883 H 257.711 -1.05296 -1.02719 0
M  V30 2884 H 259.669 -0.676138 -4.11685 0
M  V30 2885 H 258.299 0.0394332 -3.22776 0
M  V30 2886 H 257.351 -2.36755 -2.97744 0
M  V30 2887 H 258.663 -2.92971 -4.03694 0
M  V30 2888 H 257.817 -1.47032 -5.88614 0
M  V30 2889 H 256.556 -0.804829 -4.81013 0
M  V30 2890 H 255.561 -3.09434 -4.54456 0
M  V30 2891 H 256.786 -3.76008 -5.65504 0
M  V30 2892 H 254.732 -1.62795 -6.35479 0
M  V30 2893 H 254.649 -3.30048 -6.8015 0
M  V30 2894 H 255.917 -2.30197 -7.44735 0
M  V30 2895 N 260.146 1.09593 -1.13257 0
M  V30 2896 C 261.394 1.81375 -0.891492 0
M  V30 2897 C 261.715 1.86049 0.584009 0
M  V30 2898 O 260.985 1.34481 1.42449 0
M  V30 2899 H 259.565 0.671708 -0.326828 0
M  V30 2900 H 262.227 1.3256 -1.42877 0
M  V30 2901 H 261.323 2.84612 -1.28071 0
M  V30 2902 N 261.624 0.925811 1.2754 0
M  V30 2903 C 262.571 0.422045 2.26908 0
M  V30 2904 C 263.541 -0.510029 1.58076 0
M  V30 2905 O 264.726 -0.429599 1.85901 0
M  V30 2906 C 261.866 -0.320837 3.43605 0
M  V30 2907 C 260.979 0.64513 4.27156 0
M  V30 2908 C 260.114 -0.117405 5.3107 0
M  V30 2909 C 259.153 0.841391 6.0629 0
M  V30 2910 N 258.29 0.111604 7.02011 0
M  V30 2911 H 263.13 1.27441 2.69375 0
M  V30 2912 H 260.667 0.639697 1.32462 0
M  V30 2913 H 262.625 -0.76785 4.10073 0
M  V30 2914 H 261.255 -1.13745 3.02096 0
M  V30 2915 H 260.307 1.21067 3.6062 0
M  V30 2916 H 261.619 1.37797 4.79389 0
M  V30 2917 H 260.773 -0.624422 6.03478 0
M  V30 2918 H 259.512 -0.883219 4.79636 0
M  V30 2919 H 258.517 1.35967 5.32722 0
M  V30 2920 H 259.742 1.60696 6.59813 0
M  V30 2921 H 257.688 -0.635999 6.5291 0
M  V30 2922 H 257.605 0.784044 7.51923 0
M  V30 2923 H 258.873 -0.374823 7.78598 0
M  V30 2924 N 263.102 -1.41638 0.69111 0
M  V30 2925 C 264.348 -2.01598 0.220519 0
M  V30 2926 C 264.681 -1.54594 -1.17535 0
M  V30 2927 O 263.956 -0.755177 -1.79241 0
M  V30 2928 C 264.239 -3.59062 0.273243 0
M  V30 2929 C 264.092 -4.16203 1.70573 0
M  V30 2930 C 265.411 -4.38546 -0.369457 0
M  V30 2931 H 262.53 -0.732468 0.0816045 0
M  V30 2932 H 265.172 -1.68445 0.878986 0
M  V30 2933 H 263.322 -3.87435 -0.287411 0
M  V30 2934 H 264.994 -3.98722 2.31989 0
M  V30 2935 H 263.237 -3.71414 2.2413 0
M  V30 2936 H 263.908 -5.25358 1.69419 0
M  V30 2937 H 266.384 -4.1596 0.107977 0
M  V30 2938 H 265.26 -5.48069 -0.302002 0
M  V30 2939 H 265.521 -4.17662 -1.44951 0
M  V30 2940 N 264.58 -0.43555 -1.51462 0
M  V30 2941 C 265.51 0.367376 -2.30592 0
M  V30 2942 C 266.491 1.02263 -1.35928 0
M  V30 2943 O 267.676 1.02661 -1.64847 0
M  V30 2944 C 264.806 1.46983 -3.14664 0
M  V30 2945 C 263.76 0.938161 -4.17591 0
M  V30 2946 C 263.086 2.13622 -4.90173 0
M  V30 2947 C 264.386 -0.0261621 -5.22293 0
M  V30 2948 H 266.08 -0.292969 -2.97963 0
M  V30 2949 H 263.626 -0.14234 -1.43295 0
M  V30 2950 H 265.579 2.03873 -3.688 0
M  V30 2951 H 264.303 2.15843 -2.4511 0
M  V30 2952 H 262.962 0.391481 -3.64504 0
M  V30 2953 H 262.61 2.81098 -4.17124 0
M  V30 2954 H 262.31 1.78688 -5.59772 0
M  V30 2955 H 263.834 2.7107 -5.47132 0
M  V30 2956 H 265.248 0.452384 -5.71512 0
M  V30 2957 H 263.645 -0.287992 -5.99409 0
M  V30 2958 H 264.715 -0.963391 -4.75233 0
M  V30 2959 N 266.058 1.56714 -0.166846 0
M  V30 2960 C 267.005 2.17746 0.765193 0
M  V30 2961 C 267.975 1.11614 1.23011 0
M  V30 2962 O 269.16 1.39745 1.29908 0
M  V30 2963 C 266.3 2.81882 1.9909 0
M  V30 2964 C 265.413 4.02462 1.56997 0
M  V30 2965 C 264.548 4.54537 2.749 0
M  V30 2966 C 263.587 5.67538 2.29275 0
M  V30 2967 N 262.724 6.14142 3.40255 0
M  V30 2968 H 267.564 2.97048 0.237952 0
M  V30 2969 H 265.101 1.4672 0.105725 0
M  V30 2970 H 267.059 3.17221 2.70974 0
M  V30 2971 H 265.689 2.05191 2.49192 0
M  V30 2972 H 264.741 3.72973 0.748037 0
M  V30 2973 H 266.053 4.84273 1.19503 0
M  V30 2974 H 265.207 4.92035 3.54946 0
M  V30 2975 H 263.946 3.71774 3.1565 0
M  V30 2976 H 262.951 5.29597 1.47674 0
M  V30 2977 H 264.176 6.52099 1.89588 0
M  V30 2978 H 262.122 5.3431 3.8059 0
M  V30 2979 H 262.039 6.9093 3.06841 0
M  V30 2980 H 263.307 6.56289 4.206 0
M  V30 2981 N 267.536 -0.106894 1.57237 0
M  V30 2982 C 268.466 -1.13148 2.04254 0
M  V30 2983 C 269.447 -1.42476 0.929224 0
M  V30 2984 O 270.632 -1.52709 1.19973 0
M  V30 2985 C 267.762 -2.4545 2.45706 0
M  V30 2986 C 266.716 -2.30558 3.60592 0
M  V30 2987 C 266.042 -3.67931 3.87983 0
M  V30 2988 C 267.342 -1.75597 4.91897 0
M  V30 2989 H 269.036 -0.740374 2.90101 0
M  V30 2990 H 266.582 -0.354696 1.39563 0
M  V30 2991 H 268.535 -3.17389 2.77205 0
M  V30 2992 H 267.259 -2.86475 1.56843 0
M  V30 2993 H 265.918 -1.61067 3.29322 0
M  V30 2994 H 265.566 -4.06462 2.96306 0
M  V30 2995 H 265.266 -3.58817 4.65322 0
M  V30 2996 H 266.79 -4.41356 4.21945 0
M  V30 2997 H 268.204 -2.37364 5.21854 0
M  V30 2998 H 266.601 -1.77272 5.73319 0
M  V30 2999 H 267.671 -0.714451 4.79608 0
M  V30 3000 N 269.014 -1.53014 -0.377408 0
M  V30 3001 C 270.263 -1.67845 -1.11853 0
M  V30 3002 C 270.576 -0.430625 -1.90801 0
M  V30 3003 O 271.782 -0.459261 -2.67587 0
M  V30 3004 C 270.238 -2.96668 -2.03756 0
M  V30 3005 C 269.846 -4.28671 -1.30175 0
M  V30 3006 C 271.59 -3.20865 -2.77932 0
M  V30 3007 C 269.497 -5.48591 -2.20911 0
M  V30 3008 H 268.427 -0.625343 -0.421263 0
M  V30 3009 H 271.078 -1.79514 -0.380409 0
M  V30 3010 H 269.46 -2.78773 -2.8125 0
M  V30 3011 H 270.634 -4.57157 -0.578259 0
M  V30 3012 H 268.949 -4.10825 -0.679108 0
M  V30 3013 H 271.546 -4.07642 -3.46024 0
M  V30 3014 H 271.889 -2.36424 -3.4265 0
M  V30 3015 H 272.422 -3.39379 -2.07525 0
M  V30 3016 H 269.161 -6.35474 -1.6079 0
M  V30 3017 H 268.681 -5.244 -2.91144 0
M  V30 3018 H 270.36 -5.8292 -2.80736 0
M  V30 3019 N 270.492 0.636531 -1.44174 0
M  V30 3020 C 271.402 1.77754 -1.53103 0
M  V30 3021 C 272.418 1.68928 -0.417034 0
M  V30 3022 O 273.594 1.89801 -0.6736 0
M  V30 3023 C 270.659 3.14115 -1.46741 0
M  V30 3024 C 269.72 3.34612 -2.68948 0
M  V30 3025 C 268.953 4.64467 -2.6288 0
M  V30 3026 O 269.176 5.44919 -1.68581 0
M  V30 3027 O 268.11 4.87049 -3.53648 0
M  V30 3028 H 271.936 1.73174 -2.49489 0
M  V30 3029 H 269.521 0.79709 -1.2636 0
M  V30 3030 H 271.403 3.95412 -1.45696 0
M  V30 3031 H 270.078 3.19249 -0.534975 0
M  V30 3032 H 268.985 2.53014 -2.75562 0
M  V30 3033 H 270.318 3.34336 -3.61221 0
M  V30 3034 N 271.97 1.30982 0.876444 0
M  V30 3035 C 273.195 1.23373 1.66715 0
M  V30 3036 C 273.62 -0.19885 1.87046 0
M  V30 3037 O 272.978 -1.1427 1.40756 0
M  V30 3038 C 273.026 1.97644 3.01611 0
M  V30 3039 O 272.13 1.30935 3.91062 0
M  V30 3040 H 271.471 0.426279 0.509099 0
M  V30 3041 H 274.001 1.72944 1.09323 0
M  V30 3042 H 274.011 2.06992 3.51594 0
M  V30 3043 H 272.686 3.01829 2.86133 0
M  V30 3044 H 271.263 1.29996 3.49507 0
M  V30 3045 N 273.449 -1.08991 1.13837 0
M  V30 3046 C 274.397 -2.17841 0.815347 0
M  V30 3047 C 275.391 -1.68164 -0.204233 0
M  V30 3048 O 276.597 -1.79897 -0.0609304 0
M  V30 3049 H 272.972 -0.710654 0.245915 0
M  V30 3050 H 274.943 -2.42315 1.74143 0
M  V30 3051 C 273.692 -3.46381 0.302614 0
M  V30 3052 H 273.015 -3.84979 1.0785 0
M  V30 3053 H 274.455 -4.23844 0.115074 0
M  V30 3054 C 272.914 -3.22556 -0.972591 0
M  V30 3055 O 273.444 -3.45599 -2.04754 0
M  V30 3056 N 271.65 -2.76134 -0.905455 0
M  V30 3057 H 271.197 -2.57582 -0.0305421 0
M  V30 3058 H 271.155 -2.60571 -1.75926 0
M  V30 3059 N 274.927 -0.932562 -1.27047 0
M  V30 3060 C 276.152 -0.591474 -1.98787 0
M  V30 3061 C 276.577 0.824601 -1.69062 0
M  V30 3062 O 275.935 1.5541 -0.933677 0
M  V30 3063 C 275.983 -0.829808 -3.50922 0
M  V30 3064 O 275.087 0.102266 -4.12273 0
M  V30 3065 H 274.428 -0.227185 -0.623926 0
M  V30 3066 H 276.958 -1.25314 -1.61733 0
M  V30 3067 H 276.968 -0.747292 -4.01098 0
M  V30 3068 H 275.643 -1.86201 -3.7189 0
M  V30 3069 H 274.22 -0.0305761 -3.72887 0
M  V30 3070 N 276.405 1.4127 -0.698611 0
M  V30 3071 C 277.654 2.00408 -0.227949 0
M  V30 3072 C 277.967 1.55981 1.18023 0
M  V30 3073 O 279.173 2.07699 1.74852 0
M  V30 3074 C 277.629 3.58129 -0.356636 0
M  V30 3075 C 277.237 4.11536 -1.77037 0
M  V30 3076 C 278.981 4.24466 0.0540969 0
M  V30 3077 C 276.888 5.61701 -1.85055 0
M  V30 3078 H 275.818 0.749586 -0.0814657 0
M  V30 3079 H 278.469 1.61713 -0.867249 0
M  V30 3080 H 276.851 3.94442 0.350965 0
M  V30 3081 H 278.025 3.86636 -2.50698 0
M  V30 3082 H 276.34 3.57736 -2.13105 0
M  V30 3083 H 278.937 5.34698 0.0146723 0
M  V30 3084 H 279.28 4.01687 1.09332 0
M  V30 3085 H 279.813 3.93198 -0.603337 0
M  V30 3086 H 276.552 5.89312 -2.8704 0
M  V30 3087 H 276.072 5.88519 -1.15783 0
M  V30 3088 H 277.751 6.26524 -1.61484 0
M  V30 3089 N 277.883 0.443576 1.51229 0
M  V30 3090 C 278.831 -0.37904 2.29491 0
M  V30 3091 C 279.825 -1.0153 1.35603 0
M  V30 3092 O 281.031 -0.94955 1.52917 0
M  V30 3093 H 277.406 -0.141053 0.738653 0
M  V30 3094 H 279.377 0.301799 2.9687 0
M  V30 3095 C 278.126 -1.46426 3.15364 0
M  V30 3096 H 277.449 -0.984037 3.87501 0
M  V30 3097 H 278.889 -2.01297 3.7317 0
M  V30 3098 C 277.348 -2.45099 2.31146 0
M  V30 3099 O 277.878 -3.49773 1.9754 0
M  V30 3100 N 276.084 -2.16139 1.94249 0
M  V30 3101 H 275.631 -1.31044 2.21777 0
M  V30 3102 H 275.589 -2.82398 1.38198 0
M  V30 3103 N 279.361 -1.56624 0.175154 0
M  V30 3104 C 280.291 -2.21155 -0.749195 0
M  V30 3105 C 281.272 -1.16836 -1.23626 0
M  V30 3106 O 282.457 -1.45277 -1.28873 0
M  V30 3107 C 279.587 -2.8553 -1.97711 0
M  V30 3108 C 278.541 -3.95921 -1.62575 0
M  V30 3109 C 277.867 -4.47365 -2.92864 0
M  V30 3110 C 279.167 -5.15323 -0.850838 0
M  V30 3111 H 280.861 -2.98653 -0.211295 0
M  V30 3112 H 278.407 -1.43651 -0.100188 0
M  V30 3113 H 280.36 -3.2935 -2.62881 0
M  V30 3114 H 279.084 -2.05406 -2.53921 0
M  V30 3115 H 277.743 -3.52762 -0.997719 0
M  V30 3116 H 277.391 -3.64027 -3.47122 0
M  V30 3117 H 277.091 -5.21839 -2.70106 0
M  V30 3118 H 278.615 -4.93873 -3.59056 0
M  V30 3119 H 280.029 -5.55812 -1.40521 0
M  V30 3120 H 278.426 -5.95739 -0.722154 0
M  V30 3121 H 279.496 -4.84661 0.152082 0
M  V30 3122 N 280.839 0.0985539 -1.57292 0
M  V30 3123 C 281.787 1.1387 -2.02821 0
M  V30 3124 C 282.781 1.41676 -0.928666 0
M  V30 3125 O 283.987 1.41398 -1.11385 0
M  V30 3126 H 280.362 0.384419 -0.646317 0
M  V30 3127 H 282.333 0.728347 -2.89375 0
M  V30 3128 C 281.082 2.45166 -2.46554 0
M  V30 3129 H 280.405 2.24613 -3.3074 0
M  V30 3130 H 281.845 3.16456 -2.8219 0
M  V30 3131 C 280.304 3.09216 -1.33742 0
M  V30 3132 O 280.834 3.96163 -0.66464 0
M  V30 3133 N 279.04 2.69413 -1.08928 0
M  V30 3134 H 278.587 1.98801 -1.63817 0
M  V30 3135 H 278.545 3.12594 -0.336458 0
M  V30 3136 N 282.317 1.53212 0.369288 0
M  V30 3137 C 283.25 1.74166 1.4745 0
M  V30 3138 C 284.228 0.589923 1.51521 0
M  V30 3139 O 285.412 0.822078 1.69629 0
M  V30 3140 C 282.539 1.81711 2.8583 0
M  V30 3141 C 281.585 3.03649 2.99499 0
M  V30 3142 S 282.418 4.63242 2.6864 0
M  V30 3143 C 283.574 4.7363 4.09177 0
M  V30 3144 H 283.807 2.67636 1.29454 0
M  V30 3145 H 281.34 1.43754 0.563396 0
M  V30 3146 H 283.298 1.86743 3.65564 0
M  V30 3147 H 281.959 0.89299 3.01139 0
M  V30 3148 H 281.152 3.05526 4.00836 0
M  V30 3149 H 280.754 2.9671 2.27683 0
M  V30 3150 H 283.046 4.53456 5.03372 0
M  V30 3151 H 283.989 5.75682 4.12306 0
M  V30 3152 H 284.397 4.02295 3.96004 0
M  V30 3153 N 283.795 -0.628877 1.44509 0
M  V30 3154 C 284.742 -1.74074 1.51549 0
M  V30 3155 C 285.712 -1.62084 0.363021 0
M  V30 3156 O 286.897 -1.81975 0.573567 0
M  V30 3157 C 284.037 -3.12328 1.46784 0
M  V30 3158 C 283.15 -3.35277 2.72422 0
M  V30 3159 C 282.285 -4.63515 2.59475 0
M  V30 3160 C 281.324 -4.7965 3.80266 0
M  V30 3161 N 280.461 -5.99168 3.65981 0
M  V30 3162 H 285.301 -1.67392 2.46544 0
M  V30 3163 H 282.838 -0.816527 1.22357 0
M  V30 3164 H 284.796 -3.92286 1.42012 0
M  V30 3165 H 283.426 -3.18018 0.553544 0
M  V30 3166 H 282.478 -2.49242 2.87372 0
M  V30 3167 H 283.79 -3.43078 3.62076 0
M  V30 3168 H 282.944 -5.51638 2.52548 0
M  V30 3169 H 281.683 -4.58076 1.67384 0
M  V30 3170 H 280.688 -3.89957 3.87574 0
M  V30 3171 H 281.913 -4.86902 4.73395 0
M  V30 3172 H 279.859 -5.94814 2.76644 0
M  V30 3173 H 279.776 -6.08035 4.49254 0
M  V30 3174 H 281.044 -6.89846 3.6295 0
M  V30 3175 N 285.273 -1.31445 -0.869486 0
M  V30 3176 C 286.221 -1.19067 -1.99814 0
M  V30 3177 C 287.215 -0.0988569 -1.69111 0
M  V30 3178 O 288.421 -0.260781 -1.78101 0
M  V30 3179 H 284.796 -0.368677 -0.655425 0
M  V30 3180 H 286.767 -2.14555 -2.07385 0
M  V30 3181 C 285.516 -0.915323 -3.35436 0
M  V30 3182 H 284.839 -1.74759 -3.59582 0
M  V30 3183 H 286.279 -0.868895 -4.15001 0
M  V30 3184 C 284.738 0.381928 -3.34728 0
M  V30 3185 O 285.268 1.39857 -3.76567 0
M  V30 3186 N 283.474 0.398633 -2.87853 0
M  V30 3187 H 283.021 -0.429186 -2.54 0
M  V30 3188 H 282.979 1.26651 -2.87762 0
M  V30 3189 N 286.751 1.08385 -1.14413 0
M  V30 3190 C 287.981 1.8425 -0.934644 0
M  V30 3191 C 288.389 1.81907 0.520234 0
M  V30 3192 O 287.732 1.22126 1.37226 0
M  V30 3193 C 287.794 3.32853 -1.35828 0
M  V30 3194 C 287.458 3.5893 -2.82875 0
M  V30 3195 C 288.455 3.53756 -3.80989 0
M  V30 3196 C 286.14 3.86934 -3.20293 0
M  V30 3197 C 288.134 3.76216 -5.14529 0
M  V30 3198 C 285.821 4.09047 -4.54008 0
M  V30 3199 C 286.819 4.03682 -5.50936 0
M  V30 3200 O 286.507 4.25214 -6.82238 0
M  V30 3201 H 286.239 0.588502 -0.332628 0
M  V30 3202 H 288.793 1.37792 -1.52324 0
M  V30 3203 H 287.023 3.8007 -0.713019 0
M  V30 3204 H 288.712 3.90154 -1.11957 0
M  V30 3205 H 289.478 3.32135 -3.53428 0
M  V30 3206 H 285.357 3.9023 -2.45442 0
M  V30 3207 H 288.901 3.71943 -5.90173 0
M  V30 3208 H 284.798 4.30151 -4.8129 0
M  V30 3209 H 285.566 4.42619 -6.88499 0
M  V30 3210 N 288.23 0.939286 1.26551 0
M  V30 3211 C 289.476 0.586715 1.94128 0
M  V30 3212 C 289.809 -0.8717 1.73537 0
M  V30 3213 O 289.084 -1.62339 1.07127 0
M  V30 3214 C 289.367 0.927497 3.4795 0
M  V30 3215 C 289.22 2.44052 3.77834 0
M  V30 3216 C 290.539 0.441569 4.37879 0
M  V30 3217 H 287.658 0.21463 0.705055 0
M  V30 3218 H 290.3 1.17316 1.49455 0
M  V30 3219 H 288.45 0.428431 3.8613 0
M  V30 3220 H 290.122 3.01216 3.4938 0
M  V30 3221 H 288.365 2.8848 3.23978 0
M  V30 3222 H 289.036 2.62947 4.85348 0
M  V30 3223 H 291.512 0.869448 4.06915 0
M  V30 3224 H 290.388 0.708856 5.44304 0
M  V30 3225 H 290.649 -0.658467 4.37169 0
M  V30 3226 N 289.708 -1.40897 0.706093 0
M  V30 3227 C 290.985 -1.94868 0.169099 0
M  V30 3228 C 291.365 -1.64485 -1.32318 0
M  V30 3229 O 290.713 -0.95744 -2.07474 0
M  V30 3230 C 290.923 -3.45798 0.471654 0
M  V30 3231 C 292.271 -4.22663 0.405127 0
M  V30 3232 O 293.295 -3.53865 0.407168 0
M  V30 3233 O 292.154 -5.45216 0.374383 0
M  V30 3234 H 289.248 -0.82673 0.0211352 0
M  V30 3235 H 291.794 -1.50558 0.782976 0
M  V30 3236 H 290.566 -3.61235 1.50416 0
M  V30 3237 H 290.189 -3.97225 -0.172666 0
M  V30 3238 N 291.186 -0.45159 -1.50991 0
M  V30 3239 C 292.116 0.342898 -2.30969 0
M  V30 3240 C 293.097 1.00815 -1.37005 0
M  V30 3241 O 294.282 1.00907 -1.65926 0
M  V30 3242 C 291.412 1.43637 -3.16205 0
M  V30 3243 C 290.366 0.893818 -4.18563 0
M  V30 3244 C 289.692 2.08411 -4.92411 0
M  V30 3245 C 290.992 -0.0815568 -5.22236 0
M  V30 3246 H 292.686 -0.324556 -2.97636 0
M  V30 3247 H 290.232 -0.157531 -1.43136 0
M  V30 3248 H 292.185 1.9995 -3.70942 0
M  V30 3249 H 290.909 2.13232 -2.47386 0
M  V30 3250 H 289.568 0.352798 -3.64898 0
M  V30 3251 H 289.216 2.76658 -4.20082 0
M  V30 3252 H 288.916 1.72741 -5.61636 0
M  V30 3253 H 290.44 2.65251 -5.49976 0
M  V30 3254 H 291.854 0.391742 -5.7196 0
M  V30 3255 H 290.251 -0.351551 -5.99069 0
M  V30 3256 H 291.321 -1.01374 -4.74185 0
M  V30 3257 N 292.664 1.56529 -0.183458 0
M  V30 3258 C 293.91 1.97537 0.459036 0
M  V30 3259 C 294.243 1.06989 1.62071 0
M  V30 3260 O 293.518 0.11948 1.94133 0
M  V30 3261 C 293.801 3.47874 0.930368 0
M  V30 3262 C 293.654 4.492 -0.232317 0
M  V30 3263 C 294.973 4.01612 1.79989 0
M  V30 3264 H 292.092 0.718204 0.165383 0
M  V30 3265 H 294.734 1.88042 -0.272038 0
M  V30 3266 H 292.884 3.56095 1.55333 0
M  V30 3267 H 294.556 4.53027 -0.86972 0
M  V30 3268 H 292.799 4.24657 -0.885928 0
M  V30 3269 H 293.47 5.51823 0.139796 0
M  V30 3270 H 295.946 3.96097 1.27461 0
M  V30 3271 H 294.822 5.07195 2.09867 0
M  V30 3272 H 295.083 3.46163 2.74998 0
M  V30 3273 N 294.142 -0.090211 1.57342 0
M  V30 3274 C 295.052 -1.12735 2.05738 0
M  V30 3275 C 296.068 -1.43557 0.983231 0
M  V30 3276 O 297.244 -1.54101 1.29672 0
M  V30 3277 C 294.309 -2.42659 2.47624 0
M  V30 3278 C 293.37 -2.18975 3.69254 0
M  V30 3279 C 292.603 -3.42704 4.09133 0
M  V30 3280 O 292.826 -4.51127 3.49057 0
M  V30 3281 O 291.76 -3.32003 5.02053 0
M  V30 3282 H 295.586 -0.746279 2.94388 0
M  V30 3283 H 293.171 -0.303064 1.46294 0
M  V30 3284 H 295.053 -3.19155 2.7517 0
M  V30 3285 H 293.728 -2.80182 1.62109 0
M  V30 3286 H 292.635 -1.40244 3.46818 0
M  V30 3287 H 293.968 -1.86342 4.55563 0
M  V30 3288 N 295.62 -1.53406 -0.361157 0
M  V30 3289 C 296.568 -1.80832 -1.46296 0
M  V30 3290 C 297.562 -0.677699 -1.55253 0
M  V30 3291 O 298.768 -0.860723 -1.58087 0
M  V30 3292 H 295.143 -0.572627 -0.487445 0
M  V30 3293 H 297.114 -2.73045 -1.20371 0
M  V30 3294 C 295.863 -2.01907 -2.8307 0
M  V30 3295 H 295.186 -2.88349 -2.76938 0
M  V30 3296 H 296.626 -2.25072 -3.59331 0
M  V30 3297 C 295.085 -0.799449 -3.27277 0
M  V30 3298 O 295.615 0.00971761 -4.01699 0
M  V30 3299 N 293.821 -0.621637 -2.83873 0
M  V30 3300 H 293.368 -1.28126 -2.23476 0
M  V30 3301 H 293.326 0.19298 -3.13807 0
M  V30 3302 N 297.098 0.621204 -1.44841 0
M  V30 3303 C 298.323 1.41244 -1.51871 0
M  V30 3304 C 298.748 1.87519 -0.147764 0
M  V30 3305 O 298.106 1.59334 0.865 0
M  V30 3306 C 298.154 2.60221 -2.49634 0
M  V30 3307 O 297.258 3.60395 -2.00473 0
M  V30 3308 H 296.599 0.42223 -0.512463 0
M  V30 3309 H 299.129 0.757305 -1.90069 0
M  V30 3310 H 299.139 3.0764 -2.67996 0
M  V30 3311 H 297.814 2.25887 -3.4921 0
M  V30 3312 H 296.391 3.19717 -1.91925 0
M  V30 3313 N 298.576 1.31904 0.862503 0
M  V30 3314 C 299.524 1.20125 1.9918 0
M  V30 3315 C 300.518 0.107824 1.69056 0
M  V30 3316 O 301.724 0.270223 1.7796 0
M  V30 3317 H 298.099 0.372148 0.65346 0
M  V30 3318 H 300.07 2.15652 2.06244 0
M  V30 3319 C 298.819 0.933099 3.34946 0
M  V30 3320 H 298.142 1.76664 3.5865 0
M  V30 3321 H 299.582 0.890892 4.14535 0
M  V30 3322 C 298.041 -0.364172 3.34926 0
M  V30 3323 O 298.571 -1.37858 3.77304 0
M  V30 3324 N 296.777 -0.383362 2.8806 0
M  V30 3325 H 296.324 0.442651 2.53768 0
M  V30 3326 H 296.282 -1.25123 2.8843 0
M  V30 3327 N 300.054 -1.07777 1.14986 0
M  V30 3328 C 301.331 -1.7699 0.832695 0
M  V30 3329 C 301.711 -2.001 -0.672561 0
M  V30 3330 O 301.059 -1.61598 -1.6155 0
M  V30 3331 C 301.269 -3.08139 1.63863 0
M  V30 3332 C 302.617 -3.8256 1.84208 0
M  V30 3333 O 303.641 -3.17939 1.60603 0
M  V30 3334 O 302.5 -4.98612 2.23714 0
M  V30 3335 H 299.594 -0.768389 0.305791 0
M  V30 3336 H 302.14 -1.14182 1.25541 0
M  V30 3337 H 300.912 -2.86909 2.6608 0
M  V30 3338 H 300.535 -3.78678 1.21197 0
M  V30 3339 N 301.532 -0.945985 -1.26051 0
M  V30 3340 C 302.762 -0.612136 -1.97323 0
M  V30 3341 C 303.17 0.818171 -1.70595 0
M  V30 3342 O 302.513 1.55777 -0.973613 0
M  V30 3343 C 302.575 -0.780347 -3.50929 0
M  V30 3344 C 302.239 -2.18619 -4.01317 0
M  V30 3345 C 303.236 -3.16209 -4.12683 0
M  V30 3346 C 300.921 -2.50805 -4.35203 0
M  V30 3347 C 302.915 -4.44085 -4.57238 0
M  V30 3348 C 300.602 -3.78912 -4.79446 0
M  V30 3349 C 301.6 -4.75365 -4.90425 0
M  V30 3350 O 301.288 -6.01191 -5.3369 0
M  V30 3351 H 301.02 -0.229134 -0.635982 0
M  V30 3352 H 303.574 -1.27036 -1.61404 0
M  V30 3353 H 301.804 -0.0649864 -3.86645 0
M  V30 3354 H 303.493 -0.448842 -4.03411 0
M  V30 3355 H 304.259 -2.92668 -3.86744 0
M  V30 3356 H 300.138 -1.76463 -4.2589 0
M  V30 3357 H 303.682 -5.19373 -4.65723 0
M  V30 3358 H 299.579 -4.02265 -5.0483 0
M  V30 3359 H 300.347 -6.04442 -5.51899 0
M  V30 3360 N 303.011 1.40521 -0.713556 0
M  V30 3361 C 304.257 2.01714 -0.261382 0
M  V30 3362 C 304.612 1.55562 1.13217 0
M  V30 3363 O 303.905 0.764893 1.7567 0
M  V30 3364 C 304.099 3.56317 -0.278 0
M  V30 3365 C 303.928 4.17476 -1.67163 0
M  V30 3366 C 302.698 4.50998 -2.2788 0
M  V30 3367 C 304.896 4.42472 -2.6215 0
M  V30 3368 N 302.878 4.9754 -3.5962 0
M  V30 3369 C 304.249 4.90985 -3.78594 0
M  V30 3370 C 306.304 4.24508 -2.60188 0
M  V30 3371 C 305.007 5.2342 -4.9338 0
M  V30 3372 C 307.033 4.58043 -3.741 0
M  V30 3373 C 306.395 5.06743 -4.89276 0
M  V30 3374 H 302.494 0.769104 -0.141434 0
M  V30 3375 H 305.078 1.70785 -0.934915 0
M  V30 3376 H 303.249 3.8668 0.36509 0
M  V30 3377 H 304.981 4.0425 0.190695 0
M  V30 3378 H 301.736 4.38062 -1.79997 0
M  V30 3379 H 302.16 5.25196 -4.27198 0
M  V30 3380 H 306.802 3.86078 -1.72348 0
M  V30 3381 H 304.52 5.60765 -5.81866 0
M  V30 3382 H 308.106 4.45785 -3.73854 0
M  V30 3383 H 306.986 5.32204 -5.75959 0
M  V30 3384 N 304.489 0.459591 1.5075 0
M  V30 3385 C 305.738 -0.100971 2.01447 0
M  V30 3386 C 306.051 -1.41816 1.34713 0
M  V30 3387 O 307.257 -2.06299 1.76502 0
M  V30 3388 C 305.713 -0.23047 3.59161 0
M  V30 3389 C 305.321 1.0776 4.34847 0
M  V30 3390 C 307.065 -0.743608 4.17936 0
M  V30 3391 C 304.972 0.91253 5.84317 0
M  V30 3392 H 303.902 -0.0415102 0.752856 0
M  V30 3393 H 306.553 0.592742 1.73663 0
M  V30 3394 H 304.935 -0.987703 3.83485 0
M  V30 3395 H 306.109 1.8449 4.22256 0
M  V30 3396 H 304.424 1.52097 3.87628 0
M  V30 3397 H 307.021 -0.883959 5.27343 0
M  V30 3398 H 307.364 -1.73196 3.78562 0
M  V30 3399 H 307.897 -0.04408 3.97776 0
M  V30 3400 H 304.636 1.87391 6.28144 0
M  V30 3401 H 304.156 0.185422 5.99513 0
M  V30 3402 H 305.835 0.574547 6.44444 0
M  V30 3403 N 305.967 -1.56429 0.191757 0
M  V30 3404 C 307.216 -1.9666 -0.448088 0
M  V30 3405 C 307.529 -1.08136 -1.62991 0
M  V30 3406 O 308.735 -1.38135 -2.33733 0
M  V30 3407 C 307.191 -3.49753 -0.848585 0
M  V30 3408 C 306.799 -4.46935 0.308764 0
M  V30 3409 C 308.543 -3.9876 -1.4557 0
M  V30 3410 C 306.45 -5.91293 -0.112506 0
M  V30 3411 H 305.38 -0.734312 -0.171179 0
M  V30 3412 H 308.031 -1.81301 0.283242 0
M  V30 3413 H 306.413 -3.60604 -1.63649 0
M  V30 3414 H 307.587 -4.47813 1.08627 0
M  V30 3415 H 305.902 -4.08102 0.827158 0
M  V30 3416 H 308.499 -5.04086 -1.78328 0
M  V30 3417 H 308.842 -3.42875 -2.36099 0
M  V30 3418 H 309.375 -3.9101 -0.731836 0
M  V30 3419 H 306.114 -6.51097 0.758514 0
M  V30 3420 H 305.634 -5.93676 -0.854941 0
M  V30 3421 H 307.313 -6.44663 -0.549448 0
M  V30 3422 N 307.445 0.0818655 -1.57387 0
M  V30 3423 C 308.377 1.12484 -1.997 0
M  V30 3424 C 309.39 1.35564 -0.90146 0
M  V30 3425 O 310.579 1.33982 -1.17945 0
M  V30 3426 C 307.679 2.47778 -2.31213 0
M  V30 3427 C 306.852 2.44793 -3.62485 0
M  V30 3428 C 305.911 3.62117 -3.81782 0
M  V30 3429 O 304.937 3.44005 -4.53486 0
M  V30 3430 N 306.139 4.82094 -3.23367 0
M  V30 3431 H 308.904 0.764585 -2.89783 0
M  V30 3432 H 306.465 0.270664 -1.59621 0
M  V30 3433 H 308.457 3.24891 -2.41304 0
M  V30 3434 H 307.027 2.75843 -1.4707 0
M  V30 3435 H 306.247 1.53134 -3.6324 0
M  V30 3436 H 307.535 2.39889 -4.48699 0
M  V30 3437 H 306.933 4.99713 -2.65148 0
M  V30 3438 H 305.49 5.56753 -3.38923 0
M  V30 3439 N 308.923 1.53595 0.353017 0
M  V30 3440 C 310.172 1.69603 1.09168 0
M  V30 3441 C 310.485 0.460925 1.90092 0
M  V30 3442 O 311.691 0.501774 2.66823 0
M  V30 3443 C 310.147 2.99872 1.9901 0
M  V30 3444 C 309.755 4.30687 1.23339 0
M  V30 3445 C 311.499 3.25246 2.72792 0
M  V30 3446 C 309.406 5.52036 2.12156 0
M  V30 3447 H 308.336 0.631966 0.411261 0
M  V30 3448 H 310.987 1.80096 0.351802 0
M  V30 3449 H 309.369 2.83212 2.7678 0
M  V30 3450 H 310.543 4.58019 0.505456 0
M  V30 3451 H 308.858 4.11853 0.613663 0
M  V30 3452 H 311.455 4.13095 3.39495 0
M  V30 3453 H 311.798 2.41846 3.38846 0
M  V30 3454 H 312.331 3.42638 2.021 0
M  V30 3455 H 309.07 6.37951 1.50659 0
M  V30 3456 H 308.59 5.28966 2.82764 0
M  V30 3457 H 310.269 5.87313 2.71427 0
M  V30 3458 N 310.401 -0.613514 1.45168 0
M  V30 3459 C 311.631 -1.39743 1.52169 0
M  V30 3460 C 312.039 -1.88596 0.151086 0
M  V30 3461 O 311.382 -1.6251 -0.856521 0
M  V30 3462 C 311.444 -2.64035 2.43979 0
M  V30 3463 C 311.108 -2.36861 3.90827 0
M  V30 3464 C 312.105 -1.97591 4.80889 0
M  V30 3465 C 309.79 -2.49956 4.35692 0
M  V30 3466 C 311.784 -1.71768 6.1382 0
M  V30 3467 C 309.471 -2.23747 5.68665 0
M  V30 3468 C 310.469 -1.84714 6.57548 0
M  V30 3469 O 310.157 -1.58809 7.88058 0
M  V30 3470 H 309.889 -0.434382 0.517966 0
M  V30 3471 H 312.443 -0.75587 1.90986 0
M  V30 3472 H 310.673 -3.3089 2.00122 0
M  V30 3473 H 312.362 -3.26069 2.41731 0
M  V30 3474 H 313.128 -1.87015 4.47493 0
M  V30 3475 H 309.007 -2.79305 3.66756 0
M  V30 3476 H 312.551 -1.41227 6.83155 0
M  V30 3477 H 308.448 -2.33938 6.01617 0
M  V30 3478 H 309.216 -1.7291 8.00028 0
M  V30 3479 N 311.879 -1.3236 -0.855495 0
M  V30 3480 C 313.104 -1.2601 -1.64731 0
M  V30 3481 C 313.529 0.169068 -1.87339 0
M  V30 3482 O 312.887 1.12016 -1.42556 0
M  V30 3483 C 312.935 -2.02417 -2.98429 0
M  V30 3484 O 312.039 -1.3714 -3.8893 0
M  V30 3485 H 311.38 -0.434325 -0.502253 0
M  V30 3486 H 313.91 -1.74661 -1.06558 0
M  V30 3487 H 313.92 -2.12559 -3.48257 0
M  V30 3488 H 312.595 -3.06343 -2.81295 0
M  V30 3489 H 311.172 -1.3554 -3.47395 0
M  V30 3490 N 313.357 1.07166 -1.15556 0
M  V30 3491 C 314.634 1.76546 -0.842069 0
M  V30 3492 C 315.014 2.00453 0.661939 0
M  V30 3493 O 314.362 1.62452 1.60691 0
M  V30 3494 C 314.572 3.07266 -1.65495 0
M  V30 3495 C 315.92 3.81578 -1.86234 0
M  V30 3496 O 316.944 3.17083 -1.62287 0
M  V30 3497 O 315.803 4.97419 -2.26355 0
M  V30 3498 H 312.897 0.766756 -0.309862 0
M  V30 3499 H 315.443 1.13514 -1.26145 0
M  V30 3500 H 314.215 2.85494 -2.67598 0
M  V30 3501 H 313.838 3.7803 -1.23203 0
M  V30 3502 N 314.835 0.952656 1.25548 0
M  V30 3503 C 316.063 0.623496 1.97282 0
M  V30 3504 C 316.478 -0.803987 1.70826 0
M  V30 3505 O 315.835 -1.53755 0.983147 0
M  V30 3506 C 315.886 0.870209 3.5087 0
M  V30 3507 O 315.607 2.24156 3.76412 0
M  V30 3508 C 317.108 0.553164 4.39835 0
M  V30 3509 H 314.328 0.233931 0.628902 0
M  V30 3510 H 316.872 1.27649 1.59768 0
M  V30 3511 H 315.027 0.263652 3.86502 0
M  V30 3512 H 315.441 2.31021 4.70882 0
M  V30 3513 H 316.915 0.776342 5.46513 0
M  V30 3514 H 317.392 -0.512215 4.36203 0
M  V30 3515 H 317.998 1.13896 4.09766 0
M  V30 3516 N 316.313 -1.40141 0.720998 0
M  V30 3517 C 317.59 -1.94677 0.189757 0
M  V30 3518 C 317.97 -1.65879 -1.30566 0
M  V30 3519 O 317.318 -0.979391 -2.06447 0
M  V30 3520 C 317.528 -3.45279 0.508304 0
M  V30 3521 C 318.876 -4.22209 0.449934 0
M  V30 3522 O 319.9 -3.53413 0.444677 0
M  V30 3523 O 318.759 -5.44788 0.432189 0
M  V30 3524 H 315.853 -0.826459 0.0299026 0
M  V30 3525 H 318.399 -1.49719 0.7989 0
M  V30 3526 H 317.171 -3.59619 1.54239 0
M  V30 3527 H 316.794 -3.97386 -0.130525 0
M  V30 3528 N 317.792 -0.46758 -1.50504 0
M  V30 3529 C 319.017 0.0886943 -2.0721 0
M  V30 3530 C 319.442 1.33057 -1.32956 0
M  V30 3531 O 318.8 1.77354 -0.376197 0
M  V30 3532 C 318.848 0.359202 -3.58806 0
M  V30 3533 O 317.952 1.44034 -3.8643 0
M  V30 3534 H 317.293 -0.0114349 -0.663902 0
M  V30 3535 H 319.823 -0.657613 -1.93744 0
M  V30 3536 H 319.833 0.600742 -4.03553 0
M  V30 3537 H 318.508 -0.548311 -4.1227 0
M  V30 3538 H 317.085 1.18638 -3.53524 0
M  V30 3539 N 319.27 1.56325 -0.20005 0
M  V30 3540 C 320.2 2.22318 0.713916 0
M  V30 3541 C 321.181 1.18788 1.21752 0
M  V30 3542 O 322.366 1.47309 1.26545 0
M  V30 3543 C 319.496 2.88639 1.93144 0
M  V30 3544 C 318.45 3.98457 1.56255 0
M  V30 3545 C 317.776 4.51967 2.85709 0
M  V30 3546 C 319.076 5.16612 0.768747 0
M  V30 3547 H 320.77 2.98952 0.163755 0
M  V30 3548 H 318.316 1.43792 0.0773219 0
M  V30 3549 H 320.269 3.33491 2.57608 0
M  V30 3550 H 318.993 2.09419 2.50621 0
M  V30 3551 H 317.652 3.54305 0.941471 0
M  V30 3552 H 317.3 3.69503 3.41287 0
M  V30 3553 H 317 5.26071 2.6177 0
M  V30 3554 H 318.524 4.99523 3.51154 0
M  V30 3555 H 319.938 5.57977 1.3166 0
M  V30 3556 H 318.335 5.96812 0.627286 0
M  V30 3557 H 319.405 4.84358 -0.229168 0
M  V30 3558 N 320.748 -0.0735177 1.57428 0
M  V30 3559 C 321.988 -0.778363 1.89 0
M  V30 3560 C 322.352 -1.7483 0.793634 0
M  V30 3561 O 323.553 -2.49811 0.992367 0
M  V30 3562 C 321.824 -1.46929 3.25802 0
M  V30 3563 S 323.383 -2.20943 3.79117 0
M  V30 3564 H 320.201 -0.258874 0.662197 0
M  V30 3565 H 322.803 -0.0345338 1.95469 0
M  V30 3566 H 321.507 -0.749532 4.03497 0
M  V30 3567 H 321.038 -2.25258 3.22525 0
M  V30 3568 H 323.053 -3.47435 3.54265 0
M  V30 3569 N 322.226 -1.5378 -0.344866 0
M  V30 3570 C 323.156 -1.84662 -1.42906 0
M  V30 3571 C 324.137 -0.701648 -1.54955 0
M  V30 3572 O 325.322 -0.953438 -1.69184 0
M  V30 3573 C 322.452 -2.05503 -2.79974 0
M  V30 3574 C 321.406 -3.21318 -2.82734 0
M  V30 3575 C 320.732 -3.2749 -4.22675 0
M  V30 3576 C 322.032 -4.59456 -2.48389 0
M  V30 3577 H 323.726 -2.75461 -1.17311 0
M  V30 3578 H 321.272 -1.32542 -0.562896 0
M  V30 3579 H 323.225 -2.25691 -3.55867 0
M  V30 3580 H 321.949 -1.11434 -3.07002 0
M  V30 3581 H 320.608 -3.00984 -2.09294 0
M  V30 3582 H 320.256 -2.31019 -4.4681 0
M  V30 3583 H 319.956 -4.05316 -4.25433 0
M  V30 3584 H 321.48 -3.49887 -5.00412 0
M  V30 3585 H 322.894 -4.79667 -3.13995 0
M  V30 3586 H 321.291 -5.39675 -2.62432 0
M  V30 3587 H 322.361 -4.63155 -1.4358 0
M  V30 3588 N 323.704 0.605807 -1.45491 0
M  V30 3589 C 324.929 1.39625 -1.53361 0
M  V30 3590 C 325.354 1.87351 -0.167645 0
M  V30 3591 O 324.712 1.60243 0.848051 0
M  V30 3592 C 324.76 2.57559 -2.5238 0
M  V30 3593 O 323.864 3.58248 -2.04285 0
M  V30 3594 H 323.205 0.416771 -0.516912 0
M  V30 3595 H 325.735 0.737103 -1.90861 0
M  V30 3596 H 325.745 3.0478 -2.71244 0
M  V30 3597 H 324.42 2.22171 -3.51586 0
M  V30 3598 H 322.997 3.17664 -1.95305 0
M  V30 3599 N 325.182 1.32811 0.848464 0
M  V30 3600 C 326.429 1.23724 1.60308 0
M  V30 3601 C 326.757 -0.1994 1.93475 0
M  V30 3602 O 326.012 -1.15406 1.5805 0
M  V30 3603 C 326.311 2.04831 2.92881 0
M  V30 3604 C 325.977 3.54125 2.79117 0
M  V30 3605 C 324.639 3.94829 2.7507 0
M  V30 3606 C 326.991 4.49036 2.64606 0
M  V30 3607 C 324.319 5.28675 2.544 0
M  V30 3608 C 326.671 5.83033 2.4547 0
M  V30 3609 C 325.335 6.22931 2.39819 0
M  V30 3610 H 324.605 0.452737 0.586609 0
M  V30 3611 H 327.252 1.64301 0.983743 0
M  V30 3612 H 325.557 1.57001 3.58968 0
M  V30 3613 H 327.254 1.95164 3.50303 0
M  V30 3614 H 323.844 3.21801 2.83094 0
M  V30 3615 H 328.028 4.18505 2.66772 0
M  V30 3616 H 323.284 5.58637 2.48465 0
M  V30 3617 H 327.458 6.56186 2.33222 0
M  V30 3618 H 325.085 7.26584 2.23562 0
M  V30 3619 N 326.66 -1.06551 1.16123 0
M  V30 3620 C 327.885 -1.83544 0.965735 0
M  V30 3621 C 328.31 -1.81843 -0.481102 0
M  V30 3622 O 327.668 -1.21732 -1.34354 0
M  V30 3623 C 327.716 -3.28169 1.49457 0
M  V30 3624 O 326.82 -4.0643 0.699157 0
M  V30 3625 H 326.161 -0.568026 0.343864 0
M  V30 3626 H 328.691 -1.34362 1.54299 0
M  V30 3627 H 328.701 -3.78992 1.51092 0
M  V30 3628 H 327.376 -3.28722 2.54784 0
M  V30 3629 H 325.953 -3.65216 0.7531 0
M  V30 3630 N 328.138 -0.959301 -1.25041 0
M  V30 3631 C 329.086 -0.474437 -2.2771 0
M  V30 3632 C 330.08 0.457697 -1.631 0
M  V30 3633 O 331.286 0.333912 -1.76876 0
M  V30 3634 H 327.661 -0.134936 -0.739795 0
M  V30 3635 H 329.632 -1.35251 -2.65988 0
M  V30 3636 C 328.381 0.227884 -3.46952 0
M  V30 3637 H 327.704 -0.480248 -3.96905 0
M  V30 3638 H 329.144 0.531091 -4.20661 0
M  V30 3639 C 327.603 1.452 -3.04004 0
M  V30 3640 O 328.133 2.54949 -3.10426 0
M  V30 3641 N 326.339 1.31502 -2.59144 0
M  V30 3642 H 325.886 0.422065 -2.54119 0
M  V30 3643 H 325.844 2.13521 -2.30773 0
M  V30 3644 N 329.616 1.39756 -0.72842 0
M  V30 3645 C 330.865 1.99879 -0.270407 0
M  V30 3646 C 331.178 1.58449 1.14688 0
M  V30 3647 O 332.384 2.11362 1.70407 0
M  V30 3648 C 330.84 3.57292 -0.43252 0
M  V30 3649 C 330.448 4.07688 -1.85727 0
M  V30 3650 C 332.192 4.24485 -0.0359507 0
M  V30 3651 C 330.099 5.5765 -1.96928 0
M  V30 3652 H 329.029 0.747689 -0.0973472 0
M  V30 3653 H 331.68 1.59837 -0.901355 0
M  V30 3654 H 330.062 3.95097 0.267219 0
M  V30 3655 H 331.236 3.81231 -2.58843 0
M  V30 3656 H 329.551 3.53135 -2.20646 0
M  V30 3657 H 332.148 5.34609 -0.0987484 0
M  V30 3658 H 332.491 4.03915 1.00787 0
M  V30 3659 H 333.024 3.9183 -0.686604 0
M  V30 3660 H 329.763 5.8309 -2.99476 0
M  V30 3661 H 329.283 5.8593 -1.28241 0
M  V30 3662 H 330.962 6.22957 -1.74737 0
M  V30 3663 N 331.094 0.475555 1.50254 0
M  V30 3664 C 332.34 -0.0701075 2.03279 0
M  V30 3665 C 332.695 -1.37007 1.35081 0
M  V30 3666 O 331.988 -1.8577 0.469052 0
M  V30 3667 C 332.182 -0.305114 3.56095 0
M  V30 3668 C 332.011 0.970515 4.39103 0
M  V30 3669 C 330.781 1.51509 4.82051 0
M  V30 3670 C 332.979 1.8671 4.79212 0
M  V30 3671 N 330.961 2.73928 5.49397 0
M  V30 3672 C 332.332 2.93715 5.46014 0
M  V30 3673 C 334.387 1.87695 4.61167 0
M  V30 3674 C 333.09 4.01699 5.96683 0
M  V30 3675 C 335.116 2.94637 5.12779 0
M  V30 3676 C 334.478 4.00361 5.79561 0
M  V30 3677 H 330.577 0.014486 0.781866 0
M  V30 3678 H 333.161 0.644755 1.83714 0
M  V30 3679 H 331.332 -0.989019 3.75597 0
M  V30 3680 H 333.064 -0.845516 3.95769 0
M  V30 3681 H 329.819 1.06367 4.61501 0
M  V30 3682 H 330.243 3.36109 5.87673 0
M  V30 3683 H 334.885 1.07273 4.08965 0
M  V30 3684 H 332.603 4.82934 6.4792 0
M  V30 3685 H 336.189 2.96388 5.00645 0
M  V30 3686 H 335.069 4.81751 6.18778 0
M  V30 3687 N 332.573 -1.56217 0.208337 0
M  V30 3688 C 333.483 -2.23316 -0.718836 0
M  V30 3689 C 334.499 -1.23648 -1.22422 0
M  V30 3690 O 335.675 -1.56423 -1.26861 0
M  V30 3691 C 332.74 -2.88968 -1.91568 0
M  V30 3692 C 331.801 -4.03943 -1.45357 0
M  V30 3693 C 331.034 -4.66455 -2.59337 0
M  V30 3694 O 331.257 -4.27919 -3.77149 0
M  V30 3695 O 330.191 -5.55686 -2.31293 0
M  V30 3696 H 334.017 -3.03182 -0.177315 0
M  V30 3697 H 331.602 -1.49384 -0.0215402 0
M  V30 3698 H 333.484 -3.30455 -2.61491 0
M  V30 3699 H 332.159 -2.12071 -2.44556 0
M  V30 3700 H 331.066 -3.67052 -0.722746 0
M  V30 3701 H 332.399 -4.82543 -0.970219 0
M  V30 3702 N 334.051 0.0651679 -1.57465 0
M  V30 3703 C 334.961 1.09448 -2.07505 0
M  V30 3704 C 335.977 1.41974 -1.00595 0
M  V30 3705 O 337.153 1.52018 -1.32107 0
M  V30 3706 C 334.218 2.38689 -2.51453 0
M  V30 3707 C 333.279 2.13073 -3.72691 0
M  V30 3708 C 332.512 3.36152 -4.14533 0
M  V30 3709 O 332.735 4.45517 -3.56189 0
M  V30 3710 O 331.669 3.23974 -5.07272 0
M  V30 3711 H 335.495 0.69935 -2.95538 0
M  V30 3712 H 333.08 0.279752 -1.46757 0
M  V30 3713 H 334.962 3.14736 -2.80212 0
M  V30 3714 H 333.637 2.77568 -1.66546 0
M  V30 3715 H 332.544 1.34709 -3.49005 0
M  V30 3716 H 333.877 1.79071 -4.5847 0
M  V30 3717 N 335.529 1.53961 0.336706 0
M  V30 3718 C 336.754 1.75797 1.10046 0
M  V30 3719 C 337.179 0.498985 1.81361 0
M  V30 3720 O 336.537 -0.548769 1.72795 0
M  V30 3721 C 336.585 2.94257 2.08436 0
M  V30 3722 O 335.689 2.64883 3.16087 0
M  V30 3723 H 335.03 0.582936 0.317934 0
M  V30 3724 H 337.56 2.00945 0.38501 0
M  V30 3725 H 337.57 3.21237 2.51537 0
M  V30 3726 H 336.245 3.85564 1.55927 0
M  V30 3727 H 334.822 2.48812 2.77753 0
M  V30 3728 N 337.007 -0.598083 1.45811 0
M  V30 3729 C 338.254 -1.35681 1.50323 0
M  V30 3730 C 338.582 -1.9393 0.148739 0
M  V30 3731 O 337.837 -1.76094 -0.853787 0
M  V30 3732 C 338.136 -2.51669 2.53766 0
M  V30 3733 C 337.802 -2.11508 3.98215 0
M  V30 3734 C 336.464 -2.0027 4.37545 0
M  V30 3735 C 338.816 -1.80308 4.89018 0
M  V30 3736 C 336.144 -1.56067 5.65562 0
M  V30 3737 C 338.496 -1.37589 6.17456 0
M  V30 3738 C 337.16 -1.24916 6.55708 0
M  V30 3739 H 336.43 -0.496492 0.550069 0
M  V30 3740 H 339.077 -0.675052 1.79207 0
M  V30 3741 H 337.382 -3.25225 2.18486 0
M  V30 3742 H 339.079 -3.09895 2.54492 0
M  V30 3743 H 335.669 -2.21185 3.67117 0
M  V30 3744 H 339.853 -1.87884 4.59362 0
M  V30 3745 H 335.109 -1.44886 5.93985 0
M  V30 3746 H 339.283 -1.12495 6.87254 0
M  V30 3747 H 336.91 -0.904386 7.54801 0
M  V30 3748 N 338.485 -1.33259 -0.841409 0
M  V30 3749 C 339.762 -1.15174 -1.58096 0
M  V30 3750 C 340.142 0.282858 -2.09196 0
M  V30 3751 O 339.49 1.28151 -1.89181 0
M  V30 3752 C 339.7 -2.1907 -2.71679 0
M  V30 3753 C 341.048 -2.53093 -3.40924 0
M  V30 3754 O 342.072 -2.17717 -2.81918 0
M  V30 3755 O 340.931 -3.1379 -4.47435 0
M  V30 3756 H 338.025 -0.445303 -0.696875 0
M  V30 3757 H 340.571 -1.44833 -0.884385 0
M  V30 3758 H 339.343 -3.15443 -2.31541 0
M  V30 3759 H 338.966 -1.90481 -3.49002 0
M  V30 3760 N 339.963 1.05934 -1.16686 0
M  V30 3761 C 340.91 2.13499 -0.876748 0
M  V30 3762 C 341.88 1.65162 0.176299 0
M  V30 3763 O 343.065 1.90757 0.0407143 0
M  V30 3764 C 340.205 3.42912 -0.387967 0
M  V30 3765 C 339.318 4.04964 -1.50426 0
M  V30 3766 C 338.453 5.22266 -0.970125 0
M  V30 3767 C 337.492 5.76309 -2.06238 0
M  V30 3768 N 336.629 6.84922 -1.54356 0
M  V30 3769 H 341.469 2.37654 -1.7979 0
M  V30 3770 H 339.006 1.16598 -0.896843 0
M  V30 3771 H 340.964 4.17111 -0.086186 0
M  V30 3772 H 339.594 3.18963 0.496235 0
M  V30 3773 H 338.646 3.28277 -1.92193 0
M  V30 3774 H 339.958 4.41122 -2.32836 0
M  V30 3775 H 339.112 6.03506 -0.621743 0
M  V30 3776 H 337.851 4.87564 -0.115377 0
M  V30 3777 H 336.856 4.93704 -2.41942 0
M  V30 3778 H 338.081 6.13062 -2.92115 0
M  V30 3779 H 336.027 6.52131 -0.711406 0
M  V30 3780 H 335.944 7.20043 -2.30379 0
M  V30 3781 H 337.212 7.69832 -1.22387 0
M  V30 3782 N 341.441 0.965919 1.2453 0
M  V30 3783 C 342.671 0.643451 1.96324 0
M  V30 3784 C 343.079 -0.790927 1.71875 0
M  V30 3785 O 342.422 -1.54208 0.998273 0
M  V30 3786 C 342.484 0.836078 3.49643 0
M  V30 3787 C 342.148 2.24975 3.97788 0
M  V30 3788 C 343.145 3.22735 4.07601 0
M  V30 3789 C 340.83 2.57697 4.31158 0
M  V30 3790 C 342.824 4.51303 4.50116 0
M  V30 3791 C 340.511 3.86492 4.73357 0
M  V30 3792 C 341.509 4.83107 4.828 0
M  V30 3793 O 341.197 6.09605 5.24058 0
M  V30 3794 H 340.929 0.239223 0.632257 0
M  V30 3795 H 343.483 1.29587 1.59362 0
M  V30 3796 H 341.713 0.12649 3.86493 0
M  V30 3797 H 343.402 0.512965 4.02646 0
M  V30 3798 H 344.168 2.98783 3.82039 0
M  V30 3799 H 340.047 1.83216 4.23028 0
M  V30 3800 H 343.591 5.26716 4.57401 0
M  V30 3801 H 339.488 4.10245 4.98366 0
M  V30 3802 H 340.256 6.13146 5.42213 0
M  V30 3803 N 342.919 -1.39368 0.735821 0
M  V30 3804 C 343.869 -2.27885 0.0724287 0
M  V30 3805 C 344.853 -1.44301 -0.711756 0
M  V30 3806 O 346.045 -1.67206 -0.58063 0
M  V30 3807 C 343.174 -3.33029 -0.833454 0
M  V30 3808 C 342.26 -4.24078 -0.0433749 0
M  V30 3809 N 342.651 -4.96138 0.983903 0
M  V30 3810 C 340.949 -4.45164 -0.272905 0
M  V30 3811 C 341.65 -5.63069 1.4604 0
M  V30 3812 N 340.626 -5.37991 0.778857 0
M  V30 3813 H 344.428 -2.81052 0.859467 0
M  V30 3814 H 341.942 -1.5206 0.570227 0
M  V30 3815 H 343.939 -3.95311 -1.32419 0
M  V30 3816 H 342.599 -2.81421 -1.61964 0
M  V30 3817 H 343.61 -4.9958 1.36528 0
M  V30 3818 H 340.287 -4.04497 -1.03383 0
M  V30 3819 H 341.677 -6.30755 2.31511 0
M  V30 3820 N 344.397 -0.483516 -1.5 0
M  V30 3821 C 345.307 0.309172 -2.32554 0
M  V30 3822 C 346.323 0.984159 -1.43493 0
M  V30 3823 O 347.499 0.969399 -1.76535 0
M  V30 3824 C 344.564 1.36979 -3.18493 0
M  V30 3825 C 343.625 0.710095 -4.23387 0
M  V30 3826 C 342.858 1.72018 -5.05218 0
M  V30 3827 O 343.081 2.94813 -4.88305 0
M  V30 3828 O 342.015 1.28515 -5.8802 0
M  V30 3829 H 345.841 -0.366064 -3.01486 0
M  V30 3830 H 343.426 -0.24514 -1.47375 0
M  V30 3831 H 345.308 1.98385 -3.71781 0
M  V30 3832 H 343.983 2.02828 -2.52275 0
M  V30 3833 H 342.89 0.0567539 -3.74057 0
M  V30 3834 H 344.223 0.0943557 -4.9211 0
M  V30 3835 N 345.875 1.56104 -0.216619 0
M  V30 3836 C 347.105 2.02269 0.420802 0
M  V30 3837 C 347.513 1.09575 1.5424 0
M  V30 3838 O 346.856 0.0967308 1.83445 0
M  V30 3839 C 346.918 3.44784 1.01806 0
M  V30 3840 C 346.582 4.56988 0.0325154 0
M  V30 3841 C 347.579 5.14225 -0.766055 0
M  V30 3842 C 345.264 5.02228 -0.0848092 0
M  V30 3843 C 347.258 6.15169 -1.6687 0
M  V30 3844 C 344.945 6.03011 -0.990994 0
M  V30 3845 C 345.943 6.59357 -1.78149 0
M  V30 3846 O 345.631 7.58179 -2.67245 0
M  V30 3847 H 345.363 0.667353 0.107776 0
M  V30 3848 H 347.917 2.02747 -0.329034 0
M  V30 3849 H 346.147 3.41359 1.81689 0
M  V30 3850 H 347.836 3.74626 1.56237 0
M  V30 3851 H 348.602 4.80126 -0.685836 0
M  V30 3852 H 344.481 4.58054 0.520349 0
M  V30 3853 H 348.025 6.59076 -2.28615 0
M  V30 3854 H 343.922 6.36532 -1.07225 0
M  V30 3855 H 344.69 7.75682 -2.61265 0
M  V30 3856 N 347.353 -0.0568162 1.57498 0
M  V30 3857 C 348.602 -0.752001 1.87157 0
M  V30 3858 C 348.915 -1.77978 0.811375 0
M  V30 3859 O 350.121 -2.52559 0.996293 0
M  V30 3860 C 348.577 -1.38844 3.3204 0
M  V30 3861 C 348.185 -0.398456 4.46225 0
M  V30 3862 C 349.929 -2.06512 3.70882 0
M  V30 3863 C 347.836 -1.04166 5.82154 0
M  V30 3864 H 346.766 -0.28461 0.698222 0
M  V30 3865 H 349.417 -0.00561272 1.83499 0
M  V30 3866 H 347.799 -2.1836 3.30356 0
M  V30 3867 H 348.973 0.367977 4.59328 0
M  V30 3868 H 347.288 0.174592 4.16034 0
M  V30 3869 H 349.885 -2.55437 4.6974 0
M  V30 3870 H 350.228 -2.87117 3.01445 0
M  V30 3871 H 350.761 -1.33808 3.7462 0
M  V30 3872 H 347.5 -0.275614 6.5492 0
M  V30 3873 H 347.02 -1.7786 5.72823 0
M  V30 3874 H 348.699 -1.55715 6.27982 0
M  V30 3875 N 348.832 -1.54138 -0.328536 0
M  V30 3876 C 350.057 -1.76378 -1.09112 0
M  V30 3877 C 350.482 -0.508596 -1.81094 0
M  V30 3878 O 349.84 0.539598 -1.73084 0
M  V30 3879 C 349.888 -2.95358 -2.06872 0
M  V30 3880 O 348.992 -2.66556 -3.14677 0
M  V30 3881 H 348.333 -0.584614 -0.314838 0
M  V30 3882 H 350.863 -2.01146 -0.374348 0
M  V30 3883 H 350.873 -3.22566 -2.4983 0
M  V30 3884 H 349.548 -3.86385 -1.5388 0
M  V30 3885 H 348.125 -2.50282 -2.7643 0
M  V30 3886 N 350.31 0.590341 -1.46126 0
M  V30 3887 C 351.557 1.34882 -1.5104 0
M  V30 3888 C 351.885 1.93849 -0.159021 0
M  V30 3889 O 351.14 1.76544 0.844436 0
M  V30 3890 C 351.439 2.5032 -2.55097 0
M  V30 3891 C 351.105 2.09394 -3.99331 0
M  V30 3892 C 349.767 1.97947 -4.38601 0
M  V30 3893 C 352.119 1.77712 -4.89967 0
M  V30 3894 C 349.447 1.53065 -5.66381 0
M  V30 3895 C 351.799 1.34312 -6.18177 0
M  V30 3896 C 350.463 1.21436 -6.56361 0
M  V30 3897 H 349.733 0.493568 -0.552695 0
M  V30 3898 H 352.38 0.665539 -1.79563 0
M  V30 3899 H 350.685 3.24062 -2.20207 0
M  V30 3900 H 352.382 3.08541 -2.56132 0
M  V30 3901 H 348.972 2.19235 -3.68285 0
M  V30 3902 H 353.156 1.85445 -4.60352 0
M  V30 3903 H 348.412 1.41733 -5.94745 0
M  V30 3904 H 352.586 1.08849 -6.87841 0
M  V30 3905 H 350.213 0.864345 -7.5527 0
M  V30 3906 N 351.788 1.33704 0.83433 0
M  V30 3907 C 353.036 1.25169 1.58673 0
M  V30 3908 C 353.357 -0.18127 1.94156 0
M  V30 3909 O 352.627 -1.11113 1.6134 0
M  V30 3910 H 351.207 0.4603 0.58833 0
M  V30 3911 H 353.869 1.67478 0.996847 0
M  V30 3912 H 352.965 1.84856 2.51465 0
M  V30 3913 N 353.266 -1.05314 1.17247 0
M  V30 3914 C 354.682 -1.30452 0.919473 0
M  V30 3915 C 354.882 -1.9703 -0.42209 0
M  V30 3916 O 353.938 -2.24311 -1.15935 0
M  V30 3917 C 355.251 -2.17551 2.07586 0
M  V30 3918 C 356.799 -2.30937 2.11275 0
M  V30 3919 C 357.274 -3.21396 3.26296 0
M  V30 3920 N 358.765 -3.28981 3.26076 0
M  V30 3921 C 359.5 -3.99095 4.11716 0
M  V30 3922 N 358.996 -4.71648 5.07465 0
M  V30 3923 N 360.789 -3.95247 3.9967 0
M  V30 3924 H 352.94 -0.604988 2.03602 0
M  V30 3925 H 355.203 -0.329368 0.888944 0
M  V30 3926 H 354.909 -1.75921 3.0454 0
M  V30 3927 H 354.783 -3.18182 2.02584 0
M  V30 3928 H 357.17 -2.71809 1.14907 0
M  V30 3929 H 357.251 -1.2994 2.20339 0
M  V30 3930 H 356.895 -2.81238 4.22927 0
M  V30 3931 H 356.825 -4.22395 3.14467 0
M  V30 3932 H 359.316 -2.77286 2.5675 0
M  V30 3933 H 359.629 -5.22705 5.6921 0
M  V30 3934 H 357.974 -4.70594 5.11435 0
M  V30 3935 H 361.165 -3.37691 3.24164 0
M  V30 3936 H 361.338 -4.4962 4.66632 0
M  V30 3937 N 354.744 -0.972509 -1.24016 0
M  V30 3938 C 355.993 -0.632603 -1.91523 0
M  V30 3939 C 356.306 0.836641 -1.76804 0
M  V30 3940 O 357.512 1.28728 -2.39043 0
M  V30 3941 C 355.968 -1.08082 -3.43287 0
M  V30 3942 C 355.576 -2.57386 -3.66683 0
M  V30 3943 C 357.32 -0.814288 -4.16617 0
M  V30 3944 C 355.227 -2.95915 -5.12043 0
M  V30 3945 H 354.157 -0.232898 -0.717129 0
M  V30 3946 H 356.808 -1.17936 -1.40582 0
M  V30 3947 H 355.19 -0.462339 -3.93292 0
M  V30 3948 H 356.364 -3.24405 -3.27258 0
M  V30 3949 H 354.679 -2.81701 -3.06649 0
M  V30 3950 H 357.276 -1.0781 -5.23718 0
M  V30 3951 H 357.619 0.24955 -4.15551 0
M  V30 3952 H 358.152 -1.39397 -3.72577 0
M  V30 3953 H 354.891 -4.0139 -5.18234 0
M  V30 3954 H 354.411 -2.33584 -5.52448 0
M  V30 3955 H 356.09 -2.86086 -5.80314 0
M  V30 3956 N 356.222 1.38976 -0.743202 0
M  V30 3957 C 357.17 2.32394 -0.0978389 0
M  V30 3958 C 358.164 1.53486 0.716824 0
M  V30 3959 O 359.37 1.69092 0.617088 0
M  V30 3960 H 355.745 0.75189 -0.0128402 0
M  V30 3961 H 357.716 2.84441 -0.901981 0
M  V30 3962 C 356.465 3.38629 0.789036 0
M  V30 3963 H 355.788 3.99432 0.171559 0
M  V30 3964 H 357.228 4.06426 1.20807 0
M  V30 3965 C 355.687 2.76347 1.92702 0
M  V30 3966 O 356.217 2.64836 3.02034 0
M  V30 3967 N 354.423 2.34311 1.71891 0
M  V30 3968 H 353.97 2.43873 0.829675 0
M  V30 3969 H 353.928 1.9298 2.48205 0
M  V30 3970 N 357.7 0.491464 1.49741 0
M  V30 3971 C 358.949 -0.0582189 2.01616 0
M  V30 3972 C 359.262 -1.38927 1.3769 0
M  V30 3973 O 360.468 -2.02509 1.80838 0
M  V30 3974 C 358.924 -0.154235 3.59569 0
M  V30 3975 C 358.532 1.1696 4.32463 0
M  V30 3976 C 360.276 -0.65479 4.1942 0
M  V30 3977 C 358.183 1.03627 5.8225 0
M  V30 3978 H 357.113 -0.0255317 0.753568 0
M  V30 3979 H 359.764 0.629445 1.72367 0
M  V30 3980 H 358.146 -0.906138 3.85493 0
M  V30 3981 H 359.32 1.93405 4.18248 0
M  V30 3982 H 357.635 1.60285 3.84315 0
M  V30 3983 H 360.232 -0.771903 5.29099 0
M  V30 3984 H 360.575 -1.65127 3.8215 0
M  V30 3985 H 361.108 0.040304 3.9778 0
M  V30 3986 H 357.847 2.00672 6.24028 0
M  V30 3987 H 357.367 0.312546 5.98985 0
M  V30 3988 H 359.046 0.711114 6.4308 0
M  V30 3989 N 359.178 -1.55987 0.224894 0
M  V30 3990 C 360.403 -2.03232 -0.41369 0
M  V30 3991 C 360.828 -1.10359 -1.52323 0
M  V30 3992 O 360.186 -0.092395 -1.81064 0
M  V30 3993 C 360.234 -3.48682 -0.919405 0
M  V30 3994 O 359.338 -3.58947 -2.03054 0
M  V30 3995 H 358.679 -0.657428 -0.0931903 0
M  V30 3996 H 361.209 -2.01679 0.34451 0
M  V30 3997 H 361.219 -3.8907 -1.22835 0
M  V30 3998 H 359.894 -4.15761 -0.107339 0
M  V30 3999 H 358.471 -3.30448 -1.72796 0
M  V30 4000 N 360.656 0.0484629 -1.57525 0
M  V30 4001 C 361.884 0.755421 -1.92616 0
M  V30 4002 C 362.299 1.69919 -0.822984 0
M  V30 4003 O 361.656 1.81378 0.202085 0
M  V30 4004 C 361.707 1.52915 -3.27566 0
M  V30 4005 O 361.428 0.62329 -4.33644 0
M  V30 4006 C 362.929 2.33502 -3.76818 0
M  V30 4007 H 360.149 0.213465 -0.63614 0
M  V30 4008 H 362.693 0.0117698 -2.04497 0
M  V30 4009 H 360.848 2.22486 -3.17142 0
M  V30 4010 H 361.262 1.16383 -5.11425 0
M  V30 4011 H 362.736 2.83214 -4.73808 0
M  V30 4012 H 363.213 3.14068 -3.07014 0
M  V30 4013 H 363.819 1.69043 -3.90262 0
M  V30 4014 N 362.134 1.5431 0.320358 0
M  V30 4015 C 363.411 1.63322 1.07635 0
M  V30 4016 C 363.791 0.46912 2.05821 0
M  V30 4017 O 363.139 -0.536274 2.22118 0
M  V30 4018 C 363.349 3.00465 1.77544 0
M  V30 4019 C 364.697 3.56621 2.30449 0
M  V30 4020 O 365.721 3.02791 1.87606 0
M  V30 4021 O 364.58 4.5083 3.08892 0
M  V30 4022 H 361.674 0.661502 0.496331 0
M  V30 4023 H 364.22 1.66656 0.319992 0
M  V30 4024 H 362.992 3.76629 1.06143 0
M  V30 4025 H 362.615 3.00824 2.59982 0
M  V30 4026 N 363.613 -0.582584 1.46437 0
M  V30 4027 C 364.56 -1.69164 1.5701 0
M  V30 4028 C 365.53 -1.60847 0.414403 0
M  V30 4029 O 366.715 -1.80058 0.631171 0
M  V30 4030 C 363.855 -3.075 1.56646 0
M  V30 4031 C 362.968 -3.2644 2.82951 0
M  V30 4032 C 362.103 -4.55026 2.7409 0
M  V30 4033 C 361.142 -4.6731 3.95333 0
M  V30 4034 N 360.279 -5.87221 3.84858 0
M  V30 4035 H 365.119 -1.59464 2.51744 0
M  V30 4036 H 362.656 -0.777186 1.24893 0
M  V30 4037 H 364.614 -3.8757 1.5442 0
M  V30 4038 H 363.244 -3.16096 0.654439 0
M  V30 4039 H 362.296 -2.39974 2.95155 0
M  V30 4040 H 363.608 -3.31385 3.72808 0
M  V30 4041 H 362.762 -5.43324 2.6997 0
M  V30 4042 H 361.501 -4.52519 1.81873 0
M  V30 4043 H 360.506 -3.77429 3.99784 0
M  V30 4044 H 361.731 -4.71595 4.88646 0
M  V30 4045 H 359.677 -5.85712 2.95427 0
M  V30 4046 H 359.594 -5.93435 4.6837 0
M  V30 4047 H 360.862 -6.7795 3.84713 0
M  V30 4048 N 365.091 -1.34144 -0.827227 0
M  V30 4049 C 366.038 -1.25364 -1.93785 0
M  V30 4050 C 367.008 -0.129774 -1.65592 0
M  V30 4051 O 368.193 -0.310024 -1.88264 0
M  V30 4052 C 365.333 -1.01064 -3.2997 0
M  V30 4053 C 364.446 -2.22185 -3.70484 0
M  V30 4054 C 363.581 -1.91203 -4.95595 0
M  V30 4055 C 362.62 -3.08491 -5.28677 0
M  V30 4056 N 361.757 -2.77421 -6.44967 0
M  V30 4057 H 366.597 -2.20347 -2.00627 0
M  V30 4058 H 364.134 -1.09558 -0.981608 0
M  V30 4059 H 366.092 -0.850139 -4.08446 0
M  V30 4060 H 364.722 -0.0975026 -3.22653 0
M  V30 4061 H 363.774 -2.4917 -2.87434 0
M  V30 4062 H 365.086 -3.0983 -3.90905 0
M  V30 4063 H 364.24 -1.71864 -5.81848 0
M  V30 4064 H 362.979 -1.00812 -4.77167 0
M  V30 4065 H 361.984 -3.28431 -4.40923 0
M  V30 4066 H 363.209 -3.99655 -5.49047 0
M  V30 4067 H 361.155 -1.89601 -6.28003 0
M  V30 4068 H 361.072 -3.58598 -6.6554 0
M  V30 4069 H 362.34 -2.61577 -7.34301 0
M  V30 4070 N 366.569 1.04691 -1.17803 0
M  V30 4071 C 367.499 2.14494 -0.92275 0
M  V30 4072 C 368.48 1.69546 0.137179 0
M  V30 4073 O 369.665 1.94195 -0.0141108 0
M  V30 4074 C 366.795 3.44491 -0.440803 0
M  V30 4075 C 365.749 4.03031 -1.4405 0
M  V30 4076 C 365.075 5.28432 -0.81631 0
M  V30 4077 C 366.375 4.39932 -2.81527 0
M  V30 4078 H 368.069 2.36107 -1.84103 0
M  V30 4079 H 365.615 1.1347 -0.886599 0
M  V30 4080 H 367.568 4.2066 -0.249602 0
M  V30 4081 H 366.292 3.22546 0.513025 0
M  V30 4082 H 364.951 3.28937 -1.61853 0
M  V30 4083 H 364.599 5.02792 0.144511 0
M  V30 4084 H 364.299 5.68559 -1.48371 0
M  V30 4085 H 365.823 6.07284 -0.635496 0
M  V30 4086 H 367.237 5.07113 -2.67412 0
M  V30 4087 H 365.634 4.9109 -3.44892 0
M  V30 4088 H 366.704 3.50045 -3.35554 0
M  V30 4089 N 368.047 0.979072 1.23499 0
M  V30 4090 C 369.296 0.642751 1.91185 0
M  V30 4091 C 369.609 -0.827253 1.77245 0
M  V30 4092 O 370.815 -1.27458 2.39722 0
M  V30 4093 C 369.271 1.09901 3.42709 0
M  V30 4094 C 368.879 2.59327 3.65313 0
M  V30 4095 C 370.623 0.836371 4.16179 0
M  V30 4096 C 368.53 2.98627 5.10467 0
M  V30 4097 H 367.46 0.236698 0.715884 0
M  V30 4098 H 370.111 1.1868 1.39955 0
M  V30 4099 H 368.493 0.48319 3.93041 0
M  V30 4100 H 369.667 3.26136 3.25533 0
M  V30 4101 H 367.982 2.83323 3.05151 0
M  V30 4102 H 370.579 1.10586 5.23139 0
M  V30 4103 H 370.922 -0.227509 4.15678 0
M  V30 4104 H 371.455 1.41371 3.71832 0
M  V30 4105 H 368.194 4.04133 5.16098 0
M  V30 4106 H 367.714 2.3651 5.51201 0
M  V30 4107 H 369.393 2.89159 5.78788 0
M  V30 4108 N 369.525 -1.3858 0.750561 0
M  V30 4109 C 370.472 -2.30483 0.120835 0
M  V30 4110 C 371.442 -1.50022 -0.712923 0
M  V30 4111 O 372.627 -1.78662 -0.669676 0
M  V30 4112 C 369.767 -3.36431 -0.768666 0
M  V30 4113 C 368.88 -4.31927 0.0793922 0
M  V30 4114 C 368.015 -5.24944 -0.81283 0
M  V30 4115 C 367.054 -6.12088 0.0390447 0
M  V30 4116 N 366.191 -6.97412 -0.809969 0
M  V30 4117 H 371.031 -2.83761 0.91015 0
M  V30 4118 H 368.568 -1.39707 0.460463 0
M  V30 4119 H 370.526 -3.96462 -1.29898 0
M  V30 4120 H 369.156 -2.8457 -1.5238 0
M  V30 4121 H 368.208 -3.73382 0.727303 0
M  V30 4122 H 369.52 -4.93319 0.737401 0
M  V30 4123 H 368.674 -5.90078 -1.41042 0
M  V30 4124 H 367.413 -4.63911 -1.50458 0
M  V30 4125 H 366.418 -5.45952 0.649328 0
M  V30 4126 H 367.643 -6.75189 0.727809 0
M  V30 4127 H 365.589 -6.38931 -1.48672 0
M  V30 4128 H 365.506 -7.55712 -0.208789 0
M  V30 4129 H 366.774 -7.66959 -1.39263 0
M  V30 4130 N 371.003 -0.499398 -1.49478 0
M  V30 4131 C 371.935 0.316575 -2.27003 0
M  V30 4132 C 372.948 0.932047 -1.33479 0
M  V30 4133 O 374.137 0.815658 -1.58774 0
M  V30 4134 C 371.237 1.46055 -3.05812 0
M  V30 4135 C 370.41 0.952679 -4.26899 0
M  V30 4136 C 369.469 1.97407 -4.87767 0
M  V30 4137 O 368.495 1.54326 -5.4788 0
M  V30 4138 N 369.697 3.30436 -4.77276 0
M  V30 4139 H 372.462 -0.348168 -2.97671 0
M  V30 4140 H 370.023 -0.33185 -1.58463 0
M  V30 4141 H 372.015 2.14135 -3.43407 0
M  V30 4142 H 370.585 2.02948 -2.37762 0
M  V30 4143 H 369.805 0.0968248 -3.94081 0
M  V30 4144 H 371.093 0.59174 -5.05347 0
M  V30 4145 H 370.491 3.68126 -4.29534 0
M  V30 4146 H 369.048 3.94235 -5.19059 0
M  V30 4147 N 372.481 1.55866 -0.233164 0
M  V30 4148 C 373.428 2.20796 0.67215 0
M  V30 4149 C 374.398 1.16731 1.18166 0
M  V30 4150 O 375.583 1.45129 1.23864 0
M  V30 4151 C 372.723 2.90072 1.86955 0
M  V30 4152 C 371.836 4.08759 1.39786 0
M  V30 4153 C 370.971 4.65787 2.55374 0
M  V30 4154 C 370.01 5.76752 2.04998 0
M  V30 4155 N 369.147 6.28021 3.13901 0
M  V30 4156 H 373.987 2.9779 0.111749 0
M  V30 4157 H 371.524 1.47036 0.0434007 0
M  V30 4158 H 373.482 3.28428 2.57276 0
M  V30 4159 H 372.112 2.15575 2.40265 0
M  V30 4160 H 371.164 3.7581 0.589173 0
M  V30 4161 H 372.476 4.88906 0.98856 0
M  V30 4162 H 371.63 5.06646 3.33758 0
M  V30 4163 H 370.369 3.84828 2.99598 0
M  V30 4164 H 369.374 5.35383 1.25079 0
M  V30 4165 H 370.599 6.59553 1.61759 0
M  V30 4166 H 368.545 5.49971 3.57586 0
M  V30 4167 H 368.462 7.03323 2.7726 0
M  V30 4168 H 369.73 6.73538 3.92386 0
M  V30 4169 N 373.959 -0.0401083 1.57549 0
M  V30 4170 C 375.205 -0.734211 1.89043 0
M  V30 4171 C 375.538 -1.75591 0.829535 0
M  V30 4172 O 374.813 -1.93868 -0.156706 0
M  V30 4173 C 375.096 -1.41374 3.31188 0
M  V30 4174 C 374.949 -0.406299 4.47961 0
M  V30 4175 C 376.268 -2.35061 3.72068 0
M  V30 4176 H 373.387 -0.265447 0.687537 0
M  V30 4177 H 376.029 0.00294087 1.9 0
M  V30 4178 H 374.179 -2.04206 3.30503 0
M  V30 4179 H 375.851 0.219255 4.60779 0
M  V30 4180 H 374.094 0.275485 4.32924 0
M  V30 4181 H 374.765 -0.920022 5.44279 0
M  V30 4182 H 377.241 -1.82282 3.74049 0
M  V30 4183 H 376.117 -2.79593 4.72355 0
M  V30 4184 H 376.378 -3.21258 3.0372 0
M  V30 4185 N 375.437 -1.54477 -0.31217 0
M  V30 4186 C 376.848 -1.64344 -0.885891 0
M  V30 4187 C 377.199 -0.54485 -1.88483 0
M  V30 4188 O 376.324 0.320387 -2.14015 0
M  V30 4189 C 376.919 -2.97908 -1.61357 0
M  V30 4190 C 375.478 -3.09933 -2.13585 0
M  V30 4191 C 374.625 -2.59971 -0.964897 0
M  V30 4192 H 377.576 -1.58448 -0.0894528 0
M  V30 4193 H 377.597 -2.88706 -2.47848 0
M  V30 4194 H 377.109 -3.77845 -0.886277 0
M  V30 4195 H 375.21 -2.34694 -2.89395 0
M  V30 4196 H 375.323 -4.15916 -2.37804 0
M  V30 4197 H 373.687 -2.16147 -1.34731 0
M  V30 4198 H 374.47 -3.42376 -0.251742 0
M  V30 4199 N 376.915 0.57481 -1.46744 0
M  V30 4200 C 378.162 1.33272 -1.52462 0
M  V30 4201 C 378.49 1.93669 -0.179572 0
M  V30 4202 O 377.745 1.7743 0.825664 0
M  V30 4203 C 378.044 2.476 -2.57738 0
M  V30 4204 C 377.71 2.05146 -4.01529 0
M  V30 4205 C 376.372 1.93284 -4.40676 0
M  V30 4206 C 378.724 1.72506 -4.91824 0
M  V30 4207 C 376.052 1.47049 -5.67973 0
M  V30 4208 C 378.404 1.27748 -6.19567 0
M  V30 4209 C 377.068 1.14468 -6.57612 0
M  V30 4210 H 376.338 0.487678 -0.557899 0
M  V30 4211 H 378.985 0.646456 -1.80259 0
M  V30 4212 H 377.29 3.21708 -2.23632 0
M  V30 4213 H 378.987 3.05807 -2.5939 0
M  V30 4214 H 375.577 2.15316 -3.7059 0
M  V30 4215 H 379.761 1.80552 -4.62293 0
M  V30 4216 H 375.017 1.35417 -5.96215 0
M  V30 4217 H 379.191 1.01547 -6.88957 0
M  V30 4218 H 376.818 0.78419 -7.56145 0
M  V30 4219 N 378.394 1.34581 0.820102 0
M  V30 4220 C 379.342 1.26401 1.95258 0
M  V30 4221 C 380.336 0.161553 1.68628 0
M  V30 4222 O 381.542 0.326703 1.7701 0
M  V30 4223 H 377.917 0.392749 0.64129 0
M  V30 4224 H 379.888 2.22105 1.99279 0
M  V30 4225 C 378.637 1.03919 3.31807 0
M  V30 4226 H 377.96 1.87984 3.52848 0
M  V30 4227 H 379.4 1.02232 4.11491 0
M  V30 4228 C 377.859 -0.257433 3.35915 0
M  V30 4229 O 378.389 -1.25784 3.81499 0
M  V30 4230 N 376.595 -0.291524 2.89134 0
M  V30 4231 H 376.142 0.523161 2.52232 0
M  V30 4232 H 376.1 -1.15883 2.92264 0
M  V30 4233 N 379.872 -1.04064 1.18357 0
M  V30 4234 C 381.118 -1.77528 0.980397 0
M  V30 4235 C 381.451 -1.87948 -0.48879 0
M  V30 4236 O 380.726 -1.3876 -1.36293 0
M  V30 4237 C 381.009 -3.20797 1.63588 0
M  V30 4238 C 380.862 -3.1832 3.17793 0
M  V30 4239 C 382.181 -4.18911 1.34914 0
M  V30 4240 H 379.3 -0.644443 0.357578 0
M  V30 4241 H 381.942 -1.2156 1.46024 0
M  V30 4242 H 380.092 -3.68586 1.22788 0
M  V30 4243 H 381.764 -2.78521 3.67728 0
M  V30 4244 H 380.007 -2.56351 3.49952 0
M  V30 4245 H 380.678 -4.19489 3.58794 0
M  V30 4246 H 383.154 -3.7967 1.70265 0
M  V30 4247 H 382.03 -5.17374 1.83346 0
M  V30 4248 H 382.291 -4.41262 0.272027 0
M  V30 4249 N 381.35 -0.985608 -1.22978 0
M  V30 4250 C 382.297 -0.529825 -2.24636 0
M  V30 4251 C 383.267 0.434028 -1.60329 0
M  V30 4252 O 384.452 0.340414 -1.87739 0
M  V30 4253 C 381.592 0.156533 -3.44745 0
M  V30 4254 C 380.705 -0.848197 -4.23591 0
M  V30 4255 C 379.84 -0.136109 -5.31026 0
M  V30 4256 C 378.879 -1.1297 -6.01585 0
M  V30 4257 N 378.016 -0.446415 -7.00679 0
M  V30 4258 H 382.856 -1.40148 -2.62988 0
M  V30 4259 H 380.393 -0.702168 -1.29259 0
M  V30 4260 H 382.351 0.571324 -4.1327 0
M  V30 4261 H 380.981 0.992025 -3.07179 0
M  V30 4262 H 380.033 -1.38135 -3.54433 0
M  V30 4263 H 381.345 -1.60512 -4.72268 0
M  V30 4264 H 380.499 0.335784 -6.0577 0
M  V30 4265 H 379.238 0.653373 -4.83304 0
M  V30 4266 H 378.243 -1.6123 -5.25628 0
M  V30 4267 H 379.468 -1.91993 -6.51395 0
M  V30 4268 H 377.414 0.323763 -6.55201 0
M  V30 4269 H 377.331 -1.1419 -7.47326 0
M  V30 4270 H 378.599 0.00291697 -7.795 0
M  V30 4271 N 382.828 1.3818 -0.7579 0
M  V30 4272 C 384.077 1.99261 -0.312744 0
M  V30 4273 C 384.39 1.60846 1.11301 0
M  V30 4274 O 385.596 2.14929 1.65885 0
M  V30 4275 C 384.052 3.56294 -0.50821 0
M  V30 4276 C 383.66 4.03657 -1.94333 0
M  V30 4277 C 385.404 4.24313 -0.125982 0
M  V30 4278 C 383.311 5.53347 -2.08712 0
M  V30 4279 H 382.241 0.745456 -0.113185 0
M  V30 4280 H 384.892 1.57889 -0.935056 0
M  V30 4281 H 383.274 3.95575 0.183353 0
M  V30 4282 H 384.448 3.75655 -2.66871 0
M  V30 4283 H 382.763 3.48376 -2.28086 0
M  V30 4284 H 385.36 5.34279 -0.212125 0
M  V30 4285 H 385.703 4.05962 0.921964 0
M  V30 4286 H 386.236 3.90285 -0.769563 0
M  V30 4287 H 382.975 5.76607 -3.11777 0
M  V30 4288 H 382.495 5.83078 -1.4064 0
M  V30 4289 H 384.174 6.19111 -1.87912 0
M  V30 4290 N 384.306 0.507319 1.49211 0
M  V30 4291 C 385.536 -0.0315292 2.06576 0
M  V30 4292 C 385.944 -1.30791 1.36713 0
M  V30 4293 O 385.287 -1.78324 0.441181 0
M  V30 4294 C 385.349 -0.349104 3.57801 0
M  V30 4295 C 385.013 0.830475 4.49391 0
M  V30 4296 C 386.01 1.72271 4.90529 0
M  V30 4297 C 383.695 1.03107 4.91604 0
M  V30 4298 C 385.689 2.79964 5.72625 0
M  V30 4299 C 383.376 2.11116 5.73475 0
M  V30 4300 C 384.374 2.99379 6.1389 0
M  V30 4301 O 384.062 4.05523 6.94123 0
M  V30 4302 H 383.794 0.0201002 0.675701 0
M  V30 4303 H 386.348 0.705737 1.92895 0
M  V30 4304 H 384.578 -1.14005 3.69513 0
M  V30 4305 H 386.267 -0.827319 3.97379 0
M  V30 4306 H 387.033 1.57958 4.58557 0
M  V30 4307 H 382.912 0.353417 4.59643 0
M  V30 4308 H 386.456 3.48884 6.04091 0
M  V30 4309 H 382.353 2.25421 6.0486 0
M  V30 4310 H 383.121 4.02953 7.1244 0
M  V30 4311 N 385.784 -1.5574 0.241426 0
M  V30 4312 C 387.195 -1.84842 -0.262755 0
M  V30 4313 C 387.546 -1.16317 -1.58003 0
M  V30 4314 O 386.671 -0.439653 -2.11887 0
M  V30 4315 C 387.266 -3.35332 -0.483523 0
M  V30 4316 C 385.825 -3.6468 -0.931977 0
M  V30 4317 C 384.972 -2.77299 -0.0061151 0
M  V30 4318 H 387.923 -1.51761 0.464129 0
M  V30 4319 H 387.944 -3.56615 -1.32688 0
M  V30 4320 H 387.456 -3.85178 0.47537 0
M  V30 4321 H 385.557 -3.20307 -1.90353 0
M  V30 4322 H 385.67 -4.72498 -0.792628 0
M  V30 4323 H 384.034 -2.49408 -0.516503 0
M  V30 4324 H 384.817 -3.2995 0.948052 0
M  V30 4325 N 387.262 0.0317525 -1.57568 0
M  V30 4326 C 388.49 0.734949 -1.93407 0
M  V30 4327 C 388.905 1.69036 -0.84096 0
M  V30 4328 O 388.262 1.81582 0.182836 0
M  V30 4329 C 388.313 1.49432 -3.29169 0
M  V30 4330 O 388.034 0.577261 -4.3428 0
M  V30 4331 C 389.535 2.29492 -3.79273 0
M  V30 4332 H 386.755 0.206706 -0.638368 0
M  V30 4333 H 389.299 -0.00992046 -2.04498 0
M  V30 4334 H 387.454 2.1911 -3.19483 0
M  V30 4335 H 387.868 1.10952 -5.1263 0
M  V30 4336 H 389.342 2.78172 -4.76785 0
M  V30 4337 H 389.819 3.10794 -3.10328 0
M  V30 4338 H 390.425 1.64894 -3.92033 0
M  V30 4339 N 388.74 1.54641 0.303973 0
M  V30 4340 C 389.989 1.7299 1.03717 0
M  V30 4341 C 390.302 0.521168 1.88529 0
M  V30 4342 O 391.508 0.586408 2.65092 0
M  V30 4343 C 389.964 3.06051 1.89369 0
M  V30 4344 C 389.572 4.34393 1.09574 0
M  V30 4345 C 391.316 3.3376 2.62306 0
M  V30 4346 C 389.223 5.58506 1.94486 0
M  V30 4347 H 388.153 0.64473 0.390947 0
M  V30 4348 H 390.804 1.81124 0.294328 0
M  V30 4349 H 389.186 2.91874 2.67629 0
M  V30 4350 H 390.36 4.59396 0.359485 0
M  V30 4351 H 388.675 4.13597 0.482324 0
M  V30 4352 H 391.272 4.23687 3.26181 0
M  V30 4353 H 391.615 2.52503 3.3098 0
M  V30 4354 H 392.148 3.48894 1.91097 0
M  V30 4355 H 388.887 6.42422 1.30287 0
M  V30 4356 H 388.407 5.37694 2.65792 0
M  V30 4357 H 390.086 5.95651 2.52605 0
M  V30 4358 N 390.218 -0.567019 1.47046 0
M  V30 4359 C 391.465 -1.32462 1.53167 0
M  V30 4360 C 391.793 -1.93571 0.189841 0
M  V30 4361 O 391.048 -1.77865 -0.816243 0
M  V30 4362 C 391.347 -2.4623 2.59047 0
M  V30 4363 C 391.013 -2.03014 4.02612 0
M  V30 4364 C 389.675 -1.90944 4.41694 0
M  V30 4365 C 392.027 -1.69895 4.92732 0
M  V30 4366 C 389.355 -1.44035 5.68745 0
M  V30 4367 C 391.707 -1.2446 6.20236 0
M  V30 4368 C 390.371 -1.10979 6.5821 0
M  V30 4369 H 389.641 -0.484713 0.560477 0
M  V30 4370 H 392.288 -0.636888 1.80599 0
M  V30 4371 H 390.593 -3.20517 2.25335 0
M  V30 4372 H 392.29 -3.04427 2.61008 0
M  V30 4373 H 388.88 -2.13348 3.71726 0
M  V30 4374 H 393.064 -1.78098 4.63244 0
M  V30 4375 H 388.32 -1.32254 5.96925 0
M  V30 4376 H 392.494 -0.978924 6.89485 0
M  V30 4377 H 390.121 -0.744078 7.5655 0
M  V30 4378 N 391.696 -1.35014 -0.812953 0
M  V30 4379 C 392.945 -1.27269 -1.56479 0
M  V30 4380 C 393.258 0.152771 -1.95002 0
M  V30 4381 O 394.464 0.352451 -2.69203 0
M  V30 4382 C 392.92 -2.23159 -2.82362 0
M  V30 4383 C 392.528 -3.71016 -2.511 0
M  V30 4384 C 394.272 -2.24342 -3.60376 0
M  V30 4385 C 392.179 -4.58746 -3.73237 0
M  V30 4386 H 391.109 -0.472829 -0.587324 0
M  V30 4387 H 393.76 -1.6024 -0.894171 0
M  V30 4388 H 392.142 -1.83151 -3.51101 0
M  V30 4389 H 393.316 -4.1962 -1.90409 0
M  V30 4390 H 391.631 -3.72378 -1.86343 0
M  V30 4391 H 394.228 -2.87107 -4.51081 0
M  V30 4392 H 394.571 -1.24542 -3.97234 0
M  V30 4393 H 395.104 -2.62846 -2.98591 0
M  V30 4394 H 391.843 -5.59521 -3.41492 0
M  V30 4395 H 391.363 -4.14871 -4.33176 0
M  V30 4396 H 393.042 -4.73852 -4.40537 0
M  V30 4397 N 393.175 1.03435 -1.18907 0
M  V30 4398 C 394.105 2.13503 -0.945448 0
M  V30 4399 C 395.086 1.69682 0.119189 0
M  V30 4400 O 396.271 1.94169 -0.034707 0
M  V30 4401 C 393.401 3.44004 -0.477316 0
M  V30 4402 C 392.355 4.0148 -1.48316 0
M  V30 4403 C 391.681 5.27537 -0.872311 0
M  V30 4404 C 392.981 4.36921 -2.86177 0
M  V30 4405 H 394.675 2.34141 -1.86597 0
M  V30 4406 H 392.221 1.12523 -0.898584 0
M  V30 4407 H 394.174 4.20372 -0.294204 0
M  V30 4408 H 392.898 3.23072 0.478786 0
M  V30 4409 H 391.557 3.27201 -1.65332 0
M  V30 4410 H 391.205 5.02917 0.0911752 0
M  V30 4411 H 390.905 5.66954 -1.54393 0
M  V30 4412 H 392.429 6.06576 -0.699871 0
M  V30 4413 H 393.843 5.04248 -2.72776 0
M  V30 4414 H 392.24 4.87405 -3.50081 0
M  V30 4415 H 393.31 3.46466 -3.39248 0
M  V30 4416 N 394.653 0.992116 1.22453 0
M  V30 4417 C 395.878 0.685644 1.95739 0
M  V30 4418 C 396.303 -0.743 1.72804 0
M  V30 4419 O 395.661 -1.50778 1.00676 0
M  V30 4420 C 395.709 0.996293 3.46564 0
M  V30 4421 O 394.813 0.0945512 4.12292 0
M  V30 4422 H 394.154 0.256694 0.612376 0
M  V30 4423 H 396.684 1.32888 1.5557 0
M  V30 4424 H 396.694 0.93781 3.97076 0
M  V30 4425 H 395.369 2.03733 3.62582 0
M  V30 4426 H 393.946 0.208451 3.72317 0
M  V30 4427 N 396.131 -1.37776 0.765217 0
M  V30 4428 C 397.542 -1.82521 0.392819 0
M  V30 4429 C 397.893 -1.63789 -1.08017 0
M  V30 4430 O 397.018 -1.14542 -1.83601 0
M  V30 4431 C 397.613 -3.31358 0.706214 0
M  V30 4432 C 396.172 -3.74406 0.386952 0
M  V30 4433 C 395.319 -2.60394 0.953422 0
M  V30 4434 H 398.27 -1.2634 0.960412 0
M  V30 4435 H 398.291 -3.80498 -0.0114706 0
M  V30 4436 H 397.803 -3.44959 1.77833 0
M  V30 4437 H 395.904 -3.66377 -0.678112 0
M  V30 4438 H 396.017 -4.70749 0.890636 0
M  V30 4439 H 394.381 -2.51878 0.378064 0
M  V30 4440 H 395.164 -2.76791 2.03081 0
M  V30 4441 N 397.609 -0.515225 -1.4894 0
M  V30 4442 C 398.886 0.0879088 -1.95402 0
M  V30 4443 C 399.266 1.52745 -1.45712 0
M  V30 4444 O 398.614 2.18238 -0.677093 0
M  V30 4445 C 398.824 -0.0141055 -3.48997 0
M  V30 4446 C 400.172 0.152646 -4.24326 0
M  V30 4447 O 401.196 0.0604025 -3.56149 0
M  V30 4448 O 400.055 0.34384 -5.45417 0
M  V30 4449 H 397.149 0.0874636 -0.822362 0
M  V30 4450 H 399.695 -0.578775 -1.59525 0
M  V30 4451 H 398.467 -1.01745 -3.77841 0
M  V30 4452 H 398.09 0.692091 -3.9153 0
M  V30 4453 N 399.087 1.5561 -0.249682 0
M  V30 4454 C 400.335 1.98618 0.373548 0
M  V30 4455 C 400.656 1.13919 1.58264 0
M  V30 4456 O 399.926 0.222637 1.94631 0
M  V30 4457 H 398.506 0.733571 0.141006 0
M  V30 4458 H 401.168 1.91748 -0.349117 0
M  V30 4459 H 400.264 3.04584 0.680796 0
M  V30 4460 N 400.565 -0.0233959 1.57583 0
M  V30 4461 C 401.793 -0.724682 1.93794 0
M  V30 4462 C 402.208 -1.68588 0.849912 0
M  V30 4463 O 401.565 -1.81676 -0.173204 0
M  V30 4464 C 401.616 -1.47684 3.29957 0
M  V30 4465 O 401.337 -0.554222 4.3458 0
M  V30 4466 C 402.838 -2.27477 3.80485 0
M  V30 4467 H 400.058 -0.203317 0.639455 0
M  V30 4468 H 402.602 0.0207653 2.04489 0
M  V30 4469 H 400.757 -2.17412 3.20641 0
M  V30 4470 H 401.171 -1.08232 5.13212 0
M  V30 4471 H 402.645 -2.7564 4.78254 0
M  V30 4472 H 403.122 -3.09144 3.11972 0
M  V30 4473 H 403.728 -1.62813 3.92902 0
M  V30 4474 N 402.043 -1.548 -0.295768 0
M  V30 4475 C 403.273 -1.78069 -1.04762 0
M  V30 4476 C 403.681 -0.542847 -1.81245 0
M  V30 4477 O 403.024 0.497051 -1.76848 0
M  V30 4478 C 403.086 -2.93881 -2.07061 0
M  V30 4479 C 402.75 -4.31777 -1.49725 0
M  V30 4480 C 403.747 -5.11613 -0.924581 0
M  V30 4481 C 401.432 -4.78389 -1.5313 0
M  V30 4482 C 403.426 -6.36184 -0.393594 0
M  V30 4483 C 401.113 -6.02921 -0.996447 0
M  V30 4484 C 402.111 -6.81654 -0.428569 0
M  V30 4485 O 401.799 -8.0384 0.0981593 0
M  V30 4486 H 401.531 -0.597475 -0.316226 0
M  V30 4487 H 404.085 -2.02584 -0.338973 0
M  V30 4488 H 402.315 -2.65003 -2.81621 0
M  V30 4489 H 404.004 -3.04679 -2.6819 0
M  V30 4490 H 404.77 -4.76743 -0.891136 0
M  V30 4491 H 400.649 -4.17132 -1.9627 0
M  V30 4492 H 404.193 -6.97582 0.0503014 0
M  V30 4493 H 400.09 -6.37277 -1.02706 0
M  V30 4494 H 400.858 -8.18499 -0.0146455 0
M  V30 4495 N 403.521 0.559213 -1.47345 0
M  V30 4496 C 404.453 1.68161 -1.55738 0
M  V30 4497 C 405.466 1.56636 -0.443744 0
M  V30 4498 O 406.655 1.6363 -0.713258 0
M  V30 4499 C 403.755 3.06611 -1.4437 0
M  V30 4500 C 402.928 3.4391 -2.70268 0
M  V30 4501 C 401.987 4.61515 -2.52765 0
M  V30 4502 O 401.013 4.66197 -3.26572 0
M  V30 4503 N 402.215 5.57883 -1.6046 0
M  V30 4504 H 404.98 1.61408 -2.52522 0
M  V30 4505 H 402.541 0.7458 -1.43699 0
M  V30 4506 H 404.533 3.83117 -1.30398 0
M  V30 4507 H 403.103 3.07602 -0.556766 0
M  V30 4508 H 402.323 2.56873 -2.99015 0
M  V30 4509 H 403.611 3.65605 -3.53851 0
M  V30 4510 H 403.009 5.56855 -0.996422 0
M  V30 4511 H 401.566 6.33723 -1.52441 0
M  V30 4512 N 404.999 1.35443 0.805782 0
M  V30 4513 C 405.929 1.31095 1.93226 0
M  V30 4514 C 406.91 0.185244 1.69088 0
M  V30 4515 O 408.095 0.380332 1.90439 0
M  V30 4516 C 405.225 1.08299 3.29983 0
M  V30 4517 C 404.179 2.17519 3.68605 0
M  V30 4518 C 403.505 1.79887 5.03532 0
M  V30 4519 C 404.805 3.5949 3.78898 0
M  V30 4520 H 406.499 2.25352 1.97122 0
M  V30 4521 H 404.045 1.0848 0.946996 0
M  V30 4522 H 405.998 1.03897 4.08391 0
M  V30 4523 H 404.722 0.104885 3.26432 0
M  V30 4524 H 403.381 2.2102 2.92482 0
M  V30 4525 H 403.029 0.80693 4.96485 0
M  V30 4526 H 402.729 2.53001 5.30344 0
M  V30 4527 H 404.253 1.77011 5.84379 0
M  V30 4528 H 405.667 3.58307 4.47536 0
M  V30 4529 H 404.064 4.31371 4.1718 0
M  V30 4530 H 405.134 3.95584 2.80431 0
M  V30 4531 N 406.477 -1.02803 1.19454 0
M  V30 4532 C 407.707 -1.79581 1.02149 0
M  V30 4533 C 408.115 -1.84182 -0.432851 0
M  V30 4534 O 407.458 -1.28534 -1.31243 0
M  V30 4535 C 407.52 -3.25993 1.51554 0
M  V30 4536 C 407.184 -3.45025 2.99678 0
M  V30 4537 C 408.181 -3.35175 3.97434 0
M  V30 4538 C 405.866 -3.71212 3.38389 0
M  V30 4539 C 407.86 -3.51238 5.31893 0
M  V30 4540 C 405.547 -3.8692 4.73008 0
M  V30 4541 C 406.545 -3.76936 5.69569 0
M  V30 4542 O 406.233 -3.92179 7.01748 0
M  V30 4543 H 405.965 -0.571962 0.360327 0
M  V30 4544 H 408.519 -1.30367 1.58725 0
M  V30 4545 H 406.749 -3.76235 0.893543 0
M  V30 4546 H 408.438 -3.84368 1.30444 0
M  V30 4547 H 409.204 -3.14895 3.68872 0
M  V30 4548 H 405.083 -3.78075 2.6378 0
M  V30 4549 H 408.627 -3.43362 6.07247 0
M  V30 4550 H 404.524 -4.06699 5.01265 0
M  V30 4551 H 405.292 -4.09265 7.08833 0
M  V30 4552 N 407.956 -0.998596 -1.21925 0
M  V30 4553 C 409.181 -0.696015 -1.95372 0
M  V30 4554 C 409.606 0.733826 -1.73195 0
M  V30 4555 O 408.964 1.50242 -1.01474 0
M  V30 4556 C 409.012 -1.01466 -3.4603 0
M  V30 4557 O 408.116 -0.116415 -4.12236 0
M  V30 4558 H 407.457 -0.259938 -0.611006 0
M  V30 4559 H 409.987 -1.33711 -1.54863 0
M  V30 4560 H 409.997 -0.958855 -3.96573 0
M  V30 4561 H 408.672 -2.05653 -3.61497 0
M  V30 4562 H 407.249 -0.228193 -3.72201 0
M  V30 4563 N 409.434 1.37368 -0.772513 0
M  V30 4564 C 410.382 2.32134 -0.147111 0
M  V30 4565 C 411.376 1.54972 0.684106 0
M  V30 4566 O 412.582 1.70363 0.581083 0
M  V30 4567 H 408.957 0.751449 -0.028786 0
M  V30 4568 H 410.928 2.82464 -0.962112 0
M  V30 4569 C 409.677 3.40226 0.71703 0
M  V30 4570 H 409 3.99706 0.0867951 0
M  V30 4571 H 410.44 4.08897 1.12159 0
M  V30 4572 C 408.899 2.80372 1.86797 0
M  V30 4573 O 409.429 2.71183 2.96349 0
M  V30 4574 N 407.635 2.37904 1.66883 0
M  V30 4575 H 407.182 2.45578 0.777759 0
M  V30 4576 H 407.14 1.98202 2.44056 0
M  V30 4577 N 410.912 0.523116 1.48665 0
M  V30 4578 C 412.161 -0.01544 2.01694 0
M  V30 4579 C 412.474 -1.35975 1.40606 0
M  V30 4580 O 413.68 -1.98627 1.85093 0
M  V30 4581 C 412.136 -0.0779303 3.59816 0
M  V30 4582 C 411.744 1.26107 4.29885 0
M  V30 4583 C 413.488 -0.565678 4.20714 0
M  V30 4584 C 411.395 1.15954 5.79921 0
M  V30 4585 H 410.325 -0.00954163 0.75394 0
M  V30 4586 H 412.976 0.665865 1.70993 0
M  V30 4587 H 411.358 -0.824165 3.87329 0
M  V30 4588 H 412.532 2.02233 4.14051 0
M  V30 4589 H 410.847 1.68401 3.80828 0
M  V30 4590 H 413.444 -0.6595 5.30617 0
M  V30 4591 H 413.787 -1.56984 3.85567 0
M  V30 4592 H 414.32 0.12467 3.97605 0
M  V30 4593 H 411.059 2.13864 6.19631 0
M  V30 4594 H 410.579 0.439529 5.98187 0
M  V30 4595 H 412.258 0.847361 6.41427 0
M  V30 4596 N 412.39 -1.55475 0.257931 0
M  V30 4597 C 413.637 -1.99207 -0.363728 0
M  V30 4598 C 413.965 -1.1462 -1.57139 0
M  V30 4599 O 413.22 -0.199653 -1.94679 0
M  V30 4600 C 413.519 -3.48183 -0.806433 0
M  V30 4601 C 413.185 -4.49936 0.294684 0
M  V30 4602 C 411.847 -4.77481 0.597076 0
M  V30 4603 C 414.199 -5.10769 1.03751 0
M  V30 4604 C 411.527 -5.63132 1.64618 0
M  V30 4605 C 413.879 -5.97558 2.07622 0
M  V30 4606 C 412.543 -6.23432 2.38514 0
M  V30 4607 H 411.813 -0.728949 -0.133097 0
M  V30 4608 H 414.46 -1.8793 0.368059 0
M  V30 4609 H 412.765 -3.56848 -1.61761 0
M  V30 4610 H 414.462 -3.79415 -1.29789 0
M  V30 4611 H 411.052 -4.28572 0.0488649 0
M  V30 4612 H 415.236 -4.89527 0.817149 0
M  V30 4613 H 410.492 -5.8143 1.89074 0
M  V30 4614 H 414.666 -6.43735 2.65666 0
M  V30 4615 H 412.293 -6.89594 3.19943 0
M  V30 4616 N 413.868 0.0150385 -1.57593 0
M  V30 4617 C 414.816 1.02958 -2.08572 0
M  V30 4618 C 415.81 1.36554 -1.00246 0
M  V30 4619 O 417.016 1.35295 -1.18724 0
M  V30 4620 H 413.391 0.349619 -0.665786 0
M  V30 4621 H 415.362 0.573932 -2.92829 0
M  V30 4622 C 414.111 2.31752 -2.59203 0
M  V30 4623 H 413.434 2.06765 -3.42182 0
M  V30 4624 H 414.874 3.01053 -2.98568 0
M  V30 4625 C 413.333 3.01692 -1.49945 0
M  V30 4626 O 413.863 3.92083 -0.873704 0
M  V30 4627 N 412.069 2.6326 -1.23056 0
M  V30 4628 H 411.616 1.89838 -1.74125 0
M  V30 4629 H 411.574 3.10372 -0.501685 0
M  V30 4630 N 415.346 1.54954 0.287554 0
M  V30 4631 C 416.309 1.86076 1.33823 0
M  V30 4632 C 417.309 0.734414 1.43049 0
M  V30 4633 O 418.499 1.00266 1.42452 0
M  V30 4634 C 415.631 2.05305 2.72144 0
M  V30 4635 H 416.824 2.79984 1.07465 0
M  V30 4636 H 414.377 1.47223 0.524902 0
M  V30 4637 H 415.112 1.1373 3.03704 0
M  V30 4638 H 414.897 2.873 2.66836 0
M  V30 4639 H 416.387 2.30706 3.48087 0
M  V30 4640 N 416.824 -0.551391 1.4764 0
M  V30 4641 C 418.052 -1.33357 1.58189 0
M  V30 4642 C 418.467 -1.87342 0.234199 0
M  V30 4643 O 417.824 -1.65301 -0.77343 0
M  V30 4644 C 417.875 -2.49942 2.61173 0
M  V30 4645 O 417.596 -1.98187 3.90709 0
M  V30 4646 C 419.097 -3.42072 2.8196 0
M  V30 4647 H 416.317 -0.40631 0.533998 0
M  V30 4648 H 418.861 -0.667367 1.93304 0
M  V30 4649 H 417.016 -3.12489 2.28975 0
M  V30 4650 H 417.43 -2.74342 4.47031 0
M  V30 4651 H 418.904 -4.20278 3.57869 0
M  V30 4652 H 419.381 -3.95978 1.89995 0
M  V30 4653 H 419.987 -2.85336 3.15378 0
M  V30 4654 N 418.302 -1.35869 -0.798587 0
M  V30 4655 C 419.527 -1.32883 -1.59238 0
M  V30 4656 C 419.952 0.0894587 -1.87887 0
M  V30 4657 O 419.31 1.05869 -1.47178 0
M  V30 4658 C 419.358 -2.14892 -2.89575 0
M  V30 4659 O 418.462 -1.53512 -3.82763 0
M  V30 4660 H 417.803 -0.455236 -0.48338 0
M  V30 4661 H 420.333 -1.79024 -0.990539 0
M  V30 4662 H 420.343 -2.27139 -3.38928 0
M  V30 4663 H 419.018 -3.17998 -2.68049 0
M  V30 4664 H 417.595 -1.50153 -3.41334 0
M  V30 4665 N 419.78 1.02168 -1.19998 0
M  V30 4666 C 420.727 2.10601 -0.944228 0
M  V30 4667 C 421.697 1.65639 0.123664 0
M  V30 4668 O 422.882 1.9079 -0.0199941 0
M  V30 4669 C 420.022 3.41504 -0.496865 0
M  V30 4670 C 419.135 3.99973 -1.63234 0
M  V30 4671 C 418.27 5.18915 -1.13579 0
M  V30 4672 C 417.309 5.69456 -2.24468 0
M  V30 4673 N 416.446 6.79665 -1.76068 0
M  V30 4674 H 421.286 2.31814 -1.8726 0
M  V30 4675 H 418.823 1.13686 -0.933483 0
M  V30 4676 H 420.781 4.16626 -0.218843 0
M  V30 4677 H 419.411 3.2038 0.394508 0
M  V30 4678 H 418.463 3.21997 -2.0254 0
M  V30 4679 H 419.775 4.33492 -2.46752 0
M  V30 4680 H 418.929 6.01222 -0.813429 0
M  V30 4681 H 417.668 4.8695 -0.270434 0
M  V30 4682 H 416.673 4.85757 -2.57526 0
M  V30 4683 H 417.898 6.03459 -3.11472 0
M  V30 4684 H 415.844 6.49538 -0.918516 0
M  V30 4685 H 415.761 7.12349 -2.5317 0
M  V30 4686 H 417.029 7.65549 -1.46817 0
M  V30 4687 N 421.258 1.00505 1.21394 0
M  V30 4688 C 422.535 0.603277 1.86064 0
M  V30 4689 C 422.915 -0.919095 1.90042 0
M  V30 4690 O 422.263 -1.80607 1.39977 0
M  V30 4691 C 422.473 1.23772 3.26315 0
M  V30 4692 C 423.821 1.34586 4.02705 0
M  V30 4693 O 424.845 1.19304 3.35626 0
M  V30 4694 O 423.704 1.59169 5.22807 0
M  V30 4695 H 420.798 0.206634 0.800769 0
M  V30 4696 H 423.344 1.1017 1.29076 0
M  V30 4697 H 422.116 2.27848 3.18121 0
M  V30 4698 H 421.739 0.725648 3.90922 0
M  V30 4699 N 422.737 -1.36956 0.779787 0
M  V30 4700 C 423.984 -1.99491 0.347766 0
M  V30 4701 C 424.312 -1.61898 -1.07793 0
M  V30 4702 O 423.567 -0.86071 -1.75756 0
M  V30 4703 C 423.866 -3.54585 0.447686 0
M  V30 4704 C 423.532 -4.1197 1.83279 0
M  V30 4705 C 422.194 -4.27356 2.2118 0
M  V30 4706 C 424.546 -4.43354 2.74019 0
M  V30 4707 C 421.874 -4.71432 3.4924 0
M  V30 4708 C 424.226 -4.88858 4.01497 0
M  V30 4709 C 422.89 -5.0245 4.39432 0
M  V30 4710 H 422.16 -0.729991 0.127257 0
M  V30 4711 H 424.807 -1.63599 0.995376 0
M  V30 4712 H 423.112 -3.90773 -0.283447 0
M  V30 4713 H 424.809 -4.00888 0.0945948 0
M  V30 4714 H 421.399 -4.00428 1.52825 0
M  V30 4715 H 425.583 -4.31045 2.45995 0
M  V30 4716 H 420.839 -4.80141 3.78516 0
M  V30 4717 H 425.013 -5.12108 4.71931 0
M  V30 4718 H 422.64 -5.36362 5.38721 0
M  V30 4719 N 424.215 -0.530993 -1.48385 0
M  V30 4720 C 425.147 0.268353 -2.27624 0
M  V30 4721 C 426.16 0.903525 -1.35426 0
M  V30 4722 O 427.349 0.781796 -1.60469 0
M  V30 4723 C 424.449 1.39535 -3.08842 0
M  V30 4724 C 423.622 0.861913 -4.28824 0
M  V30 4725 C 422.681 1.87016 -4.91845 0
M  V30 4726 O 421.707 1.4267 -5.5103 0
M  V30 4727 N 422.909 3.20238 -4.84178 0
M  V30 4728 H 425.674 -0.41123 -2.96865 0
M  V30 4729 H 423.235 -0.365387 -1.57723 0
M  V30 4730 H 425.227 2.06803 -3.47871 0
M  V30 4731 H 423.797 1.97859 -2.42014 0
M  V30 4732 H 423.017 0.0132126 -3.94198 0
M  V30 4733 H 424.305 0.484415 -5.06489 0
M  V30 4734 H 423.703 3.58932 -4.37246 0
M  V30 4735 H 422.26 3.83136 -5.27305 0
M  V30 4736 N 425.693 1.55336 -0.266172 0
M  V30 4737 C 426.641 2.23587 0.641228 0
M  V30 4738 C 427.635 1.22986 1.16494 0
M  V30 4739 O 428.841 1.40943 1.1196 0
M  V30 4740 H 425.216 0.717452 0.225315 0
M  V30 4741 H 427.187 2.9837 0.0426561 0
M  V30 4742 C 425.936 2.96369 1.81826 0
M  V30 4743 H 425.259 3.73563 1.42445 0
M  V30 4744 H 426.699 3.47459 2.42998 0
M  V30 4745 C 425.158 2.0133 2.70125 0
M  V30 4746 O 425.688 1.55875 3.70224 0
M  V30 4747 N 423.894 1.6802 2.37102 0
M  V30 4748 H 423.441 2.05181 1.55751 0
M  V30 4749 H 423.399 1.047 2.96454 0
M  V30 4750 N 427.171 -0.0066808 1.57599 0
M  V30 4751 C 428.418 -0.69292 1.90276 0
M  V30 4752 C 428.746 -1.74148 0.866192 0
M  V30 4753 O 428.001 -1.95268 -0.129933 0
M  V30 4754 C 428.3 -1.37939 3.29708 0
M  V30 4755 C 427.966 -0.464679 4.48499 0
M  V30 4756 C 426.628 -0.212809 4.80729 0
M  V30 4757 C 428.98 0.16551 5.20937 0
M  V30 4758 C 426.308 0.677653 5.82773 0
M  V30 4759 C 428.66 1.04381 6.23929 0
M  V30 4760 C 427.324 1.30492 6.54621 0
M  V30 4761 H 426.594 -0.253558 0.696268 0
M  V30 4762 H 429.241 0.0474123 1.91441 0
M  V30 4763 H 427.546 -2.1936 3.24636 0
M  V30 4764 H 429.243 -1.9163 3.52249 0
M  V30 4765 H 425.833 -0.671153 4.23313 0
M  V30 4766 H 430.017 -0.0160756 4.96297 0
M  V30 4767 H 425.273 0.88803 6.04917 0
M  V30 4768 H 429.447 1.53851 6.79193 0
M  V30 4769 H 427.074 1.99662 7.33512 0
M  V30 4770 N 428.649 -1.55105 -0.279332 0
M  V30 4771 C 429.898 -1.74618 -1.00952 0
M  V30 4772 C 430.211 -0.551096 -1.87676 0
M  V30 4773 O 431.417 -0.628507 -2.64125 0
M  V30 4774 C 429.873 -3.09025 -1.84476 0
M  V30 4775 C 429.481 -4.36081 -1.0265 0
M  V30 4776 C 431.225 -3.37891 -2.56963 0
M  V30 4777 C 429.132 -5.6153 -1.85576 0
M  V30 4778 H 428.062 -0.650868 -0.38064 0
M  V30 4779 H 430.713 -1.81569 -0.265475 0
M  V30 4780 H 429.095 -2.96095 -2.62952 0
M  V30 4781 H 430.269 -4.59909 -0.286354 0
M  V30 4782 H 428.584 -4.14312 -0.416464 0
M  V30 4783 H 431.181 -4.28822 -3.19399 0
M  V30 4784 H 431.524 -2.57737 -3.26921 0
M  V30 4785 H 432.057 -3.5189 -1.85522 0
M  V30 4786 H 428.796 -6.44413 -1.2005 0
M  V30 4787 H 428.316 -5.41854 -2.57204 0
M  V30 4788 H 429.995 -5.99594 -2.43096 0
M  V30 4789 N 430.127 0.543554 -1.4793 0
M  V30 4790 C 431.355 1.32516 -1.58894 0
M  V30 4791 C 431.77 1.87215 -0.244131 0
M  V30 4792 O 431.127 1.65709 0.764652 0
M  V30 4793 C 431.178 2.48554 -2.62494 0
M  V30 4794 O 430.899 1.96112 -3.91755 0
M  V30 4795 C 432.4 3.40572 -2.8377 0
M  V30 4796 H 429.62 0.403472 -0.536145 0
M  V30 4797 H 432.164 0.657106 -1.93655 0
M  V30 4798 H 430.319 3.1127 -2.30629 0
M  V30 4799 H 430.733 2.71967 -4.4848 0
M  V30 4800 H 432.207 4.18375 -3.60093 0
M  V30 4801 H 432.684 3.94965 -1.92092 0
M  V30 4802 H 433.29 2.8366 -3.16887 0
M  V30 4803 N 431.605 1.3629 0.791371 0
M  V30 4804 C 432.83 1.33726 1.58531 0
M  V30 4805 C 433.255 -0.0794933 1.87932 0
M  V30 4806 O 432.613 -1.05087 1.47738 0
M  V30 4807 C 432.661 2.16425 2.88431 0
M  V30 4808 O 431.765 1.5554 3.81944 0
M  V30 4809 H 431.106 0.457793 0.480959 0
M  V30 4810 H 433.636 1.79547 0.981031 0
M  V30 4811 H 433.646 2.28933 3.37718 0
M  V30 4812 H 432.321 3.19415 2.66359 0
M  V30 4813 H 430.898 1.51961 3.40532 0
M  V30 4814 N 433.083 -1.0153 1.20538 0
M  V30 4815 C 434.031 -2.12215 0.952235 0
M  V30 4816 C 435.025 -1.69123 -0.0968735 0
M  V30 4817 O 436.231 -1.7992 0.0536006 0
M  V30 4818 H 432.606 -0.693576 0.290613 0
M  V30 4819 H 434.577 -2.3075 1.89201 0
M  V30 4820 C 433.326 -3.43755 0.522287 0
M  V30 4821 H 432.649 -3.7734 1.32115 0
M  V30 4822 H 434.089 -4.22254 0.384389 0
M  V30 4823 C 432.548 -3.28088 -0.765489 0
M  V30 4824 O 433.078 -3.57921 -1.8236 0
M  V30 4825 N 431.284 -2.81333 -0.728011 0
M  V30 4826 H 430.831 -2.57255 0.133332 0
M  V30 4827 H 430.789 -2.71232 -1.58999 0
M  V30 4828 N 434.561 -1.01147 -1.20859 0
M  V30 4829 C 435.791 -0.715872 -1.93801 0
M  V30 4830 C 436.199 0.726592 -1.74692 0
M  V30 4831 O 435.542 1.50397 -1.05482 0
M  V30 4832 C 435.604 -0.965269 -3.46299 0
M  V30 4833 C 435.268 -2.39584 -3.89164 0
M  V30 4834 C 436.265 -3.3764 -3.95342 0
M  V30 4835 C 433.95 -2.73522 -4.21297 0
M  V30 4836 C 435.944 -4.67698 -4.33056 0
M  V30 4837 C 433.631 -4.03794 -4.58687 0
M  V30 4838 C 434.629 -5.00693 -4.64538 0
M  V30 4839 O 434.317 -6.28635 -5.01072 0
M  V30 4840 H 434.049 -0.262524 -0.622942 0
M  V30 4841 H 436.603 -1.35413 -1.54443 0
M  V30 4842 H 434.833 -0.269847 -3.85757 0
M  V30 4843 H 436.522 -0.662051 -4.00464 0
M  V30 4844 H 437.288 -3.12757 -3.70686 0
M  V30 4845 H 433.167 -1.9879 -4.15937 0
M  V30 4846 H 436.711 -5.4333 -4.37537 0
M  V30 4847 H 432.608 -4.28459 -4.82797 0
M  V30 4848 H 433.376 -6.32847 -5.19083 0
M  V30 4849 N 436.039 1.36541 -0.78704 0
M  V30 4850 C 437.45 1.81873 -0.421807 0
M  V30 4851 C 437.801 1.65487 1.05397 0
M  V30 4852 O 436.926 1.17448 1.81755 0
M  V30 4853 C 437.521 3.30192 -0.758841 0
M  V30 4854 C 436.08 3.73743 -0.446468 0
M  V30 4855 C 435.227 2.58844 -0.994728 0
M  V30 4856 H 438.178 1.24796 -0.98039 0
M  V30 4857 H 438.199 3.80468 -0.0490648 0
M  V30 4858 H 437.711 3.42087 -1.83299 0
M  V30 4859 H 435.812 3.6741 0.619739 0
M  V30 4860 H 435.925 4.69272 -0.965415 0
M  V30 4861 H 434.289 2.51245 -0.418087 0
M  V30 4862 H 435.072 2.73525 -2.07458 0
M  V30 4863 N 437.518 0.538854 1.48102 0
M  V30 4864 C 438.466 -0.232325 2.31437 0
M  V30 4865 C 439.46 -0.927004 1.41785 0
M  V30 4866 O 440.666 -0.850378 1.58646 0
M  V30 4867 H 437.041 -0.0937916 0.746128 0
M  V30 4868 H 439.012 0.489986 2.9435 0
M  V30 4869 C 437.761 -1.26074 3.24038 0
M  V30 4870 H 437.084 -0.735609 3.92974 0
M  V30 4871 H 438.524 -1.77157 3.85216 0
M  V30 4872 C 436.983 -2.29902 2.46265 0
M  V30 4873 O 437.513 -3.36502 2.19384 0
M  V30 4874 N 435.719 -2.03348 2.07601 0
M  V30 4875 H 435.266 -1.16675 2.29662 0
M  V30 4876 H 435.224 -2.73038 1.55877 0
M  V30 4877 N 438.996 -1.55193 0.274407 0
M  V30 4878 C 439.944 -2.23924 -0.629362 0
M  V30 4879 C 440.938 -1.23602 -1.1584 0
M  V30 4880 O 442.144 -1.41535 -1.11211 0
M  V30 4881 H 438.519 -0.718637 -0.221507 0
M  V30 4882 H 440.49 -2.98388 -0.0268322 0
M  V30 4883 C 439.239 -2.97329 -1.80252 0
M  V30 4884 H 438.562 -3.74313 -1.40462 0
M  V30 4885 H 440.002 -3.48743 -2.41152 0
M  V30 4886 C 438.461 -2.0276 -2.69054 0
M  V30 4887 O 438.991 -1.57836 -3.69392 0
M  V30 4888 N 437.197 -1.69275 -2.36208 0
M  V30 4889 H 436.744 -2.06004 -1.54661 0
M  V30 4890 H 436.702 -1.06271 -2.95895 0
M  V30 4891 N 440.474 -0.00167713 -1.576 0
M  V30 4892 C 441.723 0.682021 -1.89819 0
M  V30 4893 C 442.036 1.74844 -0.876871 0
M  V30 4894 O 443.242 2.48688 -1.08934 0
M  V30 4895 C 441.698 1.26425 -3.36964 0
M  V30 4896 C 441.306 0.232568 -4.47396 0
M  V30 4897 C 443.05 1.92604 -3.78291 0
M  V30 4898 C 440.957 0.824882 -5.85619 0
M  V30 4899 H 439.887 0.258499 -0.708304 0
M  V30 4900 H 442.538 -0.0624957 -1.83394 0
M  V30 4901 H 440.92 2.05949 -3.38232 0
M  V30 4902 H 442.094 -0.5382 -4.57646 0
M  V30 4903 H 440.409 -0.32888 -4.15099 0
M  V30 4904 H 443.006 2.37827 -4.78897 0
M  V30 4905 H 443.349 2.75732 -3.11894 0
M  V30 4906 H 443.882 1.19812 -3.79328 0
M  V30 4907 H 440.621 0.0323542 -6.55492 0
M  V30 4908 H 440.141 1.56477 -5.79029 0
M  V30 4909 H 441.82 1.32301 -6.33329 0
M  V30 4910 N 441.952 1.55251 0.271103 0
M  V30 4911 C 443.182 1.79713 1.01916 0
M  V30 4912 C 443.59 0.571613 1.80359 0
M  V30 4913 O 442.933 -0.468853 1.77616 0
M  V30 4914 C 442.995 2.97138 2.02359 0
M  V30 4915 C 442.659 4.34104 1.42837 0
M  V30 4916 C 443.656 5.13019 0.843071 0
M  V30 4917 C 441.341 4.80765 1.455 0
M  V30 4918 C 443.335 6.36729 0.292333 0
M  V30 4919 C 441.022 6.0443 0.900402 0
M  V30 4920 C 442.02 6.8225 0.32007 0
M  V30 4921 O 441.708 8.03582 -0.226031 0
M  V30 4922 H 441.44 0.602431 0.306681 0
M  V30 4923 H 443.994 2.03097 0.306701 0
M  V30 4924 H 442.224 2.6945 2.77369 0
M  V30 4925 H 443.913 3.08907 2.63309 0
M  V30 4926 H 444.679 4.781 0.815178 0
M  V30 4927 H 440.558 4.20202 1.89609 0
M  V30 4928 H 444.102 6.97414 -0.161274 0
M  V30 4929 H 439.999 6.3883 0.925541 0
M  V30 4930 H 440.767 8.18418 -0.115572 0
M  V30 4931 N 443.43 -0.535701 1.48216 0
M  V30 4932 C 444.707 -1.29683 1.46429 0
M  V30 4933 C 445.087 -2.10391 0.172852 0
M  V30 4934 O 444.435 -2.12282 -0.845488 0
M  V30 4935 C 444.645 -2.18313 2.72287 0
M  V30 4936 C 445.993 -2.78639 3.20383 0
M  V30 4937 O 447.017 -2.28604 2.73164 0
M  V30 4938 O 445.876 -3.69636 4.02531 0
M  V30 4939 H 442.97 -0.585026 0.584529 0
M  V30 4940 H 445.516 -0.552827 1.60443 0
M  V30 4941 H 444.288 -1.58421 3.57797 0
M  V30 4942 H 443.911 -2.99971 2.60966 0
M  V30 4943 N 444.908 -1.36708 -0.784132 0
M  V30 4944 C 445.838 -1.34153 -1.91116 0
M  V30 4945 C 446.819 -0.212121 -1.68772 0
M  V30 4946 O 448.004 -0.410581 -1.8981 0
M  V30 4947 C 445.134 -1.13535 -3.28218 0
M  V30 4948 C 444.088 -2.23356 -3.65097 0
M  V30 4949 C 443.414 -1.87875 -5.00607 0
M  V30 4950 C 444.714 -3.65473 -3.73131 0
M  V30 4951 H 446.408 -2.28459 -1.93512 0
M  V30 4952 H 443.954 -1.09973 -0.929618 0
M  V30 4953 H 445.907 -1.10381 -4.06687 0
M  V30 4954 H 444.631 -0.156804 -3.26223 0
M  V30 4955 H 443.29 -2.25645 -2.88929 0
M  V30 4956 H 442.938 -0.885814 -4.95139 0
M  V30 4957 H 442.638 -2.61406 -5.26252 0
M  V30 4958 H 444.162 -1.86286 -5.81489 0
M  V30 4959 H 445.576 -3.65382 -4.41779 0
M  V30 4960 H 443.973 -4.37953 -4.10265 0
M  V30 4961 H 445.043 -3.99995 -2.74102 0
M  V30 4962 N 446.386 1.0089 -1.21074 0
M  V30 4963 C 447.333 2.09588 -0.966512 0
M  V30 4964 C 448.303 1.65761 0.106089 0
M  V30 4965 O 449.488 1.90758 -0.0402287 0
M  V30 4966 C 446.628 3.40958 -0.533058 0
M  V30 4967 C 445.741 3.9822 -1.67467 0
M  V30 4968 C 444.876 5.17682 -1.19076 0
M  V30 4969 C 443.915 5.67043 -2.30496 0
M  V30 4970 N 443.052 6.77759 -1.83267 0
M  V30 4971 H 447.892 2.29815 -1.89708 0
M  V30 4972 H 445.429 1.12689 -0.945489 0
M  V30 4973 H 447.387 4.1637 -0.263019 0
M  V30 4974 H 446.017 3.20781 0.360505 0
M  V30 4975 H 445.069 3.1983 -2.05944 0
M  V30 4976 H 446.381 4.3085 -2.51336 0
M  V30 4977 H 445.535 6.00326 -0.877151 0
M  V30 4978 H 444.274 4.86635 -0.322066 0
M  V30 4979 H 443.279 4.82999 -2.62664 0
M  V30 4980 H 444.504 6.00121 -3.17855 0
M  V30 4981 H 442.45 6.48527 -0.987356 0
M  V30 4982 H 442.367 7.09624 -2.60711 0
M  V30 4983 H 443.635 7.63949 -1.54928 0
M  V30 4984 N 447.864 1.01787 1.20321 0
M  V30 4985 C 448.797 0.533882 2.21867 0
M  V30 4986 C 449.775 -0.419361 1.57099 0
M  V30 4987 O 450.959 -0.339062 1.85426 0
M  V30 4988 C 448.086 -0.222899 3.37966 0
M  V30 4989 C 447.132 0.680091 4.21043 0
M  V30 4990 S 447.965 2.14997 4.90445 0
M  V30 4991 C 449.121 1.40339 6.09964 0
M  V30 4992 H 449.354 1.39429 2.62577 0
M  V30 4993 H 446.887 0.826867 1.30393 0
M  V30 4994 H 448.845 -0.653425 4.05266 0
M  V30 4995 H 447.506 -1.0589 2.95713 0
M  V30 4996 H 446.699 0.0964704 5.03908 0
M  V30 4997 H 446.301 1.04845 3.59004 0
M  V30 4998 H 448.593 0.68407 6.74038 0
M  V30 4999 H 449.536 2.20823 6.72787 0
M  V30 5000 H 449.944 0.905716 5.57187 0
M  V30 5001 N 449.342 -1.36122 0.79427 0
M  V30 5002 C 450.272 -2.32551 0.210328 0
M  V30 5003 C 451.253 -1.56884 -0.657386 0
M  V30 5004 O 452.438 -1.85014 -0.590207 0
M  V30 5005 C 449.568 -3.41128 -0.651819 0
M  V30 5006 C 448.522 -4.27842 0.116395 0
M  V30 5007 C 447.848 -5.2763 -0.86666 0
M  V30 5008 C 449.148 -5.05647 1.30837 0
M  V30 5009 H 450.842 -2.81636 1.01594 0
M  V30 5010 H 448.388 -1.35407 0.489981 0
M  V30 5011 H 450.341 -4.07581 -1.07031 0
M  V30 5012 H 449.065 -2.90622 -1.49019 0
M  V30 5013 H 447.724 -3.62952 0.515915 0
M  V30 5014 H 447.372 -4.73395 -1.70019 0
M  V30 5015 H 447.072 -5.86514 -0.35705 0
M  V30 5016 H 448.596 -5.96955 -1.28361 0
M  V30 5017 H 450.01 -5.65113 0.965393 0
M  V30 5018 H 448.407 -5.73967 1.75161 0
M  V30 5019 H 449.477 -4.37006 2.10128 0
M  V30 5020 N 450.82 -0.546701 -1.47814 0
M  V30 5021 C 451.768 0.220048 -2.31557 0
M  V30 5022 C 452.762 0.919472 -1.42275 0
M  V30 5023 O 453.968 0.841953 -1.59095 0
M  V30 5024 H 450.343 0.0898334 -0.746615 0
M  V30 5025 H 452.314 -0.505589 -2.94086 0
M  V30 5026 C 451.063 1.24353 -3.24702 0
M  V30 5027 H 450.386 0.714758 -3.93359 0
M  V30 5028 H 451.826 1.75112 -3.8615 0
M  V30 5029 C 450.285 2.28593 -2.47481 0
M  V30 5030 O 450.815 3.35334 -2.21165 0
M  V30 5031 N 449.021 2.02244 -2.08676 0
M  V30 5032 H 448.568 1.15455 -2.30278 0
M  V30 5033 H 448.526 2.72207 -1.57323 0
M  V30 5034 N 452.299 1.55045 -0.282633 0
M  V30 5035 C 453.576 1.9179 0.384166 0
M  V30 5036 C 453.956 1.20778 1.73136 0
M  V30 5037 O 453.304 0.33719 2.25998 0
M  V30 5038 C 453.514 3.45149 0.517014 0
M  V30 5039 C 454.862 4.17064 0.796427 0
M  V30 5040 O 455.886 3.51084 0.601535 0
M  V30 5041 O 454.745 5.33837 1.16962 0
M  V30 5042 H 451.839 0.799483 0.211558 0
M  V30 5043 H 454.385 1.66474 -0.32934 0
M  V30 5044 H 453.157 3.88922 -0.430772 0
M  V30 5045 H 452.78 3.76443 1.2797 0
M  V30 5046 N 453.777 0.010035 1.57597 0
M  V30 5047 C 454.74 -0.963029 2.07986 0
M  V30 5048 C 455.74 -1.26619 0.991173 0
M  V30 5049 O 456.93 -1.2097 1.25347 0
M  V30 5050 C 454.062 -2.2851 2.52974 0
M  V30 5051 H 455.255 -0.526971 2.95234 0
M  V30 5052 H 452.808 -0.237639 1.54483 0
M  V30 5053 H 453.543 -2.76784 1.69 0
M  V30 5054 H 453.328 -2.07824 3.32493 0
M  V30 5055 H 454.818 -2.98294 2.9225 0
M  V30 5056 N 455.255 -1.55392 -0.262866 0
M  V30 5057 C 456.185 -1.91978 -1.32917 0
M  V30 5058 C 457.166 -0.7828 -1.51017 0
M  V30 5059 O 458.351 -1.04178 -1.63892 0
M  V30 5060 C 455.481 -2.20055 -2.68687 0
M  V30 5061 C 454.435 -3.35854 -2.65304 0
M  V30 5062 C 453.761 -3.49435 -4.04721 0
M  V30 5063 C 455.061 -4.71977 -2.23685 0
M  V30 5064 H 456.755 -2.81292 -1.02544 0
M  V30 5065 H 454.301 -1.3534 -0.491846 0
M  V30 5066 H 456.254 -2.44237 -3.43404 0
M  V30 5067 H 454.978 -1.27551 -3.00663 0
M  V30 5068 H 453.637 -3.11655 -1.93045 0
M  V30 5069 H 453.285 -2.54379 -4.33936 0
M  V30 5070 H 452.985 -4.27297 -4.0335 0
M  V30 5071 H 454.509 -3.7592 -4.81161 0
M  V30 5072 H 455.923 -4.95637 -2.88127 0
M  V30 5073 H 454.32 -5.52828 -2.33456 0
M  V30 5074 H 455.39 -4.70115 -1.18827 0
M  V30 5075 N 456.733 0.527833 -1.48498 0
M  V30 5076 C 457.963 1.30633 -1.60058 0
M  V30 5077 C 458.371 1.87394 -0.260786 0
M  V30 5078 O 457.714 1.67227 0.760317 0
M  V30 5079 C 457.776 2.49361 -2.58958 0
M  V30 5080 C 457.44 2.13671 -4.03972 0
M  V30 5081 C 458.437 1.69217 -4.91591 0
M  V30 5082 C 456.122 2.24129 -4.49524 0
M  V30 5083 C 458.116 1.35689 -6.2279 0
M  V30 5084 C 455.803 1.90212 -5.80743 0
M  V30 5085 C 456.801 1.46063 -6.67199 0
M  V30 5086 O 456.489 1.12593 -7.95976 0
M  V30 5087 H 456.221 0.403444 -0.54241 0
M  V30 5088 H 458.775 0.643233 -1.95068 0
M  V30 5089 H 457.005 3.18659 -2.19073 0
M  V30 5090 H 458.694 3.11421 -2.6033 0
M  V30 5091 H 459.46 1.60607 -4.57636 0
M  V30 5092 H 455.339 2.57447 -3.82416 0
M  V30 5093 H 458.883 1.01157 -6.90227 0
M  V30 5094 H 454.78 1.98464 -6.14233 0
M  V30 5095 H 455.548 1.25972 -8.08748 0
M  V30 5096 N 458.211 1.37122 0.776871 0
M  V30 5097 C 459.158 1.3247 1.88998 0
M  V30 5098 C 460.128 0.191143 1.64997 0
M  V30 5099 O 461.313 0.379683 1.86984 0
M  V30 5100 C 458.453 1.13241 3.25992 0
M  V30 5101 C 457.566 2.35782 3.61982 0
M  V30 5102 C 456.701 2.09465 4.88158 0
M  V30 5103 C 455.74 3.279 5.16864 0
M  V30 5104 N 454.877 3.01167 6.34226 0
M  V30 5105 H 459.717 2.27642 1.9231 0
M  V30 5106 H 457.254 1.13125 0.94027 0
M  V30 5107 H 459.212 1.00115 4.0501 0
M  V30 5108 H 457.842 0.217186 3.22069 0
M  V30 5109 H 456.894 2.59666 2.77989 0
M  V30 5110 H 458.206 3.24125 3.79137 0
M  V30 5111 H 457.36 1.93341 5.75069 0
M  V30 5112 H 456.099 1.18452 4.73097 0
M  V30 5113 H 455.104 3.44569 4.2843 0
M  V30 5114 H 456.329 4.19757 5.33836 0
M  V30 5115 H 454.275 2.12779 6.20533 0
M  V30 5116 H 454.192 3.83052 6.51772 0
M  V30 5117 H 455.46 2.88649 7.24087 0
M  V30 5118 N 459.689 -1.00246 1.21608 0
M  V30 5119 C 460.622 -2.08794 0.920892 0
M  V30 5120 C 461.6 -1.62059 -0.132552 0
M  V30 5121 O 462.784 -1.885 -0.0030366 0
M  V30 5122 C 459.911 -3.36525 0.383226 0
M  V30 5123 C 458.957 -4.02172 1.41987 0
M  V30 5124 S 459.79 -4.44256 2.98994 0
M  V30 5125 C 460.946 -5.7517 2.4684 0
M  V30 5126 H 461.179 -2.33511 1.8401 0
M  V30 5127 H 458.712 -1.13562 1.04609 0
M  V30 5128 H 460.67 -4.10423 0.0795871 0
M  V30 5129 H 459.331 -3.09854 -0.514711 0
M  V30 5130 H 458.524 -4.94114 0.993335 0
M  V30 5131 H 458.126 -3.34559 1.67171 0
M  V30 5132 H 460.418 -6.51042 1.87484 0
M  V30 5133 H 461.361 -6.22638 3.37235 0
M  V30 5134 H 461.769 -5.32112 1.88461 0
M  V30 5135 N 461.167 -1.02423 -1.1978 0
M  V30 5136 C 462.392 -0.7373 -1.93852 0
M  V30 5137 C 462.817 0.696923 -1.74713 0
M  V30 5138 O 462.175 1.48056 -1.04638 0
M  V30 5139 C 462.223 -1.08783 -3.438 0
M  V30 5140 O 461.327 -0.20383 -4.11896 0
M  V30 5141 H 460.668 -0.27284 -0.605355 0
M  V30 5142 H 463.198 -1.36966 -1.51992 0
M  V30 5143 H 463.208 -1.04276 -3.9445 0
M  V30 5144 H 461.883 -2.13274 -3.57053 0
M  V30 5145 H 460.46 -0.307091 -3.71633 0
M  V30 5146 N 462.645 1.35699 -0.801477 0
M  V30 5147 C 463.87 2.03687 -0.390678 0
M  V30 5148 C 464.295 1.60015 0.988778 0
M  V30 5149 O 463.653 0.774357 1.63931 0
M  V30 5150 C 463.701 3.57439 -0.476404 0
M  V30 5151 O 462.805 4.09208 0.512106 0
M  V30 5152 H 462.146 0.64344 -0.163956 0
M  V30 5153 H 464.676 1.73403 -1.08594 0
M  V30 5154 H 464.686 4.06544 -0.344357 0
M  V30 5155 H 463.361 3.88576 -1.48262 0
M  V30 5156 H 461.938 3.7134 0.340721 0
M  V30 5157 N 464.123 0.554532 1.47522 0
M  V30 5158 C 465.053 -0.182974 2.32782 0
M  V30 5159 C 466.034 -0.911377 1.43624 0
M  V30 5160 O 467.219 -0.892366 1.72483 0
M  V30 5161 C 464.349 -1.21513 3.25349 0
M  V30 5162 C 463.303 -0.603355 4.23726 0
M  V30 5163 C 462.629 -1.73995 5.05598 0
M  V30 5164 C 463.929 0.441121 5.20434 0
M  V30 5165 H 465.623 0.52882 2.94693 0
M  V30 5166 H 463.169 0.255759 1.41711 0
M  V30 5167 H 465.122 -1.73922 3.83835 0
M  V30 5168 H 463.846 -1.95683 2.61487 0
M  V30 5169 H 462.505 -0.10059 3.66462 0
M  V30 5170 H 462.153 -2.47063 4.38143 0
M  V30 5171 H 461.853 -1.3364 5.72201 0
M  V30 5172 H 463.377 -2.26735 5.66942 0
M  V30 5173 H 464.791 0.00319931 5.733 0
M  V30 5174 H 463.188 0.763402 5.95224 0
M  V30 5175 H 464.258 1.33799 4.66075 0
M  V30 5176 N 465.601 -1.54893 0.290851 0
M  V30 5177 C 466.549 -2.24579 -0.605576 0
M  V30 5178 C 467.543 -1.24824 -1.14522 0
M  V30 5179 O 468.749 -1.42706 -1.09704 0
M  V30 5180 H 465.124 -0.720946 -0.213872 0
M  V30 5181 H 467.095 -2.984 0.0048173 0
M  V30 5182 C 465.844 -2.99224 -1.77088 0
M  V30 5183 H 465.167 -3.75782 -1.36484 0
M  V30 5184 H 466.607 -3.51281 -2.3744 0
M  V30 5185 C 465.066 -2.05602 -2.66888 0
M  V30 5186 O 465.596 -1.61745 -3.67698 0
M  V30 5187 N 463.802 -1.71771 -2.34399 0
M  V30 5188 H 463.349 -2.07633 -1.52468 0
M  V30 5189 H 463.307 -1.09403 -2.94751 0
M  V30 5190 N 467.08 -0.0183926 -1.57589 0
M  V30 5191 C 468.326 0.663543 -1.91638 0
M  V30 5192 C 468.659 1.72392 -0.894134 0
M  V30 5193 O 467.934 1.94316 0.0846449 0
M  V30 5194 C 468.217 1.28984 -3.36207 0
M  V30 5195 C 468.07 0.239761 -4.49161 0
M  V30 5196 C 469.389 2.2109 -3.80536 0
M  V30 5197 H 466.508 0.239746 -0.696915 0
M  V30 5198 H 469.15 -0.073456 -1.89858 0
M  V30 5199 H 467.3 1.91799 -3.37854 0
M  V30 5200 H 468.972 -0.390119 -4.59647 0
M  V30 5201 H 467.215 -0.435972 -4.31604 0
M  V30 5202 H 467.886 0.717383 -5.47319 0
M  V30 5203 H 470.362 1.68273 -3.80557 0
M  V30 5204 H 469.238 2.61869 -4.82406 0
M  V30 5205 H 469.499 3.09764 -3.15434 0
M  V30 5206 N 468.558 1.5553 0.254621 0
M  V30 5207 C 469.505 1.89666 1.31512 0
M  V30 5208 C 470.475 0.750057 1.482 0
M  V30 5209 O 471.66 1.00301 1.62309 0
M  V30 5210 C 468.8 2.19009 2.667 0
M  V30 5211 C 467.913 3.46435 2.58083 0
M  V30 5212 C 467.048 3.65386 3.85573 0
M  V30 5213 C 466.087 4.8644 3.71541 0
M  V30 5214 N 465.224 5.01952 4.90906 0
M  V30 5215 H 470.064 2.80109 1.017 0
M  V30 5216 H 467.601 1.38666 0.490938 0
M  V30 5217 H 469.559 2.34025 3.45381 0
M  V30 5218 H 468.189 1.31779 2.94676 0
M  V30 5219 H 467.241 3.39792 1.71013 0
M  V30 5220 H 468.553 4.35258 2.43622 0
M  V30 5221 H 467.707 3.80319 4.72697 0
M  V30 5222 H 466.446 2.74781 4.02922 0
M  V30 5223 H 465.451 4.71491 2.82801 0
M  V30 5224 H 466.676 5.78497 3.55694 0
M  V30 5225 H 464.622 4.14283 5.08631 0
M  V30 5226 H 464.539 5.84851 4.79046 0
M  V30 5227 H 465.807 5.21289 5.7955 0
M  V30 5228 N 470.036 -0.519951 1.48776 0
M  V30 5229 C 470.983 -1.62352 1.64044 0
M  V30 5230 C 471.953 -1.58945 0.482251 0
M  V30 5231 O 473.138 -1.77219 0.706971 0
M  V30 5232 C 470.278 -3.00579 1.69547 0
M  V30 5233 C 469.391 -3.14145 2.96541 0
M  V30 5234 C 468.526 -4.42991 2.93142 0
M  V30 5235 C 467.565 -4.50122 4.14797 0
M  V30 5236 N 466.702 -5.7037 4.09418 0
M  V30 5237 H 471.542 -1.48643 2.58281 0
M  V30 5238 H 469.079 -0.723516 1.28077 0
M  V30 5239 H 471.037 -3.80671 1.70719 0
M  V30 5240 H 469.667 -3.13036 0.787918 0
M  V30 5241 H 468.719 -2.27239 3.05068 0
M  V30 5242 H 470.031 -3.15275 3.86527 0
M  V30 5243 H 469.185 -5.31385 2.92772 0
M  V30 5244 H 467.924 -4.44398 2.00902 0
M  V30 5245 H 466.929 -3.60133 4.15433 0
M  V30 5246 H 468.154 -4.50445 5.08208 0
M  V30 5247 H 466.1 -5.72655 3.20004 0
M  V30 5248 H 466.017 -5.73036 4.93119 0
M  V30 5249 H 467.285 -6.61023 4.13121 0
M  V30 5250 N 471.514 -1.37532 -0.769588 0
M  V30 5251 C 472.739 -1.36231 -1.56384 0
M  V30 5252 C 473.164 0.0495849 -1.88035 0
M  V30 5253 O 472.522 1.02723 -1.49391 0
M  V30 5254 C 472.57 -2.20986 -2.84952 0
M  V30 5255 O 471.674 -1.61597 -3.79421 0
M  V30 5256 H 471.015 -0.465387 -0.473615 0
M  V30 5257 H 473.545 -1.81085 -0.952342 0
M  V30 5258 H 473.555 -2.34277 -3.34034 0
M  V30 5259 H 472.23 -3.23612 -2.61243 0
M  V30 5260 H 470.807 -1.57359 -3.38072 0
M  V30 5261 N 472.992 0.995999 -1.22138 0
M  V30 5262 C 474.24 1.73167 -1.042 0
M  V30 5263 C 474.561 1.90329 0.42423 0
M  V30 5264 O 473.831 1.4607 1.30539 0
M  V30 5265 H 472.411 0.641593 -0.38258 0
M  V30 5266 H 475.073 1.19974 -1.53598 0
M  V30 5267 H 474.169 2.72734 -1.51731 0
M  V30 5268 N 474.47 1.03057 1.19235 0
M  V30 5269 C 475.7 0.746613 1.92638 0
M  V30 5270 C 476.108 -0.698708 1.75826 0
M  V30 5271 O 475.451 -1.487 1.07861 0
M  V30 5272 C 475.513 1.02024 3.44719 0
M  V30 5273 C 475.177 2.45745 3.85303 0
M  V30 5274 C 476.174 3.43887 3.8992 0
M  V30 5275 C 473.859 2.8019 4.16892 0
M  V30 5276 C 475.853 4.74529 4.2556 0
M  V30 5277 C 473.54 4.1104 4.52205 0
M  V30 5278 C 474.538 5.0802 4.56513 0
M  V30 5279 O 474.226 6.36527 4.91008 0
M  V30 5280 H 473.958 0.272401 0.618687 0
M  V30 5281 H 476.512 1.37853 1.52269 0
M  V30 5282 H 474.742 0.331184 3.85279 0
M  V30 5283 H 476.431 0.725677 3.9936 0
M  V30 5284 H 477.197 3.18614 3.65664 0
M  V30 5285 H 473.076 2.05382 4.12722 0
M  V30 5286 H 476.62 5.50222 4.28838 0
M  V30 5287 H 472.517 4.36086 4.7592 0
M  V30 5288 H 473.285 6.41025 5.08949 0
M  V30 5289 N 475.948 -1.35272 0.808662 0
M  V30 5290 C 477.197 -1.97963 0.386483 0
M  V30 5291 C 477.51 -1.64866 -1.05255 0
M  V30 5292 O 478.716 -2.20937 -1.57794 0
M  V30 5293 C 477.172 -3.54162 0.640096 0
M  V30 5294 C 476.78 -3.96166 2.0918 0
M  V30 5295 C 478.524 -4.23553 0.283376 0
M  V30 5296 C 476.431 -5.4522 2.29106 0
M  V30 5297 H 475.361 -0.740742 0.140774 0
M  V30 5298 H 478.012 -1.5431 0.993012 0
M  V30 5299 H 476.394 -3.95983 -0.0364117 0
M  V30 5300 H 477.568 -3.65491 2.80629 0
M  V30 5301 H 475.883 -3.3967 2.40859 0
M  V30 5302 H 478.48 -5.33124 0.410273 0
M  V30 5303 H 478.823 -4.09105 -0.770659 0
M  V30 5304 H 479.356 -3.8716 0.913884 0
M  V30 5305 H 476.095 -5.64638 3.32962 0
M  V30 5306 H 475.615 -5.77457 1.62184 0
M  V30 5307 H 477.294 -6.1171 2.1076 0
M  V30 5308 N 477.426 -0.562348 -1.47226 0
M  V30 5309 C 478.703 0.0256985 -1.95583 0
M  V30 5310 C 479.083 1.48032 -1.50498 0
M  V30 5311 O 478.431 2.15973 -0.746181 0
M  V30 5312 C 478.641 -0.125129 -3.48776 0
M  V30 5313 C 479.989 0.0175728 -4.24596 0
M  V30 5314 O 481.013 -0.0529341 -3.56161 0
M  V30 5315 O 479.872 0.170145 -5.46235 0
M  V30 5316 H 476.966 0.0612565 -0.824728 0
M  V30 5317 H 479.512 -0.629233 -1.57603 0
M  V30 5318 H 478.284 -1.13715 -3.74412 0
M  V30 5319 H 477.907 0.567178 -3.93534 0
M  V30 5320 N 478.904 1.54736 -0.299062 0
M  V30 5321 C 479.851 2.23448 0.577899 0
M  V30 5322 C 480.821 1.21637 1.13109 0
M  V30 5323 O 482.006 1.50252 1.17597 0
M  V30 5324 C 479.146 2.9774 1.74484 0
M  V30 5325 C 478.259 4.1432 1.22323 0
M  V30 5326 C 477.394 4.76199 2.35388 0
M  V30 5327 C 476.433 5.84927 1.80351 0
M  V30 5328 N 475.57 6.4077 2.86982 0
M  V30 5329 H 480.41 2.97996 -0.0146545 0
M  V30 5330 H 477.947 1.47088 -0.0190013 0
M  V30 5331 H 479.905 3.39045 2.43114 0
M  V30 5332 H 478.535 2.25572 2.30905 0
M  V30 5333 H 477.587 3.7797 0.429249 0
M  V30 5334 H 478.899 4.92659 0.780309 0
M  V30 5335 H 478.053 5.20346 3.11969 0
M  V30 5336 H 476.792 3.97188 2.83006 0
M  V30 5337 H 475.797 5.40207 1.02259 0
M  V30 5338 H 477.022 6.65821 1.3364 0
M  V30 5339 H 474.968 5.64643 3.33938 0
M  V30 5340 H 474.885 7.1445 2.4718 0
M  V30 5341 H 476.153 6.89574 3.63466 0
M  V30 5342 N 480.382 0.0267497 1.57577 0
M  V30 5343 C 481.33 -0.973923 2.11229 0
M  V30 5344 C 482.324 -1.33849 1.03831 0
M  V30 5345 O 483.53 -1.321 1.22269 0
M  V30 5346 H 479.905 -0.331844 0.674821 0
M  V30 5347 H 481.876 -0.496092 2.94247 0
M  V30 5348 C 480.625 -2.24798 2.65257 0
M  V30 5349 H 479.948 -1.9762 3.47543 0
M  V30 5350 H 481.388 -2.93031 3.06445 0
M  V30 5351 C 479.847 -2.97611 1.57891 0
M  V30 5352 O 480.377 -3.89629 0.97735 0
M  V30 5353 N 478.583 -2.59905 1.29992 0
M  V30 5354 H 478.13 -1.85154 1.79097 0
M  V30 5355 H 478.088 -3.08932 0.583798 0
M  V30 5356 N 481.861 -1.55662 -0.24637 0
M  V30 5357 C 482.811 -1.86753 -1.30795 0
M  V30 5358 C 483.795 -0.728445 -1.43466 0
M  V30 5359 O 484.987 -0.99038 -1.46699 0
M  V30 5360 C 482.116 -2.16618 -2.66329 0
M  V30 5361 C 481.202 -3.36855 -2.57661 0
M  V30 5362 N 481.593 -4.56111 -2.18624 0
M  V30 5363 C 479.891 -3.39976 -2.88673 0
M  V30 5364 C 480.592 -5.38247 -2.20601 0
M  V30 5365 N 479.568 -4.77322 -2.60124 0
M  V30 5366 H 483.37 -2.76486 -0.996642 0
M  V30 5367 H 480.884 -1.55896 -0.454994 0
M  V30 5368 H 482.881 -2.37057 -3.42942 0
M  V30 5369 H 481.541 -1.28185 -2.98327 0
M  V30 5370 H 482.552 -4.81726 -1.9016 0
M  V30 5371 H 479.229 -2.61815 -3.25206 0
M  V30 5372 H 480.619 -6.43657 -1.92756 0
M  V30 5373 N 483.339 0.512053 -1.4905 0
M  V30 5374 C 484.289 1.61142 -1.61298 0
M  V30 5375 C 485.273 1.53908 -0.46916 0
M  V30 5376 O 486.465 1.61625 -0.721547 0
M  V30 5377 C 483.594 2.998 -1.67256 0
M  V30 5378 C 482.68 3.12072 -2.87179 0
M  V30 5379 N 483.071 2.94263 -4.11391 0
M  V30 5380 C 481.369 3.43156 -2.84886 0
M  V30 5381 C 482.07 3.10426 -4.91946 0
M  V30 5382 N 481.046 3.38808 -4.251 0
M  V30 5383 H 484.848 1.46011 -2.55065 0
M  V30 5384 H 482.362 0.717934 -1.45669 0
M  V30 5385 H 484.359 3.78794 -1.74128 0
M  V30 5386 H 483.019 3.1601 -0.746195 0
M  V30 5387 H 484.03 2.70661 -4.41546 0
M  V30 5388 H 480.707 3.65611 -2.01581 0
M  V30 5389 H 482.097 3.01243 -6.00585 0
M  V30 5390 N 484.817 1.37938 0.762283 0
M  V30 5391 C 486.063 1.33866 1.52341 0
M  V30 5392 C 486.396 -0.0738961 1.94059 0
M  V30 5393 O 485.671 -1.03326 1.64785 0
M  V30 5394 C 485.954 2.28644 2.78197 0
M  V30 5395 C 485.807 3.78722 2.42672 0
M  V30 5396 C 487.126 2.21702 3.80179 0
M  V30 5397 H 484.245 0.487593 0.55265 0
M  V30 5398 H 486.887 1.68717 0.873767 0
M  V30 5399 H 485.037 1.99055 3.33631 0
M  V30 5400 H 486.709 4.18948 1.93081 0
M  V30 5401 H 484.952 3.96827 1.75244 0
M  V30 5402 H 485.623 4.40486 3.3268 0
M  V30 5403 H 488.099 2.47805 3.34263 0
M  V30 5404 H 486.975 2.90143 4.65949 0
M  V30 5405 H 487.236 1.21301 4.25133 0
M  V30 5406 N 486.295 -0.989507 1.22664 0
M  V30 5407 C 487.544 -1.72375 1.04737 0
M  V30 5408 C 487.857 -1.91096 -0.417316 0
M  V30 5409 O 489.063 -2.6188 -0.716334 0
M  V30 5410 C 487.519 -3.10161 1.82561 0
M  V30 5411 C 487.127 -2.99358 3.333 0
M  V30 5412 C 488.871 -3.87607 1.73093 0
M  V30 5413 C 486.778 -4.32319 4.03552 0
M  V30 5414 H 485.708 -0.646326 0.388302 0
M  V30 5415 H 488.359 -1.10437 1.46546 0
M  V30 5416 H 486.741 -3.728 1.33552 0
M  V30 5417 H 487.915 -2.45863 3.89728 0
M  V30 5418 H 486.23 -2.35392 3.43481 0
M  V30 5419 H 488.827 -4.86025 2.22899 0
M  V30 5420 H 489.17 -4.10509 0.691976 0
M  V30 5421 H 489.703 -3.31652 2.19663 0
M  V30 5422 H 486.442 -4.14616 5.07714 0
M  V30 5423 H 485.962 -4.85714 3.51911 0
M  V30 5424 H 487.641 -5.01051 4.09337 0
M  V30 5425 N 487.773 -1.03688 -1.18687 0
M  V30 5426 C 488.703 -0.645407 -2.24403 0
M  V30 5427 C 489.684 0.349511 -1.66471 0
M  V30 5428 O 490.869 0.230453 -1.92828 0
M  V30 5429 C 487.999 -0.00365337 -3.473 0
M  V30 5430 C 486.953 -0.921705 -4.17958 0
M  V30 5431 C 486.279 -0.144629 -5.34504 0
M  V30 5432 C 487.579 -2.23909 -4.71871 0
M  V30 5433 H 489.273 -1.52917 -2.57404 0
M  V30 5434 H 486.819 -0.736711 -1.23728 0
M  V30 5435 H 488.772 0.281908 -4.20456 0
M  V30 5436 H 487.496 0.914963 -3.13522 0
M  V30 5437 H 486.155 -1.19159 -3.46694 0
M  V30 5438 H 485.803 0.776274 -4.96974 0
M  V30 5439 H 485.503 -0.756206 -5.82714 0
M  V30 5440 H 487.027 0.134004 -6.10453 0
M  V30 5441 H 488.441 -2.0145 -5.36741 0
M  V30 5442 H 486.838 -2.8033 -5.30599 0
M  V30 5443 H 487.908 -2.88822 -3.895 0
M  V30 5444 N 489.251 1.34841 -0.815825 0
M  V30 5445 C 490.181 2.32187 -0.247298 0
M  V30 5446 C 491.162 1.5791 0.632344 0
M  V30 5447 O 492.347 1.8593 0.560698 0
M  V30 5448 C 489.477 3.42122 0.597466 0
M  V30 5449 C 488.431 4.27602 -0.184446 0
M  V30 5450 C 487.757 5.28942 0.782609 0
M  V30 5451 C 489.057 5.03502 -1.38865 0
M  V30 5452 H 490.751 2.79985 -1.06061 0
M  V30 5453 H 488.297 1.34611 -0.511461 0
M  V30 5454 H 490.25 4.09232 1.00533 0
M  V30 5455 H 488.974 2.92956 1.44376 0
M  V30 5456 H 487.633 3.62085 -0.573592 0
M  V30 5457 H 487.281 4.7604 1.62466 0
M  V30 5458 H 486.981 5.87008 0.263695 0
M  V30 5459 H 488.505 5.98922 1.18848 0
M  V30 5460 H 489.919 5.63506 -1.05518 0
M  V30 5461 H 488.316 5.71108 -1.8427 0
M  V30 5462 H 489.386 4.33608 -2.17054 0
M  V30 5463 N 490.729 0.570148 1.46925 0
M  V30 5464 C 491.957 0.0561966 2.06824 0
M  V30 5465 C 492.372 -1.24326 1.42086 0
M  V30 5466 O 491.729 -1.74882 0.521794 0
M  V30 5467 C 491.78 -0.129517 3.61268 0
M  V30 5468 O 491.501 1.1185 4.23581 0
M  V30 5469 C 493.002 -0.679266 4.38065 0
M  V30 5470 H 490.222 0.0517261 0.669003 0
M  V30 5471 H 492.766 0.787243 1.8874 0
M  V30 5472 H 490.921 -0.810739 3.78822 0
M  V30 5473 H 491.335 0.924375 5.1629 0
M  V30 5474 H 492.809 -0.758445 5.46765 0
M  V30 5475 H 493.286 -1.69346 4.05239 0
M  V30 5476 H 493.892 -0.0333237 4.25287 0
M  V30 5477 N 492.207 -1.54576 0.307264 0
M  V30 5478 C 493.155 -2.25208 -0.581723 0
M  V30 5479 C 494.149 -1.26031 -1.13192 0
M  V30 5480 O 495.355 -1.43862 -1.08184 0
M  V30 5481 H 491.73 -0.723173 -0.206214 0
M  V30 5482 H 493.701 -2.98378 0.0364663 0
M  V30 5483 C 492.45 -3.01086 -1.73904 0
M  V30 5484 H 491.773 -3.77208 -1.32491 0
M  V30 5485 H 493.213 -3.5378 -2.33701 0
M  V30 5486 C 491.672 -2.08422 -2.64692 0
M  V30 5487 O 492.202 -1.65636 -3.65961 0
M  V30 5488 N 490.408 -1.74247 -2.32564 0
M  V30 5489 H 489.955 -2.09238 -1.50257 0
M  V30 5490 H 489.913 -1.12524 -2.93574 0
M  V30 5491 N 493.685 -0.035106 -1.57561 0
M  V30 5492 C 494.632 0.94474 -2.10578 0
M  V30 5493 C 495.602 1.3192 -1.00927 0
M  V30 5494 O 496.787 1.41147 -1.28382 0
M  V30 5495 C 493.927 2.21982 -2.64231 0
M  V30 5496 C 493.04 1.90128 -3.87911 0
M  V30 5497 C 492.175 3.11975 -4.29936 0
M  V30 5498 C 491.214 2.75968 -5.46359 0
M  V30 5499 N 490.351 3.90459 -5.83512 0
M  V30 5500 H 495.191 0.485717 -2.94015 0
M  V30 5501 H 492.728 0.228143 -1.4532 0
M  V30 5502 H 494.686 2.96572 -2.9343 0
M  V30 5503 H 493.316 2.6549 -1.83616 0
M  V30 5504 H 492.368 1.05755 -3.65404 0
M  V30 5505 H 493.68 1.59613 -4.72573 0
M  V30 5506 H 492.834 3.9488 -4.60603 0
M  V30 5507 H 491.573 3.45657 -3.44053 0
M  V30 5508 H 490.578 1.91478 -5.1538 0
M  V30 5509 H 491.803 2.43497 -6.33945 0
M  V30 5510 H 489.749 4.23971 -5.00584 0
M  V30 5511 H 489.666 3.63588 -6.62827 0
M  V30 5512 H 490.934 4.7405 -6.18787 0
M  V30 5513 N 495.163 1.55791 0.238111 0
M  V30 5514 C 496.11 1.9105 1.29493 0
M  V30 5515 C 497.08 0.765733 1.47397 0
M  V30 5516 O 498.265 1.02017 1.61236 0
M  V30 5517 C 495.405 2.21826 2.64362 0
M  V30 5518 C 494.518 3.49153 2.54394 0
M  V30 5519 C 493.653 3.69455 3.81676 0
M  V30 5520 C 492.692 4.90353 3.66361 0
M  V30 5521 N 491.829 5.07131 4.85554 0
M  V30 5522 H 496.669 2.81172 0.987233 0
M  V30 5523 H 494.206 1.39179 0.476203 0
M  V30 5524 H 496.164 2.37675 3.4288 0
M  V30 5525 H 494.794 1.34897 2.93262 0
M  V30 5526 H 493.846 3.41587 1.67399 0
M  V30 5527 H 495.158 4.37818 2.38991 0
M  V30 5528 H 494.312 3.85311 4.68636 0
M  V30 5529 H 493.051 2.7904 3.99985 0
M  V30 5530 H 492.056 4.74464 2.77784 0
M  V30 5531 H 493.281 5.82237 3.49538 0
M  V30 5532 H 491.227 4.19654 5.04209 0
M  V30 5533 H 491.144 5.89899 4.72816 0
M  V30 5534 H 492.412 5.27407 5.73988 0
M  V30 5535 N 496.642 -0.504142 1.49319 0
M  V30 5536 C 497.589 -1.60603 1.65756 0
M  V30 5537 C 498.559 -1.58425 0.499082 0
M  V30 5538 O 499.744 -1.76459 0.725728 0
M  V30 5539 C 496.884 -2.98764 1.72726 0
M  V30 5540 C 495.997 -3.10982 2.99857 0
M  V30 5541 C 495.132 -4.39857 2.97824 0
M  V30 5542 C 494.171 -4.45697 4.19548 0
M  V30 5543 N 493.308 -5.65995 4.15444 0
M  V30 5544 H 498.148 -1.45895 2.59843 0
M  V30 5545 H 495.685 -0.709891 1.28837 0
M  V30 5546 H 497.643 -3.78839 1.74747 0
M  V30 5547 H 496.273 -3.12183 0.821075 0
M  V30 5548 H 495.325 -2.23991 3.07461 0
M  V30 5549 H 496.637 -3.11157 3.89849 0
M  V30 5550 H 495.791 -5.2825 2.98391 0
M  V30 5551 H 494.53 -4.42242 2.05604 0
M  V30 5552 H 493.535 -3.55707 4.19229 0
M  V30 5553 H 494.76 -4.4503 5.12957 0
M  V30 5554 H 492.706 -5.69229 3.26059 0
M  V30 5555 H 492.623 -5.67773 4.99169 0
M  V30 5556 H 493.891 -6.56604 4.20109 0
M  V30 5557 N 498.12 -1.38341 -0.754957 0
M  V30 5558 C 499.05 -1.38176 -1.88227 0
M  V30 5559 C 500.031 -0.247873 -1.68284 0
M  V30 5560 O 501.216 -0.45075 -1.88896 0
M  V30 5561 C 498.346 -1.20471 -3.25736 0
M  V30 5562 C 497.3 -2.3105 -3.60278 0
M  V30 5563 C 496.626 -1.98452 -4.96509 0
M  V30 5564 C 497.926 -3.73305 -3.65295 0
M  V30 5565 H 499.62 -2.32512 -1.88622 0
M  V30 5566 H 497.166 -1.1192 -0.906082 0
M  V30 5567 H 499.119 -1.18982 -4.04254 0
M  V30 5568 H 497.843 -0.225965 -3.25817 0
M  V30 5569 H 496.502 -2.31723 -2.84078 0
M  V30 5570 H 496.15 -0.990641 -4.93148 0
M  V30 5571 H 495.85 -2.7251 -5.20588 0
M  V30 5572 H 497.374 -1.98578 -5.77407 0
M  V30 5573 H 498.788 -3.7467 -4.3393 0
M  V30 5574 H 497.185 -4.46557 -4.00883 0
M  V30 5575 H 498.255 -4.05719 -2.65556 0
M  V30 5576 N 499.598 0.982988 -1.23187 0
M  V30 5577 C 500.823 1.76455 -1.08988 0
M  V30 5578 C 501.248 1.84726 0.354691 0
M  V30 5579 O 500.606 1.30699 1.25649 0
M  V30 5580 C 500.654 3.17094 -1.71708 0
M  V30 5581 O 499.758 4.00648 -0.977477 0
M  V30 5582 H 499.099 0.542988 -0.382177 0
M  V30 5583 H 501.629 1.23413 -1.63188 0
M  V30 5584 H 501.639 3.67684 -1.76841 0
M  V30 5585 H 500.314 3.10389 -2.76823 0
M  V30 5586 H 498.891 3.59161 -1.0029 0
M  V30 5587 N 501.076 1.04316 1.18135 0
M  V30 5588 C 502.006 0.657299 2.24058 0
M  V30 5589 C 502.987 -0.340678 1.66654 0
M  V30 5590 O 504.172 -0.220223 1.92947 0
M  V30 5591 C 501.302 0.0220715 3.47293 0
M  V30 5592 C 500.256 0.943857 4.17463 0
M  V30 5593 C 499.582 0.172973 5.3442 0
M  V30 5594 C 500.882 2.26409 4.70677 0
M  V30 5595 H 502.576 1.5428 2.56589 0
M  V30 5596 H 500.122 0.743263 1.23335 0
M  V30 5597 H 502.075 -0.259607 4.206 0
M  V30 5598 H 500.799 -0.898323 3.14003 0
M  V30 5599 H 499.458 1.20996 3.46057 0
M  V30 5600 H 499.106 -0.749907 4.97379 0
M  V30 5601 H 498.806 0.787098 5.82304 0
M  V30 5602 H 500.33 -0.101628 6.10515 0
M  V30 5603 H 501.744 2.04294 5.35665 0
M  V30 5604 H 500.141 2.8314 5.29105 0
M  V30 5605 H 501.211 2.90883 3.87962 0
M  V30 5606 N 502.554 -1.34406 0.822964 0
M  V30 5607 C 503.486 -2.28305 0.202375 0
M  V30 5608 C 504.499 -1.5103 -0.60777 0
M  V30 5609 O 505.688 -1.73057 -0.437444 0
M  V30 5610 C 502.788 -3.30836 -0.734911 0
M  V30 5611 C 501.961 -4.37388 0.0324177 0
M  V30 5612 C 501.02 -5.1968 -0.825803 0
M  V30 5613 O 500.046 -5.68556 -0.270771 0
M  V30 5614 N 501.248 -5.39393 -2.14558 0
M  V30 5615 H 504.013 -2.82201 1.00909 0
M  V30 5616 H 501.574 -1.4693 0.67993 0
M  V30 5617 H 503.566 -3.82786 -1.31365 0
M  V30 5618 H 502.136 -2.77334 -1.44238 0
M  V30 5619 H 501.356 -3.86152 0.792469 0
M  V30 5620 H 502.644 -5.05702 0.560633 0
M  V30 5621 H 502.042 -5.01357 -2.62025 0
M  V30 5622 H 500.599 -5.94461 -2.67318 0
M  V30 5623 N 504.032 -0.577932 -1.46621 0
M  V30 5624 C 504.995 0.147805 -2.28723 0
M  V30 5625 C 505.995 0.823325 -1.38123 0
M  V30 5626 O 507.185 0.676011 -1.60548 0
M  V30 5627 C 504.317 1.21853 -3.18378 0
M  V30 5628 H 505.51 -0.573654 -2.94362 0
M  V30 5629 H 503.063 -0.335703 -1.52652 0
M  V30 5630 H 503.798 1.97173 -2.57475 0
M  V30 5631 H 503.583 0.738714 -3.85078 0
M  V30 5632 H 505.073 1.72768 -3.80186 0
M  V30 5633 N 505.51 1.54411 -0.315457 0
M  V30 5634 C 506.457 2.24048 0.554166 0
M  V30 5635 C 507.427 1.2283 1.11812 0
M  V30 5636 O 508.612 1.51491 1.15997 0
M  V30 5637 C 505.752 2.99574 1.71316 0
M  V30 5638 C 504.865 4.15594 1.17922 0
M  V30 5639 C 504 4.78669 2.30324 0
M  V30 5640 C 503.039 5.86807 1.74137 0
M  V30 5641 N 502.176 6.43777 2.8017 0
M  V30 5642 H 507.016 2.97964 -0.0462602 0
M  V30 5643 H 504.553 1.47059 -0.0346009 0
M  V30 5644 H 506.511 3.41604 2.39505 0
M  V30 5645 H 505.141 2.28008 2.285 0
M  V30 5646 H 504.193 3.78404 0.389136 0
M  V30 5647 H 505.505 4.93459 0.728012 0
M  V30 5648 H 504.659 5.23626 3.06433 0
M  V30 5649 H 503.398 4.00168 2.78778 0
M  V30 5650 H 502.403 5.41261 0.965236 0
M  V30 5651 H 503.628 6.67201 1.2657 0
M  V30 5652 H 501.574 5.68153 3.2793 0
M  V30 5653 H 501.491 7.17031 2.39588 0
M  V30 5654 H 502.759 6.9339 3.56132 0
M  V30 5655 N 506.988 0.0434614 1.5754 0
M  V30 5656 C 507.92 -0.962586 2.08007 0
M  V30 5657 C 508.933 -1.27972 1.00634 0
M  V30 5658 O 510.122 -1.24186 1.28219 0
M  V30 5659 C 507.222 -2.28621 2.50171 0
M  V30 5660 C 506.395 -2.15214 3.80791 0
M  V30 5661 C 505.454 -3.30633 4.09351 0
M  V30 5662 O 504.48 -3.0688 4.79388 0
M  V30 5663 N 505.682 -4.54873 3.60654 0
M  V30 5664 H 508.447 -0.531891 2.94942 0
M  V30 5665 H 506.008 -0.142965 1.61268 0
M  V30 5666 H 508 -3.04689 2.66359 0
M  V30 5667 H 506.57 -2.63283 1.68525 0
M  V30 5668 H 505.79 -1.23785 3.74261 0
M  V30 5669 H 507.078 -2.03475 4.66343 0
M  V30 5670 H 506.476 -4.77063 3.04019 0
M  V30 5671 H 505.033 -5.2806 3.82094 0
M  V30 5672 N 508.466 -1.55915 -0.229846 0
M  V30 5673 C 509.715 -1.77742 -0.953455 0
M  V30 5674 C 510.028 -0.610524 -1.85828 0
M  V30 5675 O 511.234 -0.712219 -2.61992 0
M  V30 5676 C 509.69 -3.14738 -1.74551 0
M  V30 5677 C 509.298 -4.39126 -0.887242 0
M  V30 5678 C 511.042 -3.45895 -2.46084 0
M  V30 5679 C 508.949 -5.67149 -1.67617 0
M  V30 5680 H 507.879 -0.662648 -0.359741 0
M  V30 5681 H 510.53 -1.82322 -0.207576 0
M  V30 5682 H 508.912 -3.04311 -2.53399 0
M  V30 5683 H 510.086 -4.60588 -0.139892 0
M  V30 5684 H 508.401 -4.15427 -0.284443 0
M  V30 5685 H 510.998 -4.38767 -3.05594 0
M  V30 5686 H 511.341 -2.68007 -3.18556 0
M  V30 5687 H 511.874 -3.57614 -1.74233 0
M  V30 5688 H 508.613 -6.47906 -0.994881 0
M  V30 5689 H 508.133 -5.49763 -2.39836 0
M  V30 5690 H 509.812 -6.07025 -2.23898 0
M  V30 5691 N 509.944 0.496216 -1.49584 0
M  V30 5692 C 511.172 1.27394 -1.63029 0
M  V30 5693 C 511.587 1.86344 -0.303569 0
M  V30 5694 O 510.944 1.68057 0.711547 0
M  V30 5695 C 510.995 2.40077 -2.70269 0
M  V30 5696 O 510.716 1.83549 -3.97796 0
M  V30 5697 C 512.217 3.31372 -2.94462 0
M  V30 5698 H 509.437 0.386211 -0.54871 0
M  V30 5699 H 511.981 0.595163 -1.95648 0
M  V30 5700 H 510.136 3.03775 -2.40415 0
M  V30 5701 H 510.55 2.57561 -4.56905 0
M  V30 5702 H 512.024 4.06707 -3.73221 0
M  V30 5703 H 512.501 3.88654 -2.0456 0
M  V30 5704 H 513.107 2.73435 -3.25751 0
M  V30 5705 N 511.423 1.38739 0.74761 0
M  V30 5706 C 512.653 1.3832 1.53464 0
M  V30 5707 C 513.061 -0.0273464 1.8918 0
M  V30 5708 O 512.404 -1.00588 1.53713 0
M  V30 5709 C 512.466 2.18007 2.85855 0
M  V30 5710 C 512.13 3.66762 2.72644 0
M  V30 5711 C 513.127 4.60124 2.42037 0
M  V30 5712 C 510.812 4.10193 2.89909 0
M  V30 5713 C 512.806 5.94897 2.28859 0
M  V30 5714 C 510.493 5.45045 2.7635 0
M  V30 5715 C 511.491 6.37211 2.45869 0
M  V30 5716 O 511.179 7.69581 2.3238 0
M  V30 5717 H 510.911 0.474718 0.481268 0
M  V30 5718 H 513.465 1.83012 0.932518 0
M  V30 5719 H 511.695 1.68043 3.48279 0
M  V30 5720 H 513.384 2.09921 3.47402 0
M  V30 5721 H 514.15 4.27874 2.28361 0
M  V30 5722 H 510.029 3.38797 3.1263 0
M  V30 5723 H 513.573 6.66802 2.04989 0
M  V30 5724 H 509.47 5.76889 2.89601 0
M  V30 5725 H 510.238 7.80169 2.47546 0
M  V30 5726 N 512.901 -0.976442 1.23707 0
M  V30 5727 C 513.848 -2.06952 1.02174 0
M  V30 5728 C 514.818 -1.65984 -0.0621034 0
M  V30 5729 O 516.003 -1.90584 0.0907906 0
M  V30 5730 C 513.143 -3.39425 0.62327 0
M  V30 5731 C 512.256 -3.9364 1.77966 0
M  V30 5732 C 511.391 -5.14343 1.3276 0
M  V30 5733 C 510.43 -5.60733 2.45449 0
M  V30 5734 N 509.567 -6.72662 2.01172 0
M  V30 5735 H 514.407 -2.24704 1.95734 0
M  V30 5736 H 511.944 -1.10143 0.975034 0
M  V30 5737 H 513.902 -4.15526 0.37332 0
M  V30 5738 H 512.532 -3.21624 -0.275329 0
M  V30 5739 H 511.584 -3.14258 2.14351 0
M  V30 5740 H 512.896 -4.24035 2.62671 0
M  V30 5741 H 512.05 -5.97789 1.03601 0
M  V30 5742 H 510.789 -4.8561 0.450975 0
M  V30 5743 H 509.794 -4.75865 2.75378 0
M  V30 5744 H 511.019 -5.91483 3.33654 0
M  V30 5745 H 508.965 -6.45681 1.15895 0
M  V30 5746 H 508.882 -7.02462 2.79434 0
M  V30 5747 H 510.15 -7.59572 1.75129 0
M  V30 5748 N 514.379 -1.04941 -1.1758 0
M  V30 5749 C 515.626 -0.757989 -1.87779 0
M  V30 5750 C 515.954 0.714827 -1.80888 0
M  V30 5751 O 515.209 1.53824 -1.20982 0
M  V30 5752 C 515.508 -1.18062 -3.37337 0
M  V30 5753 C 515.174 -2.65521 -3.6443 0
M  V30 5754 C 513.836 -3.05804 -3.71534 0
M  V30 5755 C 516.188 -3.60822 -3.76108 0
M  V30 5756 C 513.516 -4.40256 -3.87803 0
M  V30 5757 C 515.868 -4.95005 -3.93895 0
M  V30 5758 C 514.532 -5.34945 -3.99237 0
M  V30 5759 H 513.802 -0.277368 -0.68713 0
M  V30 5760 H 516.449 -1.31603 -1.39115 0
M  V30 5761 H 514.754 -0.541525 -3.8804 0
M  V30 5762 H 516.451 -0.932368 -3.9001 0
M  V30 5763 H 513.041 -2.33324 -3.59524 0
M  V30 5764 H 517.225 -3.30841 -3.69943 0
M  V30 5765 H 512.481 -4.70707 -3.90186 0
M  V30 5766 H 516.655 -5.68746 -4.01872 0
M  V30 5767 H 514.282 -6.39135 -4.11596 0
M  V30 5768 N 515.857 1.33968 -0.830081 0
M  V30 5769 C 516.805 2.31301 -0.245435 0
M  V30 5770 C 517.799 1.57734 0.617762 0
M  V30 5771 O 519.005 1.72674 0.508303 0
M  V30 5772 H 515.38 0.749552 -0.0606316 0
M  V30 5773 H 517.351 2.78129 -1.08105 0
M  V30 5774 C 516.1 3.42961 0.572084 0
M  V30 5775 H 515.423 3.99714 -0.0828118 0
M  V30 5776 H 516.863 4.13286 0.94715 0
M  V30 5777 C 515.322 2.88043 1.74737 0
M  V30 5778 O 515.852 2.83508 2.8458 0
M  V30 5779 N 514.058 2.44768 1.56642 0
M  V30 5780 H 513.605 2.48656 0.672901 0
M  V30 5781 H 513.563 2.08375 2.3543 0
M  V30 5782 N 517.335 0.585699 1.46312 0
M  V30 5783 C 518.283 -0.158577 2.32059 0
M  V30 5784 C 519.277 -0.881427 1.44662 0
M  V30 5785 O 520.483 -0.799476 1.61271 0
M  V30 5786 H 516.858 -0.0700066 0.748734 0
M  V30 5787 H 518.829 0.583383 2.92642 0
M  V30 5788 C 517.578 -1.15701 3.27885 0
M  V30 5789 H 516.901 -0.610215 3.95116 0
M  V30 5790 H 518.341 -1.64812 3.90657 0
M  V30 5791 C 516.8 -2.21951 2.53455 0
M  V30 5792 O 517.33 -3.29352 2.29978 0
M  V30 5793 N 515.536 -1.9664 2.13965 0
M  V30 5794 H 515.083 -1.09309 2.33258 0
M  V30 5795 H 515.041 -2.6794 1.64485 0
M  V30 5796 N 518.813 -1.54241 0.323641 0
M  V30 5797 C 520.062 -1.9975 -0.279806 0
M  V30 5798 C 520.375 -1.2156 -1.5324 0
M  V30 5799 O 521.581 -1.57447 -2.21185 0
M  V30 5800 C 520.037 -3.55686 -0.549115 0
M  V30 5801 C 519.645 -4.4271 0.686432 0
M  V30 5802 C 521.389 -4.09663 -1.11251 0
M  V30 5803 C 519.296 -5.90119 0.389022 0
M  V30 5804 H 518.226 -0.746177 -0.10833 0
M  V30 5805 H 520.877 -1.78248 0.435877 0
M  V30 5806 H 519.259 -3.73176 -1.32499 0
M  V30 5807 H 520.433 -4.36996 1.46188 0
M  V30 5808 H 518.748 -3.99623 1.17005 0
M  V30 5809 H 521.345 -5.17386 -1.34965 0
M  V30 5810 H 521.688 -3.61651 -2.06191 0
M  V30 5811 H 522.221 -3.95806 -0.39782 0
M  V30 5812 H 518.96 -6.42326 1.30759 0
M  V30 5813 H 518.48 -5.98785 -0.348722 0
M  V30 5814 H 520.159 -6.47 -0.0011164 0
M  V30 5815 N 520.291 -0.0518155 -1.57515 0
M  V30 5816 C 521.521 0.63048 -1.96745 0
M  V30 5817 C 521.929 1.64875 -0.928054 0
M  V30 5818 O 521.272 1.83449 0.0960678 0
M  V30 5819 C 521.334 1.37381 -3.32215 0
M  V30 5820 C 520.998 0.511298 -4.54131 0
M  V30 5821 C 521.995 -0.222884 -5.19422 0
M  V30 5822 C 519.68 0.442035 -5.00351 0
M  V30 5823 C 521.674 -1.01476 -6.2927 0
M  V30 5824 C 519.361 -0.35353 -6.10077 0
M  V30 5825 C 520.359 -1.08062 -6.74397 0
M  V30 5826 O 520.047 -1.8631 -7.82013 0
M  V30 5827 H 519.779 0.177126 -0.652382 0
M  V30 5828 H 522.333 -0.114726 -2.05079 0
M  V30 5829 H 520.563 2.16466 -3.20436 0
M  V30 5830 H 522.252 1.9464 -3.56188 0
M  V30 5831 H 523.018 -0.178846 -4.8467 0
M  V30 5832 H 518.897 0.997562 -4.50077 0
M  V30 5833 H 522.441 -1.58279 -6.79407 0
M  V30 5834 H 518.338 -0.399205 -6.44264 0
M  V30 5835 H 519.106 -1.78528 -7.98793 0
M  V30 5836 N 521.769 1.56035 0.221574 0
M  V30 5837 C 522.716 1.92413 1.27459 0
M  V30 5838 C 523.686 0.781323 1.46576 0
M  V30 5839 O 524.871 1.03721 1.60145 0
M  V30 5840 C 522.011 2.24617 2.61995 0
M  V30 5841 C 521.124 3.51831 2.50677 0
M  V30 5842 C 520.259 3.73482 3.77736 0
M  V30 5843 C 519.298 4.94211 3.6114 0
M  V30 5844 N 518.435 5.12252 4.80148 0
M  V30 5845 H 523.275 2.82203 0.957355 0
M  V30 5846 H 520.812 1.39676 0.461415 0
M  V30 5847 H 522.77 2.41298 3.40339 0
M  V30 5848 H 521.4 1.38 2.91815 0
M  V30 5849 H 520.452 3.43343 1.63767 0
M  V30 5850 H 521.764 4.40328 2.34334 0
M  V30 5851 H 520.918 3.9026 4.64523 0
M  V30 5852 H 519.657 2.83266 3.97003 0
M  V30 5853 H 518.662 4.77384 2.72736 0
M  V30 5854 H 519.887 5.85912 3.43343 0
M  V30 5855 H 517.833 4.24978 4.99729 0
M  V30 5856 H 517.75 5.94881 4.66532 0
M  V30 5857 H 519.018 5.33465 5.68362 0
M  V30 5858 N 523.247 -0.488276 1.49845 0
M  V30 5859 C 524.475 -1.26527 1.63702 0
M  V30 5860 C 524.89 -1.8618 0.313447 0
M  V30 5861 O 524.247 -1.68432 -0.702624 0
M  V30 5862 C 524.298 -2.3864 2.71538 0
M  V30 5863 O 524.019 -1.81437 3.98763 0
M  V30 5864 C 525.52 -3.29805 2.96215 0
M  V30 5865 H 522.74 -0.383295 0.55075 0
M  V30 5866 H 525.284 -0.584779 1.95961 0
M  V30 5867 H 523.439 -3.02496 2.42023 0
M  V30 5868 H 523.853 -2.55135 4.58265 0
M  V30 5869 H 525.327 -4.04722 3.75372 0
M  V30 5870 H 525.804 -3.87563 2.06619 0
M  V30 5871 H 526.41 -2.71703 3.27196 0
M  V30 5872 N 524.725 -1.39134 -0.740242 0
M  V30 5873 C 525.955 -1.39132 -1.52728 0
M  V30 5874 C 526.363 0.0173133 -1.89192 0
M  V30 5875 O 525.706 0.997715 -1.54244 0
M  V30 5876 C 525.768 -2.1952 -2.84695 0
M  V30 5877 C 525.432 -3.68203 -2.70695 0
M  V30 5878 C 526.429 -4.61401 -2.39593 0
M  V30 5879 C 524.114 -4.11724 -2.8773 0
M  V30 5880 C 526.108 -5.96102 -2.25701 0
M  V30 5881 C 523.795 -5.46503 -2.73456 0
M  V30 5882 C 524.793 -6.38506 -2.42486 0
M  V30 5883 O 524.481 -7.70803 -2.28295 0
M  V30 5884 H 524.213 -0.477263 -0.478744 0
M  V30 5885 H 526.767 -1.83504 -0.922799 0
M  V30 5886 H 524.997 -1.69888 -3.47383 0
M  V30 5887 H 526.686 -2.1176 -3.46284 0
M  V30 5888 H 527.452 -4.29079 -2.26088 0
M  V30 5889 H 523.331 -3.4045 -3.10829 0
M  V30 5890 H 526.875 -6.6788 -2.0145 0
M  V30 5891 H 522.772 -5.78417 -2.86538 0
M  V30 5892 H 523.54 -7.8147 -2.43405 0
M  V30 5893 N 526.204 0.969867 -1.24223 0
M  V30 5894 C 527.429 1.75289 -1.10853 0
M  V30 5895 C 527.854 1.85091 0.335079 0
M  V30 5896 O 527.212 1.32024 1.24255 0
M  V30 5897 C 527.26 3.15255 -1.75062 0
M  V30 5898 O 526.364 3.99589 -1.01992 0
M  V30 5899 H 525.705 0.538904 -0.387915 0
M  V30 5900 H 528.235 1.21675 -1.64488 0
M  V30 5901 H 528.245 3.65787 -1.80731 0
M  V30 5902 H 526.92 3.07436 -2.801 0
M  V30 5903 H 525.497 3.58077 -1.04094 0
M  V30 5904 N 527.682 1.05563 1.17022 0
M  V30 5905 C 528.931 0.763036 1.8671 0
M  V30 5906 C 529.244 -0.712857 1.82147 0
M  V30 5907 O 530.45 -1.11955 2.47343 0
M  V30 5908 C 528.906 1.31474 3.35026 0
M  V30 5909 C 528.514 2.82034 3.48081 0
M  V30 5910 C 530.258 1.09935 4.10018 0
M  V30 5911 C 528.165 3.30486 4.90442 0
M  V30 5912 H 527.095 0.281747 0.699382 0
M  V30 5913 H 529.746 1.2734 1.32124 0
M  V30 5914 H 528.128 0.732171 3.89173 0
M  V30 5915 H 529.302 3.46178 3.04133 0
M  V30 5916 H 527.617 3.02156 2.86515 0
M  V30 5917 H 530.214 1.43632 5.15048 0
M  V30 5918 H 530.557 0.0373072 4.16283 0
M  V30 5919 H 531.09 1.64732 3.62089 0
M  V30 5920 H 527.829 4.36137 4.89352 0
M  V30 5921 H 527.349 2.71086 5.35044 0
M  V30 5922 H 529.028 3.25382 5.59227 0
M  V30 5923 N 529.16 -1.33526 0.837174 0
M  V30 5924 C 530.107 -2.29248 0.267169 0
M  V30 5925 C 531.077 -1.54252 -0.616071 0
M  V30 5926 O 532.262 -1.82559 -0.554699 0
M  V30 5927 C 529.402 -3.40638 -0.553152 0
M  V30 5928 C 528.515 -4.30548 0.353921 0
M  V30 5929 C 527.65 -5.29051 -0.477339 0
M  V30 5930 C 526.689 -6.106 0.42823 0
M  V30 5931 N 525.826 -7.01152 -0.364801 0
M  V30 5932 H 530.666 -2.77398 1.08877 0
M  V30 5933 H 528.203 -1.36496 0.54838 0
M  V30 5934 H 530.161 -4.03921 -1.04422 0
M  V30 5935 H 528.791 -2.93685 -1.33973 0
M  V30 5936 H 527.843 -3.68001 0.963289 0
M  V30 5937 H 529.155 -4.87631 1.04964 0
M  V30 5938 H 528.309 -5.97853 -1.0323 0
M  V30 5939 H 527.048 -4.72541 -1.2065 0
M  V30 5940 H 526.053 -5.40718 0.995219 0
M  V30 5941 H 527.278 -6.69193 1.15573 0
M  V30 5942 H 525.224 -6.47092 -1.07738 0
M  V30 5943 H 525.141 -7.5551 0.272238 0
M  V30 5944 H 526.409 -7.74263 -0.902054 0
M  V30 5945 N 530.638 -0.59345 -1.46 0
M  V30 5946 C 531.868 -0.0889642 -2.06408 0
M  V30 5947 C 532.276 1.22597 -1.44106 0
M  V30 5948 O 531.619 1.75448 -0.544398 0
M  V30 5949 C 531.681 0.139902 -3.59228 0
M  V30 5950 C 531.345 -1.09107 -4.43784 0
M  V30 5951 C 532.342 -2.00577 -4.79651 0
M  V30 5952 C 530.027 -1.31593 -4.84756 0
M  V30 5953 C 532.021 -3.12873 -5.55328 0
M  V30 5954 C 529.708 -2.44192 -5.60191 0
M  V30 5955 C 530.706 -3.34661 -5.95392 0
M  V30 5956 O 530.394 -4.45302 -6.69299 0
M  V30 5957 H 530.126 -0.0594613 -0.67338 0
M  V30 5958 H 532.68 -0.817 -1.88452 0
M  V30 5959 H 530.91 0.922672 -3.75531 0
M  V30 5960 H 532.599 0.594228 -4.01527 0
M  V30 5961 H 533.365 -1.84425 -4.48567 0
M  V30 5962 H 529.244 -0.620801 -4.56801 0
M  V30 5963 H 532.788 -3.83511 -5.82722 0
M  V30 5964 H 528.685 -2.60303 -5.90688 0
M  V30 5965 H 529.453 -4.43805 -6.87735 0
M  V30 5966 N 532.116 1.54067 -0.331816 0
M  V30 5967 C 533.064 2.26105 0.54582 0
M  V30 5968 C 534.058 1.27816 1.11173 0
M  V30 5969 O 535.264 1.45565 1.05882 0
M  V30 5970 H 531.639 0.726363 0.194683 0
M  V30 5971 H 533.61 2.98282 -0.083931 0
M  V30 5972 C 532.359 3.03814 1.69092 0
M  V30 5973 H 531.682 3.79269 1.26473 0
M  V30 5974 H 533.122 3.57453 2.28043 0
M  V30 5975 C 531.581 2.12606 2.61343 0
M  V30 5976 O 532.111 1.71437 3.6328 0
M  V30 5977 N 530.317 1.77925 2.29763 0
M  V30 5978 H 529.864 2.11602 1.46909 0
M  V30 5979 H 529.822 1.1718 2.91747 0
M  V30 5980 N 533.594 0.0601682 1.57485 0
M  V30 5981 C 534.504 -0.926121 2.15546 0
M  V30 5982 C 535.52 -1.33532 1.11558 0
M  V30 5983 O 536.696 -1.4104 1.4377 0
M  V30 5984 C 533.761 -2.17952 2.69625 0
M  V30 5985 C 532.822 -1.82783 3.88444 0
M  V30 5986 C 532.055 -3.02148 4.39935 0
M  V30 5987 O 532.278 -4.15803 3.90466 0
M  V30 5988 O 531.212 -2.82639 5.31412 0
M  V30 5989 H 535.038 -0.462289 3.00161 0
M  V30 5990 H 532.623 -0.162246 1.48516 0
M  V30 5991 H 534.505 -2.91474 3.04337 0
M  V30 5992 H 533.18 -2.63456 1.88077 0
M  V30 5993 H 532.087 -1.06549 3.58606 0
M  V30 5994 H 533.42 -1.42072 4.7125 0
M  V30 5995 N 535.072 -1.5615 -0.213296 0
M  V30 5996 C 536.321 -1.78743 -0.93455 0
M  V30 5997 C 536.634 -0.630199 -1.8517 0
M  V30 5998 O 537.84 -0.739966 -2.61222 0
M  V30 5999 C 536.296 -3.16571 -1.71203 0
M  V30 6000 C 535.904 -4.40043 -0.840617 0
M  V30 6001 C 537.648 -3.48485 -2.42401 0
M  V30 6002 C 535.555 -5.68895 -1.61592 0
M  V30 6003 H 534.485 -0.666426 -0.352692 0
M  V30 6004 H 537.136 -1.82532 -0.188227 0
M  V30 6005 H 535.518 -3.06981 -2.50157 0
M  V30 6006 H 536.692 -4.6071 -0.0910326 0
M  V30 6007 H 535.007 -4.15706 -0.240365 0
M  V30 6008 H 537.604 -4.41983 -3.00924 0
M  V30 6009 H 537.947 -2.71371 -3.15695 0
M  V30 6010 H 538.48 -3.59442 -1.7043 0
M  V30 6011 H 535.219 -6.48925 -0.926106 0
M  V30 6012 H 534.739 -5.52275 -2.33991 0
M  V30 6013 H 536.418 -6.09365 -2.17447 0
M  V30 6014 N 536.55 0.480323 -1.50102 0
M  V30 6015 C 537.827 1.24159 -1.51142 0
M  V30 6016 C 538.207 2.09605 -0.250818 0
M  V30 6017 O 537.555 2.15274 0.766118 0
M  V30 6018 C 537.765 2.08057 -2.80202 0
M  V30 6019 C 539.113 2.66556 -3.30504 0
M  V30 6020 O 540.137 2.18308 -2.81461 0
M  V30 6021 O 538.996 3.54442 -4.15973 0
M  V30 6022 H 536.09 0.562928 -0.605839 0
M  V30 6023 H 538.636 0.492899 -1.62384 0
M  V30 6024 H 537.408 1.45032 -3.6343 0
M  V30 6025 H 537.031 2.90079 -2.71919 0
M  V30 6026 N 538.028 1.39524 0.732853 0
M  V30 6027 C 538.976 1.38563 1.86824 0
M  V30 6028 C 539.97 0.268467 1.67259 0
M  V30 6029 O 541.176 0.438613 1.74574 0
M  V30 6030 H 537.551 0.432737 0.615014 0
M  V30 6031 H 539.522 2.34328 1.84751 0
M  V30 6032 C 538.271 1.2481 3.24527 0
M  V30 6033 H 537.594 2.10044 3.40179 0
M  V30 6034 H 539.034 1.28194 4.04156 0
M  V30 6035 C 537.493 -0.0432825 3.36872 0
M  V30 6036 O 538.023 -1.01268 3.88726 0
M  V30 6037 N 536.229 -0.107055 2.90403 0
M  V30 6038 H 535.776 0.682512 2.48394 0
M  V30 6039 H 535.734 -0.970618 2.99042 0
M  V30 6040 N 539.506 -0.963266 1.24736 0
M  V30 6041 C 540.755 -1.70115 1.08369 0
M  V30 6042 C 541.068 -1.91939 -0.376688 0
M  V30 6043 O 542.274 -2.6334 -0.660624 0
M  V30 6044 C 540.73 -3.06218 1.89099 0
M  V30 6045 C 540.338 -2.92221 3.39574 0
M  V30 6046 C 542.082 -3.83848 1.81275 0
M  V30 6047 C 539.989 -4.23662 4.12631 0
M  V30 6048 H 538.919 -0.637944 0.401924 0
M  V30 6049 H 541.57 -1.07304 1.48856 0
M  V30 6050 H 539.952 -3.69884 1.41429 0
M  V30 6051 H 541.126 -2.37541 3.94856 0
M  V30 6052 H 539.441 -2.28054 3.48397 0
M  V30 6053 H 542.038 -4.81188 2.33158 0
M  V30 6054 H 542.381 -4.08949 0.778895 0
M  V30 6055 H 542.914 -3.26918 2.26649 0
M  V30 6056 H 539.653 -4.03753 5.16395 0
M  V30 6057 H 539.173 -4.78141 3.62135 0
M  V30 6058 H 540.852 -4.92256 4.19873 0
M  V30 6059 N 540.985 -1.06182 -1.16461 0
M  V30 6060 C 542.21 -0.798599 -1.91408 0
M  V30 6061 C 542.635 0.640987 -1.76842 0
M  V30 6062 O 541.993 1.44652 -1.09296 0
M  V30 6063 C 542.041 -1.19665 -3.40165 0
M  V30 6064 O 541.145 -0.334768 -4.11039 0
M  V30 6065 H 540.486 -0.291961 -0.596368 0
M  V30 6066 H 543.016 -1.41732 -1.47557 0
M  V30 6067 H 543.026 -1.16772 -3.90933 0
M  V30 6068 H 541.701 -2.24526 -3.50087 0
M  V30 6069 H 540.278 -0.425168 -3.70468 0
M  V30 6070 N 542.463 1.3308 -0.844243 0
M  V30 6071 C 543.411 2.31028 -0.269954 0
M  V30 6072 C 544.405 1.58381 0.600997 0
M  V30 6073 O 545.611 1.73203 0.48996 0
M  V30 6074 H 541.986 0.748866 -0.0685782 0
M  V30 6075 H 543.957 2.76967 -1.11049 0
M  V30 6076 C 542.706 3.43549 0.535676 0
M  V30 6077 H 542.029 3.99604 -0.125202 0
M  V30 6078 H 543.469 4.14267 0.903262 0
M  V30 6079 C 541.928 2.8988 1.71672 0
M  V30 6080 O 542.458 2.86511 2.81557 0
M  V30 6081 N 540.664 2.46416 1.54037 0
M  V30 6082 H 540.211 2.49356 0.64649 0
M  V30 6083 H 540.169 2.1086 2.33207 0
M  V30 6084 N 543.941 0.601185 1.45683 0
M  V30 6085 C 544.851 -0.123395 2.34275 0
M  V30 6086 C 545.867 -0.86702 1.5086 0
M  V30 6087 O 547.043 -0.826049 1.8368 0
M  V30 6088 C 544.108 -1.11237 3.2837 0
M  V30 6089 C 543.169 -0.371405 4.2769 0
M  V30 6090 C 542.402 -1.31327 5.1729 0
M  V30 6091 O 542.625 -2.55078 5.10188 0
M  V30 6092 O 541.559 -0.813811 5.96373 0
M  V30 6093 H 545.385 0.604483 2.97623 0
M  V30 6094 H 542.97 0.361477 1.44961 0
M  V30 6095 H 544.852 -1.68214 3.8637 0
M  V30 6096 H 543.527 -1.82139 2.67595 0
M  V30 6097 H 542.434 0.24067 3.73325 0
M  V30 6098 H 543.767 0.296998 4.91303 0
M  V30 6099 N 545.419 -1.53889 0.339982 0
M  V30 6100 C 546.644 -2.05741 -0.261798 0
M  V30 6101 C 547.069 -1.21354 -1.43718 0
M  V30 6102 O 546.427 -0.22645 -1.7988 0
M  V30 6103 C 546.475 -3.54542 -0.658228 0
M  V30 6104 O 545.579 -3.7302 -1.75869 0
M  V30 6105 H 544.92 -0.662529 -0.0441672 0
M  V30 6106 H 547.45 -1.98568 0.493161 0
M  V30 6107 H 547.46 -3.9711 -0.936368 0
M  V30 6108 H 546.135 -4.15412 0.201358 0
M  V30 6109 H 544.712 -3.42355 -1.47809 0
M  V30 6110 N 546.897 -0.0685191 -1.57451 0
M  V30 6111 C 548.146 0.600898 -1.92541 0
M  V30 6112 C 548.459 1.70967 -0.950239 0
M  V30 6113 O 549.665 2.43844 -1.19384 0
M  V30 6114 C 548.121 1.12019 -3.42023 0
M  V30 6115 C 547.729 0.0426028 -4.4798 0
M  V30 6116 C 549.473 1.76386 -3.86119 0
M  V30 6117 C 547.38 0.575759 -5.88591 0
M  V30 6118 H 546.31 0.228225 -0.71863 0
M  V30 6119 H 548.961 -0.140223 -1.82963 0
M  V30 6120 H 547.343 1.91418 -3.46663 0
M  V30 6121 H 548.517 -0.73182 -4.54952 0
M  V30 6122 H 546.832 -0.504642 -4.13331 0
M  V30 6123 H 549.429 2.17302 -4.88553 0
M  V30 6124 H 549.772 2.62255 -3.23308 0
M  V30 6125 H 550.305 1.03615 -3.84069 0
M  V30 6126 H 547.044 -0.245691 -6.55039 0
M  V30 6127 H 546.564 1.31778 -5.85145 0
M  V30 6128 H 548.243 1.0532 -6.3837 0
M  V30 6129 N 548.375 1.56261 0.205012 0
M  V30 6130 C 549.322 1.93754 1.25411 0
M  V30 6131 C 550.292 0.796826 1.45739 0
M  V30 6132 O 551.477 1.05414 1.59036 0
M  V30 6133 C 548.617 2.27383 2.59598 0
M  V30 6134 C 547.73 3.5447 2.46931 0
M  V30 6135 C 546.865 3.77468 3.73753 0
M  V30 6136 C 545.904 4.98014 3.55877 0
M  V30 6137 N 545.041 5.17316 4.74688 0
M  V30 6138 H 549.881 2.83203 0.92737 0
M  V30 6139 H 547.418 1.40158 0.446574 0
M  V30 6140 H 549.376 2.44895 3.37761 0
M  V30 6141 H 548.006 1.41088 2.90335 0
M  V30 6142 H 547.058 3.45061 1.60116 0
M  V30 6143 H 548.37 4.42789 2.29651 0
M  V30 6144 H 547.524 3.95165 4.60358 0
M  V30 6145 H 546.263 2.87461 3.93976 0
M  V30 6146 H 545.268 4.80249 2.67657 0
M  V30 6147 H 546.493 5.8952 3.37109 0
M  V30 6148 H 544.439 4.30255 4.95194 0
M  V30 6149 H 544.356 5.99796 4.60197 0
M  V30 6150 H 545.624 5.39463 5.62672 0
M  V30 6151 N 549.853 -0.472356 1.50355 0
M  V30 6152 C 550.8 -1.57051 1.69126 0
M  V30 6153 C 551.77 -1.5733 0.532574 0
M  V30 6154 O 552.955 -1.7488 0.762994 0
M  V30 6155 C 550.095 -2.95033 1.79024 0
M  V30 6156 C 549.208 -3.04552 3.06386 0
M  V30 6157 C 548.343 -4.33441 3.07087 0
M  V30 6158 C 547.382 -4.36697 4.28908 0
M  V30 6159 N 546.519 -5.57056 4.27356 0
M  V30 6160 H 551.359 -1.40351 2.62879 0
M  V30 6161 H 548.896 -0.682403 1.30314 0
M  V30 6162 H 550.854 -3.75048 1.82744 0
M  V30 6163 H 549.484 -3.10371 0.887109 0
M  V30 6164 H 548.536 -2.17419 3.12143 0
M  V30 6165 H 549.848 -3.02818 3.96362 0
M  V30 6166 H 549.002 -5.21801 3.09529 0
M  V30 6167 H 547.741 -4.37782 2.14939 0
M  V30 6168 H 546.746 -3.46734 4.2668 0
M  V30 6169 H 547.971 -4.34049 5.22282 0
M  V30 6170 H 545.917 -5.62184 3.3806 0
M  V30 6171 H 545.834 -5.57058 5.111 0
M  V30 6172 H 547.102 -6.47545 4.33942 0
M  V30 6173 N 551.331 -1.39911 -0.725443 0
M  V30 6174 C 552.556 -1.41137 -1.5197 0
M  V30 6175 C 552.981 -0.010262 -1.88097 0
M  V30 6176 O 552.339 0.979184 -1.52583 0
M  V30 6177 C 552.387 -2.2994 -2.77777 0
M  V30 6178 O 551.491 -1.73586 -3.74088 0
M  V30 6179 H 550.832 -0.480219 -0.458569 0
M  V30 6180 H 553.362 -1.84023 -0.894249 0
M  V30 6181 H 553.372 -2.44785 -3.26411 0
M  V30 6182 H 552.047 -3.31759 -2.50816 0
M  V30 6183 H 550.624 -1.68035 -3.32894 0
M  V30 6184 N 552.809 0.956637 -1.25245 0
M  V30 6185 C 554.058 1.69537 -1.0927 0
M  V30 6186 C 554.371 1.92136 0.366503 0
M  V30 6187 O 555.577 2.63687 0.64665 0
M  V30 6188 C 554.033 3.05211 -1.9072 0
M  V30 6189 C 553.641 2.90416 -3.41119 0
M  V30 6190 C 555.385 3.82882 -1.83308 0
M  V30 6191 C 553.292 4.21468 -4.14872 0
M  V30 6192 H 552.222 0.635804 -0.405302 0
M  V30 6193 H 554.873 1.06513 -1.49423 0
M  V30 6194 H 553.255 3.69128 -1.43389 0
M  V30 6195 H 554.429 2.35444 -3.9611 0
M  V30 6196 H 552.744 2.26203 -3.49602 0
M  V30 6197 H 555.341 4.79944 -2.35706 0
M  V30 6198 H 555.684 4.0853 -0.800572 0
M  V30 6199 H 556.217 3.25711 -2.28379 0
M  V30 6200 H 552.956 4.01009 -5.18529 0
M  V30 6201 H 552.476 4.76213 -3.64665 0
M  V30 6202 H 554.155 4.90022 -4.22478 0
M  V30 6203 N 554.287 1.06798 1.15896 0
M  V30 6204 C 555.536 0.782796 1.8589 0
M  V30 6205 C 555.849 -0.693498 1.82893 0
M  V30 6206 O 557.055 -1.09325 2.48516 0
M  V30 6207 C 555.511 1.3502 3.33613 0
M  V30 6208 C 555.119 2.8571 3.45071 0
M  V30 6209 C 556.863 1.14278 4.08829 0
M  V30 6210 C 554.77 3.35669 4.86909 0
M  V30 6211 H 553.7 0.289149 0.696354 0
M  V30 6212 H 556.351 1.28734 1.30766 0
M  V30 6213 H 554.733 0.773407 3.88374 0
M  V30 6214 H 555.907 3.49385 3.00445 0
M  V30 6215 H 554.222 3.05178 2.83294 0
M  V30 6216 H 556.819 1.49087 5.13495 0
M  V30 6217 H 557.162 0.0814575 4.1622 0
M  V30 6218 H 557.695 1.68563 3.60321 0
M  V30 6219 H 554.434 4.41302 4.84698 0
M  V30 6220 H 553.954 2.76745 5.32139 0
M  V30 6221 H 555.633 3.31296 5.55745 0
M  V30 6222 N 555.766 -1.3263 0.851289 0
M  V30 6223 C 557.043 -1.91982 0.374448 0
M  V30 6224 C 557.423 -1.77568 -1.14161 0
M  V30 6225 O 556.771 -1.1717 -1.96172 0
M  V30 6226 C 556.981 -3.38862 0.835088 0
M  V30 6227 C 558.329 -4.15999 0.850309 0
M  V30 6228 O 559.353 -3.47566 0.779505 0
M  V30 6229 O 558.212 -5.38189 0.949481 0
M  V30 6230 H 555.306 -0.819846 0.10854 0
M  V30 6231 H 557.852 -1.41422 0.937966 0
M  V30 6232 H 556.624 -3.43281 1.87814 0
M  V30 6233 H 556.247 -3.96821 0.248833 0
M  V30 6234 N 557.244 -0.608902 -1.45362 0
M  V30 6235 C 558.469 -0.10921 -2.07112 0
M  V30 6236 C 558.894 1.19779 -1.45033 0
M  V30 6237 O 558.252 1.72961 -0.543527 0
M  V30 6238 C 558.3 0.0155745 -3.60597 0
M  V30 6239 O 557.404 1.06546 -3.98399 0
M  V30 6240 H 556.745 -0.0746619 -0.659789 0
M  V30 6241 H 559.275 -0.839283 -1.86594 0
M  V30 6242 H 559.285 0.213364 -4.07442 0
M  V30 6243 H 557.96 -0.938765 -4.05167 0
M  V30 6244 H 556.537 0.844024 -3.63223 0
M  V30 6245 N 558.722 1.53707 -0.348139 0
M  V30 6246 C 559.652 2.28111 0.498766 0
M  V30 6247 C 560.633 1.29851 1.09876 0
M  V30 6248 O 561.818 1.587 1.11928 0
M  V30 6249 C 558.948 3.05735 1.64753 0
M  V30 6250 C 557.902 4.11537 1.17565 0
M  V30 6251 C 557.228 4.77142 2.4133 0
M  V30 6252 C 558.528 5.21587 0.272844 0
M  V30 6253 H 560.222 2.99152 -0.121934 0
M  V30 6254 H 557.768 1.43875 -0.0600842 0
M  V30 6255 H 559.721 3.56526 2.24649 0
M  V30 6256 H 558.445 2.32354 2.2952 0
M  V30 6257 H 557.104 3.61665 0.599483 0
M  V30 6258 H 556.752 4.0035 3.04514 0
M  V30 6259 H 556.452 5.48626 2.10436 0
M  V30 6260 H 557.976 5.30719 3.01943 0
M  V30 6261 H 559.39 5.67986 0.778779 0
M  V30 6262 H 557.787 6.00074 0.0555849 0
M  V30 6263 H 558.857 4.79969 -0.689785 0
M  V30 6264 N 560.2 0.0768682 1.57412 0
M  V30 6265 C 561.147 -0.888577 2.13009 0
M  V30 6266 C 562.117 -1.29198 1.0439 0
M  V30 6267 O 563.302 -1.37694 1.3208 0
M  V30 6268 C 560.442 -2.14899 2.70023 0
M  V30 6269 C 559.555 -1.79777 3.92816 0
M  V30 6270 C 558.69 -3.00467 4.38056 0
M  V30 6271 C 557.729 -2.61385 5.53484 0
M  V30 6272 N 556.866 -3.74851 5.93659 0
M  V30 6273 H 561.706 -0.407593 2.95199 0
M  V30 6274 H 559.243 -0.189534 1.45874 0
M  V30 6275 H 561.201 -2.88688 3.0119 0
M  V30 6276 H 559.831 -2.60529 1.9059 0
M  V30 6277 H 558.883 -0.960301 3.68079 0
M  V30 6278 H 560.195 -1.47027 4.76639 0
M  V30 6279 H 559.349 -3.82529 4.7091 0
M  V30 6280 H 558.088 -3.36413 3.53097 0
M  V30 6281 H 557.093 -1.77746 5.20275 0
M  V30 6282 H 558.318 -2.26603 6.40178 0
M  V30 6283 H 556.264 -4.1055 5.11649 0
M  V30 6284 H 556.181 -3.45887 6.72234 0
M  V30 6285 H 557.449 -4.57477 6.31138 0
M  V30 6286 N 561.678 -1.56367 -0.196722 0
M  V30 6287 C 562.924 -1.80796 -0.918725 0
M  V30 6288 C 563.257 -0.650645 -1.82976 0
M  V30 6289 O 562.532 0.348889 -1.91345 0
M  V30 6290 C 562.815 -3.15472 -1.73636 0
M  V30 6291 C 562.668 -4.41693 -0.85015 0
M  V30 6292 C 563.987 -3.46824 -2.70927 0
M  V30 6293 H 561.106 -0.657702 -0.332561 0
M  V30 6294 H 563.748 -1.89086 -0.186186 0
M  V30 6295 H 561.898 -3.08536 -2.36088 0
M  V30 6296 H 563.57 -4.60673 -0.240459 0
M  V30 6297 H 561.813 -4.33517 -0.156785 0
M  V30 6298 H 562.484 -5.32419 -1.45719 0
M  V30 6299 H 564.96 -3.54049 -2.18607 0
M  V30 6300 H 563.836 -4.4218 -3.25219 0
M  V30 6301 H 564.097 -2.70236 -3.49893 0
M  V30 6302 N 563.156 0.464375 -1.50603 0
M  V30 6303 C 564.086 1.56944 -1.72889 0
M  V30 6304 C 565.067 1.59979 -0.577997 0
M  V30 6305 O 566.252 1.76138 -0.817855 0
M  V30 6306 C 563.382 2.95225 -1.8292 0
M  V30 6307 C 562.336 3.07056 -2.98162 0
M  V30 6308 C 561.662 4.47051 -2.93343 0
M  V30 6309 C 562.962 2.83648 -4.38567 0
M  V30 6310 H 564.656 1.38547 -2.65415 0
M  V30 6311 H 562.202 0.665082 -1.27721 0
M  V30 6312 H 564.155 3.72467 -1.97095 0
M  V30 6313 H 562.879 3.14793 -0.870209 0
M  V30 6314 H 561.538 2.32248 -2.83648 0
M  V30 6315 H 561.186 4.63547 -1.95276 0
M  V30 6316 H 560.886 4.55902 -3.70712 0
M  V30 6317 H 562.41 5.26304 -3.09575 0
M  V30 6318 H 563.824 3.50636 -4.53572 0
M  V30 6319 H 562.221 3.03937 -5.17438 0
M  V30 6320 H 563.291 1.79451 -4.50472 0
M  V30 6321 N 564.634 1.40294 0.718013 0
M  V30 6322 C 565.859 1.41941 1.5122 0
M  V30 6323 C 566.284 0.0202371 1.88089 0
M  V30 6324 O 565.642 -0.971078 1.53101 0
M  V30 6325 C 565.69 2.3141 2.76554 0
M  V30 6326 O 564.794 1.75567 3.73162 0
M  V30 6327 H 564.135 0.482644 0.456016 0
M  V30 6328 H 566.665 1.84494 0.884478 0
M  V30 6329 H 566.675 2.46513 3.25108 0
M  V30 6330 H 565.35 3.33085 2.49053 0
M  V30 6331 H 563.927 1.69798 3.31999 0
M  V30 6332 N 566.112 -0.949982 1.2575 0
M  V30 6333 C 567.361 -1.68956 1.10168 0
M  V30 6334 C 567.674 -1.92327 -0.356309 0
M  V30 6335 O 568.88 -2.64026 -0.632657 0
M  V30 6336 C 567.336 -3.04196 1.92336 0
M  V30 6337 C 566.944 -2.88603 3.42655 0
M  V30 6338 C 568.688 -3.81904 1.85336 0
M  V30 6339 C 566.595 -4.19262 4.17101 0
M  V30 6340 H 565.525 -0.633645 0.408668 0
M  V30 6341 H 568.176 -1.05719 1.49986 0
M  V30 6342 H 566.558 -3.68363 1.45344 0
M  V30 6343 H 567.732 -2.3334 3.97353 0
M  V30 6344 H 566.047 -2.24345 3.50796 0
M  V30 6345 H 568.644 -4.78688 2.38248 0
M  V30 6346 H 568.987 -4.08099 0.822226 0
M  V30 6347 H 569.52 -3.24495 2.30104 0
M  V30 6348 H 566.259 -3.98254 5.20648 0
M  V30 6349 H 565.779 -4.74273 3.67186 0
M  V30 6350 H 567.458 -4.87775 4.25071 0
M  V30 6351 N 567.59 -1.07411 -1.15328 0
M  V30 6352 C 568.537 -0.694995 -2.20087 0
M  V30 6353 C 569.507 0.313904 -1.63107 0
M  V30 6354 O 570.692 0.200216 -1.89747 0
M  V30 6355 C 567.832 -0.0996218 -3.44956 0
M  V30 6356 C 566.945 -1.16007 -4.16133 0
M  V30 6357 C 566.08 -0.529636 -5.28553 0
M  V30 6358 C 565.119 -1.57283 -5.91548 0
M  V30 6359 N 564.256 -0.964932 -6.95438 0
M  V30 6360 H 569.096 -1.5927 -2.51867 0
M  V30 6361 H 566.633 -0.796115 -1.23695 0
M  V30 6362 H 568.591 0.263197 -4.16369 0
M  V30 6363 H 567.221 0.761435 -3.13691 0
M  V30 6364 H 566.273 -1.64045 -3.4321 0
M  V30 6365 H 567.585 -1.95101 -4.59061 0
M  V30 6366 H 566.739 -0.114487 -6.06592 0
M  V30 6367 H 565.478 0.29307 -4.86819 0
M  V30 6368 H 564.483 -1.99775 -5.12221 0
M  V30 6369 H 565.708 -2.39783 -6.35359 0
M  V30 6370 H 563.654 -0.16314 -6.55797 0
M  V30 6371 H 563.571 -1.69311 -7.36797 0
M  V30 6372 H 564.839 -0.575305 -7.77374 0
M  V30 6373 N 569.068 1.32177 -0.85831 0
M  V30 6374 C 570.015 2.28794 -0.303607 0
M  V30 6375 C 570.985 1.55213 0.591453 0
M  V30 6376 O 572.17 1.83418 0.525585 0
M  V30 6377 C 569.31 3.41475 0.49889 0
M  V30 6378 C 568.423 4.2993 -0.422373 0
M  V30 6379 C 567.558 5.29743 0.393111 0
M  V30 6380 C 566.597 6.09842 -0.525317 0
M  V30 6381 N 565.734 7.01643 0.253208 0
M  V30 6382 H 570.574 2.75631 -1.13276 0
M  V30 6383 H 568.111 1.35606 -0.570026 0
M  V30 6384 H 570.069 4.05531 0.979826 0
M  V30 6385 H 568.699 2.95779 1.29284 0
M  V30 6386 H 567.751 3.66422 -1.02171 0
M  V30 6387 H 569.063 4.85899 -1.12709 0
M  V30 6388 H 568.217 5.9942 0.937056 0
M  V30 6389 H 566.956 4.744 1.13117 0
M  V30 6390 H 565.961 5.39066 -1.08112 0
M  V30 6391 H 567.186 6.6727 -1.26205 0
M  V30 6392 H 565.132 6.48725 0.974295 0
M  V30 6393 H 565.049 7.54981 -0.392398 0
M  V30 6394 H 566.317 7.756 0.778761 0
M  V30 6395 N 570.547 0.616602 1.45037 0
M  V30 6396 C 571.824 0.0469086 1.95544 0
M  V30 6397 C 572.204 -1.42345 1.55888 0
M  V30 6398 O 571.552 -2.13055 0.825824 0
M  V30 6399 C 571.762 0.254489 3.48071 0
M  V30 6400 C 573.11 0.140025 4.24369 0
M  V30 6401 O 574.134 0.185084 3.55719 0
M  V30 6402 O 572.993 0.0327034 5.4649 0
M  V30 6403 H 570.087 -0.0306051 0.826433 0
M  V30 6404 H 572.633 0.687293 1.55159 0
M  V30 6405 H 571.405 1.27532 3.69934 0
M  V30 6406 H 571.028 -0.42073 3.95368 0
M  V30 6407 N 572.025 -1.5352 0.356285 0
M  V30 6408 C 572.935 -2.29151 -0.502712 0
M  V30 6409 C 573.951 -1.34753 -1.1008 0
M  V30 6410 O 575.127 -1.67803 -1.11374 0
M  V30 6411 C 572.192 -3.05911 -1.63154 0
M  V30 6412 C 571.253 -4.15958 -1.06194 0
M  V30 6413 C 570.486 -4.8905 -2.13696 0
M  V30 6414 O 570.709 -4.61919 -3.34645 0
M  V30 6415 O 569.643 -5.75202 -1.77275 0
M  V30 6416 H 573.469 -3.03492 0.112466 0
M  V30 6417 H 571.054 -1.4891 0.120942 0
M  V30 6418 H 572.936 -3.53874 -2.28804 0
M  V30 6419 H 571.611 -2.34415 -2.23229 0
M  V30 6420 H 570.518 -3.7227 -0.369603 0
M  V30 6421 H 571.851 -4.89593 -0.505872 0
M  V30 6422 N 573.503 -0.0852151 -1.57369 0
M  V30 6423 C 574.733 0.588605 -1.98038 0
M  V30 6424 C 575.141 1.62869 -0.962817 0
M  V30 6425 O 574.484 1.83611 0.057134 0
M  V30 6426 C 574.546 1.30303 -3.35054 0
M  V30 6427 C 574.21 0.414855 -4.55113 0
M  V30 6428 C 575.207 -0.333011 -5.18832 0
M  V30 6429 C 572.892 0.335804 -5.01176 0
M  V30 6430 C 574.886 -1.14801 -6.26976 0
M  V30 6431 C 572.573 -0.482857 -6.09189 0
M  V30 6432 C 573.571 -1.22342 -6.71953 0
M  V30 6433 O 573.259 -2.02855 -7.77885 0
M  V30 6434 H 572.991 0.163249 -0.655992 0
M  V30 6435 H 575.545 -0.1582 -2.0479 0
M  V30 6436 H 573.775 2.0962 -3.24956 0
M  V30 6437 H 575.464 1.87041 -3.60237 0
M  V30 6438 H 576.23 -0.281611 -4.84182 0
M  V30 6439 H 572.109 0.901869 -4.52092 0
M  V30 6440 H 575.653 -1.72654 -6.75897 0
M  V30 6441 H 571.55 -0.535773 -6.43273 0
M  V30 6442 H 572.318 -1.95432 -7.94826 0
M  V30 6443 N 574.981 1.5647 0.188427 0
M  V30 6444 C 575.911 1.98101 1.23606 0
M  V30 6445 C 576.892 0.853961 1.47111 0
M  V30 6446 O 578.077 1.11879 1.58735 0
M  V30 6447 C 575.207 2.32624 2.57882 0
M  V30 6448 C 574.161 3.48129 2.48978 0
M  V30 6449 C 573.487 3.68347 3.87588 0
M  V30 6450 C 574.787 4.82112 2.00911 0
M  V30 6451 H 576.481 2.85864 0.890068 0
M  V30 6452 H 574.027 1.37532 0.426714 0
M  V30 6453 H 575.98 2.60343 3.3136 0
M  V30 6454 H 574.704 1.41751 2.94235 0
M  V30 6455 H 573.363 3.20511 1.77956 0
M  V30 6456 H 573.011 2.74793 4.21305 0
M  V30 6457 H 572.711 4.46055 3.82503 0
M  V30 6458 H 574.235 3.98449 4.62678 0
M  V30 6459 H 575.649 5.08819 2.64151 0
M  V30 6460 H 574.046 5.63337 2.06814 0
M  V30 6461 H 575.116 4.75249 0.96262 0
M  V30 6462 N 576.459 -0.456382 1.50847 0
M  V30 6463 C 577.406 -1.55249 1.70782 0
M  V30 6464 C 578.376 -1.56757 0.549231 0
M  V30 6465 O 579.561 -1.74061 0.7815 0
M  V30 6466 C 576.701 -2.93118 1.82143 0
M  V30 6467 C 575.814 -3.01285 3.09598 0
M  V30 6468 C 574.949 -4.30159 3.11667 0
M  V30 6469 C 573.988 -4.32124 4.33515 0
M  V30 6470 N 573.125 -5.52492 4.3324 0
M  V30 6471 H 577.965 -1.37555 2.64353 0
M  V30 6472 H 575.502 -0.668543 1.3103 0
M  V30 6473 H 577.46 -3.73088 1.86711 0
M  V30 6474 H 576.09 -3.09413 0.919978 0
M  V30 6475 H 575.142 -2.14096 3.14431 0
M  V30 6476 H 576.454 -2.98597 3.99551 0
M  V30 6477 H 575.608 -5.18489 3.15046 0
M  V30 6478 H 574.347 -4.35477 2.1957 0
M  V30 6479 H 573.352 -3.42189 4.30333 0
M  V30 6480 H 574.577 -4.28485 5.26856 0
M  V30 6481 H 572.523 -5.58567 3.44004 0
M  V30 6482 H 572.44 -5.51605 5.16979 0
M  V30 6483 H 573.708 -6.42906 4.40786 0
M  V30 6484 N 577.937 -1.40673 -0.710563 0
M  V30 6485 C 578.847 -1.43663 -1.85467 0
M  V30 6486 C 579.863 -0.328721 -1.70867 0
M  V30 6487 O 581.039 -0.574098 -1.93044 0
M  V30 6488 C 578.104 -1.30226 -3.21313 0
M  V30 6489 C 577.165 -2.51204 -3.48131 0
M  V30 6490 C 576.398 -2.38398 -4.77495 0
M  V30 6491 O 576.621 -1.40048 -5.5294 0
M  V30 6492 O 575.555 -3.2787 -5.04762 0
M  V30 6493 H 579.381 -2.40156 -1.859 0
M  V30 6494 H 576.966 -1.22049 -0.861652 0
M  V30 6495 H 578.848 -1.2496 -4.02446 0
M  V30 6496 H 577.523 -0.368419 -3.21597 0
M  V30 6497 H 576.43 -2.62048 -2.66987 0
M  V30 6498 H 577.763 -3.43366 -3.52648 0
M  V30 6499 N 579.415 0.9433 -1.26252 0
M  V30 6500 C 580.363 2.06302 -1.07434 0
M  V30 6501 C 581.357 1.694 -0.00189471 0
M  V30 6502 O 582.563 1.79302 -0.158408 0
M  V30 6503 H 578.938 0.675453 -0.330556 0
M  V30 6504 H 580.909 2.19326 -2.02333 0
M  V30 6505 C 579.658 3.40125 -0.721817 0
M  V30 6506 H 578.981 3.68996 -1.5389 0
M  V30 6507 H 580.421 4.19295 -0.629922 0
M  V30 6508 C 578.88 3.31993 0.572902 0
M  V30 6509 O 579.41 3.67945 1.61182 0
M  V30 6510 N 577.616 2.85099 0.562748 0
M  V30 6511 H 577.163 2.5604 -0.283092 0
M  V30 6512 H 577.121 2.80041 1.42915 0
M  V30 6513 N 580.893 1.08022 1.14757 0
M  V30 6514 C 581.825 0.664566 2.19354 0
M  V30 6515 C 582.838 -0.286374 1.60261 0
M  V30 6516 O 584.027 -0.0746362 1.78344 0
M  V30 6517 C 581.127 -0.0434634 3.38872 0
M  V30 6518 C 580.3 0.925381 4.27499 0
M  V30 6519 C 579.359 0.253398 5.2559 0
M  V30 6520 O 578.385 0.896581 5.62094 0
M  V30 6521 N 579.587 -0.998263 5.71852 0
M  V30 6522 H 582.352 1.56438 2.55631 0
M  V30 6523 H 579.913 0.965788 1.29939 0
M  V30 6524 H 581.905 -0.503857 4.01551 0
M  V30 6525 H 580.475 -0.845321 3.00954 0
M  V30 6526 H 579.695 1.56472 3.61815 0
M  V30 6527 H 580.983 1.58203 4.8358 0
M  V30 6528 H 580.381 -1.54063 5.44317 0
M  V30 6529 H 578.938 -1.40222 6.36538 0
M  V30 6530 N 582.371 -1.3172 0.865308 0
M  V30 6531 C 583.319 -2.30569 0.306674 0
M  V30 6532 C 584.313 -1.59317 -0.575724 0
M  V30 6533 O 585.519 -1.73961 -0.462343 0
M  V30 6534 H 581.894 -0.747681 0.0804834 0
M  V30 6535 H 583.865 -2.75165 1.15441 0
M  V30 6536 C 582.614 -3.44358 -0.480952 0
M  V30 6537 H 581.937 -3.99354 0.18876 0
M  V30 6538 H 583.377 -4.15652 -0.837241 0
M  V30 6539 C 581.836 -2.92574 -1.67039 0
M  V30 6540 O 582.366 -2.90954 -2.76964 0
M  V30 6541 N 580.572 -2.48835 -1.50097 0
M  V30 6542 H 580.119 -2.50353 -0.606738 0
M  V30 6543 H 580.077 -2.14543 -2.29823 0
M  V30 6544 N 583.85 -0.624285 -1.44708 0
M  V30 6545 C 585.099 -0.123539 -2.01321 0
M  V30 6546 C 585.412 1.25966 -1.49639 0
M  V30 6547 O 586.618 1.85405 -1.98336 0
M  V30 6548 C 585.074 -0.170124 -3.59498 0
M  V30 6549 C 584.682 -1.55421 -4.20176 0
M  V30 6550 C 586.426 0.274513 -4.23611 0
M  V30 6551 C 584.332 -1.55628 -5.70556 0
M  V30 6552 H 583.263 -0.0424183 -0.752806 0
M  V30 6553 H 585.913 -0.782076 -1.65999 0
M  V30 6554 H 584.296 0.555385 -3.92086 0
M  V30 6555 H 585.47 -2.30276 -3.99136 0
M  V30 6556 H 583.784 -1.94235 -3.68323 0
M  V30 6557 H 586.382 0.292402 -5.339 0
M  V30 6558 H 586.725 1.3005 -3.95465 0
M  V30 6559 H 587.258 -0.398275 -3.95801 0
M  V30 6560 H 583.997 -2.56041 -6.03426 0
M  V30 6561 H 583.517 -0.850563 -5.93739 0
M  V30 6562 H 585.196 -1.28721 -6.34066 0
M  V30 6563 N 585.328 1.53329 -0.364422 0
M  V30 6564 C 586.605 1.93557 0.281962 0
M  V30 6565 C 586.985 1.29786 1.6649 0
M  V30 6566 O 586.333 0.456512 2.23893 0
M  V30 6567 C 586.543 3.47405 0.333331 0
M  V30 6568 C 587.891 4.20699 0.574231 0
M  V30 6569 O 588.915 3.53779 0.414588 0
M  V30 6570 O 587.774 5.39287 0.885002 0
M  V30 6571 H 584.868 0.809573 0.168881 0
M  V30 6572 H 587.414 1.64494 -0.417121 0
M  V30 6573 H 586.186 3.86091 -0.636326 0
M  V30 6574 H 585.809 3.82697 1.07836 0
M  V30 6575 N 586.806 0.0935595 1.57322 0
M  V30 6576 C 588.036 -0.578095 1.98347 0
M  V30 6577 C 588.444 -1.62357 0.971441 0
M  V30 6578 O 587.787 -1.83639 -0.0473959 0
M  V30 6579 C 587.849 -1.28525 3.3574 0
M  V30 6580 C 587.513 -0.390714 4.55327 0
M  V30 6581 C 588.51 0.360522 5.18648 0
M  V30 6582 C 586.195 -0.309221 5.01347 0
M  V30 6583 C 588.189 1.18125 6.26359 0
M  V30 6584 C 585.876 0.515157 6.08925 0
M  V30 6585 C 586.874 1.25904 6.71295 0
M  V30 6586 O 586.562 2.06978 7.76798 0
M  V30 6587 H 586.294 -0.159767 0.656849 0
M  V30 6588 H 588.848 0.169058 2.04703 0
M  V30 6589 H 587.078 -2.07894 3.26063 0
M  V30 6590 H 588.767 -1.85128 3.61223 0
M  V30 6591 H 589.533 0.307285 4.84026 0
M  V30 6592 H 585.412 -0.877881 4.52564 0
M  V30 6593 H 588.956 1.76236 6.74971 0
M  V30 6594 H 584.853 0.56988 6.42979 0
M  V30 6595 H 585.621 1.99644 7.93779 0
M  V30 6596 N 588.284 -1.56567 -0.180126 0
M  V30 6597 C 589.531 -1.81492 -0.898167 0
M  V30 6598 C 589.859 -0.669225 -1.82624 0
M  V30 6599 O 589.114 0.344096 -1.92651 0
M  V30 6600 C 589.413 -3.1252 -1.73395 0
M  V30 6601 C 589.079 -4.40658 -0.955567 0
M  V30 6602 C 587.741 -4.75465 -0.740707 0
M  V30 6603 C 590.093 -5.19593 -0.408948 0
M  V30 6604 C 587.421 -5.86691 0.0320128 0
M  V30 6605 C 589.773 -6.31627 0.350638 0
M  V30 6606 C 588.437 -6.65007 0.576378 0
M  V30 6607 H 587.707 -0.664125 -0.328662 0
M  V30 6608 H 590.354 -1.908 -0.163616 0
M  V30 6609 H 588.659 -2.98515 -2.53763 0
M  V30 6610 H 590.356 -3.29013 -2.29241 0
M  V30 6611 H 586.946 -4.13352 -1.13306 0
M  V30 6612 H 591.13 -4.93104 -0.562307 0
M  V30 6613 H 586.386 -6.11016 0.216735 0
M  V30 6614 H 590.56 -6.92001 0.781497 0
M  V30 6615 H 588.187 -7.51033 1.17703 0
M  V30 6616 N 589.762 0.448376 -1.51087 0
M  V30 6617 C 591.011 1.19561 -1.62444 0
M  V30 6618 C 591.324 1.92602 -0.341151 0
M  V30 6619 O 592.53 2.69439 -0.333936 0
M  V30 6620 C 590.986 2.17373 -2.8684 0
M  V30 6621 C 590.594 1.5003 -4.22131 0
M  V30 6622 C 592.338 2.92597 -3.0755 0
M  V30 6623 C 590.245 2.46262 -5.37689 0
M  V30 6624 H 589.175 0.449975 -0.605011 0
M  V30 6625 H 591.826 0.463735 -1.77544 0
M  V30 6626 H 590.208 2.93948 -2.65349 0
M  V30 6627 H 591.382 0.790886 -4.53962 0
M  V30 6628 H 589.697 0.870011 -4.0721 0
M  V30 6629 H 592.294 3.64663 -3.91056 0
M  V30 6630 H 592.637 3.53306 -2.20183 0
M  V30 6631 H 593.17 2.23131 -3.29329 0
M  V30 6632 H 589.909 1.90258 -6.27281 0
M  V30 6633 H 589.429 3.15289 -5.10248 0
M  V30 6634 H 591.108 3.07623 -5.6919 0
M  V30 6635 N 591.24 1.41047 0.703093 0
M  V30 6636 C 592.17 1.45067 1.82969 0
M  V30 6637 C 593.151 0.31016 1.67248 0
M  V30 6638 O 594.336 0.520548 1.87093 0
M  V30 6639 C 591.466 1.32478 3.2104 0
M  V30 6640 C 590.42 2.44262 3.51454 0
M  V30 6641 C 589.746 2.16742 4.88801 0
M  V30 6642 C 591.046 3.86606 3.51189 0
M  V30 6643 H 592.74 2.39353 1.79863 0
M  V30 6644 H 590.286 1.15206 0.863919 0
M  V30 6645 H 592.239 1.33904 3.99559 0
M  V30 6646 H 590.963 0.346735 3.24754 0
M  V30 6647 H 589.622 2.42107 2.75282 0
M  V30 6648 H 589.27 1.17299 4.89132 0
M  V30 6649 H 588.97 2.91643 5.10116 0
M  V30 6650 H 590.494 2.19872 5.69639 0
M  V30 6651 H 591.908 3.90517 4.19725 0
M  V30 6652 H 590.305 4.61128 3.84033 0
M  V30 6653 H 591.375 4.15296 2.50315 0
M  V30 6654 N 592.718 -0.936591 1.26751 0
M  V30 6655 C 593.964 -1.6858 1.12733 0
M  V30 6656 C 594.297 -1.91414 -0.327745 0
M  V30 6657 O 593.572 -1.49812 -1.24043 0
M  V30 6658 C 593.855 -3.05779 1.90187 0
M  V30 6659 C 593.708 -2.90242 3.43627 0
M  V30 6660 C 595.027 -4.0597 1.69931 0
M  V30 6661 H 592.146 -0.61182 0.410908 0
M  V30 6662 H 594.788 -1.08747 1.55801 0
M  V30 6663 H 592.938 -3.56853 1.53584 0
M  V30 6664 H 594.61 -2.46354 3.9001 0
M  V30 6665 H 592.853 -2.2577 3.70419 0
M  V30 6666 H 593.524 -3.87572 3.93055 0
M  V30 6667 H 596 -3.63874 2.0183 0
M  V30 6668 H 594.876 -4.99974 2.26534 0
M  V30 6669 H 595.137 -4.37369 0.64502 0
M  V30 6670 N 594.196 -1.08629 -1.14182 0
M  V30 6671 C 595.144 -0.71284 -2.21408 0
M  V30 6672 C 596.138 0.282457 -1.67029 0
M  V30 6673 O 597.344 0.144783 -1.79417 0
M  V30 6674 H 593.719 -0.212497 -0.721352 0
M  V30 6675 H 595.69 -1.6265 -2.50175 0
M  V30 6676 C 594.439 -0.140704 -3.47415 0
M  V30 6677 H 593.762 -0.897739 -3.8959 0
M  V30 6678 H 595.202 0.0827677 -4.23919 0
M  V30 6679 C 593.661 1.122 -3.17668 0
M  V30 6680 O 594.191 2.20652 -3.35672 0
M  V30 6681 N 592.397 1.03328 -2.71609 0
M  V30 6682 H 591.944 0.150666 -2.57159 0
M  V30 6683 H 591.902 1.8789 -2.52081 0
M  V30 6684 N 595.674 1.31259 -0.872281 0
M  V30 6685 C 596.622 2.30404 -0.318897 0
M  V30 6686 C 597.616 1.5962 0.567267 0
M  V30 6687 O 598.822 1.74204 0.453111 0
M  V30 6688 H 595.197 0.747243 -0.0844474 0
M  V30 6689 H 597.168 2.74549 -1.16899 0
M  V30 6690 C 595.917 3.44608 0.462683 0
M  V30 6691 H 595.24 3.99248 -0.209936 0
M  V30 6692 H 596.68 4.1609 0.815187 0
M  V30 6693 C 595.139 2.93456 1.65485 0
M  V30 6694 O 595.669 2.92418 2.75417 0
M  V30 6695 N 593.875 2.49628 1.48776 0
M  V30 6696 H 593.422 2.50671 0.593452 0
M  V30 6697 H 593.38 2.15759 2.28682 0
M  V30 6698 N 597.152 0.631951 1.44375 0
M  V30 6699 C 598.1 -0.0846693 2.32446 0
M  V30 6700 C 599.094 -0.834957 1.47393 0
M  V30 6701 O 600.3 -0.747764 1.63733 0
M  V30 6702 H 596.675 -0.0461508 0.750583 0
M  V30 6703 H 598.646 0.67619 2.90638 0
M  V30 6704 C 597.395 -1.05211 3.314 0
M  V30 6705 H 596.718 -0.484203 3.96857 0
M  V30 6706 H 598.158 -1.523 3.95703 0
M  V30 6707 C 596.617 -2.13776 2.60387 0
M  V30 6708 O 597.147 -3.21869 2.4034 0
M  V30 6709 N 595.353 -1.89733 2.20113 0
M  V30 6710 H 594.9 -1.01833 2.36618 0
M  V30 6711 H 594.858 -2.62572 1.72926 0
M  V30 6712 N 598.631 -1.53133 0.372548 0
M  V30 6713 C 599.563 -2.23557 -0.505444 0
M  V30 6714 C 600.576 -1.25211 -1.04049 0
M  V30 6715 O 601.765 -1.51391 -0.945675 0
M  V30 6716 C 598.865 -2.92516 -1.71136 0
M  V30 6717 C 598.038 -4.17428 -1.30661 0
M  V30 6718 C 597.097 -4.69535 -2.37536 0
M  V30 6719 O 596.123 -5.33042 -1.99637 0
M  V30 6720 N 597.325 -4.47947 -3.6922 0
M  V30 6721 H 600.09 -2.9954 0.0978259 0
M  V30 6722 H 597.651 -1.60684 0.198068 0
M  V30 6723 H 599.643 -3.24281 -2.42124 0
M  V30 6724 H 598.213 -2.19944 -2.22134 0
M  V30 6725 H 597.433 -3.91888 -0.426292 0
M  V30 6726 H 598.721 -4.98622 -1.01259 0
M  V30 6727 H 598.119 -3.97219 -4.02783 0
M  V30 6728 H 596.676 -4.84245 -4.36292 0
M  V30 6729 N 600.109 -0.101901 -1.5727 0
M  V30 6730 C 601.355 0.561027 -1.94885 0
M  V30 6731 C 601.688 1.6741 -0.984258 0
M  V30 6732 O 600.963 1.94491 -0.0184767 0
M  V30 6733 C 601.246 1.10982 -3.42571 0
M  V30 6734 C 601.099 0.00133418 -4.498 0
M  V30 6735 C 602.418 2.00608 -3.9172 0
M  V30 6736 H 599.537 0.202467 -0.708644 0
M  V30 6737 H 602.179 -0.173992 -1.89202 0
M  V30 6738 H 600.329 1.73621 -3.47546 0
M  V30 6739 H 602.001 -0.63322 -4.56933 0
M  V30 6740 H 600.244 -0.664143 -4.28686 0
M  V30 6741 H 600.915 0.426253 -5.50352 0
M  V30 6742 H 603.391 1.47864 -3.88941 0
M  V30 6743 H 602.267 2.3593 -4.95609 0
M  V30 6744 H 602.528 2.92608 -3.3141 0
M  V30 6745 N 601.587 1.56661 0.17182 0
M  V30 6746 C 602.534 1.96371 1.21273 0
M  V30 6747 C 603.504 0.82756 1.44016 0
M  V30 6748 O 604.689 1.08764 1.56764 0
M  V30 6749 C 601.829 2.32838 2.54716 0
M  V30 6750 C 600.942 3.59628 2.39356 0
M  V30 6751 C 600.077 3.85311 3.65662 0
M  V30 6752 C 599.116 5.0545 3.45234 0
M  V30 6753 N 598.253 5.27268 4.63608 0
M  V30 6754 H 603.093 2.85106 0.86709 0
M  V30 6755 H 600.63 1.41073 0.416744 0
M  V30 6756 H 602.588 2.52004 3.3249 0
M  V30 6757 H 601.218 1.47214 2.87277 0
M  V30 6758 H 600.27 3.4838 1.52761 0
M  V30 6759 H 601.582 4.4756 2.20207 0
M  V30 6760 H 600.736 4.04841 4.51872 0
M  V30 6761 H 599.475 2.95753 3.8779 0
M  V30 6762 H 598.48 4.85819 2.5741 0
M  V30 6763 H 599.705 5.96538 3.24529 0
M  V30 6764 H 597.651 4.40662 4.85956 0
M  V30 6765 H 597.568 6.09422 4.4737 0
M  V30 6766 H 598.836 5.51277 5.51103 0
M  V30 6767 N 603.065 -0.440357 1.51323 0
M  V30 6768 C 604.314 -1.18697 1.63076 0
M  V30 6769 C 604.627 -1.92418 0.35136 0
M  V30 6770 O 605.833 -2.69258 0.348221 0
M  V30 6771 C 604.289 -2.15849 2.87988 0
M  V30 6772 C 603.897 -1.47789 4.22921 0
M  V30 6773 C 605.641 -2.90962 3.09098 0
M  V30 6774 C 603.548 -2.43407 5.38987 0
M  V30 6775 H 602.478 -0.44676 0.607389 0
M  V30 6776 H 605.129 -0.454313 1.77787 0
M  V30 6777 H 603.511 -2.92537 2.66905 0
M  V30 6778 H 604.685 -0.7668 4.54375 0
M  V30 6779 H 603 -0.848404 4.07665 0
M  V30 6780 H 605.597 -3.62584 3.92985 0
M  V30 6781 H 605.94 -3.52133 2.22053 0
M  V30 6782 H 606.473 -2.21381 3.30507 0
M  V30 6783 H 603.212 -1.86929 6.28282 0
M  V30 6784 H 602.732 -3.12579 5.11913 0
M  V30 6785 H 604.411 -3.046 5.70813 0
M  V30 6786 N 604.543 -1.41418 -0.695603 0
M  V30 6787 C 605.792 -1.40073 -1.4513 0
M  V30 6788 C 606.105 -0.0130439 -1.95596 0
M  V30 6789 O 607.311 0.123032 -2.71221 0
M  V30 6790 C 605.767 -2.46286 -2.62433 0
M  V30 6791 C 605.375 -3.90962 -2.18753 0
M  V30 6792 C 607.119 -2.54077 -3.40066 0
M  V30 6793 C 605.026 -4.88728 -3.33015 0
M  V30 6794 H 603.956 -0.520903 -0.545138 0
M  V30 6795 H 606.607 -1.67242 -0.75515 0
M  V30 6796 H 604.989 -2.12248 -3.34315 0
M  V30 6797 H 606.163 -4.34248 -1.54161 0
M  V30 6798 H 604.478 -3.86831 -1.54114 0
M  V30 6799 H 607.075 -3.24303 -4.25125 0
M  V30 6800 H 607.418 -1.5776 -3.8525 0
M  V30 6801 H 607.951 -2.87206 -2.75241 0
M  V30 6802 H 604.69 -5.86449 -2.92844 0
M  V30 6803 H 604.21 -4.50091 -3.96457 0
M  V30 6804 H 605.889 -5.09483 -3.98793 0
M  V30 6805 N 606.021 0.929856 -1.27246 0
M  V30 6806 C 607.437 1.20542 -1.04603 0
M  V30 6807 C 607.637 2.00276 0.221754 0
M  V30 6808 O 606.693 2.34835 0.927833 0
M  V30 6809 C 608.006 1.95566 -2.28417 0
M  V30 6810 C 609.554 2.08513 -2.33433 0
M  V30 6811 C 610.029 2.86943 -3.5697 0
M  V30 6812 N 611.52 2.94512 -3.57515 0
M  V30 6813 C 612.255 3.55656 -4.49774 0
M  V30 6814 N 611.751 4.18209 -5.52334 0
M  V30 6815 N 613.544 3.53038 -4.37402 0
M  V30 6816 H 605.695 0.397113 -2.08655 0
M  V30 6817 H 607.958 0.238277 -0.917566 0
M  V30 6818 H 607.664 1.44395 -3.20691 0
M  V30 6819 H 607.538 2.9619 -2.33563 0
M  V30 6820 H 609.925 2.58872 -1.41666 0
M  V30 6821 H 610.006 1.07117 -2.32292 0
M  V30 6822 H 609.65 2.37268 -4.49072 0
M  V30 6823 H 609.58 3.8862 -3.55362 0
M  V30 6824 H 612.071 2.50053 -2.83341 0
M  V30 6825 H 612.384 4.62796 -6.18902 0
M  V30 6826 H 610.729 4.16761 -5.56179 0
M  V30 6827 H 613.92 3.0337 -3.56489 0
M  V30 6828 H 614.093 4.004 -5.09493 0
M  V30 6829 N 607.499 1.09233 1.13605 0
M  V30 6830 C 608.915 0.82163 1.36826 0
M  V30 6831 C 609.115 -0.565021 1.93416 0
M  V30 6832 O 608.171 -1.32026 2.15234 0
M  V30 6833 C 609.484 1.91124 2.32147 0
M  V30 6834 C 611.032 1.93824 2.45767 0
M  V30 6835 C 611.507 3.01923 3.44393 0
M  V30 6836 N 612.998 3.01149 3.51942 0
M  V30 6837 C 613.733 3.81434 4.2813 0
M  V30 6838 N 613.229 4.71621 5.07489 0
M  V30 6839 N 615.022 3.69702 4.23411 0
M  V30 6840 H 607.173 1.98633 0.752234 0
M  V30 6841 H 609.436 0.862482 0.393482 0
M  V30 6842 H 609.142 2.90862 1.97717 0
M  V30 6843 H 609.016 1.78777 3.32142 0
M  V30 6844 H 611.403 0.94726 2.79483 0
M  V30 6845 H 611.484 2.10248 1.45703 0
M  V30 6846 H 611.128 4.01232 3.11408 0
M  V30 6847 H 611.058 2.82742 4.44257 0
M  V30 6848 H 613.549 2.35789 2.95317 0
M  V30 6849 H 613.862 5.29468 5.62924 0
M  V30 6850 H 612.207 4.75658 5.06729 0
M  V30 6851 H 615.398 2.98606 3.60489 0
M  V30 6852 H 615.571 4.32509 4.82535 0
M  V30 6853 N 608.977 -1.30795 0.87923 0
M  V30 6854 C 610.226 -1.95636 0.490875 0
M  V30 6855 C 610.539 -1.70214 -0.963674 0
M  V30 6856 O 611.745 -2.28991 -1.45861 0
M  V30 6857 C 610.201 -3.50271 0.826929 0
M  V30 6858 C 609.809 -3.84521 2.29886 0
M  V30 6859 C 611.553 -4.21456 0.507494 0
M  V30 6860 C 609.46 -5.32309 2.57685 0
M  V30 6861 H 608.39 -0.732238 0.179841 0
M  V30 6862 H 611.041 -1.48829 1.07341 0
M  V30 6863 H 609.423 -3.9562 0.173542 0
M  V30 6864 H 610.597 -3.50102 2.99609 0
M  V30 6865 H 608.912 -3.26425 2.58526 0
M  V30 6866 H 611.509 -5.30199 0.692293 0
M  V30 6867 H 611.852 -4.12614 -0.552718 0
M  V30 6868 H 612.385 -3.81772 1.11782 0
M  V30 6869 H 609.124 -5.46195 3.62424 0
M  V30 6870 H 608.644 -5.68048 1.92566 0
M  V30 6871 H 610.323 -5.99678 2.42889 0
M  V30 6872 N 610.455 -0.639598 -1.44038 0
M  V30 6873 C 611.68 -0.153117 -2.06834 0
M  V30 6874 C 612.105 1.16676 -1.47541 0
M  V30 6875 O 611.463 1.71769 -0.580093 0
M  V30 6876 C 611.511 -0.0609169 -3.60549 0
M  V30 6877 O 610.615 0.98071 -4.00569 0
M  V30 6878 H 609.956 -0.0886402 -0.658057 0
M  V30 6879 H 612.486 -0.878674 -1.84771 0
M  V30 6880 H 612.496 0.126892 -4.07803 0
M  V30 6881 H 611.171 -1.0245 -4.03084 0
M  V30 6882 H 609.748 0.766789 -3.64931 0
M  V30 6883 N 611.933 1.52934 -0.380664 0
M  V30 6884 C 613.344 1.86457 0.0952684 0
M  V30 6885 C 613.695 1.3007 1.46889 0
M  V30 6886 O 612.82 0.628636 2.07068 0
M  V30 6887 C 613.415 3.38323 0.179648 0
M  V30 6888 C 611.974 3.71589 0.599858 0
M  V30 6889 C 611.121 2.76228 -0.243572 0
M  V30 6890 H 614.072 1.46966 -0.59888 0
M  V30 6891 H 614.093 3.67113 1.00042 0
M  V30 6892 H 613.605 3.79333 -0.820228 0
M  V30 6893 H 611.706 3.36144 1.60742 0
M  V30 6894 H 611.819 4.77715 0.364003 0
M  V30 6895 H 610.183 2.53045 0.289855 0
M  V30 6896 H 610.966 3.20074 -1.24127 0
M  V30 6897 N 613.412 0.11024 1.57214 0
M  V30 6898 C 614.64 -0.557834 1.99238 0
M  V30 6899 C 615.055 -1.60778 0.989734 0
M  V30 6900 O 614.412 -1.82491 -0.0186092 0
M  V30 6901 C 614.463 -1.19189 3.41286 0
M  V30 6902 O 614.184 -0.183919 4.37714 0
M  V30 6903 C 615.685 -1.94413 3.98395 0
M  V30 6904 H 612.905 -0.148392 0.654386 0
M  V30 6905 H 615.449 0.193996 2.03578 0
M  V30 6906 H 613.604 -1.89456 3.37913 0
M  V30 6907 H 614.018 -0.643475 5.20538 0
M  V30 6908 H 615.492 -2.34116 4.99894 0
M  V30 6909 H 615.969 -2.81592 3.3705 0
M  V30 6910 H 616.575 -1.28928 4.05287 0
M  V30 6911 N 614.89 -1.56749 -0.16351 0
M  V30 6912 C 615.838 -1.97939 -1.22159 0
M  V30 6913 C 616.832 -0.869288 -1.45395 0
M  V30 6914 O 618.038 -1.05443 -1.45883 0
M  V30 6915 H 614.413 -0.629869 -0.410815 0
M  V30 6916 H 616.384 -2.86115 -0.847381 0
M  V30 6917 C 615.133 -2.36206 -2.55151 0
M  V30 6918 H 614.456 -3.2117 -2.38097 0
M  V30 6919 H 615.896 -2.68863 -3.27854 0
M  V30 6920 C 614.355 -1.20841 -3.14482 0
M  V30 6921 O 614.885 -0.500258 -3.98573 0
M  V30 6922 N 613.091 -0.976943 -2.73686 0
M  V30 6923 H 612.638 -1.55457 -2.05404 0
M  V30 6924 H 612.596 -0.206912 -3.13718 0
M  V30 6925 N 616.368 0.432326 -1.51554 0
M  V30 6926 C 617.617 1.17831 -1.63703 0
M  V30 6927 C 617.93 1.92229 -0.36156 0
M  V30 6928 O 619.136 2.69069 -0.362495 0
M  V30 6929 C 617.592 2.14318 -2.89129 0
M  V30 6930 C 617.2 1.45544 -4.23699 0
M  V30 6931 C 618.944 2.89319 -3.10636 0
M  V30 6932 C 616.851 2.40545 -5.4027 0
M  V30 6933 H 615.781 0.443533 -0.60975 0
M  V30 6934 H 618.432 0.444878 -1.78026 0
M  V30 6935 H 616.814 2.91117 -2.68452 0
M  V30 6936 H 617.988 0.742693 -4.54775 0
M  V30 6937 H 616.303 0.826772 -4.0811 0
M  V30 6938 H 618.9 3.60495 -3.94902 0
M  V30 6939 H 619.243 3.50951 -2.23918 0
M  V30 6940 H 619.776 2.19625 -3.31677 0
M  V30 6941 H 616.515 1.83594 -6.29264 0
M  V30 6942 H 616.035 3.09859 -5.13563 0
M  V30 6943 H 617.714 3.01569 -5.72421 0
M  V30 6944 N 617.846 1.41785 0.688094 0
M  V30 6945 C 618.793 1.44221 1.80191 0
M  V30 6946 C 619.763 0.295688 1.63447 0
M  V30 6947 O 620.948 0.49783 1.84191 0
M  V30 6948 C 618.088 1.33743 3.1813 0
M  V30 6949 C 617.201 2.58325 3.46254 0
M  V30 6950 C 616.336 2.40086 4.73848 0
M  V30 6951 C 615.375 3.60107 4.94964 0
M  V30 6952 N 614.512 3.40892 6.13789 0
M  V30 6953 H 619.352 2.39411 1.77444 0
M  V30 6954 H 616.889 1.18876 0.866423 0
M  V30 6955 H 618.847 1.25669 3.97823 0
M  V30 6956 H 617.477 0.42157 3.20035 0
M  V30 6957 H 616.529 2.7682 2.60912 0
M  V30 6958 H 617.841 3.4758 3.57756 0
M  V30 6959 H 616.995 2.29522 5.61609 0
M  V30 6960 H 615.734 1.483 4.64606 0
M  V30 6961 H 614.739 3.71118 4.05649 0
M  V30 6962 H 615.964 4.52857 5.06061 0
M  V30 6963 H 613.91 2.51812 6.05745 0
M  V30 6964 H 613.827 4.23727 6.26092 0
M  V30 6965 H 615.095 3.34114 7.04264 0
M  V30 6966 N 619.324 -0.923095 1.27737 0
M  V30 6967 C 620.272 -2.04567 1.10703 0
M  V30 6968 C 621.266 -1.69375 0.0288445 0
M  V30 6969 O 622.472 -1.79027 0.186913 0
M  V30 6970 H 618.847 -0.670109 0.34126 0
M  V30 6971 H 620.818 -2.1608 2.05796 0
M  V30 6972 C 619.567 -3.38934 0.775837 0
M  V30 6973 H 618.89 -3.66501 1.59741 0
M  V30 6974 H 620.33 -4.18239 0.696548 0
M  V30 6975 C 618.789 -3.32863 -0.520012 0
M  V30 6976 O 619.319 -3.70462 -1.55308 0
M  V30 6977 N 617.525 -2.85958 -0.51732 0
M  V30 6978 H 617.072 -2.55557 0.32379 0
M  V30 6979 H 617.03 -2.82279 -1.38441 0
M  V30 6980 N 620.802 -1.09834 -1.13024 0
M  V30 6981 C 622.048 -0.83819 -1.84668 0
M  V30 6982 C 622.381 0.634645 -1.83537 0
M  V30 6983 O 621.656 1.46753 -1.27647 0
M  V30 6984 C 621.939 -1.37933 -3.32636 0
M  V30 6985 C 621.792 -2.91857 -3.42257 0
M  V30 6986 C 623.111 -1.01654 -4.28199 0
M  V30 6987 H 620.23 -0.30595 -0.670495 0
M  V30 6988 H 622.872 -1.36044 -1.32635 0
M  V30 6989 H 621.022 -0.935111 -3.77078 0
M  V30 6990 H 622.694 -3.44759 -3.06495 0
M  V30 6991 H 620.937 -3.28776 -2.83 0
M  V30 6992 H 621.608 -3.24799 -4.46329 0
M  V30 6993 H 624.084 -1.39973 -3.9185 0
M  V30 6994 H 622.96 -1.42217 -5.30156 0
M  V30 6995 H 623.221 0.0747794 -4.42037 0
M  V30 6996 N 622.28 1.30327 -0.886154 0
M  V30 6997 C 623.51 1.99964 -0.519421 0
M  V30 6998 C 623.918 1.66593 0.89686 0
M  V30 6999 O 623.261 0.899886 1.60149 0
M  V30 7000 C 623.323 3.54187 -0.615795 0
M  V30 7001 C 622.987 4.11078 -1.9966 0
M  V30 7002 C 623.984 4.26985 -2.96614 0
M  V30 7003 C 621.669 4.46429 -2.30231 0
M  V30 7004 C 623.663 4.77456 -4.22273 0
M  V30 7005 C 621.35 4.966 -3.56135 0
M  V30 7006 C 622.348 5.12066 -4.5197 0
M  V30 7007 O 622.036 5.61154 -5.7564 0
M  V30 7008 H 621.768 0.645979 -0.199217 0
M  V30 7009 H 624.322 1.67154 -1.19368 0
M  V30 7010 H 622.552 3.86528 0.115448 0
M  V30 7011 H 624.241 4.05065 -0.26017 0
M  V30 7012 H 625.007 3.99975 -2.74308 0
M  V30 7013 H 620.886 4.33658 -1.56404 0
M  V30 7014 H 624.43 4.89444 -4.97082 0
M  V30 7015 H 620.327 5.23045 -3.78277 0
M  V30 7016 H 621.095 5.79494 -5.78039 0
M  V30 7017 N 623.758 0.647228 1.43697 0
M  V30 7018 C 624.706 -0.0600105 2.32523 0
M  V30 7019 C 625.7 -0.819277 1.48271 0
M  V30 7020 O 626.906 -0.730356 1.64517 0
M  V30 7021 H 623.281 -0.0381872 0.75103 0
M  V30 7022 H 625.252 0.706978 2.89904 0
M  V30 7023 C 624.001 -1.0169 3.32497 0
M  V30 7024 H 623.324 -0.442083 3.97348 0
M  V30 7025 H 624.764 -1.48095 3.97296 0
M  V30 7026 C 623.223 -2.11002 2.6264 0
M  V30 7027 O 623.753 -3.19302 2.4374 0
M  V30 7028 N 621.959 -1.87388 2.22113 0
M  V30 7029 H 621.506 -0.993174 2.37684 0
M  V30 7030 H 621.464 -2.60723 1.75701 0
M  V30 7031 N 625.236 -1.5273 0.388769 0
M  V30 7032 C 626.513 -1.93981 -0.251133 0
M  V30 7033 C 626.893 -1.32418 -1.64404 0
M  V30 7034 O 626.241 -0.492074 -2.23139 0
M  V30 7035 C 626.451 -3.47891 -0.27802 0
M  V30 7036 C 627.799 -4.21559 -0.507229 0
M  V30 7037 O 628.823 -3.54394 -0.358252 0
M  V30 7038 O 627.682 -5.40626 -0.799094 0
M  V30 7039 H 624.776 -0.812157 -0.15598 0
M  V30 7040 H 627.322 -1.63809 0.443237 0
M  V30 7041 H 626.094 -3.8503 0.697669 0
M  V30 7042 H 625.717 -3.84364 -1.01733 0
M  V30 7043 N 626.714 -0.118576 -1.57153 0
M  V30 7044 C 627.677 0.817464 -2.14127 0
M  V30 7045 C 628.677 1.1949 -1.07604 0
M  V30 7046 O 629.867 1.12048 -1.33382 0
M  V30 7047 C 626.999 2.10541 -2.68115 0
M  V30 7048 H 628.192 0.322339 -2.98163 0
M  V30 7049 H 625.745 0.130655 -1.55753 0
M  V30 7050 H 626.48 2.64485 -1.87665 0
M  V30 7051 H 626.265 1.84425 -3.4602 0
M  V30 7052 H 627.755 2.77453 -3.12105 0
M  V30 7053 N 628.193 1.56834 0.155195 0
M  V30 7054 C 629.123 2.00678 1.19376 0
M  V30 7055 C 630.104 0.884973 1.45266 0
M  V30 7056 O 631.289 1.1522 1.56326 0
M  V30 7057 C 628.419 2.38042 2.5289 0
M  V30 7058 C 627.373 3.53332 2.41538 0
M  V30 7059 C 626.699 3.76485 3.79688 0
M  V30 7060 C 627.999 4.86265 1.9064 0
M  V30 7061 H 629.693 2.87688 0.829232 0
M  V30 7062 H 627.239 1.38407 0.397445 0
M  V30 7063 H 629.192 2.67314 3.25763 0
M  V30 7064 H 627.916 1.4796 2.91162 0
M  V30 7065 H 626.575 3.24213 1.71117 0
M  V30 7066 H 626.223 2.83667 4.15382 0
M  V30 7067 H 625.923 4.54068 3.72956 0
M  V30 7068 H 627.447 4.08174 4.54122 0
M  V30 7069 H 628.861 5.14308 2.53299 0
M  V30 7070 H 627.258 5.67597 1.94818 0
M  V30 7071 H 628.328 4.77184 0.861596 0
M  V30 7072 N 629.671 -0.424282 1.51781 0
M  V30 7073 C 630.618 -1.51591 1.74037 0
M  V30 7074 C 631.588 -1.55556 0.582358 0
M  V30 7075 O 632.773 -1.72364 0.818245 0
M  V30 7076 C 629.913 -2.89188 1.8832 0
M  V30 7077 C 629.026 -2.9465 3.1592 0
M  V30 7078 C 628.161 -4.23452 3.20721 0
M  V30 7079 C 627.2 -4.22831 4.42584 0
M  V30 7080 N 626.337 -5.43178 4.44862 0
M  V30 7081 H 631.177 -1.31917 2.67212 0
M  V30 7082 H 628.714 -0.640599 1.32419 0
M  V30 7083 H 630.672 -3.69044 1.94583 0
M  V30 7084 H 629.302 -3.07392 0.985402 0
M  V30 7085 H 628.354 -2.07378 3.18902 0
M  V30 7086 H 629.666 -2.90055 4.05795 0
M  V30 7087 H 628.82 -5.1169 3.25973 0
M  V30 7088 H 627.559 -4.30722 2.28757 0
M  V30 7089 H 626.564 -3.32984 4.37495 0
M  V30 7090 H 627.789 -4.17213 5.35826 0
M  V30 7091 H 625.735 -5.51145 3.55775 0
M  V30 7092 H 625.652 -5.40515 5.28563 0
M  V30 7093 H 626.92 -6.33412 4.54324 0
M  V30 7094 N 631.149 -1.42148 -0.680565 0
M  V30 7095 C 632.096 -1.45175 -1.79424 0
M  V30 7096 C 633.066 -0.304352 -1.63288 0
M  V30 7097 O 634.251 -0.507591 -1.83924 0
M  V30 7098 C 631.391 -1.35429 -3.17416 0
M  V30 7099 C 630.504 -2.60158 -3.4488 0
M  V30 7100 C 629.639 -2.42596 -4.72568 0
M  V30 7101 C 628.678 -3.62727 -4.93047 0
M  V30 7102 N 627.815 -3.44143 -6.11973 0
M  V30 7103 H 632.655 -2.40349 -1.76172 0
M  V30 7104 H 630.192 -1.19334 -0.860107 0
M  V30 7105 H 632.15 -1.27777 -3.97151 0
M  V30 7106 H 630.78 -0.438536 -3.19807 0
M  V30 7107 H 629.832 -2.78199 -2.5944 0
M  V30 7108 H 631.144 -3.49473 -3.55908 0
M  V30 7109 H 630.298 -2.32497 -5.60384 0
M  V30 7110 H 629.037 -1.50761 -4.63813 0
M  V30 7111 H 628.042 -3.73264 -4.03676 0
M  V30 7112 H 629.267 -4.55534 -5.03652 0
M  V30 7113 H 627.213 -2.5502 -6.04401 0
M  V30 7114 H 627.13 -4.27041 -6.23836 0
M  V30 7115 H 628.398 -3.37845 -7.02482 0
M  V30 7116 N 632.627 0.916307 -1.28225 0
M  V30 7117 C 633.575 2.03977 -1.11786 0
M  V30 7118 C 634.569 1.69358 -0.0378265 0
M  V30 7119 O 635.775 1.78925 -0.196405 0
M  V30 7120 H 632.15 0.66829 -0.344809 0
M  V30 7121 H 634.121 2.14985 -2.06939 0
M  V30 7122 C 632.87 3.38518 -0.7938 0
M  V30 7123 H 632.193 3.65649 -1.61682 0
M  V30 7124 H 633.633 4.17864 -0.718719 0
M  V30 7125 C 632.092 3.33134 0.502353 0
M  V30 7126 O 632.622 3.71281 1.53341 0
M  V30 7127 N 630.828 2.86229 0.502147 0
M  V30 7128 H 630.375 2.55382 -0.337338 0
M  V30 7129 H 630.333 2.83009 1.36942 0
M  V30 7130 N 634.105 1.10431 1.1244 0
M  V30 7131 C 635.354 0.841539 1.83306 0
M  V30 7132 C 635.667 -0.634961 1.85007 0
M  V30 7133 O 636.873 -1.01363 2.51869 0
M  V30 7134 C 635.329 1.45565 3.29149 0
M  V30 7135 C 634.937 2.96544 3.35806 0
M  V30 7136 C 636.681 1.27227 4.04986 0
M  V30 7137 C 634.588 3.5099 4.75983 0
M  V30 7138 H 633.518 0.311156 0.686803 0
M  V30 7139 H 636.169 1.32829 1.26604 0
M  V30 7140 H 634.551 0.896574 3.85717 0
M  V30 7141 H 635.725 3.58766 2.89177 0
M  V30 7142 H 634.04 3.14036 2.73442 0
M  V30 7143 H 636.637 1.65348 5.08492 0
M  V30 7144 H 636.98 0.213834 4.1575 0
M  V30 7145 H 637.513 1.79941 3.54776 0
M  V30 7146 H 634.252 4.56499 4.70413 0
M  V30 7147 H 633.772 2.93535 5.23065 0
M  V30 7148 H 635.451 3.48808 5.44924 0
M  V30 7149 N 635.583 -1.29855 0.893053 0
M  V30 7150 C 636.829 -1.96116 0.516349 0
M  V30 7151 C 637.162 -1.70281 -0.933695 0
M  V30 7152 O 636.437 -1.01205 -1.66096 0
M  V30 7153 C 636.72 -3.51068 0.801455 0
M  V30 7154 C 636.573 -3.86387 2.30272 0
M  V30 7155 C 637.892 -4.39186 0.283423 0
M  V30 7156 H 635.011 -0.712335 0.189072 0
M  V30 7157 H 637.653 -1.53587 1.11852 0
M  V30 7158 H 635.803 -3.87424 0.288949 0
M  V30 7159 H 637.475 -3.60012 2.88425 0
M  V30 7160 H 635.718 -3.34167 2.76613 0
M  V30 7161 H 636.389 -4.94512 2.45279 0
M  V30 7162 H 638.865 -4.09785 0.722187 0
M  V30 7163 H 637.741 -5.46505 0.512169 0
M  V30 7164 H 638.002 -4.34511 -0.815643 0
M  V30 7165 N 637.061 -0.65484 -1.43351 0
M  V30 7166 C 637.971 0.0363603 -2.34572 0
M  V30 7167 C 638.987 0.810432 -1.53974 0
M  V30 7168 O 640.163 0.757308 -1.86619 0
M  V30 7169 C 637.228 0.989733 -3.32273 0
M  V30 7170 C 636.289 0.212414 -4.28774 0
M  V30 7171 C 635.522 1.12038 -5.21808 0
M  V30 7172 O 635.745 2.35967 -5.19303 0
M  V30 7173 O 634.679 0.59191 -5.98982 0
M  V30 7174 H 638.505 -0.714527 -2.95175 0
M  V30 7175 H 636.09 -0.415029 -1.4352 0
M  V30 7176 H 637.972 1.53759 -3.92347 0
M  V30 7177 H 636.647 1.72082 -2.74171 0
M  V30 7178 H 635.554 -0.379062 -3.72175 0
M  V30 7179 H 636.887 -0.479138 -4.89862 0
M  V30 7180 N 638.539 1.52521 -0.396863 0
M  V30 7181 C 639.788 2.00857 0.184184 0
M  V30 7182 C 640.101 1.28733 1.47265 0
M  V30 7183 O 641.307 1.67821 2.13421 0
M  V30 7184 C 639.763 3.57901 0.378787 0
M  V30 7185 C 639.371 4.38931 -0.896873 0
M  V30 7186 C 641.115 4.14504 0.915789 0
M  V30 7187 C 639.022 5.87591 -0.670133 0
M  V30 7188 H 637.952 0.750496 0.0726055 0
M  V30 7189 H 640.603 1.75965 -0.520425 0
M  V30 7190 H 638.985 3.79072 1.14543 0
M  V30 7191 H 640.159 4.29524 -1.66872 0
M  V30 7192 H 638.474 3.93586 -1.35938 0
M  V30 7193 H 641.071 5.23236 1.10126 0
M  V30 7194 H 641.414 3.71076 1.88701 0
M  V30 7195 H 641.947 3.97253 0.208523 0
M  V30 7196 H 638.686 6.35355 -1.61257 0
M  V30 7197 H 638.206 5.99767 0.0626368 0
M  V30 7198 H 639.885 6.46268 -0.307577 0
M  V30 7199 N 640.017 0.126909 1.57088 0
M  V30 7200 C 640.965 -0.837618 2.16995 0
M  V30 7201 C 641.959 -1.26974 1.12133 0
M  V30 7202 O 643.165 -1.24056 1.30423 0
M  V30 7203 H 639.54 -0.288256 0.694559 0
M  V30 7204 H 641.511 -0.307957 2.96807 0
M  V30 7205 C 640.26 -2.07474 2.79016 0
M  V30 7206 H 639.583 -1.75117 3.59408 0
M  V30 7207 H 641.023 -2.72949 3.24461 0
M  V30 7208 C 639.482 -2.86967 1.76498 0
M  V30 7209 O 640.012 -3.82625 1.22316 0
M  V30 7210 N 638.218 -2.51111 1.46258 0
M  V30 7211 H 637.765 -1.73389 1.90509 0
M  V30 7212 H 637.723 -3.04594 0.779085 0
M  V30 7213 N 641.495 -1.56914 -0.146875 0
M  V30 7214 C 642.72 -1.87881 -0.878386 0
M  V30 7215 C 643.145 -0.715945 -1.73942 0
M  V30 7216 O 642.503 0.334447 -1.78189 0
M  V30 7217 C 642.551 -3.17431 -1.71084 0
M  V30 7218 O 641.655 -3.01374 -2.81509 0
M  V30 7219 H 640.996 -0.617289 -0.244644 0
M  V30 7220 H 643.526 -2.04136 -0.137654 0
M  V30 7221 H 643.536 -3.49455 -2.10582 0
M  V30 7222 H 642.211 -4.01671 -1.07856 0
M  V30 7223 H 640.788 -2.80758 -2.45416 0
M  V30 7224 N 642.974 0.416227 -1.52004 0
M  V30 7225 C 644.223 1.16088 -1.64944 0
M  V30 7226 C 644.536 1.91835 -0.381928 0
M  V30 7227 O 645.742 2.6867 -0.391013 0
M  V30 7228 C 644.198 2.1124 -2.91386 0
M  V30 7229 C 643.806 1.41042 -4.25219 0
M  V30 7230 C 645.55 2.86008 -3.13688 0
M  V30 7231 C 643.457 2.34801 -5.42791 0
M  V30 7232 H 642.387 0.437041 -0.61442 0
M  V30 7233 H 645.038 0.425971 -1.78487 0
M  V30 7234 H 643.42 2.88254 -2.71525 0
M  V30 7235 H 644.594 0.694416 -4.55538 0
M  V30 7236 H 642.909 0.78344 -4.08964 0
M  V30 7237 H 645.506 3.56286 -3.98703 0
M  V30 7238 H 645.849 3.48556 -2.27628 0
M  V30 7239 H 646.382 2.16095 -3.33988 0
M  V30 7240 H 643.121 1.7691 -6.31176 0
M  V30 7241 H 642.641 3.04395 -5.16821 0
M  V30 7242 H 644.32 2.9548 -5.75587 0
M  V30 7243 N 644.452 1.42507 0.673017 0
M  V30 7244 C 645.4 1.46362 1.80779 0
M  V30 7245 C 646.394 0.339166 1.6597 0
M  V30 7246 O 647.6 0.512262 1.72557 0
M  V30 7247 H 643.975 0.458433 0.596107 0
M  V30 7248 H 645.946 2.41953 1.74646 0
M  V30 7249 C 644.695 1.38462 3.18941 0
M  V30 7250 H 644.018 2.24283 3.30964 0
M  V30 7251 H 645.458 1.45221 3.98355 0
M  V30 7252 C 643.917 0.0996354 3.36753 0
M  V30 7253 O 644.447 -0.846894 3.92671 0
M  V30 7254 N 642.653 0.016211 2.90595 0
M  V30 7255 H 642.2 0.78725 2.45276 0
M  V30 7256 H 642.158 -0.84291 3.0289 0
M  V30 7257 N 645.93 -0.909495 1.28709 0
M  V30 7258 C 647.176 -1.66151 1.16283 0
M  V30 7259 C 647.509 -1.92067 -0.287069 0
M  V30 7260 O 646.784 -1.52409 -1.20837 0
M  V30 7261 C 647.067 -3.01676 1.9663 0
M  V30 7262 C 646.92 -2.82888 3.49707 0
M  V30 7263 C 648.239 -4.02274 1.78504 0
M  V30 7264 H 645.358 -0.602966 0.423793 0
M  V30 7265 H 648 -1.05418 1.58073 0
M  V30 7266 H 646.15 -3.53515 1.61119 0
M  V30 7267 H 647.822 -2.38026 3.95147 0
M  V30 7268 H 646.065 -2.17862 3.75125 0
M  V30 7269 H 646.736 -3.79147 4.01187 0
M  V30 7270 H 649.212 -3.59511 2.09503 0
M  V30 7271 H 648.088 -4.95056 2.37088 0
M  V30 7272 H 648.349 -4.35903 0.737647 0
M  V30 7273 N 647.408 -1.11026 -1.11852 0
M  V30 7274 C 648.685 -0.768347 -1.79877 0
M  V30 7275 C 649.065 0.744261 -1.97545 0
M  V30 7276 O 648.413 1.67271 -1.55669 0
M  V30 7277 C 648.623 -1.52648 -3.13846 0
M  V30 7278 C 649.971 -1.70297 -3.88953 0
M  V30 7279 O 650.995 -1.49037 -3.23522 0
M  V30 7280 O 649.854 -2.05593 -5.06353 0
M  V30 7281 H 646.948 -0.277891 -0.778913 0
M  V30 7282 H 649.494 -1.21343 -1.18633 0
M  V30 7283 H 648.266 -2.55564 -2.96315 0
M  V30 7284 H 647.889 -1.07466 -3.82801 0
M  V30 7285 N 648.886 1.2938 -0.899927 0
M  V30 7286 C 650.111 2.00228 -0.540692 0
M  V30 7287 C 650.536 1.66909 0.867359 0
M  V30 7288 O 649.894 0.893824 1.57735 0
M  V30 7289 C 649.942 3.52921 -0.740232 0
M  V30 7290 O 649.046 4.11879 0.207154 0
M  V30 7291 H 648.387 0.629505 -0.211233 0
M  V30 7292 H 650.917 1.6487 -1.21158 0
M  V30 7293 H 650.927 4.0287 -0.644973 0
M  V30 7294 H 649.602 3.76508 -1.76677 0
M  V30 7295 H 648.179 3.72845 0.0643315 0
M  V30 7296 N 650.364 0.662433 1.43002 0
M  V30 7297 C 651.61 0.179857 2.02001 0
M  V30 7298 C 651.943 -1.20625 1.52195 0
M  V30 7299 O 651.218 -1.80726 0.718911 0
M  V30 7300 C 651.501 0.200845 3.59539 0
M  V30 7301 C 651.354 1.62153 4.19555 0
M  V30 7302 C 652.673 -0.457738 4.37713 0
M  V30 7303 H 649.792 0.0668305 0.733964 0
M  V30 7304 H 652.434 0.84487 1.70182 0
M  V30 7305 H 650.584 -0.365411 3.86778 0
M  V30 7306 H 652.256 2.23908 4.03315 0
M  V30 7307 H 650.499 2.16601 3.75854 0
M  V30 7308 H 651.17 1.58799 5.28665 0
M  V30 7309 H 653.646 0.0241495 4.16093 0
M  V30 7310 H 652.522 -0.412363 5.47349 0
M  V30 7311 H 652.783 -1.53336 4.14657 0
M  V30 7312 N 651.842 -1.52309 0.404946 0
M  V30 7313 C 653.082 -2.03677 -0.171779 0
M  V30 7314 C 653.446 -1.28419 -1.42733 0
M  V30 7315 O 654.647 -1.69991 -2.08222 0
M  V30 7316 C 652.918 -3.54951 -0.417701 0
M  V30 7317 S 654.477 -4.28114 -0.962472 0
M  V30 7318 H 651.295 -0.709445 -0.0469912 0
M  V30 7319 H 653.897 -1.874 0.556901 0
M  V30 7320 H 652.601 -4.07306 0.50295 0
M  V30 7321 H 652.132 -3.75462 -1.17437 0
M  V30 7322 H 654.147 -4.42589 -2.24342 0
M  V30 7323 N 653.32 -0.135238 -1.57019 0
M  V30 7324 C 654.545 0.529343 -2.00531 0
M  V30 7325 C 654.97 1.58391 -1.01459 0
M  V30 7326 O 654.328 1.81296 0.0113986 0
M  V30 7327 C 654.376 1.11748 -3.42848 0
M  V30 7328 O 653.48 2.23267 -3.46736 0
M  V30 7329 H 652.821 0.130669 -0.651016 0
M  V30 7330 H 655.351 -0.228503 -2.0332 0
M  V30 7331 H 655.361 1.44905 -3.81401 0
M  V30 7332 H 654.036 0.345147 -4.14465 0
M  V30 7333 H 652.613 1.91428 -3.20015 0
M  V30 7334 N 654.798 1.5699 0.138552 0
M  V30 7335 C 656.026 1.87976 0.864437 0
M  V30 7336 C 656.441 0.724372 1.74351 0
M  V30 7337 O 655.798 -0.305575 1.79924 0
M  V30 7338 C 655.849 3.18276 1.71414 0
M  V30 7339 O 655.57 4.29365 0.870487 0
M  V30 7340 C 657.071 3.62834 2.54688 0
M  V30 7341 H 654.291 0.622878 0.249528 0
M  V30 7342 H 656.835 2.04094 0.128805 0
M  V30 7343 H 654.99 3.03886 2.40274 0
M  V30 7344 H 655.404 5.03924 1.45466 0
M  V30 7345 H 656.878 4.5682 3.0987 0
M  V30 7346 H 657.355 2.88533 3.31127 0
M  V30 7347 H 657.961 3.79946 1.91105 0
M  V30 7348 N 656.276 -0.40816 1.52223 0
M  V30 7349 C 657.209 -1.51834 1.70357 0
M  V30 7350 C 658.187 -1.52973 0.551171 0
M  V30 7351 O 659.371 -1.71667 0.778642 0
M  V30 7352 C 656.498 -2.90362 1.74378 0
M  V30 7353 C 655.544 -3.0713 2.95928 0
M  V30 7354 S 656.377 -2.80342 4.56255 0
M  V30 7355 C 657.533 -4.21098 4.63063 0
M  V30 7356 H 657.766 -1.36223 2.64255 0
M  V30 7357 H 655.299 -0.599798 1.42274 0
M  V30 7358 H 657.257 -3.70199 1.77379 0
M  V30 7359 H 655.918 -3.03314 0.816063 0
M  V30 7360 H 655.111 -4.08482 2.95226 0
M  V30 7361 H 654.713 -2.3516 2.90819 0
M  V30 7362 H 657.005 -5.14749 4.40499 0
M  V30 7363 H 657.948 -4.26823 5.65002 0
M  V30 7364 H 658.356 -4.06114 3.92086 0
M  V30 7365 N 657.755 -1.42862 -0.66545 0
M  V30 7366 C 659.003 -1.43546 -1.42264 0
M  V30 7367 C 659.324 -0.0563116 -1.94919 0
M  V30 7368 O 658.594 0.906568 -1.73661 0
M  V30 7369 H 657.174 -0.528464 -0.527953 0
M  V30 7370 H 659.836 -1.78363 -0.785665 0
M  V30 7371 H 658.932 -2.14079 -2.27105 0
M  V30 7372 N 659.233 0.902656 -1.29189 0
M  V30 7373 C 660.458 1.69167 -1.19989 0
M  V30 7374 C 660.883 1.86607 0.236495 0
M  V30 7375 O 660.241 1.38425 1.17082 0
M  V30 7376 C 660.289 3.05532 -1.91527 0
M  V30 7377 O 659.393 3.93621 -1.2303 0
M  V30 7378 H 658.734 0.517584 -0.415936 0
M  V30 7379 H 661.264 1.12785 -1.70706 0
M  V30 7380 H 661.274 3.55693 -1.99866 0
M  V30 7381 H 659.949 2.92156 -2.96003 0
M  V30 7382 H 658.526 3.52055 -1.22928 0
M  V30 7383 N 660.711 1.11618 1.11262 0
M  V30 7384 C 662.127 0.850468 1.35053 0
M  V30 7385 C 662.327 -0.523868 1.94571 0
M  V30 7386 O 661.383 -1.2743 2.17986 0
M  V30 7387 C 662.696 1.96005 2.28041 0
M  V30 7388 C 664.244 1.98993 2.416 0
M  V30 7389 C 664.719 3.0916 3.37911 0
M  V30 7390 N 666.21 3.08547 3.45475 0
M  V30 7391 C 666.945 3.9043 4.19943 0
M  V30 7392 N 666.441 4.8228 4.97371 0
M  V30 7393 N 668.234 3.786 4.15474 0
M  V30 7394 H 660.385 2.00184 0.709932 0
M  V30 7395 H 662.648 0.870635 0.375099 0
M  V30 7396 H 662.354 2.9499 1.91503 0
M  V30 7397 H 662.228 1.85782 3.28275 0
M  V30 7398 H 664.615 1.00633 2.77411 0
M  V30 7399 H 664.696 2.13292 1.4121 0
M  V30 7400 H 664.34 4.07748 3.02827 0
M  V30 7401 H 664.27 2.92102 4.3816 0
M  V30 7402 H 666.761 2.42 2.90249 0
M  V30 7403 H 667.074 5.41289 5.51567 0
M  V30 7404 H 665.419 4.863 4.96525 0
M  V30 7405 H 668.61 3.06185 3.54074 0
M  V30 7406 H 668.783 4.42647 4.73253 0
M  V30 7407 N 662.189 -1.289 0.906776 0
M  V30 7408 C 663.136 -2.2751 0.388313 0
M  V30 7409 C 664.106 -1.57301 -0.533439 0
M  V30 7410 O 665.291 -1.85243 -0.457148 0
M  V30 7411 C 662.431 -3.43091 -0.37181 0
M  V30 7412 C 661.544 -4.28066 0.581647 0
M  V30 7413 C 660.679 -5.30837 -0.19623 0
M  V30 7414 C 659.718 -6.07472 0.751294 0
M  V30 7415 N 658.855 -7.021 0.00737727 0
M  V30 7416 H 663.695 -2.71237 1.23428 0
M  V30 7417 H 661.232 -1.33397 0.619962 0
M  V30 7418 H 663.19 -4.08888 -0.828641 0
M  V30 7419 H 661.82 -3.00374 -1.18218 0
M  V30 7420 H 660.872 -3.62378 1.157 0
M  V30 7421 H 662.184 -4.81382 1.30665 0
M  V30 7422 H 661.338 -6.02485 -0.71394 0
M  V30 7423 H 660.077 -4.78272 -0.954324 0
M  V30 7424 H 659.082 -5.34682 1.28044 0
M  V30 7425 H 660.307 -6.62126 1.50883 0
M  V30 7426 H 658.253 -6.51894 -0.732854 0
M  V30 7427 H 658.17 -7.53004 0.672334 0
M  V30 7428 H 659.438 -7.77956 -0.490365 0
M  V30 7429 N 663.667 -0.670007 -1.42649 0
M  V30 7430 C 664.895 -0.19854 -2.05945 0
M  V30 7431 C 665.31 1.14243 -1.50313 0
M  V30 7432 O 664.667 1.70872 -0.641027 0
M  V30 7433 C 664.718 -0.11966 -3.61302 0
M  V30 7434 O 664.439 -1.40764 -4.1487 0
M  V30 7435 C 665.94 0.375878 -4.41704 0
M  V30 7436 H 663.16 -0.0976894 -0.663851 0
M  V30 7437 H 665.704 -0.915392 -1.82868 0
M  V30 7438 H 663.859 0.547851 -3.83507 0
M  V30 7439 H 664.273 -1.27784 -5.08696 0
M  V30 7440 H 665.747 0.379988 -5.50691 0
M  V30 7441 H 666.224 1.41028 -4.15942 0
M  V30 7442 H 666.83 -0.259727 -4.24506 0
M  V30 7443 N 665.145 1.52092 -0.413018 0
M  V30 7444 C 666.375 2.05974 0.160648 0
M  V30 7445 C 666.783 1.28267 1.39084 0
M  V30 7446 O 666.126 0.328805 1.80733 0
M  V30 7447 C 666.188 3.54918 0.572169 0
M  V30 7448 C 665.852 4.53705 -0.547826 0
M  V30 7449 C 666.849 5.00342 -1.41259 0
M  V30 7450 C 664.534 4.97089 -0.721627 0
M  V30 7451 C 666.528 5.89011 -2.43607 0
M  V30 7452 C 664.215 5.85554 -1.74841 0
M  V30 7453 C 665.213 6.3141 -2.60403 0
M  V30 7454 O 664.901 7.18123 -3.61323 0
M  V30 7455 H 664.633 0.675636 0.0221936 0
M  V30 7456 H 667.187 1.96931 -0.58373 0
M  V30 7457 H 665.417 3.61661 1.36889 0
M  V30 7458 H 667.106 3.91428 1.0742 0
M  V30 7459 H 667.872 4.67537 -1.28974 0
M  V30 7460 H 663.751 4.60954 -0.0652911 0
M  V30 7461 H 667.295 6.24725 -3.10425 0
M  V30 7462 H 663.192 6.17773 -1.87156 0
M  V30 7463 H 663.96 7.36244 -3.57613 0
M  V30 7464 N 666.623 0.143563 1.56945 0
M  V30 7465 C 667.863 -0.511198 1.97904 0
M  V30 7466 C 668.227 -1.62262 1.0264 0
M  V30 7467 O 669.428 -2.338 1.32631 0
M  V30 7468 C 667.699 -1.00753 3.42905 0
M  V30 7469 S 669.258 -1.66737 4.05887 0
M  V30 7470 H 666.076 -0.165399 0.691494 0
M  V30 7471 H 668.678 0.234464 1.94089 0
M  V30 7472 H 667.382 -0.187817 4.0997 0
M  V30 7473 H 666.913 -1.7879 3.50425 0
M  V30 7474 H 668.928 -2.95444 3.98657 0
M  V30 7475 N 668.101 -1.57061 -0.130224 0
M  V30 7476 C 669.331 -1.88159 -0.853217 0
M  V30 7477 C 669.739 -0.731675 -1.7448 0
M  V30 7478 O 669.082 0.307035 -1.81116 0
M  V30 7479 C 669.144 -3.1415 -1.74785 0
M  V30 7480 C 668.808 -4.45202 -1.03173 0
M  V30 7481 C 669.805 -5.18526 -0.377759 0
M  V30 7482 C 667.49 -4.91912 -1.01624 0
M  V30 7483 C 669.484 -6.36775 0.282123 0
M  V30 7484 C 667.171 -6.10082 -0.352555 0
M  V30 7485 C 668.169 -6.82361 0.295483 0
M  V30 7486 O 667.857 -7.98284 0.948606 0
M  V30 7487 H 667.589 -0.627596 -0.251197 0
M  V30 7488 H 670.143 -2.05034 -0.1226 0
M  V30 7489 H 668.373 -2.93328 -2.51983 0
M  V30 7490 H 670.062 -3.31359 -2.34427 0
M  V30 7491 H 670.828 -4.83498 -0.381417 0
M  V30 7492 H 666.707 -4.35566 -1.51007 0
M  V30 7493 H 670.251 -6.93129 0.788525 0
M  V30 7494 H 666.148 -6.44569 -0.346621 0
M  V30 7495 H 666.916 -8.14054 0.851954 0
M  V30 7496 N 669.579 0.400081 -1.52437 0
M  V30 7497 C 670.825 1.14788 -1.67187 0
M  V30 7498 C 671.158 1.89928 -0.405074 0
M  V30 7499 O 670.433 1.85118 0.596804 0
M  V30 7500 C 670.716 2.13507 -2.89977 0
M  V30 7501 C 670.569 1.42204 -4.2673 0
M  V30 7502 C 671.888 3.14069 -3.083 0
M  V30 7503 H 669.007 0.415939 -0.608411 0
M  V30 7504 H 671.649 0.432542 -1.85011 0
M  V30 7505 H 669.799 2.7451 -2.74912 0
M  V30 7506 H 671.471 0.842503 -4.53541 0
M  V30 7507 H 669.714 0.723939 -4.27717 0
M  V30 7508 H 670.385 2.14281 -5.08712 0
M  V30 7509 H 672.861 2.63148 -3.22323 0
M  V30 7510 H 671.737 3.80398 -3.95713 0
M  V30 7511 H 671.998 3.82309 -2.22018 0
M  V30 7512 N 671.057 1.43213 0.657864 0
M  V30 7513 C 672.306 1.43871 1.41365 0
M  V30 7514 C 672.619 0.064898 1.95492 0
M  V30 7515 O 673.825 -0.0510796 2.71452 0
M  V30 7516 C 672.281 2.53158 2.55811 0
M  V30 7517 C 671.889 3.96624 2.08311 0
M  V30 7518 C 673.633 2.63004 3.3321 0
M  V30 7519 C 671.54 4.97385 3.1994 0
M  V30 7520 H 670.47 0.535174 0.531136 0
M  V30 7521 H 673.121 1.69185 0.710543 0
M  V30 7522 H 671.503 2.21037 3.2857 0
M  V30 7523 H 672.677 4.38182 1.42593 0
M  V30 7524 H 670.992 3.90781 1.43804 0
M  V30 7525 H 673.589 3.3546 4.16378 0
M  V30 7526 H 673.932 1.67918 3.80932 0
M  V30 7527 H 674.465 2.94403 2.67529 0
M  V30 7528 H 671.204 5.94007 2.77192 0
M  V30 7529 H 670.724 4.60444 3.84385 0
M  V30 7530 H 672.403 5.19877 3.85145 0
M  V30 7531 N 672.536 -0.895792 1.29666 0
M  V30 7532 C 673.783 -1.64664 1.17864 0
M  V30 7533 C 674.111 -1.92631 -0.26902 0
M  V30 7534 O 673.366 -1.53787 -1.21029 0
M  V30 7535 C 673.665 -3.00075 1.94139 0
M  V30 7536 C 673.331 -2.91702 3.43833 0
M  V30 7537 C 671.993 -2.89126 3.84656 0
M  V30 7538 C 674.345 -2.80622 4.39205 0
M  V30 7539 C 671.673 -2.73293 5.1916 0
M  V30 7540 C 674.025 -2.66329 5.73805 0
M  V30 7541 C 672.689 -2.62121 6.1388 0
M  V30 7542 H 671.959 -0.602549 0.431295 0
M  V30 7543 H 674.606 -1.04234 1.60648 0
M  V30 7544 H 672.911 -3.64394 1.43958 0
M  V30 7545 H 674.608 -3.57111 1.82408 0
M  V30 7546 H 671.198 -2.94511 3.11386 0
M  V30 7547 H 675.382 -2.81686 4.08615 0
M  V30 7548 H 670.638 -2.68443 5.49316 0
M  V30 7549 H 674.812 -2.56727 6.47352 0
M  V30 7550 H 672.439 -2.49611 7.18052 0
M  V30 7551 N 674.014 -1.12206 -1.10668 0
M  V30 7552 C 675.26 -0.877172 -1.82848 0
M  V30 7553 C 675.593 0.595571 -1.84842 0
M  V30 7554 O 674.868 1.44013 -1.30731 0
M  V30 7555 C 675.151 -1.44957 -3.29635 0
M  V30 7556 C 675.004 -2.99051 -3.35989 0
M  V30 7557 C 676.323 -1.10714 -4.25946 0
M  V30 7558 H 673.442 -0.320103 -0.663854 0
M  V30 7559 H 676.084 -1.38827 -1.2972 0
M  V30 7560 H 674.234 -1.01488 -3.7501 0
M  V30 7561 H 675.906 -3.51182 -2.99113 0
M  V30 7562 H 674.149 -3.34705 -2.75962 0
M  V30 7563 H 674.82 -3.34194 -4.39339 0
M  V30 7564 H 677.296 -1.48254 -3.88793 0
M  V30 7565 H 676.172 -1.5343 -5.2702 0
M  V30 7566 H 676.433 -0.019 -4.42096 0
M  V30 7567 N 675.492 1.28418 -0.913599 0
M  V30 7568 C 676.769 1.89977 -0.465619 0
M  V30 7569 C 677.149 1.82813 1.05559 0
M  V30 7570 O 676.497 1.26397 1.90358 0
M  V30 7571 C 676.707 3.34492 -0.995813 0
M  V30 7572 C 678.055 4.11468 -1.04782 0
M  V30 7573 O 679.079 3.43451 -0.944445 0
M  V30 7574 O 677.938 5.33046 -1.20518 0
M  V30 7575 H 675.032 0.813734 -0.147532 0
M  V30 7576 H 677.578 1.36786 -1.00437 0
M  V30 7577 H 676.35 3.33929 -2.03978 0
M  V30 7578 H 675.973 3.95181 -0.437878 0
M  V30 7579 N 676.97 0.677563 1.42291 0
M  V30 7580 C 677.918 -0.0106755 2.32598 0
M  V30 7581 C 678.912 -0.787643 1.49975 0
M  V30 7582 O 680.118 -0.695295 1.66029 0
M  V30 7583 H 676.493 -0.0222482 0.751671 0
M  V30 7584 H 678.464 0.768312 2.88339 0
M  V30 7585 C 677.213 -0.946142 3.3458 0
M  V30 7586 H 676.536 -0.357701 3.98197 0
M  V30 7587 H 677.976 -1.39634 4.00348 0
M  V30 7588 C 676.435 -2.05383 2.67057 0
M  V30 7589 O 676.965 -3.1406 2.50458 0
M  V30 7590 N 675.171 -1.82635 2.26038 0
M  V30 7591 H 674.718 -0.942534 2.39737 0
M  V30 7592 H 674.676 -2.56937 1.81192 0
M  V30 7593 N 678.448 -1.51871 0.421078 0
M  V30 7594 C 679.694 -2.02237 -0.151014 0
M  V30 7595 C 680.027 -1.30554 -1.43768 0
M  V30 7596 O 679.302 -0.41546 -1.90011 0
M  V30 7597 C 679.585 -3.5802 -0.386482 0
M  V30 7598 C 679.438 -4.40339 0.9177 0
M  V30 7599 C 680.757 -4.24444 -1.16342 0
M  V30 7600 H 677.876 -0.735062 -0.0534102 0
M  V30 7601 H 680.518 -1.81656 0.556888 0
M  V30 7602 H 678.668 -3.75688 -0.989494 0
M  V30 7603 H 680.34 -4.34357 1.55344 0
M  V30 7604 H 678.583 -4.06073 1.526 0
M  V30 7605 H 679.254 -5.47451 0.707187 0
M  V30 7606 H 681.73 -4.10948 -0.652788 0
M  V30 7607 H 680.606 -5.33358 -1.29693 0
M  V30 7608 H 680.867 -3.84204 -2.18724 0
M  V30 7609 N 679.926 -0.151884 -1.56866 0
M  V30 7610 C 681.203 0.543328 -1.87902 0
M  V30 7611 C 681.583 1.82636 -1.05864 0
M  V30 7612 O 680.931 2.28028 -0.146868 0
M  V30 7613 C 681.141 0.804056 -3.39611 0
M  V30 7614 C 682.489 1.14267 -4.08935 0
M  V30 7615 O 683.513 0.893248 -3.44818 0
M  V30 7616 O 682.372 1.61229 -5.22176 0
M  V30 7617 H 679.466 0.277724 -0.778973 0
M  V30 7618 H 682.012 -0.188862 -1.68646 0
M  V30 7619 H 680.784 -0.103772 -3.91162 0
M  V30 7620 H 680.407 1.59025 -3.64413 0
M  V30 7621 N 681.404 1.57128 0.121893 0
M  V30 7622 C 682.681 1.75664 0.860327 0
M  V30 7623 C 683.061 0.726585 1.98202 0
M  V30 7624 O 682.409 -0.24999 2.27128 0
M  V30 7625 C 682.619 3.20571 1.37968 0
M  V30 7626 C 683.967 3.82988 1.83317 0
M  V30 7627 O 684.991 3.24156 1.47654 0
M  V30 7628 O 683.85 4.86393 2.49168 0
M  V30 7629 H 680.944 0.719153 0.408348 0
M  V30 7630 H 683.49 1.6937 0.105859 0
M  V30 7631 H 682.262 3.87056 0.57477 0
M  V30 7632 H 681.885 3.31392 2.19694 0
M  V30 7633 N 682.882 -0.391992 1.52647 0
M  V30 7634 C 683.792 -1.503 1.80131 0
M  V30 7635 C 684.808 -1.59825 0.687882 0
M  V30 7636 O 685.984 -1.76218 0.975149 0
M  V30 7637 C 683.049 -2.85863 1.96171 0
M  V30 7638 C 682.11 -2.86084 3.20085 0
M  V30 7639 C 681.343 -4.15181 3.35351 0
M  V30 7640 O 681.566 -5.09981 2.55491 0
M  V30 7641 O 680.5 -4.22603 4.28591 0
M  V30 7642 H 684.326 -1.30007 2.74466 0
M  V30 7643 H 681.911 -0.579539 1.37701 0
M  V30 7644 H 683.793 -3.66236 2.08445 0
M  V30 7645 H 682.468 -3.06189 1.05025 0
M  V30 7646 H 681.375 -2.04504 3.13256 0
M  V30 7647 H 682.708 -2.7071 4.11068 0
M  V30 7648 N 684.36 -1.4356 -0.65026 0
M  V30 7649 C 685.307 -1.48948 -1.76304 0
M  V30 7650 C 686.277 -0.338919 -1.62605 0
M  V30 7651 O 687.462 -0.54649 -1.82806 0
M  V30 7652 C 684.602 -1.42131 -3.14472 0
M  V30 7653 C 683.715 -2.67415 -3.39284 0
M  V30 7654 C 682.85 -2.52565 -4.67316 0
M  V30 7655 C 681.889 -3.73103 -4.85243 0
M  V30 7656 N 681.026 -3.57046 -6.04535 0
M  V30 7657 H 685.866 -2.44032 -1.71034 0
M  V30 7658 H 683.403 -1.21131 -0.834601 0
M  V30 7659 H 685.361 -1.36172 -3.94351 0
M  V30 7660 H 683.991 -0.506273 -3.18805 0
M  V30 7661 H 683.043 -2.8364 -2.53481 0
M  V30 7662 H 684.355 -3.56943 -3.48415 0
M  V30 7663 H 683.509 -2.44331 -5.55326 0
M  V30 7664 H 682.248 -1.60566 -4.60511 0
M  V30 7665 H 681.253 -3.81743 -3.95667 0
M  V30 7666 H 682.478 -4.66115 -4.93876 0
M  V30 7667 H 680.424 -2.67783 -5.98856 0
M  V30 7668 H 680.341 -4.40178 -6.14638 0
M  V30 7669 H 681.609 -3.52669 -6.95158 0
M  V30 7670 N 685.838 0.888903 -1.30139 0
M  V30 7671 C 686.786 2.0156 -1.16088 0
M  V30 7672 C 687.78 1.69239 -0.0737413 0
M  V30 7673 O 688.986 1.78468 -0.234313 0
M  V30 7674 H 685.361 0.660825 -0.358907 0
M  V30 7675 H 687.332 2.10547 -2.11453 0
M  V30 7676 C 686.081 3.36758 -0.865426 0
M  V30 7677 H 685.404 3.62137 -1.69402 0
M  V30 7678 H 686.844 4.16246 -0.807192 0
M  V30 7679 C 685.303 3.34124 0.431577 0
M  V30 7680 O 685.833 3.7445 1.45431 0
M  V30 7681 N 684.039 2.87229 0.441321 0
M  V30 7682 H 683.586 2.54609 -0.391433 0
M  V30 7683 H 683.544 2.8585 1.30909 0
M  V30 7684 N 687.317 1.12792 1.10072 0
M  V30 7685 C 688.563 0.886857 1.82381 0
M  V30 7686 C 688.896 -0.58576 1.85155 0
M  V30 7687 O 688.171 -1.43317 1.31493 0
M  V30 7688 C 688.454 1.46703 3.28862 0
M  V30 7689 C 688.307 3.00829 3.34398 0
M  V30 7690 C 689.626 1.12971 4.25353 0
M  V30 7691 H 686.745 0.32362 0.662148 0
M  V30 7692 H 689.387 1.39513 1.28982 0
M  V30 7693 H 687.537 1.03476 3.74466 0
M  V30 7694 H 689.209 3.52764 2.97247 0
M  V30 7695 H 687.452 3.36164 2.74183 0
M  V30 7696 H 688.123 3.36519 4.3756 0
M  V30 7697 H 690.599 1.50313 3.88001 0
M  V30 7698 H 689.475 1.56223 5.26199 0
M  V30 7699 H 689.736 0.0424452 4.4208 0
M  V30 7700 N 688.795 -1.27931 0.920396 0
M  V30 7701 C 689.743 -2.29061 0.404191 0
M  V30 7702 C 690.737 -1.61615 -0.507634 0
M  V30 7703 O 691.943 -1.75765 -0.388144 0
M  V30 7704 H 688.318 -0.743594 0.112123 0
M  V30 7705 H 690.289 -2.70021 1.27008 0
M  V30 7706 C 689.038 -3.46088 -0.334466 0
M  V30 7707 H 688.361 -3.98194 0.35797 0
M  V30 7708 H 689.801 -4.18829 -0.660196 0
M  V30 7709 C 688.26 -2.99396 -1.54479 0
M  V30 7710 O 688.79 -3.02439 -2.64374 0
M  V30 7711 N 686.996 -2.54978 -1.39408 0
M  V30 7712 H 686.543 -2.52701 -0.500009 0
M  V30 7713 H 686.501 -2.24098 -2.20516 0
M  V30 7714 N 690.273 -0.685099 -1.4193 0
M  V30 7715 C 691.503 -0.220052 -2.05425 0
M  V30 7716 C 691.911 1.13185 -1.51611 0
M  V30 7717 O 691.254 1.71631 -0.654875 0
M  V30 7718 C 691.316 -0.0888364 -3.5939 0
M  V30 7719 C 690.98 -1.37109 -4.35947 0
M  V30 7720 C 691.977 -2.30675 -4.65924 0
M  V30 7721 C 689.662 -1.62155 -4.75406 0
M  V30 7722 C 691.656 -3.47556 -5.34306 0
M  V30 7723 C 689.343 -2.79324 -5.43527 0
M  V30 7724 C 690.341 -3.71848 -5.72903 0
M  V30 7725 O 690.029 -4.86966 -6.39624 0
M  V30 7726 H 689.761 -0.102165 -0.668235 0
M  V30 7727 H 692.315 -0.935194 -1.82875 0
M  V30 7728 H 690.545 0.681981 -3.80639 0
M  V30 7729 H 692.234 0.337669 -4.04493 0
M  V30 7730 H 693 -2.12579 -4.3593 0
M  V30 7731 H 688.879 -0.910053 -4.51928 0
M  V30 7732 H 692.423 -4.19794 -5.57153 0
M  V30 7733 H 688.32 -2.97342 -5.72938 0
M  V30 7734 H 689.088 -4.86644 -6.58118 0
M  V30 7735 N 691.751 1.51645 -0.429126 0
M  V30 7736 C 692.684 2.24083 0.431492 0
M  V30 7737 C 693.662 1.25691 1.03153 0
M  V30 7738 O 694.846 1.54802 1.07557 0
M  V30 7739 C 691.973 2.9849 1.60067 0
M  V30 7740 C 691.019 4.11474 1.12211 0
M  V30 7741 S 691.852 5.35453 0.0708449 0
M  V30 7742 C 693.008 6.13395 1.24488 0
M  V30 7743 H 693.241 2.96733 -0.183525 0
M  V30 7744 H 690.774 1.52916 -0.213574 0
M  V30 7745 H 692.732 3.4196 2.27099 0
M  V30 7746 H 691.393 2.25445 2.18708 0
M  V30 7747 H 690.586 4.62784 1.99618 0
M  V30 7748 H 690.188 3.70223 0.530149 0
M  V30 7749 H 692.48 6.41984 2.16479 0
M  V30 7750 H 693.423 7.0388 0.771921 0
M  V30 7751 H 693.831 5.44761 1.47973 0
M  V30 7752 N 693.229 0.160201 1.56784 0
M  V30 7753 C 694.645 -0.196089 1.58391 0
M  V30 7754 C 694.845 -1.63689 1.17508 0
M  V30 7755 O 693.901 -2.36613 0.881506 0
M  V30 7756 C 695.214 0.0746449 3.00607 0
M  V30 7757 C 696.762 0.0119762 3.12998 0
M  V30 7758 C 697.237 0.255551 4.57286 0
M  V30 7759 N 698.728 0.202938 4.62755 0
M  V30 7760 C 699.463 0.365731 5.72232 0
M  V30 7761 N 698.959 0.586972 6.90309 0
M  V30 7762 N 700.752 0.302411 5.61286 0
M  V30 7763 H 692.903 1.1008 1.81648 0
M  V30 7764 H 695.166 0.436779 0.841384 0
M  V30 7765 H 694.872 1.07231 3.34954 0
M  V30 7766 H 694.746 -0.638802 3.71751 0
M  V30 7767 H 697.133 -0.976254 2.78484 0
M  V30 7768 H 697.214 0.75796 2.44313 0
M  V30 7769 H 696.858 1.24094 4.92507 0
M  V30 7770 H 696.788 -0.510912 5.24116 0
M  V30 7771 H 699.279 0.0371328 3.77882 0
M  V30 7772 H 699.592 0.700941 7.69615 0
M  V30 7773 H 697.937 0.623453 6.92198 0
M  V30 7774 H 701.128 0.130238 4.67919 0
M  V30 7775 H 701.301 0.432712 6.46554 0
M  V30 7776 N 694.707 -1.5719 -0.113559 0
M  V30 7777 C 695.654 -2.00736 -1.13901 0
M  V30 7778 C 696.624 -0.88044 -1.40846 0
M  V30 7779 O 697.809 -1.14507 -1.5262 0
M  V30 7780 C 694.949 -2.42132 -2.45899 0
M  V30 7781 C 694.062 -3.68264 -2.25844 0
M  V30 7782 C 693.197 -3.98617 -3.5111 0
M  V30 7783 C 692.236 -5.17915 -3.26236 0
M  V30 7784 N 691.373 -5.44111 -4.4372 0
M  V30 7785 H 696.213 -2.88128 -0.760677 0
M  V30 7786 H 693.75 -1.42523 -0.364099 0
M  V30 7787 H 695.708 -2.6417 -3.22908 0
M  V30 7788 H 694.338 -1.57775 -2.81615 0
M  V30 7789 H 693.39 -3.53809 -1.39726 0
M  V30 7790 H 694.702 -4.55425 -2.03444 0
M  V30 7791 H 693.856 -4.21333 -4.36536 0
M  V30 7792 H 692.595 -3.09942 -3.76546 0
M  V30 7793 H 691.6 -4.95038 -2.39202 0
M  V30 7794 H 692.825 -6.08172 -3.02165 0
M  V30 7795 H 690.771 -4.58394 -4.69266 0
M  V30 7796 H 690.688 -6.25606 -4.24444 0
M  V30 7797 H 691.956 -5.71351 -5.30263 0
M  V30 7798 N 696.185 0.383891 -1.52853 0
M  V30 7799 C 697.413 1.1495 -1.7203 0
M  V30 7800 C 697.828 1.83578 -0.440957 0
M  V30 7801 O 697.185 1.72872 0.584925 0
M  V30 7802 C 697.236 2.19368 -2.87333 0
M  V30 7803 O 696.957 1.53536 -4.10315 0
M  V30 7804 C 698.458 3.08616 -3.18231 0
M  V30 7805 H 695.678 0.344445 -0.575846 0
M  V30 7806 H 698.222 0.448397 -1.99524 0
M  V30 7807 H 696.377 2.85105 -2.62286 0
M  V30 7808 H 696.791 2.2296 -4.74752 0
M  V30 7809 H 698.265 3.77902 -4.02361 0
M  V30 7810 H 698.742 3.72409 -2.32826 0
M  V30 7811 H 699.348 2.48518 -3.45136 0
M  V30 7812 N 697.663 1.43903 0.642637 0
M  V30 7813 C 698.893 1.49323 1.4278 0
M  V30 7814 C 699.301 0.113058 1.88862 0
M  V30 7815 O 698.644 -0.889089 1.60751 0
M  V30 7816 C 698.706 2.3861 2.68897 0
M  V30 7817 C 698.37 3.85976 2.44687 0
M  V30 7818 C 699.367 4.7681 2.07239 0
M  V30 7819 C 697.052 4.30567 2.58683 0
M  V30 7820 C 699.046 6.10234 1.841 0
M  V30 7821 C 696.733 5.64042 2.35159 0
M  V30 7822 C 697.731 6.53693 1.97925 0
M  V30 7823 O 697.419 7.84698 1.74654 0
M  V30 7824 H 697.151 0.509109 0.444729 0
M  V30 7825 H 699.705 1.89425 0.794195 0
M  V30 7826 H 697.935 1.93415 3.34855 0
M  V30 7827 H 699.624 2.35112 3.30873 0
M  V30 7828 H 700.39 4.43635 1.95993 0
M  V30 7829 H 696.269 3.61054 2.86637 0
M  V30 7830 H 699.813 6.80171 1.54962 0
M  V30 7831 H 695.71 5.96782 2.46011 0
M  V30 7832 H 696.478 7.96382 1.88993 0
M  V30 7833 N 699.141 -0.881989 1.30609 0
M  V30 7834 C 700.073 -1.99375 1.13058 0
M  V30 7835 C 701.086 -1.62636 0.0729879 0
M  V30 7836 O 702.275 -1.75621 0.319301 0
M  V30 7837 C 699.375 -3.31536 0.702651 0
M  V30 7838 C 698.548 -3.96693 1.84265 0
M  V30 7839 C 697.607 -5.07158 1.40277 0
M  V30 7840 O 696.633 -5.28628 2.11048 0
M  V30 7841 N 697.835 -5.79808 0.283449 0
M  V30 7842 H 700.6 -2.14981 2.08814 0
M  V30 7843 H 698.161 -1.05526 1.22784 0
M  V30 7844 H 700.153 -4.02804 0.391331 0
M  V30 7845 H 698.723 -3.12175 -0.162954 0
M  V30 7846 H 697.943 -3.1856 2.32192 0
M  V30 7847 H 699.231 -4.36964 2.60653 0
M  V30 7848 H 698.629 -5.64871 -0.306189 0
M  V30 7849 H 697.186 -6.51792 0.0315985 0
M  V30 7850 N 700.619 -1.13374 -1.09472 0
M  V30 7851 C 701.567 -0.806105 -2.18185 0
M  V30 7852 C 702.561 0.21136 -1.68076 0
M  V30 7853 O 703.767 0.0685558 -1.79869 0
M  V30 7854 H 700.142 -0.242901 -0.71169 0
M  V30 7855 H 702.113 -1.73115 -2.43051 0
M  V30 7856 C 700.862 -0.287928 -3.46506 0
M  V30 7857 H 700.185 -1.06217 -3.85432 0
M  V30 7858 H 701.625 -0.0971054 -4.23889 0
M  V30 7859 C 700.084 0.986256 -3.22141 0
M  V30 7860 O 700.614 2.06217 -3.44728 0
M  V30 7861 N 698.82 0.917153 -2.75747 0
M  V30 7862 H 698.367 0.0414609 -2.57567 0
M  V30 7863 H 698.325 1.77029 -2.59823 0
M  V30 7864 N 702.098 1.27442 -0.927168 0
M  V30 7865 C 703.347 1.93679 -0.563146 0
M  V30 7866 C 703.66 1.73673 0.899837 0
M  V30 7867 O 704.866 2.34247 1.37262 0
M  V30 7868 C 703.322 3.46961 -0.95636 0
M  V30 7869 C 702.93 3.75724 -2.43999 0
M  V30 7870 C 704.674 4.19282 -0.663565 0
M  V30 7871 C 702.581 5.22378 -2.77263 0
M  V30 7872 H 701.511 0.725059 -0.206894 0
M  V30 7873 H 704.162 1.44743 -1.12791 0
M  V30 7874 H 702.544 3.94703 -0.320254 0
M  V30 7875 H 703.718 3.38741 -3.12396 0
M  V30 7876 H 702.033 3.16605 -2.70463 0
M  V30 7877 H 704.63 5.27265 -0.888596 0
M  V30 7878 H 704.973 4.14382 0.399198 0
M  V30 7879 H 705.506 3.7736 -1.25875 0
M  V30 7880 H 702.245 5.32367 -3.82446 0
M  V30 7881 H 701.765 5.6051 -2.13516 0
M  V30 7882 H 703.444 5.9025 -2.64979 0
M  V30 7883 N 703.576 0.692616 1.41565 0
M  V30 7884 C 704.524 0.0139952 2.32596 0
M  V30 7885 C 705.518 -0.771691 1.50802 0
M  V30 7886 O 706.724 -0.677646 1.66757 0
M  V30 7887 H 703.099 -0.0142745 0.751865 0
M  V30 7888 H 705.07 0.798851 2.87508 0
M  V30 7889 C 703.819 -0.910602 3.35564 0
M  V30 7890 H 703.142 -0.315446 3.98554 0
M  V30 7891 H 704.582 -1.3538 4.01806 0
M  V30 7892 C 703.041 -2.02539 2.6922 0
M  V30 7893 O 703.571 -3.11386 2.53775 0
M  V30 7894 N 701.777 -1.80227 2.27962 0
M  V30 7895 H 701.324 -0.917054 2.40724 0
M  V30 7896 H 701.282 -2.55001 1.83907 0
M  V30 7897 N 705.054 -1.51416 0.437162 0
M  V30 7898 C 706.279 -2.0699 -0.130424 0
M  V30 7899 C 706.704 -1.30249 -1.35709 0
M  V30 7900 O 706.062 -0.340388 -1.78076 0
M  V30 7901 C 706.11 -3.5801 -0.43142 0
M  V30 7902 O 705.214 -3.8345 -1.5179 0
M  V30 7903 H 704.555 -0.663997 -0.00194339 0
M  V30 7904 H 707.085 -1.95029 0.618445 0
M  V30 7905 H 707.095 -4.02261 -0.681926 0
M  V30 7906 H 705.77 -4.13291 0.465137 0
M  V30 7907 H 704.347 -3.51062 -1.25737 0
M  V30 7908 N 706.532 -0.168513 -1.56696 0
M  V30 7909 C 707.757 0.486688 -2.01609 0
M  V30 7910 C 708.182 1.56203 -1.04796 0
M  V30 7911 O 707.54 1.8128 -0.0270596 0
M  V30 7912 C 707.588 1.04451 -3.45141 0
M  V30 7913 O 706.692 2.15862 -3.51393 0
M  V30 7914 H 706.033 0.116831 -0.653641 0
M  V30 7915 H 708.563 -0.271579 -2.0279 0
M  V30 7916 H 708.573 1.36782 -3.84389 0
M  V30 7917 H 707.248 0.257155 -4.15104 0
M  V30 7918 H 705.825 1.84597 -3.24004 0
M  V30 7919 N 708.01 1.57248 0.105221 0
M  V30 7920 C 709.24 1.89492 0.823175 0
M  V30 7921 C 709.648 0.75934 1.73294 0
M  V30 7922 O 708.991 -0.278182 1.81581 0
M  V30 7923 C 709.053 3.16891 1.69765 0
M  V30 7924 C 708.717 4.46787 0.960769 0
M  V30 7925 C 709.714 5.19061 0.295218 0
M  V30 7926 C 707.399 4.93467 0.937854 0
M  V30 7927 C 709.393 6.36246 -0.383393 0
M  V30 7928 C 707.08 6.10566 0.255452 0
M  V30 7929 C 708.078 6.81804 -0.404003 0
M  V30 7930 O 707.766 7.96673 -1.07549 0
M  V30 7931 H 707.498 0.631512 0.24118 0
M  V30 7932 H 710.052 2.05203 0.0899655 0
M  V30 7933 H 708.282 2.973 2.47285 0
M  V30 7934 H 709.971 3.35046 2.29126 0
M  V30 7935 H 710.737 4.84044 0.304448 0
M  V30 7936 H 706.616 4.37913 1.44058 0
M  V30 7937 H 710.16 6.91787 -0.898696 0
M  V30 7938 H 706.057 6.45039 0.244032 0
M  V30 7939 H 706.825 8.12596 -0.981355 0
M  V30 7940 N 709.488 -0.375779 1.53054 0
M  V30 7941 C 710.436 -1.48015 1.79428 0
M  V30 7942 C 711.43 -1.55893 0.662854 0
M  V30 7943 O 712.636 -1.58901 0.845599 0
M  V30 7944 H 709.011 -0.492887 0.56795 0
M  V30 7945 H 710.982 -1.22971 2.71884 0
M  V30 7946 C 709.731 -2.84984 1.99197 0
M  V30 7947 H 709.054 -2.79677 2.85693 0
M  V30 7948 H 710.494 -3.61462 2.21633 0
M  V30 7949 C 708.953 -3.28025 0.768183 0
M  V30 7950 O 709.483 -4.01671 -0.0480482 0
M  V30 7951 N 707.689 -2.84454 0.594521 0
M  V30 7952 H 707.236 -2.24688 1.25988 0
M  V30 7953 H 707.194 -3.13609 -0.222916 0
M  V30 7954 N 710.966 -1.44241 -0.634997 0
M  V30 7955 C 711.913 -1.5081 -1.74714 0
M  V30 7956 C 712.883 -0.356147 -1.62237 0
M  V30 7957 O 714.068 -0.565848 -1.82216 0
M  V30 7958 C 711.208 -1.45458 -3.12947 0
M  V30 7959 C 710.321 -2.70998 -3.36428 0
M  V30 7960 C 709.456 -2.57507 -4.64611 0
M  V30 7961 C 708.495 -3.78229 -4.81258 0
M  V30 7962 N 707.632 -3.63438 -6.00714 0
M  V30 7963 H 712.472 -2.45832 -1.68436 0
M  V30 7964 H 710.009 -1.2201 -0.821706 0
M  V30 7965 H 711.967 -1.40347 -3.92885 0
M  V30 7966 H 710.597 -0.540058 -3.1825 0
M  V30 7967 H 709.649 -2.86312 -2.50458 0
M  V30 7968 H 710.961 -3.60619 -3.44609 0
M  V30 7969 H 710.115 -2.50207 -5.52703 0
M  V30 7970 H 708.854 -1.65441 -4.58782 0
M  V30 7971 H 707.859 -3.85918 -3.91596 0
M  V30 7972 H 709.084 -4.71327 -4.88904 0
M  V30 7973 H 707.03 -2.7412 -5.95982 0
M  V30 7974 H 706.947 -4.46672 -6.09934 0
M  V30 7975 H 708.215 -3.60022 -6.91378 0
M  V30 7976 N 712.444 0.87505 -1.31075 0
M  V30 7977 C 713.691 1.62768 -1.20469 0
M  V30 7978 C 714.019 1.93034 0.23834 0
M  V30 7979 O 713.274 1.55693 1.18567 0
M  V30 7980 C 713.573 2.96948 -1.98888 0
M  V30 7981 C 713.239 2.86195 -3.4843 0
M  V30 7982 C 711.901 2.82969 -3.89207 0
M  V30 7983 C 714.253 2.73599 -4.43614 0
M  V30 7984 C 711.581 2.64999 -5.23443 0
M  V30 7985 C 713.933 2.57166 -5.77969 0
M  V30 7986 C 712.597 2.52321 -6.17973 0
M  V30 7987 H 711.867 0.595611 -0.440827 0
M  V30 7988 H 714.514 1.01665 -1.62285 0
M  V30 7989 H 712.819 3.62058 -1.49737 0
M  V30 7990 H 714.516 3.54164 -1.88067 0
M  V30 7991 H 711.106 2.8952 -3.16032 0
M  V30 7992 H 715.29 2.7515 -4.13045 0
M  V30 7993 H 710.546 2.5967 -5.53517 0
M  V30 7994 H 714.72 2.46396 -6.51354 0
M  V30 7995 H 712.347 2.38156 -7.21932 0
M  V30 7996 N 713.922 1.13953 1.08869 0
M  V30 7997 C 715.168 0.906151 1.8143 0
M  V30 7998 C 715.501 -0.566089 1.85766 0
M  V30 7999 O 714.776 -1.41915 1.33006 0
M  V30 8000 C 715.059 1.50183 3.27287 0
M  V30 8001 C 714.912 3.04359 3.31189 0
M  V30 8002 C 716.231 1.17477 4.24131 0
M  V30 8003 H 713.35 0.330624 0.658678 0
M  V30 8004 H 715.992 1.40873 1.27495 0
M  V30 8005 H 714.142 1.07442 3.73348 0
M  V30 8006 H 715.814 3.55896 2.93488 0
M  V30 8007 H 714.057 3.39053 2.70602 0
M  V30 8008 H 714.728 3.41141 4.33966 0
M  V30 8009 H 717.204 1.5442 3.86385 0
M  V30 8010 H 716.08 1.61795 5.24513 0
M  V30 8011 H 716.341 0.0893312 4.4201 0
M  V30 8012 N 715.4 -1.26948 0.933913 0
M  V30 8013 C 716.625 -1.98724 0.593589 0
M  V30 8014 C 717.05 -1.6915 -0.822801 0
M  V30 8015 O 716.408 -0.93533 -1.5531 0
M  V30 8016 C 716.456 -3.50834 0.833542 0
M  V30 8017 O 715.56 -4.12284 -0.0978788 0
M  V30 8018 H 714.901 -0.623683 0.227849 0
M  V30 8019 H 717.431 -1.61599 1.25486 0
M  V30 8020 H 717.441 -4.01018 0.75156 0
M  V30 8021 H 716.116 -3.71691 1.86597 0
M  V30 8022 H 714.693 -3.72884 0.0345443 0
M  V30 8023 N 716.879 -0.700114 -1.41195 0
M  V30 8024 C 717.826 -0.0376652 -2.30769 0
M  V30 8025 C 718.796 0.766544 -1.47354 0
M  V30 8026 O 719.981 0.73365 -1.76131 0
M  V30 8027 C 717.121 0.889452 -3.33441 0
M  V30 8028 C 716.234 0.076373 -4.31932 0
M  V30 8029 C 715.369 1.00155 -5.21673 0
M  V30 8030 C 714.408 0.181644 -6.1183 0
M  V30 8031 N 713.545 1.06087 -6.94039 0
M  V30 8032 H 718.385 -0.80726 -2.86858 0
M  V30 8033 H 715.922 -0.409798 -1.41277 0
M  V30 8034 H 717.88 1.44107 -3.91522 0
M  V30 8035 H 716.51 1.6254 -2.78892 0
M  V30 8036 H 715.562 -0.592223 -3.75762 0
M  V30 8037 H 716.874 -0.559076 -4.95657 0
M  V30 8038 H 716.028 1.62223 -5.8461 0
M  V30 8039 H 714.767 1.67085 -4.58186 0
M  V30 8040 H 713.772 -0.452085 -5.47938 0
M  V30 8041 H 714.997 -0.483925 -6.77374 0
M  V30 8042 H 712.943 1.7161 -6.33156 0
M  V30 8043 H 712.86 0.481094 -7.54468 0
M  V30 8044 H 714.128 1.66822 -7.6144 0
M  V30 8045 N 718.357 1.51182 -0.445186 0
M  V30 8046 C 719.305 2.29531 0.376597 0
M  V30 8047 C 720.299 1.35711 1.01385 0
M  V30 8048 O 721.505 1.53018 0.947922 0
M  V30 8049 H 717.88 0.738803 0.140267 0
M  V30 8050 H 719.851 2.96838 -0.304958 0
M  V30 8051 C 718.6 3.1552 1.4609 0
M  V30 8052 H 717.923 3.87605 0.979912 0
M  V30 8053 H 719.363 3.73384 2.009 0
M  V30 8054 C 717.822 2.31406 2.44852 0
M  V30 8055 O 718.352 1.97912 3.49562 0
M  V30 8056 N 716.558 1.94478 2.15932 0
M  V30 8057 H 716.105 2.21917 1.30808 0
M  V30 8058 H 716.063 1.38498 2.82251 0
M  V30 8059 N 719.835 0.176821 1.56605 0
M  V30 8060 C 721.083 -0.465793 1.96659 0
M  V30 8061 C 721.404 -1.63406 1.06412 0
M  V30 8062 O 720.674 -1.95457 0.131603 0
M  V30 8063 H 719.254 -0.175072 0.726195 0
M  V30 8064 H 721.916 0.25929 1.93168 0
M  V30 8065 H 721.012 -0.822138 3.01077 0
M  V30 8066 N 721.313 -1.57302 -0.09688 0
M  V30 8067 C 722.538 -1.9058 -0.818169 0
M  V30 8068 C 722.963 -0.770921 -1.71576 0
M  V30 8069 O 722.321 0.277588 -1.79162 0
M  V30 8070 C 722.369 -3.22714 -1.60898 0
M  V30 8071 O 721.473 -3.10178 -2.71779 0
M  V30 8072 H 720.814 -0.624759 -0.224882 0
M  V30 8073 H 723.344 -2.04471 -0.07264 0
M  V30 8074 H 723.354 -3.55978 -1.99358 0
M  V30 8075 H 722.029 -4.04899 -0.950227 0
M  V30 8076 H 720.606 -2.88424 -2.3636 0
M  V30 8077 N 722.791 0.367657 -1.53252 0
M  V30 8078 C 723.701 1.47415 -1.82499 0
M  V30 8079 C 724.717 1.58711 -0.713222 0
M  V30 8080 O 725.893 1.74644 -1.00306 0
M  V30 8081 C 722.958 2.82706 -2.00694 0
M  V30 8082 C 722.019 2.80955 -3.24596 0
M  V30 8083 C 721.252 4.09793 -3.41914 0
M  V30 8084 O 721.475 5.05852 -2.63572 0
M  V30 8085 O 720.409 4.15731 -4.3526 0
M  V30 8086 H 724.235 1.25624 -2.765 0
M  V30 8087 H 721.82 0.557559 -1.38606 0
M  V30 8088 H 723.702 3.62873 -2.14246 0
M  V30 8089 H 722.377 3.04479 -1.09883 0
M  V30 8090 H 721.284 1.99494 -3.16469 0
M  V30 8091 H 722.617 2.64136 -4.15323 0
M  V30 8092 N 724.269 1.44576 0.627338 0
M  V30 8093 C 725.179 1.54232 1.76776 0
M  V30 8094 C 726.195 0.427782 1.6866 0
M  V30 8095 O 727.371 0.685671 1.89369 0
M  V30 8096 C 724.436 1.48738 3.13174 0
M  V30 8097 C 723.497 2.71074 3.32893 0
M  V30 8098 C 722.73 2.65832 4.62784 0
M  V30 8099 O 722.953 1.72048 5.43834 0
M  V30 8100 O 721.887 3.56742 4.84787 0
M  V30 8101 H 725.713 2.50586 1.71582 0
M  V30 8102 H 723.298 1.26865 0.789028 0
M  V30 8103 H 725.18 1.48211 3.94476 0
M  V30 8104 H 723.855 0.555292 3.18902 0
M  V30 8105 H 722.762 2.77168 2.51254 0
M  V30 8106 H 724.095 3.63342 3.32029 0
M  V30 8107 N 725.747 -0.868086 1.31537 0
M  V30 8108 C 726.975 -1.65402 1.24298 0
M  V30 8109 C 727.39 -1.87827 -0.191389 0
M  V30 8110 O 726.747 -1.43776 -1.12404 0
M  V30 8111 C 726.798 -3.02093 1.9855 0
M  V30 8112 O 726.519 -2.80668 3.36388 0
M  V30 8113 C 728.02 -3.96538 1.98173 0
M  V30 8114 H 725.24 -0.515598 0.429417 0
M  V30 8115 H 727.784 -1.0834 1.73444 0
M  V30 8116 H 725.939 -3.55838 1.53161 0
M  V30 8117 H 726.353 -3.67504 3.74221 0
M  V30 8118 H 727.827 -4.8976 2.54635 0
M  V30 8119 H 728.304 -4.28474 0.964697 0
M  V30 8120 H 728.91 -3.48729 2.4345 0
M  V30 8121 N 727.225 -1.14528 -1.08264 0
M  V30 8122 C 728.135 -0.84728 -2.18765 0
M  V30 8123 C 729.151 0.172826 -1.7314 0
M  V30 8124 O 730.327 0.000985336 -2.014 0
M  V30 8125 C 727.392 -0.330633 -3.4512 0
M  V30 8126 C 726.453 -1.41348 -4.05363 0
M  V30 8127 C 725.686 -0.921387 -5.25686 0
M  V30 8128 O 725.909 0.236587 -5.69909 0
M  V30 8129 O 724.843 -1.70101 -5.77364 0
M  V30 8130 H 728.669 -1.7708 -2.46731 0
M  V30 8131 H 726.254 -0.923661 -1.17426 0
M  V30 8132 H 728.136 -0.0485053 -4.21372 0
M  V30 8133 H 726.811 0.565147 -3.18728 0
M  V30 8134 H 725.718 -1.74908 -3.30693 0
M  V30 8135 H 727.051 -2.28383 -4.36007 0
M  V30 8136 N 728.703 1.26451 -0.940633 0
M  V30 8137 C 729.613 2.30128 -0.455881 0
M  V30 8138 C 730.629 1.67536 0.469867 0
M  V30 8139 O 731.805 1.98344 0.349529 0
M  V30 8140 C 728.87 3.45634 0.271648 0
M  V30 8141 C 727.931 4.23709 -0.690594 0
M  V30 8142 C 727.164 5.337 0.00231047 0
M  V30 8143 O 727.387 5.57215 1.21935 0
M  V30 8144 O 726.321 5.98091 -0.676111 0
M  V30 8145 H 730.147 2.73655 -1.31707 0
M  V30 8146 H 727.732 1.3164 -0.706497 0
M  V30 8147 H 729.614 4.15853 0.681486 0
M  V30 8148 H 728.289 3.04138 1.10824 0
M  V30 8149 H 727.196 3.55974 -1.15037 0
M  V30 8150 H 728.529 4.68953 -1.49478 0
M  V30 8151 N 730.181 0.707592 1.40822 0
M  V30 8152 C 731.113 0.0105968 2.29198 0
M  V30 8153 C 732.126 -0.732035 1.45414 0
M  V30 8154 O 733.315 -0.580741 1.68789 0
M  V30 8155 C 730.415 -1.00921 3.23525 0
M  V30 8156 C 729.588 -0.333747 4.36125 0
M  V30 8157 C 728.647 -1.25783 5.10945 0
M  V30 8158 O 727.673 -0.745646 5.64295 0
M  V30 8159 N 728.875 -2.58947 5.19545 0
M  V30 8160 H 731.64 0.76938 2.89656 0
M  V30 8161 H 729.201 0.554579 1.52105 0
M  V30 8162 H 731.193 -1.6294 3.70449 0
M  V30 8163 H 729.763 -1.66942 2.6429 0
M  V30 8164 H 728.983 0.466518 3.9143 0
M  V30 8165 H 730.271 0.135444 5.0862 0
M  V30 8166 H 729.669 -3.03065 4.7767 0
M  V30 8167 H 728.226 -3.16131 5.70004 0
M  V30 8168 N 731.66 -1.50943 0.453197 0
M  V30 8169 C 732.59 -2.31005 -0.34044 0
M  V30 8170 C 733.571 -1.37112 -1.00669 0
M  V30 8171 O 734.756 -1.66033 -1.0073 0
M  V30 8172 C 731.886 -3.16358 -1.433 0
M  V30 8173 C 730.84 -4.18658 -0.889363 0
M  V30 8174 C 730.166 -4.92633 -2.07887 0
M  V30 8175 C 731.466 -5.22227 0.0871142 0
M  V30 8176 H 733.16 -2.97601 0.327723 0
M  V30 8177 H 730.706 -1.43119 0.159054 0
M  V30 8178 H 732.659 -3.71155 -1.99555 0
M  V30 8179 H 731.383 -2.47613 -2.12968 0
M  V30 8180 H 730.042 -3.64936 -0.348915 0
M  V30 8181 H 729.69 -4.20376 -2.76211 0
M  V30 8182 H 729.39 -5.61819 -1.72143 0
M  V30 8183 H 730.914 -5.50258 -2.64666 0
M  V30 8184 H 732.328 -5.72001 -0.385656 0
M  V30 8185 H 730.725 -5.99032 0.357926 0
M  V30 8186 H 731.795 -4.74077 1.01879 0
M  V30 8187 N 733.138 -0.185124 -1.56509 0
M  V30 8188 C 734.385 0.456258 -1.97293 0
M  V30 8189 C 734.713 1.62314 -1.07165 0
M  V30 8190 O 733.968 1.95398 -0.108621 0
M  V30 8191 C 734.267 0.967977 -3.44042 0
M  V30 8192 C 733.933 -0.084476 -4.50821 0
M  V30 8193 C 732.595 -0.373689 -4.79747 0
M  V30 8194 C 734.947 -0.79812 -5.15053 0
M  V30 8195 C 732.275 -1.3817 -5.70198 0
M  V30 8196 C 734.627 -1.79521 -6.06593 0
M  V30 8197 C 733.291 -2.09172 -6.3388 0
M  V30 8198 H 732.561 0.166957 -0.721946 0
M  V30 8199 H 735.208 -0.279992 -1.89442 0
M  V30 8200 H 733.513 1.78231 -3.48914 0
M  V30 8201 H 735.21 1.47347 -3.72948 0
M  V30 8202 H 731.8 0.15111 -4.28334 0
M  V30 8203 H 735.984 -0.587903 -4.92806 0
M  V30 8204 H 731.24 -1.61745 -5.89617 0
M  V30 8205 H 735.414 -2.35347 -6.55427 0
M  V30 8206 H 733.041 -2.87427 -7.03768 0
M  V30 8207 N 734.616 1.57351 0.0885366 0
M  V30 8208 C 735.865 1.85604 0.789556 0
M  V30 8209 C 736.178 0.775352 1.79576 0
M  V30 8210 O 737.384 0.945206 2.54515 0
M  V30 8211 C 735.84 3.29175 1.45506 0
M  V30 8212 C 735.448 4.45331 0.488278 0
M  V30 8213 C 737.192 3.66646 2.13942 0
M  V30 8214 C 735.099 5.79937 1.15874 0
M  V30 8215 H 734.029 0.692346 0.298619 0
M  V30 8216 H 736.68 1.83451 0.0425821 0
M  V30 8217 H 735.062 3.25889 2.24972 0
M  V30 8218 H 736.236 4.59977 -0.275359 0
M  V30 8219 H 734.551 4.16301 -0.0907363 0
M  V30 8220 H 737.148 4.64498 2.6485 0
M  V30 8221 H 737.491 2.956 2.93132 0
M  V30 8222 H 738.024 3.71848 1.41328 0
M  V30 8223 H 734.763 6.54232 0.407508 0
M  V30 8224 H 734.283 5.69123 1.89364 0
M  V30 8225 H 735.962 6.24718 1.68336 0
M  V30 8226 N 736.094 -0.359525 1.53444 0
M  V30 8227 C 737.026 -1.46098 1.76602 0
M  V30 8228 C 738.039 -1.49395 0.646912 0
M  V30 8229 O 739.228 -1.52765 0.923307 0
M  V30 8230 C 736.328 -2.84836 1.83635 0
M  V30 8231 C 735.501 -3.05164 3.13358 0
M  V30 8232 C 734.56 -4.24051 3.11556 0
M  V30 8233 O 733.586 -4.18935 3.85334 0
M  V30 8234 N 734.788 -5.31775 2.328 0
M  V30 8235 H 737.553 -1.2661 2.71643 0
M  V30 8236 H 735.114 -0.549294 1.52297 0
M  V30 8237 H 737.106 -3.62516 1.799 0
M  V30 8238 H 735.676 -2.97542 0.958509 0
M  V30 8239 H 734.896 -2.15091 3.30348 0
M  V30 8240 H 736.184 -3.15619 3.99076 0
M  V30 8241 H 735.582 -5.38796 1.7238 0
M  V30 8242 H 734.139 -6.0801 2.34877 0
M  V30 8243 N 737.572 -1.44907 -0.619662 0
M  V30 8244 C 738.983 -1.42905 -1.20146 0
M  V30 8245 C 739.334 -0.150341 -1.95623 0
M  V30 8246 O 738.459 0.748732 -2.03034 0
M  V30 8247 C 739.054 -2.58889 -2.18545 0
M  V30 8248 C 737.613 -2.60046 -2.72127 0
M  V30 8249 C 736.76 -2.3493 -1.4732 0
M  V30 8250 H 739.711 -1.53321 -0.409666 0
M  V30 8251 H 739.732 -2.32298 -3.0136 0
M  V30 8252 H 739.244 -3.51941 -1.63583 0
M  V30 8253 H 737.345 -1.70968 -3.3106 0
M  V30 8254 H 737.458 -3.58893 -3.17384 0
M  V30 8255 H 735.822 -1.84248 -1.75855 0
M  V30 8256 H 736.605 -3.3011 -0.942442 0
M  V30 8257 N 739.05 0.861098 -1.31996 0
M  V30 8258 C 740.296 1.61721 -1.22369 0
M  V30 8259 C 740.629 1.93 0.215587 0
M  V30 8260 O 739.904 1.56789 1.15098 0
M  V30 8261 C 740.187 2.9417 -2.07691 0
M  V30 8262 C 740.04 2.69714 -3.59965 0
M  V30 8263 C 741.359 3.95372 -1.93312 0
M  V30 8264 H 738.478 0.586822 -0.44588 0
M  V30 8265 H 741.12 0.994788 -1.61876 0
M  V30 8266 H 739.27 3.47292 -1.74128 0
M  V30 8267 H 740.942 2.23196 -4.03709 0
M  V30 8268 H 739.185 2.03789 -3.82952 0
M  V30 8269 H 739.856 3.63996 -4.14983 0
M  V30 8270 H 742.332 3.51487 -2.22701 0
M  V30 8271 H 741.208 4.85916 -2.55298 0
M  V30 8272 H 741.469 4.32865 -0.898922 0
M  V30 8273 N 740.528 1.15101 1.07655 0
M  V30 8274 C 741.758 0.946357 1.83651 0
M  V30 8275 C 742.166 -0.508641 1.82235 0
M  V30 8276 O 741.509 -1.36445 1.22997 0
M  V30 8277 C 741.571 1.37945 3.31981 0
M  V30 8278 C 741.235 2.85155 3.57122 0
M  V30 8279 C 742.232 3.83234 3.51323 0
M  V30 8280 C 739.917 3.2275 3.84887 0
M  V30 8281 C 741.911 5.16914 3.72932 0
M  V30 8282 C 739.598 4.56604 4.06148 0
M  V30 8283 C 740.596 5.53495 4.00165 0
M  V30 8284 O 740.284 6.84931 4.20861 0
M  V30 8285 H 740.016 0.336368 0.586372 0
M  V30 8286 H 742.57 1.53198 1.36819 0
M  V30 8287 H 740.8 0.737205 3.79608 0
M  V30 8288 H 742.489 1.14439 3.89434 0
M  V30 8289 H 743.255 3.55535 3.29878 0
M  V30 8290 H 739.134 2.47921 3.88659 0
M  V30 8291 H 742.678 5.92529 3.68178 0
M  V30 8292 H 738.575 4.84019 4.27078 0
M  V30 8293 H 739.343 6.91304 4.38226 0
M  V30 8294 N 742.006 -1.2595 0.947325 0
M  V30 8295 C 743.252 -1.9375 0.599064 0
M  V30 8296 C 743.585 -1.74088 -0.860632 0
M  V30 8297 O 742.86 -1.08158 -1.61654 0
M  V30 8298 C 743.143 -3.47353 0.949634 0
M  V30 8299 C 742.996 -3.76273 2.46452 0
M  V30 8300 C 744.315 -4.37589 0.469442 0
M  V30 8301 H 741.434 -0.703674 0.219115 0
M  V30 8302 H 744.076 -1.48705 1.18266 0
M  V30 8303 H 742.226 -3.8585 0.453008 0
M  V30 8304 H 743.898 -3.47455 3.03435 0
M  V30 8305 H 742.141 -3.22135 2.90537 0
M  V30 8306 H 742.812 -4.83664 2.66032 0
M  V30 8307 H 745.288 -4.06353 0.89534 0
M  V30 8308 H 744.164 -5.43841 0.7435 0
M  V30 8309 H 744.425 -4.37579 -0.630618 0
M  V30 8310 N 743.484 -0.715051 -1.40445 0
M  V30 8311 C 744.414 -0.0768699 -2.33373 0
M  V30 8312 C 745.395 0.746109 -1.52863 0
M  V30 8313 O 746.58 0.695142 -1.81332 0
M  V30 8314 C 743.71 0.846014 -3.36838 0
M  V30 8315 C 742.664 0.128694 -4.27806 0
M  V30 8316 C 741.99 1.16726 -5.21804 0
M  V30 8317 C 743.29 -1.01679 -5.12307 0
M  V30 8318 H 744.984 -0.853061 -2.8699 0
M  V30 8319 H 742.53 -0.41167 -1.3799 0
M  V30 8320 H 744.483 1.30185 -4.00786 0
M  V30 8321 H 743.207 1.6541 -2.81615 0
M  V30 8322 H 741.866 -0.307314 -3.6531 0
M  V30 8323 H 741.514 1.96838 -4.62887 0
M  V30 8324 H 741.214 0.692188 -5.83509 0
M  V30 8325 H 742.738 1.62321 -5.88629 0
M  V30 8326 H 744.152 -0.640337 -5.69713 0
M  V30 8327 H 742.549 -1.4202 -5.83053 0
M  V30 8328 H 743.619 -1.84769 -4.48317 0
M  V30 8329 N 744.962 1.50701 -0.461195 0
M  V30 8330 C 745.909 2.2831 0.338094 0
M  V30 8331 C 746.879 1.32928 0.995957 0
M  V30 8332 O 748.064 1.61857 1.0103 0
M  V30 8333 C 745.204 3.14539 1.41983 0
M  V30 8334 C 744.317 4.24942 0.77773 0
M  V30 8335 C 743.452 4.98443 1.83652 0
M  V30 8336 C 742.491 6.00733 1.17413 0
M  V30 8337 N 741.628 6.6755 2.17533 0
M  V30 8338 H 746.468 2.96167 -0.330051 0
M  V30 8339 H 744.005 1.4606 -0.174611 0
M  V30 8340 H 745.963 3.62877 2.05855 0
M  V30 8341 H 744.593 2.48749 2.05727 0
M  V30 8342 H 743.645 3.80391 0.0266924 0
M  V30 8343 H 744.957 4.98151 0.254362 0
M  V30 8344 H 744.111 5.50449 2.55129 0
M  V30 8345 H 742.85 4.24917 2.39367 0
M  V30 8346 H 741.855 5.47997 0.444944 0
M  V30 8347 H 743.08 6.76227 0.624006 0
M  V30 8348 H 741.026 5.96823 2.72284 0
M  V30 8349 H 740.943 7.36603 1.70154 0
M  V30 8350 H 742.211 7.24178 2.88421 0
M  V30 8351 N 746.441 0.193421 1.56409 0
M  V30 8352 C 747.388 -0.728124 2.19014 0
M  V30 8353 C 748.358 -1.21098 1.13686 0
M  V30 8354 O 749.543 -1.27517 1.4193 0
M  V30 8355 C 746.683 -1.94277 2.8522 0
M  V30 8356 C 745.796 -1.50143 4.05069 0
M  V30 8357 C 744.931 -2.67145 4.59137 0
M  V30 8358 C 743.97 -2.19609 5.71348 0
M  V30 8359 N 743.107 -3.29782 6.19829 0
M  V30 8360 H 747.947 -0.187499 2.9741 0
M  V30 8361 H 745.484 -0.0808064 1.46878 0
M  V30 8362 H 747.442 -2.65551 3.21774 0
M  V30 8363 H 746.072 -2.45673 2.09391 0
M  V30 8364 H 745.124 -0.684624 3.74189 0
M  V30 8365 H 746.436 -1.11266 4.86232 0
M  V30 8366 H 745.59 -3.46544 4.97988 0
M  V30 8367 H 744.329 -3.09295 3.77078 0
M  V30 8368 H 743.334 -1.38664 5.32027 0
M  V30 8369 H 744.559 -1.78492 6.55223 0
M  V30 8370 H 742.505 -3.71466 5.40693 0
M  V30 8371 H 742.422 -2.95069 6.96039 0
M  V30 8372 H 743.69 -4.094 6.63334 0
M  V30 8373 N 747.919 -1.57396 -0.0801906 0
M  V30 8374 C 748.867 -2.04136 -1.11495 0
M  V30 8375 C 749.861 -0.945137 -1.40583 0
M  V30 8376 O 751.067 -1.13028 -1.40088 0
M  V30 8377 H 747.442 -0.65076 -0.37685 0
M  V30 8378 H 749.413 -2.90205 -0.694526 0
M  V30 8379 C 748.162 -2.49399 -2.42272 0
M  V30 8380 H 747.485 -3.33339 -2.20737 0
M  V30 8381 H 748.925 -2.85864 -3.13142 0
M  V30 8382 C 747.384 -1.37341 -3.07635 0
M  V30 8383 O 747.914 -0.710829 -3.95361 0
M  V30 8384 N 746.12 -1.12064 -2.68123 0
M  V30 8385 H 745.667 -1.66126 -1.96875 0
M  V30 8386 H 745.625 -0.372916 -3.12181 0
M  V30 8387 N 749.397 0.351382 -1.53633 0
M  V30 8388 C 750.327 1.43688 -1.84055 0
M  V30 8389 C 751.308 1.55251 -0.695073 0
M  V30 8390 O 752.493 1.69587 -0.946257 0
M  V30 8391 C 749.623 2.80843 -2.04315 0
M  V30 8392 C 748.577 2.84094 -3.20117 0
M  V30 8393 C 747.903 4.2406 -3.25696 0
M  V30 8394 C 749.203 2.50334 -4.58399 0
M  V30 8395 H 750.897 1.18478 -2.74961 0
M  V30 8396 H 748.443 0.568509 -1.32303 0
M  V30 8397 H 750.396 3.56821 -2.2418 0
M  V30 8398 H 749.12 3.07471 -1.10132 0
M  V30 8399 H 747.779 2.10568 -3.00094 0
M  V30 8400 H 747.427 4.47785 -2.29123 0
M  V30 8401 H 747.127 4.27147 -4.03509 0
M  V30 8402 H 748.651 5.0189 -3.47762 0
M  V30 8403 H 750.065 3.16025 -4.78332 0
M  V30 8404 H 748.462 2.64717 -5.38558 0
M  V30 8405 H 749.532 1.45542 -4.62543 0
M  V30 8406 N 750.875 1.45233 0.611969 0
M  V30 8407 C 752.103 1.52539 1.39784 0
M  V30 8408 C 752.518 0.156533 1.8815 0
M  V30 8409 O 751.875 -0.84112 1.61961 0
M  V30 8410 C 751.926 2.50614 2.60528 0
M  V30 8411 O 751.647 3.8218 2.14173 0
M  V30 8412 C 753.148 2.67574 3.53439 0
M  V30 8413 H 750.368 0.51674 0.428043 0
M  V30 8414 H 752.912 1.90379 0.746727 0
M  V30 8415 H 751.067 2.15858 3.2169 0
M  V30 8416 H 751.481 4.35305 2.92592 0
M  V30 8417 H 752.955 3.40184 4.34717 0
M  V30 8418 H 753.432 1.73458 4.03496 0
M  V30 8419 H 754.038 3.0331 2.98133 0
M  V30 8420 N 752.353 -0.854086 1.3245 0
M  V30 8421 C 753.3 -1.96271 1.21434 0
M  V30 8422 C 754.27 -1.6582 0.0963851 0
M  V30 8423 O 755.455 -1.88851 0.27203 0
M  V30 8424 C 752.595 -3.31939 0.943952 0
M  V30 8425 C 751.708 -3.74885 2.14675 0
M  V30 8426 C 750.843 -4.99347 1.81179 0
M  V30 8427 C 749.882 -5.34785 2.97777 0
M  V30 8428 N 749.019 -6.50425 2.6437 0
M  V30 8429 H 753.859 -2.05025 2.16261 0
M  V30 8430 H 751.396 -1.00348 1.07558 0
M  V30 8431 H 753.354 -4.10076 0.767675 0
M  V30 8432 H 751.984 -3.22784 0.0324763 0
M  V30 8433 H 751.036 -2.92396 2.43328 0
M  V30 8434 H 752.348 -3.97068 3.01891 0
M  V30 8435 H 751.502 -5.85193 1.60107 0
M  V30 8436 H 750.241 -4.79101 0.911777 0
M  V30 8437 H 749.246 -4.47451 3.1948 0
M  V30 8438 H 750.471 -5.56988 3.88511 0
M  V30 8439 H 748.417 -6.31695 1.7691 0
M  V30 8440 H 748.334 -6.7263 3.45116 0
M  V30 8441 H 749.602 -7.39422 2.46729 0
M  V30 8442 N 753.831 -1.1567 -1.07043 0
M  V30 8443 C 754.778 -0.856336 -2.14326 0
M  V30 8444 C 755.748 0.192051 -1.64986 0
M  V30 8445 O 756.933 0.0589148 -1.90709 0
M  V30 8446 C 754.073 -0.355227 -3.43267 0
M  V30 8447 C 753.186 -1.46555 -4.06381 0
M  V30 8448 C 752.321 -0.920245 -5.23168 0
M  V30 8449 C 751.36 -2.00729 -5.78251 0
M  V30 8450 N 750.497 -1.47813 -6.86364 0
M  V30 8451 H 755.337 -1.77514 -2.39359 0
M  V30 8452 H 752.874 -0.885676 -1.17449 0
M  V30 8453 H 754.832 -0.0463804 -4.17174 0
M  V30 8454 H 753.462 0.526649 -3.18475 0
M  V30 8455 H 752.514 -1.89052 -3.30096 0
M  V30 8456 H 753.826 -2.28616 -4.43324 0
M  V30 8457 H 752.98 -0.564127 -6.04072 0
M  V30 8458 H 751.719 -0.0688477 -4.87651 0
M  V30 8459 H 750.724 -2.3722 -4.95991 0
M  V30 8460 H 751.949 -2.86252 -6.15822 0
M  V30 8461 H 749.895 -0.649145 -6.5278 0
M  V30 8462 H 749.812 -2.23498 -7.22208 0
M  V30 8463 H 751.08 -1.15036 -7.70965 0
M  V30 8464 N 755.309 1.25446 -0.953992 0
M  V30 8465 C 756.556 1.93143 -0.608429 0
M  V30 8466 C 756.884 1.74727 0.854451 0
M  V30 8467 O 756.139 1.0855 1.62836 0
M  V30 8468 C 756.438 3.45555 -0.912496 0
M  V30 8469 C 756.104 3.84126 -2.36131 0
M  V30 8470 C 754.766 3.94367 -2.75732 0
M  V30 8471 C 757.118 4.0324 -3.30223 0
M  V30 8472 C 754.446 4.21127 -4.08496 0
M  V30 8473 C 756.798 4.31493 -4.62598 0
M  V30 8474 C 755.462 4.3995 -5.01996 0
M  V30 8475 H 754.732 0.706762 -0.22264 0
M  V30 8476 H 757.379 1.49005 -1.20291 0
M  V30 8477 H 755.684 3.91091 -0.235618 0
M  V30 8478 H 757.381 3.9612 -0.623714 0
M  V30 8479 H 753.971 3.76711 -2.04418 0
M  V30 8480 H 758.155 3.94744 -3.00817 0
M  V30 8481 H 753.411 4.2589 -4.38665 0
M  V30 8482 H 757.585 4.45227 -5.35486 0
M  V30 8483 H 755.212 4.60439 -6.04896 0
M  V30 8484 N 756.787 0.722489 1.40064 0
M  V30 8485 C 757.735 0.063329 2.32514 0
M  V30 8486 C 758.729 -0.73953 1.52405 0
M  V30 8487 O 759.935 -0.642122 1.68157 0
M  V30 8488 H 756.31 0.00167692 0.751998 0
M  V30 8489 H 758.281 0.859656 2.85749 0
M  V30 8490 C 757.03 -0.839219 3.3742 0
M  V30 8491 H 756.353 -0.230836 3.99133 0
M  V30 8492 H 757.793 -1.26827 4.04587 0
M  V30 8493 C 756.252 -1.96783 2.73456 0
M  V30 8494 O 756.782 -3.05933 2.60323 0
M  V30 8495 N 754.988 -1.75351 2.31734 0
M  V30 8496 H 754.535 -0.865787 2.42615 0
M  V30 8497 H 754.493 -2.51043 1.89275 0
M  V30 8498 N 758.265 -1.50454 0.469181 0
M  V30 8499 C 759.212 -2.28486 -0.325982 0
M  V30 8500 C 760.182 -1.33455 -0.988893 0
M  V30 8501 O 761.367 -1.6239 -1.0017 0
M  V30 8502 C 758.507 -3.15288 -1.40313 0
M  V30 8503 C 757.62 -4.25348 -0.755183 0
M  V30 8504 C 756.755 -4.9941 -1.81006 0
M  V30 8505 C 755.794 -6.01348 -1.14226 0
M  V30 8506 N 754.931 -6.68695 -2.1399 0
M  V30 8507 H 759.771 -2.95987 0.345753 0
M  V30 8508 H 757.308 -1.45965 0.182355 0
M  V30 8509 H 759.266 -3.63964 -2.03927 0
M  V30 8510 H 757.896 -2.49837 -2.04405 0
M  V30 8511 H 756.948 -3.80399 -0.00651901 0
M  V30 8512 H 758.26 -4.98279 -0.227941 0
M  V30 8513 H 757.414 -5.51794 -2.52206 0
M  V30 8514 H 756.153 -4.26181 -2.3711 0
M  V30 8515 H 755.158 -5.48225 -0.415876 0
M  V30 8516 H 756.383 -6.76548 -0.588135 0
M  V30 8517 H 754.329 -5.98258 -2.69115 0
M  V30 8518 H 754.246 -7.37495 -1.66246 0
M  V30 8519 H 755.514 -7.25697 -2.84576 0
M  V30 8520 N 759.743 -0.201713 -1.56304 0
M  V30 8521 C 760.99 0.435307 -1.97766 0
M  V30 8522 C 761.318 1.61169 -1.0888 0
M  V30 8523 O 760.573 1.95272 -0.12934 0
M  V30 8524 C 760.872 0.931432 -3.45049 0
M  V30 8525 C 760.538 -0.132287 -4.50706 0
M  V30 8526 C 759.2 -0.424552 -4.79323 0
M  V30 8527 C 761.552 -0.852703 -5.14177 0
M  V30 8528 C 758.88 -1.4421 -5.68701 0
M  V30 8529 C 761.232 -1.85944 -6.04655 0
M  V30 8530 C 759.896 -2.15884 -6.31625 0
M  V30 8531 H 759.166 0.15929 -0.723676 0
M  V30 8532 H 761.813 -0.300069 -1.89134 0
M  V30 8533 H 760.118 1.7452 -3.50785 0
M  V30 8534 H 761.815 1.43383 -3.74489 0
M  V30 8535 H 758.405 0.105671 -4.2847 0
M  V30 8536 H 762.589 -0.640139 -4.92154 0
M  V30 8537 H 757.845 -1.6799 -5.87869 0
M  V30 8538 H 762.019 -2.42286 -6.52894 0
M  V30 8539 H 759.646 -2.94875 -7.0068 0
M  V30 8540 N 761.222 1.57436 0.0718424 0
M  V30 8541 C 762.471 1.86431 0.769826 0
M  V30 8542 C 762.784 0.794355 1.78744 0
M  V30 8543 O 763.99 0.972148 2.53499 0
M  V30 8544 C 762.446 3.307 1.42006 0
M  V30 8545 C 762.054 4.45824 0.441017 0
M  V30 8546 C 763.798 3.68894 2.10041 0
M  V30 8547 C 761.705 5.81134 1.09717 0
M  V30 8548 H 760.635 0.695474 0.291259 0
M  V30 8549 H 763.286 1.83485 0.0231224 0
M  V30 8550 H 761.668 3.28257 2.21502 0
M  V30 8551 H 762.842 4.59659 -0.32413 0
M  V30 8552 H 761.157 4.16181 -0.134886 0
M  V30 8553 H 763.754 4.67281 2.59908 0
M  V30 8554 H 764.097 2.98692 2.89981 0
M  V30 8555 H 764.63 3.73326 1.37376 0
M  V30 8556 H 761.369 6.54628 0.338095 0
M  V30 8557 H 760.889 5.711 1.83317 0
M  V30 8558 H 762.568 6.26468 1.617 0
M  V30 8559 N 762.7 -0.34323 1.53817 0
M  V30 8560 C 763.648 -1.44176 1.82527 0
M  V30 8561 C 764.642 -1.54452 0.695772 0
M  V30 8562 O 765.848 -1.57072 0.879114 0
M  V30 8563 H 762.223 -0.480729 0.578277 0
M  V30 8564 H 764.194 -1.17176 2.74431 0
M  V30 8565 C 762.943 -2.80695 2.05197 0
M  V30 8566 H 762.266 -2.73554 2.91561 0
M  V30 8567 H 763.706 -3.56679 2.29251 0
M  V30 8568 C 762.165 -3.26322 0.837589 0
M  V30 8569 O 762.695 -4.01683 0.0371631 0
M  V30 8570 N 760.901 -2.83128 0.654724 0
M  V30 8571 H 760.448 -2.21965 1.30725 0
M  V30 8572 H 760.406 -3.14011 -0.156345 0
M  V30 8573 N 764.178 -1.45556 -0.604258 0
M  V30 8574 C 765.455 -1.40221 -1.36373 0
M  V30 8575 C 765.835 -0.0745195 -2.10968 0
M  V30 8576 O 765.183 0.943594 -2.08107 0
M  V30 8577 C 765.393 -2.61807 -2.30777 0
M  V30 8578 C 766.741 -3.07037 -2.93281 0
M  V30 8579 O 767.765 -2.62203 -2.41097 0
M  V30 8580 O 766.624 -3.8485 -3.88011 0
M  V30 8581 H 763.718 -0.556602 -0.611656 0
M  V30 8582 H 766.264 -1.57689 -0.627069 0
M  V30 8583 H 765.036 -3.50017 -1.74939 0
M  V30 8584 H 764.659 -2.46688 -3.11818 0
M  V30 8585 N 765.656 0.84705 -1.32902 0
M  V30 8586 C 766.603 1.95624 -1.22473 0
M  V30 8587 C 767.573 1.65767 -0.105178 0
M  V30 8588 O 768.758 1.88704 -0.282042 0
M  V30 8589 C 765.898 3.31434 -0.961542 0
M  V30 8590 C 765.011 3.73741 -2.1666 0
M  V30 8591 C 764.146 4.98379 -1.83825 0
M  V30 8592 C 763.185 5.33199 -3.00609 0
M  V30 8593 N 762.322 6.49014 -2.67816 0
M  V30 8594 H 767.162 2.03875 -2.17345 0
M  V30 8595 H 764.699 0.997764 -1.08088 0
M  V30 8596 H 766.657 4.09663 -0.789411 0
M  V30 8597 H 765.287 3.22762 -0.0495938 0
M  V30 8598 H 764.339 2.91102 -2.44875 0
M  V30 8599 H 765.651 3.95462 -3.03993 0
M  V30 8600 H 764.805 5.84336 -1.63208 0
M  V30 8601 H 763.544 4.78611 -0.937172 0
M  V30 8602 H 762.549 4.4575 -3.21849 0
M  V30 8603 H 763.774 5.5492 -3.9146 0
M  V30 8604 H 761.72 6.30748 -1.80258 0
M  V30 8605 H 761.637 6.7079 -3.48679 0
M  V30 8606 H 762.905 7.38103 -2.50647 0
M  V30 8607 N 767.134 1.16236 1.06428 0
M  V30 8608 C 768.362 0.967184 1.82902 0
M  V30 8609 C 768.777 -0.484601 1.82475 0
M  V30 8610 O 768.134 -1.33631 1.24294 0
M  V30 8611 C 768.185 1.48534 3.29576 0
M  V30 8612 O 767.906 2.88026 3.3011 0
M  V30 8613 C 769.407 1.33298 4.22784 0
M  V30 8614 H 766.627 0.342923 0.576754 0
M  V30 8615 H 769.171 1.54232 1.34286 0
M  V30 8616 H 767.326 0.952513 3.75508 0
M  V30 8617 H 767.74 3.11721 4.21818 0
M  V30 8618 H 769.214 1.74385 5.23731 0
M  V30 8619 H 769.691 0.278356 4.38317 0
M  V30 8620 H 770.297 1.85535 3.82697 0
M  V30 8621 N 768.612 -1.24939 0.960631 0
M  V30 8622 C 769.861 -1.92118 0.614298 0
M  V30 8623 C 770.174 -1.75998 -0.853474 0
M  V30 8624 O 771.38 -2.37804 -1.31003 0
M  V30 8625 C 769.836 -3.44303 1.04801 0
M  V30 8626 C 769.444 -3.69123 2.53875 0
M  V30 8627 C 771.188 -4.17375 0.774497 0
M  V30 8628 C 769.095 -5.14843 2.91016 0
M  V30 8629 H 768.025 -0.719319 0.226045 0
M  V30 8630 H 770.676 -1.41701 1.16589 0
M  V30 8631 H 769.058 -3.93715 0.42479 0
M  V30 8632 H 770.232 -3.30339 3.21267 0
M  V30 8633 H 768.547 -3.09323 2.78762 0
M  V30 8634 H 771.144 -5.24723 1.02808 0
M  V30 8635 H 771.487 -4.15294 -0.289192 0
M  V30 8636 H 772.02 -3.7389 1.35835 0
M  V30 8637 H 768.759 -5.2204 3.96427 0
M  V30 8638 H 768.279 -5.54652 2.28302 0
M  V30 8639 H 769.958 -5.83017 2.80535 0
M  V30 8640 N 770.09 -0.729906 -1.39679 0
M  V30 8641 C 771.038 -0.0756589 -2.32477 0
M  V30 8642 C 772.032 0.731438 -1.52795 0
M  V30 8643 O 773.238 0.633195 -1.68495 0
M  V30 8644 H 769.613 -0.00566492 -0.751979 0
M  V30 8645 H 771.584 -0.874797 -2.85289 0
M  V30 8646 C 770.333 0.821313 -3.37861 0
M  V30 8647 H 769.656 0.209666 -3.9925 0
M  V30 8648 H 771.096 1.24679 -4.05254 0
M  V30 8649 C 769.555 1.9533 -2.74495 0
M  V30 8650 O 770.085 3.04548 -2.61942 0
M  V30 8651 N 768.291 1.74119 -2.3266 0
M  V30 8652 H 767.838 0.852908 -2.4307 0
M  V30 8653 H 767.796 2.50036 -1.90603 0
M  V30 8654 N 771.568 1.50203 -0.477153 0
M  V30 8655 C 772.515 2.28656 0.31386 0
M  V30 8656 C 773.485 1.33977 0.981802 0
M  V30 8657 O 774.67 1.62919 0.993072 0
M  V30 8658 C 771.81 3.16027 1.38639 0
M  V30 8659 C 770.923 4.25743 0.732615 0
M  V30 8660 C 770.058 5.00363 1.78355 0
M  V30 8661 C 769.097 6.01945 1.11035 0
M  V30 8662 N 768.234 6.6982 2.10441 0
M  V30 8663 H 773.074 2.958 -0.361445 0
M  V30 8664 H 770.611 1.45867 -0.190093 0
M  V30 8665 H 772.569 3.6504 2.01994 0
M  V30 8666 H 771.199 2.50917 2.03077 0
M  V30 8667 H 770.251 3.80398 -0.0136546 0
M  V30 8668 H 771.563 4.98393 0.201513 0
M  V30 8669 H 770.717 5.53124 2.49276 0
M  V30 8670 H 769.456 4.27432 2.34847 0
M  V30 8671 H 768.461 5.48438 0.386797 0
M  V30 8672 H 769.686 6.76851 0.552248 0
M  V30 8673 H 767.632 5.99677 2.65939 0
M  V30 8674 H 767.549 7.38366 1.62332 0
M  V30 8675 H 768.817 7.27196 2.80724 0
M  V30 8676 N 773.046 0.209999 1.56195 0
M  V30 8677 C 774.276 -0.429373 2.02089 0
M  V30 8678 C 774.684 -1.54703 1.0892 0
M  V30 8679 O 774.027 -1.83485 0.0889535 0
M  V30 8680 C 774.089 -1.03266 3.44349 0
M  V30 8681 C 773.753 -0.0518873 4.56971 0
M  V30 8682 C 774.75 0.744249 5.14545 0
M  V30 8683 C 772.435 0.0635185 5.0226 0
M  V30 8684 C 774.429 1.64261 6.15871 0
M  V30 8685 C 772.116 0.965423 6.03426 0
M  V30 8686 C 773.114 1.75352 6.60106 0
M  V30 8687 O 772.802 2.64029 7.59305 0
M  V30 8688 H 772.534 -0.110604 0.66689 0
M  V30 8689 H 775.088 0.320436 2.02885 0
M  V30 8690 H 773.318 -1.83134 3.40586 0
M  V30 8691 H 775.007 -1.57823 3.73961 0
M  V30 8692 H 775.773 0.665476 4.80413 0
M  V30 8693 H 771.652 -0.539762 4.57829 0
M  V30 8694 H 775.196 2.25819 6.60039 0
M  V30 8695 H 771.093 1.04526 6.36981 0
M  V30 8696 H 771.861 2.57974 7.76783 0
M  V30 8697 N 774.524 -1.57472 -0.0634922 0
M  V30 8698 C 775.801 -1.78736 -0.794538 0
M  V30 8699 C 776.181 -0.799645 -1.95369 0
M  V30 8700 O 775.529 0.165521 -2.279 0
M  V30 8701 C 775.739 -3.25471 -1.25975 0
M  V30 8702 C 777.087 -3.89528 -1.68976 0
M  V30 8703 O 778.111 -3.29412 -1.35521 0
M  V30 8704 O 776.97 -4.95305 -2.30944 0
M  V30 8705 H 774.064 -0.733813 -0.381376 0
M  V30 8706 H 776.61 -1.69646 -0.0429258 0
M  V30 8707 H 775.382 -3.88922 -0.430721 0
M  V30 8708 H 775.005 -3.39317 -2.07243 0
M  V30 8709 N 776.003 0.335068 -1.53997 0
M  V30 8710 C 777.228 1.09859 -1.75914 0
M  V30 8711 C 777.653 1.81308 -0.500915 0
M  V30 8712 O 777.011 1.72854 0.54693 0
M  V30 8713 C 777.059 2.08122 -2.94478 0
M  V30 8714 O 776.163 3.15805 -2.65219 0
M  V30 8715 H 775.504 0.317313 -0.583274 0
M  V30 8716 H 778.034 0.382872 -2.00986 0
M  V30 8717 H 778.044 2.51195 -3.21504 0
M  V30 8718 H 776.719 1.55517 -3.8573 0
M  V30 8719 H 775.296 2.77489 -2.49107 0
M  V30 8720 N 777.481 1.45874 0.596531 0
M  V30 8721 C 778.728 1.50467 1.35521 0
M  V30 8722 C 779.056 0.150802 1.93915 0
M  V30 8723 O 778.311 -0.851913 1.76184 0
M  V30 8724 C 778.61 2.54034 2.51399 0
M  V30 8725 C 778.276 3.9844 2.11085 0
M  V30 8726 C 776.938 4.37758 1.99804 0
M  V30 8727 C 779.29 4.89209 1.79788 0
M  V30 8728 C 776.618 5.65727 1.55465 0
M  V30 8729 C 778.97 6.17602 1.36931 0
M  V30 8730 C 777.634 6.5584 1.24218 0
M  V30 8731 H 776.904 0.550597 0.495907 0
M  V30 8732 H 779.551 1.79279 0.673145 0
M  V30 8733 H 777.856 2.18832 3.24992 0
M  V30 8734 H 779.553 2.54822 3.09624 0
M  V30 8735 H 776.143 3.67353 2.20794 0
M  V30 8736 H 780.327 4.59562 1.87395 0
M  V30 8737 H 775.583 5.94139 1.44253 0
M  V30 8738 H 779.757 6.87373 1.11764 0
M  V30 8739 H 777.384 7.54897 0.896353 0
M  V30 8740 N 778.959 -0.83999 1.33349 0
M  V30 8741 C 779.889 -1.965 1.26135 0
M  V30 8742 C 780.87 -1.69505 0.142152 0
M  V30 8743 O 782.055 -1.91346 0.331743 0
M  V30 8744 C 779.185 -3.32632 0.99866 0
M  V30 8745 C 778.139 -3.74021 2.08068 0
M  V30 8746 C 777.465 -5.07947 1.67014 0
M  V30 8747 C 778.765 -3.87925 3.49731 0
M  V30 8748 H 780.459 -2.02793 2.20262 0
M  V30 8749 H 778.005 -0.974297 1.06035 0
M  V30 8750 H 779.958 -4.10903 0.934696 0
M  V30 8751 H 778.682 -3.26593 0.0217759 0
M  V30 8752 H 777.341 -2.98012 2.13505 0
M  V30 8753 H 776.989 -4.98378 0.680316 0
M  V30 8754 H 776.689 -5.36611 2.39422 0
M  V30 8755 H 778.213 -5.88695 1.62082 0
M  V30 8756 H 779.627 -4.5651 3.46802 0
M  V30 8757 H 778.024 -4.28023 4.20614 0
M  V30 8758 H 779.094 -2.90407 3.88319 0
M  V30 8759 N 780.437 -1.16799 -1.0581 0
M  V30 8760 C 781.367 -0.902241 -2.15364 0
M  V30 8761 C 782.348 0.153351 -1.69407 0
M  V30 8762 O 783.533 0.00442032 -1.94199 0
M  V30 8763 C 780.663 -0.407911 -3.44896 0
M  V30 8764 C 779.617 -1.40197 -4.04387 0
M  V30 8765 C 778.943 -0.765848 -5.29187 0
M  V30 8766 C 780.243 -2.77316 -4.42598 0
M  V30 8767 H 781.937 -1.81841 -2.37853 0
M  V30 8768 H 779.483 -0.875731 -1.14311 0
M  V30 8769 H 781.436 -0.20945 -4.20879 0
M  V30 8770 H 780.16 0.54378 -3.22041 0
M  V30 8771 H 778.819 -1.58707 -3.30466 0
M  V30 8772 H 778.467 0.192482 -5.02632 0
M  V30 8773 H 778.167 -1.42939 -5.69949 0
M  V30 8774 H 779.691 -0.577519 -6.07863 0
M  V30 8775 H 781.105 -2.62561 -5.09642 0
M  V30 8776 H 779.502 -3.4019 -4.94359 0
M  V30 8777 H 780.572 -3.32199 -3.53231 0
M  V30 8778 N 781.915 1.24427 -0.967243 0
M  V30 8779 C 783.192 1.87831 -0.545776 0
M  V30 8780 C 783.572 1.87126 0.977099 0
M  V30 8781 O 782.92 1.34357 1.84826 0
M  V30 8782 C 783.13 3.29967 -1.13679 0
M  V30 8783 C 784.478 4.06654 -1.22139 0
M  V30 8784 O 785.502 3.39136 -1.08926 0
M  V30 8785 O 784.361 5.27455 -1.43017 0
M  V30 8786 H 781.455 0.806745 -0.181912 0
M  V30 8787 H 784.001 1.32403 -1.06148 0
M  V30 8788 H 782.773 3.24977 -2.17958 0
M  V30 8789 H 782.396 3.92969 -0.605093 0
M  V30 8790 N 783.393 0.737304 1.3929 0
M  V30 8791 C 784.623 0.296143 2.04467 0
M  V30 8792 C 785.031 -1.0748 1.55707 0
M  V30 8793 O 784.374 -1.69082 0.718123 0
M  V30 8794 C 784.436 0.222161 3.58813 0
M  V30 8795 C 784.1 1.53195 4.30558 0
M  V30 8796 C 785.097 2.47809 4.57041 0
M  V30 8797 C 782.782 1.79688 4.6906 0
M  V30 8798 C 784.776 3.67147 5.21039 0
M  V30 8799 C 782.463 2.99304 5.32785 0
M  V30 8800 C 783.461 3.92855 5.58708 0
M  V30 8801 O 783.149 5.1037 6.2111 0
M  V30 8802 H 782.881 0.126896 0.663983 0
M  V30 8803 H 785.435 1.00242 1.79278 0
M  V30 8804 H 783.665 -0.540239 3.82908 0
M  V30 8805 H 785.354 -0.187311 4.05468 0
M  V30 8806 H 786.12 2.28611 4.2774 0
M  V30 8807 H 781.999 1.07716 4.48239 0
M  V30 8808 H 785.543 4.40183 5.41188 0
M  V30 8809 H 781.44 3.18401 5.61508 0
M  V30 8810 H 782.208 5.10735 6.39603 0
M  V30 8811 N 784.871 -1.49948 0.485112 0
M  V30 8812 C 786.096 -2.073 -0.0645059 0
M  V30 8813 C 786.521 -1.345 -1.31497 0
M  V30 8814 O 785.879 -0.39687 -1.76903 0
M  V30 8815 C 785.927 -3.59201 -0.317304 0
M  V30 8816 O 785.031 -3.88085 -1.39514 0
M  V30 8817 H 784.372 -0.663723 0.0191822 0
M  V30 8818 H 786.902 -1.92963 0.680179 0
M  V30 8819 H 786.912 -4.04227 -0.553604 0
M  V30 8820 H 785.587 -4.11602 0.596387 0
M  V30 8821 H 784.164 -3.54885 -1.14504 0
M  V30 8822 N 786.349 -0.21828 -1.56081 0
M  V30 8823 C 787.574 0.422302 -2.03055 0
M  V30 8824 C 787.999 1.5279 -1.09713 0
M  V30 8825 O 787.357 1.81102 -0.0847187 0
M  V30 8826 C 787.405 0.934177 -3.48289 0
M  V30 8827 O 786.509 2.04574 -3.58083 0
M  V30 8828 H 785.85 0.0959764 -0.657027 0
M  V30 8829 H 788.38 -0.335958 -2.01823 0
M  V30 8830 H 788.39 1.24484 -3.88546 0
M  V30 8831 H 787.065 0.124963 -4.15712 0
M  V30 8832 H 785.642 1.74196 -3.29712 0
M  V30 8833 N 787.827 1.57504 0.0551401 0
M  V30 8834 C 788.775 2.05884 1.08233 0
M  V30 8835 C 789.769 0.967383 1.39061 0
M  V30 8836 O 790.975 1.15242 1.38273 0
M  V30 8837 H 787.35 0.656673 0.366449 0
M  V30 8838 H 789.321 2.91273 0.648269 0
M  V30 8839 C 788.07 2.53221 2.38273 0
M  V30 8840 H 787.393 3.36809 2.15406 0
M  V30 8841 H 788.833 2.9081 3.08554 0
M  V30 8842 C 787.292 1.42218 3.05411 0
M  V30 8843 O 787.822 0.773638 3.9418 0
M  V30 8844 N 786.028 1.16316 2.66306 0
M  V30 8845 H 785.575 1.69237 1.94207 0
M  V30 8846 H 785.533 0.422534 3.11548 0
M  V30 8847 N 789.305 -0.326896 1.54172 0
M  V30 8848 C 790.533 -1.08486 1.76177 0
M  V30 8849 C 790.948 -1.81815 0.508788 0
M  V30 8850 O 790.305 -1.74924 -0.520362 0
M  V30 8851 C 790.356 -2.08552 2.95276 0
M  V30 8852 O 790.077 -1.38202 4.15731 0
M  V30 8853 C 791.578 -2.96593 3.29466 0
M  V30 8854 H 788.798 -0.322835 0.588233 0
M  V30 8855 H 791.342 -0.374036 2.0105 0
M  V30 8856 H 789.497 -2.75174 2.72687 0
M  V30 8857 H 789.911 -2.05186 4.827 0
M  V30 8858 H 791.385 -3.62708 4.16109 0
M  V30 8859 H 791.862 -3.63511 2.46487 0
M  V30 8860 H 792.468 -2.35537 3.54122 0
M  V30 8861 N 790.784 -1.46188 -0.588786 0
M  V30 8862 C 792.031 -1.51184 -1.34721 0
M  V30 8863 C 792.359 -0.161084 -1.93832 0
M  V30 8864 O 791.614 0.842557 -1.76634 0
M  V30 8865 C 791.913 -2.55364 -2.50048 0
M  V30 8866 C 791.579 -3.99553 -2.08969 0
M  V30 8867 C 790.241 -4.38811 -1.9748 0
M  V30 8868 C 792.593 -4.90156 -1.77191 0
M  V30 8869 C 789.921 -5.66544 -1.52463 0
M  V30 8870 C 792.273 -6.1832 -1.33654 0
M  V30 8871 C 790.937 -6.5649 -1.20738 0
M  V30 8872 H 790.207 -0.55322 -0.49298 0
M  V30 8873 H 792.854 -1.79634 -0.663627 0
M  V30 8874 H 791.159 -2.20552 -3.23827 0
M  V30 8875 H 792.856 -2.5646 -3.08268 0
M  V30 8876 H 789.446 -3.68518 -2.18843 0
M  V30 8877 H 793.63 -4.60549 -1.84955 0
M  V30 8878 H 788.886 -5.94895 -1.411 0
M  V30 8879 H 793.06 -6.87956 -1.08117 0
M  V30 8880 H 790.687 -7.55362 -0.856307 0
M  V30 8881 N 792.262 0.832906 -1.33792 0
M  V30 8882 C 793.487 1.62568 -1.28788 0
M  V30 8883 C 793.912 1.87599 0.137246 0
M  V30 8884 O 793.27 1.44436 1.0958 0
M  V30 8885 C 793.318 2.9495 -2.07453 0
M  V30 8886 O 792.422 3.86546 -1.43722 0
M  V30 8887 H 791.763 0.494809 -0.442787 0
M  V30 8888 H 794.293 1.03578 -1.76445 0
M  V30 8889 H 794.303 3.44599 -2.1844 0
M  V30 8890 H 792.978 2.76055 -3.11073 0
M  V30 8891 H 791.555 3.45044 -1.41417 0
M  V30 8892 N 793.74 1.17359 1.05189 0
M  V30 8893 C 794.965 0.98709 1.82404 0
M  V30 8894 C 795.39 -0.459848 1.82392 0
M  V30 8895 O 794.748 -1.32924 1.23292 0
M  V30 8896 C 794.796 1.53276 3.26403 0
M  V30 8897 O 793.9 0.746541 4.05587 0
M  V30 8898 H 793.241 0.35047 0.563974 0
M  V30 8899 H 795.771 1.55856 1.32552 0
M  V30 8900 H 795.781 1.55504 3.77203 0
M  V30 8901 H 794.456 2.58603 3.25726 0
M  V30 8902 H 793.033 0.795671 3.64312 0
M  V30 8903 N 795.218 -1.23913 0.973828 0
M  V30 8904 C 796.467 -1.91455 0.63464 0
M  V30 8905 C 796.78 -1.76893 -0.834759 0
M  V30 8906 O 797.986 -2.3918 -1.28473 0
M  V30 8907 C 796.442 -3.43172 1.08447 0
M  V30 8908 C 796.05 -3.66409 2.57776 0
M  V30 8909 C 797.794 -4.1653 0.818721 0
M  V30 8910 C 795.701 -5.11728 2.9646 0
M  V30 8911 H 794.631 -0.716881 0.233661 0
M  V30 8912 H 797.282 -1.40457 1.18085 0
M  V30 8913 H 795.664 -3.93242 0.466524 0
M  V30 8914 H 796.838 -3.26913 3.24753 0
M  V30 8915 H 795.153 -3.06349 2.82027 0
M  V30 8916 H 797.75 -5.23603 1.08367 0
M  V30 8917 H 798.093 -4.15578 -0.245128 0
M  V30 8918 H 798.626 -3.72428 1.39793 0
M  V30 8919 H 795.365 -5.17806 4.01941 0
M  V30 8920 H 794.885 -5.52199 2.34172 0
M  V30 8921 H 796.564 -5.80009 2.86703 0
M  V30 8922 N 796.696 -0.74468 -1.38897 0
M  V30 8923 C 797.644 -0.100312 -2.32384 0
M  V30 8924 C 798.638 0.715191 -1.53562 0
M  V30 8925 O 799.844 0.615288 -1.69157 0
M  V30 8926 H 796.219 -0.0136403 -0.751876 0
M  V30 8927 H 798.19 -0.905007 -2.84345 0
M  V30 8928 C 796.939 0.785432 -3.38713 0
M  V30 8929 H 796.262 0.167308 -3.9945 0
M  V30 8930 H 797.702 1.20374 -4.06554 0
M  V30 8931 C 796.161 1.92408 -2.76552 0
M  V30 8932 O 796.691 3.01752 -2.65157 0
M  V30 8933 N 794.897 1.71642 -2.34494 0
M  V30 8934 H 794.444 0.827079 -2.43961 0
M  V30 8935 H 794.402 2.48 -1.93244 0
M  V30 8936 N 798.174 1.49689 -0.493057 0
M  V30 8937 C 799.084 2.32746 0.294358 0
M  V30 8938 C 800.1 1.44117 0.975003 0
M  V30 8939 O 801.276 1.77149 0.958138 0
M  V30 8940 C 798.341 3.19358 1.34949 0
M  V30 8941 C 797.402 4.2383 0.683122 0
M  V30 8942 C 796.635 5.06303 1.68798 0
M  V30 8943 O 796.858 4.90172 2.91698 0
M  V30 8944 O 795.792 5.88826 1.24768 0
M  V30 8945 H 799.618 3.01247 -0.385254 0
M  V30 8946 H 797.203 1.47216 -0.254519 0
M  V30 8947 H 799.085 3.73037 1.96014 0
M  V30 8948 H 797.76 2.53561 2.01217 0
M  V30 8949 H 796.667 3.74086 0.0329351 0
M  V30 8950 H 798 4.9216 0.0630192 0
M  V30 8951 N 799.652 0.226554 1.55963 0
M  V30 8952 C 800.901 -0.40417 1.97609 0
M  V30 8953 C 801.214 -1.60541 1.1174 0
M  V30 8954 O 802.42 -2.30598 1.43307 0
M  V30 8955 C 800.876 -0.770466 3.51556 0
M  V30 8956 C 800.484 0.408244 4.46136 0
M  V30 8957 C 802.228 -1.36651 4.01904 0
M  V30 8958 C 800.135 0.0192347 5.91397 0
M  V30 8959 H 799.065 -0.15478 0.737943 0
M  V30 8960 H 801.716 0.323558 1.80625 0
M  V30 8961 H 800.098 -1.55575 3.6416 0
M  V30 8962 H 801.272 1.18575 4.45283 0
M  V30 8963 H 799.587 0.917859 4.06158 0
M  V30 8964 H 802.184 -1.67055 5.07934 0
M  V30 8965 H 802.527 -2.28403 3.48049 0
M  V30 8966 H 803.06 -0.644556 3.92543 0
M  V30 8967 H 799.799 0.90336 6.49245 0
M  V30 8968 H 799.319 -0.722485 5.95433 0
M  V30 8969 H 800.998 -0.405711 6.45727 0
M  V30 8970 N 801.13 -1.57531 -0.0467866 0
M  V30 8971 C 802.077 -2.05387 -1.05285 0
M  V30 8972 C 803.047 -0.939385 -1.36985 0
M  V30 8973 O 804.232 -1.20877 -1.47626 0
M  V30 8974 C 801.372 -2.52343 -2.35408 0
M  V30 8975 C 800.485 -3.77512 -2.10022 0
M  V30 8976 C 799.62 -4.1315 -3.33887 0
M  V30 8977 C 798.659 -5.31286 -3.03976 0
M  V30 8978 N 797.796 -5.62441 -4.20243 0
M  V30 8979 H 802.636 -2.91095 -0.637788 0
M  V30 8980 H 800.173 -1.43939 -0.303322 0
M  V30 8981 H 802.131 -2.77628 -3.11413 0
M  V30 8982 H 800.761 -1.69577 -2.7467 0
M  V30 8983 H 799.813 -3.59417 -1.24594 0
M  V30 8984 H 801.125 -4.63644 -1.83945 0
M  V30 8985 H 800.279 -4.39469 -4.18273 0
M  V30 8986 H 799.018 -3.25634 -3.63062 0
M  V30 8987 H 798.023 -5.04738 -2.17991 0
M  V30 8988 H 799.248 -6.20441 -2.76098 0
M  V30 8989 H 797.194 -4.77885 -4.49402 0
M  V30 8990 H 797.111 -6.43046 -3.97528 0
M  V30 8991 H 798.379 -5.93327 -5.05553 0
M  V30 8992 N 802.608 0.318715 -1.54344 0
M  V30 8993 C 803.556 1.41254 -1.84798 0
M  V30 8994 C 804.55 1.53325 -0.720256 0
M  V30 8995 O 805.756 1.55653 -0.903992 0
M  V30 8996 H 802.131 0.471468 -0.585851 0
M  V30 8997 H 804.102 1.12795 -2.7626 0
M  V30 8998 C 802.851 2.77395 -2.09637 0
M  V30 8999 H 802.174 2.68881 -2.95876 0
M  V30 9000 H 803.614 3.52987 -2.34896 0
M  V30 9001 C 802.073 3.24948 -0.889398 0
M  V30 9002 O 802.603 4.01573 -0.101063 0
M  V30 9003 N 800.809 2.82051 -0.699684 0
M  V30 9004 H 800.356 2.19858 -1.3424 0
M  V30 9005 H 800.314 3.1422 0.106368 0
M  V30 9006 N 804.086 1.46499 0.581025 0
M  V30 9007 C 805.016 1.60052 1.70017 0
M  V30 9008 C 805.997 0.450788 1.64018 0
M  V30 9009 O 807.182 0.677237 1.82009 0
M  V30 9010 C 804.312 1.5921 3.08658 0
M  V30 9011 C 803.266 2.73169 3.29488 0
M  V30 9012 C 802.592 2.57389 4.68674 0
M  V30 9013 C 803.892 4.14978 3.1716 0
M  V30 9014 H 805.586 2.53735 1.5893 0
M  V30 9015 H 803.132 1.22113 0.763173 0
M  V30 9016 H 805.085 1.67285 3.86773 0
M  V30 9017 H 803.809 0.620718 3.20647 0
M  V30 9018 H 802.468 2.64566 2.53773 0
M  V30 9019 H 802.116 1.58331 4.77431 0
M  V30 9020 H 801.816 3.33826 4.83564 0
M  V30 9021 H 803.34 2.67358 5.48956 0
M  V30 9022 H 804.754 4.24684 3.85119 0
M  V30 9023 H 803.151 4.92016 3.4357 0
M  V30 9024 H 804.221 4.35016 2.14218 0
M  V30 9025 N 805.565 -0.825799 1.34232 0
M  V30 9026 C 806.79 -1.61883 1.29648 0
M  V30 9027 C 807.215 -1.87669 -0.127295 0
M  V30 9028 O 806.573 -1.45016 -1.08813 0
M  V30 9029 C 806.621 -2.93846 2.09014 0
M  V30 9030 O 805.725 -3.85778 1.4577 0
M  V30 9031 H 805.066 -0.492454 0.445405 0
M  V30 9032 H 807.596 -1.02641 1.76992 0
M  V30 9033 H 807.606 -3.43435 2.20264 0
M  V30 9034 H 806.281 -2.74401 3.12533 0
M  V30 9035 H 804.858 -3.4429 1.43245 0
M  V30 9036 N 807.043 -1.17915 -1.04565 0
M  V30 9037 C 807.991 -0.897919 -2.1457 0
M  V30 9038 C 808.985 0.139883 -1.68821 0
M  V30 9039 O 810.191 -0.00779463 -1.79998 0
M  V30 9040 H 806.566 -0.272867 -0.700748 0
M  V30 9041 H 808.537 -1.83268 -2.3549 0
M  V30 9042 C 807.286 -0.434634 -3.44973 0
M  V30 9043 H 806.609 -1.22469 -3.8058 0
M  V30 9044 H 808.049 -0.276804 -4.23095 0
M  V30 9045 C 806.508 0.848738 -3.26034 0
M  V30 9046 O 807.038 1.9141 -3.53164 0
M  V30 9047 N 805.244 0.799373 -2.79389 0
M  V30 9048 H 804.791 -0.0678192 -2.57511 0
M  V30 9049 H 804.749 1.6585 -2.67098 0
M  V30 9050 N 808.521 1.23394 -0.980386 0
M  V30 9051 C 809.751 1.9556 -0.666319 0
M  V30 9052 C 810.159 1.72786 0.770815 0
M  V30 9053 O 809.502 1.0162 1.53033 0
M  V30 9054 C 809.564 3.48643 -0.876825 0
M  V30 9055 C 809.228 3.95135 -2.29602 0
M  V30 9056 C 810.225 4.03806 -3.2747 0
M  V30 9057 C 807.91 4.28122 -2.62711 0
M  V30 9058 C 809.904 4.44818 -4.56526 0
M  V30 9059 C 807.591 4.68814 -3.9199 0
M  V30 9060 C 808.589 4.77129 -4.88709 0
M  V30 9061 O 808.277 5.16908 -6.15679 0
M  V30 9062 H 808.009 0.629422 -0.246585 0
M  V30 9063 H 810.563 1.57839 -1.31438 0
M  V30 9064 H 808.793 3.86319 -0.171587 0
M  V30 9065 H 810.482 4.0202 -0.55992 0
M  V30 9066 H 811.248 3.78526 -3.03222 0
M  V30 9067 H 807.127 4.20861 -1.8814 0
M  V30 9068 H 810.671 4.51223 -5.32018 0
M  V30 9069 H 806.568 4.93545 -4.16033 0
M  V30 9070 H 807.336 5.3502 -6.19432 0
M  V30 9071 N 809.999 0.752036 1.385 0
M  V30 9072 C 811.224 0.316993 2.04963 0
M  V30 9073 C 811.649 -1.04582 1.56346 0
M  V30 9074 O 811.007 -1.66616 0.714755 0
M  V30 9075 C 811.055 0.347235 3.58924 0
M  V30 9076 O 810.159 -0.659296 4.07096 0
M  V30 9077 H 809.5 0.140652 0.648932 0
M  V30 9078 H 812.03 1.02272 1.77205 0
M  V30 9079 H 812.04 0.19757 4.07521 0
M  V30 9080 H 810.715 1.34157 3.93668 0
M  V30 9081 H 809.292 -0.474371 3.6987 0
M  V30 9082 N 811.477 -1.49425 0.500989 0
M  V30 9083 C 812.409 -2.27037 -0.314159 0
M  V30 9084 C 813.422 -1.33578 -0.930626 0
M  V30 9085 O 814.611 -1.58861 -0.813968 0
M  V30 9086 C 811.711 -3.05968 -1.45729 0
M  V30 9087 C 810.884 -4.27 -0.948135 0
M  V30 9088 C 809.943 -4.87977 -1.96888 0
M  V30 9089 O 808.969 -5.48044 -1.53743 0
M  V30 9090 N 810.171 -4.77627 -3.29928 0
M  V30 9091 H 812.936 -2.97634 0.351336 0
M  V30 9092 H 810.497 -1.58427 0.333536 0
M  V30 9093 H 812.489 -3.43634 -2.1377 0
M  V30 9094 H 811.059 -2.37978 -2.02695 0
M  V30 9095 H 810.279 -3.94091 -0.0926311 0
M  V30 9096 H 811.567 -5.0541 -0.586362 0
M  V30 9097 H 810.965 -4.29926 -3.67669 0
M  V30 9098 H 809.522 -5.19478 -3.93682 0
M  V30 9099 N 812.955 -0.234822 -1.55841 0
M  V30 9100 C 813.903 0.686145 -2.22249 0
M  V30 9101 C 814.897 1.18948 -1.20614 0
M  V30 9102 O 816.103 1.14777 -1.38659 0
M  V30 9103 H 812.478 0.239724 -0.712767 0
M  V30 9104 H 814.449 0.102762 -2.98223 0
M  V30 9105 C 813.198 1.8776 -2.92646 0
M  V30 9106 H 812.521 1.49943 -3.70617 0
M  V30 9107 H 813.961 2.4995 -3.42493 0
M  V30 9108 C 812.42 2.74127 -1.95847 0
M  V30 9109 O 812.95 3.7329 -1.48384 0
M  V30 9110 N 811.156 2.4044 -1.63209 0
M  V30 9111 H 810.703 1.59854 -2.02001 0
M  V30 9112 H 810.661 2.98504 -0.987063 0
M  V30 9113 N 814.433 1.57553 0.0384317 0
M  V30 9114 C 815.38 2.05942 1.04194 0
M  V30 9115 C 816.35 0.946637 1.36484 0
M  V30 9116 O 817.535 1.21658 1.46983 0
M  V30 9117 C 814.675 2.53588 2.34066 0
M  V30 9118 C 813.788 3.7862 2.08017 0
M  V30 9119 C 812.923 4.14915 3.31692 0
M  V30 9120 C 811.962 5.32891 3.01155 0
M  V30 9121 N 811.099 5.64662 4.17254 0
M  V30 9122 H 815.939 2.91429 0.622341 0
M  V30 9123 H 813.476 1.44098 0.295684 0
M  V30 9124 H 815.434 2.79276 3.09937 0
M  V30 9125 H 814.064 1.71031 2.73767 0
M  V30 9126 H 813.116 3.60073 1.22686 0
M  V30 9127 H 814.428 4.64613 1.81484 0
M  V30 9128 H 813.582 4.41681 4.15936 0
M  V30 9129 H 812.321 3.27555 3.6133 0
M  V30 9130 H 811.326 5.05887 2.15311 0
M  V30 9131 H 812.551 6.21896 2.72804 0
M  V30 9132 H 810.497 4.80261 4.46861 0
M  V30 9133 H 810.414 6.45145 3.94112 0
M  V30 9134 H 811.682 5.96 5.02399 0
M  V30 9135 N 815.911 -0.310526 1.54511 0
M  V30 9136 C 817.188 -1.06593 1.64004 0
M  V30 9137 C 817.568 -2.05519 0.482216 0
M  V30 9138 O 816.916 -2.22455 -0.52212 0
M  V30 9139 C 817.126 -1.75627 3.01589 0
M  V30 9140 C 818.474 -2.28173 3.58081 0
M  V30 9141 O 819.498 -1.85674 3.03979 0
M  V30 9142 O 818.357 -3.06015 4.52788 0
M  V30 9143 H 815.451 -0.492109 0.664649 0
M  V30 9144 H 817.997 -0.309374 1.66856 0
M  V30 9145 H 816.769 -1.03743 3.77297 0
M  V30 9146 H 816.392 -2.58061 3.02473 0
M  V30 9147 N 817.389 -1.46805 -0.573248 0
M  V30 9148 C 818.666 -1.43082 -1.33368 0
M  V30 9149 C 819.046 -0.119252 -2.10763 0
M  V30 9150 O 818.394 0.899239 -2.10062 0
M  V30 9151 C 818.604 -2.66643 -2.25172 0
M  V30 9152 C 819.952 -3.13188 -2.86702 0
M  V30 9153 O 820.976 -2.67258 -2.35482 0
M  V30 9154 O 819.835 -3.92994 -3.79761 0
M  V30 9155 H 816.929 -0.569451 -0.599712 0
M  V30 9156 H 819.475 -1.58984 -0.59348 0
M  V30 9157 H 818.247 -3.53649 -1.67475 0
M  V30 9158 H 817.87 -2.53247 -3.06516 0
M  V30 9159 N 818.867 0.818669 -1.34668 0
M  V30 9160 C 819.797 1.94468 -1.29245 0
M  V30 9161 C 820.778 1.69257 -0.169101 0
M  V30 9162 O 821.963 1.90794 -0.362143 0
M  V30 9163 C 819.093 3.31001 -1.05145 0
M  V30 9164 C 818.047 3.70663 -2.13992 0
M  V30 9165 C 817.373 5.05226 -1.75074 0
M  V30 9166 C 818.673 3.82312 -3.55858 0
M  V30 9167 H 820.367 1.99263 -2.2346 0
M  V30 9168 H 817.913 0.957304 -1.07572 0
M  V30 9169 H 819.866 4.09364 -0.999949 0
M  V30 9170 H 818.59 3.26517 -0.0737312 0
M  V30 9171 H 817.249 2.94578 -2.18219 0
M  V30 9172 H 816.897 4.97233 -0.759518 0
M  V30 9173 H 816.597 5.32734 -2.47928 0
M  V30 9174 H 818.121 5.86042 -1.71427 0
M  V30 9175 H 819.535 4.50935 -3.5402 0
M  V30 9176 H 817.932 4.21278 -4.2737 0
M  V30 9177 H 819.002 2.84193 -3.9289 0
M  V30 9178 N 820.346 1.18468 1.03938 0
M  V30 9179 C 821.571 1.00638 1.81347 0
M  V30 9180 C 821.996 -0.440477 1.8287 0
M  V30 9181 O 821.354 -1.31609 1.24695 0
M  V30 9182 C 821.402 1.5673 3.24759 0
M  V30 9183 O 820.506 0.789517 4.04772 0
M  V30 9184 H 819.847 0.356432 0.560225 0
M  V30 9185 H 822.377 1.57253 1.30891 0
M  V30 9186 H 822.387 1.59496 3.75533 0
M  V30 9187 H 821.062 2.62043 3.22965 0
M  V30 9188 H 819.639 0.834267 3.63448 0
M  V30 9189 N 821.824 -1.22873 0.986916 0
M  V30 9190 C 823.071 -1.91462 0.659424 0
M  V30 9191 C 823.399 -1.76931 -0.807825 0
M  V30 9192 O 822.654 -1.12829 -1.59901 0
M  V30 9193 C 822.953 -3.43014 1.00379 0
M  V30 9194 C 822.619 -3.77731 2.46232 0
M  V30 9195 C 821.281 -3.86918 2.86091 0
M  V30 9196 C 823.633 -3.94343 3.40798 0
M  V30 9197 C 820.961 -4.10149 4.19518 0
M  V30 9198 C 823.313 -4.19076 4.73875 0
M  V30 9199 C 821.977 -4.26486 5.13484 0
M  V30 9200 H 821.247 -0.700611 0.2413 0
M  V30 9201 H 823.894 -1.45763 1.24199 0
M  V30 9202 H 822.199 -3.90329 0.339226 0
M  V30 9203 H 823.896 -3.94327 0.728518 0
M  V30 9204 H 820.486 -3.71159 2.14334 0
M  V30 9205 H 824.67 -3.86629 3.11178 0
M  V30 9206 H 819.926 -4.1411 4.49803 0
M  V30 9207 H 824.1 -4.30873 5.47102 0
M  V30 9208 H 821.727 -4.4424 6.16891 0
M  V30 9209 N 823.302 -0.75937 -1.38099 0
M  V30 9210 C 824.232 -0.151077 -2.33011 0
M  V30 9211 C 825.213 0.697099 -1.5516 0
M  V30 9212 O 826.398 0.637101 -1.83452 0
M  V30 9213 C 823.528 0.738423 -3.39359 0
M  V30 9214 C 822.482 -0.0074741 -4.27999 0
M  V30 9215 C 821.808 1.00066 -5.25253 0
M  V30 9216 C 823.108 -1.17926 -5.08813 0
M  V30 9217 H 824.802 -0.943933 -2.84131 0
M  V30 9218 H 822.348 -0.455362 -1.36611 0
M  V30 9219 H 824.301 1.17369 -4.04725 0
M  V30 9220 H 823.025 1.56366 -2.86735 0
M  V30 9221 H 821.684 -0.423379 -3.64147 0
M  V30 9222 H 821.332 1.82012 -4.68914 0
M  V30 9223 H 821.032 0.506199 -5.85416 0
M  V30 9224 H 822.556 1.43512 -5.93495 0
M  V30 9225 H 823.97 -0.821262 -5.67387 0
M  V30 9226 H 822.367 -1.60497 -5.78239 0
M  V30 9227 H 823.437 -1.98938 -4.42212 0
M  V30 9228 N 824.78 1.49157 -0.508906 0
M  V30 9229 C 825.73 2.26215 0.284705 0
M  V30 9230 C 826.714 1.31401 0.928586 0
M  V30 9231 O 827.906 1.56073 0.834877 0
M  V30 9232 C 825.035 3.15906 1.34382 0
M  V30 9233 C 824.121 4.18186 0.705785 0
M  V30 9234 N 824.512 5.05419 -0.196214 0
M  V30 9235 C 822.81 4.35425 0.965457 0
M  V30 9236 C 823.511 5.78977 -0.562222 0
M  V30 9237 N 822.487 5.43553 0.0717389 0
M  V30 9238 H 826.289 2.91033 -0.409543 0
M  V30 9239 H 823.803 1.59104 -0.325508 0
M  V30 9240 H 825.8 3.6975 1.92589 0
M  V30 9241 H 824.46 2.52642 2.03966 0
M  V30 9242 H 825.471 5.14781 -0.567526 0
M  V30 9243 H 822.148 3.83363 1.65346 0
M  V30 9244 H 823.538 6.59192 -1.30062 0
M  V30 9245 N 826.258 0.243083 1.55714 0
M  V30 9246 C 827.206 -0.674349 2.2261 0
M  V30 9247 C 828.2 -1.18307 1.21243 0
M  V30 9248 O 829.406 -1.1404 1.39265 0
M  V30 9249 H 825.781 -0.235941 0.714028 0
M  V30 9250 H 827.752 -0.0869446 2.98273 0
M  V30 9251 C 826.501 -1.86206 2.93637 0
M  V30 9252 H 825.824 -1.47975 3.71407 0
M  V30 9253 H 827.264 -2.4813 3.43813 0
M  V30 9254 C 825.723 -2.73084 1.97298 0
M  V30 9255 O 826.253 -3.72497 1.50361 0
M  V30 9256 N 824.459 -2.39571 1.64482 0
M  V30 9257 H 824.006 -1.5878 2.02846 0
M  V30 9258 H 823.964 -2.97976 1.00288 0
M  V30 9259 N 827.736 -1.57571 -0.0300757 0
M  V30 9260 C 828.985 -1.88407 -0.720126 0
M  V30 9261 C 829.298 -0.841466 -1.76575 0
M  V30 9262 O 830.504 -1.03902 -2.50832 0
M  V30 9263 C 828.96 -3.34348 -1.33188 0
M  V30 9264 C 828.568 -4.46837 -0.32266 0
M  V30 9265 C 830.312 -3.74333 -2.00187 0
M  V30 9266 C 828.219 -5.83838 -0.942703 0
M  V30 9267 H 827.149 -0.702952 -0.272718 0
M  V30 9268 H 829.8 -1.83482 0.0255337 0
M  V30 9269 H 828.182 -3.34014 -2.12721 0
M  V30 9270 H 829.356 -4.58638 0.445887 0
M  V30 9271 H 827.671 -4.15678 0.245181 0
M  V30 9272 H 830.268 -4.74008 -2.47428 0
M  V30 9273 H 830.611 -3.06275 -2.81959 0
M  V30 9274 H 831.144 -3.76837 -1.2743 0
M  V30 9275 H 827.883 -6.55294 -0.164413 0
M  V30 9276 H 827.403 -5.75759 -1.68111 0
M  V30 9277 H 829.082 -6.30535 -1.45034 0
M  V30 9278 N 829.214 0.302327 -1.54673 0
M  V30 9279 C 830.444 1.05516 -1.77623 0
M  V30 9280 C 830.852 1.81474 -0.535159 0
M  V30 9281 O 830.195 1.76635 0.504543 0
M  V30 9282 C 830.257 2.08305 -2.93001 0
M  V30 9283 C 829.921 1.51554 -4.31139 0
M  V30 9284 C 830.918 0.946261 -5.11216 0
M  V30 9285 C 828.603 1.55157 -4.77736 0
M  V30 9286 C 830.597 0.420559 -6.36011 0
M  V30 9287 C 828.284 1.022 -6.02494 0
M  V30 9288 C 829.282 0.457461 -6.81466 0
M  V30 9289 O 828.97 -0.064083 -8.03874 0
M  V30 9290 H 828.702 0.318756 -0.59613 0
M  V30 9291 H 831.256 0.347558 -2.02438 0
M  V30 9292 H 829.486 2.82742 -2.63807 0
M  V30 9293 H 831.175 2.69479 -3.03539 0
M  V30 9294 H 831.941 0.911338 -4.76361 0
M  V30 9295 H 827.82 1.98037 -4.16296 0
M  V30 9296 H 831.364 -0.0207298 -6.97597 0
M  V30 9297 H 827.261 1.05406 -6.36836 0
M  V30 9298 H 828.029 0.0493422 -8.18485 0
M  V30 9299 N 830.692 1.47107 0.565454 0
M  V30 9300 C 831.639 1.58974 1.6732 0
M  V30 9301 C 832.609 0.433146 1.60353 0
M  V30 9302 O 833.794 0.652141 1.79309 0
M  V30 9303 C 830.934 1.60224 3.05651 0
M  V30 9304 C 830.047 2.86741 3.23116 0
M  V30 9305 C 829.182 2.79381 4.51796 0
M  V30 9306 C 828.221 4.0076 4.62664 0
M  V30 9307 N 827.358 3.91685 5.8269 0
M  V30 9308 H 832.198 2.53588 1.56515 0
M  V30 9309 H 829.735 1.25791 0.762558 0
M  V30 9310 H 831.693 1.58933 3.85741 0
M  V30 9311 H 830.323 0.691285 3.15311 0
M  V30 9312 H 829.375 2.97936 2.36513 0
M  V30 9313 H 830.687 3.7665 3.27011 0
M  V30 9314 H 829.841 2.76293 5.40136 0
M  V30 9315 H 828.58 1.87142 4.50366 0
M  V30 9316 H 827.585 4.04162 3.72738 0
M  V30 9317 H 828.81 4.94117 4.6586 0
M  V30 9318 H 826.756 3.02243 5.82224 0
M  V30 9319 H 826.673 4.75264 5.87929 0
M  V30 9320 H 827.941 3.92599 6.73414 0
M  V30 9321 N 832.17 -0.811516 1.35101 0
M  V30 9322 C 833.447 -1.55491 1.18667 0
M  V30 9323 C 833.827 -2.09775 -0.236189 0
M  V30 9324 O 833.175 -1.91989 -1.23905 0
M  V30 9325 C 833.385 -2.66732 2.25067 0
M  V30 9326 C 834.733 -3.35201 2.60625 0
M  V30 9327 O 835.757 -2.76998 2.23943 0
M  V30 9328 O 834.616 -4.40334 3.23679 0
M  V30 9329 H 831.71 -0.686783 0.460716 0
M  V30 9330 H 834.256 -0.851903 1.46768 0
M  V30 9331 H 833.028 -2.24457 3.20523 0
M  V30 9332 H 832.651 -3.44673 1.98208 0
M  V30 9333 N 833.648 -1.19017 -1.03309 0
M  V30 9334 C 834.897 -0.984542 -1.76039 0
M  V30 9335 C 835.21 0.485937 -1.89468 0
M  V30 9336 O 836.416 0.810278 -2.59127 0
M  V30 9337 C 834.872 -1.71261 -3.1654 0
M  V30 9338 C 834.48 -3.22291 -3.11179 0
M  V30 9339 C 836.224 -1.59007 -3.93595 0
M  V30 9340 C 834.131 -3.87704 -4.46587 0
M  V30 9341 H 833.061 -0.364749 -0.659905 0
M  V30 9342 H 835.712 -1.4247 -1.15649 0
M  V30 9343 H 834.094 -1.20025 -3.77373 0
M  V30 9344 H 835.268 -3.80611 -2.59753 0
M  V30 9345 H 833.583 -3.34772 -2.47622 0
M  V30 9346 H 836.18 -2.05232 -4.93745 0
M  V30 9347 H 836.523 -0.543534 -4.12736 0
M  V30 9348 H 837.056 -2.07564 -3.39355 0
M  V30 9349 H 833.795 -4.92437 -4.3265 0
M  V30 9350 H 833.315 -3.34172 -4.98085 0
M  V30 9351 H 834.994 -3.91008 -5.15482 0
M  V30 9352 N 835.127 1.22348 -0.993418 0
M  V30 9353 C 836.037 2.27987 -0.553076 0
M  V30 9354 C 837.053 1.69378 0.398386 0
M  V30 9355 O 838.229 1.99648 0.26509 0
M  V30 9356 C 835.294 3.46475 0.124809 0
M  V30 9357 C 834.355 4.20399 -0.869682 0
M  V30 9358 C 833.588 5.33229 -0.224052 0
M  V30 9359 O 833.811 5.61885 0.981915 0
M  V30 9360 O 832.745 5.94685 -0.929174 0
M  V30 9361 H 836.571 2.67822 -1.43195 0
M  V30 9362 H 834.156 1.28525 -0.761694 0
M  V30 9363 H 836.038 4.18369 0.504496 0
M  V30 9364 H 834.713 3.08565 0.978243 0
M  V30 9365 H 833.62 3.50774 -1.30031 0
M  V30 9366 H 834.953 4.62191 -1.69233 0
M  V30 9367 N 836.605 0.766683 1.37694 0
M  V30 9368 C 837.854 0.325425 1.99057 0
M  V30 9369 C 838.167 -1.10275 1.61551 0
M  V30 9370 O 839.373 -1.64513 2.1598 0
M  V30 9371 C 837.829 0.530886 3.55963 0
M  V30 9372 C 837.437 1.96899 4.02411 0
M  V30 9373 C 839.181 0.152997 4.24224 0
M  V30 9374 C 837.088 2.12232 5.52007 0
M  V30 9375 H 836.018 0.117929 0.744721 0
M  V30 9376 H 838.669 0.945091 1.5729 0
M  V30 9377 H 837.051 -0.158162 3.95684 0
M  V30 9378 H 838.225 2.69258 3.73948 0
M  V30 9379 H 836.54 2.303 3.46916 0
M  V30 9380 H 839.137 0.24614 5.34133 0
M  V30 9381 H 839.48 -0.896096 4.06541 0
M  V30 9382 H 840.013 0.794398 3.89787 0
M  V30 9383 H 836.752 3.15442 5.7461 0
M  V30 9384 H 836.272 1.4435 5.82171 0
M  V30 9385 H 837.951 1.9185 6.17902 0
M  V30 9386 N 838.083 -1.48885 0.516809 0
M  V30 9387 C 839.013 -2.32241 -0.242157 0
M  V30 9388 C 839.994 -1.41258 -0.947633 0
M  V30 9389 O 841.179 -1.70156 -0.935973 0
M  V30 9390 C 838.309 -3.22151 -1.29754 0
M  V30 9391 C 837.263 -4.22053 -0.710995 0
M  V30 9392 C 836.589 -5.01007 -1.86806 0
M  V30 9393 C 837.889 -5.21388 0.30853 0
M  V30 9394 H 839.583 -2.95943 0.453651 0
M  V30 9395 H 837.129 -1.42316 0.219612 0
M  V30 9396 H 839.082 -3.79284 -1.83634 0
M  V30 9397 H 837.806 -2.56423 -2.02274 0
M  V30 9398 H 836.465 -3.66087 -0.193819 0
M  V30 9399 H 836.113 -4.31713 -2.58133 0
M  V30 9400 H 835.813 -5.68615 -1.48159 0
M  V30 9401 H 837.337 -5.60989 -2.4109 0
M  V30 9402 H 838.751 -5.73122 -0.142703 0
M  V30 9403 H 837.148 -5.96975 0.611673 0
M  V30 9404 H 838.218 -4.69329 1.21894 0
M  V30 9405 N 839.561 -0.251338 -1.55583 0
M  V30 9406 C 840.509 0.662534 -2.22965 0
M  V30 9407 C 841.503 1.17662 -1.21869 0
M  V30 9408 O 842.709 1.133 -1.39868 0
M  V30 9409 H 839.084 0.232151 -0.715269 0
M  V30 9410 H 841.055 0.0711252 -2.98315 0
M  V30 9411 C 839.804 1.84646 -2.94621 0
M  V30 9412 H 839.127 1.46003 -3.72187 0
M  V30 9413 H 840.567 2.46303 -3.45124 0
M  V30 9414 C 839.026 2.72034 -1.98744 0
M  V30 9415 O 839.556 3.71695 -1.52335 0
M  V30 9416 N 837.762 2.38695 -1.6575 0
M  V30 9417 H 837.309 1.57702 -2.03685 0
M  V30 9418 H 837.267 2.9744 -1.01867 0
M  V30 9419 N 841.039 1.57585 0.0217189 0
M  V30 9420 C 842.286 1.89606 0.711045 0
M  V30 9421 C 842.614 0.849535 1.74966 0
M  V30 9422 O 841.869 -0.14856 1.95135 0
M  V30 9423 C 842.168 3.28377 1.41079 0
M  V30 9424 C 841.834 4.48035 0.507454 0
M  V30 9425 C 840.496 4.80504 0.258672 0
M  V30 9426 C 842.848 5.21071 -0.115793 0
M  V30 9427 C 840.176 5.83393 -0.622013 0
M  V30 9428 C 842.528 6.24897 -0.984224 0
M  V30 9429 C 841.192 6.55836 -1.2424 0
M  V30 9430 H 840.462 0.693817 0.26019 0
M  V30 9431 H 843.109 1.91478 -0.0291424 0
M  V30 9432 H 841.414 3.22528 2.22448 0
M  V30 9433 H 843.111 3.50404 1.94982 0
M  V30 9434 H 839.701 4.22653 0.711516 0
M  V30 9435 H 843.885 4.96259 0.0634327 0
M  V30 9436 H 839.141 6.05736 -0.830267 0
M  V30 9437 H 843.315 6.8063 -1.47363 0
M  V30 9438 H 840.942 7.35383 -1.92653 0
M  V30 9439 N 842.517 -0.29412 1.54831 0
M  V30 9440 C 843.449 -1.38476 1.82639 0
M  V30 9441 C 844.462 -1.46517 0.709694 0
M  V30 9442 O 845.651 -1.48712 0.987269 0
M  V30 9443 C 842.751 -2.76791 1.95551 0
M  V30 9444 C 841.924 -2.91599 3.26019 0
M  V30 9445 C 840.983 -4.10456 3.29261 0
M  V30 9446 O 840.009 -4.02214 4.02756 0
M  V30 9447 N 841.211 -5.21422 2.55145 0
M  V30 9448 H 843.976 -1.14974 2.76769 0
M  V30 9449 H 841.537 -0.484206 1.5449 0
M  V30 9450 H 843.529 -3.5456 1.95113 0
M  V30 9451 H 842.099 -2.93209 1.08384 0
M  V30 9452 H 841.319 -2.00886 3.39173 0
M  V30 9453 H 842.607 -2.98409 4.12104 0
M  V30 9454 H 842.005 -5.31 1.95078 0
M  V30 9455 H 840.562 -5.97501 2.60454 0
M  V30 9456 N 843.995 -1.47404 -0.557645 0
M  V30 9457 C 844.942 -1.59859 -1.66475 0
M  V30 9458 C 845.912 -0.441644 -1.60121 0
M  V30 9459 O 847.097 -0.661641 -1.78961 0
M  V30 9460 C 844.237 -1.61843 -3.04797 0
M  V30 9461 C 843.35 -2.8845 -3.2159 0
M  V30 9462 C 842.485 -2.81773 -4.50308 0
M  V30 9463 C 841.524 -4.03208 -4.60532 0
M  V30 9464 N 840.661 -3.94769 -5.80604 0
M  V30 9465 H 845.501 -2.54415 -1.55168 0
M  V30 9466 H 843.038 -1.26194 -0.755876 0
M  V30 9467 H 844.996 -1.60976 -3.84893 0
M  V30 9468 H 843.626 -0.707997 -3.1494 0
M  V30 9469 H 842.678 -2.99186 -2.34929 0
M  V30 9470 H 843.99 -3.78379 -3.25009 0
M  V30 9471 H 843.144 -2.79153 -5.38663 0
M  V30 9472 H 841.883 -1.89527 -4.49367 0
M  V30 9473 H 840.888 -4.06133 -3.70589 0
M  V30 9474 H 842.113 -4.9658 -4.63233 0
M  V30 9475 H 840.059 -3.05326 -5.80613 0
M  V30 9476 H 839.976 -4.78375 -5.854 0
M  V30 9477 H 841.244 -3.96165 -6.71322 0
M  V30 9478 N 845.473 0.80434 -1.35529 0
M  V30 9479 C 846.722 1.55665 -1.28263 0
M  V30 9480 C 847.035 1.95096 0.140352 0
M  V30 9481 O 848.241 2.69422 0.335303 0
M  V30 9482 C 846.697 2.80935 -2.24952 0
M  V30 9483 C 846.305 2.48733 -3.72607 0
M  V30 9484 C 848.049 3.5894 -2.26632 0
M  V30 9485 C 845.956 3.70308 -4.61114 0
M  V30 9486 H 844.886 0.584301 -0.476559 0
M  V30 9487 H 847.537 0.88395 -1.60806 0
M  V30 9488 H 845.919 3.49927 -1.85383 0
M  V30 9489 H 847.093 1.87733 -4.20824 0
M  V30 9490 H 845.408 1.83969 -3.73557 0
M  V30 9491 H 848.005 4.49244 -2.89973 0
M  V30 9492 H 848.348 3.96433 -1.27069 0
M  V30 9493 H 848.881 2.96912 -2.64742 0
M  V30 9494 H 845.62 3.37922 -5.61684 0
M  V30 9495 H 845.14 4.30526 -4.17621 0
M  V30 9496 H 846.819 4.37511 -4.76648 0
M  V30 9497 N 846.951 1.19563 1.02676 0
M  V30 9498 C 848.362 1.00158 1.57561 0
M  V30 9499 C 848.713 -0.444922 1.91089 0
M  V30 9500 O 847.838 -1.32466 1.71119 0
M  V30 9501 C 848.433 1.81181 2.86284 0
M  V30 9502 C 846.992 1.66171 3.37734 0
M  V30 9503 C 846.139 1.7975 2.11152 0
M  V30 9504 H 849.09 1.33904 0.85179 0
M  V30 9505 H 849.111 1.30916 3.57269 0
M  V30 9506 H 848.623 2.86454 2.6185 0
M  V30 9507 H 846.724 0.634927 3.6715 0
M  V30 9508 H 846.837 2.46832 4.10622 0
M  V30 9509 H 845.201 1.22833 2.23123 0
M  V30 9510 H 845.984 2.86487 1.89157 0
M  V30 9511 N 848.429 -1.21819 0.999893 0
M  V30 9512 C 849.376 -2.24003 0.556005 0
M  V30 9513 C 850.346 -1.60825 -0.415287 0
M  V30 9514 O 851.531 -1.88123 -0.318481 0
M  V30 9515 C 848.671 -3.44904 -0.116289 0
M  V30 9516 C 847.784 -4.22573 0.897574 0
M  V30 9517 C 846.919 -5.30831 0.198073 0
M  V30 9518 C 845.958 -6.00225 1.19983 0
M  V30 9519 N 845.095 -7.00111 0.528157 0
M  V30 9520 H 849.935 -2.61334 1.43208 0
M  V30 9521 H 847.472 -1.28431 0.717205 0
M  V30 9522 H 849.43 -4.13908 -0.523055 0
M  V30 9523 H 848.06 -3.08315 -0.956108 0
M  V30 9524 H 847.112 -3.52797 1.42262 0
M  V30 9525 H 848.424 -4.70363 1.66013 0
M  V30 9526 H 847.578 -6.06121 -0.265065 0
M  V30 9527 H 846.317 -4.84033 -0.596924 0
M  V30 9528 H 845.322 -5.23711 1.67353 0
M  V30 9529 H 846.547 -6.4911 1.99582 0
M  V30 9530 H 844.493 -6.55534 -0.247276 0
M  V30 9531 H 844.41 -7.45943 1.22904 0
M  V30 9532 H 845.678 -7.7945 0.0880543 0
M  V30 9533 N 849.908 -0.773975 -1.37286 0
M  V30 9534 C 851.138 -0.350249 -2.03609 0
M  V30 9535 C 851.546 1.03313 -1.58502 0
M  V30 9536 O 850.889 1.67118 -0.7627 0
M  V30 9537 C 850.951 -0.317215 -3.58098 0
M  V30 9538 C 850.615 -1.64556 -4.26345 0
M  V30 9539 C 851.612 -2.59839 -4.50311 0
M  V30 9540 C 849.297 -1.92061 -4.64131 0
M  V30 9541 C 851.291 -3.80833 -5.11122 0
M  V30 9542 C 848.978 -3.13325 -5.24663 0
M  V30 9543 C 849.976 -4.0753 -5.48095 0
M  V30 9544 O 849.664 -5.26658 -6.0736 0
M  V30 9545 H 849.396 -0.144456 -0.660385 0
M  V30 9546 H 851.95 -1.0496 -1.76557 0
M  V30 9547 H 850.18 0.438528 -3.84205 0
M  V30 9548 H 851.869 0.0797428 -4.05822 0
M  V30 9549 H 852.635 -2.39872 -4.21529 0
M  V30 9550 H 848.514 -1.19562 -4.45226 0
M  V30 9551 H 852.058 -4.54377 -5.29327 0
M  V30 9552 H 847.955 -3.33177 -5.52869 0
M  V30 9553 H 848.723 -5.27513 -6.25837 0
M  V30 9554 N 851.386 1.48609 -0.524698 0
M  V30 9555 C 852.626 2.04398 0.00938367 0
M  V30 9556 C 852.99 1.39355 1.32077 0
M  V30 9557 O 854.191 1.86 1.94055 0
M  V30 9558 C 852.462 3.57148 0.134318 0
M  V30 9559 S 854.021 4.34409 0.619227 0
M  V30 9560 H 850.839 0.710936 -0.00953362 0
M  V30 9561 H 853.441 1.82382 -0.704058 0
M  V30 9562 H 852.145 4.02022 -0.825027 0
M  V30 9563 H 851.676 3.83607 0.872296 0
M  V30 9564 H 853.691 4.59017 1.88462 0
M  V30 9565 N 852.864 0.259585 1.55447 0
M  V30 9566 C 853.794 -0.62852 2.24882 0
M  V30 9567 C 854.775 -1.17128 1.23349 0
M  V30 9568 O 855.96 -1.20829 1.52033 0
M  V30 9569 C 853.09 -1.81983 2.95803 0
M  V30 9570 C 852.044 -1.40929 4.04132 0
M  V30 9571 C 851.37 -2.68246 4.62545 0
M  V30 9572 C 852.67 -0.570956 5.1917 0
M  V30 9573 H 854.364 -0.0495021 2.99359 0
M  V30 9574 H 851.91 -0.0223688 1.43983 0
M  V30 9575 H 853.863 -2.44689 3.43082 0
M  V30 9576 H 852.587 -2.42444 2.18835 0
M  V30 9577 H 851.246 -0.805519 3.57641 0
M  V30 9578 H 850.894 -3.26931 3.82263 0
M  V30 9579 H 850.594 -2.41495 5.35681 0
M  V30 9580 H 852.118 -3.31827 5.12565 0
M  V30 9581 H 853.532 -1.10262 5.62597 0
M  V30 9582 H 851.929 -0.398979 5.98772 0
M  V30 9583 H 852.999 0.413918 4.8313 0
M  V30 9584 N 854.342 -1.57594 -0.0133615 0
M  V30 9585 C 855.753 -1.78168 -0.557937 0
M  V30 9586 C 856.104 -0.892616 -1.74719 0
M  V30 9587 O 855.229 -0.0915491 -2.16206 0
M  V30 9588 C 855.824 -3.23115 -1.01894 0
M  V30 9589 C 854.383 -3.44831 -1.50892 0
M  V30 9590 C 853.53 -2.73558 -0.454044 0
M  V30 9591 H 856.481 -1.57266 0.212843 0
M  V30 9592 H 856.502 -3.30493 -1.8856 0
M  V30 9593 H 856.014 -3.87798 -0.153175 0
M  V30 9594 H 854.115 -2.85345 -2.39602 0
M  V30 9595 H 854.228 -4.53485 -1.54559 0
M  V30 9596 H 852.592 -2.37787 -0.912666 0
M  V30 9597 H 853.375 -3.40932 0.402524 0
M  V30 9598 N 855.82 0.285905 -1.54985 0
M  V30 9599 C 857.067 1.0192 -1.74982 0
M  V30 9600 C 857.395 1.86743 -0.543816 0
M  V30 9601 O 856.65 1.89874 0.473972 0
M  V30 9602 C 856.949 1.94193 -3.0004 0
M  V30 9603 C 856.615 1.25225 -4.33162 0
M  V30 9604 C 855.277 1.06149 -4.69346 0
M  V30 9605 C 857.629 0.760427 -5.15623 0
M  V30 9606 C 854.957 0.365991 -5.85557 0
M  V30 9607 C 857.309 0.0785787 -6.32551 0
M  V30 9608 C 855.973 -0.124002 -6.67385 0
M  V30 9609 H 855.243 0.372951 -0.640304 0
M  V30 9610 H 857.89 0.292652 -1.89251 0
M  V30 9611 H 856.195 2.73426 -2.80616 0
M  V30 9612 H 857.892 2.51029 -3.12707 0
M  V30 9613 H 854.482 1.41081 -4.04715 0
M  V30 9614 H 858.666 0.895466 -4.88155 0
M  V30 9615 H 853.922 0.198193 -6.11079 0
M  V30 9616 H 858.096 -0.310339 -6.95708 0
M  V30 9617 H 855.723 -0.664918 -7.57287 0
M  V30 9618 N 857.298 1.47698 0.54982 0
M  V30 9619 C 858.246 1.61156 1.67724 0
M  V30 9620 C 859.24 0.478606 1.62498 0
M  V30 9621 O 860.446 0.656661 1.67595 0
M  V30 9622 H 856.821 0.507304 0.55511 0
M  V30 9623 H 858.792 2.55884 1.53512 0
M  V30 9624 C 857.541 1.64994 3.06059 0
M  V30 9625 H 856.864 2.51525 3.10765 0
M  V30 9626 H 858.304 1.78459 3.84615 0
M  V30 9627 C 856.763 0.384677 3.34697 0
M  V30 9628 O 857.293 -0.511057 3.98436 0
M  V30 9629 N 855.499 0.262434 2.89413 0
M  V30 9630 H 855.046 0.99229 2.37721 0
M  V30 9631 H 855.004 -0.583177 3.08944 0
M  V30 9632 N 858.776 -0.797141 1.35954 0
M  V30 9633 C 860.025 -1.54983 1.29086 0
M  V30 9634 C 860.338 -1.95167 -0.130003 0
M  V30 9635 O 861.544 -2.69596 -0.32101 0
M  V30 9636 C 860 -2.79738 2.26439 0
M  V30 9637 C 859.608 -2.46753 3.73921 0
M  V30 9638 C 861.352 -3.57733 2.28533 0
M  V30 9639 C 859.259 -3.67858 4.63071 0
M  V30 9640 H 858.189 -0.581766 0.479651 0
M  V30 9641 H 860.84 -0.87541 1.61273 0
M  V30 9642 H 859.222 -3.48939 1.87236 0
M  V30 9643 H 860.396 -1.85499 4.21814 0
M  V30 9644 H 858.711 -1.81985 3.74527 0
M  V30 9645 H 861.308 -4.47699 2.92351 0
M  V30 9646 H 861.651 -3.95754 1.29169 0
M  V30 9647 H 862.184 -2.95504 2.66313 0
M  V30 9648 H 858.923 -3.34939 5.63468 0
M  V30 9649 H 858.443 -4.28305 4.19898 0
M  V30 9650 H 860.122 -4.34977 4.78961 0
M  V30 9651 N 860.254 -1.20106 -1.0204 0
M  V30 9652 C 861.202 -0.943231 -2.12617 0
M  V30 9653 C 862.196 0.104042 -1.6908 0
M  V30 9654 O 863.402 -0.0459732 -1.79941 0
M  V30 9655 H 859.777 -0.28767 -0.694802 0
M  V30 9656 H 861.748 -1.88221 -2.3155 0
M  V30 9657 C 860.497 -0.50771 -3.43973 0
M  V30 9658 H 859.82 -1.30514 -3.77897 0
M  V30 9659 H 861.26 -0.366486 -4.22413 0
M  V30 9660 C 859.719 0.77939 -3.27761 0
M  V30 9661 O 860.249 1.83876 -3.57145 0
M  V30 9662 N 858.455 0.739931 -2.81022 0
M  V30 9663 H 858.002 -0.122426 -2.57309 0
M  V30 9664 H 857.96 1.60147 -2.70556 0
M  V30 9665 N 861.732 1.21287 -1.00634 0
M  V30 9666 C 862.972 1.92106 -0.698194 0
M  V30 9667 C 863.336 1.76437 0.757222 0
M  V30 9668 O 864.537 2.41641 1.17741 0
M  V30 9669 C 862.808 3.39748 -1.10932 0
M  V30 9670 S 864.367 4.29013 -0.921586 0
M  V30 9671 H 861.185 0.663755 -0.254853 0
M  V30 9672 H 863.787 1.46772 -1.29145 0
M  V30 9673 H 862.491 3.48669 -2.16467 0
M  V30 9674 H 862.022 3.90101 -0.508419 0
M  V30 9675 H 864.037 4.95871 0.180578 0
M  V30 9676 N 863.21 0.781244 1.36873 0
M  V30 9677 C 864.14 0.188128 2.32741 0
M  V30 9678 C 865.121 -0.672326 1.56249 0
M  V30 9679 O 866.306 -0.607835 1.84442 0
M  V30 9680 C 863.436 -0.684341 3.40491 0
M  V30 9681 C 862.39 0.0755641 4.27933 0
M  V30 9682 C 861.716 -0.916968 5.26779 0
M  V30 9683 C 863.016 1.26006 5.06873 0
M  V30 9684 H 864.71 0.989016 2.82593 0
M  V30 9685 H 862.256 0.477038 1.35869 0
M  V30 9686 H 864.209 -1.10915 4.06541 0
M  V30 9687 H 862.933 -1.51785 2.89187 0
M  V30 9688 H 861.592 0.481258 3.63427 0
M  V30 9689 H 861.24 -1.74528 4.71751 0
M  V30 9690 H 860.94 -0.413 5.86147 0
M  V30 9691 H 862.464 -1.34052 5.95703 0
M  V30 9692 H 863.878 0.911425 5.66009 0
M  V30 9693 H 862.275 1.69676 5.75613 0
M  V30 9694 H 863.345 2.05948 4.38991 0
M  V30 9695 N 864.689 -1.48329 0.532571 0
M  V30 9696 C 865.936 -2.025 -0.000582356 0
M  V30 9697 C 866.264 -1.40942 -1.34036 0
M  V30 9698 O 865.519 -0.545545 -1.87942 0
M  V30 9699 C 865.818 -3.57 -0.168943 0
M  V30 9700 C 865.484 -4.37357 1.0968 0
M  V30 9701 C 864.146 -4.59033 1.44369 0
M  V30 9702 C 866.498 -4.83882 1.93669 0
M  V30 9703 C 863.826 -5.24481 2.62939 0
M  V30 9704 C 866.178 -5.50637 3.11419 0
M  V30 9705 C 864.842 -5.70551 3.46451 0
M  V30 9706 H 864.112 -0.741 -0.000213099 0
M  V30 9707 H 866.759 -1.78282 0.699117 0
M  V30 9708 H 865.064 -3.80072 -0.951429 0
M  V30 9709 H 866.761 -3.9654 -0.596422 0
M  V30 9710 H 863.351 -4.20748 0.816655 0
M  V30 9711 H 867.535 -4.66936 1.6818 0
M  V30 9712 H 862.791 -5.38096 2.9028 0
M  V30 9713 H 866.965 -5.85655 3.76803 0
M  V30 9714 H 864.592 -6.21037 4.38425 0
M  V30 9715 N 866.167 -0.267825 -1.55308 0
M  V30 9716 C 867.115 0.638848 -2.23655 0
M  V30 9717 C 868.109 1.16363 -1.2311 0
M  V30 9718 O 869.315 1.1181 -1.41062 0
M  V30 9719 H 865.69 0.224551 -0.717691 0
M  V30 9720 H 867.661 0.0394809 -2.98374 0
M  V30 9721 C 866.41 1.8151 -2.96562 0
M  V30 9722 H 865.733 1.42048 -3.73715 0
M  V30 9723 H 867.173 2.42629 -3.47717 0
M  V30 9724 C 865.632 2.69911 -2.01618 0
M  V30 9725 O 866.162 3.70058 -1.56268 0
M  V30 9726 N 864.368 2.36924 -1.68272 0
M  V30 9727 H 863.915 1.55533 -2.05347 0
M  V30 9728 H 863.873 2.96343 -1.05016 0
M  V30 9729 N 867.645 1.57599 0.00500368 0
M  V30 9730 C 868.894 1.89528 0.690061 0
M  V30 9731 C 869.207 0.869451 1.75214 0
M  V30 9732 O 870.413 1.07879 2.49147 0
M  V30 9733 C 868.869 3.36425 1.27852 0
M  V30 9734 C 868.477 4.47293 0.251531 0
M  V30 9735 C 870.221 3.77471 1.94206 0
M  V30 9736 C 868.128 5.85264 0.8497 0
M  V30 9737 H 867.058 0.707201 0.2615 0
M  V30 9738 H 869.709 1.83418 -0.0547209 0
M  V30 9739 H 868.091 3.37356 2.07381 0
M  V30 9740 H 869.265 4.5787 -0.518796 0
M  V30 9741 H 867.58 4.15235 -0.311281 0
M  V30 9742 H 870.177 4.77884 2.39855 0
M  V30 9743 H 870.52 3.10722 2.77051 0
M  V30 9744 H 871.053 3.78817 1.21419 0
M  V30 9745 H 867.792 6.55472 0.0601408 0
M  V30 9746 H 867.312 5.78361 1.5893 0
M  V30 9747 H 868.991 6.32762 1.34984 0
M  V30 9748 N 869.123 -0.277682 1.55134 0
M  V30 9749 C 870.07 -1.34313 1.87693 0
M  V30 9750 C 871.04 -1.49298 0.727973 0
M  V30 9751 O 872.225 -1.6378 0.978807 0
M  V30 9752 C 869.365 -2.69922 2.15026 0
M  V30 9753 C 868.478 -2.63197 3.42565 0
M  V30 9754 C 867.613 -3.90955 3.59622 0
M  V30 9755 C 866.652 -3.78722 4.8087 0
M  V30 9756 N 865.789 -4.98303 4.94609 0
M  V30 9757 H 870.629 -1.05847 2.78569 0
M  V30 9758 H 868.166 -0.511469 1.37922 0
M  V30 9759 H 870.124 -3.48817 2.28872 0
M  V30 9760 H 868.754 -2.966 1.2739 0
M  V30 9761 H 867.806 -1.76038 3.37216 0
M  V30 9762 H 869.118 -2.50056 4.31594 0
M  V30 9763 H 868.272 -4.78291 3.7326 0
M  V30 9764 H 867.011 -4.06957 2.6877 0
M  V30 9765 H 866.016 -2.89769 4.67241 0
M  V30 9766 H 867.241 -3.64242 5.73153 0
M  V30 9767 H 865.187 -5.14725 4.06687 0
M  V30 9768 H 865.104 -4.87675 5.77676 0
M  V30 9769 H 866.372 -5.87225 5.12628 0
M  V30 9770 N 870.601 -1.47988 -0.541979 0
M  V30 9771 C 871.829 -1.59034 -1.32347 0
M  V30 9772 C 872.244 -0.246123 -1.87189 0
M  V30 9773 O 871.601 0.762889 -1.6579 0
M  V30 9774 C 871.652 -2.62759 -2.48274 0
M  V30 9775 O 871.373 -3.91963 -1.95695 0
M  V30 9776 C 872.874 -2.84133 -3.4027 0
M  V30 9777 H 870.094 -0.536574 -0.402901 0
M  V30 9778 H 872.638 -1.93725 -0.655045 0
M  V30 9779 H 870.793 -2.3096 -3.11025 0
M  V30 9780 H 871.207 -4.48769 -2.7149 0
M  V30 9781 H 872.681 -3.60538 -4.17991 0
M  V30 9782 H 873.158 -1.92512 -3.9476 0
M  V30 9783 H 873.764 -3.17188 -2.83322 0
M  V30 9784 N 872.079 0.78992 -1.36375 0
M  V30 9785 C 873.307 1.57873 -1.3373 0
M  V30 9786 C 873.722 1.88624 0.0815544 0
M  V30 9787 O 873.079 1.50085 1.03831 0
M  V30 9788 C 873.13 2.90003 -2.15825 0
M  V30 9789 O 872.851 2.60578 -3.5218 0
M  V30 9790 C 874.352 3.84309 -2.20955 0
M  V30 9791 H 871.572 0.489685 -0.458748 0
M  V30 9792 H 874.116 0.980436 -1.79465 0
M  V30 9793 H 872.271 3.46303 -1.73646 0
M  V30 9794 H 872.685 3.4506 -3.95011 0
M  V30 9795 H 874.159 4.74081 -2.82756 0
M  V30 9796 H 874.636 4.22121 -1.21287 0
M  V30 9797 H 875.242 3.33942 -2.63368 0
M  V30 9798 N 873.557 1.20646 1.01402 0
M  V30 9799 C 874.785 1.04389 1.78635 0
M  V30 9800 C 875.2 -0.406771 1.84366 0
M  V30 9801 O 874.557 -1.28239 1.2985 0
M  V30 9802 C 874.608 1.62378 3.22979 0
M  V30 9803 O 874.329 3.01768 3.17597 0
M  V30 9804 C 875.83 1.5111 4.1675 0
M  V30 9805 H 873.05 0.367077 0.56169 0
M  V30 9806 H 875.594 1.59789 1.27624 0
M  V30 9807 H 873.749 1.11092 3.7113 0
M  V30 9808 H 874.163 3.29331 4.08217 0
M  V30 9809 H 875.637 1.96441 5.15863 0
M  V30 9810 H 876.114 0.464011 4.36742 0
M  V30 9811 H 876.72 2.01599 3.74483 0
M  V30 9812 N 875.035 -1.20752 1.01276 0
M  V30 9813 C 876.446 -1.7175 0.732033 0
M  V30 9814 C 876.797 -1.8131 -0.749733 0
M  V30 9815 O 875.922 -1.47301 -1.58529 0
M  V30 9816 C 876.517 -3.11936 1.32217 0
M  V30 9817 C 875.076 -3.6026 1.09039 0
M  V30 9818 C 874.223 -2.37571 1.43022 0
M  V30 9819 H 877.174 -1.0582 1.1827 0
M  V30 9820 H 877.195 -3.73802 0.710771 0
M  V30 9821 H 876.707 -3.04946 2.40061 0
M  V30 9822 H 874.808 -3.72588 0.0294464 0
M  V30 9823 H 874.921 -4.45295 1.76775 0
M  V30 9824 H 873.285 -2.40128 0.849159 0
M  V30 9825 H 874.068 -2.33225 2.51915 0
M  V30 9826 N 876.513 -0.788492 -1.36457 0
M  V30 9827 C 877.743 -0.371825 -2.03227 0
M  V30 9828 C 878.151 1.01627 -1.59589 0
M  V30 9829 O 877.494 1.663 -0.780382 0
M  V30 9830 C 877.556 -0.355179 -3.57741 0
M  V30 9831 C 877.22 -1.69069 -4.24576 0
M  V30 9832 C 878.217 -2.64601 -4.47529 0
M  V30 9833 C 875.902 -1.96973 -4.62068 0
M  V30 9834 C 877.896 -3.86232 -5.07054 0
M  V30 9835 C 875.583 -3.18872 -5.2131 0
M  V30 9836 C 876.581 -4.1332 -5.43742 0
M  V30 9837 O 876.269 -5.3307 -6.0174 0
M  V30 9838 H 876.001 -0.151452 -0.658816 0
M  V30 9839 H 878.555 -1.06827 -1.75434 0
M  V30 9840 H 876.785 0.397753 -3.84649 0
M  V30 9841 H 878.474 0.0366955 -4.05883 0
M  V30 9842 H 879.24 -2.44329 -4.18961 0
M  V30 9843 H 875.119 -1.24277 -4.43933 0
M  V30 9844 H 878.663 -4.59965 -5.24478 0
M  V30 9845 H 874.56 -3.39022 -5.49304 0
M  V30 9846 H 875.328 -5.34121 -6.20207 0
M  V30 9847 N 877.991 1.48044 -0.54043 0
M  V30 9848 C 878.938 2.29781 0.216597 0
M  V30 9849 C 879.908 1.38021 0.924094 0
M  V30 9850 O 881.093 1.66985 0.923078 0
M  V30 9851 C 878.233 3.21623 1.2511 0
M  V30 9852 C 877.346 4.28467 0.551384 0
M  V30 9853 C 876.481 5.07477 1.56972 0
M  V30 9854 C 875.52 6.06113 0.854048 0
M  V30 9855 N 874.657 6.78143 1.81842 0
M  V30 9856 H 879.497 2.94001 -0.486578 0
M  V30 9857 H 877.034 1.44929 -0.251789 0
M  V30 9858 H 878.992 3.73279 1.8633 0
M  V30 9859 H 877.622 2.59305 1.92252 0
M  V30 9860 H 876.674 3.79997 -0.174982 0
M  V30 9861 H 877.986 4.98799 -0.0100542 0
M  V30 9862 H 877.14 5.63199 2.25592 0
M  V30 9863 H 875.879 4.37008 2.16507 0
M  V30 9864 H 874.884 5.49585 0.153838 0
M  V30 9865 H 876.109 6.78584 0.264675 0
M  V30 9866 H 874.055 6.10417 2.40265 0
M  V30 9867 H 873.972 7.44587 1.3087 0
M  V30 9868 H 875.24 7.38448 2.49628 0
M  V30 9869 N 879.47 0.276058 1.55163 0
M  V30 9870 C 880.4 -0.604633 2.25536 0
M  V30 9871 C 881.381 -1.15813 1.24585 0
M  V30 9872 O 882.566 -1.1921 1.53306 0
M  V30 9873 C 879.696 -1.78836 2.97716 0
M  V30 9874 C 878.65 -1.36635 4.05604 0
M  V30 9875 C 877.976 -2.63325 4.65364 0
M  V30 9876 C 879.276 -0.515858 5.19746 0
M  V30 9877 H 880.97 -0.0177483 2.99395 0
M  V30 9878 H 878.516 -0.00709627 1.43998 0
M  V30 9879 H 880.469 -2.41036 3.45658 0
M  V30 9880 H 879.193 -2.40109 2.21394 0
M  V30 9881 H 877.852 -0.767541 3.58475 0
M  V30 9882 H 877.5 -3.22858 3.85709 0
M  V30 9883 H 877.2 -2.358 5.38212 0
M  V30 9884 H 878.724 -3.26372 5.16056 0
M  V30 9885 H 880.138 -1.04289 5.63735 0
M  V30 9886 H 878.535 -0.335449 5.99162 0
M  V30 9887 H 879.605 0.465137 4.82664 0
M  V30 9888 N 880.948 -1.576 0.00335426 0
M  V30 9889 C 882.178 -1.94713 -0.690682 0
M  V30 9890 C 882.586 -0.876915 -1.67651 0
M  V30 9891 O 881.929 0.152434 -1.83066 0
M  V30 9892 C 881.991 -3.27833 -1.47532 0
M  V30 9893 C 881.655 -4.52344 -0.650704 0
M  V30 9894 C 882.652 -5.19862 0.0630537 0
M  V30 9895 C 880.337 -4.98755 -0.595687 0
M  V30 9896 C 882.331 -6.32093 0.820779 0
M  V30 9897 C 880.018 -6.10875 0.165761 0
M  V30 9898 C 881.016 -6.77401 0.872724 0
M  V30 9899 O 880.704 -7.87372 1.62174 0
M  V30 9900 H 880.436 -0.646627 -0.197104 0
M  V30 9901 H 882.99 -2.05335 0.0516082 0
M  V30 9902 H 881.22 -3.13628 -2.26217 0
M  V30 9903 H 882.909 -3.50034 -2.05501 0
M  V30 9904 H 883.675 -4.84991 0.0297223 0
M  V30 9905 H 879.554 -4.46797 -1.13549 0
M  V30 9906 H 883.098 -6.83953 1.37312 0
M  V30 9907 H 878.995 -6.45187 0.200901 0
M  V30 9908 H 879.763 -8.03905 1.5388 0
M  V30 9909 N 882.426 0.269451 -1.5528 0
M  V30 9910 C 883.374 1.35303 -1.89198 0
M  V30 9911 C 884.368 1.50956 -0.768671 0
M  V30 9912 O 885.574 1.52699 -0.953054 0
M  V30 9913 H 881.949 0.452591 -0.600554 0
M  V30 9914 H 883.92 1.03949 -2.79709 0
M  V30 9915 C 882.669 2.70585 -2.18356 0
M  V30 9916 H 881.992 2.59332 -3.04281 0
M  V30 9917 H 883.432 3.45335 -2.46007 0
M  V30 9918 C 881.891 3.21954 -0.992327 0
M  V30 9919 O 882.421 4.01048 -0.228769 0
M  V30 9920 N 880.627 2.79682 -0.789062 0
M  V30 9921 H 880.174 2.15475 -1.41167 0
M  V30 9922 H 880.132 3.14399 0.00634776 0
M  V30 9923 N 883.904 1.48273 0.534124 0
M  V30 9924 C 885.153 1.55334 1.28663 0
M  V30 9925 C 885.466 0.230345 1.94239 0
M  V30 9926 O 886.672 0.179161 2.70908 0
M  V30 9927 C 885.128 2.73927 2.33435 0
M  V30 9928 C 884.736 4.12852 1.73947 0
M  V30 9929 C 886.48 2.90298 3.09722 0
M  V30 9930 C 884.387 5.22711 2.76636 0
M  V30 9931 H 883.317 0.578262 0.483869 0
M  V30 9932 H 885.968 1.74598 0.564602 0
M  V30 9933 H 884.35 2.48089 3.08655 0
M  V30 9934 H 885.524 4.48691 1.04944 0
M  V30 9935 H 883.839 4.01562 1.10167 0
M  V30 9936 H 886.436 3.69542 3.86449 0
M  V30 9937 H 886.779 1.99598 3.6533 0
M  V30 9938 H 887.312 3.16017 2.41616 0
M  V30 9939 H 884.051 6.15362 2.25852 0
M  V30 9940 H 883.571 4.91364 3.43979 0
M  V30 9941 H 885.25 5.50648 3.39699 0
M  V30 9942 N 885.382 -0.782676 1.36792 0
M  V30 9943 C 886.631 -1.53605 1.30723 0
M  V30 9944 C 886.944 -1.95294 -0.109296 0
M  V30 9945 O 888.15 -2.69921 -0.292398 0
M  V30 9946 C 886.606 -2.77321 2.29393 0
M  V30 9947 C 886.214 -2.42774 3.76517 0
M  V30 9948 C 887.958 -3.55289 2.32314 0
M  V30 9949 C 885.865 -3.62926 4.66947 0
M  V30 9950 H 884.795 -0.576646 0.485794 0
M  V30 9951 H 887.446 -0.858255 1.62192 0
M  V30 9952 H 885.828 -3.46934 1.90927 0
M  V30 9953 H 887.002 -1.81014 4.23758 0
M  V30 9954 H 885.317 -1.78002 3.76436 0
M  V30 9955 H 887.914 -4.44573 2.97083 0
M  V30 9956 H 888.257 -3.94361 1.3336 0
M  V30 9957 H 888.79 -2.92662 2.69432 0
M  V30 9958 H 885.529 -3.28944 5.66989 0
M  V30 9959 H 885.049 -4.23828 4.24418 0
M  V30 9960 H 886.728 -4.29873 4.83548 0
M  V30 9961 N 886.86 -1.21182 -1.00761 0
M  V30 9962 C 887.808 -0.965728 -2.11604 0
M  V30 9963 C 888.802 0.0861028 -1.69181 0
M  V30 9964 O 890.008 -0.0650558 -1.79882 0
M  V30 9965 H 886.383 -0.295023 -0.691712 0
M  V30 9966 H 888.354 -1.90667 -2.2954 0
M  V30 9967 C 887.103 -0.544164 -3.43415 0
M  V30 9968 H 886.426 -1.34515 -3.76491 0
M  V30 9969 H 887.866 -0.411268 -4.22001 0
M  V30 9970 C 886.325 0.744583 -3.28569 0
M  V30 9971 O 886.855 1.80078 -3.59075 0
M  V30 9972 N 885.061 0.710083 -2.81791 0
M  V30 9973 H 884.608 -0.14971 -2.57165 0
M  V30 9974 H 884.566 1.57268 -2.72239 0
M  V30 9975 N 888.338 1.20213 -1.01915 0
M  V30 9976 C 889.754 1.41696 -0.734459 0
M  V30 9977 C 889.954 1.89504 0.684867 0
M  V30 9978 O 889.01 2.06556 1.45227 0
M  V30 9979 C 890.323 2.43644 -1.76233 0
M  V30 9980 C 891.871 2.57406 -1.78076 0
M  V30 9981 C 892.346 3.626 -2.79796 0
M  V30 9982 N 893.837 3.70086 -2.78551 0
M  V30 9983 C 894.572 4.51145 -3.53915 0
M  V30 9984 N 894.068 5.35988 -4.38963 0
M  V30 9985 N 895.861 4.45702 -3.425 0
M  V30 9986 H 888.012 0.874976 -1.93541 0
M  V30 9987 H 890.275 0.446647 -0.836188 0
M  V30 9988 H 889.981 2.15519 -2.77929 0
M  V30 9989 H 889.855 3.42672 -1.57657 0
M  V30 9990 H 892.242 2.8486 -0.770634 0
M  V30 9991 H 892.323 1.58565 -2.00725 0
M  V30 9992 H 891.967 3.35889 -3.80973 0
M  V30 9993 H 891.897 4.61069 -2.54407 0
M  V30 9994 H 894.388 3.09484 -2.1686 0
M  V30 9995 H 894.701 5.94932 -4.9323 0
M  V30 9996 H 893.046 5.35482 -4.4304 0
M  V30 9997 H 896.237 3.78456 -2.75478 0
M  V30 9998 H 896.41 5.08637 -4.01487 0
M  V30 9999 N 889.816 0.795718 1.36037 0
M  V30 10000 C 891.044 0.383153 2.03321 0
M  V30 10001 C 891.459 -1.00246 1.59988 0
M  V30 10002 O 890.816 -1.64406 0.792265 0
M  V30 10003 C 890.867 0.444467 3.58757 0
M  V30 10004 O 890.588 1.77544 4.00512 0
M  V30 10005 C 892.089 0.0233291 4.43294 0
M  V30 10006 H 889.309 0.157061 0.652359 0
M  V30 10007 H 891.853 1.07632 1.73884 0
M  V30 10008 H 890.008 -0.200341 3.86882 0
M  V30 10009 H 890.422 1.73065 4.95125 0
M  V30 10010 H 891.896 0.117361 5.51875 0
M  V30 10011 H 892.373 -1.03007 4.2695 0
M  V30 10012 H 892.979 0.64087 4.20444 0
M  V30 10013 N 891.294 -1.47756 0.548274 0
M  V30 10014 C 892.519 -2.07387 0.023475 0
M  V30 10015 C 892.944 -1.39956 -1.25674 0
M  V30 10016 O 892.302 -0.471543 -1.7506 0
M  V30 10017 C 892.35 -3.60224 -0.164669 0
M  V30 10018 O 891.454 -3.93653 -1.22928 0
M  V30 10019 H 890.795 -0.662312 0.0473156 0
M  V30 10020 H 893.325 -1.89905 0.761409 0
M  V30 10021 H 893.335 -4.06211 -0.38166 0
M  V30 10022 H 892.01 -4.08702 0.770425 0
M  V30 10023 H 890.587 -3.59422 -0.993495 0
M  V30 10024 N 892.772 -0.284283 -1.55015 0
M  V30 10025 C 893.719 0.599194 -2.22886 0
M  V30 10026 C 894.689 1.14264 -1.20553 0
M  V30 10027 O 895.874 1.19025 -1.49123 0
M  V30 10028 C 893.014 1.77317 -2.96062 0
M  V30 10029 C 892.127 1.26271 -4.13134 0
M  V30 10030 C 891.262 2.39922 -4.73931 0
M  V30 10031 C 890.301 1.85925 -5.8318 0
M  V30 10032 N 889.438 2.93084 -6.38002 0
M  V30 10033 H 894.278 0.0137816 -2.97997 0
M  V30 10034 H 891.815 -0.00496503 -1.47099 0
M  V30 10035 H 893.773 2.46339 -3.36709 0
M  V30 10036 H 892.403 2.33047 -2.23358 0
M  V30 10037 H 891.455 0.465296 -3.77544 0
M  V30 10038 H 892.767 0.827284 -4.91892 0
M  V30 10039 H 891.921 3.1692 -5.17346 0
M  V30 10040 H 890.66 2.86784 -3.9447 0
M  V30 10041 H 889.665 1.07409 -5.39206 0
M  V30 10042 H 890.89 1.39987 -6.64515 0
M  V30 10043 H 888.836 3.3931 -5.61431 0
M  V30 10044 H 888.753 2.53986 -7.12058 0
M  V30 10045 H 890.021 3.7003 -6.86075 0
M  V30 10046 N 894.251 1.57596 -0.0117121 0
M  V30 10047 C 895.181 2.12188 0.9746 0
M  V30 10048 C 896.162 1.03379 1.35081 0
M  V30 10049 O 897.347 1.31123 1.4325 0
M  V30 10050 C 894.477 2.63477 2.26268 0
M  V30 10051 C 893.431 3.76917 2.02774 0
M  V30 10052 C 892.757 4.14566 3.37697 0
M  V30 10053 C 894.057 5.03715 1.38089 0
M  V30 10054 H 895.751 2.9485 0.520007 0
M  V30 10055 H 893.297 1.41836 0.248685 0
M  V30 10056 H 895.25 3.00299 2.95633 0
M  V30 10057 H 893.974 1.77953 2.73862 0
M  V30 10058 H 892.633 3.40507 1.35832 0
M  V30 10059 H 892.281 3.26048 3.83016 0
M  V30 10060 H 891.981 4.91 3.22789 0
M  V30 10061 H 893.505 4.53956 4.08358 0
M  V30 10062 H 894.919 5.38233 1.97428 0
M  V30 10063 H 893.316 5.85032 1.33634 0
M  V30 10064 H 894.386 4.83624 0.351575 0
M  V30 10065 N 895.729 -0.261212 1.5542 0
M  V30 10066 C 896.661 -1.34571 1.85535 0
M  V30 10067 C 897.674 -1.44979 0.740612 0
M  V30 10068 O 898.863 -1.46584 1.01859 0
M  V30 10069 C 895.963 -2.7258 2.01378 0
M  V30 10070 C 895.136 -2.84618 3.32131 0
M  V30 10071 C 894.195 -4.03379 3.37893 0
M  V30 10072 O 893.221 -3.93581 4.11197 0
M  V30 10073 N 894.423 -5.15893 2.66148 0
M  V30 10074 H 897.188 -1.09078 2.79145 0
M  V30 10075 H 894.749 -0.451327 1.55482 0
M  V30 10076 H 896.741 -3.50342 2.0259 0
M  V30 10077 H 895.311 -2.90844 1.14579 0
M  V30 10078 H 894.531 -1.93647 3.43358 0
M  V30 10079 H 895.819 -2.896 4.18341 0
M  V30 10080 H 895.217 -5.26743 2.06297 0
M  V30 10081 H 893.774 -5.91842 2.73069 0
M  V30 10082 N 897.207 -1.48554 -0.526253 0
M  V30 10083 C 898.456 -1.56014 -1.27837 0
M  V30 10084 C 898.769 -0.240643 -1.94114 0
M  V30 10085 O 899.975 -0.193525 -2.70809 0
M  V30 10086 C 898.431 -2.75161 -2.31979 0
M  V30 10087 C 898.039 -4.13768 -1.71755 0
M  V30 10088 C 899.783 -2.91936 -3.08178 0
M  V30 10089 C 897.69 -5.24171 -2.7386 0
M  V30 10090 H 896.62 -0.58082 -0.480795 0
M  V30 10091 H 899.271 -1.74895 -0.555335 0
M  V30 10092 H 897.653 -2.49722 -3.07335 0
M  V30 10093 H 898.827 -4.49241 -1.02563 0
M  V30 10094 H 897.142 -4.02141 -1.08036 0
M  V30 10095 H 899.739 -3.71586 -3.84484 0
M  V30 10096 H 900.082 -2.01533 -3.64267 0
M  V30 10097 H 900.615 -3.17294 -2.39937 0
M  V30 10098 H 897.354 -6.16552 -2.22586 0
M  V30 10099 H 896.874 -4.93181 -3.41368 0
M  V30 10100 H 898.553 -5.52442 -3.36774 0
M  V30 10101 N 898.685 0.775411 -1.37205 0
M  V30 10102 C 899.934 1.52909 -1.31536 0
M  V30 10103 C 900.247 1.9535 0.0989374 0
M  V30 10104 O 901.453 2.70072 0.278079 0
M  V30 10105 C 899.909 2.761 -2.30861 0
M  V30 10106 C 899.517 2.40773 -3.77799 0
M  V30 10107 C 901.261 3.54052 -2.34195 0
M  V30 10108 C 899.168 3.60444 -4.68865 0
M  V30 10109 H 898.098 0.574061 -0.488845 0
M  V30 10110 H 900.749 0.849642 -1.62645 0
M  V30 10111 H 899.131 3.45916 -1.92764 0
M  V30 10112 H 900.305 1.78764 -4.24712 0
M  V30 10113 H 898.62 1.76004 -3.77375 0
M  V30 10114 H 901.217 4.42992 -2.99437 0
M  V30 10115 H 901.56 3.93649 -1.35449 0
M  V30 10116 H 902.093 2.91229 -2.7098 0
M  V30 10117 H 898.832 3.25932 -5.68725 0
M  V30 10118 H 898.352 4.21571 -4.26659 0
M  V30 10119 H 900.031 4.27302 -4.85821 0
M  V30 10120 N 900.163 1.21714 1.00117 0
M  V30 10121 C 901.41 1.0367 1.73951 0
M  V30 10122 C 901.738 -0.429289 1.89703 0
M  V30 10123 O 900.993 -1.33475 1.43119 0
M  V30 10124 C 901.292 1.68345 3.15269 0
M  V30 10125 C 900.958 3.18214 3.19454 0
M  V30 10126 C 899.62 3.59109 3.20303 0
M  V30 10127 C 901.972 4.14179 3.16394 0
M  V30 10128 C 899.3 4.94467 3.15783 0
M  V30 10129 C 901.652 5.49502 3.13416 0
M  V30 10130 C 900.316 5.8979 3.12577 0
M  V30 10131 H 899.586 0.379355 0.63653 0
M  V30 10132 H 902.233 1.51361 1.17312 0
M  V30 10133 H 900.538 1.12957 3.75164 0
M  V30 10134 H 902.235 1.51882 3.71124 0
M  V30 10135 H 898.825 2.85646 3.19538 0
M  V30 10136 H 903.009 3.83607 3.14895 0
M  V30 10137 H 898.265 5.24923 3.13473 0
M  V30 10138 H 902.439 6.23595 3.10003 0
M  V30 10139 H 900.066 6.94643 3.08829 0
M  V30 10140 N 901.641 -1.19671 1.02551 0
M  V30 10141 C 902.866 -1.93774 0.739363 0
M  V30 10142 C 903.291 -1.74787 -0.695064 0
M  V30 10143 O 902.649 -1.04796 -1.47944 0
M  V30 10144 C 902.697 -3.43684 1.09149 0
M  V30 10145 O 901.801 -4.11874 0.208213 0
M  V30 10146 H 901.142 -0.605064 0.273484 0
M  V30 10147 H 903.672 -1.51846 1.37128 0
M  V30 10148 H 903.682 -3.94339 1.04695 0
M  V30 10149 H 902.357 -3.56826 2.13654 0
M  V30 10150 H 900.934 -3.716 0.311045 0
M  V30 10151 N 903.119 -0.802921 -1.35613 0
M  V30 10152 C 904.049 -0.225131 -2.32412 0
M  V30 10153 C 905.03 0.647383 -1.57299 0
M  V30 10154 O 906.215 0.578414 -1.85386 0
M  V30 10155 C 903.345 0.630085 -3.41537 0
M  V30 10156 C 902.299 -0.143635 -4.27759 0
M  V30 10157 C 901.625 0.833046 -5.28171 0
M  V30 10158 C 902.925 -1.34054 -5.04804 0
M  V30 10159 H 904.619 -1.03385 -2.80984 0
M  V30 10160 H 902.165 -0.498593 -1.35093 0
M  V30 10161 H 904.118 1.04433 -4.08254 0
M  V30 10162 H 902.842 1.47165 -2.91565 0
M  V30 10163 H 901.501 -0.539015 -3.62616 0
M  V30 10164 H 901.149 1.67001 -4.74468 0
M  V30 10165 H 900.849 0.319697 -5.8673 0
M  V30 10166 H 902.373 1.24558 -5.97761 0
M  V30 10167 H 903.787 -1.00136 -5.64487 0
M  V30 10168 H 902.184 -1.78812 -5.72841 0
M  V30 10169 H 903.254 -2.12906 -4.35659 0
M  V30 10170 N 904.597 1.47463 -0.556102 0
M  V30 10171 C 905.846 2.01678 -0.029492 0
M  V30 10172 C 906.159 1.436 1.32809 0
M  V30 10173 O 907.365 1.89472 1.94455 0
M  V30 10174 C 905.821 3.599 -0.00223937 0
M  V30 10175 C 905.429 4.26969 -1.35651 0
M  V30 10176 C 907.173 4.2187 0.471822 0
M  V30 10177 C 905.08 5.77194 -1.28843 0
M  V30 10178 H 904.01 0.753965 -0.00725504 0
M  V30 10179 H 906.661 1.69467 -0.703789 0
M  V30 10180 H 905.043 3.89068 0.737682 0
M  V30 10181 H 906.217 4.09444 -2.11406 0
M  V30 10182 H 904.532 3.76983 -1.76842 0
M  V30 10183 H 907.129 5.31955 0.541139 0
M  V30 10184 H 907.472 3.88968 1.48356 0
M  V30 10185 H 908.005 3.97228 -0.213207 0
M  V30 10186 H 904.744 6.14713 -2.27613 0
M  V30 10187 H 904.264 5.9706 -0.572668 0
M  V30 10188 H 905.943 6.3938 -0.990031 0
M  V30 10189 N 906.075 0.2925 1.54862 0
M  V30 10190 C 907.321 -0.319736 2.00264 0
M  V30 10191 C 907.654 -1.5419 1.18064 0
M  V30 10192 O 906.929 -1.92821 0.254983 0
M  V30 10193 C 907.212 -0.684753 3.5353 0
M  V30 10194 C 907.065 0.545961 4.46474 0
M  V30 10195 C 908.384 -1.51456 4.13218 0
M  V30 10196 H 905.503 -0.11474 0.728014 0
M  V30 10197 H 908.145 0.402907 1.85679 0
M  V30 10198 H 906.295 -1.30044 3.66089 0
M  V30 10199 H 907.967 1.18448 4.45834 0
M  V30 10200 H 906.21 1.1808 4.1742 0
M  V30 10201 H 906.881 0.246544 5.51449 0
M  V30 10202 H 909.357 -0.994421 4.04043 0
M  V30 10203 H 908.233 -1.73875 5.20633 0
M  V30 10204 H 908.494 -2.5011 3.64551 0
M  V30 10205 N 907.553 -1.57587 0.0200696 0
M  V30 10206 C 908.801 -1.91046 -0.65922 0
M  V30 10207 C 909.122 -0.896197 -1.73186 0
M  V30 10208 O 908.392 0.0635952 -1.95797 0
M  V30 10209 H 906.972 -0.705163 -0.246483 0
M  V30 10210 H 909.634 -1.94789 0.0657368 0
M  V30 10211 H 908.73 -2.91399 -1.11773 0
M  V30 10212 N 909.032 0.252966 -1.55557 0
M  V30 10213 C 910.279 0.981852 -1.77104 0
M  V30 10214 C 910.607 1.85547 -0.583305 0
M  V30 10215 O 909.862 1.90836 0.43359 0
M  V30 10216 C 910.161 1.87785 -3.04091 0
M  V30 10217 C 909.827 1.16009 -4.35721 0
M  V30 10218 C 908.489 0.961697 -4.71492 0
M  V30 10219 C 910.841 0.650884 -5.1712 0
M  V30 10220 C 908.169 0.241704 -5.86202 0
M  V30 10221 C 910.521 -0.0556124 -6.32576 0
M  V30 10222 C 909.185 -0.265536 -6.66972 0
M  V30 10223 H 908.455 0.359285 -0.64807 0
M  V30 10224 H 911.102 0.252443 -1.89829 0
M  V30 10225 H 909.407 2.67412 -2.86353 0
M  V30 10226 H 911.104 2.44339 -3.17961 0
M  V30 10227 H 907.694 1.32465 -4.07616 0
M  V30 10228 H 911.878 0.791719 -4.89944 0
M  V30 10229 H 907.134 0.0685292 -6.11362 0
M  V30 10230 H 911.308 -0.457839 -6.94893 0
M  V30 10231 H 908.935 -0.8254 -7.55706 0
M  V30 10232 N 910.51 1.48831 0.518367 0
M  V30 10233 C 911.443 1.588 1.63884 0
M  V30 10234 C 912.421 0.437847 1.56594 0
M  V30 10235 O 913.605 0.651042 1.769 0
M  V30 10236 C 910.732 1.52681 3.02335 0
M  V30 10237 C 909.778 2.7268 3.27945 0
M  V30 10238 S 910.611 4.34536 3.12951 0
M  V30 10239 C 911.767 4.31034 4.53828 0
M  V30 10240 H 912 2.53587 1.5518 0
M  V30 10241 H 909.533 1.37507 0.702218 0
M  V30 10242 H 911.491 1.49837 3.82177 0
M  V30 10243 H 910.152 0.592107 3.08469 0
M  V30 10244 H 909.345 2.64569 4.28974 0
M  V30 10245 H 908.947 2.72847 2.55794 0
M  V30 10246 H 911.239 4.01683 5.45579 0
M  V30 10247 H 912.182 5.32282 4.66991 0
M  V30 10248 H 912.59 3.61343 4.33695 0
M  V30 10249 N 911.988 -0.768124 1.37614 0
M  V30 10250 C 912.918 -1.89537 1.36374 0
M  V30 10251 C 913.899 -1.68513 0.231803 0
M  V30 10252 O 915.084 -1.89318 0.432705 0
M  V30 10253 C 912.214 -3.26871 1.17358 0
M  V30 10254 C 911.168 -3.62466 2.27602 0
M  V30 10255 C 910.494 -4.9838 1.93705 0
M  V30 10256 C 911.794 -3.68841 3.69802 0
M  V30 10257 H 913.488 -1.90832 2.30702 0
M  V30 10258 H 911.034 -0.91672 1.11051 0
M  V30 10259 H 912.987 -4.05371 1.15119 0
M  V30 10260 H 911.711 -3.26018 0.194865 0
M  V30 10261 H 910.37 -2.86276 2.29002 0
M  V30 10262 H 910.018 -4.94071 0.943539 0
M  V30 10263 H 909.718 -5.23165 2.6753 0
M  V30 10264 H 911.242 -5.79276 1.93059 0
M  V30 10265 H 912.656 -4.37485 3.70513 0
M  V30 10266 H 911.053 -4.05126 4.42711 0
M  V30 10267 H 912.123 -2.69415 4.03167 0
M  V30 10268 N 913.466 -1.22244 -0.994698 0
M  V30 10269 C 914.713 -1.04591 -1.73398 0
M  V30 10270 C 915.041 0.419223 -1.89928 0
M  V30 10271 O 914.296 1.32714 -1.43824 0
M  V30 10272 C 914.595 -1.70014 -3.14372 0
M  V30 10273 C 914.261 -3.19903 -3.17762 0
M  V30 10274 C 912.923 -3.60803 -3.18394 0
M  V30 10275 C 915.275 -4.15851 -3.14194 0
M  V30 10276 C 912.603 -4.96135 -3.13157 0
M  V30 10277 C 914.955 -5.51157 -3.10498 0
M  V30 10278 C 913.619 -5.91439 -3.09445 0
M  V30 10279 H 912.889 -0.382725 -0.63451 0
M  V30 10280 H 915.536 -1.51981 -1.16508 0
M  V30 10281 H 913.841 -1.14945 -3.7456 0
M  V30 10282 H 915.538 -1.53848 -3.70313 0
M  V30 10283 H 912.128 -2.87336 -3.18019 0
M  V30 10284 H 916.312 -3.85272 -3.12857 0
M  V30 10285 H 911.568 -5.26578 -3.10685 0
M  V30 10286 H 915.742 -6.2523 -3.06692 0
M  V30 10287 H 913.369 -6.96271 -3.05141 0
M  V30 10288 N 914.944 1.19125 -1.03184 0
M  V30 10289 C 916.355 1.70564 -0.759264 0
M  V30 10290 C 916.706 1.8248 0.720794 0
M  V30 10291 O 915.831 1.49804 1.56166 0
M  V30 10292 C 916.426 3.09793 -1.37163 0
M  V30 10293 C 914.985 3.5848 -1.14757 0
M  V30 10294 C 914.132 2.35265 -1.46784 0
M  V30 10295 H 917.083 1.03925 -1.19939 0
M  V30 10296 H 917.104 3.72624 -0.77015 0
M  V30 10297 H 916.616 3.01088 -2.44882 0
M  V30 10298 H 914.717 3.72494 -0.0887182 0
M  V30 10299 H 914.83 4.42426 -1.83836 0
M  V30 10300 H 913.194 2.38747 -0.887254 0
M  V30 10301 H 913.977 2.29188 -2.55593 0
M  V30 10302 N 916.422 0.810101 1.35185 0
M  V30 10303 C 917.65 0.404696 2.02903 0
M  V30 10304 C 918.065 -0.985434 1.61042 0
M  V30 10305 O 917.422 -1.63557 0.809658 0
M  V30 10306 C 917.473 0.482493 3.58266 0
M  V30 10307 O 917.194 1.81782 3.98606 0
M  V30 10308 C 918.695 0.070345 4.43244 0
M  V30 10309 H 915.915 0.163972 0.650657 0
M  V30 10310 H 918.459 1.0947 1.72733 0
M  V30 10311 H 916.614 -0.159296 3.87072 0
M  V30 10312 H 917.028 1.78306 4.93262 0
M  V30 10313 H 918.502 0.175888 5.5172 0
M  V30 10314 H 918.979 -0.984724 4.28018 0
M  V30 10315 H 919.585 0.685427 4.1974 0
M  V30 10316 N 917.9 -1.47166 0.563914 0
M  V30 10317 C 919.147 -2.02456 0.042371 0
M  V30 10318 C 919.475 -1.43753 -1.31016 0
M  V30 10319 O 918.73 -0.585287 -1.86743 0
M  V30 10320 C 919.029 -3.57279 -0.0931797 0
M  V30 10321 C 918.695 -4.34932 1.18933 0
M  V30 10322 C 917.357 -4.55867 1.54073 0
M  V30 10323 C 919.709 -4.79665 2.03889 0
M  V30 10324 C 917.037 -5.18785 2.74005 0
M  V30 10325 C 919.389 -5.43907 3.23029 0
M  V30 10326 C 918.053 -5.63074 3.58475 0
M  V30 10327 H 917.323 -0.740838 0.0155047 0
M  V30 10328 H 919.97 -1.76759 0.736776 0
M  V30 10329 H 918.275 -3.82005 -0.870596 0
M  V30 10330 H 919.972 -3.97716 -0.512176 0
M  V30 10331 H 916.562 -4.18921 0.905718 0
M  V30 10332 H 920.746 -4.63264 1.78046 0
M  V30 10333 H 916.002 -5.31818 3.01628 0
M  V30 10334 H 920.176 -5.77531 3.89141 0
M  V30 10335 H 917.803 -6.11598 4.515 0
M  V30 10336 N 919.378 -0.300708 -1.54705 0
M  V30 10337 C 920.325 0.57552 -2.23509 0
M  V30 10338 C 921.295 1.12979 -1.21758 0
M  V30 10339 O 922.48 1.17437 -1.50377 0
M  V30 10340 C 919.62 1.74167 -2.97926 0
M  V30 10341 C 918.733 1.21882 -4.1445 0
M  V30 10342 C 917.868 2.34881 -4.7645 0
M  V30 10343 C 916.907 1.79729 -5.85119 0
M  V30 10344 N 916.044 2.863 -6.41075 0
M  V30 10345 H 920.884 -0.0178257 -2.97995 0
M  V30 10346 H 918.421 -0.0205666 -1.47086 0
M  V30 10347 H 920.379 2.42753 -3.39303 0
M  V30 10348 H 919.009 2.30665 -2.25817 0
M  V30 10349 H 918.061 0.425227 -3.78016 0
M  V30 10350 H 919.373 0.775065 -4.92741 0
M  V30 10351 H 918.527 3.11415 -5.20678 0
M  V30 10352 H 917.266 2.82584 -3.97489 0
M  V30 10353 H 916.271 1.01684 -5.40315 0
M  V30 10354 H 917.496 1.32931 -6.65963 0
M  V30 10355 H 915.442 3.33337 -5.64998 0
M  V30 10356 H 915.359 2.46419 -7.14712 0
M  V30 10357 H 916.627 3.62732 -6.89961 0
M  V30 10358 N 920.856 1.57574 -0.0284266 0
M  V30 10359 C 921.766 2.13637 0.96936 0
M  V30 10360 C 922.782 1.08845 1.35752 0
M  V30 10361 O 923.958 1.40899 1.43908 0
M  V30 10362 C 921.023 2.65179 2.2334 0
M  V30 10363 C 920.084 3.84683 1.90572 0
M  V30 10364 C 919.317 4.33758 3.1095 0
M  V30 10365 O 919.54 3.82009 4.23586 0
M  V30 10366 O 918.474 5.2561 2.93288 0
M  V30 10367 H 922.3 2.99169 0.52267 0
M  V30 10368 H 919.885 1.48159 0.192135 0
M  V30 10369 H 921.767 2.98402 2.97547 0
M  V30 10370 H 920.442 1.82731 2.67191 0
M  V30 10371 H 919.349 3.56386 1.13753 0
M  V30 10372 H 920.682 4.68292 1.51538 0
M  V30 10373 N 922.334 -0.244713 1.55689 0
M  V30 10374 C 923.564 -0.988508 1.81417 0
M  V30 10375 C 923.972 -1.79362 0.602143 0
M  V30 10376 O 923.315 -1.78386 -0.438639 0
M  V30 10377 C 923.377 -1.97287 3.0053 0
M  V30 10378 C 923.041 -1.35448 4.36466 0
M  V30 10379 C 924.038 -0.755874 5.14376 0
M  V30 10380 C 921.723 -1.37319 4.83165 0
M  V30 10381 C 923.717 -0.184218 6.37134 0
M  V30 10382 C 921.404 -0.797681 6.05871 0
M  V30 10383 C 922.402 -0.204224 6.82695 0
M  V30 10384 O 922.09 0.362392 8.03083 0
M  V30 10385 H 921.822 -0.296412 0.607549 0
M  V30 10386 H 924.376 -0.272185 2.03589 0
M  V30 10387 H 922.606 -2.72756 2.74119 0
M  V30 10388 H 924.295 -2.58028 3.13331 0
M  V30 10389 H 925.061 -0.733912 4.79415 0
M  V30 10390 H 920.94 -1.8245 4.23359 0
M  V30 10391 H 924.484 0.279624 6.97039 0
M  V30 10392 H 920.381 -0.816978 6.40309 0
M  V30 10393 H 921.149 0.254467 8.18104 0
M  V30 10394 N 923.813 -1.49104 -0.510467 0
M  V30 10395 C 925.061 -1.578 -1.26268 0
M  V30 10396 C 925.382 -0.262349 -1.93227 0
M  V30 10397 O 924.652 0.717624 -1.82283 0
M  V30 10398 H 923.232 -0.581387 -0.46904 0
M  V30 10399 H 925.894 -1.85678 -0.592423 0
M  V30 10400 H 924.99 -2.36919 -2.03165 0
M  V30 10401 N 925.291 0.760815 -1.38019 0
M  V30 10402 C 926.538 1.51973 -1.3383 0
M  V30 10403 C 926.866 1.9436 0.0738855 0
M  V30 10404 O 926.121 1.65181 1.04946 0
M  V30 10405 C 926.42 2.79024 -2.23339 0
M  V30 10406 C 926.086 2.55636 -3.71431 0
M  V30 10407 C 924.748 2.48966 -4.11788 0
M  V30 10408 C 927.1 2.35018 -4.65205 0
M  V30 10409 C 924.428 2.19684 -5.44018 0
M  V30 10410 C 926.78 2.07258 -5.97685 0
M  V30 10411 C 925.444 1.9904 -6.37134 0
M  V30 10412 H 924.714 0.556108 -0.489719 0
M  V30 10413 H 927.361 0.87545 -1.70318 0
M  V30 10414 H 925.666 3.48065 -1.79883 0
M  V30 10415 H 927.363 3.36951 -2.17405 0
M  V30 10416 H 923.953 2.61695 -3.39432 0
M  V30 10417 H 928.137 2.39154 -4.34878 0
M  V30 10418 H 923.393 2.11825 -5.73533 0
M  V30 10419 H 927.567 1.90307 -6.69893 0
M  V30 10420 H 925.194 1.76115 -7.39519 0
M  V30 10421 N 926.769 1.22769 0.988202 0
M  V30 10422 C 927.699 1.02627 2.09738 0
M  V30 10423 C 928.68 -0.0543211 1.70013 0
M  V30 10424 O 929.865 0.108811 1.93895 0
M  V30 10425 C 926.995 0.608302 3.41931 0
M  V30 10426 C 925.949 1.63536 3.95525 0
M  V30 10427 C 925.275 1.07308 5.23822 0
M  V30 10428 C 926.575 3.02649 4.25677 0
M  V30 10429 H 928.269 1.954 2.26847 0
M  V30 10430 H 925.815 0.940888 1.09011 0
M  V30 10431 H 927.768 0.454478 4.18942 0
M  V30 10432 H 926.492 -0.355095 3.24664 0
M  V30 10433 H 925.151 1.77704 3.20651 0
M  V30 10434 H 924.799 0.100894 5.02899 0
M  V30 10435 H 924.499 1.75925 5.60646 0
M  V30 10436 H 926.023 0.930938 6.03462 0
M  V30 10437 H 927.437 2.91828 4.93467 0
M  V30 10438 H 925.834 3.68434 4.73684 0
M  V30 10439 H 926.904 3.52228 3.33262 0
M  V30 10440 N 928.247 -1.18576 1.03814 0
M  V30 10441 C 929.194 -2.2212 0.626988 0
M  V30 10442 C 930.164 -1.62064 -0.363912 0
M  V30 10443 O 931.349 -1.89041 -0.258469 0
M  V30 10444 C 928.489 -3.45099 -0.00650133 0
M  V30 10445 C 927.602 -4.19503 1.03156 0
M  V30 10446 C 926.737 -5.29932 0.366852 0
M  V30 10447 C 925.776 -5.96104 1.39018 0
M  V30 10448 N 924.913 -6.98076 0.750625 0
M  V30 10449 H 929.753 -2.56646 1.51449 0
M  V30 10450 H 927.29 -1.26084 0.757702 0
M  V30 10451 H 929.248 -4.15363 -0.391108 0
M  V30 10452 H 927.878 -3.11201 -0.857536 0
M  V30 10453 H 926.93 -3.48092 1.53414 0
M  V30 10454 H 928.242 -4.64843 1.80893 0
M  V30 10455 H 927.396 -6.06657 -0.0720979 0
M  V30 10456 H 926.135 -4.85687 -0.442631 0
M  V30 10457 H 925.14 -5.18122 1.8393 0
M  V30 10458 H 926.365 -6.42432 2.20132 0
M  V30 10459 H 924.311 -6.55989 -0.0385981 0
M  V30 10460 H 924.228 -7.41655 1.46574 0
M  V30 10461 H 925.496 -7.78776 0.335986 0
M  V30 10462 N 929.725 -0.817259 -1.34754 0
M  V30 10463 C 930.955 -0.414849 -2.02392 0
M  V30 10464 C 931.363 0.982186 -1.61709 0
M  V30 10465 O 930.706 1.64607 -0.815481 0
M  V30 10466 C 930.768 -0.430981 -3.56907 0
M  V30 10467 C 930.432 -1.78037 -4.20894 0
M  V30 10468 C 931.429 -2.74034 -4.41816 0
M  V30 10469 C 929.114 -2.0673 -4.57786 0
M  V30 10470 C 931.108 -3.96901 -4.98747 0
M  V30 10471 C 928.795 -3.29858 -5.14429 0
M  V30 10472 C 929.793 -4.24761 -5.34853 0
M  V30 10473 O 929.481 -5.45714 -5.90298 0
M  V30 10474 H 929.213 -0.165392 -0.655455 0
M  V30 10475 H 931.767 -1.10524 -1.73129 0
M  V30 10476 H 929.997 0.316074 -3.85406 0
M  V30 10477 H 931.686 -0.0494067 -4.0587 0
M  V30 10478 H 932.452 -2.53161 -4.13684 0
M  V30 10479 H 928.331 -1.33666 -4.41197 0
M  V30 10480 H 931.875 -4.70987 -5.14604 0
M  V30 10481 H 927.772 -3.50597 -5.41989 0
M  V30 10482 H 928.54 -5.47157 -6.08738 0
M  V30 10483 N 931.203 1.46865 -0.571711 0
M  V30 10484 C 932.449 2.0273 -0.0531858 0
M  V30 10485 C 932.782 1.44353 1.29907 0
M  V30 10486 O 932.057 0.604488 1.84868 0
M  V30 10487 C 932.34 3.60092 0.0243831 0
M  V30 10488 C 932.193 4.28874 -1.35599 0
M  V30 10489 C 933.512 4.33994 0.730563 0
M  V30 10490 H 930.631 0.736706 -0.0208018 0
M  V30 10491 H 933.273 1.75132 -0.736794 0
M  V30 10492 H 931.423 3.83736 0.606565 0
M  V30 10493 H 933.095 4.16527 -1.98249 0
M  V30 10494 H 931.338 3.88664 -1.92674 0
M  V30 10495 H 932.009 5.37561 -1.25429 0
M  V30 10496 H 934.485 4.1543 0.236098 0
M  V30 10497 H 933.361 5.43699 0.753836 0
M  V30 10498 H 933.622 4.04257 1.78967 0
M  V30 10499 N 932.681 0.308908 1.54543 0
M  V30 10500 C 933.611 -0.556657 2.26768 0
M  V30 10501 C 934.592 -1.13145 1.27013 0
M  V30 10502 O 935.777 -1.15931 1.558 0
M  V30 10503 C 932.907 -1.72481 3.01443 0
M  V30 10504 C 931.861 -1.28001 4.08411 0
M  V30 10505 C 931.187 -2.53395 4.70845 0
M  V30 10506 C 932.487 -0.405497 5.20724 0
M  V30 10507 H 934.181 0.0457618 2.99365 0
M  V30 10508 H 931.727 0.0234495 1.43981 0
M  V30 10509 H 933.68 -2.3365 3.50693 0
M  V30 10510 H 932.404 -2.35359 2.26437 0
M  V30 10511 H 931.063 -0.69133 3.60022 0
M  V30 10512 H 930.711 -3.14604 3.92471 0
M  V30 10513 H 930.411 -2.2433 5.43093 0
M  V30 10514 H 931.935 -3.15352 5.22863 0
M  V30 10515 H 933.349 -0.923076 5.6582 0
M  V30 10516 H 931.746 -0.208282 5.99738 0
M  V30 10517 H 932.816 0.567412 4.81569 0
M  V30 10518 N 934.159 -1.57557 0.0367827 0
M  V30 10519 C 935.406 -1.92114 -0.640185 0
M  V30 10520 C 935.734 -0.913887 -1.71693 0
M  V30 10521 O 934.989 0.0760343 -1.95552 0
M  V30 10522 C 935.288 -3.33387 -1.28794 0
M  V30 10523 C 934.954 -4.4961 -0.340819 0
M  V30 10524 C 933.616 -4.81133 -0.0801574 0
M  V30 10525 C 935.968 -5.20283 0.309106 0
M  V30 10526 C 933.296 -5.80683 0.838107 0
M  V30 10527 C 935.648 -6.20813 1.21547 0
M  V30 10528 C 934.312 -6.50773 1.48495 0
M  V30 10529 H 933.582 -0.702996 -0.23426 0
M  V30 10530 H 936.229 -1.91238 0.100188 0
M  V30 10531 H 934.534 -3.30561 -2.10324 0
M  V30 10532 H 936.231 -3.57399 -1.81843 0
M  V30 10533 H 932.821 -4.25002 -0.554161 0
M  V30 10534 H 937.005 -4.96153 0.120794 0
M  V30 10535 H 932.261 -6.02238 1.05451 0
M  V30 10536 H 936.435 -6.74692 1.72522 0
M  V30 10537 H 934.062 -7.27727 2.19814 0
M  V30 10538 N 935.637 0.236453 -1.55816 0
M  V30 10539 C 936.6 1.27633 -1.90375 0
M  V30 10540 C 937.6 1.40557 -0.781048 0
M  V30 10541 O 938.79 1.39078 -1.04895 0
M  V30 10542 C 935.922 2.65247 -2.14142 0
M  V30 10543 H 937.115 0.982019 -2.83366 0
M  V30 10544 H 934.668 0.476215 -1.48869 0
M  V30 10545 H 935.403 2.99801 -1.23653 0
M  V30 10546 H 935.188 2.57246 -2.95917 0
M  V30 10547 H 936.678 3.40313 -2.42026 0
M  V30 10548 N 937.115 1.49373 0.502552 0
M  V30 10549 C 938.045 1.68839 1.61294 0
M  V30 10550 C 939.026 0.537096 1.61398 0
M  V30 10551 O 940.211 0.772764 1.78163 0
M  V30 10552 C 937.341 1.75347 2.99784 0
M  V30 10553 C 936.295 2.90251 3.14545 0
M  V30 10554 C 935.621 2.8187 4.54371 0
M  V30 10555 C 936.921 4.31207 2.94717 0
M  V30 10556 H 938.615 2.61803 1.45257 0
M  V30 10557 H 936.161 1.25987 0.697371 0
M  V30 10558 H 938.114 1.87552 3.77362 0
M  V30 10559 H 936.838 0.789814 3.16906 0
M  V30 10560 H 935.497 2.77646 2.39392 0
M  V30 10561 H 935.145 1.83416 4.68367 0
M  V30 10562 H 934.845 3.5899 4.65188 0
M  V30 10563 H 936.369 2.96081 5.34012 0
M  V30 10564 H 937.783 4.44501 3.62065 0
M  V30 10565 H 936.18 5.09536 3.17007 0
M  V30 10566 H 937.25 4.45759 1.90857 0
M  V30 10567 N 938.594 -0.753485 1.38421 0
M  V30 10568 C 939.819 -1.54783 1.38047 0
M  V30 10569 C 940.244 -1.8808 -0.0276371 0
M  V30 10570 O 939.602 -1.5058 -1.00973 0
M  V30 10571 C 939.65 -2.82353 2.24297 0
M  V30 10572 O 938.754 -3.77509 1.66014 0
M  V30 10573 H 938.095 -0.468151 0.470883 0
M  V30 10574 H 940.625 -0.931144 1.82184 0
M  V30 10575 H 940.635 -3.31277 2.38159 0
M  V30 10576 H 939.31 -2.57449 3.26639 0
M  V30 10577 H 937.887 -3.36212 1.61294 0
M  V30 10578 N 940.072 -1.23292 -0.981677 0
M  V30 10579 C 941.318 -1.06582 -1.72535 0
M  V30 10580 C 941.651 0.396538 -1.90108 0
M  V30 10581 O 940.926 1.29363 -1.45243 0
M  V30 10582 C 941.209 -1.7904 -3.12437 0
M  V30 10583 C 941.062 -3.32941 -3.02441 0
M  V30 10584 C 942.381 -1.55185 -4.11832 0
M  V30 10585 H 939.5 -0.388585 -0.626236 0
M  V30 10586 H 942.142 -1.51779 -1.14293 0
M  V30 10587 H 940.292 -1.40619 -3.62158 0
M  V30 10588 H 941.964 -3.80875 -2.60254 0
M  V30 10589 H 940.207 -3.62039 -2.38977 0
M  V30 10590 H 940.878 -3.78827 -4.0149 0
M  V30 10591 H 943.354 -1.88581 -3.70913 0
M  V30 10592 H 942.23 -2.08362 -5.07815 0
M  V30 10593 H 942.491 -0.486925 -4.3941 0
M  V30 10594 N 941.55 1.18024 -1.04442 0
M  V30 10595 C 942.798 1.87727 -0.74854 0
M  V30 10596 C 943.119 1.80975 0.726156 0
M  V30 10597 O 942.389 1.23061 1.52423 0
M  V30 10598 H 940.969 0.694974 -0.273897 0
M  V30 10599 H 943.631 1.43213 -1.32197 0
M  V30 10600 H 942.727 2.93665 -1.05674 0
M  V30 10601 N 943.028 0.824394 1.34319 0
M  V30 10602 C 944.275 0.413167 1.9824 0
M  V30 10603 C 944.603 -1.02412 1.65354 0
M  V30 10604 O 943.858 -1.72831 0.91803 0
M  V30 10605 C 944.157 0.564024 3.52921 0
M  V30 10606 C 943.823 1.96725 4.05722 0
M  V30 10607 C 942.485 2.35111 4.19853 0
M  V30 10608 C 944.837 2.88447 4.34106 0
M  V30 10609 C 942.165 3.64551 4.59695 0
M  V30 10610 C 944.517 4.17353 4.75394 0
M  V30 10611 C 943.181 4.55714 4.8773 0
M  V30 10612 H 942.451 0.151188 0.725412 0
M  V30 10613 H 945.098 1.04863 1.60238 0
M  V30 10614 H 943.403 -0.154816 3.91494 0
M  V30 10615 H 945.1 0.226347 4.00361 0
M  V30 10616 H 941.69 1.65908 3.95187 0
M  V30 10617 H 945.874 2.60034 4.22725 0
M  V30 10618 H 941.13 3.94097 4.67437 0
M  V30 10619 H 945.304 4.88512 4.96315 0
M  V30 10620 H 942.931 5.56064 5.1836 0
M  V30 10621 N 944.506 -1.46559 0.579492 0
M  V30 10622 C 945.731 -2.0729 0.0674595 0
M  V30 10623 C 946.156 -1.4259 -1.22677 0
M  V30 10624 O 945.514 -0.50857 -1.74021 0
M  V30 10625 C 945.562 -3.60492 -0.0882227 0
M  V30 10626 O 944.666 -3.96172 -1.14551 0
M  V30 10627 H 944.007 -0.661159 0.0613536 0
M  V30 10628 H 946.537 -1.88247 0.801519 0
M  V30 10629 H 946.547 -4.06929 -0.295411 0
M  V30 10630 H 945.222 -4.06976 0.856943 0
M  V30 10631 H 943.799 -3.61448 -0.917033 0
M  V30 10632 N 945.984 -0.3171 -1.54377 0
M  V30 10633 C 947.23 0.287836 -2.00747 0
M  V30 10634 C 947.563 1.52292 -1.20502 0
M  V30 10635 O 946.838 1.92391 -0.285626 0
M  V30 10636 C 947.121 0.628423 -3.54574 0
M  V30 10637 C 946.974 -0.616922 -4.45549 0
M  V30 10638 C 948.293 1.44862 -4.15575 0
M  V30 10639 H 945.412 0.103144 -0.729747 0
M  V30 10640 H 948.054 -0.432396 -1.85014 0
M  V30 10641 H 946.204 1.24203 -3.68111 0
M  V30 10642 H 947.876 -1.25526 -4.43893 0
M  V30 10643 H 946.119 -1.24706 -4.15489 0
M  V30 10644 H 946.79 -0.334243 -5.50987 0
M  V30 10645 H 949.266 0.930015 -4.05574 0
M  V30 10646 H 948.142 1.6557 -5.23333 0
M  V30 10647 H 948.403 2.44279 -3.68484 0
M  V30 10648 N 947.462 1.57535 -0.0451378 0
M  V30 10649 C 948.711 1.91628 0.629415 0
M  V30 10650 C 949.024 0.924754 1.72359 0
M  V30 10651 O 950.23 1.15751 2.45589 0
M  V30 10652 C 948.686 3.40322 1.17084 0
M  V30 10653 C 948.294 4.47867 0.109101 0
M  V30 10654 C 950.038 3.83458 1.82099 0
M  V30 10655 C 947.945 5.87671 0.663072 0
M  V30 10656 H 946.875 0.715163 0.238868 0
M  V30 10657 H 949.526 1.83151 -0.113046 0
M  V30 10658 H 947.908 3.43783 1.96543 0
M  V30 10659 H 949.082 4.55988 -0.664201 0
M  V30 10660 H 947.397 4.14034 -0.443227 0
M  V30 10661 H 949.994 4.85273 2.2453 0
M  V30 10662 H 950.337 3.19379 2.67026 0
M  V30 10663 H 950.87 3.82488 1.09305 0
M  V30 10664 H 947.609 6.55332 -0.148423 0
M  V30 10665 H 947.129 5.83124 1.4045 0
M  V30 10666 H 948.808 6.36737 1.14785 0
M  V30 10667 N 948.94 -0.228186 1.55939 0
M  V30 10668 C 950.186 -0.954964 1.78909 0
M  V30 10669 C 950.519 -1.8425 0.613648 0
M  V30 10670 O 949.794 -1.90604 -0.38737 0
M  V30 10671 C 950.077 -1.79957 3.1191 0
M  V30 10672 C 949.93 -0.938968 4.3989 0
M  V30 10673 C 951.249 -2.77859 3.41295 0
M  V30 10674 H 948.368 -0.345745 0.650868 0
M  V30 10675 H 951.01 -0.224244 1.88672 0
M  V30 10676 H 949.16 -2.42256 3.03717 0
M  V30 10677 H 950.832 -0.333225 4.60095 0
M  V30 10678 H 949.075 -0.244096 4.33113 0
M  V30 10679 H 949.746 -1.56416 5.29375 0
M  V30 10680 H 952.222 -2.25695 3.49572 0
M  V30 10681 H 951.098 -3.34062 4.35538 0
M  V30 10682 H 951.359 -3.55266 2.63132 0
M  V30 10683 N 950.418 -1.49637 -0.494624 0
M  V30 10684 C 951.667 -1.58691 -1.24499 0
M  V30 10685 C 951.98 -0.281763 -1.9356 0
M  V30 10686 O 953.186 -0.250925 -2.70338 0
M  V30 10687 C 951.642 -2.8002 -2.26091 0
M  V30 10688 C 951.25 -4.17318 -1.6294 0
M  V30 10689 C 952.994 -2.98407 -3.01916 0
M  V30 10690 C 950.901 -5.29862 -2.62679 0
M  V30 10691 H 949.831 -0.590888 -0.468367 0
M  V30 10692 H 952.482 -1.76034 -0.518112 0
M  V30 10693 H 950.864 -2.56185 -3.01969 0
M  V30 10694 H 952.038 -4.51315 -0.930108 0
M  V30 10695 H 950.353 -4.04342 -0.994819 0
M  V30 10696 H 952.95 -3.79658 -3.76516 0
M  V30 10697 H 953.293 -2.09214 -3.5991 0
M  V30 10698 H 953.826 -3.22312 -2.33152 0
M  V30 10699 H 950.565 -6.21134 -2.09458 0
M  V30 10700 H 950.085 -5.00311 -3.3083 0
M  V30 10701 H 951.764 -5.59461 -3.2498 0
M  V30 10702 N 951.896 0.746133 -1.38819 0
M  V30 10703 C 952.844 1.88137 -1.36774 0
M  V30 10704 C 953.838 1.67508 -0.252495 0
M  V30 10705 O 955.044 1.74985 -0.421935 0
M  V30 10706 H 951.419 0.619116 -0.426849 0
M  V30 10707 H 953.39 1.86978 -2.32555 0
M  V30 10708 C 952.139 3.25703 -1.21708 0
M  V30 10709 H 951.462 3.42168 -2.06788 0
M  V30 10710 H 952.902 4.05361 -1.24332 0
M  V30 10711 C 951.361 3.36816 0.0754257 0
M  V30 10712 O 951.891 3.87742 1.04972 0
M  V30 10713 N 950.097 2.90287 0.134761 0
M  V30 10714 H 949.644 2.49034 -0.658779 0
M  V30 10715 H 949.602 2.98103 0.999109 0
M  V30 10716 N 953.375 1.23811 0.975125 0
M  V30 10717 C 954.624 1.06741 1.71141 0
M  V30 10718 C 954.937 -0.394986 1.9157 0
M  V30 10719 O 956.143 -0.685723 2.62698 0
M  V30 10720 C 954.599 1.86168 3.08009 0
M  V30 10721 C 954.207 3.36771 2.95448 0
M  V30 10722 C 955.951 1.77604 3.85561 0
M  V30 10723 C 953.858 4.0857 4.2758 0
M  V30 10724 H 952.788 0.395819 0.64175 0
M  V30 10725 H 955.439 1.47825 1.0872 0
M  V30 10726 H 953.821 1.37893 3.71216 0
M  V30 10727 H 954.995 3.92571 2.41298 0
M  V30 10728 H 953.31 3.46205 2.31368 0
M  V30 10729 H 955.907 2.28556 4.83391 0
M  V30 10730 H 956.25 0.739837 4.09673 0
M  V30 10731 H 956.783 2.23519 3.29065 0
M  V30 10732 H 953.522 5.12518 4.08663 0
M  V30 10733 H 953.042 3.57556 4.81574 0
M  V30 10734 H 954.721 4.15157 4.9624 0
M  V30 10735 N 954.853 -1.17469 1.05066 0
M  V30 10736 C 955.8 -2.21443 0.650512 0
M  V30 10737 C 956.77 -1.62441 -0.346702 0
M  V30 10738 O 957.955 -1.89305 -0.238404 0
M  V30 10739 C 955.095 -3.45087 0.0301014 0
M  V30 10740 C 954.208 -4.18385 1.07599 0
M  V30 10741 C 953.343 -5.29513 0.423038 0
M  V30 10742 C 952.382 -5.94596 1.45333 0
M  V30 10743 N 951.519 -6.97241 0.824623 0
M  V30 10744 H 956.359 -2.55025 1.54163 0
M  V30 10745 H 953.896 -1.25274 0.771032 0
M  V30 10746 H 955.854 -4.15754 -0.347032 0
M  V30 10747 H 954.484 -3.12093 -0.824481 0
M  V30 10748 H 953.536 -3.46446 1.57097 0
M  V30 10749 H 954.848 -4.62899 1.85813 0
M  V30 10750 H 954.002 -6.067 -0.00774975 0
M  V30 10751 H 952.741 -4.86129 -0.391092 0
M  V30 10752 H 951.746 -5.16142 1.89415 0
M  V30 10753 H 952.971 -6.40061 2.26934 0
M  V30 10754 H 950.917 -6.55993 0.0309804 0
M  V30 10755 H 950.834 -7.40059 1.54432 0
M  V30 10756 H 952.102 -7.78375 0.418567 0
M  V30 10757 N 956.331 -0.831506 -1.3388 0
M  V30 10758 C 957.608 -0.345907 -1.92517 0
M  V30 10759 C 957.988 1.16784 -1.75854 0
M  V30 10760 O 957.336 1.97889 -1.14245 0
M  V30 10761 C 957.546 -0.784692 -3.40064 0
M  V30 10762 C 958.894 -0.78846 -4.17215 0
M  V30 10763 O 959.918 -0.727823 -3.48685 0
M  V30 10764 O 958.777 -0.869481 -5.39539 0
M  V30 10765 H 955.871 -0.0963568 -0.821367 0
M  V30 10766 H 958.417 -0.916868 -1.42799 0
M  V30 10767 H 957.189 -1.82697 -3.46031 0
M  V30 10768 H 956.812 -0.189897 -3.97146 0
M  V30 10769 N 957.809 1.4625 -0.587256 0
M  V30 10770 C 959.056 2.02363 -0.0745746 0
M  V30 10771 C 959.384 1.4582 1.28712 0
M  V30 10772 O 958.639 0.614922 1.85788 0
M  V30 10773 C 958.938 3.57382 0.036328 0
M  V30 10774 C 958.604 4.32985 -1.25837 0
M  V30 10775 C 957.266 4.53358 -1.61306 0
M  V30 10776 C 959.618 4.76361 -2.11494 0
M  V30 10777 C 956.946 5.14361 -2.82223 0
M  V30 10778 C 959.298 5.38699 -3.31641 0
M  V30 10779 C 957.962 5.57299 -3.67388 0
M  V30 10780 H 957.232 0.740497 -0.0272888 0
M  V30 10781 H 959.879 1.75565 -0.764804 0
M  V30 10782 H 958.184 3.83342 0.809712 0
M  V30 10783 H 959.881 3.9848 0.448838 0
M  V30 10784 H 956.471 4.17427 -0.972251 0
M  V30 10785 H 960.655 4.60372 -1.85394 0
M  V30 10786 H 955.911 5.26952 -3.10051 0
M  V30 10787 H 960.085 5.71267 -3.9828 0
M  V30 10788 H 957.712 6.04338 -4.61173 0
M  V30 10789 N 959.287 0.325282 1.54207 0
M  V30 10790 C 960.536 -0.27768 1.99779 0
M  V30 10791 C 960.849 -1.5311 1.21723 0
M  V30 10792 O 962.055 -2.21017 1.57682 0
M  V30 10793 C 960.511 -0.545329 3.55745 0
M  V30 10794 C 960.119 0.691143 4.42637 0
M  V30 10795 C 961.863 -1.10815 4.09781 0
M  V30 10796 C 959.77 0.395302 5.90077 0
M  V30 10797 H 958.7 -0.107536 0.746292 0
M  V30 10798 H 961.351 0.437773 1.78202 0
M  V30 10799 H 959.733 -1.32101 3.73317 0
M  V30 10800 H 960.907 1.46653 4.3684 0
M  V30 10801 H 959.222 1.1743 3.99499 0
M  V30 10802 H 961.819 -1.34414 5.1753 0
M  V30 10803 H 962.162 -2.05806 3.6187 0
M  V30 10804 H 962.695 -0.393608 3.95848 0
M  V30 10805 H 959.434 1.31443 6.42186 0
M  V30 10806 H 958.954 -0.34235 5.98822 0
M  V30 10807 H 960.633 0.00576877 6.47 0
M  V30 10808 N 960.765 -1.57509 0.0534917 0
M  V30 10809 C 961.695 -2.14698 -0.917999 0
M  V30 10810 C 962.676 -1.06924 -1.32292 0
M  V30 10811 O 963.861 -1.34875 -1.39723 0
M  V30 10812 C 960.991 -2.69383 -2.19203 0
M  V30 10813 C 959.945 -3.82161 -1.9271 0
M  V30 10814 C 959.271 -4.23373 -3.26587 0
M  V30 10815 C 960.571 -5.07199 -1.24686 0
M  V30 10816 H 962.265 -2.96125 -0.44165 0
M  V30 10817 H 959.811 -1.42446 -0.210993 0
M  V30 10818 H 961.764 -3.08031 -2.87567 0
M  V30 10819 H 960.488 -1.85151 -2.69048 0
M  V30 10820 H 959.147 -3.43989 -1.26757 0
M  V30 10821 H 958.795 -3.36089 -3.74237 0
M  V30 10822 H 958.495 -4.99385 -3.09658 0
M  V30 10823 H 960.019 -4.64623 -3.96178 0
M  V30 10824 H 961.433 -5.43279 -1.83088 0
M  V30 10825 H 959.83 -5.88369 -1.18076 0
M  V30 10826 H 960.9 -4.84386 -0.223227 0
M  V30 10827 N 962.243 0.219913 -1.56058 0
M  V30 10828 C 963.173 1.27572 -1.9557 0
M  V30 10829 C 964.154 1.48801 -0.824148 0
M  V30 10830 O 965.339 1.60957 -1.08658 0
M  V30 10831 C 962.469 2.62517 -2.27381 0
M  V30 10832 C 961.423 2.55941 -3.43042 0
M  V30 10833 C 960.749 3.94931 -3.60463 0
M  V30 10834 C 962.049 2.10584 -4.77966 0
M  V30 10835 H 963.743 0.947482 -2.84013 0
M  V30 10836 H 961.289 0.454337 -1.36645 0
M  V30 10837 H 963.242 3.36538 -2.53615 0
M  V30 10838 H 961.966 2.97031 -1.35794 0
M  V30 10839 H 960.625 1.84377 -3.1686 0
M  V30 10840 H 960.273 4.26756 -2.66249 0
M  V30 10841 H 959.973 3.91413 -4.38258 0
M  V30 10842 H 961.497 4.70611 -3.89046 0
M  V30 10843 H 962.911 2.74349 -5.03394 0
M  V30 10844 H 961.308 2.18122 -5.59055 0
M  V30 10845 H 962.378 1.05818 -4.73213 0
M  V30 10846 N 963.721 1.49897 0.486681 0
M  V30 10847 C 964.651 1.7054 1.59494 0
M  V30 10848 C 965.632 0.554184 1.60819 0
M  V30 10849 O 966.817 0.791617 1.77333 0
M  V30 10850 C 963.947 1.78517 2.97908 0
M  V30 10851 C 962.901 2.93571 3.11449 0
M  V30 10852 C 962.227 2.86674 4.51356 0
M  V30 10853 C 963.527 4.34308 2.90127 0
M  V30 10854 H 965.221 2.63329 1.42472 0
M  V30 10855 H 962.767 1.2672 0.683969 0
M  V30 10856 H 964.72 1.91544 3.75352 0
M  V30 10857 H 963.444 0.823381 3.16051 0
M  V30 10858 H 962.103 2.80169 2.36433 0
M  V30 10859 H 961.751 1.88373 4.66395 0
M  V30 10860 H 961.451 3.63903 4.61355 0
M  V30 10861 H 962.975 3.01728 5.30841 0
M  V30 10862 H 964.389 4.48317 3.57331 0
M  V30 10863 H 962.786 5.12869 3.11585 0
M  V30 10864 H 963.856 4.47759 1.86119 0
M  V30 10865 N 965.199 -0.738761 1.39212 0
M  V30 10866 C 966.162 -1.83441 1.37412 0
M  V30 10867 C 967.162 -1.58484 0.271908 0
M  V30 10868 O 968.352 -1.65954 0.529609 0
M  V30 10869 C 965.484 -3.21167 1.143 0
M  V30 10870 H 966.677 -1.86441 2.34904 0
M  V30 10871 H 964.23 -0.942023 1.24722 0
M  V30 10872 H 964.965 -3.23829 0.174756 0
M  V30 10873 H 964.75 -3.40678 1.94116 0
M  V30 10874 H 966.24 -4.01231 1.15773 0
M  V30 10875 N 966.677 -1.24326 -0.968545 0
M  V30 10876 C 967.902 -1.1104 -1.75171 0
M  V30 10877 C 968.327 0.333109 -1.85127 0
M  V30 10878 O 967.685 1.24115 -1.32156 0
M  V30 10879 C 967.733 -1.75397 -3.15068 0
M  V30 10880 O 966.837 -1.02417 -3.9948 0
M  V30 10881 H 966.178 -0.388488 -0.538491 0
M  V30 10882 H 968.708 -1.64617 -1.215 0
M  V30 10883 H 968.718 -1.8112 -3.65595 0
M  V30 10884 H 967.393 -2.80427 -3.07138 0
M  V30 10885 H 965.97 -1.04475 -3.57966 0
M  V30 10886 O 968.194 1.10088 -1.18164 0
M  V30 10887 H 968.885 1.70287 -0.923145 0
M  V30 END ATOM
M  V30 BEGIN BOND
M  V30 END BOND
M  V30 END CTAB
M  END
$$$$
