drugbank_target|P13817 Knob-associated histidine-rich protein (DB11638)
 OpenBabel12092121103D

  0  0  0     0  0            999 V3000
M  V30 BEGIN CTAB
M  V30 COUNTS 7286 7391 0 0 0
M  V30 BEGIN ATOM
M  V30 1 H -0.908 1.98254 -0.117106 0
M  V30 2 N 0 1.576 0 0
M  V30 3 C 0.933 2.03868 1.02534 0
M  V30 4 C 1.911 0.928543 1.3348 0
M  V30 5 O 3.095 1.19667 1.45644 0
M  V30 6 C 0.222 2.43627 2.35294 0
M  V30 7 C -0.732 3.65373 2.2001 0
M  V30 8 S 0.101 5.13292 1.52614 0
M  V30 9 C 1.257 5.56322 2.86805 0
M  V30 10 H 1.49 2.90518 0.631377 0
M  V30 11 H -0.977 1.52953 0.210867 0
M  V30 12 H 0.981 2.67203 3.11629 0
M  V30 13 H -0.358 1.57376 2.7183 0
M  V30 14 H -1.165 3.90944 3.18086 0
M  V30 15 H -1.563 3.418 1.51819 0
M  V30 16 H 0.729 5.58782 3.83104 0
M  V30 17 H 1.672 6.56266 2.65933 0
M  V30 18 H 2.08 4.83886 2.90714 0
M  V30 19 N 1.4781 -0.272755 1.55222 0
M  V30 20 C 2.4251 -1.33716 1.88119 0
M  V30 21 C 3.3951 -1.49066 0.73271 0
M  V30 22 O 4.5801 -1.63469 0.984002 0
M  V30 23 C 1.7201 -2.69238 2.15882 0
M  V30 24 C 0.8331 -2.62108 3.43399 0
M  V30 25 C -0.0319 -3.89811 3.60861 0
M  V30 26 C -0.9929 -3.77193 4.8207 0
M  V30 27 N -1.8559 -4.9673 4.96189 0
M  V30 28 H 2.9841 -1.04962 2.78903 0
M  V30 29 H 0.5211 -0.507088 1.38083 0
M  V30 30 H 2.4791 -3.48089 2.29978 0
M  V30 31 H 1.1091 -2.96194 1.28331 0
M  V30 32 H 0.1611 -1.74967 3.37773 0
M  V30 33 H 1.4731 -2.48685 4.32386 0
M  V30 34 H 0.6271 -4.77103 3.74777 0
M  V30 35 H -0.6339 -4.06102 2.7006 0
M  V30 36 H -1.6289 -2.88284 4.68159 0
M  V30 37 H -0.4039 -3.62421 5.74307 0
M  V30 38 H -2.4579 -5.13431 4.08319 0
M  V30 39 H -2.5409 -4.85839 5.79221 0
M  V30 40 H -1.2729 -5.85594 5.1449 0
M  V30 41 N 2.9562 -1.48159 -0.537278 0
M  V30 42 C 4.1812 -1.59707 -1.32319 0
M  V30 43 C 4.6062 -0.254859 -1.86365 0
M  V30 44 O 3.9642 0.772378 -1.64024 0
M  V30 45 C 4.0122 -2.6412 -2.45505 0
M  V30 46 O 3.1162 -2.20774 -3.48328 0
M  V30 47 H 2.4572 -0.535791 -0.392204 0
M  V30 48 H 4.9872 -1.94092 -0.647268 0
M  V30 49 H 4.9972 -2.85166 -2.91795 0
M  V30 50 H 3.6722 -3.61567 -2.05528 0
M  V30 51 H 2.2492 -2.09911 -3.08207 0
M  V30 52 N 4.4343 0.785586 -1.36625 0
M  V30 53 C 5.6813 1.54362 -1.31067 0
M  V30 54 C 6.0093 1.94195 0.10893 0
M  V30 55 O 5.2643 1.63262 1.07908 0
M  V30 56 C 5.5633 2.83007 -2.1827 0
M  V30 57 C 5.2293 2.62294 -3.6676 0
M  V30 58 C 3.8913 2.56353 -4.0723 0
M  V30 59 C 6.2433 2.43371 -4.6089 0
M  V30 60 C 3.5713 2.29461 -5.39967 0
M  V30 61 C 5.9233 2.18005 -5.93849 0
M  V30 62 C 4.5873 2.105 -6.3344 0
M  V30 63 H 3.8573 0.564851 -0.479609 0
M  V30 64 H 6.5043 0.906028 -1.68711 0
M  V30 65 H 4.8093 3.51253 -1.73576 0
M  V30 66 H 6.5063 3.40817 -2.11292 0
M  V30 67 H 3.0963 2.67774 -3.34656 0
M  V30 68 H 7.2803 2.46959 -4.30494 0
M  V30 69 H 2.5363 2.22135 -5.69619 0
M  V30 70 H 6.7103 2.02359 -6.66351 0
M  V30 71 H 4.3373 1.89425 -7.36222 0
M  V30 72 N 5.9124 1.20967 1.01018 0
M  V30 73 C 6.8594 0.964281 2.09691 0
M  V30 74 C 7.8294 -0.107853 1.65749 0
M  V30 75 O 9.0144 0.0381987 1.90762 0
M  V30 76 C 6.1544 0.52943 3.41015 0
M  V30 77 C 5.2674 1.67043 3.98398 0
M  V30 78 C 4.4024 1.18525 5.17808 0
M  V30 79 C 3.4414 2.29892 5.67288 0
M  V30 80 N 2.5784 1.82546 6.77954 0
M  V30 81 H 7.4184 1.89463 2.30017 0
M  V30 82 H 4.9554 0.944289 1.1279 0
M  V30 83 H 6.9134 0.258588 4.16398 0
M  V30 84 H 5.5434 -0.363919 3.20742 0
M  V30 85 H 4.5954 2.05603 3.20049 0
M  V30 86 H 5.9074 2.50877 4.31117 0
M  V30 87 H 5.0614 0.870762 6.00419 0
M  V30 88 H 3.8004 0.316887 4.86669 0
M  V30 89 H 2.8054 2.6215 4.83278 0
M  V30 90 H 4.0304 3.17216 6.00459 0
M  V30 91 H 1.9764 0.980454 6.48632 0
M  V30 92 H 1.8934 2.59956 7.09901 0
M  V30 93 H 3.1614 1.54115 7.64113 0
M  V30 94 N 7.3905 -1.2043 1.01659 0
M  V30 95 C 8.3385 -2.25249 0.580143 0
M  V30 96 C 9.3325 -1.65057 -0.381115 0
M  V30 97 O 10.5385 -1.78241 -0.251039 0
M  V30 98 H 6.9135 -0.732695 0.169299 0
M  V30 99 H 8.8845 -2.59389 1.47512 0
M  V30 100 C 7.6335 -3.47638 -0.065788 0
M  V30 101 H 6.9565 -3.94233 0.664874 0
M  V30 102 H 8.3965 -4.2268 -0.334282 0
M  V30 103 C 6.8555 -3.10447 -1.3086 0
M  V30 104 O 7.3855 -3.21981 -2.4019 0
M  V30 105 N 5.5915 -2.64996 -1.1927 0
M  V30 106 H 5.1385 -2.55811 -0.303064 0
M  V30 107 H 5.0965 -2.40482 -2.02523 0
M  V30 108 N 8.8686 -0.792821 -1.36206 0
M  V30 109 C 9.8156 -0.191653 -2.30003 0
M  V30 110 C 10.7856 0.666453 -1.52143 0
M  V30 111 O 11.9706 0.61442 -1.80636 0
M  V30 112 C 9.1106 0.664848 -3.38635 0
M  V30 113 C 8.2236 -0.212175 -4.31479 0
M  V30 114 C 7.3586 0.651022 -5.27196 0
M  V30 115 C 6.3976 -0.227247 -6.11678 0
M  V30 116 N 5.5346 0.595127 -6.99573 0
M  V30 117 H 10.3746 -0.996978 -2.80828 0
M  V30 118 H 7.9116 -0.503206 -1.38225 0
M  V30 119 H 9.8696 1.17645 -4.00269 0
M  V30 120 H 8.4996 1.43557 -2.89122 0
M  V30 121 H 7.5516 -0.841777 -3.70969 0
M  V30 122 H 8.8636 -0.888751 -4.90818 0
M  V30 123 H 8.0176 1.2283 -5.94136 0
M  V30 124 H 6.7566 1.36121 -4.68319 0
M  V30 125 H 5.7616 -0.816904 -5.43697 0
M  V30 126 H 6.9866 -0.93509 -6.72631 0
M  V30 127 H 4.9326 1.28955 -6.432 0
M  V30 128 H 4.8496 -0.0236952 -7.55996 0
M  V30 129 H 6.1176 1.15613 -7.70879 0
M  V30 130 N 10.3467 1.47872 -0.545128 0
M  V30 131 C 11.2947 2.31533 0.222512 0
M  V30 132 C 12.2887 1.42177 0.920985 0
M  V30 133 O 13.4947 1.59005 0.843645 0
M  V30 134 H 9.8697 0.746519 0.0906278 0
M  V30 135 H 11.8407 2.94139 -0.50246 0
M  V30 136 C 10.5897 3.2457 1.24699 0
M  V30 137 H 9.9127 3.93283 0.718944 0
M  V30 138 H 11.3527 3.85963 1.75523 0
M  V30 139 C 9.8117 2.47237 2.28856 0
M  V30 140 O 10.3417 2.20808 3.35569 0
M  V30 141 N 8.5477 2.08461 2.02466 0
M  V30 142 H 8.0947 2.30155 1.157 0
M  V30 143 H 8.0527 1.57033 2.72375 0
M  V30 144 N 11.8248 0.280983 1.55075 0
M  V30 145 C 13.0528 -0.337293 2.04132 0
M  V30 146 C 13.4678 -1.4903 1.15912 0
M  V30 147 O 12.8248 -1.81606 0.180459 0
M  V30 148 C 12.8758 -0.812706 3.52246 0
M  V30 149 O 12.5968 0.294387 4.3711 0
M  V30 150 C 14.0978 -1.4982 4.17216 0
M  V30 151 H 11.3178 -0.0761638 0.666663 0
M  V30 152 H 13.8618 0.414787 2.00249 0
M  V30 153 H 12.0168 -1.51486 3.56554 0
M  V30 154 H 12.4308 -0.0721325 5.2445 0
M  V30 155 H 13.9048 -1.7822 5.22438 0
M  V30 156 H 14.3818 -2.43168 3.65741 0
M  V30 157 H 14.9878 -0.839742 4.16927 0
M  V30 158 N 13.3029 -1.57598 0.00835791 0
M  V30 159 C 14.2329 -2.1198 -0.979113 0
M  V30 160 C 15.2139 -1.03091 -1.35301 0
M  V30 161 O 16.3989 -1.30818 -1.43528 0
M  V30 162 C 13.5289 -2.62995 -2.26828 0
M  V30 163 C 12.4829 -3.76485 -2.03576 0
M  V30 164 C 11.8089 -4.13846 -3.38579 0
M  V30 165 C 13.1089 -5.0342 -1.39161 0
M  V30 166 H 14.8029 -2.94738 -0.526281 0
M  V30 167 H 12.3489 -1.41783 -0.251704 0
M  V30 168 H 14.3019 -2.99669 -2.96271 0
M  V30 169 H 13.0259 -1.7737 -2.7424 0
M  V30 170 H 11.6849 -3.40217 -1.36557 0
M  V30 171 H 11.3329 -3.25232 -3.83709 0
M  V30 172 H 11.0329 -4.90312 -3.23834 0
M  V30 173 H 12.5569 -4.53086 -4.09323 0
M  V30 174 H 13.9709 -5.37812 -1.98573 0
M  V30 175 H 12.3679 -5.84746 -1.34878 0
M  V30 176 H 13.4379 -4.83548 -0.361868 0
M  V30 177 N 14.781 0.264519 -1.55364 0
M  V30 178 C 16.197 0.61215 -1.47394 0
M  V30 179 C 16.397 1.89134 -0.695018 0
M  V30 180 O 15.453 2.51563 -0.217275 0
M  V30 181 C 16.766 0.731235 -2.91674 0
M  V30 182 C 18.314 0.82473 -3.01939 0
M  V30 183 C 18.789 0.975522 -4.4749 0
M  V30 184 N 20.28 1.04083 -4.51354 0
M  V30 185 C 21.015 1.17646 -5.61201 0
M  V30 186 N 20.511 1.27874 -6.80896 0
M  V30 187 N 22.304 1.20823 -5.48961 0
M  V30 188 H 14.455 -0.575456 -2.04456 0
M  V30 189 H 16.718 -0.196099 -0.927496 0
M  V30 190 H 16.424 -0.138392 -3.51428 0
M  V30 191 H 16.298 1.60883 -3.41169 0
M  V30 192 H 18.685 1.68482 -2.42276 0
M  V30 193 H 18.766 -0.0776479 -2.55682 0
M  V30 194 H 18.41 0.120058 -5.07758 0
M  V30 195 H 18.34 1.89268 -4.91412 0
M  V30 196 H 20.831 0.973846 -3.65136 0
M  V30 197 H 21.144 1.38081 -7.60364 0
M  V30 198 H 19.489 1.24863 -6.83692 0
M  V30 199 H 22.68 1.12469 -4.54388 0
M  V30 200 H 22.853 1.31049 -6.3461 0
M  V30 201 N 16.2591 1.48442 0.529413 0
M  V30 202 C 17.6751 1.34575 0.858004 0
M  V30 203 C 17.8751 0.3572 1.98309 0
M  V30 204 O 16.9311 -0.221379 2.51528 0
M  V30 205 C 18.2441 2.74617 1.22499 0
M  V30 206 C 19.7921 2.83109 1.33484 0
M  V30 207 C 20.2671 4.23854 1.73526 0
M  V30 208 N 21.7581 4.2653 1.80628 0
M  V30 209 C 22.4931 5.32372 2.12997 0
M  V30 210 N 21.9891 6.48491 2.43786 0
M  V30 211 N 23.7821 5.19766 2.14008 0
M  V30 212 H 15.9331 2.1133 -0.212925 0
M  V30 213 H 18.1961 0.947439 -0.0326199 0
M  V30 214 H 17.9021 3.4852 0.471905 0
M  V30 215 H 17.7761 3.08177 2.17501 0
M  V30 216 H 20.1631 2.09462 2.0787 0
M  V30 217 H 20.2441 2.53168 0.366027 0
M  V30 218 H 19.8881 4.98018 0.997013 0
M  V30 219 H 19.8181 4.5124 2.71459 0
M  V30 220 H 22.3091 3.42772 1.59108 0
M  V30 221 H 22.6221 7.24993 2.67592 0
M  V30 222 H 20.9671 6.51765 2.41304 0
M  V30 223 H 24.1581 4.28066 1.89412 0
M  V30 224 H 24.3311 6.02354 2.38902 0
M  V30 225 N 17.7372 -0.778329 1.37039 0
M  V30 226 C 18.6842 -1.89139 1.32269 0
M  V30 227 C 19.6542 -1.65017 0.189387 0
M  V30 228 O 20.8392 -1.87024 0.377693 0
M  V30 229 C 17.9792 -3.26112 1.12894 0
M  V30 230 C 17.0922 -3.62233 2.35396 0
M  V30 231 C 16.2272 -4.8838 2.08946 0
M  V30 232 C 15.2662 -5.17212 3.2735 0
M  V30 233 N 14.4032 -6.34546 3.00492 0
M  V30 234 H 19.2432 -1.92552 2.27437 0
M  V30 235 H 16.7802 -0.941473 1.13025 0
M  V30 236 H 18.7382 -4.05116 0.996835 0
M  V30 237 H 17.3682 -3.22091 0.213758 0
M  V30 238 H 16.4202 -2.78265 2.5937 0
M  V30 239 H 17.7322 -3.79481 3.23721 0
M  V30 240 H 16.8862 -5.75274 1.92729 0
M  V30 241 H 15.6252 -4.73222 1.17949 0
M  V30 242 H 14.6302 -4.28796 3.44113 0
M  V30 243 H 15.8552 -5.34283 4.19188 0
M  V30 244 H 13.8012 -6.20759 2.12118 0
M  V30 245 H 13.7182 -6.52179 3.82358 0
M  V30 246 H 14.9862 -7.24394 2.87879 0
M  V30 247 N 19.2153 -1.21501 -1.00376 0
M  V30 248 C 20.1623 -0.975387 -2.09177 0
M  V30 249 C 21.1323 0.0990615 -1.65804 0
M  V30 250 O 22.3173 -0.0483147 -1.90739 0
M  V30 251 C 19.4573 -0.547507 -3.40729 0
M  V30 252 C 18.5703 -1.69153 -3.97506 0
M  V30 253 C 17.7053 -1.2127 -5.17172 0
M  V30 254 C 16.7443 -2.32897 -5.66061 0
M  V30 255 N 15.8813 -1.86138 -6.76976 0
M  V30 256 H 20.7213 -1.9068 -2.29009 0
M  V30 257 H 18.2583 -0.950257 -1.12288 0
M  V30 258 H 20.2163 -0.280667 -4.16255 0
M  V30 259 H 18.8463 0.346904 -3.20931 0
M  V30 260 H 17.8983 -2.07298 -3.18954 0
M  V30 261 H 19.2103 -2.5316 -4.29781 0
M  V30 262 H 18.3643 -0.902591 -5.99948 0
M  V30 263 H 17.1033 -0.342692 -4.86495 0
M  V30 264 H 16.1083 -2.64709 -4.81881 0
M  V30 265 H 17.3333 -3.20396 -5.98768 0
M  V30 266 H 15.2793 -1.01484 -6.48103 0
M  V30 267 H 15.1963 -2.63717 -7.08512 0
M  V30 268 H 16.4643 -1.58165 -7.63285 0
M  V30 269 N 20.6934 1.19889 -1.02296 0
M  V30 270 C 21.6564 2.21116 -0.603351 0
M  V30 271 C 22.6564 1.5738 0.329884 0
M  V30 272 O 23.8464 1.73802 0.117702 0
M  V30 273 C 20.9784 3.40696 0.117992 0
M  V30 274 H 22.1714 2.59754 -1.49893 0
M  V30 275 H 19.7244 1.33463 -0.813468 0
M  V30 276 H 20.4594 3.07569 1.0282 0
M  V30 277 H 20.2444 3.88188 -0.552511 0
M  V30 278 H 21.7344 4.15692 0.398696 0
M  V30 279 N 22.1715 0.800033 1.35784 0
M  V30 280 C 23.4185 0.377342 1.98953 0
M  V30 281 C 23.7465 -1.05378 1.6348 0
M  V30 282 O 23.0015 -1.74459 0.886707 0
M  V30 283 C 23.3005 0.500276 3.53881 0
M  V30 284 C 22.9665 1.89375 4.09204 0
M  V30 285 C 21.6285 2.27499 4.24025 0
M  V30 286 C 23.9805 2.8057 4.39238 0
M  V30 287 C 21.3085 3.562 4.66195 0
M  V30 288 C 23.6605 4.0871 4.82844 0
M  V30 289 C 22.3245 4.46843 4.95871 0
M  V30 290 H 21.5945 0.138079 0.728021 0
M  V30 291 H 24.2415 1.01955 1.62103 0
M  V30 292 H 22.5465 -0.225405 3.91151 0
M  V30 293 H 24.2435 0.154097 4.00704 0
M  V30 294 H 20.8335 1.58753 3.98115 0
M  V30 295 H 25.0175 2.52367 4.27346 0
M  V30 296 H 20.2735 3.85602 4.74469 0
M  V30 297 H 24.4475 4.79481 5.05046 0
M  V30 298 H 22.0745 5.46623 5.28306 0
M  V30 299 N 23.6496 -1.47581 0.552962 0
M  V30 300 C 25.0606 -1.86324 0.118463 0
M  V30 301 C 25.4116 -1.46006 -1.3106 0
M  V30 302 O 24.5366 -0.861182 -1.98526 0
M  V30 303 C 25.1316 -3.3816 0.20821 0
M  V30 304 C 23.6906 -3.7601 -0.171226 0
M  V30 305 C 22.8376 -2.71634 0.557686 0
M  V30 306 H 25.7886 -1.39159 0.762928 0
M  V30 307 H 25.8096 -3.76141 -0.574278 0
M  V30 308 H 25.3216 -3.67473 1.24841 0
M  V30 309 H 23.4226 -3.52313 -1.21269 0
M  V30 310 H 23.5356 -4.78745 0.184379 0
M  V30 311 H 21.8996 -2.547 0.00125792 0
M  V30 312 H 22.6826 -3.0379 1.59896 0
M  V30 313 N 25.1277 -0.289203 -1.54924 0
M  V30 314 C 26.3737 0.323998 -2.00195 0
M  V30 315 C 26.7067 1.54441 -1.17735 0
M  V30 316 O 25.9817 1.92875 -0.250878 0
M  V30 317 C 26.2647 0.692276 -3.53383 0
M  V30 318 C 26.1177 -0.536457 -4.46589 0
M  V30 319 C 27.4367 1.52335 -4.12895 0
M  V30 320 H 24.5557 0.116289 -0.727768 0
M  V30 321 H 27.1977 -0.398954 -1.85764 0
M  V30 322 H 25.3477 1.30822 -3.65811 0
M  V30 323 H 27.0197 -1.17499 -4.46085 0
M  V30 324 H 25.2627 -1.17192 -4.1767 0
M  V30 325 H 25.9337 -0.234806 -5.515 0
M  V30 326 H 28.4097 1.00302 -4.0383 0
M  V30 327 H 27.2857 1.74982 -5.20262 0
M  V30 328 H 27.5467 2.50886 -3.64018 0
M  V30 329 N 26.6058 1.57591 -0.0167156 0
M  V30 330 C 27.8528 1.91283 0.664597 0
M  V30 331 C 28.1808 0.891949 1.72842 0
M  V30 332 O 27.4358 -0.100931 1.9544 0
M  V30 333 C 27.7348 3.3172 1.33029 0
M  V30 334 C 27.4008 4.4914 0.398047 0
M  V30 335 C 26.0628 4.80992 0.141421 0
M  V30 336 C 28.4148 5.20634 -0.242825 0
M  V30 337 C 25.7428 5.81703 -0.764092 0
M  V30 338 C 28.0948 6.22311 -1.13632 0
M  V30 339 C 26.7588 6.52611 -1.40196 0
M  V30 340 H 26.0288 0.699956 0.243193 0
M  V30 341 H 28.6758 1.9135 -0.0758267 0
M  V30 342 H 26.9808 3.27856 2.14517 0
M  V30 343 H 28.6778 3.55055 1.86379 0
M  V30 344 H 25.2678 4.24262 0.608238 0
M  V30 345 H 29.4518 4.96267 -0.0576019 0
M  V30 346 H 24.7078 6.03532 -0.977732 0
M  V30 347 H 28.8818 6.76834 -1.63917 0
M  V30 348 H 26.5088 7.30467 -2.10529 0
M  V30 349 N 28.0839 -0.256276 1.55502 0
M  V30 350 C 29.3119 -1.00342 1.8094 0
M  V30 351 C 29.7269 -1.79307 0.59114 0
M  V30 352 O 29.0839 -1.77114 -0.440081 0
M  V30 353 C 29.1349 -1.94875 3.04476 0
M  V30 354 O 28.8559 -1.19107 4.21598 0
M  V30 355 C 30.3569 -2.81266 3.42644 0
M  V30 356 H 27.5769 -0.295685 0.602338 0
M  V30 357 H 30.1209 -0.281998 2.02546 0
M  V30 358 H 28.2759 -2.62457 2.84947 0
M  V30 359 H 28.6899 -1.82969 4.91551 0
M  V30 360 H 30.1639 -3.43362 4.32211 0
M  V30 361 H 30.6409 -3.51897 2.62802 0
M  V30 362 H 31.2469 -2.1915 3.64491 0
M  V30 363 N 29.562 -1.4872 -0.521534 0
M  V30 364 C 30.509 -1.63871 -1.62527 0
M  V30 365 C 31.479 -0.480559 -1.58996 0
M  V30 366 O 32.664 -0.705085 -1.77294 0
M  V30 367 C 29.804 -1.69227 -3.00759 0
M  V30 368 C 28.917 -2.96207 -3.14461 0
M  V30 369 C 28.052 -2.92671 -4.43303 0
M  V30 370 C 27.091 -4.14318 -4.50563 0
M  V30 371 N 26.228 -4.0881 -5.70805 0
M  V30 372 H 31.068 -2.58123 -1.48918 0
M  V30 373 H 28.605 -1.28 -0.724878 0
M  V30 374 H 30.563 -1.70314 -3.80853 0
M  V30 375 H 29.193 -0.784586 -3.1312 0
M  V30 376 H 28.245 -3.04826 -2.27564 0
M  V30 377 H 29.557 -3.86192 -3.15686 0
M  V30 378 H 28.711 -2.92206 -5.31696 0
M  V30 379 H 27.45 -2.00429 -4.44612 0
M  V30 380 H 26.455 -4.15049 -3.60575 0
M  V30 381 H 27.68 -5.07729 -4.50986 0
M  V30 382 H 25.626 -3.19394 -5.72995 0
M  V30 383 H 25.543 -4.92509 -5.7356 0
M  V30 384 H 26.811 -4.12418 -6.61462 0
M  V30 385 N 31.0401 0.771051 -1.3745 0
M  V30 386 C 32.2891 1.52491 -1.3202 0
M  V30 387 C 32.6021 1.9538 0.0927347 0
M  V30 388 O 33.8081 2.70159 0.269503 0
M  V30 389 C 32.2641 2.75366 -2.31736 0
M  V30 390 C 31.8721 2.39573 -3.78562 0
M  V30 391 C 33.6161 3.53307 -2.35318 0
M  V30 392 C 31.5231 3.58954 -4.70007 0
M  V30 393 H 30.4531 0.572506 -0.490666 0
M  V30 394 H 33.1041 0.844474 -1.62914 0
M  V30 395 H 31.4861 3.45303 -1.93861 0
M  V30 396 H 32.6601 1.77415 -4.25277 0
M  V30 397 H 30.9751 1.74805 -3.77932 0
M  V30 398 H 33.5721 4.42039 -3.00842 0
M  V30 399 H 33.9151 3.93217 -1.36698 0
M  V30 400 H 34.4481 2.90367 -2.71904 0
M  V30 401 H 31.1871 3.24125 -5.69757 0
M  V30 402 H 30.7071 4.20214 -4.27996 0
M  V30 403 H 32.3861 4.25758 -4.87175 0
M  V30 404 N 32.5182 1.22032 0.997298 0
M  V30 405 C 33.4482 1.01065 2.10495 0
M  V30 406 C 34.4292 -0.0669542 1.69968 0
M  V30 407 O 35.6142 0.0943987 1.9397 0
M  V30 408 C 32.7442 0.582874 3.42374 0
M  V30 409 C 31.6982 1.60592 3.96729 0
M  V30 410 C 31.0242 1.03412 5.24605 0
M  V30 411 C 32.3242 2.99478 4.27914 0
M  V30 412 H 34.0182 1.93708 2.28292 0
M  V30 413 H 31.5642 0.932761 1.09707 0
M  V30 414 H 33.5172 0.423332 4.19268 0
M  V30 415 H 32.2412 -0.379213 3.24391 0
M  V30 416 H 30.9002 1.75316 3.21963 0
M  V30 417 H 30.5482 0.063518 5.0296 0
M  V30 418 H 30.2482 1.71754 5.61938 0
M  V30 419 H 31.7722 0.886066 6.04137 0
M  V30 420 H 33.1862 2.88153 4.95622 0
M  V30 421 H 31.5832 3.64903 4.76409 0
M  V30 422 H 32.6532 3.49742 3.3587 0
M  V30 423 N 33.9963 -1.19345 1.0293 0
M  V30 424 C 34.9263 -2.2481 0.631105 0
M  V30 425 C 35.9073 -1.66245 -0.360104 0
M  V30 426 O 37.0923 -1.92677 -0.242726 0
M  V30 427 C 34.2223 -3.47295 -0.0184607 0
M  V30 428 C 33.1763 -4.18536 0.895073 0
M  V30 429 C 32.5023 -5.34586 0.110592 0
M  V30 430 C 33.8023 -4.73287 2.209 0
M  V30 431 H 35.4963 -2.58372 1.51275 0
M  V30 432 H 33.0423 -1.24194 0.728818 0
M  V30 433 H 34.9953 -4.20268 -0.308675 0
M  V30 434 H 33.7193 -3.12933 -0.934907 0
M  V30 435 H 32.3783 -3.47446 1.16949 0
M  V30 436 H 32.0263 -4.96469 -0.807902 0
M  V30 437 H 31.7263 -5.83183 0.719087 0
M  V30 438 H 33.2503 -6.10355 -0.172871 0
M  V30 439 H 34.6643 -5.38013 1.98028 0
M  V30 440 H 33.0613 -5.32373 2.76946 0
M  V30 441 H 34.1313 -3.91331 2.86336 0
M  V30 442 N 35.4744 -0.807222 -1.35358 0
M  V30 443 C 36.7204 -0.388463 -1.99045 0
M  V30 444 C 37.0534 1.04184 -1.63888 0
M  V30 445 O 36.3284 1.72292 -0.902535 0
M  V30 446 C 36.6114 -0.572783 -3.55515 0
M  V30 447 C 36.4644 -2.04807 -4.00468 0
M  V30 448 C 37.7834 0.00114064 -4.401 0
M  V30 449 H 34.9024 -0.142619 -0.723069 0
M  V30 450 H 37.5444 -1.01687 -1.60498 0
M  V30 451 H 35.6944 -0.0378425 -3.88482 0
M  V30 452 H 37.3664 -2.64544 -3.77908 0
M  V30 453 H 35.6094 -2.54427 -3.51353 0
M  V30 454 H 36.2804 -2.12792 -5.09337 0
M  V30 455 H 38.7564 -0.455716 -4.13597 0
M  V30 456 H 37.6324 -0.157737 -5.48673 0
M  V30 457 H 37.8934 1.09488 -4.28328 0
M  V30 458 N 36.9525 1.47285 -0.560781 0
M  V30 459 C 38.1775 2.07359 -0.0410566 0
M  V30 460 C 38.6025 1.41017 1.24483 0
M  V30 461 O 37.9605 0.486368 1.74654 0
M  V30 462 C 38.0085 3.6035 0.134123 0
M  V30 463 O 37.1125 3.94681 1.19587 0
M  V30 464 H 36.4535 0.661887 -0.0529291 0
M  V30 465 H 38.9835 1.89252 -0.777482 0
M  V30 466 H 38.9935 4.0652 0.347207 0
M  V30 467 H 37.6685 4.08034 -0.805047 0
M  V30 468 H 36.2455 3.60251 0.962987 0
M  V30 469 N 38.4306 0.297415 1.54768 0
M  V30 470 C 39.6776 -0.312913 2.00068 0
M  V30 471 C 40.0056 -1.54171 1.18582 0
M  V30 472 O 39.2606 -1.94108 0.249133 0
M  V30 473 C 39.5596 -0.717561 3.50123 0
M  V30 474 C 39.2256 0.409095 4.4904 0
M  V30 475 C 37.8876 0.718399 4.75807 0
M  V30 476 C 40.2396 1.16717 5.07963 0
M  V30 477 C 37.5676 1.78896 5.5876 0
M  V30 478 C 39.9196 2.22762 5.92081 0
M  V30 479 C 38.5836 2.54303 6.1716 0
M  V30 480 H 37.8536 -0.114503 0.7321 0
M  V30 481 H 40.5006 0.415767 1.86932 0
M  V30 482 H 38.8056 -1.52627 3.60849 0
M  V30 483 H 40.5026 -1.20091 3.82595 0
M  V30 484 H 37.0926 0.157918 4.28309 0
M  V30 485 H 41.2766 0.941466 4.87289 0
M  V30 486 H 36.5326 2.0381 5.7643 0
M  V30 487 H 40.7066 2.81962 6.36765 0
M  V30 488 H 38.3336 3.3739 6.81229 0
M  V30 489 N 39.9087 -1.5758 0.0250728 0
M  V30 490 C 40.8387 -2.13007 -0.956575 0
M  V30 491 C 41.8197 -1.0452 -1.342 0
M  V30 492 O 43.0047 -1.32332 -1.42133 0
M  V30 493 C 40.1347 -2.65386 -2.24026 0
M  V30 494 C 39.0887 -3.78623 -1.99571 0
M  V30 495 C 38.4147 -4.17414 -3.3417 0
M  V30 496 C 39.7147 -5.04867 -1.33814 0
M  V30 497 H 41.4087 -2.9528 -0.494991 0
M  V30 498 H 38.9547 -1.42042 -0.236651 0
M  V30 499 H 40.9077 -3.02794 -2.93076 0
M  V30 500 H 39.6317 -1.80268 -2.72343 0
M  V30 501 H 38.2907 -3.41646 -1.32941 0
M  V30 502 H 37.9387 -3.29284 -3.80238 0
M  V30 503 H 37.6387 -4.93719 -3.18615 0
M  V30 504 H 39.1627 -4.57402 -4.04495 0
M  V30 505 H 40.5767 -5.39888 -1.92857 0
M  V30 506 H 38.9737 -5.86144 -1.28669 0
M  V30 507 H 40.0437 -4.83904 -0.310561 0
M  V30 508 N 41.3868 0.248026 -1.55636 0
M  V30 509 C 42.6328 0.97767 -1.77678 0
M  V30 510 C 42.9658 1.85016 -0.590135 0
M  V30 511 O 42.2408 1.90095 0.411611 0
M  V30 512 C 42.5238 1.83914 -3.09593 0
M  V30 513 C 42.3768 0.99491 -4.38659 0
M  V30 514 C 43.6958 2.82183 -3.37729 0
M  V30 515 H 40.8148 0.354005 -0.646413 0
M  V30 516 H 43.4568 0.248253 -1.88371 0
M  V30 517 H 41.6068 2.46104 -3.00608 0
M  V30 518 H 43.2788 0.391789 -4.59633 0
M  V30 519 H 41.5218 0.299231 -4.32767 0
M  V30 520 H 42.1928 1.63145 -5.2734 0
M  V30 521 H 44.6688 2.30129 -3.4667 0
M  V30 522 H 43.5448 3.39582 -4.31249 0
M  V30 523 H 43.8058 3.58588 -2.58586 0
M  V30 524 N 42.8649 1.48995 0.513639 0
M  V30 525 C 44.1109 1.59053 1.26783 0
M  V30 526 C 44.4659 0.268136 1.90522 0
M  V30 527 O 43.7589 -0.730534 1.77126 0
M  V30 528 C 43.9529 2.67756 2.36731 0
M  V30 529 C 43.7819 4.10437 1.83771 0
M  V30 530 C 42.5519 4.7738 1.65639 0
M  V30 531 C 44.7499 4.9608 1.35681 0
M  V30 532 N 42.7319 6.04419 1.07476 0
M  V30 533 C 44.1029 6.13496 0.895715 0
M  V30 534 C 46.1579 4.82177 1.24136 0
M  V30 535 C 44.8609 7.1854 0.3306 0
M  V30 536 C 46.8869 5.87358 0.690229 0
M  V30 537 C 46.2489 7.03993 0.239292 0
M  V30 538 H 42.3479 0.636463 0.454355 0
M  V30 539 H 44.9319 1.85948 0.577196 0
M  V30 540 H 43.1029 2.42655 3.03271 0
M  V30 541 H 44.8349 2.67406 3.0377 0
M  V30 542 H 41.5899 4.33974 1.8964 0
M  V30 543 H 42.0139 6.72214 0.803579 0
M  V30 544 H 46.6559 3.92329 1.57601 0
M  V30 545 H 44.3739 8.08098 -0.0163435 0
M  V30 546 H 47.9599 5.78658 0.603852 0
M  V30 547 H 46.8399 7.83992 -0.180526 0
M  V30 548 N 44.343 -0.763751 1.37857 0
M  V30 549 C 45.589 -1.52483 1.33704 0
M  V30 550 C 45.922 -1.94051 -0.0759612 0
M  V30 551 O 45.197 -1.64675 -1.03501 0
M  V30 552 C 45.48 -2.78441 2.28348 0
M  V30 553 C 45.333 -2.43075 3.78463 0
M  V30 554 C 46.652 -3.80415 2.21298 0
M  V30 555 H 43.771 -0.553169 0.487005 0
M  V30 556 H 46.413 -0.875562 1.68624 0
M  V30 557 H 44.563 -3.33842 1.987 0
M  V30 558 H 46.235 -1.93527 4.18742 0
M  V30 559 H 44.478 -1.75666 3.96641 0
M  V30 560 H 45.149 -3.33149 4.40132 0
M  V30 561 H 47.625 -3.34527 2.47449 0
M  V30 562 H 46.501 -4.66257 2.89647 0
M  V30 563 H 46.762 -4.25262 1.20849 0
M  V30 564 N 45.8211 -1.22559 -0.990812 0
M  V30 565 C 46.7511 -1.0218 -2.09956 0
M  V30 566 C 47.7321 0.0579394 -1.70001 0
M  V30 567 O 48.9171 -0.104684 -1.93918 0
M  V30 568 C 46.0471 -0.601023 -3.4206 0
M  V30 569 C 45.0011 -1.62694 -3.95872 0
M  V30 570 C 44.3271 -1.06193 -5.24049 0
M  V30 571 C 45.6271 -3.01743 -4.2632 0
M  V30 572 H 47.3211 -1.94916 -2.27262 0
M  V30 573 H 44.8671 -0.938566 -1.09211 0
M  V30 574 H 46.8201 -0.445561 -4.19038 0
M  V30 575 H 45.5441 0.362005 -3.24588 0
M  V30 576 H 44.2031 -1.77021 -3.21028 0
M  V30 577 H 43.8511 -0.0901903 -5.02919 0
M  V30 578 H 43.5511 -1.74732 -5.61019 0
M  V30 579 H 45.0751 -0.918092 -6.03658 0
M  V30 580 H 46.4891 -2.90777 -4.94087 0
M  V30 581 H 44.8861 -3.67425 -4.74467 0
M  V30 582 H 45.9561 -3.51518 -3.34011 0
M  V30 583 N 47.2992 1.18797 -1.03562 0
M  V30 584 C 48.2462 2.22253 -0.622259 0
M  V30 585 C 49.2162 1.61987 0.36736 0
M  V30 586 O 50.4012 1.88986 0.262492 0
M  V30 587 C 47.5412 3.45097 0.0138462 0
M  V30 588 C 46.6542 4.19722 -1.02263 0
M  V30 589 C 45.7892 5.30009 -0.355573 0
M  V30 590 C 44.8282 5.96399 -1.37749 0
M  V30 591 N 43.9652 6.98234 -0.735766 0
M  V30 592 H 48.8052 2.56968 -1.50903 0
M  V30 593 H 46.3422 1.26245 -0.755017 0
M  V30 594 H 48.3002 4.15279 0.399948 0
M  V30 595 H 46.9302 3.11018 0.864158 0
M  V30 596 H 45.9822 3.48418 -1.52673 0
M  V30 597 H 47.2942 4.65227 -1.79903 0
M  V30 598 H 46.4482 6.0664 0.0850095 0
M  V30 599 H 45.1872 4.85592 0.452967 0
M  V30 600 H 44.1922 5.18512 -1.82826 0
M  V30 601 H 45.4172 6.42899 -2.18764 0
M  V30 602 H 43.3632 6.55979 0.0525597 0
M  V30 603 H 43.2802 7.41965 -1.44995 0
M  V30 604 H 44.5482 7.78845 -0.31941 0
M  V30 605 N 48.7773 0.814389 1.34928 0
M  V30 606 C 50.0173 0.404165 2.00364 0
M  V30 607 C 50.3813 -1.01166 1.63185 0
M  V30 608 O 51.5823 -1.52431 2.21401 0
M  V30 609 C 49.8533 0.590718 3.52484 0
M  V30 610 S 51.4123 0.272075 4.37956 0
M  V30 611 H 48.2303 0.15311 0.694319 0
M  V30 612 H 50.8323 1.05834 1.64376 0
M  V30 613 H 49.5363 1.62099 3.77031 0
M  V30 614 H 49.0673 -0.0785013 3.93322 0
M  V30 615 H 51.0823 -0.917405 4.87645 0
M  V30 616 N 50.2554 -1.46986 0.568584 0
M  V30 617 C 51.4804 -2.07335 0.0520528 0
M  V30 618 C 51.9054 -1.41675 -1.23733 0
M  V30 619 O 51.2634 -0.495623 -1.74394 0
M  V30 620 C 51.3114 -3.60417 -0.11501 0
M  V30 621 O 50.4154 -3.95309 -1.17492 0
M  V30 622 H 49.7564 -0.661597 0.0564385 0
M  V30 623 H 52.2864 -1.88837 0.787507 0
M  V30 624 H 52.2964 -4.06698 -0.325644 0
M  V30 625 H 50.9714 -4.07601 0.826675 0
M  V30 626 H 49.5484 -3.60757 -0.943869 0
M  V30 627 N 51.7335 -0.305618 -1.54608 0
M  V30 628 C 52.6815 0.584119 -2.25146 0
M  V30 629 C 53.6755 1.13326 -1.25911 0
M  V30 630 O 54.8815 1.08337 -1.43747 0
M  V30 631 H 51.2565 0.206983 -0.722954 0
M  V30 632 H 53.2275 -0.033291 -2.98381 0
M  V30 633 C 51.9765 1.74225 -3.009 0
M  V30 634 H 51.2995 1.32892 -3.77067 0
M  V30 635 H 52.7395 2.34077 -3.53531 0
M  V30 636 C 51.1985 2.64914 -2.0814 0
M  V30 637 O 51.7285 3.66137 -1.65246 0
M  V30 638 N 49.9345 2.3275 -1.74 0
M  V30 639 H 49.4815 1.50479 -2.09078 0
M  V30 640 H 49.4395 2.93694 -1.12211 0
M  V30 641 N 53.2116 1.57565 -0.0334293 0
M  V30 642 C 54.1596 2.1164 0.96496 0
M  V30 643 C 55.1536 1.04398 1.33407 0
M  V30 644 O 56.3596 1.22828 1.3158 0
M  V30 645 H 52.7346 0.676222 0.32898 0
M  V30 646 H 54.7056 2.94455 0.483614 0
M  V30 647 C 53.4546 2.66207 2.23672 0
M  V30 648 H 52.7776 3.48378 1.96145 0
M  V30 649 H 54.2176 3.07685 2.9173 0
M  V30 650 C 52.6766 1.59151 2.96939 0
M  V30 651 O 53.2066 0.993858 3.89211 0
M  V30 652 N 51.4126 1.31093 2.59351 0
M  V30 653 H 50.9596 1.7988 1.84393 0
M  V30 654 H 50.9176 0.596889 3.08682 0
M  V30 655 N 54.6897 -0.239769 1.55765 0
M  V30 656 C 55.9297 -0.974076 1.79697 0
M  V30 657 C 56.2937 -1.82249 0.604088 0
M  V30 658 O 57.4947 -2.58913 0.722324 0
M  V30 659 C 55.7657 -1.80595 3.08416 0
M  V30 660 S 57.3247 -2.59838 3.53596 0
M  V30 661 H 54.1427 -0.327524 0.63107 0
M  V30 662 H 56.7447 -0.241277 1.94005 0
M  V30 663 H 55.4487 -1.17249 3.93295 0
M  V30 664 H 54.9797 -2.58137 2.96865 0
M  V30 665 H 56.9947 -3.82987 3.15492 0
M  V30 666 N 56.1678 -1.49265 -0.50573 0
M  V30 667 C 57.1158 -1.66065 -1.62866 0
M  V30 668 C 58.1098 -0.526636 -1.61006 0
M  V30 669 O 59.3158 -0.706126 -1.65571 0
M  V30 670 H 55.6908 -0.52356 -0.539805 0
M  V30 671 H 57.6618 -2.60329 -1.45848 0
M  V30 672 C 56.4108 -1.74008 -3.01026 0
M  V30 673 H 55.7338 -2.6064 -3.03161 0
M  V30 674 H 57.1738 -1.89798 -3.79147 0
M  V30 675 C 55.6328 -0.483868 -3.33407 0
M  V30 676 O 56.1628 0.392548 -3.99777 0
M  V30 677 N 54.3688 -0.348236 -2.88506 0
M  V30 678 H 53.9158 -1.06242 -2.34671 0
M  V30 679 H 53.8738 0.491204 -3.10539 0
M  V30 680 N 57.6459 0.756429 -1.3826 0
M  V30 681 C 58.5939 1.89149 -1.35372 0
M  V30 682 C 59.5879 1.67691 -0.24004 0
M  V30 683 O 60.7939 1.75294 -0.408919 0
M  V30 684 H 57.1689 0.622271 -0.422236 0
M  V30 685 H 59.1399 1.88701 -2.31159 0
M  V30 686 C 57.8889 3.26599 -1.19284 0
M  V30 687 H 57.2119 3.43695 -2.0424 0
M  V30 688 H 58.6519 4.06274 -1.21316 0
M  V30 689 C 57.1109 3.3675 0.100454 0
M  V30 690 O 57.6409 3.86951 1.07851 0
M  V30 691 N 55.8469 2.90179 0.15633 0
M  V30 692 H 55.3939 2.49517 -0.640253 0
M  V30 693 H 55.3519 2.97352 1.02123 0
M  V30 694 N 59.124 1.23083 0.984299 0
M  V30 695 C 60.372 1.05848 1.72165 0
M  V30 696 C 60.693 -0.406049 1.90726 0
M  V30 697 O 59.963 -1.29139 1.47309 0
M  V30 698 H 58.543 0.388685 0.637913 0
M  V30 699 H 61.205 1.54736 1.18503 0
M  V30 700 H 60.301 1.54327 2.71274 0
M  V30 701 N 60.6021 -1.18246 1.0419 0
M  V30 702 C 61.5501 -2.23968 0.627792 0
M  V30 703 C 62.5441 -1.65828 -0.346019 0
M  V30 704 O 63.7501 -1.78733 -0.213175 0
M  V30 705 H 60.1251 -0.728939 0.184802 0
M  V30 706 H 62.0961 -2.56202 1.52981 0
M  V30 707 C 60.8451 -3.47699 0.00796591 0
M  V30 708 H 60.1681 -3.92734 0.748347 0
M  V30 709 H 61.6081 -4.23294 -0.24455 0
M  V30 710 C 60.0671 -3.13153 -1.24246 0
M  V30 711 O 60.5971 -3.27003 -2.33307 0
M  V30 712 N 58.8031 -2.67467 -1.13622 0
M  V30 713 H 58.3501 -2.56396 -0.248734 0
M  V30 714 H 58.3081 -2.44724 -1.97377 0
M  V30 715 N 62.0802 -0.821533 -1.34494 0
M  V30 716 C 63.3282 -0.408139 -1.97936 0
M  V30 717 C 63.6492 1.03193 -1.65457 0
M  V30 718 O 62.9192 1.71622 -0.944595 0
M  V30 719 H 61.4992 -0.147928 -0.732206 0
M  V30 720 H 64.1612 -1.05067 -1.64155 0
M  V30 721 H 63.2572 -0.52601 -3.07635 0
M  V30 722 N 63.5583 1.46682 -0.576371 0
M  V30 723 C 64.7833 2.07304 -0.0630475 0
M  V30 724 C 65.2083 1.42329 1.2298 0
M  V30 725 O 64.5663 0.504865 1.74129 0
M  V30 726 C 64.6143 3.60472 0.095895 0
M  V30 727 O 63.7183 3.95927 1.15394 0
M  V30 728 H 63.0593 0.661288 -0.0599463 0
M  V30 729 H 65.5893 1.88417 -0.797511 0
M  V30 730 H 65.5993 4.06865 0.304071 0
M  V30 731 H 64.2743 4.07157 -0.84828 0
M  V30 732 H 62.8513 3.61252 0.924724 0
M  V30 733 N 65.0364 0.313813 1.54444 0
M  V30 734 C 66.2844 -0.291099 1.99993 0
M  V30 735 C 66.6054 -1.53418 1.20366 0
M  V30 736 O 65.8754 -1.93544 0.302927 0
M  V30 737 H 64.4554 -0.110552 0.738774 0
M  V30 738 H 67.1174 0.428106 1.9014 0
M  V30 739 H 66.2134 -0.554268 3.07139 0
M  V30 740 N 66.5145 -1.57545 0.0417849 0
M  V30 741 C 67.7915 -1.83642 -0.673433 0
M  V30 742 C 68.1715 -0.928298 -1.89594 0
M  V30 743 O 67.5195 0.0129955 -2.28496 0
M  V30 744 C 67.7295 -3.33155 -1.03964 0
M  V30 745 C 69.0775 -3.99941 -1.42592 0
M  V30 746 O 70.1015 -3.37725 -1.13226 0
M  V30 747 O 68.9605 -5.09619 -1.9736 0
M  V30 748 H 66.0545 -0.757638 -0.331533 0
M  V30 749 H 68.6005 -1.69554 0.070433 0
M  V30 750 H 67.3725 -3.9093 -0.170098 0
M  V30 751 H 66.9955 -3.52396 -1.84126 0
M  V30 752 N 67.9926 0.231505 -1.5589 0
M  V30 753 C 69.2176 0.978689 -1.82856 0
M  V30 754 C 69.6426 1.77559 -0.620846 0
M  V30 755 O 69.0006 1.76119 0.430305 0
M  V30 756 C 69.0486 1.87997 -3.07716 0
M  V30 757 O 68.1526 2.97393 -2.85712 0
M  V30 758 H 67.4936 0.277663 -0.603158 0
M  V30 759 H 70.0236 0.24783 -2.03093 0
M  V30 760 H 70.0336 2.2917 -3.37558 0
M  V30 761 H 68.7086 1.29417 -3.95252 0
M  V30 762 H 67.2856 2.60238 -2.67078 0
M  V30 763 N 69.4707 1.49531 0.497807 0
M  V30 764 C 70.7177 1.59179 1.25173 0
M  V30 765 C 71.0457 0.279932 1.92475 0
M  V30 766 O 70.3007 -0.732383 1.81479 0
M  V30 767 C 70.5997 2.70252 2.33878 0
M  V30 768 C 70.2657 4.11644 1.84012 0
M  V30 769 C 68.9277 4.50121 1.70132 0
M  V30 770 C 71.2797 5.00121 1.46725 0
M  V30 771 C 68.6077 5.74845 1.17348 0
M  V30 772 C 70.9597 6.25366 0.95392 0
M  V30 773 C 69.6237 6.6267 0.801538 0
M  V30 774 H 68.8937 0.582478 0.45804 0
M  V30 775 H 71.5407 1.83373 0.551948 0
M  V30 776 H 69.8457 2.40041 3.09657 0
M  V30 777 H 71.5427 2.74925 2.9192 0
M  V30 778 H 68.1327 3.81274 1.95775 0
M  V30 779 H 72.3167 4.71048 1.56294 0
M  V30 780 H 67.5727 6.02444 1.04264 0
M  V30 781 H 71.7467 6.93301 0.656225 0
M  V30 782 H 69.3737 7.59197 0.390351 0
M  V30 783 N 70.9488 -0.749086 1.3866 0
M  V30 784 C 72.2258 -1.4992 1.25632 0
M  V30 785 C 72.6058 -2.10633 -0.140317 0
M  V30 786 O 71.9538 -1.97437 -1.15025 0
M  V30 787 C 72.1638 -2.56195 2.36992 0
M  V30 788 C 73.5118 -3.22972 2.75634 0
M  V30 789 O 74.5358 -2.66502 2.36337 0
M  V30 790 O 73.3948 -4.25122 3.43415 0
M  V30 791 H 70.4888 -0.665067 0.491544 0
M  V30 792 H 73.0348 -0.784113 1.50498 0
M  V30 793 H 71.8068 -2.09612 3.30422 0
M  V30 794 H 71.4298 -3.35279 2.13714 0
M  V30 795 N 72.4269 -1.23603 -0.977757 0
M  V30 796 C 73.6739 -1.06971 -1.71941 0
M  V30 797 C 74.0019 0.393009 -1.90488 0
M  V30 798 O 73.2569 1.30719 -1.4564 0
M  V30 799 C 73.5559 -1.7433 -3.11999 0
M  V30 800 C 73.2219 -3.24252 -3.13323 0
M  V30 801 C 71.8839 -3.65156 -3.13392 0
M  V30 802 C 74.2359 -4.20141 -3.08433 0
M  V30 803 C 71.5639 -5.00403 -3.0629 0
M  V30 804 C 73.9159 -5.55384 -3.02873 0
M  V30 805 C 72.5799 -5.95647 -3.01265 0
M  V30 806 H 71.8499 -0.391433 -0.629175 0
M  V30 807 H 74.4969 -1.53572 -1.14403 0
M  V30 808 H 72.8019 -1.20096 -3.7294 0
M  V30 809 H 74.4989 -1.58936 -3.68158 0
M  V30 810 H 71.0889 -2.91692 -3.14029 0
M  V30 811 H 75.2729 -3.89547 -3.07517 0
M  V30 812 H 70.5289 -5.3081 -3.03399 0
M  V30 813 H 74.7029 -6.29398 -2.98046 0
M  V30 814 H 72.3299 -7.0041 -2.95516 0
M  V30 815 N 73.905 1.17692 -1.04816 0
M  V30 816 C 75.321 1.39863 -0.768794 0
M  V30 817 C 75.521 1.91118 0.638451 0
M  V30 818 O 74.577 2.10036 1.40146 0
M  V30 819 C 75.89 2.39274 -1.82122 0
M  V30 820 C 77.438 2.52987 -1.843 0
M  V30 821 C 77.913 3.55669 -2.88555 0
M  V30 822 N 79.404 3.63183 -2.87493 0
M  V30 823 C 80.139 4.42381 -3.64811 0
M  V30 824 N 79.635 5.25125 -4.51903 0
M  V30 825 N 81.428 4.37217 -3.53267 0
M  V30 826 H 73.579 0.82752 -1.95617 0
M  V30 827 H 75.842 0.426123 -0.846831 0
M  V30 828 H 75.548 2.08678 -2.83102 0
M  V30 829 H 75.422 3.38725 -1.65967 0
M  V30 830 H 77.809 2.82896 -0.839869 0
M  V30 831 H 77.89 1.53623 -2.04532 0
M  V30 832 H 77.534 3.26499 -3.89051 0
M  V30 833 H 77.464 4.54728 -2.65575 0
M  V30 834 H 79.955 3.04103 -2.24343 0
M  V30 835 H 80.268 5.82728 -5.07591 0
M  V30 836 H 78.613 5.24519 -4.55966 0
M  V30 837 H 81.804 3.71626 -2.84625 0
M  V30 838 H 81.977 4.98696 -4.13771 0
M  V30 839 N 75.3831 0.828654 1.34056 0
M  V30 840 C 76.3311 0.242973 2.31327 0
M  V30 841 C 77.3251 -0.61944 1.57668 0
M  V30 842 O 78.5311 -0.51014 1.7262 0
M  V30 843 H 74.9061 0.059834 0.749616 0
M  V30 844 H 76.8771 1.07809 2.78244 0
M  V30 845 C 75.6261 -0.575733 3.429 0
M  V30 846 H 74.9491 0.0785582 3.99723 0
M  V30 847 H 76.3891 -0.951547 4.13185 0
M  V30 848 C 74.8481 -1.75044 2.87856 0
M  V30 849 O 75.3781 -2.84882 2.83205 0
M  V30 850 N 73.5841 -1.56903 2.44602 0
M  V30 851 H 73.1311 -0.675547 2.48584 0
M  V30 852 H 73.0891 -2.35652 2.08124 0
M  V30 853 N 76.8612 -1.46375 0.584142 0
M  V30 854 C 77.8082 -2.30323 -0.148286 0
M  V30 855 C 78.7782 -1.40703 -0.882713 0
M  V30 856 O 79.9632 -1.69651 -0.873099 0
M  V30 857 C 77.1032 -3.25196 -1.15507 0
M  V30 858 C 76.2162 -4.29915 -0.423943 0
M  V30 859 C 75.3512 -5.11914 -1.41838 0
M  V30 860 C 74.3902 -6.08381 -0.673736 0
M  V30 861 N 73.5272 -6.83242 -1.6163 0
M  V30 862 H 78.3672 -2.92427 0.573644 0
M  V30 863 H 75.9042 -1.44118 0.294703 0
M  V30 864 H 77.8622 -3.78646 -1.75166 0
M  V30 865 H 76.4922 -2.64898 -1.8447 0
M  V30 866 H 75.5442 -3.7931 0.287714 0
M  V30 867 H 76.8562 -4.98549 0.158128 0
M  V30 868 H 76.0102 -5.69648 -2.08773 0
M  V30 869 H 74.7492 -4.43243 -2.03438 0
M  V30 870 H 73.7542 -5.49799 0.00938483 0
M  V30 871 H 74.9792 -6.79071 -0.0631082 0
M  V30 872 H 72.9252 -6.1728 -2.22038 0
M  V30 873 H 72.8422 -7.48144 -1.08707 0
M  V30 874 H 74.1102 -7.45534 -2.27596 0
M  V30 875 N 78.3393 -0.321999 -1.54275 0
M  V30 876 C 79.7553 0.0306999 -1.5957 0
M  V30 877 C 79.9553 1.50614 -1.33857 0
M  V30 878 O 79.0113 2.2619 -1.12223 0
M  V30 879 C 80.3243 -0.386122 -2.98211 0
M  V30 880 C 81.8723 -0.336647 -3.11184 0
M  V30 881 C 82.3473 -0.728607 -4.52167 0
M  V30 882 N 83.8383 -0.681952 -4.58152 0
M  V30 883 C 84.5733 -0.957449 -5.6535 0
M  V30 884 N 84.0693 -1.3 -6.80494 0
M  V30 885 N 85.8623 -0.883113 -5.55119 0
M  V30 886 H 78.0133 -1.28332 -1.69247 0
M  V30 887 H 80.2763 -0.521716 -0.791528 0
M  V30 888 H 79.9823 -1.41404 -3.22022 0
M  V30 889 H 79.8563 0.249662 -3.76373 0
M  V30 890 H 82.2433 0.682058 -2.8711 0
M  V30 891 H 82.3243 -1.00734 -2.3513 0
M  V30 892 H 81.9683 -1.74522 -4.76974 0
M  V30 893 H 81.8983 -0.0356152 -5.26588 0
M  V30 894 H 84.3893 -0.428985 -3.75457 0
M  V30 895 H 84.7023 -1.49563 -7.58189 0
M  V30 896 H 83.0473 -1.33824 -6.81994 0
M  V30 897 H 86.2383 -0.615001 -4.64042 0
M  V30 898 H 86.4113 -1.10118 -6.38575 0
M  V30 899 N 79.8174 1.5752 -0.0501392 0
M  V30 900 C 81.0454 1.96963 0.633492 0
M  V30 901 C 81.4604 0.927631 1.6444 0
M  V30 902 O 80.8174 -0.0882665 1.82286 0
M  V30 903 C 80.8684 3.36487 1.32132 0
M  V30 904 O 80.5894 4.36693 0.350894 0
M  V30 905 C 82.0904 3.90682 2.09481 0
M  V30 906 H 79.3104 0.648244 0.173266 0
M  V30 907 H 81.8544 2.0417 -0.116134 0
M  V30 908 H 80.0094 3.30434 2.02218 0
M  V30 909 H 80.4234 5.17702 0.841735 0
M  V30 910 H 81.8974 4.90591 2.5303 0
M  V30 911 H 82.3744 3.26053 2.94255 0
M  V30 912 H 82.9804 4.00069 1.44307 0
M  V30 913 N 81.2955 -0.223234 1.56011 0
M  V30 914 C 82.2255 -1.27988 1.95298 0
M  V30 915 C 83.2065 -1.48976 0.820979 0
M  V30 916 O 84.3915 -1.61188 1.08315 0
M  V30 917 C 81.5215 -2.63 2.26822 0
M  V30 918 C 80.4755 -2.56671 3.42497 0
M  V30 919 C 79.8015 -3.95697 3.59622 0
M  V30 920 C 81.1015 -2.11601 4.77517 0
M  V30 921 H 82.7955 -0.953525 2.8381 0
M  V30 922 H 80.3415 -0.457244 1.36548 0
M  V30 923 H 82.2945 -3.37077 2.52898 0
M  V30 924 H 81.0185 -2.9732 1.35161 0
M  V30 925 H 79.6775 -1.85051 3.16467 0
M  V30 926 H 79.3255 -4.27322 2.6534 0
M  V30 927 H 79.0255 -3.92345 4.37424 0
M  V30 928 H 80.5495 -4.71438 3.88044 0
M  V30 929 H 81.9635 -2.7542 5.02809 0
M  V30 930 H 80.3605 -2.19311 5.5859 0
M  V30 931 H 81.4305 -1.06824 4.72987 0
M  V30 932 N 82.7736 -1.49793 -0.48987 0
M  V30 933 C 83.7366 -1.66752 -1.57246 0
M  V30 934 C 84.7366 -0.538867 -1.51502 0
M  V30 935 O 85.9266 -0.805545 -1.54456 0
M  V30 936 C 83.0586 -1.67528 -2.96896 0
M  V30 937 H 84.2516 -2.63321 -1.43534 0
M  V30 938 H 81.8046 -1.38992 -0.714914 0
M  V30 939 H 82.5396 -0.725837 -3.16073 0
M  V30 940 H 82.3246 -2.49504 -3.02473 0
M  V30 941 H 83.8146 -1.82667 -3.7553 0
M  V30 942 N 84.2517 0.741722 -1.39055 0
M  V30 943 C 85.1837 1.8657 -1.33133 0
M  V30 944 C 86.1967 1.61001 -0.241329 0
M  V30 945 O 87.3857 1.7136 -0.499784 0
M  V30 946 C 84.4857 3.22457 -1.04283 0
M  V30 947 C 83.6587 3.75435 -2.24427 0
M  V30 948 C 82.7177 4.89867 -1.92138 0
M  V30 949 O 81.7437 5.03879 -2.64754 0
M  V30 950 N 82.9457 5.73738 -0.88347 0
M  V30 951 H 85.7107 1.92156 -2.29991 0
M  V30 952 H 83.2717 0.922172 -1.3307 0
M  V30 953 H 85.2637 3.9657 -0.807128 0
M  V30 954 H 83.8337 3.12181 -0.161807 0
M  V30 955 H 83.0537 2.92751 -2.6399 0
M  V30 956 H 84.3417 4.07563 -3.04581 0
M  V30 957 H 83.7397 5.64999 -0.281517 0
M  V30 958 H 82.2967 6.47947 -0.707662 0
M  V30 959 N 85.7298 1.2412 0.971189 0
M  V30 960 C 86.6768 1.0305 2.06517 0
M  V30 961 C 87.6468 -0.0550666 1.66009 0
M  V30 962 O 88.8318 0.0988688 1.90544 0
M  V30 963 C 85.9718 0.637653 3.39158 0
M  V30 964 C 85.0848 1.79633 3.92882 0
M  V30 965 C 84.2198 1.34939 5.13775 0
M  V30 966 C 83.2588 2.47823 5.59687 0
M  V30 967 N 82.3958 2.04022 6.71803 0
M  V30 968 H 87.2358 1.96685 2.23873 0
M  V30 969 H 84.7728 0.979694 1.09729 0
M  V30 970 H 86.7308 0.390931 4.15364 0
M  V30 971 H 85.3608 -0.261693 3.21737 0
M  V30 972 H 84.4128 2.15681 3.13346 0
M  V30 973 H 85.7248 2.64466 4.22918 0
M  V30 974 H 84.8788 1.06134 5.97345 0
M  V30 975 H 83.6178 0.471557 4.85415 0
M  V30 976 H 82.6228 2.77392 4.74693 0
M  V30 977 H 83.8478 3.36158 5.90063 0
M  V30 978 H 81.7938 1.18632 6.45184 0
M  V30 979 H 81.7108 2.82409 7.01271 0
M  V30 980 H 82.9788 1.78347 7.58823 0
M  V30 981 N 87.2079 -1.17134 1.05439 0
M  V30 982 C 88.1399 -2.2078 0.615539 0
M  V30 983 C 89.1529 -1.59584 -0.322001 0
M  V30 984 O 90.3419 -1.78133 -0.114344 0
M  V30 985 C 87.4419 -3.38691 -0.118938 0
M  V30 986 C 86.6149 -4.29454 0.829924 0
M  V30 987 C 85.6739 -5.26024 0.136258 0
M  V30 988 O 84.6999 -5.63952 0.77115 0
M  V30 989 N 85.9019 -5.69487 -1.1254 0
M  V30 990 H 88.6669 -2.59052 1.50705 0
M  V30 991 H 86.2279 -1.32058 0.936603 0
M  V30 992 H 88.2199 -4.00329 -0.593179 0
M  V30 993 H 86.7899 -2.98996 -0.91215 0
M  V30 994 H 86.0099 -3.65211 1.48373 0
M  V30 995 H 87.2979 -4.86984 1.47392 0
M  V30 996 H 86.6959 -5.4075 -1.6615 0
M  V30 997 H 85.2529 -6.33257 -1.54366 0
M  V30 998 N 88.686 -0.835752 -1.33615 0
M  V30 999 C 89.636 -0.238856 -2.26745 0
M  V30 1000 C 90.62 0.604343 -1.49119 0
M  V30 1001 O 91.812 0.456822 -1.71003 0
M  V30 1002 C 88.941 0.587725 -3.38232 0
M  V30 1003 C 88.027 -0.266811 -4.2326 0
M  V30 1004 N 88.418 -1.34403 -4.87616 0
M  V30 1005 C 86.716 -0.0533131 -4.45968 0
M  V30 1006 C 87.417 -1.86819 -5.50884 0
M  V30 1007 N 86.393 -1.17013 -5.30857 0
M  V30 1008 H 90.195 -1.06266 -2.74016 0
M  V30 1009 H 87.709 -0.679881 -1.47483 0
M  V30 1010 H 89.706 1.03161 -4.03935 0
M  V30 1011 H 88.366 1.40954 -2.9251 0
M  V30 1012 H 89.377 -1.7269 -4.88261 0
M  V30 1013 H 86.054 0.735312 -4.10974 0
M  V30 1014 H 87.444 -2.7701 -6.1214 0
M  V30 1015 N 90.1641 1.46063 -0.591896 0
M  V30 1016 C 91.0741 2.34192 0.13831 0
M  V30 1017 C 92.0901 1.50305 0.876608 0
M  V30 1018 O 93.2661 1.8315 0.837728 0
M  V30 1019 C 90.3311 3.27656 1.13326 0
M  V30 1020 C 89.3921 4.27445 0.39863 0
M  V30 1021 C 88.6251 5.16443 1.34618 0
M  V30 1022 O 88.8481 5.08553 2.58321 0
M  V30 1023 O 87.7821 5.95843 0.851768 0
M  V30 1024 H 91.6081 2.98002 -0.58552 0
M  V30 1025 H 89.1931 1.45188 -0.352239 0
M  V30 1026 H 91.0751 3.85291 1.70671 0
M  V30 1027 H 89.7501 2.6643 1.83839 0
M  V30 1028 H 88.6571 3.73471 -0.216895 0
M  V30 1029 H 89.9901 4.91482 -0.265709 0
M  V30 1030 N 91.6422 0.330177 1.54103 0
M  V30 1031 C 92.5922 -0.548456 2.21305 0
M  V30 1032 C 93.5762 -1.07651 1.19583 0
M  V30 1033 O 94.7682 -1.01243 1.45186 0
M  V30 1034 C 91.8972 -1.70559 2.97934 0
M  V30 1035 C 90.9832 -1.19212 4.07 0
M  V30 1036 N 91.3742 -0.398831 5.04225 0
M  V30 1037 C 89.6722 -1.47024 4.2107 0
M  V30 1038 C 90.3732 -0.121761 5.81573 0
M  V30 1039 N 89.3492 -0.709722 5.38947 0
M  V30 1040 H 93.1512 0.0648483 2.93828 0
M  V30 1041 H 90.6652 0.136363 1.61826 0
M  V30 1042 H 92.6622 -2.34688 3.44568 0
M  V30 1043 H 91.3222 -2.32231 2.26934 0
M  V30 1044 H 92.3332 -0.0410869 5.17884 0
M  V30 1045 H 89.0102 -2.09232 3.61287 0
M  V30 1046 H 90.4002 0.517298 6.69906 0
M  V30 1047 N 93.1203 -1.57491 0.0584922 0
M  V30 1048 C 94.0703 -2.08474 -0.923188 0
M  V30 1049 C 95.0543 -0.991479 -1.26722 0
M  V30 1050 O 96.2463 -1.25473 -1.24842 0
M  V30 1051 C 93.3753 -2.6392 -2.19548 0
M  V30 1052 C 92.4613 -3.80227 -1.87852 0
M  V30 1053 N 92.8523 -4.89714 -1.26546 0
M  V30 1054 C 91.1503 -3.89271 -2.17679 0
M  V30 1055 C 91.8513 -5.70689 -1.12644 0
M  V30 1056 N 90.8273 -5.18531 -1.63176 0
M  V30 1057 H 94.6293 -2.90517 -0.444653 0
M  V30 1058 H 92.1433 -1.61745 -0.145764 0
M  V30 1059 H 94.1403 -2.98752 -2.9078 0
M  V30 1060 H 92.8003 -1.83318 -2.68001 0
M  V30 1061 H 93.8113 -5.09358 -0.936757 0
M  V30 1062 H 90.4883 -3.19623 -2.68602 0
M  V30 1063 H 91.8783 -6.6875 -0.6499 0
M  V30 1064 N 94.5984 0.214957 -1.56127 0
M  V30 1065 C 95.5484 1.27006 -1.8935 0
M  V30 1066 C 96.5324 1.41969 -0.757202 0
M  V30 1067 O 97.7244 1.44673 -1.01973 0
M  V30 1068 C 94.8534 2.61911 -2.2194 0
M  V30 1069 C 93.9394 2.50822 -3.41978 0
M  V30 1070 N 94.3304 2.09391 -4.60423 0
M  V30 1071 C 92.6284 2.81765 -3.45723 0
M  V30 1072 C 93.3294 2.09712 -5.42582 0
M  V30 1073 N 92.3054 2.50454 -4.82466 0
M  V30 1074 H 96.1074 0.940734 -2.78437 0
M  V30 1075 H 93.6214 0.423492 -1.56781 0
M  V30 1076 H 95.6184 3.38096 -2.43919 0
M  V30 1077 H 94.2784 2.95684 -1.34169 0
M  V30 1078 H 95.2894 1.80416 -4.85459 0
M  V30 1079 H 91.9664 3.19865 -2.68314 0
M  V30 1080 H 93.3564 1.79748 -6.4741 0
M  V30 1081 N 96.0765 1.50051 0.48192 0
M  V30 1082 C 97.0265 1.64512 1.5786 0
M  V30 1083 C 98.0105 0.500073 1.52932 0
M  V30 1084 O 99.2025 0.753964 1.60139 0
M  V30 1085 C 96.3315 1.73263 2.9637 0
M  V30 1086 C 95.4175 2.93409 3.06222 0
M  V30 1087 N 95.8085 4.17236 2.85915 0
M  V30 1088 C 94.1065 2.91742 3.37346 0
M  V30 1089 C 94.8075 4.981 3.00451 0
M  V30 1090 N 93.7835 4.3184 3.30174 0
M  V30 1091 H 97.5855 2.57955 1.40842 0
M  V30 1092 H 95.0995 1.47086 0.688439 0
M  V30 1093 H 97.0965 1.81724 3.75209 0
M  V30 1094 H 95.7565 0.809711 3.14442 0
M  V30 1095 H 96.7675 4.46909 2.6171 0
M  V30 1096 H 93.4445 2.08907 3.61475 0
M  V30 1097 H 94.8345 6.06532 2.89082 0
M  V30 1098 N 97.5546 -0.734337 1.39446 0
M  V30 1099 C 98.5046 -1.83949 1.34709 0
M  V30 1100 C 99.4886 -1.59279 0.227851 0
M  V30 1101 O 100.681 -1.70771 0.465438 0
M  V30 1102 C 97.8096 -3.21884 1.19356 0
M  V30 1103 C 96.8956 -3.52381 2.35984 0
M  V30 1104 N 97.2866 -3.53811 3.61457 0
M  V30 1105 C 95.5846 -3.82747 2.28956 0
M  V30 1106 C 96.2856 -3.82122 4.38586 0
M  V30 1107 N 95.2616 -3.9993 3.68181 0
M  V30 1108 H 99.0636 -1.83361 2.29687 0
M  V30 1109 H 96.5776 -0.932609 1.32952 0
M  V30 1110 H 98.5746 -4.00998 1.14046 0
M  V30 1111 H 97.2346 -3.23711 0.253295 0
M  V30 1112 H 98.2456 -3.35107 3.94872 0
M  V30 1113 H 94.9226 -3.92175 1.43194 0
M  V30 1114 H 96.3126 -3.89691 5.47349 0
M  V30 1115 N 99.0327 -1.24633 -0.964593 0
M  V30 1116 C 99.9827 -1.00841 -2.04487 0
M  V30 1117 C 100.967 0.0512468 -1.60818 0
M  V30 1118 O 102.159 -0.162865 -1.76249 0
M  V30 1119 C 99.2877 -0.618474 -3.37683 0
M  V30 1120 C 98.3737 -1.71437 -3.87905 0
M  V30 1121 N 98.7647 -2.9477 -4.11029 0
M  V30 1122 C 97.0627 -1.5926 -4.16596 0
M  V30 1123 C 97.7637 -3.65834 -4.52261 0
M  V30 1124 N 96.7397 -2.9341 -4.57615 0
M  V30 1125 H 100.542 -1.94487 -2.20345 0
M  V30 1126 H 98.0557 -1.14805 -1.14863 0
M  V30 1127 H 100.053 -0.429247 -4.14684 0
M  V30 1128 H 98.7127 0.310766 -3.23209 0
M  V30 1129 H 99.7237 -3.30917 -3.9839 0
M  V30 1130 H 96.4007 -0.731606 -4.1104 0
M  V30 1131 H 97.7907 -4.71646 -4.78539 0
M  V30 1132 N 100.511 1.16574 -1.06058 0
M  V30 1133 C 101.461 2.18854 -0.63929 0
M  V30 1134 C 102.445 1.57505 0.328798 0
M  V30 1135 O 103.637 1.76408 0.144623 0
M  V30 1136 C 100.766 3.43291 -0.0247203 0
M  V30 1137 C 99.8518 4.11722 -1.01716 0
M  V30 1138 N 100.243 4.55841 -2.19186 0
M  V30 1139 C 98.5408 4.37872 -0.847569 0
M  V30 1140 C 99.2418 5.08751 -2.82042 0
M  V30 1141 N 98.2178 5.01489 -2.09784 0
M  V30 1142 H 102.02 2.5068 -1.53417 0
M  V30 1143 H 99.5338 1.32999 -0.931935 0
M  V30 1144 H 101.531 4.15856 0.294915 0
M  V30 1145 H 100.191 3.12954 0.865448 0
M  V30 1146 H 101.202 4.49649 -2.56975 0
M  V30 1147 H 97.8788 4.17499 -0.00918848 0
M  V30 1148 H 99.2688 5.52944 -3.81709 0
M  V30 1149 N 101.989 0.842826 1.3317 0
M  V30 1150 C 102.921 0.236245 2.27979 0
M  V30 1151 C 103.934 -0.585282 1.51915 0
M  V30 1152 O 105.123 -0.411705 1.73687 0
M  V30 1153 C 102.223 -0.685717 3.3189 0
M  V30 1154 C 101.396 0.0973448 4.37292 0
M  V30 1155 C 100.455 -0.748565 5.20848 0
M  V30 1156 O 99.4809 -0.186339 5.68895 0
M  V30 1157 N 100.683 -2.06527 5.42519 0
M  V30 1158 H 103.448 1.05088 2.80672 0
M  V30 1159 H 101.009 0.701667 1.45905 0
M  V30 1160 H 103.001 -1.25669 3.84694 0
M  V30 1161 H 101.571 -1.40105 2.79445 0
M  V30 1162 H 100.791 0.849706 3.84933 0
M  V30 1163 H 102.079 0.635643 5.04814 0
M  V30 1164 H 101.477 -2.54554 5.05192 0
M  V30 1165 H 100.034 -2.58464 5.98364 0
M  V30 1166 N 103.467 -1.45747 0.599634 0
M  V30 1167 C 104.417 -2.27538 -0.145107 0
M  V30 1168 C 105.401 -1.3686 -0.846055 0
M  V30 1169 O 106.593 -1.6091 -0.737357 0
M  V30 1170 C 103.722 -3.23569 -1.14708 0
M  V30 1171 C 102.808 -4.21734 -0.447383 0
M  V30 1172 N 103.199 -5.03257 0.506535 0
M  V30 1173 C 101.497 -4.40536 -0.695966 0
M  V30 1174 C 102.198 -5.74426 0.917068 0
M  V30 1175 N 101.174 -5.42966 0.26253 0
M  V30 1176 H 104.976 -2.87965 0.587672 0
M  V30 1177 H 102.49 -1.56803 0.422697 0
M  V30 1178 H 104.487 -3.8089 -1.69495 0
M  V30 1179 H 103.147 -2.64702 -1.8805 0
M  V30 1180 H 104.158 -5.10319 0.882899 0
M  V30 1181 H 100.835 -3.92802 -1.41467 0
M  V30 1182 H 102.225 -6.4995 1.70338 0
M  V30 1183 N 104.945 -0.338344 -1.53925 0
M  V30 1184 C 105.877 0.555117 -2.22376 0
M  V30 1185 C 106.89 1.06812 -1.22862 0
M  V30 1186 O 108.079 0.979163 -1.49247 0
M  V30 1187 C 105.179 1.77609 -2.88631 0
M  V30 1188 C 104.352 1.39927 -4.14414 0
M  V30 1189 C 103.411 2.47936 -4.64127 0
M  V30 1190 O 102.437 2.11461 -5.28463 0
M  V30 1191 N 103.639 3.79107 -4.39612 0
M  V30 1192 H 106.404 -0.0310778 -2.99684 0
M  V30 1193 H 103.965 -0.162226 -1.61085 0
M  V30 1194 H 105.957 2.49287 -3.18807 0
M  V30 1195 H 104.527 2.26978 -2.14941 0
M  V30 1196 H 103.747 0.513481 -3.90841 0
M  V30 1197 H 105.035 1.12341 -4.96243 0
M  V30 1198 H 104.433 4.11531 -3.88148 0
M  V30 1199 H 102.99 4.4697 -4.74406 0
M  V30 1200 N 106.423 1.57458 -0.0668435 0
M  V30 1201 C 107.373 2.0896 0.912119 0
M  V30 1202 C 108.357 0.998186 1.26195 0
M  V30 1203 O 109.549 1.26133 1.24175 0
M  V30 1204 C 106.678 2.6508 2.18145 0
M  V30 1205 C 105.764 3.81218 1.85832 0
M  V30 1206 N 106.155 4.90378 1.23948 0
M  V30 1207 C 104.453 3.9042 2.15612 0
M  V30 1208 C 105.154 5.71279 1.09616 0
M  V30 1209 N 104.13 5.19389 1.60423 0
M  V30 1210 H 107.932 2.90749 0.42924 0
M  V30 1211 H 105.446 1.6182 0.137184 0
M  V30 1212 H 107.443 3.0029 2.89192 0
M  V30 1213 H 106.103 1.84736 2.67025 0
M  V30 1214 H 107.114 5.09847 0.909731 0
M  V30 1215 H 103.791 3.21043 2.66903 0
M  V30 1216 H 105.181 6.69085 0.614425 0
M  V30 1217 N 107.901 -0.206675 1.56239 0
M  V30 1218 C 108.833 -1.27997 1.9013 0
M  V30 1219 C 109.846 -1.42299 0.790883 0
M  V30 1220 O 111.035 -1.42931 1.06925 0
M  V30 1221 C 108.135 -2.65368 2.10792 0
M  V30 1222 C 107.308 -2.72824 3.41886 0
M  V30 1223 C 106.367 -3.9131 3.51799 0
M  V30 1224 O 105.393 -3.78953 4.24716 0
M  V30 1225 N 106.595 -5.06265 2.84035 0
M  V30 1226 H 109.36 -0.992444 2.82791 0
M  V30 1227 H 106.921 -0.396652 1.56966 0
M  V30 1228 H 108.913 -3.43039 2.14724 0
M  V30 1229 H 107.483 -2.86657 1.24685 0
M  V30 1230 H 106.703 -1.81515 3.49923 0
M  V30 1231 H 107.991 -2.74786 4.28217 0
M  V30 1232 H 107.389 -5.19203 2.246 0
M  V30 1233 H 105.946 -5.81925 2.93609 0
M  V30 1234 N 109.379 -1.50304 -0.473955 0
M  V30 1235 C 110.329 -1.65347 -1.56985 0
M  V30 1236 C 111.313 -0.508176 -1.52664 0
M  V30 1237 O 112.505 -0.762446 -1.59737 0
M  V30 1238 C 109.634 -1.74832 -2.95447 0
M  V30 1239 C 108.72 -2.95028 -3.04662 0
M  V30 1240 N 109.111 -4.18747 -2.83698 0
M  V30 1241 C 107.409 -2.93527 -3.35795 0
M  V30 1242 C 108.11 -4.99687 -2.97805 0
M  V30 1243 N 107.086 -4.33585 -3.2788 0
M  V30 1244 H 110.888 -2.58698 -1.39472 0
M  V30 1245 H 108.402 -1.47449 -0.680629 0
M  V30 1246 H 110.399 -1.83712 -3.7424 0
M  V30 1247 H 109.059 -0.826376 -3.14008 0
M  V30 1248 H 110.07 -4.48291 -2.59337 0
M  V30 1249 H 106.747 -2.10821 -3.60362 0
M  V30 1250 H 108.137 -6.08057 -2.85861 0
M  V30 1251 N 110.857 0.726932 -1.39834 0
M  V30 1252 C 111.789 1.85147 -1.35104 0
M  V30 1253 C 112.802 1.60736 -0.258392 0
M  V30 1254 O 113.991 1.70821 -0.517931 0
M  V30 1255 C 111.091 3.21332 -1.07697 0
M  V30 1256 C 110.264 3.73033 -2.28396 0
M  V30 1257 C 109.323 4.87802 -1.97322 0
M  V30 1258 O 108.349 5.01043 -2.70083 0
M  V30 1259 N 109.551 5.72768 -0.944273 0
M  V30 1260 H 112.316 1.89706 -2.32017 0
M  V30 1261 H 109.877 0.908006 -1.3404 0
M  V30 1262 H 111.869 3.95691 -0.849144 0
M  V30 1263 H 110.439 3.11992 -0.194909 0
M  V30 1264 H 109.659 2.89934 -2.6708 0
M  V30 1265 H 110.947 4.0431 -3.08887 0
M  V30 1266 H 110.345 5.64669 -0.341427 0
M  V30 1267 H 108.902 6.4716 -0.776346 0
M  V30 1268 N 112.336 1.25143 0.95797 0
M  V30 1269 C 113.299 1.05321 2.03569 0
M  V30 1270 C 114.299 0.007152 1.60798 0
M  V30 1271 O 115.489 0.24903 1.72411 0
M  V30 1272 C 112.621 0.598394 3.35607 0
M  V30 1273 H 113.814 2.00986 2.22586 0
M  V30 1274 H 111.367 1.07502 1.13459 0
M  V30 1275 H 112.102 -0.361014 3.22284 0
M  V30 1276 H 111.887 1.35351 3.67998 0
M  V30 1277 H 113.377 0.48104 4.1482 0
M  V30 1278 N 113.814 -1.1601 1.06675 0
M  V30 1279 C 115.225 -1.68235 0.809565 0
M  V30 1280 C 115.576 -1.8454 -0.666303 0
M  V30 1281 O 114.701 -1.54374 -1.5165 0
M  V30 1282 C 115.296 -3.05585 1.46299 0
M  V30 1283 C 113.855 -3.54915 1.25349 0
M  V30 1284 C 113.002 -2.30804 1.53703 0
M  V30 1285 H 115.953 -1.00318 1.22971 0
M  V30 1286 H 115.974 -3.70174 0.880431 0
M  V30 1287 H 115.486 -2.93686 2.53713 0
M  V30 1288 H 113.587 -3.72067 0.199261 0
M  V30 1289 H 113.7 -4.36774 1.9689 0
M  V30 1290 H 112.064 -2.36007 0.957739 0
M  V30 1291 H 112.847 -2.21499 2.62284 0
M  V30 1292 N 115.292 -0.849877 -1.32721 0
M  V30 1293 C 116.242 -0.262892 -2.26479 0
M  V30 1294 C 117.226 0.588493 -1.49752 0
M  V30 1295 O 118.418 0.438659 -1.71478 0
M  V30 1296 C 115.547 0.551818 -3.38836 0
M  V30 1297 C 114.633 -0.311689 -4.22953 0
M  V30 1298 N 115.024 -1.39567 -4.86163 0
M  V30 1299 C 113.322 -0.100611 -4.45887 0
M  V30 1300 C 114.023 -1.92651 -5.48872 0
M  V30 1301 N 112.999 -1.22637 -5.29586 0
M  V30 1302 H 116.801 -1.09166 -2.72873 0
M  V30 1303 H 114.315 -0.695486 -1.46754 0
M  V30 1304 H 116.312 0.988713 -4.05006 0
M  V30 1305 H 114.972 1.37844 -2.93988 0
M  V30 1306 H 115.983 -1.77859 -4.86402 0
M  V30 1307 H 112.66 0.691681 -4.11731 0
M  V30 1308 H 114.05 -2.83487 -6.09167 0
M  V30 1309 N 116.77 1.45427 -0.607355 0
M  V30 1310 C 117.702 2.2871 0.149752 0
M  V30 1311 C 118.715 1.39937 0.831958 0
M  V30 1312 O 119.904 1.64313 0.697385 0
M  V30 1313 C 117.004 3.15673 1.23304 0
M  V30 1314 C 116.177 4.32722 0.637996 0
M  V30 1315 C 115.236 5.00895 1.61215 0
M  V30 1316 O 114.262 5.57697 1.13854 0
M  V30 1317 N 115.464 5.00159 2.94655 0
M  V30 1318 H 118.229 2.94328 -0.564882 0
M  V30 1319 H 115.79 1.55612 -0.446823 0
M  V30 1320 H 117.782 3.58144 1.88454 0
M  V30 1321 H 116.352 2.51965 1.8502 0
M  V30 1322 H 115.572 3.93734 -0.191572 0
M  V30 1323 H 116.86 5.08321 0.220665 0
M  V30 1324 H 116.258 4.553 3.35735 0
M  V30 1325 H 114.815 5.46495 3.55228 0
M  V30 1326 N 118.248 0.346503 1.53744 0
M  V30 1327 C 119.211 -0.496439 2.23759 0
M  V30 1328 C 120.211 -1.0252 1.2388 0
M  V30 1329 O 121.401 -0.913974 1.48297 0
M  V30 1330 C 118.533 -1.69187 2.95954 0
M  V30 1331 H 119.726 0.115952 2.99676 0
M  V30 1332 H 117.279 0.0978939 1.55993 0
M  V30 1333 H 118.014 -2.34288 2.24231 0
M  V30 1334 H 117.799 -1.31989 3.69217 0
M  V30 1335 H 119.289 -2.28969 3.49232 0
M  V30 1336 N 119.726 -1.57421 0.075193 0
M  V30 1337 C 120.676 -2.09441 -0.901025 0
M  V30 1338 C 121.66 -1.00486 -1.25663 0
M  V30 1339 O 122.852 -1.2679 -1.23504 0
M  V30 1340 C 119.981 -2.66233 -2.16737 0
M  V30 1341 C 119.067 -3.82198 -1.83808 0
M  V30 1342 N 119.458 -4.91028 -1.21345 0
M  V30 1343 C 117.756 -3.91558 -2.13538 0
M  V30 1344 C 118.457 -5.71852 -1.06585 0
M  V30 1345 N 117.433 -5.20233 -1.57667 0
M  V30 1346 H 121.235 -2.90972 -0.413815 0
M  V30 1347 H 118.749 -1.6189 -0.128601 0
M  V30 1348 H 120.746 -3.01819 -2.87595 0
M  V30 1349 H 119.406 -1.8615 -2.66042 0
M  V30 1350 H 120.417 -5.10323 -0.88268 0
M  V30 1351 H 117.094 -3.22454 -2.65197 0
M  V30 1352 H 118.484 -6.69401 -0.578933 0
M  V30 1353 N 121.204 0.198386 -1.56346 0
M  V30 1354 C 122.154 1.2499 -1.90687 0
M  V30 1355 C 123.138 1.41158 -0.772217 0
M  V30 1356 O 124.33 1.43584 -1.03502 0
M  V30 1357 C 121.459 2.59542 -2.24706 0
M  V30 1358 C 120.545 2.47181 -3.44619 0
M  V30 1359 N 120.936 2.04495 -4.62618 0
M  V30 1360 C 119.234 2.78082 -3.48692 0
M  V30 1361 C 119.935 2.03945 -5.44776 0
M  V30 1362 N 118.911 2.45323 -4.85095 0
M  V30 1363 H 122.713 0.911149 -2.7942 0
M  V30 1364 H 120.227 0.40684 -1.57221 0
M  V30 1365 H 122.224 3.3549 -2.47491 0
M  V30 1366 H 120.884 2.94244 -1.37298 0
M  V30 1367 H 121.895 1.75256 -4.87345 0
M  V30 1368 H 118.572 3.17002 -2.71691 0
M  V30 1369 H 119.962 1.72872 -6.4928 0
M  V30 1370 N 122.682 1.50554 0.465978 0
M  V30 1371 C 123.632 1.66177 1.56106 0
M  V30 1372 C 124.616 0.516265 1.52393 0
M  V30 1373 O 125.808 0.770906 1.5933 0
M  V30 1374 C 122.937 1.76396 2.94515 0
M  V30 1375 C 122.023 2.9664 3.03093 0
M  V30 1376 N 122.414 4.20245 2.81474 0
M  V30 1377 C 120.712 2.95304 3.34233 0
M  V30 1378 C 121.413 5.01259 2.95151 0
M  V30 1379 N 120.389 4.35318 3.25576 0
M  V30 1380 H 124.191 2.59434 1.38099 0
M  V30 1381 H 121.705 1.47808 0.6728 0
M  V30 1382 H 123.702 1.85694 3.73261 0
M  V30 1383 H 122.362 0.843017 3.13565 0
M  V30 1384 H 123.373 4.4966 2.56956 0
M  V30 1385 H 120.05 2.12729 3.59239 0
M  V30 1386 H 121.44 6.09564 2.82632 0
M  V30 1387 N 124.16 -0.719506 1.40217 0
M  V30 1388 C 125.11 -1.8251 1.36653 0
M  V30 1389 C 126.094 -1.59028 0.244732 0
M  V30 1390 O 127.286 -1.70268 0.483524 0
M  V30 1391 C 124.415 -3.20599 1.22763 0
M  V30 1392 C 123.501 -3.49858 2.39708 0
M  V30 1393 N 123.892 -3.49957 3.6519 0
M  V30 1394 C 122.19 -3.80297 2.33002 0
M  V30 1395 C 122.891 -3.77449 4.42614 0
M  V30 1396 N 121.867 -3.96002 3.72402 0
M  V30 1397 H 125.669 -1.80914 2.31619 0
M  V30 1398 H 123.183 -0.918455 1.33933 0
M  V30 1399 H 125.18 -3.99766 1.18292 0
M  V30 1400 H 123.84 -3.23424 0.287614 0
M  V30 1401 H 124.851 -3.309 3.98404 0
M  V30 1402 H 121.528 -3.90635 1.47346 0
M  V30 1403 H 122.918 -3.83863 5.51451 0
M  V30 1404 N 125.638 -1.25649 -0.95132 0
M  V30 1405 C 126.588 -1.03004 -2.03406 0
M  V30 1406 C 127.572 0.034187 -1.60864 0
M  V30 1407 O 128.764 -0.181549 -1.76066 0
M  V30 1408 C 125.893 -0.654255 -3.37008 0
M  V30 1409 C 124.979 -1.75542 -3.86065 0
M  V30 1410 N 125.37 -2.99113 -4.07879 0
M  V30 1411 C 123.668 -1.63669 -4.14884 0
M  V30 1412 C 124.369 -3.70611 -4.48356 0
M  V30 1413 N 123.345 -2.98247 -4.54477 0
M  V30 1414 H 127.147 -1.96813 -2.1827 0
M  V30 1415 H 124.661 -1.16017 -1.13639 0
M  V30 1416 H 126.658 -0.473206 -4.14206 0
M  V30 1417 H 125.318 0.276468 -3.23521 0
M  V30 1418 H 126.329 -3.35124 -3.94857 0
M  V30 1419 H 123.006 -0.775161 -4.10241 0
M  V30 1420 H 124.396 -4.76695 -4.73509 0
M  V30 1421 N 127.117 1.15442 -1.07289 0
M  V30 1422 C 128.067 2.18164 -0.662467 0
M  V30 1423 C 129.051 1.57845 0.312074 0
M  V30 1424 O 130.243 1.76552 0.125905 0
M  V30 1425 C 127.372 3.43246 -0.0611295 0
M  V30 1426 C 126.458 4.1062 -1.06077 0
M  V30 1427 N 126.849 4.53491 -2.24008 0
M  V30 1428 C 125.147 4.36949 -0.893964 0
M  V30 1429 C 125.848 5.05731 -2.87422 0
M  V30 1430 N 124.824 4.99236 -2.15091 0
M  V30 1431 H 128.626 2.49038 -1.56068 0
M  V30 1432 H 126.14 1.32003 -0.945988 0
M  V30 1433 H 128.137 4.16145 0.250792 0
M  V30 1434 H 126.797 3.13854 0.832207 0
M  V30 1435 H 127.808 4.46898 -2.6173 0
M  V30 1436 H 124.485 4.17466 -0.0534693 0
M  V30 1437 H 125.875 5.48865 -3.87553 0
M  V30 1438 N 128.595 0.856903 1.32268 0
M  V30 1439 C 129.843 0.460474 1.96784 0
M  V30 1440 C 130.164 -0.987701 1.68135 0
M  V30 1441 O 129.434 -1.69058 0.989765 0
M  V30 1442 H 128.014 0.167289 0.728027 0
M  V30 1443 H 130.676 1.09383 1.61312 0
M  V30 1444 H 129.772 0.60739 3.06133 0
M  V30 1445 N 130.073 -1.45103 0.615059 0
M  V30 1446 C 130.983 -2.34382 -0.101034 0
M  V30 1447 C 131.999 -1.51681 -0.852585 0
M  V30 1448 O 133.175 -1.8446 -0.808484 0
M  V30 1449 C 130.24 -3.29417 -1.08099 0
M  V30 1450 C 129.301 -4.28025 -0.330577 0
M  V30 1451 C 128.534 -5.1852 -1.26385 0
M  V30 1452 O 128.757 -5.12598 -2.50198 0
M  V30 1453 O 127.691 -5.97122 -0.756866 0
M  V30 1454 H 131.517 -2.97033 0.632855 0
M  V30 1455 H 129.102 -1.4461 0.375293 0
M  V30 1456 H 130.984 -3.87958 -1.6452 0
M  V30 1457 H 129.659 -2.69321 -1.79577 0
M  V30 1458 H 128.566 -3.73078 0.276283 0
M  V30 1459 H 129.899 -4.90997 0.343866 0
M  V30 1460 N 131.551 -0.354651 -1.53558 0
M  V30 1461 C 132.797 0.238797 -2.01389 0
M  V30 1462 C 133.13 1.49309 -1.2418 0
M  V30 1463 O 132.405 1.91638 -0.332457 0
M  V30 1464 C 132.688 0.541771 -3.56001 0
M  V30 1465 C 132.541 -0.725388 -4.43912 0
M  V30 1466 C 133.86 1.34685 -4.18984 0
M  V30 1467 H 130.979 0.0853177 -0.732045 0
M  V30 1468 H 133.621 -0.477384 -1.83905 0
M  V30 1469 H 131.771 1.15189 -3.71031 0
M  V30 1470 H 133.443 -1.36313 -4.407 0
M  V30 1471 H 131.686 -1.34801 -4.12324 0
M  V30 1472 H 132.357 -0.468505 -5.50008 0
M  V30 1473 H 134.833 0.830837 -4.07721 0
M  V30 1474 H 133.709 1.52759 -5.27215 0
M  V30 1475 H 133.97 2.35221 -3.74331 0
M  V30 1476 N 133.029 1.57378 -0.0835403 0
M  V30 1477 C 133.977 2.14602 0.89714 0
M  V30 1478 C 134.971 1.08589 1.30018 0
M  V30 1479 O 136.177 1.26952 1.27606 0
M  V30 1480 H 132.552 0.686346 0.3073 0
M  V30 1481 H 134.523 2.95845 0.38969 0
M  V30 1482 C 133.272 2.73188 2.15089 0
M  V30 1483 H 132.595 3.54442 1.84962 0
M  V30 1484 H 134.035 3.1681 2.81793 0
M  V30 1485 C 132.494 1.68517 2.91725 0
M  V30 1486 O 133.024 1.11718 3.85852 0
M  V30 1487 N 131.23 1.39277 2.55049 0
M  V30 1488 H 130.777 1.85655 1.78577 0
M  V30 1489 H 130.735 0.694791 3.06627 0
M  V30 1490 N 134.507 -0.190092 1.56449 0
M  V30 1491 C 135.457 -1.23977 1.91347 0
M  V30 1492 C 136.441 -1.40747 0.779693 0
M  V30 1493 O 137.633 -1.43033 1.04262 0
M  V30 1494 C 134.762 -2.58347 2.26079 0
M  V30 1495 C 133.848 -2.4535 3.45925 0
M  V30 1496 N 134.239 -2.02039 4.63696 0
M  V30 1497 C 132.537 -2.76229 3.50162 0
M  V30 1498 C 133.238 -2.01053 5.4585 0
M  V30 1499 N 132.214 -2.42747 4.8639 0
M  V30 1500 H 136.016 -0.896318 2.79899 0
M  V30 1501 H 133.53 -0.398496 1.57435 0
M  V30 1502 H 135.527 -3.34173 2.49267 0
M  V30 1503 H 134.187 -2.93512 1.38856 0
M  V30 1504 H 135.198 -1.7267 4.88268 0
M  V30 1505 H 131.875 -3.15556 2.73369 0
M  V30 1506 H 133.265 -1.69426 6.50188 0
M  V30 1507 N 135.985 -1.50799 -0.457987 0
M  V30 1508 C 136.917 -1.66786 -1.57211 0
M  V30 1509 C 137.93 -0.548962 -1.53265 0
M  V30 1510 O 139.119 -0.8226 -1.58416 0
M  V30 1511 C 136.219 -1.64834 -2.96113 0
M  V30 1512 C 135.392 -2.92971 -3.24787 0
M  V30 1513 C 134.451 -2.83485 -4.43309 0
M  V30 1514 O 133.477 -3.5744 -4.42973 0
M  V30 1515 N 134.679 -1.97929 -5.45714 0
M  V30 1516 H 137.444 -2.62889 -1.43909 0
M  V30 1517 H 135.005 -1.48427 -0.646617 0
M  V30 1518 H 136.997 -1.56084 -3.7339 0
M  V30 1519 H 135.567 -0.764118 -3.03117 0
M  V30 1520 H 134.787 -3.15749 -2.36 0
M  V30 1521 H 136.075 -3.77834 -3.40762 0
M  V30 1522 H 135.473 -1.37182 -5.48815 0
M  V30 1523 H 134.03 -1.95073 -6.21924 0
M  V30 1524 N 137.463 0.71206 -1.40597 0
M  V30 1525 C 138.426 1.80785 -1.40888 0
M  V30 1526 C 139.426 1.57937 -0.302103 0
M  V30 1527 O 140.616 1.64913 -0.561182 0
M  V30 1528 C 137.748 3.18927 -1.20409 0
M  V30 1529 H 138.941 1.81924 -2.38419 0
M  V30 1530 H 136.494 0.91805 -1.26497 0
M  V30 1531 H 137.229 3.23436 -0.236522 0
M  V30 1532 H 137.014 3.36911 -2.00582 0
M  V30 1533 H 138.504 3.98949 -1.23408 0
M  V30 1534 N 138.941 1.26152 0.944643 0
M  V30 1535 C 140.352 1.10454 1.50522 0
M  V30 1536 C 140.703 -0.31635 1.93633 0
M  V30 1537 O 139.828 -1.20746 1.79581 0
M  V30 1538 C 140.423 1.99891 2.73549 0
M  V30 1539 C 138.982 1.88348 3.25886 0
M  V30 1540 C 138.129 1.93447 1.9868 0
M  V30 1541 H 141.08 1.39292 0.760489 0
M  V30 1542 H 141.101 1.54477 3.47732 0
M  V30 1543 H 140.613 3.03297 2.42141 0
M  V30 1544 H 138.714 0.878636 3.62092 0
M  V30 1545 H 138.827 2.73696 3.93227 0
M  V30 1546 H 137.191 1.37456 2.14425 0
M  V30 1547 H 137.974 2.98476 1.69607 0
M  V30 1548 N 140.419 -1.14872 1.07899 0
M  V30 1549 C 141.351 -2.19425 0.662231 0
M  V30 1550 C 142.364 -1.60231 -0.288079 0
M  V30 1551 O 143.553 -1.78336 -0.076534 0
M  V30 1552 C 140.653 -3.38867 -0.0470695 0
M  V30 1553 C 139.826 -4.27597 0.920831 0
M  V30 1554 C 138.885 -5.25616 0.247805 0
M  V30 1555 O 137.911 -5.62189 0.890599 0
M  V30 1556 N 139.113 -5.71746 -1.00435 0
M  V30 1557 H 141.878 -2.55797 1.56166 0
M  V30 1558 H 139.439 -1.30042 0.964404 0
M  V30 1559 H 141.431 -4.01497 -0.50813 0
M  V30 1560 H 140.001 -3.00864 -0.848523 0
M  V30 1561 H 139.221 -3.61982 1.56087 0
M  V30 1562 H 140.509 -4.83748 1.57688 0
M  V30 1563 H 139.907 -5.44153 -1.54642 0
M  V30 1564 H 138.464 -6.36389 -1.40899 0
M  V30 1565 N 141.898 -0.863906 -1.31812 0
M  V30 1566 C 143.144 -0.472535 -1.97218 0
M  V30 1567 C 143.477 0.971394 -1.68159 0
M  V30 1568 O 142.752 1.68309 -0.974798 0
M  V30 1569 C 143.035 -0.723054 -3.52766 0
M  V30 1570 C 142.888 -2.21608 -3.91421 0
M  V30 1571 C 144.207 -0.185522 -4.39709 0
M  V30 1572 H 141.326 -0.173158 -0.71637 0
M  V30 1573 H 143.968 -1.08403 -1.56041 0
M  V30 1574 H 142.118 -0.202577 -3.87971 0
M  V30 1575 H 143.79 -2.80334 -3.66347 0
M  V30 1576 H 142.033 -2.691 -3.40246 0
M  V30 1577 H 142.704 -2.34203 -4.99853 0
M  V30 1578 H 145.18 -0.630726 -4.11292 0
M  V30 1579 H 144.056 -0.390306 -5.47511 0
M  V30 1580 H 144.317 0.912229 -4.32586 0
M  V30 1581 N 143.376 1.44774 -0.622745 0
M  V30 1582 C 144.326 2.2774 0.108889 0
M  V30 1583 C 145.31 1.38189 0.824175 0
M  V30 1584 O 146.502 1.62063 0.711664 0
M  V30 1585 C 143.631 3.25353 1.09546 0
M  V30 1586 C 142.717 4.22392 0.380232 0
M  V30 1587 N 143.108 5.02388 -0.586535 0
M  V30 1588 C 141.406 4.41588 0.625792 0
M  V30 1589 C 142.107 5.72894 -1.00834 0
M  V30 1590 N 141.083 5.42479 -0.348878 0
M  V30 1591 H 144.885 2.86993 -0.63341 0
M  V30 1592 H 142.399 1.5611 -0.447589 0
M  V30 1593 H 144.396 3.83538 1.63414 0
M  V30 1594 H 143.056 2.6766 1.83815 0
M  V30 1595 H 144.067 5.0885 -0.963975 0
M  V30 1596 H 140.744 3.95003 1.352 0
M  V30 1597 H 142.134 6.47158 -1.80656 0
M  V30 1598 N 144.854 0.36279 1.53368 0
M  V30 1599 C 145.786 -0.519668 2.23231 0
M  V30 1600 C 146.799 -1.04844 1.24546 0
M  V30 1601 O 147.988 -0.955296 1.50786 0
M  V30 1602 C 145.088 -1.72995 2.9142 0
M  V30 1603 C 144.261 -1.33316 4.16588 0
M  V30 1604 C 143.32 -2.40521 4.68013 0
M  V30 1605 O 142.346 -2.03027 5.3176 0
M  V30 1606 N 143.548 -3.72065 4.45587 0
M  V30 1607 H 146.313 0.078751 2.99597 0
M  V30 1608 H 143.874 0.187833 1.60807 0
M  V30 1609 H 145.866 -2.44184 3.22733 0
M  V30 1610 H 144.436 -2.2353 2.18525 0
M  V30 1611 H 143.656 -0.451236 3.91609 0
M  V30 1612 H 144.944 -1.04432 4.97967 0
M  V30 1613 H 144.342 -4.05304 3.94646 0
M  V30 1614 H 142.899 -4.39366 4.81457 0
M  V30 1615 N 146.332 -1.57332 0.0918853 0
M  V30 1616 C 147.264 -2.10869 -0.898168 0
M  V30 1617 C 148.277 -1.04521 -1.24817 0
M  V30 1618 O 149.466 -1.31977 -1.20184 0
M  V30 1619 C 146.566 -2.57083 -2.2082 0
M  V30 1620 C 145.739 -3.87229 -2.03402 0
M  V30 1621 C 144.798 -4.19324 -3.17889 0
M  V30 1622 O 143.824 -4.88598 -2.91994 0
M  V30 1623 N 145.026 -3.74471 -4.43567 0
M  V30 1624 H 147.791 -2.96439 -0.440943 0
M  V30 1625 H 145.352 -1.61631 -0.0933064 0
M  V30 1626 H 147.344 -2.75602 -2.96354 0
M  V30 1627 H 145.914 -1.76541 -2.57977 0
M  V30 1628 H 145.134 -3.7789 -1.12218 0
M  V30 1629 H 146.422 -4.72379 -1.89038 0
M  V30 1630 H 145.82 -3.18546 -4.67488 0
M  V30 1631 H 144.377 -3.98151 -5.16061 0
M  V30 1632 N 147.81 0.181792 -1.56548 0
M  V30 1633 C 149.056 0.901431 -1.81665 0
M  V30 1634 C 149.389 1.82347 -0.668075 0
M  V30 1635 O 148.664 1.91669 0.330615 0
M  V30 1636 C 148.947 1.70618 -3.17115 0
M  V30 1637 C 148.8 0.807964 -4.42484 0
M  V30 1638 C 150.119 2.67605 -3.49393 0
M  V30 1639 H 147.238 0.32627 -0.660846 0
M  V30 1640 H 149.88 0.168134 -1.89255 0
M  V30 1641 H 148.03 2.33133 -3.10775 0
M  V30 1642 H 149.702 0.19649 -4.60881 0
M  V30 1643 H 147.945 0.115411 -4.33646 0
M  V30 1644 H 148.616 1.40632 -5.33785 0
M  V30 1645 H 151.092 2.15218 -3.56118 0
M  V30 1646 H 149.968 3.20985 -4.45264 0
M  V30 1647 H 150.229 3.47298 -2.73563 0
M  V30 1648 N 149.288 1.51039 0.449983 0
M  V30 1649 C 150.238 1.67824 1.54335 0
M  V30 1650 C 151.222 0.5324 1.51836 0
M  V30 1651 O 152.414 0.787762 1.58503 0
M  V30 1652 C 149.543 1.7951 2.92628 0
M  V30 1653 C 148.629 2.99838 2.9993 0
M  V30 1654 N 149.02 4.23207 2.77001 0
M  V30 1655 C 147.318 2.98832 3.31082 0
M  V30 1656 C 148.019 5.04361 2.89818 0
M  V30 1657 N 146.995 4.38746 3.2094 0
M  V30 1658 H 150.797 2.60884 1.35339 0
M  V30 1659 H 148.311 1.48513 0.657085 0
M  V30 1660 H 150.308 1.89642 3.7127 0
M  V30 1661 H 148.968 0.876227 3.12654 0
M  V30 1662 H 149.979 4.5236 2.52172 0
M  V30 1663 H 146.656 2.16527 3.56963 0
M  V30 1664 H 148.046 6.12528 2.76151 0
M  V30 1665 N 150.766 -0.704594 1.40972 0
M  V30 1666 C 152.014 -1.46169 1.39568 0
M  V30 1667 C 152.335 -1.95 0.00253745 0
M  V30 1668 O 151.605 -1.71095 -0.954114 0
M  V30 1669 H 150.185 -0.542326 0.513704 0
M  V30 1670 H 152.847 -0.834553 1.76128 0
M  V30 1671 H 151.943 -2.32922 2.07735 0
M  V30 1672 N 152.244 -1.26651 -0.937939 0
M  V30 1673 C 153.176 -1.04283 -2.04102 0
M  V30 1674 C 154.189 -0.00221014 -1.628 0
M  V30 1675 O 155.378 -0.242645 -1.76843 0
M  V30 1676 C 152.478 -0.557846 -3.34277 0
M  V30 1677 C 151.651 -1.66843 -4.04329 0
M  V30 1678 C 150.71 -1.18095 -5.12777 0
M  V30 1679 O 149.736 -1.87865 -5.37304 0
M  V30 1680 N 150.938 -0.0311006 -5.80492 0
M  V30 1681 H 153.703 -1.9927 -2.23856 0
M  V30 1682 H 151.264 -1.1808 -1.10764 0
M  V30 1683 H 153.256 -0.215836 -4.04124 0
M  V30 1684 H 151.826 0.298523 -3.11171 0
M  V30 1685 H 151.046 -2.18123 -3.28353 0
M  V30 1686 H 152.334 -2.41408 -4.47883 0
M  V30 1687 H 151.732 0.551486 -5.63005 0
M  V30 1688 H 150.289 0.251809 -6.51313 0
M  V30 1689 N 153.722 1.14298 -1.08507 0
M  V30 1690 C 154.999 1.81544 -0.728088 0
M  V30 1691 C 155.379 1.95838 0.78808 0
M  V30 1692 O 154.727 1.51904 1.70697 0
M  V30 1693 C 154.937 3.17169 -1.45619 0
M  V30 1694 C 156.285 3.9265 -1.61591 0
M  V30 1695 O 157.309 3.26762 -1.41793 0
M  V30 1696 O 156.168 5.10807 -1.94263 0
M  V30 1697 H 153.262 0.78491 -0.260471 0
M  V30 1698 H 155.808 1.21307 -1.18671 0
M  V30 1699 H 154.58 3.01934 -2.489 0
M  V30 1700 H 154.203 3.851 -0.989124 0
M  V30 1701 N 155.201 0.870884 1.31352 0
M  V30 1702 C 156.133 0.28455 2.27427 0
M  V30 1703 C 157.146 -0.552927 1.53123 0
M  V30 1704 O 158.335 -0.374771 1.74521 0
M  V30 1705 C 155.435 -0.615164 3.3327 0
M  V30 1706 C 154.608 0.190079 4.36987 0
M  V30 1707 C 153.667 -0.637917 5.22319 0
M  V30 1708 O 152.693 -0.065626 5.69162 0
M  V30 1709 N 153.895 -1.94973 5.46778 0
M  V30 1710 H 156.66 1.11017 2.7838 0
M  V30 1711 H 154.221 0.732458 1.44384 0
M  V30 1712 H 156.213 -1.1748 3.87273 0
M  V30 1713 H 154.783 -1.34146 2.82354 0
M  V30 1714 H 154.003 0.931165 3.83044 0
M  V30 1715 H 155.291 0.742579 5.03352 0
M  V30 1716 H 154.689 -2.4378 5.10478 0
M  V30 1717 H 153.246 -2.45713 6.03712 0
M  V30 1718 N 156.679 -1.44442 0.630414 0
M  V30 1719 C 157.642 -2.29107 -0.0652523 0
M  V30 1720 C 158.642 -1.41002 -0.772995 0
M  V30 1721 O 159.832 -1.62881 -0.617692 0
M  V30 1722 C 156.964 -3.22564 -1.10296 0
M  V30 1723 H 158.157 -2.92103 0.679401 0
M  V30 1724 H 155.71 -1.51343 0.390517 0
M  V30 1725 H 156.445 -2.64416 -1.87762 0
M  V30 1726 H 156.23 -3.87491 -0.59941 0
M  V30 1727 H 157.72 -3.86167 -1.5895 0
M  V30 1728 N 158.157 -0.370918 -1.53173 0
M  V30 1729 C 159.107 0.489588 -2.22681 0
M  V30 1730 C 160.091 1.04442 -1.22395 0
M  V30 1731 O 161.283 0.973578 -1.47819 0
M  V30 1732 C 158.412 1.626 -3.02351 0
M  V30 1733 C 157.498 1.08379 -4.10018 0
M  V30 1734 N 157.889 0.265004 -5.05105 0
M  V30 1735 C 156.187 1.35809 -4.2482 0
M  V30 1736 C 156.888 -0.0324755 -5.81691 0
M  V30 1737 N 155.864 0.566581 -5.40639 0
M  V30 1738 H 159.666 -0.142729 -2.93553 0
M  V30 1739 H 157.18 -0.179221 -1.61408 0
M  V30 1740 H 159.177 2.2547 -3.50669 0
M  V30 1741 H 157.837 2.26132 -2.33011 0
M  V30 1742 H 158.848 -0.0962352 -5.17811 0
M  V30 1743 H 155.525 1.9958 -3.66707 0
M  V30 1744 H 156.915 -0.69473 -6.68299 0
M  V30 1745 N 159.635 1.57281 -0.100228 0
M  V30 1746 C 160.585 2.10848 0.86759 0
M  V30 1747 C 161.569 1.02473 1.24049 0
M  V30 1748 O 162.761 1.28739 1.21471 0
M  V30 1749 C 159.89 2.69648 2.12474 0
M  V30 1750 C 158.976 3.85074 1.77704 0
M  V30 1751 N 159.367 4.92897 1.13518 0
M  V30 1752 C 157.665 3.94905 2.07282 0
M  V30 1753 C 158.366 5.73475 0.974735 0
M  V30 1754 N 157.342 5.22675 1.4937 0
M  V30 1755 H 161.144 2.91594 0.367471 0
M  V30 1756 H 158.658 1.62074 0.102829 0
M  V30 1757 H 160.655 3.06356 2.82757 0
M  V30 1758 H 159.315 1.90359 2.63047 0
M  V30 1759 H 160.326 5.11662 0.801381 0
M  V30 1760 H 157.003 3.26633 2.60033 0
M  V30 1761 H 158.393 6.70238 0.472364 0
M  V30 1762 N 161.113 -0.173488 1.56642 0
M  V30 1763 C 162.063 -1.21941 1.92651 0
M  V30 1764 C 163.047 -1.39912 0.794577 0
M  V30 1765 O 164.239 -1.41919 1.05773 0
M  V30 1766 C 161.368 -2.55935 2.28806 0
M  V30 1767 C 160.454 -2.41667 3.48508 0
M  V30 1768 N 160.845 -1.9711 4.65813 0
M  V30 1769 C 159.143 -2.72499 3.53072 0
M  V30 1770 C 159.844 -1.95253 5.47952 0
M  V30 1771 N 158.82 -2.37575 4.88937 0
M  V30 1772 H 162.622 -0.866581 2.80834 0
M  V30 1773 H 160.136 -0.381776 1.57849 0
M  V30 1774 H 162.133 -3.31511 2.52797 0
M  V30 1775 H 160.793 -2.92022 1.41961 0
M  V30 1776 H 161.804 -1.67481 4.90072 0
M  V30 1777 H 158.481 -3.12639 2.767 0
M  V30 1778 H 159.871 -1.6252 6.51948 0
M  V30 1779 N 162.591 -1.51276 -0.441967 0
M  V30 1780 C 163.541 -1.6864 -1.53442 0
M  V30 1781 C 164.525 -0.540444 -1.51552 0
M  V30 1782 O 165.717 -0.796157 -1.58083 0
M  V30 1783 C 162.846 -1.8106 -2.91672 0
M  V30 1784 C 161.932 -3.01424 -2.98336 0
M  V30 1785 N 162.323 -4.2467 -2.74752 0
M  V30 1786 C 160.621 -3.00584 -3.29493 0
M  V30 1787 C 161.322 -5.05891 -2.87139 0
M  V30 1788 N 160.298 -4.40442 -3.18609 0
M  V30 1789 H 164.1 -2.61598 -1.33954 0
M  V30 1790 H 161.614 -1.4886 -0.6492 0
M  V30 1791 H 163.611 -1.91609 -3.70259 0
M  V30 1792 H 162.271 -0.892795 -3.12185 0
M  V30 1793 H 163.282 -4.53691 -2.49769 0
M  V30 1794 H 159.959 -2.18417 -3.55809 0
M  V30 1795 H 161.349 -6.13983 -2.72899 0
M  V30 1796 N 164.069 0.697108 -1.41344 0
M  V30 1797 C 165.019 1.80313 -1.39539 0
M  V30 1798 C 166.003 1.58618 -0.270001 0
M  V30 1799 O 167.195 1.69477 -0.510551 0
M  V30 1800 C 164.324 3.18606 -1.27848 0
M  V30 1801 C 163.41 3.46001 -2.45244 0
M  V30 1802 N 163.801 3.44103 -3.70711 0
M  V30 1803 C 162.099 3.76542 -2.39023 0
M  V30 1804 C 162.8 3.7036 -4.48563 0
M  V30 1805 N 161.776 3.90027 -3.78655 0
M  V30 1806 H 165.578 1.77207 -2.34468 0
M  V30 1807 H 163.092 0.897031 -1.35378 0
M  V30 1808 H 165.089 3.97833 -1.24637 0
M  V30 1809 H 163.749 3.22925 -0.339032 0
M  V30 1810 H 164.76 3.2452 -4.03618 0
M  V30 1811 H 161.437 3.88241 -1.53542 0
M  V30 1812 H 162.827 3.75042 -5.57488 0
M  V30 1813 N 165.547 1.27147 0.931209 0
M  V30 1814 C 166.497 1.06227 2.01742 0
M  V30 1815 C 167.481 -0.00859065 1.60898 0
M  V30 1816 O 168.673 0.209537 1.75755 0
M  V30 1817 C 165.802 0.707787 3.35924 0
M  V30 1818 C 164.888 1.81661 3.83223 0
M  V30 1819 N 165.279 3.05564 4.03069 0
M  V30 1820 C 163.577 1.70249 4.12227 0
M  V30 1821 C 164.278 3.77697 4.42403 0
M  V30 1822 N 163.254 3.0544 4.49675 0
M  V30 1823 H 167.056 2.00261 2.15111 0
M  V30 1824 H 164.57 1.1781 1.11779 0
M  V30 1825 H 166.567 0.539043 4.134 0
M  V30 1826 H 165.227 -0.224964 3.2392 0
M  V30 1827 H 166.238 3.41363 3.89476 0
M  V30 1828 H 162.915 0.840329 4.08956 0
M  V30 1829 H 164.305 4.84168 4.65866 0
M  V30 1830 N 167.025 -1.13721 1.09112 0
M  V30 1831 C 167.975 -2.17082 0.697091 0
M  V30 1832 C 168.959 -1.58321 -0.286923 0
M  V30 1833 O 170.151 -1.7673 -0.0978008 0
M  V30 1834 C 167.28 -3.43105 0.115729 0
M  V30 1835 C 166.366 -4.0888 1.12596 0
M  V30 1836 N 166.757 -4.4987 2.31195 0
M  V30 1837 C 165.055 -4.35471 0.963366 0
M  V30 1838 C 165.756 -5.01094 2.95431 0
M  V30 1839 N 164.732 -4.95751 2.23006 0
M  V30 1840 H 168.534 -2.46524 1.6001 0
M  V30 1841 H 166.048 -1.30481 0.966869 0
M  V30 1842 H 168.045 -4.16491 -0.184555 0
M  V30 1843 H 166.705 -3.15138 -0.78217 0
M  V30 1844 H 167.716 -4.42678 2.68806 0
M  V30 1845 H 164.393 -4.17328 0.119878 0
M  V30 1846 H 165.783 -5.4263 3.96236 0
M  V30 1847 N 168.503 -0.877838 -1.30888 0
M  V30 1848 C 169.453 -0.310872 -2.25871 0
M  V30 1849 C 170.437 0.556596 -1.50966 0
M  V30 1850 O 171.629 0.402187 -1.7237 0
M  V30 1851 C 168.758 0.479821 -3.3993 0
M  V30 1852 C 167.844 -0.401333 -4.22197 0
M  V30 1853 N 168.235 -1.49848 -4.83093 0
M  V30 1854 C 166.533 -0.195167 -4.45573 0
M  V30 1855 C 167.234 -2.0425 -5.44662 0
M  V30 1856 N 166.21 -1.33843 -5.26865 0
M  V30 1857 H 170.012 -1.1493 -2.70496 0
M  V30 1858 H 167.526 -0.726458 -1.45246 0
M  V30 1859 H 169.523 0.902582 -4.07012 0
M  V30 1860 H 168.183 1.31577 -2.96846 0
M  V30 1861 H 169.194 -1.88137 -4.82519 0
M  V30 1862 H 165.871 0.604192 -4.13105 0
M  V30 1863 H 167.261 -2.96345 -6.03017 0
M  V30 1864 N 169.982 1.44106 -0.638065 0
M  V30 1865 C 170.932 2.27843 0.0847285 0
M  V30 1866 C 171.916 1.39055 0.809471 0
M  V30 1867 O 173.108 1.62808 0.694435 0
M  V30 1868 C 170.237 3.26497 1.06089 0
M  V30 1869 C 169.323 4.22772 0.33541 0
M  V30 1870 N 169.714 5.01737 -0.639787 0
M  V30 1871 C 168.012 4.42227 0.578921 0
M  V30 1872 C 168.713 5.71792 -1.06904 0
M  V30 1873 N 167.689 5.42079 -0.406395 0
M  V30 1874 H 171.491 2.86305 -0.663814 0
M  V30 1875 H 169.005 1.55627 -0.464122 0
M  V30 1876 H 171.002 3.8525 1.59337 0
M  V30 1877 H 169.662 2.69595 1.80966 0
M  V30 1878 H 170.673 5.07799 -1.01789 0
M  V30 1879 H 167.35 3.96415 1.31003 0
M  V30 1880 H 168.74 6.45205 -1.8751 0
M  V30 1881 N 171.46 0.379036 1.52974 0
M  V30 1882 C 172.392 -0.495963 2.2377 0
M  V30 1883 C 173.405 -1.03517 1.25651 0
M  V30 1884 O 174.594 -0.939249 1.51791 0
M  V30 1885 C 171.694 -1.69894 2.93239 0
M  V30 1886 C 170.867 -1.2889 4.17979 0
M  V30 1887 C 169.926 -2.35543 4.70538 0
M  V30 1888 O 168.952 -1.97375 5.33883 0
M  V30 1889 N 170.154 -3.67318 4.49508 0
M  V30 1890 H 172.919 0.110523 2.99496 0
M  V30 1891 H 170.48 0.204878 1.60598 0
M  V30 1892 H 172.472 -2.40747 3.25304 0
M  V30 1893 H 171.042 -2.212 2.20883 0
M  V30 1894 H 170.262 -0.409676 3.92065 0
M  V30 1895 H 171.55 -0.991443 4.99047 0
M  V30 1896 H 170.948 -4.01095 3.98923 0
M  V30 1897 H 169.505 -4.34235 4.8609 0
M  V30 1898 N 172.938 -1.57226 0.108567 0
M  V30 1899 C 173.868 -2.17778 -0.84232 0
M  V30 1900 C 174.849 -1.11487 -1.2847 0
M  V30 1901 O 176.034 -1.39681 -1.34918 0
M  V30 1902 C 173.164 -2.76888 -2.09644 0
M  V30 1903 C 172.118 -3.88669 -1.79221 0
M  V30 1904 C 171.444 -4.34541 -3.11574 0
M  V30 1905 C 172.744 -5.11251 -1.06864 0
M  V30 1906 H 174.438 -2.97489 -0.337774 0
M  V30 1907 H 171.984 -1.43097 -0.161025 0
M  V30 1908 H 173.937 -3.17904 -2.76614 0
M  V30 1909 H 172.661 -1.94451 -2.62405 0
M  V30 1910 H 171.32 -3.48213 -1.14644 0
M  V30 1911 H 170.968 -3.48977 -3.62249 0
M  V30 1912 H 170.668 -5.09914 -2.91996 0
M  V30 1913 H 172.192 -4.782 -3.7968 0
M  V30 1914 H 173.606 -5.49352 -1.63968 0
M  V30 1915 H 172.003 -5.9214 -0.974178 0
M  V30 1916 H 173.073 -4.8487 -0.0536168 0
M  V30 1917 N 174.416 0.165178 -1.56732 0
M  V30 1918 C 175.348 1.22911 -1.93457 0
M  V30 1919 C 176.361 1.40152 -0.828333 0
M  V30 1920 O 177.55 1.40046 -1.10677 0
M  V30 1921 C 174.65 2.59686 -2.17753 0
M  V30 1922 C 173.823 2.63663 -3.48999 0
M  V30 1923 C 172.882 3.81845 -3.62051 0
M  V30 1924 O 171.908 3.67559 -4.34613 0
M  V30 1925 N 173.11 4.98557 -2.97357 0
M  V30 1926 H 175.875 0.917118 -2.85323 0
M  V30 1927 H 173.436 0.354895 -1.57962 0
M  V30 1928 H 175.428 3.37225 -2.23743 0
M  V30 1929 H 173.998 2.83251 -1.32242 0
M  V30 1930 H 173.218 1.72173 -3.54612 0
M  V30 1931 H 174.506 2.63336 -4.35352 0
M  V30 1932 H 173.904 5.13065 -2.38287 0
M  V30 1933 H 172.461 5.73936 -3.08934 0
M  V30 1934 N 175.894 1.51508 0.433938 0
M  V30 1935 C 177.305 1.56784 1.01369 0
M  V30 1936 C 177.656 0.393349 1.92217 0
M  V30 1937 O 176.781 -0.489441 2.10792 0
M  V30 1938 C 177.376 2.84144 1.8452 0
M  V30 1939 C 175.935 2.9198 2.37539 0
M  V30 1940 C 175.082 2.51482 1.16843 0
M  V30 1941 H 178.033 1.57236 0.215081 0
M  V30 1942 H 178.054 2.68098 2.70007 0
M  V30 1943 H 177.566 3.69607 1.18373 0
M  V30 1944 H 175.667 2.10955 3.0713 0
M  V30 1945 H 175.78 3.95704 2.70103 0
M  V30 1946 H 174.144 2.04758 1.51481 0
M  V30 1947 H 174.927 3.39293 0.523015 0
M  V30 1948 N 177.372 -0.689602 1.41712 0
M  V30 1949 C 178.304 -1.815 1.39966 0
M  V30 1950 C 179.317 -1.59995 0.300917 0
M  V30 1951 O 180.506 -1.69387 0.563039 0
M  V30 1952 C 177.606 -3.18364 1.16179 0
M  V30 1953 C 176.779 -3.66847 2.38206 0
M  V30 1954 C 175.838 -4.82398 2.10186 0
M  V30 1955 O 174.864 -4.93706 2.83272 0
M  V30 1956 N 176.066 -5.70064 1.0958 0
M  V30 1957 H 178.831 -1.83488 2.36965 0
M  V30 1958 H 176.392 -0.872149 1.36401 0
M  V30 1959 H 178.384 -3.93301 0.953756 0
M  V30 1960 H 176.954 -3.11365 0.27756 0
M  V30 1961 H 176.174 -2.82751 2.74673 0
M  V30 1962 H 177.462 -3.95978 3.19498 0
M  V30 1963 H 176.86 -5.63565 0.491019 0
M  V30 1964 H 175.417 -6.44874 0.947656 0
M  V30 1965 N 178.85 -1.27639 -0.924453 0
M  V30 1966 C 179.782 -1.06442 -2.02985 0
M  V30 1967 C 180.795 -0.0194771 -1.62788 0
M  V30 1968 O 181.984 -0.261388 -1.76576 0
M  V30 1969 C 179.084 -0.59327 -3.33667 0
M  V30 1970 C 178.257 -1.71123 -4.02537 0
M  V30 1971 C 177.316 -1.23527 -5.11495 0
M  V30 1972 O 176.342 -1.93553 -5.35281 0
M  V30 1973 N 177.544 -0.0926678 -5.80426 0
M  V30 1974 H 180.309 -2.01633 -2.2173 0
M  V30 1975 H 177.87 -1.19248 -1.09505 0
M  V30 1976 H 179.862 -0.258686 -4.03872 0
M  V30 1977 H 178.432 0.265502 -3.1147 0
M  V30 1978 H 177.652 -2.21593 -3.26022 0
M  V30 1979 H 178.94 -2.46145 -4.45298 0
M  V30 1980 H 178.338 0.491741 -5.63559 0
M  V30 1981 H 176.895 0.182714 -6.51544 0
M  V30 1982 N 180.328 1.1314 -1.09713 0
M  V30 1983 C 181.258 2.20748 -0.761102 0
M  V30 1984 C 182.239 1.68061 0.262566 0
M  V30 1985 O 183.424 1.93765 0.129977 0
M  V30 1986 C 180.554 3.46812 -0.184054 0
M  V30 1987 C 179.508 4.12606 -1.13757 0
M  V30 1988 C 178.834 5.33031 -0.422083 0
M  V30 1989 C 180.134 4.59603 -2.48118 0
M  V30 1990 H 181.828 2.49113 -1.66082 0
M  V30 1991 H 179.374 1.19734 -0.799987 0
M  V30 1992 H 181.327 4.21353 0.0631215 0
M  V30 1993 H 180.051 3.17851 0.750868 0
M  V30 1994 H 178.71 3.40036 -1.37007 0
M  V30 1995 H 178.358 5.00335 0.517072 0
M  V30 1996 H 178.058 5.77999 -1.05788 0
M  V30 1997 H 179.582 6.10325 -0.183277 0
M  V30 1998 H 180.996 5.25552 -2.29059 0
M  V30 1999 H 179.393 5.15321 -3.07514 0
M  V30 2000 H 180.463 3.73971 -3.08665 0
M  V30 2001 N 181.806 0.884767 1.30421 0
M  V30 2002 C 182.738 0.308655 2.27112 0
M  V30 2003 C 183.751 -0.536655 1.53701 0
M  V30 2004 O 184.94 -0.35624 1.74909 0
M  V30 2005 C 182.04 -0.579782 3.33904 0
M  V30 2006 C 181.213 0.236417 4.36761 0
M  V30 2007 C 180.272 -0.582482 5.22966 0
M  V30 2008 O 179.298 -0.00525502 5.692 0
M  V30 2009 N 180.5 -1.89163 5.48815 0
M  V30 2010 H 183.265 1.13964 2.77186 0
M  V30 2011 H 180.826 0.747731 1.43599 0
M  V30 2012 H 182.818 -1.13366 3.88497 0
M  V30 2013 H 181.388 -1.31144 2.83761 0
M  V30 2014 H 180.608 0.97174 3.82035 0
M  V30 2015 H 181.896 0.795924 5.02536 0
M  V30 2016 H 181.294 -2.38352 5.13035 0
M  V30 2017 H 179.851 -2.39296 6.06284 0
M  V30 2018 N 183.284 -1.43765 0.645699 0
M  V30 2019 C 184.532 -2.01499 0.155731 0
M  V30 2020 C 184.853 -1.51151 -1.232 0
M  V30 2021 O 184.123 -0.721044 -1.82148 0
M  V30 2022 H 182.703 -0.745003 0.0545817 0
M  V30 2023 H 185.365 -1.76075 0.835677 0
M  V30 2024 H 184.461 -3.1181 0.134577 0
M  V30 2025 N 184.763 -0.387143 -1.52771 0
M  V30 2026 C 185.991 0.195869 -2.05971 0
M  V30 2027 C 186.406 1.40691 -1.25903 0
M  V30 2028 O 185.763 1.79931 -0.305134 0
M  V30 2029 C 185.814 0.56812 -3.57008 0
M  V30 2030 O 185.535 -0.594803 -4.34043 0
M  V30 2031 C 187.036 1.20723 -4.26545 0
M  V30 2032 H 184.256 0.0300578 -0.670326 0
M  V30 2033 H 186.8 -0.551749 -1.96916 0
M  V30 2034 H 184.955 1.26564 -3.66143 0
M  V30 2035 H 185.369 -0.289322 -5.23701 0
M  V30 2036 H 186.843 1.41807 -5.33474 0
M  V30 2037 H 187.32 2.17395 -3.81623 0
M  V30 2038 H 187.926 0.550535 -4.21722 0
M  V30 2039 N 186.241 1.57166 -0.116904 0
M  V30 2040 C 187.487 1.95412 0.542405 0
M  V30 2041 C 187.82 1.00019 1.66463 0
M  V30 2042 O 187.095 0.0370346 1.94465 0
M  V30 2043 C 187.378 3.43615 1.07708 0
M  V30 2044 C 187.231 4.49781 -0.0415868 0
M  V30 2045 C 188.55 3.93616 1.96861 0
M  V30 2046 H 185.669 0.710543 0.195696 0
M  V30 2047 H 188.311 1.89027 -0.192038 0
M  V30 2048 H 186.461 3.49187 1.70296 0
M  V30 2049 H 188.133 4.56308 -0.676793 0
M  V30 2050 H 186.376 4.28033 -0.705019 0
M  V30 2051 H 187.047 5.50733 0.373717 0
M  V30 2052 H 189.523 3.90335 1.44146 0
M  V30 2053 H 188.399 4.97838 2.3119 0
M  V30 2054 H 188.66 3.34188 2.89432 0
M  V30 2055 N 187.719 -0.156864 1.56817 0
M  V30 2056 C 188.682 -1.17781 1.96622 0
M  V30 2057 C 189.682 -1.36401 0.851555 0
M  V30 2058 O 190.872 -1.33561 1.11836 0
M  V30 2059 C 188.004 -2.54008 2.27361 0
M  V30 2060 H 189.197 -0.836564 2.87996 0
M  V30 2061 H 186.75 -0.39985 1.51099 0
M  V30 2062 H 187.485 -2.9312 1.38748 0
M  V30 2063 H 187.27 -2.41856 3.08623 0
M  V30 2064 H 188.76 -3.27558 2.59029 0
M  V30 2065 N 189.197 -1.51736 -0.425897 0
M  V30 2066 C 190.145 -1.74464 -1.53834 0
M  V30 2067 C 191.139 -0.611241 -1.57988 0
M  V30 2068 O 192.345 -0.792899 -1.61596 0
M  V30 2069 H 188.72 -0.551437 -0.511293 0
M  V30 2070 H 190.691 -2.67694 -1.31843 0
M  V30 2071 C 189.44 -1.8972 -2.91379 0
M  V30 2072 H 188.763 -2.76344 -2.88919 0
M  V30 2073 H 190.203 -2.09629 -3.68553 0
M  V30 2074 C 188.662 -0.65992 -3.30374 0
M  V30 2075 O 189.192 0.180083 -4.01296 0
M  V30 2076 N 187.398 -0.500677 -2.86254 0
M  V30 2077 H 186.945 -1.18532 -2.28709 0
M  V30 2078 H 186.903 0.325903 -3.12706 0
M  V30 2079 N 190.675 0.682077 -1.42076 0
M  V30 2080 C 192.086 1.26246 -1.37546 0
M  V30 2081 C 192.437 1.96092 -0.0651481 0
M  V30 2082 O 191.562 1.99587 0.836297 0
M  V30 2083 C 192.157 2.29594 -2.49143 0
M  V30 2084 C 190.716 2.83175 -2.47969 0
M  V30 2085 C 189.863 1.57395 -2.28303 0
M  V30 2086 H 192.814 0.475937 -1.51395 0
M  V30 2087 H 192.835 3.11175 -2.18976 0
M  V30 2088 H 192.347 1.78729 -3.44496 0
M  V30 2089 H 190.448 3.3818 -1.56413 0
M  V30 2090 H 190.561 3.32687 -3.44755 0
M  V30 2091 H 188.925 1.83699 -1.76428 0
M  V30 2092 H 189.708 1.08507 -3.25701 0
M  V30 2093 N 192.153 1.28127 0.917671 0
M  V30 2094 C 193.564 1.13622 1.48145 0
M  V30 2095 C 193.915 -0.275207 1.9426 0
M  V30 2096 O 193.04 -1.1691 1.82102 0
M  V30 2097 C 193.635 2.05648 2.69248 0
M  V30 2098 C 192.194 1.95219 3.21818 0
M  V30 2099 C 191.341 1.97618 1.94532 0
M  V30 2100 H 194.292 1.40874 0.730772 0
M  V30 2101 H 194.313 1.61818 3.44377 0
M  V30 2102 H 193.825 3.08365 2.35653 0
M  V30 2103 H 191.926 0.955244 3.60147 0
M  V30 2104 H 192.039 2.81976 3.87333 0
M  V30 2105 H 190.403 1.41973 2.11461 0
M  V30 2106 H 191.186 3.02007 1.63238 0
M  V30 2107 N 193.631 -1.12557 1.10312 0
M  V30 2108 C 194.856 -1.88405 0.867085 0
M  V30 2109 C 195.281 -1.79038 -0.576817 0
M  V30 2110 O 194.639 -1.14439 -1.40618 0
M  V30 2111 C 194.687 -3.3563 1.31851 0
M  V30 2112 O 193.791 -4.09565 0.482734 0
M  V30 2113 H 193.132 -0.585455 0.313271 0
M  V30 2114 H 195.662 -1.42352 1.4696 0
M  V30 2115 H 195.672 -3.86469 1.3079 0
M  V30 2116 H 194.347 -3.41765 2.37001 0
M  V30 2117 H 192.924 -3.68695 0.558448 0
M  V30 2118 N 195.109 -0.891671 -1.2995 0
M  V30 2119 C 196.057 -0.353066 -2.29905 0
M  V30 2120 C 197.051 0.543509 -1.60444 0
M  V30 2121 O 198.257 0.4272 -1.74857 0
M  V30 2122 H 194.632 -0.095531 -0.745907 0
M  V30 2123 H 196.603 -1.20961 -2.72784 0
M  V30 2124 C 195.352 0.411475 -3.45257 0
M  V30 2125 H 194.675 -0.269182 -3.98893 0
M  V30 2126 H 196.115 0.753328 -4.17254 0
M  V30 2127 C 194.574 1.6111 -2.9588 0
M  V30 2128 O 195.104 2.71045 -2.96475 0
M  V30 2129 N 193.31 1.45054 -2.51809 0
M  V30 2130 H 192.857 0.556175 -2.51524 0
M  V30 2131 H 192.815 2.25453 -2.1913 0
M  V30 2132 N 196.587 1.43421 -0.653314 0
M  V30 2133 C 197.497 2.34568 0.0388565 0
M  V30 2134 C 198.513 1.53888 0.81207 0
M  V30 2135 O 199.689 1.86539 0.759294 0
M  V30 2136 C 196.754 3.32167 0.993269 0
M  V30 2137 C 195.815 4.28751 0.216977 0
M  V30 2138 C 195.048 5.21688 1.12593 0
M  V30 2139 O 195.271 5.19052 2.36519 0
M  V30 2140 O 194.205 5.98919 0.598284 0
M  V30 2141 H 198.031 2.95251 -0.711386 0
M  V30 2142 H 195.616 1.43564 -0.413502 0
M  V30 2143 H 197.498 3.92183 1.54176 0
M  V30 2144 H 196.173 2.73987 1.72374 0
M  V30 2145 H 195.08 3.72215 -0.375101 0
M  V30 2146 H 196.413 4.89913 -0.473924 0
M  V30 2147 N 198.065 0.39524 1.52563 0
M  V30 2148 C 199.476 -0.0774719 1.86539 0
M  V30 2149 C 199.827 -1.45641 1.31466 0
M  V30 2150 O 198.952 -2.06459 0.648367 0
M  V30 2151 C 199.547 -0.147356 3.38479 0
M  V30 2152 C 198.106 -0.564373 3.72145 0
M  V30 2153 C 197.253 0.269919 2.75983 0
M  V30 2154 H 200.204 0.612876 1.46388 0
M  V30 2155 H 200.225 -0.965343 3.68051 0
M  V30 2156 H 199.737 0.856387 3.78534 0
M  V30 2157 H 197.838 -1.57527 3.37663 0
M  V30 2158 H 197.951 -0.318402 4.78041 0
M  V30 2159 H 196.315 -0.265696 2.5331 0
M  V30 2160 H 197.098 1.27175 3.18875 0
M  V30 2161 N 199.544 -1.57102 0.125237 0
M  V30 2162 C 200.79 -1.95697 -0.532035 0
M  V30 2163 C 201.123 -1.009 -1.6593 0
M  V30 2164 O 200.398 -0.047347 -1.94442 0
M  V30 2165 C 200.681 -3.44181 -1.05884 0
M  V30 2166 C 200.534 -4.49752 0.0654392 0
M  V30 2167 C 201.853 -3.94655 -1.9477 0
M  V30 2168 H 198.972 -0.711571 -0.191925 0
M  V30 2169 H 201.614 -1.88923 0.20206 0
M  V30 2170 H 199.764 -3.50085 -1.68442 0
M  V30 2171 H 201.436 -4.55943 0.700982 0
M  V30 2172 H 199.679 -4.27653 0.727709 0
M  V30 2173 H 200.35 -5.50924 -0.344505 0
M  V30 2174 H 202.826 -3.91094 -1.42074 0
M  V30 2175 H 201.702 -4.99057 -2.28546 0
M  V30 2176 H 201.963 -3.35718 -2.87656 0
M  V30 2177 N 201.022 0.148545 -1.56898 0
M  V30 2178 C 202.268 0.862694 -1.83536 0
M  V30 2179 C 202.601 1.80889 -0.706604 0
M  V30 2180 O 201.876 1.92328 0.289885 0
M  V30 2181 C 202.159 1.63853 -3.20662 0
M  V30 2182 C 202.012 0.713925 -4.44098 0
M  V30 2183 C 203.331 2.60133 -3.54991 0
M  V30 2184 H 200.45 0.312179 -0.667618 0
M  V30 2185 H 203.092 0.127953 -1.89569 0
M  V30 2186 H 201.242 2.26489 -3.1565 0
M  V30 2187 H 202.914 0.098686 -4.61194 0
M  V30 2188 H 201.157 0.0234019 -4.33794 0
M  V30 2189 H 201.828 1.29278 -5.36648 0
M  V30 2190 H 204.304 2.07616 -3.60603 0
M  V30 2191 H 203.18 3.11468 -4.51972 0
M  V30 2192 H 203.441 3.41417 -2.80868 0
M  V30 2193 N 202.5 1.5196 0.417844 0
M  V30 2194 C 203.447 1.74678 1.50852 0
M  V30 2195 C 204.417 0.588947 1.55308 0
M  V30 2196 O 205.602 0.825544 1.72016 0
M  V30 2197 C 202.742 1.89544 2.88387 0
M  V30 2198 C 201.855 3.17166 2.93309 0
M  V30 2199 C 200.99 3.22513 4.22088 0
M  V30 2200 C 200.029 4.44372 4.20951 0
M  V30 2201 N 199.166 4.47161 5.41287 0
M  V30 2202 H 204.006 2.67768 1.30783 0
M  V30 2203 H 201.543 1.32689 0.63498 0
M  V30 2204 H 203.501 1.96146 3.68216 0
M  V30 2205 H 202.131 0.998424 3.06971 0
M  V30 2206 H 201.183 3.19778 2.06024 0
M  V30 2207 H 202.495 4.07021 2.88332 0
M  V30 2208 H 201.649 3.28139 5.10303 0
M  V30 2209 H 200.388 2.30581 4.29748 0
M  V30 2210 H 199.393 4.38902 3.31127 0
M  V30 2211 H 200.618 5.3759 4.14938 0
M  V30 2212 H 198.564 3.58108 5.49632 0
M  V30 2213 H 198.481 5.3085 5.3827 0
M  V30 2214 H 199.749 4.57005 6.3148 0
M  V30 2215 N 203.978 -0.674533 1.42435 0
M  V30 2216 C 205.206 -1.46283 1.46317 0
M  V30 2217 C 205.621 -1.88653 0.0745836 0
M  V30 2218 O 204.978 -1.58151 -0.91074 0
M  V30 2219 C 205.029 -2.71178 2.3905 0
M  V30 2220 O 204.75 -2.30586 3.72507 0
M  V30 2221 C 206.251 -3.64738 2.51955 0
M  V30 2222 H 203.471 -0.450104 0.497642 0
M  V30 2223 H 206.015 -0.828792 1.86953 0
M  V30 2224 H 204.17 -3.3077 2.01667 0
M  V30 2225 H 204.584 -3.11241 4.22172 0
M  V30 2226 H 206.058 -4.49096 3.20962 0
M  V30 2227 H 206.535 -4.10656 1.55752 0
M  V30 2228 H 207.141 -3.11038 2.90061 0
M  V30 2229 N 205.456 -1.28612 -0.910864 0
M  V30 2230 C 206.388 -1.08589 -2.01844 0
M  V30 2231 C 207.401 -0.0367419 -1.62759 0
M  V30 2232 O 208.59 -0.280101 -1.76289 0
M  V30 2233 C 205.69 -0.628626 -3.33019 0
M  V30 2234 C 204.863 -1.75382 -4.00699 0
M  V30 2235 C 203.922 -1.28945 -5.10156 0
M  V30 2236 O 202.948 -1.9922 -5.33198 0
M  V30 2237 N 204.15 -0.154224 -5.80295 0
M  V30 2238 H 206.915 -2.03973 -2.19579 0
M  V30 2239 H 204.476 -1.20403 -1.08234 0
M  V30 2240 H 206.468 -0.301508 -4.03575 0
M  V30 2241 H 205.038 0.232451 -3.11735 0
M  V30 2242 H 204.258 -2.25039 -3.23653 0
M  V30 2243 H 205.546 -2.50854 -4.42662 0
M  V30 2244 H 204.944 0.43194 -5.64049 0
M  V30 2245 H 203.501 0.113599 -6.51701 0
M  V30 2246 N 206.934 1.1197 -1.10907 0
M  V30 2247 C 208.18 1.8386 -0.855773 0
M  V30 2248 C 208.513 1.84134 0.617103 0
M  V30 2249 O 207.788 1.29041 1.45529 0
M  V30 2250 C 208.071 3.31305 -1.411 0
M  V30 2251 C 207.924 3.39456 -2.9511 0
M  V30 2252 C 209.243 4.2721 -1.05736 0
M  V30 2253 H 206.362 0.667545 -0.312334 0
M  V30 2254 H 209.004 1.31331 -1.37303 0
M  V30 2255 H 207.154 3.76169 -0.97105 0
M  V30 2256 H 208.826 3.03191 -3.47668 0
M  V30 2257 H 207.069 2.79849 -3.31462 0
M  V30 2258 H 207.74 4.43209 -3.29044 0
M  V30 2259 H 210.216 3.90497 -1.43706 0
M  V30 2260 H 209.092 5.28775 -1.47269 0
M  V30 2261 H 209.353 4.42088 0.0325958 0
M  V30 2262 N 208.412 0.89855 1.29475 0
M  V30 2263 C 209.659 0.523882 1.95606 0
M  V30 2264 C 209.987 -0.929608 1.70847 0
M  V30 2265 O 209.242 -1.67401 1.01367 0
M  V30 2266 C 209.541 0.761398 3.49195 0
M  V30 2267 C 209.207 2.19207 3.94029 0
M  V30 2268 C 207.869 2.58326 4.05982 0
M  V30 2269 C 210.221 3.12379 4.17216 0
M  V30 2270 C 207.549 3.898 4.38489 0
M  V30 2271 C 209.901 4.43401 4.51197 0
M  V30 2272 C 208.565 4.82394 4.61359 0
M  V30 2273 H 207.835 0.191702 0.715773 0
M  V30 2274 H 210.482 1.13699 1.54094 0
M  V30 2275 H 208.787 0.0653622 3.91745 0
M  V30 2276 H 210.484 0.450904 3.98457 0
M  V30 2277 H 207.074 1.87846 3.85242 0
M  V30 2278 H 211.258 2.83371 4.07449 0
M  V30 2279 H 206.514 4.19734 4.44559 0
M  V30 2280 H 210.688 5.15623 4.68087 0
M  V30 2281 H 208.315 5.84306 4.86303 0
M  V30 2282 N 209.89 -1.43072 0.660911 0
M  V30 2283 C 211.306 -1.56169 0.329173 0
M  V30 2284 C 211.506 -1.64317 -1.16629 0
M  V30 2285 O 210.562 -1.60245 -1.95135 0
M  V30 2286 C 211.875 -2.81873 1.04729 0
M  V30 2287 C 213.423 -2.95627 1.02828 0
M  V30 2288 C 213.898 -4.24174 1.72744 0
M  V30 2289 N 215.389 -4.31055 1.69545 0
M  V30 2290 C 216.124 -5.29304 2.20511 0
M  V30 2291 N 215.62 -6.33786 2.79799 0
M  V30 2292 N 217.413 -5.21008 2.10966 0
M  V30 2293 H 209.564 -1.36027 1.63127 0
M  V30 2294 H 211.827 -0.653823 0.686454 0
M  V30 2295 H 211.533 -2.81942 2.10242 0
M  V30 2296 H 211.407 -3.72338 0.603702 0
M  V30 2297 H 213.794 -2.95094 -0.0184742 0
M  V30 2298 H 213.875 -2.06431 1.51063 0
M  V30 2299 H 213.519 -4.25467 2.7738 0
M  V30 2300 H 213.449 -5.1228 1.2197 0
M  V30 2301 H 215.94 -3.56174 1.26288 0
M  V30 2302 H 216.253 -7.05086 3.16344 0
M  V30 2303 H 214.598 -6.34387 2.83863 0
M  V30 2304 H 217.789 -4.38301 1.64347 0
M  V30 2305 H 217.962 -5.97416 2.50993 0
M  V30 2306 N 211.368 -0.403325 -1.52352 0
M  V30 2307 C 212.278 0.432009 -2.30588 0
M  V30 2308 C 213.294 1.05884 -1.38075 0
M  V30 2309 O 214.47 1.06161 -1.71148 0
M  V30 2310 C 211.535 1.53669 -3.10784 0
M  V30 2311 C 210.596 0.933525 -4.19027 0
M  V30 2312 C 209.829 1.98557 -4.9539 0
M  V30 2313 O 210.052 3.20283 -4.71991 0
M  V30 2314 O 208.986 1.59504 -5.80381 0
M  V30 2315 H 212.812 -0.205739 -3.03002 0
M  V30 2316 H 210.397 -0.166675 -1.48467 0
M  V30 2317 H 212.279 2.17814 -3.60742 0
M  V30 2318 H 210.954 2.15915 -2.41169 0
M  V30 2319 H 209.861 0.254954 -3.7323 0
M  V30 2320 H 211.194 0.35508 -4.90918 0
M  V30 2321 N 212.846 1.57033 -0.133567 0
M  V30 2322 C 213.809 2.14897 0.796995 0
M  V30 2323 C 214.809 1.0874 1.18458 0
M  V30 2324 O 215.999 1.34446 1.1077 0
M  V30 2325 C 213.131 2.70112 2.07973 0
M  V30 2326 H 214.324 2.98457 0.293873 0
M  V30 2327 H 211.877 1.55871 0.115787 0
M  V30 2328 H 212.612 1.9018 2.62682 0
M  V30 2329 H 212.397 3.47764 1.81115 0
M  V30 2330 H 213.887 3.14738 2.74462 0
M  V30 2331 N 214.325 -0.140222 1.56975 0
M  V30 2332 C 215.741 -0.493088 1.51792 0
M  V30 2333 C 215.941 -1.83013 0.843116 0
M  V30 2334 O 214.997 -2.49041 0.416493 0
M  V30 2335 C 216.31 -0.497144 2.96562 0
M  V30 2336 C 217.858 -0.582186 3.07538 0
M  V30 2337 C 218.333 -0.616838 4.53827 0
M  V30 2338 N 219.824 -0.678873 4.58198 0
M  V30 2339 C 220.559 -0.726782 5.68775 0
M  V30 2340 N 220.055 -0.733623 6.88905 0
M  V30 2341 N 221.848 -0.768179 5.56826 0
M  V30 2342 H 213.999 0.736108 1.99237 0
M  V30 2343 H 216.262 0.269182 0.90898 0
M  V30 2344 H 215.968 0.417217 3.49217 0
M  V30 2345 H 215.842 -1.33263 3.52875 0
M  V30 2346 H 218.229 -1.48697 2.54899 0
M  V30 2347 H 218.31 0.280581 2.54257 0
M  V30 2348 H 217.954 0.283812 5.07106 0
M  V30 2349 H 217.884 -1.49619 5.04898 0
M  V30 2350 H 220.375 -0.68061 3.7172 0
M  V30 2351 H 220.688 -0.772215 7.68932 0
M  V30 2352 H 219.033 -0.701389 6.91452 0
M  V30 2353 H 222.224 -0.760051 4.61888 0
M  V30 2354 H 222.397 -0.80205 6.43017 0
M  V30 2355 N 215.803 -1.52179 -0.40978 0
M  V30 2356 C 217.214 -1.58377 -0.988615 0
M  V30 2357 C 217.565 -0.423879 -1.91566 0
M  V30 2358 O 216.69 0.455844 -2.11544 0
M  V30 2359 C 217.285 -2.87044 -1.79976 0
M  V30 2360 C 215.844 -2.95722 -2.32863 0
M  V30 2361 C 214.991 -2.53309 -1.12828 0
M  V30 2362 H 217.942 -1.57558 -0.190039 0
M  V30 2363 H 217.963 -2.7236 -2.65707 0
M  V30 2364 H 217.475 -3.71444 -1.12478 0
M  V30 2365 H 215.576 -2.15814 -3.03735 0
M  V30 2366 H 215.689 -3.99951 -2.63773 0
M  V30 2367 H 214.053 -2.07142 -1.48204 0
M  V30 2368 H 214.836 -3.40082 -0.46897 0
M  V30 2369 N 217.281 0.66697 -1.42791 0
M  V30 2370 C 218.529 1.42417 -1.43394 0
M  V30 2371 C 218.85 1.94925 -0.0542373 0
M  V30 2372 O 218.12 1.73564 0.908415 0
M  V30 2373 H 216.7 0.528515 -0.527902 0
M  V30 2374 H 219.362 0.787562 -1.78279 0
M  V30 2375 H 218.458 2.27333 -2.13837 0
M  V30 2376 N 218.759 1.29093 0.90403 0
M  V30 2377 C 220.007 1.16583 1.65085 0
M  V30 2378 C 220.328 -0.283933 1.92922 0
M  V30 2379 O 219.598 -1.19509 1.55224 0
M  V30 2380 H 218.178 0.428467 0.611903 0
M  V30 2381 H 220.84 1.61959 1.08422 0
M  V30 2382 H 219.936 1.71266 2.6091 0
M  V30 2383 N 220.237 -1.11381 1.11499 0
M  V30 2384 C 221.485 -1.8277 0.862524 0
M  V30 2385 C 221.806 -1.85097 -0.613534 0
M  V30 2386 O 221.076 -1.32198 -1.4457 0
M  V30 2387 H 219.656 -0.676823 0.316101 0
M  V30 2388 H 222.318 -1.34816 1.4075 0
M  V30 2389 H 221.414 -2.86614 1.23527 0
M  V30 2390 N 221.715 -0.905404 -1.28997 0
M  V30 2391 C 222.962 -0.534248 -1.95325 0
M  V30 2392 C 223.29 0.920535 -1.71337 0
M  V30 2393 O 222.545 1.66861 -1.02254 0
M  V30 2394 C 222.844 -0.779906 -3.48787 0
M  V30 2395 C 222.51 -2.21293 -3.92861 0
M  V30 2396 C 221.172 -2.60475 -4.04606 0
M  V30 2397 C 223.524 -3.14587 -4.15553 0
M  V30 2398 C 220.852 -3.9212 -4.36416 0
M  V30 2399 C 223.204 -4.45787 -4.48839 0
M  V30 2400 C 221.868 -4.84834 -4.58794 0
M  V30 2401 H 221.138 -0.195495 -0.714747 0
M  V30 2402 H 223.785 -1.14514 -1.53488 0
M  V30 2403 H 222.09 -0.0861365 -3.91705 0
M  V30 2404 H 223.787 -0.472029 -3.98212 0
M  V30 2405 H 220.377 -1.89887 -3.84241 0
M  V30 2406 H 224.561 -2.85528 -4.0594 0
M  V30 2407 H 219.817 -4.22086 -4.42327 0
M  V30 2408 H 223.991 -5.18098 -4.65346 0
M  V30 2409 H 221.618 -5.86877 -4.83197 0
M  V30 2410 N 223.193 1.4272 -0.668489 0
M  V30 2411 C 224.14 2.30796 0.0137489 0
M  V30 2412 C 225.11 1.4561 0.799177 0
M  V30 2413 O 226.295 1.74453 0.772702 0
M  V30 2414 C 223.435 3.31377 0.963507 0
M  V30 2415 C 222.548 4.31655 0.172569 0
M  V30 2416 C 221.683 5.19312 1.1175 0
M  V30 2417 C 220.722 6.11274 0.317886 0
M  V30 2418 N 219.859 6.91504 1.2152 0
M  V30 2419 H 224.699 2.88585 -0.743161 0
M  V30 2420 H 222.236 1.42154 -0.378226 0
M  V30 2421 H 224.194 3.88214 1.52792 0
M  V30 2422 H 222.824 2.75202 1.68712 0
M  V30 2423 H 221.876 3.76988 -0.508374 0
M  V30 2424 H 223.188 4.96779 -0.448527 0
M  V30 2425 H 222.342 5.80851 1.75206 0
M  V30 2426 H 221.081 4.5435 1.77249 0
M  V30 2427 H 220.086 5.48809 -0.329918 0
M  V30 2428 H 221.311 6.78283 -0.332917 0
M  V30 2429 H 219.257 6.29176 1.85671 0
M  V30 2430 H 219.174 7.53209 0.649036 0
M  V30 2431 H 220.442 7.57535 1.83742 0
M  V30 2432 N 224.671 0.411399 1.52136 0
M  V30 2433 C 225.634 -0.401089 2.25663 0
M  V30 2434 C 226.634 -0.971732 1.28117 0
M  V30 2435 O 227.824 -0.850254 1.52041 0
M  V30 2436 C 224.956 -1.56483 3.02863 0
M  V30 2437 H 226.149 0.24295 2.98914 0
M  V30 2438 H 223.702 0.163968 1.55438 0
M  V30 2439 H 224.437 -2.24567 2.33967 0
M  V30 2440 H 224.222 -1.16211 3.74483 0
M  V30 2441 H 225.712 -2.13951 3.58629 0
M  V30 2442 N 226.149 -1.5696 0.141893 0
M  V30 2443 C 227.379 -2.00031 -0.516828 0
M  V30 2444 C 227.787 -1.02091 -1.59293 0
M  V30 2445 O 227.13 -0.00909657 -1.83698 0
M  V30 2446 C 227.192 -3.39534 -1.1814 0
M  V30 2447 C 226.856 -4.56313 -0.250513 0
M  V30 2448 C 227.853 -5.17295 0.519839 0
M  V30 2449 C 225.538 -5.02061 -0.154907 0
M  V30 2450 C 227.532 -6.2243 1.3733 0
M  V30 2451 C 225.219 -6.07053 0.702161 0
M  V30 2452 C 226.217 -6.67106 1.46487 0
M  V30 2453 O 225.905 -7.70066 2.30767 0
M  V30 2454 H 225.637 -0.661451 -0.139493 0
M  V30 2455 H 228.191 -2.04086 0.231926 0
M  V30 2456 H 226.421 -3.32302 -1.97769 0
M  V30 2457 H 228.11 -3.66745 -1.73933 0
M  V30 2458 H 228.876 -4.82852 0.45598 0
M  V30 2459 H 224.755 -4.5505 -0.7383 0
M  V30 2460 H 228.299 -6.69233 1.96909 0
M  V30 2461 H 224.196 -6.40923 0.76733 0
M  V30 2462 H 224.964 -7.87264 2.23959 0
M  V30 2463 N 227.627 0.131896 -1.57047 0
M  V30 2464 C 228.537 1.1815 -2.02676 0
M  V30 2465 C 229.553 1.46113 -0.944824 0
M  V30 2466 O 230.729 1.57485 -1.25541 0
M  V30 2467 C 227.794 2.49139 -2.41103 0
M  V30 2468 C 226.855 2.28688 -3.63318 0
M  V30 2469 C 226.088 3.53431 -3.99903 0
M  V30 2470 O 226.311 4.60223 -3.36973 0
M  V30 2471 O 225.245 3.45198 -4.93074 0
M  V30 2472 H 229.071 0.824069 -2.92306 0
M  V30 2473 H 226.656 0.341745 -1.45439 0
M  V30 2474 H 228.538 3.26338 -2.66611 0
M  V30 2475 H 227.213 2.84382 -1.54624 0
M  V30 2476 H 226.12 1.4939 -3.42977 0
M  V30 2477 H 227.453 1.98355 -4.50462 0
M  V30 2478 N 229.106 1.52395 0.401703 0
M  V30 2479 C 230.016 1.7917 1.51444 0
M  V30 2480 C 231.032 0.677691 1.6026 0
M  V30 2481 O 232.208 0.963909 1.76835 0
M  V30 2482 C 229.273 1.94347 2.87107 0
M  V30 2483 C 228.334 3.18257 2.88116 0
M  V30 2484 C 227.567 3.32701 4.17308 0
M  V30 2485 O 227.79 2.52238 5.11598 0
M  V30 2486 O 226.724 4.25891 4.25324 0
M  V30 2487 H 230.55 2.73633 1.31752 0
M  V30 2488 H 228.135 1.3733 0.588296 0
M  V30 2489 H 230.017 2.06109 3.67555 0
M  V30 2490 H 228.692 1.03073 3.06851 0
M  V30 2491 H 227.599 3.11947 2.06494 0
M  V30 2492 H 228.932 4.09336 2.73322 0
M  V30 2493 N 230.584 -0.659388 1.43143 0
M  V30 2494 C 231.531 -1.77249 1.47822 0
M  V30 2495 C 232.501 -1.62818 0.328558 0
M  V30 2496 O 233.686 -1.83151 0.534838 0
M  V30 2497 C 230.826 -3.15371 1.40126 0
M  V30 2498 C 229.939 -3.4098 2.65249 0
M  V30 2499 C 229.074 -4.68915 2.49584 0
M  V30 2500 C 228.113 -4.87608 3.70006 0
M  V30 2501 N 227.25 -6.06796 3.53189 0
M  V30 2502 H 232.09 -1.72584 2.42938 0
M  V30 2503 H 229.627 -0.842297 1.20598 0
M  V30 2504 H 231.585 -3.9521 1.33659 0
M  V30 2505 H 230.215 -3.19121 0.485964 0
M  V30 2506 H 229.267 -2.55282 2.8202 0
M  V30 2507 H 230.579 -3.50681 3.54717 0
M  V30 2508 H 229.733 -5.56871 2.4079 0
M  V30 2509 H 228.472 -4.61524 1.5763 0
M  V30 2510 H 227.477 -3.9809 3.79215 0
M  V30 2511 H 228.702 -4.96834 4.62961 0
M  V30 2512 H 226.648 -6.00549 2.63965 0
M  V30 2513 H 226.565 -6.17428 4.36255 0
M  V30 2514 H 227.833 -6.9739 3.48236 0
M  V30 2515 N 232.062 -1.29571 -0.897171 0
M  V30 2516 C 233.292 -1.20408 -1.67886 0
M  V30 2517 C 233.7 0.237429 -1.87704 0
M  V30 2518 O 233.043 1.17048 -1.41582 0
M  V30 2519 C 233.105 -1.84887 -3.08314 0
M  V30 2520 C 232.769 -3.34189 -3.11716 0
M  V30 2521 C 233.766 -4.30374 -2.91675 0
M  V30 2522 C 231.451 -3.75431 -3.33701 0
M  V30 2523 C 233.445 -5.65776 -2.93557 0
M  V30 2524 C 231.132 -5.10955 -3.35214 0
M  V30 2525 C 232.13 -6.05938 -3.15164 0
M  V30 2526 O 231.818 -7.38987 -3.1647 0
M  V30 2527 H 231.55 -0.418289 -0.531046 0
M  V30 2528 H 234.104 -1.71514 -1.13014 0
M  V30 2529 H 232.334 -1.28295 -3.64798 0
M  V30 2530 H 234.023 -1.70011 -3.6858 0
M  V30 2531 H 234.789 -3.99844 -2.74499 0
M  V30 2532 H 230.668 -3.01953 -3.48347 0
M  V30 2533 H 234.212 -6.39889 -2.77826 0
M  V30 2534 H 230.109 -5.4113 -3.51922 0
M  V30 2535 H 230.877 -7.47823 -3.3272 0
M  V30 2536 N 233.54 1.10788 -1.12088 0
M  V30 2537 C 234.45 2.20599 -0.798338 0
M  V30 2538 C 235.466 1.72712 0.21135 0
M  V30 2539 O 236.642 2.01348 0.0458477 0
M  V30 2540 C 233.707 3.45771 -0.253674 0
M  V30 2541 C 232.768 4.08411 -1.32283 0
M  V30 2542 C 232.001 5.27608 -0.80406 0
M  V30 2543 O 232.224 5.69241 0.363478 0
M  V30 2544 O 231.158 5.8101 -1.57198 0
M  V30 2545 H 234.984 2.50614 -1.7154 0
M  V30 2546 H 232.569 1.19454 -0.897275 0
M  V30 2547 H 234.451 4.21376 0.0453691 0
M  V30 2548 H 233.126 3.1739 0.636005 0
M  V30 2549 H 232.033 3.34507 -1.67499 0
M  V30 2550 H 233.366 4.40986 -2.18614 0
M  V30 2551 N 235.018 0.912232 1.28515 0
M  V30 2552 C 236.243 0.559774 1.99703 0
M  V30 2553 C 236.668 -0.851393 1.67729 0
M  V30 2554 O 236.026 -1.56875 0.908834 0
M  V30 2555 C 236.074 0.773874 3.52198 0
M  V30 2556 O 235.178 -0.167842 4.12058 0
M  V30 2557 H 234.519 0.21723 0.627461 0
M  V30 2558 H 237.049 1.22725 1.63706 0
M  V30 2559 H 237.059 0.683386 4.02236 0
M  V30 2560 H 235.734 1.80261 3.74805 0
M  V30 2561 H 234.311 -0.0287509 3.72889 0
M  V30 2562 N 236.496 -1.42363 0.676048 0
M  V30 2563 C 237.443 -2.308 -0.00150904 0
M  V30 2564 C 238.413 -1.46032 -0.791444 0
M  V30 2565 O 239.598 -1.74861 -0.76344 0
M  V30 2566 C 236.738 -3.31883 -0.945919 0
M  V30 2567 C 235.851 -4.31741 -0.149675 0
M  V30 2568 C 234.986 -5.19898 -1.08995 0
M  V30 2569 C 234.025 -6.11434 -0.285465 0
M  V30 2570 N 233.162 -6.92138 -1.17851 0
M  V30 2571 H 238.002 -2.88187 0.758455 0
M  V30 2572 H 235.539 -1.41952 0.38576 0
M  V30 2573 H 237.497 -3.89019 -1.50731 0
M  V30 2574 H 236.127 -2.76093 -1.6725 0
M  V30 2575 H 235.179 -3.76713 0.528359 0
M  V30 2576 H 236.491 -4.96534 0.474866 0
M  V30 2577 H 235.645 -5.81772 -1.72123 0
M  V30 2578 H 234.384 -4.55284 -1.74837 0
M  V30 2579 H 233.389 -5.48627 0.359018 0
M  V30 2580 H 234.614 -6.78097 0.368883 0
M  V30 2581 H 232.56 -6.30152 -1.82332 0
M  V30 2582 H 232.477 -7.53542 -0.609082 0
M  V30 2583 H 233.745 -7.58499 -1.79722 0
M  V30 2584 N 237.974 -0.419461 -1.51915 0
M  V30 2585 C 238.924 0.418496 -2.24126 0
M  V30 2586 C 239.908 1.00495 -1.25656 0
M  V30 2587 O 241.1 0.926058 -1.50842 0
M  V30 2588 C 238.229 1.52899 -3.07371 0
M  V30 2589 C 237.315 0.952797 -4.13258 0
M  V30 2590 N 237.706 0.104175 -5.05693 0
M  V30 2591 C 236.004 1.22224 -4.28926 0
M  V30 2592 C 236.705 -0.21752 -5.81293 0
M  V30 2593 N 235.681 0.394293 -5.42168 0
M  V30 2594 H 239.483 -0.236048 -2.92951 0
M  V30 2595 H 236.997 -0.230481 -1.60756 0
M  V30 2596 H 238.994 2.14199 -3.57665 0
M  V30 2597 H 237.654 2.18605 -2.40088 0
M  V30 2598 H 238.665 -0.260924 -5.17242 0
M  V30 2599 H 235.342 1.87812 -3.72871 0
M  V30 2600 H 236.732 -0.906992 -6.6575 0
M  V30 2601 N 239.452 1.56882 -0.150215 0
M  V30 2602 C 240.682 2.00302 0.506213 0
M  V30 2603 C 241.09 1.02934 1.58749 0
M  V30 2604 O 240.433 0.0188384 1.8369 0
M  V30 2605 C 240.495 3.40156 1.16337 0
M  V30 2606 C 240.159 4.56439 0.226311 0
M  V30 2607 C 241.156 5.17012 -0.547265 0
M  V30 2608 C 238.841 5.02136 0.128279 0
M  V30 2609 C 240.835 6.21693 -1.40629 0
M  V30 2610 C 238.522 6.06672 -0.734345 0
M  V30 2611 C 239.52 6.6632 -1.50023 0
M  V30 2612 O 239.208 7.68831 -2.34848 0
M  V30 2613 H 238.94 0.662182 0.135984 0
M  V30 2614 H 241.494 2.03961 -0.242746 0
M  V30 2615 H 239.724 3.33346 1.96004 0
M  V30 2616 H 241.413 3.67663 1.71985 0
M  V30 2617 H 242.179 4.82603 -0.48158 0
M  V30 2618 H 238.058 4.55435 0.714157 0
M  V30 2619 H 241.602 6.68179 -2.00455 0
M  V30 2620 H 237.499 6.40507 -0.801309 0
M  V30 2621 H 238.267 7.86065 -2.28131 0
M  V30 2622 N 240.93 -0.123565 1.57115 0
M  V30 2623 C 241.877 -1.15177 2.00007 0
M  V30 2624 C 242.847 -1.41403 0.871454 0
M  V30 2625 O 244.032 -1.53346 1.13533 0
M  V30 2626 C 241.172 -2.47436 2.40561 0
M  V30 2627 C 240.285 -2.28184 3.66819 0
M  V30 2628 C 239.42 -3.53641 3.96373 0
M  V30 2629 C 238.459 -3.29528 5.15827 0
M  V30 2630 N 237.596 -4.47175 5.41275 0
M  V30 2631 H 242.436 -0.779008 2.87638 0
M  V30 2632 H 239.973 -0.373166 1.42288 0
M  V30 2633 H 241.931 -3.24584 2.62109 0
M  V30 2634 H 240.561 -2.82614 1.55978 0
M  V30 2635 H 239.613 -1.41976 3.52912 0
M  V30 2636 H 240.925 -2.0634 4.5412 0
M  V30 2637 H 240.079 -4.39209 4.18545 0
M  V30 2638 H 238.818 -3.78512 3.07538 0
M  V30 2639 H 237.823 -2.42349 4.93505 0
M  V30 2640 H 239.048 -3.06031 6.06236 0
M  V30 2641 H 236.994 -4.72175 4.55397 0
M  V30 2642 H 236.911 -4.28419 6.22891 0
M  V30 2643 H 238.179 -5.3389 5.67963 0
M  V30 2644 N 242.408 -1.52605 -0.393616 0
M  V30 2645 C 243.338 -1.80022 -1.48709 0
M  V30 2646 C 244.319 -0.651995 -1.57108 0
M  V30 2647 O 245.504 -0.89913 -1.72132 0
M  V30 2648 C 242.634 -1.96492 -2.86371 0
M  V30 2649 C 241.588 -3.12161 -2.92813 0
M  V30 2650 C 240.914 -3.13877 -4.3288 0
M  V30 2651 C 242.214 -4.51322 -2.6288 0
M  V30 2652 H 243.908 -2.71589 -1.26015 0
M  V30 2653 H 241.454 -1.30684 -0.604778 0
M  V30 2654 H 243.407 -2.14255 -3.62867 0
M  V30 2655 H 242.131 -1.01611 -3.10391 0
M  V30 2656 H 240.79 -2.94173 -2.18764 0
M  V30 2657 H 240.438 -2.16687 -4.53933 0
M  V30 2658 H 240.138 -3.91576 -4.38112 0
M  V30 2659 H 241.662 -3.33789 -5.1129 0
M  V30 2660 H 243.076 -4.69435 -3.29096 0
M  V30 2661 H 241.473 -5.31053 -2.79468 0
M  V30 2662 H 242.543 -4.58353 -1.58242 0
M  V30 2663 N 243.887 0.651787 -1.4349 0
M  V30 2664 C 244.834 1.76462 -1.4876 0
M  V30 2665 C 245.804 1.62641 -0.337189 0
M  V30 2666 O 246.989 1.82864 -0.544544 0
M  V30 2667 C 244.129 3.14623 -1.41796 0
M  V30 2668 C 243.242 3.39568 -2.67053 0
M  V30 2669 C 242.377 4.67585 -2.52068 0
M  V30 2670 C 241.416 4.85639 -3.72587 0
M  V30 2671 N 240.553 6.04915 -3.56402 0
M  V30 2672 H 245.393 1.71293 -2.43849 0
M  V30 2673 H 242.93 0.835889 -1.21043 0
M  V30 2674 H 244.888 3.94496 -1.35753 0
M  V30 2675 H 243.518 3.18859 -0.50288 0
M  V30 2676 H 242.57 2.53783 -2.8337 0
M  V30 2677 H 243.882 3.48795 -3.56572 0
M  V30 2678 H 243.036 5.55586 -2.4374 0
M  V30 2679 H 241.775 4.60681 -1.60075 0
M  V30 2680 H 240.78 3.96073 -3.81321 0
M  V30 2681 H 242.005 4.94372 -4.65589 0
M  V30 2682 H 239.951 5.9914 -2.67146 0
M  V30 2683 H 239.868 6.15106 -4.39524 0
M  V30 2684 H 241.136 6.95533 -3.51929 0
M  V30 2685 N 245.365 1.30045 0.890287 0
M  V30 2686 C 246.275 1.17885 2.02831 0
M  V30 2687 C 247.291 0.0999609 1.73713 0
M  V30 2688 O 248.467 0.313867 1.98939 0
M  V30 2689 C 245.532 0.866079 3.35708 0
M  V30 2690 C 244.593 2.02979 3.78283 0
M  V30 2691 C 243.826 1.73184 5.0482 0
M  V30 2692 O 244.049 0.657237 5.66601 0
M  V30 2693 O 242.983 2.58267 5.43674 0
M  V30 2694 H 246.809 2.13474 2.16015 0
M  V30 2695 H 244.394 1.09587 1.01543 0
M  V30 2696 H 246.276 0.706623 4.15433 0
M  V30 2697 H 244.951 -0.0599443 3.23644 0
M  V30 2698 H 243.858 2.24454 2.99285 0
M  V30 2699 H 245.191 2.93734 3.94944 0
M  V30 2700 N 246.843 -1.10192 1.12674 0
M  V30 2701 C 247.791 -2.18694 0.792196 0
M  V30 2702 C 248.785 -1.67938 -0.222058 0
M  V30 2703 O 249.991 -1.79822 -0.0800074 0
M  V30 2704 H 246.366 -0.713223 0.238364 0
M  V30 2705 H 248.337 -2.44149 1.71564 0
M  V30 2706 C 247.086 -3.46682 0.265859 0
M  V30 2707 H 246.409 -3.86101 1.03761 0
M  V30 2708 H 247.849 -4.23942 0.0701128 0
M  V30 2709 C 246.308 -3.21506 -1.00675 0
M  V30 2710 O 246.838 -3.43408 -2.08408 0
M  V30 2711 N 245.044 -2.75158 -0.934692 0
M  V30 2712 H 244.591 -2.57535 -0.0578604 0
M  V30 2713 H 244.549 -2.58691 -1.7868 0
M  V30 2714 N 248.321 -0.919034 -1.28029 0
M  V30 2715 C 249.567 -0.555757 -1.95036 0
M  V30 2716 C 249.9 0.899198 -1.72128 0
M  V30 2717 O 249.175 1.64023 -1.04531 0
M  V30 2718 C 249.458 -0.872024 -3.49382 0
M  V30 2719 C 249.311 -2.3801 -3.81669 0
M  V30 2720 C 250.63 -0.37185 -4.38526 0
M  V30 2721 H 247.749 -0.203386 -0.708381 0
M  V30 2722 H 250.391 -1.14924 -1.51303 0
M  V30 2723 H 248.541 -0.366946 -3.86763 0
M  V30 2724 H 250.213 -2.9562 -3.54128 0
M  V30 2725 H 248.456 -2.83289 -3.28526 0
M  V30 2726 H 249.127 -2.55192 -4.8947 0
M  V30 2727 H 251.603 -0.804602 -4.08247 0
M  V30 2728 H 250.479 -0.622173 -5.45362 0
M  V30 2729 H 250.74 0.727934 -4.36066 0
M  V30 2730 N 249.799 1.42003 -0.683588 0
M  V30 2731 C 251.045 2.01712 -0.209825 0
M  V30 2732 C 251.378 1.53968 1.18353 0
M  V30 2733 O 250.653 0.745661 1.79639 0
M  V30 2734 C 250.936 3.59202 -0.254197 0
M  V30 2735 C 250.789 4.17102 -1.68363 0
M  V30 2736 C 252.108 4.38344 0.392709 0
M  V30 2737 H 249.227 0.732891 -0.0777189 0
M  V30 2738 H 251.869 1.68909 -0.87004 0
M  V30 2739 H 250.019 3.87278 0.307954 0
M  V30 2740 H 251.691 3.99946 -2.29871 0
M  V30 2741 H 249.934 3.72597 -2.22157 0
M  V30 2742 H 250.605 5.26249 -1.6663 0
M  V30 2743 H 253.081 4.16011 -0.0859162 0
M  V30 2744 H 251.957 5.47901 0.331063 0
M  V30 2745 H 252.218 4.16887 1.47164 0
M  V30 2746 N 251.277 0.427512 1.51691 0
M  V30 2747 C 252.554 -0.201684 1.94557 0
M  V30 2748 C 252.934 -1.60981 1.36559 0
M  V30 2749 O 252.282 -2.21814 0.548702 0
M  V30 2750 C 252.492 -0.189394 3.48486 0
M  V30 2751 C 253.84 -0.39978 4.22714 0
M  V30 2752 O 254.864 -0.267945 3.55191 0
M  V30 2753 O 253.723 -0.661249 5.42485 0
M  V30 2754 H 250.817 -0.135261 0.815864 0
M  V30 2755 H 253.363 0.484782 1.62628 0
M  V30 2756 H 252.135 0.795431 3.8313 0
M  V30 2757 H 251.758 -0.919187 3.86829 0
M  V30 2758 N 252.755 -1.56801 0.158532 0
M  V30 2759 C 254.003 -1.96102 -0.488712 0
M  V30 2760 C 254.324 -1.04498 -1.64636 0
M  V30 2761 O 253.594 -0.108783 -1.95598 0
M  V30 2762 H 252.174 -0.724102 -0.183535 0
M  V30 2763 H 254.836 -1.93457 0.236728 0
M  V30 2764 H 253.932 -3.00097 -0.857219 0
M  V30 2765 N 254.233 0.115231 -1.57178 0
M  V30 2766 C 255.18 1.14115 -2.00615 0
M  V30 2767 C 256.15 1.40939 -0.878941 0
M  V30 2768 O 257.335 1.52741 -1.14345 0
M  V30 2769 C 254.475 2.46156 -2.4187 0
M  V30 2770 C 253.588 2.26236 -3.68024 0
M  V30 2771 C 252.723 3.51534 -3.98243 0
M  V30 2772 C 251.762 3.26787 -5.17568 0
M  V30 2773 N 250.899 4.44298 -5.43639 0
M  V30 2774 H 255.739 0.763743 -2.88047 0
M  V30 2775 H 253.276 0.365615 -1.42484 0
M  V30 2776 H 255.234 3.23189 -2.63827 0
M  V30 2777 H 253.864 2.81783 -1.57475 0
M  V30 2778 H 252.916 1.40102 -3.5366 0
M  V30 2779 H 254.228 2.03929 -4.55208 0
M  V30 2780 H 253.382 4.36984 -4.20868 0
M  V30 2781 H 252.121 3.76876 -3.09541 0
M  V30 2782 H 251.126 2.39729 -4.94783 0
M  V30 2783 H 252.351 3.02812 -6.0785 0
M  V30 2784 H 250.297 4.69754 -4.57895 0
M  V30 2785 H 250.214 4.25109 -6.25154 0
M  V30 2786 H 251.482 5.3087 -5.70786 0
M  V30 2787 N 255.711 1.52812 0.385517 0
M  V30 2788 C 256.658 1.77838 1.47113 0
M  V30 2789 C 257.628 0.621757 1.54024 0
M  V30 2790 O 258.813 0.861846 1.70226 0
M  V30 2791 C 255.953 1.95618 2.84302 0
M  V30 2792 C 255.066 3.23316 2.86515 0
M  V30 2793 C 254.201 3.31394 4.15152 0
M  V30 2794 C 253.24 4.53201 4.1143 0
M  V30 2795 N 252.377 4.58542 5.3168 0
M  V30 2796 H 257.217 2.70482 1.25073 0
M  V30 2797 H 254.754 1.34006 0.606692 0
M  V30 2798 H 256.712 2.03912 3.63972 0
M  V30 2799 H 255.342 1.06331 3.04784 0
M  V30 2800 H 254.394 3.24076 1.99195 0
M  V30 2801 H 255.706 4.13045 2.79634 0
M  V30 2802 H 254.86 3.3889 5.03228 0
M  V30 2803 H 253.599 2.39645 4.24761 0
M  V30 2804 H 252.604 4.45827 3.21742 0
M  V30 2805 H 253.829 5.46271 4.03442 0
M  V30 2806 H 251.775 3.69686 5.41912 0
M  V30 2807 H 251.692 5.42148 5.26889 0
M  V30 2808 H 252.96 4.70296 6.21644 0
M  V30 2809 N 257.189 -0.644168 1.43834 0
M  V30 2810 C 258.466 -1.40188 1.36406 0
M  V30 2811 C 258.846 -2.11094 0.0163124 0
M  V30 2812 O 258.194 -2.05426 -1.00062 0
M  V30 2813 C 258.404 -2.3791 2.55343 0
M  V30 2814 C 259.752 -3.01637 2.98832 0
M  V30 2815 O 260.776 -2.48237 2.55455 0
M  V30 2816 O 259.635 -3.98477 3.74003 0
M  V30 2817 H 256.729 -0.626773 0.539523 0
M  V30 2818 H 259.275 -0.670317 1.559 0
M  V30 2819 H 258.047 -1.84525 3.4506 0
M  V30 2820 H 257.67 -3.18503 2.37995 0
M  V30 2821 N 258.668 -1.30515 -0.883378 0
M  V30 2822 C 259.908 -1.20716 -1.64946 0
M  V30 2823 C 260.272 0.234072 -1.90568 0
M  V30 2824 O 261.473 0.455335 -2.64915 0
M  V30 2825 C 259.744 -2.01444 -2.9522 0
M  V30 2826 S 261.303 -2.0836 -3.86175 0
M  V30 2827 H 258.121 -0.430165 -0.566109 0
M  V30 2828 H 260.723 -1.65011 -1.04841 0
M  V30 2829 H 259.427 -3.05268 -2.74298 0
M  V30 2830 H 258.958 -1.57817 -3.60357 0
M  V30 2831 H 260.973 -1.21215 -4.81167 0
M  V30 2832 N 260.146 1.09593 -1.13257 0
M  V30 2833 C 261.423 1.78293 -0.804432 0
M  V30 2834 C 261.803 1.99004 0.70431 0
M  V30 2835 O 261.151 1.59007 1.641 0
M  V30 2836 C 261.361 3.10707 -1.5894 0
M  V30 2837 C 262.709 3.85443 -1.78099 0
M  V30 2838 O 263.733 3.20454 -1.55525 0
M  V30 2839 O 262.592 5.02108 -2.15753 0
M  V30 2840 H 259.686 0.773156 -0.293528 0
M  V30 2841 H 262.232 1.16164 -1.23709 0
M  V30 2842 H 261.004 2.91106 -2.61482 0
M  V30 2843 H 260.627 3.80558 -1.15157 0
M  V30 2844 N 261.624 0.925811 1.2754 0
M  V30 2845 C 262.534 0.428993 2.30644 0
M  V30 2846 C 263.55 -0.489387 1.66976 0
M  V30 2847 O 264.726 -0.372653 1.97922 0
M  V30 2848 C 261.791 -0.311967 3.45294 0
M  V30 2849 C 260.852 0.641098 4.24486 0
M  V30 2850 C 260.085 -0.0645955 5.33661 0
M  V30 2851 O 260.308 -1.28429 5.55754 0
M  V30 2852 O 259.242 0.606265 5.98839 0
M  V30 2853 H 263.068 1.28504 2.75173 0
M  V30 2854 H 260.653 0.691086 1.32455 0
M  V30 2855 H 262.535 -0.729972 4.15029 0
M  V30 2856 H 261.21 -1.14365 3.02824 0
M  V30 2857 H 260.117 1.10874 3.57292 0
M  V30 2858 H 261.45 1.43995 4.70666 0
M  V30 2859 N 263.102 -1.41638 0.69111 0
M  V30 2860 C 264.049 -2.30789 0.0229705 0
M  V30 2861 C 265.019 -1.46863 -0.775911 0
M  V30 2862 O 266.204 -1.75661 -0.74485 0
M  V30 2863 C 263.344 -3.32868 -0.910666 0
M  V30 2864 C 262.457 -4.31875 -0.103874 0
M  V30 2865 C 261.592 -5.21024 -1.03475 0
M  V30 2866 C 260.631 -6.11702 -0.220598 0
M  V30 2867 N 259.768 -6.93349 -1.10504 0
M  V30 2868 H 264.608 -2.87366 0.788978 0
M  V30 2869 H 262.145 -1.41535 0.400794 0
M  V30 2870 H 264.103 -3.90596 -1.46597 0
M  V30 2871 H 262.733 -2.77851 -1.64312 0
M  V30 2872 H 261.785 -3.76131 0.568285 0
M  V30 2873 H 263.097 -4.96003 0.527504 0
M  V30 2874 H 262.251 -5.83565 -1.65943 0
M  V30 2875 H 260.99 -4.57112 -1.69999 0
M  V30 2876 H 259.995 -5.48215 0.417187 0
M  V30 2877 H 261.22 -6.77668 0.440784 0
M  V30 2878 H 259.166 -6.3205 -1.75638 0
M  V30 2879 H 259.083 -7.54146 -0.529125 0
M  V30 2880 H 260.351 -7.60362 -1.71667 0
M  V30 2881 N 264.58 -0.43555 -1.51462 0
M  V30 2882 C 265.81 0.130053 -2.0619 0
M  V30 2883 C 266.218 1.37164 -1.30317 0
M  V30 2884 O 265.561 1.80225 -0.355598 0
M  V30 2885 C 265.623 0.519418 -3.55728 0
M  V30 2886 C 265.287 -0.615119 -4.52841 0
M  V30 2887 C 266.284 -1.48671 -4.9819 0
M  V30 2888 C 263.969 -0.795341 -4.95963 0
M  V30 2889 C 265.963 -2.52324 -5.8533 0
M  V30 2890 C 263.65 -1.83514 -5.82894 0
M  V30 2891 C 264.648 -2.69748 -6.27475 0
M  V30 2892 O 264.336 -3.71944 -7.1268 0
M  V30 2893 H 264.068 0.0121612 -0.675891 0
M  V30 2894 H 266.622 -0.6129 -1.96043 0
M  V30 2895 H 264.852 1.31505 -3.63653 0
M  V30 2896 H 266.541 1.01597 -3.92979 0
M  V30 2897 H 267.307 -1.359 -4.65571 0
M  V30 2898 H 263.186 -0.133713 -4.60806 0
M  V30 2899 H 266.73 -3.19665 -6.20048 0
M  V30 2900 H 262.627 -1.96306 -6.14926 0
M  V30 2901 H 263.395 -3.68503 -7.30854 0
M  V30 2902 N 266.058 1.56714 -0.166846 0
M  V30 2903 C 266.968 2.21331 0.777791 0
M  V30 2904 C 267.984 1.20358 1.25658 0
M  V30 2905 O 269.16 1.53005 1.30964 0
M  V30 2906 C 266.225 2.83787 1.99163 0
M  V30 2907 C 265.286 3.99947 1.56016 0
M  V30 2908 C 264.519 4.59415 2.71613 0
M  V30 2909 O 264.742 4.17769 3.88362 0
M  V30 2910 O 263.676 5.49359 2.45945 0
M  V30 2911 H 267.502 3.02605 0.257636 0
M  V30 2912 H 265.087 1.49275 0.0611393 0
M  V30 2913 H 266.969 3.23405 2.70161 0
M  V30 2914 H 265.644 2.05513 2.50092 0
M  V30 2915 H 264.551 3.65007 0.819809 0
M  V30 2916 H 265.884 4.79801 1.09782 0
M  V30 2917 N 267.536 -0.106894 1.57237 0
M  V30 2918 C 268.499 -1.11466 2.0027 0
M  V30 2919 C 269.499 -1.33623 0.894519 0
M  V30 2920 O 270.689 -1.29935 1.16028 0
M  V30 2921 C 267.821 -2.46646 2.35327 0
M  V30 2922 H 269.014 -0.744516 2.90512 0
M  V30 2923 H 266.567 -0.351576 1.52295 0
M  V30 2924 H 267.302 -2.88558 1.48003 0
M  V30 2925 H 267.087 -2.31915 3.16161 0
M  V30 2926 H 268.577 -3.19151 2.69318 0
M  V30 2927 N 269.014 -1.53014 -0.377408 0
M  V30 2928 C 269.977 -1.77957 -1.44444 0
M  V30 2929 C 270.977 -0.649763 -1.47087 0
M  V30 2930 O 272.167 -0.917897 -1.48055 0
M  V30 2931 C 269.299 -1.89089 -2.83651 0
M  V30 2932 H 270.492 -2.73243 -1.23606 0
M  V30 2933 H 268.045 -1.43912 -0.609844 0
M  V30 2934 H 268.78 -0.958293 -3.09818 0
M  V30 2935 H 268.565 -2.71254 -2.83132 0
M  V30 2936 H 270.055 -2.1002 -3.60945 0
M  V30 2937 N 270.492 0.636531 -1.44174 0
M  V30 2938 C 271.44 1.76995 -1.50915 0
M  V30 2939 C 272.434 1.65053 -0.381295 0
M  V30 2940 O 273.64 1.71197 -0.55601 0
M  V30 2941 H 270.015 0.584247 -0.473455 0
M  V30 2942 H 271.986 1.68432 -2.4632 0
M  V30 2943 C 270.735 3.15314 -1.46534 0
M  V30 2944 H 270.058 3.25149 -2.32633 0
M  V30 2945 H 271.498 3.9453 -1.55312 0
M  V30 2946 C 269.957 3.3639 -0.185305 0
M  V30 2947 O 270.487 3.94699 0.746688 0
M  V30 2948 N 268.693 2.9046 -0.0901606 0
M  V30 2949 H 268.24 2.43193 -0.849416 0
M  V30 2950 H 268.198 3.04937 0.765553 0
M  V30 2951 N 271.97 1.30982 0.876444 0
M  V30 2952 C 273.2 1.23063 1.65949 0
M  V30 2953 C 273.608 -0.207537 1.88058 0
M  V30 2954 O 272.951 -1.14781 1.43426 0
M  V30 2955 C 273.013 1.89768 3.05333 0
M  V30 2956 C 272.677 3.39106 3.0636 0
M  V30 2957 C 273.674 4.3496 2.84791 0
M  V30 2958 C 271.359 3.80693 3.27686 0
M  V30 2959 C 273.353 5.70375 2.84519 0
M  V30 2960 C 271.04 5.16223 3.27043 0
M  V30 2961 C 272.038 6.10875 3.05485 0
M  V30 2962 O 271.726 7.43928 3.04674 0
M  V30 2963 H 271.458 0.426685 0.524324 0
M  V30 2964 H 274.012 1.7329 1.10271 0
M  V30 2965 H 272.242 1.34082 3.6271 0
M  V30 2966 H 273.931 1.75853 3.65829 0
M  V30 2967 H 274.697 4.0416 2.68103 0
M  V30 2968 H 270.576 3.07457 3.43499 0
M  V30 2969 H 274.12 6.44228 2.67611 0
M  V30 2970 H 270.017 5.4666 3.43269 0
M  V30 2971 H 270.785 7.53022 3.2078 0
M  V30 2972 N 273.449 -1.08991 1.13837 0
M  V30 2973 C 274.412 -2.13925 0.822715 0
M  V30 2974 C 275.412 -1.599 -0.1699 0
M  V30 2975 O 276.602 -1.74104 0.0577251 0
M  V30 2976 C 273.734 -3.40155 0.225318 0
M  V30 2977 H 274.927 -2.43358 1.75262 0
M  V30 2978 H 272.48 -1.24603 0.943594 0
M  V30 2979 H 273.215 -3.16352 -0.713594 0
M  V30 2980 H 273 -3.80661 0.940193 0
M  V30 2981 H 274.49 -4.17594 0.0214784 0
M  V30 2982 N 274.927 -0.932562 -1.27047 0
M  V30 2983 C 276.174 -0.575559 -1.94148 0
M  V30 2984 C 276.502 0.883984 -1.73251 0
M  V30 2985 O 275.757 1.64655 -1.0577 0
M  V30 2986 C 276.056 -0.853713 -3.47054 0
M  V30 2987 C 275.722 -2.29577 -3.88079 0
M  V30 2988 C 274.384 -2.68999 -3.9899 0
M  V30 2989 C 276.736 -3.23331 -4.08787 0
M  V30 2990 C 274.064 -4.01289 -4.28 0
M  V30 2991 C 276.416 -4.55207 -4.39282 0
M  V30 2992 C 275.08 -4.94457 -4.48407 0
M  V30 2993 H 274.35 -0.210612 -0.710439 0
M  V30 2994 H 276.997 -1.17744 -1.51025 0
M  V30 2995 H 275.302 -0.169204 -3.91434 0
M  V30 2996 H 276.999 -0.55639 -3.97121 0
M  V30 2997 H 273.589 -1.97994 -3.80127 0
M  V30 2998 H 277.773 -2.94074 -3.99793 0
M  V30 2999 H 273.029 -4.31374 -4.33275 0
M  V30 3000 H 277.203 -5.27852 -4.54252 0
M  V30 3001 H 274.83 -5.96994 -4.7064 0
M  V30 3002 N 276.405 1.4127 -0.698611 0
M  V30 3003 C 277.63 2.06024 -0.238512 0
M  V30 3004 C 278.055 1.5224 1.10475 0
M  V30 3005 O 277.413 0.650623 1.69223 0
M  V30 3006 C 277.461 3.59988 -0.209952 0
M  V30 3007 O 276.565 4.04282 0.814235 0
M  V30 3008 H 275.906 0.653829 -0.115775 0
M  V30 3009 H 278.436 1.8098 -0.954326 0
M  V30 3010 H 278.446 4.07979 -0.0418436 0
M  V30 3011 H 277.121 3.98503 -1.1903 0
M  V30 3012 H 275.698 3.6779 0.615234 0
M  V30 3013 N 277.883 0.443576 1.51229 0
M  V30 3014 C 278.793 -0.370721 2.31652 0
M  V30 3015 C 279.809 -1.02186 1.40833 0
M  V30 3016 O 280.985 -1.01586 1.73903 0
M  V30 3017 C 278.05 -1.45376 3.14749 0
M  V30 3018 C 277.111 -0.822099 4.21355 0
M  V30 3019 C 276.344 -1.85353 5.0048 0
M  V30 3020 O 276.567 -3.07656 4.80316 0
M  V30 3021 O 275.501 -1.4406 5.84406 0
M  V30 3022 H 279.327 0.286002 3.0235 0
M  V30 3023 H 276.912 0.20598 1.47973 0
M  V30 3024 H 278.794 -2.08173 3.66391 0
M  V30 3025 H 277.469 -2.09445 2.46809 0
M  V30 3026 H 276.376 -0.155909 3.73775 0
M  V30 3027 H 277.709 -0.224797 4.91686 0
M  V30 3028 N 279.361 -1.56624 0.175154 0
M  V30 3029 C 280.271 -2.21741 -0.766042 0
M  V30 3030 C 281.287 -1.21023 -1.25018 0
M  V30 3031 O 282.463 -1.53697 -1.3015 0
M  V30 3032 C 279.528 -2.84839 -1.97655 0
M  V30 3033 C 278.589 -4.00769 -1.53892 0
M  V30 3034 C 277.822 -4.60849 -2.69173 0
M  V30 3035 O 278.045 -4.19823 -3.86141 0
M  V30 3036 O 276.979 -5.50655 -2.43028 0
M  V30 3037 H 280.805 -3.02738 -0.241585 0
M  V30 3038 H 278.39 -1.49305 -0.053222 0
M  V30 3039 H 280.272 -3.24834 -2.68442 0
M  V30 3040 H 278.947 -2.06836 -2.48999 0
M  V30 3041 H 277.854 -3.65436 -0.80044 0
M  V30 3042 H 279.187 -4.80376 -1.07236 0
M  V30 3043 N 280.839 0.0985539 -1.57292 0
M  V30 3044 C 282.079 0.808332 -1.87737 0
M  V30 3045 C 282.443 1.7607 -0.76572 0
M  V30 3046 O 283.644 2.51358 -0.952499 0
M  V30 3047 C 281.915 1.52093 -3.23423 0
M  V30 3048 S 283.474 2.26947 -3.75554 0
M  V30 3049 H 280.292 0.269377 -0.657995 0
M  V30 3050 H 282.894 0.0656269 -1.9539 0
M  V30 3051 H 281.598 0.81363 -4.02254 0
M  V30 3052 H 281.129 2.30361 -3.189 0
M  V30 3053 H 283.144 3.53027 -3.48692 0
M  V30 3054 N 282.317 1.53212 0.369288 0
M  V30 3055 C 283.728 1.60943 0.946276 0
M  V30 3056 C 284.079 0.47452 1.90375 0
M  V30 3057 O 283.204 -0.399597 2.12679 0
M  V30 3058 C 283.799 2.91715 1.72302 0
M  V30 3059 C 282.358 3.01792 2.24941 0
M  V30 3060 C 281.505 2.56211 1.06072 0
M  V30 3061 H 284.456 1.58007 0.148198 0
M  V30 3062 H 284.477 2.79309 2.58393 0
M  V30 3063 H 283.989 3.74295 1.0259 0
M  V30 3064 H 282.09 2.23791 2.97906 0
M  V30 3065 H 282.203 4.06803 2.53077 0
M  V30 3066 H 280.567 2.10998 1.4266 0
M  V30 3067 H 281.35 3.41206 0.378639 0
M  V30 3068 N 283.795 -0.628877 1.44509 0
M  V30 3069 C 285.025 -1.41349 1.50678 0
M  V30 3070 C 285.433 -1.88745 0.131075 0
M  V30 3071 O 284.776 -1.61592 -0.87371 0
M  V30 3072 C 284.838 -2.66608 2.41165 0
M  V30 3073 C 284.502 -2.40993 3.88293 0
M  V30 3074 C 285.499 -2.0268 4.78766 0
M  V30 3075 C 283.184 -2.54563 4.33016 0
M  V30 3076 C 285.178 -1.78269 6.11963 0
M  V30 3077 C 282.865 -2.29766 5.6626 0
M  V30 3078 C 283.863 -1.91678 6.55552 0
M  V30 3079 O 283.551 -1.67158 7.86329 0
M  V30 3080 H 283.283 -0.439851 0.51333 0
M  V30 3081 H 285.837 -0.776084 1.90174 0
M  V30 3082 H 284.067 -3.32994 1.96601 0
M  V30 3083 H 285.756 -3.28615 2.38259 0
M  V30 3084 H 286.522 -1.91751 4.45485 0
M  V30 3085 H 282.401 -2.83179 3.63773 0
M  V30 3086 H 285.945 -1.48465 6.81619 0
M  V30 3087 H 281.842 -2.40306 5.99102 0
M  V30 3088 H 282.61 -1.81386 7.98149 0
M  V30 3089 N 285.273 -1.31445 -0.869486 0
M  V30 3090 C 286.501 -1.24122 -1.65534 0
M  V30 3091 C 286.916 0.193387 -1.87807 0
M  V30 3092 O 286.273 1.12557 -1.43656 0
M  V30 3093 C 286.324 -1.98229 -3.02304 0
M  V30 3094 O 286.045 -3.3609 -2.81026 0
M  V30 3095 C 287.546 -1.97751 -3.96749 0
M  V30 3096 H 284.766 -0.428868 -0.516055 0
M  V30 3097 H 287.31 -1.73328 -1.08525 0
M  V30 3098 H 285.465 -1.52782 -3.56001 0
M  V30 3099 H 285.879 -3.7383 -3.67902 0
M  V30 3100 H 287.353 -2.54114 -4.90031 0
M  V30 3101 H 287.83 -0.960137 -4.28577 0
M  V30 3102 H 288.436 -2.43079 -3.48988 0
M  V30 3103 N 286.751 1.08385 -1.14413 0
M  V30 3104 C 287.997 1.81044 -0.913834 0
M  V30 3105 C 288.33 1.86004 0.558209 0
M  V30 3106 O 287.605 1.33606 1.4135 0
M  V30 3107 C 287.888 3.26648 -1.51569 0
M  V30 3108 C 287.741 3.29895 -3.0576 0
M  V30 3109 C 289.06 4.23629 -1.19273 0
M  V30 3110 H 286.179 0.65727 -0.333414 0
M  V30 3111 H 288.821 1.26896 -1.41412 0
M  V30 3112 H 286.971 3.72889 -1.09023 0
M  V30 3113 H 288.643 2.91977 -3.57137 0
M  V30 3114 H 286.886 2.69163 -3.40197 0
M  V30 3115 H 287.557 4.32516 -3.42977 0
M  V30 3116 H 290.033 3.85727 -1.56057 0
M  V30 3117 H 288.909 5.23822 -1.64017 0
M  V30 3118 H 289.17 4.41968 -0.108068 0
M  V30 3119 N 288.23 0.939286 1.26551 0
M  V30 3120 C 289.178 0.43815 2.28436 0
M  V30 3121 C 290.172 -0.483587 1.62351 0
M  V30 3122 O 291.378 -0.362009 1.76322 0
M  V30 3123 H 287.753 0.123149 0.741848 0
M  V30 3124 H 289.724 1.31002 2.68106 0
M  V30 3125 C 288.473 -0.283052 3.46546 0
M  V30 3126 H 287.796 0.417043 3.97619 0
M  V30 3127 H 289.236 -0.597948 4.19763 0
M  V30 3128 C 287.695 -1.50018 3.01656 0
M  V30 3129 O 288.225 -2.59855 3.0633 0
M  V30 3130 N 286.431 -1.35608 2.57019 0
M  V30 3131 H 285.978 -0.46244 2.53415 0
M  V30 3132 H 285.936 -2.17165 2.27347 0
M  V30 3133 N 289.708 -1.40897 0.706093 0
M  V30 3134 C 290.985 -1.94868 0.169099 0
M  V30 3135 C 291.365 -1.64485 -1.32318 0
M  V30 3136 O 290.713 -0.95744 -2.07474 0
M  V30 3137 C 290.923 -3.45798 0.471654 0
M  V30 3138 C 292.271 -4.22663 0.405127 0
M  V30 3139 O 293.295 -3.53865 0.407168 0
M  V30 3140 O 292.154 -5.45216 0.374383 0
M  V30 3141 H 289.248 -0.82673 0.0211352 0
M  V30 3142 H 291.794 -1.50558 0.782976 0
M  V30 3143 H 290.566 -3.61235 1.50416 0
M  V30 3144 H 290.189 -3.97225 -0.172666 0
M  V30 3145 N 291.186 -0.45159 -1.50991 0
M  V30 3146 C 292.416 0.108177 -2.06317 0
M  V30 3147 C 292.824 1.35774 -1.31765 0
M  V30 3148 O 292.167 1.79838 -0.374694 0
M  V30 3149 C 292.229 0.481659 -3.56259 0
M  V30 3150 C 291.893 -0.663114 -4.52163 0
M  V30 3151 C 292.89 -1.53947 -4.96585 0
M  V30 3152 C 290.575 -0.8479 -4.95092 0
M  V30 3153 C 292.569 -2.58518 -5.82621 0
M  V30 3154 C 290.256 -1.89686 -5.80915 0
M  V30 3155 C 291.254 -2.76388 -6.24579 0
M  V30 3156 O 290.942 -3.79482 -7.08695 0
M  V30 3157 H 290.674 0.00499183 -0.675982 0
M  V30 3158 H 293.228 -0.633659 -1.95381 0
M  V30 3159 H 291.458 1.27641 -3.65027 0
M  V30 3160 H 293.147 0.974233 -3.94035 0
M  V30 3161 H 293.913 -1.4083 -4.64103 0
M  V30 3162 H 289.792 -0.18258 -4.60638 0
M  V30 3163 H 293.336 -3.26224 -6.16623 0
M  V30 3164 H 289.233 -2.02817 -6.12809 0
M  V30 3165 H 290.001 -3.76234 -7.26905 0
M  V30 3166 N 292.664 1.56529 -0.183458 0
M  V30 3167 C 293.889 2.02064 0.467428 0
M  V30 3168 C 294.314 1.06282 1.55196 0
M  V30 3169 O 293.672 0.0443565 1.81246 0
M  V30 3170 C 293.72 3.46122 1.01153 0
M  V30 3171 O 292.824 3.53437 2.12499 0
M  V30 3172 H 292.165 0.654726 0.110588 0
M  V30 3173 H 294.695 2.02521 -0.290917 0
M  V30 3174 H 294.705 3.85676 1.33108 0
M  V30 3175 H 293.38 4.15331 0.217533 0
M  V30 3176 H 291.957 3.2575 1.81497 0
M  V30 3177 N 294.142 -0.090211 1.57342 0
M  V30 3178 C 295.074 -1.13541 1.99101 0
M  V30 3179 C 296.087 -1.3604 0.894258 0
M  V30 3180 O 297.276 -1.34606 1.17233 0
M  V30 3181 C 294.376 -2.49001 2.29895 0
M  V30 3182 C 293.549 -2.46712 3.61182 0
M  V30 3183 C 292.608 -3.64136 3.79857 0
M  V30 3184 O 291.634 -3.46405 4.51655 0
M  V30 3185 N 292.836 -4.83802 3.20806 0
M  V30 3186 H 295.601 -0.779942 2.89373 0
M  V30 3187 H 293.162 -0.279125 1.59476 0
M  V30 3188 H 295.154 -3.26166 2.39578 0
M  V30 3189 H 293.724 -2.76619 1.45605 0
M  V30 3190 H 292.944 -1.55058 3.62423 0
M  V30 3191 H 294.232 -2.42265 4.4742 0
M  V30 3192 H 293.63 -5.01112 2.62494 0
M  V30 3193 H 292.187 -5.58543 3.35966 0
M  V30 3194 N 295.62 -1.53406 -0.361157 0
M  V30 3195 C 296.53 -1.83122 -1.4664 0
M  V30 3196 C 297.546 -0.719943 -1.58407 0
M  V30 3197 O 298.722 -1.01046 -1.74218 0
M  V30 3198 C 295.787 -2.01891 -2.81853 0
M  V30 3199 C 294.848 -3.25784 -2.79577 0
M  V30 3200 C 294.081 -3.43648 -4.0834 0
M  V30 3201 O 294.304 -2.65714 -5.0473 0
M  V30 3202 O 293.238 -4.37018 -4.13883 0
M  V30 3203 H 297.064 -2.7703 -1.24451 0
M  V30 3204 H 294.649 -1.38841 -0.551678 0
M  V30 3205 H 296.531 -2.15782 -3.61962 0
M  V30 3206 H 295.206 -1.11173 -3.0401 0
M  V30 3207 H 294.113 -3.17312 -1.98151 0
M  V30 3208 H 295.446 -4.16439 -2.62373 0
M  V30 3209 N 297.098 0.621204 -1.44841 0
M  V30 3210 C 298.046 1.75385 -1.52784 0
M  V30 3211 C 299.04 1.64639 -0.398779 0
M  V30 3212 O 300.246 1.70598 -0.574137 0
M  V30 3213 H 296.621 0.579193 -0.479625 0
M  V30 3214 H 298.592 1.6581 -2.48092 0
M  V30 3215 C 297.341 3.13742 -1.4987 0
M  V30 3216 H 296.664 3.22663 -2.36069 0
M  V30 3217 H 298.104 3.92861 -1.59487 0
M  V30 3218 C 296.563 3.36175 -0.220973 0
M  V30 3219 O 297.093 3.95469 0.704782 0
M  V30 3220 N 295.299 2.90348 -0.120963 0
M  V30 3221 H 294.846 2.42278 -0.875162 0
M  V30 3222 H 294.804 3.05732 0.733168 0
M  V30 3223 N 298.576 1.31904 0.862503 0
M  V30 3224 C 299.824 1.21776 1.61292 0
M  V30 3225 C 300.145 -0.222413 1.93727 0
M  V30 3226 O 299.415 -1.1451 1.58947 0
M  V30 3227 H 297.995 0.447717 0.597962 0
M  V30 3228 H 300.657 1.65326 1.03215 0
M  V30 3229 H 299.753 1.7948 2.5533 0
M  V30 3230 N 300.054 -1.07777 1.14986 0
M  V30 3231 C 301.465 -1.61766 0.932127 0
M  V30 3232 C 301.816 -1.88974 -0.527581 0
M  V30 3233 O 300.941 -1.65198 -1.39781 0
M  V30 3234 C 301.536 -2.93891 1.68563 0
M  V30 3235 C 300.095 -3.44639 1.5133 0
M  V30 3236 C 299.242 -2.18767 1.704 0
M  V30 3237 H 302.193 -0.909201 1.30074 0
M  V30 3238 H 302.214 -3.62623 1.15259 0
M  V30 3239 H 301.726 -2.74057 2.74799 0
M  V30 3240 H 299.827 -3.69564 0.474702 0
M  V30 3241 H 299.94 -4.20966 2.28746 0
M  V30 3242 H 298.304 -2.28253 1.13016 0
M  V30 3243 H 299.087 -2.01433 2.77992 0
M  V30 3244 N 301.532 -0.945985 -1.26051 0
M  V30 3245 C 302.48 -0.450259 -2.282 0
M  V30 3246 C 303.474 0.47497 -1.62605 0
M  V30 3247 O 304.68 0.352653 -1.76512 0
M  V30 3248 H 301.055 -0.127081 -0.741184 0
M  V30 3249 H 303.026 -1.32422 -2.67408 0
M  V30 3250 C 301.775 0.26467 -3.46691 0
M  V30 3251 H 301.098 -0.438123 -3.97392 0
M  V30 3252 H 302.538 0.575678 -4.20074 0
M  V30 3253 C 300.997 1.48416 -3.02447 0
M  V30 3254 O 301.527 2.58227 -3.07704 0
M  V30 3255 N 299.733 1.34243 -2.57735 0
M  V30 3256 H 299.28 0.448994 -2.53657 0
M  V30 3257 H 299.238 2.15957 -2.28495 0
M  V30 3258 N 303.011 1.40521 -0.713556 0
M  V30 3259 C 304.26 2.00155 -0.249192 0
M  V30 3260 C 304.573 1.57224 1.16362 0
M  V30 3261 O 305.779 2.09542 1.72639 0
M  V30 3262 C 304.235 3.5773 -0.3946 0
M  V30 3263 C 303.843 4.09635 -1.81392 0
M  V30 3264 C 305.587 4.24499 0.00907364 0
M  V30 3265 C 303.494 5.59707 -1.91003 0
M  V30 3266 H 302.424 0.74868 -0.0894114 0
M  V30 3267 H 305.075 1.60784 -0.884352 0
M  V30 3268 H 303.457 3.94792 0.30911 0
M  V30 3269 H 304.631 3.83955 -2.54785 0
M  V30 3270 H 302.946 3.55456 -2.16888 0
M  V30 3271 H 305.543 5.34683 -0.0420404 0
M  V30 3272 H 305.886 4.02824 1.05065 0
M  V30 3273 H 306.419 3.92536 -0.645007 0
M  V30 3274 H 303.158 5.86234 -2.93275 0
M  V30 3275 H 302.678 5.87258 -1.22019 0
M  V30 3276 H 304.357 6.24776 -1.6812 0
M  V30 3277 N 304.489 0.459591 1.5075 0
M  V30 3278 C 305.736 -0.0993495 2.02256 0
M  V30 3279 C 306.064 -1.40751 1.34237 0
M  V30 3280 O 305.319 -1.90379 0.453228 0
M  V30 3281 C 305.618 -0.342866 3.55752 0
M  V30 3282 C 305.284 0.88218 4.42186 0
M  V30 3283 C 303.946 1.21808 4.65528 0
M  V30 3284 C 306.298 1.69837 4.92752 0
M  V30 3285 C 303.626 2.37045 5.36681 0
M  V30 3286 C 305.978 2.84192 5.65171 0
M  V30 3287 C 304.642 3.1821 5.8677 0
M  V30 3288 H 303.912 -0.0363545 0.740108 0
M  V30 3289 H 306.559 0.611329 1.8148 0
M  V30 3290 H 304.864 -1.13567 3.7498 0
M  V30 3291 H 306.561 -0.789121 3.93159 0
M  V30 3292 H 303.151 0.610467 4.2423 0
M  V30 3293 H 307.335 1.45205 4.74583 0
M  V30 3294 H 302.591 2.63689 5.51614 0
M  V30 3295 H 306.765 3.4779 6.03337 0
M  V30 3296 H 304.392 4.07613 6.41682 0
M  V30 3297 N 305.967 -1.56429 0.191757 0
M  V30 3298 C 306.93 -2.17707 -0.716688 0
M  V30 3299 C 307.93 -1.13061 -1.14341 0
M  V30 3300 O 309.12 -1.38464 -1.05704 0
M  V30 3301 C 306.252 -2.77644 -1.97804 0
M  V30 3302 H 307.445 -2.99342 -0.1829 0
M  V30 3303 H 304.998 -1.56193 -0.0578566 0
M  V30 3304 H 305.733 -1.99799 -2.55443 0
M  V30 3305 H 305.518 -3.54246 -1.68083 0
M  V30 3306 H 307.008 -3.24708 -2.62592 0
M  V30 3307 N 307.445 0.0818655 -1.57387 0
M  V30 3308 C 308.375 1.09885 -2.06028 0
M  V30 3309 C 309.356 1.4098 -0.951774 0
M  V30 3310 O 310.541 1.50781 -1.22387 0
M  V30 3311 C 307.671 2.4151 -2.4958 0
M  V30 3312 C 306.625 2.24792 -3.64215 0
M  V30 3313 C 305.951 3.61712 -3.93787 0
M  V30 3314 C 307.251 1.67749 -4.94629 0
M  V30 3315 H 308.945 0.694128 -2.91243 0
M  V30 3316 H 306.491 0.332448 -1.4011 0
M  V30 3317 H 308.444 3.12939 -2.82219 0
M  V30 3318 H 307.168 2.83943 -1.61381 0
M  V30 3319 H 305.827 1.55807 -3.31843 0
M  V30 3320 H 305.475 4.01697 -3.02735 0
M  V30 3321 H 305.175 3.51368 -4.70971 0
M  V30 3322 H 306.699 4.34587 -4.28913 0
M  V30 3323 H 308.113 2.29032 -5.25564 0
M  V30 3324 H 306.51 1.68128 -5.76067 0
M  V30 3325 H 307.58 0.638059 -4.80684 0
M  V30 3326 N 308.923 1.53595 0.353017 0
M  V30 3327 C 310.339 1.43648 0.695516 0
M  V30 3328 C 310.539 0.585617 1.92802 0
M  V30 3329 O 309.595 0.0729223 2.52395 0
M  V30 3330 C 310.908 2.8701 0.896991 0
M  V30 3331 C 312.456 2.96723 0.996209 0
M  V30 3332 C 312.931 4.41173 1.23007 0
M  V30 3333 N 314.422 4.44657 1.29749 0
M  V30 3334 C 315.157 5.53547 1.49577 0
M  V30 3335 N 314.653 6.72461 1.66639 0
M  V30 3336 N 316.446 5.41145 1.52048 0
M  V30 3337 H 308.597 2.07415 -0.457481 0
M  V30 3338 H 310.86 0.9372 -0.142687 0
M  V30 3339 H 310.566 3.51644 0.0629938 0
M  V30 3340 H 310.44 3.31401 1.80148 0
M  V30 3341 H 312.827 2.32235 1.82074 0
M  V30 3342 H 312.908 2.55707 0.0688331 0
M  V30 3343 H 312.552 5.06238 0.410505 0
M  V30 3344 H 312.482 4.79772 2.17086 0
M  V30 3345 H 314.973 3.58963 1.18126 0
M  V30 3346 H 315.286 7.51214 1.81378 0
M  V30 3347 H 313.631 6.75423 1.63794 0
M  V30 3348 H 316.822 4.47205 1.38294 0
M  V30 3349 H 316.995 6.26068 1.67159 0
M  V30 3350 N 310.401 -0.613514 1.45168 0
M  V30 3351 C 311.348 -1.72456 1.53387 0
M  V30 3352 C 312.318 -1.6169 0.380191 0
M  V30 3353 O 313.503 -1.81356 0.592836 0
M  V30 3354 C 310.643 -3.10753 1.50088 0
M  V30 3355 C 309.756 -3.32368 2.75963 0
M  V30 3356 C 308.891 -4.60737 2.64376 0
M  V30 3357 C 307.93 -4.7559 3.85332 0
M  V30 3358 N 307.067 -5.95253 3.72315 0
M  V30 3359 H 311.907 -1.64768 2.48305 0
M  V30 3360 H 309.444 -0.803503 1.23216 0
M  V30 3361 H 311.402 -3.90758 1.46164 0
M  V30 3362 H 310.032 -3.17413 0.587243 0
M  V30 3363 H 309.084 -2.4618 2.89999 0
M  V30 3364 H 310.396 -3.39218 3.65695 0
M  V30 3365 H 309.55 -5.48928 2.58385 0
M  V30 3366 H 308.289 -4.56275 1.72233 0
M  V30 3367 H 307.294 -3.85824 3.91688 0
M  V30 3368 H 308.519 -4.81854 4.78533 0
M  V30 3369 H 306.465 -5.91847 2.82937 0
M  V30 3370 H 306.382 -6.03236 4.55677 0
M  V30 3371 H 307.65 -6.85958 3.70246 0
M  V30 3372 N 311.879 -1.3236 -0.855495 0
M  V30 3373 C 313.295 -1.11332 -1.14356 0
M  V30 3374 C 313.495 0.106751 -2.01217 0
M  V30 3375 O 312.551 0.791891 -2.39761 0
M  V30 3376 C 313.864 -2.39237 -1.82171 0
M  V30 3377 C 315.412 -2.44986 -1.9481 0
M  V30 3378 C 315.887 -3.7281 -2.66039 0
M  V30 3379 N 317.378 -3.73787 -2.73565 0
M  V30 3380 C 318.113 -4.69394 -3.29327 0
M  V30 3381 N 317.609 -5.75367 -3.85907 0
M  V30 3382 N 319.402 -4.56893 -3.27423 0
M  V30 3383 H 311.553 -2.10586 -0.277027 0
M  V30 3384 H 313.816 -0.929701 -0.185364 0
M  V30 3385 H 313.522 -3.28431 -1.25802 0
M  V30 3386 H 313.396 -2.50134 -2.82335 0
M  V30 3387 H 315.783 -1.56252 -2.50338 0
M  V30 3388 H 315.864 -2.38043 -0.936448 0
M  V30 3389 H 315.508 -4.61918 -2.11174 0
M  V30 3390 H 315.438 -3.77024 -3.67642 0
M  V30 3391 H 317.929 -2.97189 -2.33424 0
M  V30 3392 H 318.242 -6.44378 -4.26611 0
M  V30 3393 H 316.587 -5.79123 -3.84242 0
M  V30 3394 H 319.778 -3.73269 -2.82467 0
M  V30 3395 H 319.951 -5.31577 -3.7058 0
M  V30 3396 N 313.357 1.07166 -1.15556 0
M  V30 3397 C 314.604 1.79798 -0.931604 0
M  V30 3398 C 314.932 1.8682 0.54115 0
M  V30 3399 O 314.187 1.34942 1.41736 0
M  V30 3400 C 314.486 3.24707 -1.49332 0
M  V30 3401 C 314.152 3.37781 -2.98688 0
M  V30 3402 C 312.814 3.41057 -3.39461 0
M  V30 3403 C 315.166 3.40424 -3.94665 0
M  V30 3404 C 312.494 3.4458 -4.74849 0
M  V30 3405 C 314.846 3.45485 -5.29927 0
M  V30 3406 C 313.51 3.47039 -5.70193 0
M  V30 3407 H 312.78 0.657928 -0.340898 0
M  V30 3408 H 315.427 1.26091 -1.44129 0
M  V30 3409 H 313.732 3.81208 -0.904859 0
M  V30 3410 H 315.429 3.79486 -1.29582 0
M  V30 3411 H 312.019 3.35932 -2.66172 0
M  V30 3412 H 316.203 3.37113 -3.64237 0
M  V30 3413 H 311.459 3.44083 -5.05388 0
M  V30 3414 H 315.633 3.46476 -6.04092 0
M  V30 3415 H 313.26 3.49522 -6.75084 0
M  V30 3416 N 314.835 0.952656 1.25548 0
M  V30 3417 C 316.246 0.647392 1.75116 0
M  V30 3418 C 316.597 -0.837274 1.77438 0
M  V30 3419 O 315.722 -1.65525 1.39393 0
M  V30 3420 C 316.317 1.16845 3.18014 0
M  V30 3421 C 314.876 0.913382 3.6515 0
M  V30 3422 C 314.023 1.31265 2.44264 0
M  V30 3423 H 316.974 1.12968 1.11462 0
M  V30 3424 H 316.995 0.527606 3.76824 0
M  V30 3425 H 316.507 2.24902 3.16292 0
M  V30 3426 H 314.608 -0.152316 3.72289 0
M  V30 3427 H 314.721 1.54845 4.53387 0
M  V30 3428 H 313.085 0.731028 2.43984 0
M  V30 3429 H 313.868 2.40239 2.45234 0
M  V30 3430 N 316.313 -1.40141 0.720998 0
M  V30 3431 C 317.243 -2.33339 0.0867621 0
M  V30 3432 C 318.224 -1.53178 -0.739622 0
M  V30 3433 O 319.409 -1.81625 -0.687449 0
M  V30 3434 C 316.539 -3.37194 -0.831728 0
M  V30 3435 C 315.493 -4.27857 -0.110558 0
M  V30 3436 C 314.819 -5.22294 -1.14513 0
M  V30 3437 C 316.119 -5.11872 1.0385 0
M  V30 3438 H 317.813 -2.86626 0.865219 0
M  V30 3439 H 315.359 -1.37814 0.417516 0
M  V30 3440 H 317.312 -4.01335 -1.28485 0
M  V30 3441 H 316.036 -2.82314 -1.64214 0
M  V30 3442 H 314.695 -3.65176 0.322797 0
M  V30 3443 H 314.343 -4.63717 -1.94874 0
M  V30 3444 H 314.043 -5.83797 -0.667446 0
M  V30 3445 H 315.567 -5.89312 -1.59824 0
M  V30 3446 H 316.981 -5.69436 0.664482 0
M  V30 3447 H 315.378 -5.82445 1.4449 0
M  V30 3448 H 316.448 -4.4753 1.86668 0
M  V30 3449 N 317.792 -0.46758 -1.50504 0
M  V30 3450 C 319.04 0.0884469 -2.01906 0
M  V30 3451 C 319.361 1.40532 -1.35188 0
M  V30 3452 O 318.631 1.89515 -0.496079 0
M  V30 3453 H 317.211 0.0356765 -0.746148 0
M  V30 3454 H 319.873 -0.6172 -1.84869 0
M  V30 3455 H 318.969 0.2425 -3.11156 0
M  V30 3456 N 319.27 1.56325 -0.20005 0
M  V30 3457 C 320.203 2.15234 0.758267 0
M  V30 3458 C 321.181 1.09046 1.20614 0
M  V30 3459 O 322.365 1.37186 1.29276 0
M  V30 3460 C 319.492 2.71524 2.02466 0
M  V30 3461 C 318.538 3.90345 1.71852 0
M  V30 3462 S 319.371 5.28513 0.862249 0
M  V30 3463 C 320.527 5.88227 2.13868 0
M  V30 3464 H 320.76 2.96183 0.2575 0
M  V30 3465 H 318.293 1.54393 0.0150099 0
M  V30 3466 H 320.251 3.04598 2.75191 0
M  V30 3467 H 318.912 1.90607 2.49655 0
M  V30 3468 H 318.105 4.28158 2.65888 0
M  V30 3469 H 317.707 3.58306 1.07205 0
M  V30 3470 H 319.999 6.02891 3.09076 0
M  V30 3471 H 320.942 6.84714 1.80479 0
M  V30 3472 H 321.35 5.16874 2.2694 0
M  V30 3473 N 320.748 -0.0735177 1.57428 0
M  V30 3474 C 321.696 -1.10628 2.04607 0
M  V30 3475 C 322.69 -1.40181 0.951088 0
M  V30 3476 O 323.896 -1.39608 1.1362 0
M  V30 3477 H 320.271 -0.374088 0.652351 0
M  V30 3478 H 322.242 -0.682218 2.90497 0
M  V30 3479 C 320.991 -2.41212 2.50423 0
M  V30 3480 H 320.314 -2.19322 3.34272 0
M  V30 3481 H 321.754 -3.11927 2.87189 0
M  V30 3482 C 320.213 -3.0705 1.38644 0
M  V30 3483 O 320.743 -3.95056 0.727582 0
M  V30 3484 N 318.949 -2.67645 1.132 0
M  V30 3485 H 318.496 -1.96169 1.66959 0
M  V30 3486 H 318.454 -3.1202 0.386147 0
M  V30 3487 N 322.226 -1.5378 -0.344866 0
M  V30 3488 C 323.503 -1.61589 -1.10219 0
M  V30 3489 C 323.883 -0.436316 -2.06542 0
M  V30 3490 O 323.231 0.571543 -2.21237 0
M  V30 3491 C 323.441 -2.97602 -1.82301 0
M  V30 3492 C 324.789 -3.5291 -2.36093 0
M  V30 3493 O 325.813 -2.99768 -1.924 0
M  V30 3494 O 324.672 -4.45859 -3.16026 0
M  V30 3495 H 321.766 -0.653522 -0.506792 0
M  V30 3496 H 324.312 -1.66126 -0.346465 0
M  V30 3497 H 323.084 -3.74893 -1.12121 0
M  V30 3498 H 322.707 -2.9665 -2.64735 0
M  V30 3499 N 323.704 0.605807 -1.45491 0
M  V30 3500 C 324.614 1.74466 -1.56839 0
M  V30 3501 C 325.63 1.68006 -0.452772 0
M  V30 3502 O 326.806 1.8833 -0.713708 0
M  V30 3503 C 323.871 3.10931 -1.53371 0
M  V30 3504 C 322.932 3.28832 -2.75986 0
M  V30 3505 C 322.165 4.58787 -2.72673 0
M  V30 3506 O 322.388 5.4122 -1.80102 0
M  V30 3507 O 321.322 4.79438 -3.63899 0
M  V30 3508 H 325.148 1.67843 -2.53106 0
M  V30 3509 H 322.733 0.770108 -1.28022 0
M  V30 3510 H 324.615 3.92233 -1.54051 0
M  V30 3511 H 323.29 3.18042 -0.602572 0
M  V30 3512 H 322.197 2.47112 -2.80867 0
M  V30 3513 H 323.53 3.26599 -3.68231 0
M  V30 3514 N 325.182 1.32811 0.848464 0
M  V30 3515 C 326.459 1.14334 1.58704 0
M  V30 3516 C 326.839 -0.293948 2.09043 0
M  V30 3517 O 326.187 -1.29153 1.88499 0
M  V30 3518 C 326.397 2.17626 2.72837 0
M  V30 3519 C 327.745 2.51282 3.42261 0
M  V30 3520 O 328.769 2.16219 2.83068 0
M  V30 3521 O 327.628 3.11413 4.49093 0
M  V30 3522 H 324.722 0.441601 0.699226 0
M  V30 3523 H 327.268 1.44362 0.892053 0
M  V30 3524 H 326.04 3.14211 2.3321 0
M  V30 3525 H 325.663 1.88628 3.50008 0
M  V30 3526 N 326.66 -1.06551 1.16123 0
M  V30 3527 C 327.57 -2.17484 0.879662 0
M  V30 3528 C 328.586 -1.73377 -0.147104 0
M  V30 3529 O 329.762 -2.01379 0.0289128 0
M  V30 3530 C 326.827 -3.44591 0.381829 0
M  V30 3531 C 325.888 -4.0322 1.4735 0
M  V30 3532 C 325.121 -5.24261 0.999324 0
M  V30 3533 O 325.344 -5.70198 -0.151957 0
M  V30 3534 O 324.278 -5.74775 1.78653 0
M  V30 3535 H 328.104 -2.44075 1.80724 0
M  V30 3536 H 325.689 -1.16042 0.940992 0
M  V30 3537 H 327.571 -4.21254 0.111053 0
M  V30 3538 H 326.246 -3.19532 -0.51777 0
M  V30 3539 H 325.153 -3.2806 1.79798 0
M  V30 3540 H 326.486 -4.32568 2.34831 0
M  V30 3541 N 328.138 -0.959301 -1.25041 0
M  V30 3542 C 329.048 -0.489994 -2.29426 0
M  V30 3543 C 330.064 0.444944 -1.68215 0
M  V30 3544 O 331.24 0.320046 -1.98841 0
M  V30 3545 C 328.305 0.220309 -3.45999 0
M  V30 3546 C 327.366 -0.753418 -4.22637 0
M  V30 3547 C 326.599 -0.076918 -5.33645 0
M  V30 3548 O 326.822 1.13649 -5.58963 0
M  V30 3549 O 325.756 -0.764824 -5.97021 0
M  V30 3550 H 329.582 -1.35755 -2.71669 0
M  V30 3551 H 327.167 -0.725961 -1.30576 0
M  V30 3552 H 329.049 0.619677 -4.16819 0
M  V30 3553 H 327.724 1.06296 -3.0575 0
M  V30 3554 H 326.631 -1.20308 -3.54227 0
M  V30 3555 H 327.964 -1.56423 -4.66683 0
M  V30 3556 N 329.616 1.39756 -0.72842 0
M  V30 3557 C 330.864 2.00248 -0.272946 0
M  V30 3558 C 331.185 1.58077 1.14178 0
M  V30 3559 O 330.455 0.826014 1.77634 0
M  V30 3560 H 329.035 0.740554 -0.0979247 0
M  V30 3561 H 331.697 1.70903 -0.936912 0
M  V30 3562 H 330.793 3.10495 -0.316142 0
M  V30 3563 N 331.094 0.475555 1.50254 0
M  V30 3564 C 332.041 -0.316293 2.28622 0
M  V30 3565 C 333.011 -0.983227 1.33873 0
M  V30 3566 O 334.196 -0.994805 1.62814 0
M  V30 3567 C 331.336 -1.38975 3.1588 0
M  V30 3568 C 330.449 -0.737146 4.25664 0
M  V30 3569 C 329.584 -1.78887 5.00173 0
M  V30 3570 C 328.623 -1.11676 6.01826 0
M  V30 3571 N 327.76 -2.11154 6.69596 0
M  V30 3572 H 332.6 0.358297 2.95838 0
M  V30 3573 H 330.137 0.188541 1.45887 0
M  V30 3574 H 332.095 -2.02383 3.64825 0
M  V30 3575 H 330.725 -2.03344 2.50701 0
M  V30 3576 H 329.777 0.0096065 3.80399 0
M  V30 3577 H 331.089 -0.206816 4.98371 0
M  V30 3578 H 330.243 -2.49865 5.52859 0
M  V30 3579 H 328.982 -2.35302 4.27182 0
M  V30 3580 H 327.987 -0.392633 5.48396 0
M  V30 3581 H 329.212 -0.55945 6.76792 0
M  V30 3582 H 327.158 -2.66577 5.99394 0
M  V30 3583 H 327.075 -1.63118 7.38193 0
M  V30 3584 H 328.343 -2.81497 7.26897 0
M  V30 3585 N 332.573 -1.56217 0.208337 0
M  V30 3586 C 333.483 -2.23316 -0.718836 0
M  V30 3587 C 334.499 -1.23648 -1.22422 0
M  V30 3588 O 335.675 -1.56423 -1.26861 0
M  V30 3589 C 332.74 -2.88968 -1.91568 0
M  V30 3590 C 331.801 -4.03943 -1.45357 0
M  V30 3591 C 331.034 -4.66455 -2.59337 0
M  V30 3592 O 331.257 -4.27919 -3.77149 0
M  V30 3593 O 330.191 -5.55686 -2.31293 0
M  V30 3594 H 334.017 -3.03182 -0.177315 0
M  V30 3595 H 331.602 -1.49384 -0.0215402 0
M  V30 3596 H 333.484 -3.30455 -2.61491 0
M  V30 3597 H 332.159 -2.12071 -2.44556 0
M  V30 3598 H 331.066 -3.67052 -0.722746 0
M  V30 3599 H 332.399 -4.82543 -0.970219 0
M  V30 3600 N 334.051 0.0651679 -1.57465 0
M  V30 3601 C 335.014 1.06117 -2.03155 0
M  V30 3602 C 336.014 1.31204 -0.929632 0
M  V30 3603 O 337.204 1.26813 -1.19432 0
M  V30 3604 C 334.336 2.4032 -2.41783 0
M  V30 3605 H 335.529 0.667231 -2.92383 0
M  V30 3606 H 333.082 0.311075 -1.53173 0
M  V30 3607 H 333.817 2.84532 -1.55601 0
M  V30 3608 H 333.602 2.23451 -3.22199 0
M  V30 3609 H 335.092 3.11898 -2.77685 0
M  V30 3610 N 335.529 1.53961 0.336706 0
M  V30 3611 C 336.459 1.85417 1.41925 0
M  V30 3612 C 337.44 0.709856 1.5458 0
M  V30 3613 O 338.625 0.962396 1.68676 0
M  V30 3614 C 335.755 2.06985 2.78881 0
M  V30 3615 C 334.709 3.22813 2.81026 0
M  V30 3616 C 334.035 3.29727 4.20932 0
M  V30 3617 C 335.335 4.60767 2.45949 0
M  V30 3618 H 337.029 2.76079 1.15848 0
M  V30 3619 H 334.575 1.32839 0.555859 0
M  V30 3620 H 336.528 2.27575 3.54665 0
M  V30 3621 H 335.252 1.13061 3.06406 0
M  V30 3622 H 333.911 3.0209 2.07695 0
M  V30 3623 H 333.559 2.33385 4.45579 0
M  V30 3624 H 333.259 4.07566 4.23277 0
M  V30 3625 H 334.783 3.52536 4.98549 0
M  V30 3626 H 336.197 4.81325 3.11446 0
M  V30 3627 H 334.594 5.4106 2.59566 0
M  V30 3628 H 335.664 4.6391 1.41122 0
M  V30 3629 N 337.007 -0.598083 1.45811 0
M  V30 3630 C 337.97 -1.69018 1.54808 0
M  V30 3631 C 338.97 -1.55037 0.426652 0
M  V30 3632 O 340.16 -1.59932 0.690456 0
M  V30 3633 C 337.292 -3.0835 1.45371 0
M  V30 3634 H 338.485 -1.62403 2.52121 0
M  V30 3635 H 336.038 -0.814626 1.33392 0
M  V30 3636 H 336.773 -3.20534 0.492793 0
M  V30 3637 H 336.558 -3.19907 2.26721 0
M  V30 3638 H 338.048 -3.8788 1.54721 0
M  V30 3639 N 338.485 -1.33259 -0.841409 0
M  V30 3640 C 339.734 -1.23921 -1.59143 0
M  V30 3641 C 340.047 0.1941 -1.94635 0
M  V30 3642 O 341.253 0.409474 -2.68394 0
M  V30 3643 C 339.709 -2.17119 -2.87032 0
M  V30 3644 C 339.317 -3.65606 -2.58914 0
M  V30 3645 C 341.061 -2.16648 -3.65053 0
M  V30 3646 C 338.968 -4.50726 -3.82884 0
M  V30 3647 H 337.898 -0.460264 -0.597221 0
M  V30 3648 H 340.549 -1.58307 -0.927959 0
M  V30 3649 H 338.931 -1.75663 -3.54906 0
M  V30 3650 H 340.105 -4.15487 -1.99267 0
M  V30 3651 H 338.42 -3.68341 -1.942 0
M  V30 3652 H 341.017 -2.77474 -4.57069 0
M  V30 3653 H 341.36 -1.16088 -3.99787 0
M  V30 3654 H 341.893 -2.56453 -3.041 0
M  V30 3655 H 338.632 -5.52151 -3.53283 0
M  V30 3656 H 338.152 -4.0559 -4.41879 0
M  V30 3657 H 339.831 -4.64401 -4.50489 0
M  V30 3658 N 339.963 1.05934 -1.16686 0
M  V30 3659 C 340.91 2.13499 -0.876748 0
M  V30 3660 C 341.88 1.65162 0.176299 0
M  V30 3661 O 343.065 1.90757 0.0407143 0
M  V30 3662 C 340.205 3.42912 -0.387967 0
M  V30 3663 C 339.318 4.04964 -1.50426 0
M  V30 3664 C 338.453 5.22266 -0.970125 0
M  V30 3665 C 337.492 5.76309 -2.06238 0
M  V30 3666 N 336.629 6.84922 -1.54356 0
M  V30 3667 H 341.469 2.37654 -1.7979 0
M  V30 3668 H 339.006 1.16598 -0.896843 0
M  V30 3669 H 340.964 4.17111 -0.086186 0
M  V30 3670 H 339.594 3.18963 0.496235 0
M  V30 3671 H 338.646 3.28277 -1.92193 0
M  V30 3672 H 339.958 4.41122 -2.32836 0
M  V30 3673 H 339.112 6.03506 -0.621743 0
M  V30 3674 H 337.851 4.87564 -0.115377 0
M  V30 3675 H 336.856 4.93704 -2.41942 0
M  V30 3676 H 338.081 6.13062 -2.92115 0
M  V30 3677 H 336.027 6.52131 -0.711406 0
M  V30 3678 H 335.944 7.20043 -2.30379 0
M  V30 3679 H 337.212 7.69832 -1.22387 0
M  V30 3680 N 341.441 0.965919 1.2453 0
M  V30 3681 C 342.718 0.543777 1.87889 0
M  V30 3682 C 343.098 -0.97909 1.87021 0
M  V30 3683 O 342.446 -1.84969 1.3416 0
M  V30 3684 C 342.656 1.13327 3.30088 0
M  V30 3685 C 344.004 1.21707 4.06783 0
M  V30 3686 O 345.028 1.08566 3.39252 0
M  V30 3687 O 343.887 1.42456 5.27606 0
M  V30 3688 H 340.981 0.181054 0.806938 0
M  V30 3689 H 343.527 1.06007 1.32516 0
M  V30 3690 H 342.299 2.17612 3.25209 0
M  V30 3691 H 341.922 0.600911 3.93033 0
M  V30 3692 N 342.919 -1.39368 0.735821 0
M  V30 3693 C 343.866 -2.30599 0.0963825 0
M  V30 3694 C 344.836 -1.49257 -0.728794 0
M  V30 3695 O 346.021 -1.77941 -0.688588 0
M  V30 3696 C 343.161 -3.35596 -0.804305 0
M  V30 3697 C 342.274 -4.31987 0.0335761 0
M  V30 3698 C 341.409 -5.24053 -0.868461 0
M  V30 3699 C 340.448 -6.12095 -0.0258776 0
M  V30 3700 N 339.585 -6.96514 -0.883893 0
M  V30 3701 H 344.425 -2.8471 0.880002 0
M  V30 3702 H 341.962 -1.40188 0.445619 0
M  V30 3703 H 343.92 -3.95062 -1.34096 0
M  V30 3704 H 342.55 -2.82938 -1.55389 0
M  V30 3705 H 341.602 -3.74133 0.68766 0
M  V30 3706 H 342.914 -4.94074 0.685036 0
M  V30 3707 H 342.068 -5.88549 -1.47293 0
M  V30 3708 H 340.807 -4.62289 -1.5537 0
M  V30 3709 H 339.812 -5.4661 0.591386 0
M  V30 3710 H 341.037 -6.75923 0.656156 0
M  V30 3711 H 338.983 -6.37318 -1.55441 0
M  V30 3712 H 338.9 -7.55448 -0.288931 0
M  V30 3713 H 340.168 -7.65439 -1.4739 0
M  V30 3714 N 344.397 -0.483516 -1.5 0
M  V30 3715 C 345.327 0.293829 -2.31644 0
M  V30 3716 C 346.308 0.978864 -1.39112 0
M  V30 3717 O 347.493 0.973644 -1.68029 0
M  V30 3718 C 344.623 1.36897 -3.19181 0
M  V30 3719 C 343.577 0.804833 -4.20365 0
M  V30 3720 C 342.903 1.9792 -4.96721 0
M  V30 3721 C 344.203 -0.192313 -5.21946 0
M  V30 3722 H 345.897 -0.387616 -2.9688 0
M  V30 3723 H 343.443 -0.187856 -1.42769 0
M  V30 3724 H 345.396 1.92037 -3.751 0
M  V30 3725 H 344.12 2.07936 -2.51853 0
M  V30 3726 H 342.779 0.275319 -3.65565 0
M  V30 3727 H 342.427 2.67686 -4.25856 0
M  V30 3728 H 342.127 1.60789 -5.65173 0
M  V30 3729 H 343.651 2.53526 -5.55479 0
M  V30 3730 H 345.065 0.270333 -5.72662 0
M  V30 3731 H 343.462 -0.478543 -5.98189 0
M  V30 3732 H 344.532 -1.11409 -4.71928 0
M  V30 3733 N 345.875 1.56104 -0.216619 0
M  V30 3734 C 347.286 1.844 0.292128 0
M  V30 3735 C 347.637 1.13788 1.59833 0
M  V30 3736 O 346.762 0.405888 2.12559 0
M  V30 3737 C 347.357 3.3452 0.53681 0
M  V30 3738 C 345.916 3.63151 0.989876 0
M  V30 3739 C 345.063 2.77255 0.0502302 0
M  V30 3740 H 348.014 1.52481 -0.439926 0
M  V30 3741 H 348.035 3.54459 1.38345 0
M  V30 3742 H 347.547 3.85885 -0.414031 0
M  V30 3743 H 345.648 3.17238 1.95425 0
M  V30 3744 H 345.761 4.71177 0.867698 0
M  V30 3745 H 344.125 2.48555 0.556117 0
M  V30 3746 H 344.908 3.31416 -0.89544 0
M  V30 3747 N 347.353 -0.0568162 1.57498 0
M  V30 3748 C 348.601 -0.751617 1.87604 0
M  V30 3749 C 348.922 -1.77351 0.81066 0
M  V30 3750 O 348.192 -1.95254 -0.159018 0
M  V30 3751 H 346.772 -0.280583 0.692302 0
M  V30 3752 H 349.434 -0.0293483 1.94878 0
M  V30 3753 H 348.53 -1.25852 2.856 0
M  V30 3754 N 348.832 -1.54138 -0.328536 0
M  V30 3755 C 350.08 -1.71765 -1.06496 0
M  V30 3756 C 350.401 -0.49149 -1.88704 0
M  V30 3757 O 349.671 0.494539 -1.89555 0
M  V30 3758 H 348.251 -0.633295 -0.396164 0
M  V30 3759 H 350.913 -1.91429 -0.366176 0
M  V30 3760 H 350.009 -2.5951 -1.73381 0
M  V30 3761 N 350.31 0.590341 -1.46126 0
M  V30 3762 C 351.24 1.71032 -1.58966 0
M  V30 3763 C 352.221 1.64302 -0.440335 0
M  V30 3764 O 353.406 1.82436 -0.665634 0
M  V30 3765 C 350.536 3.09665 -1.57241 0
M  V30 3766 C 349.49 3.31221 -2.71066 0
M  V30 3767 C 348.816 4.70303 -2.54399 0
M  V30 3768 C 350.116 3.19796 -4.1295 0
M  V30 3769 H 351.81 1.60543 -2.52718 0
M  V30 3770 H 349.356 0.770933 -1.21625 0
M  V30 3771 H 351.309 3.87831 -1.64819 0
M  V30 3772 H 350.033 3.21036 -0.600289 0
M  V30 3773 H 348.692 2.55452 -2.62944 0
M  V30 3774 H 348.34 4.78429 -1.55288 0
M  V30 3775 H 348.04 4.85679 -3.30741 0
M  V30 3776 H 349.564 5.50647 -2.63857 0
M  V30 3777 H 350.978 3.87815 -4.22223 0
M  V30 3778 H 349.375 3.46696 -4.89818 0
M  V30 3779 H 350.445 2.16983 -4.33643 0
M  V30 3780 N 351.788 1.33704 0.83433 0
M  V30 3781 C 353.065 1.16011 1.57483 0
M  V30 3782 C 353.445 -0.27176 2.09343 0
M  V30 3783 O 352.793 -1.27146 1.89858 0
M  V30 3784 C 353.003 2.20507 2.70514 0
M  V30 3785 C 354.351 2.54898 3.39577 0
M  V30 3786 O 355.375 2.19209 2.80759 0
M  V30 3787 O 354.234 3.16158 4.45765 0
M  V30 3788 H 351.328 0.448992 0.694503 0
M  V30 3789 H 353.874 1.453 0.876691 0
M  V30 3790 H 352.646 3.16667 2.29865 0
M  V30 3791 H 352.269 1.92329 3.47987 0
M  V30 3792 N 353.266 -1.05314 1.17247 0
M  V30 3793 C 354.176 -2.16538 0.90268 0
M  V30 3794 C 355.192 -1.73523 -0.128707 0
M  V30 3795 O 356.368 -2.01337 0.0502701 0
M  V30 3796 C 353.433 -3.44167 0.418356 0
M  V30 3797 C 352.494 -4.01635 1.51618 0
M  V30 3798 C 351.727 -5.23171 1.05487 0
M  V30 3799 O 351.95 -5.70327 -0.0914715 0
M  V30 3800 O 350.884 -5.72848 1.8474 0
M  V30 3801 H 354.71 -2.42145 1.83302 0
M  V30 3802 H 352.295 -1.15037 0.953246 0
M  V30 3803 H 354.177 -4.21112 0.155726 0
M  V30 3804 H 352.852 -3.20063 -0.48385 0
M  V30 3805 H 351.759 -3.26135 1.83268 0
M  V30 3806 H 353.092 -4.30053 2.39405 0
M  V30 3807 N 354.744 -0.972509 -1.24016 0
M  V30 3808 C 355.974 -0.653853 -1.9598 0
M  V30 3809 C 356.382 0.781801 -1.72292 0
M  V30 3810 O 355.725 1.53677 -1.00644 0
M  V30 3811 C 355.787 -0.854608 -3.49194 0
M  V30 3812 C 355.451 -2.27082 -3.96589 0
M  V30 3813 C 356.448 -3.24892 -4.05883 0
M  V30 3814 C 354.133 -2.5998 -4.29786 0
M  V30 3815 C 356.127 -4.53684 -4.47716 0
M  V30 3816 C 353.814 -3.88997 -4.71301 0
M  V30 3817 C 354.812 -4.85661 -4.80232 0
M  V30 3818 O 354.5 -6.12376 -5.20818 0
M  V30 3819 H 354.232 -0.242572 -0.630979 0
M  V30 3820 H 356.786 -1.30431 -1.58673 0
M  V30 3821 H 355.016 -0.146985 -3.86421 0
M  V30 3822 H 356.705 -0.534311 -4.02368 0
M  V30 3823 H 357.471 -3.00805 -3.80449 0
M  V30 3824 H 353.35 -1.85457 -4.22051 0
M  V30 3825 H 356.894 -5.29135 -4.54601 0
M  V30 3826 H 352.791 -4.12882 -4.96184 0
M  V30 3827 H 353.559 -6.16013 -5.38953 0
M  V30 3828 N 356.222 1.38976 -0.743202 0
M  V30 3829 C 357.154 2.29096 -0.0689228 0
M  V30 3830 C 358.167 1.47229 0.694791 0
M  V30 3831 O 359.356 1.70212 0.537597 0
M  V30 3832 C 356.456 3.25988 0.926548 0
M  V30 3833 C 355.629 4.36833 0.222647 0
M  V30 3834 C 354.688 5.13981 1.12739 0
M  V30 3835 O 353.714 5.6601 0.601795 0
M  V30 3836 N 354.916 5.25966 2.45641 0
M  V30 3837 H 357.681 2.87604 -0.842846 0
M  V30 3838 H 355.242 1.50645 -0.593109 0
M  V30 3839 H 357.234 3.74476 1.5346 0
M  V30 3840 H 355.804 2.68453 1.60162 0
M  V30 3841 H 355.024 3.90116 -0.565983 0
M  V30 3842 H 356.312 5.0811 -0.264841 0
M  V30 3843 H 355.71 4.85228 2.9081 0
M  V30 3844 H 354.267 5.77865 3.01522 0
M  V30 3845 N 357.7 0.491464 1.49741 0
M  V30 3846 C 358.648 -0.305837 2.30581 0
M  V30 3847 C 359.642 -0.971642 1.38764 0
M  V30 3848 O 360.848 -0.90042 1.5586 0
M  V30 3849 H 357.223 -0.117482 0.742767 0
M  V30 3850 H 359.194 0.396093 2.95759 0
M  V30 3851 C 357.943 -1.36319 3.19863 0
M  V30 3852 H 357.266 -0.860258 3.90435 0
M  V30 3853 H 358.706 -1.89323 3.79385 0
M  V30 3854 C 357.165 -2.37621 2.38826 0
M  V30 3855 O 357.695 -3.43311 2.08567 0
M  V30 3856 N 355.901 -2.09849 2.01026 0
M  V30 3857 H 355.448 -1.23922 2.25834 0
M  V30 3858 H 355.406 -2.77859 1.47112 0
M  V30 3859 N 359.178 -1.55987 0.224894 0
M  V30 3860 C 360.11 -2.17722 -0.716224 0
M  V30 3861 C 361.123 -1.14723 -1.15509 0
M  V30 3862 O 362.312 -1.41688 -1.08567 0
M  V30 3863 C 359.412 -2.74873 -1.98238 0
M  V30 3864 C 358.585 -4.03074 -1.69853 0
M  V30 3865 C 357.644 -4.44757 -2.81208 0
M  V30 3866 O 356.67 -5.11587 -2.49534 0
M  V30 3867 N 357.872 -4.10716 -4.10235 0
M  V30 3868 H 360.637 -2.99109 -0.188123 0
M  V30 3869 H 358.198 -1.6184 0.0440123 0
M  V30 3870 H 360.19 -2.99727 -2.7193 0
M  V30 3871 H 358.76 -1.9777 -2.42086 0
M  V30 3872 H 357.98 -3.86041 -0.797875 0
M  V30 3873 H 359.268 -4.86701 -1.48324 0
M  V30 3874 H 358.666 -3.57019 -4.38809 0
M  V30 3875 H 357.223 -4.40455 -4.80461 0
M  V30 3876 N 360.656 0.0484629 -1.57525 0
M  V30 3877 C 361.586 1.0549 -2.08313 0
M  V30 3878 C 362.567 1.38929 -0.981463 0
M  V30 3879 O 363.752 1.48151 -1.25558 0
M  V30 3880 C 360.882 2.36162 -2.54646 0
M  V30 3881 C 359.836 2.17016 -3.68901 0
M  V30 3882 C 359.162 3.53278 -4.01371 0
M  V30 3883 C 360.462 1.57219 -4.98076 0
M  V30 3884 H 362.156 0.632195 -2.92649 0
M  V30 3885 H 359.702 0.302654 -1.40784 0
M  V30 3886 H 361.655 3.06882 -2.88793 0
M  V30 3887 H 360.379 2.80456 -1.67368 0
M  V30 3888 H 359.038 1.48733 -3.35073 0
M  V30 3889 H 358.686 3.95185 -3.11188 0
M  V30 3890 H 358.386 3.41299 -4.78318 0
M  V30 3891 H 359.91 4.25391 -4.38035 0
M  V30 3892 H 361.324 2.17832 -5.30304 0
M  V30 3893 H 359.721 1.55871 -5.79503 0
M  V30 3894 H 360.791 0.535956 -4.81929 0
M  V30 3895 N 362.134 1.5431 0.320358 0
M  V30 3896 C 363.364 1.7638 1.07582 0
M  V30 3897 C 363.772 0.513944 1.82086 0
M  V30 3898 O 363.115 -0.525123 1.76035 0
M  V30 3899 C 363.177 2.9055 2.1171 0
M  V30 3900 C 362.841 4.2934 1.56575 0
M  V30 3901 C 363.838 5.10077 1.00586 0
M  V30 3902 C 361.523 4.75893 1.60722 0
M  V30 3903 C 363.517 6.35477 0.494756 0
M  V30 3904 C 361.204 6.0126 1.09224 0
M  V30 3905 C 362.202 6.80886 0.53696 0
M  V30 3906 O 361.89 8.03894 0.0297371 0
M  V30 3907 H 361.622 0.592369 0.325692 0
M  V30 3908 H 364.176 2.02019 0.37116 0
M  V30 3909 H 362.406 2.60489 2.85801 0
M  V30 3910 H 364.095 3.00373 2.73003 0
M  V30 3911 H 364.861 4.75265 0.966869 0
M  V30 3912 H 360.74 4.13957 2.02882 0
M  V30 3913 H 364.284 6.97574 0.0606842 0
M  V30 3914 H 360.181 6.35562 1.12831 0
M  V30 3915 H 360.949 8.18372 0.14486 0
M  V30 3916 N 363.613 -0.582584 1.46437 0
M  V30 3917 C 364.861 -1.33814 1.51453 0
M  V30 3918 C 365.182 -1.94277 0.167792 0
M  V30 3919 O 364.452 -1.78566 -0.805677 0
M  V30 3920 H 363.032 -0.496838 0.557818 0
M  V30 3921 H 365.694 -0.682281 1.82568 0
M  V30 3922 H 364.79 -2.14479 2.26728 0
M  V30 3923 N 365.091 -1.34144 -0.827227 0
M  V30 3924 C 366.34 -1.25602 -1.5782 0
M  V30 3925 C 366.653 0.173445 -1.94829 0
M  V30 3926 O 367.859 0.380984 -2.68814 0
M  V30 3927 C 366.315 -2.20151 -2.84713 0
M  V30 3928 C 365.923 -3.68331 -2.55021 0
M  V30 3929 C 367.667 -2.20508 -3.62735 0
M  V30 3930 C 365.574 -4.54762 -3.78082 0
M  V30 3931 H 364.504 -0.466573 -0.592306 0
M  V30 3932 H 367.155 -1.59283 -0.911116 0
M  V30 3933 H 365.537 -1.79417 -3.53023 0
M  V30 3934 H 366.711 -4.17577 -1.94849 0
M  V30 3935 H 365.026 -3.7038 -1.90283 0
M  V30 3936 H 367.623 -2.82306 -4.54101 0
M  V30 3937 H 367.966 -1.20322 -3.98533 0
M  V30 3938 H 368.499 -2.59664 -3.01362 0
M  V30 3939 H 365.238 -5.55867 -3.47407 0
M  V30 3940 H 364.758 -4.10254 -4.37552 0
M  V30 3941 H 366.437 -4.69153 -4.45538 0
M  V30 3942 N 366.569 1.04691 -1.17803 0
M  V30 3943 C 367.809 1.79352 -0.980423 0
M  V30 3944 C 368.173 1.85853 0.481958 0
M  V30 3945 O 369.374 2.56656 0.798809 0
M  V30 3946 C 367.645 3.19088 -1.6099 0
M  V30 3947 S 369.204 4.10164 -1.55918 0
M  V30 3948 H 366.022 0.617631 -0.352211 0
M  V30 3949 H 368.624 1.25575 -1.49837 0
M  V30 3950 H 367.328 3.11962 -2.66661 0
M  V30 3951 H 366.859 3.77941 -1.09197 0
M  V30 3952 H 368.874 4.92907 -0.570685 0
M  V30 3953 N 368.047 0.979072 1.23499 0
M  V30 3954 C 368.995 0.510604 2.26926 0
M  V30 3955 C 369.989 -0.431691 1.63807 0
M  V30 3956 O 371.195 -0.30573 1.77385 0
M  V30 3957 H 367.57 0.146688 0.737554 0
M  V30 3958 H 369.541 1.39466 2.63803 0
M  V30 3959 C 368.29 -0.172658 3.47271 0
M  V30 3960 H 367.613 0.543331 3.96091 0
M  V30 3961 H 369.053 -0.464101 4.21452 0
M  V30 3962 C 367.512 -1.40345 3.06276 0
M  V30 3963 O 368.042 -2.49978 3.14442 0
M  V30 3964 N 366.248 -1.27362 2.61203 0
M  V30 3965 H 365.795 -0.381584 2.54758 0
M  V30 3966 H 365.753 -2.09822 2.34141 0
M  V30 3967 N 369.525 -1.3858 0.750561 0
M  V30 3968 C 370.435 -2.34278 0.122825 0
M  V30 3969 C 371.451 -1.59116 -0.704131 0
M  V30 3970 O 372.627 -1.91326 -0.628987 0
M  V30 3971 C 369.692 -3.38221 -0.762086 0
M  V30 3972 C 368.753 -4.29227 0.078896 0
M  V30 3973 C 367.986 -5.28205 -0.763874 0
M  V30 3974 O 368.209 -5.34112 -2.00201 0
M  V30 3975 O 367.143 -6.01618 -0.18428 0
M  V30 3976 H 370.969 -2.89649 0.913088 0
M  V30 3977 H 368.554 -1.40374 0.511417 0
M  V30 3978 H 370.436 -4.01872 -1.26793 0
M  V30 3979 H 369.111 -2.85211 -1.5309 0
M  V30 3980 H 368.018 -3.68747 0.630621 0
M  V30 3981 H 369.351 -4.85484 0.810289 0
M  V30 3982 N 371.003 -0.499398 -1.49478 0
M  V30 3983 C 372.231 0.0425456 -2.06856 0
M  V30 3984 C 372.646 1.30964 -1.35992 0
M  V30 3985 O 372.003 1.77172 -0.437762 0
M  V30 3986 C 372.054 0.301735 -3.60239 0
M  V30 3987 O 371.775 -0.915127 -4.28436 0
M  V30 3988 C 373.276 0.887499 -4.34325 0
M  V30 3989 H 370.496 -0.0197482 -0.670709 0
M  V30 3990 H 373.04 -0.696297 -1.92281 0
M  V30 3991 H 371.195 0.990556 -3.74522 0
M  V30 3992 H 371.609 -0.676993 -5.20113 0
M  V30 3993 H 373.083 1.01845 -5.42523 0
M  V30 3994 H 373.56 1.88488 -3.96698 0
M  V30 3995 H 374.166 0.236196 -4.24644 0
M  V30 3996 N 372.481 1.55866 -0.233164 0
M  V30 3997 C 373.721 2.00506 0.397078 0
M  V30 3998 C 374.085 1.1176 1.56121 0
M  V30 3999 O 375.286 1.45796 2.25825 0
M  V30 4000 C 373.557 3.4811 0.809601 0
M  V30 4001 S 375.116 4.14765 1.43231 0
M  V30 4002 H 371.934 0.699828 0.125547 0
M  V30 4003 H 374.536 1.92429 -0.345177 0
M  V30 4004 H 373.24 4.10373 -0.0471601 0
M  V30 4005 H 372.771 3.60085 1.58438 0
M  V30 4006 H 374.786 4.14914 2.7214 0
M  V30 4007 N 373.959 -0.0401083 1.57549 0
M  V30 4008 C 375.187 -0.745196 1.93014 0
M  V30 4009 C 375.602 -1.6948 0.831984 0
M  V30 4010 O 374.959 -1.81482 -0.192463 0
M  V30 4011 C 375.01 -1.51176 3.28372 0
M  V30 4012 O 374.731 -0.600284 4.33968 0
M  V30 4013 C 376.232 -2.315 3.78051 0
M  V30 4014 H 373.452 -0.210088 0.637263 0
M  V30 4015 H 375.996 -0.000924689 2.045 0
M  V30 4016 H 374.151 -2.20801 3.18317 0
M  V30 4017 H 374.565 -1.13669 5.12035 0
M  V30 4018 H 376.039 -2.80697 4.75303 0
M  V30 4019 H 376.516 -3.12436 3.08675 0
M  V30 4020 H 377.122 -1.66971 3.91153 0
M  V30 4021 N 375.437 -1.54477 -0.31217 0
M  V30 4022 C 376.665 -1.77205 -1.068 0
M  V30 4023 C 377.08 -0.526114 -1.81321 0
M  V30 4024 O 376.437 0.503647 -1.75413 0
M  V30 4025 C 376.488 -2.97253 -2.05725 0
M  V30 4026 O 376.209 -4.1703 -1.34228 0
M  V30 4027 C 377.71 -3.32281 -2.93435 0
M  V30 4028 H 374.93 -0.591287 -0.317208 0
M  V30 4029 H 377.474 -2.01398 -0.354834 0
M  V30 4030 H 375.629 -2.753 -2.72559 0
M  V30 4031 H 376.043 -4.84636 -2.00571 0
M  V30 4032 H 377.517 -4.19551 -3.58721 0
M  V30 4033 H 377.994 -2.49945 -3.61143 0
M  V30 4034 H 378.6 -3.56353 -2.32147 0
M  V30 4035 N 376.915 0.57481 -1.46744 0
M  V30 4036 C 378.155 1.34369 -1.54027 0
M  V30 4037 C 378.519 1.91051 -0.190642 0
M  V30 4038 O 379.72 2.68444 -0.138255 0
M  V30 4039 C 377.991 2.43706 -2.61423 0
M  V30 4040 S 379.55 3.30915 -2.88167 0
M  V30 4041 H 376.368 0.45768 -0.544105 0
M  V30 4042 H 378.97 0.659959 -1.84024 0
M  V30 4043 H 377.674 2.0047 -3.58106 0
M  V30 4044 H 377.205 3.16842 -2.33184 0
M  V30 4045 H 379.22 4.42742 -2.24039 0
M  V30 4046 N 378.394 1.34581 0.820102 0
M  V30 4047 C 379.642 1.26845 1.57336 0
M  V30 4048 C 379.963 -0.160667 1.94337 0
M  V30 4049 O 379.233 -1.09396 1.6251 0
M  V30 4050 H 377.813 0.466514 0.583415 0
M  V30 4051 H 380.475 1.68526 0.979027 0
M  V30 4052 H 379.571 1.87513 2.4949 0
M  V30 4053 N 379.872 -1.04064 1.18357 0
M  V30 4054 C 381.283 -1.58719 0.98312 0
M  V30 4055 C 381.634 -1.90556 -0.467193 0
M  V30 4056 O 380.759 -1.69561 -1.34454 0
M  V30 4057 C 381.354 -2.88379 1.77828 0
M  V30 4058 C 379.913 -3.3965 1.62218 0
M  V30 4059 C 379.06 -2.13235 1.77274 0
M  V30 4060 H 382.011 -0.867359 1.32901 0
M  V30 4061 H 382.032 -3.58773 1.26737 0
M  V30 4062 H 381.544 -2.65176 2.83379 0
M  V30 4063 H 379.645 -3.67866 0.592036 0
M  V30 4064 H 379.758 -4.13475 2.42023 0
M  V30 4065 H 378.122 -2.24542 1.20221 0
M  V30 4066 H 378.905 -1.92487 2.8426 0
M  V30 4067 N 381.35 -0.985608 -1.22978 0
M  V30 4068 C 382.313 -0.535071 -2.22867 0
M  V30 4069 C 383.313 0.378123 -1.56291 0
M  V30 4070 O 384.503 0.171092 -1.73358 0
M  V30 4071 C 381.635 0.222702 -3.40172 0
M  V30 4072 H 382.828 -1.41835 -2.6424 0
M  V30 4073 H 380.381 -0.772042 -1.35901 0
M  V30 4074 H 381.116 1.12229 -3.04262 0
M  V30 4075 H 380.901 -0.43288 -3.89703 0
M  V30 4076 H 382.391 0.526335 -4.1427 0
M  V30 4077 N 382.828 1.3818 -0.7579 0
M  V30 4078 C 383.791 2.28764 -0.141286 0
M  V30 4079 C 384.791 1.47388 0.642907 0
M  V30 4080 O 385.981 1.67781 0.468536 0
M  V30 4081 C 383.113 3.31184 0.808069 0
M  V30 4082 H 384.306 2.848 -0.939633 0
M  V30 4083 H 381.859 1.47212 -0.525191 0
M  V30 4084 H 382.594 2.80247 1.63193 0
M  V30 4085 H 382.379 3.91314 0.248104 0
M  V30 4086 H 383.869 3.98909 1.23536 0
M  V30 4087 N 384.306 0.507319 1.49211 0
M  V30 4088 C 385.555 -0.0368315 2.01666 0
M  V30 4089 C 385.868 -1.37459 1.39156 0
M  V30 4090 O 387.074 -2.00579 1.82976 0
M  V30 4091 C 385.53 -0.116089 3.59713 0
M  V30 4092 C 385.138 1.2154 4.31198 0
M  V30 4093 C 386.882 -0.610268 4.2009 0
M  V30 4094 C 384.789 1.09796 5.81119 0
M  V30 4095 H 383.719 -0.0175376 0.753796 0
M  V30 4096 H 386.37 0.647691 1.71689 0
M  V30 4097 H 384.752 -0.8652 3.86433 0
M  V30 4098 H 385.926 1.9783 4.16173 0
M  V30 4099 H 384.241 1.64352 3.82593 0
M  V30 4100 H 386.838 -0.715742 5.29888 0
M  V30 4101 H 387.181 -1.61064 3.8388 0
M  V30 4102 H 387.714 0.0824916 3.97714 0
M  V30 4103 H 384.453 2.0728 6.21864 0
M  V30 4104 H 383.973 0.376058 5.9862 0
M  V30 4105 H 385.652 0.779281 6.4229 0
M  V30 4106 N 385.784 -1.5574 0.241426 0
M  V30 4107 C 387.061 -1.90704 -0.434881 0
M  V30 4108 C 387.441 -1.16145 -1.76277 0
M  V30 4109 O 386.789 -0.277152 -2.26813 0
M  V30 4110 C 386.999 -3.43657 -0.608343 0
M  V30 4111 C 388.347 -4.14806 -0.906725 0
M  V30 4112 O 389.371 -3.49366 -0.694408 0
M  V30 4113 O 388.23 -5.30548 -1.31075 0
M  V30 4114 H 385.324 -0.793592 -0.23268 0
M  V30 4115 H 387.87 -1.67288 0.285086 0
M  V30 4116 H 386.642 -3.89927 0.327505 0
M  V30 4117 H 386.265 -3.72918 -1.37906 0
M  V30 4118 N 387.262 0.0317525 -1.57568 0
M  V30 4119 C 388.492 0.733884 -1.93126 0
M  V30 4120 C 388.9 1.69563 -0.839352 0
M  V30 4121 O 388.243 1.82681 0.193175 0
M  V30 4122 C 388.305 1.54798 -3.24465 0
M  V30 4123 C 387.969 0.751304 -4.50782 0
M  V30 4124 C 388.966 0.0527632 -5.19873 0
M  V30 4125 C 386.651 0.706639 -4.97305 0
M  V30 4126 C 388.645 -0.679774 -6.33765 0
M  V30 4127 C 386.332 -0.0296449 -6.11093 0
M  V30 4128 C 387.33 -0.721614 -6.79177 0
M  V30 4129 O 387.018 -1.44595 -7.90789 0
M  V30 4130 H 386.75 0.211459 -0.642076 0
M  V30 4131 H 389.304 -0.00585615 -2.05399 0
M  V30 4132 H 387.534 2.33147 -3.08512 0
M  V30 4133 H 389.223 2.13247 -3.4537 0
M  V30 4134 H 389.989 0.0783188 -4.84937 0
M  V30 4135 H 385.868 1.23474 -4.44157 0
M  V30 4136 H 389.412 -1.22042 -6.86842 0
M  V30 4137 H 385.309 -0.0571331 -6.45475 0
M  V30 4138 H 386.077 -1.35935 -8.07133 0
M  V30 4139 N 388.74 1.54641 0.303973 0
M  V30 4140 C 389.986 1.74038 1.04109 0
M  V30 4141 C 390.319 0.523051 1.87024 0
M  V30 4142 O 389.594 -0.479874 1.88487 0
M  V30 4143 C 389.877 3.02761 1.94955 0
M  V30 4144 C 389.73 4.34787 1.1524 0
M  V30 4145 C 391.049 3.27336 2.94175 0
M  V30 4146 H 388.168 0.63323 0.377079 0
M  V30 4147 H 390.81 1.87354 0.316001 0
M  V30 4148 H 388.96 2.9154 2.56782 0
M  V30 4149 H 390.632 4.57922 0.557236 0
M  V30 4150 H 388.875 4.31407 0.455053 0
M  V30 4151 H 389.546 5.21116 1.8205 0
M  V30 4152 H 392.022 3.38148 2.42477 0
M  V30 4153 H 390.898 4.18726 3.54908 0
M  V30 4154 H 391.159 2.45491 3.67677 0
M  V30 4155 N 390.218 -0.567019 1.47046 0
M  V30 4156 C 391.629 -1.14916 1.47143 0
M  V30 4157 C 391.98 -1.94954 0.220767 0
M  V30 4158 O 391.105 -2.05602 -0.67505 0
M  V30 4159 C 391.7 -2.09069 2.666 0
M  V30 4160 C 390.259 -2.62575 2.69687 0
M  V30 4161 C 389.406 -1.38755 2.40088 0
M  V30 4162 H 392.357 -0.354126 1.54699 0
M  V30 4163 H 392.378 -2.92789 2.43011 0
M  V30 4164 H 391.89 -1.50789 3.57609 0
M  V30 4165 H 389.991 -3.24681 1.82792 0
M  V30 4166 H 390.104 -3.04239 3.70102 0
M  V30 4167 H 388.468 -1.69098 1.90468 0
M  V30 4168 H 389.251 -0.822822 3.33293 0
M  V30 4169 N 391.696 -1.35014 -0.812953 0
M  V30 4170 C 392.659 -1.27292 -1.90602 0
M  V30 4171 C 393.659 -0.185817 -1.59723 0
M  V30 4172 O 394.849 -0.439102 -1.68575 0
M  V30 4173 C 391.981 -0.967676 -3.26877 0
M  V30 4174 H 393.174 -2.24479 -1.9887 0
M  V30 4175 H 390.727 -1.19446 -1.00808 0
M  V30 4176 H 391.462 0.0005954 -3.243 0
M  V30 4177 H 391.247 -1.75412 -3.50675 0
M  V30 4178 H 392.737 -0.939085 -4.06904 0
M  V30 4179 N 393.175 1.03435 -1.18907 0
M  V30 4180 C 394.452 1.73778 -0.89781 0
M  V30 4181 C 394.832 2.02458 0.597832 0
M  V30 4182 O 394.18 1.67482 1.55441 0
M  V30 4183 C 394.39 3.01845 -1.75187 0
M  V30 4184 C 395.738 3.7546 -1.9828 0
M  V30 4185 O 396.762 3.11759 -1.72293 0
M  V30 4186 O 395.621 4.89966 -2.42065 0
M  V30 4187 H 392.715 0.75651 -0.334098 0
M  V30 4188 H 395.261 1.09444 -1.29693 0
M  V30 4189 H 394.033 2.76836 -2.76545 0
M  V30 4190 H 393.656 3.73919 -1.35167 0
M  V30 4191 N 394.653 0.992116 1.22453 0
M  V30 4192 C 395.616 0.546883 2.2258 0
M  V30 4193 C 396.616 -0.369829 1.56489 0
M  V30 4194 O 397.806 -0.161896 1.73446 0
M  V30 4195 C 394.938 -0.204659 3.40285 0
M  V30 4196 H 396.131 1.43234 2.63484 0
M  V30 4197 H 393.684 0.779239 1.3549 0
M  V30 4198 H 394.419 -1.10614 3.04853 0
M  V30 4199 H 394.204 0.45354 3.89468 0
M  V30 4200 H 395.694 -0.504358 4.14543 0
M  V30 4201 N 396.131 -1.37776 0.765217 0
M  V30 4202 C 397.542 -1.82521 0.392819 0
M  V30 4203 C 397.893 -1.63789 -1.08017 0
M  V30 4204 O 397.018 -1.14542 -1.83601 0
M  V30 4205 C 397.613 -3.31358 0.706214 0
M  V30 4206 C 396.172 -3.74406 0.386952 0
M  V30 4207 C 395.319 -2.60394 0.953422 0
M  V30 4208 H 398.27 -1.2634 0.960412 0
M  V30 4209 H 398.291 -3.80498 -0.0114706 0
M  V30 4210 H 397.803 -3.44959 1.77833 0
M  V30 4211 H 395.904 -3.66377 -0.678112 0
M  V30 4212 H 396.017 -4.70749 0.890636 0
M  V30 4213 H 394.381 -2.51878 0.378064 0
M  V30 4214 H 395.164 -2.76791 2.03081 0
M  V30 4215 N 397.609 -0.515225 -1.4894 0
M  V30 4216 C 398.557 0.269115 -2.31038 0
M  V30 4217 C 399.551 0.949443 -1.40292 0
M  V30 4218 O 400.757 0.87551 -1.57273 0
M  V30 4219 H 397.132 0.10565 -0.744542 0
M  V30 4220 H 399.103 -0.443096 -2.95092 0
M  V30 4221 C 397.852 1.31213 -3.21991 0
M  V30 4222 H 397.175 0.798034 -3.91754 0
M  V30 4223 H 398.615 1.83263 -3.82349 0
M  V30 4224 C 397.074 2.33791 -2.42576 0
M  V30 4225 O 397.604 3.3995 -2.14003 0
M  V30 4226 N 395.81 2.06625 -2.0434 0
M  V30 4227 H 395.357 1.20314 -2.27777 0
M  V30 4228 H 395.315 2.75483 -1.51514 0
M  V30 4229 N 399.087 1.5561 -0.249682 0
M  V30 4230 C 400.335 1.98618 0.373548 0
M  V30 4231 C 400.656 1.13919 1.58264 0
M  V30 4232 O 399.926 0.222637 1.94631 0
M  V30 4233 H 398.506 0.733571 0.141006 0
M  V30 4234 H 401.168 1.91748 -0.349117 0
M  V30 4235 H 400.264 3.04584 0.680796 0
M  V30 4236 N 400.565 -0.0233959 1.57583 0
M  V30 4237 C 401.795 -0.723631 1.93513 0
M  V30 4238 C 402.203 -1.69115 0.848333 0
M  V30 4239 O 401.546 -1.82781 -0.183484 0
M  V30 4240 C 401.608 -1.53075 3.25282 0
M  V30 4241 C 401.272 -0.727388 4.51174 0
M  V30 4242 C 402.269 -0.0251924 5.19894 0
M  V30 4243 C 399.954 -0.680256 4.97672 0
M  V30 4244 C 401.948 0.713374 6.33395 0
M  V30 4245 C 399.635 0.0620523 6.11068 0
M  V30 4246 C 400.633 0.757622 6.78785 0
M  V30 4247 O 400.321 1.48787 7.90011 0
M  V30 4248 H 400.053 -0.208051 0.643188 0
M  V30 4249 H 402.607 0.0167489 2.05393 0
M  V30 4250 H 400.837 -2.31508 3.09744 0
M  V30 4251 H 402.526 -2.11413 3.46496 0
M  V30 4252 H 403.292 -0.0526003 4.84971 0
M  V30 4253 H 399.171 -1.21116 4.44805 0
M  V30 4254 H 402.715 1.25683 6.86185 0
M  V30 4255 H 398.612 0.0913634 6.45435 0
M  V30 4256 H 399.38 1.40213 8.06401 0
M  V30 4257 N 402.043 -1.548 -0.295768 0
M  V30 4258 C 403.006 -1.85363 -1.34808 0
M  V30 4259 C 404.006 -0.726817 -1.43436 0
M  V30 4260 O 405.196 -0.995088 -1.42981 0
M  V30 4261 C 402.328 -2.03859 -2.73229 0
M  V30 4262 H 403.521 -2.7941 -1.08949 0
M  V30 4263 H 401.074 -1.46942 -0.532702 0
M  V30 4264 H 401.809 -1.12117 -3.04303 0
M  V30 4265 H 401.594 -2.8588 -2.68356 0
M  V30 4266 H 403.084 -2.28857 -3.49305 0
M  V30 4267 N 403.521 0.559213 -1.47345 0
M  V30 4268 C 404.751 1.33999 -1.57251 0
M  V30 4269 C 405.159 1.87905 -0.220978 0
M  V30 4270 O 404.502 1.65577 0.795617 0
M  V30 4271 C 404.564 2.54798 -2.53611 0
M  V30 4272 C 404.228 2.22192 -3.99349 0
M  V30 4273 C 405.225 1.79607 -4.87891 0
M  V30 4274 C 402.91 2.33613 -4.44669 0
M  V30 4275 C 404.904 1.48868 -6.19772 0
M  V30 4276 C 402.591 2.02487 -5.76578 0
M  V30 4277 C 403.589 1.60183 -6.63951 0
M  V30 4278 O 403.277 1.29451 -7.93409 0
M  V30 4279 H 403.009 0.414858 -0.533731 0
M  V30 4280 H 405.563 0.684465 -1.9366 0
M  V30 4281 H 403.793 3.23235 -2.12265 0
M  V30 4282 H 405.482 3.16873 -2.53666 0
M  V30 4283 H 406.248 1.70278 -4.54126 0
M  V30 4284 H 402.127 2.65501 -3.76869 0
M  V30 4285 H 405.671 1.15775 -6.87926 0
M  V30 4286 H 401.568 2.11448 -6.09885 0
M  V30 4287 H 402.336 1.43098 -8.05894 0
M  V30 4288 N 404.999 1.35443 0.805782 0
M  V30 4289 C 406.247 1.28507 1.55982 0
M  V30 4290 C 406.568 -0.140046 1.94496 0
M  V30 4291 O 405.838 -1.07666 1.63661 0
M  V30 4292 H 404.418 0.472676 0.578434 0
M  V30 4293 H 407.08 1.69555 0.961098 0
M  V30 4294 H 406.176 1.90148 2.47488 0
M  V30 4295 N 406.477 -1.02803 1.19454 0
M  V30 4296 C 407.725 -1.75869 0.995722 0
M  V30 4297 C 408.046 -1.89138 -0.474543 0
M  V30 4298 O 407.316 -1.42558 -1.34366 0
M  V30 4299 H 405.896 -0.651511 0.365435 0
M  V30 4300 H 408.558 -1.24004 1.50363 0
M  V30 4301 H 407.654 -2.76661 1.44447 0
M  V30 4302 N 407.956 -0.998596 -1.21925 0
M  V30 4303 C 409.181 -0.696015 -1.95372 0
M  V30 4304 C 409.606 0.733826 -1.73195 0
M  V30 4305 O 408.964 1.50242 -1.01474 0
M  V30 4306 C 409.012 -1.01466 -3.4603 0
M  V30 4307 O 408.116 -0.116415 -4.12236 0
M  V30 4308 H 407.457 -0.259938 -0.611006 0
M  V30 4309 H 409.987 -1.33711 -1.54863 0
M  V30 4310 H 409.997 -0.958855 -3.96573 0
M  V30 4311 H 408.672 -2.05653 -3.61497 0
M  V30 4312 H 407.249 -0.228193 -3.72201 0
M  V30 4313 N 409.434 1.37368 -0.772513 0
M  V30 4314 C 410.397 2.28601 -0.165541 0
M  V30 4315 C 411.397 1.48062 0.627238 0
M  V30 4316 O 412.587 1.68268 0.450715 0
M  V30 4317 C 409.719 3.32023 0.772897 0
M  V30 4318 H 410.912 2.83787 -0.969787 0
M  V30 4319 H 408.465 1.46647 -0.540775 0
M  V30 4320 H 409.2 2.81962 1.60212 0
M  V30 4321 H 408.985 3.91555 0.206585 0
M  V30 4322 H 410.475 4.00197 1.19298 0
M  V30 4323 N 410.912 0.523116 1.48665 0
M  V30 4324 C 411.862 -0.263106 2.26477 0
M  V30 4325 C 412.846 -0.916005 1.32281 0
M  V30 4326 O 414.038 -0.819946 1.56863 0
M  V30 4327 C 411.167 -1.31361 3.17174 0
M  V30 4328 C 410.253 -0.665849 4.1884 0
M  V30 4329 N 410.644 0.244434 5.05209 0
M  V30 4330 C 408.942 -0.923863 4.36326 0
M  V30 4331 C 409.643 0.617443 5.78414 0
M  V30 4332 N 408.619 -0.0198686 5.43596 0
M  V30 4333 H 412.421 0.437295 2.90629 0
M  V30 4334 H 409.935 0.340675 1.58787 0
M  V30 4335 H 411.932 -1.89052 3.71571 0
M  V30 4336 H 410.592 -2.01546 2.54576 0
M  V30 4337 H 411.603 0.616621 5.14216 0
M  V30 4338 H 408.28 -1.6168 3.84923 0
M  V30 4339 H 409.67 1.36346 6.57921 0
M  V30 4340 N 412.39 -1.55475 0.257931 0
M  V30 4341 C 413.667 -1.91155 -0.414629 0
M  V30 4342 C 414.047 -1.18008 -1.75035 0
M  V30 4343 O 413.395 -0.301193 -2.26506 0
M  V30 4344 C 413.605 -3.44283 -0.571859 0
M  V30 4345 C 414.953 -4.15744 -0.862678 0
M  V30 4346 O 415.977 -3.50083 -0.657314 0
M  V30 4347 O 414.836 -5.31909 -1.2544 0
M  V30 4348 H 411.93 -0.796016 -0.22425 0
M  V30 4349 H 414.476 -1.66976 0.302814 0
M  V30 4350 H 413.248 -3.89558 0.368844 0
M  V30 4351 H 412.871 -3.7436 -1.33943 0
M  V30 4352 N 413.868 0.0150385 -1.57593 0
M  V30 4353 C 415.116 0.701613 -1.8953 0
M  V30 4354 C 415.437 1.75139 -0.857396 0
M  V30 4355 O 414.707 1.95607 0.107194 0
M  V30 4356 H 413.287 0.26213 -0.699498 0
M  V30 4357 H 415.949 -0.0223304 -1.94887 0
M  V30 4358 H 415.045 1.18236 -2.88837 0
M  V30 4359 N 415.346 1.54954 0.287554 0
M  V30 4360 C 416.571 1.79209 1.04397 0
M  V30 4361 C 416.996 0.556431 1.79682 0
M  V30 4362 O 416.354 -0.493518 1.74454 0
M  V30 4363 C 416.402 3.00739 1.98969 0
M  V30 4364 O 415.506 2.74805 3.075 0
M  V30 4365 H 414.847 0.592755 0.299227 0
M  V30 4366 H 417.377 2.02068 0.320886 0
M  V30 4367 H 417.387 3.29077 2.4119 0
M  V30 4368 H 416.062 3.90329 1.43582 0
M  V30 4369 H 414.639 2.57523 2.69697 0
M  V30 4370 N 416.824 -0.551391 1.4764 0
M  V30 4371 C 417.774 -1.65362 1.56969 0
M  V30 4372 C 418.758 -1.55098 0.428189 0
M  V30 4373 O 419.95 -1.63481 0.678441 0
M  V30 4374 C 417.079 -3.04129 1.59249 0
M  V30 4375 C 416.165 -3.19576 2.78804 0
M  V30 4376 N 416.556 -3.05067 4.03445 0
M  V30 4377 C 414.854 -3.50588 2.75688 0
M  V30 4378 C 415.555 -3.2336 4.83543 0
M  V30 4379 N 414.531 -3.4996 4.15968 0
M  V30 4380 H 418.333 -1.52722 2.51104 0
M  V30 4381 H 415.847 -0.756303 1.43714 0
M  V30 4382 H 417.844 -3.83278 1.64024 0
M  V30 4383 H 416.504 -3.17877 0.662148 0
M  V30 4384 H 417.515 -2.82273 4.34215 0
M  V30 4385 H 414.192 -3.70827 1.91817 0
M  V30 4386 H 415.582 -3.17061 5.92387 0
M  V30 4387 N 418.302 -1.35869 -0.798587 0
M  V30 4388 C 419.55 -1.29332 -1.55298 0
M  V30 4389 C 419.871 0.129729 -1.94568 0
M  V30 4390 O 419.141 1.06796 -1.6423 0
M  V30 4391 H 417.721 -0.475737 -0.57592 0
M  V30 4392 H 420.383 -1.70062 -0.952093 0
M  V30 4393 H 419.479 -1.91458 -2.46476 0
M  V30 4394 N 419.78 1.02168 -1.19998 0
M  V30 4395 C 420.728 2.12717 -0.940967 0
M  V30 4396 C 421.722 1.69069 0.105841 0
M  V30 4397 O 422.928 1.79946 -0.0440583 0
M  V30 4398 H 419.303 0.695108 -0.28693 0
M  V30 4399 H 421.274 2.3175 -1.87975 0
M  V30 4400 C 420.023 3.44027 -0.504049 0
M  V30 4401 H 419.346 3.78036 -1.30112 0
M  V30 4402 H 420.786 4.22452 -0.361991 0
M  V30 4403 C 419.245 3.27678 0.782878 0
M  V30 4404 O 419.775 3.56949 1.84256 0
M  V30 4405 N 417.981 2.80943 0.742921 0
M  V30 4406 H 417.528 2.57322 -0.119687 0
M  V30 4407 H 417.486 2.70385 1.60435 0
M  V30 4408 N 421.258 1.00505 1.21394 0
M  V30 4409 C 422.188 0.585684 2.26035 0
M  V30 4410 C 423.169 -0.393525 1.65485 0
M  V30 4411 O 424.354 -0.281497 1.92149 0
M  V30 4412 C 421.484 -0.0884283 3.47187 0
M  V30 4413 C 420.438 0.810567 4.20254 0
M  V30 4414 C 419.764 0.00286382 5.347 0
M  V30 4415 C 421.064 2.1132 4.77641 0
M  V30 4416 H 422.758 1.46039 2.61368 0
M  V30 4417 H 420.304 0.703648 1.25638 0
M  V30 4418 H 422.257 -0.393286 4.19561 0
M  V30 4419 H 420.981 -0.997766 3.10986 0
M  V30 4420 H 419.64 1.09925 3.49731 0
M  V30 4421 H 419.288 -0.907765 4.94741 0
M  V30 4422 H 418.988 0.601444 5.84514 0
M  V30 4423 H 420.512 -0.295808 6.09883 0
M  V30 4424 H 421.926 1.87148 5.41893 0
M  V30 4425 H 420.323 2.66164 5.37845 0
M  V30 4426 H 421.393 2.78393 3.9702 0
M  V30 4427 N 422.737 -1.36956 0.779787 0
M  V30 4428 C 424.153 -1.52817 0.460342 0
M  V30 4429 C 424.353 -1.7361 -1.02283 0
M  V30 4430 O 423.409 -1.76207 -1.80852 0
M  V30 4431 C 424.722 -2.71983 1.28241 0
M  V30 4432 C 426.27 -2.85849 1.27512 0
M  V30 4433 C 426.745 -4.08008 2.08072 0
M  V30 4434 N 428.236 -4.15135 2.05467 0
M  V30 4435 C 428.971 -5.08711 2.64577 0
M  V30 4436 N 428.467 -6.07792 3.32506 0
M  V30 4437 N 430.26 -5.01254 2.54363 0
M  V30 4438 H 422.411 -1.21713 1.74068 0
M  V30 4439 H 424.674 -0.593294 0.739396 0
M  V30 4440 H 424.38 -2.63109 2.33381 0
M  V30 4441 H 424.254 -3.65882 0.917088 0
M  V30 4442 H 426.641 -2.94189 0.231686 0
M  V30 4443 H 426.722 -1.92886 1.68014 0
M  V30 4444 H 426.366 -4.00429 3.12441 0
M  V30 4445 H 426.296 -5.001 1.64947 0
M  V30 4446 H 428.787 -3.44189 1.5602 0
M  V30 4447 H 429.1 -6.75739 3.74963 0
M  V30 4448 H 427.445 -6.08047 3.36606 0
M  V30 4449 H 430.636 -4.22795 2.00902 0
M  V30 4450 H 430.809 -5.73995 3.00722 0
M  V30 4451 N 424.215 -0.530993 -1.48385 0
M  V30 4452 C 425.463 0.00273189 -2.021 0
M  V30 4453 C 425.784 1.34672 -1.41027 0
M  V30 4454 O 425.054 1.8724 -0.576012 0
M  V30 4455 H 423.634 0.00399774 -0.746989 0
M  V30 4456 H 426.296 -0.695054 -1.82085 0
M  V30 4457 H 425.392 0.11031 -3.11905 0
M  V30 4458 N 425.693 1.55336 -0.266172 0
M  V30 4459 C 426.643 2.18848 0.639497 0
M  V30 4460 C 427.627 1.1503 1.12503 0
M  V30 4461 O 428.819 1.40875 1.0716 0
M  V30 4462 C 425.948 2.90626 1.82733 0
M  V30 4463 C 425.034 4.01723 1.35939 0
M  V30 4464 N 425.425 5.02145 0.606988 0
M  V30 4465 C 423.723 4.1463 1.6431 0
M  V30 4466 C 424.424 5.80572 0.362138 0
M  V30 4467 N 423.4 5.35551 0.931971 0
M  V30 4468 H 427.202 2.93845 0.0567057 0
M  V30 4469 H 424.716 1.62252 -0.0693312 0
M  V30 4470 H 426.713 3.34569 2.48735 0
M  V30 4471 H 425.373 2.17137 2.41416 0
M  V30 4472 H 426.384 5.17271 0.255198 0
M  V30 4473 H 423.061 3.52326 2.23993 0
M  V30 4474 H 424.451 6.71472 -0.239848 0
M  V30 4475 N 427.171 -0.0066808 1.57599 0
M  V30 4476 C 428.419 -0.691552 1.899 0
M  V30 4477 C 428.74 -1.74682 0.866672 0
M  V30 4478 O 428.01 -1.95661 -0.0968189 0
M  V30 4479 H 426.59 -0.258416 0.700878 0
M  V30 4480 H 429.252 0.0326655 1.94873 0
M  V30 4481 H 428.348 -1.16702 2.8946 0
M  V30 4482 N 428.649 -1.55105 -0.279332 0
M  V30 4483 C 429.597 -1.88333 -1.36505 0
M  V30 4484 C 430.591 -0.759043 -1.51443 0
M  V30 4485 O 431.797 -0.943312 -1.53302 0
M  V30 4486 H 428.172 -0.59766 -0.456406 0
M  V30 4487 H 430.143 -2.79041 -1.05728 0
M  V30 4488 C 428.892 -2.16628 -2.7197 0
M  V30 4489 H 428.215 -3.02624 -2.61264 0
M  V30 4490 H 429.655 -2.43803 -3.46895 0
M  V30 4491 C 428.114 -0.971807 -3.22579 0
M  V30 4492 O 428.644 -0.203228 -4.01186 0
M  V30 4493 N 426.85 -0.771238 -2.80179 0
M  V30 4494 H 426.397 -1.39792 -2.1637 0
M  V30 4495 H 426.355 0.0263667 -3.14389 0
M  V30 4496 N 430.127 0.543554 -1.4793 0
M  V30 4497 C 431.074 1.64942 -1.6144 0
M  V30 4498 C 432.044 1.59692 -0.456903 0
M  V30 4499 O 433.229 1.78321 -0.678688 0
M  V30 4500 C 430.369 3.03238 -1.64744 0
M  V30 4501 C 429.482 3.18823 -2.91506 0
M  V30 4502 C 428.617 4.47599 -2.86057 0
M  V30 4503 C 427.656 4.56664 -4.07584 0
M  V30 4504 N 426.793 5.76811 -4.00292 0
M  V30 4505 H 431.633 1.52733 -2.55884 0
M  V30 4506 H 429.17 0.7438 -1.2691 0
M  V30 4507 H 431.128 3.83339 -1.64641 0
M  V30 4508 H 429.758 3.1425 -0.738017 0
M  V30 4509 H 428.81 2.32064 -3.01414 0
M  V30 4510 H 430.122 3.21384 -3.81463 0
M  V30 4511 H 429.276 5.35975 -2.84281 0
M  V30 4512 H 428.015 4.47538 -1.93807 0
M  V30 4513 H 427.02 3.66697 -4.09651 0
M  V30 4514 H 428.245 4.58474 -5.00978 0
M  V30 4515 H 426.191 5.77673 -3.10853 0
M  V30 4516 H 426.108 5.80808 -4.8394 0
M  V30 4517 H 427.376 6.67512 -4.02553 0
M  V30 4518 N 431.605 1.3629 0.791371 0
M  V30 4519 C 432.853 1.30154 1.5461 0
M  V30 4520 C 433.174 -0.119409 1.94634 0
M  V30 4521 O 432.444 -1.05924 1.64794 0
M  V30 4522 H 431.024 0.478784 0.573389 0
M  V30 4523 H 433.686 1.70565 0.94306 0
M  V30 4524 H 432.782 1.92762 2.45457 0
M  V30 4525 N 433.083 -1.0153 1.20538 0
M  V30 4526 C 434.308 -1.79283 1.04271 0
M  V30 4527 C 434.733 -1.8372 -0.403544 0
M  V30 4528 O 434.091 -1.27321 -1.2907 0
M  V30 4529 C 434.139 -3.21535 1.63241 0
M  V30 4530 O 433.243 -4.03099 0.870908 0
M  V30 4531 H 432.584 -0.55293 0.367647 0
M  V30 4532 H 435.114 -1.27696 1.59859 0
M  V30 4533 H 435.124 -3.72243 1.6703 0
M  V30 4534 H 433.799 -3.1762 2.68497 0
M  V30 4535 H 432.376 -3.61693 0.907323 0
M  V30 4536 N 434.561 -1.01147 -1.20859 0
M  V30 4537 C 435.471 -0.58686 -2.27141 0
M  V30 4538 C 436.487 0.373198 -1.69951 0
M  V30 4539 O 437.663 0.235423 -2.00019 0
M  V30 4540 C 434.728 0.0733602 -3.46622 0
M  V30 4541 C 433.789 -0.931995 -4.19061 0
M  V30 4542 C 433.022 -0.303186 -5.32838 0
M  V30 4543 O 433.245 0.898395 -5.63281 0
M  V30 4544 O 432.179 -1.01735 -5.9324 0
M  V30 4545 H 436.005 -1.47155 -2.65667 0
M  V30 4546 H 433.59 -0.780689 -1.2738 0
M  V30 4547 H 435.472 0.442333 -4.19072 0
M  V30 4548 H 434.147 0.932329 -3.09983 0
M  V30 4549 H 433.054 -1.35224 -3.48805 0
M  V30 4550 H 434.387 -1.76076 -4.59628 0
M  V30 4551 N 436.039 1.36541 -0.78704 0
M  V30 4552 C 437.287 1.98911 -0.357633 0
M  V30 4553 C 437.608 1.62778 1.07371 0
M  V30 4554 O 436.878 0.900612 1.73971 0
M  V30 4555 H 435.458 0.735734 -0.129246 0
M  V30 4556 H 438.12 1.66776 -1.00855 0
M  V30 4557 H 437.216 3.08874 -0.447549 0
M  V30 4558 N 437.518 0.538854 1.48102 0
M  V30 4559 C 438.748 0.0122958 2.06596 0
M  V30 4560 C 439.156 -1.27861 1.39457 0
M  V30 4561 O 438.499 -1.77348 0.478907 0
M  V30 4562 C 438.561 -0.273131 3.58461 0
M  V30 4563 C 438.225 0.92561 4.47528 0
M  V30 4564 C 439.222 1.82637 4.86765 0
M  V30 4565 C 436.907 1.13511 4.89306 0
M  V30 4566 C 438.901 2.92047 5.66558 0
M  V30 4567 C 436.588 2.23233 5.68868 0
M  V30 4568 C 437.586 3.12333 6.07402 0
M  V30 4569 O 437.274 4.20155 6.85365 0
M  V30 4570 H 437.006 0.0344283 0.675123 0
M  V30 4571 H 439.56 0.746494 1.91355 0
M  V30 4572 H 437.79 -1.06141 3.71848 0
M  V30 4573 H 439.479 -0.742842 3.99045 0
M  V30 4574 H 440.245 1.67649 4.55103 0
M  V30 4575 H 436.124 0.450835 4.5879 0
M  V30 4576 H 439.668 3.6162 5.96554 0
M  V30 4577 H 435.565 2.38201 5.99942 0
M  V30 4578 H 436.333 4.17975 7.03732 0
M  V30 4579 N 438.996 -1.55193 0.274407 0
M  V30 4580 C 440.244 -1.99187 -0.341902 0
M  V30 4581 C 440.565 -1.16422 -1.56431 0
M  V30 4582 O 439.835 -0.253573 -1.94252 0
M  V30 4583 H 438.415 -0.735721 -0.129317 0
M  V30 4584 H 441.077 -1.91168 0.379578 0
M  V30 4585 H 440.173 -3.05629 -0.632253 0
M  V30 4586 N 440.474 -0.00167713 -1.576 0
M  V30 4587 C 441.704 0.692754 -1.94639 0
M  V30 4588 C 442.112 1.67744 -0.87513 0
M  V30 4589 O 441.455 1.8305 0.154382 0
M  V30 4590 C 441.517 1.47881 -3.27676 0
M  V30 4591 C 441.181 0.655518 -4.52274 0
M  V30 4592 C 442.178 -0.0575214 -5.19868 0
M  V30 4593 C 439.863 0.600994 -4.98692 0
M  V30 4594 C 441.857 -0.814052 -6.3218 0
M  V30 4595 C 439.544 -0.15926 -6.10892 0
M  V30 4596 C 440.542 -0.865515 -6.77494 0
M  V30 4597 O 440.23 -1.61336 -7.87544 0
M  V30 4598 H 439.962 0.197792 -0.646417 0
M  V30 4599 H 442.516 -0.049423 -2.05341 0
M  V30 4600 H 440.746 2.2655 -3.13388 0
M  V30 4601 H 442.435 2.05874 -3.49816 0
M  V30 4602 H 443.201 -0.0245611 -4.84994 0
M  V30 4603 H 439.08 1.14025 -4.46676 0
M  V30 4604 H 442.624 -1.36584 -6.84098 0
M  V30 4605 H 438.521 -0.194035 -6.45208 0
M  V30 4606 H 439.289 -1.53025 -8.04068 0
M  V30 4607 N 441.952 1.55251 0.271103 0
M  V30 4608 C 442.862 1.9136 1.35714 0
M  V30 4609 C 443.878 0.811075 1.5394 0
M  V30 4610 O 445.054 1.11031 1.6803 0
M  V30 4611 C 442.119 2.1798 2.69603 0
M  V30 4612 C 441.18 3.4153 2.60107 0
M  V30 4613 C 440.413 3.66871 3.8761 0
M  V30 4614 O 440.636 2.94689 4.8838 0
M  V30 4615 O 439.57 4.60405 3.87699 0
M  V30 4616 H 443.396 2.83815 1.08088 0
M  V30 4617 H 440.981 1.41821 0.469792 0
M  V30 4618 H 442.863 2.36518 3.48765 0
M  V30 4619 H 441.538 1.28708 2.97012 0
M  V30 4620 H 440.445 3.28325 1.79314 0
M  V30 4621 H 441.778 4.31027 2.37647 0
M  V30 4622 N 443.43 -0.535701 1.48216 0
M  V30 4623 C 444.393 -1.623 1.61838 0
M  V30 4624 C 445.393 -1.53087 0.492024 0
M  V30 4625 O 446.583 -1.5686 0.757668 0
M  V30 4626 C 443.715 -3.01907 1.58319 0
M  V30 4627 H 444.908 -1.51564 2.58783 0
M  V30 4628 H 442.461 -0.757317 1.36727 0
M  V30 4629 H 443.196 -3.18155 0.628299 0
M  V30 4630 H 442.981 -3.10003 2.40085 0
M  V30 4631 H 444.471 -3.80969 1.71033 0
M  V30 4632 N 444.908 -1.36708 -0.784132 0
M  V30 4633 C 446.319 -1.27947 -1.35965 0
M  V30 4634 C 446.67 0.0784013 -1.96043 0
M  V30 4635 O 445.795 0.979989 -1.92938 0
M  V30 4636 C 446.39 -2.31689 -2.47195 0
M  V30 4637 C 444.949 -2.26601 -3.00548 0
M  V30 4638 C 444.096 -2.16184 -1.73666 0
M  V30 4639 H 447.047 -1.4751 -0.585358 0
M  V30 4640 H 447.068 -1.95638 -3.26352 0
M  V30 4641 H 446.58 -3.30506 -2.03439 0
M  V30 4642 H 444.681 -1.31268 -3.48711 0
M  V30 4643 H 444.794 -3.19508 -3.57004 0
M  V30 4644 H 443.158 -1.62524 -1.96107 0
M  V30 4645 H 443.941 -3.16896 -1.32031 0
M  V30 4646 N 446.386 1.0089 -1.21074 0
M  V30 4647 C 447.616 1.77933 -1.04993 0
M  V30 4648 C 448.024 1.84847 0.403495 0
M  V30 4649 O 447.367 1.30606 1.29181 0
M  V30 4650 C 447.429 3.23541 -1.56722 0
M  V30 4651 C 447.093 3.40214 -3.05129 0
M  V30 4652 C 448.09 3.2881 -4.02716 0
M  V30 4653 C 445.775 3.65781 -3.44252 0
M  V30 4654 C 447.769 3.42732 -5.37414 0
M  V30 4655 C 445.456 3.79346 -4.79103 0
M  V30 4656 C 446.454 3.67827 -5.75493 0
M  V30 4657 O 446.142 3.80965 -7.07899 0
M  V30 4658 H 445.874 0.566157 -0.369381 0
M  V30 4659 H 448.428 1.27826 -1.60779 0
M  V30 4660 H 446.658 3.74766 -0.953285 0
M  V30 4661 H 448.347 3.82245 -1.36543 0
M  V30 4662 H 449.113 3.08986 -3.73835 0
M  V30 4663 H 444.992 3.73831 -2.69762 0
M  V30 4664 H 448.536 3.33658 -6.12632 0
M  V30 4665 H 444.433 3.98672 -5.07672 0
M  V30 4666 H 445.201 3.97937 -7.15254 0
M  V30 4667 N 447.864 1.01787 1.20321 0
M  V30 4668 C 448.812 0.58254 2.25187 0
M  V30 4669 C 449.806 -0.379359 1.65098 0
M  V30 4670 O 451.012 -0.249142 1.78267 0
M  V30 4671 H 447.387 0.170078 0.732514 0
M  V30 4672 H 449.358 1.47788 2.59232 0
M  V30 4673 C 448.107 -0.0620885 3.47645 0
M  V30 4674 H 447.43 0.669069 3.94162 0
M  V30 4675 H 448.87 -0.329784 4.22716 0
M  V30 4676 C 447.329 -1.3053 3.10586 0
M  V30 4677 O 447.859 -2.39848 3.22236 0
M  V30 4678 N 446.065 -1.18988 2.65123 0
M  V30 4679 H 445.612 -0.300341 2.55843 0
M  V30 4680 H 445.57 -2.02267 2.40698 0
M  V30 4681 N 449.342 -1.36122 0.79427 0
M  V30 4682 C 450.753 -1.81646 0.431446 0
M  V30 4683 C 451.104 -1.66043 -1.04518 0
M  V30 4684 O 450.229 -1.1841 -1.8113 0
M  V30 4685 C 450.824 -3.29785 0.776341 0
M  V30 4686 C 449.383 -3.73501 0.466282 0
M  V30 4687 C 448.53 -2.58313 1.00844 0
M  V30 4688 H 451.481 -1.24274 0.986995 0
M  V30 4689 H 451.502 -3.80437 0.0692413 0
M  V30 4690 H 451.014 -3.4111 1.8511 0
M  V30 4691 H 449.115 -3.67733 -0.600245 0
M  V30 4692 H 449.228 -4.68754 0.990288 0
M  V30 4693 H 447.592 -2.5102 0.431406 0
M  V30 4694 H 448.375 -2.72421 2.08906 0
M  V30 4695 N 450.82 -0.546701 -1.47814 0
M  V30 4696 C 452.068 -0.0187037 -2.02091 0
M  V30 4697 C 452.389 1.33168 -1.42447 0
M  V30 4698 O 451.659 1.86619 -0.595839 0
M  V30 4699 H 450.239 -0.00392531 -0.74699 0
M  V30 4700 H 452.901 -0.714327 -1.81338 0
M  V30 4701 H 451.997 0.0772219 -3.12004 0
M  V30 4702 N 452.299 1.55045 -0.282633 0
M  V30 4703 C 453.546 1.9976 0.33199 0
M  V30 4704 C 453.874 1.17105 1.55295 0
M  V30 4705 O 453.129 0.230599 1.94337 0
M  V30 4706 C 453.428 3.49422 0.750938 0
M  V30 4707 C 453.094 4.4941 -0.366228 0
M  V30 4708 C 451.756 4.76471 -0.672964 0
M  V30 4709 C 454.108 5.09054 -1.11864 0
M  V30 4710 C 451.436 5.60442 -1.73556 0
M  V30 4711 C 453.788 5.9418 -2.17102 0
M  V30 4712 C 452.452 6.19558 -2.48402 0
M  V30 4713 H 451.722 0.730974 0.121484 0
M  V30 4714 H 454.369 1.8732 -0.39791 0
M  V30 4715 H 452.674 3.59377 1.56063 0
M  V30 4716 H 454.371 3.81432 1.23736 0
M  V30 4717 H 450.961 4.2844 -0.117041 0
M  V30 4718 H 455.145 4.88165 -0.894925 0
M  V30 4719 H 450.401 5.78349 -1.983 0
M  V30 4720 H 454.575 6.39427 -2.75873 0
M  V30 4721 H 452.202 6.84417 -3.30874 0
M  V30 4722 N 453.777 0.010035 1.57597 0
M  V30 4723 C 454.725 -0.996272 2.10184 0
M  V30 4724 C 455.719 -1.34942 1.02406 0
M  V30 4725 O 456.925 -1.33389 1.20861 0
M  V30 4726 H 453.3 -0.338982 0.671264 0
M  V30 4727 H 455.271 -0.527272 2.93705 0
M  V30 4728 C 454.02 -2.27599 2.62857 0
M  V30 4729 H 453.343 -2.01295 3.45428 0
M  V30 4730 H 454.783 -2.96265 3.0332 0
M  V30 4731 C 453.242 -2.99269 1.54725 0
M  V30 4732 O 453.772 -3.90644 0.93597 0
M  V30 4733 N 451.978 -2.61269 1.27228 0
M  V30 4734 H 451.525 -1.87043 1.77123 0
M  V30 4735 H 451.483 -3.09534 0.550999 0
M  V30 4736 N 455.255 -1.55392 -0.262866 0
M  V30 4737 C 456.503 -1.76127 -0.991147 0
M  V30 4738 C 456.824 -0.571083 -1.8645 0
M  V30 4739 O 456.094 0.413698 -1.91482 0
M  V30 4740 H 454.674 -0.649528 -0.368948 0
M  V30 4741 H 457.336 -1.9281 -0.284655 0
M  V30 4742 H 456.432 -2.6663 -1.62219 0
M  V30 4743 N 456.733 0.527833 -1.48498 0
M  V30 4744 C 457.696 1.61439 -1.62696 0
M  V30 4745 C 458.696 1.52824 -0.500136 0
M  V30 4746 O 459.886 1.56456 -0.765976 0
M  V30 4747 C 457.018 3.01063 -1.59918 0
M  V30 4748 H 458.211 1.50189 -2.59583 0
M  V30 4749 H 455.764 0.750055 -1.37127 0
M  V30 4750 H 456.499 3.17818 -0.645163 0
M  V30 4751 H 456.284 3.08725 -2.41726 0
M  V30 4752 H 457.774 3.80057 -1.73051 0
M  V30 4753 N 458.211 1.37122 0.776871 0
M  V30 4754 C 459.622 1.28667 1.35284 0
M  V30 4755 C 459.973 -0.0680035 1.96082 0
M  V30 4756 O 459.098 -0.969743 1.93455 0
M  V30 4757 C 459.693 2.32997 2.45963 0
M  V30 4758 C 458.252 2.28191 2.99342 0
M  V30 4759 C 457.399 2.17101 1.72517 0
M  V30 4760 H 460.35 1.47819 0.577527 0
M  V30 4761 H 460.371 1.97366 3.2531 0
M  V30 4762 H 459.883 3.3158 2.01684 0
M  V30 4763 H 457.984 1.33115 3.4801 0
M  V30 4764 H 458.097 3.21397 3.55304 0
M  V30 4765 H 456.461 1.63562 1.95242 0
M  V30 4766 H 457.244 3.17591 1.30348 0
M  V30 4767 N 459.689 -1.00246 1.21608 0
M  V30 4768 C 460.937 -1.73717 1.0328 0
M  V30 4769 C 461.258 -1.90102 -0.434318 0
M  V30 4770 O 460.528 -1.45376 -1.31311 0
M  V30 4771 H 459.108 -0.643613 0.379172 0
M  V30 4772 H 461.77 -1.20787 1.52959 0
M  V30 4773 H 460.866 -2.73535 1.50283 0
M  V30 4774 N 461.167 -1.02423 -1.1978 0
M  V30 4775 C 462.392 -0.7373 -1.93852 0
M  V30 4776 C 462.817 0.696923 -1.74713 0
M  V30 4777 O 462.175 1.48056 -1.04638 0
M  V30 4778 C 462.223 -1.08783 -3.438 0
M  V30 4779 O 461.327 -0.20383 -4.11896 0
M  V30 4780 H 460.668 -0.27284 -0.605355 0
M  V30 4781 H 463.198 -1.36966 -1.51992 0
M  V30 4782 H 463.208 -1.04276 -3.9445 0
M  V30 4783 H 461.883 -2.13274 -3.57053 0
M  V30 4784 H 460.46 -0.307091 -3.71633 0
M  V30 4785 N 462.645 1.35699 -0.801477 0
M  V30 4786 C 463.593 2.3177 -0.196317 0
M  V30 4787 C 464.587 1.56388 0.651081 0
M  V30 4788 O 465.793 1.71557 0.544815 0
M  V30 4789 H 462.168 0.750669 -0.0447189 0
M  V30 4790 H 464.139 2.8036 -1.02181 0
M  V30 4791 C 462.888 3.41671 0.644702 0
M  V30 4792 H 462.211 3.998 0.0019921 0
M  V30 4793 H 463.651 4.11184 1.0346 0
M  V30 4794 C 462.11 2.84271 1.80808 0
M  V30 4795 O 462.64 2.77408 2.9053 0
M  V30 4796 N 460.846 2.41391 1.61799 0
M  V30 4797 H 460.393 2.47173 0.725493 0
M  V30 4798 H 460.351 2.03334 2.39797 0
M  V30 4799 N 464.123 0.554532 1.47522 0
M  V30 4800 C 465.371 0.0294208 2.02079 0
M  V30 4801 C 465.692 -1.32411 1.43151 0
M  V30 4802 O 464.962 -1.863 0.605728 0
M  V30 4803 H 463.542 0.00788672 0.746958 0
M  V30 4804 H 466.204 0.723934 1.80956 0
M  V30 4805 H 465.3 -0.0606745 3.12041 0
M  V30 4806 N 465.601 -1.54893 0.290851 0
M  V30 4807 C 466.534 -2.19289 -0.631489 0
M  V30 4808 C 467.512 -1.15893 -1.14051 0
M  V30 4809 O 468.696 -1.4449 -1.21058 0
M  V30 4810 C 465.823 -2.82866 -1.86291 0
M  V30 4811 C 464.869 -3.997 -1.48801 0
M  V30 4812 S 465.702 -5.32641 -0.552644 0
M  V30 4813 C 466.858 -5.99696 -1.79209 0
M  V30 4814 H 467.091 -2.9718 -0.0843791 0
M  V30 4815 H 464.624 -1.54218 0.075031 0
M  V30 4816 H 466.582 -3.20124 -2.56964 0
M  V30 4817 H 465.243 -2.04839 -2.38117 0
M  V30 4818 H 464.436 -4.42932 -2.40473 0
M  V30 4819 H 464.038 -3.63947 -0.861321 0
M  V30 4820 H 466.33 -6.19886 -2.734 0
M  V30 4821 H 467.273 -6.94071 -1.40251 0
M  V30 4822 H 467.681 -5.29226 -1.96419 0
M  V30 4823 N 467.08 -0.0183926 -1.57589 0
M  V30 4824 C 468.012 0.995557 -2.06449 0
M  V30 4825 C 469.025 1.29556 -0.985849 0
M  V30 4826 O 470.214 1.2621 -1.26227 0
M  V30 4827 C 467.314 2.32572 -2.46502 0
M  V30 4828 C 466.487 2.21245 -3.77319 0
M  V30 4829 C 465.546 3.37104 -4.04039 0
M  V30 4830 O 464.572 3.14468 -4.74445 0
M  V30 4831 N 465.774 4.60553 -3.53372 0
M  V30 4832 H 468.539 0.578746 -2.94059 0
M  V30 4833 H 466.1 0.168603 -1.6102 0
M  V30 4834 H 468.092 3.08887 -2.61478 0
M  V30 4835 H 466.662 2.65931 -1.64315 0
M  V30 4836 H 465.882 1.29723 -3.72244 0
M  V30 4837 H 467.17 2.10868 -4.63047 0
M  V30 4838 H 466.568 4.81839 -2.96391 0
M  V30 4839 H 465.125 5.34072 -3.73644 0
M  V30 4840 N 468.558 1.5553 0.254621 0
M  V30 4841 C 469.506 1.9048 1.33492 0
M  V30 4842 C 470.5 0.78304 1.50216 0
M  V30 4843 O 471.706 0.967582 1.51782 0
M  V30 4844 H 468.081 0.604846 0.44684 0
M  V30 4845 H 470.052 2.80688 1.01275 0
M  V30 4846 C 468.801 2.20928 2.68489 0
M  V30 4847 H 468.124 3.06742 2.56417 0
M  V30 4848 H 469.564 2.49291 3.42972 0
M  V30 4849 C 468.023 1.023 3.20993 0
M  V30 4850 O 468.553 0.267027 4.00811 0
M  V30 4851 N 466.759 0.815714 2.78917 0
M  V30 4852 H 466.306 1.43217 2.14119 0
M  V30 4853 H 466.264 0.0236532 3.14391 0
M  V30 4854 N 470.036 -0.519951 1.48776 0
M  V30 4855 C 471.266 -1.29783 1.60748 0
M  V30 4856 C 471.674 -1.87253 0.27072 0
M  V30 4857 O 471.017 -1.67628 -0.751438 0
M  V30 4858 C 471.079 -2.47984 2.60277 0
M  V30 4859 C 470.743 -2.11526 4.051 0
M  V30 4860 C 471.74 -1.66608 4.92481 0
M  V30 4861 C 469.425 -2.21742 4.50706 0
M  V30 4862 C 471.419 -1.32384 6.23501 0
M  V30 4863 C 469.106 -1.87129 5.81744 0
M  V30 4864 C 470.104 -1.42523 6.67964 0
M  V30 4865 O 469.792 -1.0837 7.96562 0
M  V30 4866 H 469.524 -0.400562 0.544542 0
M  V30 4867 H 472.078 -0.632879 1.95407 0
M  V30 4868 H 470.308 -3.17493 2.2076 0
M  V30 4869 H 471.997 -3.10036 2.61978 0
M  V30 4870 H 472.763 -1.58178 4.58481 0
M  V30 4871 H 468.642 -2.55415 3.83776 0
M  V30 4872 H 472.186 -0.974949 6.90754 0
M  V30 4873 H 468.083 -1.95204 6.15277 0
M  V30 4874 H 468.851 -1.21681 8.09405 0
M  V30 4875 N 471.514 -1.37532 -0.769588 0
M  V30 4876 C 472.76 -1.33057 -1.53048 0
M  V30 4877 C 473.093 0.0841865 -1.94017 0
M  V30 4878 O 472.368 1.04198 -1.64235 0
M  V30 4879 C 472.651 -2.27166 -2.79406 0
M  V30 4880 C 472.504 -3.77429 -2.44677 0
M  V30 4881 C 473.823 -2.19683 -3.81349 0
M  V30 4882 H 470.942 -0.484655 -0.555228 0
M  V30 4883 H 473.584 -1.68251 -0.882702 0
M  V30 4884 H 471.734 -1.97283 -3.34682 0
M  V30 4885 H 473.406 -4.17918 -1.953 0
M  V30 4886 H 471.649 -3.95892 -1.77346 0
M  V30 4887 H 472.32 -4.38716 -3.35011 0
M  V30 4888 H 474.796 -2.46029 -3.35573 0
M  V30 4889 H 473.672 -2.87668 -4.67481 0
M  V30 4890 H 473.933 -1.19045 -4.25771 0
M  V30 4891 N 472.992 0.995999 -1.22138 0
M  V30 4892 C 474.403 1.54961 -1.04135 0
M  V30 4893 C 474.754 1.92159 0.396147 0
M  V30 4894 O 473.879 1.74435 1.28069 0
M  V30 4895 C 474.474 2.81581 -1.88408 0
M  V30 4896 C 473.033 3.33396 -1.74712 0
M  V30 4897 C 472.18 2.06509 -1.85066 0
M  V30 4898 H 475.131 0.817436 -1.36028 0
M  V30 4899 H 475.152 3.53822 -1.39966 0
M  V30 4900 H 474.664 2.54476 -2.93025 0
M  V30 4901 H 472.765 3.65416 -0.728159 0
M  V30 4902 H 472.878 4.04208 -2.57202 0
M  V30 4903 H 471.242 2.19925 -1.28472 0
M  V30 4904 H 472.025 1.81804 -2.91208 0
M  V30 4905 N 474.47 1.03057 1.19235 0
M  V30 4906 C 475.881 0.757449 1.70645 0
M  V30 4907 C 476.232 -0.722735 1.82403 0
M  V30 4908 O 475.357 -1.56325 1.49638 0
M  V30 4909 C 475.952 1.36833 3.09939 0
M  V30 4910 C 474.511 1.14375 3.58602 0
M  V30 4911 C 473.658 1.46533 2.35422 0
M  V30 4912 H 476.609 1.19828 1.04052 0
M  V30 4913 H 476.63 0.766184 3.72706 0
M  V30 4914 H 476.142 2.44562 3.01349 0
M  V30 4915 H 474.243 0.0847542 3.72504 0
M  V30 4916 H 474.356 1.83366 4.42622 0
M  V30 4917 H 472.72 0.884712 2.38841 0
M  V30 4918 H 473.503 2.55349 2.2946 0
M  V30 4919 N 475.948 -1.35272 0.808662 0
M  V30 4920 C 476.898 -2.27181 0.193124 0
M  V30 4921 C 477.882 -1.47871 -0.634265 0
M  V30 4922 O 479.074 -1.70048 -0.491182 0
M  V30 4923 C 476.203 -3.36979 -0.655751 0
M  V30 4924 C 475.289 -4.23712 0.181481 0
M  V30 4925 N 475.68 -4.90225 1.24551 0
M  V30 4926 C 473.978 -4.45985 -0.0365493 0
M  V30 4927 C 474.679 -5.54537 1.75682 0
M  V30 4928 N 473.655 -5.33107 1.06294 0
M  V30 4929 H 477.457 -2.76101 1.00724 0
M  V30 4930 H 474.971 -1.48823 0.650029 0
M  V30 4931 H 476.968 -4.01774 -1.11279 0
M  V30 4932 H 475.628 -2.89611 -1.46819 0
M  V30 4933 H 476.639 -4.91641 1.62818 0
M  V30 4934 H 473.316 -4.09409 -0.817964 0
M  V30 4935 H 474.706 -6.17597 2.64621 0
M  V30 4936 N 477.426 -0.562348 -1.47226 0
M  V30 4937 C 478.674 -0.0401371 -2.0206 0
M  V30 4938 C 478.995 1.3165 -1.43852 0
M  V30 4939 O 478.265 1.85976 -0.615599 0
M  V30 4940 H 476.845 -0.0118479 -0.746906 0
M  V30 4941 H 479.507 -0.73352 -1.8057 0
M  V30 4942 H 478.603 0.0441254 -3.12069 0
M  V30 4943 N 478.904 1.54736 -0.299062 0
M  V30 4944 C 479.867 2.22127 0.565012 0
M  V30 4945 C 480.867 1.20669 1.06281 0
M  V30 4946 O 482.057 1.45417 0.959145 0
M  V30 4947 C 479.189 2.90611 1.78208 0
M  V30 4948 H 480.382 2.99891 -0.0237448 0
M  V30 4949 H 477.935 1.5622 -0.0498788 0
M  V30 4950 H 478.67 2.16921 2.41072 0
M  V30 4951 H 478.455 3.64984 1.43281 0
M  V30 4952 H 479.945 3.42026 2.396 0
M  V30 4953 N 480.382 0.0267497 1.57577 0
M  V30 4954 C 481.63 -0.651116 1.91324 0
M  V30 4955 C 481.951 -1.72804 0.90353 0
M  V30 4956 O 481.221 -1.95822 -0.0552946 0
M  V30 4957 H 479.801 -0.243491 0.706202 0
M  V30 4958 H 482.463 0.0739935 1.94759 0
M  V30 4959 H 481.559 -1.10536 2.9187 0
M  V30 4960 N 481.861 -1.55662 -0.24637 0
M  V30 4961 C 483.091 -1.81312 -0.990438 0
M  V30 4962 C 483.499 -0.600234 -1.79426 0
M  V30 4963 O 482.842 0.440537 -1.78339 0
M  V30 4964 C 482.904 -3.0032 -1.97607 0
M  V30 4965 C 482.568 -4.36322 -1.35912 0
M  V30 4966 C 483.565 -5.14295 -0.761348 0
M  V30 4967 C 481.25 -4.83019 -1.37833 0
M  V30 4968 C 483.244 -6.37114 -0.190998 0
M  V30 4969 C 480.931 -6.05786 -0.804128 0
M  V30 4970 C 481.929 -6.82672 -0.211489 0
M  V30 4971 O 481.617 -8.03121 0.353845 0
M  V30 4972 H 481.349 -0.607233 -0.297058 0
M  V30 4973 H 483.903 -2.0356 -0.274351 0
M  V30 4974 H 482.133 -2.73829 -2.73047 0
M  V30 4975 H 483.822 -3.13057 -2.58361 0
M  V30 4976 H 484.588 -4.79337 -0.739013 0
M  V30 4977 H 480.467 -4.23165 -1.829 0
M  V30 4978 H 484.011 -6.97069 0.272206 0
M  V30 4979 H 479.908 -6.40222 -0.823792 0
M  V30 4980 H 480.676 -8.18131 0.245761 0
M  V30 4981 N 483.339 0.512053 -1.4905 0
M  V30 4982 C 484.564 1.2959 -1.6193 0
M  V30 4983 C 484.989 1.85906 -0.286454 0
M  V30 4984 O 484.347 1.65312 0.744426 0
M  V30 4985 C 484.395 2.40987 -2.68249 0
M  V30 4986 O 483.499 3.44531 -2.26654 0
M  V30 4987 H 482.84 0.383053 -0.542371 0
M  V30 4988 H 485.37 0.614231 -1.95162 0
M  V30 4989 H 485.38 2.86913 -2.90078 0
M  V30 4990 H 484.055 1.99361 -3.65004 0
M  V30 4991 H 482.632 3.046 -2.15112 0
M  V30 4992 N 484.817 1.37938 0.762283 0
M  V30 4993 C 485.78 1.34279 1.85747 0
M  V30 4994 C 486.78 0.244969 1.58923 0
M  V30 4995 O 487.97 0.501365 1.66829 0
M  V30 4996 C 485.102 1.08833 3.23061 0
M  V30 4997 H 486.295 2.31705 1.90401 0
M  V30 4998 H 483.848 1.23105 0.963057 0
M  V30 4999 H 484.583 0.119767 3.24079 0
M  V30 5000 H 484.368 1.88306 3.43923 0
M  V30 5001 H 485.858 1.08946 4.03138 0
M  V30 5002 N 486.295 -0.989507 1.22664 0
M  V30 5003 C 487.706 -1.54406 1.04955 0
M  V30 5004 C 488.057 -1.92366 -0.385951 0
M  V30 5005 O 487.182 -1.75111 -1.27142 0
M  V30 5006 C 487.777 -2.80578 1.89899 0
M  V30 5007 C 486.336 -3.32464 1.76478 0
M  V30 5008 C 485.483 -2.05524 1.86159 0
M  V30 5009 H 488.434 -0.810211 1.3646 0
M  V30 5010 H 488.455 -3.53075 1.4184 0
M  V30 5011 H 487.967 -2.52918 2.94371 0
M  V30 5012 H 486.068 -3.65024 0.747528 0
M  V30 5013 H 486.181 -4.02838 2.59342 0
M  V30 5014 H 484.545 -2.19241 1.29636 0
M  V30 5015 H 485.328 -1.80258 2.92168 0
M  V30 5016 N 487.773 -1.03688 -1.18687 0
M  V30 5017 C 489.003 -0.756819 -1.92239 0
M  V30 5018 C 489.411 0.689374 -1.76194 0
M  V30 5019 O 488.754 1.48126 -1.08648 0
M  V30 5020 C 488.816 -1.03851 -3.44173 0
M  V30 5021 C 488.48 -2.47785 -3.83994 0
M  V30 5022 C 489.477 -3.4595 -3.88091 0
M  V30 5023 C 487.162 -2.82397 -4.154 0
M  V30 5024 C 489.156 -4.76779 -4.23038 0
M  V30 5025 C 486.843 -4.13433 -4.50018 0
M  V30 5026 C 487.841 -5.10434 -4.53813 0
M  V30 5027 O 487.529 -6.39122 -4.87625 0
M  V30 5028 H 487.261 -0.275678 -0.617234 0
M  V30 5029 H 489.815 -1.38658 -1.51536 0
M  V30 5030 H 488.045 -0.351612 -3.85098 0
M  V30 5031 H 489.734 -0.746846 -3.9897 0
M  V30 5032 H 490.5 -3.20549 -3.63969 0
M  V30 5033 H 486.379 -2.07568 -4.11627 0
M  V30 5034 H 489.923 -5.52488 -4.25914 0
M  V30 5035 H 485.82 -4.38604 -4.736 0
M  V30 5036 H 486.588 -6.43715 -5.05542 0
M  V30 5037 N 489.251 1.34841 -0.815825 0
M  V30 5038 C 490.499 1.98107 -0.399744 0
M  V30 5039 C 490.82 1.65019 1.03894 0
M  V30 5040 O 490.09 0.937311 1.72021 0
M  V30 5041 H 488.67 0.732827 -0.144823 0
M  V30 5042 H 491.332 1.64599 -1.0437 0
M  V30 5043 H 490.428 3.07856 -0.512965 0
M  V30 5044 N 490.729 0.570148 1.46925 0
M  V30 5045 C 491.975 0.0510284 2.02736 0
M  V30 5046 C 492.308 -1.3006 1.44215 0
M  V30 5047 O 491.583 -1.84932 0.602521 0
M  V30 5048 C 491.866 -0.028215 3.60089 0
M  V30 5049 C 491.719 1.35142 4.29018 0
M  V30 5050 C 493.038 -0.735181 4.33916 0
M  V30 5051 H 490.157 0.0200178 0.736728 0
M  V30 5052 H 492.799 0.73493 1.75211 0
M  V30 5053 H 490.949 -0.610648 3.83671 0
M  V30 5054 H 492.621 1.97806 4.16738 0
M  V30 5055 H 490.864 1.9226 3.88868 0
M  V30 5056 H 491.535 1.24857 5.37694 0
M  V30 5057 H 494.011 -0.240519 4.15404 0
M  V30 5058 H 492.887 -0.759622 5.43618 0
M  V30 5059 H 493.148 -1.79397 4.04066 0
M  V30 5060 N 492.207 -1.54576 0.307264 0
M  V30 5061 C 493.618 -1.8579 -0.184121 0
M  V30 5062 C 493.969 -1.22914 -1.52927 0
M  V30 5063 O 493.094 -0.529126 -2.09831 0
M  V30 5064 C 493.689 -3.37081 -0.340862 0
M  V30 5065 C 492.248 -3.68304 -0.776465 0
M  V30 5066 C 491.395 -2.77076 0.111503 0
M  V30 5067 H 494.346 -1.49656 0.528078 0
M  V30 5068 H 494.367 -3.61922 -1.17443 0
M  V30 5069 H 493.879 -3.82815 0.638309 0
M  V30 5070 H 491.98 -3.28092 -1.76596 0
M  V30 5071 H 492.093 -4.75434 -0.591512 0
M  V30 5072 H 490.457 -2.51374 -0.410256 0
M  V30 5073 H 491.24 -3.25632 1.08714 0
M  V30 5074 N 493.685 -0.035106 -1.57561 0
M  V30 5075 C 494.635 0.954034 -2.0708 0
M  V30 5076 C 495.619 1.2818 -0.972558 0
M  V30 5077 O 496.811 1.26691 -1.23606 0
M  V30 5078 C 493.94 2.23442 -2.60631 0
M  V30 5079 C 493.026 1.93475 -3.77396 0
M  V30 5080 N 493.417 1.33802 -4.87781 0
M  V30 5081 C 491.715 2.23434 -3.85996 0
M  V30 5082 C 492.416 1.21103 -5.68954 0
M  V30 5083 N 491.392 1.70855 -5.16052 0
M  V30 5084 H 495.194 0.487731 -2.89825 0
M  V30 5085 H 492.708 0.169759 -1.6151 0
M  V30 5086 H 494.705 2.95183 -2.94402 0
M  V30 5087 H 493.365 2.70693 -1.79319 0
M  V30 5088 H 494.376 1.01227 -5.07911 0
M  V30 5089 H 491.053 2.73317 -3.15601 0
M  V30 5090 H 492.443 0.749105 -6.67711 0
M  V30 5091 N 495.163 1.55791 0.238111 0
M  V30 5092 C 496.411 1.77681 0.963001 0
M  V30 5093 C 496.732 0.600674 1.85518 0
M  V30 5094 O 496.002 -0.383182 1.92116 0
M  V30 5095 H 494.582 0.655315 0.358568 0
M  V30 5096 H 497.244 1.93239 0.253945 0
M  V30 5097 H 496.34 2.69177 1.57956 0
M  V30 5098 N 496.642 -0.504142 1.49319 0
M  V30 5099 C 497.605 -1.5883 1.65244 0
M  V30 5100 C 498.605 -1.52009 0.524386 0
M  V30 5101 O 499.795 -1.55218 0.79077 0
M  V30 5102 C 496.927 -2.98481 1.64687 0
M  V30 5103 H 498.12 -1.4604 2.61939 0
M  V30 5104 H 495.673 -0.728144 1.38303 0
M  V30 5105 H 496.408 -3.16751 0.695644 0
M  V30 5106 H 496.193 -3.0484 2.46607 0
M  V30 5107 H 497.683 -3.77256 1.79075 0
M  V30 5108 N 498.12 -1.38341 -0.754957 0
M  V30 5109 C 499.083 -1.35262 -1.85032 0
M  V30 5110 C 500.083 -0.253393 -1.58791 0
M  V30 5111 O 501.273 -0.510205 -1.66561 0
M  V30 5112 C 498.405 -1.10544 -3.22479 0
M  V30 5113 H 499.598 -2.32712 -1.8917 0
M  V30 5114 H 497.151 -1.23614 -0.956515 0
M  V30 5115 H 497.886 -0.136952 -3.24011 0
M  V30 5116 H 497.671 -1.90127 -3.4292 0
M  V30 5117 H 499.161 -1.11082 -4.02555 0
M  V30 5118 N 499.598 0.982988 -1.23187 0
M  V30 5119 C 500.548 2.05962 -0.977942 0
M  V30 5120 C 501.532 1.60725 0.0751148 0
M  V30 5121 O 502.724 1.76471 -0.136683 0
M  V30 5122 C 499.853 3.38564 -0.568276 0
M  V30 5123 C 498.939 3.90407 -1.6566 0
M  V30 5124 N 499.33 4.15359 -2.88635 0
M  V30 5125 C 497.628 4.18915 -1.53058 0
M  V30 5126 C 498.329 4.57642 -3.5908 0
M  V30 5127 N 497.305 4.6192 -2.86584 0
M  V30 5128 H 501.107 2.23208 -1.91195 0
M  V30 5129 H 498.621 1.16555 -1.13087 0
M  V30 5130 H 500.618 4.15276 -0.36764 0
M  V30 5131 H 499.278 3.22712 0.358713 0
M  V30 5132 H 500.289 4.03258 -3.24966 0
M  V30 5133 H 496.966 4.12081 -0.670506 0
M  V30 5134 H 498.356 4.85488 -4.6449 0
M  V30 5135 N 501.076 1.04316 1.18135 0
M  V30 5136 C 502.324 0.746542 1.87806 0
M  V30 5137 C 502.645 -0.728082 1.80898 0
M  V30 5138 O 501.915 -1.52554 1.22899 0
M  V30 5139 H 500.495 0.273157 0.695265 0
M  V30 5140 H 503.157 1.32044 1.43354 0
M  V30 5141 H 502.253 1.05362 2.93778 0
M  V30 5142 N 502.554 -1.34406 0.822964 0
M  V30 5143 C 503.779 -2.0304 0.423034 0
M  V30 5144 C 504.204 -1.61568 -0.963196 0
M  V30 5145 O 503.562 -0.800339 -1.62678 0
M  V30 5146 C 503.61 -3.56636 0.53321 0
M  V30 5147 O 502.714 -4.09971 -0.446939 0
M  V30 5148 H 502.055 -0.64075 0.174171 0
M  V30 5149 H 504.585 -1.71653 1.11339 0
M  V30 5150 H 504.595 -4.05945 0.408991 0
M  V30 5151 H 503.27 -3.86168 1.54425 0
M  V30 5152 H 501.847 -3.71835 -0.281601 0
M  V30 5153 N 504.032 -0.577932 -1.46621 0
M  V30 5154 C 505.448 -0.239242 -1.57797 0
M  V30 5155 C 505.648 1.25843 -1.57371 0
M  V30 5156 O 504.704 2.03988 -1.48813 0
M  V30 5157 C 506.017 -0.884227 -2.87405 0
M  V30 5158 C 507.565 -0.857373 -3.01028 0
M  V30 5159 C 508.04 -1.48181 -4.33366 0
M  V30 5160 N 509.531 -1.44593 -4.40053 0
M  V30 5161 C 510.266 -1.89852 -5.41058 0
M  V30 5162 N 509.762 -2.43062 -6.48762 0
M  V30 5163 N 511.555 -1.80797 -5.3223 0
M  V30 5164 H 503.706 -1.55073 -1.45142 0
M  V30 5165 H 505.969 -0.647903 -0.692044 0
M  V30 5166 H 505.675 -1.93759 -2.93514 0
M  V30 5167 H 505.549 -0.389585 -3.75183 0
M  V30 5168 H 507.936 0.187357 -2.94505 0
M  V30 5169 H 508.017 -1.38999 -2.14739 0
M  V30 5170 H 507.661 -2.52572 -4.40647 0
M  V30 5171 H 507.591 -0.924464 -5.18422 0
M  V30 5172 H 510.082 -1.05694 -3.62819 0
M  V30 5173 H 510.395 -2.75466 -7.22038 0
M  V30 5174 H 508.74 -2.47085 -6.49595 0
M  V30 5175 H 511.931 -1.38989 -4.46989 0
M  V30 5176 H 512.104 -2.16385 -6.10804 0
M  V30 5177 N 505.51 1.54411 -0.315457 0
M  V30 5178 C 506.74 2.04536 0.291315 0
M  V30 5179 C 507.148 1.19162 1.4696 0
M  V30 5180 O 506.491 0.213199 1.82459 0
M  V30 5181 C 506.553 3.5056 0.796725 0
M  V30 5182 C 506.217 4.5627 -0.258178 0
M  V30 5183 C 507.214 5.08312 -1.09153 0
M  V30 5184 C 504.899 5.00672 -0.404036 0
M  V30 5185 C 506.893 6.03312 -2.05655 0
M  V30 5186 C 504.58 5.95488 -1.37248 0
M  V30 5187 C 505.578 6.46693 -2.19721 0
M  V30 5188 O 505.266 7.39648 -3.14921 0
M  V30 5189 H 504.998 0.672856 0.0651165 0
M  V30 5190 H 507.552 2.00244 -0.457308 0
M  V30 5191 H 505.782 3.52223 1.59612 0
M  V30 5192 H 507.471 3.83804 1.32096 0
M  V30 5193 H 508.237 4.74793 -0.98979 0
M  V30 5194 H 504.116 4.60436 0.22799 0
M  V30 5195 H 507.66 6.43203 -2.70067 0
M  V30 5196 H 503.557 6.28424 -1.47489 0
M  V30 5197 H 504.325 7.57496 -3.10067 0
M  V30 5198 N 506.988 0.0434614 1.5754 0
M  V30 5199 C 508.213 -0.645358 1.97104 0
M  V30 5200 C 508.638 -1.64037 0.920521 0
M  V30 5201 O 507.996 -1.80922 -0.11708 0
M  V30 5202 C 508.044 -1.31547 3.35749 0
M  V30 5203 O 507.148 -2.43103 3.33129 0
M  V30 5204 H 506.489 -0.168403 0.64229 0
M  V30 5205 H 509.019 0.109573 2.04306 0
M  V30 5206 H 509.029 -1.66895 3.72304 0
M  V30 5207 H 507.704 -0.586205 4.11748 0
M  V30 5208 H 506.281 -2.0976 3.0831 0
M  V30 5209 N 508.466 -1.55915 -0.229846 0
M  V30 5210 C 509.691 -1.8296 -0.976743 0
M  V30 5211 C 510.116 -0.622735 -1.77493 0
M  V30 5212 O 509.474 0.428431 -1.76165 0
M  V30 5213 C 509.522 -3.07916 -1.8767 0
M  V30 5214 O 508.626 -2.86028 -2.97088 0
M  V30 5215 H 507.967 -0.603453 -0.277021 0
M  V30 5216 H 510.497 -2.0312 -0.245669 0
M  V30 5217 H 510.507 -3.37802 -2.2881 0
M  V30 5218 H 509.182 -3.95389 -1.28996 0
M  V30 5219 H 507.759 -2.67355 -2.59954 0
M  V30 5220 N 509.944 0.496216 -1.49584 0
M  V30 5221 C 511.191 1.25003 -1.59312 0
M  V30 5222 C 511.519 1.92445 -0.28198 0
M  V30 5223 O 510.774 1.81557 0.730452 0
M  V30 5224 C 511.073 2.3359 -2.705 0
M  V30 5225 C 510.739 1.83574 -4.11839 0
M  V30 5226 C 509.401 1.69653 -4.50302 0
M  V30 5227 C 511.753 1.46193 -5.00277 0
M  V30 5228 C 509.081 1.16736 -5.74969 0
M  V30 5229 C 511.433 0.947265 -6.25468 0
M  V30 5230 C 510.097 0.794485 -6.62755 0
M  V30 5231 H 509.367 0.45742 -0.582965 0
M  V30 5232 H 512.014 0.549996 -1.83432 0
M  V30 5233 H 510.319 3.09401 -2.40371 0
M  V30 5234 H 512.016 2.91627 -2.75235 0
M  V30 5235 H 508.606 1.9537 -3.81482 0
M  V30 5236 H 512.79 1.55793 -4.71214 0
M  V30 5237 H 508.046 1.03623 -6.02555 0
M  V30 5238 H 512.22 0.648846 -6.93371 0
M  V30 5239 H 509.847 0.382271 -7.59238 0
M  V30 5240 N 511.423 1.38739 0.74761 0
M  V30 5241 C 512.648 1.38702 1.54197 0
M  V30 5242 C 513.073 -0.019664 1.8809 0
M  V30 5243 O 512.431 -1.00333 1.51006 0
M  V30 5244 C 512.479 2.25492 2.814 0
M  V30 5245 O 511.583 1.67613 3.76802 0
M  V30 5246 H 510.924 0.472863 0.466151 0
M  V30 5247 H 513.454 1.82577 0.923413 0
M  V30 5248 H 513.464 2.39561 3.30264 0
M  V30 5249 H 512.139 3.27727 2.56062 0
M  V30 5250 H 510.716 1.62718 3.35526 0
M  V30 5251 N 512.901 -0.976442 1.23707 0
M  V30 5252 C 514.126 -1.75875 1.09922 0
M  V30 5253 C 514.551 -1.84911 -0.34489 0
M  V30 5254 O 513.909 -1.31363 -1.24954 0
M  V30 5255 C 513.957 -3.16179 1.73388 0
M  V30 5256 O 513.061 -4.00124 0.99871 0
M  V30 5257 H 512.402 -0.540954 0.385052 0
M  V30 5258 H 514.932 -1.22546 1.6384 0
M  V30 5259 H 514.942 -3.66741 1.78788 0
M  V30 5260 H 513.617 -3.08917 2.78466 0
M  V30 5261 H 512.194 -3.58624 1.02193 0
M  V30 5262 N 514.379 -1.04941 -1.1758 0
M  V30 5263 C 515.625 -0.759112 -1.88057 0
M  V30 5264 C 515.958 0.711918 -1.8068 0
M  V30 5265 O 515.233 1.52035 -1.21308 0
M  V30 5266 C 515.516 -1.237 -3.38187 0
M  V30 5267 C 515.369 -2.77078 -3.54327 0
M  V30 5268 C 516.688 -0.834014 -4.32125 0
M  V30 5269 H 513.807 -0.277237 -0.682868 0
M  V30 5270 H 516.449 -1.30296 -1.38286 0
M  V30 5271 H 514.599 -0.774337 -3.80705 0
M  V30 5272 H 516.271 -3.31449 -3.20842 0
M  V30 5273 H 514.514 -3.16477 -2.96689 0
M  V30 5274 H 515.185 -3.05577 -4.59703 0
M  V30 5275 H 517.661 -1.23228 -3.97434 0
M  V30 5276 H 516.537 -1.19603 -5.35711 0
M  V30 5277 H 516.798 0.262195 -4.41322 0
M  V30 5278 N 515.857 1.33968 -0.830081 0
M  V30 5279 C 516.805 2.31301 -0.245435 0
M  V30 5280 C 517.799 1.57734 0.617762 0
M  V30 5281 O 519.005 1.72674 0.508303 0
M  V30 5282 H 515.38 0.749552 -0.0606316 0
M  V30 5283 H 517.351 2.78129 -1.08105 0
M  V30 5284 C 516.1 3.42961 0.572084 0
M  V30 5285 H 515.423 3.99714 -0.0828118 0
M  V30 5286 H 516.863 4.13286 0.94715 0
M  V30 5287 C 515.322 2.88043 1.74737 0
M  V30 5288 O 515.852 2.83508 2.8458 0
M  V30 5289 N 514.058 2.44768 1.56642 0
M  V30 5290 H 513.605 2.48656 0.672901 0
M  V30 5291 H 513.563 2.08375 2.3543 0
M  V30 5292 N 517.335 0.585699 1.46312 0
M  V30 5293 C 518.282 -0.145835 2.30339 0
M  V30 5294 C 519.252 -0.881215 1.40797 0
M  V30 5295 O 520.437 -0.871293 1.69744 0
M  V30 5296 C 517.577 -1.15161 3.25318 0
M  V30 5297 C 516.69 -0.419367 4.2996 0
M  V30 5298 C 515.825 -1.41293 5.12064 0
M  V30 5299 C 514.864 -0.667261 6.08452 0
M  V30 5300 N 514.001 -1.60903 6.83414 0
M  V30 5301 H 518.841 0.576755 2.92365 0
M  V30 5302 H 516.378 0.296237 1.44086 0
M  V30 5303 H 518.336 -1.74763 3.78832 0
M  V30 5304 H 516.966 -1.84188 2.65094 0
M  V30 5305 H 516.018 0.291751 3.7928 0
M  V30 5306 H 517.33 0.163433 4.98532 0
M  V30 5307 H 516.484 -2.08167 5.6987 0
M  V30 5308 H 515.223 -2.02966 4.43459 0
M  V30 5309 H 514.228 0.0152356 5.49798 0
M  V30 5310 H 515.453 -0.0558817 6.79077 0
M  V30 5311 H 513.399 -2.21381 6.17516 0
M  V30 5312 H 513.316 -1.07911 7.48259 0
M  V30 5313 H 514.584 -2.26802 7.45775 0
M  V30 5314 N 518.813 -1.54241 0.323641 0
M  V30 5315 C 520.043 -2.04687 -0.280464 0
M  V30 5316 C 520.451 -1.19939 -1.46326 0
M  V30 5317 O 519.794 -0.222872 -1.82343 0
M  V30 5318 C 519.856 -3.50978 -0.778123 0
M  V30 5319 C 519.52 -4.56127 0.282371 0
M  V30 5320 C 520.517 -5.07726 1.11847 0
M  V30 5321 C 518.202 -5.00451 0.430582 0
M  V30 5322 C 520.196 -6.02212 2.08851 0
M  V30 5323 C 517.883 -5.94752 1.40404 0
M  V30 5324 C 518.881 -6.45519 2.23147 0
M  V30 5325 O 518.569 -7.37968 3.1884 0
M  V30 5326 H 518.301 -0.673192 -0.0615473 0
M  V30 5327 H 520.855 -1.99999 0.467921 0
M  V30 5328 H 519.085 -3.53064 -1.57742 0
M  V30 5329 H 520.774 -3.84499 -1.30058 0
M  V30 5330 H 521.54 -4.74261 1.01496 0
M  V30 5331 H 517.419 -4.6055 -0.203569 0
M  V30 5332 H 520.963 -6.41761 2.73474 0
M  V30 5333 H 516.86 -6.27633 1.5082 0
M  V30 5334 H 517.628 -7.55841 3.14079 0
M  V30 5335 N 520.291 -0.0518155 -1.57515 0
M  V30 5336 C 521.539 0.620595 -1.92336 0
M  V30 5337 C 521.86 1.71345 -0.930907 0
M  V30 5338 O 521.13 1.95885 0.0241341 0
M  V30 5339 H 519.71 0.232226 -0.709986 0
M  V30 5340 H 522.372 -0.104969 -1.94617 0
M  V30 5341 H 521.468 1.05879 -2.93592 0
M  V30 5342 N 521.769 1.56035 0.221574 0
M  V30 5343 C 522.716 1.92413 1.27459 0
M  V30 5344 C 523.686 0.781323 1.46576 0
M  V30 5345 O 524.871 1.03721 1.60145 0
M  V30 5346 C 522.011 2.24617 2.61995 0
M  V30 5347 C 521.124 3.51831 2.50677 0
M  V30 5348 C 520.259 3.73482 3.77736 0
M  V30 5349 C 519.298 4.94211 3.6114 0
M  V30 5350 N 518.435 5.12252 4.80148 0
M  V30 5351 H 523.275 2.82203 0.957355 0
M  V30 5352 H 520.812 1.39676 0.461415 0
M  V30 5353 H 522.77 2.41298 3.40339 0
M  V30 5354 H 521.4 1.38 2.91815 0
M  V30 5355 H 520.452 3.43343 1.63767 0
M  V30 5356 H 521.764 4.40328 2.34334 0
M  V30 5357 H 520.918 3.9026 4.64523 0
M  V30 5358 H 519.657 2.83266 3.97003 0
M  V30 5359 H 518.662 4.77384 2.72736 0
M  V30 5360 H 519.887 5.85912 3.43343 0
M  V30 5361 H 517.833 4.24978 4.99729 0
M  V30 5362 H 517.75 5.94881 4.66532 0
M  V30 5363 H 519.018 5.33465 5.68362 0
M  V30 5364 N 523.247 -0.488276 1.49845 0
M  V30 5365 C 524.197 -1.58556 1.63842 0
M  V30 5366 C 525.181 -1.53142 0.493586 0
M  V30 5367 O 526.373 -1.60457 0.747169 0
M  V30 5368 C 523.502 -2.97101 1.72005 0
M  V30 5369 C 522.588 -3.07463 2.92108 0
M  V30 5370 N 522.979 -2.87681 4.16021 0
M  V30 5371 C 521.277 -3.3858 2.90309 0
M  V30 5372 C 521.978 -3.0256 4.96822 0
M  V30 5373 N 520.954 -3.32002 4.30437 0
M  V30 5374 H 524.756 -1.41935 2.57355 0
M  V30 5375 H 522.27 -0.694668 1.46793 0
M  V30 5376 H 524.267 -3.75976 1.80132 0
M  V30 5377 H 522.927 -3.14782 0.796375 0
M  V30 5378 H 523.938 -2.63603 4.45796 0
M  V30 5379 H 520.615 -3.62357 2.07372 0
M  V30 5380 H 522.005 -2.9165 6.05301 0
M  V30 5381 N 524.725 -1.39134 -0.740242 0
M  V30 5382 C 525.973 -1.35803 -1.49673 0
M  V30 5383 C 526.294 0.0470897 -1.94943 0
M  V30 5384 O 525.564 0.997347 -1.68611 0
M  V30 5385 H 524.144 -0.499736 -0.555224 0
M  V30 5386 H 526.806 -1.73947 -0.879107 0
M  V30 5387 H 525.902 -2.0174 -2.38133 0
M  V30 5388 N 526.204 0.969867 -1.24223 0
M  V30 5389 C 527.481 1.68774 -0.988664 0
M  V30 5390 C 527.861 2.05342 0.489673 0
M  V30 5391 O 527.209 1.75486 1.46345 0
M  V30 5392 C 527.419 2.92135 -1.90941 0
M  V30 5393 C 528.767 3.64422 -2.17903 0
M  V30 5394 O 529.791 3.02188 -1.88576 0
M  V30 5395 O 528.65 4.76446 -2.67697 0
M  V30 5396 H 525.744 0.737736 -0.37373 0
M  V30 5397 H 528.29 1.02415 -1.35312 0
M  V30 5398 H 527.062 2.61788 -2.90831 0
M  V30 5399 H 526.685 3.66228 -1.54798 0
M  V30 5400 N 527.682 1.05563 1.17022 0
M  V30 5401 C 528.592 0.670758 2.24807 0
M  V30 5402 C 529.608 -0.309865 1.71219 0
M  V30 5403 O 530.784 -0.161025 2.00755 0
M  V30 5404 C 527.849 0.055337 3.46656 0
M  V30 5405 C 526.91 1.08688 4.15314 0
M  V30 5406 C 526.143 0.500736 5.31346 0
M  V30 5407 O 526.366 -0.688718 5.66227 0
M  V30 5408 O 525.3 1.23683 5.89055 0
M  V30 5409 H 529.126 1.56914 2.60023 0
M  V30 5410 H 526.711 0.827428 1.24395 0
M  V30 5411 H 528.593 -0.286492 4.20425 0
M  V30 5412 H 527.268 -0.816638 3.13229 0
M  V30 5413 H 526.175 1.48077 3.43546 0
M  V30 5414 H 527.508 1.93014 4.52777 0
M  V30 5415 N 529.16 -1.33526 0.837174 0
M  V30 5416 C 530.107 -2.29248 0.267169 0
M  V30 5417 C 531.077 -1.54252 -0.616071 0
M  V30 5418 O 532.262 -1.82559 -0.554699 0
M  V30 5419 C 529.402 -3.40638 -0.553152 0
M  V30 5420 C 528.515 -4.30548 0.353921 0
M  V30 5421 C 527.65 -5.29051 -0.477339 0
M  V30 5422 C 526.689 -6.106 0.42823 0
M  V30 5423 N 525.826 -7.01152 -0.364801 0
M  V30 5424 H 530.666 -2.77398 1.08877 0
M  V30 5425 H 528.203 -1.36496 0.54838 0
M  V30 5426 H 530.161 -4.03921 -1.04422 0
M  V30 5427 H 528.791 -2.93685 -1.33973 0
M  V30 5428 H 527.843 -3.68001 0.963289 0
M  V30 5429 H 529.155 -4.87631 1.04964 0
M  V30 5430 H 528.309 -5.97853 -1.0323 0
M  V30 5431 H 527.048 -4.72541 -1.2065 0
M  V30 5432 H 526.053 -5.40718 0.995219 0
M  V30 5433 H 527.278 -6.69193 1.15573 0
M  V30 5434 H 525.224 -6.47092 -1.07738 0
M  V30 5435 H 525.141 -7.5551 0.272238 0
M  V30 5436 H 526.409 -7.74263 -0.902054 0
M  V30 5437 N 530.638 -0.59345 -1.46 0
M  V30 5438 C 531.588 0.154751 -2.27474 0
M  V30 5439 C 532.572 0.851849 -1.365 0
M  V30 5440 O 533.764 0.744171 -1.60596 0
M  V30 5441 C 530.893 1.16079 -3.2308 0
M  V30 5442 C 529.979 0.465256 -4.2154 0
M  V30 5443 N 530.37 -0.485197 -5.03467 0
M  V30 5444 C 528.668 0.714634 -4.40237 0
M  V30 5445 C 529.369 -0.892709 -5.74809 0
M  V30 5446 N 528.345 -0.239511 -5.43072 0
M  V30 5447 H 532.147 -0.57546 -2.88211 0
M  V30 5448 H 529.661 -0.416046 -1.5698 0
M  V30 5449 H 531.658 1.71108 -3.80168 0
M  V30 5450 H 530.318 1.89171 -2.63903 0
M  V30 5451 H 531.329 -0.861258 -5.10689 0
M  V30 5452 H 528.006 1.43131 -3.92199 0
M  V30 5453 H 529.396 -1.67581 -6.50666 0
M  V30 5454 N 532.116 1.54067 -0.331816 0
M  V30 5455 C 533.066 2.21363 0.546101 0
M  V30 5456 C 534.05 1.19698 1.07523 0
M  V30 5457 O 535.242 1.45293 1.01088 0
M  V30 5458 C 532.371 2.98115 1.70242 0
M  V30 5459 C 531.457 4.07127 1.18779 0
M  V30 5460 N 531.848 5.04267 0.393465 0
M  V30 5461 C 530.146 4.21226 1.46576 0
M  V30 5462 C 530.847 5.81585 0.115572 0
M  V30 5463 N 529.823 5.39022 0.703987 0
M  V30 5464 H 533.625 2.93821 -0.0679751 0
M  V30 5465 H 531.139 1.61812 -0.138085 0
M  V30 5466 H 533.136 3.44818 2.34321 0
M  V30 5467 H 531.796 2.27181 2.31989 0
M  V30 5468 H 532.807 5.17888 0.0355757 0
M  V30 5469 H 529.484 3.61509 2.08848 0
M  V30 5470 H 530.874 6.6985 -0.524426 0
M  V30 5471 N 533.594 0.0601682 1.57485 0
M  V30 5472 C 534.819 -0.624416 1.97777 0
M  V30 5473 C 535.244 -1.63051 0.937867 0
M  V30 5474 O 534.602 -1.81036 -0.0978845 0
M  V30 5475 C 534.65 -1.27979 3.37126 0
M  V30 5476 O 533.754 -2.39556 3.35688 0
M  V30 5477 H 533.095 -0.161581 0.64404 0
M  V30 5478 H 535.625 0.131237 2.04179 0
M  V30 5479 H 535.635 -1.62937 3.74053 0
M  V30 5480 H 534.31 -0.542501 4.12347 0
M  V30 5481 H 532.887 -2.06478 3.10517 0
M  V30 5482 N 535.072 -1.5615 -0.213296 0
M  V30 5483 C 536.297 -1.83986 -0.957282 0
M  V30 5484 C 536.722 -0.641526 -1.76822 0
M  V30 5485 O 536.08 0.409722 -1.7661 0
M  V30 5486 C 536.128 -3.09889 -1.84393 0
M  V30 5487 O 535.232 -2.89163 -2.94038 0
M  V30 5488 H 534.573 -0.606357 -0.270605 0
M  V30 5489 H 537.103 -2.03369 -0.224111 0
M  V30 5490 H 537.113 -3.40209 -2.25215 0
M  V30 5491 H 535.788 -3.96735 -1.24795 0
M  V30 5492 H 534.365 -2.70097 -2.57103 0
M  V30 5493 N 536.55 0.480323 -1.50102 0
M  V30 5494 C 537.497 1.57946 -1.6829 0
M  V30 5495 C 538.467 1.57611 -0.524223 0
M  V30 5496 O 539.652 1.75282 -0.753709 0
M  V30 5497 C 536.792 2.95978 -1.77457 0
M  V30 5498 C 535.905 3.06173 -3.04766 0
M  V30 5499 C 535.04 4.35063 -3.04784 0
M  V30 5500 C 534.079 4.38966 -4.26586 0
M  V30 5501 N 533.216 5.59314 -4.24396 0
M  V30 5502 H 538.056 1.41743 -2.62131 0
M  V30 5503 H 535.593 0.689304 -1.2995 0
M  V30 5504 H 537.551 3.76011 -1.80752 0
M  V30 5505 H 536.181 3.10837 -0.870637 0
M  V30 5506 H 535.233 2.19071 -3.10986 0
M  V30 5507 H 536.545 3.04916 -3.9475 0
M  V30 5508 H 535.699 5.23436 -3.06757 0
M  V30 5509 H 534.438 4.38915 -2.12614 0
M  V30 5510 H 533.443 3.48992 -4.24835 0
M  V30 5511 H 534.668 4.36813 -5.19972 0
M  V30 5512 H 532.614 5.63969 -3.35074 0
M  V30 5513 H 532.531 5.5976 -5.08138 0
M  V30 5514 H 533.799 6.49837 -4.30502 0
M  V30 5515 N 538.028 1.39524 0.732853 0
M  V30 5516 C 538.975 1.38416 1.84688 0
M  V30 5517 C 539.945 0.243539 1.64305 0
M  V30 5518 O 541.13 0.438979 1.85681 0
M  V30 5519 C 538.27 1.23555 3.22224 0
M  V30 5520 C 537.383 2.47179 3.54298 0
M  V30 5521 C 536.518 2.2489 4.81246 0
M  V30 5522 C 535.557 3.44178 5.0617 0
M  V30 5523 N 534.694 3.21192 6.24323 0
M  V30 5524 H 539.534 2.33645 1.84971 0
M  V30 5525 H 537.071 1.16059 0.903804 0
M  V30 5526 H 539.029 1.12949 4.0162 0
M  V30 5527 H 537.659 0.31954 3.21215 0
M  V30 5528 H 536.711 2.68379 2.69587 0
M  V30 5529 H 538.023 3.36022 3.68633 0
M  V30 5530 H 537.177 2.11538 5.68627 0
M  V30 5531 H 535.916 1.33443 4.69089 0
M  V30 5532 H 534.921 3.58025 4.17251 0
M  V30 5533 H 536.146 4.36528 5.20212 0
M  V30 5534 H 534.092 2.32413 6.1345 0
M  V30 5535 H 534.009 4.03594 6.39256 0
M  V30 5536 H 535.277 3.1154 7.14537 0
M  V30 5537 N 539.506 -0.963266 1.24736 0
M  V30 5538 C 540.456 -2.0438 1.01058 0
M  V30 5539 C 541.44 -1.60824 -0.0495354 0
M  V30 5540 O 542.632 -1.76232 0.164741 0
M  V30 5541 C 539.761 -3.37617 0.622067 0
M  V30 5542 C 538.847 -3.87722 1.7185 0
M  V30 5543 N 539.238 -4.10715 2.95207 0
M  V30 5544 C 537.536 -4.16426 1.59703 0
M  V30 5545 C 538.237 -4.51872 3.66315 0
M  V30 5546 N 537.213 -4.57302 2.93897 0
M  V30 5547 H 541.015 -2.20138 1.94721 0
M  V30 5548 H 538.529 -1.14741 1.14927 0
M  V30 5549 H 540.526 -4.14638 0.43366 0
M  V30 5550 H 539.186 -3.23242 -0.307327 0
M  V30 5551 H 540.197 -3.98037 3.31341 0
M  V30 5552 H 536.874 -4.10962 0.73598 0
M  V30 5553 H 538.264 -4.78037 4.72155 0
M  V30 5554 N 540.985 -1.06182 -1.16461 0
M  V30 5555 C 541.895 -0.682671 -2.24448 0
M  V30 5556 C 542.911 0.30078 -1.71381 0
M  V30 5557 O 544.087 0.150376 -2.00838 0
M  V30 5558 C 541.152 -0.0737202 -3.46622 0
M  V30 5559 C 540.213 -1.10889 -4.14731 0
M  V30 5560 C 539.446 -0.528908 -5.31073 0
M  V30 5561 O 539.669 0.65868 -5.66584 0
M  V30 5562 O 538.603 -1.26805 -5.88391 0
M  V30 5563 H 542.429 -1.58291 -2.59187 0
M  V30 5564 H 540.014 -0.834013 -1.23954 0
M  V30 5565 H 541.896 0.264192 -4.20571 0
M  V30 5566 H 540.571 0.800015 -3.13658 0
M  V30 5567 H 539.478 -1.49896 -3.42756 0
M  V30 5568 H 540.811 -1.95412 -4.51747 0
M  V30 5569 N 542.463 1.3308 -0.844243 0
M  V30 5570 C 543.711 1.97215 -0.441676 0
M  V30 5571 C 544.032 1.67185 1.0037 0
M  V30 5572 O 543.302 0.973588 1.69994 0
M  V30 5573 H 541.882 0.72959 -0.160335 0
M  V30 5574 H 544.544 1.62348 -1.07838 0
M  V30 5575 H 543.64 3.06698 -0.57815 0
M  V30 5576 N 543.941 0.601185 1.45683 0
M  V30 5577 C 544.889 -0.133955 2.32214 0
M  V30 5578 C 545.883 -0.866034 1.45589 0
M  V30 5579 O 547.089 -0.782326 1.6211 0
M  V30 5580 H 543.464 -0.0620613 0.749435 0
M  V30 5581 H 545.435 0.614389 2.92007 0
M  V30 5582 C 544.184 -1.12216 3.29094 0
M  V30 5583 H 543.507 -0.568273 3.95741 0
M  V30 5584 H 544.947 -1.60659 3.92383 0
M  V30 5585 C 543.406 -2.19251 2.55794 0
M  V30 5586 O 543.936 -3.26894 2.33459 0
M  V30 5587 N 542.142 -1.9436 2.16039 0
M  V30 5588 H 541.689 -1.06829 2.34404 0
M  V30 5589 H 541.647 -2.66181 1.67318 0
M  V30 5590 N 545.419 -1.53889 0.339982 0
M  V30 5591 C 546.696 -1.93084 -0.312719 0
M  V30 5592 C 547.076 -1.2712 -1.68534 0
M  V30 5593 O 546.424 -0.420835 -2.24591 0
M  V30 5594 C 546.634 -3.4683 -0.388558 0
M  V30 5595 C 547.982 -4.19732 -0.641088 0
M  V30 5596 O 549.006 -3.53075 -0.470818 0
M  V30 5597 O 547.865 -5.3781 -0.970685 0
M  V30 5598 H 544.959 -0.806784 -0.18174 0
M  V30 5599 H 547.505 -1.65137 0.390898 0
M  V30 5600 H 546.277 -3.87055 0.574821 0
M  V30 5601 H 545.9 -3.80933 -1.1391 0
M  V30 5602 N 546.897 -0.0685191 -1.57451 0
M  V30 5603 C 548.145 0.60016 -1.92983 0
M  V30 5604 C 548.466 1.70348 -0.949028 0
M  V30 5605 O 547.736 1.959 0.00335647 0
M  V30 5606 H 546.316 0.224682 -0.712409 0
M  V30 5607 H 548.978 -0.125605 -1.94495 0
M  V30 5608 H 548.074 1.02759 -2.94698 0
M  V30 5609 N 548.375 1.56261 0.205012 0
M  V30 5610 C 549.285 1.96944 1.27476 0
M  V30 5611 C 550.301 0.875636 1.50362 0
M  V30 5612 O 551.477 1.18058 1.6317 0
M  V30 5613 C 548.542 2.29219 2.60115 0
M  V30 5614 C 547.603 3.52255 2.45387 0
M  V30 5615 C 546.836 3.8298 3.71701 0
M  V30 5616 O 547.059 3.15138 4.75441 0
M  V30 5617 O 545.993 4.76435 3.67823 0
M  V30 5618 H 549.819 2.88144 0.959527 0
M  V30 5619 H 547.404 1.43686 0.409217 0
M  V30 5620 H 549.286 2.51098 3.3842 0
M  V30 5621 H 547.961 1.4119 2.91285 0
M  V30 5622 H 546.868 3.35635 1.65227 0
M  V30 5623 H 548.201 4.40719 2.19152 0
M  V30 5624 N 549.853 -0.472356 1.50355 0
M  V30 5625 C 551.101 -1.22211 1.60962 0
M  V30 5626 C 551.422 -1.92497 0.311439 0
M  V30 5627 O 550.692 -1.8405 -0.671002 0
M  V30 5628 H 549.272 -0.454092 0.593135 0
M  V30 5629 H 551.934 -0.544977 1.87126 0
M  V30 5630 H 551.03 -1.9707 2.42012 0
M  V30 5631 N 551.331 -1.39911 -0.725443 0
M  V30 5632 C 552.241 -1.41688 -1.8698 0
M  V30 5633 C 553.257 -0.310579 -1.71206 0
M  V30 5634 O 554.433 -0.55359 -1.93642 0
M  V30 5635 C 551.498 -1.26811 -3.22676 0
M  V30 5636 C 550.559 -2.47497 -3.50776 0
M  V30 5637 C 549.792 -2.3332 -4.79997 0
M  V30 5638 O 550.015 -1.34175 -5.54394 0
M  V30 5639 O 548.949 -3.22498 -5.08211 0
M  V30 5640 H 552.775 -2.38171 -1.88436 0
M  V30 5641 H 550.36 -1.21128 -0.874548 0
M  V30 5642 H 552.242 -1.20684 -4.03749 0
M  V30 5643 H 550.917 -0.334289 -3.21969 0
M  V30 5644 H 549.824 -2.59201 -2.69751 0
M  V30 5645 H 551.157 -3.39606 -3.5627 0
M  V30 5646 N 552.809 0.956637 -1.25245 0
M  V30 5647 C 553.756 2.053 -1.05454 0
M  V30 5648 C 554.726 1.66062 0.0356889 0
M  V30 5649 O 555.911 1.90415 -0.121099 0
M  V30 5650 C 553.051 3.38391 -0.677191 0
M  V30 5651 C 552.164 3.90758 -1.84206 0
M  V30 5652 C 551.299 5.12165 -1.40926 0
M  V30 5653 C 550.338 5.56757 -2.54338 0
M  V30 5654 N 549.475 6.69376 -2.11848 0
M  V30 5655 H 554.315 2.21562 -1.99284 0
M  V30 5656 H 551.852 1.08578 -0.992434 0
M  V30 5657 H 553.81 4.1488 -0.43938 0
M  V30 5658 H 552.44 3.22021 0.224127 0
M  V30 5659 H 551.492 3.10808 -2.19323 0
M  V30 5660 H 552.804 4.19802 -2.69383 0
M  V30 5661 H 551.958 5.96065 -1.13098 0
M  V30 5662 H 550.697 4.84832 -0.528175 0
M  V30 5663 H 549.702 4.71423 -2.82913 0
M  V30 5664 H 550.927 5.861 -3.43022 0
M  V30 5665 H 548.873 6.43756 -1.26153 0
M  V30 5666 H 548.79 6.97927 -2.90574 0
M  V30 5667 H 550.058 7.5669 -1.87191 0
M  V30 5668 N 554.287 1.06798 1.15896 0
M  V30 5669 C 555.234 0.683314 2.20453 0
M  V30 5670 C 556.204 -0.32255 1.62938 0
M  V30 5671 O 557.389 -0.210276 1.89638 0
M  V30 5672 C 554.529 0.0813266 3.45004 0
M  V30 5673 C 553.642 1.13799 4.16742 0
M  V30 5674 C 552.777 0.501598 5.28826 0
M  V30 5675 C 551.816 1.54144 5.92373 0
M  V30 5676 N 550.953 0.928038 6.9594 0
M  V30 5677 H 555.793 1.57932 2.52708 0
M  V30 5678 H 553.33 0.789544 1.24115 0
M  V30 5679 H 555.288 -0.285274 4.16224 0
M  V30 5680 H 553.918 -0.77806 3.13283 0
M  V30 5681 H 552.97 1.62223 3.44075 0
M  V30 5682 H 554.282 1.92664 4.60089 0
M  V30 5683 H 553.436 0.0823162 6.06644 0
M  V30 5684 H 552.175 -0.318883 4.86656 0
M  V30 5685 H 551.18 1.97056 5.13273 0
M  V30 5686 H 552.405 2.3641 6.36621 0
M  V30 5687 H 550.351 0.12836 6.55874 0
M  V30 5688 H 550.268 1.65401 7.37685 0
M  V30 5689 H 551.536 0.534071 7.77668 0
M  V30 5690 N 555.766 -1.3263 0.851289 0
M  V30 5691 C 556.713 -2.28952 0.291469 0
M  V30 5692 C 557.683 -1.54897 -0.599676 0
M  V30 5693 O 558.868 -1.83137 -0.535305 0
M  V30 5694 C 556.008 -3.41206 -0.516992 0
M  V30 5695 C 555.121 -4.30148 0.399566 0
M  V30 5696 C 554.256 -5.29527 -0.4212 0
M  V30 5697 C 553.295 -6.10112 0.492969 0
M  V30 5698 N 552.432 -7.01499 -0.290414 0
M  V30 5699 H 557.272 -2.76228 1.11813 0
M  V30 5700 H 554.809 -1.35907 0.562826 0
M  V30 5701 H 556.767 -4.05005 -1.00132 0
M  V30 5702 H 555.397 -2.9509 -1.30851 0
M  V30 5703 H 554.449 -3.66959 1.00227 0
M  V30 5704 H 555.761 -4.8649 1.1013 0
M  V30 5705 H 554.915 -5.98914 -0.968832 0
M  V30 5706 H 553.654 -4.73794 -1.15632 0
M  V30 5707 H 552.659 -5.39632 1.05251 0
M  V30 5708 H 553.884 -6.6793 1.22664 0
M  V30 5709 H 551.83 -6.48199 -1.00868 0
M  V30 5710 H 551.747 -7.55178 0.352354 0
M  V30 5711 H 553.015 -7.75176 -0.819882 0
M  V30 5712 N 557.244 -0.608902 -1.45362 0
M  V30 5713 C 558.191 0.109172 -2.30542 0
M  V30 5714 C 559.161 0.858704 -1.42181 0
M  V30 5715 O 560.346 0.844178 -1.71109 0
M  V30 5716 C 557.486 1.09971 -3.27109 0
M  V30 5717 C 556.599 0.350911 -4.30572 0
M  V30 5718 C 555.734 1.33129 -5.14247 0
M  V30 5719 C 554.773 0.570377 -6.09437 0
M  V30 5720 N 553.91 1.5001 -6.85887 0
M  V30 5721 H 558.75 -0.623195 -2.91411 0
M  V30 5722 H 556.287 -0.319122 -1.43597 0
M  V30 5723 H 558.245 1.68714 -3.81564 0
M  V30 5724 H 556.875 1.79947 -2.67991 0
M  V30 5725 H 555.927 -0.352054 -3.78767 0
M  V30 5726 H 557.239 -0.242725 -4.98209 0
M  V30 5727 H 556.393 1.99074 -5.73109 0
M  V30 5728 H 555.132 1.95885 -4.46632 0
M  V30 5729 H 554.137 -0.102702 -5.49704 0
M  V30 5730 H 555.362 -0.0521607 -6.7908 0
M  V30 5731 H 553.308 2.11529 -6.2096 0
M  V30 5732 H 553.225 0.959934 -7.49881 0
M  V30 5733 H 554.493 2.14909 -7.49289 0
M  V30 5734 N 558.722 1.53707 -0.348139 0
M  V30 5735 C 559.947 2.05877 0.250883 0
M  V30 5736 C 560.372 1.22115 1.43072 0
M  V30 5737 O 559.73 0.235986 1.79758 0
M  V30 5738 C 559.778 3.54886 0.639416 0
M  V30 5739 O 558.882 3.73948 1.73888 0
M  V30 5740 H 558.223 0.662754 0.040653 0
M  V30 5741 H 560.753 1.98303 -0.503685 0
M  V30 5742 H 560.763 3.97601 0.915295 0
M  V30 5743 H 559.438 4.153 -0.223386 0
M  V30 5744 H 558.015 3.43134 1.45991 0
M  V30 5745 N 560.2 0.0768682 1.57412 0
M  V30 5746 C 561.147 -0.888577 2.13009 0
M  V30 5747 C 562.117 -1.29198 1.0439 0
M  V30 5748 O 563.302 -1.37694 1.3208 0
M  V30 5749 C 560.442 -2.14899 2.70023 0
M  V30 5750 C 559.555 -1.79777 3.92816 0
M  V30 5751 C 558.69 -3.00467 4.38056 0
M  V30 5752 C 557.729 -2.61385 5.53484 0
M  V30 5753 N 556.866 -3.74851 5.93659 0
M  V30 5754 H 561.706 -0.407593 2.95199 0
M  V30 5755 H 559.243 -0.189534 1.45874 0
M  V30 5756 H 561.201 -2.88688 3.0119 0
M  V30 5757 H 559.831 -2.60529 1.9059 0
M  V30 5758 H 558.883 -0.960301 3.68079 0
M  V30 5759 H 560.195 -1.47027 4.76639 0
M  V30 5760 H 559.349 -3.82529 4.7091 0
M  V30 5761 H 558.088 -3.36413 3.53097 0
M  V30 5762 H 557.093 -1.77746 5.20275 0
M  V30 5763 H 558.318 -2.26603 6.40178 0
M  V30 5764 H 556.264 -4.1055 5.11649 0
M  V30 5765 H 556.181 -3.45887 6.72234 0
M  V30 5766 H 557.449 -4.57477 6.31138 0
M  V30 5767 N 561.678 -1.56367 -0.196722 0
M  V30 5768 C 562.625 -1.94417 -1.24382 0
M  V30 5769 C 563.595 -0.804543 -1.45315 0
M  V30 5770 O 564.78 -1.06256 -1.58475 0
M  V30 5771 C 561.92 -2.28757 -2.58388 0
M  V30 5772 C 561.033 -3.55775 -2.45047 0
M  V30 5773 C 560.168 -3.79445 -3.71746 0
M  V30 5774 C 559.207 -4.99894 -3.53231 0
M  V30 5775 N 558.344 -5.19826 -4.71938 0
M  V30 5776 H 563.184 -2.83691 -0.912338 0
M  V30 5777 H 560.721 -1.40392 -0.439135 0
M  V30 5778 H 562.679 -2.46682 -3.36457 0
M  V30 5779 H 561.309 -1.42625 -2.89582 0
M  V30 5780 H 560.361 -3.45905 -1.58284 0
M  V30 5781 H 561.673 -4.44 -2.27299 0
M  V30 5782 H 560.827 -3.97601 -4.58256 0
M  V30 5783 H 559.566 -2.89546 -3.92446 0
M  V30 5784 H 558.571 -4.81662 -2.65107 0
M  V30 5785 H 559.796 -5.913 -3.33978 0
M  V30 5786 H 557.742 -4.32875 -4.92905 0
M  V30 5787 H 557.659 -6.02228 -4.57009 0
M  V30 5788 H 558.927 -5.42439 -5.59803 0
M  V30 5789 N 563.156 0.464375 -1.50603 0
M  V30 5790 C 564.106 1.55929 -1.66343 0
M  V30 5791 C 565.09 1.52338 -0.517887 0
M  V30 5792 O 566.282 1.59248 -0.772601 0
M  V30 5793 C 563.411 2.94327 -1.7671 0
M  V30 5794 C 562.497 3.02777 -2.96962 0
M  V30 5795 N 562.888 2.81026 -4.20545 0
M  V30 5796 C 561.186 3.33919 -2.95659 0
M  V30 5797 C 561.887 2.94618 -5.01573 0
M  V30 5798 N 560.863 3.25112 -4.35664 0
M  V30 5799 H 564.665 1.37822 -2.59581 0
M  V30 5800 H 562.179 0.671227 -1.47879 0
M  V30 5801 H 564.176 3.73063 -1.86091 0
M  V30 5802 H 562.836 3.13476 -0.846353 0
M  V30 5803 H 563.847 2.56477 -4.49933 0
M  V30 5804 H 560.524 3.59013 -2.13111 0
M  V30 5805 H 561.914 2.81984 -6.09865 0
M  V30 5806 N 564.634 1.40294 0.718013 0
M  V30 5807 C 565.581 1.40367 1.8321 0
M  V30 5808 C 566.551 0.260952 1.64037 0
M  V30 5809 O 567.736 0.458648 1.85205 0
M  V30 5810 C 564.876 1.26965 3.20895 0
M  V30 5811 C 563.989 2.50922 3.51656 0
M  V30 5812 C 563.124 2.29981 4.78834 0
M  V30 5813 C 562.163 3.49527 5.02491 0
M  V30 5814 N 561.3 3.27796 6.20882 0
M  V30 5815 H 566.14 2.35593 1.82482 0
M  V30 5816 H 563.677 1.17012 0.891444 0
M  V30 5817 H 565.635 1.17202 4.00399 0
M  V30 5818 H 564.265 0.353591 3.20858 0
M  V30 5819 H 563.317 2.71223 2.66725 0
M  V30 5820 H 564.629 3.39913 3.65048 0
M  V30 5821 H 563.783 2.17558 5.66351 0
M  V30 5822 H 562.522 1.38411 4.67647 0
M  V30 5823 H 561.527 3.6243 4.1343 0
M  V30 5824 H 562.752 4.42021 5.15553 0
M  V30 5825 H 560.698 2.38906 6.1095 0
M  V30 5826 H 560.615 4.10351 6.34939 0
M  V30 5827 H 561.883 3.19101 7.11193 0
M  V30 5828 N 566.112 -0.949982 1.2575 0
M  V30 5829 C 567.389 -1.6718 1.01539 0
M  V30 5830 C 567.769 -2.06095 -0.456942 0
M  V30 5831 O 567.117 -1.77792 -1.43534 0
M  V30 5832 C 567.327 -2.8906 1.95564 0
M  V30 5833 C 568.675 -3.60909 2.23673 0
M  V30 5834 O 569.699 -2.9915 1.9336 0
M  V30 5835 O 568.558 -4.72127 2.75243 0
M  V30 5836 H 565.652 -0.731697 0.385419 0
M  V30 5837 H 568.198 -1.00249 1.36924 0
M  V30 5838 H 566.97 -2.57128 2.94959 0
M  V30 5839 H 566.593 -3.63719 1.60605 0
M  V30 5840 N 567.59 -1.07411 -1.15328 0
M  V30 5841 C 568.54 -0.664788 -2.18093 0
M  V30 5842 C 569.524 0.310395 -1.57878 0
M  V30 5843 O 570.716 0.124026 -1.76565 0
M  V30 5844 C 567.845 -0.0647822 -3.43239 0
M  V30 5845 C 566.931 -1.06514 -4.10506 0
M  V30 5846 N 567.322 -2.24491 -4.53252 0
M  V30 5847 C 565.62 -0.898613 -4.36853 0
M  V30 5848 C 566.321 -2.8796 -5.05424 0
M  V30 5849 N 565.297 -2.15622 -4.99007 0
M  V30 5850 H 569.099 -1.56333 -2.48872 0
M  V30 5851 H 566.613 -0.947393 -1.31902 0
M  V30 5852 H 568.61 0.246363 -4.16171 0
M  V30 5853 H 567.27 0.828866 -3.13943 0
M  V30 5854 H 568.281 -2.62205 -4.46619 0
M  V30 5855 H 564.958 -0.0579118 -4.1746 0
M  V30 5856 H 566.348 -3.88137 -5.48452 0
M  V30 5857 N 569.068 1.32177 -0.85831 0
M  V30 5858 C 570.345 1.91781 -0.384624 0
M  V30 5859 C 570.725 1.78171 1.13217 0
M  V30 5860 O 570.073 1.18209 1.95548 0
M  V30 5861 C 570.283 3.38414 -0.853047 0
M  V30 5862 C 571.631 4.15542 -0.872359 0
M  V30 5863 O 572.655 3.47148 -0.797926 0
M  V30 5864 O 571.514 5.37678 -0.978009 0
M  V30 5865 H 568.608 0.819259 -0.112886 0
M  V30 5866 H 571.154 1.40923 -0.945453 0
M  V30 5867 H 569.926 3.4228 -1.89632 0
M  V30 5868 H 569.549 3.96683 -0.269874 0
M  V30 5869 N 570.547 0.616602 1.45037 0
M  V30 5870 C 571.795 0.115103 2.01772 0
M  V30 5871 C 572.116 -1.2622 1.48639 0
M  V30 5872 O 571.386 -1.83563 0.684199 0
M  V30 5873 H 569.966 0.0395607 0.745952 0
M  V30 5874 H 572.628 0.800032 1.77723 0
M  V30 5875 H 571.724 0.0717274 3.12018 0
M  V30 5876 N 572.025 -1.5352 0.356285 0
M  V30 5877 C 572.935 -2.29151 -0.502712 0
M  V30 5878 C 573.951 -1.34753 -1.1008 0
M  V30 5879 O 575.127 -1.67803 -1.11374 0
M  V30 5880 C 572.192 -3.05911 -1.63154 0
M  V30 5881 C 571.253 -4.15958 -1.06194 0
M  V30 5882 C 570.486 -4.8905 -2.13696 0
M  V30 5883 O 570.709 -4.61919 -3.34645 0
M  V30 5884 O 569.643 -5.75202 -1.77275 0
M  V30 5885 H 573.469 -3.03492 0.112466 0
M  V30 5886 H 571.054 -1.4891 0.120942 0
M  V30 5887 H 572.936 -3.53874 -2.28804 0
M  V30 5888 H 571.611 -2.34415 -2.23229 0
M  V30 5889 H 570.518 -3.7227 -0.369603 0
M  V30 5890 H 571.851 -4.89593 -0.505872 0
M  V30 5891 N 573.503 -0.0852151 -1.57369 0
M  V30 5892 C 574.45 0.877268 -2.13478 0
M  V30 5893 C 575.42 1.28642 -1.05073 0
M  V30 5894 O 576.605 1.36992 -1.32808 0
M  V30 5895 C 573.745 2.13464 -2.71159 0
M  V30 5896 C 572.858 1.77691 -3.93764 0
M  V30 5897 C 571.993 2.98139 -4.39643 0
M  V30 5898 C 571.032 2.58447 -5.54862 0
M  V30 5899 N 570.169 3.71698 -5.95639 0
M  V30 5900 H 575.009 0.391933 -2.95411 0
M  V30 5901 H 572.546 0.181796 -1.45972 0
M  V30 5902 H 574.504 2.87086 -3.02717 0
M  V30 5903 H 573.134 2.59514 -1.91969 0
M  V30 5904 H 572.186 0.940768 -3.68583 0
M  V30 5905 H 573.498 1.44497 -4.77412 0
M  V30 5906 H 572.652 3.80026 -4.72933 0
M  V30 5907 H 571.391 3.34536 -3.54876 0
M  V30 5908 H 570.396 1.74984 -5.21211 0
M  V30 5909 H 571.621 2.23205 -6.41371 0
M  V30 5910 H 569.567 4.07831 -5.13819 0
M  V30 5911 H 569.484 3.42317 -6.74059 0
M  V30 5912 H 570.752 4.54123 -6.33555 0
M  V30 5913 N 574.981 1.5647 0.188427 0
M  V30 5914 C 575.928 1.95073 1.23349 0
M  V30 5915 C 576.898 0.812238 1.44886 0
M  V30 5916 O 578.083 1.07095 1.57909 0
M  V30 5917 C 575.223 2.30124 2.57171 0
M  V30 5918 C 574.336 3.57069 2.43157 0
M  V30 5919 C 573.471 3.81411 3.69729 0
M  V30 5920 C 572.51 5.0176 3.50575 0
M  V30 5921 N 571.647 5.22321 4.69175 0
M  V30 5922 H 576.487 2.84171 0.89728 0
M  V30 5923 H 574.024 1.40623 0.431683 0
M  V30 5924 H 575.982 2.48463 3.35145 0
M  V30 5925 H 574.612 1.44159 2.88822 0
M  V30 5926 H 573.664 3.4674 1.56447 0
M  V30 5927 H 574.976 4.452 2.24942 0
M  V30 5928 H 574.13 4.00026 4.56141 0
M  V30 5929 H 572.869 2.91624 3.90905 0
M  V30 5930 H 571.874 4.83061 2.62549 0
M  V30 5931 H 573.099 5.93063 3.30837 0
M  V30 5932 H 571.045 4.35483 4.90602 0
M  V30 5933 H 570.962 6.04643 4.53809 0
M  V30 5934 H 572.23 5.45401 5.56919 0
M  V30 5935 N 576.459 -0.456382 1.50847 0
M  V30 5936 C 577.406 -1.55249 1.70782 0
M  V30 5937 C 578.376 -1.56757 0.549231 0
M  V30 5938 O 579.561 -1.74061 0.7815 0
M  V30 5939 C 576.701 -2.93118 1.82143 0
M  V30 5940 C 575.814 -3.01285 3.09598 0
M  V30 5941 C 574.949 -4.30159 3.11667 0
M  V30 5942 C 573.988 -4.32124 4.33515 0
M  V30 5943 N 573.125 -5.52492 4.3324 0
M  V30 5944 H 577.965 -1.37555 2.64353 0
M  V30 5945 H 575.502 -0.668543 1.3103 0
M  V30 5946 H 577.46 -3.73088 1.86711 0
M  V30 5947 H 576.09 -3.09413 0.919978 0
M  V30 5948 H 575.142 -2.14096 3.14431 0
M  V30 5949 H 576.454 -2.98597 3.99551 0
M  V30 5950 H 575.608 -5.18489 3.15046 0
M  V30 5951 H 574.347 -4.35477 2.1957 0
M  V30 5952 H 573.352 -3.42189 4.30333 0
M  V30 5953 H 574.577 -4.28485 5.26856 0
M  V30 5954 H 572.523 -5.58567 3.44004 0
M  V30 5955 H 572.44 -5.51605 5.16979 0
M  V30 5956 H 573.708 -6.42906 4.40786 0
M  V30 5957 N 577.937 -1.40673 -0.710563 0
M  V30 5958 C 579.162 -1.42741 -1.50465 0
M  V30 5959 C 579.587 -0.0302116 -1.88076 0
M  V30 5960 O 578.945 0.962945 -1.53613 0
M  V30 5961 C 578.993 -2.32873 -2.75322 0
M  V30 5962 O 578.097 -1.77544 -3.72226 0
M  V30 5963 H 577.438 -0.485056 -0.45345 0
M  V30 5964 H 579.968 -1.84961 -0.874681 0
M  V30 5965 H 579.978 -2.48233 -3.23797 0
M  V30 5966 H 578.653 -3.34401 -2.47283 0
M  V30 5967 H 577.23 -1.71556 -3.31093 0
M  V30 5968 N 579.415 0.9433 -1.26252 0
M  V30 5969 C 580.362 2.0417 -1.07625 0
M  V30 5970 C 581.332 1.6609 0.0180738 0
M  V30 5971 O 582.517 1.90276 -0.141289 0
M  V30 5972 C 579.657 3.37653 -0.713043 0
M  V30 5973 C 578.77 3.88783 -1.8834 0
M  V30 5974 C 577.905 5.10642 -1.4635 0
M  V30 5975 C 576.944 5.54028 -2.60229 0
M  V30 5976 N 576.081 6.67092 -2.18936 0
M  V30 5977 H 580.921 2.19436 -2.01623 0
M  V30 5978 H 578.458 1.07519 -1.00389 0
M  V30 5979 H 580.416 4.14391 -0.483358 0
M  V30 5980 H 579.046 3.22241 0.18996 0
M  V30 5981 H 578.098 3.08464 -2.22608 0
M  V30 5982 H 579.41 4.16922 -2.73821 0
M  V30 5983 H 578.564 5.94832 -1.19414 0
M  V30 5984 H 577.303 4.84244 -0.579568 0
M  V30 5985 H 576.308 4.68396 -2.87898 0
M  V30 5986 H 577.533 5.82429 -3.49219 0
M  V30 5987 H 575.479 6.42381 -1.32974 0
M  V30 5988 H 575.396 6.94806 -2.97961 0
M  V30 5989 H 576.664 7.54662 -1.95206 0
M  V30 5990 N 580.893 1.08022 1.14757 0
M  V30 5991 C 581.84 0.706657 2.19716 0
M  V30 5992 C 582.81 -0.30525 1.63271 0
M  V30 5993 O 583.995 -0.19015 1.8985 0
M  V30 5994 C 581.135 0.117914 3.44898 0
M  V30 5995 C 580.248 1.18212 4.15512 0
M  V30 5996 C 579.383 0.557659 5.28265 0
M  V30 5997 C 578.422 1.60418 5.90705 0
M  V30 5998 N 577.559 1.0018 6.94916 0
M  V30 5999 H 582.399 1.60603 2.51019 0
M  V30 6000 H 579.936 0.802664 1.23271 0
M  V30 6001 H 581.894 -0.241112 4.16503 0
M  V30 6002 H 580.524 -0.744788 3.1409 0
M  V30 6003 H 579.576 1.65863 3.42335 0
M  V30 6004 H 580.888 1.97533 4.5802 0
M  V30 6005 H 580.042 0.146654 6.06523 0
M  V30 6006 H 578.781 -0.267249 4.86967 0
M  V30 6007 H 577.786 2.02489 5.11154 0
M  V30 6008 H 579.011 2.43149 6.34078 0
M  V30 6009 H 576.957 0.197917 6.55701 0
M  V30 6010 H 576.874 1.73216 7.35889 0
M  V30 6011 H 578.142 0.616523 7.77058 0
M  V30 6012 N 582.371 -1.3172 0.865308 0
M  V30 6013 C 583.321 -2.26157 0.289305 0
M  V30 6014 C 584.305 -1.50428 -0.570977 0
M  V30 6015 O 585.497 -1.71978 -0.418617 0
M  V30 6016 C 582.626 -3.39457 -0.512237 0
M  V30 6017 C 581.712 -4.22561 0.361028 0
M  V30 6018 N 582.103 -4.84501 1.45231 0
M  V30 6019 C 580.401 -4.45739 0.152641 0
M  V30 6020 C 581.102 -5.46586 1.99043 0
M  V30 6021 N 580.078 -5.28119 1.28809 0
M  V30 6022 H 583.88 -2.71581 1.12344 0
M  V30 6023 H 581.394 -1.45932 0.712565 0
M  V30 6024 H 583.391 -4.06133 -0.941379 0
M  V30 6025 H 582.051 -2.95577 -1.34404 0
M  V30 6026 H 583.062 -4.84293 1.83524 0
M  V30 6027 H 579.739 -4.1251 -0.643583 0
M  V30 6028 H 581.129 -6.05817 2.90577 0
M  V30 6029 N 583.85 -0.624285 -1.44708 0
M  V30 6030 C 584.797 0.0847135 -2.30644 0
M  V30 6031 C 585.767 0.843575 -1.43084 0
M  V30 6032 O 586.952 0.825982 -1.71995 0
M  V30 6033 C 584.091 1.06495 -3.28257 0
M  V30 6034 C 583.205 0.305224 -4.3092 0
M  V30 6035 C 582.34 1.27667 -5.1563 0
M  V30 6036 C 581.379 0.505706 -6.10007 0
M  V30 6037 N 580.516 1.42727 -6.8744 0
M  V30 6038 H 585.356 -0.654068 -2.90733 0
M  V30 6039 H 582.893 -0.334334 -1.4325 0
M  V30 6040 H 584.851 1.64658 -3.83332 0
M  V30 6041 H 583.481 1.77094 -2.69884 0
M  V30 6042 H 582.533 -0.392207 -3.78373 0
M  V30 6043 H 583.845 -0.295553 -4.97924 0
M  V30 6044 H 582.999 1.92984 -5.75189 0
M  V30 6045 H 581.738 1.91137 -4.48685 0
M  V30 6046 H 580.743 -0.160999 -5.49564 0
M  V30 6047 H 581.968 -0.124183 -6.78986 0
M  V30 6048 H 579.913 2.04931 -6.23169 0
M  V30 6049 H 579.831 0.880345 -7.50857 0
M  V30 6050 H 581.099 2.0695 -7.51526 0
M  V30 6051 N 585.328 1.53329 -0.364422 0
M  V30 6052 C 586.605 1.93557 0.281962 0
M  V30 6053 C 586.985 1.29786 1.6649 0
M  V30 6054 O 586.333 0.456512 2.23893 0
M  V30 6055 C 586.543 3.47405 0.333331 0
M  V30 6056 C 587.891 4.20699 0.574231 0
M  V30 6057 O 588.915 3.53779 0.414588 0
M  V30 6058 O 587.774 5.39287 0.885002 0
M  V30 6059 H 584.868 0.809573 0.168881 0
M  V30 6060 H 587.414 1.64494 -0.417121 0
M  V30 6061 H 586.186 3.86091 -0.636326 0
M  V30 6062 H 585.809 3.82697 1.07836 0
M  V30 6063 N 586.806 0.0935595 1.57322 0
M  V30 6064 C 587.754 -0.883457 2.15169 0
M  V30 6065 C 588.748 -1.29324 1.09415 0
M  V30 6066 O 589.954 -1.26795 1.27762 0
M  V30 6067 H 586.329 -0.302923 0.688289 0
M  V30 6068 H 588.3 -0.370845 2.96087 0
M  V30 6069 C 587.049 -2.13345 2.74552 0
M  V30 6070 H 586.372 -1.82702 3.55612 0
M  V30 6071 H 587.812 -2.7977 3.18598 0
M  V30 6072 C 586.271 -2.90646 1.70371 0
M  V30 6073 O 586.801 -3.85133 1.14173 0
M  V30 6074 N 585.007 -2.54157 1.40899 0
M  V30 6075 H 584.554 -1.77391 1.86789 0
M  V30 6076 H 584.512 -3.06178 0.714301 0
M  V30 6077 N 588.284 -1.56567 -0.180126 0
M  V30 6078 C 589.194 -1.98947 -1.24327 0
M  V30 6079 C 590.21 -0.899446 -1.4895 0
M  V30 6080 O 591.386 -1.20639 -1.61271 0
M  V30 6081 C 588.451 -2.33328 -2.56435 0
M  V30 6082 C 587.512 -3.56114 -2.39752 0
M  V30 6083 C 586.745 -3.88845 -3.65561 0
M  V30 6084 O 586.968 -3.22662 -4.70368 0
M  V30 6085 O 585.902 -4.82226 -3.60197 0
M  V30 6086 H 589.728 -2.89634 -0.913565 0
M  V30 6087 H 587.313 -1.44319 -0.386306 0
M  V30 6088 H 589.195 -2.5645 -3.34382 0
M  V30 6089 H 587.87 -1.45806 -2.89002 0
M  V30 6090 H 586.777 -3.38221 -1.59866 0
M  V30 6091 H 588.11 -4.4415 -2.12113 0
M  V30 6092 N 589.762 0.448376 -1.51087 0
M  V30 6093 C 591.039 1.20926 -1.53741 0
M  V30 6094 C 591.419 2.09025 -0.295222 0
M  V30 6095 O 590.767 2.16851 0.720283 0
M  V30 6096 C 590.977 2.02067 -2.84552 0
M  V30 6097 C 592.325 2.59486 -3.36084 0
M  V30 6098 O 593.349 2.12289 -2.86028 0
M  V30 6099 O 592.208 3.45539 -4.23397 0
M  V30 6100 H 589.302 0.549951 -0.617643 0
M  V30 6101 H 591.848 0.458344 -1.63393 0
M  V30 6102 H 590.62 1.37291 -3.66425 0
M  V30 6103 H 590.243 2.84246 -2.78011 0
M  V30 6104 N 591.24 1.41047 0.703093 0
M  V30 6105 C 592.203 1.42036 1.79884 0
M  V30 6106 C 593.203 0.312153 1.57741 0
M  V30 6107 O 594.393 0.571672 1.64553 0
M  V30 6108 C 591.525 1.22437 3.18154 0
M  V30 6109 H 592.718 2.39572 1.80403 0
M  V30 6110 H 590.271 1.27079 0.909977 0
M  V30 6111 H 591.006 0.257112 3.23279 0
M  V30 6112 H 590.791 2.02723 3.35627 0
M  V30 6113 H 592.281 1.25946 3.98155 0
M  V30 6114 N 592.718 -0.936591 1.26751 0
M  V30 6115 C 593.628 -2.06949 1.10496 0
M  V30 6116 C 594.644 -1.7396 0.037271 0
M  V30 6117 O 595.82 -1.99941 0.241944 0
M  V30 6118 C 592.885 -3.38612 0.744491 0
M  V30 6119 C 591.946 -3.85355 1.89209 0
M  V30 6120 C 591.179 -5.10735 1.54873 0
M  V30 6121 O 591.402 -5.68602 0.452546 0
M  V30 6122 O 590.336 -5.52632 2.38499 0
M  V30 6123 H 594.162 -2.23571 2.05547 0
M  V30 6124 H 591.747 -1.05428 1.05855 0
M  V30 6125 H 593.629 -4.17711 0.556396 0
M  V30 6126 H 592.304 -3.23218 -0.176582 0
M  V30 6127 H 591.211 -3.07182 2.13518 0
M  V30 6128 H 592.544 -4.05277 2.79305 0
M  V30 6129 N 594.196 -1.08629 -1.14182 0
M  V30 6130 C 595.421 -0.83902 -1.89671 0
M  V30 6131 C 595.846 0.603332 -1.78161 0
M  V30 6132 O 595.204 1.42301 -1.12339 0
M  V30 6133 C 595.252 -1.26854 -3.37551 0
M  V30 6134 O 594.356 -0.42188 -4.10236 0
M  V30 6135 H 593.697 -0.304545 -0.590041 0
M  V30 6136 H 596.227 -1.4483 -1.44518 0
M  V30 6137 H 596.237 -1.25038 -3.88368 0
M  V30 6138 H 594.912 -2.31901 -3.45246 0
M  V30 6139 H 593.489 -0.503654 -3.69483 0
M  V30 6140 N 595.674 1.31259 -0.872281 0
M  V30 6141 C 596.92 1.96913 -0.485083 0
M  V30 6142 C 597.253 1.68774 0.960667 0
M  V30 6143 O 596.528 0.985495 1.67685 0
M  V30 6144 C 596.811 3.52299 -0.745502 0
M  V30 6145 C 596.664 3.90002 -2.24095 0
M  V30 6146 C 597.983 4.39582 -0.213516 0
M  V30 6147 H 595.102 0.715252 -0.177716 0
M  V30 6148 H 597.744 1.55347 -1.09395 0
M  V30 6149 H 595.894 3.87835 -0.227276 0
M  V30 6150 H 597.566 3.64555 -2.82661 0
M  V30 6151 H 595.809 3.38526 -2.71261 0
M  V30 6152 H 596.48 4.98352 -2.37381 0
M  V30 6153 H 598.956 4.10882 -0.656902 0
M  V30 6154 H 597.832 5.47251 -0.42516 0
M  V30 6155 H 598.093 4.33158 0.884666 0
M  V30 6156 N 597.152 0.631951 1.44375 0
M  V30 6157 C 598.099 -0.0724807 2.30686 0
M  V30 6158 C 599.069 -0.835975 1.43529 0
M  V30 6159 O 600.254 -0.816849 1.7243 0
M  V30 6160 C 597.394 -1.04753 3.28817 0
M  V30 6161 C 596.507 -0.282367 4.31076 0
M  V30 6162 C 595.642 -1.2493 5.163 0
M  V30 6163 C 594.681 -0.473349 6.10267 0
M  V30 6164 N 593.818 -1.39079 6.88187 0
M  V30 6165 H 598.658 0.669477 2.90383 0
M  V30 6166 H 596.195 0.341927 1.43071 0
M  V30 6167 H 598.153 -1.62623 3.842 0
M  V30 6168 H 596.783 -1.75661 2.70819 0
M  V30 6169 H 595.835 0.412268 3.78159 0
M  V30 6170 H 597.147 0.321955 4.9776 0
M  V30 6171 H 596.301 -1.89931 5.76204 0
M  V30 6172 H 595.04 -1.88755 4.49692 0
M  V30 6173 H 594.045 0.190142 5.49471 0
M  V30 6174 H 595.27 0.16019 6.78911 0
M  V30 6175 H 593.216 -2.01623 6.24247 0
M  V30 6176 H 593.133 -0.840513 7.51313 0
M  V30 6177 H 594.401 -2.02961 7.52613 0
M  V30 6178 N 598.631 -1.53133 0.372548 0
M  V30 6179 C 599.856 -2.0625 -0.218098 0
M  V30 6180 C 600.281 -1.24375 -1.41111 0
M  V30 6181 O 599.639 -0.264554 -1.79359 0
M  V30 6182 C 599.687 -3.55858 -0.582876 0
M  V30 6183 O 598.791 -3.76667 -1.67917 0
M  V30 6184 H 598.132 -0.663317 -0.030104 0
M  V30 6185 H 600.662 -1.97477 0.535169 0
M  V30 6186 H 600.672 -3.99007 -0.851925 0
M  V30 6187 H 599.347 -4.14892 0.289428 0
M  V30 6188 H 597.924 -3.45413 -1.40513 0
M  V30 6189 N 600.109 -0.101901 -1.5727 0
M  V30 6190 C 601.056 0.854577 -2.14396 0
M  V30 6191 C 602.026 1.27521 -1.06432 0
M  V30 6192 O 603.211 1.35575 -1.34253 0
M  V30 6193 C 600.351 2.10576 -2.73408 0
M  V30 6194 C 599.464 1.73504 -3.95626 0
M  V30 6195 C 598.599 2.9346 -4.42781 0
M  V30 6196 C 597.638 2.52547 -5.57572 0
M  V30 6197 N 596.775 3.65359 -5.99547 0
M  V30 6198 H 601.615 0.360578 -2.9581 0
M  V30 6199 H 599.152 0.166303 -1.46157 0
M  V30 6200 H 601.11 2.83859 -3.05745 0
M  V30 6201 H 599.74 2.57463 -1.94711 0
M  V30 6202 H 598.792 0.901622 -3.6956 0
M  V30 6203 H 600.104 1.39426 -4.78917 0
M  V30 6204 H 599.258 3.74988 -4.76937 0
M  V30 6205 H 597.997 3.30753 -3.58404 0
M  V30 6206 H 597.002 1.69446 -5.23037 0
M  V30 6207 H 598.227 2.1639 -6.43702 0
M  V30 6208 H 596.173 4.02358 -5.18116 0
M  V30 6209 H 596.09 3.35148 -6.77652 0
M  V30 6210 H 597.358 4.47378 -6.38336 0
M  V30 6211 N 601.587 1.56661 0.17182 0
M  V30 6212 C 602.534 1.96371 1.21273 0
M  V30 6213 C 603.504 0.82756 1.44016 0
M  V30 6214 O 604.689 1.08764 1.56764 0
M  V30 6215 C 601.829 2.32838 2.54716 0
M  V30 6216 C 600.942 3.59628 2.39356 0
M  V30 6217 C 600.077 3.85311 3.65662 0
M  V30 6218 C 599.116 5.0545 3.45234 0
M  V30 6219 N 598.253 5.27268 4.63608 0
M  V30 6220 H 603.093 2.85106 0.86709 0
M  V30 6221 H 600.63 1.41073 0.416744 0
M  V30 6222 H 602.588 2.52004 3.3249 0
M  V30 6223 H 601.218 1.47214 2.87277 0
M  V30 6224 H 600.27 3.4838 1.52761 0
M  V30 6225 H 601.582 4.4756 2.20207 0
M  V30 6226 H 600.736 4.04841 4.51872 0
M  V30 6227 H 599.475 2.95753 3.8779 0
M  V30 6228 H 598.48 4.85819 2.5741 0
M  V30 6229 H 599.705 5.96538 3.24529 0
M  V30 6230 H 597.651 4.40662 4.85956 0
M  V30 6231 H 597.568 6.09422 4.4737 0
M  V30 6232 H 598.836 5.51277 5.51103 0
M  V30 6233 N 603.065 -0.440357 1.51323 0
M  V30 6234 C 604.015 -1.53263 1.68803 0
M  V30 6235 C 604.999 -1.51494 0.542057 0
M  V30 6236 O 606.191 -1.57999 0.797839 0
M  V30 6237 C 603.32 -2.91479 1.8137 0
M  V30 6238 C 602.406 -2.98015 3.01742 0
M  V30 6239 N 602.797 -2.743 4.24962 0
M  V30 6240 C 601.095 -3.29173 3.00934 0
M  V30 6241 C 601.796 -2.86601 5.06197 0
M  V30 6242 N 600.772 -3.1814 4.40781 0
M  V30 6243 H 604.574 -1.33675 2.61741 0
M  V30 6244 H 602.088 -0.647616 1.48929 0
M  V30 6245 H 604.085 -3.70055 1.92002 0
M  V30 6246 H 602.745 -3.12089 0.896117 0
M  V30 6247 H 603.756 -2.49287 4.53957 0
M  V30 6248 H 600.433 -3.55577 2.18796 0
M  V30 6249 H 601.823 -2.72246 6.14274 0
M  V30 6250 N 604.543 -1.41418 -0.695603 0
M  V30 6251 C 605.49 -1.43264 -1.80954 0
M  V30 6252 C 606.46 -0.287016 -1.63601 0
M  V30 6253 O 607.645 -0.488054 -1.84452 0
M  V30 6254 C 604.785 -1.32054 -3.18835 0
M  V30 6255 C 603.898 -2.56485 -3.4762 0
M  V30 6256 C 603.033 -2.3757 -4.75115 0
M  V30 6257 C 602.072 -3.57477 -4.96867 0
M  V30 6258 N 601.209 -3.37632 -6.15588 0
M  V30 6259 H 606.049 -2.38467 -1.78711 0
M  V30 6260 H 603.586 -1.18415 -0.872715 0
M  V30 6261 H 605.544 -1.23558 -3.98484 0
M  V30 6262 H 604.174 -0.404592 -3.20254 0
M  V30 6263 H 603.226 -2.75432 -2.62376 0
M  V30 6264 H 604.538 -3.45678 -3.59594 0
M  V30 6265 H 603.692 -2.2654 -5.62818 0
M  V30 6266 H 602.431 -1.45834 -4.65386 0
M  V30 6267 H 601.436 -3.68961 -4.07612 0
M  V30 6268 H 602.661 -4.50167 -5.08455 0
M  V30 6269 H 600.607 -2.48596 -6.07072 0
M  V30 6270 H 600.524 -4.20401 -6.2833 0
M  V30 6271 H 601.792 -3.30375 -7.06026 0
M  V30 6272 N 606.021 0.929856 -1.27246 0
M  V30 6273 C 607.246 1.71674 -1.16374 0
M  V30 6274 C 607.671 1.86064 0.276024 0
M  V30 6275 O 607.029 1.3591 1.19992 0
M  V30 6276 C 607.077 3.09526 -1.85003 0
M  V30 6277 O 606.181 3.96142 -1.14653 0
M  V30 6278 H 605.522 0.52629 -0.404863 0
M  V30 6279 H 608.052 1.16381 -1.68276 0
M  V30 6280 H 608.062 3.59852 -1.92276 0
M  V30 6281 H 606.737 2.98369 -2.89739 0
M  V30 6282 H 605.314 3.54584 -1.15433 0
M  V30 6283 N 607.499 1.09233 1.13605 0
M  V30 6284 C 608.449 0.6994 2.17008 0
M  V30 6285 C 609.433 -0.285238 1.58352 0
M  V30 6286 O 610.625 -0.09592 1.7674 0
M  V30 6287 C 607.754 0.11938 3.43092 0
M  V30 6288 C 606.84 1.13031 4.0876 0
M  V30 6289 N 607.231 2.31673 4.49623 0
M  V30 6290 C 605.529 0.967999 4.35369 0
M  V30 6291 C 606.23 2.95964 5.00779 0
M  V30 6292 N 605.206 2.23534 4.95513 0
M  V30 6293 H 609.008 1.60272 2.46354 0
M  V30 6294 H 606.522 0.968257 1.30378 0
M  V30 6295 H 608.519 -0.180122 4.16511 0
M  V30 6296 H 607.179 -0.778816 3.15221 0
M  V30 6297 H 608.19 2.69277 4.42391 0
M  V30 6298 H 604.867 0.124319 4.17315 0
M  V30 6299 H 606.257 3.96813 5.42208 0
M  V30 6300 N 608.977 -1.30795 0.87923 0
M  V30 6301 C 610.254 -1.91145 0.415086 0
M  V30 6302 C 610.634 -1.7995 -1.10368 0
M  V30 6303 O 609.982 -1.21305 -1.93642 0
M  V30 6304 C 610.192 -3.37014 0.906778 0
M  V30 6305 C 611.54 -4.14101 0.938358 0
M  V30 6306 O 612.564 -3.45834 0.853053 0
M  V30 6307 O 611.423 -5.36054 1.06342 0
M  V30 6308 H 608.517 -0.81736 0.125905 0
M  V30 6309 H 611.063 -1.39401 0.967753 0
M  V30 6310 H 609.835 -3.3922 1.95053 0
M  V30 6311 H 609.458 -3.96204 0.332948 0
M  V30 6312 N 610.455 -0.639598 -1.44038 0
M  V30 6313 C 611.695 -0.150902 -2.03842 0
M  V30 6314 C 612.059 1.20744 -1.49281 0
M  V30 6315 O 613.26 1.78875 -2.00642 0
M  V30 6316 C 611.531 -0.146114 -3.57101 0
M  V30 6317 S 613.09 0.276725 -4.37927 0
M  V30 6318 H 609.908 -0.0652447 -0.708 0
M  V30 6319 H 612.51 -0.844886 -1.76301 0
M  V30 6320 H 611.214 -1.13769 -3.94316 0
M  V30 6321 H 610.745 0.568846 -3.89266 0
M  V30 6322 H 612.76 1.51893 -4.7238 0
M  V30 6323 N 611.933 1.52934 -0.380664 0
M  V30 6324 C 612.843 2.29921 0.466192 0
M  V30 6325 C 613.859 1.36488 1.07922 0
M  V30 6326 O 615.035 1.69553 1.0869 0
M  V30 6327 C 612.1 3.08468 1.58266 0
M  V30 6328 C 611.161 4.17595 0.995627 0
M  V30 6329 C 610.394 4.92387 2.05889 0
M  V30 6330 O 610.617 4.67184 3.27254 0
M  V30 6331 O 609.551 5.77949 1.68102 0
M  V30 6332 H 613.377 3.03274 -0.160735 0
M  V30 6333 H 610.962 1.48698 -0.144617 0
M  V30 6334 H 612.844 3.57469 2.23145 0
M  V30 6335 H 611.519 2.37937 2.19471 0
M  V30 6336 H 610.426 3.72811 0.310332 0
M  V30 6337 H 611.759 4.90336 0.427918 0
M  V30 6338 N 613.412 0.11024 1.57214 0
M  V30 6339 C 614.359 -0.843195 2.14846 0
M  V30 6340 C 615.329 -1.26954 1.07107 0
M  V30 6341 O 616.514 -1.34861 1.34971 0
M  V30 6342 C 613.654 -2.09123 2.74521 0
M  V30 6343 C 612.767 -1.71404 3.96541 0
M  V30 6344 C 611.902 -2.91107 4.44331 0
M  V30 6345 C 610.941 -2.49586 5.58903 0
M  V30 6346 N 610.078 -3.62175 6.01477 0
M  V30 6347 H 614.918 -0.344886 2.95998 0
M  V30 6348 H 612.455 -0.15855 1.46243 0
M  V30 6349 H 614.413 -2.82234 3.07246 0
M  V30 6350 H 613.043 -2.56427 1.96074 0
M  V30 6351 H 612.095 -0.88201 3.70033 0
M  V30 6352 H 613.407 -1.36884 4.7965 0
M  V30 6353 H 612.561 -3.72454 4.78919 0
M  V30 6354 H 611.3 -3.28848 3.60153 0
M  V30 6355 H 610.305 -1.6667 5.23929 0
M  V30 6356 H 611.53 -2.12973 6.4484 0
M  V30 6357 H 609.476 -3.99605 5.20242 0
M  V30 6358 H 609.393 -3.3155 6.79419 0
M  V30 6359 H 610.661 -4.43987 6.407 0
M  V30 6360 N 614.89 -1.56749 -0.16351 0
M  V30 6361 C 615.837 -1.97011 -1.2023 0
M  V30 6362 C 616.807 -0.835186 -1.43575 0
M  V30 6363 O 617.992 -1.09594 -1.56185 0
M  V30 6364 C 615.132 -2.34186 -2.53478 0
M  V30 6365 C 614.245 -3.60893 -2.37446 0
M  V30 6366 C 613.38 -3.87245 -3.63614 0
M  V30 6367 C 612.419 -5.07274 -3.42548 0
M  V30 6368 N 611.556 -5.29719 -4.60806 0
M  V30 6369 H 616.396 -2.85562 -0.851958 0
M  V30 6370 H 613.933 -1.41292 -0.409257 0
M  V30 6371 H 615.891 -2.53764 -3.31149 0
M  V30 6372 H 614.521 -1.48736 -2.86492 0
M  V30 6373 H 613.573 -3.49185 -1.50911 0
M  V30 6374 H 614.885 -4.48722 -2.1783 0
M  V30 6375 H 614.039 -4.07232 -4.49719 0
M  V30 6376 H 612.778 -2.97806 -3.86216 0
M  V30 6377 H 611.783 -4.87177 -2.5483 0
M  V30 6378 H 613.008 -5.98251 -3.2136 0
M  V30 6379 H 610.954 -4.43233 -4.83612 0
M  V30 6380 H 610.871 -6.11786 -4.44132 0
M  V30 6381 H 612.139 -5.54192 -5.48171 0
M  V30 6382 N 616.368 0.432326 -1.51554 0
M  V30 6383 C 617.315 1.52512 -1.7323 0
M  V30 6384 C 618.285 1.55863 -0.5741 0
M  V30 6385 O 619.47 1.72796 -0.809093 0
M  V30 6386 C 616.61 2.90183 -1.86783 0
M  V30 6387 C 615.723 2.96322 -3.14352 0
M  V30 6388 C 614.858 4.25147 -3.18471 0
M  V30 6389 C 613.897 4.25172 -4.40335 0
M  V30 6390 N 613.034 5.45529 -4.41975 0
M  V30 6391 H 617.874 1.33332 -2.66508 0
M  V30 6392 H 615.411 0.647613 -1.32077 0
M  V30 6393 H 617.369 3.70071 -1.92623 0
M  V30 6394 H 615.999 3.0791 -0.969087 0
M  V30 6395 H 615.051 2.09066 -3.17798 0
M  V30 6396 H 616.363 2.92203 -4.04251 0
M  V30 6397 H 615.517 5.13411 -3.23255 0
M  V30 6398 H 614.256 4.31929 -2.2647 0
M  V30 6399 H 613.261 3.353 -4.35723 0
M  V30 6400 H 614.486 4.20049 -5.33606 0
M  V30 6401 H 612.432 5.53024 -3.52847 0
M  V30 6402 H 612.349 5.43311 -5.25689 0
M  V30 6403 H 613.617 6.35812 -4.50958 0
M  V30 6404 N 617.846 1.41785 0.688094 0
M  V30 6405 C 619.071 1.45117 1.48175 0
M  V30 6406 C 619.496 0.060129 1.88004 0
M  V30 6407 O 618.854 -0.938385 1.55126 0
M  V30 6408 C 618.902 2.37224 2.71583 0
M  V30 6409 O 618.006 1.83443 3.69354 0
M  V30 6410 H 617.347 0.492208 0.445676 0
M  V30 6411 H 619.877 1.86329 0.845145 0
M  V30 6412 H 619.887 2.53353 3.19806 0
M  V30 6413 H 618.562 3.38293 2.41931 0
M  V30 6414 H 617.139 1.76802 3.28322 0
M  V30 6415 N 619.324 -0.923095 1.27737 0
M  V30 6416 C 620.271 -2.02432 1.1086 0
M  V30 6417 C 621.241 -1.66098 0.00835195 0
M  V30 6418 O 622.426 -1.90027 0.171542 0
M  V30 6419 C 619.566 -3.36476 0.766671 0
M  V30 6420 C 618.679 -3.85737 1.94501 0
M  V30 6421 C 617.814 -5.08249 1.54455 0
M  V30 6422 C 616.853 -5.49818 2.6901 0
M  V30 6423 N 615.99 -6.63524 2.29521 0
M  V30 6424 H 620.83 -2.16201 2.05089 0
M  V30 6425 H 618.367 -1.05909 1.02087 0
M  V30 6426 H 620.325 -4.13569 0.549223 0
M  V30 6427 H 618.955 -3.22502 -0.13867 0
M  V30 6428 H 618.007 -3.04883 2.27487 0
M  V30 6429 H 619.319 -4.12513 2.80419 0
M  V30 6430 H 618.473 -5.92857 1.28862 0
M  V30 6431 H 617.212 -4.83261 0.656534 0
M  V30 6432 H 616.217 -4.63757 2.95313 0
M  V30 6433 H 617.442 -5.76799 3.5844 0
M  V30 6434 H 615.388 -6.40185 1.43177 0
M  V30 6435 H 615.305 -6.89978 3.08977 0
M  V30 6436 H 616.573 -7.51461 2.07187 0
M  V30 6437 N 620.802 -1.09834 -1.13024 0
M  V30 6438 C 621.749 -0.741522 -2.18564 0
M  V30 6439 C 622.719 0.279236 -1.63736 0
M  V30 6440 O 623.904 0.159923 -1.90129 0
M  V30 6441 C 621.044 -0.17277 -3.44667 0
M  V30 6442 C 620.157 -1.24808 -4.13578 0
M  V30 6443 C 619.292 -0.641631 -5.27311 0
M  V30 6444 C 618.331 -1.69795 -5.88078 0
M  V30 6445 N 617.468 -1.11223 -6.93234 0
M  V30 6446 H 622.308 -1.64576 -2.48432 0
M  V30 6447 H 619.845 -0.822174 -1.21978 0
M  V30 6448 H 621.803 0.17482 -4.16834 0
M  V30 6449 H 620.433 0.694725 -3.15235 0
M  V30 6450 H 619.485 -1.71288 -3.39653 0
M  V30 6451 H 620.797 -2.04795 -4.54819 0
M  V30 6452 H 619.951 -0.243128 -6.06213 0
M  V30 6453 H 618.69 0.189742 -4.87331 0
M  V30 6454 H 617.695 -2.10595 -5.07868 0
M  V30 6455 H 618.92 -2.53206 -6.3013 0
M  V30 6456 H 616.866 -0.302208 -6.55304 0
M  V30 6457 H 616.783 -1.84901 -7.3304 0
M  V30 6458 H 618.051 -0.740068 -7.75979 0
M  V30 6459 N 622.28 1.30327 -0.886154 0
M  V30 6460 C 623.23 2.25668 -0.325248 0
M  V30 6461 C 624.214 1.51318 0.546972 0
M  V30 6462 O 625.406 1.72623 0.391203 0
M  V30 6463 C 622.535 3.40229 0.458167 0
M  V30 6464 C 621.621 4.21933 -0.428208 0
M  V30 6465 N 622.012 4.82129 -1.52921 0
M  V30 6466 C 620.31 4.45439 -0.223535 0
M  V30 6467 C 621.011 5.43351 -2.07714 0
M  V30 6468 N 619.987 5.26002 -1.37195 0
M  V30 6469 H 623.789 2.69759 -1.1665 0
M  V30 6470 H 621.303 1.4478 -0.735691 0
M  V30 6471 H 623.3 4.07579 0.876648 0
M  V30 6472 H 621.96 2.97678 1.29684 0
M  V30 6473 H 622.971 4.81312 -1.91205 0
M  V30 6474 H 619.648 4.13481 0.577875 0
M  V30 6475 H 621.038 6.01118 -3.00178 0
M  V30 6476 N 623.758 0.647228 1.43697 0
M  V30 6477 C 624.705 -0.0480092 2.3075 0
M  V30 6478 C 625.675 -0.820705 1.44408 0
M  V30 6479 O 626.86 -0.798515 1.73287 0
M  V30 6480 C 624 -1.01259 3.2991 0
M  V30 6481 C 623.113 -0.236629 4.31351 0
M  V30 6482 C 622.248 -1.19447 5.17596 0
M  V30 6483 C 621.287 -0.408595 6.10735 0
M  V30 6484 N 620.424 -1.31772 6.89623 0
M  V30 6485 H 625.264 0.700238 2.89656 0
M  V30 6486 H 622.801 0.357082 1.427 0
M  V30 6487 H 624.759 -1.58538 3.85903 0
M  V30 6488 H 623.389 -1.72778 2.72667 0
M  V30 6489 H 622.441 0.452353 3.77701 0
M  V30 6490 H 623.753 0.374731 4.9739 0
M  V30 6491 H 622.907 -1.83809 5.78186 0
M  V30 6492 H 621.646 -1.83975 4.51669 0
M  V30 6493 H 620.651 0.24841 5.49239 0
M  V30 6494 H 621.876 0.232188 6.78703 0
M  V30 6495 H 619.822 -1.94991 6.2635 0
M  V30 6496 H 619.739 -0.760779 7.52162 0
M  V30 6497 H 621.007 -1.94967 7.54724 0
M  V30 6498 N 625.236 -1.5273 0.388769 0
M  V30 6499 C 626.513 -1.93981 -0.251133 0
M  V30 6500 C 626.893 -1.32418 -1.64404 0
M  V30 6501 O 626.241 -0.492074 -2.23139 0
M  V30 6502 C 626.451 -3.47891 -0.27802 0
M  V30 6503 C 627.799 -4.21559 -0.507229 0
M  V30 6504 O 628.823 -3.54394 -0.358252 0
M  V30 6505 O 627.682 -5.40626 -0.799094 0
M  V30 6506 H 624.776 -0.812157 -0.15598 0
M  V30 6507 H 627.322 -1.63809 0.443237 0
M  V30 6508 H 626.094 -3.8503 0.697669 0
M  V30 6509 H 625.717 -3.84364 -1.01733 0
M  V30 6510 N 626.714 -0.118576 -1.57153 0
M  V30 6511 C 627.662 0.849114 -2.16547 0
M  V30 6512 C 628.656 1.27567 -1.11458 0
M  V30 6513 O 629.862 1.24746 -1.29763 0
M  V30 6514 H 626.237 0.291935 -0.693021 0
M  V30 6515 H 628.208 0.323693 -2.96639 0
M  V30 6516 C 626.957 2.08951 -2.77912 0
M  V30 6517 H 626.28 1.77021 -3.58474 0
M  V30 6518 H 627.72 2.74666 -3.23008 0
M  V30 6519 C 626.179 2.87899 -1.74974 0
M  V30 6520 O 626.709 3.83268 -1.20285 0
M  V30 6521 N 624.915 2.51884 -1.44924 0
M  V30 6522 H 624.462 1.74397 -1.89587 0
M  V30 6523 H 624.42 3.05003 -0.762921 0
M  V30 6524 N 628.193 1.56834 0.155195 0
M  V30 6525 C 629.103 2.009 1.21146 0
M  V30 6526 C 630.119 0.923029 1.475 0
M  V30 6527 O 631.295 1.23189 1.59331 0
M  V30 6528 C 628.36 2.37378 2.52691 0
M  V30 6529 C 627.421 3.59883 2.34057 0
M  V30 6530 C 626.654 3.94612 3.59329 0
M  V30 6531 O 626.877 3.30104 4.65175 0
M  V30 6532 O 625.811 4.87895 3.52479 0
M  V30 6533 H 629.637 2.9105 0.867371 0
M  V30 6534 H 627.222 1.44916 0.363298 0
M  V30 6535 H 629.104 2.61737 3.3026 0
M  V30 6536 H 627.779 1.50385 2.86646 0
M  V30 6537 H 626.686 3.40722 1.54465 0
M  V30 6538 H 628.019 4.47468 2.0502 0
M  V30 6539 N 629.671 -0.424282 1.51781 0
M  V30 6540 C 630.948 -1.18464 1.55646 0
M  V30 6541 C 631.328 -2.08529 0.328438 0
M  V30 6542 O 630.676 -2.17969 -0.685693 0
M  V30 6543 C 630.886 -1.97514 2.87731 0
M  V30 6544 C 632.234 -2.54106 3.40169 0
M  V30 6545 O 633.258 -2.07711 2.89369 0
M  V30 6546 O 632.117 -3.38759 4.28841 0
M  V30 6547 H 629.211 -0.540055 0.626314 0
M  V30 6548 H 631.757 -0.432291 1.64102 0
M  V30 6549 H 630.529 -1.31444 3.68562 0
M  V30 6550 H 630.152 -2.79787 2.82498 0
M  V30 6551 N 631.149 -1.42148 -0.680565 0
M  V30 6552 C 632.112 -1.4488 -1.77602 0
M  V30 6553 C 633.112 -0.337209 -1.57224 0
M  V30 6554 O 634.302 -0.597778 -1.63622 0
M  V30 6555 C 631.434 -1.27483 -3.16166 0
M  V30 6556 H 632.627 -2.42412 -1.76568 0
M  V30 6557 H 630.18 -1.28511 -0.889645 0
M  V30 6558 H 630.915 -0.30851 -3.22829 0
M  V30 6559 H 630.7 -2.08037 -3.3236 0
M  V30 6560 H 632.19 -1.32265 -3.96101 0
M  V30 6561 N 632.627 0.916307 -1.28225 0
M  V30 6562 C 633.537 2.05165 -1.13775 0
M  V30 6563 C 634.553 1.73879 -0.0649418 0
M  V30 6564 O 635.729 1.99531 -0.273722 0
M  V30 6565 C 632.794 3.37385 -0.798267 0
M  V30 6566 C 631.855 3.82296 -1.95316 0
M  V30 6567 C 631.088 5.08206 -1.62978 0
M  V30 6568 O 631.311 5.6781 -0.542948 0
M  V30 6569 O 630.245 5.48768 -2.47261 0
M  V30 6570 H 634.071 2.20273 -2.09078 0
M  V30 6571 H 631.656 1.0373 -1.07519 0
M  V30 6572 H 633.538 4.16773 -0.62278 0
M  V30 6573 H 632.213 3.23458 0.125139 0
M  V30 6574 H 631.12 3.03746 -2.18378 0
M  V30 6575 H 632.453 4.00782 -2.85718 0
M  V30 6576 N 634.105 1.10431 1.1244 0
M  V30 6577 C 635.33 0.869089 1.88313 0
M  V30 6578 C 635.755 -0.574912 1.79099 0
M  V30 6579 O 635.113 -1.40496 1.14589 0
M  V30 6580 C 635.161 1.32208 3.3549 0
M  V30 6581 O 634.265 0.487092 4.09513 0
M  V30 6582 H 633.606 0.313894 0.585121 0
M  V30 6583 H 636.136 1.47111 1.42195 0
M  V30 6584 H 636.146 1.31201 3.86329 0
M  V30 6585 H 634.821 2.37364 3.41513 0
M  V30 6586 H 633.398 0.562372 3.68635 0
M  V30 6587 N 635.583 -1.29855 0.893053 0
M  V30 6588 C 636.829 -1.96116 0.516349 0
M  V30 6589 C 637.162 -1.70281 -0.933695 0
M  V30 6590 O 636.437 -1.01205 -1.66096 0
M  V30 6591 C 636.72 -3.51068 0.801455 0
M  V30 6592 C 636.573 -3.86387 2.30272 0
M  V30 6593 C 637.892 -4.39186 0.283423 0
M  V30 6594 H 635.011 -0.712335 0.189072 0
M  V30 6595 H 637.653 -1.53587 1.11852 0
M  V30 6596 H 635.803 -3.87424 0.288949 0
M  V30 6597 H 637.475 -3.60012 2.88425 0
M  V30 6598 H 635.718 -3.34167 2.76613 0
M  V30 6599 H 636.389 -4.94512 2.45279 0
M  V30 6600 H 638.865 -4.09785 0.722187 0
M  V30 6601 H 637.741 -5.46505 0.512169 0
M  V30 6602 H 638.002 -4.34511 -0.815643 0
M  V30 6603 N 637.061 -0.65484 -1.43351 0
M  V30 6604 C 638.008 0.0357713 -2.30772 0
M  V30 6605 C 638.978 0.813035 -1.44841 0
M  V30 6606 O 640.163 0.789314 -1.73708 0
M  V30 6607 C 637.303 0.995084 -3.30442 0
M  V30 6608 C 636.416 0.21375 -4.31471 0
M  V30 6609 C 635.551 1.16701 -5.18222 0
M  V30 6610 C 634.59 0.376201 -6.10943 0
M  V30 6611 N 633.727 1.28113 -6.90313 0
M  V30 6612 H 638.567 -0.71559 -2.89281 0
M  V30 6613 H 636.104 -0.364645 -1.42509 0
M  V30 6614 H 638.062 1.5649 -3.86739 0
M  V30 6615 H 636.692 1.7133 -2.7358 0
M  V30 6616 H 635.744 -0.472377 -3.77456 0
M  V30 6617 H 637.056 -0.401103 -4.97185 0
M  V30 6618 H 636.21 1.8074 -5.79153 0
M  V30 6619 H 634.949 1.81577 -4.52638 0
M  V30 6620 H 633.954 -0.277534 -5.49099 0
M  V30 6621 H 635.179 -0.268178 -6.7857 0
M  V30 6622 H 633.125 1.91666 -6.27376 0
M  V30 6623 H 633.042 0.720879 -7.52555 0
M  V30 6624 H 634.31 1.90962 -7.55747 0
M  V30 6625 N 638.539 1.52521 -0.396863 0
M  V30 6626 C 639.764 2.06571 0.185258 0
M  V30 6627 C 640.189 1.26605 1.39115 0
M  V30 6628 O 639.547 0.293055 1.78916 0
M  V30 6629 C 639.595 3.5674 0.526189 0
M  V30 6630 O 638.699 3.7929 1.61903 0
M  V30 6631 H 638.04 0.663712 0.0195474 0
M  V30 6632 H 640.57 1.966 -0.566519 0
M  V30 6633 H 640.58 4.00311 0.788338 0
M  V30 6634 H 639.255 4.14379 -0.355397 0
M  V30 6635 H 637.832 3.47605 1.35 0
M  V30 6636 N 640.017 0.126909 1.57088 0
M  V30 6637 C 640.964 -0.82036 2.15728 0
M  V30 6638 C 641.934 -1.25811 1.08447 0
M  V30 6639 O 643.119 -1.33422 1.36393 0
M  V30 6640 C 640.259 -2.06199 2.76724 0
M  V30 6641 C 639.372 -1.67188 3.98337 0
M  V30 6642 C 638.507 -2.86378 4.47393 0
M  V30 6643 C 637.546 -2.43644 5.61519 0
M  V30 6644 N 636.683 -3.55775 6.05284 0
M  V30 6645 H 641.523 -0.313472 2.96347 0
M  V30 6646 H 639.06 -0.14303 1.46403 0
M  V30 6647 H 641.018 -2.78959 3.10222 0
M  V30 6648 H 639.648 -2.54333 1.98782 0
M  V30 6649 H 638.7 -0.842714 3.70948 0
M  V30 6650 H 640.012 -1.31789 4.81075 0
M  V30 6651 H 639.166 -3.67353 4.82842 0
M  V30 6652 H 637.905 -3.25009 3.63621 0
M  V30 6653 H 636.91 -1.61104 5.25667 0
M  V30 6654 H 638.135 -2.06122 6.47063 0
M  V30 6655 H 636.081 -3.94065 5.24451 0
M  V30 6656 H 635.998 -3.24325 6.82898 0
M  V30 6657 H 637.266 -4.37166 6.45373 0
M  V30 6658 N 641.495 -1.56914 -0.146875 0
M  V30 6659 C 642.442 -1.98275 -1.18134 0
M  V30 6660 C 643.412 -0.850367 -1.42681 0
M  V30 6661 O 644.597 -1.11244 -1.55014 0
M  V30 6662 C 641.737 -2.36861 -2.5098 0
M  V30 6663 C 640.85 -3.63391 -2.33605 0
M  V30 6664 C 639.985 -3.91079 -3.59486 0
M  V30 6665 C 639.024 -5.10879 -3.37149 0
M  V30 6666 N 638.161 -5.34577 -4.55161 0
M  V30 6667 H 643.001 -2.8645 -0.821622 0
M  V30 6668 H 640.538 -1.41718 -0.394248 0
M  V30 6669 H 642.496 -2.57262 -3.28439 0
M  V30 6670 H 641.126 -1.51766 -2.84898 0
M  V30 6671 H 640.178 -3.50766 -1.47199 0
M  V30 6672 H 641.49 -4.51007 -2.13059 0
M  V30 6673 H 640.644 -4.11979 -4.45374 0
M  V30 6674 H 639.383 -3.01885 -3.83036 0
M  V30 6675 H 638.388 -4.89853 -2.49649 0
M  V30 6676 H 639.613 -6.01626 -3.14997 0
M  V30 6677 H 637.559 -4.48337 -4.78884 0
M  V30 6678 H 637.476 -6.16463 -4.37618 0
M  V30 6679 H 638.744 -5.59975 -5.42263 0
M  V30 6680 N 642.974 0.416227 -1.52004 0
M  V30 6681 C 644.199 1.19029 -1.69843 0
M  V30 6682 C 644.624 1.83708 -0.404103 0
M  V30 6683 O 643.982 1.69711 0.637787 0
M  V30 6684 C 644.03 2.23439 -2.83032 0
M  V30 6685 O 643.134 3.29419 -2.48106 0
M  V30 6686 H 642.475 0.347785 -0.565634 0
M  V30 6687 H 645.005 0.488871 -1.98674 0
M  V30 6688 H 645.015 2.67884 -3.07737 0
M  V30 6689 H 643.69 1.75745 -3.76944 0
M  V30 6690 H 642.267 2.90303 -2.34048 0
M  V30 6691 N 644.452 1.42507 0.673017 0
M  V30 6692 C 645.698 1.43284 1.43519 0
M  V30 6693 C 646.031 0.049668 1.94136 0
M  V30 6694 O 645.306 -0.926369 1.71022 0
M  V30 6695 C 645.589 2.45874 2.63093 0
M  V30 6696 C 645.442 3.93388 2.18096 0
M  V30 6697 C 646.761 2.45431 3.6531 0
M  V30 6698 H 643.88 0.521752 0.520522 0
M  V30 6699 H 646.522 1.73932 0.764701 0
M  V30 6700 H 644.672 2.19869 3.20296 0
M  V30 6701 H 646.344 4.30379 1.66046 0
M  V30 6702 H 644.587 4.07169 1.49652 0
M  V30 6703 H 645.258 4.60752 3.03993 0
M  V30 6704 H 647.734 2.68561 3.17827 0
M  V30 6705 H 646.61 3.19189 4.46553 0
M  V30 6706 H 646.871 1.48092 4.16559 0
M  V30 6707 N 645.93 -0.909495 1.28709 0
M  V30 6708 C 646.877 -2.01245 1.13 0
M  V30 6709 C 647.847 -1.6608 0.0259684 0
M  V30 6710 O 649.032 -1.89835 0.191687 0
M  V30 6711 C 646.172 -3.35644 0.802315 0
M  V30 6712 C 645.285 -3.83653 1.98582 0
M  V30 6713 C 644.42 -5.06582 1.59837 0
M  V30 6714 C 643.459 -5.46934 2.74827 0
M  V30 6715 N 642.596 -6.61053 2.36546 0
M  V30 6716 H 647.436 -2.14013 2.0737 0
M  V30 6717 H 644.973 -1.0482 1.03205 0
M  V30 6718 H 646.931 -4.12963 0.593057 0
M  V30 6719 H 645.561 -3.22631 -0.104457 0
M  V30 6720 H 644.613 -3.02454 2.30708 0
M  V30 6721 H 645.925 -4.09515 2.84779 0
M  V30 6722 H 645.079 -5.91457 1.35143 0
M  V30 6723 H 643.818 -4.82537 0.707753 0
M  V30 6724 H 642.823 -4.60599 3.00215 0
M  V30 6725 H 644.048 -5.72965 3.64538 0
M  V30 6726 H 641.994 -6.3863 1.49959 0
M  V30 6727 H 641.911 -6.86662 3.16277 0
M  V30 6728 H 643.179 -7.49221 2.15146 0
M  V30 6729 N 647.408 -1.11026 -1.11852 0
M  V30 6730 C 648.318 -0.777252 -2.2135 0
M  V30 6731 C 649.334 0.227821 -1.72502 0
M  V30 6732 O 650.51 0.0650587 -2.01295 0
M  V30 6733 C 647.575 -0.220668 -3.45997 0
M  V30 6734 C 646.636 -1.2838 -4.09655 0
M  V30 6735 C 645.869 -0.753678 -5.28352 0
M  V30 6736 O 646.092 0.417779 -5.68868 0
M  V30 6737 O 645.026 -1.51647 -5.82483 0
M  V30 6738 H 648.852 -1.69141 -2.5224 0
M  V30 6739 H 646.437 -0.885836 -1.20305 0
M  V30 6740 H 648.319 0.0855756 -4.21313 0
M  V30 6741 H 646.994 0.666262 -3.16769 0
M  V30 6742 H 645.901 -1.64299 -3.3609 0
M  V30 6743 H 647.234 -2.14396 -4.43052 0
M  V30 6744 N 648.886 1.2938 -0.899927 0
M  V30 6745 C 649.833 2.27713 -0.376243 0
M  V30 6746 C 650.803 1.57016 0.541774 0
M  V30 6747 O 651.988 1.84997 0.466966 0
M  V30 6748 C 649.128 3.42889 0.39 0
M  V30 6749 C 648.241 4.28369 -0.558938 0
M  V30 6750 C 647.376 5.30726 0.224379 0
M  V30 6751 C 646.415 6.07862 -0.719068 0
M  V30 6752 N 645.552 7.02094 0.0298569 0
M  V30 6753 H 650.392 2.71888 -1.21988 0
M  V30 6754 H 647.929 1.33724 -0.612879 0
M  V30 6755 H 649.887 4.08443 0.850314 0
M  V30 6756 H 648.517 2.99743 1.19809 0
M  V30 6757 H 647.569 3.62986 -1.13777 0
M  V30 6758 H 648.881 4.82068 -1.2811 0
M  V30 6759 H 648.035 6.02098 0.745881 0
M  V30 6760 H 646.774 4.77759 0.979674 0
M  V30 6761 H 645.779 5.35353 -1.25207 0
M  V30 6762 H 647.004 6.62917 -1.4737 0
M  V30 6763 H 644.95 6.51496 0.767415 0
M  V30 6764 H 644.867 7.5335 -0.632391 0
M  V30 6765 H 646.135 7.77685 0.531615 0
M  V30 6766 N 650.364 0.662433 1.43002 0
M  V30 6767 C 651.612 0.179237 2.01304 0
M  V30 6768 C 651.933 -1.21428 1.52579 0
M  V30 6769 O 651.203 -1.81294 0.742252 0
M  V30 6770 H 649.783 0.0632725 0.744316 0
M  V30 6771 H 652.445 0.856169 1.75088 0
M  V30 6772 H 651.541 0.170957 3.11631 0
M  V30 6773 N 651.842 -1.52309 0.404946 0
M  V30 6774 C 652.752 -2.30634 -0.429555 0
M  V30 6775 C 653.768 -1.38187 -1.05737 0
M  V30 6776 O 654.944 -1.71261 -1.05979 0
M  V30 6777 C 652.009 -3.10947 -1.53339 0
M  V30 6778 C 651.07 -4.19126 -0.929065 0
M  V30 6779 C 650.303 -4.95601 -1.9803 0
M  V30 6780 O 650.526 -4.72331 -3.1978 0
M  V30 6781 O 649.46 -5.80551 -1.58886 0
M  V30 6782 H 653.286 -3.0298 0.208963 0
M  V30 6783 H 650.871 -1.4845 0.168255 0
M  V30 6784 H 652.753 -3.60974 -2.1743 0
M  V30 6785 H 651.428 -2.41399 -2.15658 0
M  V30 6786 H 650.335 -3.73257 -0.250982 0
M  V30 6787 H 651.668 -4.90955 -0.349855 0
M  V30 6788 N 653.32 -0.135238 -1.57019 0
M  V30 6789 C 654.267 0.808908 -2.1616 0
M  V30 6790 C 655.237 1.25234 -1.09113 0
M  V30 6791 O 656.422 1.32697 -1.37099 0
M  V30 6792 C 653.562 2.04729 -2.77813 0
M  V30 6793 C 652.675 1.65074 -3.99218 0
M  V30 6794 C 651.81 2.84002 -4.48906 0
M  V30 6795 C 650.849 2.40663 -5.62803 0
M  V30 6796 N 649.986 3.5256 -6.07162 0
M  V30 6797 H 654.826 0.297751 -2.96509 0
M  V30 6798 H 652.363 0.135264 -1.46477 0
M  V30 6799 H 654.321 2.7731 -3.11697 0
M  V30 6800 H 652.951 2.53275 -2.00128 0
M  V30 6801 H 652.003 0.823029 -3.7139 0
M  V30 6802 H 653.315 1.29236 -4.81767 0
M  V30 6803 H 652.469 3.64788 -4.84783 0
M  V30 6804 H 651.208 3.23076 -3.65339 0
M  V30 6805 H 650.213 1.58314 -5.26514 0
M  V30 6806 H 651.438 2.02687 -6.48147 0
M  V30 6807 H 649.384 3.91278 -5.26534 0
M  V30 6808 H 649.301 3.20699 -6.84608 0
M  V30 6809 H 650.569 4.33738 -6.47682 0
M  V30 6810 N 654.798 1.5699 0.138552 0
M  V30 6811 C 655.748 1.9532 1.17619 0
M  V30 6812 C 656.732 0.825545 1.38107 0
M  V30 6813 O 657.924 1.08908 1.39528 0
M  V30 6814 C 655.053 2.34451 2.50774 0
M  V30 6815 C 654.139 3.53805 2.33844 0
M  V30 6816 N 654.53 4.70088 1.86685 0
M  V30 6817 C 652.828 3.59055 2.64567 0
M  V30 6818 C 653.529 5.52165 1.82998 0
M  V30 6819 N 652.505 4.94108 2.26624 0
M  V30 6820 H 656.307 2.82694 0.803809 0
M  V30 6821 H 653.821 1.5866 0.346519 0
M  V30 6822 H 655.818 2.60119 3.25797 0
M  V30 6823 H 654.478 1.48431 2.88788 0
M  V30 6824 H 655.489 4.93681 1.56523 0
M  V30 6825 H 652.166 2.83596 3.06398 0
M  V30 6826 H 653.556 6.55407 1.47957 0
M  V30 6827 N 656.276 -0.40816 1.52223 0
M  V30 6828 C 657.224 -1.51788 1.76248 0
M  V30 6829 C 658.218 -1.57264 0.629638 0
M  V30 6830 O 659.424 -1.60659 0.811704 0
M  V30 6831 H 655.799 -0.504823 0.557367 0
M  V30 6832 H 657.77 -1.2871 2.69214 0
M  V30 6833 C 656.519 -2.89145 1.93107 0
M  V30 6834 H 655.842 -2.85674 2.79697 0
M  V30 6835 H 657.282 -3.66082 2.13916 0
M  V30 6836 C 655.741 -3.29581 0.698431 0
M  V30 6837 O 656.271 -4.01479 -0.133238 0
M  V30 6838 N 654.477 -2.85651 0.53405 0
M  V30 6839 H 654.024 -2.2731 1.21194 0
M  V30 6840 H 653.982 -3.13065 -0.289387 0
M  V30 6841 N 657.755 -1.42862 -0.66545 0
M  V30 6842 C 659.003 -1.43546 -1.42264 0
M  V30 6843 C 659.324 -0.0563116 -1.94919 0
M  V30 6844 O 658.594 0.906568 -1.73661 0
M  V30 6845 H 657.174 -0.528464 -0.527953 0
M  V30 6846 H 659.836 -1.78363 -0.785665 0
M  V30 6847 H 658.932 -2.14079 -2.27105 0
M  V30 6848 N 659.233 0.902656 -1.29189 0
M  V30 6849 C 660.18 2.00643 -1.14066 0
M  V30 6850 C 661.15 1.66064 -0.0347756 0
M  V30 6851 O 662.335 1.8973 -0.201752 0
M  V30 6852 C 659.475 3.35214 -0.820104 0
M  V30 6853 C 658.588 3.82594 -2.00614 0
M  V30 6854 C 657.723 5.05727 -1.62522 0
M  V30 6855 C 656.762 5.45469 -2.77724 0
M  V30 6856 N 655.899 6.59789 -2.40048 0
M  V30 6857 H 660.739 2.1291 -2.08502 0
M  V30 6858 H 658.276 1.04271 -1.03759 0
M  V30 6859 H 660.234 4.12643 -0.614949 0
M  V30 6860 H 658.864 3.22682 0.0873452 0
M  V30 6861 H 657.916 3.01226 -2.32308 0
M  V30 6862 H 659.228 4.07999 -2.86946 0
M  V30 6863 H 658.382 5.90732 -1.38277 0
M  V30 6864 H 657.121 4.82155 -0.733333 0
M  V30 6865 H 656.126 4.59 -3.02653 0
M  V30 6866 H 657.351 5.71024 -3.67572 0
M  V30 6867 H 655.297 6.37826 -1.53343 0
M  V30 6868 H 655.214 6.84975 -3.19914 0
M  V30 6869 H 656.482 7.4807 -2.19116 0
M  V30 6870 N 660.711 1.11618 1.11262 0
M  V30 6871 C 661.658 0.7762 2.17356 0
M  V30 6872 C 662.628 -0.253152 1.6416 0
M  V30 6873 O 663.813 -0.129655 1.90359 0
M  V30 6874 C 660.953 0.227581 3.44349 0
M  V30 6875 C 660.066 1.31372 4.1154 0
M  V30 6876 C 659.201 0.72544 5.26223 0
M  V30 6877 C 658.24 1.7913 5.85302 0
M  V30 6878 N 657.377 1.22237 6.91377 0
M  V30 6879 H 662.217 1.68508 2.45783 0
M  V30 6880 H 659.754 0.841475 1.20655 0
M  V30 6881 H 661.712 -0.108483 4.17059 0
M  V30 6882 H 660.342 -0.644486 3.16301 0
M  V30 6883 H 659.394 1.7667 3.36885 0
M  V30 6884 H 660.706 2.12005 4.51504 0
M  V30 6885 H 659.86 0.339541 6.05749 0
M  V30 6886 H 658.599 -0.112188 4.87571 0
M  V30 6887 H 657.604 2.18648 5.04453 0
M  V30 6888 H 658.829 2.63199 6.26022 0
M  V30 6889 H 656.775 0.406423 6.5474 0
M  V30 6890 H 656.692 1.9654 7.30006 0
M  V30 6891 H 657.96 0.863426 7.74703 0
M  V30 6892 N 662.189 -1.289 0.906776 0
M  V30 6893 C 663.6 -1.77336 0.58384 0
M  V30 6894 C 663.951 -1.74304 -0.900697 0
M  V30 6895 O 663.076 -1.33335 -1.70443 0
M  V30 6896 C 663.671 -3.22019 1.05304 0
M  V30 6897 C 662.23 -3.68205 0.781148 0
M  V30 6898 C 661.377 -2.48837 1.22373 0
M  V30 6899 H 664.328 -1.15462 1.08877 0
M  V30 6900 H 664.349 -3.78481 0.391414 0
M  V30 6901 H 663.861 -3.24194 2.13353 0
M  V30 6902 H 661.962 -3.71497 -0.28643 0
M  V30 6903 H 662.075 -4.58675 1.384 0
M  V30 6904 H 660.439 -2.46461 0.642594 0
M  V30 6905 H 661.222 -2.53736 2.31242 0
M  V30 6906 N 663.667 -0.670007 -1.42649 0
M  V30 6907 C 664.907 -0.194106 -2.03476 0
M  V30 6908 C 665.271 1.1755 -1.51809 0
M  V30 6909 O 666.472 1.74579 -2.04391 0
M  V30 6910 C 664.743 -0.221828 -3.56711 0
M  V30 6911 S 666.302 0.183772 -4.38415 0
M  V30 6912 H 663.12 -0.0802478 -0.706457 0
M  V30 6913 H 665.722 -0.882092 -1.74469 0
M  V30 6914 H 664.426 -1.22107 -3.91814 0
M  V30 6915 H 663.957 0.486149 -3.90385 0
M  V30 6916 H 665.972 1.41839 -4.75496 0
M  V30 6917 N 665.145 1.52092 -0.413018 0
M  V30 6918 C 666.37 2.06756 0.163338 0
M  V30 6919 C 666.795 1.28073 1.37764 0
M  V30 6920 O 666.153 0.312015 1.78595 0
M  V30 6921 C 666.201 3.57278 0.488322 0
M  V30 6922 O 665.305 3.80986 1.57871 0
M  V30 6923 H 664.646 0.663882 0.0125068 0
M  V30 6924 H 667.176 1.95988 -0.587339 0
M  V30 6925 H 667.186 4.01125 0.745836 0
M  V30 6926 H 665.861 4.13978 -0.399327 0
M  V30 6927 H 664.438 3.49017 1.31306 0
M  V30 6928 N 666.623 0.143563 1.56945 0
M  V30 6929 C 667.57 -0.797433 2.16586 0
M  V30 6930 C 668.54 -1.24654 1.09775 0
M  V30 6931 O 669.725 -1.31968 1.37801 0
M  V30 6932 C 666.865 -2.03253 2.78895 0
M  V30 6933 C 665.978 -1.62954 4.00087 0
M  V30 6934 C 665.113 -2.81617 4.50406 0
M  V30 6935 C 664.152 -2.37675 5.64072 0
M  V30 6936 N 663.289 -3.49335 6.09023 0
M  V30 6937 H 668.129 -0.282023 2.96662 0
M  V30 6938 H 665.666 -0.127494 1.46546 0
M  V30 6939 H 667.624 -2.75653 3.13163 0
M  V30 6940 H 666.254 -2.52211 2.01469 0
M  V30 6941 H 665.306 -0.803322 3.71821 0
M  V30 6942 H 666.618 -1.26679 4.82446 0
M  V30 6943 H 665.772 -3.62212 4.86711 0
M  V30 6944 H 664.511 -3.21134 3.67048 0
M  V30 6945 H 663.516 -1.55519 5.27346 0
M  V30 6946 H 664.741 -1.99247 6.49213 0
M  V30 6947 H 662.687 -3.8848 5.28601 0
M  V30 6948 H 662.604 -3.17064 6.86299 0
M  V30 6949 H 663.872 -4.30297 6.49973 0
M  V30 6950 N 668.101 -1.57061 -0.130224 0
M  V30 6951 C 669.048 -1.99517 -1.16024 0
M  V30 6952 C 670.018 -0.865452 -1.41771 0
M  V30 6953 O 671.203 -1.12882 -1.53826 0
M  V30 6954 C 668.343 -2.3951 -2.48453 0
M  V30 6955 C 667.456 -3.65848 -2.29737 0
M  V30 6956 C 666.591 -3.9487 -3.55318 0
M  V30 6957 C 665.63 -5.14426 -3.31711 0
M  V30 6958 N 664.767 -5.39375 -4.49466 0
M  V30 6959 H 669.607 -2.87305 -0.791194 0
M  V30 6960 H 667.144 -1.42129 -0.379195 0
M  V30 6961 H 669.102 -2.60731 -3.25692 0
M  V30 6962 H 667.732 -1.54779 -2.83272 0
M  V30 6963 H 666.784 -3.52307 -1.4347 0
M  V30 6964 H 668.096 -4.53241 -2.08263 0
M  V30 6965 H 667.25 -4.16679 -4.4098 0
M  V30 6966 H 665.989 -3.05931 -3.79813 0
M  V30 6967 H 664.994 -4.92473 -2.44439 0
M  V30 6968 H 666.219 -6.04933 -3.08598 0
M  V30 6969 H 664.165 -4.53391 -4.74102 0
M  V30 6970 H 664.082 -6.21069 -4.31055 0
M  V30 6971 H 665.35 -5.65694 -5.36293 0
M  V30 6972 N 669.579 0.400081 -1.52437 0
M  V30 6973 C 670.807 1.16768 -1.70801 0
M  V30 6974 C 671.222 1.84036 -0.421462 0
M  V30 6975 O 670.579 1.72242 0.603228 0
M  V30 6976 C 670.63 2.22403 -2.8499 0
M  V30 6977 O 670.351 1.57879 -4.08663 0
M  V30 6978 C 671.852 3.11974 -3.1494 0
M  V30 6979 H 669.072 0.350533 -0.57216 0
M  V30 6980 H 671.616 0.469534 -1.99037 0
M  V30 6981 H 669.771 2.87871 -2.59247 0
M  V30 6982 H 670.185 2.27982 -4.7236 0
M  V30 6983 H 671.659 3.82148 -3.9833 0
M  V30 6984 H 672.136 3.74858 -2.28863 0
M  V30 6985 H 672.742 2.52165 -3.42481 0
M  V30 6986 N 671.057 1.43213 0.657864 0
M  V30 6987 C 672.005 1.48271 1.79216 0
M  V30 6988 C 672.999 0.35675 1.65601 0
M  V30 6989 O 674.205 0.530535 1.72004 0
M  V30 6990 H 670.58 0.464729 0.591211 0
M  V30 6991 H 672.551 2.43792 1.7207 0
M  V30 6992 C 671.3 1.41837 3.17455 0
M  V30 6993 H 670.623 2.27781 3.28567 0
M  V30 6994 H 672.063 1.49438 3.96793 0
M  V30 6995 C 670.522 0.135347 3.36628 0
M  V30 6996 O 671.052 -0.805199 3.93547 0
M  V30 6997 N 669.258 0.0470316 2.90562 0
M  V30 6998 H 668.805 0.813221 2.44427 0
M  V30 6999 H 668.763 -0.810737 3.03767 0
M  V30 7000 N 672.536 -0.895792 1.29666 0
M  V30 7001 C 673.446 -2.03329 1.17024 0
M  V30 7002 C 674.462 -1.73753 0.0925962 0
M  V30 7003 O 675.638 -1.99071 0.305431 0
M  V30 7004 C 672.703 -3.36072 0.851841 0
M  V30 7005 C 671.764 -3.7914 2.01373 0
M  V30 7006 C 670.997 -5.05549 1.71043 0
M  V30 7007 O 671.22 -5.66874 0.633213 0
M  V30 7008 O 670.154 -5.44764 2.5596 0
M  V30 7009 H 673.98 -2.16918 2.12556 0
M  V30 7010 H 671.565 -1.02007 1.09156 0
M  V30 7011 H 673.447 -4.15729 0.689006 0
M  V30 7012 H 672.122 -3.23616 -0.0736634 0
M  V30 7013 H 671.029 -3.00233 2.23183 0
M  V30 7014 H 672.362 -3.96186 2.92058 0
M  V30 7015 N 674.014 -1.12206 -1.10668 0
M  V30 7016 C 674.924 -0.800686 -2.20513 0
M  V30 7017 C 675.94 0.209512 -1.72734 0
M  V30 7018 O 677.116 0.043705 -2.01353 0
M  V30 7019 C 674.181 -0.257353 -3.45744 0
M  V30 7020 C 673.242 -1.32718 -4.0827 0
M  V30 7021 C 672.475 -0.809674 -5.27522 0
M  V30 7022 O 672.698 0.35742 -5.69279 0
M  V30 7023 O 671.632 -1.57816 -5.80842 0
M  V30 7024 H 675.458 -1.71807 -2.50432 0
M  V30 7025 H 673.043 -0.898546 -1.19359 0
M  V30 7026 H 674.925 0.0408849 -4.2138 0
M  V30 7027 H 673.6 0.632627 -3.17458 0
M  V30 7028 H 672.507 -1.67855 -3.34329 0
M  V30 7029 H 673.84 -2.19083 -4.40753 0
M  V30 7030 N 675.492 1.28418 -0.913599 0
M  V30 7031 C 676.44 2.29272 -0.392037 0
M  V30 7032 C 677.434 1.61344 0.516198 0
M  V30 7033 O 678.64 1.75557 0.39746 0
M  V30 7034 H 675.015 0.744178 -0.108178 0
M  V30 7035 H 676.986 2.70691 -1.25574 0
M  V30 7036 C 675.735 3.45905 0.352815 0
M  V30 7037 H 675.058 3.98378 -0.336848 0
M  V30 7038 H 676.498 4.18473 0.682398 0
M  V30 7039 C 674.957 2.98572 1.56065 0
M  V30 7040 O 675.487 3.01033 2.65974 0
M  V30 7041 N 673.693 2.54235 1.40759 0
M  V30 7042 H 673.24 2.52432 0.513403 0
M  V30 7043 H 673.198 2.22925 2.21702 0
M  V30 7044 N 676.97 0.677563 1.42291 0
M  V30 7045 C 677.917 0.000947061 2.308 0
M  V30 7046 C 678.887 -0.789889 1.46116 0
M  V30 7047 O 680.072 -0.761578 1.74942 0
M  V30 7048 C 677.212 -0.942387 3.31984 0
M  V30 7049 C 676.325 -0.14508 4.31756 0
M  V30 7050 C 675.46 -1.08442 5.20013 0
M  V30 7051 C 674.499 -0.278958 6.11464 0
M  V30 7052 N 673.636 -1.17115 6.92263 0
M  V30 7053 H 678.476 0.761521 2.88106 0
M  V30 7054 H 676.013 0.38727 1.41911 0
M  V30 7055 H 677.971 -1.50317 3.89179 0
M  V30 7056 H 676.601 -1.66956 2.76271 0
M  V30 7057 H 675.653 0.532368 3.76656 0
M  V30 7058 H 676.965 0.48015 4.96484 0
M  V30 7059 H 676.119 -1.71504 5.81955 0
M  V30 7060 H 674.858 -1.74353 4.55469 0
M  V30 7061 H 673.863 0.364856 5.48588 0
M  V30 7062 H 675.088 0.376099 6.78058 0
M  V30 7063 H 673.034 -1.81661 6.30345 0
M  V30 7064 H 672.951 -0.601063 7.53607 0
M  V30 7065 H 674.219 -1.78915 7.58689 0
M  V30 7066 N 678.448 -1.51871 0.421078 0
M  V30 7067 C 679.396 -2.28903 -0.413066 0
M  V30 7068 C 680.39 -1.3408 -1.03532 0
M  V30 7069 O 681.596 -1.5149 -0.972146 0
M  V30 7070 H 677.971 -0.736478 -0.152003 0
M  V30 7071 H 679.942 -2.97285 0.257695 0
M  V30 7072 C 678.691 -3.13156 -1.51091 0
M  V30 7073 H 678.014 -3.85997 -1.04145 0
M  V30 7074 H 679.454 -3.7014 -2.06814 0
M  V30 7075 C 677.913 -2.27482 -2.48503 0
M  V30 7076 O 678.443 -1.92325 -3.52667 0
M  V30 7077 N 676.649 -1.91019 -2.18998 0
M  V30 7078 H 676.196 -2.19808 -1.34322 0
M  V30 7079 H 676.154 -1.3399 -2.84419 0
M  V30 7080 N 679.926 -0.151884 -1.56866 0
M  V30 7081 C 680.873 0.785936 -2.17006 0
M  V30 7082 C 681.843 1.2407 -1.10435 0
M  V30 7083 O 683.028 1.31235 -1.38499 0
M  V30 7084 C 680.168 2.01771 -2.79969 0
M  V30 7085 C 679.281 1.6083 -4.00946 0
M  V30 7086 C 678.416 2.79224 -4.51893 0
M  V30 7087 C 677.455 2.3468 -5.65324 0
M  V30 7088 N 676.592 3.461 -6.10867 0
M  V30 7089 H 681.432 0.266286 -2.96808 0
M  V30 7090 H 678.969 0.11972 -1.46612 0
M  V30 7091 H 680.927 2.73989 -3.14621 0
M  V30 7092 H 679.557 2.51139 -2.02803 0
M  V30 7093 H 678.609 0.783592 -3.72242 0
M  V30 7094 H 679.921 1.24119 -4.83111 0
M  V30 7095 H 679.075 3.59625 -4.88625 0
M  V30 7096 H 677.814 3.19183 -3.68746 0
M  V30 7097 H 676.819 1.52721 -5.28163 0
M  V30 7098 H 678.044 1.95801 -6.5026 0
M  V30 7099 H 675.99 3.85671 -5.30654 0
M  V30 7100 H 675.907 3.1342 -6.87971 0
M  V30 7101 H 677.175 4.26844 -6.52246 0
M  V30 7102 N 681.404 1.57128 0.121893 0
M  V30 7103 C 682.314 2.03425 1.16857 0
M  V30 7104 C 683.33 0.954108 1.45509 0
M  V30 7105 O 684.506 1.26541 1.56682 0
M  V30 7106 C 681.571 2.42685 2.47599 0
M  V30 7107 C 680.632 3.64767 2.2637 0
M  V30 7108 C 679.865 4.02145 3.50878 0
M  V30 7109 O 680.088 3.39897 4.58068 0
M  V30 7110 O 679.022 4.95262 3.42051 0
M  V30 7111 H 682.848 2.92825 0.80544 0
M  V30 7112 H 680.433 1.45654 0.332477 0
M  V30 7113 H 682.315 2.68684 3.24634 0
M  V30 7114 H 680.99 1.56432 2.83392 0
M  V30 7115 H 679.897 3.43922 1.47203 0
M  V30 7116 H 681.23 4.51716 1.95482 0
M  V30 7117 N 682.882 -0.391992 1.52647 0
M  V30 7118 C 683.829 -1.47866 1.77213 0
M  V30 7119 C 684.799 -1.54286 0.615223 0
M  V30 7120 O 685.984 -1.7059 0.854622 0
M  V30 7121 C 683.124 -2.85129 1.94411 0
M  V30 7122 C 682.237 -2.87883 3.22098 0
M  V30 7123 C 681.372 -4.16553 3.29631 0
M  V30 7124 C 680.411 -4.13348 4.51453 0
M  V30 7125 N 679.548 -5.33619 4.56284 0
M  V30 7126 H 684.388 -1.26219 2.6995 0
M  V30 7127 H 681.925 -0.612367 1.33748 0
M  V30 7128 H 683.883 -3.64833 2.02367 0
M  V30 7129 H 682.513 -3.05232 1.05038 0
M  V30 7130 H 681.565 -2.00567 3.23229 0
M  V30 7131 H 682.877 -2.81382 4.11856 0
M  V30 7132 H 682.031 -5.0466 3.36753 0
M  V30 7133 H 680.77 -4.25773 2.37842 0
M  V30 7134 H 679.775 -3.23629 4.44459 0
M  V30 7135 H 681 -4.05754 5.44555 0
M  V30 7136 H 678.946 -5.43474 3.67385 0
M  V30 7137 H 678.863 -5.29182 5.3991 0
M  V30 7138 H 680.131 -6.23632 4.67657 0
M  V30 7139 N 684.36 -1.4356 -0.65026 0
M  V30 7140 C 685.588 -1.48779 -1.43779 0
M  V30 7141 C 686.003 -0.106593 -1.88499 0
M  V30 7142 O 685.36 0.883766 -1.59674 0
M  V30 7143 C 685.411 -2.43618 -2.67081 0
M  V30 7144 O 685.132 -3.76367 -2.24231 0
M  V30 7145 C 686.633 -2.5811 -3.60409 0
M  V30 7146 H 683.853 -0.50521 -0.441593 0
M  V30 7147 H 686.397 -1.88332 -0.796941 0
M  V30 7148 H 684.552 -2.07253 -3.273 0
M  V30 7149 H 684.966 -4.27394 -3.0403 0
M  V30 7150 H 686.44 -3.28539 -4.43583 0
M  V30 7151 H 686.917 -1.627 -4.07953 0
M  V30 7152 H 687.523 -2.95298 -3.0607 0
M  V30 7153 N 685.838 0.888903 -1.30139 0
M  V30 7154 C 686.786 2.0156 -1.16088 0
M  V30 7155 C 687.78 1.69239 -0.0737413 0
M  V30 7156 O 688.986 1.78468 -0.234313 0
M  V30 7157 H 685.361 0.660825 -0.358907 0
M  V30 7158 H 687.332 2.10547 -2.11453 0
M  V30 7159 C 686.081 3.36758 -0.865426 0
M  V30 7160 H 685.404 3.62137 -1.69402 0
M  V30 7161 H 686.844 4.16246 -0.807192 0
M  V30 7162 C 685.303 3.34124 0.431577 0
M  V30 7163 O 685.833 3.7445 1.45431 0
M  V30 7164 N 684.039 2.87229 0.441321 0
M  V30 7165 H 683.586 2.54609 -0.391433 0
M  V30 7166 H 683.544 2.8585 1.30909 0
M  V30 7167 N 687.317 1.12792 1.10072 0
M  V30 7168 C 688.265 0.794523 2.18609 0
M  V30 7169 C 689.259 -0.220271 1.67962 0
M  V30 7170 O 690.465 -0.0780938 1.79831 0
M  V30 7171 H 686.84 0.239123 0.712969 0
M  V30 7172 H 688.811 1.71823 2.43966 0
M  V30 7173 C 687.56 0.269548 3.46654 0
M  V30 7174 H 686.883 1.04171 3.8599 0
M  V30 7175 H 688.323 0.0746242 4.23934 0
M  V30 7176 C 686.782 -1.00333 3.21613 0
M  V30 7177 O 687.312 -2.08042 3.4363 0
M  V30 7178 N 685.518 -0.931763 2.75257 0
M  V30 7179 H 685.065 -0.0551197 2.57541 0
M  V30 7180 H 685.023 -1.78405 2.58881 0
M  V30 7181 N 688.795 -1.27931 0.920396 0
M  V30 7182 C 689.725 -2.29487 0.431024 0
M  V30 7183 C 690.706 -1.62435 -0.504861 0
M  V30 7184 O 691.891 -1.89797 -0.411176 0
M  V30 7185 C 689.021 -3.45788 -0.323709 0
M  V30 7186 C 687.975 -4.24784 0.523658 0
M  V30 7187 C 687.301 -5.33488 -0.359809 0
M  V30 7188 C 688.601 -4.90874 1.78437 0
M  V30 7189 H 690.295 -2.70671 1.27975 0
M  V30 7190 H 687.841 -1.30121 0.616813 0
M  V30 7191 H 689.794 -4.15927 -0.676952 0
M  V30 7192 H 688.518 -3.03502 -1.2064 0
M  V30 7193 H 687.177 -3.56382 0.85951 0
M  V30 7194 H 686.825 -4.87445 -1.24124 0
M  V30 7195 H 686.525 -5.87247 0.203605 0
M  V30 7196 H 688.049 -6.06472 -0.708787 0
M  V30 7197 H 689.463 -5.53339 1.49963 0
M  V30 7198 H 687.86 -5.54659 2.29071 0
M  V30 7199 H 688.93 -4.14988 2.50824 0
M  V30 7200 N 690.273 -0.685099 -1.4193 0
M  V30 7201 C 691.22 -0.0131869 -2.30796 0
M  V30 7202 C 692.19 0.782129 -1.46533 0
M  V30 7203 O 693.375 0.75229 -1.75343 0
M  V30 7204 C 690.515 0.924768 -3.32479 0
M  V30 7205 C 689.628 0.122181 -4.31827 0
M  V30 7206 C 688.763 1.05682 -5.20581 0
M  V30 7207 C 687.802 0.246526 -6.11603 0
M  V30 7208 N 686.939 1.13442 -6.92875 0
M  V30 7209 H 691.779 -0.776789 -2.87698 0
M  V30 7210 H 689.316 -0.394791 -1.41703 0
M  V30 7211 H 691.274 1.48251 -3.89971 0
M  V30 7212 H 689.904 1.65488 -2.77152 0
M  V30 7213 H 688.956 -0.552335 -3.76369 0
M  V30 7214 H 690.268 -0.506473 -4.96222 0
M  V30 7215 H 689.422 1.68415 -5.82856 0
M  V30 7216 H 688.161 1.71935 -4.56388 0
M  V30 7217 H 687.166 -0.393944 -5.48387 0
M  V30 7218 H 688.391 -0.412053 -6.77849 0
M  V30 7219 H 686.337 1.78316 -6.313 0
M  V30 7220 H 686.254 0.561089 -7.53915 0
M  V30 7221 H 687.522 1.74889 -7.59628 0
M  V30 7222 N 691.751 1.51645 -0.429126 0
M  V30 7223 C 692.976 2.06917 0.141399 0
M  V30 7224 C 693.401 1.29527 1.36398 0
M  V30 7225 O 692.759 0.33094 1.78254 0
M  V30 7226 C 692.807 3.57776 0.4504 0
M  V30 7227 O 691.911 3.82639 1.53821 0
M  V30 7228 H 691.252 0.663978 0.0054647 0
M  V30 7229 H 693.782 1.95355 -0.608093 0
M  V30 7230 H 693.792 4.01894 0.703249 0
M  V30 7231 H 692.467 4.13532 -0.443213 0
M  V30 7232 H 691.044 3.5039 1.27597 0
M  V30 7233 N 693.229 0.160201 1.56784 0
M  V30 7234 C 694.506 -0.533355 1.88188 0
M  V30 7235 C 694.886 -1.82072 1.06831 0
M  V30 7236 O 694.234 -2.27946 0.158959 0
M  V30 7237 C 694.444 -0.786034 3.40033 0
M  V30 7238 C 695.792 -1.12097 4.09536 0
M  V30 7239 O 696.816 -0.874949 3.45287 0
M  V30 7240 O 695.675 -1.58457 5.23023 0
M  V30 7241 H 692.769 -0.273589 0.780434 0
M  V30 7242 H 695.315 0.197803 1.68543 0
M  V30 7243 H 694.087 0.124515 3.91102 0
M  V30 7244 H 693.71 -1.57091 3.65251 0
M  V30 7245 N 694.707 -1.5719 -0.113559 0
M  V30 7246 C 695.955 -1.84772 -0.818761 0
M  V30 7247 C 696.276 -0.746196 -1.80158 0
M  V30 7248 O 695.546 0.229305 -1.94553 0
M  V30 7249 H 694.126 -0.681737 -0.305359 0
M  V30 7250 H 696.788 -1.94645 -0.0995845 0
M  V30 7251 H 695.884 -2.80878 -1.36067 0
M  V30 7252 N 696.185 0.383891 -1.52853 0
M  V30 7253 C 697.41 1.154 -1.7233 0
M  V30 7254 C 697.835 1.82809 -0.44298 0
M  V30 7255 O 697.193 1.71026 0.601645 0
M  V30 7256 C 697.241 2.17386 -2.87708 0
M  V30 7257 O 696.345 3.24082 -2.55038 0
M  V30 7258 H 695.686 0.335709 -0.572883 0
M  V30 7259 H 698.216 0.44662 -1.99666 0
M  V30 7260 H 698.226 2.61296 -3.1335 0
M  V30 7261 H 696.901 1.6771 -3.80587 0
M  V30 7262 H 695.478 2.85273 -2.40153 0
M  V30 7263 N 697.663 1.43903 0.642637 0
M  V30 7264 C 698.61 1.49881 1.75512 0
M  V30 7265 C 699.58 0.347538 1.62423 0
M  V30 7266 O 700.765 0.556177 1.82514 0
M  V30 7267 C 697.905 1.43797 3.13714 0
M  V30 7268 C 697.018 2.6921 3.37861 0
M  V30 7269 C 696.153 2.5504 4.6597 0
M  V30 7270 C 695.192 3.75671 4.83257 0
M  V30 7271 N 694.329 3.60247 6.02633 0
M  V30 7272 H 699.169 2.44935 1.69737 0
M  V30 7273 H 696.706 1.21572 0.828165 0
M  V30 7274 H 698.664 1.38262 3.93624 0
M  V30 7275 H 697.294 0.523173 3.18532 0
M  V30 7276 H 696.346 2.8498 2.51973 0
M  V30 7277 H 697.658 3.58786 3.46517 0
M  V30 7278 H 696.812 2.47273 5.54023 0
M  V30 7279 H 695.551 1.63006 4.59653 0
M  V30 7280 H 694.556 3.83836 3.93637 0
M  V30 7281 H 695.781 4.68728 4.91397 0
M  V30 7282 H 693.727 2.70955 5.97427 0
M  V30 7283 H 693.644 4.43431 6.12295 0
M  V30 7284 H 694.912 3.56351 6.93278 0
M  V30 7285 O 699.18 -0.78588 1.41089 0
M  V30 7286 H 699.871 -1.43226 1.30407 0
M  V30 END ATOM
M  V30 BEGIN BOND
M  V30 END BOND
M  V30 END CTAB
M  END
$$$$
