drugbank_target|P05187 Alkaline phosphatase, placental type (DB01373; DB08413)
 OpenBabel12092120513D

  0  0  0     0  0            999 V3000
M  V30 BEGIN CTAB
M  V30 COUNTS 8104 8191 0 0 0
M  V30 BEGIN ATOM
M  V30 1 H -0.908 1.98254 -0.117106 0
M  V30 2 N 0 1.576 0 0
M  V30 3 C 0.933 2.03868 1.02534 0
M  V30 4 C 1.911 0.928543 1.3348 0
M  V30 5 O 3.095 1.19667 1.45644 0
M  V30 6 C 0.222 2.43627 2.35294 0
M  V30 7 C -0.732 3.65373 2.2001 0
M  V30 8 S 0.101 5.13292 1.52614 0
M  V30 9 C 1.257 5.56322 2.86805 0
M  V30 10 H 1.49 2.90518 0.631377 0
M  V30 11 H -0.977 1.52953 0.210867 0
M  V30 12 H 0.981 2.67203 3.11629 0
M  V30 13 H -0.358 1.57376 2.7183 0
M  V30 14 H -1.165 3.90944 3.18086 0
M  V30 15 H -1.563 3.418 1.51819 0
M  V30 16 H 0.729 5.58782 3.83104 0
M  V30 17 H 1.672 6.56266 2.65933 0
M  V30 18 H 2.08 4.83886 2.90714 0
M  V30 19 N 1.4781 -0.272755 1.55222 0
M  V30 20 C 2.4081 -1.34136 1.91127 0
M  V30 21 C 3.3891 -1.51513 0.773168 0
M  V30 22 O 4.5741 -1.64552 1.03132 0
M  V30 23 C 1.7041 -2.70083 2.1834 0
M  V30 24 C 0.6581 -2.67437 3.34158 0
M  V30 25 C -0.0159 -4.06938 3.46851 0
M  V30 26 C 1.2841 -2.26686 4.70543 0
M  V30 27 H 2.9781 -1.04333 2.80633 0
M  V30 28 H 0.5241 -0.500454 1.35024 0
M  V30 29 H 2.4771 -3.44952 2.42046 0
M  V30 30 H 1.2011 -3.01469 1.25634 0
M  V30 31 H -0.1399 -1.95026 3.1042 0
M  V30 32 H -0.4919 -4.35547 2.51611 0
M  V30 33 H -0.7919 -4.06062 4.2472 0
M  V30 34 H 0.7321 -4.83545 3.72849 0
M  V30 35 H 2.1461 -2.91277 4.93792 0
M  V30 36 H 0.5431 -2.36971 5.5133 0
M  V30 37 H 1.6131 -1.21818 4.69349 0
M  V30 38 N 2.9562 -1.48159 -0.537278 0
M  V30 39 C 4.2042 -1.55497 -1.29094 0
M  V30 40 C 4.5252 -0.227454 -1.93669 0
M  V30 41 O 3.7952 0.750386 -1.80959 0
M  V30 42 H 2.3752 -0.572832 -0.47945 0
M  V30 43 H 5.0372 -1.84579 -0.625818 0
M  V30 44 H 4.1332 -2.33216 -2.07405 0
M  V30 45 N 4.4343 0.785586 -1.36625 0
M  V30 46 C 5.8453 1.36101 -1.27803 0
M  V30 47 C 6.1963 1.96035 0.0804875 0
M  V30 48 O 5.3213 1.92834 0.982042 0
M  V30 49 C 5.9163 2.47442 -2.31426 0
M  V30 50 C 4.4753 3.00789 -2.26281 0
M  V30 51 C 3.6223 1.73896 -2.15999 0
M  V30 52 H 6.5733 0.586928 -1.47448 0
M  V30 53 H 6.5943 3.2656 -1.95291 0
M  V30 54 H 6.1063 2.03791 -3.30289 0
M  V30 55 H 4.2073 3.48851 -1.30896 0
M  V30 56 H 4.3203 3.57343 -3.19128 0
M  V30 57 H 2.6843 1.9628 -1.62316 0
M  V30 58 H 3.4673 1.32368 -3.16755 0
M  V30 59 N 5.9124 1.20967 1.01018 0
M  V30 60 C 7.1524 1.03511 1.76252 0
M  V30 61 C 7.5164 -0.42458 1.87247 0
M  V30 62 O 8.7174 -0.719508 2.58991 0
M  V30 63 C 6.9884 1.70726 3.13986 0
M  V30 64 S 8.5474 1.68458 4.05176 0
M  V30 65 H 5.3654 0.371037 0.606508 0
M  V30 66 H 7.9674 1.53628 1.20908 0
M  V30 67 H 6.6714 2.76128 3.03614 0
M  V30 68 H 6.2024 1.20767 3.74405 0
M  V30 69 H 8.2174 0.721987 4.90919 0
M  V30 70 N 7.3905 -1.2043 1.01659 0
M  V30 71 C 8.3235 -2.21924 0.531521 0
M  V30 72 C 9.3015 -1.57054 -0.421032 0
M  V30 73 O 10.4855 -1.85389 -0.341035 0
M  V30 74 C 7.6125 -3.37942 -0.226496 0
M  V30 75 C 6.6585 -4.21115 0.67561 0
M  V30 76 S 7.4915 -4.90674 2.14475 0
M  V30 77 C 8.6475 -6.10113 1.3969 0
M  V30 78 H 8.8805 -2.62725 1.3915 0
M  V30 79 H 6.4135 -1.30481 0.825479 0
M  V30 80 H 8.3715 -4.05196 -0.657738 0
M  V30 81 H 7.0325 -2.956 -1.06205 0
M  V30 82 H 6.2255 -5.03918 0.091108 0
M  V30 83 H 5.8275 -3.59115 1.04463 0
M  V30 84 H 8.1195 -6.7411 0.676897 0
M  V30 85 H 9.0625 -6.73022 2.20107 0
M  V30 86 H 9.4705 -5.57283 0.899786 0
M  V30 87 N 8.8686 -0.792821 -1.36206 0
M  V30 88 C 9.7986 -0.207853 -2.32573 0
M  V30 89 C 10.7796 0.659055 -1.56813 0
M  V30 90 O 11.9646 0.592176 -1.84951 0
M  V30 91 C 9.0946 0.655449 -3.41059 0
M  V30 92 C 8.0486 -0.111842 -4.27854 0
M  V30 93 C 7.3746 0.872274 -5.27537 0
M  V30 94 C 8.6746 -1.30299 -5.05786 0
M  V30 95 H 10.3686 -1.01294 -2.81744 0
M  V30 96 H 7.9146 -0.48854 -1.3546 0
M  V30 97 H 9.8676 1.07464 -4.07467 0
M  V30 98 H 8.5916 1.49328 -2.90463 0
M  V30 99 H 7.2506 -0.512053 -3.63006 0
M  V30 100 H 6.8986 1.70523 -4.73214 0
M  V30 101 H 6.5986 0.363291 -5.86476 0
M  V30 102 H 8.1226 1.28996 -5.96818 0
M  V30 103 H 9.5366 -0.959379 -5.65216 0
M  V30 104 H 7.9336 -1.7455 -5.74154 0
M  V30 105 H 9.0036 -2.09663 -4.37229 0
M  V30 106 N 10.3467 1.47872 -0.545128 0
M  V30 107 C 11.2767 2.32661 0.197793 0
M  V30 108 C 12.2577 1.43041 0.920504 0
M  V30 109 O 13.4427 1.71912 0.90333 0
M  V30 110 C 10.5727 3.24569 1.23582 0
M  V30 111 C 9.5267 4.23333 0.630323 0
M  V30 112 C 8.8527 5.0448 1.77211 0
M  V30 113 C 10.1527 5.20704 -0.407974 0
M  V30 114 H 11.8467 2.95024 -0.510045 0
M  V30 115 H 9.3927 1.4187 -0.246731 0
M  V30 116 H 11.3457 3.8272 1.76362 0
M  V30 117 H 10.0697 2.60236 1.97344 0
M  V30 118 H 8.7287 3.6639 0.123922 0
M  V30 119 H 8.3767 4.36561 2.49847 0
M  V30 120 H 8.0767 5.71339 1.37281 0
M  V30 121 H 9.6007 5.65487 2.3034 0
M  V30 122 H 11.0147 5.7329 0.033305 0
M  V30 123 H 9.4117 5.95699 -0.725486 0
M  V30 124 H 10.4817 4.66917 -1.30828 0
M  V30 125 N 11.8248 0.280983 1.55075 0
M  V30 126 C 12.7548 -0.597469 2.25727 0
M  V30 127 C 13.7358 -1.15417 1.24952 0
M  V30 128 O 14.9208 -1.18722 1.53684 0
M  V30 129 C 12.0508 -1.7789 2.98283 0
M  V30 130 C 11.0048 -1.35347 4.06036 0
M  V30 131 C 10.3308 -2.61846 4.66198 0
M  V30 132 C 11.6308 -0.499354 5.19907 0
M  V30 133 H 13.3248 -0.00824265 2.99399 0
M  V30 134 H 10.8708 -0.0025244 1.44 0
M  V30 135 H 12.8238 -2.39937 3.46422 0
M  V30 136 H 11.5478 -2.39405 2.22155 0
M  V30 137 H 10.2068 -0.756156 3.58717 0
M  V30 138 H 9.8548 -3.21632 3.86732 0
M  V30 139 H 9.5548 -2.3409 5.38958 0
M  V30 140 H 11.0788 -3.24732 5.1709 0
M  V30 141 H 12.4928 -1.02498 5.64063 0
M  V30 142 H 10.8898 -0.316424 5.99265 0
M  V30 143 H 11.9598 0.480459 4.82514 0
M  V30 144 N 13.3029 -1.57598 0.00835791 0
M  V30 145 C 14.2329 -2.1198 -0.979113 0
M  V30 146 C 15.2139 -1.03091 -1.35301 0
M  V30 147 O 16.3989 -1.30818 -1.43528 0
M  V30 148 C 13.5289 -2.62995 -2.26828 0
M  V30 149 C 12.4829 -3.76485 -2.03576 0
M  V30 150 C 11.8089 -4.13846 -3.38579 0
M  V30 151 C 13.1089 -5.0342 -1.39161 0
M  V30 152 H 14.8029 -2.94738 -0.526281 0
M  V30 153 H 12.3489 -1.41783 -0.251704 0
M  V30 154 H 14.3019 -2.99669 -2.96271 0
M  V30 155 H 13.0259 -1.7737 -2.7424 0
M  V30 156 H 11.6849 -3.40217 -1.36557 0
M  V30 157 H 11.3329 -3.25232 -3.83709 0
M  V30 158 H 11.0329 -4.90312 -3.23834 0
M  V30 159 H 12.5569 -4.53086 -4.09323 0
M  V30 160 H 13.9709 -5.37812 -1.98573 0
M  V30 161 H 12.3679 -5.84746 -1.34878 0
M  V30 162 H 13.4379 -4.83548 -0.361868 0
M  V30 163 N 14.781 0.264519 -1.55364 0
M  V30 164 C 15.711 1.33121 -1.91836 0
M  V30 165 C 16.692 1.51101 -0.781192 0
M  V30 166 O 17.877 1.64003 -1.04003 0
M  V30 167 C 15.007 2.68921 -2.19769 0
M  V30 168 C 13.961 2.65661 -3.35571 0
M  V30 169 C 13.287 4.05093 -3.49004 0
M  V30 170 C 14.587 2.24187 -4.71739 0
M  V30 171 H 16.281 1.02844 -2.81182 0
M  V30 172 H 13.827 0.493286 -1.35287 0
M  V30 173 H 15.78 3.43663 -2.43872 0
M  V30 174 H 14.504 3.00799 -1.27231 0
M  V30 175 H 13.163 1.93377 -3.1145 0
M  V30 176 H 12.811 4.34206 -2.53917 0
M  V30 177 H 12.511 4.03804 -4.26868 0
M  V30 178 H 14.035 4.81561 -3.75408 0
M  V30 179 H 15.449 2.88654 -4.9533 0
M  V30 180 H 13.846 2.34044 -5.52579 0
M  V30 181 H 14.916 1.19327 -4.69988 0
M  V30 182 N 16.2591 1.48442 0.529413 0
M  V30 183 C 17.1891 1.65902 1.64313 0
M  V30 184 C 18.1701 0.507897 1.6234 0
M  V30 185 O 19.3551 0.740503 1.79528 0
M  V30 186 C 16.4851 1.69911 3.02898 0
M  V30 187 C 15.4391 2.8453 3.19729 0
M  V30 188 C 14.7651 2.73629 4.59381 0
M  V30 189 C 16.0651 4.25821 3.02447 0
M  V30 190 H 17.7591 2.5914 1.49955 0
M  V30 191 H 15.3051 1.24709 0.719982 0
M  V30 192 H 17.2581 1.80715 3.80684 0
M  V30 193 H 15.9821 0.732524 3.18279 0
M  V30 194 H 14.6411 2.73283 2.44361 0
M  V30 195 H 14.2891 1.74938 4.71599 0
M  V30 196 H 13.9891 3.50541 4.71588 0
M  V30 197 H 15.5131 2.86401 5.39265 0
M  V30 198 H 16.9271 4.37898 3.70024 0
M  V30 199 H 15.3241 5.03735 3.26146 0
M  V30 200 H 16.3941 4.42244 1.98867 0
M  V30 201 N 17.7372 -0.778329 1.37039 0
M  V30 202 C 18.6672 -1.90546 1.34962 0
M  V30 203 C 19.6482 -1.68681 0.219274 0
M  V30 204 O 20.8332 -1.89634 0.418624 0
M  V30 205 C 17.9632 -3.27734 1.14925 0
M  V30 206 C 16.9172 -3.64147 2.24902 0
M  V30 207 C 16.2432 -4.99806 1.89996 0
M  V30 208 C 17.5432 -3.71579 3.67051 0
M  V30 209 H 19.2372 -1.92541 2.29277 0
M  V30 210 H 16.7832 -0.924948 1.10366 0
M  V30 211 H 18.7362 -4.06215 1.12104 0
M  V30 212 H 17.4602 -3.26154 0.170631 0
M  V30 213 H 16.1192 -2.8797 2.26868 0
M  V30 214 H 15.7672 -4.94759 0.906796 0
M  V30 215 H 15.4672 -5.25139 2.63634 0
M  V30 216 H 16.9912 -5.80694 1.88749 0
M  V30 217 H 18.4052 -4.40227 3.67251 0
M  V30 218 H 16.8022 -4.08405 4.39688 0
M  V30 219 H 17.8722 -2.72404 4.01154 0
M  V30 220 N 19.2153 -1.21501 -1.00376 0
M  V30 221 C 20.4633 -1.03095 -1.73827 0
M  V30 222 C 20.7843 0.436341 -1.90055 0
M  V30 223 O 20.0543 1.31466 -1.45236 0
M  V30 224 H 18.6343 -0.378487 -0.644016 0
M  V30 225 H 21.2963 -1.52831 -1.20949 0
M  V30 226 H 20.3923 -1.49991 -2.73695 0
M  V30 227 N 20.6934 1.19889 -1.02296 0
M  V30 228 C 21.6234 2.25141 -0.619174 0
M  V30 229 C 22.6044 1.66051 0.368915 0
M  V30 230 O 23.7894 1.92546 0.252941 0
M  V30 231 C 20.9194 3.4728 0.0368783 0
M  V30 232 C 19.8734 4.19005 -0.872865 0
M  V30 233 C 19.1994 5.34637 -0.0822402 0
M  V30 234 C 20.4994 4.74452 -2.18387 0
M  V30 235 H 22.1934 2.59171 -1.49903 0
M  V30 236 H 19.7394 1.24579 -0.722222 0
M  V30 237 H 21.6924 4.20098 0.330958 0
M  V30 238 H 20.4164 3.12433 0.95149 0
M  V30 239 H 19.0754 3.48061 -1.15105 0
M  V30 240 H 18.7234 4.96034 0.83422 0
M  V30 241 H 18.4234 5.83557 -0.688149 0
M  V30 242 H 19.9474 6.10255 0.205238 0
M  V30 243 H 21.3614 5.39055 -1.95172 0
M  V30 244 H 19.7584 5.33834 -2.74119 0
M  V30 245 H 20.8284 3.92844 -2.84257 0
M  V30 246 N 22.1715 0.800033 1.35784 0
M  V30 247 C 23.5875 0.482977 1.52117 0
M  V30 248 C 23.7875 -0.996948 1.75109 0
M  V30 249 O 22.8435 -1.78216 1.78872 0
M  V30 250 C 24.1565 1.32264 2.70049 0
M  V30 251 C 25.7045 1.31742 2.83924 0
M  V30 252 C 26.1795 2.14106 4.04874 0
M  V30 253 N 27.6705 2.11607 4.12039 0
M  V30 254 C 28.4055 2.72099 5.04727 0
M  V30 255 N 27.9015 3.41492 6.02789 0
M  V30 256 N 29.6945 2.61776 4.97423 0
M  V30 257 H 21.8455 1.75856 1.19115 0
M  V30 258 H 24.1085 0.748122 0.582252 0
M  V30 259 H 23.8145 2.37261 2.59616 0
M  V30 260 H 23.6885 0.971303 3.6448 0
M  V30 261 H 26.0755 0.275333 2.93813 0
M  V30 262 H 26.1565 1.70859 1.9037 0
M  V30 263 H 25.8005 3.18351 3.95746 0
M  V30 264 H 25.7305 1.72353 4.97596 0
M  V30 265 H 28.2215 1.61112 3.41835 0
M  V30 266 H 28.5345 3.84953 6.70098 0
M  V30 267 H 26.8795 3.45596 6.02983 0
M  V30 268 H 30.0705 2.07157 4.19766 0
M  V30 269 H 30.2435 3.0921 5.69468 0
M  V30 270 N 23.6496 -1.47581 0.552962 0
M  V30 271 C 24.5796 -2.32762 -0.185451 0
M  V30 272 C 25.5606 -1.43527 -0.912905 0
M  V30 273 O 26.7456 -1.72388 -0.894201 0
M  V30 274 C 23.8756 -3.25219 -1.21859 0
M  V30 275 C 22.8296 -4.23661 -0.607864 0
M  V30 276 C 22.1556 -5.05413 -1.74533 0
M  V30 277 C 23.4556 -5.20481 0.435582 0
M  V30 278 H 25.1496 -2.94749 0.525684 0
M  V30 279 H 22.6956 -1.41738 0.254251 0
M  V30 280 H 24.6486 -3.8365 -1.7433 0
M  V30 281 H 23.3726 -2.61279 -1.95961 0
M  V30 282 H 22.0316 -3.66451 -0.104489 0
M  V30 283 H 21.6796 -4.3788 -2.47529 0
M  V30 284 H 21.3796 -5.72059 -1.34249 0
M  V30 285 H 22.9036 -5.66701 -2.27338 0
M  V30 286 H 24.3176 -5.733 -0.00290157 0
M  V30 287 H 22.7146 -5.95305 0.757067 0
M  V30 288 H 23.7846 -4.66217 1.33303 0
M  V30 289 N 25.1277 -0.289203 -1.54924 0
M  V30 290 C 26.0597 0.625583 -2.20497 0
M  V30 291 C 27.0727 1.10667 -1.19402 0
M  V30 292 O 28.2617 1.02615 -1.46056 0
M  V30 293 C 25.3617 1.86702 -2.82835 0
M  V30 294 C 24.5347 1.5304 -4.09753 0
M  V30 295 C 23.5937 2.62576 -4.56005 0
M  V30 296 O 22.6197 2.28167 -5.21468 0
M  V30 297 N 23.8217 3.92901 -4.27328 0
M  V30 298 H 26.5867 0.0642801 -2.99631 0
M  V30 299 H 24.1477 -0.110896 -1.6152 0
M  V30 300 H 26.1397 2.59304 -3.10715 0
M  V30 301 H 24.7097 2.33702 -2.07611 0
M  V30 302 H 23.9297 0.637564 -3.8901 0
M  V30 303 H 25.2177 1.28072 -4.92418 0
M  V30 304 H 24.6157 4.23671 -3.74859 0
M  V30 305 H 23.1727 4.61837 -4.59946 0
M  V30 306 N 26.6058 1.57591 -0.0167156 0
M  V30 307 C 27.5358 2.12496 0.967858 0
M  V30 308 C 28.5168 1.03807 1.34752 0
M  V30 309 O 29.7018 1.31577 1.42833 0
M  V30 310 C 26.8318 2.64194 2.25431 0
M  V30 311 C 25.7858 3.77559 2.01576 0
M  V30 312 C 25.1118 4.15636 3.36379 0
M  V30 313 C 26.4118 5.04151 1.36489 0
M  V30 314 H 28.1058 2.95013 0.510643 0
M  V30 315 H 25.6518 1.41915 0.244181 0
M  V30 316 H 27.6048 3.01236 2.94678 0
M  V30 317 H 26.3288 1.78821 2.73296 0
M  V30 318 H 24.9878 3.40937 1.34751 0
M  V30 319 H 24.6358 3.27263 3.81979 0
M  V30 320 H 24.3358 4.92022 3.21229 0
M  V30 321 H 25.8598 4.5525 4.06915 0
M  V30 322 H 27.2738 5.38857 1.95718 0
M  V30 323 H 25.6708 5.85453 1.31776 0
M  V30 324 H 26.7408 4.83733 0.336219 0
M  V30 325 N 28.0839 -0.256276 1.55502 0
M  V30 326 C 29.3089 -1.00766 1.81276 0
M  V30 327 C 29.7339 -1.78524 0.59252 0
M  V30 328 O 29.0919 -1.75413 -0.45827 0
M  V30 329 C 29.1399 -1.92869 3.04687 0
M  V30 330 O 28.2439 -3.019 2.80945 0
M  V30 331 H 27.5849 -0.287224 0.598664 0
M  V30 332 H 30.1149 -0.280109 2.02674 0
M  V30 333 H 30.1249 -2.34511 3.33869 0
M  V30 334 H 28.7999 -1.35689 3.93143 0
M  V30 335 H 27.3769 -2.64454 2.62904 0
M  V30 336 N 29.562 -1.4872 -0.521534 0
M  V30 337 C 30.492 -1.66771 -1.63431 0
M  V30 338 C 31.473 -0.516499 -1.62069 0
M  V30 339 O 32.658 -0.750013 -1.79132 0
M  V30 340 C 29.788 -1.71515 -3.01993 0
M  V30 341 C 28.742 -2.86222 -3.18216 0
M  V30 342 C 28.068 -2.76061 -4.57924 0
M  V30 343 C 29.368 -4.27419 -3.00184 0
M  V30 344 H 31.062 -2.59932 -1.48579 0
M  V30 345 H 28.608 -1.25089 -0.713358 0
M  V30 346 H 30.561 -1.82731 -3.7972 0
M  V30 347 H 29.285 -0.749393 -3.17886 0
M  V30 348 H 27.944 -2.74575 -2.42908 0
M  V30 349 H 27.592 -1.77437 -4.70665 0
M  V30 350 H 27.292 -3.53037 -4.69722 0
M  V30 351 H 28.816 -2.89256 -5.37739 0
M  V30 352 H 30.23 -4.39855 -3.67697 0
M  V30 353 H 28.627 -5.05458 -3.2347 0
M  V30 354 H 29.697 -4.43293 -1.96518 0
M  V30 355 N 31.0401 0.771051 -1.3745 0
M  V30 356 C 32.2881 1.52661 -1.32435 0
M  V30 357 C 32.6091 1.9479 0.0905024 0
M  V30 358 O 31.8791 1.66348 1.03466 0
M  V30 359 H 30.4591 0.566218 -0.487244 0
M  V30 360 H 33.1211 0.917636 -1.71946 0
M  V30 361 H 32.2171 2.42568 -1.96385 0
M  V30 362 N 32.5182 1.22032 0.997298 0
M  V30 363 C 33.7672 1.03637 1.73038 0
M  V30 364 C 34.0802 -0.429475 1.90827 0
M  V30 365 O 35.2862 -0.732995 2.61418 0
M  V30 366 C 33.7422 1.80582 3.11317 0
M  V30 367 C 33.3502 3.31387 3.01474 0
M  V30 368 C 35.0942 1.70621 3.88701 0
M  V30 369 C 33.0012 4.00791 4.3488 0
M  V30 370 H 31.9312 0.384179 0.648785 0
M  V30 371 H 34.5822 1.4584 1.11368 0
M  V30 372 H 32.9642 1.31175 3.73643 0
M  V30 373 H 34.1382 3.88155 2.4834 0
M  V30 374 H 32.4532 3.41976 2.37575 0
M  V30 375 H 35.0502 2.19799 4.87434 0
M  V30 376 H 35.3932 0.665823 4.10941 0
M  V30 377 H 35.9262 2.17547 3.33044 0
M  V30 378 H 32.6652 5.05064 4.1784 0
M  V30 379 H 32.1852 3.48811 4.87945 0
M  V30 380 H 33.8642 4.06139 5.03647 0
M  V30 381 N 33.9963 -1.19345 1.0293 0
M  V30 382 C 35.2453 -1.88363 0.721256 0
M  V30 383 C 35.5583 -1.80514 -0.753254 0
M  V30 384 O 36.7643 -2.44788 -1.17436 0
M  V30 385 C 35.2203 -3.37872 1.23978 0
M  V30 386 C 34.8283 -3.54278 2.74211 0
M  V30 387 C 36.5723 -4.12365 1.00775 0
M  V30 388 C 34.4793 -4.97682 3.19479 0
M  V30 389 H 33.4093 -0.705484 0.266098 0
M  V30 390 H 36.0603 -1.34928 1.24365 0
M  V30 391 H 34.4423 -3.90707 0.6453 0
M  V30 392 H 35.6163 -3.11769 3.39318 0
M  V30 393 H 33.9313 -2.93174 2.95699 0
M  V30 394 H 36.5283 -5.18119 1.32123 0
M  V30 395 H 36.8713 -4.16263 -0.0554308 0
M  V30 396 H 37.4043 -3.65668 1.56625 0
M  V30 397 H 34.1433 -4.98945 4.25128 0
M  V30 398 H 33.6633 -5.4095 2.591 0
M  V30 399 H 35.3423 -5.66337 3.12845 0
M  V30 400 N 35.4744 -0.807222 -1.35358 0
M  V30 401 C 36.8854 -0.44876 -1.81226 0
M  V30 402 C 37.2364 1.02929 -1.67033 0
M  V30 403 O 36.3614 1.79991 -1.20133 0
M  V30 404 C 36.9564 -0.807774 -3.2903 0
M  V30 405 C 35.5154 -0.501901 -3.73039 0
M  V30 406 C 34.6624 -1.03304 -2.57339 0
M  V30 407 H 37.6134 -0.998808 -1.23327 0
M  V30 408 H 37.6344 -0.10554 -3.80354 0
M  V30 409 H 37.1464 -1.88357 -3.39328 0
M  V30 410 H 35.2474 0.565128 -3.68289 0
M  V30 411 H 35.3604 -1.03497 -4.67787 0
M  V30 412 H 33.7244 -0.455339 -2.50597 0
M  V30 413 H 34.5074 -2.11496 -2.70415 0
M  V30 414 N 36.9525 1.47285 -0.560781 0
M  V30 415 C 38.1985 2.02764 -0.0381184 0
M  V30 416 C 38.5315 1.43384 1.30976 0
M  V30 417 O 37.8065 0.590733 1.85312 0
M  V30 418 C 38.0895 3.60064 0.0511427 0
M  V30 419 C 37.9425 4.2987 -1.32408 0
M  V30 420 C 39.2615 4.33439 0.762795 0
M  V30 421 H 36.3805 0.736841 -0.0153264 0
M  V30 422 H 39.0225 1.75675 -0.723759 0
M  V30 423 H 37.1725 3.83274 0.635065 0
M  V30 424 H 38.8445 4.17989 -1.95148 0
M  V30 425 H 37.0875 3.90085 -1.8978 0
M  V30 426 H 37.7585 5.38478 -1.21431 0
M  V30 427 H 40.2345 4.15243 0.266965 0
M  V30 428 H 39.1105 5.43124 0.794221 0
M  V30 429 H 39.3715 4.02915 1.81966 0
M  V30 430 N 38.4306 0.297415 1.54768 0
M  V30 431 C 39.3406 -0.58983 2.27064 0
M  V30 432 C 40.3566 -1.15144 1.30453 0
M  V30 433 O 41.5326 -1.17699 1.63428 0
M  V30 434 C 38.5976 -1.74714 2.9946 0
M  V30 435 C 37.6586 -1.21997 4.11601 0
M  V30 436 C 36.8916 -2.32212 4.80535 0
M  V30 437 O 37.1146 -3.52036 4.48806 0
M  V30 438 O 36.0486 -1.99106 5.68014 0
M  V30 439 H 39.8746 -0.00348199 3.037 0
M  V30 440 H 37.4596 0.0640035 1.49263 0
M  V30 441 H 39.3416 -2.42147 3.44881 0
M  V30 442 H 38.0166 -2.32016 2.25722 0
M  V30 443 H 36.9236 -0.511458 3.70587 0
M  V30 444 H 38.2566 -0.692419 4.87305 0
M  V30 445 N 39.9087 -1.5758 0.0250728 0
M  V30 446 C 40.8187 -2.1343 -0.973905 0
M  V30 447 C 41.8347 -1.08556 -1.35984 0
M  V30 448 O 43.0107 -1.40592 -1.44207 0
M  V30 449 C 40.0757 -2.64703 -2.23904 0
M  V30 450 C 39.1367 -3.84276 -1.91391 0
M  V30 451 C 38.3697 -4.33095 -3.11873 0
M  V30 452 O 38.5927 -3.81107 -4.24398 0
M  V30 453 O 37.5267 -5.24984 -2.94406 0
M  V30 454 H 41.3527 -2.99057 -0.529036 0
M  V30 455 H 38.9377 -1.48118 -0.195288 0
M  V30 456 H 40.8197 -2.97769 -2.98181 0
M  V30 457 H 39.4947 -1.82161 -2.6758 0
M  V30 458 H 38.4017 -3.56143 -1.14511 0
M  V30 459 H 39.7347 -4.67968 -1.52534 0
M  V30 460 N 41.3868 0.248026 -1.55636 0
M  V30 461 C 42.2968 1.32859 -1.93354 0
M  V30 462 C 43.3128 1.52719 -0.833838 0
M  V30 463 O 44.4888 1.66363 -1.13513 0
M  V30 464 C 41.5538 2.66337 -2.21958 0
M  V30 465 C 40.6148 2.55008 -3.45354 0
M  V30 466 C 39.8478 3.82121 -3.72584 0
M  V30 467 O 40.0708 4.83951 -3.01907 0
M  V30 468 O 39.0048 3.80822 -4.6611 0
M  V30 469 H 42.8308 1.03862 -2.85388 0
M  V30 470 H 40.4158 0.448686 -1.42503 0
M  V30 471 H 42.2978 3.45216 -2.4167 0
M  V30 472 H 40.9728 2.95068 -1.33103 0
M  V30 473 H 39.8798 1.7442 -3.30951 0
M  V30 474 H 41.2128 2.31222 -4.34508 0
M  V30 475 N 42.8649 1.48995 0.513639 0
M  V30 476 C 43.8129 1.65199 1.63744 0
M  V30 477 C 44.8069 0.51809 1.61283 0
M  V30 478 O 46.0129 0.697335 1.65943 0
M  V30 479 H 42.3879 0.52069 0.542574 0
M  V30 480 H 44.3589 2.59552 1.47226 0
M  V30 481 C 43.1079 1.72409 3.01945 0
M  V30 482 H 42.4309 2.59029 3.04539 0
M  V30 483 H 43.8709 1.87785 3.80148 0
M  V30 484 C 42.3299 0.46618 3.33659 0
M  V30 485 O 42.8599 -0.413744 3.99564 0
M  V30 486 N 41.0659 0.332931 2.88687 0
M  V30 487 H 40.6129 1.04996 2.35231 0
M  V30 488 H 40.5709 -0.507665 3.10274 0
M  V30 489 N 44.343 -0.763751 1.37857 0
M  V30 490 C 45.754 -1.3405 1.29952 0
M  V30 491 C 46.105 -1.96138 -0.0492898 0
M  V30 492 O 45.23 -1.94372 -0.951239 0
M  V30 493 C 45.825 -2.43729 2.35333 0
M  V30 494 C 44.384 -2.97151 2.31037 0
M  V30 495 C 43.531 -1.70438 2.18738 0
M  V30 496 H 46.482 -0.563396 1.48363 0
M  V30 497 H 46.503 -3.23412 2.00462 0
M  V30 498 H 46.015 -1.9851 3.33489 0
M  V30 499 H 44.116 -3.46724 1.3643 0
M  V30 500 H 44.229 -3.52221 3.24772 0
M  V30 501 H 42.593 -1.93673 1.65418 0
M  V30 502 H 43.376 -1.27312 3.18821 0
M  V30 503 N 45.8211 -1.22559 -0.990812 0
M  V30 504 C 47.0981 -0.959875 -1.70428 0
M  V30 505 C 47.4781 0.524455 -2.04481 0
M  V30 506 O 46.8261 1.49302 -1.72977 0
M  V30 507 C 47.0361 -1.85955 -2.95333 0
M  V30 508 C 48.3841 -2.11687 -3.68068 0
M  V30 509 O 49.4081 -1.8342 -3.05345 0
M  V30 510 O 48.2671 -2.59572 -4.80921 0
M  V30 511 H 45.3611 -0.361154 -0.743974 0
M  V30 512 H 47.9071 -1.33554 -1.04697 0
M  V30 513 H 46.6791 -2.86346 -2.66687 0
M  V30 514 H 46.3021 -1.4856 -3.68803 0
M  V30 515 N 47.2992 1.18797 -1.03562 0
M  V30 516 C 48.5462 1.8865 -0.736023 0
M  V30 517 C 48.8742 1.80041 0.735889 0
M  V30 518 O 48.1292 1.19179 1.55225 0
M  V30 519 C 48.4282 3.38692 -1.14117 0
M  V30 520 C 48.0942 3.67504 -2.6125 0
M  V30 521 C 46.7562 3.75078 -3.01447 0
M  V30 522 C 49.1082 3.80293 -3.56408 0
M  V30 523 C 46.4362 3.92915 -4.35701 0
M  V30 524 C 48.7882 3.99645 -4.90374 0
M  V30 525 C 47.4522 4.05453 -5.30249 0
M  V30 526 H 46.7222 0.690321 -0.26933 0
M  V30 527 H 49.3692 1.40641 -1.29971 0
M  V30 528 H 47.6742 3.88645 -0.496202 0
M  V30 529 H 49.3712 3.91072 -0.886789 0
M  V30 530 H 45.9612 3.62223 -2.29113 0
M  V30 531 H 50.1452 3.73779 -3.26501 0
M  V30 532 H 45.4012 3.95653 -4.66121 0
M  V30 533 H 49.5752 4.08482 -5.64017 0
M  V30 534 H 47.2022 4.19027 -6.34288 0
M  V30 535 N 48.7773 0.814389 1.34928 0
M  V30 536 C 50.0233 0.408167 1.99263 0
M  V30 537 C 50.3783 -1.0154 1.63424 0
M  V30 538 O 49.6713 -1.69607 0.891289 0
M  V30 539 C 49.8653 0.537781 3.53331 0
M  V30 540 C 49.6943 1.9724 4.04137 0
M  V30 541 C 48.4643 2.60245 4.33129 0
M  V30 542 C 50.6623 2.93801 4.2212 0
M  V30 543 N 48.6443 3.95036 4.69914 0
M  V30 544 C 50.0153 4.1348 4.6199 0
M  V30 545 C 52.0703 2.9053 4.04348 0
M  V30 546 C 50.7733 5.3033 4.85945 0
M  V30 547 C 52.7993 4.06589 4.29464 0
M  V30 548 C 52.1613 5.25017 4.69613 0
M  V30 549 H 48.2603 0.197289 0.756704 0
M  V30 550 H 50.8443 1.05728 1.63492 0
M  V30 551 H 49.0153 -0.0813868 3.88315 0
M  V30 552 H 50.7473 0.105389 4.04563 0
M  V30 553 H 47.5023 2.11545 4.23728 0
M  V30 554 H 47.9263 4.64455 4.92555 0
M  V30 555 H 52.5683 2.00115 3.72443 0
M  V30 556 H 50.2863 6.21309 5.16721 0
M  V30 557 H 53.8723 4.05447 4.17257 0
M  V30 558 H 52.7523 6.1333 4.88667 0
M  V30 559 N 50.2554 -1.46986 0.568584 0
M  V30 560 C 51.2034 -2.31858 -0.185649 0
M  V30 561 C 52.1974 -1.43624 -0.898249 0
M  V30 562 O 53.4034 -1.60327 -0.818242 0
M  V30 563 H 49.7784 -0.747866 -0.0787399 0
M  V30 564 H 51.7494 -2.93303 0.549191 0
M  V30 565 C 50.4984 -3.26513 -1.19519 0
M  V30 566 H 49.8214 -3.94377 -0.656285 0
M  V30 567 H 51.2614 -3.88707 -1.6936 0
M  V30 568 C 49.7204 -2.50847 -2.24894 0
M  V30 569 O 50.2504 -2.26119 -3.32014 0
M  V30 570 N 48.4564 -2.11656 -1.99124 0
M  V30 571 H 48.0034 -2.31966 -1.12024 0
M  V30 572 H 47.9614 -1.61347 -2.69842 0
M  V30 573 N 51.7335 -0.305618 -1.54608 0
M  V30 574 C 53.1495 0.0476228 -1.59529 0
M  V30 575 C 53.3495 1.52025 -1.32252 0
M  V30 576 O 52.4055 2.27368 -1.09818 0
M  V30 577 C 53.7185 -0.354471 -2.98603 0
M  V30 578 C 55.2665 -0.303622 -3.11524 0
M  V30 579 C 55.7415 -0.680608 -4.52915 0
M  V30 580 N 57.2325 -0.63332 -4.5885 0
M  V30 581 C 57.9675 -0.897432 -5.66334 0
M  V30 582 N 57.4635 -1.22775 -6.81834 0
M  V30 583 N 59.2565 -0.824186 -5.56025 0
M  V30 584 H 51.4075 -1.2653 -1.70599 0
M  V30 585 H 53.6705 -0.513291 -0.797017 0
M  V30 586 H 53.3765 -1.3798 -3.23503 0
M  V30 587 H 53.2505 0.289568 -3.76087 0
M  V30 588 H 55.6375 0.712472 -2.8637 0
M  V30 589 H 55.7185 -0.982348 -2.36185 0
M  V30 590 H 55.3625 -1.69453 -4.78799 0
M  V30 591 H 55.2925 0.0202385 -5.26596 0
M  V30 592 H 57.7835 -0.389138 -3.75891 0
M  V30 593 H 58.0965 -1.41513 -7.59733 0
M  V30 594 H 56.4415 -1.26583 -6.83375 0
M  V30 595 H 59.6325 -0.565748 -4.64669 0
M  V30 596 H 59.8055 -1.03338 -6.39707 0
M  V30 597 N 53.2116 1.57565 -0.0334293 0
M  V30 598 C 54.1216 2.13943 0.962572 0
M  V30 599 C 55.1376 1.09276 1.35406 0
M  V30 600 O 56.3136 1.41355 1.4346 0
M  V30 601 C 53.3786 2.65887 2.22497 0
M  V30 602 C 52.4396 3.85286 1.8935 0
M  V30 603 C 51.6726 4.34743 3.09571 0
M  V30 604 O 51.8956 3.83352 4.22371 0
M  V30 605 O 50.8296 5.26538 2.91618 0
M  V30 606 H 54.6556 2.99333 0.513169 0
M  V30 607 H 52.2406 1.4822 0.18743 0
M  V30 608 H 54.1226 2.99346 2.96598 0
M  V30 609 H 52.7976 1.83578 2.6661 0
M  V30 610 H 51.7046 3.56746 1.1262 0
M  V30 611 H 53.0376 4.68771 1.5005 0
M  V30 612 N 54.6897 -0.239769 1.55765 0
M  V30 613 C 55.6527 -1.28038 1.90103 0
M  V30 614 C 56.6527 -1.40723 0.778055 0
M  V30 615 O 57.8427 -1.39301 1.04599 0
M  V30 616 C 54.9747 -2.65702 2.13577 0
M  V30 617 H 56.1677 -0.988048 2.83157 0
M  V30 618 H 53.7207 -0.479382 1.48767 0
M  V30 619 H 54.4557 -3.00063 1.23015 0
M  V30 620 H 54.2407 -2.57875 2.95369 0
M  V30 621 H 55.7307 -3.40828 2.41301 0
M  V30 622 N 56.1678 -1.49265 -0.50573 0
M  V30 623 C 57.1308 -1.65075 -1.59006 0
M  V30 624 C 58.1308 -0.522768 -1.52065 0
M  V30 625 O 59.3208 -0.789117 -1.55302 0
M  V30 626 C 56.4528 -1.64369 -2.98656 0
M  V30 627 H 57.6458 -2.61784 -1.46319 0
M  V30 628 H 55.1988 -1.38226 -0.729616 0
M  V30 629 H 55.9338 -0.692272 -3.16825 0
M  V30 630 H 55.7188 -2.46282 -3.05103 0
M  V30 631 H 57.2088 -1.78674 -3.77446 0
M  V30 632 N 57.6459 0.756429 -1.3826 0
M  V30 633 C 58.5559 1.9009 -1.37488 0
M  V30 634 C 59.5719 1.71855 -0.272366 0
M  V30 635 O 60.7479 1.94827 -0.510318 0
M  V30 636 C 57.8129 3.25421 -1.19592 0
M  V30 637 C 56.8739 3.56202 -2.39622 0
M  V30 638 C 56.1069 4.85075 -2.2257 0
M  V30 639 O 56.3299 5.57246 -1.21793 0
M  V30 640 O 55.2639 5.15269 -3.11098 0
M  V30 641 H 59.0899 1.93695 -2.33914 0
M  V30 642 H 56.6749 0.901313 -1.1915 0
M  V30 643 H 58.5569 4.06337 -1.11661 0
M  V30 644 H 57.2319 3.22634 -0.262486 0
M  V30 645 H 56.1389 2.75458 -2.53128 0
M  V30 646 H 57.4719 3.63747 -3.31586 0
M  V30 647 N 59.124 1.23083 0.984299 0
M  V30 648 C 60.087 1.00979 2.05757 0
M  V30 649 C 61.087 -0.0269573 1.60777 0
M  V30 650 O 62.277 0.212403 1.729 0
M  V30 651 C 59.409 0.527072 3.36801 0
M  V30 652 H 60.602 1.9622 2.26799 0
M  V30 653 H 58.155 1.05072 1.15714 0
M  V30 654 H 58.89 -0.429294 3.21446 0
M  V30 655 H 58.675 1.27515 3.70786 0
M  V30 656 H 60.165 0.392942 4.15747 0
M  V30 657 N 60.6021 -1.18246 1.0419 0
M  V30 658 C 61.5321 -2.24127 0.654914 0
M  V30 659 C 62.5131 -1.66617 -0.342451 0
M  V30 660 O 63.6981 -1.92924 -0.222277 0
M  V30 661 C 60.8281 -3.47295 0.0183757 0
M  V30 662 C 59.7821 -4.17563 0.939414 0
M  V30 663 C 59.1081 -5.34438 0.167286 0
M  V30 664 C 60.4081 -4.70917 2.25908 0
M  V30 665 H 62.1021 -2.56753 1.54007 0
M  V30 666 H 59.6481 -1.23414 0.74195 0
M  V30 667 H 61.6011 -4.20572 -0.264082 0
M  V30 668 H 60.3251 -3.13907 -0.901664 0
M  V30 669 H 58.9841 -3.46186 1.20628 0
M  V30 670 H 58.6321 -4.97298 -0.7552 0
M  V30 671 H 58.3321 -5.82388 0.780901 0
M  V30 672 H 59.8561 -6.10504 -0.108125 0
M  V30 673 H 61.2701 -5.35882 2.03724 0
M  V30 674 H 59.6671 -5.29406 2.82577 0
M  V30 675 H 60.7371 -3.88272 2.9047 0
M  V30 676 N 62.0802 -0.821533 -1.34494 0
M  V30 677 C 63.3282 -0.408139 -1.97936 0
M  V30 678 C 63.6492 1.03193 -1.65457 0
M  V30 679 O 62.9192 1.71622 -0.944595 0
M  V30 680 H 61.4992 -0.147928 -0.732206 0
M  V30 681 H 64.1612 -1.05067 -1.64155 0
M  V30 682 H 63.2572 -0.52601 -3.07635 0
M  V30 683 N 63.5583 1.46682 -0.576371 0
M  V30 684 C 64.5213 2.28707 0.150239 0
M  V30 685 C 65.5213 1.38035 0.824794 0
M  V30 686 O 66.7113 1.60476 0.677719 0
M  V30 687 C 63.8433 3.18248 1.22192 0
M  V30 688 H 65.0363 2.94423 -0.570521 0
M  V30 689 H 62.5893 1.52688 -0.334078 0
M  V30 690 H 63.3243 2.57265 1.97447 0
M  V30 691 H 63.1093 3.85 0.742812 0
M  V30 692 H 64.5993 3.80001 1.73172 0
M  V30 693 N 65.0364 0.313813 1.54444 0
M  V30 694 C 65.9994 -0.54379 2.22656 0
M  V30 695 C 66.9994 -1.05124 1.21678 0
M  V30 696 O 68.1894 -0.945225 1.46325 0
M  V30 697 C 65.3214 -1.75427 2.92298 0
M  V30 698 H 66.5144 0.0523599 2.99854 0
M  V30 699 H 64.0674 0.0647834 1.56166 0
M  V30 700 H 64.8024 -2.38991 2.19211 0
M  V30 701 H 64.5874 -1.39791 3.66334 0
M  V30 702 H 66.0774 -2.36325 3.44297 0
M  V30 703 N 66.5145 -1.57545 0.0417849 0
M  V30 704 C 67.4615 -2.10977 -0.935805 0
M  V30 705 C 68.4315 -1.01486 -1.31491 0
M  V30 706 O 69.6165 -1.2898 -1.40602 0
M  V30 707 C 66.7565 -2.65169 -2.2086 0
M  V30 708 C 65.8695 -3.88714 -1.88482 0
M  V30 709 C 65.0045 -4.31254 -3.1015 0
M  V30 710 C 64.0435 -5.47524 -2.7365 0
M  V30 711 N 63.1805 -5.85162 -3.87982 0
M  V30 712 H 68.0205 -2.94218 -0.473249 0
M  V30 713 H 65.5575 -1.45415 -0.221981 0
M  V30 714 H 67.5155 -2.94685 -2.95325 0
M  V30 715 H 66.1455 -1.8474 -2.64709 0
M  V30 716 H 65.1975 -3.65849 -1.04205 0
M  V30 717 H 66.5095 -4.73245 -1.57608 0
M  V30 718 H 65.6635 -4.62273 -3.92923 0
M  V30 719 H 64.4025 -3.45516 -3.44195 0
M  V30 720 H 63.4075 -5.16187 -1.89291 0
M  V30 721 H 64.6325 -6.34971 -2.40807 0
M  V30 722 H 62.5785 -5.02377 -4.21846 0
M  V30 723 H 62.4955 -6.64362 -3.60775 0
M  V30 724 H 63.7635 -6.20791 -4.71422 0
M  V30 725 N 67.9926 0.231505 -1.5589 0
M  V30 726 C 68.9396 1.28682 -1.91598 0
M  V30 727 C 69.9096 1.47071 -0.771974 0
M  V30 728 O 71.0946 1.60802 -1.027 0
M  V30 729 C 68.2346 2.6342 -2.22944 0
M  V30 730 C 67.3476 2.52912 -3.50228 0
M  V30 731 C 66.4826 3.80106 -3.7107 0
M  V30 732 C 65.5216 3.64279 -4.91902 0
M  V30 733 N 64.6586 4.834 -5.09184 0
M  V30 734 H 69.4986 0.975305 -2.81588 0
M  V30 735 H 67.0356 0.470299 -1.39379 0
M  V30 736 H 68.9936 3.41869 -2.39126 0
M  V30 737 H 67.6236 2.92687 -1.36139 0
M  V30 738 H 66.6756 1.6595 -3.42294 0
M  V30 739 H 67.9876 2.37133 -4.38827 0
M  V30 740 H 67.1416 4.66999 -3.87295 0
M  V30 741 H 65.8806 3.98799 -2.80733 0
M  V30 742 H 64.8856 2.7577 -4.75637 0
M  V30 743 H 66.1106 3.47067 -5.83714 0
M  V30 744 H 64.0566 5.02425 -4.21788 0
M  V30 745 H 63.9736 4.70311 -5.91898 0
M  V30 746 H 65.2416 5.71747 -5.29835 0
M  V30 747 N 69.4707 1.49531 0.497807 0
M  V30 748 C 70.4007 1.6935 1.60757 0
M  V30 749 C 71.3817 0.542218 1.61227 0
M  V30 750 O 72.5667 0.778417 1.77917 0
M  V30 751 C 69.6967 1.76298 2.99226 0
M  V30 752 C 68.6507 2.91248 3.13622 0
M  V30 753 C 67.9767 2.83312 4.53474 0
M  V30 754 C 69.2767 4.3214 2.93346 0
M  V30 755 H 70.9707 2.62263 1.44425 0
M  V30 756 H 68.5167 1.26208 0.693367 0
M  V30 757 H 70.4697 1.88749 3.76765 0
M  V30 758 H 69.1937 0.799871 3.16654 0
M  V30 759 H 67.8527 2.78404 2.38509 0
M  V30 760 H 67.5007 1.84902 4.67782 0
M  V30 761 H 67.2007 3.60465 4.64046 0
M  V30 762 H 68.7247 2.97775 5.33069 0
M  V30 763 H 70.1387 4.45649 3.60652 0
M  V30 764 H 68.5357 5.1054 3.15387 0
M  V30 765 H 69.6057 4.46363 1.89441 0
M  V30 766 N 70.9488 -0.749086 1.3866 0
M  V30 767 C 71.8808 -1.87273 1.32142 0
M  V30 768 C 72.8938 -1.61127 0.232787 0
M  V30 769 O 74.0828 -1.71623 0.49069 0
M  V30 770 C 71.1828 -3.23005 1.02571 0
M  V30 771 C 70.3558 -3.7662 2.22433 0
M  V30 772 C 69.4148 -4.90879 1.89537 0
M  V30 773 O 68.4408 -5.05276 2.62078 0
M  V30 774 N 69.6428 -5.74198 0.853031 0
M  V30 775 H 72.4078 -1.93373 2.28969 0
M  V30 776 H 69.9688 -0.929216 1.32579 0
M  V30 777 H 71.9608 -3.96992 0.786085 0
M  V30 778 H 70.5308 -3.12262 0.145249 0
M  V30 779 H 69.7508 -2.94147 2.62434 0
M  V30 780 H 71.0388 -4.09173 3.02415 0
M  V30 781 H 70.4368 -5.6514 0.25155 0
M  V30 782 H 68.9938 -6.48313 0.67329 0
M  V30 783 N 72.4269 -1.23603 -0.977757 0
M  V30 784 C 73.8379 -1.06424 -1.53398 0
M  V30 785 C 74.1889 0.367578 -1.92726 0
M  V30 786 O 73.3139 1.25465 -1.76316 0
M  V30 787 C 73.9089 -1.92568 -2.78753 0
M  V30 788 C 72.4679 -1.79642 -3.30765 0
M  V30 789 C 71.6149 -1.88111 -2.03739 0
M  V30 790 H 74.5659 -1.37227 -0.797152 0
M  V30 791 H 74.5869 -1.45203 -3.51705 0
M  V30 792 H 74.0989 -2.96771 -2.50098 0
M  V30 793 H 72.1999 -0.782325 -3.64294 0
M  V30 794 H 72.3129 -2.63174 -4.00345 0
M  V30 795 H 70.6769 -1.31723 -2.17994 0
M  V30 796 H 71.4599 -2.93875 -1.77461 0
M  V30 797 N 73.905 1.17692 -1.04816 0
M  V30 798 C 74.868 2.19787 -0.650117 0
M  V30 799 C 75.868 1.58044 0.296427 0
M  V30 800 O 77.058 1.74012 0.0808097 0
M  V30 801 C 74.19 3.40869 0.0456987 0
M  V30 802 H 75.383 2.56516 -1.5537 0
M  V30 803 H 72.936 1.31708 -0.841594 0
M  V30 804 H 73.671 3.09681 0.962726 0
M  V30 805 H 73.456 3.86928 -0.634727 0
M  V30 806 H 74.946 4.16445 0.310432 0
M  V30 807 N 75.3831 0.828654 1.34056 0
M  V30 808 C 76.3151 0.212052 2.28217 0
M  V30 809 C 77.3281 -0.601362 1.51286 0
M  V30 810 O 78.5171 -0.430104 1.73241 0
M  V30 811 C 75.6171 -0.72088 3.31144 0
M  V30 812 C 74.7901 0.0509587 4.3737 0
M  V30 813 C 73.8491 -0.803766 5.20025 0
M  V30 814 O 72.8751 -0.246667 5.68665 0
M  V30 815 N 74.0771 -2.1227 5.40298 0
M  V30 816 H 76.8421 1.02105 2.81771 0
M  V30 817 H 74.4031 0.686153 1.46641 0
M  V30 818 H 76.3951 -1.29742 3.8334 0
M  V30 819 H 74.9651 -1.43061 2.77943 0
M  V30 820 H 74.1851 0.808831 3.85813 0
M  V30 821 H 75.4731 0.582065 5.0546 0
M  V30 822 H 74.8711 -2.59898 5.02464 0
M  V30 823 H 73.4281 -2.64796 5.95589 0
M  V30 824 N 76.8612 -1.46375 0.584142 0
M  V30 825 C 78.0892 -2.06761 0.0759296 0
M  V30 826 C 78.5042 -1.43266 -1.22965 0
M  V30 827 O 77.8612 -0.538458 -1.74376 0
M  V30 828 C 77.9122 -3.61375 -0.0950384 0
M  V30 829 O 77.6332 -4.22495 1.15887 0
M  V30 830 C 79.1342 -4.38693 -0.637434 0
M  V30 831 H 76.3542 -0.668479 0.0581075 0
M  V30 832 H 78.8982 -1.8798 0.805218 0
M  V30 833 H 77.0532 -3.79578 -0.774554 0
M  V30 834 H 77.4672 -5.15385 0.973598 0
M  V30 835 H 78.9412 -5.47464 -0.706237 0
M  V30 836 H 79.4182 -4.06836 -1.65472 0
M  V30 837 H 80.0242 -4.25299 0.00725967 0
M  V30 838 N 78.3393 -0.321999 -1.54275 0
M  V30 839 C 79.3023 0.531975 -2.22941 0
M  V30 840 C 80.3023 1.04478 -1.22234 0
M  V30 841 O 81.4923 0.937452 -1.46825 0
M  V30 842 C 78.6243 1.73874 -2.93224 0
M  V30 843 H 79.8173 -0.0682612 -2.99822 0
M  V30 844 H 77.3703 -0.0730644 -1.56129 0
M  V30 845 H 78.1053 2.37825 -2.20476 0
M  V30 846 H 77.8903 1.37847 -3.6707 0
M  V30 847 H 79.3803 2.34496 -3.45545 0
M  V30 848 N 79.8174 1.5752 -0.0501392 0
M  V30 849 C 80.7804 2.1037 0.909786 0
M  V30 850 C 81.7804 1.02308 1.24056 0
M  V30 851 O 82.9704 1.28385 1.17741 0
M  V30 852 C 80.1024 2.58708 2.21998 0
M  V30 853 H 81.2954 2.96479 0.451665 0
M  V30 854 H 78.8484 1.55038 0.198248 0
M  V30 855 H 79.5834 1.75989 2.72394 0
M  V30 856 H 79.3684 3.37675 1.99295 0
M  V30 857 H 80.8584 2.99747 2.9076 0
M  V30 858 N 81.2955 -0.223234 1.56011 0
M  V30 859 C 82.2425 -1.27664 1.92277 0
M  V30 860 C 83.2125 -1.46659 0.779763 0
M  V30 861 O 84.3975 -1.60256 1.03551 0
M  V30 862 C 81.5375 -2.62234 2.24338 0
M  V30 863 C 80.6505 -2.51051 3.51564 0
M  V30 864 C 79.7855 -3.78133 3.7308 0
M  V30 865 C 78.8245 -3.61665 4.93827 0
M  V30 866 N 77.9615 -4.80693 5.11741 0
M  V30 867 H 82.8015 -0.960358 2.82101 0
M  V30 868 H 80.3385 -0.462901 1.39627 0
M  V30 869 H 82.2965 -3.40596 2.40936 0
M  V30 870 H 80.9265 -2.91961 1.3769 0
M  V30 871 H 79.9785 -1.64132 3.43169 0
M  V30 872 H 81.2905 -2.34803 4.40079 0
M  V30 873 H 80.4445 -4.64938 3.89766 0
M  V30 874 H 79.1835 -3.97304 2.82844 0
M  V30 875 H 78.1885 -2.73244 4.77093 0
M  V30 876 H 79.4135 -3.43966 5.85546 0
M  V30 877 H 77.3595 -5.00181 4.24446 0
M  V30 878 H 77.2765 -4.67165 5.94384 0
M  V30 879 H 78.5445 -5.6893 5.3286 0
M  V30 880 N 82.7736 -1.49793 -0.48987 0
M  V30 881 C 83.7216 -1.67783 -1.61095 0
M  V30 882 C 84.7156 -0.543683 -1.60438 0
M  V30 883 O 85.9216 -0.723647 -1.64813 0
M  V30 884 H 82.2966 -0.529255 -0.534222 0
M  V30 885 H 84.2676 -2.61861 -1.43078 0
M  V30 886 C 83.0166 -1.77191 -2.99164 0
M  V30 887 H 82.3396 -2.63841 -3.0038 0
M  V30 888 H 83.7796 -1.93809 -3.77113 0
M  V30 889 C 82.2386 -0.519203 -3.32875 0
M  V30 890 O 82.7686 0.350124 -4.00171 0
M  V30 891 N 80.9746 -0.378816 -2.8812 0
M  V30 892 H 80.5216 -1.08725 -2.33531 0
M  V30 893 H 80.4796 0.458239 -3.11043 0
M  V30 894 N 84.2517 0.741722 -1.39055 0
M  V30 895 C 85.1817 1.869 -1.39966 0
M  V30 896 C 86.1627 1.6804 -0.26392 0
M  V30 897 O 87.3477 1.88458 -0.468755 0
M  V30 898 C 84.4777 3.24572 -1.23574 0
M  V30 899 C 83.4317 3.58056 -2.34477 0
M  V30 900 C 82.7577 4.94593 -2.0318 0
M  V30 901 C 84.0577 3.61716 -3.76774 0
M  V30 902 H 85.7517 1.86395 -2.34302 0
M  V30 903 H 83.2977 0.895361 -1.1278 0
M  V30 904 H 85.2507 4.031 -1.22834 0
M  V30 905 H 83.9747 3.25587 -0.257045 0
M  V30 906 H 82.6337 2.81854 -2.34423 0
M  V30 907 H 82.2817 4.92181 -1.03765 0
M  V30 908 H 81.9817 5.17964 -2.77465 0
M  V30 909 H 83.5057 5.75486 -2.04079 0
M  V30 910 H 84.9197 4.30335 -3.78794 0
M  V30 911 H 83.3167 3.96603 -4.50362 0
M  V30 912 H 84.3867 2.61672 -4.08235 0
M  V30 913 N 85.7298 1.2412 0.971189 0
M  V30 914 C 86.9788 1.07284 1.70801 0
M  V30 915 C 87.2918 -0.388902 1.91695 0
M  V30 916 O 88.4978 -0.677379 2.62914 0
M  V30 917 C 86.9538 1.87145 3.07416 0
M  V30 918 C 86.5618 3.37707 2.94377 0
M  V30 919 C 88.3058 1.78828 3.84995 0
M  V30 920 C 86.2128 4.09925 4.26281 0
M  V30 921 H 85.1428 0.397854 0.64049 0
M  V30 922 H 87.7938 1.4817 1.0825 0
M  V30 923 H 86.1758 1.39071 3.70777 0
M  V30 924 H 87.3498 3.93335 2.4005 0
M  V30 925 H 85.6648 3.46938 2.30267 0
M  V30 926 H 88.2618 2.30089 4.82662 0
M  V30 927 H 88.6048 0.75284 4.09436 0
M  V30 928 H 89.1378 2.24563 3.28354 0
M  V30 929 H 85.8768 5.13813 4.07033 0
M  V30 930 H 85.3968 3.59083 4.80437 0
M  V30 931 H 87.0758 4.1673 4.94919 0
M  V30 932 N 87.2079 -1.17134 1.05439 0
M  V30 933 C 88.4569 -1.86791 0.761049 0
M  V30 934 C 88.7699 -1.82072 -0.714795 0
M  V30 935 O 89.9759 -2.47223 -1.12218 0
M  V30 936 C 88.4319 -3.35166 1.31117 0
M  V30 937 C 88.0399 -3.48381 2.81664 0
M  V30 938 C 89.7839 -4.10134 1.09499 0
M  V30 939 C 87.6909 -4.90793 3.29964 0
M  V30 940 H 86.6209 -0.699681 0.281002 0
M  V30 941 H 89.2719 -1.3226 1.27199 0
M  V30 942 H 87.6539 -3.8925 0.72803 0
M  V30 943 H 88.8279 -3.04502 3.45855 0
M  V30 944 H 87.1429 -2.86836 3.01851 0
M  V30 945 H 89.7399 -5.152 1.43084 0
M  V30 946 H 90.0829 -4.16287 0.0328772 0
M  V30 947 H 90.6159 -3.62264 1.64346 0
M  V30 948 H 87.3549 -4.89816 4.35616 0
M  V30 949 H 86.8749 -5.35333 2.70516 0
M  V30 950 H 88.5539 -5.59573 3.24787 0
M  V30 951 N 88.686 -0.835752 -1.33615 0
M  V30 952 C 89.933 -0.429959 -1.97883 0
M  V30 953 C 90.261 1.01006 -1.66217 0
M  V30 954 O 89.516 1.72047 -0.93265 0
M  V30 955 C 89.815 -0.593925 -3.52431 0
M  V30 956 C 89.481 -2.00158 -4.04039 0
M  V30 957 C 88.143 -2.38662 -4.17844 0
M  V30 958 C 90.495 -2.92117 -4.31644 0
M  V30 959 C 87.823 -3.68435 -4.56588 0
M  V30 960 C 90.175 -4.21368 -4.71838 0
M  V30 961 C 88.839 -4.59833 -4.83849 0
M  V30 962 H 88.109 -0.157333 -0.724104 0
M  V30 963 H 90.756 -1.06217 -1.59343 0
M  V30 964 H 89.061 0.121619 -3.91611 0
M  V30 965 H 90.758 -0.260282 -4.00154 0
M  V30 966 H 87.348 -1.69252 -3.93766 0
M  V30 967 H 91.532 -2.63608 -4.20505 0
M  V30 968 H 86.788 -3.98046 -4.64079 0
M  V30 969 H 90.962 -4.92703 -4.92155 0
M  V30 970 H 88.589 -5.60438 -5.13627 0
M  V30 971 N 90.1641 1.46063 -0.591896 0
M  V30 972 C 91.0941 2.33172 0.123673 0
M  V30 973 C 92.0751 1.45897 0.87453 0
M  V30 974 O 93.2601 1.74698 0.848181 0
M  V30 975 C 90.3901 3.28336 1.13194 0
M  V30 976 C 89.3441 4.25124 0.495324 0
M  V30 977 C 88.6701 5.09863 1.61071 0
M  V30 978 C 89.9701 5.19143 -0.573425 0
M  V30 979 H 91.6641 2.93252 -0.603646 0
M  V30 980 H 89.2101 1.41014 -0.291741 0
M  V30 981 H 91.1631 3.88137 1.64097 0
M  V30 982 H 89.8871 2.66383 1.88965 0
M  V30 983 H 88.5461 3.66599 0.00729452 0
M  V30 984 H 88.1941 4.44288 2.35832 0
M  V30 985 H 87.8941 5.75417 1.19035 0
M  V30 986 H 89.4181 5.72529 2.12233 0
M  V30 987 H 90.8321 5.73106 -0.1491 0
M  V30 988 H 89.2291 5.93089 -0.914636 0
M  V30 989 H 90.2991 4.62519 -1.45617 0
M  V30 990 N 91.6422 0.330177 1.54103 0
M  V30 991 C 92.8902 -0.269871 2.0029 0
M  V30 992 C 93.2112 -1.52133 1.21986 0
M  V30 993 O 92.4812 -1.93212 0.323438 0
M  V30 994 H 91.0612 -0.10271 0.739905 0
M  V30 995 H 93.7232 0.448249 1.89675 0
M  V30 996 H 92.8192 -0.52166 3.07709 0
M  V30 997 N 93.1203 -1.57491 0.0584922 0
M  V30 998 C 94.3973 -1.84346 -0.653918 0
M  V30 999 C 94.7773 -0.948355 -1.88599 0
M  V30 1000 O 94.1253 -0.0112403 -2.28497 0
M  V30 1001 C 94.3353 -3.34239 -1.00425 0
M  V30 1002 C 95.6833 -4.01431 -1.38342 0
M  V30 1003 O 96.7073 -3.38907 -1.09637 0
M  V30 1004 O 95.5663 -5.11683 -1.91943 0
M  V30 1005 H 92.6603 -0.761112 -0.323478 0
M  V30 1006 H 95.2063 -1.6947 0.0884125 0
M  V30 1007 H 93.9783 -3.91089 -0.128625 0
M  V30 1008 H 93.6013 -3.54329 -1.80378 0
M  V30 1009 N 94.5984 0.214957 -1.56127 0
M  V30 1010 C 95.8464 0.936518 -1.79091 0
M  V30 1011 C 96.1674 1.84606 -0.628148 0
M  V30 1012 O 95.4374 1.92664 0.35462 0
M  V30 1013 H 94.0174 0.3488 -0.660566 0
M  V30 1014 H 96.6794 0.22523 -1.93594 0
M  V30 1015 H 95.7754 1.53943 -2.71492 0
M  V30 1016 N 96.0765 1.50051 0.48192 0
M  V30 1017 C 97.0095 1.62749 1.59963 0
M  V30 1018 C 97.9875 0.475903 1.5548 0
M  V30 1019 O 99.1715 0.693986 1.7526 0
M  V30 1020 C 96.2985 1.60008 2.98522 0
M  V30 1021 C 95.3445 2.80596 3.21198 0
M  V30 1022 S 96.1775 4.42038 3.02262 0
M  V30 1023 C 97.3335 4.41973 4.43182 0
M  V30 1024 H 97.5665 2.57296 1.4895 0
M  V30 1025 H 95.0995 1.39179 0.668477 0
M  V30 1026 H 97.0575 1.59112 3.78409 0
M  V30 1027 H 95.7185 0.667153 3.06933 0
M  V30 1028 H 94.9115 2.74952 4.22395 0
M  V30 1029 H 94.5135 2.79003 2.49065 0
M  V30 1030 H 96.8055 4.14868 5.35622 0
M  V30 1031 H 97.7485 5.43512 4.53873 0
M  V30 1032 H 98.1565 3.71812 4.24755 0
M  V30 1033 N 97.5546 -0.734337 1.39446 0
M  V30 1034 C 98.8026 -1.49096 1.36436 0
M  V30 1035 C 99.1236 -1.94961 -0.0388255 0
M  V30 1036 O 98.3936 -1.69033 -0.990191 0
M  V30 1037 H 96.9736 -0.5531 0.502085 0
M  V30 1038 H 99.6356 -0.871725 1.74319 0
M  V30 1039 H 98.7316 -2.37276 2.02747 0
M  V30 1040 N 99.0327 -1.24633 -0.964593 0
M  V30 1041 C 100.279 -1.08949 -1.71049 0
M  V30 1042 C 100.612 0.370302 -1.90637 0
M  V30 1043 O 99.8867 1.27349 -1.47011 0
M  V30 1044 C 100.17 -1.83329 -3.0994 0
M  V30 1045 C 100.023 -3.37077 -2.97824 0
M  V30 1046 C 101.342 -1.60846 -4.09654 0
M  V30 1047 H 98.4607 -0.397178 -0.620821 0
M  V30 1048 H 101.103 -1.5334 -1.12191 0
M  V30 1049 H 99.2527 -1.45597 -3.60186 0
M  V30 1050 H 100.925 -3.84425 -2.5498 0
M  V30 1051 H 99.1677 -3.65298 -2.33965 0
M  V30 1052 H 99.8387 -3.84324 -3.96231 0
M  V30 1053 H 102.315 -1.93674 -3.68279 0
M  V30 1054 H 101.191 -2.1534 -5.04896 0
M  V30 1055 H 101.452 -0.547434 -4.38698 0
M  V30 1056 N 100.511 1.16574 -1.06058 0
M  V30 1057 C 101.736 1.91493 -0.796562 0
M  V30 1058 C 102.161 1.76773 0.642868 0
M  V30 1059 O 101.519 1.09142 1.44768 0
M  V30 1060 C 101.567 3.40293 -1.19303 0
M  V30 1061 O 100.671 4.11074 -0.330394 0
M  V30 1062 H 100.012 0.596678 -0.291326 0
M  V30 1063 H 102.542 1.47708 -1.41575 0
M  V30 1064 H 102.552 3.91057 -1.16356 0
M  V30 1065 H 101.227 3.50326 -2.24153 0
M  V30 1066 H 99.8038 3.70513 -0.421225 0
M  V30 1067 N 101.989 0.842826 1.3317 0
M  V30 1068 C 103.217 0.454055 2.01856 0
M  V30 1069 C 103.632 -0.94587 1.63397 0
M  V30 1070 O 102.989 -1.61534 0.849302 0
M  V30 1071 C 103.04 0.569715 3.56982 0
M  V30 1072 O 102.761 1.91448 3.94055 0
M  V30 1073 C 104.262 0.178412 4.42941 0
M  V30 1074 H 101.482 0.17979 0.646465 0
M  V30 1075 H 104.026 1.1365 1.70012 0
M  V30 1076 H 102.181 -0.0648587 3.87346 0
M  V30 1077 H 102.595 1.90282 4.88767 0
M  V30 1078 H 104.069 0.310376 5.51127 0
M  V30 1079 H 104.546 -0.880056 4.30293 0
M  V30 1080 H 105.152 0.787579 4.17944 0
M  V30 1081 N 103.467 -1.45747 0.599634 0
M  V30 1082 C 104.713 -2.02592 0.0918643 0
M  V30 1083 C 105.046 -1.46806 -1.27128 0
M  V30 1084 O 104.321 -0.639658 -1.83681 0
M  V30 1085 C 104.604 -3.60073 0.0443398 0
M  V30 1086 C 104.457 -4.26208 1.43759 0
M  V30 1087 C 105.776 -4.35309 -0.647608 0
M  V30 1088 H 102.895 -0.736175 0.034857 0
M  V30 1089 H 105.537 -1.73694 0.770081 0
M  V30 1090 H 103.687 -3.84823 -0.533224 0
M  V30 1091 H 105.359 -4.12668 2.06162 0
M  V30 1092 H 103.602 -3.84916 2.00056 0
M  V30 1093 H 104.273 -5.35069 1.35665 0
M  V30 1094 H 106.749 -4.15805 -0.156776 0
M  V30 1095 H 105.625 -5.45038 -0.649942 0
M  V30 1096 H 105.886 -4.07598 -1.71219 0
M  V30 1097 N 104.945 -0.338344 -1.53925 0
M  V30 1098 C 106.173 0.261298 -2.05243 0
M  V30 1099 C 106.588 1.44625 -1.21363 0
M  V30 1100 O 105.945 1.80811 -0.247736 0
M  V30 1101 C 105.996 0.681412 -3.5502 0
M  V30 1102 O 105.717 -0.456414 -4.35716 0
M  V30 1103 C 107.218 1.34232 -4.22489 0
M  V30 1104 H 104.438 0.0513685 -0.669031 0
M  V30 1105 H 106.982 -0.488822 -1.98572 0
M  V30 1106 H 105.137 1.38148 -3.61931 0
M  V30 1107 H 105.551 -0.122564 -5.24357 0
M  V30 1108 H 107.025 1.58708 -5.28693 0
M  V30 1109 H 107.502 2.29426 -3.74514 0
M  V30 1110 H 108.108 0.684424 -4.19757 0
M  V30 1111 N 106.423 1.57458 -0.0668435 0
M  V30 1112 C 107.386 2.11323 0.887422 0
M  V30 1113 C 108.386 1.03618 1.22964 0
M  V30 1114 O 109.576 1.29626 1.16373 0
M  V30 1115 C 106.708 2.61048 2.19242 0
M  V30 1116 H 107.901 2.96942 0.420194 0
M  V30 1117 H 105.454 1.55239 0.181793 0
M  V30 1118 H 106.189 1.78868 2.70512 0
M  V30 1119 H 105.974 3.39769 1.95702 0
M  V30 1120 H 107.464 3.02814 2.87565 0
M  V30 1121 N 107.901 -0.206675 1.56239 0
M  V30 1122 C 108.864 -1.23976 1.92776 0
M  V30 1123 C 109.864 -1.39041 0.807729 0
M  V30 1124 O 111.054 -1.37051 1.0753 0
M  V30 1125 C 108.186 -2.61112 2.19165 0
M  V30 1126 H 109.379 -0.927764 2.85189 0
M  V30 1127 H 106.932 -0.447718 1.4975 0
M  V30 1128 H 107.667 -2.97386 1.29352 0
M  V30 1129 H 107.452 -2.51552 3.00772 0
M  V30 1130 H 108.942 -3.35633 2.48476 0
M  V30 1131 N 109.379 -1.50304 -0.473955 0
M  V30 1132 C 110.795 -1.37667 -0.807466 0
M  V30 1133 C 110.995 -0.430555 -1.96846 0
M  V30 1134 O 110.051 0.127874 -2.52176 0
M  V30 1135 C 111.364 -2.78974 -1.12223 0
M  V30 1136 C 112.912 -2.87868 -1.22885 0
M  V30 1137 C 113.387 -4.30003 -1.57676 0
M  V30 1138 N 114.878 -4.3294 -1.64673 0
M  V30 1139 C 115.613 -5.3991 -1.93091 0
M  V30 1140 N 115.109 -6.57092 -2.1955 0
M  V30 1141 N 116.902 -5.27351 -1.94569 0
M  V30 1142 H 109.053 -2.10394 0.291212 0
M  V30 1143 H 111.316 -0.945575 0.0677609 0
M  V30 1144 H 111.022 -3.50031 -0.342229 0
M  V30 1145 H 110.896 -3.16038 -2.05913 0
M  V30 1146 H 113.283 -2.17032 -1.99953 0
M  V30 1147 H 113.364 -2.54352 -0.271814 0
M  V30 1148 H 113.008 -5.01375 -0.81149 0
M  V30 1149 H 112.938 -4.61004 -2.54525 0
M  V30 1150 H 115.429 -3.48441 -1.46277 0
M  V30 1151 H 115.742 -7.34425 -2.405 0
M  V30 1152 H 114.087 -6.60272 -2.16948 0
M  V30 1153 H 117.278 -4.34801 -1.73394 0
M  V30 1154 H 117.451 -6.10805 -2.16381 0
M  V30 1155 N 110.857 0.726932 -1.39834 0
M  V30 1156 C 112.106 1.48214 -1.36805 0
M  V30 1157 C 112.419 1.95576 0.0305291 0
M  V30 1158 O 113.625 2.7088 0.183417 0
M  V30 1159 C 112.081 2.67854 -2.40379 0
M  V30 1160 C 111.689 2.27408 -3.85992 0
M  V30 1161 C 113.433 3.45641 -2.46439 0
M  V30 1162 C 111.34 3.43819 -4.81189 0
M  V30 1163 H 110.27 0.556606 -0.508631 0
M  V30 1164 H 112.921 0.792216 -1.65518 0
M  V30 1165 H 111.303 3.3896 -2.04749 0
M  V30 1166 H 112.477 1.63795 -4.30706 0
M  V30 1167 H 110.792 1.62692 -3.83302 0
M  V30 1168 H 113.389 4.32244 -3.14753 0
M  V30 1169 H 113.732 3.88669 -1.49139 0
M  V30 1170 H 114.265 2.8157 -2.81004 0
M  V30 1171 H 111.004 3.05834 -5.79781 0
M  V30 1172 H 110.524 4.06385 -4.41148 0
M  V30 1173 H 112.203 4.10043 -5.00474 0
M  V30 1174 N 112.336 1.25143 0.95797 0
M  V30 1175 C 113.266 1.07711 2.07173 0
M  V30 1176 C 114.247 -0.0128462 1.70095 0
M  V30 1177 O 115.432 0.156061 1.93572 0
M  V30 1178 C 112.562 0.691503 3.40346 0
M  V30 1179 C 111.516 1.73132 3.9142 0
M  V30 1180 C 110.842 1.20049 5.21049 0
M  V30 1181 C 112.142 3.1294 4.1817 0
M  V30 1182 H 113.836 2.00873 2.22014 0
M  V30 1183 H 111.382 0.967191 1.06684 0
M  V30 1184 H 113.335 0.556505 4.17709 0
M  V30 1185 H 112.059 -0.275819 3.25433 0
M  V30 1186 H 110.718 1.8547 3.16222 0
M  V30 1187 H 110.366 0.223499 5.02503 0
M  V30 1188 H 110.066 1.89545 5.56189 0
M  V30 1189 H 111.59 1.07782 6.01012 0
M  V30 1190 H 113.004 3.03775 4.86203 0
M  V30 1191 H 111.401 3.79875 4.64559 0
M  V30 1192 H 112.471 3.6025 3.24573 0
M  V30 1193 N 113.814 -1.1601 1.06675 0
M  V30 1194 C 114.761 -2.20525 0.680967 0
M  V30 1195 C 115.731 -1.62904 -0.324283 0
M  V30 1196 O 116.916 -1.89615 -0.212294 0
M  V30 1197 C 114.056 -3.45013 0.0776551 0
M  V30 1198 C 113.169 -4.16863 1.13355 0
M  V30 1199 C 112.304 -5.2888 0.49597 0
M  V30 1200 C 111.343 -5.92537 1.53513 0
M  V30 1201 N 110.48 -6.96038 0.920631 0
M  V30 1202 H 115.32 -2.52876 1.57663 0
M  V30 1203 H 112.857 -1.24199 0.788223 0
M  V30 1204 H 114.815 -4.16193 -0.289704 0
M  V30 1205 H 113.445 -3.132 -0.781393 0
M  V30 1206 H 112.497 -3.44248 1.61857 0
M  V30 1207 H 113.809 -4.60294 1.92174 0
M  V30 1208 H 112.963 -6.06653 0.0758604 0
M  V30 1209 H 111.702 -4.86622 -0.324062 0
M  V30 1210 H 110.707 -5.13482 1.9651 0
M  V30 1211 H 111.932 -6.36873 2.35733 0
M  V30 1212 H 109.878 -6.55888 0.12138 0
M  V30 1213 H 109.795 -7.3786 1.64616 0
M  V30 1214 H 111.063 -7.77725 0.525795 0
M  V30 1215 N 115.292 -0.849877 -1.32721 0
M  V30 1216 C 116.54 -0.450032 -1.97026 0
M  V30 1217 C 116.861 0.996604 -1.67609 0
M  V30 1218 O 116.131 1.6958 -0.980786 0
M  V30 1219 H 114.711 -0.163426 -0.728904 0
M  V30 1220 H 117.373 -1.08526 -1.6189 0
M  V30 1221 H 116.469 -0.591146 -3.0645 0
M  V30 1222 N 116.77 1.45427 -0.607355 0
M  V30 1223 C 117.702 2.2871 0.149752 0
M  V30 1224 C 118.715 1.39937 0.831958 0
M  V30 1225 O 119.904 1.64313 0.697385 0
M  V30 1226 C 117.004 3.15673 1.23304 0
M  V30 1227 C 116.177 4.32722 0.637996 0
M  V30 1228 C 115.236 5.00895 1.61215 0
M  V30 1229 O 114.262 5.57697 1.13854 0
M  V30 1230 N 115.464 5.00159 2.94655 0
M  V30 1231 H 118.229 2.94328 -0.564882 0
M  V30 1232 H 115.79 1.55612 -0.446823 0
M  V30 1233 H 117.782 3.58144 1.88454 0
M  V30 1234 H 116.352 2.51965 1.8502 0
M  V30 1235 H 115.572 3.93734 -0.191572 0
M  V30 1236 H 116.86 5.08321 0.220665 0
M  V30 1237 H 116.258 4.553 3.35735 0
M  V30 1238 H 114.815 5.46495 3.55228 0
M  V30 1239 N 118.248 0.346503 1.53744 0
M  V30 1240 C 119.195 -0.508914 2.25119 0
M  V30 1241 C 120.165 -1.09315 1.25058 0
M  V30 1242 O 121.35 -1.12921 1.53797 0
M  V30 1243 C 118.49 -1.65246 3.02965 0
M  V30 1244 C 117.603 -1.09525 4.17886 0
M  V30 1245 C 116.738 -2.20634 4.83212 0
M  V30 1246 C 115.777 -1.62279 5.90196 0
M  V30 1247 N 114.914 -2.67143 6.49291 0
M  V30 1248 H 119.754 0.106283 2.9781 0
M  V30 1249 H 117.291 0.0642227 1.4696 0
M  V30 1250 H 119.249 -2.32574 3.4636 0
M  V30 1251 H 117.879 -2.2386 2.32565 0
M  V30 1252 H 116.931 -0.312818 3.79112 0
M  V30 1253 H 118.243 -0.628444 4.94825 0
M  V30 1254 H 117.397 -2.95821 5.29693 0
M  V30 1255 H 116.136 -2.70659 4.05703 0
M  V30 1256 H 115.141 -0.855989 5.43096 0
M  V30 1257 H 116.366 -1.13102 6.69615 0
M  V30 1258 H 114.312 -3.16417 5.74645 0
M  V30 1259 H 114.229 -2.25093 7.21713 0
M  V30 1260 H 115.497 -3.4209 7.00425 0
M  V30 1261 N 119.726 -1.57421 0.075193 0
M  V30 1262 C 120.673 -2.12915 -0.890843 0
M  V30 1263 C 121.643 -1.04252 -1.29309 0
M  V30 1264 O 122.828 -1.31933 -1.37834 0
M  V30 1265 C 119.968 -2.69795 -2.15186 0
M  V30 1266 C 119.081 -3.92624 -1.80194 0
M  V30 1267 C 118.216 -4.37736 -3.00933 0
M  V30 1268 C 117.255 -5.53205 -2.61974 0
M  V30 1269 N 116.392 -5.9326 -3.75483 0
M  V30 1270 H 121.232 -2.95156 -0.410735 0
M  V30 1271 H 118.769 -1.45854 -0.191086 0
M  V30 1272 H 120.727 -3.00883 -2.89008 0
M  V30 1273 H 119.357 -1.90313 -2.60731 0
M  V30 1274 H 118.409 -3.67977 -0.964218 0
M  V30 1275 H 119.721 -4.76482 -1.47534 0
M  V30 1276 H 118.875 -4.70503 -3.8303 0
M  V30 1277 H 117.614 -3.52739 -3.36789 0
M  V30 1278 H 116.619 -5.20086 -1.783 0
M  V30 1279 H 117.844 -6.39936 -2.27284 0
M  V30 1280 H 115.79 -5.11212 -4.11094 0
M  V30 1281 H 115.707 -6.71865 -3.46602 0
M  V30 1282 H 116.975 -6.30651 -4.58148 0
M  V30 1283 N 121.204 0.198386 -1.56346 0
M  V30 1284 C 122.481 0.944982 -1.71258 0
M  V30 1285 C 122.861 2.0151 -0.629048 0
M  V30 1286 O 122.209 2.25639 0.360473 0
M  V30 1287 C 122.419 1.5344 -3.1346 0
M  V30 1288 C 123.767 2.01778 -3.73591 0
M  V30 1289 O 124.791 1.63288 -3.16568 0
M  V30 1290 O 123.65 2.72594 -4.73661 0
M  V30 1291 H 120.744 0.442939 -0.69838 0
M  V30 1292 H 123.29 0.188342 -1.68652 0
M  V30 1293 H 122.062 0.762869 -3.83792 0
M  V30 1294 H 121.685 2.35596 -3.20282 0
M  V30 1295 N 122.682 1.50554 0.465978 0
M  V30 1296 C 123.629 1.6979 1.56333 0
M  V30 1297 C 124.599 0.539239 1.57103 0
M  V30 1298 O 125.784 0.770401 1.74555 0
M  V30 1299 C 122.924 1.80273 2.94271 0
M  V30 1300 C 122.037 3.07674 3.0325 0
M  V30 1301 C 121.172 3.08922 4.32135 0
M  V30 1302 C 120.211 4.30755 4.34875 0
M  V30 1303 N 119.348 4.29714 5.55239 0
M  V30 1304 H 124.188 2.63472 1.39235 0
M  V30 1305 H 121.725 1.30602 0.676873 0
M  V30 1306 H 123.683 1.84332 3.74269 0
M  V30 1307 H 122.313 0.900258 3.09992 0
M  V30 1308 H 121.365 3.13062 2.16094 0
M  V30 1309 H 122.677 3.97642 3.01135 0
M  V30 1310 H 121.831 3.11738 5.20485 0
M  V30 1311 H 120.57 2.16792 4.36866 0
M  V30 1312 H 119.575 4.28146 3.44922 0
M  V30 1313 H 120.8 5.24117 4.31831 0
M  V30 1314 H 118.746 3.4044 5.60746 0
M  V30 1315 H 118.663 5.13456 5.54886 0
M  V30 1316 H 119.931 4.36683 6.457 0
M  V30 1317 N 124.16 -0.719506 1.40217 0
M  V30 1318 C 125.09 -1.8465 1.42922 0
M  V30 1319 C 126.071 -1.67599 0.29062 0
M  V30 1320 O 127.256 -1.87688 0.498677 0
M  V30 1321 C 124.386 -3.22565 1.28722 0
M  V30 1322 C 123.34 -3.54281 2.40144 0
M  V30 1323 C 122.666 -4.91298 2.11023 0
M  V30 1324 C 123.966 -3.55676 3.82481 0
M  V30 1325 H 125.66 -1.82644 2.37237 0
M  V30 1326 H 123.206 -0.877305 1.1419 0
M  V30 1327 H 125.159 -4.01095 1.29232 0
M  V30 1328 H 123.883 -3.25137 0.308811 0
M  V30 1329 H 122.542 -2.78088 2.38877 0
M  V30 1330 H 122.19 -4.90468 1.11582 0
M  V30 1331 H 121.89 -5.13485 2.8567 0
M  V30 1332 H 123.414 -5.72166 2.13209 0
M  V30 1333 H 124.828 -4.24254 3.85592 0
M  V30 1334 H 123.225 -3.89388 4.56614 0
M  V30 1335 H 124.295 -2.55144 4.12346 0
M  V30 1336 N 125.638 -1.25649 -0.95132 0
M  V30 1337 C 126.886 -1.10375 -1.69298 0
M  V30 1338 C 127.207 0.355339 -1.91735 0
M  V30 1339 O 126.477 1.25188 -1.50681 0
M  V30 1340 H 125.057 -0.405461 -0.627384 0
M  V30 1341 H 127.719 -1.57823 -1.14358 0
M  V30 1342 H 126.815 -1.61465 -2.67087 0
M  V30 1343 N 127.117 1.15442 -1.07289 0
M  V30 1344 C 128.528 1.67803 -0.818475 0
M  V30 1345 C 128.879 1.8489 0.656507 0
M  V30 1346 O 128.004 1.55176 1.50829 0
M  V30 1347 C 128.599 3.04805 -1.47917 0
M  V30 1348 C 127.158 3.54245 -1.27229 0
M  V30 1349 C 126.305 2.29986 -1.54925 0
M  V30 1350 H 129.256 0.996646 -1.23502 0
M  V30 1351 H 129.277 3.69702 -0.90005 0
M  V30 1352 H 128.789 2.92336 -2.55267 0
M  V30 1353 H 126.89 3.71956 -0.21899 0
M  V30 1354 H 127.003 4.35723 -1.99203 0
M  V30 1355 H 125.367 2.35496 -0.970242 0
M  V30 1356 H 126.15 2.20105 -2.63455 0
M  V30 1357 N 128.595 0.856903 1.32268 0
M  V30 1358 C 129.505 0.306131 2.32594 0
M  V30 1359 C 130.521 -0.577209 1.64147 0
M  V30 1360 O 131.697 -0.477043 1.95669 0
M  V30 1361 C 128.762 -0.494561 3.43154 0
M  V30 1362 C 127.823 0.415186 4.27288 0
M  V30 1363 C 127.056 -0.347387 5.32568 0
M  V30 1364 O 127.279 -1.57708 5.48165 0
M  V30 1365 O 126.213 0.287982 6.01211 0
M  V30 1366 H 130.039 1.13737 2.81598 0
M  V30 1367 H 127.624 0.619902 1.35932 0
M  V30 1368 H 129.506 -0.948944 4.10576 0
M  V30 1369 H 128.181 -1.30257 2.96336 0
M  V30 1370 H 127.088 0.917793 3.62667 0
M  V30 1371 H 128.421 1.18844 4.77637 0
M  V30 1372 N 130.073 -1.45103 0.615059 0
M  V30 1373 C 131.322 -2.01396 0.110718 0
M  V30 1374 C 131.635 -1.48834 -1.26916 0
M  V30 1375 O 132.841 -1.97152 -1.86664 0
M  V30 1376 C 131.297 -3.59599 0.14723 0
M  V30 1377 C 130.905 -4.21158 1.52743 0
M  V30 1378 C 132.649 -4.23428 -0.30148 0
M  V30 1379 C 130.556 -5.71535 1.51992 0
M  V30 1380 H 129.486 -0.753061 0.0376241 0
M  V30 1381 H 132.137 -1.66494 0.77149 0
M  V30 1382 H 130.519 -3.91724 -0.580339 0
M  V30 1383 H 131.693 -4.00594 2.2773 0
M  V30 1384 H 130.008 -3.69552 1.91886 0
M  V30 1385 H 132.605 -5.33703 -0.326392 0
M  V30 1386 H 132.948 -3.94629 -1.32565 0
M  V30 1387 H 133.481 -3.96047 0.373065 0
M  V30 1388 H 130.22 -6.05044 2.52193 0
M  V30 1389 H 129.74 -5.94268 0.81274 0
M  V30 1390 H 131.419 -6.34873 1.24681 0
M  V30 1391 N 131.551 -0.354651 -1.53558 0
M  V30 1392 C 132.962 0.126902 -1.86268 0
M  V30 1393 C 133.313 1.49075 -1.27558 0
M  V30 1394 O 132.438 2.08105 -0.5934 0
M  V30 1395 C 133.033 0.237046 -3.3797 0
M  V30 1396 C 131.592 0.662842 -3.70518 0
M  V30 1397 C 130.739 -0.196652 -2.76602 0
M  V30 1398 H 133.69 -0.573849 -1.47962 0
M  V30 1399 H 133.711 1.06259 -3.65362 0
M  V30 1400 H 133.223 -0.755725 -3.80671 0
M  V30 1401 H 131.324 1.66424 -3.33367 0
M  V30 1402 H 131.437 0.445034 -4.77029 0
M  V30 1403 H 129.801 0.332763 -2.52517 0
M  V30 1404 H 130.584 -1.18676 -3.22135 0
M  V30 1405 N 133.029 1.57378 -0.0835403 0
M  V30 1406 C 133.959 2.1641 0.87686 0
M  V30 1407 C 134.94 1.09429 1.30228 0
M  V30 1408 O 136.125 1.37516 1.37124 0
M  V30 1409 C 133.255 2.73517 2.14022 0
M  V30 1410 C 132.209 3.85769 1.85381 0
M  V30 1411 C 131.535 4.29529 3.18448 0
M  V30 1412 C 132.835 5.09486 1.14984 0
M  V30 1413 H 134.529 2.96914 0.385059 0
M  V30 1414 H 132.075 1.42823 0.18377 0
M  V30 1415 H 134.028 3.13463 2.81636 0
M  V30 1416 H 132.752 1.90252 2.65465 0
M  V30 1417 H 131.411 3.46345 1.20169 0
M  V30 1418 H 131.059 3.43169 3.67755 0
M  V30 1419 H 130.759 5.05204 3.00071 0
M  V30 1420 H 132.283 4.72099 3.8724 0
M  V30 1421 H 133.697 5.46674 1.72687 0
M  V30 1422 H 132.094 5.90515 1.06826 0
M  V30 1423 H 133.164 4.84724 0.130749 0
M  V30 1424 N 134.507 -0.190092 1.56449 0
M  V30 1425 C 135.47 -1.21925 1.9408 0
M  V30 1426 C 136.47 -1.38176 0.822431 0
M  V30 1427 O 137.66 -1.35903 1.08977 0
M  V30 1428 C 134.792 -2.58773 2.21922 0
M  V30 1429 H 135.985 -0.897464 2.86157 0
M  V30 1430 H 133.538 -0.43181 1.50217 0
M  V30 1431 H 134.273 -2.95998 1.32499 0
M  V30 1432 H 134.058 -2.48348 3.03424 0
M  V30 1433 H 135.548 -3.32978 2.52022 0
M  V30 1434 N 135.985 -1.50799 -0.457987 0
M  V30 1435 C 136.918 -1.65273 -1.57353 0
M  V30 1436 C 137.896 -0.500578 -1.54703 0
M  V30 1437 O 139.08 -0.721781 -1.74134 0
M  V30 1438 C 136.207 -1.64737 -2.95938 0
M  V30 1439 C 135.253 -2.8567 -3.16693 0
M  V30 1440 S 136.086 -4.46791 -2.95191 0
M  V30 1441 C 137.242 -4.48968 -4.36095 0
M  V30 1442 H 137.475 -2.59633 -1.44838 0
M  V30 1443 H 135.008 -1.40225 -0.64625 0
M  V30 1444 H 136.966 -1.65112 -3.7583 0
M  V30 1445 H 135.627 -0.715899 -3.05833 0
M  V30 1446 H 134.82 -2.81637 -4.17967 0
M  V30 1447 H 134.422 -2.8293 -2.44594 0
M  V30 1448 H 136.714 -4.23337 -5.28954 0
M  V30 1449 H 137.657 -5.50664 -4.45168 0
M  V30 1450 H 138.065 -3.78522 -4.18786 0
M  V30 1451 N 137.463 0.71206 -1.40597 0
M  V30 1452 C 138.74 1.46536 -1.29563 0
M  V30 1453 C 139.12 2.10931 0.0844217 0
M  V30 1454 O 138.468 2.00418 1.0975 0
M  V30 1455 C 138.678 2.49821 -2.43701 0
M  V30 1456 C 140.026 3.15551 -2.841 0
M  V30 1457 O 141.05 2.60142 -2.4332 0
M  V30 1458 O 139.909 4.15867 -3.54566 0
M  V30 1459 H 137.003 0.651801 -0.509004 0
M  V30 1460 H 139.549 0.743935 -1.52524 0
M  V30 1461 H 138.321 2.00778 -3.35863 0
M  V30 1462 H 137.944 3.29495 -2.22528 0
M  V30 1463 N 138.941 1.26152 0.944643 0
M  V30 1464 C 140.357 1.03189 1.21754 0
M  V30 1465 C 140.557 -0.245112 2.00004 0
M  V30 1466 O 139.613 -0.955176 2.33736 0
M  V30 1467 C 140.926 2.26119 1.98219 0
M  V30 1468 C 142.474 2.30984 2.11224 0
M  V30 1469 C 142.949 3.53597 2.91089 0
M  V30 1470 N 144.44 3.54053 2.98664 0
M  V30 1471 C 145.175 4.45593 3.60881 0
M  V30 1472 N 144.671 5.47416 4.24626 0
M  V30 1473 N 146.464 4.33252 3.58119 0
M  V30 1474 H 138.615 2.08177 0.421437 0
M  V30 1475 H 140.878 0.914723 0.248969 0
M  V30 1476 H 140.584 3.18984 1.48128 0
M  V30 1477 H 140.458 2.3009 2.98895 0
M  V30 1478 H 142.845 1.38635 2.60508 0
M  V30 1479 H 142.926 2.31026 1.09821 0
M  V30 1480 H 142.57 4.46273 2.42493 0
M  V30 1481 H 142.5 3.50802 3.92741 0
M  V30 1482 H 144.991 2.80403 2.53343 0
M  V30 1483 H 145.304 6.13459 4.69987 0
M  V30 1484 H 143.649 5.51278 4.23223 0
M  V30 1485 H 146.84 3.52924 3.0751 0
M  V30 1486 H 147.013 5.04786 4.06319 0
M  V30 1487 N 140.419 -1.14872 1.07899 0
M  V30 1488 C 141.666 -1.85789 0.805532 0
M  V30 1489 C 141.994 -1.82649 -0.668561 0
M  V30 1490 O 141.249 -1.24858 -1.50695 0
M  V30 1491 C 141.548 -3.34223 1.26609 0
M  V30 1492 C 141.214 -3.57555 2.74709 0
M  V30 1493 C 139.876 -3.63631 3.1516 0
M  V30 1494 C 142.228 -3.66803 3.70277 0
M  V30 1495 C 139.556 -3.76473 4.49983 0
M  V30 1496 C 141.908 -3.8117 5.04869 0
M  V30 1497 C 140.572 -3.85494 5.44932 0
M  V30 1498 H 139.842 -0.679849 0.294765 0
M  V30 1499 H 142.489 -1.3572 1.35101 0
M  V30 1500 H 140.794 -3.86536 0.640103 0
M  V30 1501 H 142.491 -3.87511 1.03132 0
M  V30 1502 H 139.081 -3.5347 2.42398 0
M  V30 1503 H 143.265 -3.61404 3.40149 0
M  V30 1504 H 138.521 -3.7808 4.80484 0
M  V30 1505 H 142.695 -3.87268 5.78789 0
M  V30 1506 H 140.322 -3.95197 6.49403 0
M  V30 1507 N 141.898 -0.863906 -1.31812 0
M  V30 1508 C 143.309 -0.52522 -1.7916 0
M  V30 1509 C 143.66 0.957518 -1.71248 0
M  V30 1510 O 142.785 1.74734 -1.27659 0
M  V30 1511 C 143.38 -0.9466 -3.25307 0
M  V30 1512 C 141.939 -0.659668 -3.70574 0
M  V30 1513 C 141.086 -1.14126 -2.52726 0
M  V30 1514 H 144.037 -1.05022 -1.1898 0
M  V30 1515 H 144.058 -0.266766 -3.79564 0
M  V30 1516 H 143.57 -2.02579 -3.31034 0
M  V30 1517 H 141.671 0.408416 -3.70355 0
M  V30 1518 H 141.784 -1.23245 -4.62977 0
M  V30 1519 H 140.148 -0.561216 -2.4844 0
M  V30 1520 H 140.931 -2.22775 -2.61201 0
M  V30 1521 N 143.376 1.44774 -0.622745 0
M  V30 1522 C 144.606 2.06187 -0.130532 0
M  V30 1523 C 145.014 1.46547 1.19669 0
M  V30 1524 O 144.357 0.579636 1.74316 0
M  V30 1525 C 144.419 3.59437 0.0674983 0
M  V30 1526 C 144.083 4.41496 -1.18026 0
M  V30 1527 C 145.08 4.75512 -2.102 0
M  V30 1528 C 142.765 4.82007 -1.41333 0
M  V30 1529 C 144.759 5.48912 -3.23998 0
M  V30 1530 C 142.446 5.55157 -2.55429 0
M  V30 1531 C 143.444 5.88528 -3.46589 0
M  V30 1532 O 143.132 6.60191 -4.58697 0
M  V30 1533 H 142.864 0.672045 -0.0730162 0
M  V30 1534 H 145.418 1.86768 -0.854802 0
M  V30 1535 H 143.648 3.77314 0.846825 0
M  V30 1536 H 145.337 4.02642 0.513209 0
M  V30 1537 H 146.103 4.4476 -1.93425 0
M  V30 1538 H 141.982 4.55457 -0.712709 0
M  V30 1539 H 145.526 5.74877 -3.95174 0
M  V30 1540 H 141.423 5.85324 -2.72151 0
M  V30 1541 H 142.191 6.78654 -4.57571 0
M  V30 1542 N 144.854 0.36279 1.53368 0
M  V30 1543 C 146.1 -0.228113 2.01513 0
M  V30 1544 C 146.433 -1.48648 1.2497 0
M  V30 1545 O 145.708 -1.91459 0.342616 0
M  V30 1546 C 145.991 -0.522884 3.56284 0
M  V30 1547 C 145.844 0.74892 4.43521 0
M  V30 1548 C 147.163 -1.32461 4.19693 0
M  V30 1549 H 144.282 -0.0814343 0.732487 0
M  V30 1550 H 146.924 0.48713 1.83649 0
M  V30 1551 H 145.074 -1.1322 3.71636 0
M  V30 1552 H 146.746 1.38648 4.39971 0
M  V30 1553 H 144.989 1.36986 4.11603 0
M  V30 1554 H 145.66 0.497667 5.49752 0
M  V30 1555 H 148.136 -0.809203 4.08156 0
M  V30 1556 H 147.012 -1.49961 5.28018 0
M  V30 1557 H 147.273 -2.33232 3.75573 0
M  V30 1558 N 146.332 -1.57332 0.0918853 0
M  V30 1559 C 147.295 -2.12708 -0.85369 0
M  V30 1560 C 148.295 -1.05561 -1.213 0
M  V30 1561 O 149.485 -1.31461 -1.14296 0
M  V30 1562 C 146.617 -2.64503 -2.15061 0
M  V30 1563 H 147.81 -2.97573 -0.3729 0
M  V30 1564 H 145.363 -1.55509 -0.157072 0
M  V30 1565 H 146.098 -1.83149 -2.67632 0
M  V30 1566 H 145.883 -3.4284 -1.90272 0
M  V30 1567 H 147.373 -3.07351 -2.82711 0
M  V30 1568 N 147.81 0.181792 -1.56548 0
M  V30 1569 C 148.74 1.22765 -1.98623 0
M  V30 1570 C 149.721 1.46747 -0.860189 0
M  V30 1571 O 150.906 1.58259 -1.12551 0
M  V30 1572 C 148.036 2.56894 -2.33715 0
M  V30 1573 C 146.99 2.475 -3.49182 0
M  V30 1574 C 146.316 3.86023 -3.69986 0
M  V30 1575 C 147.616 1.98866 -4.82959 0
M  V30 1576 H 149.31 0.877942 -2.86239 0
M  V30 1577 H 146.856 0.42088 -1.37712 0
M  V30 1578 H 148.809 3.30253 -2.61746 0
M  V30 1579 H 147.533 2.93632 -1.42997 0
M  V30 1580 H 146.192 1.76596 -3.21262 0
M  V30 1581 H 145.84 4.20136 -2.76576 0
M  V30 1582 H 145.54 3.80609 -4.47672 0
M  V30 1583 H 147.064 4.60984 -4.00407 0
M  V30 1584 H 148.478 2.61992 -5.09934 0
M  V30 1585 H 146.875 2.04424 -5.64208 0
M  V30 1586 H 147.945 0.942465 -4.75653 0
M  V30 1587 N 149.288 1.51039 0.449983 0
M  V30 1588 C 150.513 1.6715 1.22783 0
M  V30 1589 C 150.938 0.363081 1.84563 0
M  V30 1590 O 150.296 -0.675433 1.68249 0
M  V30 1591 C 150.344 2.77985 2.29689 0
M  V30 1592 O 149.448 2.40707 3.34864 0
M  V30 1593 H 148.789 0.557746 0.360299 0
M  V30 1594 H 151.319 1.97535 0.533005 0
M  V30 1595 H 151.329 3.01693 2.74673 0
M  V30 1596 H 150.004 3.72935 1.84098 0
M  V30 1597 H 148.581 2.27523 2.95445 0
M  V30 1598 N 150.766 -0.704594 1.40972 0
M  V30 1599 C 151.713 -1.81862 1.42109 0
M  V30 1600 C 152.683 -1.63781 0.276593 0
M  V30 1601 O 153.868 -1.84759 0.4763 0
M  V30 1602 C 151.008 -3.19669 1.30022 0
M  V30 1603 C 150.121 -3.49246 2.54267 0
M  V30 1604 C 149.256 -4.76618 2.3454 0
M  V30 1605 C 148.295 -4.99133 3.54306 0
M  V30 1606 N 147.432 -6.17726 3.33706 0
M  V30 1607 H 152.272 -1.80226 2.37324 0
M  V30 1608 H 149.809 -0.880238 1.17857 0
M  V30 1609 H 151.767 -3.99263 1.21018 0
M  V30 1610 H 150.397 -3.20506 0.384192 0
M  V30 1611 H 149.449 -2.64125 2.73756 0
M  V30 1612 H 150.761 -3.61788 3.43381 0
M  V30 1613 H 149.915 -5.64249 2.22952 0
M  V30 1614 H 148.654 -4.66305 1.42867 0
M  V30 1615 H 147.659 -4.09953 3.66359 0
M  V30 1616 H 148.884 -5.11311 4.4692 0
M  V30 1617 H 146.83 -6.08642 2.44725 0
M  V30 1618 H 146.747 -6.30995 4.16391 0
M  V30 1619 H 148.015 -7.08115 3.25873 0
M  V30 1620 N 152.244 -1.26651 -0.937939 0
M  V30 1621 C 153.472 -1.15173 -1.7188 0
M  V30 1622 C 153.887 0.292668 -1.86518 0
M  V30 1623 O 153.244 1.20014 -1.37488 0
M  V30 1624 C 153.295 -1.81925 -3.12387 0
M  V30 1625 O 153.016 -3.2072 -2.98446 0
M  V30 1626 C 154.517 -1.76442 -4.06673 0
M  V30 1627 H 151.737 -0.400911 -0.538063 0
M  V30 1628 H 154.281 -1.67332 -1.1756 0
M  V30 1629 H 152.436 -1.33696 -3.63599 0
M  V30 1630 H 152.85 -3.53802 -3.872 0
M  V30 1631 H 154.324 -2.27781 -5.02812 0
M  V30 1632 H 154.801 -0.731608 -4.33064 0
M  V30 1633 H 155.407 -2.24238 -3.61382 0
M  V30 1634 N 153.722 1.14298 -1.08507 0
M  V30 1635 C 154.952 1.88945 -0.835663 0
M  V30 1636 C 155.36 1.78894 0.615928 0
M  V30 1637 O 154.703 1.1468 1.43506 0
M  V30 1638 C 154.765 3.39585 -1.17994 0
M  V30 1639 C 154.429 3.7342 -2.63451 0
M  V30 1640 C 155.426 3.73454 -3.61702 0
M  V30 1641 C 153.111 4.03368 -2.99332 0
M  V30 1642 C 155.105 4.02961 -4.93864 0
M  V30 1643 C 152.792 4.32538 -4.31687 0
M  V30 1644 C 153.79 4.32318 -5.28763 0
M  V30 1645 O 153.478 4.6078 -6.58739 0
M  V30 1646 H 153.21 0.605307 -0.300965 0
M  V30 1647 H 155.764 1.45673 -1.44806 0
M  V30 1648 H 153.994 3.83315 -0.51055 0
M  V30 1649 H 155.683 3.9554 -0.911182 0
M  V30 1650 H 156.449 3.50403 -3.35325 0
M  V30 1651 H 152.328 4.02692 -2.24411 0
M  V30 1652 H 155.872 4.02704 -5.69627 0
M  V30 1653 H 151.769 4.55059 -4.57812 0
M  V30 1654 H 152.537 4.78492 -6.64069 0
M  V30 1655 N 155.201 0.870884 1.31352 0
M  V30 1656 C 156.149 0.316445 2.30437 0
M  V30 1657 C 157.143 -0.568965 1.59559 0
M  V30 1658 O 158.349 -0.454964 1.74155 0
M  V30 1659 H 154.724 0.0836521 0.747333 0
M  V30 1660 H 156.695 1.16606 2.74673 0
M  V30 1661 C 155.444 -0.46635 3.44558 0
M  V30 1662 H 154.767 0.205687 3.99271 0
M  V30 1663 H 156.207 -0.819614 4.16003 0
M  V30 1664 C 154.666 -1.65797 2.9328 0
M  V30 1665 O 155.196 -2.75728 2.92125 0
M  V30 1666 N 153.402 -1.49041 2.4947 0
M  V30 1667 H 152.949 -0.59612 2.50608 0
M  V30 1668 H 152.907 -2.28911 2.15516 0
M  V30 1669 N 156.679 -1.44442 0.630414 0
M  V30 1670 C 157.925 -2.02351 0.134816 0
M  V30 1671 C 158.258 -1.4947 -1.23986 0
M  V30 1672 O 157.533 -0.678475 -1.82283 0
M  V30 1673 C 157.816 -3.59898 0.120707 0
M  V30 1674 C 157.669 -4.23063 1.52767 0
M  V30 1675 C 158.988 -4.36585 -0.555127 0
M  V30 1676 H 156.107 -0.73527 0.0504646 0
M  V30 1677 H 158.749 -1.72022 0.806751 0
M  V30 1678 H 156.899 -3.85868 -0.451477 0
M  V30 1679 H 158.571 -4.08202 2.14869 0
M  V30 1680 H 156.814 -3.80586 2.08175 0
M  V30 1681 H 157.485 -5.32071 1.46984 0
M  V30 1682 H 159.961 -4.16044 -0.0685429 0
M  V30 1683 H 158.837 -5.46294 -0.534185 0
M  V30 1684 H 159.098 -4.11138 -1.62535 0
M  V30 1685 N 158.157 -0.370918 -1.53173 0
M  V30 1686 C 159.434 0.273754 -1.93675 0
M  V30 1687 C 159.814 1.65938 -1.3049 0
M  V30 1688 O 159.162 2.23698 -0.465999 0
M  V30 1689 C 159.372 0.318602 -3.47543 0
M  V30 1690 C 160.72 0.556392 -4.20939 0
M  V30 1691 O 161.744 0.399587 -3.53952 0
M  V30 1692 O 160.603 0.862133 -5.39657 0
M  V30 1693 H 157.697 0.165448 -0.810281 0
M  V30 1694 H 160.243 -0.42409 -1.64315 0
M  V30 1695 H 159.015 -0.652687 -3.85818 0
M  V30 1696 H 158.638 1.06212 -3.83151 0
M  V30 1697 N 159.635 1.57281 -0.100228 0
M  V30 1698 C 160.582 2.14305 0.856858 0
M  V30 1699 C 161.552 1.06296 1.27634 0
M  V30 1700 O 162.737 1.34109 1.35718 0
M  V30 1701 C 159.877 2.73184 2.10866 0
M  V30 1702 C 158.99 3.95442 1.73925 0
M  V30 1703 C 158.125 4.42468 2.93931 0
M  V30 1704 C 157.164 5.57303 2.5314 0
M  V30 1705 N 156.301 5.99158 3.65997 0
M  V30 1706 H 161.141 2.95772 0.363726 0
M  V30 1707 H 158.678 1.46139 0.167858 0
M  V30 1708 H 160.636 3.05442 2.84185 0
M  V30 1709 H 159.266 1.94437 2.57671 0
M  V30 1710 H 158.318 3.69464 0.905554 0
M  V30 1711 H 159.63 4.78769 1.39935 0
M  V30 1712 H 158.784 4.76537 3.75496 0
M  V30 1713 H 157.523 3.58052 3.31134 0
M  V30 1714 H 156.528 5.22857 1.70003 0
M  V30 1715 H 157.753 6.43471 2.17075 0
M  V30 1716 H 155.699 5.17687 4.02909 0
M  V30 1717 H 155.616 6.77295 3.35869 0
M  V30 1718 H 156.884 6.3786 4.48057 0
M  V30 1719 N 161.113 -0.173488 1.56642 0
M  V30 1720 C 162.063 -1.21941 1.92651 0
M  V30 1721 C 163.047 -1.39912 0.794577 0
M  V30 1722 O 164.239 -1.41919 1.05773 0
M  V30 1723 C 161.368 -2.55935 2.28806 0
M  V30 1724 C 160.454 -2.41667 3.48508 0
M  V30 1725 N 160.845 -1.9711 4.65813 0
M  V30 1726 C 159.143 -2.72499 3.53072 0
M  V30 1727 C 159.844 -1.95253 5.47952 0
M  V30 1728 N 158.82 -2.37575 4.88937 0
M  V30 1729 H 162.622 -0.866581 2.80834 0
M  V30 1730 H 160.136 -0.381776 1.57849 0
M  V30 1731 H 162.133 -3.31511 2.52797 0
M  V30 1732 H 160.793 -2.92022 1.41961 0
M  V30 1733 H 161.804 -1.67481 4.90072 0
M  V30 1734 H 158.481 -3.12639 2.767 0
M  V30 1735 H 159.871 -1.6252 6.51948 0
M  V30 1736 N 162.591 -1.51276 -0.441967 0
M  V30 1737 C 163.837 -1.63958 -1.19355 0
M  V30 1738 C 164.17 -0.352543 -1.90973 0
M  V30 1739 O 163.445 0.647627 -1.83401 0
M  V30 1740 C 163.728 -2.83979 -2.21422 0
M  V30 1741 C 163.581 -4.22646 -1.53918 0
M  V30 1742 C 164.9 -2.99521 -3.22451 0
M  V30 1743 H 162.019 -0.596709 -0.432559 0
M  V30 1744 H 164.661 -1.83748 -0.483398 0
M  V30 1745 H 162.811 -2.67237 -2.81987 0
M  V30 1746 H 164.483 -4.51045 -0.967256 0
M  V30 1747 H 162.726 -4.25558 -0.841615 0
M  V30 1748 H 163.397 -5.02609 -2.28229 0
M  V30 1749 H 165.873 -3.14944 -2.71937 0
M  V30 1750 H 164.749 -3.85072 -3.91166 0
M  V30 1751 H 165.01 -2.11391 -3.88287 0
M  V30 1752 N 164.069 0.697108 -1.41344 0
M  V30 1753 C 165.48 1.27697 -1.36199 0
M  V30 1754 C 165.831 1.9615 -0.0443463 0
M  V30 1755 O 164.956 1.98689 0.857419 0
M  V30 1756 C 165.551 2.32223 -2.46694 0
M  V30 1757 C 164.11 2.8579 -2.44952 0
M  V30 1758 C 163.257 1.59807 -2.26621 0
M  V30 1759 H 166.208 0.491968 -1.50882 0
M  V30 1760 H 166.229 3.1348 -2.15664 0
M  V30 1761 H 165.741 1.82373 -3.42581 0
M  V30 1762 H 163.842 3.3982 -1.52817 0
M  V30 1763 H 163.955 3.36325 -3.41207 0
M  V30 1764 H 162.319 1.8556 -1.7447 0
M  V30 1765 H 163.102 1.11956 -3.24532 0
M  V30 1766 N 165.547 1.27147 0.931209 0
M  V30 1767 C 166.824 1.0401 1.65654 0
M  V30 1768 C 167.204 -0.426297 2.06751 0
M  V30 1769 O 166.552 -1.40879 1.79904 0
M  V30 1770 C 166.762 1.99834 2.86125 0
M  V30 1771 C 168.11 2.29007 3.57549 0
M  V30 1772 O 169.134 1.97779 2.96246 0
M  V30 1773 O 167.993 2.82222 4.67989 0
M  V30 1774 H 165.087 0.396239 0.725895 0
M  V30 1775 H 167.633 1.38397 0.982056 0
M  V30 1776 H 166.405 2.98744 2.52721 0
M  V30 1777 H 166.028 1.65987 3.61295 0
M  V30 1778 N 167.025 -1.13721 1.09112 0
M  V30 1779 C 168.25 -1.89314 0.847053 0
M  V30 1780 C 168.675 -1.78416 -0.595774 0
M  V30 1781 O 168.033 -1.12942 -1.41823 0
M  V30 1782 C 168.081 -3.3701 1.28284 0
M  V30 1783 O 167.185 -4.10054 0.439267 0
M  V30 1784 H 166.526 -0.588745 0.307044 0
M  V30 1785 H 169.056 -1.43902 1.45442 0
M  V30 1786 H 169.066 -3.87834 1.26683 0
M  V30 1787 H 167.741 -3.4426 2.33363 0
M  V30 1788 H 166.318 -3.69266 0.519312 0
M  V30 1789 N 168.503 -0.877838 -1.30888 0
M  V30 1790 C 169.751 -0.491723 -1.96027 0
M  V30 1791 C 170.072 0.960827 -1.69685 0
M  V30 1792 O 169.342 1.67462 -1.01654 0
M  V30 1793 H 167.922 -0.17885 -0.725273 0
M  V30 1794 H 170.584 -1.11935 -1.59551 0
M  V30 1795 H 169.68 -0.656016 -3.05128 0
M  V30 1796 N 169.982 1.44106 -0.638065 0
M  V30 1797 C 170.945 2.29138 0.0531013 0
M  V30 1798 C 171.945 1.41409 0.765506 0
M  V30 1799 O 173.135 1.63206 0.609046 0
M  V30 1800 C 170.267 3.23144 1.08584 0
M  V30 1801 H 171.46 2.91739 -0.694883 0
M  V30 1802 H 169.013 1.51134 -0.398538 0
M  V30 1803 H 169.748 2.65408 1.86357 0
M  V30 1804 H 169.533 3.87804 0.578852 0
M  V30 1805 H 171.023 3.87004 1.56899 0
M  V30 1806 N 171.46 0.379036 1.52974 0
M  V30 1807 C 172.688 -0.20679 2.05864 0
M  V30 1808 C 173.103 -1.41356 1.25155 0
M  V30 1809 O 172.46 -1.8009 0.295588 0
M  V30 1810 C 172.511 -0.587045 3.56702 0
M  V30 1811 O 172.232 0.571776 4.34353 0
M  V30 1812 C 173.733 -1.22983 4.25899 0
M  V30 1813 H 170.953 -0.0336123 0.670158 0
M  V30 1814 H 173.497 0.541298 1.97206 0
M  V30 1815 H 171.652 -1.28504 3.65466 0
M  V30 1816 H 172.066 0.261544 5.23847 0
M  V30 1817 H 173.54 -1.44635 5.32715 0
M  V30 1818 H 174.017 -2.19416 3.80465 0
M  V30 1819 H 174.623 -0.572892 4.21424 0
M  V30 1820 N 172.938 -1.57226 0.108567 0
M  V30 1821 C 173.901 -2.13602 -0.831082 0
M  V30 1822 C 174.901 -1.06841 -1.20173 0
M  V30 1823 O 176.091 -1.32666 -1.12895 0
M  V30 1824 C 173.223 -2.66769 -2.12243 0
M  V30 1825 H 174.416 -2.97951 -0.341317 0
M  V30 1826 H 171.969 -1.55667 -0.14057 0
M  V30 1827 H 172.704 -1.85977 -2.65675 0
M  V30 1828 H 172.489 -3.44839 -1.86625 0
M  V30 1829 H 173.979 -3.10332 -2.79435 0
M  V30 1830 N 174.416 0.165178 -1.56732 0
M  V30 1831 C 175.644 0.896218 -1.86482 0
M  V30 1832 C 176.059 1.75555 -0.694675 0
M  V30 1833 O 175.416 1.79379 0.33607 0
M  V30 1834 C 175.467 1.76792 -3.1532 0
M  V30 1835 O 175.188 0.943239 -4.27825 0
M  V30 1836 C 176.689 2.6081 -3.58459 0
M  V30 1837 H 173.909 0.260064 -0.618553 0
M  V30 1838 H 176.453 0.163428 -2.03846 0
M  V30 1839 H 174.608 2.45398 -2.99764 0
M  V30 1840 H 175.022 1.53998 -5.01383 0
M  V30 1841 H 176.496 3.17579 -4.51495 0
M  V30 1842 H 176.973 3.35977 -2.82872 0
M  V30 1843 H 177.579 1.97526 -3.76648 0
M  V30 1844 N 175.894 1.51508 0.433938 0
M  V30 1845 C 176.857 1.72473 1.50949 0
M  V30 1846 C 177.857 0.594725 1.49398 0
M  V30 1847 O 179.047 0.862315 1.5136 0
M  V30 1848 C 176.179 1.78431 2.90474 0
M  V30 1849 H 177.372 2.68467 1.33662 0
M  V30 1850 H 174.925 1.41549 0.662836 0
M  V30 1851 H 175.66 0.842645 3.13161 0
M  V30 1852 H 175.445 2.60558 2.93005 0
M  V30 1853 H 176.935 1.96479 3.68491 0
M  V30 1854 N 177.372 -0.689602 1.41712 0
M  V30 1855 C 178.602 -1.47613 1.44548 0
M  V30 1856 C 179.01 -1.89132 0.0509034 0
M  V30 1857 O 178.353 -1.57741 -0.94146 0
M  V30 1858 C 178.415 -2.76596 2.2964 0
M  V30 1859 C 178.079 -2.57245 3.77722 0
M  V30 1860 C 179.076 -2.22804 4.69739 0
M  V30 1861 C 176.761 -2.727 4.2183 0
M  V30 1862 C 178.755 -2.04064 6.03851 0
M  V30 1863 C 176.442 -2.53576 5.56006 0
M  V30 1864 C 177.44 -2.1931 6.46832 0
M  V30 1865 O 177.128 -2.00359 7.78532 0
M  V30 1866 H 176.86 -0.461227 0.494212 0
M  V30 1867 H 179.414 -0.856045 1.86711 0
M  V30 1868 H 177.644 -3.41033 1.82301 0
M  V30 1869 H 179.333 -3.38424 2.24107 0
M  V30 1870 H 180.099 -2.10473 4.36951 0
M  V30 1871 H 175.978 -2.98353 3.51435 0
M  V30 1872 H 179.522 -1.77241 6.74708 0
M  V30 1873 H 175.419 -2.65499 5.88371 0
M  V30 1874 H 176.187 -2.15075 7.89737 0
M  V30 1875 N 178.85 -1.27639 -0.924453 0
M  V30 1876 C 179.78 -1.13166 -2.04244 0
M  V30 1877 C 180.761 -0.032256 -1.70069 0
M  V30 1878 O 181.946 -0.207328 -1.9309 0
M  V30 1879 C 179.076 -0.781496 -3.38393 0
M  V30 1880 C 178.03 -1.83449 -3.86692 0
M  V30 1881 C 177.356 -1.33822 -5.17683 0
M  V30 1882 C 178.656 -3.23917 -4.09726 0
M  V30 1883 H 180.35 -2.06689 -2.1661 0
M  V30 1884 H 177.896 -0.995136 -1.04082 0
M  V30 1885 H 179.849 -0.667057 -4.16087 0
M  V30 1886 H 178.573 0.189439 -3.2605 0
M  V30 1887 H 177.232 -1.93789 -3.11193 0
M  V30 1888 H 176.88 -0.35665 -5.01734 0
M  V30 1889 H 176.58 -2.04224 -5.50968 0
M  V30 1890 H 178.104 -1.23679 -5.97943 0
M  V30 1891 H 179.518 -3.16559 -4.77978 0
M  V30 1892 H 177.915 -3.92059 -4.54324 0
M  V30 1893 H 178.985 -3.68729 -3.14908 0
M  V30 1894 N 180.328 1.1314 -1.09713 0
M  V30 1895 C 181.568 1.8613 -0.844683 0
M  V30 1896 C 181.932 1.81765 0.618491 0
M  V30 1897 O 183.133 2.50024 0.98699 0
M  V30 1898 C 181.404 3.30151 -1.36877 0
M  V30 1899 S 182.963 4.206 -1.25064 0
M  V30 1900 H 179.781 0.642056 -0.305427 0
M  V30 1901 H 182.383 1.36343 -1.4011 0
M  V30 1902 H 181.087 3.30883 -2.42786 0
M  V30 1903 H 180.618 3.85 -0.808614 0
M  V30 1904 H 182.633 4.95783 -0.203486 0
M  V30 1905 N 181.806 0.884767 1.30421 0
M  V30 1906 C 183.054 0.502112 1.95763 0
M  V30 1907 C 183.375 -0.951815 1.70192 0
M  V30 1908 O 182.645 -1.6692 1.0254 0
M  V30 1909 H 181.225 0.182694 0.724315 0
M  V30 1910 H 183.887 1.1278 1.58955 0
M  V30 1911 H 182.983 0.672188 3.04775 0
M  V30 1912 N 183.284 -1.43765 0.645699 0
M  V30 1913 C 184.53 -2.02197 0.156271 0
M  V30 1914 C 184.863 -1.50776 -1.22393 0
M  V30 1915 O 184.138 -0.697771 -1.81553 0
M  V30 1916 C 184.421 -3.59749 0.158872 0
M  V30 1917 C 184.274 -4.21419 1.57245 0
M  V30 1918 C 185.593 -4.37149 -0.50879 0
M  V30 1919 H 182.712 -0.734694 0.0582602 0
M  V30 1920 H 185.354 -1.71157 0.824951 0
M  V30 1921 H 183.504 -3.86325 -0.410525 0
M  V30 1922 H 185.176 -4.059 2.19186 0
M  V30 1923 H 183.419 -3.78356 2.122 0
M  V30 1924 H 184.09 -5.30482 1.52619 0
M  V30 1925 H 186.566 -4.16093 -0.024412 0
M  V30 1926 H 185.442 -5.4683 -0.476213 0
M  V30 1927 H 185.703 -4.12839 -1.58165 0
M  V30 1928 N 184.763 -0.387143 -1.52771 0
M  V30 1929 C 185.71 0.449048 -2.26389 0
M  V30 1930 C 186.68 1.05961 -1.27912 0
M  V30 1931 O 187.865 1.08804 -1.56737 0
M  V30 1932 C 185.005 1.57155 -3.0724 0
M  V30 1933 C 184.118 0.984066 -4.20643 0
M  V30 1934 C 183.253 2.07745 -4.88892 0
M  V30 1935 C 182.292 1.46574 -5.94292 0
M  V30 1936 N 181.429 2.49834 -6.56146 0
M  V30 1937 H 186.269 -0.185205 -2.97424 0
M  V30 1938 H 183.806 -0.103164 -1.46738 0
M  V30 1939 H 185.764 2.23309 -3.52405 0
M  V30 1940 H 184.394 2.17615 -2.38419 0
M  V30 1941 H 183.446 0.212193 -3.79808 0
M  V30 1942 H 184.758 0.497029 -4.96318 0
M  V30 1943 H 183.912 2.81673 -5.3735 0
M  V30 1944 H 182.651 2.59807 -4.12737 0
M  V30 1945 H 181.656 0.711696 -5.45174 0
M  V30 1946 H 182.881 0.953088 -6.72379 0
M  V30 1947 H 180.827 3.0107 -5.82832 0
M  V30 1948 H 180.744 2.05879 -7.27427 0
M  V30 1949 H 182.012 3.23399 -7.09249 0
M  V30 1950 N 186.241 1.57166 -0.116904 0
M  V30 1951 C 187.489 1.94737 0.540533 0
M  V30 1952 C 187.81 1.00096 1.67349 0
M  V30 1953 O 187.08 0.0568854 1.95817 0
M  V30 1954 H 185.66 0.718981 0.202669 0
M  V30 1955 H 188.322 1.94017 -0.185353 0
M  V30 1956 H 187.418 2.97719 0.936483 0
M  V30 1957 N 187.719 -0.156864 1.56817 0
M  V30 1958 C 188.667 -1.21319 1.98455 0
M  V30 1959 C 189.661 -1.45025 0.875444 0
M  V30 1960 O 190.867 -1.45435 1.0606 0
M  V30 1961 H 187.242 -0.408142 0.631605 0
M  V30 1962 H 189.213 -0.835244 2.86472 0
M  V30 1963 C 187.962 -2.54148 2.37285 0
M  V30 1964 H 187.285 -2.36733 3.22176 0
M  V30 1965 H 188.725 -3.26712 2.70251 0
M  V30 1966 C 187.184 -3.13967 1.22173 0
M  V30 1967 O 187.714 -3.98357 0.517149 0
M  V30 1968 N 185.92 -2.7327 0.988536 0
M  V30 1969 H 185.467 -2.04744 1.56326 0
M  V30 1970 H 185.425 -3.13628 0.220209 0
M  V30 1971 N 189.197 -1.51736 -0.425897 0
M  V30 1972 C 190.444 -1.6497 -1.17436 0
M  V30 1973 C 190.772 -0.371445 -1.9092 0
M  V30 1974 O 190.027 0.644963 -1.84767 0
M  V30 1975 C 190.326 -2.81103 -2.20717 0
M  V30 1976 C 189.992 -4.19954 -1.64162 0
M  V30 1977 C 188.654 -4.57725 -1.48462 0
M  V30 1978 C 191.006 -5.06552 -1.22696 0
M  V30 1979 C 188.334 -5.79789 -0.897873 0
M  V30 1980 C 190.686 -6.29205 -0.654464 0
M  V30 1981 C 189.35 -6.6574 -0.484456 0
M  V30 1982 H 188.62 -0.603668 -0.429727 0
M  V30 1983 H 191.267 -1.85798 -0.463829 0
M  V30 1984 H 189.572 -2.54542 -2.97852 0
M  V30 1985 H 191.269 -2.8854 -2.78471 0
M  V30 1986 H 187.859 -3.90181 -1.77361 0
M  V30 1987 H 192.043 -4.77968 -1.33642 0
M  V30 1988 H 187.299 -6.06733 -0.75402 0
M  V30 1989 H 191.473 -6.95643 -0.324694 0
M  V30 1990 H 189.1 -7.60195 -0.0276833 0
M  V30 1991 N 190.675 0.682077 -1.42076 0
M  V30 1992 C 191.607 1.80755 -1.40926 0
M  V30 1993 C 192.62 1.59833 -0.309398 0
M  V30 1994 O 193.809 1.69087 -0.572014 0
M  V30 1995 C 190.909 3.17744 -1.17865 0
M  V30 1996 C 190.082 3.65578 -2.40149 0
M  V30 1997 C 189.141 4.81277 -2.12742 0
M  V30 1998 O 188.167 4.92197 -2.85887 0
M  V30 1999 N 189.369 5.69474 -1.12602 0
M  V30 2000 H 192.134 1.82229 -2.37935 0
M  V30 2001 H 189.695 0.864903 -1.36861 0
M  V30 2002 H 191.687 3.9279 -0.9746 0
M  V30 2003 H 190.257 3.11214 -0.294068 0
M  V30 2004 H 189.477 2.81291 -2.76169 0
M  V30 2005 H 190.765 3.94278 -3.21593 0
M  V30 2006 H 190.163 5.63297 -0.520899 0
M  V30 2007 H 188.72 6.44363 -0.981842 0
M  V30 2008 N 192.153 1.28127 0.917671 0
M  V30 2009 C 193.381 1.17892 1.70026 0
M  V30 2010 C 193.796 -0.262958 1.8696 0
M  V30 2011 O 193.153 -1.17811 1.3938 0
M  V30 2012 C 193.204 1.86872 3.09453 0
M  V30 2013 O 192.925 3.25428 2.93306 0
M  V30 2014 C 194.426 1.8289 4.03815 0
M  V30 2015 H 191.646 0.40942 0.531617 0
M  V30 2016 H 194.19 1.69181 1.14883 0
M  V30 2017 H 192.345 1.39464 3.61426 0
M  V30 2018 H 192.759 3.59918 3.81523 0
M  V30 2019 H 194.233 2.35751 4.99125 0
M  V30 2020 H 194.71 0.800412 4.31845 0
M  V30 2021 H 195.316 2.29959 3.57769 0
M  V30 2022 N 193.631 -1.12557 1.10312 0
M  V30 2023 C 194.88 -1.83395 0.839588 0
M  V30 2024 C 195.193 -1.84939 -0.636929 0
M  V30 2025 O 196.399 -2.51761 -1.01631 0
M  V30 2026 C 194.855 -3.29303 1.45215 0
M  V30 2027 C 194.463 -3.36122 2.96186 0
M  V30 2028 C 196.207 -4.05121 1.26796 0
M  V30 2029 C 194.114 -4.76357 3.50483 0
M  V30 2030 H 193.044 -0.687133 0.310425 0
M  V30 2031 H 195.695 -1.26746 1.32694 0
M  V30 2032 H 194.077 -3.85812 0.892469 0
M  V30 2033 H 195.251 -2.89559 3.58458 0
M  V30 2034 H 193.566 -2.73776 3.13745 0
M  V30 2035 H 196.163 -5.08668 1.64806 0
M  V30 2036 H 196.506 -4.15773 0.209409 0
M  V30 2037 H 197.039 -3.54967 1.79563 0
M  V30 2038 H 193.778 -4.70899 4.55998 0
M  V30 2039 H 193.298 -5.23377 2.92978 0
M  V30 2040 H 194.977 -5.45294 3.48228 0
M  V30 2041 N 195.109 -0.891671 -1.2995 0
M  V30 2042 C 196.357 -0.512486 -1.95494 0
M  V30 2043 C 196.678 0.942776 -1.70695 0
M  V30 2044 O 195.948 1.66374 -1.03424 0
M  V30 2045 H 194.528 -0.186533 -0.723336 0
M  V30 2046 H 197.19 -1.13621 -1.58355 0
M  V30 2047 H 196.286 -0.688342 -3.04415 0
M  V30 2048 N 196.587 1.43421 -0.653314 0
M  V30 2049 C 197.517 2.33487 0.0246656 0
M  V30 2050 C 198.498 1.49475 0.811863 0
M  V30 2051 O 199.683 1.78139 0.773322 0
M  V30 2052 C 196.813 3.32841 0.99166 0
M  V30 2053 C 195.767 4.26842 0.314568 0
M  V30 2054 C 195.093 5.16236 1.39302 0
M  V30 2055 C 196.393 5.16243 -0.793095 0
M  V30 2056 H 198.087 2.90427 -0.727481 0
M  V30 2057 H 195.633 1.39649 -0.351287 0
M  V30 2058 H 197.586 3.94747 1.47487 0
M  V30 2059 H 196.31 2.74158 1.77497 0
M  V30 2060 H 194.969 3.663 -0.148199 0
M  V30 2061 H 194.617 4.53891 2.16776 0
M  V30 2062 H 194.317 5.79948 0.945223 0
M  V30 2063 H 195.841 5.81015 1.87759 0
M  V30 2064 H 197.255 5.71958 -0.392039 0
M  V30 2065 H 195.652 5.88676 -1.16536 0
M  V30 2066 H 196.722 4.55927 -1.65103 0
M  V30 2067 N 198.065 0.39524 1.52563 0
M  V30 2068 C 199.29 -0.187456 2.06551 0
M  V30 2069 C 199.715 -1.39249 1.26457 0
M  V30 2070 O 199.073 -1.78947 0.291151 0
M  V30 2071 C 199.121 -0.529985 3.56684 0
M  V30 2072 O 198.225 -1.62307 3.79118 0
M  V30 2073 H 197.566 -0.0202537 0.663691 0
M  V30 2074 H 200.096 0.564426 1.96661 0
M  V30 2075 H 200.106 -0.792598 4.00227 0
M  V30 2076 H 198.781 0.350987 4.14416 0
M  V30 2077 H 197.358 -1.3537 3.47461 0
M  V30 2078 N 199.544 -1.57102 0.125237 0
M  V30 2079 C 200.507 -2.14471 -0.80838 0
M  V30 2080 C 201.507 -1.0811 -1.19033 0
M  V30 2081 O 202.697 -1.33856 -1.11482 0
M  V30 2082 C 199.829 -2.69005 -2.09402 0
M  V30 2083 H 201.022 -2.98297 -0.309696 0
M  V30 2084 H 198.575 -1.55807 -0.124051 0
M  V30 2085 H 199.31 -1.88785 -2.63687 0
M  V30 2086 H 199.095 -3.46799 -1.82957 0
M  V30 2087 H 200.585 -3.13278 -2.76128 0
M  V30 2088 N 201.022 0.148545 -1.56898 0
M  V30 2089 C 201.985 1.16736 -1.97244 0
M  V30 2090 C 202.985 1.35947 -0.858777 0
M  V30 2091 O 204.175 1.32966 -1.12542 0
M  V30 2092 C 201.307 2.52798 -2.28705 0
M  V30 2093 H 202.5 0.821279 -2.88435 0
M  V30 2094 H 200.053 0.391831 -1.51309 0
M  V30 2095 H 200.788 2.92381 -1.403 0
M  V30 2096 H 200.573 2.40216 -3.09901 0
M  V30 2097 H 202.063 3.26179 -2.60762 0
M  V30 2098 N 202.5 1.5196 0.417844 0
M  V30 2099 C 203.463 1.74065 1.49111 0
M  V30 2100 C 204.463 0.610537 1.48758 0
M  V30 2101 O 205.653 0.87832 1.50437 0
M  V30 2102 C 202.785 1.81502 2.88565 0
M  V30 2103 H 203.978 2.69869 1.30807 0
M  V30 2104 H 201.531 1.42244 0.647785 0
M  V30 2105 H 202.266 0.875813 3.1225 0
M  V30 2106 H 202.051 2.63651 2.90225 0
M  V30 2107 H 203.541 2.00376 3.66387 0
M  V30 2108 N 203.978 -0.674533 1.42435 0
M  V30 2109 C 205.394 -0.98769 1.25367 0
M  V30 2110 C 205.594 -2.00879 0.158044 0
M  V30 2111 O 204.65 -2.48075 -0.470633 0
M  V30 2112 C 205.963 -1.49224 2.6106 0
M  V30 2113 C 207.511 -1.61 2.68417 0
M  V30 2114 C 207.986 -2.14852 4.04478 0
M  V30 2115 N 209.477 -2.22185 4.06434 0
M  V30 2116 C 210.212 -2.64928 5.08528 0
M  V30 2117 N 209.708 -3.07121 6.21006 0
M  V30 2118 N 211.501 -2.64679 4.95885 0
M  V30 2119 H 203.652 0.00152503 2.124 0
M  V30 2120 H 205.915 -0.0618434 0.945981 0
M  V30 2121 H 205.621 -0.816453 3.42092 0
M  V30 2122 H 205.495 -2.47094 2.84999 0
M  V30 2123 H 207.882 -2.27686 1.87732 0
M  V30 2124 H 207.963 -0.616195 2.48267 0
M  V30 2125 H 207.607 -1.48775 4.85622 0
M  V30 2126 H 207.537 -3.15024 4.2198 0
M  V30 2127 H 210.028 -1.92435 3.25234 0
M  V30 2128 H 210.341 -3.38423 6.94759 0
M  V30 2129 H 208.686 -3.04978 6.24511 0
M  V30 2130 H 211.877 -2.31078 4.07088 0
M  V30 2131 H 212.05 -2.9767 5.75584 0
M  V30 2132 N 205.456 -1.28612 -0.910864 0
M  V30 2133 C 206.703 -1.15934 -1.66029 0
M  V30 2134 C 207.031 0.291483 -1.92303 0
M  V30 2135 O 206.286 1.22816 -1.52364 0
M  V30 2136 C 206.585 -1.90624 -3.0232 0
M  V30 2137 C 206.251 -3.40405 -2.95695 0
M  V30 2138 C 204.913 -3.81255 -2.93595 0
M  V30 2139 C 207.265 -4.359 -2.85728 0
M  V30 2140 C 204.593 -5.15936 -2.79334 0
M  V30 2141 C 206.945 -5.70657 -2.73007 0
M  V30 2142 C 205.609 -6.10779 -2.69267 0
M  V30 2143 H 204.879 -0.424234 -0.607541 0
M  V30 2144 H 207.526 -1.5942 -1.06101 0
M  V30 2145 H 205.831 -1.39696 -3.6605 0
M  V30 2146 H 207.528 -1.78228 -3.59215 0
M  V30 2147 H 204.118 -3.07927 -2.98125 0
M  V30 2148 H 208.302 -4.053 -2.86436 0
M  V30 2149 H 203.558 -5.46146 -2.74835 0
M  V30 2150 H 207.732 -6.44311 -2.64264 0
M  V30 2151 H 205.359 -7.1509 -2.57974 0
M  V30 2152 N 206.934 1.1197 -1.10907 0
M  V30 2153 C 207.882 2.19927 -0.757303 0
M  V30 2154 C 208.876 1.67564 0.248747 0
M  V30 2155 O 210.082 1.79672 0.108605 0
M  V30 2156 H 206.457 0.716925 -0.226987 0
M  V30 2157 H 208.428 2.46847 -1.67658 0
M  V30 2158 C 207.177 3.47061 -0.210671 0
M  V30 2159 H 206.5 3.87703 -0.976049 0
M  V30 2160 H 207.94 4.24 -0.0026584 0
M  V30 2161 C 206.399 3.19864 1.05777 0
M  V30 2162 O 206.929 3.40049 2.13845 0
M  V30 2163 N 205.135 2.73636 0.978349 0
M  V30 2164 H 204.682 2.5741 0.0988246 0
M  V30 2165 H 204.64 2.55815 1.82773 0
M  V30 2166 N 208.412 0.89855 1.29475 0
M  V30 2167 C 209.344 0.332726 2.26772 0
M  V30 2168 C 210.357 -0.520323 1.54261 0
M  V30 2169 O 211.546 -0.337668 1.75277 0
M  V30 2170 C 208.646 -0.544334 3.345 0
M  V30 2171 C 207.819 0.282728 4.36485 0
M  V30 2172 C 206.878 -0.526982 5.23555 0
M  V30 2173 O 205.904 0.0551165 5.69173 0
M  V30 2174 N 207.106 -1.83331 5.5079 0
M  V30 2175 H 209.871 1.16897 2.75962 0
M  V30 2176 H 207.432 0.762919 1.42798 0
M  V30 2177 H 209.424 -1.09239 3.89678 0
M  V30 2178 H 207.994 -1.28127 2.85136 0
M  V30 2179 H 207.214 1.01221 3.80983 0
M  V30 2180 H 208.502 0.84918 5.01664 0
M  V30 2181 H 207.9 -2.32898 5.15534 0
M  V30 2182 H 206.457 -2.32852 6.08788 0
M  V30 2183 N 209.89 -1.43072 0.660911 0
M  V30 2184 C 211.13 -2.03596 0.181146 0
M  V30 2185 C 211.494 -1.51057 -1.18515 0
M  V30 2186 O 212.695 -2.03275 -1.75877 0
M  V30 2187 C 210.966 -3.56845 0.19911 0
M  V30 2188 S 212.525 -4.38289 -0.211684 0
M  V30 2189 H 209.343 -0.706954 0.0757479 0
M  V30 2190 H 211.945 -1.75027 0.870965 0
M  V30 2191 H 210.649 -3.92583 1.1961 0
M  V30 2192 H 210.18 -3.90067 -0.510996 0
M  V30 2193 H 212.195 -4.74583 -1.44863 0
M  V30 2194 N 211.368 -0.403325 -1.52352 0
M  V30 2195 C 212.316 0.439752 -2.28405 0
M  V30 2196 C 213.31 1.05089 -1.32863 0
M  V30 2197 O 214.516 0.989759 -1.50345 0
M  V30 2198 H 210.891 0.160587 -0.734653 0
M  V30 2199 H 212.862 -0.222983 -2.97566 0
M  V30 2200 C 211.611 1.54736 -3.11371 0
M  V30 2201 H 210.934 1.08643 -3.84755 0
M  V30 2202 H 212.374 2.1112 -3.67701 0
M  V30 2203 C 210.833 2.51141 -2.24566 0
M  V30 2204 O 211.363 3.54887 -1.88196 0
M  V30 2205 N 209.569 2.21213 -1.8845 0
M  V30 2206 H 209.116 1.36878 -2.18225 0
M  V30 2207 H 209.074 2.85963 -1.30662 0
M  V30 2208 N 212.846 1.57033 -0.133567 0
M  V30 2209 C 214.074 2.00044 0.528195 0
M  V30 2210 C 214.489 1.01349 1.59291 0
M  V30 2211 O 213.846 0.00848369 1.82498 0
M  V30 2212 C 213.897 3.43018 1.1411 0
M  V30 2213 O 213.618 4.37939 0.11892 0
M  V30 2214 C 215.119 4.01237 1.88477 0
M  V30 2215 H 212.339 0.656517 0.138661 0
M  V30 2216 H 214.883 2.03267 -0.224196 0
M  V30 2217 H 213.038 3.40688 1.84418 0
M  V30 2218 H 213.452 5.21436 0.56613 0
M  V30 2219 H 214.926 5.03314 2.26669 0
M  V30 2220 H 215.403 3.41193 2.76558 0
M  V30 2221 H 216.009 4.07156 1.22898 0
M  V30 2222 N 214.325 -0.140222 1.56975 0
M  V30 2223 C 215.553 -0.866437 1.87884 0
M  V30 2224 C 215.968 -1.74428 0.722517 0
M  V30 2225 O 215.325 -1.79891 -0.30749 0
M  V30 2226 C 215.376 -1.71753 3.18093 0
M  V30 2227 O 215.097 -0.875056 4.29272 0
M  V30 2228 C 216.598 -2.55074 3.62563 0
M  V30 2229 H 213.818 -0.25019 0.622612 0
M  V30 2230 H 216.362 -0.130977 2.0408 0
M  V30 2231 H 214.517 -2.40598 3.03631 0
M  V30 2232 H 214.931 -1.46002 5.03769 0
M  V30 2233 H 216.405 -3.10356 4.5649 0
M  V30 2234 H 216.882 -3.31434 2.88181 0
M  V30 2235 H 217.488 -1.91509 3.79743 0
M  V30 2236 N 215.803 -1.52179 -0.40978 0
M  V30 2237 C 217.219 -1.40968 -0.74835 0
M  V30 2238 C 217.419 -0.513657 -1.94843 0
M  V30 2239 O 216.475 0.0208026 -2.52491 0
M  V30 2240 C 217.788 -2.83483 -1.0029 0
M  V30 2241 C 219.336 -2.92821 -1.10565 0
M  V30 2242 C 219.811 -4.36303 -1.39296 0
M  V30 2243 N 221.302 -4.39535 -1.46162 0
M  V30 2244 C 222.037 -5.47614 -1.70018 0
M  V30 2245 N 221.533 -6.65812 -1.91483 0
M  V30 2246 N 223.326 -5.35129 -1.72027 0
M  V30 2247 H 215.477 -2.0897 0.380186 0
M  V30 2248 H 217.74 -0.94185 0.107805 0
M  V30 2249 H 217.446 -3.51168 -0.193461 0
M  V30 2250 H 217.32 -3.24487 -1.92323 0
M  V30 2251 H 219.707 -2.25318 -1.90568 0
M  V30 2252 H 219.788 -2.55276 -0.16369 0
M  V30 2253 H 219.432 -5.04366 -0.598109 0
M  V30 2254 H 219.362 -4.71385 -2.34743 0
M  V30 2255 H 221.853 -3.54332 -1.31367 0
M  V30 2256 H 222.166 -7.43964 -2.09134 0
M  V30 2257 H 220.511 -6.68879 -1.88749 0
M  V30 2258 H 223.702 -4.41764 -1.54796 0
M  V30 2259 H 223.875 -6.19433 -1.9028 0
M  V30 2260 N 217.281 0.66697 -1.42791 0
M  V30 2261 C 218.529 1.42417 -1.43394 0
M  V30 2262 C 218.85 1.94925 -0.0542373 0
M  V30 2263 O 218.12 1.73564 0.908415 0
M  V30 2264 H 216.7 0.528515 -0.527902 0
M  V30 2265 H 219.362 0.787562 -1.78279 0
M  V30 2266 H 218.458 2.27333 -2.13837 0
M  V30 2267 N 218.759 1.29093 0.90403 0
M  V30 2268 C 219.707 1.13727 2.02901 0
M  V30 2269 C 220.701 0.0539853 1.69314 0
M  V30 2270 O 221.907 0.213469 1.7873 0
M  V30 2271 H 218.282 0.35117 0.664969 0
M  V30 2272 H 220.253 2.08982 2.13001 0
M  V30 2273 C 219.002 0.826066 3.37745 0
M  V30 2274 H 218.325 1.65164 3.64089 0
M  V30 2275 H 219.765 0.758559 4.17159 0
M  V30 2276 C 218.224 -0.470541 3.33598 0
M  V30 2277 O 218.754 -1.49792 3.72727 0
M  V30 2278 N 216.96 -0.474812 2.86695 0
M  V30 2279 H 216.507 0.361692 2.55048 0
M  V30 2280 H 216.465 -1.34236 2.84303 0
M  V30 2281 N 220.237 -1.11381 1.11499 0
M  V30 2282 C 221.147 -2.21019 0.786628 0
M  V30 2283 C 222.163 -1.72597 -0.220507 0
M  V30 2284 O 223.339 -2.01321 -0.0565251 0
M  V30 2285 C 220.404 -3.459 0.235333 0
M  V30 2286 C 219.465 -4.09107 1.30115 0
M  V30 2287 C 218.698 -5.28027 0.776068 0
M  V30 2288 O 218.921 -5.6904 -0.393661 0
M  V30 2289 O 217.855 -5.81835 1.54114 0
M  V30 2290 H 221.681 -2.51521 1.70209 0
M  V30 2291 H 219.266 -1.19928 0.890928 0
M  V30 2292 H 221.148 -4.21346 -0.067715 0
M  V30 2293 H 219.823 -3.17049 -0.652828 0
M  V30 2294 H 218.73 -3.35391 1.65722 0
M  V30 2295 H 220.063 -4.42139 2.16273 0
M  V30 2296 N 221.715 -0.905404 -1.28997 0
M  V30 2297 C 222.961 -0.535039 -1.95615 0
M  V30 2298 C 223.294 0.917404 -1.71165 0
M  V30 2299 O 222.569 1.65123 -1.02785 0
M  V30 2300 C 222.852 -0.834918 -3.50287 0
M  V30 2301 C 222.705 -2.33948 -3.84172 0
M  V30 2302 C 224.024 -0.325318 -4.38896 0
M  V30 2303 H 221.143 -0.195861 -0.710498 0
M  V30 2304 H 223.785 -1.13313 -1.52513 0
M  V30 2305 H 221.935 -0.325904 -3.87131 0
M  V30 2306 H 223.607 -2.91847 -3.57243 0
M  V30 2307 H 221.85 -2.79789 -3.31513 0
M  V30 2308 H 222.521 -2.49987 -4.92149 0
M  V30 2309 H 224.997 -0.761256 -4.09077 0
M  V30 2310 H 223.873 -0.564295 -5.45992 0
M  V30 2311 H 224.134 0.774144 -4.35269 0
M  V30 2312 N 223.193 1.4272 -0.668489 0
M  V30 2313 C 224.442 2.00846 -0.185389 0
M  V30 2314 C 224.755 1.53442 1.21305 0
M  V30 2315 O 225.961 2.03944 1.79218 0
M  V30 2316 C 224.417 3.58805 -0.280591 0
M  V30 2317 C 224.025 4.15198 -1.68268 0
M  V30 2318 C 225.769 4.24255 0.14412 0
M  V30 2319 C 223.676 5.655 -1.73099 0
M  V30 2320 H 222.606 0.751145 -0.0655475 0
M  V30 2321 H 225.257 1.63516 -0.832752 0
M  V30 2322 H 223.639 3.93608 0.434553 0
M  V30 2323 H 224.813 3.91866 -2.42441 0
M  V30 2324 H 223.128 3.62176 -2.05469 0
M  V30 2325 H 225.725 5.34547 0.128086 0
M  V30 2326 H 226.068 3.99277 1.17827 0
M  V30 2327 H 226.601 3.94389 -0.519798 0
M  V30 2328 H 223.34 5.95268 -2.74475 0
M  V30 2329 H 222.86 5.90842 -1.03274 0
M  V30 2330 H 224.539 6.29808 -1.48158 0
M  V30 2331 N 224.671 0.411399 1.52136 0
M  V30 2332 C 225.896 -0.165538 2.06738 0
M  V30 2333 C 226.321 -1.379 1.27926 0
M  V30 2334 O 225.679 -1.78628 0.310114 0
M  V30 2335 C 225.727 -0.492124 3.57226 0
M  V30 2336 O 224.831 -1.58276 3.80818 0
M  V30 2337 H 224.172 -0.0132132 0.663869 0
M  V30 2338 H 226.702 0.585253 1.96051 0
M  V30 2339 H 226.712 -0.750104 4.01045 0
M  V30 2340 H 225.387 0.394922 4.14021 0
M  V30 2341 H 223.964 -1.31677 3.48877 0
M  V30 2342 N 226.149 -1.5696 0.141893 0
M  V30 2343 C 227.395 -1.9625 -0.511248 0
M  V30 2344 C 227.728 -1.02654 -1.64851 0
M  V30 2345 O 227.003 -0.0679676 -1.94381 0
M  V30 2346 C 227.286 -3.45285 -1.02227 0
M  V30 2347 C 227.139 -4.49658 0.113138 0
M  V30 2348 C 228.458 -3.96698 -1.90574 0
M  V30 2349 H 225.577 -0.713567 -0.184367 0
M  V30 2350 H 228.219 -1.88698 0.222087 0
M  V30 2351 H 226.369 -3.51852 -1.64719 0
M  V30 2352 H 228.041 -4.55174 0.749302 0
M  V30 2353 H 226.284 -4.26857 0.773026 0
M  V30 2354 H 226.955 -5.51258 -0.286053 0
M  V30 2355 H 229.431 -3.92578 -1.37918 0
M  V30 2356 H 228.307 -5.01453 -2.2324 0
M  V30 2357 H 228.568 -3.3875 -2.84079 0
M  V30 2358 N 227.627 0.131896 -1.57047 0
M  V30 2359 C 228.56 1.19236 -1.94571 0
M  V30 2360 C 229.538 1.40782 -0.813576 0
M  V30 2361 O 230.722 1.55148 -1.07058 0
M  V30 2362 C 227.849 2.54858 -2.23081 0
M  V30 2363 C 226.895 2.49817 -3.45679 0
M  V30 2364 S 227.728 1.95036 -4.98719 0
M  V30 2365 C 228.884 3.32357 -5.30367 0
M  V30 2366 H 229.117 0.872297 -2.84215 0
M  V30 2367 H 226.65 0.338134 -1.50652 0
M  V30 2368 H 228.608 3.32898 -2.40185 0
M  V30 2369 H 227.269 2.84047 -1.34074 0
M  V30 2370 H 226.462 3.49688 -3.62952 0
M  V30 2371 H 226.064 1.79892 -3.27895 0
M  V30 2372 H 228.356 4.28525 -5.2476 0
M  V30 2373 H 229.299 3.19923 -6.31708 0
M  V30 2374 H 229.707 3.3019 -4.57859 0
M  V30 2375 N 229.106 1.52395 0.401703 0
M  V30 2376 C 230.054 1.7689 1.51039 0
M  V30 2377 C 231.048 0.636298 1.56996 0
M  V30 2378 O 232.254 0.818507 1.60314 0
M  V30 2379 H 228.629 0.559502 0.502456 0
M  V30 2380 H 230.6 2.69757 1.27568 0
M  V30 2381 C 229.349 1.94331 2.88324 0
M  V30 2382 H 228.672 2.80905 2.84486 0
M  V30 2383 H 230.112 2.15466 3.65172 0
M  V30 2384 C 228.571 0.712396 3.29282 0
M  V30 2385 O 229.101 -0.116218 4.01532 0
M  V30 2386 N 227.307 0.546154 2.85422 0
M  V30 2387 H 226.854 1.22156 2.26794 0
M  V30 2388 H 226.812 -0.276113 3.13185 0
M  V30 2389 N 230.584 -0.659388 1.43143 0
M  V30 2390 C 232 -0.974337 1.26407 0
M  V30 2391 C 232.2 -2.007 0.179341 0
M  V30 2392 O 231.256 -2.4856 -0.444295 0
M  V30 2393 C 232.569 -1.46447 2.62628 0
M  V30 2394 C 234.117 -1.58144 2.7011 0
M  V30 2395 C 234.592 -2.1055 4.06734 0
M  V30 2396 N 236.083 -2.17861 4.08767 0
M  V30 2397 C 236.818 -2.59519 5.1131 0
M  V30 2398 N 236.314 -3.00518 6.24228 0
M  V30 2399 N 238.107 -2.59404 4.98664 0
M  V30 2400 H 230.258 0.0240528 2.12386 0
M  V30 2401 H 232.521 -0.0518065 0.946583 0
M  V30 2402 H 232.227 -0.780123 3.42939 0
M  V30 2403 H 232.101 -2.44058 2.87603 0
M  V30 2404 H 234.488 -2.25682 1.90136 0
M  V30 2405 H 234.569 -0.589828 2.48907 0
M  V30 2406 H 234.213 -1.43616 4.87172 0
M  V30 2407 H 234.143 -3.10531 4.25298 0
M  V30 2408 H 236.634 -1.88975 3.27257 0
M  V30 2409 H 236.947 -3.31036 6.98309 0
M  V30 2410 H 235.292 -2.98337 6.2771 0
M  V30 2411 H 238.483 -2.26747 4.09516 0
M  V30 2412 H 238.656 -2.91548 5.78709 0
M  V30 2413 N 232.062 -1.29571 -0.897171 0
M  V30 2414 C 233.025 -1.14913 -1.98312 0
M  V30 2415 C 234.025 -0.0838629 -1.60581 0
M  V30 2416 O 235.215 -0.331006 -1.71026 0
M  V30 2417 C 232.347 -0.757835 -3.3237 0
M  V30 2418 H 233.54 -2.11377 -2.12743 0
M  V30 2419 H 231.093 -1.12793 -1.08201 0
M  V30 2420 H 231.828 0.206837 -3.2364 0
M  V30 2421 H 231.613 -1.52755 -3.61121 0
M  V30 2422 H 233.103 -0.678408 -4.12053 0
M  V30 2423 N 233.54 1.10788 -1.12088 0
M  V30 2424 C 234.487 2.17025 -0.785407 0
M  V30 2425 C 235.457 1.64265 0.246191 0
M  V30 2426 O 236.642 1.90412 0.121584 0
M  V30 2427 C 233.782 3.44249 -0.242177 0
M  V30 2428 C 232.895 4.1098 -1.33115 0
M  V30 2429 C 232.03 5.25911 -0.747741 0
M  V30 2430 C 231.069 5.84538 -1.81609 0
M  V30 2431 N 230.206 6.90853 -1.25167 0
M  V30 2432 H 235.046 2.45066 -1.69548 0
M  V30 2433 H 232.583 1.20297 -0.846582 0
M  V30 2434 H 234.541 4.17101 0.0908026 0
M  V30 2435 H 233.171 3.16571 0.631072 0
M  V30 2436 H 232.223 3.36133 -1.78097 0
M  V30 2437 H 233.535 4.50601 -2.13917 0
M  V30 2438 H 232.689 6.056 -0.365216 0
M  V30 2439 H 231.428 4.87614 0.0915188 0
M  V30 2440 H 230.433 5.03522 -2.20785 0
M  V30 2441 H 231.658 6.249 -2.6585 0
M  V30 2442 H 229.604 6.54562 -0.434174 0
M  V30 2443 H 229.521 7.29166 -1.99633 0
M  V30 2444 H 230.789 7.7433 -0.896259 0
M  V30 2445 N 235.018 0.912232 1.28515 0
M  V30 2446 C 235.965 0.397954 2.27343 0
M  V30 2447 C 236.935 -0.526766 1.57526 0
M  V30 2448 O 238.12 -0.449292 1.85435 0
M  V30 2449 C 235.26 -0.357263 3.43246 0
M  V30 2450 C 234.373 0.599788 4.27816 0
M  V30 2451 C 233.508 -0.173725 5.30916 0
M  V30 2452 C 232.547 0.777039 6.07148 0
M  V30 2453 N 231.684 0.0371398 7.0209 0
M  V30 2454 H 236.524 1.24577 2.70711 0
M  V30 2455 H 234.061 0.625612 1.33133 0
M  V30 2456 H 236.019 -0.8113 4.09236 0
M  V30 2457 H 234.649 -1.16943 3.00872 0
M  V30 2458 H 233.701 1.17235 3.61884 0
M  V30 2459 H 235.013 1.32704 4.80823 0
M  V30 2460 H 234.167 -0.688394 6.02782 0
M  V30 2461 H 232.906 -0.934041 4.78672 0
M  V30 2462 H 231.911 1.3031 5.34134 0
M  V30 2463 H 233.136 1.53689 6.61481 0
M  V30 2464 H 231.082 -0.705213 6.52198 0
M  V30 2465 H 230.999 0.704249 7.52713 0
M  V30 2466 H 232.267 -0.457383 7.78157 0
M  V30 2467 N 236.496 -1.42363 0.676048 0
M  V30 2468 C 237.459 -2.29199 0.00766941 0
M  V30 2469 C 238.459 -1.43389 -0.727745 0
M  V30 2470 O 239.649 -1.64764 -0.56556 0
M  V30 2471 C 236.781 -3.2591 -0.999785 0
M  V30 2472 H 237.974 -2.89794 0.771988 0
M  V30 2473 H 235.527 -1.50024 0.438468 0
M  V30 2474 H 236.262 -2.70256 -1.79255 0
M  V30 2475 H 236.047 -3.89202 -0.475829 0
M  V30 2476 H 237.537 -3.91028 -1.46583 0
M  V30 2477 N 237.974 -0.419461 -1.51915 0
M  V30 2478 C 239.222 0.152637 -2.01523 0
M  V30 2479 C 239.543 1.44762 -1.30649 0
M  V30 2480 O 238.813 1.90997 -0.435535 0
M  V30 2481 H 237.393 0.0593966 -0.744635 0
M  V30 2482 H 240.055 -0.558073 -1.86739 0
M  V30 2483 H 239.151 0.341369 -3.10227 0
M  V30 2484 N 239.452 1.56882 -0.150215 0
M  V30 2485 C 240.399 2.16922 0.788244 0
M  V30 2486 C 241.369 1.10303 1.24187 0
M  V30 2487 O 242.554 1.38359 1.31383 0
M  V30 2488 C 239.694 2.79754 2.02068 0
M  V30 2489 C 238.807 4.00775 1.61257 0
M  V30 2490 C 237.942 4.51595 2.79705 0
M  V30 2491 C 236.981 5.65074 2.35282 0
M  V30 2492 N 236.118 6.10499 3.4675 0
M  V30 2493 H 240.958 2.96779 0.269444 0
M  V30 2494 H 238.495 1.46599 0.12128 0
M  V30 2495 H 240.453 3.14329 2.74323 0
M  V30 2496 H 239.083 2.02536 2.51354 0
M  V30 2497 H 238.135 3.72158 0.787553 0
M  V30 2498 H 239.447 4.82978 1.24633 0
M  V30 2499 H 238.601 4.88242 3.60145 0
M  V30 2500 H 237.34 3.68406 3.19576 0
M  V30 2501 H 236.345 5.28 1.53283 0
M  V30 2502 H 237.57 6.50052 1.96493 0
M  V30 2503 H 235.516 5.30243 3.86236 0
M  V30 2504 H 235.433 6.87637 3.14152 0
M  V30 2505 H 236.701 6.51791 4.27537 0
M  V30 2506 N 240.93 -0.123565 1.57115 0
M  V30 2507 C 242.155 -0.850398 1.89164 0
M  V30 2508 C 242.58 -1.7286 0.741688 0
M  V30 2509 O 241.938 -1.78665 -0.307958 0
M  V30 2510 C 241.986 -1.66353 3.19936 0
M  V30 2511 O 241.09 -2.77004 3.0552 0
M  V30 2512 H 240.431 -0.235454 0.620852 0
M  V30 2513 H 242.961 -0.107335 2.04318 0
M  V30 2514 H 242.971 -2.05372 3.52543 0
M  V30 2515 H 241.646 -1.01881 4.03228 0
M  V30 2516 H 240.223 -2.41221 2.84371 0
M  V30 2517 N 242.408 -1.52605 -0.393616 0
M  V30 2518 C 243.654 -1.67672 -1.14079 0
M  V30 2519 C 243.987 -0.413121 -1.89755 0
M  V30 2520 O 243.262 0.588952 -1.85369 0
M  V30 2521 C 243.545 -2.9088 -2.12276 0
M  V30 2522 C 243.398 -4.27329 -1.40394 0
M  V30 2523 C 244.717 -3.09628 -3.12759 0
M  V30 2524 H 241.836 -0.610168 -0.413356 0
M  V30 2525 H 244.478 -1.85193 -0.424696 0
M  V30 2526 H 242.628 -2.76073 -2.73342 0
M  V30 2527 H 244.3 -4.53894 -0.82327 0
M  V30 2528 H 242.543 -4.2802 -0.705801 0
M  V30 2529 H 243.214 -5.09615 -2.12123 0
M  V30 2530 H 245.69 -3.23436 -2.61779 0
M  V30 2531 H 244.566 -3.97322 -3.78717 0
M  V30 2532 H 244.827 -2.23637 -3.81365 0
M  V30 2533 N 243.887 0.651787 -1.4349 0
M  V30 2534 C 245.135 1.40888 -1.44897 0
M  V30 2535 C 245.456 1.94856 -0.0749086 0
M  V30 2536 O 244.726 1.74518 0.889956 0
M  V30 2537 H 243.306 0.522887 -0.533478 0
M  V30 2538 H 245.968 0.768609 -1.79104 0
M  V30 2539 H 245.064 2.25052 -2.16236 0
M  V30 2540 N 245.365 1.30045 0.890287 0
M  V30 2541 C 246.611 1.18737 1.64406 0
M  V30 2542 C 246.944 -0.258525 1.92472 0
M  V30 2543 O 246.219 -1.18562 1.54186 0
M  V30 2544 C 246.502 2.01087 2.98724 0
M  V30 2545 C 246.355 3.53867 2.77665 0
M  V30 2546 C 247.674 1.84457 3.9958 0
M  V30 2547 H 244.793 0.432698 0.596608 0
M  V30 2548 H 247.435 1.5962 1.0306 0
M  V30 2549 H 245.585 1.66349 3.51084 0
M  V30 2550 H 247.257 3.98637 2.32133 0
M  V30 2551 H 245.5 3.78318 2.12269 0
M  V30 2552 H 246.171 4.06772 3.7315 0
M  V30 2553 H 248.647 2.14817 3.56361 0
M  V30 2554 H 247.523 2.44411 4.91482 0
M  V30 2555 H 247.784 0.802276 4.3476 0
M  V30 2556 N 246.843 -1.10192 1.12674 0
M  V30 2557 C 248.089 -1.82475 0.884915 0
M  V30 2558 C 248.422 -1.85093 -0.58773 0
M  V30 2559 O 247.697 -1.3134 -1.43457 0
M  V30 2560 C 247.98 -3.29018 1.46353 0
M  V30 2561 C 247.833 -3.34718 3.00473 0
M  V30 2562 C 249.152 -4.25473 1.12519 0
M  V30 2563 H 246.271 -0.662492 0.322915 0
M  V30 2564 H 248.913 -1.2913 1.39375 0
M  V30 2565 H 247.063 -3.74576 1.03077 0
M  V30 2566 H 248.735 -2.97622 3.52447 0
M  V30 2567 H 246.978 -2.74541 3.35872 0
M  V30 2568 H 247.649 -4.37918 3.36053 0
M  V30 2569 H 250.125 -3.88161 1.499 0
M  V30 2570 H 249.001 -5.26365 1.55663 0
M  V30 2571 H 249.262 -4.42084 0.0377407 0
M  V30 2572 N 248.321 -0.919034 -1.28029 0
M  V30 2573 C 249.549 -0.570971 -1.98866 0
M  V30 2574 C 249.964 0.848996 -1.68634 0
M  V30 2575 O 249.321 1.56307 -0.942036 0
M  V30 2576 C 249.372 -0.776876 -3.53054 0
M  V30 2577 O 249.093 -2.14097 -3.82222 0
M  V30 2578 C 250.594 -0.436356 -4.41147 0
M  V30 2579 H 247.814 -0.217175 -0.634883 0
M  V30 2580 H 250.358 -1.23368 -1.63097 0
M  V30 2581 H 248.513 -0.161085 -3.87065 0
M  V30 2582 H 248.927 -2.18455 -4.76841 0
M  V30 2583 H 250.401 -0.63117 -5.4838 0
M  V30 2584 H 250.878 0.627686 -4.34692 0
M  V30 2585 H 251.484 -1.02991 -4.12641 0
M  V30 2586 N 249.799 1.42003 -0.683588 0
M  V30 2587 C 251.027 2.05746 -0.218182 0
M  V30 2588 C 251.442 1.51396 1.12804 0
M  V30 2589 O 250.799 0.657303 1.70252 0
M  V30 2590 C 250.85 3.61171 -0.154131 0
M  V30 2591 O 250.571 4.13508 -1.44716 0
M  V30 2592 C 252.072 4.42042 0.333713 0
M  V30 2593 H 249.292 0.662888 -0.10402 0
M  V30 2594 H 251.836 1.81987 -0.9328 0
M  V30 2595 H 249.991 3.84012 0.511231 0
M  V30 2596 H 250.405 5.07453 -1.32632 0
M  V30 2597 H 251.879 5.51028 0.327423 0
M  V30 2598 H 252.356 4.17269 1.37053 0
M  V30 2599 H 252.962 4.24239 -0.300222 0
M  V30 2600 N 251.277 0.427512 1.51691 0
M  V30 2601 C 252.505 -0.141191 2.06418 0
M  V30 2602 C 252.92 -1.37303 1.29589 0
M  V30 2603 O 252.277 -1.79059 0.352732 0
M  V30 2604 C 252.328 -0.473266 3.58389 0
M  V30 2605 O 252.049 0.709673 4.32314 0
M  V30 2606 C 253.55 -1.09371 4.29596 0
M  V30 2607 H 250.77 -0.0122747 0.670888 0
M  V30 2608 H 253.314 0.603764 1.95384 0
M  V30 2609 H 251.469 -1.16812 3.69369 0
M  V30 2610 H 251.883 0.42807 5.2275 0
M  V30 2611 H 253.357 -1.27613 5.37046 0
M  V30 2612 H 253.834 -2.072 3.87253 0
M  V30 2613 H 254.44 -0.43853 4.23033 0
M  V30 2614 N 252.755 -1.56801 0.158532 0
M  V30 2615 C 254.171 -1.5837 -0.197774 0
M  V30 2616 C 254.371 -1.17334 -1.63814 0
M  V30 2617 O 253.427 -0.878988 -2.36707 0
M  V30 2618 C 254.74 -3.00615 0.0714459 0
M  V30 2619 C 256.288 -3.12999 0.00864533 0
M  V30 2620 C 256.763 -4.57313 0.250685 0
M  V30 2621 N 258.254 -4.62777 0.198014 0
M  V30 2622 C 258.989 -5.72271 0.359642 0
M  V30 2623 N 258.485 -6.90371 0.579625 0
M  V30 2624 N 260.278 -5.61318 0.296438 0
M  V30 2625 H 252.429 -1.81765 1.09887 0
M  V30 2626 H 254.692 -0.841849 0.435884 0
M  V30 2627 H 254.398 -3.35068 1.06874 0
M  V30 2628 H 254.272 -3.71683 -0.642757 0
M  V30 2629 H 256.659 -2.7838 -0.979217 0
M  V30 2630 H 256.74 -2.44393 0.755359 0
M  V30 2631 H 256.384 -4.92639 1.2357 0
M  V30 2632 H 256.314 -5.24061 -0.516489 0
M  V30 2633 H 258.805 -3.77885 0.0331115 0
M  V30 2634 H 259.118 -7.69689 0.69275 0
M  V30 2635 H 257.463 -6.92264 0.616087 0
M  V30 2636 H 260.654 -4.67932 0.125258 0
M  V30 2637 H 260.827 -6.46599 0.425831 0
M  V30 2638 N 254.233 0.115231 -1.57178 0
M  V30 2639 C 255.479 0.82357 -1.85325 0
M  V30 2640 C 255.812 1.79349 -0.744814 0
M  V30 2641 O 255.087 1.92899 0.249024 0
M  V30 2642 C 255.37 1.57014 -3.24066 0
M  V30 2643 C 255.223 0.619565 -4.45513 0
M  V30 2644 C 256.542 2.52545 -3.60429 0
M  V30 2645 H 253.661 0.297948 -0.674089 0
M  V30 2646 H 256.303 0.0877138 -1.89797 0
M  V30 2647 H 254.453 2.19742 -3.20383 0
M  V30 2648 H 256.125 0.000837639 -4.613 0
M  V30 2649 H 254.368 -0.0686174 -4.33746 0
M  V30 2650 H 255.039 1.17866 -5.3927 0
M  V30 2651 H 257.515 1.9992 -3.64926 0
M  V30 2652 H 256.391 3.01811 -4.58477 0
M  V30 2653 H 256.652 3.35383 -2.88047 0
M  V30 2654 N 255.711 1.52812 0.385517 0
M  V30 2655 C 256.643 1.74096 1.49074 0
M  V30 2656 C 257.656 0.621462 1.50472 0
M  V30 2657 O 258.845 0.897245 1.54311 0
M  V30 2658 C 255.945 1.78774 2.87911 0
M  V30 2659 C 255.118 3.08134 3.10439 0
M  V30 2660 C 254.177 3.04313 4.29278 0
M  V30 2661 O 253.203 3.78168 4.25415 0
M  V30 2662 N 254.405 2.23741 5.35649 0
M  V30 2663 H 257.17 2.69455 1.31202 0
M  V30 2664 H 254.731 1.51343 0.575065 0
M  V30 2665 H 256.723 1.73721 3.65518 0
M  V30 2666 H 255.293 0.907869 2.99126 0
M  V30 2667 H 254.513 3.26649 2.20667 0
M  V30 2668 H 255.801 3.93662 3.22347 0
M  V30 2669 H 255.199 1.63211 5.41645 0
M  V30 2670 H 253.756 2.24524 6.11909 0
M  V30 2671 N 257.189 -0.644168 1.43834 0
M  V30 2672 C 258.139 -1.7501 1.46135 0
M  V30 2673 C 259.123 -1.57507 0.328685 0
M  V30 2674 O 260.315 -1.67465 0.5731 0
M  V30 2675 C 257.444 -3.13641 1.39585 0
M  V30 2676 C 256.53 -3.3666 2.57916 0
M  V30 2677 N 256.921 -3.30107 3.83227 0
M  V30 2678 C 255.219 -3.67411 2.52834 0
M  V30 2679 C 255.92 -3.53456 4.61999 0
M  V30 2680 N 254.896 -3.75705 3.9287 0
M  V30 2681 H 258.698 -1.68382 2.40883 0
M  V30 2682 H 256.212 -0.846169 1.38614 0
M  V30 2683 H 258.209 -3.92933 1.39317 0
M  V30 2684 H 256.869 -3.21444 0.45865 0
M  V30 2685 H 257.88 -3.09316 4.15384 0
M  V30 2686 H 254.557 -3.82275 1.67845 0
M  V30 2687 H 255.947 -3.54093 5.71024 0
M  V30 2688 N 258.668 -1.30515 -0.883378 0
M  V30 2689 C 259.631 -1.1701 -1.97082 0
M  V30 2690 C 260.631 -0.10089 -1.60483 0
M  V30 2691 O 261.821 -0.349127 -1.70666 0
M  V30 2692 C 258.953 -0.793045 -3.31547 0
M  V30 2693 H 260.146 -2.13622 -2.10489 0
M  V30 2694 H 257.699 -1.13935 -1.06998 0
M  V30 2695 H 258.434 0.172499 -3.23841 0
M  V30 2696 H 258.219 -1.56576 -3.5948 0
M  V30 2697 H 259.709 -0.722073 -4.1131 0
M  V30 2698 N 260.146 1.09593 -1.13257 0
M  V30 2699 C 261.371 1.8604 -0.916732 0
M  V30 2700 C 261.796 1.80504 0.529146 0
M  V30 2701 O 261.154 1.18127 1.37534 0
M  V30 2702 C 261.202 3.32017 -1.40703 0
M  V30 2703 O 260.306 4.08141 -0.591153 0
M  V30 2704 H 259.647 0.576943 -0.328683 0
M  V30 2705 H 262.177 1.38405 -1.50682 0
M  V30 2706 H 262.187 3.82865 -1.4099 0
M  V30 2707 H 260.862 3.35361 -2.45979 0
M  V30 2708 H 259.439 3.67084 -0.656005 0
M  V30 2709 N 261.624 0.925811 1.2754 0
M  V30 2710 C 263.035 0.610102 1.7645 0
M  V30 2711 C 263.386 -0.874723 1.75622 0
M  V30 2712 O 262.511 -1.68444 1.35851 0
M  V30 2713 C 263.106 1.10073 3.20421 0
M  V30 2714 C 261.665 0.835723 3.67005 0
M  V30 2715 C 260.812 1.26054 2.46993 0
M  V30 2716 H 263.763 1.10579 1.13833 0
M  V30 2717 H 263.784 0.447557 3.77859 0
M  V30 2718 H 263.296 2.18143 3.20991 0
M  V30 2719 H 261.397 -0.231249 3.71882 0
M  V30 2720 H 261.51 1.45193 4.56569 0
M  V30 2721 H 259.874 0.679111 2.45479 0
M  V30 2722 H 260.657 2.34984 2.50275 0
M  V30 2723 N 263.102 -1.41638 0.69111 0
M  V30 2724 C 264.065 -2.29178 0.0319786 0
M  V30 2725 C 265.065 -1.44153 -0.712496 0
M  V30 2726 O 266.255 -1.65354 -0.548053 0
M  V30 2727 C 263.387 -3.26952 -0.965161 0
M  V30 2728 H 264.58 -2.88959 0.802681 0
M  V30 2729 H 262.133 -1.4955 0.454356 0
M  V30 2730 H 262.868 -2.72142 -1.76378 0
M  V30 2731 H 262.653 -3.89685 -0.434522 0
M  V30 2732 H 264.143 -3.92561 -1.42428 0
M  V30 2733 N 264.58 -0.43555 -1.51462 0
M  V30 2734 C 265.828 0.131254 -2.01673 0
M  V30 2735 C 266.149 1.43368 -1.32177 0
M  V30 2736 O 265.419 1.90524 -0.455769 0
M  V30 2737 H 263.999 0.0514954 -0.745223 0
M  V30 2738 H 266.661 -0.577847 -1.86137 0
M  V30 2739 H 265.757 0.308446 -3.10572 0
M  V30 2740 N 266.058 1.56714 -0.166846 0
M  V30 2741 C 267.286 2.0112 0.485644 0
M  V30 2742 C 267.701 1.04705 1.57106 0
M  V30 2743 O 267.058 0.0471923 1.82439 0
M  V30 2744 C 267.109 3.45361 1.06808 0
M  V30 2745 O 266.83 4.38092 0.0259995 0
M  V30 2746 C 268.331 4.05145 1.79924 0
M  V30 2747 H 265.551 0.65931 0.124704 0
M  V30 2748 H 268.095 2.02746 -0.267262 0
M  V30 2749 H 266.25 3.44524 1.7715 0
M  V30 2750 H 266.664 5.22519 0.455398 0
M  V30 2751 H 268.138 5.08009 2.15942 0
M  V30 2752 H 268.615 3.46982 2.69258 0
M  V30 2753 H 269.221 4.09672 1.14234 0
M  V30 2754 N 267.536 -0.106894 1.57237 0
M  V30 2755 C 268.766 -0.825191 1.89405 0
M  V30 2756 C 269.174 -1.73374 0.757496 0
M  V30 2757 O 268.517 -1.81552 -0.280115 0
M  V30 2758 C 268.579 -1.70102 3.1671 0
M  V30 2759 C 268.243 -0.965523 4.46684 0
M  V30 2760 C 269.24 -0.300741 5.19029 0
M  V30 2761 C 266.925 -0.943105 4.93367 0
M  V30 2762 C 268.919 0.376622 6.36286 0
M  V30 2763 C 266.606 -0.261949 6.10538 0
M  V30 2764 C 267.604 0.396748 6.81847 0
M  V30 2765 O 267.292 1.06701 7.96787 0
M  V30 2766 H 267.024 -0.241852 0.631255 0
M  V30 2767 H 269.578 -0.0921491 2.05193 0
M  V30 2768 H 267.808 -2.47601 2.97036 0
M  V30 2769 H 269.497 -2.29483 3.34802 0
M  V30 2770 H 270.263 -0.309599 4.84011 0
M  V30 2771 H 266.142 -1.44524 4.3776 0
M  V30 2772 H 269.686 0.891334 6.91882 0
M  V30 2773 H 265.583 -0.250896 6.45012 0
M  V30 2774 H 266.351 0.972707 8.127 0
M  V30 2775 N 269.014 -1.53014 -0.377408 0
M  V30 2776 C 269.977 -1.77957 -1.44444 0
M  V30 2777 C 270.977 -0.649763 -1.47087 0
M  V30 2778 O 272.167 -0.917897 -1.48055 0
M  V30 2779 C 269.299 -1.89089 -2.83651 0
M  V30 2780 H 270.492 -2.73243 -1.23606 0
M  V30 2781 H 268.045 -1.43912 -0.609844 0
M  V30 2782 H 268.78 -0.958293 -3.09818 0
M  V30 2783 H 268.565 -2.71254 -2.83132 0
M  V30 2784 H 270.055 -2.1002 -3.60945 0
M  V30 2785 N 270.492 0.636531 -1.44174 0
M  V30 2786 C 271.442 1.74233 -1.47061 0
M  V30 2787 C 272.426 1.57331 -0.337034 0
M  V30 2788 O 273.618 1.67159 -0.581973 0
M  V30 2789 C 270.747 3.12897 -1.41246 0
M  V30 2790 C 269.833 3.35288 -2.59698 0
M  V30 2791 N 270.224 3.2807 -3.84972 0
M  V30 2792 C 268.522 3.66065 -2.54778 0
M  V30 2793 C 269.223 3.51001 -4.63867 0
M  V30 2794 N 268.199 3.73616 -3.94857 0
M  V30 2795 H 272.001 1.67103 -2.41773 0
M  V30 2796 H 269.515 0.838806 -1.3906 0
M  V30 2797 H 271.512 3.92189 -1.41398 0
M  V30 2798 H 270.172 3.21197 -0.47569 0
M  V30 2799 H 271.183 3.07109 -4.17019 0
M  V30 2800 H 267.86 3.81379 -1.6987 0
M  V30 2801 H 269.25 3.51059 -5.72894 0
M  V30 2802 N 271.97 1.30982 0.876444 0
M  V30 2803 C 273.198 1.23242 1.6619 0
M  V30 2804 C 273.613 -0.203345 1.87702 0
M  V30 2805 O 272.97 -1.13317 1.43057 0
M  V30 2806 C 273.021 1.96623 3.03351 0
M  V30 2807 O 272.742 3.34594 2.82804 0
M  V30 2808 C 274.243 1.95644 3.97792 0
M  V30 2809 H 271.463 0.426126 0.518322 0
M  V30 2810 H 274.007 1.7275 1.09442 0
M  V30 2811 H 272.162 1.50892 3.56806 0
M  V30 2812 H 272.576 3.71873 3.69879 0
M  V30 2813 H 274.05 2.51511 4.91372 0
M  V30 2814 H 274.527 0.937395 4.2908 0
M  V30 2815 H 275.133 2.41225 3.50272 0
M  V30 2816 N 273.449 -1.08991 1.13837 0
M  V30 2817 C 274.695 -1.81526 0.90422 0
M  V30 2818 C 275.028 -1.85706 -0.568066 0
M  V30 2819 O 274.303 -1.32855 -1.42056 0
M  V30 2820 C 274.586 -3.27447 1.49835 0
M  V30 2821 C 274.439 -3.31512 3.04006 0
M  V30 2822 C 275.758 -4.24256 1.17025 0
M  V30 2823 H 272.877 -0.659029 0.329923 0
M  V30 2824 H 275.519 -1.27644 1.40737 0
M  V30 2825 H 273.669 -3.73462 1.07044 0
M  V30 2826 H 275.341 -2.93867 3.55584 0
M  V30 2827 H 273.584 -2.70963 3.38765 0
M  V30 2828 H 274.255 -4.34329 3.40679 0
M  V30 2829 H 276.731 -3.86549 1.54009 0
M  V30 2830 H 275.607 -5.24684 1.61237 0
M  V30 2831 H 275.868 -4.42019 0.0846274 0
M  V30 2832 N 274.927 -0.932562 -1.27047 0
M  V30 2833 C 275.875 -0.42603 -2.28665 0
M  V30 2834 C 276.869 0.49219 -1.62092 0
M  V30 2835 O 278.075 0.371355 -1.76128 0
M  V30 2836 H 274.45 -0.119213 -0.742491 0
M  V30 2837 H 276.421 -1.29579 -2.68797 0
M  V30 2838 C 275.17 0.301426 -3.46391 0
M  V30 2839 H 274.493 -0.39595 -3.97834 0
M  V30 2840 H 275.933 0.6202 -4.1944 0
M  V30 2841 C 274.392 1.51616 -3.00856 0
M  V30 2842 O 274.922 2.61476 -3.04948 0
M  V30 2843 N 273.128 1.36969 -2.56296 0
M  V30 2844 H 272.675 0.475873 -2.53166 0
M  V30 2845 H 272.633 2.18368 -2.26192 0
M  V30 2846 N 276.405 1.4127 -0.698611 0
M  V30 2847 C 277.821 1.55241 -0.370462 0
M  V30 2848 C 278.021 1.67351 1.12231 0
M  V30 2849 O 277.077 1.65363 1.90818 0
M  V30 2850 C 278.39 2.78997 -1.12165 0
M  V30 2851 C 279.938 2.92797 -1.1063 0
M  V30 2852 C 280.413 4.19445 -1.8393 0
M  V30 2853 N 281.904 4.26409 -1.80914 0
M  V30 2854 C 282.639 5.23271 -2.34467 0
M  V30 2855 N 282.135 6.26145 -2.96504 0
M  V30 2856 N 283.928 5.15232 -2.24706 0
M  V30 2857 H 276.079 1.31654 -1.66676 0
M  V30 2858 H 278.342 0.635393 -0.703548 0
M  V30 2859 H 278.048 2.76268 -2.17644 0
M  V30 2860 H 277.922 3.70606 -0.702209 0
M  V30 2861 H 280.309 2.95039 -0.0597713 0
M  V30 2862 H 280.39 2.02353 -1.56483 0
M  V30 2863 H 280.034 4.17964 -2.88563 0
M  V30 2864 H 279.964 5.08866 -1.35509 0
M  V30 2865 H 282.455 3.527 -1.35687 0
M  V30 2866 H 282.768 6.96451 -3.34927 0
M  V30 2867 H 281.113 6.26638 -3.00583 0
M  V30 2868 H 284.304 4.33789 -1.7591 0
M  V30 2869 H 284.477 5.90552 -2.66745 0
M  V30 2870 N 277.883 0.443576 1.51229 0
M  V30 2871 C 278.831 -0.37904 2.29491 0
M  V30 2872 C 279.825 -1.0153 1.35603 0
M  V30 2873 O 281.031 -0.94955 1.52917 0
M  V30 2874 H 277.406 -0.141053 0.738653 0
M  V30 2875 H 279.377 0.301799 2.9687 0
M  V30 2876 C 278.126 -1.46426 3.15364 0
M  V30 2877 H 277.449 -0.984037 3.87501 0
M  V30 2878 H 278.889 -2.01297 3.7317 0
M  V30 2879 C 277.348 -2.45099 2.31146 0
M  V30 2880 O 277.878 -3.49773 1.9754 0
M  V30 2881 N 276.084 -2.16139 1.94249 0
M  V30 2882 H 275.631 -1.31044 2.21777 0
M  V30 2883 H 275.589 -2.82398 1.38198 0
M  V30 2884 N 279.361 -1.56624 0.175154 0
M  V30 2885 C 280.607 -1.98061 -0.462976 0
M  V30 2886 C 280.962 -1.05949 -1.60601 0
M  V30 2887 O 280.255 -0.0999027 -1.91339 0
M  V30 2888 C 280.449 -3.43419 -0.989864 0
M  V30 2889 C 280.278 -4.49587 0.100583 0
M  V30 2890 C 279.048 -5.02281 0.551539 0
M  V30 2891 C 281.246 -5.06322 0.902369 0
M  V30 2892 N 279.228 -5.92088 1.62189 0
M  V30 2893 C 280.599 -5.92607 1.82256 0
M  V30 2894 C 282.654 -4.88811 0.947019 0
M  V30 2895 C 281.357 -6.63254 2.78364 0
M  V30 2896 C 283.383 -5.60182 1.89606 0
M  V30 2897 C 282.745 -6.46197 2.80372 0
M  V30 2898 H 278.844 -0.769833 -0.137409 0
M  V30 2899 H 281.428 -1.9273 0.276256 0
M  V30 2900 H 279.599 -3.49288 -1.6986 0
M  V30 2901 H 281.331 -3.7186 -1.59694 0
M  V30 2902 H 278.086 -4.73367 0.148537 0
M  V30 2903 H 278.51 -6.41696 2.15767 0
M  V30 2904 H 283.152 -4.22004 0.259304 0
M  V30 2905 H 280.87 -7.29271 3.48122 0
M  V30 2906 H 284.456 -5.48617 1.93676 0
M  V30 2907 H 283.336 -7.00453 3.52612 0
M  V30 2908 N 280.839 0.0985539 -1.57292 0
M  V30 2909 C 282.069 0.815135 -1.8984 0
M  V30 2910 C 282.477 1.7297 -0.766679 0
M  V30 2911 O 281.82 1.81698 0.270483 0
M  V30 2912 C 281.882 1.6842 -3.17608 0
M  V30 2913 C 281.546 0.94182 -4.4719 0
M  V30 2914 C 282.543 0.273212 -5.19182 0
M  V30 2915 C 280.228 0.916927 -4.9386 0
M  V30 2916 C 282.222 -0.410361 -6.36078 0
M  V30 2917 C 279.909 0.229567 -6.10669 0
M  V30 2918 C 280.907 -0.432902 -6.81627 0
M  V30 2919 O 280.595 -1.10925 -7.9621 0
M  V30 2920 H 280.327 0.238501 -0.632529 0
M  V30 2921 H 282.881 0.0812659 -2.05239 0
M  V30 2922 H 281.111 2.46022 -2.98345 0
M  V30 2923 H 282.8 2.27704 -3.36015 0
M  V30 2924 H 283.566 0.283927 -4.84168 0
M  V30 2925 H 279.445 1.42201 -4.3852 0
M  V30 2926 H 282.989 -0.928013 -6.914 0
M  V30 2927 H 278.886 0.216686 -6.45136 0
M  V30 2928 H 279.654 -1.01579 -8.12172 0
M  V30 2929 N 282.317 1.53212 0.369288 0
M  V30 2930 C 283.542 1.73423 1.1375 0
M  V30 2931 C 283.967 0.460404 1.82378 0
M  V30 2932 O 283.325 -0.585298 1.71592 0
M  V30 2933 C 283.373 2.89769 2.1463 0
M  V30 2934 O 282.477 2.58119 3.21634 0
M  V30 2935 H 281.818 0.576061 0.330227 0
M  V30 2936 H 284.348 2.00083 0.427547 0
M  V30 2937 H 284.358 3.15829 2.58294 0
M  V30 2938 H 283.033 3.8217 1.64071 0
M  V30 2939 H 281.61 2.42864 2.82969 0
M  V30 2940 N 283.795 -0.628877 1.44509 0
M  V30 2941 C 285.072 -1.38733 1.37886 0
M  V30 2942 C 285.452 -2.11065 0.0387008 0
M  V30 2943 O 284.8 -2.06476 -0.97878 0
M  V30 2944 C 285.01 -2.35188 2.57852 0
M  V30 2945 C 286.358 -2.9845 3.02014 0
M  V30 2946 O 287.382 -2.45513 2.58073 0
M  V30 2947 O 286.241 -3.94487 3.78209 0
M  V30 2948 H 283.335 -0.621015 0.54614 0
M  V30 2949 H 285.881 -0.653744 1.56602 0
M  V30 2950 H 284.653 -1.80855 3.46998 0
M  V30 2951 H 284.276 -3.1596 2.4136 0
M  V30 2952 N 285.273 -1.31445 -0.869486 0
M  V30 2953 C 286.236 -1.19094 -1.9583 0
M  V30 2954 C 287.236 -0.117906 -1.60367 0
M  V30 2955 O 288.426 -0.367208 -1.70286 0
M  V30 2956 C 285.558 -0.828165 -3.30688 0
M  V30 2957 H 286.751 -2.15842 -2.08212 0
M  V30 2958 H 284.304 -1.15063 -1.05784 0
M  V30 2959 H 285.039 0.138142 -3.24006 0
M  V30 2960 H 284.824 -1.6038 -3.578 0
M  V30 2961 H 286.314 -0.765658 -4.10521 0
M  V30 2962 N 286.751 1.08385 -1.14413 0
M  V30 2963 C 288.028 1.77429 -0.823297 0
M  V30 2964 C 288.408 1.9974 0.683163 0
M  V30 2965 O 287.756 1.60739 1.62405 0
M  V30 2966 C 287.966 3.09004 -1.62227 0
M  V30 2967 C 289.314 3.83532 -1.82177 0
M  V30 2968 O 290.338 3.18786 -1.58915 0
M  V30 2969 O 289.197 4.99792 -2.21067 0
M  V30 2970 H 286.291 0.769999 -0.301712 0
M  V30 2971 H 288.837 1.14846 -1.24934 0
M  V30 2972 H 287.609 2.88316 -2.64555 0
M  V30 2973 H 287.232 3.79316 -1.19187 0
M  V30 2974 N 288.23 0.939286 1.26551 0
M  V30 2975 C 289.476 0.586715 1.94128 0
M  V30 2976 C 289.809 -0.8717 1.73537 0
M  V30 2977 O 289.084 -1.62339 1.07127 0
M  V30 2978 C 289.367 0.927497 3.4795 0
M  V30 2979 C 289.22 2.44052 3.77834 0
M  V30 2980 C 290.539 0.441569 4.37879 0
M  V30 2981 H 287.658 0.21463 0.705055 0
M  V30 2982 H 290.3 1.17316 1.49455 0
M  V30 2983 H 288.45 0.428431 3.8613 0
M  V30 2984 H 290.122 3.01216 3.4938 0
M  V30 2985 H 288.365 2.8848 3.23978 0
M  V30 2986 H 289.036 2.62947 4.85348 0
M  V30 2987 H 291.512 0.869448 4.06915 0
M  V30 2988 H 290.388 0.708856 5.44304 0
M  V30 2989 H 290.649 -0.658467 4.37169 0
M  V30 2990 N 289.708 -1.40897 0.706093 0
M  V30 2991 C 291.119 -1.84023 0.315052 0
M  V30 2992 C 291.47 -1.5906 -1.14866 0
M  V30 2993 O 290.595 -1.06651 -1.88293 0
M  V30 2994 C 291.19 -3.34055 0.565038 0
M  V30 2995 C 289.749 -3.7571 0.227806 0
M  V30 2996 C 288.896 -2.64204 0.842122 0
M  V30 2997 H 291.847 -1.303 0.905963 0
M  V30 2998 H 291.868 -3.80107 -0.172843 0
M  V30 2999 H 291.38 -3.52192 1.63042 0
M  V30 3000 H 289.481 -3.63172 -0.832895 0
M  V30 3001 H 289.594 -4.74103 0.690174 0
M  V30 3002 H 287.958 -2.53255 0.270893 0
M  V30 3003 H 288.741 -2.85155 1.91158 0
M  V30 3004 N 291.186 -0.45159 -1.50991 0
M  V30 3005 C 292.149 0.341117 -2.26647 0
M  V30 3006 C 293.149 0.937422 -1.30649 0
M  V30 3007 O 294.339 0.809644 -1.54241 0
M  V30 3008 C 291.471 1.48398 -3.06905 0
M  V30 3009 H 292.664 -0.322117 -2.98165 0
M  V30 3010 H 290.217 -0.205122 -1.54948 0
M  V30 3011 H 290.952 2.18284 -2.39838 0
M  V30 3012 H 290.737 1.06241 -3.77432 0
M  V30 3013 H 292.227 2.04367 -3.64176 0
M  V30 3014 N 292.664 1.56529 -0.183458 0
M  V30 3015 C 293.889 2.02064 0.467428 0
M  V30 3016 C 294.314 1.06282 1.55196 0
M  V30 3017 O 293.672 0.0443565 1.81246 0
M  V30 3018 C 293.72 3.46122 1.01153 0
M  V30 3019 O 292.824 3.53437 2.12499 0
M  V30 3020 H 292.165 0.654726 0.110588 0
M  V30 3021 H 294.695 2.02521 -0.290917 0
M  V30 3022 H 294.705 3.85676 1.33108 0
M  V30 3023 H 293.38 4.15331 0.217533 0
M  V30 3024 H 291.957 3.2575 1.81497 0
M  V30 3025 N 294.142 -0.090211 1.57342 0
M  V30 3026 C 295.105 -1.09335 2.01441 0
M  V30 3027 C 296.105 -1.32666 0.908641 0
M  V30 3028 O 297.295 -1.28697 1.174 0
M  V30 3029 C 294.427 -2.44136 2.3793 0
M  V30 3030 H 295.62 -0.713662 2.91285 0
M  V30 3031 H 293.173 -0.335404 1.52659 0
M  V30 3032 H 293.908 -2.86972 1.51055 0
M  V30 3033 H 293.693 -2.28548 3.18603 0
M  V30 3034 H 295.183 -3.16277 2.72688 0
M  V30 3035 N 295.62 -1.53406 -0.361157 0
M  V30 3036 C 297.036 -1.43277 -0.703124 0
M  V30 3037 C 297.236 -0.575384 -1.9311 0
M  V30 3038 O 296.292 -0.0595362 -2.5243 0
M  V30 3039 C 297.605 -2.8653 -0.9122 0
M  V30 3040 C 299.153 -2.96191 -1.01193 0
M  V30 3041 C 299.628 -4.40514 -1.25345 0
M  V30 3042 N 301.119 -4.43962 -1.32105 0
M  V30 3043 C 301.854 -5.52746 -1.5251 0
M  V30 3044 N 301.35 -6.71567 -1.70203 0
M  V30 3045 N 303.143 -5.40331 -1.54916 0
M  V30 3046 H 295.294 -2.07654 0.446475 0
M  V30 3047 H 297.557 -0.937944 0.137715 0
M  V30 3048 H 297.263 -3.51605 -0.0816414 0
M  V30 3049 H 297.137 -3.30441 -1.81903 0
M  V30 3050 H 299.524 -2.31266 -1.83303 0
M  V30 3051 H 299.605 -2.55667 -0.0823929 0
M  V30 3052 H 299.249 -5.06014 -0.437346 0
M  V30 3053 H 299.179 -4.78614 -2.19627 0
M  V30 3054 H 301.67 -3.58332 -1.20028 0
M  V30 3055 H 301.983 -7.50241 -1.85359 0
M  V30 3056 H 300.328 -6.74545 -1.67373 0
M  V30 3057 H 303.519 -4.46465 -1.40663 0
M  V30 3058 H 303.692 -6.25173 -1.70477 0
M  V30 3059 N 297.098 0.621204 -1.44841 0
M  V30 3060 C 298.03 1.74615 -1.48466 0
M  V30 3061 C 299.043 1.58377 -0.37691 0
M  V30 3062 O 300.232 1.66508 -0.643215 0
M  V30 3063 C 297.332 3.12459 -1.31236 0
M  V30 3064 C 296.505 3.55064 -2.55438 0
M  V30 3065 C 295.564 4.71821 -2.32963 0
M  V30 3066 O 294.59 4.79628 -3.06505 0
M  V30 3067 N 295.792 5.64186 -1.36654 0
M  V30 3068 H 298.557 1.71973 -2.45449 0
M  V30 3069 H 296.118 0.806077 -1.40407 0
M  V30 3070 H 298.11 3.88302 -1.14032 0
M  V30 3071 H 296.68 3.09686 -0.4258 0
M  V30 3072 H 295.9 2.69324 -2.87851 0
M  V30 3073 H 297.188 3.80284 -3.38026 0
M  V30 3074 H 296.586 5.6058 -0.759344 0
M  V30 3075 H 295.143 6.39618 -1.25425 0
M  V30 3076 N 298.576 1.31904 0.862503 0
M  V30 3077 C 299.486 1.22161 2.00285 0
M  V30 3078 C 300.502 0.136785 1.73462 0
M  V30 3079 O 301.678 0.355994 1.98229 0
M  V30 3080 C 298.743 0.937093 3.33796 0
M  V30 3081 C 297.804 2.10957 3.73893 0
M  V30 3082 C 297.037 1.83853 5.01033 0
M  V30 3083 O 297.26 0.777274 5.65079 0
M  V30 3084 O 296.194 2.69741 5.38074 0
M  V30 3085 H 300.02 2.18008 2.11439 0
M  V30 3086 H 297.605 1.11716 0.991957 0
M  V30 3087 H 299.487 0.794583 4.13841 0
M  V30 3088 H 298.162 0.00871894 3.23699 0
M  V30 3089 H 297.069 2.30752 2.94456 0
M  V30 3090 H 298.402 3.02046 3.88625 0
M  V30 3091 N 300.054 -1.07777 1.14986 0
M  V30 3092 C 301.302 -1.79934 0.920235 0
M  V30 3093 C 301.623 -1.86955 -0.554336 0
M  V30 3094 O 300.893 -1.36731 -1.40291 0
M  V30 3095 H 299.473 -0.666424 0.337473 0
M  V30 3096 H 302.135 -1.3027 1.44968 0
M  V30 3097 H 301.231 -2.82539 1.32583 0
M  V30 3098 N 301.532 -0.945985 -1.26051 0
M  V30 3099 C 302.772 -0.603665 -1.95282 0
M  V30 3100 C 303.136 0.842377 -1.72534 0
M  V30 3101 O 304.337 1.29387 -2.35611 0
M  V30 3102 C 302.608 -0.942292 -3.44754 0
M  V30 3103 S 304.167 -0.711242 -4.32997 0
M  V30 3104 H 300.985 -0.222176 -0.675395 0
M  V30 3105 H 303.587 -1.21832 -1.52896 0
M  V30 3106 H 302.291 -1.99203 -3.58812 0
M  V30 3107 H 301.822 -0.317546 -3.92116 0
M  V30 3108 H 303.837 0.422221 -4.944 0
M  V30 3109 N 303.011 1.40521 -0.713556 0
M  V30 3110 C 303.943 2.29191 -0.0203126 0
M  V30 3111 C 304.956 1.45723 0.725864 0
M  V30 3112 O 306.145 1.69033 0.573581 0
M  V30 3113 C 303.245 3.2395 0.995486 0
M  V30 3114 C 302.418 4.36262 0.315256 0
M  V30 3115 C 301.477 5.11474 1.23616 0
M  V30 3116 O 300.503 5.64606 0.721719 0
M  V30 3117 N 301.705 5.20638 2.56743 0
M  V30 3118 H 304.47 2.89327 -0.781652 0
M  V30 3119 H 302.031 1.51869 -0.561022 0
M  V30 3120 H 304.023 3.71137 1.61368 0
M  V30 3121 H 302.593 2.64995 1.6582 0
M  V30 3122 H 301.813 3.91228 -0.483106 0
M  V30 3123 H 303.101 5.08558 -0.157004 0
M  V30 3124 H 302.499 4.7895 3.01037 0
M  V30 3125 H 301.056 5.71339 3.13712 0
M  V30 3126 N 304.489 0.459591 1.5075 0
M  V30 3127 C 305.766 -0.160371 1.94941 0
M  V30 3128 C 306.146 -1.58048 1.39943 0
M  V30 3129 O 305.494 -2.206 0.595629 0
M  V30 3130 C 305.704 -0.115432 3.48809 0
M  V30 3131 C 307.052 -0.310026 4.23467 0
M  V30 3132 O 308.076 -0.192543 3.55679 0
M  V30 3133 O 306.935 -0.546031 5.43765 0
M  V30 3134 H 304.029 -0.117925 0.818549 0
M  V30 3135 H 306.575 0.519169 1.61563 0
M  V30 3136 H 305.347 0.87652 3.81357 0
M  V30 3137 H 304.97 -0.836928 3.88692 0
M  V30 3138 N 305.967 -1.56429 0.191757 0
M  V30 3139 C 307.216 -1.9666 -0.448088 0
M  V30 3140 C 307.529 -1.08136 -1.62991 0
M  V30 3141 O 308.735 -1.38135 -2.33733 0
M  V30 3142 C 307.191 -3.49753 -0.848585 0
M  V30 3143 C 306.799 -4.46935 0.308764 0
M  V30 3144 C 308.543 -3.9876 -1.4557 0
M  V30 3145 C 306.45 -5.91293 -0.112506 0
M  V30 3146 H 305.38 -0.734312 -0.171179 0
M  V30 3147 H 308.031 -1.81301 0.283242 0
M  V30 3148 H 306.413 -3.60604 -1.63649 0
M  V30 3149 H 307.587 -4.47813 1.08627 0
M  V30 3150 H 305.902 -4.08102 0.827158 0
M  V30 3151 H 308.499 -5.04086 -1.78328 0
M  V30 3152 H 308.842 -3.42875 -2.36099 0
M  V30 3153 H 309.375 -3.9101 -0.731836 0
M  V30 3154 H 306.114 -6.51097 0.758514 0
M  V30 3155 H 305.634 -5.93676 -0.854941 0
M  V30 3156 H 307.313 -6.44663 -0.549448 0
M  V30 3157 N 307.445 0.0818655 -1.57387 0
M  V30 3158 C 308.408 1.08265 -2.02018 0
M  V30 3159 C 309.408 1.32183 -0.915664 0
M  V30 3160 O 310.598 1.28073 -1.18081 0
M  V30 3161 C 307.73 2.42871 -2.39221 0
M  V30 3162 H 308.923 0.698204 -2.91659 0
M  V30 3163 H 306.476 0.327303 -1.52835 0
M  V30 3164 H 307.211 2.86167 -1.52575 0
M  V30 3165 H 306.996 2.26855 -3.19811 0
M  V30 3166 H 308.486 3.14826 -2.74362 0
M  V30 3167 N 308.923 1.53595 0.353017 0
M  V30 3168 C 310.151 1.74311 1.1146 0
M  V30 3169 C 310.566 0.477854 1.82653 0
M  V30 3170 O 309.923 -0.549977 1.74016 0
M  V30 3171 C 309.974 2.91694 2.13534 0
M  V30 3172 O 309.695 4.13325 1.45238 0
M  V30 3173 C 311.196 3.24384 3.02142 0
M  V30 3174 H 308.416 0.582669 0.332773 0
M  V30 3175 H 310.96 2.00386 0.408107 0
M  V30 3176 H 309.115 2.67977 2.79763 0
M  V30 3177 H 309.529 4.79148 2.13349 0
M  V30 3178 H 311.003 4.09893 3.69718 0
M  V30 3179 H 311.48 2.40282 3.67643 0
M  V30 3180 H 312.086 3.50073 2.41514 0
M  V30 3181 N 310.401 -0.613514 1.45168 0
M  V30 3182 C 311.333 -1.73825 1.4939 0
M  V30 3183 C 312.346 -1.58175 0.385304 0
M  V30 3184 O 313.535 -1.66165 0.652036 0
M  V30 3185 C 310.635 -3.11758 1.32891 0
M  V30 3186 C 309.808 -3.53704 2.57317 0
M  V30 3187 C 308.867 -4.70579 2.35462 0
M  V30 3188 O 307.893 -4.77996 3.09044 0
M  V30 3189 N 309.095 -5.63454 1.39644 0
M  V30 3190 H 311.86 -1.70669 2.46358 0
M  V30 3191 H 309.421 -0.79862 1.40832 0
M  V30 3192 H 311.413 -3.87692 1.1609 0
M  V30 3193 H 309.983 -3.09456 0.442218 0
M  V30 3194 H 309.203 -2.67794 2.89275 0
M  V30 3195 H 310.491 -3.78486 3.40038 0
M  V30 3196 H 309.889 -5.6017 0.789062 0
M  V30 3197 H 308.446 -6.38944 1.28816 0
M  V30 3198 N 311.879 -1.3236 -0.855495 0
M  V30 3199 C 312.809 -1.23833 -1.97958 0
M  V30 3200 C 313.79 -0.122361 -1.69659 0
M  V30 3201 O 314.975 -0.30939 -1.9172 0
M  V30 3202 C 312.105 -0.959772 -3.33775 0
M  V30 3203 C 311.059 -2.03689 -3.76424 0
M  V30 3204 C 310.385 -1.61075 -5.09862 0
M  V30 3205 C 311.685 -3.4518 -3.9198 0
M  V30 3206 H 313.379 -2.1788 -2.0535 0
M  V30 3207 H 310.925 -1.04891 -0.986605 0
M  V30 3208 H 312.878 -0.886678 -4.11966 0
M  V30 3209 H 311.602 0.0163404 -3.26596 0
M  V30 3210 H 310.261 -2.10012 -3.00484 0
M  V30 3211 H 309.909 -0.622107 -4.99138 0
M  V30 3212 H 309.609 -2.33143 -5.39368 0
M  V30 3213 H 311.133 -1.55201 -5.90546 0
M  V30 3214 H 312.547 -3.4145 -4.60526 0
M  V30 3215 H 310.944 -4.1559 -4.32903 0
M  V30 3216 H 312.014 -3.84903 -2.94919 0
M  V30 3217 N 313.357 1.07166 -1.15556 0
M  V30 3218 C 314.606 1.79181 -0.926132 0
M  V30 3219 C 314.919 1.87768 0.547967 0
M  V30 3220 O 316.125 2.56323 0.895036 0
M  V30 3221 C 314.581 3.22 -1.60761 0
M  V30 3222 C 314.189 3.21607 -3.11886 0
M  V30 3223 C 315.933 3.9861 -1.4598 0
M  V30 3224 C 313.84 4.59092 -3.72812 0
M  V30 3225 H 312.77 0.67154 -0.342856 0
M  V30 3226 H 315.421 1.2027 -1.3859 0
M  V30 3227 H 313.803 3.81115 -1.07553 0
M  V30 3228 H 314.977 2.72127 -3.71865 0
M  V30 3229 H 313.292 2.58495 -3.2645 0
M  V30 3230 H 315.889 5.00225 -1.88888 0
M  V30 3231 H 316.232 4.143 -0.407541 0
M  V30 3232 H 316.765 3.45996 -1.96295 0
M  V30 3233 H 313.504 4.48606 -4.77946 0
M  V30 3234 H 313.024 5.08803 -3.17616 0
M  V30 3235 H 314.703 5.28059 -3.73848 0
M  V30 3236 N 314.835 0.952656 1.25548 0
M  V30 3237 C 316.06 0.623025 1.97821 0
M  V30 3238 C 316.485 -0.7976 1.70352 0
M  V30 3239 O 315.843 -1.53905 0.958283 0
M  V30 3240 C 315.891 0.885532 3.49558 0
M  V30 3241 O 314.995 -0.0366641 4.12384 0
M  V30 3242 H 314.336 0.237082 0.620232 0
M  V30 3243 H 316.866 1.27871 1.59719 0
M  V30 3244 H 316.876 0.811009 3.99858 0
M  V30 3245 H 315.551 1.92094 3.6888 0
M  V30 3246 H 314.128 0.0898954 3.72792 0
M  V30 3247 N 316.313 -1.40141 0.720998 0
M  V30 3248 C 317.261 -2.3252 0.0608547 0
M  V30 3249 C 318.255 -1.52326 -0.741152 0
M  V30 3250 O 319.461 -1.68089 -0.643911 0
M  V30 3251 H 315.836 -0.751999 0.000876664 0
M  V30 3252 H 317.807 -2.8584 0.856614 0
M  V30 3253 C 316.556 -3.37331 -0.842809 0
M  V30 3254 H 315.879 -3.99108 -0.235084 0
M  V30 3255 H 317.319 -4.04452 -1.27257 0
M  V30 3256 C 315.778 -2.73246 -1.97074 0
M  V30 3257 O 316.308 -2.59998 -3.06209 0
M  V30 3258 N 314.514 -2.31547 -1.75597 0
M  V30 3259 H 314.061 -2.42522 -0.868368 0
M  V30 3260 H 314.019 -1.89007 -2.51244 0
M  V30 3261 N 317.792 -0.46758 -1.50504 0
M  V30 3262 C 318.725 0.374324 -2.25109 0
M  V30 3263 C 319.703 0.99921 -1.28275 0
M  V30 3264 O 320.887 1.03583 -1.57489 0
M  V30 3265 C 318.014 1.52419 -3.02467 0
M  V30 3266 C 317.06 1.01702 -4.14197 0
M  V30 3267 S 317.893 -0.0654477 -5.3546 0
M  V30 3268 C 319.049 1.08837 -6.16365 0
M  V30 3269 H 319.282 -0.258983 -2.9617 0
M  V30 3270 H 316.815 -0.252421 -1.52323 0
M  V30 3271 H 318.773 2.18322 -3.47628 0
M  V30 3272 H 317.434 2.129 -2.30938 0
M  V30 3273 H 316.627 1.87776 -4.67714 0
M  V30 3274 H 316.229 0.435757 -3.71453 0
M  V30 3275 H 318.521 2.00071 -6.47285 0
M  V30 3276 H 319.464 0.592538 -7.05616 0
M  V30 3277 H 319.872 1.34061 -5.4835 0
M  V30 3278 N 319.27 1.56325 -0.20005 0
M  V30 3279 C 320.547 1.89484 0.48529 0
M  V30 3280 C 320.927 1.1143 1.79294 0
M  V30 3281 O 320.275 0.216919 2.27468 0
M  V30 3282 C 320.485 3.41923 0.699243 0
M  V30 3283 C 321.833 4.12256 1.01638 0
M  V30 3284 O 322.857 3.47402 0.786792 0
M  V30 3285 O 321.716 5.26887 1.45095 0
M  V30 3286 H 318.81 0.787144 0.253639 0
M  V30 3287 H 321.356 1.67985 -0.240633 0
M  V30 3288 H 320.128 3.90658 -0.224008 0
M  V30 3289 H 319.751 3.69131 1.47744 0
M  V30 3290 N 320.748 -0.0735177 1.57428 0
M  V30 3291 C 321.997 -0.771809 1.86349 0
M  V30 3292 C 322.31 -1.78828 0.792452 0
M  V30 3293 O 323.516 -2.53602 0.96945 0
M  V30 3294 C 321.972 -1.42358 3.30548 0
M  V30 3295 C 321.58 -0.445761 4.45777 0
M  V30 3296 C 323.324 -2.10434 3.6867 0
M  V30 3297 C 321.231 -1.10335 5.81016 0
M  V30 3298 H 320.161 -0.291999 0.695164 0
M  V30 3299 H 322.812 -0.0250749 1.83483 0
M  V30 3300 H 321.194 -2.21852 3.28021 0
M  V30 3301 H 322.368 0.319239 4.59693 0
M  V30 3302 H 320.683 0.130457 4.16196 0
M  V30 3303 H 323.28 -2.60405 4.67004 0
M  V30 3304 H 323.623 -2.90298 2.98383 0
M  V30 3305 H 324.156 -1.37773 3.7318 0
M  V30 3306 H 320.895 -0.345061 6.54591 0
M  V30 3307 H 320.415 -1.83925 5.70904 0
M  V30 3308 H 322.094 -1.62367 6.26295 0
M  V30 3309 N 322.226 -1.5378 -0.344866 0
M  V30 3310 C 323.503 -1.61589 -1.10219 0
M  V30 3311 C 323.883 -0.436316 -2.06542 0
M  V30 3312 O 323.231 0.571543 -2.21237 0
M  V30 3313 C 323.441 -2.97602 -1.82301 0
M  V30 3314 C 324.789 -3.5291 -2.36093 0
M  V30 3315 O 325.813 -2.99768 -1.924 0
M  V30 3316 O 324.672 -4.45859 -3.16026 0
M  V30 3317 H 321.766 -0.653522 -0.506792 0
M  V30 3318 H 324.312 -1.66126 -0.346465 0
M  V30 3319 H 323.084 -3.74893 -1.12121 0
M  V30 3320 H 322.707 -2.9665 -2.64735 0
M  V30 3321 N 323.704 0.605807 -1.45491 0
M  V30 3322 C 324.95 1.36679 -1.49823 0
M  V30 3323 C 325.283 1.93693 -0.140175 0
M  V30 3324 O 324.558 1.75158 0.845581 0
M  V30 3325 C 324.841 2.51337 -2.57879 0
M  V30 3326 C 324.694 1.99508 -4.03134 0
M  V30 3327 C 326.013 3.53463 -2.62205 0
M  V30 3328 H 323.132 0.495617 -0.545466 0
M  V30 3329 H 325.774 0.682732 -1.7731 0
M  V30 3330 H 323.924 3.09691 -2.34571 0
M  V30 3331 H 325.596 1.45789 -4.37656 0
M  V30 3332 H 323.839 1.30496 -4.13707 0
M  V30 3333 H 324.51 2.82169 -4.74431 0
M  V30 3334 H 326.986 3.04953 -2.83095 0
M  V30 3335 H 325.862 4.31178 -3.39672 0
M  V30 3336 H 326.123 4.09197 -1.67363 0
M  V30 3337 N 325.182 1.32811 0.848464 0
M  V30 3338 C 326.431 1.23075 1.59798 0
M  V30 3339 C 326.744 -0.204419 1.94529 0
M  V30 3340 O 327.95 -0.423701 2.68173 0
M  V30 3341 C 326.406 2.15594 2.88179 0
M  V30 3342 C 326.014 3.64228 2.60849 0
M  V30 3343 C 327.758 2.14709 3.66197 0
M  V30 3344 C 325.665 4.48689 3.85269 0
M  V30 3345 H 324.595 0.457091 0.599653 0
M  V30 3346 H 327.246 1.57813 0.936342 0
M  V30 3347 H 325.628 1.73778 3.55833 0
M  V30 3348 H 326.802 4.14424 2.01467 0
M  V30 3349 H 325.117 3.67306 1.96151 0
M  V30 3350 H 327.714 2.75046 4.58534 0
M  V30 3351 H 328.057 1.13966 4.00397 0
M  V30 3352 H 328.59 2.54837 3.05455 0
M  V30 3353 H 325.329 5.5027 3.56207 0
M  V30 3354 H 324.849 4.03241 4.44024 0
M  V30 3355 H 326.528 4.62006 4.52946 0
M  V30 3356 N 326.66 -1.06551 1.16123 0
M  V30 3357 C 327.59 -2.15935 0.88851 0
M  V30 3358 C 328.571 -1.69306 -0.164135 0
M  V30 3359 O 329.756 -1.94193 -0.0167857 0
M  V30 3360 C 326.886 -3.45149 0.385942 0
M  V30 3361 C 325.84 -4.05271 1.3762 0
M  V30 3362 C 325.166 -5.29664 0.732137 0
M  V30 3363 C 326.466 -4.44355 2.74493 0
M  V30 3364 H 328.16 -2.39006 1.80323 0
M  V30 3365 H 325.706 -1.14866 0.868435 0
M  V30 3366 H 327.659 -4.21004 0.182647 0
M  V30 3367 H 326.383 -3.21689 -0.564274 0
M  V30 3368 H 325.042 -3.3147 1.56599 0
M  V30 3369 H 324.69 -5.02499 -0.224483 0
M  V30 3370 H 324.39 -5.70848 1.39307 0
M  V30 3371 H 325.914 -6.08218 0.538802 0
M  V30 3372 H 327.328 -5.11303 2.59311 0
M  V30 3373 H 325.725 -4.96515 3.37035 0
M  V30 3374 H 326.795 -3.55339 3.29943 0
M  V30 3375 N 328.138 -0.959301 -1.25041 0
M  V30 3376 C 329.386 -0.615393 -1.92503 0
M  V30 3377 C 329.707 0.850969 -1.75452 0
M  V30 3378 O 328.977 1.60658 -1.12098 0
M  V30 3379 H 327.557 -0.224613 -0.712431 0
M  V30 3380 H 330.219 -1.21855 -1.5211 0
M  V30 3381 H 329.315 -0.848738 -3.00338 0
M  V30 3382 N 329.616 1.39756 -0.72842 0
M  V30 3383 C 330.864 2.00248 -0.272946 0
M  V30 3384 C 331.185 1.58077 1.14178 0
M  V30 3385 O 330.455 0.826014 1.77634 0
M  V30 3386 H 329.035 0.740554 -0.0979247 0
M  V30 3387 H 331.697 1.70903 -0.936912 0
M  V30 3388 H 330.793 3.10495 -0.316142 0
M  V30 3389 N 331.094 0.475555 1.50254 0
M  V30 3390 C 332.342 -0.077738 2.0195 0
M  V30 3391 C 332.663 -1.39813 1.35931 0
M  V30 3392 O 331.933 -1.89249 0.506123 0
M  V30 3393 H 330.513 -0.031719 0.746326 0
M  V30 3394 H 333.175 0.626995 1.84539 0
M  V30 3395 H 332.271 -0.225995 3.11281 0
M  V30 3396 N 332.573 -1.56217 0.208337 0
M  V30 3397 C 333.989 -1.58919 -0.14729 0
M  V30 3398 C 334.189 -1.22486 -1.59998 0
M  V30 3399 O 333.245 -0.953849 -2.3379 0
M  V30 3400 C 334.558 -3.00236 0.167048 0
M  V30 3401 C 336.106 -3.12813 0.108219 0
M  V30 3402 C 336.581 -4.56284 0.396049 0
M  V30 3403 N 338.072 -4.61912 0.345142 0
M  V30 3404 C 338.807 -5.70837 0.541523 0
M  V30 3405 N 338.303 -6.88178 0.798968 0
M  V30 3406 N 340.096 -5.60091 0.474867 0
M  V30 3407 H 332.247 -1.78177 1.15614 0
M  V30 3408 H 334.51 -0.827555 0.462446 0
M  V30 3409 H 334.216 -3.31499 1.1748 0
M  V30 3410 H 334.09 -3.7354 -0.524184 0
M  V30 3411 H 336.477 -2.81354 -0.890157 0
M  V30 3412 H 336.558 -2.41866 0.832729 0
M  V30 3413 H 336.202 -4.88458 1.3918 0
M  V30 3414 H 336.132 -5.25439 -0.349502 0
M  V30 3415 H 338.623 -3.77589 0.153316 0
M  V30 3416 H 338.936 -7.67095 0.93727 0
M  V30 3417 H 337.281 -6.89953 0.836013 0
M  V30 3418 H 340.472 -4.67297 0.274064 0
M  V30 3419 H 340.645 -6.44917 0.631326 0
M  V30 3420 N 334.051 0.0651679 -1.57465 0
M  V30 3421 C 334.998 1.07675 -2.04144 0
M  V30 3422 C 335.968 1.38071 -0.923335 0
M  V30 3423 O 337.153 1.49026 -1.19146 0
M  V30 3424 C 334.293 2.38337 -2.49579 0
M  V30 3425 C 333.406 2.14413 -3.75035 0
M  V30 3426 C 332.541 3.38686 -4.09225 0
M  V30 3427 C 331.58 3.10156 -5.27702 0
M  V30 3428 N 330.717 4.26778 -5.57499 0
M  V30 3429 H 335.557 0.671716 -2.90331 0
M  V30 3430 H 333.094 0.3201 -1.43575 0
M  V30 3431 H 335.052 3.14632 -2.73975 0
M  V30 3432 H 333.682 2.7663 -1.6636 0
M  V30 3433 H 332.734 1.2878 -3.57939 0
M  V30 3434 H 334.046 1.89344 -4.61466 0
M  V30 3435 H 333.2 4.23373 -4.34558 0
M  V30 3436 H 331.939 3.66837 -3.21374 0
M  V30 3437 H 330.944 2.23866 -5.02159 0
M  V30 3438 H 332.169 2.8332 -6.17176 0
M  V30 3439 H 330.115 4.54948 -4.72608 0
M  V30 3440 H 330.032 4.05005 -6.38362 0
M  V30 3441 H 331.3 5.12443 -5.87386 0
M  V30 3442 N 335.529 1.53961 0.336706 0
M  V30 3443 C 336.759 1.75229 1.09446 0
M  V30 3444 C 337.167 0.494602 1.82621 0
M  V30 3445 O 336.51 -0.543764 1.75468 0
M  V30 3446 C 336.572 2.88288 2.1478 0
M  V30 3447 C 336.236 4.27656 1.6112 0
M  V30 3448 C 337.233 5.08981 1.0599 0
M  V30 3449 C 334.918 4.74161 1.6576 0
M  V30 3450 C 336.912 6.34916 0.562129 0
M  V30 3451 C 334.599 6.00067 1.15595 0
M  V30 3452 C 335.597 6.80278 0.609147 0
M  V30 3453 O 335.285 8.03818 0.114999 0
M  V30 3454 H 335.017 0.588881 0.331956 0
M  V30 3455 H 337.571 2.01614 0.392566 0
M  V30 3456 H 335.801 2.57443 2.88548 0
M  V30 3457 H 337.49 2.97461 2.76174 0
M  V30 3458 H 338.256 4.74213 1.01722 0
M  V30 3459 H 334.135 4.11781 2.07261 0
M  V30 3460 H 337.679 6.9747 0.134668 0
M  V30 3461 H 333.576 6.3433 1.19566 0
M  V30 3462 H 334.344 8.18172 0.231651 0
M  V30 3463 N 337.007 -0.598083 1.45811 0
M  V30 3464 C 337.94 -1.7223 1.49706 0
M  V30 3465 C 338.918 -1.58732 0.352535 0
M  V30 3466 O 340.102 -1.80162 0.554438 0
M  V30 3467 C 337.229 -3.10148 1.3611 0
M  V30 3468 C 336.275 -3.42209 2.54549 0
M  V30 3469 S 337.108 -3.35989 4.16979 0
M  V30 3470 C 338.264 -4.76471 4.05865 0
M  V30 3471 H 338.497 -1.68665 2.44826 0
M  V30 3472 H 336.03 -0.775541 1.33509 0
M  V30 3473 H 337.988 -3.8972 1.28953 0
M  V30 3474 H 336.649 -3.11219 0.424451 0
M  V30 3475 H 335.842 -4.42652 2.40988 0
M  V30 3476 H 335.444 -2.70173 2.58617 0
M  V30 3477 H 337.736 -5.665 3.71596 0
M  V30 3478 H 338.679 -4.95089 5.06253 0
M  V30 3479 H 339.087 -4.52599 3.37364 0
M  V30 3480 N 338.485 -1.33259 -0.841409 0
M  V30 3481 C 339.732 -1.24572 -1.5965 0
M  V30 3482 C 340.06 0.189137 -1.93578 0
M  V30 3483 O 339.315 1.14566 -1.5866 0
M  V30 3484 C 339.614 -2.06381 -2.9179 0
M  V30 3485 C 339.28 -3.556 -2.77235 0
M  V30 3486 C 337.942 -3.96282 -2.72973 0
M  V30 3487 C 340.294 -4.50433 -2.62221 0
M  V30 3488 C 337.622 -5.30017 -2.51592 0
M  V30 3489 C 339.974 -5.84327 -2.42374 0
M  V30 3490 C 338.638 -6.24194 -2.36512 0
M  V30 3491 H 337.908 -0.455842 -0.5842 0
M  V30 3492 H 340.555 -1.6482 -0.975016 0
M  V30 3493 H 338.86 -1.58903 -3.5813 0
M  V30 3494 H 340.557 -1.97019 -3.49263 0
M  V30 3495 H 337.147 -3.23298 -2.81384 0
M  V30 3496 H 341.331 -4.19914 -2.64549 0
M  V30 3497 H 336.587 -5.59947 -2.45499 0
M  V30 3498 H 340.761 -6.57414 -2.29739 0
M  V30 3499 H 338.388 -7.27759 -2.19706 0
M  V30 3500 N 339.963 1.05934 -1.16686 0
M  V30 3501 C 341.379 1.30938 -0.912542 0
M  V30 3502 C 341.579 1.96803 0.432533 0
M  V30 3503 O 340.635 2.23693 1.17123 0
M  V30 3504 C 341.948 2.18649 -2.06429 0
M  V30 3505 C 343.496 2.32055 -2.10047 0
M  V30 3506 C 343.971 3.23122 -3.24586 0
M  V30 3507 N 345.462 3.30706 -3.24327 0
M  V30 3508 C 346.197 4.01273 -4.09594 0
M  V30 3509 N 345.693 4.74332 -5.04956 0
M  V30 3510 N 347.486 3.97361 -3.97569 0
M  V30 3511 H 339.637 0.615777 -2.03278 0
M  V30 3512 H 341.9 0.334077 -0.887185 0
M  V30 3513 H 341.606 1.77534 -3.03603 0
M  V30 3514 H 341.48 3.19252 -2.00894 0
M  V30 3515 H 343.867 2.72415 -1.13464 0
M  V30 3516 H 343.948 1.31107 -2.19647 0
M  V30 3517 H 343.592 2.83477 -4.2143 0
M  V30 3518 H 343.522 4.24057 -3.12223 0
M  V30 3519 H 346.013 2.78644 -2.55276 0
M  V30 3520 H 346.326 5.25716 -5.6643 0
M  V30 3521 H 344.671 4.733 -5.08933 0
M  V30 3522 H 347.862 3.39405 -3.22369 0
M  V30 3523 H 348.035 4.52089 -4.64241 0
M  V30 3524 N 341.441 0.965919 1.2453 0
M  V30 3525 C 342.374 0.4393 2.23932 0
M  V30 3526 C 343.352 -0.485615 1.55179 0
M  V30 3527 O 344.536 -0.417402 1.83821 0
M  V30 3528 C 341.663 -0.366042 3.36716 0
M  V30 3529 C 340.709 0.5009 4.23548 0
M  V30 3530 S 341.542 1.94002 4.99123 0
M  V30 3531 C 342.698 1.14342 6.15367 0
M  V30 3532 H 342.931 1.28167 2.68254 0
M  V30 3533 H 340.464 0.770819 1.33782 0
M  V30 3534 H 342.422 -0.824724 4.0213 0
M  V30 3535 H 341.083 -1.18337 2.90956 0
M  V30 3536 H 340.276 -0.117341 5.03863 0
M  V30 3537 H 339.878 0.89524 3.63127 0
M  V30 3538 H 342.17 0.397572 6.76332 0
M  V30 3539 H 343.113 1.92089 6.81548 0
M  V30 3540 H 343.521 0.668579 5.60527 0
M  V30 3541 N 342.919 -1.39368 0.735821 0
M  V30 3542 C 344.167 -2.00101 0.283562 0
M  V30 3543 C 344.488 -1.5868 -1.13338 0
M  V30 3544 O 343.758 -0.835423 -1.77193 0
M  V30 3545 H 342.338 -0.740024 0.101851 0
M  V30 3546 H 345 -1.70404 0.945962 0
M  V30 3547 H 344.096 -3.10323 0.332604 0
M  V30 3548 N 344.397 -0.483516 -1.5 0
M  V30 3549 C 345.625 0.0644831 -2.06799 0
M  V30 3550 C 346.04 1.32399 -1.34596 0
M  V30 3551 O 345.397 1.77626 -0.418946 0
M  V30 3552 C 345.448 0.339927 -3.59898 0
M  V30 3553 O 345.169 -0.869635 -4.29382 0
M  V30 3554 C 346.67 0.933515 -4.33359 0
M  V30 3555 H 343.89 -0.0126333 -0.670881 0
M  V30 3556 H 346.434 -0.675864 -1.93009 0
M  V30 3557 H 344.589 1.03022 -3.7345 0
M  V30 3558 H 345.003 -0.62179 -5.20801 0
M  V30 3559 H 346.477 1.07593 -5.41413 0
M  V30 3560 H 346.954 1.92685 -3.94676 0
M  V30 3561 H 347.56 0.281221 -4.24369 0
M  V30 3562 N 345.875 1.56104 -0.216619 0
M  V30 3563 C 347.286 1.844 0.292128 0
M  V30 3564 C 347.637 1.13788 1.59833 0
M  V30 3565 O 346.762 0.405888 2.12559 0
M  V30 3566 C 347.357 3.3452 0.53681 0
M  V30 3567 C 345.916 3.63151 0.989876 0
M  V30 3568 C 345.063 2.77255 0.0502302 0
M  V30 3569 H 348.014 1.52481 -0.439926 0
M  V30 3570 H 348.035 3.54459 1.38345 0
M  V30 3571 H 347.547 3.85885 -0.414031 0
M  V30 3572 H 345.648 3.17238 1.95425 0
M  V30 3573 H 345.761 4.71177 0.867698 0
M  V30 3574 H 344.125 2.48555 0.556117 0
M  V30 3575 H 344.908 3.31416 -0.89544 0
M  V30 3576 N 347.353 -0.0568162 1.57498 0
M  V30 3577 C 348.63 -0.786954 1.79071 0
M  V30 3578 C 349.01 -1.95028 0.80792 0
M  V30 3579 O 348.358 -2.27968 -0.155858 0
M  V30 3580 C 348.568 -1.24594 3.26002 0
M  V30 3581 C 349.916 -1.67323 3.90241 0
M  V30 3582 O 350.94 -1.34124 3.29984 0
M  V30 3583 O 349.799 -2.28842 4.9628 0
M  V30 3584 H 346.893 -0.378262 0.735423 0
M  V30 3585 H 349.439 -0.035734 1.69662 0
M  V30 3586 H 348.211 -0.41423 3.89101 0
M  V30 3587 H 347.834 -2.05803 3.40192 0
M  V30 3588 N 348.832 -1.54138 -0.328536 0
M  V30 3589 C 350.243 -1.63395 -0.903272 0
M  V30 3590 C 350.594 -0.524828 -1.8905 0
M  V30 3591 O 349.719 0.343068 -2.13663 0
M  V30 3592 C 350.314 -2.9618 -1.64507 0
M  V30 3593 C 348.873 -3.0765 -2.1686 0
M  V30 3594 C 348.02 -2.58933 -0.992416 0
M  V30 3595 H 350.971 -1.58344 -0.106253 0
M  V30 3596 H 350.992 -2.86061 -2.50897 0
M  V30 3597 H 350.504 -3.76884 -0.926302 0
M  V30 3598 H 348.605 -2.31611 -2.91868 0
M  V30 3599 H 348.718 -4.1337 -2.42202 0
M  V30 3600 H 347.082 -2.14706 -1.37016 0
M  V30 3601 H 347.865 -3.42089 -0.288041 0
M  V30 3602 N 350.31 0.590341 -1.46126 0
M  V30 3603 C 351.22 1.72793 -1.58681 0
M  V30 3604 C 352.236 1.67516 -0.470566 0
M  V30 3605 O 353.412 1.87562 -0.733642 0
M  V30 3606 C 350.477 3.09287 -1.5666 0
M  V30 3607 C 349.538 3.25886 -2.79458 0
M  V30 3608 C 348.771 4.55869 -2.77524 0
M  V30 3609 O 348.994 5.3928 -1.85832 0
M  V30 3610 O 347.928 4.75552 -3.68964 0
M  V30 3611 H 351.754 1.65149 -2.54872 0
M  V30 3612 H 349.339 0.756486 -1.28832 0
M  V30 3613 H 351.221 3.90577 -1.58202 0
M  V30 3614 H 349.896 3.17385 -0.636271 0
M  V30 3615 H 348.803 2.44119 -2.83472 0
M  V30 3616 H 350.136 3.22675 -3.71674 0
M  V30 3617 N 351.788 1.33704 0.83433 0
M  V30 3618 C 353.018 1.28281 1.6195 0
M  V30 3619 C 353.426 -0.147603 1.88623 0
M  V30 3620 O 352.769 -1.1016 1.47005 0
M  V30 3621 C 352.831 1.99386 2.99141 0
M  V30 3622 C 352.495 3.48681 2.95416 0
M  V30 3623 C 353.492 4.438 2.70809 0
M  V30 3624 C 351.177 3.90925 3.15409 0
M  V30 3625 C 353.171 5.79138 2.66229 0
M  V30 3626 C 350.858 5.26366 3.10454 0
M  V30 3627 C 351.856 6.20284 2.85895 0
M  V30 3628 O 351.544 7.53245 2.80852 0
M  V30 3629 H 351.276 0.44315 0.510484 0
M  V30 3630 H 353.83 1.76711 1.04702 0
M  V30 3631 H 352.06 1.45554 3.58261 0
M  V30 3632 H 353.749 1.87403 3.60049 0
M  V30 3633 H 354.515 4.12485 2.5511 0
M  V30 3634 H 350.394 3.18229 3.33543 0
M  V30 3635 H 353.938 6.52416 2.4698 0
M  V30 3636 H 349.835 5.57304 3.25703 0
M  V30 3637 H 350.603 7.62846 2.96661 0
M  V30 3638 N 353.266 -1.05314 1.17247 0
M  V30 3639 C 354.677 -1.59753 0.96623 0
M  V30 3640 C 355.028 -1.9005 -0.487378 0
M  V30 3641 O 354.153 -1.68126 -1.36245 0
M  V30 3642 C 354.748 -2.90249 1.74759 0
M  V30 3643 C 353.307 -3.41352 1.58606 0
M  V30 3644 C 352.454 -2.15103 1.75002 0
M  V30 3645 H 355.405 -0.881406 1.31973 0
M  V30 3646 H 355.426 -3.60097 1.22925 0
M  V30 3647 H 354.938 -2.68166 2.8055 0
M  V30 3648 H 353.039 -3.68474 0.552985 0
M  V30 3649 H 353.152 -4.16019 2.37624 0
M  V30 3650 H 351.516 -2.25804 1.17833 0
M  V30 3651 H 352.299 -1.95491 2.82202 0
M  V30 3652 N 354.744 -0.972509 -1.24016 0
M  V30 3653 C 356.021 -0.553733 -1.87598 0
M  V30 3654 C 356.401 0.969158 -1.87538 0
M  V30 3655 O 355.749 1.84255 -1.35139 0
M  V30 3656 C 355.959 -1.15076 -3.29482 0
M  V30 3657 C 357.307 -1.23862 -4.06132 0
M  V30 3658 O 358.331 -1.10363 -3.38672 0
M  V30 3659 O 357.19 -1.45252 -5.26844 0
M  V30 3660 H 354.284 -0.185331 -0.805966 0
M  V30 3661 H 356.83 -1.06709 -1.31952 0
M  V30 3662 H 355.602 -2.19333 -3.2405 0
M  V30 3663 H 355.225 -0.621746 -3.92709 0
M  V30 3664 N 356.222 1.38976 -0.743202 0
M  V30 3665 C 357.499 1.94351 -0.220705 0
M  V30 3666 C 357.879 1.67935 1.2791 0
M  V30 3667 O 357.227 1.01211 2.04862 0
M  V30 3668 C 357.437 3.44426 -0.563171 0
M  V30 3669 C 358.785 4.2144 -0.517046 0
M  V30 3670 O 359.809 3.52661 -0.500846 0
M  V30 3671 O 358.668 5.44032 -0.518806 0
M  V30 3672 H 355.762 0.825879 -0.043047 0
M  V30 3673 H 358.308 1.48429 -0.822618 0
M  V30 3674 H 357.08 3.5712 -1.59941 0
M  V30 3675 H 356.703 3.97543 0.0672883 0
M  V30 3676 N 357.7 0.491464 1.49741 0
M  V30 3677 C 358.93 -0.0534375 2.06531 0
M  V30 3678 C 359.338 -1.32233 1.35318 0
M  V30 3679 O 358.681 -1.78781 0.422243 0
M  V30 3680 C 358.743 -0.387034 3.57411 0
M  V30 3681 C 358.407 0.782764 4.50246 0
M  V30 3682 C 359.404 1.67059 4.92329 0
M  V30 3683 C 357.089 0.978866 4.9267 0
M  V30 3684 C 359.083 2.73874 5.75562 0
M  V30 3685 C 356.77 2.05022 5.75682 0
M  V30 3686 C 357.768 2.92851 6.17031 0
M  V30 3687 O 357.456 3.98138 6.98385 0
M  V30 3688 H 357.188 0.0129324 0.675876 0
M  V30 3689 H 359.742 0.685238 1.93633 0
M  V30 3690 H 357.972 -1.17918 3.68283 0
M  V30 3691 H 359.661 -0.869419 3.96479 0
M  V30 3692 H 360.427 1.53086 4.60206 0
M  V30 3693 H 356.306 0.304646 4.59992 0
M  V30 3694 H 359.85 3.42458 6.07757 0
M  V30 3695 H 355.747 2.18993 6.07217 0
M  V30 3696 H 356.515 3.95374 7.16674 0
M  V30 3697 N 359.178 -1.55987 0.224894 0
M  V30 3698 C 360.403 -2.03232 -0.41369 0
M  V30 3699 C 360.828 -1.10359 -1.52323 0
M  V30 3700 O 360.186 -0.092395 -1.81064 0
M  V30 3701 C 360.234 -3.48682 -0.919405 0
M  V30 3702 O 359.338 -3.58947 -2.03054 0
M  V30 3703 H 358.679 -0.657428 -0.0931903 0
M  V30 3704 H 361.209 -2.01679 0.34451 0
M  V30 3705 H 361.219 -3.8907 -1.22835 0
M  V30 3706 H 359.894 -4.15761 -0.107339 0
M  V30 3707 H 358.471 -3.30448 -1.72796 0
M  V30 3708 N 360.656 0.0484629 -1.57525 0
M  V30 3709 C 361.588 1.08222 -2.02041 0
M  V30 3710 C 362.601 1.33621 -0.930012 0
M  V30 3711 O 363.79 1.3145 -1.20761 0
M  V30 3712 C 360.89 2.42818 -2.36416 0
M  V30 3713 C 360.063 2.37049 -3.67596 0
M  V30 3714 C 359.122 3.53937 -3.89378 0
M  V30 3715 O 358.148 3.34308 -4.60681 0
M  V30 3716 N 359.35 4.75126 -3.3352 0
M  V30 3717 H 362.115 0.702946 -2.9134 0
M  V30 3718 H 359.676 0.236745 -1.6016 0
M  V30 3719 H 361.668 3.197 -2.48141 0
M  V30 3720 H 360.238 2.72661 -1.52888 0
M  V30 3721 H 359.458 1.45395 -3.66407 0
M  V30 3722 H 360.746 2.30318 -4.53686 0
M  V30 3723 H 360.144 4.93976 -2.75688 0
M  V30 3724 H 358.701 5.49439 -3.50656 0
M  V30 3725 N 362.134 1.5431 0.320358 0
M  V30 3726 C 363.382 1.72327 1.05583 0
M  V30 3727 C 363.703 0.50149 1.88441 0
M  V30 3728 O 362.973 -0.48448 1.89815 0
M  V30 3729 H 361.553 0.635387 0.3928 0
M  V30 3730 H 364.215 1.91621 0.356019 0
M  V30 3731 H 363.311 2.60426 1.72003 0
M  V30 3732 N 363.613 -0.582584 1.46437 0
M  V30 3733 C 364.861 -1.33814 1.51453 0
M  V30 3734 C 365.182 -1.94277 0.167792 0
M  V30 3735 O 364.452 -1.78566 -0.805677 0
M  V30 3736 H 363.032 -0.496838 0.557818 0
M  V30 3737 H 365.694 -0.682281 1.82568 0
M  V30 3738 H 364.79 -2.14479 2.26728 0
M  V30 3739 N 365.091 -1.34144 -0.827227 0
M  V30 3740 C 366.319 -1.29325 -1.61501 0
M  V30 3741 C 366.734 0.13354 -1.88327 0
M  V30 3742 O 366.091 1.0793 -1.47164 0
M  V30 3743 C 366.142 -2.07746 -2.95844 0
M  V30 3744 O 365.863 -3.4486 -2.70191 0
M  V30 3745 C 367.364 -2.10273 -3.90256 0
M  V30 3746 H 364.584 -0.445069 -0.50215 0
M  V30 3747 H 367.128 -1.76693 -1.02955 0
M  V30 3748 H 365.283 -1.6403 -3.5096 0
M  V30 3749 H 365.697 -3.85345 -3.55822 0
M  V30 3750 H 367.171 -2.69575 -4.81698 0
M  V30 3751 H 367.648 -1.096 -4.25305 0
M  V30 3752 H 368.254 -2.54059 -3.41078 0
M  V30 3753 N 366.569 1.04691 -1.17803 0
M  V30 3754 C 367.985 1.29963 -0.926379 0
M  V30 3755 C 368.185 1.97251 0.411635 0
M  V30 3756 O 367.241 2.24922 1.14744 0
M  V30 3757 C 368.554 2.16447 -2.08737 0
M  V30 3758 C 370.102 2.29814 -2.12496 0
M  V30 3759 C 370.577 3.19661 -3.27995 0
M  V30 3760 N 372.068 3.27247 -3.27816 0
M  V30 3761 C 372.803 3.96906 -4.13827 0
M  V30 3762 N 372.299 4.6895 -5.09959 0
M  V30 3763 N 374.092 3.93122 -4.01761 0
M  V30 3764 H 366.243 0.594182 -2.0392 0
M  V30 3765 H 368.506 0.324649 -0.890678 0
M  V30 3766 H 368.212 1.74304 -3.05469 0
M  V30 3767 H 368.086 3.17103 -2.04268 0
M  V30 3768 H 370.473 2.71196 -1.16347 0
M  V30 3769 H 370.554 1.2877 -2.21025 0
M  V30 3770 H 370.198 2.78991 -4.24413 0
M  V30 3771 H 370.128 4.20722 -3.16703 0
M  V30 3772 H 372.619 2.75921 -2.58217 0
M  V30 3773 H 372.932 5.19679 -5.71974 0
M  V30 3774 H 371.277 4.67875 -5.13924 0
M  V30 3775 H 374.468 3.35967 -3.2595 0
M  V30 3776 H 374.641 4.47139 -4.6901 0
M  V30 3777 N 368.047 0.979072 1.23499 0
M  V30 3778 C 368.977 0.537606 2.27227 0
M  V30 3779 C 369.958 -0.428539 1.64613 0
M  V30 3780 O 371.143 -0.322191 1.91509 0
M  V30 3781 C 368.273 -0.162052 3.46922 0
M  V30 3782 C 367.227 0.721242 4.21879 0
M  V30 3783 C 366.553 -0.110555 5.34586 0
M  V30 3784 C 367.853 2.01141 4.82016 0
M  V30 3785 H 369.547 1.40462 2.64406 0
M  V30 3786 H 367.093 0.67684 1.27102 0
M  V30 3787 H 369.046 -0.482192 4.18632 0
M  V30 3788 H 367.77 -1.06351 3.08799 0
M  V30 3789 H 366.429 1.02482 3.51984 0
M  V30 3790 H 366.077 -1.0125 4.92704 0
M  V30 3791 H 365.777 0.477325 5.85658 0
M  V30 3792 H 367.301 -0.425107 6.09118 0
M  V30 3793 H 368.715 1.75612 5.45741 0
M  V30 3794 H 367.112 2.54695 5.43369 0
M  V30 3795 H 368.182 2.69909 4.02836 0
M  V30 3796 N 369.525 -1.3858 0.750561 0
M  V30 3797 C 370.802 -1.94231 0.231009 0
M  V30 3798 C 371.182 -1.68611 -1.27018 0
M  V30 3799 O 370.53 -1.02296 -2.04323 0
M  V30 3800 C 370.74 -3.44123 0.581428 0
M  V30 3801 C 372.088 -4.2116 0.539389 0
M  V30 3802 O 373.112 -3.52391 0.519541 0
M  V30 3803 O 371.971 -5.43749 0.54765 0
M  V30 3804 H 369.065 -0.825639 0.0474263 0
M  V30 3805 H 371.611 -1.4799 0.830478 0
M  V30 3806 H 370.383 -3.56267 1.61833 0
M  V30 3807 H 370.006 -3.97573 -0.0462047 0
M  V30 3808 N 371.003 -0.499398 -1.49478 0
M  V30 3809 C 372.251 0.0455996 -2.02049 0
M  V30 3810 C 372.572 1.37633 -1.38138 0
M  V30 3811 O 371.842 1.8842 -0.536166 0
M  V30 3812 H 370.422 0.0198416 -0.746736 0
M  V30 3813 H 373.084 -0.656274 -1.83519 0
M  V30 3814 H 372.18 0.176445 -3.11601 0
M  V30 3815 N 372.481 1.55866 -0.233164 0
M  V30 3816 C 373.428 2.20796 0.67215 0
M  V30 3817 C 374.398 1.16731 1.18166 0
M  V30 3818 O 375.583 1.45129 1.23864 0
M  V30 3819 C 372.723 2.90072 1.86955 0
M  V30 3820 C 371.836 4.08759 1.39786 0
M  V30 3821 C 370.971 4.65787 2.55374 0
M  V30 3822 C 370.01 5.76752 2.04998 0
M  V30 3823 N 369.147 6.28021 3.13901 0
M  V30 3824 H 373.987 2.9779 0.111749 0
M  V30 3825 H 371.524 1.47036 0.0434007 0
M  V30 3826 H 373.482 3.28428 2.57276 0
M  V30 3827 H 372.112 2.15575 2.40265 0
M  V30 3828 H 371.164 3.7581 0.589173 0
M  V30 3829 H 372.476 4.88906 0.98856 0
M  V30 3830 H 371.63 5.06646 3.33758 0
M  V30 3831 H 370.369 3.84828 2.99598 0
M  V30 3832 H 369.374 5.35383 1.25079 0
M  V30 3833 H 370.599 6.59553 1.61759 0
M  V30 3834 H 368.545 5.49971 3.57586 0
M  V30 3835 H 368.462 7.03323 2.7726 0
M  V30 3836 H 369.73 6.73538 3.92386 0
M  V30 3837 N 373.959 -0.0401083 1.57549 0
M  V30 3838 C 374.907 -1.06264 2.06908 0
M  V30 3839 C 375.901 -1.38132 0.980608 0
M  V30 3840 O 377.107 -1.37167 1.16556 0
M  V30 3841 H 373.482 -0.360166 0.660139 0
M  V30 3842 H 375.453 -0.620445 2.91878 0
M  V30 3843 C 374.202 -2.35846 2.55483 0
M  V30 3844 H 373.525 -2.12183 3.38849 0
M  V30 3845 H 374.965 -3.05765 2.93741 0
M  V30 3846 C 373.424 -3.0404 1.45126 0
M  V30 3847 O 373.954 -3.93424 0.811216 0
M  V30 3848 N 372.16 -2.65184 1.18852 0
M  V30 3849 H 371.707 -1.92584 1.71083 0
M  V30 3850 H 371.665 -3.1113 0.452244 0
M  V30 3851 N 375.437 -1.54477 -0.31217 0
M  V30 3852 C 376.367 -1.87652 -1.38957 0
M  V30 3853 C 377.348 -0.734358 -1.53431 0
M  V30 3854 O 378.533 -0.98911 -1.67123 0
M  V30 3855 C 375.663 -2.11396 -2.75552 0
M  V30 3856 C 374.617 -3.27243 -2.75855 0
M  V30 3857 C 373.943 -3.36382 -4.15633 0
M  V30 3858 C 375.243 -4.64622 -2.38587 0
M  V30 3859 H 376.937 -2.77887 -1.11442 0
M  V30 3860 H 374.483 -1.33707 -0.534655 0
M  V30 3861 H 376.436 -2.33189 -3.51 0
M  V30 3862 H 375.16 -1.17921 -3.04569 0
M  V30 3863 H 373.819 -3.05356 -2.02863 0
M  V30 3864 H 373.467 -2.40445 -4.41809 0
M  V30 3865 H 373.167 -4.14249 -4.1674 0
M  V30 3866 H 374.691 -3.60422 -4.92877 0
M  V30 3867 H 376.105 -4.86219 -3.03749 0
M  V30 3868 H 374.502 -5.45121 -2.50925 0
M  V30 3869 H 375.572 -4.66097 -1.33723 0
M  V30 3870 N 376.915 0.57481 -1.46744 0
M  V30 3871 C 378.161 1.3347 -1.52688 0
M  V30 3872 C 378.494 1.93353 -0.181229 0
M  V30 3873 O 377.769 1.76912 0.808237 0
M  V30 3874 C 378.052 2.45811 -2.63152 0
M  V30 3875 C 377.905 1.90912 -4.07275 0
M  V30 3876 C 379.224 3.47822 -2.69644 0
M  V30 3877 H 376.343 0.483935 -0.555856 0
M  V30 3878 H 378.985 0.644968 -1.78718 0
M  V30 3879 H 377.135 3.04646 -2.41088 0
M  V30 3880 H 378.807 1.36473 -4.4065 0
M  V30 3881 H 377.05 1.21691 -4.16382 0
M  V30 3882 H 377.721 2.72042 -4.80309 0
M  V30 3883 H 380.197 2.9888 -2.895 0
M  V30 3884 H 379.073 4.23876 -3.48742 0
M  V30 3885 H 379.334 4.05555 -1.76005 0
M  V30 3886 N 378.394 1.34581 0.820102 0
M  V30 3887 C 379.326 1.22236 1.93884 0
M  V30 3888 C 380.339 0.148776 1.62119 0
M  V30 3889 O 381.528 0.400877 1.7394 0
M  V30 3890 C 378.628 0.856542 3.27897 0
M  V30 3891 C 377.801 2.02569 3.87666 0
M  V30 3892 C 376.86 1.63782 5.00062 0
M  V30 3893 O 375.886 2.35477 5.18208 0
M  V30 3894 N 377.088 0.553611 5.77854 0
M  V30 3895 H 379.853 2.18615 2.05006 0
M  V30 3896 H 377.414 1.27573 0.99683 0
M  V30 3897 H 379.406 0.578806 4.0054 0
M  V30 3898 H 377.976 -0.0171518 3.12595 0
M  V30 3899 H 377.196 2.468 3.07382 0
M  V30 3900 H 378.484 2.80752 4.24329 0
M  V30 3901 H 377.882 -0.0423528 5.65684 0
M  V30 3902 H 376.439 0.335614 6.50935 0
M  V30 3903 N 379.872 -1.04064 1.18357 0
M  V30 3904 C 380.782 -2.15569 0.925596 0
M  V30 3905 C 381.798 -1.7365 -0.110295 0
M  V30 3906 O 382.974 -2.01273 0.0716218 0
M  V30 3907 C 380.039 -3.43704 0.454836 0
M  V30 3908 C 379.1 -4.00004 1.55869 0
M  V30 3909 C 378.333 -5.22023 1.1103 0
M  V30 3910 O 378.556 -5.70392 -0.0309756 0
M  V30 3911 O 377.49 -5.70856 1.90805 0
M  V30 3912 H 381.316 -2.40187 1.8586 0
M  V30 3913 H 378.901 -1.1402 0.965394 0
M  V30 3914 H 380.783 -4.20923 0.200382 0
M  V30 3915 H 379.458 -3.20559 -0.449876 0
M  V30 3916 H 378.365 -3.24172 1.86716 0
M  V30 3917 H 379.698 -4.2749 2.43953 0
M  V30 3918 N 381.35 -0.985608 -1.22978 0
M  V30 3919 C 382.596 -0.667998 -1.92118 0
M  V30 3920 C 382.951 0.790454 -1.75413 0
M  V30 3921 O 382.244 1.56336 -1.10768 0
M  V30 3922 C 382.438 -1.00014 -3.43121 0
M  V30 3923 C 382.267 -2.48933 -3.74516 0
M  V30 3924 C 381.037 -3.15218 -3.94925 0
M  V30 3925 C 383.235 -3.47024 -3.79577 0
M  V30 3926 N 381.217 -4.53689 -4.13569 0
M  V30 3927 C 382.588 -4.70923 -4.03276 0
M  V30 3928 C 384.643 -3.41432 -3.62393 0
M  V30 3929 C 383.346 -5.89914 -4.11574 0
M  V30 3930 C 385.372 -4.59793 -3.71947 0
M  V30 3931 C 384.734 -5.82489 -3.96088 0
M  V30 3932 H 380.833 -0.295589 -0.723983 0
M  V30 3933 H 383.417 -1.26413 -1.4808 0
M  V30 3934 H 381.588 -0.432655 -3.85983 0
M  V30 3935 H 383.32 -0.63927 -3.99619 0
M  V30 3936 H 380.075 -2.65702 -3.92045 0
M  V30 3937 H 380.499 -5.25492 -4.26834 0
M  V30 3938 H 385.141 -2.47594 -3.4272 0
M  V30 3939 H 382.859 -6.84164 -4.30053 0
M  V30 3940 H 386.445 -4.57048 -3.59998 0
M  V30 3941 H 385.325 -6.72546 -4.033 0
M  V30 3942 N 382.828 1.3818 -0.7579 0
M  V30 3943 C 383.758 2.33027 -0.148597 0
M  V30 3944 C 384.739 1.55085 0.69875 0
M  V30 3945 O 385.924 1.83384 0.639053 0
M  V30 3946 C 383.054 3.3928 0.742034 0
M  V30 3947 C 382.008 4.28 -0.00291946 0
M  V30 3948 C 381.334 5.25146 1.00625 0
M  V30 3949 C 382.634 5.08938 -1.17385 0
M  V30 3950 H 384.328 2.84231 -0.940909 0
M  V30 3951 H 381.874 1.36659 -0.453908 0
M  V30 3952 H 383.827 4.046 1.17799 0
M  V30 3953 H 382.551 2.86569 1.56671 0
M  V30 3954 H 381.21 3.64192 -0.419504 0
M  V30 3955 H 380.858 4.68721 1.8251 0
M  V30 3956 H 380.558 5.85361 0.512428 0
M  V30 3957 H 382.082 5.93342 1.44143 0
M  V30 3958 H 383.496 5.67474 -0.815224 0
M  V30 3959 H 381.893 5.7841 -1.59882 0
M  V30 3960 H 382.963 4.42424 -1.98468 0
M  V30 3961 N 384.306 0.507319 1.49211 0
M  V30 3962 C 385.269 -0.256763 2.27757 0
M  V30 3963 C 386.269 -0.888287 1.34038 0
M  V30 3964 O 387.459 -0.751841 1.5714 0
M  V30 3965 C 384.591 -1.36905 3.12202 0
M  V30 3966 H 385.784 0.432557 2.96764 0
M  V30 3967 H 383.337 0.262488 1.5408 0
M  V30 3968 H 384.072 -2.09233 2.47775 0
M  V30 3969 H 383.857 -0.921599 3.81115 0
M  V30 3970 H 385.347 -1.9071 3.7151 0
M  V30 3971 N 385.784 -1.5574 0.241426 0
M  V30 3972 C 386.731 -2.21149 -0.660432 0
M  V30 3973 C 387.701 -1.17356 -1.17545 0
M  V30 3974 O 388.886 -1.45784 -1.23093 0
M  V30 3975 C 386.026 -2.91059 -1.85414 0
M  V30 3976 C 385.139 -4.09495 -1.37616 0
M  V30 3977 C 384.274 -4.67135 -2.529 0
M  V30 3978 C 383.313 -5.77831 -2.01936 0
M  V30 3979 N 382.45 -6.29677 -3.10566 0
M  V30 3980 H 387.29 -2.97845 -0.095955 0
M  V30 3981 H 384.827 -1.47057 -0.0356024 0
M  V30 3982 H 386.785 -3.29788 -2.5553 0
M  V30 3983 H 385.415 -2.16846 -2.39118 0
M  V30 3984 H 384.467 -3.76117 -0.569235 0
M  V30 3985 H 385.779 -4.89423 -0.962618 0
M  V30 3986 H 384.933 -5.08409 -3.31067 0
M  V30 3987 H 383.672 -3.86411 -2.97553 0
M  V30 3988 H 382.677 -5.36039 -1.22238 0
M  V30 3989 H 383.902 -6.60402 -1.58259 0
M  V30 3990 H 381.848 -5.5186 -3.54664 0
M  V30 3991 H 381.765 -7.04783 -2.73526 0
M  V30 3992 H 383.033 -6.75609 -3.88809 0
M  V30 3993 N 387.262 0.0317525 -1.57568 0
M  V30 3994 C 388.678 0.38735 -1.54828 0
M  V30 3995 C 388.878 1.7677 -0.967187 0
M  V30 3996 O 387.934 2.45581 -0.587063 0
M  V30 3997 C 389.247 0.291667 -2.99282 0
M  V30 3998 C 390.795 0.368946 -3.10818 0
M  V30 3999 C 391.27 0.302741 -4.56998 0
M  V30 4000 N 392.761 0.361617 -4.61786 0
M  V30 4001 C 393.496 0.333238 -5.72431 0
M  V30 4002 N 392.992 0.257308 -6.92322 0
M  V30 4003 N 394.785 0.382769 -5.60795 0
M  V30 4004 H 386.936 -0.871609 -1.93692 0
M  V30 4005 H 389.199 -0.331161 -0.888277 0
M  V30 4006 H 388.905 -0.656794 -3.45513 0
M  V30 4007 H 388.779 1.08638 -3.61217 0
M  V30 4008 H 391.166 1.30784 -2.64536 0
M  V30 4009 H 391.247 -0.455066 -2.5172 0
M  V30 4010 H 390.891 -0.632473 -5.03947 0
M  V30 4011 H 390.821 1.14482 -5.14005 0
M  V30 4012 H 393.312 0.422923 -3.75526 0
M  V30 4013 H 393.625 0.24068 -7.72425 0
M  V30 4014 H 391.97 0.223396 -6.94641 0
M  V30 4015 H 395.161 0.44006 -4.66027 0
M  V30 4016 H 395.334 0.357184 -6.47015 0
M  V30 4017 N 388.74 1.54641 0.303973 0
M  V30 4018 C 389.672 1.81754 1.39636 0
M  V30 4019 C 390.685 0.70035 1.46966 0
M  V30 4020 O 391.874 0.97778 1.49338 0
M  V30 4021 C 388.974 1.93785 2.7803 0
M  V30 4022 C 388.147 3.24156 2.93669 0
M  V30 4023 C 387.206 3.26641 4.12544 0
M  V30 4024 O 386.232 4.00187 4.04771 0
M  V30 4025 N 387.434 2.5182 5.23036 0
M  V30 4026 H 390.199 2.76031 1.16734 0
M  V30 4027 H 387.76 1.54178 0.494033 0
M  V30 4028 H 389.752 1.92852 3.55795 0
M  V30 4029 H 388.322 1.06515 2.93893 0
M  V30 4030 H 387.542 3.37887 2.03042 0
M  V30 4031 H 388.83 4.10195 3.01027 0
M  V30 4032 H 388.228 1.91692 5.32232 0
M  V30 4033 H 386.785 2.56644 5.99147 0
M  V30 4034 N 390.218 -0.567019 1.47046 0
M  V30 4035 C 391.466 -1.322 1.52864 0
M  V30 4036 C 391.787 -1.94088 0.188388 0
M  V30 4037 O 391.057 -1.7941 -0.786693 0
M  V30 4038 H 389.637 -0.490894 0.563056 0
M  V30 4039 H 392.299 -0.662879 1.83281 0
M  V30 4040 H 391.395 -2.12062 2.2899 0
M  V30 4041 N 391.696 -1.35014 -0.812953 0
M  V30 4042 C 392.659 -1.27292 -1.90602 0
M  V30 4043 C 393.659 -0.185817 -1.59723 0
M  V30 4044 O 394.849 -0.439102 -1.68575 0
M  V30 4045 C 391.981 -0.967676 -3.26877 0
M  V30 4046 H 393.174 -2.24479 -1.9887 0
M  V30 4047 H 390.727 -1.19446 -1.00808 0
M  V30 4048 H 391.462 0.0005954 -3.243 0
M  V30 4049 H 391.247 -1.75412 -3.50675 0
M  V30 4050 H 392.737 -0.939085 -4.06904 0
M  V30 4051 N 393.175 1.03435 -1.18907 0
M  V30 4052 C 394.591 1.28973 -0.940111 0
M  V30 4053 C 394.791 1.97676 0.390691 0
M  V30 4054 O 393.847 2.26127 1.12352 0
M  V30 4055 C 395.16 2.14221 -2.11021 0
M  V30 4056 C 396.708 2.27547 -2.14922 0
M  V30 4057 C 397.183 3.16164 -3.31367 0
M  V30 4058 N 398.674 3.23752 -3.31269 0
M  V30 4059 C 399.409 3.92495 -4.18014 0
M  V30 4060 N 398.905 4.63515 -5.14904 0
M  V30 4061 N 400.698 3.88838 -4.05908 0
M  V30 4062 H 392.849 0.57252 -2.04538 0
M  V30 4063 H 395.112 0.315184 -0.894071 0
M  V30 4064 H 394.818 1.71054 -3.073 0
M  V30 4065 H 394.692 3.14919 -2.0762 0
M  V30 4066 H 397.079 2.69947 -1.19217 0
M  V30 4067 H 397.16 1.26418 -2.22378 0
M  V30 4068 H 396.804 2.74474 -4.27348 0
M  V30 4069 H 396.734 4.17339 -3.21148 0
M  V30 4070 H 399.225 2.73167 -2.61129 0
M  V30 4071 H 399.538 5.13583 -5.77453 0
M  V30 4072 H 397.883 4.62398 -5.18857 0
M  V30 4073 H 401.074 3.32491 -3.29495 0
M  V30 4074 H 401.247 4.4214 -4.73726 0
M  V30 4075 N 394.653 0.992116 1.22453 0
M  V30 4076 C 395.883 0.684949 1.94915 0
M  V30 4077 C 396.291 -0.754292 1.73514 0
M  V30 4078 O 395.634 -1.52056 1.03076 0
M  V30 4079 C 395.696 0.910054 3.47791 0
M  V30 4080 C 395.36 2.33363 3.92926 0
M  V30 4081 C 396.357 3.31308 4.00663 0
M  V30 4082 C 394.042 2.66785 4.25595 0
M  V30 4083 C 396.036 4.6075 4.40441 0
M  V30 4084 C 393.723 3.96446 4.65053 0
M  V30 4085 C 394.721 4.9324 4.72444 0
M  V30 4086 O 394.409 6.20584 5.1101 0
M  V30 4087 H 394.141 0.25258 0.62704 0
M  V30 4088 H 396.695 1.32939 1.56577 0
M  V30 4089 H 394.925 0.208443 3.86138 0
M  V30 4090 H 396.614 0.598257 4.01467 0
M  V30 4091 H 397.38 3.0682 3.75615 0
M  V30 4092 H 393.259 1.92148 4.19047 0
M  V30 4093 H 396.803 5.363 4.46126 0
M  V30 4094 H 392.7 4.20724 4.89552 0
M  V30 4095 H 393.468 6.24509 5.29085 0
M  V30 4096 N 396.131 -1.37776 0.765217 0
M  V30 4097 C 397.377 -2.00145 0.327072 0
M  V30 4098 C 397.71 -1.60607 -1.09175 0
M  V30 4099 O 396.985 -0.849127 -1.74986 0
M  V30 4100 C 397.268 -3.57109 0.46319 0
M  V30 4101 C 397.121 -4.06576 1.92395 0
M  V30 4102 C 398.44 -4.39888 -0.136473 0
M  V30 4103 H 395.559 -0.727113 0.120316 0
M  V30 4104 H 398.201 -1.63549 0.967039 0
M  V30 4105 H 396.351 -3.88414 -0.0816358 0
M  V30 4106 H 398.023 -3.85864 2.52798 0
M  V30 4107 H 396.266 -3.59011 2.43503 0
M  V30 4108 H 396.937 -5.15639 1.97028 0
M  V30 4109 H 399.413 -4.14803 0.328317 0
M  V30 4110 H 398.289 -5.48899 -0.0110582 0
M  V30 4111 H 398.55 -4.24758 -1.22608 0
M  V30 4112 N 397.609 -0.515225 -1.4894 0
M  V30 4113 C 398.855 0.016187 -2.03394 0
M  V30 4114 C 399.21 1.33377 -1.38666 0
M  V30 4115 O 398.503 1.84461 -0.518141 0
M  V30 4116 C 398.697 0.210595 -3.56779 0
M  V30 4117 C 398.526 -1.08659 -4.36375 0
M  V30 4118 C 397.296 -1.64237 -4.77864 0
M  V30 4119 C 399.494 -1.9935 -4.74093 0
M  V30 4120 N 397.476 -2.88398 -5.41941 0
M  V30 4121 C 398.847 -3.08088 -5.38035 0
M  V30 4122 C 400.902 -1.99856 -4.56029 0
M  V30 4123 C 399.605 -4.17377 -5.85823 0
M  V30 4124 C 401.631 -3.08129 -5.04787 0
M  V30 4125 C 400.993 -4.15586 -5.68742 0
M  V30 4126 H 397.092 -0.0352107 -0.781207 0
M  V30 4127 H 399.676 -0.693237 -1.8194 0
M  V30 4128 H 397.847 0.889088 -3.78087 0
M  V30 4129 H 399.579 0.740287 -3.97872 0
M  V30 4130 H 396.334 -1.18566 -4.58518 0
M  V30 4131 H 396.758 -3.51572 -5.78555 0
M  V30 4132 H 401.4 -1.18079 -4.05977 0
M  V30 4133 H 399.118 -4.99943 -6.34888 0
M  V30 4134 H 402.704 -3.09557 -4.92611 0
M  V30 4135 H 401.584 -4.97987 -6.05787 0
M  V30 4136 N 399.087 1.5561 -0.249682 0
M  V30 4137 C 400.035 2.22894 0.664906 0
M  V30 4138 C 401.029 1.21743 1.17792 0
M  V30 4139 O 402.235 1.39748 1.13449 0
M  V30 4140 H 398.61 0.715022 0.232912 0
M  V30 4141 H 400.581 2.98307 0.0742998 0
M  V30 4142 C 399.33 2.94424 1.84959 0
M  V30 4143 H 398.653 3.72031 1.46399 0
M  V30 4144 H 400.093 3.44862 2.4667 0
M  V30 4145 C 398.552 1.98454 2.72245 0
M  V30 4146 O 399.082 1.51939 3.71857 0
M  V30 4147 N 397.288 1.65496 2.38871 0
M  V30 4148 H 396.835 2.03517 1.57919 0
M  V30 4149 H 396.793 1.0155 2.97548 0
M  V30 4150 N 400.565 -0.0233959 1.57583 0
M  V30 4151 C 401.981 -0.379134 1.55031 0
M  V30 4152 C 402.181 -1.76255 0.976548 0
M  V30 4153 O 401.237 -2.45266 0.600078 0
M  V30 4154 C 402.55 -0.275792 2.99433 0
M  V30 4155 C 404.098 -0.352458 3.11009 0
M  V30 4156 C 404.573 -0.278501 4.57152 0
M  V30 4157 N 406.064 -0.337123 4.61972 0
M  V30 4158 C 406.799 -0.302876 5.726 0
M  V30 4159 N 406.295 -0.220589 6.92449 0
M  V30 4160 N 408.088 -0.353023 5.6099 0
M  V30 4161 H 400.239 0.881869 1.93227 0
M  V30 4162 H 402.502 0.335867 0.886509 0
M  V30 4163 H 402.208 0.675108 3.4516 0
M  V30 4164 H 402.082 -1.06721 3.61788 0
M  V30 4165 H 404.469 -1.29379 2.65226 0
M  V30 4166 H 404.55 0.468409 2.51475 0
M  V30 4167 H 404.194 0.659189 5.03604 0
M  V30 4168 H 404.124 -1.11755 5.14605 0
M  V30 4169 H 406.615 -0.403002 3.75745 0
M  V30 4170 H 406.928 -0.199713 7.72542 0
M  V30 4171 H 405.273 -0.186555 6.9475 0
M  V30 4172 H 408.464 -0.415339 4.66254 0
M  V30 4173 H 408.637 -0.322866 6.47195 0
M  V30 4174 N 402.043 -1.548 -0.295768 0
M  V30 4175 C 403.271 -1.78327 -1.04914 0
M  V30 4176 C 403.686 -0.545316 -1.80753 0
M  V30 4177 O 403.043 0.485013 -1.75937 0
M  V30 4178 C 403.094 -2.99418 -2.02561 0
M  V30 4179 O 402.815 -4.18431 -1.29798 0
M  V30 4180 C 404.316 -3.35375 -2.89895 0
M  V30 4181 H 401.536 -0.594618 -0.310918 0
M  V30 4182 H 404.08 -2.01763 -0.333454 0
M  V30 4183 H 402.235 -2.78175 -2.69624 0
M  V30 4184 H 402.649 -4.86736 -1.95419 0
M  V30 4185 H 404.123 -4.23332 -3.54251 0
M  V30 4186 H 404.6 -2.53761 -3.58472 0
M  V30 4187 H 405.206 -3.58796 -2.28355 0
M  V30 4188 N 403.521 0.559213 -1.47345 0
M  V30 4189 C 404.431 1.69388 -1.62311 0
M  V30 4190 C 405.447 1.6648 -0.505993 0
M  V30 4191 O 406.623 1.85964 -0.773262 0
M  V30 4192 C 403.688 3.05894 -1.63185 0
M  V30 4193 C 402.749 3.19885 -2.86307 0
M  V30 4194 C 401.982 4.49879 -2.87131 0
M  V30 4195 O 402.205 5.35217 -1.97229 0
M  V30 4196 O 401.139 4.67618 -3.78968 0
M  V30 4197 H 404.965 1.59706 -2.58317 0
M  V30 4198 H 402.55 0.728989 -1.30407 0
M  V30 4199 H 404.432 3.87133 -1.66451 0
M  V30 4200 H 403.107 3.15964 -0.70345 0
M  V30 4201 H 402.014 2.38052 -2.88587 0
M  V30 4202 H 403.347 3.14718 -3.78435 0
M  V30 4203 N 404.999 1.35443 0.805782 0
M  V30 4204 C 405.929 1.31095 1.93226 0
M  V30 4205 C 406.91 0.185244 1.69088 0
M  V30 4206 O 408.095 0.380332 1.90439 0
M  V30 4207 C 405.225 1.08299 3.29983 0
M  V30 4208 C 404.179 2.17519 3.68605 0
M  V30 4209 C 403.505 1.79887 5.03532 0
M  V30 4210 C 404.805 3.5949 3.78898 0
M  V30 4211 H 406.499 2.25352 1.97122 0
M  V30 4212 H 404.045 1.0848 0.946996 0
M  V30 4213 H 405.998 1.03897 4.08391 0
M  V30 4214 H 404.722 0.104885 3.26432 0
M  V30 4215 H 403.381 2.2102 2.92482 0
M  V30 4216 H 403.029 0.80693 4.96485 0
M  V30 4217 H 402.729 2.53001 5.30344 0
M  V30 4218 H 404.253 1.77011 5.84379 0
M  V30 4219 H 405.667 3.58307 4.47536 0
M  V30 4220 H 404.064 4.31371 4.1718 0
M  V30 4221 H 405.134 3.95584 2.80431 0
M  V30 4222 N 406.477 -1.02803 1.19454 0
M  V30 4223 C 407.41 -2.107 0.876396 0
M  V30 4224 C 408.388 -1.61741 -0.166897 0
M  V30 4225 O 409.572 -1.88451 -0.0430195 0
M  V30 4226 C 406.699 -3.37262 0.311758 0
M  V30 4227 C 405.745 -4.05093 1.33424 0
M  V30 4228 S 406.578 -4.50498 2.89503 0
M  V30 4229 C 407.734 -5.80277 2.34584 0
M  V30 4230 H 407.967 -2.37362 1.79016 0
M  V30 4231 H 405.5 -1.15755 1.02177 0
M  V30 4232 H 407.458 -4.10499 -0.00748752 0
M  V30 4233 H 406.119 -3.08693 -0.58032 0
M  V30 4234 H 405.312 -4.9611 0.888302 0
M  V30 4235 H 404.914 -3.3803 1.60037 0
M  V30 4236 H 407.206 -6.54873 1.73633 0
M  V30 4237 H 408.149 -6.29651 3.23952 0
M  V30 4238 H 408.557 -5.3599 1.77131 0
M  V30 4239 N 407.956 -0.998596 -1.21925 0
M  V30 4240 C 408.888 -0.511879 -2.23411 0
M  V30 4241 C 409.901 0.396094 -1.57908 0
M  V30 4242 O 411.09 0.197316 -1.77406 0
M  V30 4243 C 408.19 0.276802 -3.37768 0
M  V30 4244 C 407.363 -0.628687 -4.32858 0
M  V30 4245 C 406.422 0.109272 -5.26087 0
M  V30 4246 O 405.448 -0.507237 -5.66935 0
M  V30 4247 N 406.65 1.38983 -5.63617 0
M  V30 4248 H 409.415 -1.38457 -2.658 0
M  V30 4249 H 406.976 -0.873981 -1.36283 0
M  V30 4250 H 408.968 0.77928 -3.97126 0
M  V30 4251 H 407.538 1.05063 -2.94415 0
M  V30 4252 H 406.758 -1.31175 -3.71735 0
M  V30 4253 H 408.046 -1.24514 -4.93329 0
M  V30 4254 H 407.444 1.91194 -5.32411 0
M  V30 4255 H 406.001 1.83739 -6.25367 0
M  V30 4256 N 409.434 1.37368 -0.772513 0
M  V30 4257 C 410.397 2.28601 -0.165541 0
M  V30 4258 C 411.397 1.48062 0.627238 0
M  V30 4259 O 412.587 1.68268 0.450715 0
M  V30 4260 C 409.719 3.32023 0.772897 0
M  V30 4261 H 410.912 2.83787 -0.969787 0
M  V30 4262 H 408.465 1.46647 -0.540775 0
M  V30 4263 H 409.2 2.81962 1.60212 0
M  V30 4264 H 408.985 3.91555 0.206585 0
M  V30 4265 H 410.475 4.00197 1.19298 0
M  V30 4266 N 410.912 0.523116 1.48665 0
M  V30 4267 C 412.137 -0.0117284 2.07397 0
M  V30 4268 C 412.562 -1.28031 1.37803 0
M  V30 4269 O 411.92 -1.75836 0.441762 0
M  V30 4270 C 411.968 -0.225786 3.59892 0
M  V30 4271 O 411.072 -1.29592 3.91509 0
M  V30 4272 H 410.413 0.0360673 0.66302 0
M  V30 4273 H 412.943 0.729066 1.9117 0
M  V30 4274 H 412.953 -0.450552 4.05505 0
M  V30 4275 H 411.628 0.700944 4.09951 0
M  V30 4276 H 410.205 -1.05436 3.57684 0
M  V30 4277 N 412.39 -1.55475 0.257931 0
M  V30 4278 C 413.32 -2.24815 -0.630912 0
M  V30 4279 C 414.301 -1.23224 -1.17259 0
M  V30 4280 O 415.486 -1.51904 -1.20991 0
M  V30 4281 C 412.616 -2.95609 -1.82298 0
M  V30 4282 C 411.57 -4.03982 -1.41359 0
M  V30 4283 C 410.896 -4.6226 -2.68738 0
M  V30 4284 C 412.196 -5.19109 -0.57648 0
M  V30 4285 H 413.89 -2.99354 -0.0526878 0
M  V30 4286 H 411.436 -1.4398 -0.023901 0
M  V30 4287 H 413.389 -3.42822 -2.45054 0
M  V30 4288 H 412.113 -2.18577 -2.42676 0
M  V30 4289 H 410.772 -3.57555 -0.809324 0
M  V30 4290 H 410.42 -3.81915 -3.27338 0
M  V30 4291 H 410.12 -5.35424 -2.42065 0
M  V30 4292 H 411.644 -5.12212 -3.32372 0
M  V30 4293 H 413.058 -5.62479 -1.10861 0
M  V30 4294 H 411.455 -5.98729 -0.405351 0
M  V30 4295 H 412.525 -4.83174 0.408776 0
M  V30 4296 N 413.868 0.0150385 -1.57593 0
M  V30 4297 C 415.145 0.7392 -1.81094 0
M  V30 4298 C 415.525 1.92817 -0.859344 0
M  V30 4299 O 414.873 2.28301 0.095362 0
M  V30 4300 C 415.083 1.15907 -3.29191 0
M  V30 4301 C 416.431 1.56918 -3.9454 0
M  V30 4302 O 417.455 1.25328 -3.33424 0
M  V30 4303 O 416.314 2.15604 -5.02173 0
M  V30 4304 H 413.408 0.358631 -0.745193 0
M  V30 4305 H 415.954 -0.00926156 -1.69697 0
M  V30 4306 H 414.726 0.310921 -3.90063 0
M  V30 4307 H 414.349 1.96711 -3.45529 0
M  V30 4308 N 415.346 1.54954 0.287554 0
M  V30 4309 C 416.757 1.65732 0.859634 0
M  V30 4310 C 417.108 0.574767 1.87592 0
M  V30 4311 O 416.233 -0.286299 2.14498 0
M  V30 4312 C 416.828 3.00438 1.56597 0
M  V30 4313 C 415.387 3.13292 2.08627 0
M  V30 4314 C 414.534 2.61473 0.923416 0
M  V30 4315 H 417.485 1.5857 0.0642338 0
M  V30 4316 H 417.506 2.92613 2.43224 0
M  V30 4317 H 417.018 3.79207 0.826053 0
M  V30 4318 H 415.119 2.39268 2.85625 0
M  V30 4319 H 415.232 4.19647 2.31157 0
M  V30 4320 H 413.596 2.18264 1.31275 0
M  V30 4321 H 414.379 3.42733 0.197241 0
M  V30 4322 N 416.824 -0.551391 1.4764 0
M  V30 4323 C 418.049 -1.33837 1.58437 0
M  V30 4324 C 418.474 -1.866 0.237063 0
M  V30 4325 O 417.832 -1.6328 -0.787994 0
M  V30 4326 C 417.88 -2.48014 2.61766 0
M  V30 4327 O 416.984 -3.50419 2.1744 0
M  V30 4328 H 416.325 -0.397299 0.532024 0
M  V30 4329 H 418.855 -0.665759 1.93465 0
M  V30 4330 H 418.865 -2.94503 2.82369 0
M  V30 4331 H 417.54 -2.08969 3.5959 0
M  V30 4332 H 416.117 -3.10196 2.06961 0
M  V30 4333 N 418.302 -1.35869 -0.798587 0
M  V30 4334 C 419.548 -1.2978 -1.55836 0
M  V30 4335 C 419.881 0.125322 -1.93795 0
M  V30 4336 O 419.156 1.07658 -1.61987 0
M  V30 4337 C 419.439 -2.21188 -2.84162 0
M  V30 4338 C 419.292 -3.72155 -2.52628 0
M  V30 4339 C 420.611 -2.11545 -3.85923 0
M  V30 4340 H 417.73 -0.472769 -0.565383 0
M  V30 4341 H 420.372 -1.66341 -0.918192 0
M  V30 4342 H 418.522 -1.90139 -3.38791 0
M  V30 4343 H 420.194 -4.13682 -2.04121 0
M  V30 4344 H 418.437 -3.92042 -1.85704 0
M  V30 4345 H 419.108 -4.31511 -3.44242 0
M  V30 4346 H 421.584 -2.38855 -3.40716 0
M  V30 4347 H 420.46 -2.77688 -4.73477 0
M  V30 4348 H 420.721 -1.09987 -4.282 0
M  V30 4349 N 419.78 1.02168 -1.19998 0
M  V30 4350 C 421.008 1.79296 -1.03249 0
M  V30 4351 C 421.423 1.84103 0.418502 0
M  V30 4352 O 420.78 1.29031 1.29063 0
M  V30 4353 C 420.831 3.24007 -1.60319 0
M  V30 4354 O 420.552 3.19512 -2.99739 0
M  V30 4355 C 422.053 4.17704 -1.48453 0
M  V30 4356 H 419.273 0.564016 -0.363493 0
M  V30 4357 H 421.817 1.28639 -1.58973 0
M  V30 4358 H 419.972 3.7183 -1.08727 0
M  V30 4359 H 420.386 4.10306 -3.26725 0
M  V30 4360 H 421.86 5.17104 -1.93153 0
M  V30 4361 H 422.337 4.37029 -0.436193 0
M  V30 4362 H 422.943 3.7576 -1.99211 0
M  V30 4363 N 421.258 1.00505 1.21394 0
M  V30 4364 C 422.208 0.536503 2.21598 0
M  V30 4365 C 423.192 -0.401914 1.55799 0
M  V30 4366 O 424.384 -0.226757 1.75541 0
M  V30 4367 C 421.513 -0.135446 3.43033 0
M  V30 4368 C 420.599 0.823992 4.16018 0
M  V30 4369 N 420.99 1.97683 4.6557 0
M  V30 4370 C 419.288 0.642387 4.4135 0
M  V30 4371 C 419.989 2.58003 5.21354 0
M  V30 4372 N 418.965 1.86162 5.1073 0
M  V30 4373 H 422.767 1.41557 2.57563 0
M  V30 4374 H 420.281 0.868878 1.37202 0
M  V30 4375 H 422.278 -0.488584 4.14027 0
M  V30 4376 H 420.938 -1.01049 3.08576 0
M  V30 4377 H 421.949 2.3572 4.61147 0
M  V30 4378 H 418.626 -0.185578 4.17087 0
M  V30 4379 H 420.016 3.555 5.70149 0
M  V30 4380 N 422.737 -1.36956 0.779787 0
M  V30 4381 C 423.667 -2.32761 0.185651 0
M  V30 4382 C 424.648 -1.56177 -0.673989 0
M  V30 4383 O 425.833 -1.84378 -0.609797 0
M  V30 4384 C 422.963 -3.40418 -0.687964 0
M  V30 4385 C 421.917 -4.27941 0.0710102 0
M  V30 4386 C 421.243 -5.26681 -0.922573 0
M  V30 4387 C 422.543 -5.07006 1.25467 0
M  V30 4388 H 424.237 -2.82698 0.986008 0
M  V30 4389 H 421.783 -1.3592 0.475592 0
M  V30 4390 H 423.736 -4.06423 -1.11348 0
M  V30 4391 H 422.46 -2.89025 -1.52093 0
M  V30 4392 H 421.119 -3.63478 0.47739 0
M  V30 4393 H 420.767 -4.71565 -1.7503 0
M  V30 4394 H 420.467 -5.86103 -0.419237 0
M  V30 4395 H 421.991 -5.9556 -1.34686 0
M  V30 4396 H 423.405 -5.66105 0.905401 0
M  V30 4397 H 421.802 -5.75793 1.69063 0
M  V30 4398 H 422.872 -4.3921 2.05481 0
M  V30 4399 N 424.215 -0.530993 -1.48385 0
M  V30 4400 C 425.148 0.278511 -2.26494 0
M  V30 4401 C 426.126 0.943905 -1.32398 0
M  V30 4402 O 427.31 0.968098 -1.61741 0
M  V30 4403 C 424.437 1.39453 -3.08659 0
M  V30 4404 C 423.483 0.840434 -4.18137 0
M  V30 4405 S 424.316 -0.292496 -5.34701 0
M  V30 4406 C 425.472 0.825973 -6.20426 0
M  V30 4407 H 425.705 -0.384365 -2.94805 0
M  V30 4408 H 423.238 -0.316799 -1.51115 0
M  V30 4409 H 425.196 2.03382 -3.56575 0
M  V30 4410 H 423.857 2.02913 -2.3976 0
M  V30 4411 H 423.05 1.67769 -4.75257 0
M  V30 4412 H 422.652 0.277819 -3.72967 0
M  V30 4413 H 424.944 1.72438 -6.55188 0
M  V30 4414 H 425.887 0.292728 -7.07495 0
M  V30 4415 H 426.295 1.10683 -5.53543 0
M  V30 4416 N 425.693 1.55336 -0.266172 0
M  V30 4417 C 426.941 1.99003 0.35246 0
M  V30 4418 C 427.262 1.15591 1.57047 0
M  V30 4419 O 426.532 0.243268 1.94384 0
M  V30 4420 H 425.112 0.735025 0.133217 0
M  V30 4421 H 427.774 1.91367 -0.369434 0
M  V30 4422 H 426.87 3.05289 0.648453 0
M  V30 4423 N 427.171 -0.0066808 1.57599 0
M  V30 4424 C 428.101 -0.999296 2.11036 0
M  V30 4425 C 429.082 -1.36278 1.01795 0
M  V30 4426 O 430.267 -1.4477 1.29442 0
M  V30 4427 C 427.397 -2.29328 2.60818 0
M  V30 4428 C 426.351 -2.07159 3.74525 0
M  V30 4429 C 425.677 -3.42512 4.10596 0
M  V30 4430 C 426.977 -1.43959 5.02069 0
M  V30 4431 H 428.671 -0.554382 2.94223 0
M  V30 4432 H 426.217 -0.265221 1.41536 0
M  V30 4433 H 428.17 -2.99117 2.96828 0
M  V30 4434 H 426.894 -2.7592 1.74745 0
M  V30 4435 H 425.553 -1.39797 3.38899 0
M  V30 4436 H 425.201 -3.86795 3.21556 0
M  V30 4437 H 424.901 -3.28498 4.87199 0
M  V30 4438 H 426.425 -4.13628 4.4916 0
M  V30 4439 H 427.839 -2.03696 5.35893 0
M  V30 4440 H 426.236 -1.40452 5.83432 0
M  V30 4441 H 427.306 -0.407992 4.83181 0
M  V30 4442 N 428.649 -1.55105 -0.279332 0
M  V30 4443 C 429.896 -1.75412 -1.01177 0
M  V30 4444 C 430.224 -0.551728 -1.86511 0
M  V30 4445 O 429.479 0.465919 -1.90073 0
M  V30 4446 C 429.778 -3.0086 -1.92919 0
M  V30 4447 C 429.444 -4.33689 -1.23387 0
M  V30 4448 C 428.106 -4.69792 -1.04159 0
M  V30 4449 C 430.458 -5.15941 -0.738562 0
M  V30 4450 C 427.786 -5.85707 -0.341166 0
M  V30 4451 C 430.138 -6.32579 -0.0517636 0
M  V30 4452 C 428.802 -6.67326 0.152292 0
M  V30 4453 H 428.072 -0.641879 -0.370233 0
M  V30 4454 H 430.719 -1.89373 -0.284627 0
M  V30 4455 H 429.024 -2.81773 -2.72234 0
M  V30 4456 H 430.721 -3.13768 -2.49701 0
M  V30 4457 H 427.311 -4.05309 -1.39364 0
M  V30 4458 H 431.495 -4.8853 -0.874764 0
M  V30 4459 H 426.751 -6.11157 -0.172287 0
M  V30 4460 H 430.925 -6.9557 0.339828 0
M  V30 4461 H 428.552 -7.56998 0.697014 0
M  V30 4462 N 430.127 0.543554 -1.4793 0
M  V30 4463 C 431.037 1.67657 -1.64098 0
M  V30 4464 C 432.053 1.65934 -0.523622 0
M  V30 4465 O 433.229 1.85133 -0.792943 0
M  V30 4466 C 430.294 3.04146 -1.66421 0
M  V30 4467 C 429.355 3.16831 -2.89684 0
M  V30 4468 C 428.588 4.46809 -2.91886 0
M  V30 4469 O 428.811 5.33095 -2.02895 0
M  V30 4470 O 427.745 4.63573 -3.83906 0
M  V30 4471 H 431.571 1.56957 -2.59997 0
M  V30 4472 H 429.156 0.715116 -1.31173 0
M  V30 4473 H 431.038 3.85346 -1.70548 0
M  V30 4474 H 429.713 3.152 -0.736923 0
M  V30 4475 H 428.62 2.34977 -2.91095 0
M  V30 4476 H 429.953 3.10687 -3.81752 0
M  V30 4477 N 431.605 1.3629 0.791371 0
M  V30 4478 C 433.016 1.27225 1.36641 0
M  V30 4479 C 433.367 -0.0887968 1.95999 0
M  V30 4480 O 432.492 -0.990207 1.92416 0
M  V30 4481 C 433.087 2.30375 2.48421 0
M  V30 4482 C 431.646 2.25004 3.01746 0
M  V30 4483 C 430.793 2.15259 1.7481 0
M  V30 4484 H 433.744 1.47198 0.593173 0
M  V30 4485 H 433.765 1.93905 3.27385 0
M  V30 4486 H 433.277 3.29422 2.05189 0
M  V30 4487 H 431.378 1.29417 3.49403 0
M  V30 4488 H 431.491 3.1761 3.58693 0
M  V30 4489 H 429.855 1.61482 1.96966 0
M  V30 4490 H 430.638 3.16191 1.33709 0
M  V30 4491 N 433.083 -1.0153 1.20538 0
M  V30 4492 C 434.331 -1.74803 1.01432 0
M  V30 4493 C 434.652 -1.8963 -0.454456 0
M  V30 4494 O 433.922 -1.43975 -1.32846 0
M  V30 4495 H 432.502 -0.647598 0.372324 0
M  V30 4496 H 435.164 -1.22402 1.5167 0
M  V30 4497 H 434.26 -2.75114 1.47373 0
M  V30 4498 N 434.561 -1.01147 -1.20859 0
M  V30 4499 C 435.838 -0.613136 -1.85742 0
M  V30 4500 C 436.218 0.909004 -1.90526 0
M  V30 4501 O 435.566 1.79862 -1.40932 0
M  V30 4502 C 435.776 -1.255 -3.25654 0
M  V30 4503 C 437.124 -1.3672 -4.01986 0
M  V30 4504 O 438.148 -1.21082 -3.34989 0
M  V30 4505 O 437.007 -1.6194 -5.21956 0
M  V30 4506 H 434.101 -0.210878 -0.799662 0
M  V30 4507 H 436.647 -1.10853 -1.2849 0
M  V30 4508 H 435.419 -2.29532 -3.16908 0
M  V30 4509 H 435.042 -0.746369 -3.90532 0
M  V30 4510 N 436.039 1.36541 -0.78704 0
M  V30 4511 C 436.972 2.27831 -0.129765 0
M  V30 4512 C 437.95 1.47105 0.692732 0
M  V30 4513 O 439.134 1.7641 0.664222 0
M  V30 4514 C 436.261 3.28577 0.821883 0
M  V30 4515 C 435.307 4.26422 0.0814771 0
M  V30 4516 S 436.14 5.20919 -1.24112 0
M  V30 4517 C 437.296 6.25212 -0.293409 0
M  V30 4518 H 437.529 2.83229 -0.903811 0
M  V30 4519 H 435.062 1.43046 -0.581144 0
M  V30 4520 H 437.02 3.87123 1.3655 0
M  V30 4521 H 435.681 2.72096 1.56916 0
M  V30 4522 H 434.874 4.97554 0.803485 0
M  V30 4523 H 434.476 3.71944 -0.391589 0
M  V30 4524 H 436.768 6.75435 0.528622 0
M  V30 4525 H 437.711 7.01378 -0.973344 0
M  V30 4526 H 438.119 5.64407 0.102196 0
M  V30 4527 N 437.518 0.538854 1.48102 0
M  V30 4528 C 438.465 -0.219042 2.29758 0
M  V30 4529 C 439.435 -0.925562 1.37922 0
M  V30 4530 O 440.62 -0.924855 1.66886 0
M  V30 4531 C 437.76 -1.25452 3.2149 0
M  V30 4532 C 436.873 -0.555943 4.28408 0
M  V30 4533 C 436.008 -1.57512 5.0731 0
M  V30 4534 C 435.047 -0.860498 6.06021 0
M  V30 4535 N 434.184 -1.82564 6.77949 0
M  V30 4536 H 439.024 0.483449 2.94052 0
M  V30 4537 H 436.561 0.250247 1.44956 0
M  V30 4538 H 438.519 -1.86727 3.7308 0
M  V30 4539 H 437.149 -1.92528 2.591 0
M  V30 4540 H 436.201 0.170938 3.80016 0
M  V30 4541 H 437.513 0.00474616 4.988 0
M  V30 4542 H 436.667 -2.26191 5.62959 0
M  V30 4543 H 435.406 -2.16972 4.36778 0
M  V30 4544 H 434.411 -0.159686 5.49568 0
M  V30 4545 H 435.636 -0.271897 6.78555 0
M  V30 4546 H 433.582 -2.40915 6.10161 0
M  V30 4547 H 433.499 -1.31662 7.44447 0
M  V30 4548 H 434.767 -2.50414 7.38182 0
M  V30 4549 N 438.996 -1.55193 0.274407 0
M  V30 4550 C 440.226 -2.03692 -0.345442 0
M  V30 4551 C 440.634 -1.15224 -1.50067 0
M  V30 4552 O 439.977 -0.164749 -1.8296 0
M  V30 4553 C 440.039 -3.48325 -0.88939 0
M  V30 4554 C 439.703 -4.56794 0.137115 0
M  V30 4555 C 440.7 -5.11028 0.956378 0
M  V30 4556 C 438.385 -5.01568 0.27115 0
M  V30 4557 C 440.379 -6.08552 1.89587 0
M  V30 4558 C 438.066 -5.98918 1.21412 0
M  V30 4559 C 439.064 -6.52291 2.02498 0
M  V30 4560 O 438.752 -7.47738 2.952 0
M  V30 4561 H 438.484 -0.670893 -0.0829332 0
M  V30 4562 H 441.038 -2.01387 0.404056 0
M  V30 4563 H 439.268 -3.47867 -1.68895 0
M  V30 4564 H 440.957 -3.80167 -1.42225 0
M  V30 4565 H 441.723 -4.7725 0.863559 0
M  V30 4566 H 437.602 -4.5967 -0.349987 0
M  V30 4567 H 441.146 -6.50137 2.52918 0
M  V30 4568 H 437.043 -6.32114 1.30776 0
M  V30 4569 H 437.811 -7.65451 2.89874 0
M  V30 4570 N 440.474 -0.00167713 -1.576 0
M  V30 4571 C 441.384 1.00548 -2.1196 0
M  V30 4572 C 442.4 1.3758 -1.06526 0
M  V30 4573 O 443.576 1.46278 -1.38436 0
M  V30 4574 C 440.641 2.27809 -2.6135 0
M  V30 4575 C 439.702 1.97074 -3.81393 0
M  V30 4576 C 438.935 3.18267 -4.28417 0
M  V30 4577 O 439.158 4.30009 -3.74765 0
M  V30 4578 O 438.092 3.02167 -5.20556 0
M  V30 4579 H 441.918 0.573373 -2.98238 0
M  V30 4580 H 439.503 0.217255 -1.47812 0
M  V30 4581 H 441.385 3.02568 -2.93309 0
M  V30 4582 H 440.06 2.70254 -1.78169 0
M  V30 4583 H 438.967 1.19785 -3.54404 0
M  V30 4584 H 440.3 1.59464 -4.65652 0
M  V30 4585 N 441.952 1.55251 0.271103 0
M  V30 4586 C 443.201 1.75151 1.00025 0
M  V30 4587 C 443.514 0.561041 1.87381 0
M  V30 4588 O 444.72 0.642506 2.63788 0
M  V30 4589 C 443.176 3.09999 1.82835 0
M  V30 4590 C 442.784 4.3662 1.00336 0
M  V30 4591 C 444.528 3.39249 2.55168 0
M  V30 4592 C 442.435 5.62506 1.82595 0
M  V30 4593 H 441.365 0.652877 0.377183 0
M  V30 4594 H 444.016 1.81708 0.255843 0
M  V30 4595 H 442.398 2.97485 2.61378 0
M  V30 4596 H 443.572 4.60055 0.261959 0
M  V30 4597 H 441.887 4.14527 0.394486 0
M  V30 4598 H 444.484 4.3051 3.1712 0
M  V30 4599 H 444.827 2.59467 3.2555 0
M  V30 4600 H 445.36 3.52869 1.83653 0
M  V30 4601 H 442.099 6.45041 1.16631 0
M  V30 4602 H 441.619 5.43211 2.54327 0
M  V30 4603 H 443.298 6.00875 2.39913 0
M  V30 4604 N 443.43 -0.535701 1.48216 0
M  V30 4605 C 444.38 -1.63688 1.58714 0
M  V30 4606 C 445.364 -1.54635 0.444615 0
M  V30 4607 O 446.556 -1.62753 0.695742 0
M  V30 4608 C 443.685 -3.02423 1.62466 0
M  V30 4609 C 442.771 -3.16601 2.82178 0
M  V30 4610 N 443.162 -3.00771 4.06658 0
M  V30 4611 C 441.46 -3.47645 2.79391 0
M  V30 4612 C 442.161 -3.18213 4.86945 0
M  V30 4613 N 441.137 -3.45528 4.19656 0
M  V30 4614 H 444.939 -1.5005 2.5271 0
M  V30 4615 H 442.453 -0.741018 1.44508 0
M  V30 4616 H 444.45 -3.81517 1.6808 0
M  V30 4617 H 443.11 -3.17157 0.695826 0
M  V30 4618 H 444.121 -2.77652 4.37184 0
M  V30 4619 H 440.798 -3.68771 1.95739 0
M  V30 4620 H 442.188 -3.1076 5.95716 0
M  V30 4621 N 444.908 -1.36708 -0.784132 0
M  V30 4622 C 446.324 -1.17237 -1.08294 0
M  V30 4623 C 446.524 -5.93947e-05 -2.015 0
M  V30 4624 O 445.58 0.663686 -2.43622 0
M  V30 4625 C 446.893 -2.48557 -1.69233 0
M  V30 4626 C 448.441 -2.54968 -1.8155 0
M  V30 4627 C 448.916 -3.86388 -2.45904 0
M  V30 4628 N 450.407 -3.87762 -2.53367 0
M  V30 4629 C 451.142 -4.86191 -3.03983 0
M  V30 4630 N 450.638 -5.95015 -3.54866 0
M  V30 4631 N 452.431 -4.73606 -3.02743 0
M  V30 4632 H 444.582 -2.11758 -0.16501 0
M  V30 4633 H 446.845 -0.93822 -0.135822 0
M  V30 4634 H 446.551 -3.34638 -1.08215 0
M  V30 4635 H 446.425 -2.64748 -2.68679 0
M  V30 4636 H 448.812 -1.69302 -2.41704 0
M  V30 4637 H 448.893 -2.42672 -0.80895 0
M  V30 4638 H 448.537 -4.72462 -1.86392 0
M  V30 4639 H 448.467 -3.95982 -3.4714 0
M  V30 4640 H 450.958 -3.09145 -2.17343 0
M  V30 4641 H 451.271 -6.66086 -3.91854 0
M  V30 4642 H 449.616 -5.98676 -3.53003 0
M  V30 4643 H 452.807 -3.87717 -2.62284 0
M  V30 4644 H 452.98 -5.50473 -3.41881 0
M  V30 4645 N 446.386 1.0089 -1.21074 0
M  V30 4646 C 447.663 1.71834 -0.934469 0
M  V30 4647 C 448.043 2.0368 0.554753 0
M  V30 4648 O 447.391 1.70742 1.51854 0
M  V30 4649 C 447.601 2.98061 -1.8155 0
M  V30 4650 C 448.949 3.7117 -2.06199 0
M  V30 4651 O 449.973 3.08034 -1.78867 0
M  V30 4652 O 448.832 4.84721 -2.52404 0
M  V30 4653 H 445.926 0.749253 -0.35007 0
M  V30 4654 H 448.472 1.06668 -1.31985 0
M  V30 4655 H 447.244 2.70908 -2.82355 0
M  V30 4656 H 446.867 3.70968 -1.43068 0
M  V30 4657 N 447.864 1.01787 1.20321 0
M  V30 4658 C 449.089 0.727009 1.9424 0
M  V30 4659 C 449.514 -0.706179 1.74341 0
M  V30 4660 O 448.872 -1.48609 1.03852 0
M  V30 4661 C 448.92 1.06958 3.44372 0
M  V30 4662 O 448.024 0.181983 4.11998 0
M  V30 4663 H 447.365 0.269626 0.606793 0
M  V30 4664 H 449.895 1.36158 1.52716 0
M  V30 4665 H 449.905 1.02182 3.94997 0
M  V30 4666 H 448.58 2.11378 3.58179 0
M  V30 4667 H 447.157 0.287378 3.71791 0
M  V30 4668 N 449.342 -1.36122 0.79427 0
M  V30 4669 C 450.57 -2.03362 0.380989 0
M  V30 4670 C 450.985 -1.59881 -1.00416 0
M  V30 4671 O 450.342 -0.790515 -1.6449 0
M  V30 4672 C 450.393 -3.58804 0.440649 0
M  V30 4673 O 450.114 -4.007 1.77118 0
M  V30 4674 C 451.615 -4.43296 0.0186117 0
M  V30 4675 H 448.835 -0.652526 0.156367 0
M  V30 4676 H 451.379 -1.73998 1.07447 0
M  V30 4677 H 449.534 -3.8686 -0.204458 0
M  V30 4678 H 449.948 -4.95309 1.72538 0
M  V30 4679 H 451.422 -5.51887 0.111488 0
M  V30 4680 H 451.899 -4.2684 -1.03461 0
M  V30 4681 H 452.505 -4.20512 0.636395 0
M  V30 4682 N 450.82 -0.546701 -1.47814 0
M  V30 4683 C 451.75 0.195317 -2.32682 0
M  V30 4684 C 452.731 0.918981 -1.43139 0
M  V30 4685 O 453.916 0.901501 -1.72008 0
M  V30 4686 C 451.046 1.23237 -3.247 0
M  V30 4687 C 450 0.625818 -4.234 0
M  V30 4688 C 449.326 1.76674 -5.04669 0
M  V30 4689 C 450.626 -0.413515 -5.2066 0
M  V30 4690 H 452.32 -0.513184 -2.94969 0
M  V30 4691 H 449.866 -0.248241 -1.41844 0
M  V30 4692 H 451.819 1.75955 -3.82907 0
M  V30 4693 H 450.543 1.97067 -2.60446 0
M  V30 4694 H 449.202 0.120023 -3.66403 0
M  V30 4695 H 448.85 2.49383 -4.36826 0
M  V30 4696 H 448.55 1.36673 -5.71484 0
M  V30 4697 H 450.074 2.29738 -5.65732 0
M  V30 4698 H 451.488 0.0272042 -5.73294 0
M  V30 4699 H 449.885 -0.731825 -5.95621 0
M  V30 4700 H 450.955 -1.31325 -4.66778 0
M  V30 4701 N 452.299 1.55045 -0.282633 0
M  V30 4702 C 453.576 1.9179 0.384166 0
M  V30 4703 C 453.956 1.20778 1.73136 0
M  V30 4704 O 453.304 0.33719 2.25998 0
M  V30 4705 C 453.514 3.45149 0.517014 0
M  V30 4706 C 454.862 4.17064 0.796427 0
M  V30 4707 O 455.886 3.51084 0.601535 0
M  V30 4708 O 454.745 5.33837 1.16962 0
M  V30 4709 H 451.839 0.799483 0.211558 0
M  V30 4710 H 454.385 1.66474 -0.32934 0
M  V30 4711 H 453.157 3.88922 -0.430772 0
M  V30 4712 H 452.78 3.76443 1.2797 0
M  V30 4713 N 453.777 0.010035 1.57597 0
M  V30 4714 C 455.188 -0.531426 1.78977 0
M  V30 4715 C 455.539 -1.73375 0.918454 0
M  V30 4716 O 454.664 -2.16047 0.123635 0
M  V30 4717 C 455.259 -0.97086 3.24592 0
M  V30 4718 C 453.818 -1.45756 3.47033 0
M  V30 4719 C 452.965 -0.413384 2.74201 0
M  V30 4720 H 455.916 0.236166 1.56933 0
M  V30 4721 H 455.937 -1.83633 3.33255 0
M  V30 4722 H 455.449 -0.0955893 3.87982 0
M  V30 4723 H 453.55 -2.35339 2.88871 0
M  V30 4724 H 453.663 -1.4781 4.55729 0
M  V30 4725 H 452.027 -0.877266 2.39115 0
M  V30 4726 H 452.81 0.453092 3.40297 0
M  V30 4727 N 455.255 -1.55392 -0.262866 0
M  V30 4728 C 456.48 -1.80847 -1.01533 0
M  V30 4729 C 456.905 -0.584946 -1.78774 0
M  V30 4730 O 456.263 0.465701 -1.75217 0
M  V30 4731 C 456.311 -3.03866 -1.94159 0
M  V30 4732 O 455.415 -2.79662 -3.03089 0
M  V30 4733 H 454.756 -0.597441 -0.289759 0
M  V30 4734 H 457.286 -2.02553 -0.288698 0
M  V30 4735 H 457.296 -3.32872 -2.35924 0
M  V30 4736 H 455.971 -3.92564 -1.37354 0
M  V30 4737 H 454.548 -2.61781 -2.65566 0
M  V30 4738 N 456.733 0.527833 -1.48498 0
M  V30 4739 C 457.663 1.64136 -1.66077 0
M  V30 4740 C 458.644 1.62286 -0.509625 0
M  V30 4741 O 459.829 1.79449 -0.742413 0
M  V30 4742 C 456.959 3.02717 -1.70234 0
M  V30 4743 C 455.913 3.19426 -2.8487 0
M  V30 4744 C 455.239 4.5909 -2.74118 0
M  V30 4745 C 456.539 3.01993 -4.26142 0
M  V30 4746 H 458.233 1.4968 -2.593 0
M  V30 4747 H 455.779 0.718654 -1.24785 0
M  V30 4748 H 457.732 3.80491 -1.8112 0
M  V30 4749 H 456.456 3.18201 -0.735911 0
M  V30 4750 H 455.115 2.4407 -2.73542 0
M  V30 4751 H 454.763 4.71413 -1.7544 0
M  V30 4752 H 454.463 4.71214 -3.51042 0
M  V30 4753 H 455.987 5.3896 -2.86974 0
M  V30 4754 H 457.401 3.69558 -4.38292 0
M  V30 4755 H 455.798 3.2561 -5.04082 0
M  V30 4756 H 456.868 1.98396 -4.42456 0
M  V30 4757 N 458.211 1.37122 0.776871 0
M  V30 4758 C 459.144 1.26835 1.89705 0
M  V30 4759 C 460.122 0.14992 1.61907 0
M  V30 4760 O 461.306 0.323242 1.85708 0
M  V30 4761 C 458.433 0.95986 3.24814 0
M  V30 4762 C 457.479 2.09447 3.7153 0
M  V30 4763 S 458.312 3.71368 3.85806 0
M  V30 4764 C 459.468 3.42659 5.23771 0
M  V30 4765 H 459.701 2.21647 1.98141 0
M  V30 4766 H 457.234 1.22685 0.937433 0
M  V30 4767 H 459.192 0.788696 4.02852 0
M  V30 4768 H 457.853 0.0293137 3.14086 0
M  V30 4769 H 457.046 1.8335 4.69467 0
M  V30 4770 H 456.648 2.2255 3.00578 0
M  V30 4771 H 458.94 2.9733 6.0877 0
M  V30 4772 H 459.883 4.39905 5.54878 0
M  V30 4773 H 460.291 2.77708 4.91466 0
M  V30 4774 N 459.689 -1.00246 1.21608 0
M  V30 4775 C 460.599 -2.12515 0.993709 0
M  V30 4776 C 461.615 -1.73913 -0.0549939 0
M  V30 4777 O 462.791 -2.00943 0.135619 0
M  V30 4778 C 459.856 -3.42083 0.563953 0
M  V30 4779 C 458.917 -3.94843 1.68516 0
M  V30 4780 C 458.15 -5.18226 1.27582 0
M  V30 4781 O 458.373 -5.70201 0.150506 0
M  V30 4782 O 457.307 -5.64497 2.0887 0
M  V30 4783 H 461.133 -2.34152 1.93407 0
M  V30 4784 H 458.718 -1.10891 1.00118 0
M  V30 4785 H 460.6 -4.20073 0.334194 0
M  V30 4786 H 459.275 -3.21828 -0.347665 0
M  V30 4787 H 458.182 -3.18068 1.96935 0
M  V30 4788 H 459.515 -4.19512 2.5743 0
M  V30 4789 N 461.167 -1.02423 -1.1978 0
M  V30 4790 C 462.1 -0.545641 -2.21581 0
M  V30 4791 C 463.078 0.411024 -1.57319 0
M  V30 4792 O 464.262 0.329223 -1.85603 0
M  V30 4793 C 461.389 0.204973 -3.38079 0
M  V30 4794 C 460.435 -0.70241 -4.20676 0
M  V30 4795 S 461.268 -2.17595 -4.89298 0
M  V30 4796 C 462.424 -1.43572 -6.09211 0
M  V30 4797 H 462.657 -1.4082 -2.61834 0
M  V30 4798 H 460.19 -0.833771 -1.29952 0
M  V30 4799 H 462.148 0.631924 -4.05607 0
M  V30 4800 H 460.809 1.0432 -2.9627 0
M  V30 4801 H 460.002 -0.123193 -5.03849 0
M  V30 4802 H 459.604 -1.06747 -3.58442 0
M  V30 4803 H 461.896 -0.719806 -6.73665 0
M  V30 4804 H 462.839 -2.24388 -6.71607 0
M  V30 4805 H 463.247 -0.935252 -5.56699 0
M  V30 4806 N 462.645 1.35699 -0.801477 0
M  V30 4807 C 463.873 2.03157 -0.391768 0
M  V30 4808 C 464.288 1.60412 0.995668 0
M  V30 4809 O 463.645 0.799228 1.64069 0
M  V30 4810 C 463.696 3.58566 -0.459671 0
M  V30 4811 O 463.417 3.99756 -1.7924 0
M  V30 4812 C 464.918 4.4328 -0.0421205 0
M  V30 4813 H 462.138 0.651688 -0.159825 0
M  V30 4814 H 464.682 1.73426 -1.08368 0
M  V30 4815 H 462.837 3.86963 0.183939 0
M  V30 4816 H 463.251 4.94387 -1.75162 0
M  V30 4817 H 464.725 5.51821 -0.140754 0
M  V30 4818 H 465.202 4.27383 1.01196 0
M  V30 4819 H 465.808 4.20168 -0.658687 0
M  V30 4820 N 464.123 0.554532 1.47522 0
M  V30 4821 C 465.033 -0.197865 2.33764 0
M  V30 4822 C 466.049 -0.914576 1.48025 0
M  V30 4823 O 467.225 -0.884067 1.80959 0
M  V30 4824 C 464.29 -1.21628 3.24665 0
M  V30 4825 C 463.351 -0.507283 4.26292 0
M  V30 4826 C 462.584 -1.47718 5.1285 0
M  V30 4827 O 462.807 -2.7118 5.01814 0
M  V30 4828 O 461.741 -1.00313 5.93482 0
M  V30 4829 H 465.567 0.50949 2.99396 0
M  V30 4830 H 463.152 0.315176 1.46038 0
M  V30 4831 H 465.034 -1.80421 3.80823 0
M  V30 4832 H 463.709 -1.9056 2.61665 0
M  V30 4833 H 462.616 0.121778 3.73902 0
M  V30 4834 H 463.949 0.140544 4.91999 0
M  V30 4835 N 465.601 -1.54893 0.290851 0
M  V30 4836 C 466.564 -2.21824 -0.576784 0
M  V30 4837 C 467.564 -1.20104 -1.06919 0
M  V30 4838 O 468.754 -1.44906 -0.966843 0
M  V30 4839 C 465.886 -2.89662 -1.79747 0
M  V30 4840 H 467.079 -2.99899 0.00784051 0
M  V30 4841 H 464.632 -1.56245 0.0415934 0
M  V30 4842 H 465.367 -2.15639 -2.42219 0
M  V30 4843 H 465.152 -3.64219 -1.45214 0
M  V30 4844 H 466.642 -3.4075 -2.4141 0
M  V30 4845 N 467.08 -0.0183926 -1.57589 0
M  V30 4846 C 468.043 0.951986 -2.08494 0
M  V30 4847 C 469.043 1.26092 -0.997874 0
M  V30 4848 O 470.233 1.20304 -1.25987 0
M  V30 4849 C 467.365 2.27165 -2.54182 0
M  V30 4850 H 468.558 0.511307 -2.95509 0
M  V30 4851 H 466.111 0.229444 -1.54607 0
M  V30 4852 H 466.846 2.75884 -1.70465 0
M  V30 4853 H 466.631 2.06057 -3.33591 0
M  V30 4854 H 468.121 2.9674 -2.93828 0
M  V30 4855 N 468.558 1.5553 0.254621 0
M  V30 4856 C 469.488 1.9268 1.31897 0
M  V30 4857 C 470.469 0.790797 1.506 0
M  V30 4858 O 471.654 1.05045 1.63337 0
M  V30 4859 C 468.784 2.21477 2.67517 0
M  V30 4860 C 467.738 3.37256 2.63519 0
M  V30 4861 C 467.064 3.51576 4.02862 0
M  V30 4862 C 468.364 4.73157 2.21179 0
M  V30 4863 H 470.058 2.81832 1.01051 0
M  V30 4864 H 467.604 1.35599 0.484662 0
M  V30 4865 H 469.557 2.46055 3.42104 0
M  V30 4866 H 468.281 1.29144 2.99982 0
M  V30 4867 H 466.94 3.12675 1.9139 0
M  V30 4868 H 466.588 2.56676 4.32581 0
M  V30 4869 H 466.288 4.2943 4.01078 0
M  V30 4870 H 467.812 3.78467 4.79161 0
M  V30 4871 H 469.226 4.97158 2.85494 0
M  V30 4872 H 467.623 5.54058 2.30521 0
M  V30 4873 H 468.693 4.70739 1.16332 0
M  V30 4874 N 470.036 -0.519951 1.48776 0
M  V30 4875 C 471.452 -0.849418 1.35119 0
M  V30 4876 C 471.652 -1.98077 0.36982 0
M  V30 4877 O 470.708 -2.51664 -0.205359 0
M  V30 4878 C 472.021 -1.20748 2.75391 0
M  V30 4879 C 473.569 -1.31679 2.83954 0
M  V30 4880 C 474.044 -1.70824 4.24951 0
M  V30 4881 N 475.535 -1.77908 4.27672 0
M  V30 4882 C 476.27 -2.09603 5.33717 0
M  V30 4883 N 475.766 -2.39652 6.5003 0
M  V30 4884 N 477.559 -2.10694 5.21119 0
M  V30 4885 H 469.71 0.226377 2.1119 0
M  V30 4886 H 471.973 0.0386519 0.947212 0
M  V30 4887 H 471.679 -0.449703 3.48813 0
M  V30 4888 H 471.553 -2.15534 3.09556 0
M  V30 4889 H 473.94 -2.06532 2.10781 0
M  V30 4890 H 474.021 -0.3499 2.53396 0
M  V30 4891 H 473.665 -0.965282 4.98643 0
M  V30 4892 H 473.595 -2.6858 4.52959 0
M  V30 4893 H 476.086 -1.56923 3.43779 0
M  V30 4894 H 476.399 -2.6297 7.26682 0
M  V30 4895 H 474.744 -2.37149 6.53288 0
M  V30 4896 H 477.935 -1.86682 4.29264 0
M  V30 4897 H 478.108 -2.35062 6.03863 0
M  V30 4898 N 471.514 -1.37532 -0.769588 0
M  V30 4899 C 472.444 -1.36172 -1.89682 0
M  V30 4900 C 473.425 -0.23001 -1.68538 0
M  V30 4901 O 474.61 -0.43069 -1.89364 0
M  V30 4902 C 471.74 -1.1701 -3.26995 0
M  V30 4903 C 470.694 -2.27216 -3.62708 0
M  V30 4904 C 470.02 -1.93174 -4.98586 0
M  V30 4905 C 471.32 -3.6941 -3.69234 0
M  V30 4906 H 473.014 -2.30499 -1.91078 0
M  V30 4907 H 470.56 -1.10953 -0.917902 0
M  V30 4908 H 472.513 -1.14688 -4.05493 0
M  V30 4909 H 471.237 -0.191395 -3.26039 0
M  V30 4910 H 469.896 -2.28697 -2.86519 0
M  V30 4911 H 469.544 -0.938281 -4.94171 0
M  V30 4912 H 469.244 -2.66973 -5.23449 0
M  V30 4913 H 470.768 -1.92443 -5.79481 0
M  V30 4914 H 472.182 -3.70047 -4.37879 0
M  V30 4915 H 470.579 -4.4228 -4.05597 0
M  V30 4916 H 471.649 -4.0288 -2.69844 0
M  V30 4917 N 472.992 0.995999 -1.22138 0
M  V30 4918 C 473.922 2.10387 -1.01289 0
M  V30 4919 C 474.903 1.69975 0.0651454 0
M  V30 4920 O 476.088 1.9396 -0.0964628 0
M  V30 4921 C 473.218 3.42312 -0.586517 0
M  V30 4922 C 472.172 3.96558 -1.61014 0
M  V30 4923 C 471.498 5.24494 -1.0397 0
M  V30 4924 C 472.798 4.27595 -2.99933 0
M  V30 4925 H 474.492 2.28086 -1.93951 0
M  V30 4926 H 472.038 1.09607 -0.933928 0
M  V30 4927 H 473.991 4.19223 -0.427793 0
M  V30 4928 H 472.715 3.24431 0.375761 0
M  V30 4929 H 471.374 3.21776 -1.75658 0
M  V30 4930 H 471.022 5.02953 -0.0688703 0
M  V30 4931 H 470.722 5.61755 -1.72352 0
M  V30 4932 H 472.246 6.04042 -0.892494 0
M  V30 4933 H 473.66 4.95315 -2.8868 0
M  V30 4934 H 472.057 4.76021 -3.6541 0
M  V30 4935 H 473.127 3.35498 -3.50099 0
M  V30 4936 N 474.47 1.03057 1.19235 0
M  V30 4937 C 475.695 0.74757 1.93458 0
M  V30 4938 C 476.12 -0.687648 1.7508 0
M  V30 4939 O 475.478 -1.47499 1.05422 0
M  V30 4940 C 475.526 1.10604 3.43219 0
M  V30 4941 O 474.63 0.225671 4.11782 0
M  V30 4942 H 473.971 0.276047 0.603899 0
M  V30 4943 H 476.501 1.3777 1.51263 0
M  V30 4944 H 476.511 1.06366 3.93891 0
M  V30 4945 H 475.186 2.15165 3.55917 0
M  V30 4946 H 473.763 0.326795 3.71465 0
M  V30 4947 N 475.948 -1.35272 0.808662 0
M  V30 4948 C 477.364 -1.51806 0.492653 0
M  V30 4949 C 477.564 -1.7574 -0.985778 0
M  V30 4950 O 476.62 -1.80003 -1.77074 0
M  V30 4951 C 477.933 -2.69202 1.33981 0
M  V30 4952 C 479.481 -2.8308 1.33547 0
M  V30 4953 C 479.956 -4.03502 2.16679 0
M  V30 4954 N 481.447 -4.10684 2.14227 0
M  V30 4955 C 482.182 -5.02984 2.75308 0
M  V30 4956 N 481.678 -6.00603 3.45323 0
M  V30 4957 N 483.471 -4.95746 2.64938 0
M  V30 4958 H 475.622 -1.17993 1.76611 0
M  V30 4959 H 477.885 -0.577476 0.751814 0
M  V30 4960 H 477.591 -2.581 2.38909 0
M  V30 4961 H 477.465 -3.63854 0.994491 0
M  V30 4962 H 479.852 -2.93631 0.294036 0
M  V30 4963 H 479.933 -1.89278 1.72068 0
M  V30 4964 H 479.577 -3.93711 3.20864 0
M  V30 4965 H 479.507 -4.96489 1.75517 0
M  V30 4966 H 481.998 -3.40802 1.63285 0
M  V30 4967 H 482.311 -6.67633 3.89212 0
M  V30 4968 H 480.656 -6.0077 3.49428 0
M  V30 4969 H 483.847 -4.18439 2.09825 0
M  V30 4970 H 484.02 -5.67487 3.12829 0
M  V30 4971 N 477.426 -0.562348 -1.47226 0
M  V30 4972 C 478.374 0.195476 -2.31777 0
M  V30 4973 C 479.368 0.90433 -1.43242 0
M  V30 4974 O 480.574 0.825031 -1.59979 0
M  V30 4975 H 476.949 0.0819095 -0.747526 0
M  V30 4976 H 478.92 -0.536753 -2.93533 0
M  V30 4977 C 477.669 1.20902 -3.26003 0
M  V30 4978 H 476.992 0.672997 -3.94095 0
M  V30 4979 H 478.432 1.71006 -3.87986 0
M  V30 4980 C 476.891 2.25955 -2.49891 0
M  V30 4981 O 477.421 3.32969 -2.2471 0
M  V30 4982 N 475.627 2.00019 -2.1081 0
M  V30 4983 H 475.174 1.13006 -2.31489 0
M  V30 4984 H 475.132 2.70523 -1.60201 0
M  V30 4985 N 478.904 1.54736 -0.299062 0
M  V30 4986 C 480.315 1.8569 0.193971 0
M  V30 4987 C 480.666 1.22101 1.53577 0
M  V30 4988 O 479.791 0.51799 2.10109 0
M  V30 4989 C 480.386 3.36895 0.358733 0
M  V30 4990 C 478.945 3.67887 0.795986 0
M  V30 4991 C 478.092 2.77131 -0.096807 0
M  V30 4992 H 481.043 1.49934 -0.520134 0
M  V30 4993 H 481.064 3.61294 1.19361 0
M  V30 4994 H 480.576 3.83148 -0.617998 0
M  V30 4995 H 478.677 3.27151 1.78334 0
M  V30 4996 H 478.79 4.75114 0.616718 0
M  V30 4997 H 477.154 2.51153 0.423581 0
M  V30 4998 H 477.937 3.26204 -1.06986 0
M  V30 4999 N 480.382 0.0267497 1.57577 0
M  V30 5000 C 481.798 -0.32962 1.56159 0
M  V30 5001 C 481.998 -1.73059 1.03213 0
M  V30 5002 O 481.054 -2.43233 0.677804 0
M  V30 5003 C 482.367 -0.18039 3.00158 0
M  V30 5004 C 483.915 -0.253334 3.11973 0
M  V30 5005 C 484.39 -0.132921 4.57807 0
M  V30 5006 N 485.881 -0.189979 4.6281 0
M  V30 5007 C 486.616 -0.120554 5.73273 0
M  V30 5008 N 486.112 -0.000180315 6.928 0
M  V30 5009 N 487.905 -0.174369 5.61829 0
M  V30 5010 H 480.056 0.942896 1.90324 0
M  V30 5011 H 482.319 0.3639 0.875375 0
M  V30 5012 H 482.025 0.784576 3.42837 0
M  V30 5013 H 481.899 -0.951565 3.65 0
M  V30 5014 H 484.286 -1.20876 2.69208 0
M  V30 5015 H 484.367 0.548177 2.49857 0
M  V30 5016 H 484.011 0.819073 5.01252 0
M  V30 5017 H 483.941 -0.953264 5.179 0
M  V30 5018 H 486.432 -0.283257 3.76837 0
M  V30 5019 H 486.745 0.0461666 7.72786 0
M  V30 5020 H 485.09 0.034569 6.94991 0
M  V30 5021 H 488.281 -0.266794 4.67339 0
M  V30 5022 H 488.454 -0.116802 6.47895 0
M  V30 5023 N 481.861 -1.55662 -0.24637 0
M  V30 5024 C 483.109 -1.77168 -0.972411 0
M  V30 5025 C 483.43 -0.590827 -1.85834 0
M  V30 5026 O 482.7 0.393365 -1.9191 0
M  V30 5027 H 481.28 -0.653405 -0.362038 0
M  V30 5028 H 483.942 -1.93101 -0.264189 0
M  V30 5029 H 483.038 -2.68335 -1.59382 0
M  V30 5030 N 483.339 0.512053 -1.4905 0
M  V30 5031 C 484.586 1.26686 -1.57978 0
M  V30 5032 C 484.914 1.92733 -0.261553 0
M  V30 5033 O 484.169 1.80772 0.749667 0
M  V30 5034 C 484.468 2.36446 -2.68008 0
M  V30 5035 C 484.134 1.87932 -4.09869 0
M  V30 5036 C 482.796 1.74419 -4.48477 0
M  V30 5037 C 485.148 1.5149 -4.98698 0
M  V30 5038 C 482.476 1.22827 -5.73699 0
M  V30 5039 C 484.828 1.01355 -6.24428 0
M  V30 5040 C 483.492 0.864735 -6.61875 0
M  V30 5041 H 482.762 0.463577 -0.578081 0
M  V30 5042 H 485.409 0.569421 -1.82838 0
M  V30 5043 H 483.714 3.11933 -2.37076 0
M  V30 5044 H 485.411 2.9453 -2.72127 0
M  V30 5045 H 482.001 1.99405 -3.79389 0
M  V30 5046 H 486.185 1.60782 -4.69535 0
M  V30 5047 H 481.441 1.10008 -6.01422 0
M  V30 5048 H 485.615 0.722351 -6.92644 0
M  V30 5049 H 483.242 0.462777 -7.5879 0
M  V30 5050 N 484.817 1.37938 0.762283 0
M  V30 5051 C 486.064 1.33668 1.52115 0
M  V30 5052 C 486.392 -0.0759538 1.94352 0
M  V30 5053 O 485.647 -1.05121 1.6507 0
M  V30 5054 C 485.946 2.23042 2.79261 0
M  V30 5055 C 485.612 3.71159 2.56031 0
M  V30 5056 C 484.274 4.11523 2.49404 0
M  V30 5057 C 486.626 4.64955 2.35513 0
M  V30 5058 C 483.954 5.43784 2.20263 0
M  V30 5059 C 486.306 5.97464 2.07894 0
M  V30 5060 C 484.97 6.36922 1.99718 0
M  V30 5061 H 484.24 0.489127 0.556629 0
M  V30 5062 H 486.887 1.70224 0.877262 0
M  V30 5063 H 485.192 1.79512 3.48256 0
M  V30 5064 H 486.889 2.17047 3.37182 0
M  V30 5065 H 483.479 3.39153 2.62056 0
M  V30 5066 H 487.663 4.34623 2.39617 0
M  V30 5067 H 482.919 5.73307 2.12435 0
M  V30 5068 H 487.093 6.6969 1.91019 0
M  V30 5069 H 484.72 7.39331 1.76902 0
M  V30 5070 N 486.295 -0.989507 1.22664 0
M  V30 5071 C 487.225 -2.09847 1.02404 0
M  V30 5072 C 488.206 -1.70007 -0.0561303 0
M  V30 5073 O 489.391 -1.93906 0.106748 0
M  V30 5074 C 486.521 -3.41996 0.604663 0
M  V30 5075 C 485.475 -3.95699 1.63115 0
M  V30 5076 C 484.801 -5.23936 1.0675 0
M  V30 5077 C 486.101 -4.25999 3.02196 0
M  V30 5078 H 487.795 -2.27054 1.95158 0
M  V30 5079 H 485.341 -1.09111 0.939727 0
M  V30 5080 H 487.294 -4.1899 0.45002 0
M  V30 5081 H 486.018 -3.24626 -0.35855 0
M  V30 5082 H 484.677 -3.2084 1.77362 0
M  V30 5083 H 484.325 -5.02909 0.0955422 0
M  V30 5084 H 484.025 -5.60833 1.75328 0
M  V30 5085 H 485.549 -6.0356 0.924516 0
M  V30 5086 H 486.963 -4.93777 2.91303 0
M  V30 5087 H 485.36 -4.74076 3.67929 0
M  V30 5088 H 486.43 -3.33636 3.51873 0
M  V30 5089 N 487.773 -1.03688 -1.18687 0
M  V30 5090 C 489.02 -0.73803 -1.88572 0
M  V30 5091 C 489.348 0.733973 -1.8012 0
M  V30 5092 O 488.603 1.55098 -1.19344 0
M  V30 5093 C 488.902 -1.14477 -3.3857 0
M  V30 5094 C 488.568 -2.61641 -3.67226 0
M  V30 5095 C 487.23 -3.01846 -3.74757 0
M  V30 5096 C 489.582 -3.56812 -3.79914 0
M  V30 5097 C 486.91 -4.36118 -3.92451 0
M  V30 5098 C 489.262 -4.90799 -3.99123 0
M  V30 5099 C 487.926 -5.3068 -4.04888 0
M  V30 5100 H 487.196 -0.270064 -0.690034 0
M  V30 5101 H 489.843 -1.3012 -1.40503 0
M  V30 5102 H 488.148 -0.500337 -3.88592 0
M  V30 5103 H 489.845 -0.89095 -3.90977 0
M  V30 5104 H 486.435 -2.29498 -3.61979 0
M  V30 5105 H 490.619 -3.26899 -3.73431 0
M  V30 5106 H 485.875 -4.66542 -3.95157 0
M  V30 5107 H 490.049 -5.64451 -4.07882 0
M  V30 5108 H 487.676 -6.34733 -4.18351 0
M  V30 5109 N 489.251 1.34841 -0.815825 0
M  V30 5110 C 490.497 1.98793 -0.401129 0
M  V30 5111 C 490.83 1.64548 1.03139 0
M  V30 5112 O 490.105 0.913487 1.71714 0
M  V30 5113 C 490.388 3.55143 -0.595409 0
M  V30 5114 C 490.241 3.99155 -2.07352 0
M  V30 5115 C 491.56 4.40092 -0.0268823 0
M  V30 5116 H 488.679 0.722146 -0.14722 0
M  V30 5117 H 491.321 1.59847 -1.02707 0
M  V30 5118 H 489.471 3.8845 -0.0625779 0
M  V30 5119 H 491.143 3.76216 -2.66945 0
M  V30 5120 H 489.386 3.49726 -2.56659 0
M  V30 5121 H 490.057 5.07971 -2.1603 0
M  V30 5122 H 492.533 4.13298 -0.482042 0
M  V30 5123 H 491.409 5.48562 -0.19267 0
M  V30 5124 H 491.67 4.29016 1.06759 0
M  V30 5125 N 490.729 0.570148 1.46925 0
M  V30 5126 C 491.639 -0.173061 2.33961 0
M  V30 5127 C 492.655 -0.898825 1.48987 0
M  V30 5128 O 493.831 -0.864825 1.81887 0
M  V30 5129 C 490.896 -1.18177 3.25937 0
M  V30 5130 C 489.957 -0.462041 4.26806 0
M  V30 5131 C 489.19 -1.4227 5.14388 0
M  V30 5132 O 489.413 -2.65842 5.04662 0
M  V30 5133 O 488.347 -0.940127 5.94513 0
M  V30 5134 H 492.173 0.541216 2.98839 0
M  V30 5135 H 489.758 0.330647 1.45695 0
M  V30 5136 H 491.64 -1.76372 3.82715 0
M  V30 5137 H 490.315 -1.87774 2.63671 0
M  V30 5138 H 489.222 0.161429 3.73752 0
M  V30 5139 H 490.555 0.192719 4.91823 0
M  V30 5140 N 492.207 -1.54576 0.307264 0
M  V30 5141 C 493.455 -1.99867 -0.299574 0
M  V30 5142 C 493.776 -1.19714 -1.53927 0
M  V30 5143 O 493.046 -0.29472 -1.9367 0
M  V30 5144 H 491.626 -0.738299 -0.113683 0
M  V30 5145 H 494.288 -1.9032 0.420042 0
M  V30 5146 H 493.384 -3.06901 -0.567283 0
M  V30 5147 N 493.685 -0.035106 -1.57561 0
M  V30 5148 C 494.933 0.64096 -1.91667 0
M  V30 5149 C 495.254 1.72323 -0.912681 0
M  V30 5150 O 494.524 1.95849 0.0449089 0
M  V30 5151 H 493.104 0.239743 -0.707483 0
M  V30 5152 H 495.766 -0.084321 -1.94718 0
M  V30 5153 H 494.862 1.08987 -2.92452 0
M  V30 5154 N 495.163 1.55791 0.238111 0
M  V30 5155 C 496.579 1.48411 0.587045 0
M  V30 5156 C 496.779 0.72702 1.87927 0
M  V30 5157 O 495.835 0.259942 2.51158 0
M  V30 5158 C 497.148 2.92873 0.681623 0
M  V30 5159 C 498.696 3.03295 0.773363 0
M  V30 5160 C 499.171 4.49082 0.899428 0
M  V30 5161 N 500.662 4.53056 0.964075 0
M  V30 5162 C 501.397 5.63117 1.08104 0
M  V30 5163 N 500.893 6.82969 1.16299 0
M  V30 5164 N 502.686 5.50933 1.11488 0
M  V30 5165 H 494.837 2.0345 -0.610076 0
M  V30 5166 H 497.1 0.924034 -0.211813 0
M  V30 5167 H 496.806 3.51142 -0.19802 0
M  V30 5168 H 496.68 3.43851 1.55069 0
M  V30 5169 H 499.067 2.45101 1.64346 0
M  V30 5170 H 499.148 2.55513 -0.121034 0
M  V30 5171 H 498.792 5.07889 0.0338586 0
M  V30 5172 H 498.722 4.94553 1.809 0
M  V30 5173 H 501.213 3.66737 0.91173 0
M  V30 5174 H 501.526 7.62598 1.25155 0
M  V30 5175 H 499.871 6.85712 1.13241 0
M  V30 5176 H 503.062 4.56231 1.0474 0
M  V30 5177 H 503.235 6.36743 1.20259 0
M  V30 5178 N 496.642 -0.504142 1.49319 0
M  V30 5179 C 497.891 -1.25507 1.57895 0
M  V30 5180 C 498.204 -1.93735 0.269433 0
M  V30 5181 O 499.41 -2.70492 0.233706 0
M  V30 5182 C 497.866 -2.27869 2.78574 0
M  V30 5183 C 497.474 -1.65594 4.16272 0
M  V30 5184 C 499.218 -3.0381 2.96479 0
M  V30 5185 C 497.125 -2.66048 5.28178 0
M  V30 5186 H 496.055 -0.47212 0.587894 0
M  V30 5187 H 498.706 -0.52931 1.757 0
M  V30 5188 H 497.088 -3.03594 2.54257 0
M  V30 5189 H 498.262 -0.958826 4.50714 0
M  V30 5190 H 496.577 -1.02055 4.037 0
M  V30 5191 H 499.174 -3.78925 3.77253 0
M  V30 5192 H 499.517 -3.61235 2.06918 0
M  V30 5193 H 500.05 -2.352 3.20821 0
M  V30 5194 H 496.789 -2.13408 6.19788 0
M  V30 5195 H 496.309 -3.34009 4.98195 0
M  V30 5196 H 497.988 -3.28536 5.57381 0
M  V30 5197 N 498.12 -1.38341 -0.754957 0
M  V30 5198 C 499.397 -1.24995 -1.50451 0
M  V30 5199 C 499.777 0.149244 -2.10572 0
M  V30 5200 O 499.125 1.15861 -1.96948 0
M  V30 5201 C 499.335 -2.35904 -2.57197 0
M  V30 5202 C 500.683 -2.74262 -3.24138 0
M  V30 5203 O 501.707 -2.35205 -2.67501 0
M  V30 5204 O 500.566 -3.4161 -4.26574 0
M  V30 5205 H 497.66 -0.48872 -0.667144 0
M  V30 5206 H 500.206 -1.50165 -0.790486 0
M  V30 5207 H 498.978 -3.2953 -2.11011 0
M  V30 5208 H 498.601 -2.12291 -3.36182 0
M  V30 5209 N 499.598 0.982988 -1.23187 0
M  V30 5210 C 500.548 2.05962 -0.977942 0
M  V30 5211 C 501.532 1.60725 0.0751148 0
M  V30 5212 O 502.724 1.76471 -0.136683 0
M  V30 5213 C 499.853 3.38564 -0.568276 0
M  V30 5214 C 498.939 3.90407 -1.6566 0
M  V30 5215 N 499.33 4.15359 -2.88635 0
M  V30 5216 C 497.628 4.18915 -1.53058 0
M  V30 5217 C 498.329 4.57642 -3.5908 0
M  V30 5218 N 497.305 4.6192 -2.86584 0
M  V30 5219 H 501.107 2.23208 -1.91195 0
M  V30 5220 H 498.621 1.16555 -1.13087 0
M  V30 5221 H 500.618 4.15276 -0.36764 0
M  V30 5222 H 499.278 3.22712 0.358713 0
M  V30 5223 H 500.289 4.03258 -3.24966 0
M  V30 5224 H 496.966 4.12081 -0.670506 0
M  V30 5225 H 498.356 4.85488 -4.6449 0
M  V30 5226 N 501.076 1.04316 1.18135 0
M  V30 5227 C 502.324 0.746542 1.87806 0
M  V30 5228 C 502.645 -0.728082 1.80898 0
M  V30 5229 O 501.915 -1.52554 1.22899 0
M  V30 5230 H 500.495 0.273157 0.695265 0
M  V30 5231 H 503.157 1.32044 1.43354 0
M  V30 5232 H 502.253 1.05362 2.93778 0
M  V30 5233 N 502.554 -1.34406 0.822964 0
M  V30 5234 C 503.504 -2.26963 0.217208 0
M  V30 5235 C 504.488 -1.48536 -0.618545 0
M  V30 5236 O 505.68 -1.7056 -0.473118 0
M  V30 5237 C 502.809 -3.37655 -0.619973 0
M  V30 5238 C 501.895 -4.23495 0.226411 0
M  V30 5239 N 502.286 -4.88876 1.29744 0
M  V30 5240 C 500.584 -4.45999 0.0107554 0
M  V30 5241 C 501.285 -5.52642 1.81553 0
M  V30 5242 N 500.261 -5.31949 1.11942 0
M  V30 5243 H 504.063 -2.75017 1.03647 0
M  V30 5244 H 501.577 -1.48126 0.665777 0
M  V30 5245 H 503.574 -4.02932 -1.07011 0
M  V30 5246 H 502.234 -2.91151 -1.43739 0
M  V30 5247 H 503.245 -4.89886 1.68024 0
M  V30 5248 H 499.922 -4.10253 -0.774495 0
M  V30 5249 H 501.312 -6.14755 2.71156 0
M  V30 5250 N 504.032 -0.577932 -1.46621 0
M  V30 5251 C 504.982 0.178869 -2.27297 0
M  V30 5252 C 505.966 0.866279 -1.35589 0
M  V30 5253 O 507.158 0.761163 -1.59798 0
M  V30 5254 C 504.287 1.19499 -3.2183 0
M  V30 5255 C 503.373 0.50994 -4.21023 0
M  V30 5256 N 503.764 -0.43177 -5.03954 0
M  V30 5257 C 502.062 0.761287 -4.39455 0
M  V30 5258 C 502.763 -0.831693 -5.75724 0
M  V30 5259 N 501.739 -0.181897 -5.43296 0
M  V30 5260 H 505.541 -0.544859 -2.88805 0
M  V30 5261 H 503.055 -0.399373 -1.57413 0
M  V30 5262 H 505.052 1.75131 -3.78332 0
M  V30 5263 H 503.712 1.91959 -2.61881 0
M  V30 5264 H 504.723 -0.807045 -5.11573 0
M  V30 5265 H 501.4 1.47282 -3.90659 0
M  V30 5266 H 502.79 -1.6067 -6.52407 0
M  V30 5267 N 505.51 1.54411 -0.315457 0
M  V30 5268 C 506.42 2.27737 0.56329 0
M  V30 5269 C 507.436 1.31787 1.13614 0
M  V30 5270 O 508.612 1.64791 1.15784 0
M  V30 5271 C 505.677 3.01478 1.71207 0
M  V30 5272 C 504.738 4.12997 1.17185 0
M  V30 5273 C 503.971 4.83212 2.26588 0
M  V30 5274 O 504.194 4.52884 3.46775 0
M  V30 5275 O 503.128 5.70299 1.92463 0
M  V30 5276 H 506.954 3.03683 -0.0319614 0
M  V30 5277 H 504.539 1.49178 -0.0814188 0
M  V30 5278 H 506.421 3.47683 2.38106 0
M  V30 5279 H 505.096 2.28414 2.29366 0
M  V30 5280 H 504.003 3.71159 0.468174 0
M  V30 5281 H 505.336 4.8808 0.635501 0
M  V30 5282 N 506.988 0.0434614 1.5754 0
M  V30 5283 C 508.213 -0.645358 1.97104 0
M  V30 5284 C 508.638 -1.64037 0.920521 0
M  V30 5285 O 507.996 -1.80922 -0.11708 0
M  V30 5286 C 508.044 -1.31547 3.35749 0
M  V30 5287 O 507.148 -2.43103 3.33129 0
M  V30 5288 H 506.489 -0.168403 0.64229 0
M  V30 5289 H 509.019 0.109573 2.04306 0
M  V30 5290 H 509.029 -1.66895 3.72304 0
M  V30 5291 H 507.704 -0.586205 4.11748 0
M  V30 5292 H 506.281 -2.0976 3.0831 0
M  V30 5293 N 508.466 -1.55915 -0.229846 0
M  V30 5294 C 509.882 -1.48721 -0.579166 0
M  V30 5295 C 510.082 -0.736976 -1.87539 0
M  V30 5296 O 509.138 -0.273258 -2.51017 0
M  V30 5297 C 510.451 -2.9323 -0.666082 0
M  V30 5298 C 511.999 -3.03701 -0.757267 0
M  V30 5299 C 512.474 -4.49552 -0.8756 0
M  V30 5300 N 513.965 -4.53561 -0.940035 0
M  V30 5301 C 514.7 -5.63683 -1.05116 0
M  V30 5302 N 514.196 -6.83576 -1.12675 0
M  V30 5303 N 515.989 -5.51516 -1.08565 0
M  V30 5304 H 508.14 -2.03123 0.620857 0
M  V30 5305 H 510.403 -0.922898 0.21671 0
M  V30 5306 H 510.109 -3.51032 0.21664 0
M  V30 5307 H 509.983 -3.44668 -1.53243 0
M  V30 5308 H 512.37 -2.45969 -1.63043 0
M  V30 5309 H 512.451 -2.55446 0.134583 0
M  V30 5310 H 512.095 -5.079 -0.00692351 0
M  V30 5311 H 512.025 -4.95506 -1.78274 0
M  V30 5312 H 514.516 -3.67215 -0.892269 0
M  V30 5313 H 514.829 -7.63251 -1.21109 0
M  V30 5314 H 513.174 -6.86303 -1.09603 0
M  V30 5315 H 516.365 -4.5678 -1.02319 0
M  V30 5316 H 516.538 -6.37372 -1.1688 0
M  V30 5317 N 509.944 0.496216 -1.49584 0
M  V30 5318 C 510.907 1.57952 -1.66084 0
M  V30 5319 C 511.907 1.51729 -0.53244 0
M  V30 5320 O 513.097 1.54796 -0.79899 0
M  V30 5321 C 510.229 2.97604 -1.66268 0
M  V30 5322 H 511.422 1.44649 -2.6271 0
M  V30 5323 H 508.975 0.7208 -1.38687 0
M  V30 5324 H 509.71 3.16378 -0.712432 0
M  V30 5325 H 509.495 3.03528 -2.4822 0
M  V30 5326 H 510.985 3.76301 -1.81073 0
M  V30 5327 N 511.423 1.38739 0.74761 0
M  V30 5328 C 512.653 1.3832 1.53464 0
M  V30 5329 C 513.061 -0.0273464 1.8918 0
M  V30 5330 O 512.404 -1.00588 1.53713 0
M  V30 5331 C 512.466 2.18007 2.85855 0
M  V30 5332 C 512.13 3.66762 2.72644 0
M  V30 5333 C 513.127 4.60124 2.42037 0
M  V30 5334 C 510.812 4.10193 2.89909 0
M  V30 5335 C 512.806 5.94897 2.28859 0
M  V30 5336 C 510.493 5.45045 2.7635 0
M  V30 5337 C 511.491 6.37211 2.45869 0
M  V30 5338 O 511.179 7.69581 2.3238 0
M  V30 5339 H 510.911 0.474718 0.481268 0
M  V30 5340 H 513.465 1.83012 0.932518 0
M  V30 5341 H 511.695 1.68043 3.48279 0
M  V30 5342 H 513.384 2.09921 3.47402 0
M  V30 5343 H 514.15 4.27874 2.28361 0
M  V30 5344 H 510.029 3.38797 3.1263 0
M  V30 5345 H 513.573 6.66802 2.04989 0
M  V30 5346 H 509.47 5.76889 2.89601 0
M  V30 5347 H 510.238 7.80169 2.47546 0
M  V30 5348 N 512.901 -0.976442 1.23707 0
M  V30 5349 C 514.317 -1.24341 1.00058 0
M  V30 5350 C 514.517 -1.99315 -0.295932 0
M  V30 5351 O 513.573 -2.3123 -1.01435 0
M  V30 5352 C 514.886 -2.03909 2.21001 0
M  V30 5353 C 516.434 -2.17034 2.25534 0
M  V30 5354 C 516.909 -2.99994 3.46075 0
M  V30 5355 N 518.4 -3.07578 3.46338 0
M  V30 5356 C 519.135 -3.72104 4.36264 0
M  V30 5357 N 518.631 -4.3842 5.36432 0
M  V30 5358 N 520.424 -3.69029 4.23998 0
M  V30 5359 H 512.575 -0.47428 2.07037 0
M  V30 5360 H 514.838 -0.272167 0.908091 0
M  V30 5361 H 514.544 -1.56198 3.15111 0
M  V30 5362 H 514.418 -3.04654 2.22409 0
M  V30 5363 H 516.805 -2.63951 1.31961 0
M  V30 5364 H 516.886 -1.15664 2.28156 0
M  V30 5365 H 516.53 -2.53772 4.39957 0
M  V30 5366 H 516.46 -4.01541 3.40694 0
M  V30 5367 H 518.951 -2.60397 2.73865 0
M  V30 5368 H 519.264 -4.85447 6.013 0
M  V30 5369 H 517.609 -4.37116 5.40328 0
M  V30 5370 H 520.8 -3.16392 3.44984 0
M  V30 5371 H 520.973 -4.19034 4.94282 0
M  V30 5372 N 514.379 -1.04941 -1.1758 0
M  V30 5373 C 515.342 -0.652456 -2.19717 0
M  V30 5374 C 516.342 0.294745 -1.58076 0
M  V30 5375 O 517.532 0.0789579 -1.74021 0
M  V30 5376 C 514.664 0.0420712 -3.40874 0
M  V30 5377 H 515.857 -1.55642 -2.5635 0
M  V30 5378 H 513.41 -0.842995 -1.31618 0
M  V30 5379 H 514.145 0.95943 -3.09783 0
M  V30 5380 H 513.93 -0.638844 -3.86861 0
M  V30 5381 H 515.42 0.306 -4.16477 0
M  V30 5382 N 515.857 1.33968 -0.830081 0
M  V30 5383 C 516.787 2.31911 -0.271911 0
M  V30 5384 C 517.768 1.58571 0.61556 0
M  V30 5385 O 518.953 1.86514 0.540946 0
M  V30 5386 C 516.083 3.42737 0.561146 0
M  V30 5387 C 515.037 4.27383 -0.229789 0
M  V30 5388 C 514.363 5.29742 0.726463 0
M  V30 5389 C 515.663 5.02 -1.44197 0
M  V30 5390 H 517.357 2.78844 -1.09025 0
M  V30 5391 H 514.903 1.34061 -0.52571 0
M  V30 5392 H 516.856 4.10276 0.961867 0
M  V30 5393 H 515.58 2.94471 1.41261 0
M  V30 5394 H 514.239 3.61456 -0.611964 0
M  V30 5395 H 513.887 4.77736 1.57408 0
M  V30 5396 H 513.587 5.87255 0.20142 0
M  V30 5397 H 515.111 6.00149 1.12489 0
M  V30 5398 H 516.525 5.62355 -1.11488 0
M  V30 5399 H 514.922 5.69122 -1.90317 0
M  V30 5400 H 515.992 4.31281 -2.2164 0
M  V30 5401 N 517.335 0.585699 1.46312 0
M  V30 5402 C 518.563 0.0781299 2.06752 0
M  V30 5403 C 518.978 -1.22812 1.43396 0
M  V30 5404 O 518.335 -1.74318 0.540314 0
M  V30 5405 C 518.386 -0.0911927 3.61385 0
M  V30 5406 O 518.107 1.16336 4.22371 0
M  V30 5407 C 519.608 -0.632765 4.38761 0
M  V30 5408 H 516.828 0.0588188 0.668417 0
M  V30 5409 H 519.372 0.807218 1.87894 0
M  V30 5410 H 517.527 -0.770514 3.7966 0
M  V30 5411 H 517.941 0.979082 5.15281 0
M  V30 5412 H 519.415 -0.70041 5.47538 0
M  V30 5413 H 519.892 -1.65039 4.07012 0
M  V30 5414 H 520.498 0.0117856 4.25298 0
M  V30 5415 N 518.813 -1.54241 0.323641 0
M  V30 5416 C 519.723 -2.28033 -0.551205 0
M  V30 5417 C 520.739 -1.32388 -1.12913 0
M  V30 5418 O 521.915 -1.65403 -1.14908 0
M  V30 5419 C 518.98 -3.02382 -1.69606 0
M  V30 5420 C 518.041 -4.13612 -1.14993 0
M  V30 5421 C 517.274 -4.84407 -2.24022 0
M  V30 5422 O 517.497 -4.54716 -3.44368 0
M  V30 5423 O 516.431 -5.71312 -1.89436 0
M  V30 5424 H 520.257 -3.03662 0.048066 0
M  V30 5425 H 517.842 -1.49133 0.0893289 0
M  V30 5426 H 519.724 -3.48941 -2.36259 0
M  V30 5427 H 518.399 -2.29628 -2.28151 0
M  V30 5428 H 517.306 -3.71402 -0.448484 0
M  V30 5429 H 518.639 -4.8841 -0.609608 0
M  V30 5430 N 520.291 -0.0518155 -1.57515 0
M  V30 5431 C 521.519 0.631395 -1.9703 0
M  V30 5432 C 521.934 1.64341 -0.92938 0
M  V30 5433 O 521.291 1.82296 0.0863266 0
M  V30 5434 C 521.342 1.31774 -3.36627 0
M  V30 5435 O 521.063 0.346247 -4.3673 0
M  V30 5436 C 522.564 2.09065 -3.90905 0
M  V30 5437 H 519.784 0.172576 -0.648428 0
M  V30 5438 H 522.328 -0.118306 -2.04158 0
M  V30 5439 H 520.483 2.01867 -3.30649 0
M  V30 5440 H 520.897 0.836226 -5.17791 0
M  V30 5441 H 522.371 2.52508 -4.9086 0
M  V30 5442 H 522.848 2.93908 -3.26366 0
M  V30 5443 H 523.454 1.43882 -4.00223 0
M  V30 5444 N 521.769 1.56035 0.221574 0
M  V30 5445 C 523.018 1.78245 0.944016 0
M  V30 5446 C 523.331 0.620371 1.85501 0
M  V30 5447 O 524.537 0.726103 2.6161 0
M  V30 5448 C 522.993 3.15659 1.7288 0
M  V30 5449 C 522.601 4.39591 0.863942 0
M  V30 5450 C 524.345 3.47195 2.44246 0
M  V30 5451 C 522.252 5.6803 1.64607 0
M  V30 5452 H 521.182 0.664547 0.356222 0
M  V30 5453 H 523.833 1.8243 0.197904 0
M  V30 5454 H 522.215 3.0565 2.51781 0
M  V30 5455 H 523.389 4.60655 0.115464 0
M  V30 5456 H 521.704 4.15572 0.262407 0
M  V30 5457 H 524.301 4.40381 3.03263 0
M  V30 5458 H 524.644 2.69693 3.1713 0
M  V30 5459 H 525.177 3.58533 1.72334 0
M  V30 5460 H 521.916 6.48425 0.960507 0
M  V30 5461 H 521.436 5.51027 2.36917 0
M  V30 5462 H 523.115 6.08203 2.20675 0
M  V30 5463 N 523.247 -0.488276 1.49845 0
M  V30 5464 C 524.18 -1.60651 1.62069 0
M  V30 5465 C 525.158 -1.5568 0.469308 0
M  V30 5466 O 526.342 -1.75553 0.686551 0
M  V30 5467 C 523.469 -2.99197 1.58741 0
M  V30 5468 C 522.515 -3.22385 2.79232 0
M  V30 5469 S 523.348 -3.04133 4.40753 0
M  V30 5470 C 524.504 -4.45052 4.4009 0
M  V30 5471 H 524.737 -1.50039 2.56662 0
M  V30 5472 H 522.27 -0.674371 1.38894 0
M  V30 5473 H 524.228 -3.79081 1.57506 0
M  V30 5474 H 522.889 -3.07213 0.654136 0
M  V30 5475 H 522.082 -4.23557 2.73159 0
M  V30 5476 H 521.684 -2.50245 2.77945 0
M  V30 5477 H 523.976 -5.37375 4.12594 0
M  V30 5478 H 524.919 -4.56172 5.41583 0
M  V30 5479 H 525.327 -4.26327 3.70008 0
M  V30 5480 N 524.725 -1.39134 -0.740242 0
M  V30 5481 C 525.972 -1.36071 -1.49969 0
M  V30 5482 C 526.3 0.0450245 -1.94448 0
M  V30 5483 O 525.555 1.02482 -1.66721 0
M  V30 5484 C 525.854 -2.27457 -2.75678 0
M  V30 5485 C 525.52 -3.75185 -2.50094 0
M  V30 5486 C 524.182 -4.15439 -2.42825 0
M  V30 5487 C 526.534 -4.68643 -2.28086 0
M  V30 5488 C 523.862 -5.4722 -2.11584 0
M  V30 5489 C 526.214 -6.00695 -1.98363 0
M  V30 5490 C 524.878 -6.40018 -1.8956 0
M  V30 5491 H 524.148 -0.497921 -0.548777 0
M  V30 5492 H 526.795 -1.71599 -0.85007 0
M  V30 5493 H 525.1 -1.8503 -3.45356 0
M  V30 5494 H 526.797 -2.22384 -3.33686 0
M  V30 5495 H 523.387 -3.43279 -2.56627 0
M  V30 5496 H 527.571 -4.3838 -2.32672 0
M  V30 5497 H 522.827 -5.76615 -2.03287 0
M  V30 5498 H 527.001 -6.72644 -1.80341 0
M  V30 5499 H 524.628 -7.42051 -1.65117 0
M  V30 5500 N 526.204 0.969867 -1.24223 0
M  V30 5501 C 527.481 1.68774 -0.988664 0
M  V30 5502 C 527.861 2.05342 0.489673 0
M  V30 5503 O 527.209 1.75486 1.46345 0
M  V30 5504 C 527.419 2.92135 -1.90941 0
M  V30 5505 C 528.767 3.64422 -2.17903 0
M  V30 5506 O 529.791 3.02188 -1.88576 0
M  V30 5507 O 528.65 4.76446 -2.67697 0
M  V30 5508 H 525.744 0.737736 -0.37373 0
M  V30 5509 H 528.29 1.02415 -1.35312 0
M  V30 5510 H 527.062 2.61788 -2.90831 0
M  V30 5511 H 526.685 3.66228 -1.54798 0
M  V30 5512 N 527.682 1.05563 1.17022 0
M  V30 5513 C 528.959 0.68165 1.83338 0
M  V30 5514 C 529.339 -0.837665 1.93769 0
M  V30 5515 O 528.687 -1.74507 1.47511 0
M  V30 5516 C 528.897 1.375 3.20772 0
M  V30 5517 C 530.245 1.51545 3.96635 0
M  V30 5518 O 531.269 1.33431 3.30264 0
M  V30 5519 O 530.128 1.812 5.15586 0
M  V30 5520 H 527.222 0.240412 0.791285 0
M  V30 5521 H 529.768 1.15545 1.24288 0
M  V30 5522 H 528.54 2.41135 3.08171 0
M  V30 5523 H 528.163 0.890798 3.87493 0
M  V30 5524 N 529.16 -1.33526 0.837174 0
M  V30 5525 C 530.123 -2.27551 0.274421 0
M  V30 5526 C 531.123 -1.50886 -0.555881 0
M  V30 5527 O 532.313 -1.70227 -0.369918 0
M  V30 5528 C 529.445 -3.35332 -0.613605 0
M  V30 5529 H 530.638 -2.78837 1.10408 0
M  V30 5530 H 528.191 -1.439 0.610126 0
M  V30 5531 H 528.926 -2.89285 -1.46577 0
M  V30 5532 H 528.711 -3.92095 -0.0195341 0
M  V30 5533 H 530.201 -4.05433 -1.00068 0
M  V30 5534 N 530.638 -0.59345 -1.46 0
M  V30 5535 C 531.887 -0.0808084 -2.01538 0
M  V30 5536 C 532.2 1.29112 -1.46934 0
M  V30 5537 O 533.406 1.8957 -1.94359 0
M  V30 5538 C 531.862 -0.0938311 -3.59778 0
M  V30 5539 C 531.47 -1.46474 -4.23379 0
M  V30 5540 C 533.214 0.364306 -4.22934 0
M  V30 5541 C 531.121 -1.4349 -5.73729 0
M  V30 5542 H 530.051 -0.0264407 -0.753536 0
M  V30 5543 H 532.702 -0.746689 -1.67621 0
M  V30 5544 H 531.084 0.638427 -3.9082 0
M  V30 5545 H 532.258 -2.21758 -4.03931 0
M  V30 5546 H 530.573 -1.86379 -3.7236 0
M  V30 5547 H 533.17 0.405584 -5.3316 0
M  V30 5548 H 533.513 1.38409 -3.92618 0
M  V30 5549 H 534.046 -0.31423 -3.96557 0
M  V30 5550 H 530.785 -2.43184 -6.08722 0
M  V30 5551 H 530.305 -0.724431 -5.95409 0
M  V30 5552 H 531.984 -1.15243 -6.36654 0
M  V30 5553 N 532.116 1.54067 -0.331816 0
M  V30 5554 C 533.026 2.28322 0.539104 0
M  V30 5555 C 534.042 1.32985 1.1221 0
M  V30 5556 O 535.218 1.6601 1.1403 0
M  V30 5557 C 532.283 3.03277 1.68 0
M  V30 5558 C 531.344 4.14216 1.12798 0
M  V30 5559 C 530.577 4.85588 2.2145 0
M  V30 5560 O 530.8 4.56536 3.41952 0
M  V30 5561 O 529.734 5.72309 1.86404 0
M  V30 5562 H 533.56 3.03632 -0.0641692 0
M  V30 5563 H 531.145 1.49083 -0.0972365 0
M  V30 5564 H 533.027 3.50189 2.34405 0
M  V30 5565 H 531.702 2.30834 2.2693 0
M  V30 5566 H 530.609 3.71635 0.428782 0
M  V30 5567 H 531.942 4.88727 0.583698 0
M  V30 5568 N 533.594 0.0601682 1.57485 0
M  V30 5569 C 535.01 -0.296422 1.56823 0
M  V30 5570 C 535.21 -1.70831 1.0686 0
M  V30 5571 O 534.266 -2.4174 0.729245 0
M  V30 5572 C 535.579 -0.116681 3.00474 0
M  V30 5573 C 537.127 -0.187103 3.1244 0
M  V30 5574 C 537.602 -0.035783 4.57986 0
M  V30 5575 N 539.093 -0.0917676 4.63109 0
M  V30 5576 C 539.828 0.00107251 5.734 0
M  V30 5577 N 539.324 0.146773 6.92645 0
M  V30 5578 N 541.117 -0.0551577 5.62073 0
M  V30 5579 H 533.268 0.983055 1.88281 0
M  V30 5580 H 535.531 0.382386 0.867459 0
M  V30 5581 H 535.237 0.85712 3.41096 0
M  V30 5582 H 535.111 -0.873929 3.66936 0
M  V30 5583 H 537.498 -1.15138 2.71712 0
M  V30 5584 H 537.579 0.601052 2.48638 0
M  V30 5585 H 537.223 0.925212 4.99402 0
M  V30 5586 H 537.153 -0.843196 5.19806 0
M  V30 5587 H 539.644 -0.203261 3.77353 0
M  V30 5588 H 539.957 0.210076 7.72514 0
M  V30 5589 H 538.302 0.181979 6.94762 0
M  V30 5590 H 541.493 -0.167605 4.678 0
M  V30 5591 H 541.666 0.020652 6.47997 0
M  V30 5592 N 535.072 -1.5615 -0.213296 0
M  V30 5593 C 536.035 -1.92249 -1.24792 0
M  V30 5594 C 537.035 -0.801828 -1.39382 0
M  V30 5595 O 538.225 -1.06948 -1.37506 0
M  V30 5596 C 535.357 -2.18056 -2.62039 0
M  V30 5597 H 536.55 -2.84793 -0.939845 0
M  V30 5598 H 534.103 -1.49559 -0.454062 0
M  V30 5599 H 534.838 -1.2809 -2.97932 0
M  V30 5600 H 534.623 -2.99703 -2.52825 0
M  V30 5601 H 536.113 -2.47051 -3.36683 0
M  V30 5602 N 536.55 0.480323 -1.50102 0
M  V30 5603 C 537.798 1.23063 -1.60312 0
M  V30 5604 C 538.119 1.92659 -0.301226 0
M  V30 5605 O 537.389 1.83691 0.680753 0
M  V30 5606 H 535.969 0.457231 -0.590719 0
M  V30 5607 H 538.631 0.554893 -1.86834 0
M  V30 5608 H 537.727 1.9835 -2.40964 0
M  V30 5609 N 538.028 1.39524 0.732853 0
M  V30 5610 C 538.96 1.34318 1.85718 0
M  V30 5611 C 539.973 0.251576 1.60844 0
M  V30 5612 O 541.162 0.510685 1.71039 0
M  V30 5613 C 538.262 1.06334 3.21786 0
M  V30 5614 C 537.435 2.26813 3.73998 0
M  V30 5615 C 536.494 1.95253 4.88634 0
M  V30 5616 O 535.52 2.67957 5.02183 0
M  V30 5617 N 536.722 0.919984 5.73164 0
M  V30 5618 H 539.487 2.3121 1.90688 0
M  V30 5619 H 537.048 1.33654 0.91368 0
M  V30 5620 H 539.04 0.832363 3.96048 0
M  V30 5621 H 537.61 0.181682 3.12072 0
M  V30 5622 H 536.83 2.65849 2.91064 0
M  V30 5623 H 538.118 3.0717 4.05616 0
M  V30 5624 H 537.516 0.317487 5.64808 0
M  V30 5625 H 536.073 0.748905 6.47483 0
M  V30 5626 N 539.506 -0.963266 1.24736 0
M  V30 5627 C 540.436 -2.07628 1.06832 0
M  V30 5628 C 541.417 -1.70088 -0.0200566 0
M  V30 5629 O 542.602 -1.93636 0.147854 0
M  V30 5630 C 539.732 -3.40636 0.677069 0
M  V30 5631 C 538.686 -3.9215 1.71471 0
M  V30 5632 C 538.012 -5.21553 1.1784 0
M  V30 5633 C 539.312 -4.19493 3.11164 0
M  V30 5634 H 541.006 -2.22864 1.9993 0
M  V30 5635 H 538.552 -1.07093 0.96266 0
M  V30 5636 H 540.505 -4.17941 0.538792 0
M  V30 5637 H 539.229 -3.25313 -0.289612 0
M  V30 5638 H 537.888 -3.17005 1.84128 0
M  V30 5639 H 537.536 -5.02593 0.202195 0
M  V30 5640 H 537.236 -5.56988 1.87185 0
M  V30 5641 H 538.76 -6.01463 1.05233 0
M  V30 5642 H 540.174 -4.87487 3.01711 0
M  V30 5643 H 538.571 -4.66165 3.77902 0
M  V30 5644 H 539.641 -3.26097 3.58871 0
M  V30 5645 N 540.985 -1.06182 -1.16461 0
M  V30 5646 C 542.213 -0.798583 -1.90867 0
M  V30 5647 C 542.628 0.646921 -1.77371 0
M  V30 5648 O 541.985 1.44279 -1.11758 0
M  V30 5649 C 542.036 -1.18258 -3.4161 0
M  V30 5650 O 541.757 -2.57135 -3.54701 0
M  V30 5651 C 543.258 -0.946917 -4.33069 0
M  V30 5652 H 540.478 -0.289603 -0.605286 0
M  V30 5653 H 543.022 -1.41515 -1.47627 0
M  V30 5654 H 541.177 -0.610562 -3.82558 0
M  V30 5655 H 541.591 -2.72477 -4.4817 0
M  V30 5656 H 543.065 -1.26523 -5.37304 0
M  V30 5657 H 543.542 0.117406 -4.39043 0
M  V30 5658 H 544.148 -1.50326 -3.97847 0
M  V30 5659 N 542.463 1.3308 -0.844243 0
M  V30 5660 C 543.688 2.02341 -0.455282 0
M  V30 5661 C 544.113 1.6308 0.93737 0
M  V30 5662 O 543.471 0.826118 1.61385 0
M  V30 5663 C 543.519 3.55743 -0.58988 0
M  V30 5664 O 542.623 4.1063 0.38166 0
M  V30 5665 H 541.964 0.637898 -0.184343 0
M  V30 5666 H 544.494 1.6986 -1.14056 0
M  V30 5667 H 544.504 4.05243 -0.473522 0
M  V30 5668 H 543.179 3.83662 -1.60549 0
M  V30 5669 H 541.756 3.72236 0.22241 0
M  V30 5670 N 543.941 0.601185 1.45683 0
M  V30 5671 C 544.851 -0.123395 2.34275 0
M  V30 5672 C 545.867 -0.86702 1.5086 0
M  V30 5673 O 547.043 -0.826049 1.8368 0
M  V30 5674 C 544.108 -1.11237 3.2837 0
M  V30 5675 C 543.169 -0.371405 4.2769 0
M  V30 5676 C 542.402 -1.31327 5.1729 0
M  V30 5677 O 542.625 -2.55078 5.10188 0
M  V30 5678 O 541.559 -0.813811 5.96373 0
M  V30 5679 H 545.385 0.604483 2.97623 0
M  V30 5680 H 542.97 0.361477 1.44961 0
M  V30 5681 H 544.852 -1.68214 3.8637 0
M  V30 5682 H 543.527 -1.82139 2.67595 0
M  V30 5683 H 542.434 0.24067 3.73325 0
M  V30 5684 H 543.767 0.296998 4.91303 0
M  V30 5685 N 545.419 -1.53889 0.339982 0
M  V30 5686 C 546.329 -2.28604 -0.526988 0
M  V30 5687 C 547.345 -1.33578 -1.11503 0
M  V30 5688 O 548.521 -1.66612 -1.13148 0
M  V30 5689 C 545.586 -3.04164 -1.66389 0
M  V30 5690 C 544.647 -4.14809 -1.10599 0
M  V30 5691 C 543.88 -4.86756 -2.18871 0
M  V30 5692 O 544.103 -4.58343 -3.39526 0
M  V30 5693 O 543.037 -5.73289 -1.83366 0
M  V30 5694 H 546.863 -3.03594 0.0802707 0
M  V30 5695 H 544.448 -1.4903 0.105141 0
M  V30 5696 H 546.33 -3.51427 -2.32544 0
M  V30 5697 H 545.005 -2.32035 -2.25703 0
M  V30 5698 H 543.912 -3.71857 -0.409067 0
M  V30 5699 H 545.245 -4.89029 -0.557771 0
M  V30 5700 N 546.897 -0.0685191 -1.57451 0
M  V30 5701 C 548.174 0.642167 -1.84758 0
M  V30 5702 C 548.554 1.87991 -0.960344 0
M  V30 5703 O 547.902 2.28485 -0.0257894 0
M  V30 5704 C 548.112 0.982946 -3.34872 0
M  V30 5705 C 549.46 1.35784 -4.02303 0
M  V30 5706 O 550.484 1.07477 -3.39598 0
M  V30 5707 O 549.343 1.88681 -5.12895 0
M  V30 5708 H 546.437 0.318625 -0.763156 0
M  V30 5709 H 548.983 -0.0992015 -1.6941 0
M  V30 5710 H 547.755 0.10372 -3.91163 0
M  V30 5711 H 547.378 1.78119 -3.55471 0
M  V30 5712 N 548.375 1.56261 0.205012 0
M  V30 5713 C 549.603 1.84141 0.943386 0
M  V30 5714 C 550.018 0.649772 1.77266 0
M  V30 5715 O 549.375 -0.381612 1.78466 0
M  V30 5716 C 549.426 3.10719 1.84759 0
M  V30 5717 O 549.147 4.25286 1.05181 0
M  V30 5718 C 550.648 3.51706 2.69848 0
M  V30 5719 H 547.868 0.611734 0.275721 0
M  V30 5720 H 550.412 2.03364 0.215253 0
M  V30 5721 H 548.567 2.93422 2.52947 0
M  V30 5722 H 548.981 4.97301 1.66709 0
M  V30 5723 H 550.455 4.43266 3.28967 0
M  V30 5724 H 550.932 2.7423 3.43067 0
M  V30 5725 H 551.538 3.71499 2.07047 0
M  V30 5726 N 549.853 -0.472356 1.50355 0
M  V30 5727 C 550.783 -1.57859 1.72055 0
M  V30 5728 C 551.764 -1.60283 0.569505 0
M  V30 5729 O 552.949 -1.7657 0.808503 0
M  V30 5730 C 550.079 -2.96191 1.81351 0
M  V30 5731 C 549.033 -3.08633 2.96529 0
M  V30 5732 C 548.359 -4.486 2.90968 0
M  V30 5733 C 549.659 -2.85969 4.37057 0
M  V30 5734 H 551.353 -1.39953 2.64676 0
M  V30 5735 H 548.899 -0.671846 1.27367 0
M  V30 5736 H 550.852 -3.73507 1.95117 0
M  V30 5737 H 549.576 -3.15251 0.853502 0
M  V30 5738 H 548.235 -2.33749 2.82413 0
M  V30 5739 H 547.883 -4.64577 1.92815 0
M  V30 5740 H 547.583 -4.57861 3.68289 0
M  V30 5741 H 549.107 -5.27938 3.0678 0
M  V30 5742 H 550.521 -3.53036 4.51706 0
M  V30 5743 H 548.918 -3.06677 5.15819 0
M  V30 5744 H 549.988 -1.81838 4.49514 0
M  V30 5745 N 551.331 -1.39911 -0.725443 0
M  V30 5746 C 552.556 -1.41137 -1.5197 0
M  V30 5747 C 552.981 -0.010262 -1.88097 0
M  V30 5748 O 552.339 0.979184 -1.52583 0
M  V30 5749 C 552.387 -2.2994 -2.77777 0
M  V30 5750 O 551.491 -1.73586 -3.74088 0
M  V30 5751 H 550.832 -0.480219 -0.458569 0
M  V30 5752 H 553.362 -1.84023 -0.894249 0
M  V30 5753 H 553.372 -2.44785 -3.26411 0
M  V30 5754 H 552.047 -3.31759 -2.50816 0
M  V30 5755 H 550.624 -1.68035 -3.32894 0
M  V30 5756 N 552.809 0.956637 -1.25245 0
M  V30 5757 C 553.739 2.07058 -1.07931 0
M  V30 5758 C 554.72 1.70096 0.0110361 0
M  V30 5759 O 555.905 1.93555 -0.158121 0
M  V30 5760 C 553.035 3.40272 -0.695124 0
M  V30 5761 C 551.989 3.91235 -1.73549 0
M  V30 5762 C 551.315 5.20921 -1.20604 0
M  V30 5763 C 552.615 4.17837 -3.13385 0
M  V30 5764 H 554.309 2.218 -2.01109 0
M  V30 5765 H 551.855 1.06581 -0.968326 0
M  V30 5766 H 553.808 4.1765 -0.560949 0
M  V30 5767 H 552.532 3.25462 0.272355 0
M  V30 5768 H 551.191 3.16025 -1.85807 0
M  V30 5769 H 550.839 5.02479 -0.228846 0
M  V30 5770 H 550.539 5.55987 -1.90136 0
M  V30 5771 H 552.063 6.00897 -1.08421 0
M  V30 5772 H 553.477 4.8588 -3.04292 0
M  V30 5773 H 551.874 4.64154 -3.80369 0
M  V30 5774 H 552.944 3.2419 -3.60595 0
M  V30 5775 N 554.287 1.06798 1.15896 0
M  V30 5776 C 555.533 0.788934 1.86825 0
M  V30 5777 C 555.866 -0.683084 1.8179 0
M  V30 5778 O 555.141 -1.50086 1.23711 0
M  V30 5779 C 555.424 1.29065 3.36176 0
M  V30 5780 C 555.277 2.8268 3.49874 0
M  V30 5781 C 556.596 0.902655 4.30744 0
M  V30 5782 H 553.715 0.288066 0.678371 0
M  V30 5783 H 556.357 1.32479 1.36195 0
M  V30 5784 H 554.507 0.834806 3.79425 0
M  V30 5785 H 556.179 3.36511 3.15528 0
M  V30 5786 H 554.422 3.21157 2.91617 0
M  V30 5787 H 555.093 3.12852 4.54783 0
M  V30 5788 H 557.569 1.29535 3.95424 0
M  V30 5789 H 556.445 1.28111 5.3374 0
M  V30 5790 H 556.706 -0.191951 4.41683 0
M  V30 5791 N 555.766 -1.3263 0.851289 0
M  V30 5792 C 556.994 -2.01563 0.466899 0
M  V30 5793 C 557.409 -1.63996 -0.935447 0
M  V30 5794 O 556.766 -0.85957 -1.6099 0
M  V30 5795 C 556.817 -3.56613 0.592433 0
M  V30 5796 O 556.538 -3.92828 1.93954 0
M  V30 5797 C 558.039 -4.42818 0.206612 0
M  V30 5798 H 555.259 -0.645307 0.183902 0
M  V30 5799 H 557.803 -1.69285 1.1473 0
M  V30 5800 H 555.958 -3.87379 -0.0401936 0
M  V30 5801 H 556.372 -4.87545 1.9339 0
M  V30 5802 H 557.846 -5.50918 0.345462 0
M  V30 5803 H 558.323 -4.30844 -0.85264 0
M  V30 5804 H 558.929 -4.17434 0.814176 0
M  V30 5805 N 557.244 -0.608902 -1.45362 0
M  V30 5806 C 558.207 0.0992563 -2.28985 0
M  V30 5807 C 559.207 0.793841 -1.39838 0
M  V30 5808 O 560.397 0.641804 -1.61946 0
M  V30 5809 C 557.529 1.15073 -3.20891 0
M  V30 5810 H 558.722 -0.635964 -2.93079 0
M  V30 5811 H 556.275 -0.368007 -1.51906 0
M  V30 5812 H 557.01 1.91667 -2.616 0
M  V30 5813 H 556.795 0.656867 -3.86559 0
M  V30 5814 H 558.285 1.64665 -3.83765 0
M  V30 5815 N 558.722 1.53707 -0.348139 0
M  V30 5816 C 559.999 1.93247 0.302475 0
M  V30 5817 C 560.379 1.28012 1.67857 0
M  V30 5818 O 559.727 0.43274 2.24365 0
M  V30 5819 C 559.937 3.47031 0.370159 0
M  V30 5820 C 561.285 4.20066 0.61882 0
M  V30 5821 O 562.309 3.53319 0.452087 0
M  V30 5822 O 561.168 5.38318 0.94215 0
M  V30 5823 H 558.262 0.807736 0.177458 0
M  V30 5824 H 560.808 1.64927 -0.399651 0
M  V30 5825 H 559.58 3.86745 -0.59534 0
M  V30 5826 H 559.203 3.81532 1.11888 0
M  V30 5827 N 560.2 0.0768682 1.57412 0
M  V30 5828 C 561.15 -0.898795 2.09537 0
M  V30 5829 C 562.134 -1.25556 1.0062 0
M  V30 5830 O 563.326 -1.23369 1.26921 0
M  V30 5831 C 560.455 -2.16453 2.66464 0
M  V30 5832 C 559.541 -1.83401 3.82393 0
M  V30 5833 N 559.932 -1.20823 4.91157 0
M  V30 5834 C 558.23 -2.13121 3.91785 0
M  V30 5835 C 558.931 -1.05976 5.71965 0
M  V30 5836 N 557.907 -1.57113 5.204 0
M  V30 5837 H 561.709 -0.410718 2.91016 0
M  V30 5838 H 559.223 -0.126878 1.61904 0
M  V30 5839 H 561.22 -2.87274 3.02125 0
M  V30 5840 H 559.88 -2.65844 1.86433 0
M  V30 5841 H 560.891 -0.877249 5.10416 0
M  V30 5842 H 557.568 -2.64854 3.22736 0
M  V30 5843 H 558.958 -0.571809 6.69462 0
M  V30 5844 N 561.678 -1.56367 -0.196722 0
M  V30 5845 C 562.903 -1.84991 -0.937714 0
M  V30 5846 C 563.328 -0.660244 -1.76132 0
M  V30 5847 O 562.686 0.390967 -1.77034 0
M  V30 5848 C 562.734 -3.11828 -1.81096 0
M  V30 5849 O 561.838 -2.92266 -2.90955 0
M  V30 5850 H 561.179 -0.609193 -0.264159 0
M  V30 5851 H 563.709 -2.03595 -0.202529 0
M  V30 5852 H 563.719 -3.42579 -2.21594 0
M  V30 5853 H 562.394 -3.98037 -1.2058 0
M  V30 5854 H 560.971 -2.72809 -2.54224 0
M  V30 5855 N 563.156 0.464375 -1.50603 0
M  V30 5856 C 564.106 1.55929 -1.66343 0
M  V30 5857 C 565.09 1.52338 -0.517887 0
M  V30 5858 O 566.282 1.59248 -0.772601 0
M  V30 5859 C 563.411 2.94327 -1.7671 0
M  V30 5860 C 562.497 3.02777 -2.96962 0
M  V30 5861 N 562.888 2.81026 -4.20545 0
M  V30 5862 C 561.186 3.33919 -2.95659 0
M  V30 5863 C 561.887 2.94618 -5.01573 0
M  V30 5864 N 560.863 3.25112 -4.35664 0
M  V30 5865 H 564.665 1.37822 -2.59581 0
M  V30 5866 H 562.179 0.671227 -1.47879 0
M  V30 5867 H 564.176 3.73063 -1.86091 0
M  V30 5868 H 562.836 3.13476 -0.846353 0
M  V30 5869 H 563.847 2.56477 -4.49933 0
M  V30 5870 H 560.524 3.59013 -2.13111 0
M  V30 5871 H 561.914 2.81984 -6.09865 0
M  V30 5872 N 564.634 1.40294 0.718013 0
M  V30 5873 C 565.88 1.38645 1.48005 0
M  V30 5874 C 566.213 -0.0121202 1.94196 0
M  V30 5875 O 565.488 -0.980309 1.67989 0
M  V30 5876 C 565.771 2.37379 2.70782 0
M  V30 5877 C 565.624 3.8625 2.30501 0
M  V30 5878 C 566.943 2.33685 3.72933 0
M  V30 5879 H 564.062 0.504928 0.536858 0
M  V30 5880 H 566.704 1.71411 0.819649 0
M  V30 5881 H 564.854 2.09568 3.27129 0
M  V30 5882 H 566.526 4.24879 1.79655 0
M  V30 5883 H 564.769 4.02202 1.6253 0
M  V30 5884 H 565.44 4.50847 3.18498 0
M  V30 5885 H 567.916 2.58314 3.2621 0
M  V30 5886 H 566.792 3.0482 4.56482 0
M  V30 5887 H 567.053 1.34765 4.21059 0
M  V30 5888 N 566.112 -0.949982 1.2575 0
M  V30 5889 C 567.359 -1.69515 1.10774 0
M  V30 5890 C 567.687 -1.91316 -0.350479 0
M  V30 5891 O 566.942 -1.48515 -1.27443 0
M  V30 5892 C 567.241 -3.08039 1.81237 0
M  V30 5893 C 566.907 -3.06023 3.31151 0
M  V30 5894 C 565.569 -3.0518 3.72047 0
M  V30 5895 C 567.921 -2.98998 4.26907 0
M  V30 5896 C 565.249 -2.95067 5.07102 0
M  V30 5897 C 567.601 -2.90426 5.61992 0
M  V30 5898 C 566.265 -2.87922 6.0221 0
M  V30 5899 H 565.535 -0.6203 0.405351 0
M  V30 5900 H 568.182 -1.10953 1.56082 0
M  V30 5901 H 566.487 -3.70172 1.28373 0
M  V30 5902 H 568.184 -3.64526 1.67098 0
M  V30 5903 H 564.774 -3.07453 2.98614 0
M  V30 5904 H 568.958 -2.98764 3.963 0
M  V30 5905 H 564.214 -2.915 5.37436 0
M  V30 5906 H 568.388 -2.83952 6.35881 0
M  V30 5907 H 566.015 -2.79841 7.06819 0
M  V30 5908 N 567.59 -1.07411 -1.15328 0
M  V30 5909 C 568.815 -0.818856 -1.90551 0
M  V30 5910 C 569.24 0.622194 -1.77512 0
M  V30 5911 O 568.598 1.43484 -1.10824 0
M  V30 5912 C 568.646 -1.23267 -3.38877 0
M  V30 5913 O 567.75 -0.378345 -4.10661 0
M  V30 5914 H 567.091 -0.29827 -0.593238 0
M  V30 5915 H 569.621 -1.43289 -1.46046 0
M  V30 5916 H 569.631 -1.20912 -3.89672 0
M  V30 5917 H 568.306 -2.28226 -3.47686 0
M  V30 5918 H 566.883 -0.464437 -3.69996 0
M  V30 5919 N 569.068 1.32177 -0.85831 0
M  V30 5920 C 570.315 1.97125 -0.463484 0
M  V30 5921 C 570.643 1.67907 0.981705 0
M  V30 5922 O 569.898 0.961717 1.70439 0
M  V30 5923 C 570.197 3.51372 -0.653658 0
M  V30 5924 C 569.863 4.00584 -2.06987 0
M  V30 5925 C 568.525 4.13733 -2.4572 0
M  V30 5926 C 570.877 4.26624 -2.99402 0
M  V30 5927 C 568.205 4.50268 -3.76132 0
M  V30 5928 C 570.557 4.64618 -4.29316 0
M  V30 5929 C 569.221 4.75975 -4.67979 0
M  V30 5930 H 568.491 0.72133 -0.169601 0
M  V30 5931 H 571.138 1.57517 -1.08907 0
M  V30 5932 H 569.443 3.91761 0.0551328 0
M  V30 5933 H 571.14 3.99655 -0.328163 0
M  V30 5934 H 567.73 3.90837 -1.75911 0
M  V30 5935 H 571.914 4.1597 -2.70708 0
M  V30 5936 H 567.17 4.57256 -4.05865 0
M  V30 5937 H 571.344 4.83722 -5.00985 0
M  V30 5938 H 568.971 5.04041 -5.69076 0
M  V30 5939 N 570.547 0.616602 1.45037 0
M  V30 5940 C 571.795 0.115103 2.01772 0
M  V30 5941 C 572.116 -1.2622 1.48639 0
M  V30 5942 O 571.386 -1.83563 0.684199 0
M  V30 5943 H 569.966 0.0395607 0.745952 0
M  V30 5944 H 572.628 0.800032 1.77723 0
M  V30 5945 H 571.724 0.0717274 3.12018 0
M  V30 5946 N 572.025 -1.5352 0.356285 0
M  V30 5947 C 573.273 -2.00719 -0.235837 0
M  V30 5948 C 573.594 -1.24551 -1.5004 0
M  V30 5949 O 572.864 -0.356185 -1.92635 0
M  V30 5950 H 571.444 -0.741542 -0.0901366 0
M  V30 5951 H 574.106 -1.88887 0.480378 0
M  V30 5952 H 573.202 -3.08551 -0.469357 0
M  V30 5953 N 573.503 -0.0852151 -1.57369 0
M  V30 5954 C 574.733 0.588605 -1.98038 0
M  V30 5955 C 575.141 1.62869 -0.962817 0
M  V30 5956 O 574.484 1.83611 0.057134 0
M  V30 5957 C 574.546 1.30303 -3.35054 0
M  V30 5958 C 574.21 0.414855 -4.55113 0
M  V30 5959 C 575.207 -0.333011 -5.18832 0
M  V30 5960 C 572.892 0.335804 -5.01176 0
M  V30 5961 C 574.886 -1.14801 -6.26976 0
M  V30 5962 C 572.573 -0.482857 -6.09189 0
M  V30 5963 C 573.571 -1.22342 -6.71953 0
M  V30 5964 O 573.259 -2.02855 -7.77885 0
M  V30 5965 H 572.991 0.163249 -0.655992 0
M  V30 5966 H 575.545 -0.1582 -2.0479 0
M  V30 5967 H 573.775 2.0962 -3.24956 0
M  V30 5968 H 575.464 1.87041 -3.60237 0
M  V30 5969 H 576.23 -0.281611 -4.84182 0
M  V30 5970 H 572.109 0.901869 -4.52092 0
M  V30 5971 H 575.653 -1.72654 -6.75897 0
M  V30 5972 H 571.55 -0.535773 -6.43273 0
M  V30 5973 H 572.318 -1.95432 -7.94826 0
M  V30 5974 N 574.981 1.5647 0.188427 0
M  V30 5975 C 576.392 1.70864 0.752494 0
M  V30 5976 C 576.743 0.692905 1.83557 0
M  V30 5977 O 575.868 -0.149307 2.15884 0
M  V30 5978 C 576.463 3.09789 1.37173 0
M  V30 5979 C 575.022 3.25925 1.88281 0
M  V30 5980 C 574.169 2.66817 0.755259 0
M  V30 5981 H 577.12 1.58657 -0.0367408 0
M  V30 5982 H 577.141 3.07489 2.24122 0
M  V30 5983 H 576.653 3.83693 0.583219 0
M  V30 5984 H 574.754 2.56948 2.6983 0
M  V30 5985 H 574.867 4.33498 2.04001 0
M  V30 5986 H 573.231 2.2617 1.17128 0
M  V30 5987 H 574.014 3.43294 -0.0211237 0
M  V30 5988 N 576.459 -0.456382 1.50847 0
M  V30 5989 C 577.389 -1.56025 1.73719 0
M  V30 5990 C 578.37 -1.5967 0.586473 0
M  V30 5991 O 579.555 -1.75702 0.827185 0
M  V30 5992 C 576.685 -2.94251 1.84483 0
M  V30 5993 C 575.639 -3.05471 2.99786 0
M  V30 5994 C 574.965 -4.45489 2.95709 0
M  V30 5995 C 576.265 -2.81318 4.40065 0
M  V30 5996 H 577.959 -1.37138 2.66146 0
M  V30 5997 H 575.505 -0.658299 1.28072 0
M  V30 5998 H 577.458 -3.71417 1.99067 0
M  V30 5999 H 576.182 -3.14328 0.886891 0
M  V30 6000 H 574.841 -2.30741 2.84876 0
M  V30 6001 H 574.489 -4.62505 1.97732 0
M  V30 6002 H 574.189 -4.53929 3.73125 0
M  V30 6003 H 575.713 -5.24655 3.12362 0
M  V30 6004 H 577.127 -3.48226 4.55425 0
M  V30 6005 H 575.524 -3.01188 5.19043 0
M  V30 6006 H 576.594 -1.7706 4.51418 0
M  V30 6007 N 577.937 -1.40673 -0.710563 0
M  V30 6008 C 579.353 -1.22813 -1.01928 0
M  V30 6009 C 579.553 -0.10687 -2.01216 0
M  V30 6010 O 578.609 0.533614 -2.46797 0
M  V30 6011 C 579.922 -2.57178 -1.5582 0
M  V30 6012 C 581.47 -2.64233 -1.67779 0
M  V30 6013 C 581.945 -3.98879 -2.25076 0
M  V30 6014 N 583.436 -4.00647 -2.32456 0
M  V30 6015 C 584.171 -5.01621 -2.77784 0
M  V30 6016 N 583.667 -6.12989 -3.22826 0
M  V30 6017 N 585.46 -4.88988 -2.77213 0
M  V30 6018 H 577.611 -2.12335 -0.05253 0
M  V30 6019 H 579.874 -0.9441 -0.085898 0
M  V30 6020 H 579.58 -3.39903 -0.903249 0
M  V30 6021 H 579.454 -2.78618 -2.54267 0
M  V30 6022 H 581.841 -1.81876 -2.3239 0
M  V30 6023 H 581.922 -2.46619 -0.679178 0
M  V30 6024 H 581.566 -4.81678 -1.61086 0
M  V30 6025 H 581.496 -4.13826 -3.25661 0
M  V30 6026 H 583.987 -3.20231 -2.0065 0
M  V30 6027 H 584.3 -6.85921 -3.55995 0
M  V30 6028 H 582.645 -6.16547 -3.20773 0
M  V30 6029 H 585.836 -4.01075 -2.41363 0
M  V30 6030 H 586.009 -5.67822 -3.12221 0
M  V30 6031 N 579.415 0.9433 -1.26252 0
M  V30 6032 C 580.663 1.68592 -1.11451 0
M  V30 6033 C 580.984 1.91957 0.343123 0
M  V30 6034 O 580.254 1.51475 1.24226 0
M  V30 6035 H 578.834 0.624789 -0.409448 0
M  V30 6036 H 581.496 1.13351 -1.58548 0
M  V30 6037 H 580.592 2.66054 -1.63162 0
M  V30 6038 N 580.893 1.08022 1.14757 0
M  V30 6039 C 582.118 0.82895 1.90114 0
M  V30 6040 C 582.543 -0.612772 1.77839 0
M  V30 6041 O 581.901 -1.42895 1.11583 0
M  V30 6042 C 581.949 1.25062 3.38219 0
M  V30 6043 O 581.053 0.400119 4.10454 0
M  V30 6044 H 580.394 0.301412 0.591648 0
M  V30 6045 H 582.924 1.44062 1.45284 0
M  V30 6046 H 582.934 1.22977 3.89025 0
M  V30 6047 H 581.609 2.30067 3.46471 0
M  V30 6048 H 580.186 0.484052 3.69745 0
M  V30 6049 N 582.371 -1.3172 0.865308 0
M  V30 6050 C 583.596 -2.01591 0.487415 0
M  V30 6051 C 584.021 -1.6455 -0.911307 0
M  V30 6052 O 583.379 -0.851689 -1.6005 0
M  V30 6053 C 583.427 -3.54759 0.646401 0
M  V30 6054 O 582.531 -4.11185 -0.316284 0
M  V30 6055 H 581.872 -0.634884 0.194468 0
M  V30 6056 H 584.402 -1.68024 1.16744 0
M  V30 6057 H 584.412 -4.04438 0.537932 0
M  V30 6058 H 583.087 -3.8106 1.66632 0
M  V30 6059 H 581.664 -3.72543 -0.163162 0
M  V30 6060 N 583.85 -0.624285 -1.44708 0
M  V30 6061 C 585.099 -0.123539 -2.01321 0
M  V30 6062 C 585.412 1.25966 -1.49639 0
M  V30 6063 O 586.618 1.85405 -1.98336 0
M  V30 6064 C 585.074 -0.170124 -3.59498 0
M  V30 6065 C 584.682 -1.55421 -4.20176 0
M  V30 6066 C 586.426 0.274513 -4.23611 0
M  V30 6067 C 584.332 -1.55628 -5.70556 0
M  V30 6068 H 583.263 -0.0424183 -0.752806 0
M  V30 6069 H 585.913 -0.782076 -1.65999 0
M  V30 6070 H 584.296 0.555385 -3.92086 0
M  V30 6071 H 585.47 -2.30276 -3.99136 0
M  V30 6072 H 583.784 -1.94235 -3.68323 0
M  V30 6073 H 586.382 0.292402 -5.339 0
M  V30 6074 H 586.725 1.3005 -3.95465 0
M  V30 6075 H 587.258 -0.398275 -3.95801 0
M  V30 6076 H 583.997 -2.56041 -6.03426 0
M  V30 6077 H 583.517 -0.850563 -5.93739 0
M  V30 6078 H 585.196 -1.28721 -6.34066 0
M  V30 6079 N 585.328 1.53329 -0.364422 0
M  V30 6080 C 586.575 2.01239 0.225634 0
M  V30 6081 C 586.903 1.25172 1.48869 0
M  V30 6082 O 586.158 0.333289 1.92841 0
M  V30 6083 C 586.457 3.52911 0.564661 0
M  V30 6084 C 586.123 4.46837 -0.603936 0
M  V30 6085 C 584.785 4.72234 -0.924585 0
M  V30 6086 C 587.137 5.02409 -1.38691 0
M  V30 6087 C 584.465 5.50454 -2.0302 0
M  V30 6088 C 586.817 5.81836 -2.48293 0
M  V30 6089 C 585.481 6.0552 -2.80894 0
M  V30 6090 H 584.751 0.736386 0.0825654 0
M  V30 6091 H 587.398 1.84948 -0.496645 0
M  V30 6092 H 585.703 3.67144 1.36794 0
M  V30 6093 H 587.4 3.87455 1.03344 0
M  V30 6094 H 583.99 4.27217 -0.343983 0
M  V30 6095 H 588.174 4.82735 -1.15243 0
M  V30 6096 H 583.43 5.67024 -2.28678 0
M  V30 6097 H 587.604 6.23905 -3.0938 0
M  V30 6098 H 585.231 6.65916 -3.66688 0
M  V30 6099 N 586.806 0.0935595 1.57322 0
M  V30 6100 C 588.054 -0.569383 1.93913 0
M  V30 6101 C 588.375 -1.68817 0.976009 0
M  V30 6102 O 587.645 -1.9588 0.0278099 0
M  V30 6103 H 586.225 -0.21332 0.715894 0
M  V30 6104 H 588.887 0.156531 1.9427 0
M  V30 6105 H 587.983 -0.980577 2.96296 0
M  V30 6106 N 588.284 -1.56567 -0.180126 0
M  V30 6107 C 589.214 -1.98753 -1.22553 0
M  V30 6108 C 590.195 -0.86175 -1.46656 0
M  V30 6109 O 591.38 -1.12719 -1.58139 0
M  V30 6110 C 588.51 -2.33988 -2.56645 0
M  V30 6111 C 587.464 -3.49445 -2.47128 0
M  V30 6112 C 586.79 -3.70397 -3.8563 0
M  V30 6113 C 588.09 -4.83171 -1.98352 0
M  V30 6114 H 589.784 -2.86332 -0.874896 0
M  V30 6115 H 587.33 -1.37757 -0.419414 0
M  V30 6116 H 589.283 -2.62097 -3.29974 0
M  V30 6117 H 588.007 -1.43309 -2.93479 0
M  V30 6118 H 586.666 -3.2145 -1.76254 0
M  V30 6119 H 586.314 -2.77023 -4.19842 0
M  V30 6120 H 586.014 -4.48077 -3.80132 0
M  V30 6121 H 587.538 -4.00897 -4.60558 0
M  V30 6122 H 588.952 -5.10213 -2.61449 0
M  V30 6123 H 587.349 -5.64425 -2.03823 0
M  V30 6124 H 588.419 -4.75753 -0.937402 0
M  V30 6125 N 589.762 0.448376 -1.51087 0
M  V30 6126 C 590.725 1.52588 -1.71025 0
M  V30 6127 C 591.725 1.49958 -0.580442 0
M  V30 6128 O 592.915 1.52176 -0.847833 0
M  V30 6129 C 590.047 2.92163 -1.75652 0
M  V30 6130 H 591.24 1.36218 -2.67179 0
M  V30 6131 H 588.793 0.676313 -1.4091 0
M  V30 6132 H 589.528 3.13951 -0.812724 0
M  V30 6133 H 589.313 2.95478 -2.57751 0
M  V30 6134 H 590.803 3.70349 -1.92953 0
M  V30 6135 N 591.24 1.41047 0.703093 0
M  V30 6136 C 592.651 1.35657 1.28274 0
M  V30 6137 C 593.002 0.0360309 1.96167 0
M  V30 6138 O 592.127 -0.865833 1.98324 0
M  V30 6139 C 592.722 2.45707 2.33267 0
M  V30 6140 C 591.281 2.43738 2.86825 0
M  V30 6141 C 590.428 2.25941 1.60767 0
M  V30 6142 H 593.379 1.50672 0.49836 0
M  V30 6143 H 593.4 2.14333 3.14391 0
M  V30 6144 H 592.912 3.41805 1.83824 0
M  V30 6145 H 591.013 1.51375 3.40465 0
M  V30 6146 H 591.126 3.39779 3.37768 0
M  V30 6147 H 589.49 1.73681 1.86298 0
M  V30 6148 H 590.273 3.24054 1.1333 0
M  V30 6149 N 592.718 -0.936591 1.26751 0
M  V30 6150 C 593.966 -1.67998 1.12343 0
M  V30 6151 C 594.287 -1.92137 -0.332938 0
M  V30 6152 O 593.557 -1.52132 -1.23421 0
M  V30 6153 H 592.137 -0.622609 0.412756 0
M  V30 6154 H 594.799 -1.12509 1.59147 0
M  V30 6155 H 593.895 -2.65185 1.64571 0
M  V30 6156 N 594.196 -1.08629 -1.14182 0
M  V30 6157 C 595.143 -0.718299 -2.19338 0
M  V30 6158 C 596.113 0.296587 -1.63431 0
M  V30 6159 O 597.298 0.180079 -1.89948 0
M  V30 6160 C 594.438 -0.136203 -3.44831 0
M  V30 6161 C 593.551 -1.20414 -4.14879 0
M  V30 6162 C 592.686 -0.585666 -5.27962 0
M  V30 6163 C 591.725 -1.63548 -5.89846 0
M  V30 6164 N 590.862 -1.03864 -6.94375 0
M  V30 6165 H 595.702 -1.61932 -2.50164 0
M  V30 6166 H 593.239 -0.80919 -1.22844 0
M  V30 6167 H 595.197 0.219021 -4.16625 0
M  V30 6168 H 593.827 0.728121 -3.14481 0
M  V30 6169 H 592.879 -1.67676 -3.41451 0
M  V30 6170 H 594.191 -1.99959 -4.56966 0
M  V30 6171 H 593.345 -0.178818 -6.06436 0
M  V30 6172 H 592.084 0.24142 -4.87102 0
M  V30 6173 H 591.089 -2.05197 -5.10073 0
M  V30 6174 H 592.314 -2.46509 -6.3278 0
M  V30 6175 H 590.26 -0.232687 -6.55587 0
M  V30 6176 H 590.177 -1.77116 -7.3496 0
M  V30 6177 H 591.445 -0.657724 -7.7672 0
M  V30 6178 N 595.674 1.31259 -0.872281 0
M  V30 6179 C 596.637 2.26744 -0.334656 0
M  V30 6180 C 597.637 1.52307 0.515681 0
M  V30 6181 O 598.827 1.71148 0.324656 0
M  V30 6182 C 595.959 3.36841 0.524482 0
M  V30 6183 H 597.152 2.75812 -1.17762 0
M  V30 6184 H 594.705 1.42232 -0.648064 0
M  V30 6185 H 595.44 2.93069 1.38855 0
M  V30 6186 H 595.225 3.92009 -0.0844299 0
M  V30 6187 H 596.715 4.07944 0.892838 0
M  V30 6188 N 597.152 0.631951 1.44375 0
M  V30 6189 C 598.568 0.297642 1.568 0
M  V30 6190 C 598.768 -1.19916 1.61934 0
M  V30 6191 O 597.824 -1.98324 1.56281 0
M  V30 6192 C 599.137 0.990286 2.83926 0
M  V30 6193 C 600.685 0.968507 2.97639 0
M  V30 6194 C 601.16 1.64163 4.27568 0
M  V30 6195 N 602.651 1.60826 4.34384 0
M  V30 6196 C 603.386 2.09802 5.33639 0
M  V30 6197 N 602.882 2.66973 6.39294 0
M  V30 6198 N 604.675 2.00426 5.25153 0
M  V30 6199 H 596.826 1.60353 1.39286 0
M  V30 6200 H 599.089 0.673142 0.667521 0
M  V30 6201 H 598.795 2.04519 2.8612 0
M  V30 6202 H 598.669 0.528563 3.73478 0
M  V30 6203 H 601.056 -0.0779247 2.94997 0
M  V30 6204 H 601.137 1.46873 2.09433 0
M  V30 6205 H 600.781 2.68752 4.3097 0
M  V30 6206 H 600.711 1.11624 5.14634 0
M  V30 6207 H 603.202 1.19087 3.58646 0
M  V30 6208 H 603.515 3.02074 7.11316 0
M  V30 6209 H 601.86 2.71024 6.39977 0
M  V30 6210 H 605.051 1.55483 4.41523 0
M  V30 6211 H 605.224 2.38906 6.02352 0
M  V30 6212 N 598.631 -1.53133 0.372548 0
M  V30 6213 C 599.908 -1.93704 -0.271693 0
M  V30 6214 C 600.288 -1.30667 -1.65799 0
M  V30 6215 O 599.636 -0.46838 -2.23648 0
M  V30 6216 C 599.846 -3.47576 -0.314903 0
M  V30 6217 C 601.194 -4.20998 -0.551912 0
M  V30 6218 O 602.218 -3.53994 -0.39582 0
M  V30 6219 O 601.077 -5.39748 -0.85639 0
M  V30 6220 H 598.171 -0.810457 -0.164586 0
M  V30 6221 H 600.717 -1.6427 0.425838 0
M  V30 6222 H 599.489 -3.85749 0.656792 0
M  V30 6223 H 599.112 -3.83264 -1.05804 0
M  V30 6224 N 600.109 -0.101901 -1.5727 0
M  V30 6225 C 601.525 0.254739 -1.57554 0
M  V30 6226 C 601.725 1.67937 -1.11352 0
M  V30 6227 O 600.781 2.39722 -0.793081 0
M  V30 6228 C 602.094 0.036975 -3.00677 0
M  V30 6229 C 603.642 0.104199 -3.12827 0
M  V30 6230 C 604.117 -0.0856565 -4.5792 0
M  V30 6231 N 605.608 -0.0310498 -4.6319 0
M  V30 6232 C 606.343 -0.153099 -5.73196 0
M  V30 6233 N 605.839 -0.330364 -6.92012 0
M  V30 6234 N 607.632 -0.0938854 -5.62022 0
M  V30 6235 H 599.783 -1.03263 -1.85609 0
M  V30 6236 H 602.046 -0.405251 -0.857016 0
M  V30 6237 H 601.752 -0.947254 -3.38703 0
M  V30 6238 H 601.626 0.776335 -3.69124 0
M  V30 6239 H 604.013 1.07894 -2.74669 0
M  V30 6240 H 604.094 -0.666762 -2.46957 0
M  V30 6241 H 603.738 -1.05729 -4.96773 0
M  V30 6242 H 603.668 0.705082 -5.21858 0
M  V30 6243 H 606.159 0.103141 -3.77759 0
M  V30 6244 H 606.472 -0.41482 -7.71686 0
M  V30 6245 H 604.817 -0.366119 -6.94035 0
M  V30 6246 H 608.008 0.0435168 -4.6808 0
M  V30 6247 H 608.181 -0.19245 -6.47714 0
M  V30 6248 N 601.587 1.56661 0.17182 0
M  V30 6249 C 602.534 1.96371 1.21273 0
M  V30 6250 C 603.504 0.82756 1.44016 0
M  V30 6251 O 604.689 1.08764 1.56764 0
M  V30 6252 C 601.829 2.32838 2.54716 0
M  V30 6253 C 600.942 3.59628 2.39356 0
M  V30 6254 C 600.077 3.85311 3.65662 0
M  V30 6255 C 599.116 5.0545 3.45234 0
M  V30 6256 N 598.253 5.27268 4.63608 0
M  V30 6257 H 603.093 2.85106 0.86709 0
M  V30 6258 H 600.63 1.41073 0.416744 0
M  V30 6259 H 602.588 2.52004 3.3249 0
M  V30 6260 H 601.218 1.47214 2.87277 0
M  V30 6261 H 600.27 3.4838 1.52761 0
M  V30 6262 H 601.582 4.4756 2.20207 0
M  V30 6263 H 600.736 4.04841 4.51872 0
M  V30 6264 H 599.475 2.95753 3.8779 0
M  V30 6265 H 598.48 4.85819 2.5741 0
M  V30 6266 H 599.705 5.96538 3.24529 0
M  V30 6267 H 597.651 4.40662 4.85956 0
M  V30 6268 H 597.568 6.09422 4.4737 0
M  V30 6269 H 598.836 5.51277 5.51103 0
M  V30 6270 N 603.065 -0.440357 1.51323 0
M  V30 6271 C 604.028 -1.51679 1.71832 0
M  V30 6272 C 605.028 -1.49648 0.588386 0
M  V30 6273 O 606.218 -1.51724 0.855891 0
M  V30 6274 C 603.35 -2.91228 1.77199 0
M  V30 6275 H 604.543 -1.34799 2.67898 0
M  V30 6276 H 602.096 -0.66883 1.41267 0
M  V30 6277 H 602.831 -3.13516 0.829363 0
M  V30 6278 H 602.616 -2.94107 2.59314 0
M  V30 6279 H 604.106 -3.69321 1.94915 0
M  V30 6280 N 604.543 -1.41418 -0.695603 0
M  V30 6281 C 605.773 -1.43921 -1.48224 0
M  V30 6282 C 606.181 -0.0428855 -1.89151 0
M  V30 6283 O 605.524 0.948138 -1.5734 0
M  V30 6284 C 605.586 -2.28466 -2.77567 0
M  V30 6285 C 605.25 -3.76629 -2.58844 0
M  V30 6286 C 606.247 -4.6879 -2.24793 0
M  V30 6287 C 603.932 -4.2067 -2.74485 0
M  V30 6288 C 605.926 -6.02981 -2.06622 0
M  V30 6289 C 603.613 -5.54926 -2.55931 0
M  V30 6290 C 604.611 -6.45897 -2.2205 0
M  V30 6291 O 604.299 -7.77675 -2.03657 0
M  V30 6292 H 604.031 -0.492252 -0.463318 0
M  V30 6293 H 606.585 -1.86347 -0.863952 0
M  V30 6294 H 604.815 -1.80853 -3.41802 0
M  V30 6295 H 606.504 -2.2267 -3.39371 0
M  V30 6296 H 607.27 -4.36055 -2.12323 0
M  V30 6297 H 603.149 -3.50167 -2.9984 0
M  V30 6298 H 606.693 -6.73951 -1.80099 0
M  V30 6299 H 602.59 -5.8724 -2.67991 0
M  V30 6300 H 603.358 -7.88819 -2.1842 0
M  V30 6301 N 606.021 0.929856 -1.27246 0
M  V30 6302 C 607.249 1.71144 -1.16265 0
M  V30 6303 C 607.664 1.867 0.280786 0
M  V30 6304 O 607.021 1.38249 1.19136 0
M  V30 6305 C 607.072 3.11222 -1.83911 0
M  V30 6306 O 606.793 2.96398 -3.22614 0
M  V30 6307 C 608.294 4.05541 -1.79028 0
M  V30 6308 H 605.514 0.535499 -0.404328 0
M  V30 6309 H 608.058 1.16492 -1.68077 0
M  V30 6310 H 606.213 3.6274 -1.36009 0
M  V30 6311 H 606.627 3.8494 -3.56261 0
M  V30 6312 H 608.101 5.01351 -2.30978 0
M  V30 6313 H 608.578 4.32589 -0.759168 0
M  V30 6314 H 609.184 3.59947 -2.26535 0
M  V30 6315 N 607.499 1.09233 1.13605 0
M  V30 6316 C 608.745 0.828385 1.8511 0
M  V30 6317 C 609.078 -0.64437 1.83198 0
M  V30 6318 O 608.353 -1.47428 1.26867 0
M  V30 6319 C 608.636 1.36167 3.33363 0
M  V30 6320 C 608.489 2.90038 3.438 0
M  V30 6321 C 609.808 0.993819 4.28732 0
M  V30 6322 H 606.927 0.30239 0.672108 0
M  V30 6323 H 609.569 1.35339 1.33355 0
M  V30 6324 H 607.719 0.9151 3.77569 0
M  V30 6325 H 609.391 3.43128 3.08319 0
M  V30 6326 H 607.634 3.27271 2.84739 0
M  V30 6327 H 608.305 3.22428 4.48045 0
M  V30 6328 H 610.781 1.37893 3.92587 0
M  V30 6329 H 609.657 1.39403 5.30903 0
M  V30 6330 H 609.918 -0.0982206 4.41991 0
M  V30 6331 N 608.977 -1.30795 0.87923 0
M  V30 6332 C 609.907 -2.30742 0.357796 0
M  V30 6333 C 610.888 -1.60747 -0.556283 0
M  V30 6334 O 612.073 -1.88393 -0.47135 0
M  V30 6335 C 609.203 -3.44583 -0.433555 0
M  V30 6336 C 608.157 -4.26235 0.388251 0
M  V30 6337 C 607.483 -5.32073 -0.529352 0
M  V30 6338 C 608.783 -4.96303 1.62729 0
M  V30 6339 H 610.477 -2.74605 1.19299 0
M  V30 6340 H 608.023 -1.32017 0.575104 0
M  V30 6341 H 609.976 -4.13563 -0.808934 0
M  V30 6342 H 608.7 -2.99511 -1.30234 0
M  V30 6343 H 607.359 -3.58936 0.745695 0
M  V30 6344 H 607.007 -4.83249 -1.39569 0
M  V30 6345 H 606.707 -5.87598 0.0166741 0
M  V30 6346 H 608.231 -6.0391 -0.901373 0
M  V30 6347 H 609.645 -5.5783 1.32283 0
M  V30 6348 H 608.042 -5.61666 2.11309 0
M  V30 6349 H 609.112 -4.22758 2.37494 0
M  V30 6350 N 610.455 -0.639598 -1.44038 0
M  V30 6351 C 611.385 0.0469443 -2.33453 0
M  V30 6352 C 612.366 0.82609 -1.48694 0
M  V30 6353 O 613.551 0.790285 -1.77393 0
M  V30 6354 C 610.681 1.02338 -3.3188 0
M  V30 6355 C 609.635 0.355284 -4.26523 0
M  V30 6356 C 608.961 1.44221 -5.14883 0
M  V30 6357 C 610.261 -0.743798 -5.16977 0
M  V30 6358 H 611.955 -0.699735 -2.91108 0
M  V30 6359 H 609.501 -0.337946 -1.39978 0
M  V30 6360 H 611.454 1.51247 -3.93322 0
M  V30 6361 H 610.178 1.80105 -2.72451 0
M  V30 6362 H 608.837 -0.113239 -3.66425 0
M  V30 6363 H 608.485 2.21097 -4.51802 0
M  V30 6364 H 608.185 1.00052 -5.79019 0
M  V30 6365 H 609.709 1.93295 -5.79197 0
M  V30 6366 H 611.123 -0.337444 -5.72306 0
M  V30 6367 H 609.52 -1.10914 -5.89761 0
M  V30 6368 H 610.59 -1.60745 -4.57481 0
M  V30 6369 N 611.933 1.52934 -0.380664 0
M  V30 6370 C 613.163 2.05587 0.204302 0
M  V30 6371 C 613.571 1.25288 1.41773 0
M  V30 6372 O 612.914 0.290394 1.8139 0
M  V30 6373 C 612.976 3.53624 0.647324 0
M  V30 6374 C 612.64 4.54765 -0.451465 0
M  V30 6375 C 613.637 5.03226 -1.30614 0
M  V30 6376 C 611.322 4.98508 -0.616025 0
M  V30 6377 C 613.316 5.94046 -2.31058 0
M  V30 6378 C 611.003 5.89131 -1.62381 0
M  V30 6379 C 612.001 6.36792 -2.46952 0
M  V30 6380 O 611.689 7.25626 -3.46009 0
M  V30 6381 H 611.421 0.675013 0.0365198 0
M  V30 6382 H 613.975 1.98125 -0.541827 0
M  V30 6383 H 612.205 3.58676 1.44529 0
M  V30 6384 H 613.894 3.89061 1.15698 0
M  V30 6385 H 614.66 4.70167 -1.19027 0
M  V30 6386 H 610.539 4.60989 0.0324987 0
M  V30 6387 H 614.083 6.3117 -2.97104 0
M  V30 6388 H 609.98 6.21603 -1.7401 0
M  V30 6389 H 610.748 7.43664 -3.41916 0
M  V30 6390 N 613.412 0.11024 1.57214 0
M  V30 6391 C 614.66 -0.548783 1.94506 0
M  V30 6392 C 614.981 -1.67772 0.99386 0
M  V30 6393 O 614.251 -1.9584 0.0485841 0
M  V30 6394 H 612.831 -0.205715 0.718116 0
M  V30 6395 H 615.493 0.177127 1.94093 0
M  V30 6396 H 614.589 -0.949096 2.97319 0
M  V30 6397 N 614.89 -1.56749 -0.16351 0
M  V30 6398 C 615.838 -1.97939 -1.22159 0
M  V30 6399 C 616.832 -0.869288 -1.45395 0
M  V30 6400 O 618.038 -1.05443 -1.45883 0
M  V30 6401 H 614.413 -0.629869 -0.410815 0
M  V30 6402 H 616.384 -2.86115 -0.847381 0
M  V30 6403 C 615.133 -2.36206 -2.55151 0
M  V30 6404 H 614.456 -3.2117 -2.38097 0
M  V30 6405 H 615.896 -2.68863 -3.27854 0
M  V30 6406 C 614.355 -1.20841 -3.14482 0
M  V30 6407 O 614.885 -0.500258 -3.98573 0
M  V30 6408 N 613.091 -0.976943 -2.73686 0
M  V30 6409 H 612.638 -1.55457 -2.05404 0
M  V30 6410 H 612.596 -0.206912 -3.13718 0
M  V30 6411 N 616.368 0.432326 -1.51554 0
M  V30 6412 C 617.616 1.17901 -1.64146 0
M  V30 6413 C 617.937 1.91604 -0.362367 0
M  V30 6414 O 617.207 1.85764 0.621968 0
M  V30 6415 H 615.787 0.438206 -0.604966 0
M  V30 6416 H 618.449 0.495172 -1.88505 0
M  V30 6417 H 617.545 1.90584 -2.47152 0
M  V30 6418 N 617.846 1.41785 0.688094 0
M  V30 6419 C 619.257 1.3701 1.26828 0
M  V30 6420 C 619.608 0.056835 1.96118 0
M  V30 6421 O 618.733 -0.84475 1.99231 0
M  V30 6422 C 619.328 2.48168 2.30648 0
M  V30 6423 C 617.887 2.46766 2.84224 0
M  V30 6424 C 617.034 2.27633 1.58361 0
M  V30 6425 H 619.985 1.51192 0.482351 0
M  V30 6426 H 620.006 2.17655 3.121 0
M  V30 6427 H 619.518 3.43735 1.80188 0
M  V30 6428 H 617.619 1.54978 3.3884 0
M  V30 6429 H 617.732 3.43342 3.34145 0
M  V30 6430 H 616.096 1.75648 1.84445 0
M  V30 6431 H 616.879 3.25238 1.09887 0
M  V30 6432 N 619.324 -0.923095 1.27737 0
M  V30 6433 C 620.572 -1.66797 1.14119 0
M  V30 6434 C 620.893 -1.92479 -0.312541 0
M  V30 6435 O 620.163 -1.53432 -1.218 0
M  V30 6436 H 618.743 -0.618196 0.419336 0
M  V30 6437 H 621.405 -1.10815 1.60331 0
M  V30 6438 H 620.501 -2.63424 1.67374 0
M  V30 6439 N 620.802 -1.09834 -1.13024 0
M  V30 6440 C 622.032 -0.857657 -1.87957 0
M  V30 6441 C 622.44 0.595008 -1.796 0
M  V30 6442 O 621.783 1.42158 -1.16347 0
M  V30 6443 C 621.845 -1.21949 -3.38185 0
M  V30 6444 C 621.509 -2.67791 -3.7032 0
M  V30 6445 C 622.506 -3.66036 -3.69207 0
M  V30 6446 C 620.191 -3.04019 -3.99847 0
M  V30 6447 C 622.185 -4.98533 -3.9717 0
M  V30 6448 C 619.872 -4.36706 -4.27471 0
M  V30 6449 C 620.87 -5.33772 -4.26118 0
M  V30 6450 O 620.558 -6.64072 -4.53061 0
M  V30 6451 H 620.29 -0.308009 -0.601753 0
M  V30 6452 H 622.844 -1.46496 -1.43973 0
M  V30 6453 H 621.074 -0.555249 -3.82693 0
M  V30 6454 H 622.763 -0.957281 -3.9445 0
M  V30 6455 H 623.529 -3.39392 -3.46465 0
M  V30 6456 H 619.408 -2.29096 -4.00045 0
M  V30 6457 H 622.952 -5.74288 -3.96029 0
M  V30 6458 H 618.849 -4.63091 -4.49685 0
M  V30 6459 H 619.617 -6.69608 -4.7071 0
M  V30 6460 N 622.28 1.30327 -0.886154 0
M  V30 6461 C 623.526 1.96388 -0.505941 0
M  V30 6462 C 623.859 1.69784 0.942712 0
M  V30 6463 O 623.134 1.00322 1.6663 0
M  V30 6464 C 623.417 3.51488 -0.782826 0
M  V30 6465 C 623.27 3.87603 -2.28219 0
M  V30 6466 C 624.589 4.39331 -0.260128 0
M  V30 6467 H 621.708 0.713327 -0.185292 0
M  V30 6468 H 624.35 1.54178 -1.11036 0
M  V30 6469 H 622.5 3.87572 -0.268399 0
M  V30 6470 H 624.172 3.61537 -2.86512 0
M  V30 6471 H 622.415 3.3563 -2.74837 0
M  V30 6472 H 623.086 4.95806 -2.42653 0
M  V30 6473 H 625.562 4.10162 -0.700444 0
M  V30 6474 H 624.438 5.46769 -0.483179 0
M  V30 6475 H 624.699 4.34072 0.838674 0
M  V30 6476 N 623.758 0.647228 1.43697 0
M  V30 6477 C 624.688 -0.0345631 2.33474 0
M  V30 6478 C 625.669 -0.818193 1.4913 0
M  V30 6479 O 626.854 -0.780867 1.77809 0
M  V30 6480 C 623.984 -1.00576 3.32418 0
M  V30 6481 C 622.938 -0.33266 4.26705 0
M  V30 6482 C 622.264 -1.41489 5.1564 0
M  V30 6483 C 623.564 0.771204 5.16575 0
M  V30 6484 H 625.258 0.715163 2.90733 0
M  V30 6485 H 622.804 0.345364 1.39797 0
M  V30 6486 H 624.757 -1.49159 3.94119 0
M  V30 6487 H 623.481 -1.78657 2.73403 0
M  V30 6488 H 622.14 0.13267 3.6636 0
M  V30 6489 H 621.788 -2.18698 4.52968 0
M  V30 6490 H 621.488 -0.969799 5.79542 0
M  V30 6491 H 623.012 -1.9022 5.80214 0
M  V30 6492 H 624.426 0.36779 5.72119 0
M  V30 6493 H 622.823 1.1404 5.89165 0
M  V30 6494 H 623.893 1.63169 4.56622 0
M  V30 6495 N 625.236 -1.5273 0.388769 0
M  V30 6496 C 626.183 -2.26437 -0.446639 0
M  V30 6497 C 627.153 -1.28025 -1.05824 0
M  V30 6498 O 628.338 -1.56852 -1.08637 0
M  V30 6499 C 625.478 -3.07407 -1.56828 0
M  V30 6500 C 624.591 -4.20747 -0.979589 0
M  V30 6501 C 623.726 -4.89113 -2.07224 0
M  V30 6502 C 622.765 -5.94447 -1.45942 0
M  V30 6503 N 621.902 -6.56411 -2.49135 0
M  V30 6504 H 626.742 -2.97404 0.18837 0
M  V30 6505 H 624.279 -1.46727 0.104725 0
M  V30 6506 H 626.237 -3.52642 -2.22934 0
M  V30 6507 H 624.867 -2.3865 -2.17361 0
M  V30 6508 H 623.919 -3.7983 -0.208151 0
M  V30 6509 H 625.231 -4.9637 -0.491747 0
M  V30 6510 H 624.385 -5.3765 -2.81101 0
M  V30 6511 H 623.124 -4.13013 -2.59368 0
M  V30 6512 H 622.129 -5.4525 -0.705894 0
M  V30 6513 H 623.354 -6.7248 -0.945932 0
M  V30 6514 H 621.3 -5.83152 -3.00449 0
M  V30 6515 H 621.217 -7.27645 -2.05105 0
M  V30 6516 H 622.485 -7.09592 -3.22644 0
M  V30 6517 N 626.714 -0.118576 -1.57153 0
M  V30 6518 C 627.991 0.583062 -1.86708 0
M  V30 6519 C 628.371 1.84841 -1.01967 0
M  V30 6520 O 627.719 2.28288 -0.0984673 0
M  V30 6521 C 627.929 0.875912 -3.3783 0
M  V30 6522 C 629.277 1.22916 -4.0642 0
M  V30 6523 O 630.301 0.966188 -3.42846 0
M  V30 6524 O 629.16 1.72269 -5.18638 0
M  V30 6525 H 626.254 0.294185 -0.772906 0
M  V30 6526 H 628.8 -0.153048 -1.69008 0
M  V30 6527 H 627.572 -0.0207776 -3.91294 0
M  V30 6528 H 627.195 1.66719 -3.60958 0
M  V30 6529 N 628.193 1.56834 0.155195 0
M  V30 6530 C 629.441 1.82536 0.867462 0
M  V30 6531 C 629.762 0.698168 1.82073 0
M  V30 6532 O 629.032 -0.280807 1.93877 0
M  V30 6533 H 627.612 0.673401 0.323327 0
M  V30 6534 H 630.274 1.94313 0.151156 0
M  V30 6535 H 629.37 2.77171 1.43466 0
M  V30 6536 N 629.671 -0.424282 1.51781 0
M  V30 6537 C 630.634 -1.49848 1.73431 0
M  V30 6538 C 631.634 -1.49016 0.604225 0
M  V30 6539 O 632.824 -1.50808 0.871935 0
M  V30 6540 C 629.956 -2.89332 1.80277 0
M  V30 6541 H 631.149 -1.3195 2.69312 0
M  V30 6542 H 628.702 -0.653809 1.41968 0
M  V30 6543 H 629.437 -3.12618 0.862568 0
M  V30 6544 H 629.222 -2.9134 2.62419 0
M  V30 6545 H 630.712 -3.67233 1.98821 0
M  V30 6546 N 631.149 -1.42148 -0.680565 0
M  V30 6547 C 632.565 -1.24947 -0.992995 0
M  V30 6548 C 632.765 -0.149527 -2.00944 0
M  V30 6549 O 631.821 0.481145 -2.47873 0
M  V30 6550 C 633.134 -2.60426 -1.5033 0
M  V30 6551 C 634.682 -2.67733 -1.62137 0
M  V30 6552 C 635.157 -4.03564 -2.16565 0
M  V30 6553 N 636.648 -4.05488 -2.23905 0
M  V30 6554 C 637.383 -5.07401 -2.67081 0
M  V30 6555 N 636.879 -6.19698 -3.09751 0
M  V30 6556 N 638.672 -4.94758 -2.66778 0
M  V30 6557 H 630.823 -2.12399 -0.0074788 0
M  V30 6558 H 633.086 -0.94571 -0.0658529 0
M  V30 6559 H 632.792 -3.41743 -0.830947 0
M  V30 6560 H 632.666 -2.83949 -2.483 0
M  V30 6561 H 635.053 -1.86765 -2.2848 0
M  V30 6562 H 635.134 -2.48004 -0.626713 0
M  V30 6563 H 634.778 -4.84987 -1.50833 0
M  V30 6564 H 634.708 -4.20641 -3.1681 0
M  V30 6565 H 637.199 -3.24415 -1.93812 0
M  V30 6566 H 637.512 -6.93318 -3.41365 0
M  V30 6567 H 635.857 -6.23212 -3.07623 0
M  V30 6568 H 639.048 -4.06105 -2.32801 0
M  V30 6569 H 639.221 -5.74317 -3.00107 0
M  V30 6570 N 632.627 0.916307 -1.28225 0
M  V30 6571 C 634.038 1.48024 -1.13779 0
M  V30 6572 C 634.389 1.94289 0.273139 0
M  V30 6573 O 633.514 1.82226 1.16716 0
M  V30 6574 C 634.109 2.69029 -2.05935 0
M  V30 6575 C 632.668 3.2161 -1.95561 0
M  V30 6576 C 631.815 1.94321 -1.97825 0
M  V30 6577 H 634.766 0.729272 -1.40951 0
M  V30 6578 H 634.787 3.44204 -1.62184 0
M  V30 6579 H 634.299 2.35325 -3.08616 0
M  V30 6580 H 632.4 3.60045 -0.959076 0
M  V30 6581 H 632.513 3.87032 -2.82388 0
M  V30 6582 H 630.877 2.1131 -1.42198 0
M  V30 6583 H 631.66 1.62917 -3.0218 0
M  V30 6584 N 634.105 1.10431 1.1244 0
M  V30 6585 C 635.382 0.758797 1.80282 0
M  V30 6586 C 635.762 -0.754727 1.97147 0
M  V30 6587 O 635.11 -1.68094 1.54779 0
M  V30 6588 C 635.32 1.50982 3.14651 0
M  V30 6589 C 636.668 1.68232 3.8985 0
M  V30 6590 O 637.692 1.47319 3.24308 0
M  V30 6591 O 636.551 2.02905 5.07437 0
M  V30 6592 H 633.645 0.273756 0.780376 0
M  V30 6593 H 636.191 1.20713 1.19275 0
M  V30 6594 H 634.963 2.53989 2.97666 0
M  V30 6595 H 634.586 1.05435 3.83366 0
M  V30 6596 N 635.583 -1.29855 0.893053 0
M  V30 6597 C 636.829 -1.96116 0.516349 0
M  V30 6598 C 637.162 -1.70281 -0.933695 0
M  V30 6599 O 636.437 -1.01205 -1.66096 0
M  V30 6600 C 636.72 -3.51068 0.801455 0
M  V30 6601 C 636.573 -3.86387 2.30272 0
M  V30 6602 C 637.892 -4.39186 0.283423 0
M  V30 6603 H 635.011 -0.712335 0.189072 0
M  V30 6604 H 637.653 -1.53587 1.11852 0
M  V30 6605 H 635.803 -3.87424 0.288949 0
M  V30 6606 H 637.475 -3.60012 2.88425 0
M  V30 6607 H 635.718 -3.34167 2.76613 0
M  V30 6608 H 636.389 -4.94512 2.45279 0
M  V30 6609 H 638.865 -4.09785 0.722187 0
M  V30 6610 H 637.741 -5.46505 0.512169 0
M  V30 6611 H 638.002 -4.34511 -0.815643 0
M  V30 6612 N 637.061 -0.65484 -1.43351 0
M  V30 6613 C 638.289 -0.176685 -2.06144 0
M  V30 6614 C 638.704 1.15831 -1.49093 0
M  V30 6615 O 638.061 1.71542 -0.622868 0
M  V30 6616 C 638.112 -0.0813326 -3.61408 0
M  V30 6617 O 637.833 -1.36355 -4.1634 0
M  V30 6618 C 639.334 0.422706 -4.4128 0
M  V30 6619 H 636.554 -0.0906429 -0.66485 0
M  V30 6620 H 639.098 -0.895945 -1.83829 0
M  V30 6621 H 637.253 0.588496 -3.82904 0
M  V30 6622 H 637.667 -1.22381 -5.10023 0
M  V30 6623 H 639.141 0.438375 -5.50257 0
M  V30 6624 H 639.618 1.45432 -4.14423 0
M  V30 6625 H 640.224 -0.214687 -4.24758 0
M  V30 6626 N 638.539 1.52521 -0.396863 0
M  V30 6627 C 639.449 2.30403 0.44178 0
M  V30 6628 C 640.465 1.37625 1.06468 0
M  V30 6629 O 641.641 1.70697 1.06886 0
M  V30 6630 C 638.706 3.1013 1.54986 0
M  V30 6631 C 637.767 4.18628 0.951279 0
M  V30 6632 C 637 4.94543 2.00655 0
M  V30 6633 O 637.223 4.70629 3.22281 0
M  V30 6634 O 636.157 5.797 1.61962 0
M  V30 6635 H 639.983 3.03087 -0.192892 0
M  V30 6636 H 637.568 1.48537 -0.16038 0
M  V30 6637 H 639.45 3.59816 2.19341 0
M  V30 6638 H 638.125 2.40251 2.16935 0
M  V30 6639 H 637.032 3.73119 0.270773 0
M  V30 6640 H 638.365 4.90763 0.375887 0
M  V30 6641 N 640.017 0.126909 1.57088 0
M  V30 6642 C 641.242 -0.53997 2.00248 0
M  V30 6643 C 641.667 -1.58927 1.00618 0
M  V30 6644 O 641.025 -1.81288 -0.0210131 0
M  V30 6645 C 641.073 -1.13565 3.4225 0
M  V30 6646 O 640.177 -2.25103 3.45547 0
M  V30 6647 H 639.518 -0.13412 0.650314 0
M  V30 6648 H 642.048 0.217718 2.03438 0
M  V30 6649 H 642.058 -1.46925 3.80627 0
M  V30 6650 H 640.733 -0.367122 4.14277 0
M  V30 6651 H 639.31 -1.93123 3.18995 0
M  V30 6652 N 641.495 -1.56914 -0.146875 0
M  V30 6653 C 642.405 -2.0154 -1.20079 0
M  V30 6654 C 643.421 -0.930838 -1.47008 0
M  V30 6655 O 644.597 -1.24032 -1.58676 0
M  V30 6656 C 641.662 -2.38715 -2.51428 0
M  V30 6657 C 640.723 -3.6112 -2.32145 0
M  V30 6658 C 639.956 -3.96512 -3.57231 0
M  V30 6659 O 640.179 -3.32566 -4.63418 0
M  V30 6660 O 639.113 -4.89758 -3.49887 0
M  V30 6661 H 642.939 -2.91506 -0.851924 0
M  V30 6662 H 640.524 -1.45106 -0.355607 0
M  V30 6663 H 642.406 -2.63485 -3.28867 0
M  V30 6664 H 641.081 -1.51903 -2.85845 0
M  V30 6665 H 639.988 -3.41536 -1.52656 0
M  V30 6666 H 641.321 -4.48549 -2.02644 0
M  V30 6667 N 642.974 0.416227 -1.52004 0
M  V30 6668 C 644.199 1.19029 -1.69843 0
M  V30 6669 C 644.624 1.83708 -0.404103 0
M  V30 6670 O 643.982 1.69711 0.637787 0
M  V30 6671 C 644.03 2.23439 -2.83032 0
M  V30 6672 O 643.134 3.29419 -2.48106 0
M  V30 6673 H 642.475 0.347785 -0.565634 0
M  V30 6674 H 645.005 0.488871 -1.98674 0
M  V30 6675 H 645.015 2.67884 -3.07737 0
M  V30 6676 H 643.69 1.75745 -3.76944 0
M  V30 6677 H 642.267 2.90303 -2.34048 0
M  V30 6678 N 644.452 1.42507 0.673017 0
M  V30 6679 C 645.7 1.42789 1.43023 0
M  V30 6680 C 646.021 0.0459738 1.94946 0
M  V30 6681 O 645.291 -0.915765 1.73178 0
M  V30 6682 H 643.871 0.525657 0.530748 0
M  V30 6683 H 646.533 1.77944 0.795113 0
M  V30 6684 H 645.629 2.12872 2.28237 0
M  V30 6685 N 645.93 -0.909495 1.28709 0
M  V30 6686 C 647.155 -1.69801 1.1909 0
M  V30 6687 C 647.58 -1.86479 -0.246388 0
M  V30 6688 O 646.938 -1.37802 -1.17815 0
M  V30 6689 C 646.986 -3.06543 1.89904 0
M  V30 6690 O 646.09 -3.94268 1.2094 0
M  V30 6691 H 645.431 -0.519783 0.413185 0
M  V30 6692 H 647.961 -1.13689 1.70106 0
M  V30 6693 H 647.971 -3.56748 1.97977 0
M  V30 6694 H 646.646 -2.93722 2.94449 0
M  V30 6695 H 645.223 -3.52702 1.2106 0
M  V30 6696 N 647.408 -1.11026 -1.11852 0
M  V30 6697 C 648.819 -0.873203 -1.65021 0
M  V30 6698 C 649.17 0.595364 -1.86949 0
M  V30 6699 O 648.295 1.45645 -1.60051 0
M  V30 6700 C 648.89 -1.57859 -2.99777 0
M  V30 6701 C 647.449 -1.38807 -3.49871 0
M  V30 6702 C 646.596 -1.62403 -2.24768 0
M  V30 6703 H 649.547 -1.26712 -0.955503 0
M  V30 6704 H 649.568 -1.02111 -3.66543 0
M  V30 6705 H 649.08 -2.6474 -2.83786 0
M  V30 6706 H 647.181 -0.341163 -3.71035 0
M  V30 6707 H 647.294 -2.13421 -4.28938 0
M  V30 6708 H 645.658 -1.04714 -2.32179 0
M  V30 6709 H 646.441 -2.70549 -2.11324 0
M  V30 6710 N 648.886 1.2938 -0.899927 0
M  V30 6711 C 649.796 2.31462 -0.382437 0
M  V30 6712 C 650.812 1.65956 0.522929 0
M  V30 6713 O 651.988 1.97131 0.412454 0
M  V30 6714 C 649.053 3.44595 0.381472 0
M  V30 6715 C 648.114 4.25692 -0.555444 0
M  V30 6716 C 647.347 5.33422 0.172102 0
M  V30 6717 O 647.57 5.53053 1.396 0
M  V30 6718 O 646.504 5.99939 -0.485491 0
M  V30 6719 H 650.33 2.77706 -1.22934 0
M  V30 6720 H 647.915 1.33821 -0.664259 0
M  V30 6721 H 649.797 4.13474 0.813442 0
M  V30 6722 H 648.472 3.00458 1.20443 0
M  V30 6723 H 647.379 3.59453 -1.03653 0
M  V30 6724 H 648.712 4.73471 -1.34483 0
M  V30 6725 N 650.364 0.662433 1.43002 0
M  V30 6726 C 651.594 0.187343 2.05749 0
M  V30 6727 C 652.002 -1.15582 1.49791 0
M  V30 6728 O 651.345 -1.72651 0.627487 0
M  V30 6729 C 651.407 0.0316493 3.59486 0
M  V30 6730 C 651.071 1.30156 4.38073 0
M  V30 6731 C 652.068 2.23234 4.69535 0
M  V30 6732 C 649.753 1.54572 4.77926 0
M  V30 6733 C 651.747 3.39012 5.39768 0
M  V30 6734 C 649.434 2.70641 5.47902 0
M  V30 6735 C 650.432 3.62687 5.78746 0
M  V30 6736 O 650.12 4.76728 6.47291 0
M  V30 6737 H 649.852 0.0915214 0.669776 0
M  V30 6738 H 652.406 0.905982 1.8434 0
M  V30 6739 H 650.636 -0.742451 3.79506 0
M  V30 6740 H 652.325 -0.401977 4.03905 0
M  V30 6741 H 653.091 2.05616 4.39257 0
M  V30 6742 H 648.97 0.83804 4.53319 0
M  V30 6743 H 652.514 4.10877 5.63761 0
M  V30 6744 H 648.411 2.88189 5.77596 0
M  V30 6745 H 649.179 4.76113 6.65777 0
M  V30 6746 N 651.842 -1.52309 0.404946 0
M  V30 6747 C 653.258 -1.59503 0.0556255 0
M  V30 6748 C 653.458 -1.41805 -1.43156 0
M  V30 6749 O 652.514 -1.2429 -2.19792 0
M  V30 6750 C 653.827 -2.95687 0.546801 0
M  V30 6751 C 655.375 -3.08909 0.504413 0
M  V30 6752 C 655.85 -4.47566 0.97203 0
M  V30 6753 N 657.341 -4.53795 0.928679 0
M  V30 6754 C 658.076 -5.59346 1.26174 0
M  V30 6755 N 657.572 -6.72469 1.66604 0
M  V30 6756 N 659.365 -5.49532 1.18198 0
M  V30 6757 H 651.516 -1.6206 1.37296 0
M  V30 6758 H 653.779 -0.762161 0.563751 0
M  V30 6759 H 653.485 -3.13905 1.58609 0
M  V30 6760 H 653.359 -3.77172 -0.0457905 0
M  V30 6761 H 655.746 -2.90378 -0.525819 0
M  V30 6762 H 655.827 -2.2934 1.13301 0
M  V30 6763 H 655.471 -4.6684 2.00057 0
M  V30 6764 H 655.401 -5.25625 0.320292 0
M  V30 6765 H 657.892 -3.72588 0.631369 0
M  V30 6766 H 658.205 -7.48993 1.9034 0
M  V30 6767 H 656.55 -6.73761 1.70504 0
M  V30 6768 H 659.741 -4.60038 0.865011 0
M  V30 6769 H 659.914 -6.31687 1.44485 0
M  V30 6770 N 653.32 -0.135238 -1.57019 0
M  V30 6771 C 654.252 0.839675 -2.13265 0
M  V30 6772 C 655.265 1.21887 -1.07923 0
M  V30 6773 O 656.454 1.16499 -1.35241 0
M  V30 6774 C 653.554 2.13647 -2.63075 0
M  V30 6775 C 652.727 1.92646 -3.92691 0
M  V30 6776 C 651.786 3.06205 -4.27931 0
M  V30 6777 O 650.812 2.78409 -4.96465 0
M  V30 6778 N 652.014 4.33072 -3.86561 0
M  V30 6779 H 654.779 0.359026 -2.97542 0
M  V30 6780 H 652.34 0.0486979 -1.61827 0
M  V30 6781 H 654.332 2.88641 -2.8367 0
M  V30 6782 H 652.902 2.5301 -1.83588 0
M  V30 6783 H 652.122 1.01754 -3.80841 0
M  V30 6784 H 653.41 1.75939 -4.77413 0
M  V30 6785 H 652.808 4.58526 -3.31316 0
M  V30 6786 H 651.365 5.04885 -4.12231 0
M  V30 6787 N 654.798 1.5699 0.138552 0
M  V30 6788 C 655.73 1.95515 1.1961 0
M  V30 6789 C 656.743 0.852002 1.38726 0
M  V30 6790 O 657.932 1.13038 1.38147 0
M  V30 6791 C 655.032 2.2213 2.55952 0
M  V30 6792 C 654.205 3.53424 2.57702 0
M  V30 6793 C 653.264 3.6848 3.75645 0
M  V30 6794 O 652.29 4.4079 3.60129 0
M  V30 6795 N 653.492 3.05777 4.93438 0
M  V30 6796 H 656.257 2.86838 0.868557 0
M  V30 6797 H 653.818 1.58542 0.328033 0
M  V30 6798 H 655.81 2.29435 3.33379 0
M  V30 6799 H 654.38 1.3703 2.80965 0
M  V30 6800 H 653.6 3.57484 1.6613 0
M  V30 6801 H 654.888 4.39759 2.55909 0
M  V30 6802 H 654.286 2.46961 5.08947 0
M  V30 6803 H 652.843 3.18631 5.6861 0
M  V30 6804 N 656.276 -0.40816 1.52223 0
M  V30 6805 C 657.501 -1.18127 1.70472 0
M  V30 6806 C 657.926 -1.83491 0.41384 0
M  V30 6807 O 657.284 -1.70047 -0.628778 0
M  V30 6808 C 657.332 -2.21935 2.84213 0
M  V30 6809 O 656.436 -3.28099 2.4985 0
M  V30 6810 H 655.777 -0.344781 0.56747 0
M  V30 6811 H 658.307 -0.478328 1.9893 0
M  V30 6812 H 658.317 -2.66248 3.09153 0
M  V30 6813 H 656.992 -1.73744 3.7787 0
M  V30 6814 H 655.569 -2.89058 2.35584 0
M  V30 6815 N 657.755 -1.42862 -0.66545 0
M  V30 6816 C 658.718 -1.46756 -1.76055 0
M  V30 6817 C 659.718 -0.353866 -1.56858 0
M  V30 6818 O 660.908 -0.615099 -1.62979 0
M  V30 6819 C 658.04 -1.30829 -3.14796 0
M  V30 6820 H 659.233 -2.44271 -1.73987 0
M  V30 6821 H 656.786 -1.29447 -0.875965 0
M  V30 6822 H 657.521 -0.342733 -3.22484 0
M  V30 6823 H 657.306 -2.11551 -3.30134 0
M  V30 6824 H 658.796 -1.36458 -3.94676 0
M  V30 6825 N 659.233 0.902656 -1.29189 0
M  V30 6826 C 660.479 1.65532 -1.17163 0
M  V30 6827 C 660.812 1.92216 0.276879 0
M  V30 6828 O 660.087 1.53048 1.20027 0
M  V30 6829 C 660.37 3.00629 -1.98228 0
M  V30 6830 C 660.223 2.81029 -3.51202 0
M  V30 6831 C 661.542 4.01321 -1.80635 0
M  V30 6832 H 658.661 0.60071 -0.426985 0
M  V30 6833 H 661.303 1.04578 -1.5863 0
M  V30 6834 H 659.453 3.52656 -1.62991 0
M  V30 6835 H 661.125 2.35927 -3.96404 0
M  V30 6836 H 659.368 2.1587 -3.76275 0
M  V30 6837 H 660.039 3.77014 -4.03192 0
M  V30 6838 H 662.515 3.58394 -2.11406 0
M  V30 6839 H 661.391 4.93792 -2.3971 0
M  V30 6840 H 661.652 4.35505 -0.760754 0
M  V30 6841 N 660.711 1.11618 1.11262 0
M  V30 6842 C 662.122 0.881942 1.64556 0
M  V30 6843 C 662.473 -0.585442 1.87262 0
M  V30 6844 O 661.598 -1.44795 1.60821 0
M  V30 6845 C 662.193 1.59446 2.98935 0
M  V30 6846 C 660.752 1.40661 3.4913 0
M  V30 6847 C 659.899 1.63593 2.23903 0
M  V30 6848 H 662.85 1.27217 0.94877 0
M  V30 6849 H 662.871 1.04054 3.65996 0
M  V30 6850 H 662.383 2.66241 2.82378 0
M  V30 6851 H 660.484 0.360835 3.70849 0
M  V30 6852 H 660.597 2.15693 4.27801 0
M  V30 6853 H 658.961 1.05944 2.3162 0
M  V30 6854 H 659.744 2.71666 2.09886 0
M  V30 6855 N 662.189 -1.289 0.906776 0
M  V30 6856 C 663.119 -2.29932 0.406659 0
M  V30 6857 C 664.1 -1.6189 -0.522061 0
M  V30 6858 O 665.285 -1.8935 -0.431283 0
M  V30 6859 C 662.415 -3.45425 -0.360366 0
M  V30 6860 C 661.369 -4.25316 0.478574 0
M  V30 6861 C 660.695 -5.33076 -0.416373 0
M  V30 6862 C 661.995 -4.92739 1.7322 0
M  V30 6863 H 663.689 -2.72013 1.25097 0
M  V30 6864 H 661.235 -1.30768 0.602977 0
M  V30 6865 H 663.188 -4.15186 -0.721029 0
M  V30 6866 H 661.912 -3.02206 -1.23852 0
M  V30 6867 H 660.571 -3.57273 0.821662 0
M  V30 6868 H 660.219 -4.86101 -1.29287 0
M  V30 6869 H 659.919 -5.8743 0.141309 0
M  V30 6870 H 661.443 -6.05686 -0.773072 0
M  V30 6871 H 662.857 -5.54898 1.44086 0
M  V30 6872 H 661.254 -5.57057 2.23175 0
M  V30 6873 H 662.324 -4.17625 2.46408 0
M  V30 6874 N 663.667 -0.670007 -1.42649 0
M  V30 6875 C 664.944 -0.119451 -1.95235 0
M  V30 6876 C 665.324 1.36461 -1.61064 0
M  V30 6877 O 664.672 2.09843 -0.904329 0
M  V30 6878 C 664.882 -0.383498 -3.46887 0
M  V30 6879 C 666.23 -0.297431 -4.23557 0
M  V30 6880 O 667.254 -0.31698 -3.54787 0
M  V30 6881 O 666.113 -0.235507 -5.45992 0
M  V30 6882 H 663.207 -8.85474e-05 -0.827 0
M  V30 6883 H 665.753 -0.744406 -1.52501 0
M  V30 6884 H 664.525 -1.41174 -3.64946 0
M  V30 6885 H 664.148 0.273702 -3.96657 0
M  V30 6886 N 665.145 1.52092 -0.413018 0
M  V30 6887 C 666.055 2.30858 0.417318 0
M  V30 6888 C 667.071 1.38746 1.05003 0
M  V30 6889 O 668.247 1.71821 1.05069 0
M  V30 6890 C 665.312 3.11756 1.51687 0
M  V30 6891 C 664.373 4.19613 0.906825 0
M  V30 6892 C 663.606 4.96644 1.95399 0
M  V30 6893 O 663.829 4.7402 3.17271 0
M  V30 6894 O 662.763 5.81385 1.55805 0
M  V30 6895 H 666.589 3.02865 -0.225028 0
M  V30 6896 H 664.174 1.48358 -0.176126 0
M  V30 6897 H 666.056 3.62122 2.15512 0
M  V30 6898 H 664.731 2.42539 2.14375 0
M  V30 6899 H 663.638 3.73385 0.231183 0
M  V30 6900 H 664.971 4.91134 0.323814 0
M  V30 6901 N 666.623 0.143563 1.56945 0
M  V30 6902 C 667.533 -0.810562 2.20152 0
M  V30 6903 C 668.549 -1.27431 1.1848 0
M  V30 6904 O 669.725 -1.33221 1.51044 0
M  V30 6905 C 666.79 -2.03353 2.80799 0
M  V30 6906 C 665.851 -1.61936 3.97587 0
M  V30 6907 C 665.084 -2.78403 4.55332 0
M  V30 6908 O 665.307 -3.94521 4.11958 0
M  V30 6909 O 664.241 -2.54073 5.45647 0
M  V30 6910 H 668.067 -0.30253 3.02189 0
M  V30 6911 H 665.652 -0.0832925 1.49168 0
M  V30 6912 H 667.534 -2.74932 3.19359 0
M  V30 6913 H 666.209 -2.53116 2.01777 0
M  V30 6914 H 665.116 -0.873904 3.6375 0
M  V30 6915 H 666.449 -1.16892 4.78118 0
M  V30 6916 N 668.101 -1.57061 -0.130224 0
M  V30 6917 C 669.329 -1.88432 -0.854456 0
M  V30 6918 C 669.744 -0.733608 -1.73964 0
M  V30 6919 O 669.101 0.296029 -1.80083 0
M  V30 6920 C 669.152 -3.1918 -1.69724 0
M  V30 6921 O 668.873 -4.2982 -0.847705 0
M  V30 6922 C 670.374 -3.6418 -2.5276 0
M  V30 6923 H 667.594 -0.624193 -0.246221 0
M  V30 6924 H 670.138 -2.04159 -0.11798 0
M  V30 6925 H 668.293 -3.05156 -2.3866 0
M  V30 6926 H 668.707 -5.04689 -1.42792 0
M  V30 6927 H 670.181 -4.58457 -3.07443 0
M  V30 6928 H 670.658 -2.90285 -3.29592 0
M  V30 6929 H 671.264 -3.80954 -1.89087 0
M  V30 6930 N 669.579 0.400081 -1.52437 0
M  V30 6931 C 670.529 1.48734 -1.72807 0
M  V30 6932 C 671.513 1.50004 -0.582032 0
M  V30 6933 O 672.705 1.55828 -0.839449 0
M  V30 6934 C 669.834 2.86568 -1.89034 0
M  V30 6935 C 668.92 2.8991 -3.09537 0
M  V30 6936 N 669.311 2.62937 -4.32086 0
M  V30 6937 C 667.609 3.21078 -3.09556 0
M  V30 6938 C 668.31 2.73079 -5.13617 0
M  V30 6939 N 667.286 3.06342 -4.49061 0
M  V30 6940 H 671.088 1.26689 -2.65193 0
M  V30 6941 H 668.602 0.607902 -1.50593 0
M  V30 6942 H 670.599 3.64834 -2.01746 0
M  V30 6943 H 669.259 3.09604 -0.978547 0
M  V30 6944 H 670.27 2.37163 -4.60406 0
M  V30 6945 H 666.947 3.49651 -2.28146 0
M  V30 6946 H 668.337 2.55863 -6.21276 0
M  V30 6947 N 671.057 1.43213 0.657864 0
M  V30 6948 C 672.02 1.47687 1.75275 0
M  V30 6949 C 673.02 0.362179 1.56668 0
M  V30 6950 O 674.21 0.623734 1.62651 0
M  V30 6951 C 671.342 1.32497 3.14098 0
M  V30 6952 H 672.535 2.4519 1.7269 0
M  V30 6953 H 670.088 1.2991 0.869087 0
M  V30 6954 H 670.823 0.359831 3.22298 0
M  V30 6955 H 670.608 2.13299 3.29008 0
M  V30 6956 H 672.098 1.38549 3.93946 0
M  V30 6957 N 672.536 -0.895792 1.29666 0
M  V30 6958 C 673.784 -1.64339 1.17631 0
M  V30 6959 C 674.105 -1.93099 -0.271643 0
M  V30 6960 O 673.375 -1.55981 -1.18518 0
M  V30 6961 H 671.955 -0.609162 0.432354 0
M  V30 6962 H 674.617 -1.07389 1.62646 0
M  V30 6963 H 673.713 -2.59815 1.72924 0
M  V30 6964 N 674.014 -1.12206 -1.10668 0
M  V30 6965 C 674.924 -0.800686 -2.20513 0
M  V30 6966 C 675.94 0.209512 -1.72734 0
M  V30 6967 O 677.116 0.043705 -2.01353 0
M  V30 6968 C 674.181 -0.257353 -3.45744 0
M  V30 6969 C 673.242 -1.32718 -4.0827 0
M  V30 6970 C 672.475 -0.809674 -5.27522 0
M  V30 6971 O 672.698 0.35742 -5.69279 0
M  V30 6972 O 671.632 -1.57816 -5.80842 0
M  V30 6973 H 675.458 -1.71807 -2.50432 0
M  V30 6974 H 673.043 -0.898546 -1.19359 0
M  V30 6975 H 674.925 0.0408849 -4.2138 0
M  V30 6976 H 673.6 0.632627 -3.17458 0
M  V30 6977 H 672.507 -1.67855 -3.34329 0
M  V30 6978 H 673.84 -2.19083 -4.40753 0
M  V30 6979 N 675.492 1.28418 -0.913599 0
M  V30 6980 C 676.769 1.89977 -0.465619 0
M  V30 6981 C 677.149 1.82813 1.05559 0
M  V30 6982 O 676.497 1.26397 1.90358 0
M  V30 6983 C 676.707 3.34492 -0.995813 0
M  V30 6984 C 678.055 4.11468 -1.04782 0
M  V30 6985 O 679.079 3.43451 -0.944445 0
M  V30 6986 O 677.938 5.33046 -1.20518 0
M  V30 6987 H 675.032 0.813734 -0.147532 0
M  V30 6988 H 677.578 1.36786 -1.00437 0
M  V30 6989 H 676.35 3.33929 -2.03978 0
M  V30 6990 H 675.973 3.95181 -0.437878 0
M  V30 6991 N 676.97 0.677563 1.42291 0
M  V30 6992 C 678.216 0.201272 2.01799 0
M  V30 6993 C 678.549 -1.19004 1.53465 0
M  V30 6994 O 677.824 -1.79953 0.738039 0
M  V30 6995 C 678.107 0.238968 3.59306 0
M  V30 6996 C 677.96 1.66594 4.17812 0
M  V30 6997 C 679.279 -0.411287 4.38174 0
M  V30 6998 H 676.398 0.0746114 0.733214 0
M  V30 6999 H 679.04 0.862872 1.69276 0
M  V30 7000 H 677.19 -0.324368 3.87144 0
M  V30 7001 H 678.862 2.28173 4.00917 0
M  V30 7002 H 677.105 2.20576 3.73536 0
M  V30 7003 H 677.776 1.64398 5.26951 0
M  V30 7004 H 680.252 0.0682804 4.16044 0
M  V30 7005 H 679.128 -0.354286 5.47755 0
M  V30 7006 H 679.389 -1.4893 4.1626 0
M  V30 7007 N 678.448 -1.51871 0.421078 0
M  V30 7008 C 679.411 -2.25914 -0.386712 0
M  V30 7009 C 680.411 -1.28733 -0.963555 0
M  V30 7010 O 681.601 -1.52579 -0.840556 0
M  V30 7011 C 678.733 -3.03853 -1.54551 0
M  V30 7012 H 679.926 -2.98754 0.261978 0
M  V30 7013 H 677.479 -1.5533 0.173862 0
M  V30 7014 H 678.214 -2.35392 -2.23072 0
M  V30 7015 H 677.999 -3.75215 -1.13824 0
M  V30 7016 H 679.489 -3.59984 -2.11663 0
M  V30 7017 N 679.926 -0.151884 -1.56866 0
M  V30 7018 C 681.172 0.498742 -1.96572 0
M  V30 7019 C 681.505 1.64194 -1.03702 0
M  V30 7020 O 680.78 1.94334 -0.0803432 0
M  V30 7021 C 681.063 1.00027 -3.45929 0
M  V30 7022 C 680.916 -0.141767 -4.49577 0
M  V30 7023 C 682.235 1.88044 -3.97904 0
M  V30 7024 H 679.354 0.17982 -0.714726 0
M  V30 7025 H 681.996 -0.234097 -1.88552 0
M  V30 7026 H 680.146 1.62476 -3.52894 0
M  V30 7027 H 681.818 -0.778269 -4.54687 0
M  V30 7028 H 680.061 -0.80019 -4.26356 0
M  V30 7029 H 680.732 0.250947 -5.51429 0
M  V30 7030 H 683.208 1.35416 -3.93449 0
M  V30 7031 H 682.084 2.20043 -5.02864 0
M  V30 7032 H 682.345 2.81916 -3.40552 0
M  V30 7033 N 681.404 1.57128 0.121893 0
M  V30 7034 C 682.651 1.847 0.830188 0
M  V30 7035 C 682.979 0.736543 1.80015 0
M  V30 7036 O 682.234 -0.272358 1.93796 0
M  V30 7037 C 682.533 3.1874 1.61677 0
M  V30 7038 C 682.199 4.43901 0.791361 0
M  V30 7039 C 680.861 4.77887 0.563731 0
M  V30 7040 C 683.213 5.20753 0.215823 0
M  V30 7041 C 680.541 5.86168 -0.249737 0
M  V30 7042 C 682.893 6.29891 -0.584821 0
M  V30 7043 C 681.557 6.6241 -0.822794 0
M  V30 7044 H 680.827 0.675866 0.303787 0
M  V30 7045 H 683.474 1.91276 0.0926894 0
M  V30 7046 H 681.779 3.07728 2.42509 0
M  V30 7047 H 683.476 3.37295 2.16872 0
M  V30 7048 H 680.066 4.17272 0.978867 0
M  V30 7049 H 684.25 4.94851 0.378907 0
M  V30 7050 H 679.506 6.0979 -0.44336 0
M  V30 7051 H 683.68 6.88624 -1.03779 0
M  V30 7052 H 681.307 7.46147 -1.45496 0
M  V30 7053 N 682.882 -0.391992 1.52647 0
M  V30 7054 C 683.845 -1.46135 1.7657 0
M  V30 7055 C 684.845 -1.47701 0.635698 0
M  V30 7056 O 686.035 -1.48924 0.903728 0
M  V30 7057 C 683.167 -2.85443 1.86374 0
M  V30 7058 H 684.36 -1.26208 2.72051 0
M  V30 7059 H 681.913 -0.623549 1.43323 0
M  V30 7060 H 682.648 -3.10718 0.928685 0
M  V30 7061 H 682.433 -2.85708 2.68539 0
M  V30 7062 H 683.923 -3.62933 2.06566 0
M  V30 7063 N 684.36 -1.4356 -0.65026 0
M  V30 7064 C 685.776 -1.27025 -0.966269 0
M  V30 7065 C 685.976 -0.192117 -2.00582 0
M  V30 7066 O 685.032 0.428459 -2.48838 0
M  V30 7067 C 686.345 -2.63556 -1.44772 0
M  V30 7068 C 687.893 -2.71111 -1.56421 0
M  V30 7069 C 688.368 -4.08067 -2.07956 0
M  V30 7070 N 689.859 -4.10146 -2.15254 0
M  V30 7071 C 690.594 -5.12952 -2.56258 0
M  V30 7072 N 690.09 -6.26129 -2.96537 0
M  V30 7073 N 691.883 -5.00306 -2.56224 0
M  V30 7074 H 684.034 -2.12367 0.0375758 0
M  V30 7075 H 686.297 -0.946894 -0.0457782 0
M  V30 7076 H 686.003 -3.43429 -0.758271 0
M  V30 7077 H 685.877 -2.89152 -2.42221 0
M  V30 7078 H 688.264 -1.91569 -2.24467 0
M  V30 7079 H 688.345 -2.49277 -0.573967 0
M  V30 7080 H 687.989 -4.88077 -1.40511 0
M  V30 7081 H 687.919 -4.27266 -3.07817 0
M  V30 7082 H 690.41 -3.28453 -1.86887 0
M  V30 7083 H 690.723 -7.00403 -3.26582 0
M  V30 7084 H 689.068 -6.29597 -2.94334 0
M  V30 7085 H 692.259 -4.10952 -2.24135 0
M  V30 7086 H 692.432 -5.80553 -2.87857 0
M  V30 7087 N 685.838 0.888903 -1.30139 0
M  V30 7088 C 687.086 1.63713 -1.18501 0
M  V30 7089 C 687.407 1.9324 0.261399 0
M  V30 7090 O 686.677 1.56608 1.17689 0
M  V30 7091 H 685.257 0.606861 -0.435579 0
M  V30 7092 H 687.919 1.06525 -1.63213 0
M  V30 7093 H 687.015 2.58894 -1.743 0
M  V30 7094 N 687.317 1.12792 1.10072 0
M  V30 7095 C 688.728 0.899346 1.63611 0
M  V30 7096 C 689.079 -0.565547 1.87872 0
M  V30 7097 O 688.204 -1.43081 1.62348 0
M  V30 7098 C 688.799 1.62608 2.97227 0
M  V30 7099 C 687.358 1.44356 3.47618 0
M  V30 7100 C 686.505 1.65958 2.22156 0
M  V30 7101 H 689.456 1.28216 0.935223 0
M  V30 7102 H 689.477 1.0793 3.64872 0
M  V30 7103 H 688.989 2.69221 2.79538 0
M  V30 7104 H 687.09 0.400148 3.70445 0
M  V30 7105 H 687.203 2.20218 4.25489 0
M  V30 7106 H 685.567 1.08395 2.30484 0
M  V30 7107 H 686.35 2.73877 2.06993 0
M  V30 7108 N 688.795 -1.27931 0.920396 0
M  V30 7109 C 689.727 -2.26175 0.371169 0
M  V30 7110 C 690.74 -1.55122 -0.494065 0
M  V30 7111 O 691.929 -1.75825 -0.30787 0
M  V30 7112 C 689.029 -3.35376 -0.487481 0
M  V30 7113 C 688.202 -4.35943 0.356772 0
M  V30 7114 C 687.261 -5.24374 -0.438042 0
M  V30 7115 O 686.287 -5.68998 0.151715 0
M  V30 7116 N 687.489 -5.53823 -1.73956 0
M  V30 7117 H 690.254 -2.73938 1.21564 0
M  V30 7118 H 687.815 -1.41482 0.787047 0
M  V30 7119 H 689.807 -3.91476 -1.02609 0
M  V30 7120 H 688.377 -2.87269 -1.23269 0
M  V30 7121 H 687.597 -3.7921 1.07672 0
M  V30 7122 H 688.885 -5.0015 0.934206 0
M  V30 7123 H 688.283 -5.19413 -2.24114 0
M  V30 7124 H 686.84 -6.12653 -2.22486 0
M  V30 7125 N 690.273 -0.685099 -1.4193 0
M  V30 7126 C 691.236 -0.0222632 -2.29189 0
M  V30 7127 C 692.236 0.7186 -1.4385 0
M  V30 7128 O 693.426 0.555058 -1.6512 0
M  V30 7129 C 690.558 0.979013 -3.2654 0
M  V30 7130 H 691.751 -0.790424 -2.89296 0
M  V30 7131 H 689.304 -0.448012 -1.49742 0
M  V30 7132 H 690.039 1.77531 -2.71392 0
M  V30 7133 H 689.824 0.451037 -3.89497 0
M  V30 7134 H 691.314 1.44091 -3.91954 0
M  V30 7135 N 691.751 1.51645 -0.429126 0
M  V30 7136 C 692.701 2.24388 0.404217 0
M  V30 7137 C 693.685 1.26294 0.996933 0
M  V30 7138 O 694.877 1.51428 0.916434 0
M  V30 7139 C 692.006 3.08338 1.50938 0
M  V30 7140 C 691.092 4.13857 0.926464 0
M  V30 7141 N 691.483 5.05749 0.0719732 0
M  V30 7142 C 689.781 4.29695 1.19491 0
M  V30 7143 C 690.482 5.81143 -0.254528 0
M  V30 7144 N 689.458 5.42408 0.359763 0
M  V30 7145 H 693.26 2.92794 -0.254697 0
M  V30 7146 H 690.774 1.60606 -0.240712 0
M  V30 7147 H 692.771 3.59022 2.11918 0
M  V30 7148 H 691.431 2.41475 2.17072 0
M  V30 7149 H 692.442 5.17066 -0.293854 0
M  V30 7150 H 689.119 3.74059 1.85434 0
M  V30 7151 H 690.509 6.65159 -0.949365 0
M  V30 7152 N 693.229 0.160201 1.56784 0
M  V30 7153 C 694.159 -0.770264 2.2043 0
M  V30 7154 C 695.14 -1.24736 1.15651 0
M  V30 7155 O 696.325 -1.30253 1.44041 0
M  V30 7156 C 693.455 -2.00427 2.83631 0
M  V30 7157 C 692.409 -1.66345 3.94352 0
M  V30 7158 C 691.735 -2.97119 4.4455 0
M  V30 7159 C 693.035 -0.899972 5.14488 0
M  V30 7160 H 694.729 -0.239783 2.98438 0
M  V30 7161 H 692.275 -0.113891 1.43549 0
M  V30 7162 H 694.228 -2.66012 3.26827 0
M  V30 7163 H 692.952 -2.5587 2.02973 0
M  V30 7164 H 691.611 -1.03133 3.51794 0
M  V30 7165 H 691.259 -3.5058 3.60698 0
M  V30 7166 H 690.959 -2.75073 5.19238 0
M  V30 7167 H 692.483 -3.63753 4.90425 0
M  V30 7168 H 693.897 -1.45818 5.54446 0
M  V30 7169 H 692.294 -0.778968 5.95023 0
M  V30 7170 H 693.364 0.105827 4.84785 0
M  V30 7171 N 694.707 -1.5719 -0.113559 0
M  V30 7172 C 695.953 -1.85412 -0.821597 0
M  V30 7173 C 696.286 -0.746722 -1.7927 0
M  V30 7174 O 695.561 0.246971 -1.92926 0
M  V30 7175 C 695.844 -3.24233 -1.56669 0
M  V30 7176 C 695.697 -4.45578 -0.614823 0
M  V30 7177 C 697.016 -3.60697 -2.52161 0
M  V30 7178 H 694.135 -0.674406 -0.29723 0
M  V30 7179 H 696.777 -1.89807 -0.085694 0
M  V30 7180 H 694.927 -3.20617 -2.19401 0
M  V30 7181 H 696.599 -4.613 0.00407137 0
M  V30 7182 H 694.842 -4.33738 0.0732332 0
M  V30 7183 H 695.513 -5.39395 -1.17292 0
M  V30 7184 H 697.989 -3.65139 -1.99532 0
M  V30 7185 H 696.865 -4.58798 -3.01323 0
M  V30 7186 H 697.126 -2.88403 -3.35076 0
M  V30 7187 N 696.185 0.383891 -1.52853 0
M  V30 7188 C 697.135 1.46892 -1.74375 0
M  V30 7189 C 698.119 1.49378 -0.597909 0
M  V30 7190 O 699.311 1.54929 -0.855929 0
M  V30 7191 C 696.44 2.84547 -1.92063 0
M  V30 7192 C 695.526 2.8661 -3.12594 0
M  V30 7193 N 695.917 2.58339 -4.3485 0
M  V30 7194 C 694.215 3.17777 -3.12944 0
M  V30 7195 C 694.916 2.67616 -5.16485 0
M  V30 7196 N 693.892 3.01561 -4.52285 0
M  V30 7197 H 697.694 1.23869 -2.66522 0
M  V30 7198 H 695.208 0.591895 -1.51229 0
M  V30 7199 H 697.205 3.62674 -2.05604 0
M  V30 7200 H 695.865 3.08549 -1.01133 0
M  V30 7201 H 696.876 2.32266 -4.62896 0
M  V30 7202 H 693.553 3.47211 -2.31842 0
M  V30 7203 H 694.943 2.4926 -6.23955 0
M  V30 7204 N 697.663 1.43903 0.642637 0
M  V30 7205 C 698.911 1.45791 1.39962 0
M  V30 7206 C 699.232 0.0873144 1.94804 0
M  V30 7207 O 698.502 -0.878825 1.75081 0
M  V30 7208 H 697.082 0.536797 0.519479 0
M  V30 7209 H 699.744 1.7959 0.757189 0
M  V30 7210 H 698.84 2.17665 2.2367 0
M  V30 7211 N 699.141 -0.881989 1.30609 0
M  V30 7212 C 700.387 -1.63647 1.19781 0
M  V30 7213 C 700.72 -1.92632 -0.246265 0
M  V30 7214 O 699.995 -1.54938 -1.17577 0
M  V30 7215 C 700.278 -2.97437 2.02985 0
M  V30 7216 C 700.131 -2.75406 3.55628 0
M  V30 7217 C 701.45 -3.98397 1.86997 0
M  V30 7218 H 698.569 -0.593841 0.436488 0
M  V30 7219 H 701.211 -1.02041 1.60273 0
M  V30 7220 H 699.361 -3.50018 1.68581 0
M  V30 7221 H 701.033 -2.2959 4.00107 0
M  V30 7222 H 699.276 -2.09856 3.79662 0
M  V30 7223 H 699.947 -3.70552 4.09139 0
M  V30 7224 H 702.423 -3.54986 2.17081 0
M  V30 7225 H 701.299 -4.89916 2.47536 0
M  V30 7226 H 701.56 -4.3424 0.829943 0
M  V30 7227 N 700.619 -1.13374 -1.09472 0
M  V30 7228 C 701.551 -0.768466 -2.15933 0
M  V30 7229 C 702.564 0.209585 -1.61445 0
M  V30 7230 O 703.753 -0.010539 -1.78497 0
M  V30 7231 C 700.853 -0.118266 -3.38694 0
M  V30 7232 C 700.026 -1.12829 -4.22597 0
M  V30 7233 C 699.085 -0.503875 -5.23782 0
M  V30 7234 O 698.111 -1.16374 -5.57177 0
M  V30 7235 N 699.313 0.724288 -5.75964 0
M  V30 7236 H 702.078 -1.68457 -2.47876 0
M  V30 7237 H 699.639 -1.02668 -1.25183 0
M  V30 7238 H 701.631 0.311698 -4.03498 0
M  V30 7239 H 700.201 0.700769 -3.04644 0
M  V30 7240 H 699.421 -1.73556 -3.53938 0
M  V30 7241 H 700.709 -1.81095 -4.75481 0
M  V30 7242 H 700.107 1.27918 -5.51048 0
M  V30 7243 H 698.664 1.09692 -6.42504 0
M  V30 7244 N 702.098 1.27442 -0.927168 0
M  V30 7245 C 703.008 2.30599 -0.431448 0
M  V30 7246 C 704.024 1.67028 0.48761 0
M  V30 7247 O 705.2 1.97962 0.370546 0
M  V30 7248 C 702.265 3.45327 0.308292 0
M  V30 7249 C 701.326 4.24418 -0.645615 0
M  V30 7250 C 700.559 5.33667 0.0589164 0
M  V30 7251 O 700.782 5.5589 1.27838 0
M  V30 7252 O 699.716 5.98774 -0.612638 0
M  V30 7253 H 703.542 2.75036 -1.28797 0
M  V30 7254 H 701.127 1.32382 -0.692495 0
M  V30 7255 H 703.009 4.15107 0.725555 0
M  V30 7256 H 701.684 3.02945 1.14043 0
M  V30 7257 H 700.591 3.57174 -1.11255 0
M  V30 7258 H 701.924 4.70512 -1.44496 0
M  V30 7259 N 703.576 0.692616 1.41565 0
M  V30 7260 C 704.508 -0.0137132 2.29196 0
M  V30 7261 C 705.521 -0.747417 1.44629 0
M  V30 7262 O 706.71 -0.598611 1.68163 0
M  V30 7263 C 703.81 -1.04347 3.22436 0
M  V30 7264 C 702.983 -0.379985 4.35746 0
M  V30 7265 C 702.042 -1.31195 5.09583 0
M  V30 7266 O 701.068 -0.805455 5.63472 0
M  V30 7267 N 702.27 -2.64443 5.16769 0
M  V30 7268 H 705.035 0.738614 2.90456 0
M  V30 7269 H 702.596 0.538415 1.52685 0
M  V30 7270 H 704.588 -1.6686 3.687 0
M  V30 7271 H 703.158 -1.69736 2.62504 0
M  V30 7272 H 702.378 0.424975 3.91903 0
M  V30 7273 H 703.666 0.0814904 5.08735 0
M  V30 7274 H 703.064 -3.08114 4.74428 0
M  V30 7275 H 701.621 -3.22159 5.66619 0
M  V30 7276 N 705.054 -1.51416 0.437162 0
M  V30 7277 C 706.282 -2.06503 -0.128045 0
M  V30 7278 C 706.697 -1.30461 -1.36475 0
M  V30 7279 O 706.054 -0.364127 -1.78831 0
M  V30 7280 C 706.105 -3.58683 -0.450437 0
M  V30 7281 O 705.826 -4.31853 0.737186 0
M  V30 7282 C 707.327 -4.30284 -1.06633 0
M  V30 7283 H 704.547 -0.670952 -0.00800269 0
M  V30 7284 H 707.091 -1.94996 0.616193 0
M  V30 7285 H 705.246 -3.70106 -1.14457 0
M  V30 7286 H 705.66 -5.22467 0.461347 0
M  V30 7287 H 707.134 -5.37848 -1.24191 0
M  V30 7288 H 707.611 -3.88564 -2.0473 0
M  V30 7289 H 708.217 -4.23304 -0.411585 0
M  V30 7290 N 706.532 -0.168513 -1.56696 0
M  V30 7291 C 707.779 0.477158 -1.96798 0
M  V30 7292 C 708.107 1.63442 -1.05437 0
M  V30 7293 O 707.362 1.95503 -0.0878903 0
M  V30 7294 C 707.661 1.00441 -3.42996 0
M  V30 7295 C 707.327 -0.0366556 -4.50885 0
M  V30 7296 C 705.989 -0.322785 -4.80116 0
M  V30 7297 C 708.341 -0.743447 -5.1587 0
M  V30 7298 C 705.669 -1.32114 -5.71632 0
M  V30 7299 C 708.021 -1.73077 -6.08463 0
M  V30 7300 C 706.685 -2.02437 -6.36062 0
M  V30 7301 H 705.955 0.174604 -0.720135 0
M  V30 7302 H 708.602 -0.259884 -1.89728 0
M  V30 7303 H 706.907 1.81922 -3.47004 0
M  V30 7304 H 708.604 1.51294 -3.71364 0
M  V30 7305 H 705.194 0.196532 -4.28149 0
M  V30 7306 H 709.378 -0.535602 -4.93401 0
M  V30 7307 H 704.634 -1.55482 -5.913 0
M  V30 7308 H 708.808 -2.28382 -6.57886 0
M  V30 7309 H 706.435 -2.79946 -7.06777 0
M  V30 7310 N 708.01 1.57248 0.105221 0
M  V30 7311 C 709.259 1.84756 0.809198 0
M  V30 7312 C 709.572 0.756262 1.80389 0
M  V30 7313 O 710.778 0.918158 2.55504 0
M  V30 7314 C 709.234 3.27613 1.48989 0
M  V30 7315 C 708.842 4.44788 0.535484 0
M  V30 7316 C 710.586 3.64356 2.17819 0
M  V30 7317 C 708.493 5.78676 1.22019 0
M  V30 7318 H 707.423 0.689139 0.305946 0
M  V30 7319 H 710.074 1.83395 0.0620371 0
M  V30 7320 H 708.456 3.23485 2.28415 0
M  V30 7321 H 709.63 4.60243 -0.226557 0
M  V30 7322 H 707.945 4.16374 -0.0465769 0
M  V30 7323 H 710.542 4.61663 2.69761 0
M  V30 7324 H 710.885 2.92474 2.96251 0
M  V30 7325 H 711.418 3.70328 1.45264 0
M  V30 7326 H 708.157 6.53763 0.476875 0
M  V30 7327 H 707.677 5.67083 1.9539 0
M  V30 7328 H 709.356 6.22897 1.74952 0
M  V30 7329 N 709.488 -0.375779 1.53054 0
M  V30 7330 C 710.451 -1.44254 1.7811 0
M  V30 7331 C 711.451 -1.47018 0.651328 0
M  V30 7332 O 712.641 -1.47957 0.919472 0
M  V30 7333 C 709.773 -2.8345 1.89391 0
M  V30 7334 H 710.966 -1.23316 2.73374 0
M  V30 7335 H 708.519 -0.608312 1.43977 0
M  V30 7336 H 709.254 -3.09716 0.961589 0
M  V30 7337 H 709.039 -2.82844 2.71555 0
M  V30 7338 H 710.529 -3.60722 2.10404 0
M  V30 7339 N 710.966 -1.44241 -0.634997 0
M  V30 7340 C 711.916 -1.47247 -1.74076 0
M  V30 7341 C 712.9 -0.338708 -1.57295 0
M  V30 7342 O 714.092 -0.583751 -1.67097 0
M  V30 7343 C 711.221 -1.41579 -3.12746 0
M  V30 7344 C 710.307 -2.60055 -3.35011 0
M  V30 7345 N 710.698 -3.85321 -3.27661 0
M  V30 7346 C 708.996 -2.55168 -3.65794 0
M  V30 7347 C 709.697 -4.64241 -3.50508 0
M  V30 7348 N 708.673 -3.95254 -3.73196 0
M  V30 7349 H 712.475 -2.4195 -1.66845 0
M  V30 7350 H 709.989 -1.3915 -0.837326 0
M  V30 7351 H 711.986 -1.41816 -3.92038 0
M  V30 7352 H 710.646 -0.479108 -3.21146 0
M  V30 7353 H 711.657 -4.17345 -3.06665 0
M  V30 7354 H 708.334 -1.70276 -3.81198 0
M  V30 7355 H 709.724 -5.73267 -3.50449 0
M  V30 7356 N 712.444 0.87505 -1.31075 0
M  V30 7357 C 713.69 1.63009 -1.20647 0
M  V30 7358 C 714.023 1.9276 0.236045 0
M  V30 7359 O 713.298 1.55559 1.16754 0
M  V30 7360 C 713.581 2.96357 -2.0456 0
M  V30 7361 C 713.434 2.73516 -3.57084 0
M  V30 7362 C 714.753 3.974 -1.89107 0
M  V30 7363 H 711.872 0.591518 -0.439631 0
M  V30 7364 H 714.514 1.0119 -1.60812 0
M  V30 7365 H 712.664 3.49119 -1.70435 0
M  V30 7366 H 714.336 2.27465 -4.01319 0
M  V30 7367 H 712.579 2.0784 -3.80769 0
M  V30 7368 H 713.25 3.68377 -4.11099 0
M  V30 7369 H 715.726 3.5383 -2.18961 0
M  V30 7370 H 714.602 4.88596 -2.5013 0
M  V30 7371 H 714.863 4.33794 -0.85296 0
M  V30 7372 N 713.922 1.13953 1.08869 0
M  V30 7373 C 714.855 0.765765 2.14968 0
M  V30 7374 C 715.833 -0.250689 1.60656 0
M  V30 7375 O 717.017 -0.140852 1.87973 0
M  V30 7376 C 714.144 0.136146 3.38426 0
M  V30 7377 C 713.19 1.12201 4.11477 0
M  V30 7378 S 714.023 2.65711 4.64928 0
M  V30 7379 C 715.179 2.04125 5.91679 0
M  V30 7380 H 715.412 1.66444 2.46341 0
M  V30 7381 H 712.945 0.960263 1.20906 0
M  V30 7382 H 714.903 -0.220712 4.09906 0
M  V30 7383 H 713.564 -0.739887 3.05261 0
M  V30 7384 H 712.757 0.629398 5.00055 0
M  V30 7385 H 712.359 1.42262 3.45886 0
M  V30 7386 H 714.651 1.39381 6.63008 0
M  V30 7387 H 715.594 2.90808 6.45629 0
M  V30 7388 H 716.002 1.4905 5.44467 0
M  V30 7389 N 715.4 -1.26948 0.933913 0
M  V30 7390 C 716.363 -2.24889 0.442457 0
M  V30 7391 C 717.363 -1.54594 -0.442426 0
M  V30 7392 O 718.553 -1.72502 -0.242629 0
M  V30 7393 C 715.685 -3.3896 -0.363173 0
M  V30 7394 H 716.878 -2.69879 1.30787 0
M  V30 7395 H 714.431 -1.38978 0.715187 0
M  V30 7396 H 715.166 -2.99361 -1.24714 0
M  V30 7397 H 714.951 -3.9116 0.271366 0
M  V30 7398 H 716.441 -4.11739 -0.697186 0
M  V30 7399 N 716.879 -0.700114 -1.41195 0
M  V30 7400 C 718.126 -0.233006 -2.01155 0
M  V30 7401 C 718.454 1.16883 -1.55462 0
M  V30 7402 O 717.709 1.80395 -0.758695 0
M  V30 7403 C 718.008 -0.243986 -3.56566 0
M  V30 7404 C 717.674 -1.59397 -4.21786 0
M  V30 7405 C 716.336 -1.96355 -4.39316 0
M  V30 7406 C 718.688 -2.48192 -4.58312 0
M  V30 7407 C 716.016 -3.21683 -4.9065 0
M  V30 7408 C 718.368 -3.72857 -5.11039 0
M  V30 7409 C 717.032 -4.09951 -5.26779 0
M  V30 7410 H 716.302 -0.085263 -0.736078 0
M  V30 7411 H 718.949 -0.9001 -1.69028 0
M  V30 7412 H 717.254 0.506663 -3.8851 0
M  V30 7413 H 718.951 0.135031 -4.00773 0
M  V30 7414 H 715.541 -1.29654 -4.08519 0
M  V30 7415 H 719.725 -2.20918 -4.4442 0
M  V30 7416 H 714.981 -3.50412 -5.01021 0
M  V30 7417 H 719.155 -4.41844 -5.38282 0
M  V30 7418 H 716.782 -5.07136 -5.66319 0
M  V30 7419 N 718.357 1.51182 -0.445186 0
M  V30 7420 C 719.32 2.26501 0.350722 0
M  V30 7421 C 720.32 1.3025 0.942952 0
M  V30 7422 O 721.51 1.53897 0.816175 0
M  V30 7423 C 718.642 3.06274 1.49697 0
M  V30 7424 H 719.835 2.98299 -0.309474 0
M  V30 7425 H 717.388 1.55034 -0.198551 0
M  V30 7426 H 718.123 2.38911 2.19299 0
M  V30 7427 H 717.908 3.76979 1.0784 0
M  V30 7428 H 719.398 3.63306 2.05909 0
M  V30 7429 N 719.835 0.176821 1.56605 0
M  V30 7430 C 720.798 -0.737429 2.17013 0
M  V30 7431 C 721.798 -1.15414 1.11965 0
M  V30 7432 O 722.988 -1.0702 1.37449 0
M  V30 7433 C 720.12 -2.00445 2.75744 0
M  V30 7434 H 721.313 -0.211455 2.99154 0
M  V30 7435 H 718.866 -0.0727582 1.56131 0
M  V30 7436 H 719.601 -2.57338 1.97352 0
M  V30 7437 H 719.386 -1.71456 3.52626 0
M  V30 7438 H 720.876 -2.65679 3.22187 0
M  V30 7439 N 721.313 -1.57302 -0.09688 0
M  V30 7440 C 722.553 -1.87823 -0.806334 0
M  V30 7441 C 722.917 -0.767593 -1.75989 0
M  V30 7442 O 724.118 -0.955173 -2.51257 0
M  V30 7443 C 722.389 -3.23585 -1.51749 0
M  V30 7444 S 723.948 -3.75795 -2.26547 0
M  V30 7445 H 720.766 -0.658281 -0.268676 0
M  V30 7446 H 723.368 -1.95397 -0.0635476 0
M  V30 7447 H 722.072 -4.0234 -0.809348 0
M  V30 7448 H 721.603 -3.19145 -2.30021 0
M  V30 7449 H 723.618 -3.49068 -3.52656 0
M  V30 7450 N 722.791 0.367657 -1.53252 0
M  V30 7451 C 723.721 1.45632 -1.8252 0
M  V30 7452 C 724.702 1.55979 -0.678568 0
M  V30 7453 O 725.887 1.70581 -0.928217 0
M  V30 7454 C 723.017 2.82994 -2.01325 0
M  V30 7455 C 721.971 2.87473 -3.17086 0
M  V30 7456 C 721.297 4.2749 -3.21179 0
M  V30 7457 C 722.597 2.55182 -4.55719 0
M  V30 7458 H 724.291 1.21387 -2.73689 0
M  V30 7459 H 721.837 0.58251 -1.31692 0
M  V30 7460 H 723.79 3.59179 -2.20383 0
M  V30 7461 H 722.514 3.08622 -1.06864 0
M  V30 7462 H 721.173 2.13739 -2.97844 0
M  V30 7463 H 720.821 4.5019 -2.24361 0
M  V30 7464 H 720.521 4.31403 -3.98955 0
M  V30 7465 H 722.045 5.0555 -3.42419 0
M  V30 7466 H 723.459 3.21081 -4.74953 0
M  V30 7467 H 721.856 2.70414 -5.3572 0
M  V30 7468 H 722.926 1.5044 -4.60973 0
M  V30 7469 N 724.269 1.44576 0.627338 0
M  V30 7470 C 725.179 1.54232 1.76776 0
M  V30 7471 C 726.195 0.427782 1.6866 0
M  V30 7472 O 727.371 0.685671 1.89369 0
M  V30 7473 C 724.436 1.48738 3.13174 0
M  V30 7474 C 723.497 2.71074 3.32893 0
M  V30 7475 C 722.73 2.65832 4.62784 0
M  V30 7476 O 722.953 1.72048 5.43834 0
M  V30 7477 O 721.887 3.56742 4.84787 0
M  V30 7478 H 725.713 2.50586 1.71582 0
M  V30 7479 H 723.298 1.26865 0.789028 0
M  V30 7480 H 725.18 1.48211 3.94476 0
M  V30 7481 H 723.855 0.555292 3.18902 0
M  V30 7482 H 722.762 2.77168 2.51254 0
M  V30 7483 H 724.095 3.63342 3.32029 0
M  V30 7484 N 725.747 -0.868086 1.31537 0
M  V30 7485 C 727.158 -1.437 1.19195 0
M  V30 7486 C 727.509 -1.95169 -0.200842 0
M  V30 7487 O 726.634 -1.86432 -1.09872 0
M  V30 7488 C 727.229 -2.612 2.15778 0
M  V30 7489 C 725.788 -3.1413 2.07363 0
M  V30 7490 C 724.935 -1.86845 2.049 0
M  V30 7491 H 727.886 -0.676457 1.43561 0
M  V30 7492 H 727.907 -3.37948 1.74847 0
M  V30 7493 H 727.419 -2.23709 3.17137 0
M  V30 7494 H 725.52 -3.56238 1.09204 0
M  V30 7495 H 725.633 -3.76285 2.96557 0
M  V30 7496 H 723.997 -2.05886 1.49943 0
M  V30 7497 H 724.78 -1.51589 3.08019 0
M  V30 7498 N 727.225 -1.14528 -1.08264 0
M  V30 7499 C 728.455 -0.936604 -1.8415 0
M  V30 7500 C 728.863 0.518298 -1.81962 0
M  V30 7501 O 728.206 1.37096 -1.22272 0
M  V30 7502 C 728.268 -1.36182 -3.32708 0
M  V30 7503 C 727.932 -2.83257 -3.58629 0
M  V30 7504 C 728.929 -3.81366 -3.5335 0
M  V30 7505 C 726.614 -3.20704 -3.86593 0
M  V30 7506 C 728.608 -5.14929 -3.75668 0
M  V30 7507 C 726.295 -4.54443 -4.08564 0
M  V30 7508 C 727.293 -5.51365 -4.03095 0
M  V30 7509 O 726.981 -6.8269 -4.24488 0
M  V30 7510 H 726.713 -0.333254 -0.588148 0
M  V30 7511 H 729.267 -1.5247 -1.3763 0
M  V30 7512 H 727.497 -0.717063 -3.79994 0
M  V30 7513 H 729.186 -1.12372 -3.90035 0
M  V30 7514 H 729.952 -3.53781 -3.31759 0
M  V30 7515 H 725.831 -2.45857 -3.89969 0
M  V30 7516 H 729.375 -5.90568 -3.71315 0
M  V30 7517 H 725.272 -4.81747 -4.29639 0
M  V30 7518 H 726.04 -6.8897 -4.41886 0
M  V30 7519 N 728.703 1.26451 -0.940633 0
M  V30 7520 C 729.931 1.97868 -0.604642 0
M  V30 7521 C 730.346 1.70051 0.820251 0
M  V30 7522 O 729.703 0.96843 1.54686 0
M  V30 7523 C 729.754 3.51684 -0.836689 0
M  V30 7524 O 729.475 3.78533 -2.20554 0
M  V30 7525 C 730.976 4.40343 -0.511169 0
M  V30 7526 H 728.196 0.631105 -0.227919 0
M  V30 7527 H 730.74 1.60979 -1.26119 0
M  V30 7528 H 728.895 3.86736 -0.226759 0
M  V30 7529 H 729.309 4.73065 -2.26517 0
M  V30 7530 H 730.783 5.47229 -0.724157 0
M  V30 7531 H 731.26 4.35694 0.553815 0
M  V30 7532 H 731.866 4.10834 -1.0998 0
M  V30 7533 N 730.181 0.707592 1.40822 0
M  V30 7534 C 731.144 0.0587224 2.29125 0
M  V30 7535 C 732.144 -0.695624 1.44975 0
M  V30 7536 O 733.334 -0.528718 1.65983 0
M  V30 7537 C 730.466 -0.926939 3.28056 0
M  V30 7538 H 731.659 0.836349 2.88002 0
M  V30 7539 H 729.212 0.471778 1.4901 0
M  V30 7540 H 729.947 -1.7319 2.74182 0
M  V30 7541 H 729.732 -0.389015 3.90165 0
M  V30 7542 H 731.222 -1.37837 3.94196 0
M  V30 7543 N 731.66 -1.50943 0.453197 0
M  V30 7544 C 732.9 -2.0412 -0.106894 0
M  V30 7545 C 733.264 -1.32895 -1.38575 0
M  V30 7546 O 734.465 -1.76529 -2.02709 0
M  V30 7547 C 732.736 -3.561 -0.304565 0
M  V30 7548 S 734.295 -4.3096 -0.825784 0
M  V30 7549 H 731.113 -0.710581 -0.0243969 0
M  V30 7550 H 733.715 -1.85534 0.616239 0
M  V30 7551 H 732.419 -4.055 0.632277 0
M  V30 7552 H 731.95 -3.79009 -1.05433 0
M  V30 7553 H 733.965 -4.49503 -2.10147 0
M  V30 7554 N 733.138 -0.185124 -1.56509 0
M  V30 7555 C 734.415 0.503348 -1.89013 0
M  V30 7556 C 734.795 1.80349 -1.09715 0
M  V30 7557 O 734.143 2.27665 -0.195203 0
M  V30 7558 C 734.353 0.731839 -3.41241 0
M  V30 7559 C 735.701 1.05568 -4.11267 0
M  V30 7560 O 736.725 0.819906 -3.46635 0
M  V30 7561 O 735.584 1.50116 -5.25478 0
M  V30 7562 H 732.678 0.261139 -0.784688 0
M  V30 7563 H 735.224 -0.224592 -1.68207 0
M  V30 7564 H 733.996 -0.18672 -3.90854 0
M  V30 7565 H 733.619 1.5126 -3.67704 0
M  V30 7566 N 734.616 1.57351 0.0885366 0
M  V30 7567 C 735.546 2.05561 1.10757 0
M  V30 7568 C 736.527 0.945789 1.41382 0
M  V30 7569 O 737.712 1.21747 1.51299 0
M  V30 7570 C 734.842 2.48554 2.42566 0
M  V30 7571 C 733.796 3.63259 2.26334 0
M  V30 7572 C 733.122 3.9225 3.63378 0
M  V30 7573 C 734.422 4.93913 1.69844 0
M  V30 7574 H 736.116 2.90946 0.706468 0
M  V30 7575 H 733.662 1.39968 0.338385 0
M  V30 7576 H 735.615 2.8089 3.14132 0
M  V30 7577 H 734.339 1.60176 2.84625 0
M  V30 7578 H 732.998 3.31179 1.57213 0
M  V30 7579 H 732.646 3.0103 4.02976 0
M  V30 7580 H 732.346 4.69478 3.53362 0
M  V30 7581 H 733.87 4.27067 4.36401 0
M  V30 7582 H 735.284 5.24588 2.31258 0
M  V30 7583 H 733.681 5.75349 1.70569 0
M  V30 7584 H 734.751 4.80409 0.65843 0
M  V30 7585 N 736.094 -0.359525 1.53444 0
M  V30 7586 C 737.057 -1.42357 1.7963 0
M  V30 7587 C 738.057 -1.46319 0.666884 0
M  V30 7588 O 739.247 -1.46974 0.935113 0
M  V30 7589 C 736.379 -2.81425 1.92387 0
M  V30 7590 H 737.572 -1.20409 2.74666 0
M  V30 7591 H 735.125 -0.593007 1.44614 0
M  V30 7592 H 735.86 -3.08679 0.994384 0
M  V30 7593 H 735.645 -2.79947 2.74539 0
M  V30 7594 H 737.135 -3.5847 2.14218 0
M  V30 7595 N 737.572 -1.44907 -0.619662 0
M  V30 7596 C 738.983 -1.42905 -1.20146 0
M  V30 7597 C 739.334 -0.150341 -1.95623 0
M  V30 7598 O 738.459 0.748732 -2.03034 0
M  V30 7599 C 739.054 -2.58889 -2.18545 0
M  V30 7600 C 737.613 -2.60046 -2.72127 0
M  V30 7601 C 736.76 -2.3493 -1.4732 0
M  V30 7602 H 739.711 -1.53321 -0.409666 0
M  V30 7603 H 739.732 -2.32298 -3.0136 0
M  V30 7604 H 739.244 -3.51941 -1.63583 0
M  V30 7605 H 737.345 -1.70968 -3.3106 0
M  V30 7606 H 737.458 -3.58893 -3.17384 0
M  V30 7607 H 735.822 -1.84248 -1.75855 0
M  V30 7608 H 736.605 -3.3011 -0.942442 0
M  V30 7609 N 739.05 0.861098 -1.31996 0
M  V30 7610 C 740.461 1.43065 -1.19955 0
M  V30 7611 C 740.812 1.95273 0.190489 0
M  V30 7612 O 739.937 1.87012 1.08882 0
M  V30 7613 C 740.532 2.60052 -2.1716 0
M  V30 7614 C 739.091 3.13026 -2.09026 0
M  V30 7615 C 738.238 1.85756 -2.05888 0
M  V30 7616 H 741.189 0.668834 -1.43918 0
M  V30 7617 H 741.21 3.37016 -1.76637 0
M  V30 7618 H 740.722 2.22024 -3.18319 0
M  V30 7619 H 738.823 3.55653 -1.11092 0
M  V30 7620 H 738.936 3.74707 -2.98549 0
M  V30 7621 H 737.3 2.05088 -1.51033 0
M  V30 7622 H 738.083 1.49954 -3.08818 0
M  V30 7623 N 740.528 1.15101 1.07655 0
M  V30 7624 C 741.491 0.847625 2.12951 0
M  V30 7625 C 742.491 -0.151227 1.60087 0
M  V30 7626 O 743.681 0.0780399 1.74025 0
M  V30 7627 C 740.813 0.265 3.39868 0
M  V30 7628 H 742.006 1.7809 2.41296 0
M  V30 7629 H 739.559 0.958072 1.23494 0
M  V30 7630 H 740.294 -0.676625 3.17163 0
M  V30 7631 H 740.079 0.984554 3.79538 0
M  V30 7632 H 741.569 0.0702121 4.17541 0
M  V30 7633 N 742.006 -1.2595 0.947325 0
M  V30 7634 C 743.254 -1.93081 0.596996 0
M  V30 7635 C 743.575 -1.74632 -0.867672 0
M  V30 7636 O 742.845 -1.1056 -1.6172 0
M  V30 7637 H 741.425 -0.714542 0.217805 0
M  V30 7638 H 744.087 -1.53265 1.20398 0
M  V30 7639 H 743.183 -3.01134 0.82004 0
M  V30 7640 N 743.484 -0.715051 -1.40445 0
M  V30 7641 C 744.712 -0.263959 -2.05209 0
M  V30 7642 C 745.127 1.09403 -1.53871 0
M  V30 7643 O 744.484 1.68746 -0.695064 0
M  V30 7644 C 744.535 -0.234545 -3.60738 0
M  V30 7645 O 744.256 -1.53891 -4.10182 0
M  V30 7646 C 745.757 0.235164 -4.42676 0
M  V30 7647 H 742.977 -0.11876 -0.660407 0
M  V30 7648 H 745.521 -0.973107 -1.79864 0
M  V30 7649 H 743.676 0.425563 -3.85055 0
M  V30 7650 H 744.09 -1.43903 -5.04373 0
M  V30 7651 H 745.564 0.204598 -5.51621 0
M  V30 7652 H 746.041 1.27724 -4.20218 0
M  V30 7653 H 746.647 -0.394649 -4.23465 0
M  V30 7654 N 744.962 1.50701 -0.461195 0
M  V30 7655 C 746.19 2.06681 0.0951756 0
M  V30 7656 C 746.605 1.32615 1.34382 0
M  V30 7657 O 745.962 0.392531 1.78229 0
M  V30 7658 C 746.013 3.59354 0.393316 0
M  V30 7659 O 745.734 4.30626 -0.805797 0
M  V30 7660 C 747.235 4.31926 0.997744 0
M  V30 7661 H 744.455 0.670995 -0.00267259 0
M  V30 7662 H 746.999 1.93991 -0.647137 0
M  V30 7663 H 745.154 3.7188 1.08555 0
M  V30 7664 H 745.568 5.21667 -0.544409 0
M  V30 7665 H 747.042 5.39756 1.15619 0
M  V30 7666 H 747.519 3.91772 1.98523 0
M  V30 7667 H 748.125 4.23905 0.344188 0
M  V30 7668 N 746.441 0.193421 1.56409 0
M  V30 7669 C 747.718 -0.493318 1.89277 0
M  V30 7670 C 748.098 -1.79765 1.10669 0
M  V30 7671 O 747.446 -2.27558 0.207274 0
M  V30 7672 C 747.656 -0.713732 3.41624 0
M  V30 7673 C 749.004 -1.03385 4.11821 0
M  V30 7674 O 750.028 -0.801511 3.47065 0
M  V30 7675 O 748.887 -1.47327 5.26267 0
M  V30 7676 H 745.981 -0.256973 0.786062 0
M  V30 7677 H 748.527 0.23351 1.68086 0
M  V30 7678 H 747.299 0.207446 3.9075 0
M  V30 7679 H 746.922 -1.49308 3.68501 0
M  V30 7680 N 747.919 -1.57396 -0.0801906 0
M  V30 7681 C 748.882 -2.02133 -1.0805 0
M  V30 7682 C 749.882 -0.91707 -1.32085 0
M  V30 7683 O 751.072 -1.18217 -1.27947 0
M  V30 7684 C 748.204 -2.39479 -2.42616 0
M  V30 7685 H 749.397 -2.91733 -0.6951 0
M  V30 7686 H 746.95 -1.52869 -0.325677 0
M  V30 7687 H 747.685 -1.52879 -2.86004 0
M  V30 7688 H 747.47 -3.20052 -2.26515 0
M  V30 7689 H 748.96 -2.74697 -3.14534 0
M  V30 7690 N 749.397 0.351382 -1.53633 0
M  V30 7691 C 750.36 1.41403 -1.80383 0
M  V30 7692 C 751.36 1.45963 -0.674635 0
M  V30 7693 O 752.55 1.46476 -0.942895 0
M  V30 7694 C 749.682 2.80401 -1.93876 0
M  V30 7695 H 750.875 1.18951 -2.75301 0
M  V30 7696 H 748.428 0.58533 -1.44926 0
M  V30 7697 H 749.163 3.08147 -1.01074 0
M  V30 7698 H 748.948 2.78488 -2.7602 0
M  V30 7699 H 750.438 3.57329 -2.16116 0
M  V30 7700 N 750.875 1.45233 0.611969 0
M  V30 7701 C 751.825 1.49997 1.71711 0
M  V30 7702 C 752.809 0.363689 1.56736 0
M  V30 7703 O 754.001 0.610261 1.66147 0
M  V30 7704 C 751.13 1.46537 3.10454 0
M  V30 7705 C 750.216 2.65351 3.30831 0
M  V30 7706 N 750.607 3.90485 3.21489 0
M  V30 7707 C 748.905 2.60955 3.61688 0
M  V30 7708 C 749.606 4.69758 3.43078 0
M  V30 7709 N 748.582 4.01141 3.66861 0
M  V30 7710 H 752.384 2.44574 1.62975 0
M  V30 7711 H 749.898 1.40464 0.815082 0
M  V30 7712 H 751.895 1.48035 3.89732 0
M  V30 7713 H 750.555 0.530139 3.20343 0
M  V30 7714 H 751.566 4.22171 2.99987 0
M  V30 7715 H 748.243 1.76319 3.78441 0
M  V30 7716 H 749.633 5.7877 3.41285 0
M  V30 7717 N 752.353 -0.854086 1.3245 0
M  V30 7718 C 753.764 -1.42427 1.20712 0
M  V30 7719 C 754.115 -1.95371 -0.18013 0
M  V30 7720 O 753.24 -1.87587 -1.07889 0
M  V30 7721 C 753.835 -2.58897 2.18536 0
M  V30 7722 C 752.394 -3.11913 2.10683 0
M  V30 7723 C 751.541 -1.84661 2.06871 0
M  V30 7724 H 754.492 -0.661192 1.4427 0
M  V30 7725 H 754.513 -3.36074 1.78422 0
M  V30 7726 H 754.025 -2.20333 3.19492 0
M  V30 7727 H 752.126 -3.55059 1.12977 0
M  V30 7728 H 752.239 -3.73119 3.00532 0
M  V30 7729 H 750.603 -2.04285 1.52118 0
M  V30 7730 H 751.386 -1.48314 3.09609 0
M  V30 7731 N 753.831 -1.1567 -1.07043 0
M  V30 7732 C 755.079 -0.931673 -1.79344 0
M  V30 7733 C 755.4 0.542421 -1.87304 0
M  V30 7734 O 754.67 1.39418 -1.37621 0
M  V30 7735 H 753.25 -0.34171 -0.664262 0
M  V30 7736 H 755.912 -1.45795 -1.29344 0
M  V30 7737 H 755.008 -1.34379 -2.81689 0
M  V30 7738 N 755.309 1.25446 -0.953992 0
M  V30 7739 C 756.725 1.4539 -0.658316 0
M  V30 7740 C 756.925 1.85607 0.784356 0
M  V30 7741 O 755.981 1.98568 1.55972 0
M  V30 7742 C 757.294 2.52643 -1.6307 0
M  V30 7743 C 758.842 2.66484 -1.64181 0
M  V30 7744 C 759.317 3.76921 -2.60182 0
M  V30 7745 N 760.808 3.84331 -2.58542 0
M  V30 7746 C 761.543 4.69271 -3.29503 0
M  V30 7747 N 761.039 5.58503 -4.09934 0
M  V30 7748 N 762.832 4.6323 -3.18393 0
M  V30 7749 H 754.983 0.976337 -1.8863 0
M  V30 7750 H 757.246 0.490343 -0.811337 0
M  V30 7751 H 756.952 2.29949 -2.66114 0
M  V30 7752 H 756.826 3.50547 -1.39271 0
M  V30 7753 H 759.213 2.88545 -0.618552 0
M  V30 7754 H 759.294 1.68982 -1.92038 0
M  V30 7755 H 758.938 3.55612 -3.62633 0
M  V30 7756 H 758.868 4.73906 -2.29609 0
M  V30 7757 H 761.359 3.20544 -2.0015 0
M  V30 7758 H 761.672 6.20241 -4.61 0
M  V30 7759 H 760.017 5.58214 -4.14032 0
M  V30 7760 H 763.208 3.92527 -2.5503 0
M  V30 7761 H 763.381 5.29204 -3.73961 0
M  V30 7762 N 756.787 0.722489 1.40064 0
M  V30 7763 C 758.012 0.273446 2.05589 0
M  V30 7764 C 758.437 -1.07875 1.54093 0
M  V30 7765 O 757.795 -1.68095 0.679252 0
M  V30 7766 C 757.843 0.271023 3.5958 0
M  V30 7767 O 756.947 -0.745499 4.05606 0
M  V30 7768 H 756.288 0.126856 0.65177 0
M  V30 7769 H 758.818 0.984906 1.79334 0
M  V30 7770 H 758.828 0.111084 4.07849 0
M  V30 7771 H 757.503 1.25776 3.96425 0
M  V30 7772 H 756.08 -0.552719 3.68781 0
M  V30 7773 N 758.265 -1.50454 0.469181 0
M  V30 7774 C 759.511 -2.02615 -0.0865971 0
M  V30 7775 C 759.844 -1.35062 -1.39542 0
M  V30 7776 O 759.119 -0.475701 -1.88593 0
M  V30 7777 C 759.402 -3.59068 -0.272385 0
M  V30 7778 C 759.255 -4.37196 1.05733 0
M  V30 7779 C 760.574 -4.2793 -1.0278 0
M  V30 7780 H 757.693 -0.736389 -0.0299977 0
M  V30 7781 H 760.335 -1.79792 0.614399 0
M  V30 7782 H 758.485 -3.78646 -0.869471 0
M  V30 7783 H 760.157 -4.29195 1.69084 0
M  V30 7784 H 758.4 -4.01013 1.65442 0
M  V30 7785 H 759.071 -5.44924 0.880997 0
M  V30 7786 H 761.547 -4.12816 -0.521718 0
M  V30 7787 H 760.423 -5.37214 -1.12659 0
M  V30 7788 H 760.684 -3.90968 -2.0639 0
M  V30 7789 N 759.743 -0.201713 -1.56304 0
M  V30 7790 C 760.989 0.435952 -1.98059 0
M  V30 7791 C 761.322 1.60811 -1.08873 0
M  V30 7792 O 760.597 1.9398 -0.142128 0
M  V30 7793 C 760.88 0.889706 -3.48936 0
M  V30 7794 C 760.733 -0.284725 -4.48898 0
M  V30 7795 C 762.052 1.7529 -4.03685 0
M  V30 7796 H 759.171 0.15699 -0.720085 0
M  V30 7797 H 761.813 -0.293965 -1.87712 0
M  V30 7798 H 759.963 1.51166 -3.57884 0
M  V30 7799 H 761.635 -0.922531 -4.51981 0
M  V30 7800 H 759.878 -0.935427 -4.23594 0
M  V30 7801 H 760.549 0.0753865 -5.51949 0
M  V30 7802 H 763.025 1.2283 -3.97558 0
M  V30 7803 H 761.901 2.03933 -5.0961 0
M  V30 7804 H 762.162 2.70939 -3.49348 0
M  V30 7805 N 761.222 1.57436 0.0718424 0
M  V30 7806 C 762.633 1.75975 0.623678 0
M  V30 7807 C 762.984 0.827155 1.77912 0
M  V30 7808 O 762.109 0.0112425 2.16397 0
M  V30 7809 C 762.704 3.1911 1.13816 0
M  V30 7810 C 761.263 3.38994 1.63586 0
M  V30 7811 C 760.41 2.71684 0.555261 0
M  V30 7812 H 763.361 1.57948 -0.154328 0
M  V30 7813 H 763.382 3.23267 2.00696 0
M  V30 7814 H 762.894 3.86962 0.296998 0
M  V30 7815 H 760.995 2.76256 2.50027 0
M  V30 7816 H 761.108 4.47436 1.71283 0
M  V30 7817 H 759.472 2.34236 1.00029 0
M  V30 7818 H 760.255 3.42191 -0.275712 0
M  V30 7819 N 762.7 -0.34323 1.53817 0
M  V30 7820 C 763.663 -1.40444 1.8113 0
M  V30 7821 C 764.663 -1.45604 0.682366 0
M  V30 7822 O 765.853 -1.45974 0.950649 0
M  V30 7823 C 762.985 -2.79369 1.95361 0
M  V30 7824 H 764.178 -1.17489 2.75928 0
M  V30 7825 H 761.731 -0.577636 1.45234 0
M  V30 7826 H 762.466 -3.07607 1.02707 0
M  V30 7827 H 762.251 -2.7702 2.77493 0
M  V30 7828 H 763.741 -3.56178 2.18008 0
M  V30 7829 N 764.178 -1.45556 -0.604258 0
M  V30 7830 C 765.108 -1.57327 -1.72541 0
M  V30 7831 C 766.089 -0.424637 -1.64714 0
M  V30 7832 O 767.274 -0.648196 -1.83063 0
M  V30 7833 C 764.404 -1.54279 -3.11152 0
M  V30 7834 C 763.358 -2.67893 -3.33792 0
M  V30 7835 C 762.684 -2.499 -4.72709 0
M  V30 7836 C 763.984 -4.0988 -3.23722 0
M  V30 7837 H 765.678 -2.51175 -1.62947 0
M  V30 7838 H 763.224 -1.20884 -0.782504 0
M  V30 7839 H 765.177 -1.6111 -3.89386 0
M  V30 7840 H 763.901 -0.569627 -3.21594 0
M  V30 7841 H 762.56 -2.60495 -2.57949 0
M  V30 7842 H 762.208 -1.50715 -4.79889 0
M  V30 7843 H 761.908 -3.26091 -4.88813 0
M  V30 7844 H 763.432 -2.5859 -5.5314 0
M  V30 7845 H 764.846 -4.18503 -3.91826 0
M  V30 7846 H 763.243 -4.86487 -3.51355 0
M  V30 7847 H 764.313 -4.31553 -2.21111 0
M  V30 7848 N 765.656 0.84705 -1.32902 0
M  V30 7849 C 766.586 1.97166 -1.25091 0
M  V30 7850 C 767.567 1.69578 -0.133161 0
M  V30 7851 O 768.752 1.91519 -0.321591 0
M  V30 7852 C 765.882 3.33157 -0.981006 0
M  V30 7853 C 764.836 3.75119 -2.06082 0
M  V30 7854 C 764.162 5.08826 -1.64318 0
M  V30 7855 C 765.462 3.89774 -3.47669 0
M  V30 7856 H 767.156 2.03958 -2.19184 0
M  V30 7857 H 764.702 0.979907 -1.05517 0
M  V30 7858 H 766.655 4.11393 -0.912891 0
M  V30 7859 H 765.379 3.266 -0.00445559 0
M  V30 7860 H 764.038 2.9914 -2.11921 0
M  V30 7861 H 763.686 4.98732 -0.653876 0
M  V30 7862 H 763.386 5.37873 -2.36572 0
M  V30 7863 H 764.91 5.89546 -1.58958 0
M  V30 7864 H 766.324 4.58343 -3.44376 0
M  V30 7865 H 764.721 4.30248 -4.18338 0
M  V30 7866 H 765.791 2.92463 -3.86773 0
M  V30 7867 N 767.134 1.16236 1.06428 0
M  V30 7868 C 768.545 0.950942 1.60667 0
M  V30 7869 C 768.896 -0.505491 1.89576 0
M  V30 7870 O 768.021 -1.37843 1.66818 0
M  V30 7871 C 768.616 1.71982 2.91904 0
M  V30 7872 C 767.175 1.55342 3.4285 0
M  V30 7873 C 766.322 1.72942 2.16763 0
M  V30 7874 H 769.273 1.31126 0.893959 0
M  V30 7875 H 769.294 1.19483 3.61253 0
M  V30 7876 H 768.806 2.77978 2.70831 0
M  V30 7877 H 766.907 0.5178 3.68985 0
M  V30 7878 H 767.02 2.33643 4.18267 0
M  V30 7879 H 765.384 1.15673 2.26918 0
M  V30 7880 H 766.167 2.80324 1.98175 0
M  V30 7881 N 768.612 -1.24939 0.960631 0
M  V30 7882 C 769.542 -2.28 0.503815 0
M  V30 7883 C 770.523 -1.63959 -0.452928 0
M  V30 7884 O 771.708 -1.91009 -0.350585 0
M  V30 7885 C 768.838 -3.46643 -0.213535 0
M  V30 7886 C 767.792 -4.22903 0.658535 0
M  V30 7887 C 767.118 -5.34363 -0.189902 0
M  V30 7888 C 768.418 -4.84949 1.93963 0
M  V30 7889 H 770.112 -2.66462 1.36521 0
M  V30 7890 H 767.658 -1.28093 0.657897 0
M  V30 7891 H 769.611 -4.1787 -0.544286 0
M  V30 7892 H 768.335 -3.07187 -1.10923 0
M  V30 7893 H 766.994 -3.53467 0.972455 0
M  V30 7894 H 766.642 -4.91147 -1.08553 0
M  V30 7895 H 766.342 -5.86302 0.390331 0
M  V30 7896 H 767.866 -6.0842 -0.515484 0
M  V30 7897 H 769.28 -5.48288 1.67491 0
M  V30 7898 H 767.677 -5.47091 2.46601 0
M  V30 7899 H 768.747 -4.06799 2.639 0
M  V30 7900 N 770.09 -0.729906 -1.39679 0
M  V30 7901 C 771.02 -0.101618 -2.33279 0
M  V30 7902 C 772.001 0.729854 -1.53646 0
M  V30 7903 O 773.186 0.67587 -1.82059 0
M  V30 7904 C 770.316 0.81024 -3.37716 0
M  V30 7905 C 769.27 0.0833126 -4.27919 0
M  V30 7906 C 768.596 1.11185 -5.23012 0
M  V30 7907 C 769.896 -1.07107 -5.112 0
M  V30 7908 H 771.59 -0.883452 -2.86069 0
M  V30 7909 H 769.136 -0.426283 -1.37546 0
M  V30 7910 H 771.089 1.25927 -4.02145 0
M  V30 7911 H 769.813 1.62413 -2.83354 0
M  V30 7912 H 768.472 -0.346043 -3.64963 0
M  V30 7913 H 768.12 1.91917 -4.64948 0
M  V30 7914 H 767.82 0.63026 -5.8421 0
M  V30 7915 H 769.344 1.56068 -5.90318 0
M  V30 7916 H 770.758 -0.700726 -5.69002 0
M  V30 7917 H 769.155 -1.48196 -5.81514 0
M  V30 7918 H 770.225 -1.89513 -4.46332 0
M  V30 7919 N 771.568 1.50203 -0.477153 0
M  V30 7920 C 772.531 2.27194 0.302599 0
M  V30 7921 C 773.531 1.32221 0.915112 0
M  V30 7922 O 774.721 1.55593 0.783348 0
M  V30 7923 C 771.853 3.0938 1.43167 0
M  V30 7924 H 773.046 2.97575 -0.372678 0
M  V30 7925 H 770.599 1.54578 -0.231392 0
M  V30 7926 H 771.334 2.43509 2.14182 0
M  V30 7927 H 771.119 3.79181 0.998197 0
M  V30 7928 H 772.609 3.67592 1.98157 0
M  V30 7929 N 773.046 0.209999 1.56195 0
M  V30 7930 C 774.294 -0.423974 1.97603 0
M  V30 7931 C 774.615 -1.61112 1.09854 0
M  V30 7932 O 773.885 -1.95134 0.173032 0
M  V30 7933 H 772.465 -0.159629 0.729745 0
M  V30 7934 H 775.127 0.300205 1.92574 0
M  V30 7935 H 774.223 -0.75809 3.02753 0
M  V30 7936 N 774.524 -1.57472 -0.0634922 0
M  V30 7937 C 775.752 -1.91887 -0.773767 0
M  V30 7938 C 776.167 -0.806733 -1.70696 0
M  V30 7939 O 775.524 0.219383 -1.81177 0
M  V30 7940 C 775.575 -3.26092 -1.56034 0
M  V30 7941 O 775.296 -4.33029 -0.66464 0
M  V30 7942 C 776.797 -3.74573 -2.37087 0
M  V30 7943 H 774.017 -0.634074 -0.219525 0
M  V30 7944 H 776.561 -2.04476 -0.0312828 0
M  V30 7945 H 774.716 -3.15004 -2.25502 0
M  V30 7946 H 775.13 -5.10291 -1.21258 0
M  V30 7947 H 776.604 -4.71084 -2.87722 0
M  V30 7948 H 777.081 -3.04003 -3.16984 0
M  V30 7949 H 777.687 -3.88631 -1.72759 0
M  V30 7950 N 776.003 0.335068 -1.53997 0
M  V30 7951 C 776.933 1.41727 -1.85568 0
M  V30 7952 C 777.914 1.54505 -0.7115 0
M  V30 7953 O 779.099 1.68573 -0.964191 0
M  V30 7954 C 776.229 2.7866 -2.07282 0
M  V30 7955 C 775.183 2.80682 -3.23112 0
M  V30 7956 C 774.509 4.20581 -3.30175 0
M  V30 7957 C 775.809 2.45458 -4.61029 0
M  V30 7958 H 777.503 1.15555 -2.76202 0
M  V30 7959 H 775.049 0.554445 -1.32898 0
M  V30 7960 H 777.002 3.54423 -2.27952 0
M  V30 7961 H 775.726 3.06286 -1.13387 0
M  V30 7962 H 774.385 2.07373 -3.02311 0
M  V30 7963 H 774.033 4.4533 -2.33859 0
M  V30 7964 H 773.733 4.22843 -4.08016 0
M  V30 7965 H 775.257 4.98174 -3.53066 0
M  V30 7966 H 776.671 3.10934 -4.81656 0
M  V30 7967 H 775.068 2.5899 -5.41336 0
M  V30 7968 H 776.138 1.40628 -4.6406 0
M  V30 7969 N 777.481 1.45874 0.596531 0
M  V30 7970 C 778.411 1.5824 1.71705 0
M  V30 7971 C 779.392 0.433366 1.64487 0
M  V30 7972 O 780.577 0.657895 1.82717 0
M  V30 7973 C 777.707 1.55927 3.10329 0
M  V30 7974 C 776.661 2.69659 3.32367 0
M  V30 7975 C 775.987 2.52403 4.71377 0
M  V30 7976 C 777.287 4.11591 3.21544 0
M  V30 7977 H 778.981 2.52035 1.61613 0
M  V30 7978 H 776.527 1.21297 0.776082 0
M  V30 7979 H 778.48 1.63173 3.88526 0
M  V30 7980 H 777.204 0.586674 3.21288 0
M  V30 7981 H 775.863 2.61859 2.56564 0
M  V30 7982 H 775.511 1.53258 4.79083 0
M  V30 7983 H 775.211 3.28679 4.87077 0
M  V30 7984 H 776.735 2.6152 5.5176 0
M  V30 7985 H 778.149 4.20576 3.89601 0
M  V30 7986 H 776.546 4.88344 3.4877 0
M  V30 7987 H 777.616 4.32719 2.1882 0
M  V30 7988 N 778.959 -0.83999 1.33349 0
M  V30 7989 C 779.889 -1.965 1.26135 0
M  V30 7990 C 780.87 -1.69505 0.142152 0
M  V30 7991 O 782.055 -1.91346 0.331743 0
M  V30 7992 C 779.185 -3.32632 0.99866 0
M  V30 7993 C 778.139 -3.74021 2.08068 0
M  V30 7994 C 777.465 -5.07947 1.67014 0
M  V30 7995 C 778.765 -3.87925 3.49731 0
M  V30 7996 H 780.459 -2.02793 2.20262 0
M  V30 7997 H 778.005 -0.974297 1.06035 0
M  V30 7998 H 779.958 -4.10903 0.934696 0
M  V30 7999 H 778.682 -3.26593 0.0217759 0
M  V30 8000 H 777.341 -2.98012 2.13505 0
M  V30 8001 H 776.989 -4.98378 0.680316 0
M  V30 8002 H 776.689 -5.36611 2.39422 0
M  V30 8003 H 778.213 -5.88695 1.62082 0
M  V30 8004 H 779.627 -4.5651 3.46802 0
M  V30 8005 H 778.024 -4.28023 4.20614 0
M  V30 8006 H 779.094 -2.90407 3.88319 0
M  V30 8007 N 780.437 -1.16799 -1.0581 0
M  V30 8008 C 781.367 -0.902241 -2.15364 0
M  V30 8009 C 782.348 0.153351 -1.69407 0
M  V30 8010 O 783.533 0.00442032 -1.94199 0
M  V30 8011 C 780.663 -0.407911 -3.44896 0
M  V30 8012 C 779.617 -1.40197 -4.04387 0
M  V30 8013 C 778.943 -0.765848 -5.29187 0
M  V30 8014 C 780.243 -2.77316 -4.42598 0
M  V30 8015 H 781.937 -1.81841 -2.37853 0
M  V30 8016 H 779.483 -0.875731 -1.14311 0
M  V30 8017 H 781.436 -0.20945 -4.20879 0
M  V30 8018 H 780.16 0.54378 -3.22041 0
M  V30 8019 H 778.819 -1.58707 -3.30466 0
M  V30 8020 H 778.467 0.192482 -5.02632 0
M  V30 8021 H 778.167 -1.42939 -5.69949 0
M  V30 8022 H 779.691 -0.577519 -6.07863 0
M  V30 8023 H 781.105 -2.62561 -5.09642 0
M  V30 8024 H 779.502 -3.4019 -4.94359 0
M  V30 8025 H 780.572 -3.32199 -3.53231 0
M  V30 8026 N 781.915 1.24427 -0.967243 0
M  V30 8027 C 782.825 2.29109 -0.504592 0
M  V30 8028 C 783.841 1.68495 0.434224 0
M  V30 8029 O 785.017 1.99041 0.307379 0
M  V30 8030 C 782.082 3.46133 0.198273 0
M  V30 8031 C 781.143 4.22149 -0.780313 0
M  V30 8032 C 780.376 5.33585 -0.110896 0
M  V30 8033 O 780.599 5.59676 1.10088 0
M  V30 8034 O 779.533 5.96522 -0.802823 0
M  V30 8035 H 783.359 2.708 -1.37482 0
M  V30 8036 H 780.944 1.30111 -0.73426 0
M  V30 8037 H 782.826 4.17205 0.593124 0
M  V30 8038 H 781.501 3.0642 1.04347 0
M  V30 8039 H 780.408 3.53454 -1.22561 0
M  V30 8040 H 781.741 4.65677 -1.59392 0
M  V30 8041 N 783.393 0.737304 1.3929 0
M  V30 8042 C 784.621 0.296573 2.04763 0
M  V30 8043 C 785.036 -1.06941 1.55592 0
M  V30 8044 O 784.393 -1.67619 0.721822 0
M  V30 8045 C 784.444 0.291906 3.6032 0
M  V30 8046 O 784.165 1.60397 4.07682 0
M  V30 8047 C 785.666 -0.164708 4.42994 0
M  V30 8048 H 782.886 0.129251 0.658434 0
M  V30 8049 H 785.43 1.0016 1.78293 0
M  V30 8050 H 783.585 -0.364251 3.85684 0
M  V30 8051 H 783.999 1.51909 5.0202 0
M  V30 8052 H 785.473 -0.116814 5.51876 0
M  V30 8053 H 785.95 -1.21022 4.22197 0
M  V30 8054 H 786.556 0.461968 4.22784 0
M  V30 8055 N 784.871 -1.49948 0.485112 0
M  V30 8056 C 785.834 -2.27351 -0.290546 0
M  V30 8057 C 786.834 -1.32704 -0.908087 0
M  V30 8058 O 788.024 -1.56007 -0.775085 0
M  V30 8059 C 785.156 -3.10135 -1.41524 0
M  V30 8060 H 786.349 -2.97374 0.388454 0
M  V30 8061 H 783.902 -1.54453 0.239586 0
M  V30 8062 H 784.637 -2.44641 -2.12888 0
M  V30 8063 H 784.422 -3.79705 -0.978074 0
M  V30 8064 H 785.912 -3.68638 -1.96204 0
M  V30 8065 N 786.349 -0.21828 -1.56081 0
M  V30 8066 C 787.577 0.419258 -2.02608 0
M  V30 8067 C 787.992 1.53578 -1.09814 0
M  V30 8068 O 787.349 1.82185 -0.107149 0
M  V30 8069 C 787.4 0.953955 -3.48686 0
M  V30 8070 O 787.121 -0.11805 -4.37941 0
M  V30 8071 C 788.622 1.66506 -4.10841 0
M  V30 8072 H 785.842 0.10296 -0.663054 0
M  V30 8073 H 788.386 -0.333776 -2.01758 0
M  V30 8074 H 786.541 1.65727 -3.50162 0
M  V30 8075 H 786.955 0.283359 -5.23734 0
M  V30 8076 H 788.429 1.99123 -5.14834 0
M  V30 8077 H 788.906 2.57705 -3.55647 0
M  V30 8078 H 789.512 1.00703 -4.13206 0
M  V30 8079 N 787.827 1.57504 0.0551401 0
M  V30 8080 C 788.79 2.03826 1.04821 0
M  V30 8081 C 789.79 0.937968 1.30609 0
M  V30 8082 O 790.98 1.20237 1.2605 0
M  V30 8083 C 788.112 2.43309 2.38775 0
M  V30 8084 H 789.305 2.92802 0.6486 0
M  V30 8085 H 786.858 1.53368 0.301315 0
M  V30 8086 H 787.593 1.5741 2.83536 0
M  V30 8087 H 787.378 3.23615 2.21395 0
M  V30 8088 H 788.868 2.79666 3.10124 0
M  V30 8089 N 789.305 -0.326896 1.54172 0
M  V30 8090 C 790.716 -0.901533 1.63491 0
M  V30 8091 C 791.067 -1.88994 0.52684 0
M  V30 8092 O 790.192 -2.137 -0.340794 0
M  V30 8093 C 790.787 -1.64192 2.96355 0
M  V30 8094 C 789.346 -2.16533 3.07881 0
M  V30 8095 C 788.493 -0.98966 2.59039 0
M  V30 8096 H 791.444 -0.104568 1.58355 0
M  V30 8097 H 791.465 -2.50592 2.86328 0
M  V30 8098 H 790.977 -0.922291 3.76982 0
M  V30 8099 H 789.078 -2.91622 2.31922 0
M  V30 8100 H 789.191 -2.41762 4.13628 0
M  V30 8101 H 787.555 -1.36787 2.14852 0
M  V30 8102 H 788.338 -0.284401 3.4212 0
M  V30 8103 O 790.822 -1.54423 -0.472853 0
M  V30 8104 H 791.513 -1.5752 -1.12726 0
M  V30 END ATOM
M  V30 BEGIN BOND
M  V30 END BOND
M  V30 END CTAB
M  END
$$$$
