drugbank_target|P07464 Galactoside O-acetyltransferase (DB01862; DB01992; DB02632)
 OpenBabel12092119533D

  0  0  0     0  0            999 V3000
M  V30 BEGIN CTAB
M  V30 COUNTS 3185 3225 0 0 0
M  V30 BEGIN ATOM
M  V30 1 H -0.908 1.98254 -0.117106 0
M  V30 2 N 0 1.576 0 0
M  V30 3 C 0.933 2.03868 1.02534 0
M  V30 4 C 1.911 0.928543 1.3348 0
M  V30 5 O 3.095 1.19667 1.45644 0
M  V30 6 C 0.222 2.43627 2.35294 0
M  V30 7 C -0.732 3.65373 2.2001 0
M  V30 8 S 0.101 5.13292 1.52614 0
M  V30 9 C 1.257 5.56322 2.86805 0
M  V30 10 H 1.49 2.90518 0.631377 0
M  V30 11 H -0.977 1.52953 0.210867 0
M  V30 12 H 0.981 2.67203 3.11629 0
M  V30 13 H -0.358 1.57376 2.7183 0
M  V30 14 H -1.165 3.90944 3.18086 0
M  V30 15 H -1.563 3.418 1.51819 0
M  V30 16 H 0.729 5.58782 3.83104 0
M  V30 17 H 1.672 6.56266 2.65933 0
M  V30 18 H 2.08 4.83886 2.90714 0
M  V30 19 N 1.4781 -0.272755 1.55222 0
M  V30 20 C 2.4261 -1.35705 1.88909 0
M  V30 21 C 3.4201 -1.5112 0.765456 0
M  V30 22 O 4.6261 -1.52901 0.949802 0
M  V30 23 H 1.0011 -0.453868 0.59959 0
M  V30 24 H 2.9721 -1.04544 2.79487 0
M  V30 25 C 1.7211 -2.71049 2.17779 0
M  V30 26 H 1.0441 -2.59979 3.03728 0
M  V30 27 H 2.4841 -3.45858 2.45272 0
M  V30 28 C 0.9431 -3.22165 0.985473 0
M  V30 29 O 1.4731 -4.01096 0.220233 0
M  V30 30 N -0.3209 -2.7985 0.783108 0
M  V30 31 H -0.7739 -2.15775 1.40708 0
M  V30 32 H -0.8159 -3.14397 -0.0130392 0
M  V30 33 N 2.9562 -1.48159 -0.537278 0
M  V30 34 C 3.8892 -1.567 -1.65893 0
M  V30 35 C 4.8672 -0.41787 -1.57139 0
M  V30 36 O 6.0512 -0.628461 -1.77715 0
M  V30 37 C 3.1782 -1.48818 -3.04255 0
M  V30 38 C 2.2242 -2.68482 -3.31391 0
M  V30 39 S 3.0572 -4.30516 -3.1846 0
M  V30 40 C 4.2132 -4.2522 -4.59281 0
M  V30 41 H 4.4462 -2.5159 -1.58397 0
M  V30 42 H 1.9792 -1.36602 -0.719672 0
M  V30 43 H 3.9372 -1.44958 -3.84054 0
M  V30 44 H 2.5982 -0.552777 -3.09198 0
M  V30 45 H 1.7912 -2.59085 -4.32309 0
M  V30 46 H 1.3932 -2.69567 -2.59248 0
M  V30 47 H 3.6852 -3.94703 -5.5065 0
M  V30 48 H 4.6282 -5.26292 -4.73732 0
M  V30 49 H 5.0362 -3.55791 -4.38261 0
M  V30 50 N 4.4343 0.785586 -1.36625 0
M  V30 51 C 5.8453 1.36101 -1.27803 0
M  V30 52 C 6.1963 1.96035 0.0804875 0
M  V30 53 O 5.3213 1.92834 0.982042 0
M  V30 54 C 5.9163 2.47442 -2.31426 0
M  V30 55 C 4.4753 3.00789 -2.26281 0
M  V30 56 C 3.6223 1.73896 -2.15999 0
M  V30 57 H 6.5733 0.586928 -1.47448 0
M  V30 58 H 6.5943 3.2656 -1.95291 0
M  V30 59 H 6.1063 2.03791 -3.30289 0
M  V30 60 H 4.2073 3.48851 -1.30896 0
M  V30 61 H 4.3203 3.57343 -3.19128 0
M  V30 62 H 2.6843 1.9628 -1.62316 0
M  V30 63 H 3.4673 1.32368 -3.16755 0
M  V30 64 N 5.9124 1.20967 1.01018 0
M  V30 65 C 6.8454 0.907578 2.09376 0
M  V30 66 C 7.8234 -0.142868 1.61971 0
M  V30 67 O 9.0074 -0.0150391 1.88494 0
M  V30 68 C 6.1344 0.361791 3.36762 0
M  V30 69 C 5.1804 1.39423 4.03068 0
M  V30 70 S 6.0134 2.96159 4.4615 0
M  V30 71 C 7.1694 2.43173 5.7673 0
M  V30 72 H 7.4024 1.82519 2.34678 0
M  V30 73 H 4.9354 1.03884 1.14225 0
M  V30 74 H 6.8934 0.0534523 4.10465 0
M  V30 75 H 5.5544 -0.53443 3.0952 0
M  V30 76 H 4.7474 0.961853 4.94737 0
M  V30 77 H 4.3494 1.65038 3.35617 0
M  V30 78 H 6.6414 1.83335 6.52223 0
M  V30 79 H 7.5844 3.33264 6.24773 0
M  V30 80 H 7.9924 1.85069 5.33301 0
M  V30 81 N 7.3905 -1.2043 1.01659 0
M  V30 82 C 8.6185 -1.93777 0.725132 0
M  V30 83 C 9.0335 -1.74772 -0.714166 0
M  V30 84 O 8.3905 -1.06169 -1.4844 0
M  V30 85 C 8.4415 -3.45876 1.05129 0
M  V30 86 O 8.1625 -3.6426 2.43406 0
M  V30 87 C 9.6635 -4.36368 0.780891 0
M  V30 88 H 6.8835 -0.615901 0.266284 0
M  V30 89 H 9.4275 -1.52922 1.35776 0
M  V30 90 H 7.5825 -3.8461 0.464065 0
M  V30 91 H 7.9965 -4.58246 2.55169 0
M  V30 92 H 9.4705 -5.41743 1.05918 0
M  V30 93 H 9.9475 -4.38275 -0.284937 0
M  V30 94 H 10.5535 -4.03296 1.35027 0
M  V30 95 N 8.8686 -0.792821 -1.36206 0
M  V30 96 C 9.7786 -0.194808 -2.3379 0
M  V30 97 C 10.7946 0.654869 -1.61206 0
M  V30 98 O 11.9706 0.569856 -1.9317 0
M  V30 99 C 9.0356 0.657721 -3.40404 0
M  V30 100 C 8.0966 -0.210849 -4.28782 0
M  V30 101 C 7.3296 0.601086 -5.30304 0
M  V30 102 O 7.5526 1.83682 -5.40016 0
M  V30 103 O 6.4866 -0.000808277 -6.019 0
M  V30 104 H 10.3126 -1.00172 -2.86704 0
M  V30 105 H 7.8976 -0.554341 -1.38735 0
M  V30 106 H 9.7796 1.14375 -4.05581 0
M  V30 107 H 8.4546 1.44247 -2.89784 0
M  V30 108 H 7.3616 -0.743714 -3.66633 0
M  V30 109 H 8.6946 -0.959195 -4.82763 0
M  V30 110 N 10.3467 1.47872 -0.545128 0
M  V30 111 C 11.7627 1.5829 -0.204032 0
M  V30 112 C 11.9627 1.54529 1.29317 0
M  V30 113 O 11.0187 1.44232 2.07252 0
M  V30 114 C 12.3317 2.89304 -0.819987 0
M  V30 115 C 13.8797 3.02864 -0.790105 0
M  V30 116 C 14.3547 4.3656 -1.38491 0
M  V30 117 N 15.8457 4.43165 -1.34755 0
M  V30 118 C 16.5807 5.45153 -1.77753 0
M  V30 119 N 16.0767 6.54016 -2.2855 0
M  V30 120 N 17.8697 5.36125 -1.68897 0
M  V30 121 H 10.0207 1.4856 -1.51802 0
M  V30 122 H 12.2837 0.706305 -0.632327 0
M  V30 123 H 11.9897 2.97757 -1.87173 0
M  V30 124 H 11.8637 3.75957 -0.305915 0
M  V30 125 H 14.2507 2.94014 0.252913 0
M  V30 126 H 14.3317 2.17782 -1.34181 0
M  V30 127 H 13.9757 4.46164 -2.42693 0
M  V30 128 H 13.9057 5.20353 -0.808754 0
M  V30 129 H 16.3967 3.65083 -0.975855 0
M  V30 130 H 16.7097 7.27994 -2.59314 0
M  V30 131 H 15.0547 6.54938 -2.32553 0
M  V30 132 H 18.2457 4.49975 -1.28998 0
M  V30 133 H 18.4187 6.15472 -2.02726 0
M  V30 134 N 11.8248 0.280983 1.55075 0
M  V30 135 C 13.0738 -0.334784 1.98902 0
M  V30 136 C 13.3868 -1.56534 1.17288 0
M  V30 137 O 14.5928 -2.25443 1.51287 0
M  V30 138 C 13.0488 -0.646994 3.54037 0
M  V30 139 C 12.6568 0.564085 4.44435 0
M  V30 140 C 14.4008 -1.22506 4.06439 0
M  V30 141 C 12.3078 0.226137 5.90967 0
M  V30 142 H 11.2378 -0.128866 0.742906 0
M  V30 143 H 13.8888 0.386556 1.79382 0
M  V30 144 H 12.2708 -1.42739 3.6938 0
M  V30 145 H 13.4448 1.34082 4.40861 0
M  V30 146 H 11.7598 1.0594 4.02698 0
M  V30 147 H 14.3568 -1.49182 5.13468 0
M  V30 148 H 14.6998 -2.16085 3.55827 0
M  V30 149 H 15.2328 -0.50682 3.94558 0
M  V30 150 H 11.9718 1.12996 6.45687 0
M  V30 151 H 11.4918 -0.513717 5.97596 0
M  V30 152 H 13.1708 -0.179539 6.46751 0
M  V30 153 N 13.3029 -1.57598 0.00835791 0
M  V30 154 C 14.7189 -1.55764 -0.347822 0
M  V30 155 C 14.9189 -1.01186 -1.74252 0
M  V30 156 O 13.9749 -0.649371 -2.44007 0
M  V30 157 C 15.2879 -2.99927 -0.215407 0
M  V30 158 C 16.8359 -3.11656 -0.289725 0
M  V30 159 C 17.3109 -4.57621 -0.18634 0
M  V30 160 N 18.8019 -4.62557 -0.243978 0
M  V30 161 C 19.5369 -5.73094 -0.18745 0
M  V30 162 N 19.0329 -6.92753 -0.0810331 0
M  V30 163 N 20.8259 -5.61588 -0.239925 0
M  V30 164 H 12.9769 -1.91411 0.92062 0
M  V30 165 H 15.2399 -0.879562 0.353659 0
M  V30 166 H 14.9459 -3.43729 0.744512 0
M  V30 167 H 14.8199 -3.63865 -0.994097 0
M  V30 168 H 17.2069 -2.67779 -1.24009 0
M  V30 169 H 17.2879 -2.5048 0.51898 0
M  V30 170 H 16.9319 -5.02174 0.760519 0
M  V30 171 H 16.8619 -5.16752 -1.01364 0
M  V30 172 H 19.3529 -3.76481 -0.327217 0
M  V30 173 H 19.6659 -7.72787 -0.0440241 0
M  V30 174 H 18.0109 -6.94984 -0.0465419 0
M  V30 175 H 21.2019 -4.66996 -0.321317 0
M  V30 176 H 21.3749 -6.47714 -0.192407 0
M  V30 177 N 14.781 0.264519 -1.55364 0
M  V30 178 C 15.744 1.31046 -1.88042 0
M  V30 179 C 16.744 1.41943 -0.755569 0
M  V30 180 O 17.934 1.40947 -1.02369 0
M  V30 181 C 15.066 2.69067 -2.09323 0
M  V30 182 H 16.259 1.03297 -2.81549 0
M  V30 183 H 13.812 0.502989 -1.47986 0
M  V30 184 H 14.547 3.01982 -1.18226 0
M  V30 185 H 14.332 2.62542 -2.91229 0
M  V30 186 H 15.822 3.44623 -2.35848 0
M  V30 187 N 16.2591 1.48442 0.529413 0
M  V30 188 C 17.5071 1.56179 1.28267 0
M  V30 189 C 17.8281 0.237721 1.93546 0
M  V30 190 O 17.0981 -0.740779 1.81354 0
M  V30 191 H 15.6781 0.575367 0.476405 0
M  V30 192 H 18.3401 1.84909 0.61602 0
M  V30 193 H 17.4361 2.34312 2.06165 0
M  V30 194 N 17.7372 -0.778329 1.37039 0
M  V30 195 C 18.6842 -1.89139 1.32269 0
M  V30 196 C 19.6542 -1.65017 0.189387 0
M  V30 197 O 20.8392 -1.87024 0.377693 0
M  V30 198 C 17.9792 -3.26112 1.12894 0
M  V30 199 C 17.0922 -3.62233 2.35396 0
M  V30 200 C 16.2272 -4.8838 2.08946 0
M  V30 201 C 15.2662 -5.17212 3.2735 0
M  V30 202 N 14.4032 -6.34546 3.00492 0
M  V30 203 H 19.2432 -1.92552 2.27437 0
M  V30 204 H 16.7802 -0.941473 1.13025 0
M  V30 205 H 18.7382 -4.05116 0.996835 0
M  V30 206 H 17.3682 -3.22091 0.213758 0
M  V30 207 H 16.4202 -2.78265 2.5937 0
M  V30 208 H 17.7322 -3.79481 3.23721 0
M  V30 209 H 16.8862 -5.75274 1.92729 0
M  V30 210 H 15.6252 -4.73222 1.17949 0
M  V30 211 H 14.6302 -4.28796 3.44113 0
M  V30 212 H 15.8552 -5.34283 4.19188 0
M  V30 213 H 13.8012 -6.20759 2.12118 0
M  V30 214 H 13.7182 -6.52179 3.82358 0
M  V30 215 H 14.9862 -7.24394 2.87879 0
M  V30 216 N 19.2153 -1.21501 -1.00376 0
M  V30 217 C 20.1453 -0.999478 -2.11028 0
M  V30 218 C 21.1263 0.0759671 -1.6993 0
M  V30 219 O 22.3113 -0.0841106 -1.94018 0
M  V30 220 C 19.4413 -0.564709 -3.42678 0
M  V30 221 C 18.3953 -1.58486 -3.97576 0
M  V30 222 C 17.7213 -1.00628 -5.25146 0
M  V30 223 C 19.0213 -2.97204 -4.29496 0
M  V30 224 H 20.7153 -1.92495 -2.29317 0
M  V30 225 H 18.2613 -0.92693 -1.102 0
M  V30 226 H 20.2143 -0.401091 -4.19487 0
M  V30 227 H 18.9383 0.396411 -3.24185 0
M  V30 228 H 17.5973 -1.73606 -3.22888 0
M  V30 229 H 17.2453 -0.0368439 -5.02987 0
M  V30 230 H 16.9453 -1.68771 -5.62841 0
M  V30 231 H 18.4693 -0.854015 -6.04598 0
M  V30 232 H 19.8833 -2.8552 -4.97143 0
M  V30 233 H 18.2803 -3.62372 -4.78338 0
M  V30 234 H 19.3503 -3.47956 -3.3772 0
M  V30 235 N 20.6934 1.19889 -1.02296 0
M  V30 236 C 21.9404 1.8942 -0.715972 0
M  V30 237 C 22.2684 1.79251 0.754944 0
M  V30 238 O 21.5234 1.17526 1.56481 0
M  V30 239 C 21.8224 3.39883 -1.10518 0
M  V30 240 C 21.4884 3.70254 -2.57337 0
M  V30 241 C 20.1504 3.78254 -2.97452 0
M  V30 242 C 22.5024 3.84052 -3.52354 0
M  V30 243 C 19.8304 3.97514 -4.31509 0
M  V30 244 C 22.1824 4.04824 -4.86108 0
M  V30 245 C 20.8464 4.11054 -5.25919 0
M  V30 246 H 20.1164 0.693138 -0.261993 0
M  V30 247 H 22.7634 1.42012 -1.28472 0
M  V30 248 H 21.0684 3.8915 -0.454953 0
M  V30 249 H 22.7654 3.9199 -0.845261 0
M  V30 250 H 19.3554 3.64632 -2.25258 0
M  V30 251 H 23.5394 3.77221 -3.22518 0
M  V30 252 H 18.7954 4.00574 -4.61898 0
M  V30 253 H 22.9694 4.14442 -5.59653 0
M  V30 254 H 20.5964 4.2573 -6.29808 0
M  V30 255 N 22.1715 0.800033 1.35784 0
M  V30 256 C 23.3995 0.389606 2.03199 0
M  V30 257 C 23.8145 -0.997375 1.60306 0
M  V30 258 O 23.1715 -1.64154 0.797481 0
M  V30 259 C 23.2225 0.455855 3.58614 0
M  V30 260 O 22.9435 1.78815 3.99946 0
M  V30 261 C 24.4445 0.0374032 4.43284 0
M  V30 262 H 21.6645 0.159132 0.651857 0
M  V30 263 H 24.2085 1.08183 1.73541 0
M  V30 264 H 22.3635 -0.188057 3.86943 0
M  V30 265 H 22.7775 1.74636 4.94573 0
M  V30 266 H 24.2515 0.134882 5.51835 0
M  V30 267 H 24.7285 -1.01651 4.27275 0
M  V30 268 H 25.3345 0.654215 4.20238 0
M  V30 269 N 23.6496 -1.47581 0.552962 0
M  V30 270 C 24.9266 -1.95563 -0.0381515 0
M  V30 271 C 25.3066 -1.49552 -1.48988 0
M  V30 272 O 24.6546 -0.732414 -2.16444 0
M  V30 273 C 24.8646 -3.48848 0.102919 0
M  V30 274 C 26.2126 -4.24577 -0.0446082 0
M  V30 275 O 27.2366 -3.56187 0.0302548 0
M  V30 276 O 26.0956 -5.46116 -0.204923 0
M  V30 277 H 23.1896 -0.824321 -0.0665067 0
M  V30 278 H 25.7356 -1.58001 0.619186 0
M  V30 279 H 24.5076 -3.75129 1.11328 0
M  V30 280 H 24.1306 -3.93165 -0.592224 0
M  V30 281 N 25.1277 -0.289203 -1.54924 0
M  V30 282 C 26.0607 0.633823 -2.19221 0
M  V30 283 C 27.0387 1.14174 -1.15772 0
M  V30 284 O 28.2227 1.21211 -1.44361 0
M  V30 285 C 25.3497 1.86592 -2.82668 0
M  V30 286 C 24.3957 1.49227 -3.99542 0
M  V30 287 S 25.2287 0.558312 -5.32582 0
M  V30 288 C 26.3847 1.79847 -5.99505 0
M  V30 289 H 26.6177 0.0875416 -2.97171 0
M  V30 290 H 24.1507 -0.0733899 -1.54225 0
M  V30 291 H 26.1087 2.57305 -3.19851 0
M  V30 292 H 24.7697 2.38335 -2.04585 0
M  V30 293 H 23.9627 2.40945 -4.42676 0
M  V30 294 H 23.5647 0.865193 -3.63855 0
M  V30 295 H 25.8567 2.7406 -6.19595 0
M  V30 296 H 26.7997 1.4099 -6.93922 0
M  V30 297 H 27.2077 1.96982 -5.29016 0
M  V30 298 N 26.6058 1.57591 -0.0167156 0
M  V30 299 C 27.8458 1.93145 0.668902 0
M  V30 300 C 28.2098 0.892406 1.7 0
M  V30 301 O 29.4108 1.13373 2.43721 0
M  V30 302 C 27.6818 3.33678 1.28039 0
M  V30 303 S 29.2408 3.91142 1.9888 0
M  V30 304 H 26.0588 0.67593 0.220545 0
M  V30 305 H 28.6608 1.95347 -0.0774105 0
M  V30 306 H 27.3648 4.07126 0.517339 0
M  V30 307 H 26.8958 3.3489 2.06427 0
M  V30 308 H 28.9108 3.73571 3.26587 0
M  V30 309 N 28.0839 -0.256276 1.55502 0
M  V30 310 C 28.9939 -1.33882 1.92647 0
M  V30 311 C 30.0099 -1.53159 0.825727 0
M  V30 312 O 31.1859 -1.66963 1.12629 0
M  V30 313 C 28.2509 -2.6751 2.20543 0
M  V30 314 C 27.3119 -2.56836 3.43997 0
M  V30 315 C 26.5449 -3.84092 3.70553 0
M  V30 316 O 26.7679 -4.85545 2.99336 0
M  V30 317 O 25.7019 -3.83288 4.64084 0
M  V30 318 H 29.5279 -1.05374 2.84833 0
M  V30 319 H 27.1129 -0.456237 1.42263 0
M  V30 320 H 28.9949 -3.46492 2.39835 0
M  V30 321 H 27.6699 -2.9577 1.31536 0
M  V30 322 H 26.5769 -1.76172 3.30021 0
M  V30 323 H 27.9099 -2.33523 4.33275 0
M  V30 324 N 29.562 -1.4872 -0.521534 0
M  V30 325 C 30.81 -1.56857 -1.27437 0
M  V30 326 C 31.131 -0.247982 -1.93417 0
M  V30 327 O 30.401 0.731151 -1.81744 0
M  V30 328 H 28.981 -0.577885 -0.473347 0
M  V30 329 H 31.643 -1.85233 -0.606205 0
M  V30 330 H 30.739 -2.35402 -2.0492 0
M  V30 331 N 31.0401 0.771051 -1.3745 0
M  V30 332 C 31.9701 1.89827 -1.3597 0
M  V30 333 C 32.9511 1.68562 -0.228216 0
M  V30 334 O 34.1361 1.8941 -0.428675 0
M  V30 335 C 31.2661 3.2712 -1.16662 0
M  V30 336 C 30.2201 3.6295 -2.2683 0
M  V30 337 C 29.5461 4.98791 -1.92644 0
M  V30 338 C 30.8461 3.69627 -3.69017 0
M  V30 339 H 32.5401 1.91323 -2.30295 0
M  V30 340 H 30.0861 0.919082 -1.10855 0
M  V30 341 H 32.0391 4.05615 -1.14256 0
M  V30 342 H 30.7631 3.26059 -0.187926 0
M  V30 343 H 29.4221 2.86763 -2.28392 0
M  V30 344 H 29.0701 4.94271 -0.933021 0
M  V30 345 H 28.7701 5.23733 -2.66416 0
M  V30 346 H 30.2941 5.79685 -1.91826 0
M  V30 347 H 31.7081 4.38273 -3.69581 0
M  V30 348 H 30.1051 4.06067 -4.41848 0
M  V30 349 H 31.1751 2.70273 -4.02592 0
M  V30 350 N 32.5182 1.22032 0.997298 0
M  V30 351 C 33.9292 1.0397 1.55071 0
M  V30 352 C 34.2802 -0.398192 1.92117 0
M  V30 353 O 33.4052 -1.28254 1.74298 0
M  V30 354 C 34.0002 1.88109 2.81781 0
M  V30 355 C 32.5592 1.74357 3.33581 0
M  V30 356 C 31.7062 1.84846 2.06706 0
M  V30 357 H 34.6572 1.35941 0.818883 0
M  V30 358 H 34.6782 1.39589 3.53971 0
M  V30 359 H 34.1902 2.92754 2.54787 0
M  V30 360 H 32.2912 0.72427 3.65493 0
M  V30 361 H 32.4042 2.56772 4.04481 0
M  V30 362 H 30.7682 1.28238 2.20062 0
M  V30 363 H 31.5512 2.91014 1.82114 0
M  V30 364 N 33.9963 -1.19345 1.0293 0
M  V30 365 C 34.9063 -2.26245 0.620515 0
M  V30 366 C 35.9223 -1.70486 -0.347928 0
M  V30 367 O 37.0983 -2.00347 -0.205704 0
M  V30 368 C 34.1633 -3.46693 -0.0218957 0
M  V30 369 C 33.2243 -4.17632 0.994102 0
M  V30 370 C 32.4573 -5.32329 0.382253 0
M  V30 371 O 32.6803 -5.64552 -0.814676 0
M  V30 372 O 31.6143 -5.91664 1.10531 0
M  V30 373 H 35.4403 -2.63453 1.51083 0
M  V30 374 H 33.0253 -1.26207 0.799513 0
M  V30 375 H 34.9073 -4.19683 -0.380072 0
M  V30 376 H 33.5823 -3.11333 -0.886209 0
M  V30 377 H 32.4893 -3.4676 1.40387 0
M  V30 378 H 33.8223 -4.56964 1.8288 0
M  V30 379 N 35.4744 -0.807222 -1.35358 0
M  V30 380 C 36.4214 -0.216037 -2.29787 0
M  V30 381 C 37.3914 0.650278 -1.52842 0
M  V30 382 O 38.5764 0.595227 -1.81278 0
M  V30 383 C 35.7164 0.628893 -3.39321 0
M  V30 384 C 34.8294 -0.257927 -4.31229 0
M  V30 385 C 33.9644 0.595069 -5.27856 0
M  V30 386 C 33.0034 -0.292111 -6.11403 0
M  V30 387 N 32.1404 0.520895 -7.00165 0
M  V30 388 H 36.9804 -1.02671 -2.79755 0
M  V30 389 H 34.5174 -0.517839 -1.37684 0
M  V30 390 H 36.4754 1.13393 -4.01494 0
M  V30 391 H 35.1054 1.40482 -2.90628 0
M  V30 392 H 34.1574 -0.881076 -3.70056 0
M  V30 393 H 35.4694 -0.940759 -4.89848 0
M  V30 394 H 34.6234 1.16522 -5.95405 0
M  V30 395 H 33.3624 1.31146 -4.69736 0
M  V30 396 H 32.3674 -0.874525 -5.428 0
M  V30 397 H 33.5924 -1.00638 -6.71602 0
M  V30 398 H 31.5384 1.22125 -6.44532 0
M  V30 399 H 31.4554 -0.103877 -7.55929 0
M  V30 400 H 32.7234 1.0743 -7.72062 0
M  V30 401 N 36.9525 1.47285 -0.560781 0
M  V30 402 C 38.3685 1.58065 -0.22081 0
M  V30 403 C 38.5685 1.55892 1.27671 0
M  V30 404 O 37.6245 1.46422 2.0571 0
M  V30 405 C 38.9375 2.88418 -0.850625 0
M  V30 406 C 40.4855 3.02009 -0.822184 0
M  V30 407 C 40.9605 4.35066 -1.43113 0
M  V30 408 N 42.4515 4.41711 -1.39448 0
M  V30 409 C 43.1865 5.43237 -1.83525 0
M  V30 410 N 42.6825 6.51555 -2.35474 0
M  V30 411 N 44.4755 5.34304 -1.74574 0
M  V30 412 H 36.6265 1.46941 -1.53369 0
M  V30 413 H 38.8895 0.699558 -0.639783 0
M  V30 414 H 38.5955 2.95755 -1.9032 0
M  V30 415 H 38.4695 3.75612 -0.345773 0
M  V30 416 H 40.8565 2.94266 0.221714 0
M  V30 417 H 40.9375 2.16347 -1.36483 0
M  V30 418 H 40.5815 4.43565 -2.47412 0
M  V30 419 H 40.5115 5.19465 -0.863899 0
M  V30 420 H 43.0025 3.64027 -1.01452 0
M  V30 421 H 43.3155 7.25203 -2.67021 0
M  V30 422 H 41.6605 6.52435 -2.39487 0
M  V30 423 H 44.8515 4.48581 -1.33763 0
M  V30 424 H 45.0245 6.13288 -2.09242 0
M  V30 425 N 38.4306 0.297415 1.54768 0
M  V30 426 C 39.3606 -0.573494 2.26348 0
M  V30 427 C 40.3416 -1.14085 1.26169 0
M  V30 428 O 41.5266 -1.17086 1.54934 0
M  V30 429 C 38.6566 -1.74716 3.00153 0
M  V30 430 C 37.6106 -1.31032 4.07449 0
M  V30 431 C 36.9366 -2.56887 4.68949 0
M  V30 432 C 38.2366 -0.444183 5.20408 0
M  V30 433 H 39.9306 0.0235131 2.99391 0
M  V30 434 H 37.4766 0.0127488 1.43994 0
M  V30 435 H 39.4296 -2.3625 3.48947 0
M  V30 436 H 38.1536 -2.37035 2.24682 0
M  V30 437 H 36.8126 -0.718066 3.59499 0
M  V30 438 H 36.4606 -3.17512 3.90122 0
M  V30 439 H 36.1606 -2.2836 5.41411 0
M  V30 440 H 37.6846 -3.19229 5.20505 0
M  V30 441 H 39.0986 -0.9651 5.65118 0
M  V30 442 H 37.4956 -0.252846 5.99567 0
M  V30 443 H 38.5656 0.531609 4.81977 0
M  V30 444 N 39.9087 -1.5758 0.0250728 0
M  V30 445 C 41.3247 -1.56124 -0.331282 0
M  V30 446 C 41.5247 -1.03029 -1.73169 0
M  V30 447 O 40.5807 -0.675215 -2.43305 0
M  V30 448 C 41.8937 -3.00139 -0.183584 0
M  V30 449 C 43.4417 -3.11946 -0.256654 0
M  V30 450 C 43.9167 -4.57793 -0.137792 0
M  V30 451 N 45.4077 -4.6279 -0.194904 0
M  V30 452 C 46.1427 -5.7326 -0.126655 0
M  V30 453 N 45.6387 -6.928 -0.00755288 0
M  V30 454 N 47.4317 -5.61811 -0.180348 0
M  V30 455 H 39.5827 -1.90424 0.94087 0
M  V30 456 H 41.8457 -0.875761 0.362968 0
M  V30 457 H 41.5517 -3.4292 0.780927 0
M  V30 458 H 41.4257 -3.64899 -0.955448 0
M  V30 459 H 43.8127 -2.69079 -1.21162 0
M  V30 460 H 43.8937 -2.49915 0.545517 0
M  V30 461 H 43.5377 -5.01339 0.813739 0
M  V30 462 H 43.4677 -5.17798 -0.958775 0
M  V30 463 H 45.9587 -3.76807 -0.287267 0
M  V30 464 H 46.2717 -7.72791 0.0379428 0
M  V30 465 H 44.6167 -6.94995 0.0271731 0
M  V30 466 H 47.8077 -4.6731 -0.271767 0
M  V30 467 H 47.9807 -6.47882 -0.123697 0
M  V30 468 N 41.3868 0.248026 -1.55636 0
M  V30 469 C 42.6348 0.974295 -1.77065 0
M  V30 470 C 42.9558 1.85897 -0.588849 0
M  V30 471 O 42.2258 1.91868 0.395407 0
M  V30 472 H 40.8058 0.362733 -0.653019 0
M  V30 473 H 43.4678 0.266244 -1.93073 0
M  V30 474 H 42.5638 1.59667 -2.68166 0
M  V30 475 N 42.8649 1.48995 0.513639 0
M  V30 476 C 43.8119 1.6473 1.61656 0
M  V30 477 C 44.7819 0.488984 1.58739 0
M  V30 478 O 45.9669 0.714478 1.76918 0
M  V30 479 C 43.1069 1.7082 2.99858 0
M  V30 480 C 42.2199 2.9787 3.12885 0
M  V30 481 C 41.3549 2.95017 4.41744 0
M  V30 482 C 40.3939 4.16702 4.48359 0
M  V30 483 N 39.5309 4.11832 5.68629 0
M  V30 484 H 44.3709 2.58909 1.47547 0
M  V30 485 H 41.9079 1.28382 0.71808 0
M  V30 486 H 43.8659 1.72331 3.79944 0
M  V30 487 H 42.4959 0.801181 3.12699 0
M  V30 488 H 41.5479 3.06029 2.25944 0
M  V30 489 H 42.8599 3.8786 3.13633 0
M  V30 490 H 42.0139 2.95021 5.30139 0
M  V30 491 H 40.7529 2.02784 4.43542 0
M  V30 492 H 39.7579 4.16955 3.58369 0
M  V30 493 H 40.9829 5.10113 4.48287 0
M  V30 494 H 38.9289 3.22428 5.71293 0
M  V30 495 H 38.8459 4.95543 5.7094 0
M  V30 496 H 40.1139 4.1592 6.59266 0
M  V30 497 N 44.343 -0.763751 1.37857 0
M  V30 498 C 45.571 -1.55293 1.36718 0
M  V30 499 C 45.986 -1.88745 -0.0455434 0
M  V30 500 O 45.343 -1.52039 -1.00947 0
M  V30 501 C 45.394 -2.85831 2.2132 0
M  V30 502 O 45.115 -2.5381 3.57089 0
M  V30 503 C 46.616 -3.80023 2.28249 0
M  V30 504 H 43.836 -0.480841 0.468009 0
M  V30 505 H 46.38 -0.946009 1.81303 0
M  V30 506 H 44.535 -3.42926 1.80223 0
M  V30 507 H 44.949 -3.37459 4.01524 0
M  V30 508 H 46.423 -4.68599 2.91752 0
M  V30 509 H 46.9 -4.1973 1.2932 0
M  V30 510 H 47.506 -3.28855 2.69693 0
M  V30 511 N 45.8211 -1.22559 -0.990812 0
M  V30 512 C 46.7511 -1.0218 -2.09956 0
M  V30 513 C 47.7321 0.0579394 -1.70001 0
M  V30 514 O 48.9171 -0.104684 -1.93918 0
M  V30 515 C 46.0471 -0.601023 -3.4206 0
M  V30 516 C 45.0011 -1.62694 -3.95872 0
M  V30 517 C 44.3271 -1.06193 -5.24049 0
M  V30 518 C 45.6271 -3.01743 -4.2632 0
M  V30 519 H 47.3211 -1.94916 -2.27262 0
M  V30 520 H 44.8671 -0.938566 -1.09211 0
M  V30 521 H 46.8201 -0.445561 -4.19038 0
M  V30 522 H 45.5441 0.362005 -3.24588 0
M  V30 523 H 44.2031 -1.77021 -3.21028 0
M  V30 524 H 43.8511 -0.0901903 -5.02919 0
M  V30 525 H 43.5511 -1.74732 -5.61019 0
M  V30 526 H 45.0751 -0.918092 -6.03658 0
M  V30 527 H 46.4891 -2.90777 -4.94087 0
M  V30 528 H 44.8861 -3.67425 -4.74467 0
M  V30 529 H 45.9561 -3.51518 -3.34011 0
M  V30 530 N 47.2992 1.18797 -1.03562 0
M  V30 531 C 48.2322 2.2105 -0.56676 0
M  V30 532 C 49.2102 1.57704 0.395993 0
M  V30 533 O 50.3942 1.85908 0.311498 0
M  V30 534 C 47.5212 3.38259 0.172704 0
M  V30 535 C 46.5672 4.19987 -0.74252 0
M  V30 536 S 47.4002 4.87199 -2.22254 0
M  V30 537 C 48.5562 6.07813 -1.49379 0
M  V30 538 H 48.7892 2.60478 -1.43312 0
M  V30 539 H 46.3222 1.29151 -0.846133 0
M  V30 540 H 48.2802 4.06191 0.593191 0
M  V30 541 H 46.9412 2.97252 1.01488 0
M  V30 542 H 46.1342 5.03709 -0.171265 0
M  V30 543 H 45.7362 3.57408 -1.10163 0
M  V30 544 H 48.0282 6.72948 -0.784056 0
M  V30 545 H 48.9712 6.69435 -2.30786 0
M  V30 546 H 49.3792 5.55781 -0.988331 0
M  V30 547 N 48.7773 0.814389 1.34928 0
M  V30 548 C 50.0073 0.41054 2.0248 0
M  V30 549 C 50.4153 -0.985625 1.61499 0
M  V30 550 O 49.7583 -1.64781 0.811976 0
M  V30 551 C 49.8203 0.423384 3.56998 0
M  V30 552 C 49.4843 1.77141 4.21272 0
M  V30 553 C 50.4813 2.73093 4.42398 0
M  V30 554 C 48.1663 2.05755 4.58225 0
M  V30 555 C 50.1603 3.95838 4.9959 0
M  V30 556 C 47.8473 3.28762 5.1513 0
M  V30 557 C 48.8453 4.23621 5.35755 0
M  V30 558 O 48.5333 5.44456 5.91458 0
M  V30 559 H 48.2653 0.163997 0.655806 0
M  V30 560 H 50.8193 1.10155 1.73364 0
M  V30 561 H 49.0493 -0.324276 3.85338 0
M  V30 562 H 50.7383 0.0407683 4.0588 0
M  V30 563 H 51.5043 2.5228 4.14222 0
M  V30 564 H 47.3833 1.32727 4.4148 0
M  V30 565 H 50.9273 4.69891 5.15605 0
M  V30 566 H 46.8243 3.49443 5.42734 0
M  V30 567 H 47.5923 5.4586 6.09901 0
M  V30 568 N 50.2554 -1.46986 0.568584 0
M  V30 569 C 51.1654 -2.33942 -0.17555 0
M  V30 570 C 52.1814 -1.48891 -0.90041 0
M  V30 571 O 53.3574 -1.81794 -0.86676 0
M  V30 572 C 50.4224 -3.25811 -1.18524 0
M  V30 573 C 49.4834 -4.26757 -0.466582 0
M  V30 574 C 48.7164 -5.14236 -1.42817 0
M  V30 575 O 48.9394 -5.04379 -2.66379 0
M  V30 576 O 47.8734 -5.94412 -0.946453 0
M  V30 577 H 51.6994 -2.98896 0.538036 0
M  V30 578 H 49.2844 -1.4573 0.329097 0
M  V30 579 H 51.1664 -3.82527 -1.76779 0
M  V30 580 H 49.8414 -2.63471 -1.88055 0
M  V30 581 H 48.7484 -3.73769 0.157451 0
M  V30 582 H 50.0814 -4.91843 0.187485 0
M  V30 583 N 51.7335 -0.305618 -1.54608 0
M  V30 584 C 52.9805 0.302298 -2.00231 0
M  V30 585 C 53.3085 1.5354 -1.19398 0
M  V30 586 O 52.5635 1.93973 -0.259423 0
M  V30 587 C 52.8625 0.698983 -3.50498 0
M  V30 588 C 52.5285 -0.432903 -4.48817 0
M  V30 589 C 51.1905 -0.743622 -4.75419 0
M  V30 590 C 53.5425 -1.19409 -5.07337 0
M  V30 591 C 50.8705 -1.81857 -5.57804 0
M  V30 592 C 53.2225 -2.25899 -5.90891 0
M  V30 593 C 51.8865 -2.57572 -6.15803 0
M  V30 594 H 51.1565 0.110619 -0.732697 0
M  V30 595 H 53.8035 -0.425674 -1.86709 0
M  V30 596 H 52.1085 1.50711 -3.61654 0
M  V30 597 H 53.8055 1.1806 -3.83227 0
M  V30 598 H 50.3955 -0.18063 -4.28219 0
M  V30 599 H 54.5795 -0.967295 -4.86782 0
M  V30 600 H 49.8355 -2.06864 -5.75341 0
M  V30 601 H 54.0095 -2.85335 -6.35261 0
M  V30 602 H 51.6365 -3.40998 -6.7943 0
M  V30 603 N 53.2116 1.57565 -0.0334293 0
M  V30 604 C 54.1596 2.1164 0.96496 0
M  V30 605 C 55.1536 1.04398 1.33407 0
M  V30 606 O 56.3596 1.22828 1.3158 0
M  V30 607 H 52.7346 0.676222 0.32898 0
M  V30 608 H 54.7056 2.94455 0.483614 0
M  V30 609 C 53.4546 2.66207 2.23672 0
M  V30 610 H 52.7776 3.48378 1.96145 0
M  V30 611 H 54.2176 3.07685 2.9173 0
M  V30 612 C 52.6766 1.59151 2.96939 0
M  V30 613 O 53.2066 0.993858 3.89211 0
M  V30 614 N 51.4126 1.31093 2.59351 0
M  V30 615 H 50.9596 1.7988 1.84393 0
M  V30 616 H 50.9176 0.596889 3.08682 0
M  V30 617 N 54.6897 -0.239769 1.55765 0
M  V30 618 C 55.6397 -1.30002 1.87306 0
M  V30 619 C 56.6237 -1.43156 0.73452 0
M  V30 620 O 57.8157 -1.46277 0.99659 0
M  V30 621 C 54.9447 -2.65409 2.17745 0
M  V30 622 C 54.0307 -2.56231 3.37945 0
M  V30 623 N 54.4217 -2.16689 4.57033 0
M  V30 624 C 52.7197 -2.87229 3.41197 0
M  V30 625 C 53.4207 -2.18318 5.39177 0
M  V30 626 N 52.3967 -2.58098 4.78421 0
M  V30 627 H 56.1987 -0.984912 2.76906 0
M  V30 628 H 53.7127 -0.448381 1.56087 0
M  V30 629 H 55.7097 -3.41934 2.38509 0
M  V30 630 H 54.3697 -2.97781 1.29448 0
M  V30 631 H 55.3807 -1.88116 4.82528 0
M  V30 632 H 52.0577 -3.24094 2.63191 0
M  V30 633 H 53.4477 -1.90025 6.44469 0
M  V30 634 N 56.1678 -1.49265 -0.50573 0
M  V30 635 C 57.3928 -1.62478 -1.28902 0
M  V30 636 C 57.8178 -0.294332 -1.85783 0
M  V30 637 O 57.1758 0.737412 -1.65626 0
M  V30 638 C 57.2238 -2.69268 -2.39848 0
M  V30 639 O 56.3278 -2.28113 -3.43567 0
M  V30 640 H 55.6688 -0.54399 -0.380751 0
M  V30 641 H 58.1988 -1.95421 -0.605952 0
M  V30 642 H 58.2088 -2.91291 -2.85681 0
M  V30 643 H 56.8838 -3.65846 -1.97812 0
M  V30 644 H 55.4608 -2.16401 -3.03685 0
M  V30 645 N 57.6459 0.756429 -1.3826 0
M  V30 646 C 58.5959 1.86069 -1.31766 0
M  V30 647 C 59.5799 1.59621 -0.202483 0
M  V30 648 O 60.7719 1.7149 -0.438211 0
M  V30 649 C 57.9009 3.23742 -1.1422 0
M  V30 650 C 56.9869 3.56091 -2.30348 0
M  V30 651 N 57.3779 3.59517 -3.55783 0
M  V30 652 C 55.6759 3.86341 -2.22838 0
M  V30 653 C 56.3769 3.89052 -4.32451 0
M  V30 654 N 55.3529 4.05736 -3.61772 0
M  V30 655 H 59.1549 1.86992 -2.26741 0
M  V30 656 H 56.6689 0.953643 -1.31451 0
M  V30 657 H 58.6659 4.02761 -1.07652 0
M  V30 658 H 57.3259 3.24073 -0.201763 0
M  V30 659 H 58.3369 3.41347 -3.89491 0
M  V30 660 H 55.0139 3.94404 -1.36937 0
M  V30 661 H 56.4039 3.98349 -5.4108 0
M  V30 662 N 59.124 1.23083 0.984299 0
M  V30 663 C 60.535 1.05609 1.5396 0
M  V30 664 C 60.886 -0.377793 1.92528 0
M  V30 665 O 60.011 -1.26398 1.75649 0
M  V30 666 C 60.606 1.91087 2.7977 0
M  V30 667 C 59.165 1.77885 3.31713 0
M  V30 668 C 58.312 1.87028 2.04733 0
M  V30 669 H 61.263 1.36802 0.804419 0
M  V30 670 H 61.284 1.43336 3.5247 0
M  V30 671 H 60.796 2.9544 2.51668 0
M  V30 672 H 58.897 0.762995 3.64704 0
M  V30 673 H 59.01 2.61047 4.01735 0
M  V30 674 H 57.374 1.30565 2.18689 0
M  V30 675 H 58.157 2.92929 1.79017 0
M  V30 676 N 60.6021 -1.18246 1.0419 0
M  V30 677 C 61.8271 -1.92736 0.765996 0
M  V30 678 C 62.2521 -1.75728 -0.67091 0
M  V30 679 O 61.6101 -1.06825 -1.46486 0
M  V30 680 C 61.6581 -3.42148 1.13875 0
M  V30 681 O 60.7621 -4.11548 0.264954 0
M  V30 682 H 60.1031 -0.601238 0.281797 0
M  V30 683 H 62.6331 -1.49942 1.39207 0
M  V30 684 H 62.6431 -3.92858 1.1012 0
M  V30 685 H 61.3181 -3.53848 2.18551 0
M  V30 686 H 59.8951 -3.71137 0.362226 0
M  V30 687 N 62.0802 -0.821533 -1.34494 0
M  V30 688 C 62.9902 -0.244355 -2.33324 0
M  V30 689 C 64.0062 0.620527 -1.62559 0
M  V30 690 O 65.1822 0.528754 -1.94335 0
M  V30 691 C 62.2472 0.585368 -3.41723 0
M  V30 692 C 61.3082 -0.301752 -4.28238 0
M  V30 693 C 60.5412 0.488466 -5.3146 0
M  V30 694 O 60.7642 1.72186 -5.4379 0
M  V30 695 O 59.6982 -0.12848 -6.01763 0
M  V30 696 H 63.5242 -1.06231 -2.84515 0
M  V30 697 H 61.1092 -0.583645 -1.37528 0
M  V30 698 H 62.9912 1.05747 -4.07916 0
M  V30 699 H 61.6662 1.38068 -2.92778 0
M  V30 700 H 60.5732 -0.821315 -3.64973 0
M  V30 701 H 61.9062 -1.06138 -4.8062 0
M  V30 702 N 63.5583 1.46682 -0.576371 0
M  V30 703 C 64.8043 2.02712 -0.0596221 0
M  V30 704 C 65.1373 1.44765 1.29448 0
M  V30 705 O 64.4123 0.610355 1.84675 0
M  V30 706 C 64.6953 3.60098 0.0129503 0
M  V30 707 C 64.5483 4.28441 -1.3696 0
M  V30 708 C 65.8673 4.34224 0.71678 0
M  V30 709 H 62.9863 0.736637 -0.0231407 0
M  V30 710 H 65.6283 1.74898 -0.742351 0
M  V30 711 H 63.7783 3.83926 0.594378 0
M  V30 712 H 65.4503 4.15896 -1.9957 0
M  V30 713 H 63.6933 3.8805 -1.93907 0
M  V30 714 H 64.3643 5.3716 -1.27135 0
M  V30 715 H 66.8403 4.15503 0.222908 0
M  V30 716 H 65.7163 5.43936 0.73657 0
M  V30 717 H 65.9773 4.04823 1.77682 0
M  V30 718 N 65.0364 0.313813 1.54444 0
M  V30 719 C 65.9464 -0.565714 2.27677 0
M  V30 720 C 66.9624 -1.13754 1.31666 0
M  V30 721 O 68.1384 -1.15959 1.64668 0
M  V30 722 C 65.2034 -1.71528 3.01296 0
M  V30 723 C 64.2644 -1.17624 4.12872 0
M  V30 724 C 63.4974 -2.27102 4.8297 0
M  V30 725 O 63.7204 -3.47256 4.52514 0
M  V30 726 O 62.6544 -1.9307 5.70094 0
M  V30 727 H 66.4804 0.0287296 3.03686 0
M  V30 728 H 64.0654 0.0798312 1.49187 0
M  V30 729 H 65.9474 -2.38476 3.4743 0
M  V30 730 H 64.6224 -2.29608 2.2817 0
M  V30 731 H 63.5294 -0.472124 3.71109 0
M  V30 732 H 64.8624 -0.640695 4.88012 0
M  V30 733 N 66.5145 -1.57545 0.0417849 0
M  V30 734 C 67.4615 -2.10977 -0.935805 0
M  V30 735 C 68.4315 -1.01486 -1.31491 0
M  V30 736 O 69.6165 -1.2898 -1.40602 0
M  V30 737 C 66.7565 -2.65169 -2.2086 0
M  V30 738 C 65.8695 -3.88714 -1.88482 0
M  V30 739 C 65.0045 -4.31254 -3.1015 0
M  V30 740 C 64.0435 -5.47524 -2.7365 0
M  V30 741 N 63.1805 -5.85162 -3.87982 0
M  V30 742 H 68.0205 -2.94218 -0.473249 0
M  V30 743 H 65.5575 -1.45415 -0.221981 0
M  V30 744 H 67.5155 -2.94685 -2.95325 0
M  V30 745 H 66.1455 -1.8474 -2.64709 0
M  V30 746 H 65.1975 -3.65849 -1.04205 0
M  V30 747 H 66.5095 -4.73245 -1.57608 0
M  V30 748 H 65.6635 -4.62273 -3.92923 0
M  V30 749 H 64.4025 -3.45516 -3.44195 0
M  V30 750 H 63.4075 -5.16187 -1.89291 0
M  V30 751 H 64.6325 -6.34971 -2.40807 0
M  V30 752 H 62.5785 -5.02377 -4.21846 0
M  V30 753 H 62.4955 -6.64362 -3.60775 0
M  V30 754 H 63.7635 -6.20791 -4.71422 0
M  V30 755 N 67.9926 0.231505 -1.5589 0
M  V30 756 C 69.4086 0.580748 -1.48659 0
M  V30 757 C 69.6086 1.87617 -0.73498 0
M  V30 758 O 68.6646 2.51046 -0.270586 0
M  V30 759 C 69.9776 0.669202 -2.93159 0
M  V30 760 C 71.5256 0.760499 -3.03621 0
M  V30 761 C 72.0006 0.880383 -4.49459 0
M  V30 762 N 73.4916 0.944861 -4.53461 0
M  V30 763 C 74.2266 1.05716 -5.63571 0
M  V30 764 N 73.7226 1.13403 -6.83456 0
M  V30 765 N 75.5156 1.09152 -5.514 0
M  V30 766 H 67.6666 -0.618695 -2.03189 0
M  V30 767 H 69.9296 -0.215728 -0.923128 0
M  V30 768 H 69.6356 -0.212904 -3.51055 0
M  V30 769 H 69.5096 1.5361 -3.44505 0
M  V30 770 H 71.8966 1.63305 -2.45796 0
M  V30 771 H 71.9776 -0.131864 -2.5546 0
M  V30 772 H 71.6216 0.0123284 -5.07899 0
M  V30 773 H 71.5516 1.78802 -4.95316 0
M  V30 774 H 74.0426 0.896176 -3.6712 0
M  V30 775 H 74.3556 1.21921 -7.63122 0
M  V30 776 H 72.7006 1.10333 -6.86186 0
M  V30 777 H 75.8916 1.02805 -4.56671 0
M  V30 778 H 76.0646 1.17558 -6.37247 0
M  V30 779 N 69.4707 1.49531 0.497807 0
M  V30 780 C 70.3807 1.69176 1.62532 0
M  V30 781 C 71.3967 0.5744 1.64246 0
M  V30 782 O 72.5727 0.849497 1.82608 0
M  V30 783 C 69.6377 1.75695 2.98885 0
M  V30 784 C 68.6987 2.9929 3.07773 0
M  V30 785 C 67.9317 3.05488 4.37622 0
M  V30 786 O 68.1547 2.19192 5.26603 0
M  V30 787 O 67.0887 3.9798 4.51548 0
M  V30 788 H 70.9147 2.647 1.48887 0
M  V30 789 H 68.4997 1.3331 0.674441 0
M  V30 790 H 70.3817 1.82317 3.79919 0
M  V30 791 H 69.0567 0.8335 3.12785 0
M  V30 792 H 67.9637 2.98183 2.25915 0
M  V30 793 H 69.2967 3.91125 2.98801 0
M  V30 794 N 70.9488 -0.749086 1.3866 0
M  V30 795 C 72.1738 -1.54344 1.38538 0
M  V30 796 C 72.5988 -1.88088 -0.0216655 0
M  V30 797 O 71.9568 -1.50899 -1.00494 0
M  V30 798 C 72.0048 -2.8164 2.25192 0
M  V30 799 O 71.1088 -3.7698 1.67212 0
M  V30 800 H 70.4498 -0.466654 0.472367 0
M  V30 801 H 72.9798 -0.925355 1.82478 0
M  V30 802 H 72.9898 -3.30519 2.3921 0
M  V30 803 H 71.6648 -2.56411 3.27454 0
M  V30 804 H 70.2418 -3.35699 1.6236 0
M  V30 805 N 72.4269 -1.23603 -0.977757 0
M  V30 806 C 73.3569 -1.04401 -2.0886 0
M  V30 807 C 74.3379 0.0399052 -1.70053 0
M  V30 808 O 75.5229 -0.125246 -1.93796 0
M  V30 809 C 72.6529 -0.637269 -3.41403 0
M  V30 810 C 71.6069 -1.66883 -3.94124 0
M  V30 811 C 70.9329 -1.11745 -5.22893 0
M  V30 812 C 72.2329 -3.06247 -4.23096 0
M  V30 813 H 73.9269 -1.97316 -2.25182 0
M  V30 814 H 71.4729 -0.950096 -1.08209 0
M  V30 815 H 73.4259 -0.48998 -4.18542 0
M  V30 816 H 72.1499 0.327557 -3.24953 0
M  V30 817 H 70.8089 -1.80416 -3.19133 0
M  V30 818 H 70.4569 -0.143527 -5.02795 0
M  V30 819 H 70.1569 -1.80672 -5.59134 0
M  V30 820 H 71.6809 -0.982067 -6.02651 0
M  V30 821 H 73.0949 -2.96001 -4.90975 0
M  V30 822 H 71.4919 -3.72436 -4.70544 0
M  V30 823 H 72.5619 -3.55041 -3.30263 0
M  V30 824 N 73.905 1.17692 -1.04816 0
M  V30 825 C 75.154 1.87192 -0.751132 0
M  V30 826 C 75.467 1.8169 0.724441 0
M  V30 827 O 76.673 2.46625 1.13527 0
M  V30 828 C 75.129 3.35857 -1.29338 0
M  V30 829 C 74.737 3.4987 -2.79812 0
M  V30 830 C 76.481 4.10709 -1.07322 0
M  V30 831 C 74.388 4.92536 -3.27356 0
M  V30 832 H 73.318 0.701162 -0.277288 0
M  V30 833 H 75.969 1.32932 -1.26496 0
M  V30 834 H 74.351 3.89631 -0.707376 0
M  V30 835 H 75.525 3.06332 -3.44235 0
M  V30 836 H 73.84 2.88433 -3.00325 0
M  V30 837 H 76.437 5.15952 -1.4035 0
M  V30 838 H 76.78 4.16299 -0.0108001 0
M  V30 839 H 77.313 3.6313 -1.62423 0
M  V30 840 H 74.052 4.92119 -4.33012 0
M  V30 841 H 73.572 5.3676 -2.67673 0
M  V30 842 H 75.251 5.61288 -3.21815 0
M  V30 843 N 75.3831 0.828654 1.34056 0
M  V30 844 C 76.3301 0.252567 2.29414 0
M  V30 845 C 77.3001 -0.62588 1.53857 0
M  V30 846 O 78.4851 -0.566312 1.82202 0
M  V30 847 C 75.6251 -0.574831 3.40279 0
M  V30 848 C 74.7381 0.326499 4.30764 0
M  V30 849 C 73.8731 -0.511016 5.28736 0
M  V30 850 C 72.9121 0.389342 6.1086 0
M  V30 851 N 72.0491 -0.409439 7.00905 0
M  V30 852 H 76.8891 1.07108 2.78086 0
M  V30 853 H 74.4261 0.539677 1.36843 0
M  V30 854 H 76.3841 -1.06992 4.03248 0
M  V30 855 H 75.0141 -1.35841 2.92826 0
M  V30 856 H 74.0661 0.939837 3.68607 0
M  V30 857 H 75.3781 1.01857 4.88289 0
M  V30 858 H 74.5321 -1.07035 5.97184 0
M  V30 859 H 73.2711 -1.23657 4.71763 0
M  V30 860 H 72.2761 0.960769 5.4134 0
M  V30 861 H 73.5011 1.1131 6.69916 0
M  V30 862 H 71.4471 -1.11856 6.46393 0
M  V30 863 H 71.3641 0.224126 7.55668 0
M  V30 864 H 72.6321 -0.951336 7.73673 0
M  V30 865 N 76.8612 -1.46375 0.584142 0
M  V30 866 C 77.7712 -2.34115 -0.150728 0
M  V30 867 C 78.7872 -1.49838 -0.884567 0
M  V30 868 O 79.9632 -1.82704 -0.847429 0
M  V30 869 C 77.0282 -3.2705 -1.15062 0
M  V30 870 C 76.0892 -4.27228 -0.421293 0
M  V30 871 C 75.3222 -5.15722 -1.37355 0
M  V30 872 O 75.5452 -5.07176 -2.61014 0
M  V30 873 O 74.4792 -5.95383 -0.883355 0
M  V30 874 H 78.3052 -2.98309 0.569708 0
M  V30 875 H 75.8902 -1.45373 0.344535 0
M  V30 876 H 77.7722 -3.84381 -1.72712 0
M  V30 877 H 76.4472 -2.65451 -1.8525 0
M  V30 878 H 75.3542 -3.7358 0.197085 0
M  V30 879 H 76.6872 -4.91616 0.239641 0
M  V30 880 N 78.3393 -0.321999 -1.54275 0
M  V30 881 C 79.2723 0.58718 -2.20516 0
M  V30 882 C 80.2503 1.11693 -1.18167 0
M  V30 883 O 81.4343 1.18122 -1.46899 0
M  V30 884 C 78.5613 1.80554 -2.86562 0
M  V30 885 C 77.6073 1.40718 -4.02617 0
M  V30 886 S 78.4403 0.445218 -5.33646 0
M  V30 887 C 79.5963 1.6709 -6.03185 0
M  V30 888 H 79.8293 0.0244875 -2.9729 0
M  V30 889 H 77.3623 -0.106087 -1.54035 0
M  V30 890 H 79.3203 2.50462 -3.25237 0
M  V30 891 H 77.9813 2.33942 -2.09595 0
M  V30 892 H 77.1743 2.31501 -4.47687 0
M  V30 893 H 76.7763 0.78782 -3.65608 0
M  V30 894 H 79.0683 2.60856 -6.25268 0
M  V30 895 H 80.0113 1.26239 -6.96756 0
M  V30 896 H 80.4193 1.85716 -5.33076 0
M  V30 897 N 79.8174 1.5752 -0.0501392 0
M  V30 898 C 81.0644 1.9265 0.623874 0
M  V30 899 C 81.3924 0.928411 1.70912 0
M  V30 900 O 80.6474 -0.0594525 1.9561 0
M  V30 901 C 80.9464 3.34467 1.25963 0
M  V30 902 C 80.6124 4.49883 0.302689 0
M  V30 903 C 79.2744 4.81184 0.0393636 0
M  V30 904 C 81.6264 5.20002 -0.353205 0
M  V30 905 C 78.9544 5.79951 -0.887308 0
M  V30 906 C 81.3064 6.1976 -1.26806 0
M  V30 907 C 79.9704 6.49491 -1.54007 0
M  V30 908 H 79.2404 0.704957 0.228292 0
M  V30 909 H 81.8874 1.91146 -0.116398 0
M  V30 910 H 80.1924 3.32333 2.07514 0
M  V30 911 H 81.8894 3.58928 1.78806 0
M  V30 912 H 78.4794 4.25457 0.518109 0
M  V30 913 H 82.6634 4.96033 -0.162854 0
M  V30 914 H 77.9194 6.01322 -1.10553 0
M  V30 915 H 82.0934 6.73205 -1.78236 0
M  V30 916 H 79.7204 7.25837 -2.25976 0
M  V30 917 N 81.2955 -0.223234 1.56011 0
M  V30 918 C 82.2585 -1.26014 1.9145 0
M  V30 919 C 83.2585 -1.3989 0.792937 0
M  V30 920 O 84.4485 -1.38184 1.0607 0
M  V30 921 C 81.5805 -2.63422 2.16383 0
M  V30 922 H 82.7735 -0.95796 2.84189 0
M  V30 923 H 80.3265 -0.463576 1.49267 0
M  V30 924 H 81.0615 -2.98741 1.2619 0
M  V30 925 H 80.8465 -2.54728 2.98088 0
M  V30 926 H 82.3365 -3.38249 2.44903 0
M  V30 927 N 82.7736 -1.49793 -0.48987 0
M  V30 928 C 84.0016 -1.63568 -1.26701 0
M  V30 929 C 84.4166 -0.311465 -1.86213 0
M  V30 930 O 83.7736 0.704416 -1.68357 0
M  V30 931 C 83.8246 -2.71284 -2.38929 0
M  V30 932 O 83.5456 -3.9857 -1.81861 0
M  V30 933 C 85.0466 -2.95864 -3.3012 0
M  V30 934 H 82.2666 -0.550342 -0.383881 0
M  V30 935 H 84.8106 -1.95898 -0.586864 0
M  V30 936 H 82.9656 -2.417 -3.02753 0
M  V30 937 H 83.3796 -4.57993 -2.55622 0
M  V30 938 H 84.8536 -3.74941 -4.05121 0
M  V30 939 H 85.3306 -2.06206 -3.87783 0
M  V30 940 H 85.9366 -3.26907 -2.72051 0
M  V30 941 N 84.2517 0.741722 -1.39055 0
M  V30 942 C 85.4977 1.50336 -1.36113 0
M  V30 943 C 85.8307 1.94148 0.0450796 0
M  V30 944 O 85.1057 1.66301 1.00868 0
M  V30 945 C 85.3887 2.74773 -2.32749 0
M  V30 946 C 85.2417 2.37023 -3.82283 0
M  V30 947 C 86.5607 3.76846 -2.27322 0
M  V30 948 H 83.6797 0.545351 -0.495743 0
M  V30 949 H 86.3217 0.848624 -1.69995 0
M  V30 950 H 84.4717 3.30639 -2.03986 0
M  V30 951 H 86.1437 1.8684 -4.21768 0
M  V30 952 H 84.3867 1.69334 -3.99385 0
M  V30 953 H 85.0577 3.26104 -4.45376 0
M  V30 954 H 87.5337 3.30548 -2.5274 0
M  V30 955 H 86.4097 4.6159 -2.97028 0
M  V30 956 H 86.6707 4.23286 -1.27599 0
M  V30 957 N 85.7298 1.2412 0.971189 0
M  V30 958 C 86.9778 1.07668 1.71032 0
M  V30 959 C 87.2988 -0.385797 1.91146 0
M  V30 960 O 86.5688 -1.27569 1.4867 0
M  V30 961 H 85.1488 0.395429 0.633755 0
M  V30 962 H 87.8108 1.55984 1.16855 0
M  V30 963 H 86.9068 1.57195 2.69622 0
M  V30 964 N 87.2079 -1.17134 1.05439 0
M  V30 965 C 88.1179 -2.24878 0.668365 0
M  V30 966 C 89.1339 -1.71186 -0.311687 0
M  V30 967 O 90.3099 -2.00738 -0.163161 0
M  V30 968 C 87.3749 -3.46662 0.051648 0
M  V30 969 C 86.4359 -4.15429 1.08246 0
M  V30 970 C 85.6689 -5.31399 0.495082 0
M  V30 971 O 85.8919 -5.66153 -0.694743 0
M  V30 972 O 84.8259 -5.89187 1.23056 0
M  V30 973 H 88.6519 -2.60189 1.56637 0
M  V30 974 H 86.2369 -1.24482 0.826104 0
M  V30 975 H 88.1189 -4.20394 -0.290966 0
M  V30 976 H 86.7939 -3.13142 -0.819971 0
M  V30 977 H 85.7009 -3.43704 1.47711 0
M  V30 978 H 87.0339 -4.52982 1.92532 0
M  V30 979 N 88.686 -0.835752 -1.33615 0
M  V30 980 C 89.634 -0.255238 -2.31195 0
M  V30 981 C 90.628 0.61107 -1.57995 0
M  V30 982 O 91.834 0.500979 -1.72888 0
M  V30 983 H 88.209 -0.0638085 -0.749288 0
M  V30 984 H 90.18 -1.09283 -2.77669 0
M  V30 985 C 88.929 0.55754 -3.43201 0
M  V30 986 H 88.252 -0.0997553 -3.99676 0
M  V30 987 H 89.692 0.929622 -4.13683 0
M  V30 988 C 88.151 1.73515 -2.88781 0
M  V30 989 O 88.681 2.83376 -2.84712 0
M  V30 990 N 86.887 1.55603 -2.4543 0
M  V30 991 H 86.434 0.662354 -2.48939 0
M  V30 992 H 86.392 2.34545 -2.09371 0
M  V30 993 N 90.1641 1.46063 -0.591896 0
M  V30 994 C 91.1271 2.28854 0.125973 0
M  V30 995 C 92.1271 1.38903 0.810107 0
M  V30 996 O 93.3171 1.61186 0.66066 0
M  V30 997 C 90.4491 3.19526 1.1881 0
M  V30 998 H 91.6421 2.93802 -0.601717 0
M  V30 999 H 89.1951 1.52325 -0.350254 0
M  V30 1000 H 89.9301 2.59345 1.94707 0
M  V30 1001 H 89.7151 3.85766 0.701936 0
M  V30 1002 H 91.2051 3.81817 1.69132 0
M  V30 1003 N 91.6422 0.330177 1.54103 0
M  V30 1004 C 92.8882 -0.263542 2.01685 0
M  V30 1005 C 93.2432 -1.49258 1.21408 0
M  V30 1006 O 92.5362 -1.89395 0.289852 0
M  V30 1007 C 92.7302 -0.643134 3.51566 0
M  V30 1008 C 92.5592 0.547571 4.46354 0
M  V30 1009 C 91.3292 1.04873 4.94297 0
M  V30 1010 C 93.5272 1.40184 4.94826 0
M  V30 1011 N 91.5092 2.20316 5.73005 0
M  V30 1012 C 92.8802 2.40335 5.71524 0
M  V30 1013 C 94.9352 1.42884 4.76958 0
M  V30 1014 C 93.6382 3.42998 6.32254 0
M  V30 1015 C 95.6642 2.44421 5.38528 0
M  V30 1016 C 95.0262 3.43298 6.15082 0
M  V30 1017 H 91.1252 -0.0601026 0.779687 0
M  V30 1018 H 93.7092 0.466714 1.89023 0
M  V30 1019 H 91.8802 -1.34251 3.6446 0
M  V30 1020 H 93.6122 -1.21889 3.85908 0
M  V30 1021 H 90.3672 0.618956 4.69538 0
M  V30 1022 H 90.7912 2.78565 6.17034 0
M  V30 1023 H 95.4332 0.678049 4.17328 0
M  V30 1024 H 93.1512 4.1898 6.91 0
M  V30 1025 H 96.7372 2.4732 5.26616 0
M  V30 1026 H 95.6172 4.20579 6.61878 0
M  V30 1027 N 93.1203 -1.57491 0.0584922 0
M  V30 1028 C 94.3663 -1.93264 -0.614558 0
M  V30 1029 C 94.6993 -0.937717 -1.7006 0
M  V30 1030 O 93.9743 0.0351652 -1.94468 0
M  V30 1031 C 94.2573 -3.3938 -1.20386 0
M  V30 1032 C 94.1103 -4.49625 -0.125375 0
M  V30 1033 C 95.4293 -3.86039 -2.11334 0
M  V30 1034 H 92.5483 -0.702791 -0.221933 0
M  V30 1035 H 95.1903 -1.8961 0.12175 0
M  V30 1036 H 93.3403 -3.42626 -1.83139 0
M  V30 1037 H 95.0123 -4.58506 0.506971 0
M  V30 1038 H 93.2553 -4.30354 0.545672 0
M  V30 1039 H 93.9263 -5.48967 -0.577861 0
M  V30 1040 H 96.4023 -3.84716 -1.58534 0
M  V30 1041 H 95.2783 -4.88914 -2.49507 0
M  V30 1042 H 95.5393 -3.23215 -3.01636 0
M  V30 1043 N 94.5984 0.214957 -1.56127 0
M  V30 1044 C 95.5084 1.28727 -1.96129 0
M  V30 1045 C 96.5244 1.50916 -0.866044 0
M  V30 1046 O 97.7004 1.63918 -1.17016 0
M  V30 1047 C 94.7654 2.61569 -2.27558 0
M  V30 1048 C 93.8264 2.47625 -3.50685 0
M  V30 1049 C 93.0594 3.74132 -3.80606 0
M  V30 1050 O 93.2824 4.77438 -3.12104 0
M  V30 1051 O 92.2164 3.70849 -4.74083 0
M  V30 1052 H 96.0424 0.977855 -2.87527 0
M  V30 1053 H 93.6274 0.418358 -1.43423 0
M  V30 1054 H 95.5094 3.40012 -2.48938 0
M  V30 1055 H 94.1844 2.92178 -1.39332 0
M  V30 1056 H 93.0914 1.67361 -3.34576 0
M  V30 1057 H 94.4244 2.21954 -4.39315 0
M  V30 1058 N 96.0765 1.50051 0.48192 0
M  V30 1059 C 97.4875 1.5348 1.06305 0
M  V30 1060 C 97.8385 0.331997 1.93371 0
M  V30 1061 O 96.9635 -0.556256 2.09129 0
M  V30 1062 C 97.5585 2.7813 1.93466 0
M  V30 1063 C 96.1175 2.84275 2.46707 0
M  V30 1064 C 95.2645 2.47637 1.24785 0
M  V30 1065 H 98.2155 1.56472 0.264995 0
M  V30 1066 H 98.2365 2.59372 2.78399 0
M  V30 1067 H 97.7485 3.65654 1.30072 0
M  V30 1068 H 95.8495 2.01077 3.13686 0
M  V30 1069 H 95.9625 3.8691 2.82555 0
M  V30 1070 H 94.3265 1.99835 1.57918 0
M  V30 1071 H 95.1095 3.37457 0.630694 0
M  V30 1072 N 97.5546 -0.734337 1.39446 0
M  V30 1073 C 98.9656 -1.31264 1.32766 0
M  V30 1074 C 99.3166 -1.96198 -0.00767497 0
M  V30 1075 O 98.4416 -1.96346 -0.909796 0
M  V30 1076 C 99.0366 -2.38682 2.4045 0
M  V30 1077 C 97.5956 -2.92184 2.37288 0
M  V30 1078 C 96.7426 -1.6576 2.22304 0
M  V30 1079 H 99.6936 -0.531799 1.49525 0
M  V30 1080 H 99.7146 -3.19087 2.07276 0
M  V30 1081 H 99.2266 -1.91392 3.37625 0
M  V30 1082 H 97.3276 -3.43752 1.43754 0
M  V30 1083 H 97.4406 -3.45253 3.3217 0
M  V30 1084 H 95.8046 -1.9012 1.69489 0
M  V30 1085 H 96.5876 -1.20521 3.21449 0
M  V30 1086 N 99.0327 -1.24633 -0.964593 0
M  V30 1087 C 100.279 -1.08949 -1.71049 0
M  V30 1088 C 100.612 0.370302 -1.90637 0
M  V30 1089 O 99.8867 1.27349 -1.47011 0
M  V30 1090 C 100.17 -1.83329 -3.0994 0
M  V30 1091 C 100.023 -3.37077 -2.97824 0
M  V30 1092 C 101.342 -1.60846 -4.09654 0
M  V30 1093 H 98.4607 -0.397178 -0.620821 0
M  V30 1094 H 101.103 -1.5334 -1.12191 0
M  V30 1095 H 99.2527 -1.45597 -3.60186 0
M  V30 1096 H 100.925 -3.84425 -2.5498 0
M  V30 1097 H 99.1677 -3.65298 -2.33965 0
M  V30 1098 H 99.8387 -3.84324 -3.96231 0
M  V30 1099 H 102.315 -1.93674 -3.68279 0
M  V30 1100 H 101.191 -2.1534 -5.04896 0
M  V30 1101 H 101.452 -0.547434 -4.38698 0
M  V30 1102 N 100.511 1.16574 -1.06058 0
M  V30 1103 C 101.741 1.90675 -0.795397 0
M  V30 1104 C 102.149 1.77547 0.653735 0
M  V30 1105 O 101.492 1.11611 1.45907 0
M  V30 1106 C 101.554 3.42011 -1.10764 0
M  V30 1107 C 101.218 3.78924 -2.55471 0
M  V30 1108 C 102.215 3.81042 -3.53699 0
M  V30 1109 C 99.8998 4.09626 -2.90708 0
M  V30 1110 C 101.894 4.13346 -4.85205 0
M  V30 1111 C 99.5808 4.41597 -4.22416 0
M  V30 1112 C 100.579 4.43436 -5.19474 0
M  V30 1113 O 100.267 4.74649 -6.48817 0
M  V30 1114 H 99.9988 0.611554 -0.288058 0
M  V30 1115 H 102.553 1.48711 -1.41683 0
M  V30 1116 H 100.783 3.84312 -0.429128 0
M  V30 1117 H 102.472 3.97384 -0.827077 0
M  V30 1118 H 103.238 3.57437 -3.27817 0
M  V30 1119 H 99.1168 4.07361 -2.15819 0
M  V30 1120 H 102.661 4.14696 -5.60957 0
M  V30 1121 H 98.5578 4.64667 -4.48056 0
M  V30 1122 H 99.3258 4.9247 -6.5377 0
M  V30 1123 N 101.989 0.842826 1.3317 0
M  V30 1124 C 103.236 0.440447 1.97652 0
M  V30 1125 C 103.564 -1.00123 1.6675 0
M  V30 1126 O 102.819 -1.7155 0.941761 0
M  V30 1127 C 103.118 0.612607 3.52111 0
M  V30 1128 C 102.784 2.02297 4.02972 0
M  V30 1129 C 101.446 2.40874 4.16573 0
M  V30 1130 C 103.798 2.94402 4.30089 0
M  V30 1131 C 101.126 3.70852 4.54627 0
M  V30 1132 C 103.478 4.23865 4.69597 0
M  V30 1133 C 102.142 4.62392 4.81404 0
M  V30 1134 H 101.412 0.161171 0.72326 0
M  V30 1135 H 104.059 1.07061 1.58777 0
M  V30 1136 H 102.364 -0.100849 3.9167 0
M  V30 1137 H 104.061 0.2815 4.00011 0
M  V30 1138 H 100.651 1.71338 3.92863 0
M  V30 1139 H 104.835 2.65835 4.19101 0
M  V30 1140 H 100.091 4.00501 4.61962 0
M  V30 1141 H 104.265 4.95306 4.89536 0
M  V30 1142 H 101.892 5.63154 5.10648 0
M  V30 1143 N 103.467 -1.45747 0.599634 0
M  V30 1144 C 104.692 -2.07178 0.0960198 0
M  V30 1145 C 105.117 -1.44268 -1.207 0
M  V30 1146 O 104.475 -0.532503 -1.73303 0
M  V30 1147 C 104.523 -3.60579 -0.0385348 0
M  V30 1148 O 103.627 -3.97713 -1.0908 0
M  V30 1149 H 102.968 -0.660251 0.0704593 0
M  V30 1150 H 105.498 -1.87124 0.827385 0
M  V30 1151 H 105.508 -4.07298 -0.239304 0
M  V30 1152 H 104.183 -4.05756 0.912947 0
M  V30 1153 H 102.76 -3.62678 -0.867135 0
M  V30 1154 N 104.945 -0.338344 -1.53925 0
M  V30 1155 C 106.175 0.260919 -2.04946 0
M  V30 1156 C 106.583 1.45174 -1.2133 0
M  V30 1157 O 105.926 1.82122 -0.240262 0
M  V30 1158 C 105.988 0.744596 -3.51704 0
M  V30 1159 C 105.652 -0.325883 -4.55837 0
M  V30 1160 C 106.649 -1.16687 -5.06636 0
M  V30 1161 C 104.334 -0.478317 -5.00017 0
M  V30 1162 C 106.328 -2.14588 -6.00192 0
M  V30 1163 C 104.015 -1.46073 -5.93385 0
M  V30 1164 C 105.013 -2.29297 -6.4336 0
M  V30 1165 O 104.701 -3.25867 -7.34892 0
M  V30 1166 H 104.433 0.0551207 -0.673749 0
M  V30 1167 H 106.987 -0.486984 -1.99544 0
M  V30 1168 H 105.217 1.54366 -3.54553 0
M  V30 1169 H 106.906 1.26383 -3.85723 0
M  V30 1170 H 107.672 -1.06016 -4.73271 0
M  V30 1171 H 103.551 0.159613 -4.60724 0
M  V30 1172 H 107.095 -2.79585 -6.39123 0
M  V30 1173 H 102.992 -1.56802 -6.26166 0
M  V30 1174 H 103.76 -3.21278 -7.5281 0
M  V30 1175 N 106.423 1.57458 -0.0668435 0
M  V30 1176 C 107.671 1.92919 0.602214 0
M  V30 1177 C 107.992 0.947215 1.70449 0
M  V30 1178 O 107.262 -0.00544117 1.95899 0
M  V30 1179 H 105.842 0.71217 0.22544 0
M  V30 1180 H 108.504 1.94508 -0.123535 0
M  V30 1181 H 107.6 2.94589 1.03073 0
M  V30 1182 N 107.901 -0.206675 1.56239 0
M  V30 1183 C 109.126 -0.949474 1.8439 0
M  V30 1184 C 109.551 -1.76549 0.649016 0
M  V30 1185 O 108.909 -1.76782 -0.402231 0
M  V30 1186 C 108.957 -1.83078 3.10668 0
M  V30 1187 O 108.061 -2.9281 2.90407 0
M  V30 1188 H 107.402 -0.268033 0.607499 0
M  V30 1189 H 109.932 -0.215488 2.03462 0
M  V30 1190 H 109.942 -2.2377 3.41161 0
M  V30 1191 H 108.617 -1.23112 3.97261 0
M  V30 1192 H 107.194 -2.55956 2.71184 0
M  V30 1193 N 109.379 -1.50304 -0.473955 0
M  V30 1194 C 110.327 -1.69482 -1.59307 0
M  V30 1195 C 111.321 -0.560669 -1.59853 0
M  V30 1196 O 112.527 -0.741087 -1.64036 0
M  V30 1197 H 108.902 -0.534892 -0.528578 0
M  V30 1198 H 110.873 -2.63364 -1.40293 0
M  V30 1199 C 109.622 -1.80354 -2.97267 0
M  V30 1200 H 108.945 -2.67012 -2.97564 0
M  V30 1201 H 110.385 -1.97798 -3.75036 0
M  V30 1202 C 108.844 -0.55448 -3.32306 0
M  V30 1203 O 109.374 0.307661 -4.0052 0
M  V30 1204 N 107.58 -0.409354 -2.87702 0
M  V30 1205 H 107.127 -1.11196 -2.32364 0
M  V30 1206 H 107.085 0.425223 -3.11511 0
M  V30 1207 N 110.857 0.726932 -1.39834 0
M  V30 1208 C 112.106 1.48214 -1.36805 0
M  V30 1209 C 112.419 1.95576 0.0305291 0
M  V30 1210 O 113.625 2.7088 0.183417 0
M  V30 1211 C 112.081 2.67854 -2.40379 0
M  V30 1212 C 111.689 2.27408 -3.85992 0
M  V30 1213 C 113.433 3.45641 -2.46439 0
M  V30 1214 C 111.34 3.43819 -4.81189 0
M  V30 1215 H 110.27 0.556606 -0.508631 0
M  V30 1216 H 112.921 0.792216 -1.65518 0
M  V30 1217 H 111.303 3.3896 -2.04749 0
M  V30 1218 H 112.477 1.63795 -4.30706 0
M  V30 1219 H 110.792 1.62692 -3.83302 0
M  V30 1220 H 113.389 4.32244 -3.14753 0
M  V30 1221 H 113.732 3.88669 -1.49139 0
M  V30 1222 H 114.265 2.8157 -2.81004 0
M  V30 1223 H 111.004 3.05834 -5.79781 0
M  V30 1224 H 110.524 4.06385 -4.41148 0
M  V30 1225 H 112.203 4.10043 -5.00474 0
M  V30 1226 N 112.336 1.25143 0.95797 0
M  V30 1227 C 113.286 1.01924 2.0395 0
M  V30 1228 C 114.27 -0.0427175 1.60843 0
M  V30 1229 O 115.462 0.17221 1.7616 0
M  V30 1230 C 112.591 0.636373 3.3735 0
M  V30 1231 C 111.677 1.73492 3.8699 0
M  V30 1232 N 112.068 2.96945 4.0946 0
M  V30 1233 C 110.366 1.61467 4.15746 0
M  V30 1234 C 111.067 3.68228 4.50315 0
M  V30 1235 N 110.043 2.95833 4.56053 0
M  V30 1236 H 113.845 1.95653 2.19311 0
M  V30 1237 H 111.359 1.15413 1.14253 0
M  V30 1238 H 113.356 0.451233 4.14451 0
M  V30 1239 H 112.016 -0.293621 3.2337 0
M  V30 1240 H 113.027 3.33025 3.96629 0
M  V30 1241 H 109.704 0.753394 4.10646 0
M  V30 1242 H 111.094 4.74178 4.76031 0
M  V30 1243 N 113.814 -1.1601 1.06675 0
M  V30 1244 C 115.063 -1.85973 0.780818 0
M  V30 1245 C 115.376 -1.82819 -0.695444 0
M  V30 1246 O 116.582 -2.484 -1.09589 0
M  V30 1247 C 115.038 -3.33757 1.34665 0
M  V30 1248 C 114.646 -3.45374 2.85343 0
M  V30 1249 C 116.39 -4.0895 1.13843 0
M  V30 1250 C 114.297 -4.87266 3.35151 0
M  V30 1251 H 113.227 -0.696661 0.288407 0
M  V30 1252 H 115.878 -1.30903 1.28595 0
M  V30 1253 H 114.26 -3.88456 0.769274 0
M  V30 1254 H 115.434 -3.00816 3.49065 0
M  V30 1255 H 113.749 -2.83619 3.04876 0
M  V30 1256 H 116.346 -5.13654 1.4854 0
M  V30 1257 H 116.689 -4.16229 0.0770282 0
M  V30 1258 H 117.222 -3.605 1.68179 0
M  V30 1259 H 113.961 -4.85168 4.40786 0
M  V30 1260 H 113.481 -5.32433 2.76179 0
M  V30 1261 H 115.16 -5.56097 3.30704 0
M  V30 1262 N 115.292 -0.849877 -1.32721 0
M  V30 1263 C 116.54 -0.450032 -1.97026 0
M  V30 1264 C 116.861 0.996604 -1.67609 0
M  V30 1265 O 116.131 1.6958 -0.980786 0
M  V30 1266 H 114.711 -0.163426 -0.728904 0
M  V30 1267 H 117.373 -1.08526 -1.6189 0
M  V30 1268 H 116.469 -0.591146 -3.0645 0
M  V30 1269 N 116.77 1.45427 -0.607355 0
M  V30 1270 C 118.186 1.57283 -0.270985 0
M  V30 1271 C 118.386 1.59875 1.22647 0
M  V30 1272 O 117.442 1.52893 2.00948 0
M  V30 1273 C 118.755 2.85566 -0.941952 0
M  V30 1274 C 120.303 2.9924 -0.917849 0
M  V30 1275 C 120.778 4.30293 -1.56882 0
M  V30 1276 N 122.269 4.37051 -1.5343 0
M  V30 1277 C 123.004 5.37123 -2.00715 0
M  V30 1278 N 122.5 6.43734 -2.56084 0
M  V30 1279 N 124.293 5.28479 -1.91484 0
M  V30 1280 H 116.444 1.41988 -1.57966 0
M  V30 1281 H 118.707 0.67885 -0.661715 0
M  V30 1282 H 118.413 2.8955 -1.99633 0
M  V30 1283 H 118.287 3.74322 -0.465096 0
M  V30 1284 H 120.674 2.94822 0.127984 0
M  V30 1285 H 120.755 2.11895 -1.43297 0
M  V30 1286 H 120.399 4.35469 -2.61398 0
M  V30 1287 H 120.329 5.16454 -1.02873 0
M  V30 1288 H 122.82 3.60615 -1.12982 0
M  V30 1289 H 123.133 7.16341 -2.89958 0
M  V30 1290 H 121.478 6.44485 -2.60122 0
M  V30 1291 H 124.669 4.44098 -1.47967 0
M  V30 1292 H 124.842 6.0632 -2.28648 0
M  V30 1293 N 118.248 0.346503 1.53744 0
M  V30 1294 C 119.196 -0.52422 2.26616 0
M  V30 1295 C 120.19 -1.09948 1.28871 0
M  V30 1296 O 121.396 -1.04488 1.46568 0
M  V30 1297 H 117.771 -0.187743 0.728187 0
M  V30 1298 H 119.742 0.11239 2.98188 0
M  V30 1299 C 118.491 -1.66186 3.05414 0
M  V30 1300 H 117.814 -1.22848 3.80458 0
M  V30 1301 H 119.254 -2.24622 3.59612 0
M  V30 1302 C 117.713 -2.59302 2.1509 0
M  V30 1303 O 118.243 -3.61628 1.74895 0
M  V30 1304 N 116.449 -2.28055 1.8011 0
M  V30 1305 H 115.996 -1.44883 2.12994 0
M  V30 1306 H 115.954 -2.90615 1.19958 0
M  V30 1307 N 119.726 -1.57421 0.075193 0
M  V30 1308 C 120.973 -1.93618 -0.593146 0
M  V30 1309 C 121.301 -0.955484 -1.69413 0
M  V30 1310 O 120.556 0.0283251 -1.9568 0
M  V30 1311 C 120.855 -3.36428 -1.20626 0
M  V30 1312 C 120.521 -4.50307 -0.231078 0
M  V30 1313 C 119.183 -4.81186 0.0371936 0
M  V30 1314 C 121.535 -5.19374 0.435888 0
M  V30 1315 C 118.863 -5.78466 0.979461 0
M  V30 1316 C 121.215 -6.17665 1.3665 0
M  V30 1317 C 119.879 -6.46958 1.6432 0
M  V30 1318 H 119.149 -0.708499 -0.217047 0
M  V30 1319 H 121.796 -1.90937 0.146793 0
M  V30 1320 H 120.101 -3.35592 -2.02201 0
M  V30 1321 H 121.798 -3.61727 -1.73073 0
M  V30 1322 H 118.388 -4.26227 -0.450357 0
M  V30 1323 H 122.572 -4.95711 0.241748 0
M  V30 1324 H 117.828 -5.99487 1.20106 0
M  V30 1325 H 122.002 -6.70284 1.88924 0
M  V30 1326 H 119.629 -7.2215 2.37494 0
M  V30 1327 N 121.204 0.198386 -1.56346 0
M  V30 1328 C 122.434 0.934215 -1.84271 0
M  V30 1329 C 122.842 1.77496 -0.655125 0
M  V30 1330 O 122.185 1.7961 0.385488 0
M  V30 1331 C 122.247 1.88278 -3.06254 0
M  V30 1332 C 121.911 1.22431 -4.40295 0
M  V30 1333 C 122.908 0.602839 -5.16393 0
M  V30 1334 C 120.593 1.22915 -4.87029 0
M  V30 1335 C 122.587 -0.0050083 -6.374 0
M  V30 1336 C 120.274 0.617465 -6.07973 0
M  V30 1337 C 121.272 0.00146341 -6.83 0
M  V30 1338 O 120.96 -0.600642 -8.01653 0
M  V30 1339 H 120.692 0.278245 -0.616081 0
M  V30 1340 H 123.246 0.211626 -2.04307 0
M  V30 1341 H 121.476 2.64498 -2.82095 0
M  V30 1342 H 123.165 2.48612 -3.20853 0
M  V30 1343 H 123.931 0.591265 -4.81382 0
M  V30 1344 H 119.81 1.69801 -4.28589 0
M  V30 1345 H 123.354 -0.48643 -6.95902 0
M  V30 1346 H 119.251 0.62653 -6.42452 0
M  V30 1347 H 120.019 -0.497225 -8.16988 0
M  V30 1348 N 122.682 1.50554 0.465978 0
M  V30 1349 C 123.645 1.69233 1.54574 0
M  V30 1350 C 124.645 0.562901 1.50626 0
M  V30 1351 O 125.835 0.830016 1.53155 0
M  V30 1352 C 122.967 1.7223 2.94193 0
M  V30 1353 H 124.16 2.65571 1.39327 0
M  V30 1354 H 121.713 1.40111 0.692711 0
M  V30 1355 H 122.448 0.77603 3.14878 0
M  V30 1356 H 122.233 2.54285 2.98466 0
M  V30 1357 H 123.723 1.88618 3.72576 0
M  V30 1358 N 124.16 -0.719506 1.40217 0
M  V30 1359 C 125.108 -1.85493 1.40339 0
M  V30 1360 C 126.102 -1.66995 0.284415 0
M  V30 1361 O 127.308 -1.74148 0.455252 0
M  V30 1362 H 123.683 -0.610857 0.438586 0
M  V30 1363 H 125.654 -1.82506 2.36081 0
M  V30 1364 C 124.403 -3.23321 1.27901 0
M  V30 1365 H 123.726 -3.38159 2.1328 0
M  V30 1366 H 125.166 -4.02914 1.32045 0
M  V30 1367 C 123.625 -3.36898 -0.0111355 0
M  V30 1368 O 124.155 -3.89674 -0.975538 0
M  V30 1369 N 122.361 -2.90492 -0.0793393 0
M  V30 1370 H 121.908 -2.47731 0.706183 0
M  V30 1371 H 121.866 -2.99955 -0.942038 0
M  V30 1372 N 125.638 -1.25649 -0.95132 0
M  V30 1373 C 126.885 -1.10594 -1.69633 0
M  V30 1374 C 127.213 0.352515 -1.91279 0
M  V30 1375 O 126.468 1.27601 -1.4838 0
M  V30 1376 C 126.767 -1.80909 -3.08231 0
M  V30 1377 C 126.433 -3.30825 -3.06375 0
M  V30 1378 C 125.095 -3.71722 -3.05576 0
M  V30 1379 C 127.447 -4.26589 -2.99452 0
M  V30 1380 C 124.775 -5.06788 -2.95606 0
M  V30 1381 C 127.127 -5.61683 -2.91024 0
M  V30 1382 C 125.791 -6.01904 -2.88562 0
M  V30 1383 H 125.061 -0.404691 -0.620731 0
M  V30 1384 H 127.708 -1.55964 -1.11119 0
M  V30 1385 H 126.013 -1.27979 -3.70309 0
M  V30 1386 H 127.71 -1.6671 -3.64704 0
M  V30 1387 H 124.3 -2.98287 -3.07771 0
M  V30 1388 H 128.484 -3.95982 -2.99185 0
M  V30 1389 H 123.74 -5.37126 -2.92071 0
M  V30 1390 H 127.914 -6.35578 -2.84629 0
M  V30 1391 H 125.541 -7.06521 -2.80593 0
M  V30 1392 N 127.117 1.15442 -1.07289 0
M  V30 1393 C 128.065 2.22225 -0.686952 0
M  V30 1394 C 129.059 1.66688 0.30193 0
M  V30 1395 O 130.265 1.79236 0.165712 0
M  V30 1396 H 126.64 0.723783 -0.204064 0
M  V30 1397 H 128.611 2.52056 -1.5972 0
M  V30 1398 C 127.36 3.47556 -0.100149 0
M  V30 1399 H 126.683 3.90612 -0.852211 0
M  V30 1400 H 128.123 4.23794 0.132235 0
M  V30 1401 C 126.582 3.16337 1.159 0
M  V30 1402 O 127.112 3.33074 2.24555 0
M  V30 1403 N 125.318 2.70385 1.06491 0
M  V30 1404 H 124.865 2.56966 0.180668 0
M  V30 1405 H 124.823 2.49871 1.90819 0
M  V30 1406 N 128.595 0.856903 1.32268 0
M  V30 1407 C 129.525 0.31858 2.31316 0
M  V30 1408 C 130.506 -0.583487 1.59779 0
M  V30 1409 O 131.691 -0.503259 1.87566 0
M  V30 1410 C 128.821 -0.491979 3.43798 0
M  V30 1411 C 127.775 0.315849 4.26833 0
M  V30 1412 C 127.101 -0.619586 5.31098 0
M  V30 1413 C 128.401 1.54282 4.98993 0
M  V30 1414 H 130.095 1.14621 2.76591 0
M  V30 1415 H 127.641 0.552613 1.32974 0
M  V30 1416 H 129.594 -0.879012 4.1213 0
M  V30 1417 H 128.318 -1.35299 2.97257 0
M  V30 1418 H 126.977 0.684664 3.6015 0
M  V30 1419 H 126.625 -1.47751 4.8081 0
M  V30 1420 H 126.325 -0.0830621 5.87541 0
M  V30 1421 H 127.849 -1.00375 6.02293 0
M  V30 1422 H 129.263 1.22796 5.59995 0
M  V30 1423 H 127.66 2.01745 5.65172 0
M  V30 1424 H 128.73 2.30285 4.26728 0
M  V30 1425 N 130.073 -1.45103 0.615059 0
M  V30 1426 C 131.301 -2.06553 0.11977 0
M  V30 1427 C 131.716 -1.45842 -1.19898 0
M  V30 1428 O 131.073 -0.575325 -1.73194 0
M  V30 1429 C 131.124 -3.61495 -0.018364 0
M  V30 1430 O 130.845 -4.19942 1.24822 0
M  V30 1431 C 132.346 -4.39947 -0.544237 0
M  V30 1432 H 129.566 -0.667096 0.0722739 0
M  V30 1433 H 132.11 -1.8623 0.84491 0
M  V30 1434 H 130.265 -3.81135 -0.693865 0
M  V30 1435 H 130.679 -5.13204 1.0827 0
M  V30 1436 H 132.153 -5.48838 -0.589953 0
M  V30 1437 H 132.63 -4.10255 -1.56805 0
M  V30 1438 H 133.236 -4.25188 0.0974703 0
M  V30 1439 N 131.551 -0.354651 -1.53558 0
M  V30 1440 C 132.8 0.239504 -2.00273 0
M  V30 1441 C 133.113 1.50759 -1.24623 0
M  V30 1442 O 134.319 2.17968 -1.61871 0
M  V30 1443 C 132.775 0.477341 -3.5672 0
M  V30 1444 C 132.383 -0.775488 -4.41237 0
M  V30 1445 C 134.127 1.02975 -4.11821 0
M  V30 1446 C 132.034 -0.507838 -5.89216 0
M  V30 1447 H 130.964 0.0932743 -0.748208 0
M  V30 1448 H 133.615 -0.471701 -1.77334 0
M  V30 1449 H 131.997 1.24953 -3.7577 0
M  V30 1450 H 133.171 -1.54963 -4.33962 0
M  V30 1451 H 131.486 -1.25033 -3.97185 0
M  V30 1452 H 134.083 1.24513 -5.2 0
M  V30 1453 H 134.426 1.98862 -3.65731 0
M  V30 1454 H 134.959 0.317994 -3.96527 0
M  V30 1455 H 131.698 -1.43674 -6.39561 0
M  V30 1456 H 131.218 0.228011 -5.99366 0
M  V30 1457 H 132.897 -0.129238 -6.46871 0
M  V30 1458 N 133.029 1.57378 -0.0835403 0
M  V30 1459 C 134.275 1.94217 0.583733 0
M  V30 1460 C 134.608 0.964653 1.68547 0
M  V30 1461 O 133.883 -0.00422258 1.945 0
M  V30 1462 C 134.166 3.41253 1.14972 0
M  V30 1463 C 134.019 4.49768 0.0538277 0
M  V30 1464 C 135.338 3.89352 2.05166 0
M  V30 1465 H 132.457 0.706233 0.210724 0
M  V30 1466 H 135.099 1.89392 -0.1519 0
M  V30 1467 H 133.249 3.45496 1.77665 0
M  V30 1468 H 134.921 4.57641 -0.579851 0
M  V30 1469 H 133.164 4.29432 -0.614068 0
M  V30 1470 H 133.835 5.49817 0.490452 0
M  V30 1471 H 136.311 3.87189 1.52393 0
M  V30 1472 H 135.187 4.92822 2.41698 0
M  V30 1473 H 135.448 3.27973 2.96456 0
M  V30 1474 N 134.507 -0.190092 1.56449 0
M  V30 1475 C 135.784 -0.935886 1.71757 0
M  V30 1476 C 136.164 -2.01173 0.639726 0
M  V30 1477 O 135.512 -2.25827 -0.348502 0
M  V30 1478 C 135.722 -1.51775 3.1427 0
M  V30 1479 C 137.07 -1.99794 3.74656 0
M  V30 1480 O 138.094 -1.61607 3.1743 0
M  V30 1481 O 136.953 -2.70079 4.751 0
M  V30 1482 H 134.047 -0.439229 0.700719 0
M  V30 1483 H 136.593 -0.179395 1.68749 0
M  V30 1484 H 135.365 -0.742505 3.84191 0
M  V30 1485 H 134.988 -2.33894 3.21527 0
M  V30 1486 N 135.985 -1.50799 -0.457987 0
M  V30 1487 C 137.262 -1.52968 -1.21902 0
M  V30 1488 C 137.642 -0.281906 -2.09209 0
M  V30 1489 O 136.99 0.734076 -2.16388 0
M  V30 1490 C 137.2 -2.8326 -2.03875 0
M  V30 1491 C 138.548 -3.34425 -2.6162 0
M  V30 1492 O 139.572 -2.8467 -2.14106 0
M  V30 1493 O 138.431 -4.21188 -3.48228 0
M  V30 1494 H 135.525 -0.614129 -0.553873 0
M  V30 1495 H 138.071 -1.63098 -0.468739 0
M  V30 1496 H 136.843 -3.65543 -1.39621 0
M  V30 1497 H 136.466 -2.76195 -2.8601 0
M  V30 1498 N 137.463 0.71206 -1.40597 0
M  V30 1499 C 138.693 1.49894 -1.42181 0
M  V30 1500 C 139.101 1.89189 -0.0208078 0
M  V30 1501 O 138.444 1.56223 0.966436 0
M  V30 1502 C 138.506 2.80215 -2.25211 0
M  V30 1503 C 138.17 2.63221 -3.73582 0
M  V30 1504 C 139.167 2.30249 -4.66135 0
M  V30 1505 C 136.852 2.79376 -4.17438 0
M  V30 1506 C 138.846 2.13645 -6.00529 0
M  V30 1507 C 136.533 2.6239 -5.51901 0
M  V30 1508 C 137.531 2.29573 -6.43262 0
M  V30 1509 O 137.219 2.12719 -7.75246 0
M  V30 1510 H 136.951 0.469031 -0.486812 0
M  V30 1511 H 139.505 0.88564 -1.85326 0
M  V30 1512 H 137.735 3.4389 -1.76852 0
M  V30 1513 H 139.424 3.41947 -2.18694 0
M  V30 1514 H 140.19 2.17398 -4.33547 0
M  V30 1515 H 136.069 3.03906 -3.46644 0
M  V30 1516 H 139.613 1.87953 -6.71803 0
M  V30 1517 H 135.51 2.74826 -5.84073 0
M  V30 1518 H 136.278 2.27611 -7.86216 0
M  V30 1519 N 138.941 1.26152 0.944643 0
M  V30 1520 C 140.169 1.14259 1.72489 0
M  V30 1521 C 140.584 -0.302555 1.8636 0
M  V30 1522 O 139.941 -1.20741 1.36849 0
M  V30 1523 C 139.992 1.80266 3.13347 0
M  V30 1524 O 139.713 3.19133 3.00143 0
M  V30 1525 C 141.214 1.74283 4.07603 0
M  V30 1526 H 138.434 0.398051 0.540181 0
M  V30 1527 H 140.978 1.66706 1.18446 0
M  V30 1528 H 139.133 1.31766 3.64303 0
M  V30 1529 H 139.547 3.51744 3.89071 0
M  V30 1530 H 141.021 2.25111 5.04013 0
M  V30 1531 H 141.498 0.708631 4.33446 0
M  V30 1532 H 142.104 2.22319 3.62567 0
M  V30 1533 N 140.419 -1.14872 1.07899 0
M  V30 1534 C 141.665 -1.86064 0.806725 0
M  V30 1535 C 141.998 -1.82434 -0.665706 0
M  V30 1536 O 141.273 -1.25138 -1.48899 0
M  V30 1537 C 141.556 -3.34929 1.32267 0
M  V30 1538 C 141.409 -3.47161 2.86006 0
M  V30 1539 C 142.728 -4.29863 0.943717 0
M  V30 1540 H 139.847 -0.675591 0.294526 0
M  V30 1541 H 142.489 -1.34925 1.33773 0
M  V30 1542 H 140.639 -3.78611 0.870974 0
M  V30 1543 H 142.311 -3.12302 3.39507 0
M  V30 1544 H 140.554 -2.88539 3.23925 0
M  V30 1545 H 141.225 -4.51777 3.17177 0
M  V30 1546 H 143.701 -3.9417 1.33302 0
M  V30 1547 H 142.577 -5.32494 1.33198 0
M  V30 1548 H 142.838 -4.41846 -0.149796 0
M  V30 1549 N 141.898 -0.863906 -1.31812 0
M  V30 1550 C 143.126 -0.486111 -2.01108 0
M  V30 1551 C 143.541 0.919755 -1.64882 0
M  V30 1552 O 142.898 1.60162 -0.874893 0
M  V30 1553 C 142.949 -0.626435 -3.56031 0
M  V30 1554 O 142.67 -1.97693 -3.90959 0
M  V30 1555 C 144.171 -0.248857 -4.42601 0
M  V30 1556 H 141.391 -0.190052 -0.643523 0
M  V30 1557 H 143.935 -1.1634 -1.68182 0
M  V30 1558 H 142.09 0.00322717 -3.874 0
M  V30 1559 H 142.504 -1.98034 -4.85678 0
M  V30 1560 H 143.978 -0.398016 -5.50563 0
M  V30 1561 H 144.455 0.811489 -4.31638 0
M  V30 1562 H 145.061 -0.853971 -4.16638 0
M  V30 1563 N 143.376 1.44774 -0.622745 0
M  V30 1564 C 144.625 2.01334 -0.121397 0
M  V30 1565 C 144.938 1.49505 1.26125 0
M  V30 1566 O 146.144 1.98139 1.85616 0
M  V30 1567 C 144.6 3.59516 -0.166298 0
M  V30 1568 C 144.208 4.20342 -1.54974 0
M  V30 1569 C 145.952 4.23582 0.279021 0
M  V30 1570 C 143.859 5.70721 -1.55021 0
M  V30 1571 H 142.789 0.752851 -0.0416172 0
M  V30 1572 H 145.44 1.66083 -0.780309 0
M  V30 1573 H 143.822 3.92027 0.559557 0
M  V30 1574 H 144.996 3.99381 -2.29851 0
M  V30 1575 H 143.311 3.68529 -1.93843 0
M  V30 1576 H 145.908 5.33868 0.298083 0
M  V30 1577 H 146.251 3.95327 1.30471 0
M  V30 1578 H 146.784 3.95843 -0.394063 0
M  V30 1579 H 143.523 6.03698 -2.55399 0
M  V30 1580 H 143.043 5.93829 -0.844245 0
M  V30 1581 H 144.722 6.34203 -1.28047 0
M  V30 1582 N 144.854 0.36279 1.53368 0
M  V30 1583 C 146.102 -0.227326 2.00817 0
M  V30 1584 C 146.423 -1.49511 1.25186 0
M  V30 1585 O 145.693 -1.92482 0.364348 0
M  V30 1586 H 144.273 -0.0869923 0.741917 0
M  V30 1587 H 146.935 0.488381 1.88682 0
M  V30 1588 H 146.031 -0.456273 3.08747 0
M  V30 1589 N 146.332 -1.57332 0.0918853 0
M  V30 1590 C 147.609 -1.85691 -0.614668 0
M  V30 1591 C 147.989 -0.988146 -1.86545 0
M  V30 1592 O 147.337 -0.0597055 -2.28422 0
M  V30 1593 C 147.547 -3.36294 -0.933126 0
M  V30 1594 C 148.895 -4.04275 -1.29796 0
M  V30 1595 O 149.919 -3.41157 -1.02424 0
M  V30 1596 O 148.778 -5.1564 -1.81047 0
M  V30 1597 H 145.872 -0.767802 -0.307261 0
M  V30 1598 H 148.418 -1.69244 0.12434 0
M  V30 1599 H 147.19 -3.91273 -0.0456404 0
M  V30 1600 H 146.813 -3.58076 -1.72822 0
M  V30 1601 N 147.81 0.181792 -1.56548 0
M  V30 1602 C 148.758 1.24461 -1.965 0
M  V30 1603 C 149.752 1.464 -0.852261 0
M  V30 1604 O 150.958 1.47103 -1.03733 0
M  V30 1605 H 147.333 0.418138 -0.625031 0
M  V30 1606 H 149.304 0.880714 -2.85107 0
M  V30 1607 C 148.053 2.57891 -2.33212 0
M  V30 1608 H 147.376 2.41829 -3.18369 0
M  V30 1609 H 148.816 3.3097 -2.65019 0
M  V30 1610 C 147.275 3.15871 -1.17163 0
M  V30 1611 O 147.805 3.9913 -0.453708 0
M  V30 1612 N 146.011 2.74808 -0.944936 0
M  V30 1613 H 145.558 2.07205 -1.53049 0
M  V30 1614 H 145.516 3.13939 -0.170286 0
M  V30 1615 N 149.288 1.51039 0.449983 0
M  V30 1616 C 150.534 1.63322 1.20223 0
M  V30 1617 C 150.867 0.34241 1.91158 0
M  V30 1618 O 150.142 -0.657344 1.83055 0
M  V30 1619 C 150.425 2.82801 2.22925 0
M  V30 1620 C 150.278 4.21823 1.56157 0
M  V30 1621 C 151.597 2.97807 3.24035 0
M  V30 1622 H 148.716 0.594407 0.435718 0
M  V30 1623 H 151.358 1.83489 0.493136 0
M  V30 1624 H 149.508 2.65738 2.834 0
M  V30 1625 H 151.18 4.50526 0.991162 0
M  V30 1626 H 149.423 4.25105 0.864172 0
M  V30 1627 H 150.094 5.01391 2.30891 0
M  V30 1628 H 152.57 3.13497 2.73603 0
M  V30 1629 H 151.446 3.82992 3.93202 0
M  V30 1630 H 151.707 2.09328 3.89402 0
M  V30 1631 N 150.766 -0.704594 1.40972 0
M  V30 1632 C 151.696 -1.83124 1.44872 0
M  V30 1633 C 152.677 -1.67281 0.30838 0
M  V30 1634 O 153.862 -1.87149 0.518556 0
M  V30 1635 C 150.992 -3.21181 1.32136 0
M  V30 1636 C 149.946 -3.51714 2.43888 0
M  V30 1637 C 149.272 -4.89032 2.16222 0
M  V30 1638 C 150.572 -3.516 3.86232 0
M  V30 1639 H 152.266 -1.80117 2.39161 0
M  V30 1640 H 149.812 -0.865145 1.15114 0
M  V30 1641 H 151.765 -3.99702 1.33479 0
M  V30 1642 H 150.489 -3.24791 0.343279 0
M  V30 1643 H 149.148 -2.75539 2.41813 0
M  V30 1644 H 148.796 -4.89256 1.16778 0
M  V30 1645 H 148.496 -5.10426 2.911 0
M  V30 1646 H 150.02 -5.69873 2.19265 0
M  V30 1647 H 151.434 -4.2014 3.9007 0
M  V30 1648 H 149.831 -3.84523 4.60719 0
M  V30 1649 H 150.901 -2.50757 4.15029 0
M  V30 1650 N 152.244 -1.26651 -0.937939 0
M  V30 1651 C 153.493 -1.11775 -1.67897 0
M  V30 1652 C 153.806 0.33794 -1.92659 0
M  V30 1653 O 155.012 0.607434 -2.64618 0
M  V30 1654 C 153.468 -1.9523 -3.02346 0
M  V30 1655 C 153.076 -3.45393 -2.8532 0
M  V30 1656 C 154.82 -1.88972 -3.80118 0
M  V30 1657 C 152.727 -4.21083 -4.15263 0
M  V30 1658 H 151.657 -0.414696 -0.629717 0
M  V30 1659 H 154.308 -1.50988 -1.04283 0
M  V30 1660 H 152.69 -1.48853 -3.66959 0
M  V30 1661 H 153.864 -3.99561 -2.29537 0
M  V30 1662 H 152.179 -3.52921 -2.20988 0
M  V30 1663 H 154.776 -2.42805 -4.76392 0
M  V30 1664 H 155.119 -0.86113 -4.07296 0
M  V30 1665 H 155.652 -2.33189 -3.22285 0
M  V30 1666 H 152.391 -5.24425 -3.93267 0
M  V30 1667 H 151.911 -3.71695 -4.70747 0
M  V30 1668 H 153.59 -4.29706 -4.83696 0
M  V30 1669 N 153.722 1.14298 -1.08507 0
M  V30 1670 C 154.685 2.17607 -0.719711 0
M  V30 1671 C 155.685 1.58907 0.245997 0
M  V30 1672 O 156.875 1.74181 0.0254081 0
M  V30 1673 C 154.007 3.40842 -0.0627695 0
M  V30 1674 H 155.2 2.51443 -1.63452 0
M  V30 1675 H 152.753 1.28963 -0.88307 0
M  V30 1676 H 153.488 3.12587 0.863716 0
M  V30 1677 H 153.273 3.84713 -0.757504 0
M  V30 1678 H 154.763 4.17221 0.177786 0
M  V30 1679 N 155.201 0.870884 1.31352 0
M  V30 1680 C 156.612 0.534714 1.78879 0
M  V30 1681 C 156.963 -0.948423 1.71754 0
M  V30 1682 O 156.088 -1.74055 1.28584 0
M  V30 1683 C 156.683 0.963839 3.24801 0
M  V30 1684 C 155.242 0.679311 3.70219 0
M  V30 1685 C 154.389 1.15465 2.52117 0
M  V30 1686 H 157.34 1.05651 1.18421 0
M  V30 1687 H 157.361 0.286892 3.79417 0
M  V30 1688 H 156.873 2.04332 3.29955 0
M  V30 1689 H 154.974 -0.388769 3.70566 0
M  V30 1690 H 155.087 1.25698 4.62317 0
M  V30 1691 H 153.451 0.574383 2.48139 0
M  V30 1692 H 154.234 2.24157 2.60016 0
M  V30 1693 N 156.679 -1.44442 0.630414 0
M  V30 1694 C 157.627 -2.32437 -0.0871428 0
M  V30 1695 C 158.621 -1.47304 -0.836525 0
M  V30 1696 O 159.827 -1.63653 -0.749506 0
M  V30 1697 H 156.202 -0.750533 -0.0469495 0
M  V30 1698 H 158.173 -2.90709 0.673096 0
M  V30 1699 C 156.922 -3.31288 -1.05563 0
M  V30 1700 H 156.245 -3.96805 -0.488426 0
M  V30 1701 H 157.685 -3.9554 -1.52721 0
M  V30 1702 C 156.144 -2.6016 -2.14052 0
M  V30 1703 O 156.674 -2.39997 -3.22124 0
M  V30 1704 N 154.88 -2.19911 -1.89967 0
M  V30 1705 H 154.427 -2.36509 -1.02085 0
M  V30 1706 H 154.385 -1.72646 -2.62756 0
M  V30 1707 N 158.157 -0.370918 -1.53173 0
M  V30 1708 C 159.403 0.217423 -2.01631 0
M  V30 1709 C 159.736 1.47983 -1.25756 0
M  V30 1710 O 159.011 1.91274 -0.352764 0
M  V30 1711 C 159.294 0.503982 -3.56556 0
M  V30 1712 C 159.147 -0.77243 -4.43118 0
M  V30 1713 C 160.466 1.30234 -4.20389 0
M  V30 1714 H 157.585 0.0775486 -0.732909 0
M  V30 1715 H 160.227 -0.496863 -1.83388 0
M  V30 1716 H 158.377 1.11248 -3.72231 0
M  V30 1717 H 160.049 -1.4098 -4.39229 0
M  V30 1718 H 158.292 -1.39167 -4.10871 0
M  V30 1719 H 158.963 -0.526815 -5.4948 0
M  V30 1720 H 161.439 0.787546 -4.08579 0
M  V30 1721 H 160.315 1.47158 -5.28806 0
M  V30 1722 H 160.576 2.31237 -3.76805 0
M  V30 1723 N 159.635 1.57281 -0.100228 0
M  V30 1724 C 160.863 1.98879 0.570509 0
M  V30 1725 C 161.278 0.979476 1.61405 0
M  V30 1726 O 160.635 -0.0302288 1.82475 0
M  V30 1727 C 160.686 3.4052 1.2136 0
M  V30 1728 O 160.407 4.37588 0.211786 0
M  V30 1729 C 161.908 3.97149 1.96945 0
M  V30 1730 H 159.128 0.653428 0.152555 0
M  V30 1731 H 161.672 2.03697 -0.18103 0
M  V30 1732 H 159.827 3.367 1.91603 0
M  V30 1733 H 160.241 5.20118 0.676607 0
M  V30 1734 H 161.715 4.98393 2.37294 0
M  V30 1735 H 162.192 3.3525 2.83733 0
M  V30 1736 H 162.798 4.04458 1.31506 0
M  V30 1737 N 161.113 -0.173488 1.56642 0
M  V30 1738 C 162.043 -1.2171 1.99271 0
M  V30 1739 C 163.024 -1.46289 0.867959 0
M  V30 1740 O 164.209 -1.5766 1.13388 0
M  V30 1741 C 161.339 -2.55651 2.35074 0
M  V30 1742 C 160.293 -2.45645 3.50489 0
M  V30 1743 C 159.619 -3.84056 3.72028 0
M  V30 1744 C 160.919 -1.96302 4.84007 0
M  V30 1745 H 162.613 -0.86275 2.867 0
M  V30 1746 H 160.159 -0.413571 1.37933 0
M  V30 1747 H 162.112 -3.2886 2.63494 0
M  V30 1748 H 160.836 -2.92869 1.44552 0
M  V30 1749 H 159.495 -1.7489 3.22194 0
M  V30 1750 H 159.143 -4.18664 2.788 0
M  V30 1751 H 158.843 -3.7823 4.49684 0
M  V30 1752 H 160.367 -4.58854 4.02846 0
M  V30 1753 H 161.781 -2.59284 5.11317 0
M  V30 1754 H 160.178 -2.01429 5.65284 0
M  V30 1755 H 161.248 -0.917226 4.76146 0
M  V30 1756 N 162.591 -1.51276 -0.441967 0
M  V30 1757 C 163.816 -1.67799 -1.21895 0
M  V30 1758 C 164.241 -0.372864 -1.84367 0
M  V30 1759 O 163.599 0.666501 -1.68604 0
M  V30 1760 C 163.647 -2.79199 -2.28211 0
M  V30 1761 O 162.751 -2.42479 -3.33583 0
M  V30 1762 H 162.092 -0.559649 -0.357336 0
M  V30 1763 H 164.622 -1.97815 -0.522522 0
M  V30 1764 H 164.632 -3.03146 -2.73069 0
M  V30 1765 H 163.307 -3.73906 -1.82118 0
M  V30 1766 H 161.884 -2.29087 -2.94234 0
M  V30 1767 N 164.069 0.697108 -1.41344 0
M  V30 1768 C 165.315 1.4593 -1.40827 0
M  V30 1769 C 165.648 1.94193 -0.0167098 0
M  V30 1770 O 164.923 1.69425 0.955263 0
M  V30 1771 C 165.206 2.67229 -2.41373 0
M  V30 1772 C 165.059 2.24741 -3.8963 0
M  V30 1773 C 166.378 3.69423 -2.39196 0
M  V30 1774 H 163.497 0.529303 -0.512842 0
M  V30 1775 H 166.139 0.794112 -1.72609 0
M  V30 1776 H 164.289 3.23982 -2.14401 0
M  V30 1777 H 165.961 1.73327 -4.27499 0
M  V30 1778 H 164.204 1.56542 -4.0457 0
M  V30 1779 H 164.875 3.1177 -4.55525 0
M  V30 1780 H 167.351 3.2234 -2.63128 0
M  V30 1781 H 166.227 4.51907 -3.11563 0
M  V30 1782 H 166.488 4.19012 -1.41001 0
M  V30 1783 N 165.547 1.27147 0.931209 0
M  V30 1784 C 166.775 1.16082 1.71267 0
M  V30 1785 C 167.19 -0.282772 1.8667 0
M  V30 1786 O 166.547 -1.19283 1.38122 0
M  V30 1787 C 166.598 1.8358 3.11417 0
M  V30 1788 O 166.319 3.22299 2.96741 0
M  V30 1789 C 167.82 1.78597 4.05732 0
M  V30 1790 H 165.04 0.403758 0.535929 0
M  V30 1791 H 167.584 1.67953 1.16671 0
M  V30 1792 H 165.739 1.35623 3.62885 0
M  V30 1793 H 166.153 3.55851 3.85319 0
M  V30 1794 H 167.627 2.30444 5.01597 0
M  V30 1795 H 168.104 0.754564 4.3267 0
M  V30 1796 H 168.71 2.26152 3.60188 0
M  V30 1797 N 167.025 -1.13721 1.09112 0
M  V30 1798 C 168.273 -1.84559 0.823562 0
M  V30 1799 C 168.594 -1.83754 -0.652658 0
M  V30 1800 O 167.864 -1.29102 -1.47342 0
M  V30 1801 H 166.444 -0.683376 0.301673 0
M  V30 1802 H 169.106 -1.37771 1.37859 0
M  V30 1803 H 168.202 -2.8917 1.17419 0
M  V30 1804 N 168.503 -0.877838 -1.30888 0
M  V30 1805 C 169.453 -0.310872 -2.25871 0
M  V30 1806 C 170.437 0.556596 -1.50966 0
M  V30 1807 O 171.629 0.402187 -1.7237 0
M  V30 1808 C 168.758 0.479821 -3.3993 0
M  V30 1809 C 167.844 -0.401333 -4.22197 0
M  V30 1810 N 168.235 -1.49848 -4.83093 0
M  V30 1811 C 166.533 -0.195167 -4.45573 0
M  V30 1812 C 167.234 -2.0425 -5.44662 0
M  V30 1813 N 166.21 -1.33843 -5.26865 0
M  V30 1814 H 170.012 -1.1493 -2.70496 0
M  V30 1815 H 167.526 -0.726458 -1.45246 0
M  V30 1816 H 169.523 0.902582 -4.07012 0
M  V30 1817 H 168.183 1.31577 -2.96846 0
M  V30 1818 H 169.194 -1.88137 -4.82519 0
M  V30 1819 H 165.871 0.604192 -4.13105 0
M  V30 1820 H 167.261 -2.96345 -6.03017 0
M  V30 1821 N 169.982 1.44106 -0.638065 0
M  V30 1822 C 171.393 1.85316 -0.226894 0
M  V30 1823 C 171.744 1.53399 1.22324 0
M  V30 1824 O 170.869 0.975463 1.93167 0
M  V30 1825 C 171.464 3.3637 -0.405013 0
M  V30 1826 C 170.023 3.76369 -0.0482902 0
M  V30 1827 C 169.17 2.67921 -0.715108 0
M  V30 1828 H 172.121 1.34474 -0.842764 0
M  V30 1829 H 172.142 3.7885 0.354 0
M  V30 1830 H 171.654 3.59569 -1.46053 0
M  V30 1831 H 169.755 3.58784 1.00522 0
M  V30 1832 H 169.868 4.76856 -0.463187 0
M  V30 1833 H 168.232 2.54259 -0.149753 0
M  V30 1834 H 169.015 2.93951 -1.77335 0
M  V30 1835 N 171.46 0.379036 1.52974 0
M  V30 1836 C 172.706 -0.206727 2.01744 0
M  V30 1837 C 173.039 -1.47314 1.26539 0
M  V30 1838 O 172.314 -1.91084 0.362903 0
M  V30 1839 C 172.597 -0.485066 3.56818 0
M  V30 1840 C 172.45 0.795919 4.42702 0
M  V30 1841 C 173.769 -1.28003 4.21074 0
M  V30 1842 H 170.888 -0.0736607 0.73331 0
M  V30 1843 H 173.53 0.506581 1.83122 0
M  V30 1844 H 171.68 -1.09272 3.72816 0
M  V30 1845 H 173.352 1.43307 4.38476 0
M  V30 1846 H 171.595 1.41344 4.10127 0
M  V30 1847 H 172.266 0.555947 5.49193 0
M  V30 1848 H 174.742 -0.765867 4.08991 0
M  V30 1849 H 173.618 -1.44352 5.29579 0
M  V30 1850 H 173.879 -2.29236 3.78026 0
M  V30 1851 N 172.938 -1.57226 0.108567 0
M  V30 1852 C 173.888 -2.11305 -0.856396 0
M  V30 1853 C 174.872 -1.03129 -1.23504 0
M  V30 1854 O 176.064 -1.29381 -1.20787 0
M  V30 1855 C 173.193 -2.70771 -2.11041 0
M  V30 1856 C 172.279 -3.86011 -1.7566 0
M  V30 1857 N 172.67 -4.93492 -1.10902 0
M  V30 1858 C 170.968 -3.95999 -2.05185 0
M  V30 1859 C 171.669 -5.73984 -0.944308 0
M  V30 1860 N 170.645 -5.2346 -1.46596 0
M  V30 1861 H 174.447 -2.91784 -0.352002 0
M  V30 1862 H 171.961 -1.62126 -0.0942324 0
M  V30 1863 H 173.958 -3.07851 -2.81128 0
M  V30 1864 H 172.618 -1.91751 -2.62034 0
M  V30 1865 H 173.629 -5.1208 -0.774235 0
M  V30 1866 H 170.306 -3.28007 -2.58298 0
M  V30 1867 H 171.696 -6.70479 -0.436813 0
M  V30 1868 N 174.416 0.165178 -1.56732 0
M  V30 1869 C 175.366 1.20917 -1.93295 0
M  V30 1870 C 176.35 1.39488 -0.801985 0
M  V30 1871 O 177.542 1.41356 -1.06525 0
M  V30 1872 C 174.671 2.54718 -2.3016 0
M  V30 1873 C 173.757 2.39815 -3.49785 0
M  V30 1874 N 174.148 1.94637 -4.66851 0
M  V30 1875 C 172.446 2.70623 -3.54513 0
M  V30 1876 C 173.147 1.92344 -5.4898 0
M  V30 1877 N 172.123 2.34978 -4.9019 0
M  V30 1878 H 175.925 0.851675 -2.81289 0
M  V30 1879 H 173.439 0.373399 -1.58049 0
M  V30 1880 H 175.436 3.30165 -2.54552 0
M  V30 1881 H 174.096 2.91265 -1.43508 0
M  V30 1882 H 175.107 1.6488 -4.90953 0
M  V30 1883 H 171.784 3.11167 -2.78354 0
M  V30 1884 H 173.174 1.5906 -6.52801 0
M  V30 1885 N 175.894 1.51508 0.433938 0
M  V30 1886 C 176.804 1.75917 1.5521 0
M  V30 1887 C 177.82 0.643545 1.61662 0
M  V30 1888 O 178.996 0.926183 1.7884 0
M  V30 1889 C 176.061 1.88213 2.91164 0
M  V30 1890 C 175.122 3.12074 2.94802 0
M  V30 1891 C 174.355 3.23774 4.24271 0
M  V30 1892 O 174.578 2.4133 5.16833 0
M  V30 1893 O 173.512 4.16774 4.34262 0
M  V30 1894 H 177.338 2.70777 1.37527 0
M  V30 1895 H 174.923 1.36051 0.617293 0
M  V30 1896 H 176.805 1.98267 3.71845 0
M  V30 1897 H 175.48 0.965413 3.08968 0
M  V30 1898 H 174.387 3.07497 2.13065 0
M  V30 1899 H 175.72 4.03446 2.81943 0
M  V30 1900 N 177.372 -0.689602 1.41712 0
M  V30 1901 C 178.302 -1.81577 1.46806 0
M  V30 1902 C 179.283 -1.66945 0.326105 0
M  V30 1903 O 180.468 -1.86588 0.538377 0
M  V30 1904 C 177.598 -3.19762 1.35535 0
M  V30 1905 C 176.552 -3.49107 2.47605 0
M  V30 1906 C 175.878 -4.86711 2.21397 0
M  V30 1907 C 177.178 -3.47483 3.89939 0
M  V30 1908 H 178.872 -1.7757 2.41058 0
M  V30 1909 H 176.418 -0.852887 1.16025 0
M  V30 1910 H 178.371 -3.98263 1.3771 0
M  V30 1911 H 177.095 -3.24409 0.377708 0
M  V30 1912 H 175.754 -2.72959 2.44722 0
M  V30 1913 H 175.402 -4.8799 1.21961 0
M  V30 1914 H 175.102 -5.0731 2.96497 0
M  V30 1915 H 176.626 -5.67515 2.25297 0
M  V30 1916 H 178.04 -4.1598 3.94505 0
M  V30 1917 H 176.437 -3.79615 4.64771 0
M  V30 1918 H 177.507 -2.46341 4.17665 0
M  V30 1919 N 178.85 -1.27639 -0.924453 0
M  V30 1920 C 180.266 -1.05113 -1.20097 0
M  V30 1921 C 180.466 0.213262 -2.00368 0
M  V30 1922 O 179.522 0.91787 -2.35226 0
M  V30 1923 C 180.835 -2.29244 -1.94596 0
M  V30 1924 C 182.383 -2.34315 -2.07522 0
M  V30 1925 C 182.858 -3.58183 -2.85427 0
M  V30 1926 N 184.349 -3.5876 -2.92994 0
M  V30 1927 C 185.084 -4.51277 -3.53746 0
M  V30 1928 N 184.58 -5.54102 -4.15863 0
M  V30 1929 N 186.373 -4.38894 -3.51181 0
M  V30 1930 H 178.524 -2.08821 -0.388264 0
M  V30 1931 H 180.787 -0.918568 -0.234385 0
M  V30 1932 H 180.493 -3.21301 -1.43034 0
M  V30 1933 H 180.367 -2.34816 -2.95197 0
M  V30 1934 H 182.754 -1.42762 -2.58269 0
M  V30 1935 H 182.835 -2.32744 -1.06131 0
M  V30 1936 H 182.479 -4.50074 -2.35363 0
M  V30 1937 H 182.409 -3.57006 -3.8711 0
M  V30 1938 H 184.9 -2.84398 -2.4885 0
M  V30 1939 H 185.213 -6.20859 -4.60168 0
M  V30 1940 H 183.558 -5.57941 -4.144 0
M  V30 1941 H 186.749 -3.57772 -3.01856 0
M  V30 1942 H 186.922 -5.11186 -3.98237 0
M  V30 1943 N 180.328 1.1314 -1.09713 0
M  V30 1944 C 181.275 2.18642 -0.739196 0
M  V30 1945 C 182.245 1.63706 0.280978 0
M  V30 1946 O 183.43 1.90111 0.161946 0
M  V30 1947 C 180.57 3.44685 -0.169102 0
M  V30 1948 C 179.683 4.13711 -1.24367 0
M  V30 1949 C 178.818 5.27379 -0.636019 0
M  V30 1950 C 177.857 5.88259 -1.69169 0
M  V30 1951 N 176.994 6.93352 -1.10485 0
M  V30 1952 H 181.834 2.48607 -1.64312 0
M  V30 1953 H 179.371 1.22066 -0.820875 0
M  V30 1954 H 181.329 4.16815 0.179256 0
M  V30 1955 H 179.959 3.15161 0.698079 0
M  V30 1956 H 179.011 3.39835 -1.70927 0
M  V30 1957 H 180.323 4.55037 -2.04311 0
M  V30 1958 H 179.477 6.06238 -0.236677 0
M  V30 1959 H 178.216 4.8731 0.194928 0
M  V30 1960 H 177.221 5.08092 -2.10055 0
M  V30 1961 H 178.446 6.30399 -2.52536 0
M  V30 1962 H 176.392 6.55335 -0.295234 0
M  V30 1963 H 176.309 7.33236 -1.84121 0
M  V30 1964 H 177.577 7.76057 -0.73181 0
M  V30 1965 N 181.806 0.884767 1.30421 0
M  V30 1966 C 182.754 0.340869 2.30089 0
M  V30 1967 C 183.748 -0.55201 1.60154 0
M  V30 1968 O 184.954 -0.436467 1.74628 0
M  V30 1969 H 181.329 0.0915739 0.746404 0
M  V30 1970 H 183.3 1.19513 2.73421 0
M  V30 1971 C 182.049 -0.429779 3.45034 0
M  V30 1972 H 181.372 0.248024 3.9903 0
M  V30 1973 H 182.812 -0.775445 4.16849 0
M  V30 1974 C 181.271 -1.62677 2.95022 0
M  V30 1975 O 181.801 -2.72614 2.95033 0
M  V30 1976 N 180.007 -1.46387 2.51036 0
M  V30 1977 H 179.554 -0.569506 2.51226 0
M  V30 1978 H 179.512 -2.26612 2.17932 0
M  V30 1979 N 183.284 -1.43765 0.645699 0
M  V30 1980 C 184.532 -2.01499 0.155731 0
M  V30 1981 C 184.853 -1.51151 -1.232 0
M  V30 1982 O 184.123 -0.721044 -1.82148 0
M  V30 1983 H 182.703 -0.745003 0.0545817 0
M  V30 1984 H 185.365 -1.76075 0.835677 0
M  V30 1985 H 184.461 -3.1181 0.134577 0
M  V30 1986 N 184.763 -0.387143 -1.52771 0
M  V30 1987 C 185.673 0.456442 -2.30117 0
M  V30 1988 C 186.689 1.07342 -1.36944 0
M  V30 1989 O 187.865 1.07971 -1.70013 0
M  V30 1990 C 184.93 1.56957 -3.09136 0
M  V30 1991 C 183.991 0.977916 -4.18014 0
M  V30 1992 C 183.224 2.038 -4.93256 0
M  V30 1993 O 183.447 3.25271 -4.68567 0
M  V30 1994 O 182.381 1.6565 -5.78657 0
M  V30 1995 H 186.207 -0.17359 -3.03203 0
M  V30 1996 H 183.792 -0.150919 -1.48636 0
M  V30 1997 H 185.674 2.21628 -3.58412 0
M  V30 1998 H 184.349 2.18461 -2.38865 0
M  V30 1999 H 183.256 0.294525 -3.72939 0
M  V30 2000 H 184.589 0.407128 -4.90513 0
M  V30 2001 N 186.241 1.57166 -0.116904 0
M  V30 2002 C 187.174 2.10912 0.871291 0
M  V30 2003 C 188.152 1.025 1.26224 0
M  V30 2004 O 189.336 1.3014 1.36366 0
M  V30 2005 C 186.463 2.6041 2.16574 0
M  V30 2006 C 185.509 3.80687 1.92302 0
M  V30 2007 S 186.342 5.23199 1.14119 0
M  V30 2008 C 187.498 5.76064 2.44748 0
M  V30 2009 H 187.731 2.94401 0.414138 0
M  V30 2010 H 185.264 1.54096 0.096829 0
M  V30 2011 H 187.222 2.89583 2.9095 0
M  V30 2012 H 185.883 1.77106 2.59408 0
M  V30 2013 H 185.076 4.13462 2.8821 0
M  V30 2014 H 184.678 3.5212 1.26047 0
M  V30 2015 H 186.97 5.8566 3.406 0
M  V30 2016 H 187.913 6.74184 2.16521 0
M  V30 2017 H 188.321 5.04117 2.54019 0
M  V30 2018 N 187.719 -0.156864 1.56817 0
M  V30 2019 C 188.949 -0.885031 1.86684 0
M  V30 2020 C 189.357 -1.75696 0.701954 0
M  V30 2021 O 188.7 -1.80569 -0.337732 0
M  V30 2022 C 188.762 -1.80092 3.11138 0
M  V30 2023 C 188.426 -1.10714 4.43386 0
M  V30 2024 C 189.423 -0.465714 5.1781 0
M  V30 2025 C 187.108 -1.09959 4.90117 0
M  V30 2026 C 189.102 0.174002 6.37162 0
M  V30 2027 C 186.789 -0.456055 6.09396 0
M  V30 2028 C 187.787 0.179622 6.82764 0
M  V30 2029 O 187.475 0.812975 7.99779 0
M  V30 2030 H 187.207 -0.261813 0.623242 0
M  V30 2031 H 189.761 -0.157383 2.04796 0
M  V30 2032 H 187.991 -2.56926 2.89009 0
M  V30 2033 H 189.68 -2.40018 3.27332 0
M  V30 2034 H 190.446 -0.463427 4.82781 0
M  V30 2035 H 186.325 -1.58378 4.3294 0
M  V30 2036 H 189.869 0.670765 6.94368 0
M  V30 2037 H 185.766 -0.455975 6.43888 0
M  V30 2038 H 186.534 0.71366 8.15383 0
M  V30 2039 N 189.197 -1.51736 -0.425897 0
M  V30 2040 C 190.422 -1.69082 -1.20108 0
M  V30 2041 C 190.847 -0.392398 -1.83962 0
M  V30 2042 O 190.205 0.64858 -1.69302 0
M  V30 2043 C 190.253 -2.81604 -2.25237 0
M  V30 2044 O 189.357 -2.46004 -3.30992 0
M  V30 2045 H 188.698 -0.563408 -0.35138 0
M  V30 2046 H 191.228 -1.98358 -0.501512 0
M  V30 2047 H 191.238 -3.06025 -2.69838 0
M  V30 2048 H 189.913 -3.75817 -1.78142 0
M  V30 2049 H 188.49 -2.32195 -2.91787 0
M  V30 2050 N 190.675 0.682077 -1.42076 0
M  V30 2051 C 191.922 1.44215 -1.42156 0
M  V30 2052 C 192.25 1.94468 -0.0354186 0
M  V30 2053 O 191.505 1.70816 0.955002 0
M  V30 2054 C 191.804 2.66036 -2.38662 0
M  V30 2055 C 191.47 2.34366 -3.85206 0
M  V30 2056 C 190.132 2.25439 -4.25124 0
M  V30 2057 C 192.484 2.08513 -4.77673 0
M  V30 2058 C 189.812 1.88775 -5.55501 0
M  V30 2059 C 192.164 1.73354 -6.08384 0
M  V30 2060 C 190.828 1.62933 -6.47309 0
M  V30 2061 H 190.098 0.527718 -0.520187 0
M  V30 2062 H 192.745 0.778387 -1.74967 0
M  V30 2063 H 191.05 3.3741 -1.99152 0
M  V30 2064 H 192.747 3.24205 -2.35991 0
M  V30 2065 H 189.337 2.42213 -3.53597 0
M  V30 2066 H 193.521 2.14346 -4.47626 0
M  V30 2067 H 188.777 1.7927 -5.84527 0
M  V30 2068 H 192.951 1.52373 -6.79526 0
M  V30 2069 H 190.578 1.34292 -7.48244 0
M  V30 2070 N 192.153 1.28127 0.917671 0
M  V30 2071 C 193.564 1.13622 1.48145 0
M  V30 2072 C 193.915 -0.275207 1.9426 0
M  V30 2073 O 193.04 -1.1691 1.82102 0
M  V30 2074 C 193.635 2.05648 2.69248 0
M  V30 2075 C 192.194 1.95219 3.21818 0
M  V30 2076 C 191.341 1.97618 1.94532 0
M  V30 2077 H 194.292 1.40874 0.730772 0
M  V30 2078 H 194.313 1.61818 3.44377 0
M  V30 2079 H 193.825 3.08365 2.35653 0
M  V30 2080 H 191.926 0.955244 3.60147 0
M  V30 2081 H 192.039 2.81976 3.87333 0
M  V30 2082 H 190.403 1.41973 2.11461 0
M  V30 2083 H 191.186 3.02007 1.63238 0
M  V30 2084 N 193.631 -1.12557 1.10312 0
M  V30 2085 C 194.88 -1.83395 0.839588 0
M  V30 2086 C 195.193 -1.84939 -0.636929 0
M  V30 2087 O 196.399 -2.51761 -1.01631 0
M  V30 2088 C 194.855 -3.29303 1.45215 0
M  V30 2089 C 194.463 -3.36122 2.96186 0
M  V30 2090 C 196.207 -4.05121 1.26796 0
M  V30 2091 C 194.114 -4.76357 3.50483 0
M  V30 2092 H 193.044 -0.687133 0.310425 0
M  V30 2093 H 195.695 -1.26746 1.32694 0
M  V30 2094 H 194.077 -3.85812 0.892469 0
M  V30 2095 H 195.251 -2.89559 3.58458 0
M  V30 2096 H 193.566 -2.73776 3.13745 0
M  V30 2097 H 196.163 -5.08668 1.64806 0
M  V30 2098 H 196.506 -4.15773 0.209409 0
M  V30 2099 H 197.039 -3.54967 1.79563 0
M  V30 2100 H 193.778 -4.70899 4.55998 0
M  V30 2101 H 193.298 -5.23377 2.92978 0
M  V30 2102 H 194.977 -5.45294 3.48228 0
M  V30 2103 N 195.109 -0.891671 -1.2995 0
M  V30 2104 C 196.337 -0.52866 -2.00032 0
M  V30 2105 C 196.752 0.884574 -1.66795 0
M  V30 2106 O 196.109 1.5827 -0.908669 0
M  V30 2107 C 196.16 -0.701814 -3.54622 0
M  V30 2108 O 195.881 -2.05942 -3.86678 0
M  V30 2109 C 197.382 -0.342683 -4.41973 0
M  V30 2110 H 194.602 -0.203659 -0.639347 0
M  V30 2111 H 197.146 -1.19881 -1.65677 0
M  V30 2112 H 195.301 -0.0789468 -3.8732 0
M  V30 2113 H 195.715 -2.08291 -4.81368 0
M  V30 2114 H 197.189 -0.514709 -5.49595 0
M  V30 2115 H 197.666 0.71975 -4.33262 0
M  V30 2116 H 198.272 -0.942154 -4.14733 0
M  V30 2117 N 196.587 1.43421 -0.653314 0
M  V30 2118 C 197.836 2.01032 -0.164076 0
M  V30 2119 C 198.149 1.52147 1.22926 0
M  V30 2120 O 199.355 2.02031 1.81371 0
M  V30 2121 C 197.811 3.59082 -0.24252 0
M  V30 2122 C 197.419 4.1696 -1.63855 0
M  V30 2123 C 199.163 4.24079 0.18911 0
M  V30 2124 C 197.07 5.67304 -1.67092 0
M  V30 2125 H 196 0.751798 -0.0575769 0
M  V30 2126 H 198.651 1.6439 -0.815362 0
M  V30 2127 H 197.033 3.93125 0.476276 0
M  V30 2128 H 198.207 3.94416 -2.38271 0
M  V30 2129 H 196.522 3.64335 -2.01616 0
M  V30 2130 H 199.119 5.34381 0.184775 0
M  V30 2131 H 199.462 3.98005 1.22056 0
M  V30 2132 H 199.995 3.94918 -0.477938 0
M  V30 2133 H 196.734 5.98145 -2.68146 0
M  V30 2134 H 196.254 5.91904 -0.970014 0
M  V30 2135 H 197.933 6.31344 -1.4147 0
M  V30 2136 N 198.065 0.39524 1.52563 0
M  V30 2137 C 199.313 -0.184678 2.01254 0
M  V30 2138 C 199.634 -1.46822 1.28329 0
M  V30 2139 O 198.904 -1.91666 0.405094 0
M  V30 2140 H 197.484 -0.0712355 0.743596 0
M  V30 2141 H 200.146 0.528293 1.87603 0
M  V30 2142 H 199.242 -0.390681 3.09645 0
M  V30 2143 N 199.544 -1.57102 0.125237 0
M  V30 2144 C 200.492 -2.16905 -0.839927 0
M  V30 2145 C 201.486 -1.11998 -1.27094 0
M  V30 2146 O 202.692 -1.3029 -1.24195 0
M  V30 2147 H 199.067 -0.694252 -0.288995 0
M  V30 2148 H 201.038 -2.96774 -0.311115 0
M  V30 2149 C 199.787 -2.78795 -2.07771 0
M  V30 2150 H 199.11 -3.59221 -1.755 0
M  V30 2151 H 200.55 -3.2417 -2.73295 0
M  V30 2152 C 199.009 -1.76193 -2.87155 0
M  V30 2153 O 199.539 -1.21909 -3.82755 0
M  V30 2154 N 197.745 -1.45991 -2.51267 0
M  V30 2155 H 197.292 -1.90325 -1.73592 0
M  V30 2156 H 197.25 -0.775844 -3.04677 0
M  V30 2157 N 201.022 0.148545 -1.56898 0
M  V30 2158 C 201.97 1.20265 -1.99096 0
M  V30 2159 C 202.964 1.44559 -0.883123 0
M  V30 2160 O 204.17 1.4487 -1.0683 0
M  V30 2161 H 200.545 0.404786 -0.63376 0
M  V30 2162 H 202.516 0.82004 -2.86911 0
M  V30 2163 C 201.265 2.52886 -2.3863 0
M  V30 2164 H 200.588 2.35021 -3.23427 0
M  V30 2165 H 202.028 3.25274 -2.7198 0
M  V30 2166 C 200.487 3.13315 -1.23837 0
M  V30 2167 O 201.017 3.98077 -0.538268 0
M  V30 2168 N 199.223 2.72742 -1.00301 0
M  V30 2169 H 198.77 2.03912 -1.5741 0
M  V30 2170 H 198.728 3.13507 -0.236838 0
M  V30 2171 N 202.5 1.5196 0.417844 0
M  V30 2172 C 203.746 1.65836 1.16732 0
M  V30 2173 C 204.079 0.382881 1.90388 0
M  V30 2174 O 203.354 -0.618368 1.84408 0
M  V30 2175 C 203.637 2.87466 2.16876 0
M  V30 2176 C 203.49 4.25041 1.47174 0
M  V30 2177 C 204.809 3.04613 3.17646 0
M  V30 2178 H 201.928 0.603515 0.423011 0
M  V30 2179 H 204.57 1.84494 0.454105 0
M  V30 2180 H 202.72 2.71689 2.777 0
M  V30 2181 H 204.392 4.52527 0.895376 0
M  V30 2182 H 202.635 4.26843 0.773806 0
M  V30 2183 H 203.306 5.06176 2.20204 0
M  V30 2184 H 205.782 3.1923 2.66892 0
M  V30 2185 H 204.658 3.91247 3.8499 0
M  V30 2186 H 204.919 2.17541 3.84874 0
M  V30 2187 N 203.978 -0.674533 1.42435 0
M  V30 2188 C 205.224 -1.43521 1.4413 0
M  V30 2189 C 205.579 -1.92316 0.0567773 0
M  V30 2190 O 204.872 -1.68008 -0.921076 0
M  V30 2191 C 205.066 -2.64767 2.40069 0
M  V30 2192 C 204.895 -2.27836 3.87713 0
M  V30 2193 C 203.665 -2.17183 4.56245 0
M  V30 2194 C 205.863 -1.89466 4.78129 0
M  V30 2195 N 203.845 -1.73358 5.88915 0
M  V30 2196 C 205.216 -1.56561 5.99907 0
M  V30 2197 C 207.271 -1.7646 4.65582 0
M  V30 2198 C 205.974 -1.11957 7.10534 0
M  V30 2199 C 208 -1.3326 5.76191 0
M  V30 2200 C 207.362 -1.0128 6.97081 0
M  V30 2201 H 203.461 -0.521656 0.582579 0
M  V30 2202 H 206.045 -0.778381 1.78464 0
M  V30 2203 H 204.216 -3.28139 2.07796 0
M  V30 2204 H 205.948 -3.3136 2.32342 0
M  V30 2205 H 202.703 -2.3626 4.10461 0
M  V30 2206 H 203.127 -1.53867 6.59283 0
M  V30 2207 H 207.769 -1.99831 3.72595 0
M  V30 2208 H 205.487 -0.873318 8.03367 0
M  V30 2209 H 209.073 -1.23717 5.68494 0
M  V30 2210 H 207.953 -0.683597 7.81215 0
M  V30 2211 N 205.456 -1.28612 -0.910864 0
M  V30 2212 C 206.705 -1.15311 -1.65488 0
M  V30 2213 C 207.018 0.296999 -1.93332 0
M  V30 2214 O 208.224 0.551168 -2.65847 0
M  V30 2215 C 206.68 -2.01599 -2.98137 0
M  V30 2216 C 206.288 -3.51367 -2.7793 0
M  V30 2217 C 208.032 -1.96993 -3.76024 0
M  V30 2218 C 205.939 -4.29797 -4.06237 0
M  V30 2219 H 204.869 -0.42796 -0.620779 0
M  V30 2220 H 207.52 -1.53166 -1.01057 0
M  V30 2221 H 205.902 -1.56603 -3.63719 0
M  V30 2222 H 207.076 -4.0434 -2.21011 0
M  V30 2223 H 205.391 -3.57529 -2.13452 0
M  V30 2224 H 207.988 -2.52856 -4.71135 0
M  V30 2225 H 208.331 -0.94733 -4.05378 0
M  V30 2226 H 208.864 -2.39973 -3.17266 0
M  V30 2227 H 205.603 -5.32648 -3.82055 0
M  V30 2228 H 205.123 -3.81596 -4.62757 0
M  V30 2229 H 206.802 -4.39869 -4.74473 0
M  V30 2230 N 206.934 1.1197 -1.10907 0
M  V30 2231 C 208.182 1.83225 -0.852819 0
M  V30 2232 C 208.503 1.84769 0.623341 0
M  V30 2233 O 207.773 1.3143 1.45269 0
M  V30 2234 H 206.353 0.67849 -0.312507 0
M  V30 2235 H 209.015 1.3556 -1.40033 0
M  V30 2236 H 208.111 2.87265 -1.22005 0
M  V30 2237 N 208.412 0.89855 1.29475 0
M  V30 2238 C 209.637 0.538561 2.00285 0
M  V30 2239 C 210.062 -0.869135 1.66816 0
M  V30 2240 O 209.42 -1.57831 0.892145 0
M  V30 2241 C 209.468 0.736475 3.52999 0
M  V30 2242 O 208.572 -0.211537 4.11857 0
M  V30 2243 H 207.913 0.210563 0.62973 0
M  V30 2244 H 210.443 1.20982 1.64998 0
M  V30 2245 H 210.453 0.640685 4.02938 0
M  V30 2246 H 209.128 1.76276 3.76696 0
M  V30 2247 H 207.705 -0.0682991 3.72837 0
M  V30 2248 N 209.89 -1.43072 0.660911 0
M  V30 2249 C 210.84 -2.27948 -0.04847 0
M  V30 2250 C 211.824 -1.40325 -0.787246 0
M  V30 2251 O 213.016 -1.63893 -0.668446 0
M  V30 2252 C 210.145 -3.28143 -1.00881 0
M  V30 2253 C 209.231 -4.23252 -0.268108 0
M  V30 2254 N 209.622 -5.00656 0.719528 0
M  V30 2255 C 207.92 -4.43092 -0.508493 0
M  V30 2256 C 208.621 -5.70019 1.15988 0
M  V30 2257 N 207.597 -5.41364 0.492584 0
M  V30 2258 H 211.399 -2.85213 0.709279 0
M  V30 2259 H 208.913 -1.54869 0.488822 0
M  V30 2260 H 210.91 -3.87736 -1.53188 0
M  V30 2261 H 209.57 -2.7244 -1.76654 0
M  V30 2262 H 210.581 -5.06115 1.09855 0
M  V30 2263 H 207.258 -3.98449 -1.24679 0
M  V30 2264 H 208.648 -6.4214 1.97751 0
M  V30 2265 N 211.368 -0.403325 -1.52352 0
M  V30 2266 C 212.614 0.174605 -2.02047 0
M  V30 2267 C 212.947 1.45282 -1.28867 0
M  V30 2268 O 212.222 1.90483 -0.393257 0
M  V30 2269 C 212.505 0.428238 -3.57545 0
M  V30 2270 C 212.358 -0.866248 -4.4138 0
M  V30 2271 C 213.677 1.21287 -4.23057 0
M  V30 2272 H 210.796 0.0619851 -0.734389 0
M  V30 2273 H 213.438 -0.53565 -1.82293 0
M  V30 2274 H 211.588 1.03327 -3.74507 0
M  V30 2275 H 213.26 -1.50265 -4.3614 0
M  V30 2276 H 211.503 -1.47851 -4.07827 0
M  V30 2277 H 212.174 -0.643249 -5.48239 0
M  V30 2278 H 214.65 0.700703 -4.10158 0
M  V30 2279 H 213.526 1.35909 -5.31808 0
M  V30 2280 H 213.787 2.23193 -3.81625 0
M  V30 2281 N 212.846 1.57033 -0.133567 0
M  V30 2282 C 214.092 1.95976 0.521649 0
M  V30 2283 C 214.425 1.01779 1.65393 0
M  V30 2284 O 213.7 0.0576581 1.94415 0
M  V30 2285 C 213.983 3.44738 1.04057 0
M  V30 2286 C 213.836 4.49711 -0.0892897 0
M  V30 2287 C 215.155 3.95682 1.92675 0
M  V30 2288 H 212.274 0.712579 0.188149 0
M  V30 2289 H 214.916 1.88813 -0.212076 0
M  V30 2290 H 213.066 3.50973 1.66583 0
M  V30 2291 H 214.738 4.55565 -0.725152 0
M  V30 2292 H 212.981 4.27261 -0.750378 0
M  V30 2293 H 213.652 5.51099 0.315284 0
M  V30 2294 H 216.128 3.91841 1.39998 0
M  V30 2295 H 215.004 5.00262 2.25897 0
M  V30 2296 H 215.265 3.37239 2.85872 0
M  V30 2297 N 214.325 -0.140222 1.56975 0
M  V30 2298 C 215.574 -0.850152 1.82908 0
M  V30 2299 C 215.887 -1.82028 0.715892 0
M  V30 2300 O 217.093 -2.57485 0.861016 0
M  V30 2301 C 215.549 -1.5625 3.24213 0
M  V30 2302 C 215.157 -0.63443 4.43485 0
M  V30 2303 C 216.901 -2.25881 3.59413 0
M  V30 2304 C 214.808 -1.34879 5.75814 0
M  V30 2305 H 213.738 -0.321221 0.682153 0
M  V30 2306 H 216.389 -0.102874 1.83211 0
M  V30 2307 H 214.771 -2.35565 3.18316 0
M  V30 2308 H 215.945 0.12398 4.60633 0
M  V30 2309 H 214.26 -0.0461836 4.16374 0
M  V30 2310 H 216.857 -2.79978 4.5554 0
M  V30 2311 H 217.2 -3.02693 2.85802 0
M  V30 2312 H 217.733 -1.53477 3.67001 0
M  V30 2313 H 214.472 -0.622385 6.52539 0
M  V30 2314 H 213.992 -2.07974 5.6259 0
M  V30 2315 H 215.671 -1.88784 6.18845 0
M  V30 2316 N 215.803 -1.52179 -0.40978 0
M  V30 2317 C 216.751 -1.76086 -1.51975 0
M  V30 2318 C 217.745 -0.627964 -1.57331 0
M  V30 2319 O 218.951 -0.809993 -1.60745 0
M  V30 2320 H 215.326 -0.556829 -0.505416 0
M  V30 2321 H 217.297 -2.69077 -1.28996 0
M  V30 2322 C 216.046 -1.92799 -2.8935 0
M  V30 2323 H 215.369 -2.79392 -2.85972 0
M  V30 2324 H 216.809 -2.13527 -3.66309 0
M  V30 2325 C 215.268 -0.694923 -3.29655 0
M  V30 2326 O 215.798 0.13751 -4.01465 0
M  V30 2327 N 214.004 -0.53101 -2.85707 0
M  V30 2328 H 213.551 -1.20952 -2.27439 0
M  V30 2329 H 213.509 0.292718 -3.13034 0
M  V30 2330 N 217.281 0.66697 -1.42791 0
M  V30 2331 C 218.692 1.2478 -1.38877 0
M  V30 2332 C 219.043 1.96012 -0.0859426 0
M  V30 2333 O 218.168 2.00463 0.815081 0
M  V30 2334 C 218.763 2.26938 -2.51564 0
M  V30 2335 C 217.322 2.80529 -2.50959 0
M  V30 2336 C 216.469 1.54965 -2.29959 0
M  V30 2337 H 219.42 0.459853 -1.51892 0
M  V30 2338 H 219.441 3.08834 -2.22265 0
M  V30 2339 H 218.953 1.75065 -3.46372 0
M  V30 2340 H 217.054 3.36502 -1.59991 0
M  V30 2341 H 217.167 3.29012 -3.48265 0
M  V30 2342 H 215.531 1.81817 -1.78366 0
M  V30 2343 H 216.314 1.05047 -3.26833 0
M  V30 2344 N 218.759 1.29093 0.90403 0
M  V30 2345 C 220.007 1.16583 1.65085 0
M  V30 2346 C 220.328 -0.283933 1.92922 0
M  V30 2347 O 219.598 -1.19509 1.55224 0
M  V30 2348 H 218.178 0.428467 0.611903 0
M  V30 2349 H 220.84 1.61959 1.08422 0
M  V30 2350 H 219.936 1.71266 2.6091 0
M  V30 2351 N 220.237 -1.11381 1.11499 0
M  V30 2352 C 221.483 -1.83403 0.865512 0
M  V30 2353 C 221.816 -1.84459 -0.607329 0
M  V30 2354 O 221.091 -1.29811 -1.44842 0
M  V30 2355 C 221.374 -3.30552 1.42855 0
M  V30 2356 C 221.227 -3.37886 2.96906 0
M  V30 2357 C 222.546 -4.26643 1.08 0
M  V30 2358 H 219.665 -0.665879 0.31587 0
M  V30 2359 H 222.307 -1.30601 1.37998 0
M  V30 2360 H 220.457 -3.75648 0.990985 0
M  V30 2361 H 222.129 -3.01343 3.49271 0
M  V30 2362 H 220.372 -2.78088 3.32941 0
M  V30 2363 H 221.043 -4.41458 3.31389 0
M  V30 2364 H 223.519 -3.89729 1.45775 0
M  V30 2365 H 222.395 -5.27986 1.50072 0
M  V30 2366 H 222.656 -4.42099 -0.00915037 0
M  V30 2367 N 221.715 -0.905404 -1.28997 0
M  V30 2368 C 222.943 -0.549846 -1.9946 0
M  V30 2369 C 223.358 0.866834 -1.67724 0
M  V30 2370 O 222.715 1.57298 -0.925404 0
M  V30 2371 C 222.766 -0.739387 -3.53858 0
M  V30 2372 O 222.487 -2.10031 -3.84472 0
M  V30 2373 C 223.988 -0.389541 -4.41585 0
M  V30 2374 H 221.208 -0.210429 -0.637151 0
M  V30 2375 H 223.752 -1.21632 -1.64396 0
M  V30 2376 H 221.907 -0.120023 -3.87214 0
M  V30 2377 H 222.321 -2.13385 -4.79132 0
M  V30 2378 H 223.795 -0.572972 -5.49018 0
M  V30 2379 H 224.272 0.673756 -4.34001 0
M  V30 2380 H 224.878 -0.986089 -4.1371 0
M  V30 2381 N 223.193 1.4272 -0.668489 0
M  V30 2382 C 224.442 2.00846 -0.185389 0
M  V30 2383 C 224.755 1.53442 1.21305 0
M  V30 2384 O 225.961 2.03944 1.79218 0
M  V30 2385 C 224.417 3.58805 -0.280591 0
M  V30 2386 C 224.025 4.15198 -1.68268 0
M  V30 2387 C 225.769 4.24255 0.14412 0
M  V30 2388 C 223.676 5.655 -1.73099 0
M  V30 2389 H 222.606 0.751145 -0.0655475 0
M  V30 2390 H 225.257 1.63516 -0.832752 0
M  V30 2391 H 223.639 3.93608 0.434553 0
M  V30 2392 H 224.813 3.91866 -2.42441 0
M  V30 2393 H 223.128 3.62176 -2.05469 0
M  V30 2394 H 225.725 5.34547 0.128086 0
M  V30 2395 H 226.068 3.99277 1.17827 0
M  V30 2396 H 226.601 3.94389 -0.519798 0
M  V30 2397 H 223.34 5.95268 -2.74475 0
M  V30 2398 H 222.86 5.90842 -1.03274 0
M  V30 2399 H 224.539 6.29808 -1.48158 0
M  V30 2400 N 224.671 0.411399 1.52136 0
M  V30 2401 C 225.919 -0.163322 2.01439 0
M  V30 2402 C 226.24 -1.45453 1.29879 0
M  V30 2403 O 225.51 -1.91225 0.4254 0
M  V30 2404 H 224.09 -0.0633447 0.744309 0
M  V30 2405 H 226.752 0.548161 1.87033 0
M  V30 2406 H 225.848 -0.357817 3.10042 0
M  V30 2407 N 226.149 -1.5696 0.141893 0
M  V30 2408 C 227.426 -1.87553 -0.555281 0
M  V30 2409 C 227.806 -1.04699 -1.83306 0
M  V30 2410 O 227.154 -0.132346 -2.28116 0
M  V30 2411 C 227.364 -3.39093 -0.825664 0
M  V30 2412 C 228.712 -4.08199 -1.16869 0
M  V30 2413 O 229.736 -3.44242 -0.915185 0
M  V30 2414 O 228.595 -5.21139 -1.6455 0
M  V30 2415 H 225.689 -0.777188 -0.282679 0
M  V30 2416 H 228.235 -1.68763 0.17812 0
M  V30 2417 H 227.007 -3.91221 0.0788633 0
M  V30 2418 H 226.63 -3.63393 -1.61343 0
M  V30 2419 N 227.627 0.131896 -1.57047 0
M  V30 2420 C 228.575 1.18146 -2.0036 0
M  V30 2421 C 229.569 1.43614 -0.898406 0
M  V30 2422 O 230.775 1.43729 -1.08361 0
M  V30 2423 H 227.15 0.398042 -0.638018 0
M  V30 2424 H 229.121 0.789564 -2.87765 0
M  V30 2425 C 227.87 2.50341 -2.41298 0
M  V30 2426 H 227.193 2.31578 -3.25902 0
M  V30 2427 H 228.633 3.22371 -2.75414 0
M  V30 2428 C 227.092 3.11984 -1.27153 0
M  V30 2429 O 227.622 3.97484 -0.580459 0
M  V30 2430 N 225.828 2.71662 -1.03189 0
M  V30 2431 H 225.375 2.02231 -1.59564 0
M  V30 2432 H 225.333 3.13238 -0.270077 0
M  V30 2433 N 229.106 1.52395 0.401703 0
M  V30 2434 C 230.331 1.70972 1.17403 0
M  V30 2435 C 230.756 0.421615 1.83314 0
M  V30 2436 O 230.114 -0.621564 1.70312 0
M  V30 2437 C 230.162 2.85151 2.20728 0
M  V30 2438 O 229.266 2.51238 3.27037 0
M  V30 2439 H 228.607 0.568927 0.342372 0
M  V30 2440 H 231.137 1.99131 0.469891 0
M  V30 2441 H 231.147 3.10279 2.64936 0
M  V30 2442 H 229.822 3.78603 1.7214 0
M  V30 2443 H 228.399 2.36808 2.88057 0
M  V30 2444 N 230.584 -0.659388 1.43143 0
M  V30 2445 C 231.83 -1.42145 1.44647 0
M  V30 2446 C 232.163 -1.9408 0.0681907 0
M  V30 2447 O 231.438 -1.71899 -0.910007 0
M  V30 2448 C 231.721 -2.60735 2.48373 0
M  V30 2449 C 231.574 -2.14332 3.95451 0
M  V30 2450 C 232.893 -3.62951 2.48906 0
M  V30 2451 H 230.012 -0.51552 0.526696 0
M  V30 2452 H 232.654 -0.748069 1.74654 0
M  V30 2453 H 230.804 -3.18184 2.22916 0
M  V30 2454 H 232.476 -1.61932 4.31944 0
M  V30 2455 H 230.719 -1.4576 4.08578 0
M  V30 2456 H 231.39 -2.99583 4.63631 0
M  V30 2457 H 233.866 -3.1525 2.71582 0
M  V30 2458 H 232.742 -4.43487 3.23435 0
M  V30 2459 H 233.003 -4.15126 1.52061 0
M  V30 2460 N 232.062 -1.29571 -0.897171 0
M  V30 2461 C 233.311 -1.1706 -1.64256 0
M  V30 2462 C 233.624 0.276476 -1.93636 0
M  V30 2463 O 234.83 0.52294 -2.66416 0
M  V30 2464 C 233.286 -2.0475 -2.95982 0
M  V30 2465 C 232.894 -3.54295 -2.74187 0
M  V30 2466 C 234.638 -2.0097 -3.73914 0
M  V30 2467 C 232.545 -4.34081 -4.01656 0
M  V30 2468 H 231.475 -0.43452 -0.616205 0
M  V30 2469 H 234.126 -1.54229 -0.994268 0
M  V30 2470 H 232.508 -1.60452 -3.62038 0
M  V30 2471 H 233.682 -4.06662 -2.1671 0
M  V30 2472 H 231.997 -3.59773 -2.09648 0
M  V30 2473 H 234.594 -2.57838 -4.68427 0
M  V30 2474 H 234.937 -0.990273 -4.0435 0
M  V30 2475 H 235.47 -2.43325 -3.14703 0
M  V30 2476 H 232.209 -5.36671 -3.76384 0
M  V30 2477 H 231.729 -3.86483 -4.58684 0
M  V30 2478 H 233.408 -4.44877 -4.69781 0
M  V30 2479 N 233.54 1.10788 -1.12088 0
M  V30 2480 C 234.788 1.8231 -0.872205 0
M  V30 2481 C 235.109 1.85419 0.603709 0
M  V30 2482 O 234.379 1.32963 1.43867 0
M  V30 2483 H 232.959 0.675137 -0.319686 0
M  V30 2484 H 235.621 1.34068 -1.41463 0
M  V30 2485 H 234.717 2.85955 -1.25045 0
M  V30 2486 N 235.018 0.912232 1.28515 0
M  V30 2487 C 235.981 0.404223 2.25607 0
M  V30 2488 C 236.981 -0.468602 1.53821 0
M  V30 2489 O 238.171 -0.271873 1.72065 0
M  V30 2490 C 235.303 -0.420653 3.38295 0
M  V30 2491 H 236.496 1.26188 2.7206 0
M  V30 2492 H 234.049 0.691495 1.40171 0
M  V30 2493 H 234.784 -1.29777 2.97201 0
M  V30 2494 H 234.569 0.204935 3.91564 0
M  V30 2495 H 236.059 -0.766971 4.10496 0
M  V30 2496 N 236.496 -1.42363 0.676048 0
M  V30 2497 C 237.744 -2.01123 0.198437 0
M  V30 2498 C 238.065 -1.53731 -1.19966 0
M  V30 2499 O 237.335 -0.759518 -1.80577 0
M  V30 2500 H 235.915 -0.743678 0.0703721 0
M  V30 2501 H 238.577 -1.74263 0.872837 0
M  V30 2502 H 237.673 -3.11454 0.200686 0
M  V30 2503 N 237.974 -0.419461 -1.51915 0
M  V30 2504 C 239.199 0.154572 -2.06823 0
M  V30 2505 C 239.624 1.3722 -1.28656 0
M  V30 2506 O 238.982 1.78461 -0.319583 0
M  V30 2507 C 239.03 0.473172 -3.57482 0
M  V30 2508 O 238.134 1.56255 -3.81652 0
M  V30 2509 H 237.475 0.0096924 -0.663929 0
M  V30 2510 H 240.005 -0.595642 -1.95738 0
M  V30 2511 H 240.015 0.728825 -4.01438 0
M  V30 2512 H 238.69 -0.416873 -4.13805 0
M  V30 2513 H 237.267 1.29825 -3.49571 0
M  V30 2514 N 239.452 1.56882 -0.150215 0
M  V30 2515 C 240.701 1.95403 0.500071 0
M  V30 2516 C 241.014 1.03777 1.658 0
M  V30 2517 O 242.22 1.31889 2.37313 0
M  V30 2518 C 240.676 3.4738 0.941018 0
M  V30 2519 C 240.284 4.47596 -0.190158 0
M  V30 2520 C 242.028 3.9476 1.56091 0
M  V30 2521 C 239.935 5.90787 0.269237 0
M  V30 2522 H 238.865 0.729515 0.190588 0
M  V30 2523 H 241.516 1.81988 -0.235074 0
M  V30 2524 H 239.898 3.56138 1.73152 0
M  V30 2525 H 241.072 4.50536 -0.967157 0
M  V30 2526 H 239.387 4.10151 -0.718666 0
M  V30 2527 H 241.984 4.99181 1.9163 0
M  V30 2528 H 242.327 3.36494 2.45107 0
M  V30 2529 H 242.86 3.88932 0.835249 0
M  V30 2530 H 239.599 6.52879 -0.585621 0
M  V30 2531 H 239.119 5.912 1.01204 0
M  V30 2532 H 240.798 6.42979 0.720176 0
M  V30 2533 N 240.93 -0.123565 1.57115 0
M  V30 2534 C 242.176 -0.833386 1.84885 0
M  V30 2535 C 242.509 -1.79742 0.735292 0
M  V30 2536 O 241.784 -1.92764 -0.25925 0
M  V30 2537 C 242.067 -1.5873 3.23228 0
M  V30 2538 C 241.92 -0.643183 4.45178 0
M  V30 2539 C 243.239 -2.54453 3.59085 0
M  V30 2540 H 240.358 -0.301518 0.6725 0
M  V30 2541 H 243 -0.097778 1.89748 0
M  V30 2542 H 241.15 -2.21438 3.19214 0
M  V30 2543 H 242.822 -0.0253015 4.61293 0
M  V30 2544 H 241.065 0.0456139 4.33776 0
M  V30 2545 H 241.736 -1.20724 5.38637 0
M  V30 2546 H 244.212 -2.01853 3.63861 0
M  V30 2547 H 243.088 -3.04238 4.5687 0
M  V30 2548 H 243.349 -3.36906 2.86264 0
M  V30 2549 N 242.408 -1.52605 -0.393616 0
M  V30 2550 C 243.636 -1.71294 -1.16043 0
M  V30 2551 C 244.051 -0.429259 -1.83855 0
M  V30 2552 O 243.408 0.595921 -1.72496 0
M  V30 2553 C 243.459 -2.8593 -2.21193 0
M  V30 2554 O 243.18 -4.09329 -1.56146 0
M  V30 2555 C 244.681 -3.16259 -3.10636 0
M  V30 2556 H 241.901 -0.573641 -0.348104 0
M  V30 2557 H 244.445 -1.99234 -0.461092 0
M  V30 2558 H 242.6 -2.60465 -2.86769 0
M  V30 2559 H 243.014 -4.73323 -2.25978 0
M  V30 2560 H 244.488 -3.99946 -3.80456 0
M  V30 2561 H 244.965 -2.3045 -3.73884 0
M  V30 2562 H 245.571 -3.43547 -2.50711 0
M  V30 2563 N 243.887 0.651787 -1.4349 0
M  V30 2564 C 244.834 1.76462 -1.4876 0
M  V30 2565 C 245.804 1.62641 -0.337189 0
M  V30 2566 O 246.989 1.82864 -0.544544 0
M  V30 2567 C 244.129 3.14623 -1.41796 0
M  V30 2568 C 243.242 3.39568 -2.67053 0
M  V30 2569 C 242.377 4.67585 -2.52068 0
M  V30 2570 C 241.416 4.85639 -3.72587 0
M  V30 2571 N 240.553 6.04915 -3.56402 0
M  V30 2572 H 245.393 1.71293 -2.43849 0
M  V30 2573 H 242.93 0.835889 -1.21043 0
M  V30 2574 H 244.888 3.94496 -1.35753 0
M  V30 2575 H 243.518 3.18859 -0.50288 0
M  V30 2576 H 242.57 2.53783 -2.8337 0
M  V30 2577 H 243.882 3.48795 -3.56572 0
M  V30 2578 H 243.036 5.55586 -2.4374 0
M  V30 2579 H 241.775 4.60681 -1.60075 0
M  V30 2580 H 240.78 3.96073 -3.81321 0
M  V30 2581 H 242.005 4.94372 -4.65589 0
M  V30 2582 H 239.951 5.9914 -2.67146 0
M  V30 2583 H 239.868 6.15106 -4.39524 0
M  V30 2584 H 241.136 6.95533 -3.51929 0
M  V30 2585 N 245.365 1.30045 0.890287 0
M  V30 2586 C 246.642 1.09227 1.62262 0
M  V30 2587 C 247.022 -0.360305 2.08002 0
M  V30 2588 O 246.37 -1.35084 1.84295 0
M  V30 2589 C 246.58 2.08835 2.79623 0
M  V30 2590 C 247.928 2.40266 3.50082 0
M  V30 2591 O 248.952 2.07104 2.89804 0
M  V30 2592 O 247.811 2.96967 4.58773 0
M  V30 2593 H 244.905 0.419132 0.712922 0
M  V30 2594 H 247.451 1.41451 0.937529 0
M  V30 2595 H 246.223 3.06633 2.43089 0
M  V30 2596 H 245.846 1.77397 3.55832 0
M  V30 2597 N 246.843 -1.10192 1.12674 0
M  V30 2598 C 248.092 -1.81573 0.8783 0
M  V30 2599 C 248.405 -1.86249 -0.597557 0
M  V30 2600 O 249.611 -2.5386 -0.962681 0
M  V30 2601 C 248.067 -3.26149 1.52167 0
M  V30 2602 C 247.675 -3.29763 3.03249 0
M  V30 2603 C 249.419 -4.0234 1.3536 0
M  V30 2604 C 247.326 -4.68815 3.60508 0
M  V30 2605 H 246.256 -0.680394 0.324931 0
M  V30 2606 H 248.907 -1.23902 1.35353 0
M  V30 2607 H 247.289 -3.83832 0.974104 0
M  V30 2608 H 248.463 -2.8189 3.6452 0
M  V30 2609 H 246.778 -2.67059 3.19481 0
M  V30 2610 H 249.375 -5.05058 1.75559 0
M  V30 2611 H 249.718 -4.15235 0.297554 0
M  V30 2612 H 250.251 -3.51079 1.87052 0
M  V30 2613 H 246.99 -4.61121 4.65884 0
M  V30 2614 H 246.51 -5.17045 3.04014 0
M  V30 2615 H 248.189 -5.37785 3.59717 0
M  V30 2616 N 248.321 -0.919034 -1.28029 0
M  V30 2617 C 249.732 -0.600735 -1.76771 0
M  V30 2618 C 250.083 0.884024 -1.75156 0
M  V30 2619 O 249.208 1.69163 -1.34956 0
M  V30 2620 C 249.803 -1.08372 -3.21 0
M  V30 2621 C 248.362 -0.816248 -3.67443 0
M  V30 2622 C 247.509 -1.24742 -2.47658 0
M  V30 2623 H 250.46 -1.09974 -1.14418 0
M  V30 2624 H 250.481 -0.427512 -3.78091 0
M  V30 2625 H 249.993 -2.16437 -3.22144 0
M  V30 2626 H 248.094 0.250968 -3.71754 0
M  V30 2627 H 248.207 -1.4277 -4.57333 0
M  V30 2628 H 246.571 -0.666083 -2.45836 0
M  V30 2629 H 247.354 -2.33653 -2.51518 0
M  V30 2630 N 249.799 1.42003 -0.683588 0
M  V30 2631 C 251.21 1.84501 -0.285736 0
M  V30 2632 C 251.561 1.57213 1.17382 0
M  V30 2633 O 250.686 1.03642 1.89966 0
M  V30 2634 C 251.281 3.34912 -0.511821 0
M  V30 2635 C 249.84 3.76025 -0.168005 0
M  V30 2636 C 248.987 2.6551 -0.799983 0
M  V30 2637 H 251.938 1.31724 -0.885119 0
M  V30 2638 H 251.959 3.79784 0.233292 0
M  V30 2639 H 251.471 3.54741 -1.57418 0
M  V30 2640 H 249.572 3.61801 0.890567 0
M  V30 2641 H 249.685 4.75141 -0.614661 0
M  V30 2642 H 248.049 2.53654 -0.230568 0
M  V30 2643 H 248.832 2.8816 -1.86597 0
M  V30 2644 N 251.277 0.427512 1.51691 0
M  V30 2645 C 252.225 -0.403359 2.29076 0
M  V30 2646 C 253.219 -1.02962 1.34518 0
M  V30 2647 O 254.425 -0.965715 1.51901 0
M  V30 2648 H 250.8 -0.148879 0.737115 0
M  V30 2649 H 252.771 0.270295 2.97173 0
M  V30 2650 C 251.52 -1.49763 3.13794 0
M  V30 2651 H 250.843 -1.02508 3.86435 0
M  V30 2652 H 252.283 -2.05244 3.71014 0
M  V30 2653 C 250.742 -2.47536 2.28533 0
M  V30 2654 O 251.272 -3.51848 1.93819 0
M  V30 2655 N 249.478 -2.18187 1.91945 0
M  V30 2656 H 249.025 -1.33389 2.20375 0
M  V30 2657 H 248.983 -2.83848 1.35195 0
M  V30 2658 N 252.755 -1.56801 0.158532 0
M  V30 2659 C 254.001 -1.96781 -0.490405 0
M  V30 2660 C 254.334 -1.04397 -1.63753 0
M  V30 2661 O 253.609 -0.0885805 -1.94298 0
M  V30 2662 C 253.892 -3.4635 -0.985594 0
M  V30 2663 C 253.745 -4.49512 0.160824 0
M  V30 2664 C 255.064 -3.98697 -1.86355 0
M  V30 2665 H 252.183 -0.715482 -0.176788 0
M  V30 2666 H 254.825 -1.88451 0.242088 0
M  V30 2667 H 252.975 -3.53579 -1.60978 0
M  V30 2668 H 254.647 -4.54353 0.797537 0
M  V30 2669 H 252.89 -4.26013 0.818256 0
M  V30 2670 H 253.561 -5.51531 -0.227569 0
M  V30 2671 H 256.037 -3.94019 -1.33746 0
M  V30 2672 H 254.913 -5.03792 -2.17909 0
M  V30 2673 H 255.174 -3.41744 -2.8047 0
M  V30 2674 N 254.233 0.115231 -1.57178 0
M  V30 2675 C 255.479 0.82357 -1.85325 0
M  V30 2676 C 255.812 1.79349 -0.744814 0
M  V30 2677 O 255.087 1.92899 0.249024 0
M  V30 2678 C 255.37 1.57014 -3.24066 0
M  V30 2679 C 255.223 0.619565 -4.45513 0
M  V30 2680 C 256.542 2.52545 -3.60429 0
M  V30 2681 H 253.661 0.297948 -0.674089 0
M  V30 2682 H 256.303 0.0877138 -1.89797 0
M  V30 2683 H 254.453 2.19742 -3.20383 0
M  V30 2684 H 256.125 0.000837639 -4.613 0
M  V30 2685 H 254.368 -0.0686174 -4.33746 0
M  V30 2686 H 255.039 1.17866 -5.3927 0
M  V30 2687 H 257.515 1.9992 -3.64926 0
M  V30 2688 H 256.391 3.01811 -4.58477 0
M  V30 2689 H 256.652 3.35383 -2.88047 0
M  V30 2690 N 255.711 1.52812 0.385517 0
M  V30 2691 C 256.674 1.77188 1.45386 0
M  V30 2692 C 257.674 0.641953 1.4743 0
M  V30 2693 O 258.864 0.910033 1.4854 0
M  V30 2694 C 255.996 1.87582 2.8465 0
M  V30 2695 H 257.189 2.72583 1.25054 0
M  V30 2696 H 254.742 1.43586 0.617467 0
M  V30 2697 H 255.477 0.941849 3.10322 0
M  V30 2698 H 255.262 2.69748 2.84567 0
M  V30 2699 H 256.752 2.08102 3.62054 0
M  V30 2700 N 257.189 -0.644168 1.43834 0
M  V30 2701 C 258.152 -1.73857 1.49353 0
M  V30 2702 C 259.152 -1.56315 0.377112 0
M  V30 2703 O 260.342 -1.62048 0.639226 0
M  V30 2704 C 257.474 -3.12819 1.35488 0
M  V30 2705 H 258.667 -1.70342 2.46827 0
M  V30 2706 H 256.22 -0.856652 1.30733 0
M  V30 2707 H 256.955 -3.2194 0.390569 0
M  V30 2708 H 256.74 -3.26958 2.16428 0
M  V30 2709 H 258.23 -3.92606 1.42302 0
M  V30 2710 N 258.668 -1.30515 -0.883378 0
M  V30 2711 C 259.916 -1.19194 -1.63209 0
M  V30 2712 C 260.237 0.253205 -1.93349 0
M  V30 2713 O 259.507 1.17025 -1.57105 0
M  V30 2714 H 258.087 -0.438148 -0.605009 0
M  V30 2715 H 260.749 -1.63663 -1.05832 0
M  V30 2716 H 259.845 -1.75396 -2.58153 0
M  V30 2717 N 260.146 1.09593 -1.13257 0
M  V30 2718 C 261.392 1.82003 -0.89458 0
M  V30 2719 C 261.725 1.85402 0.577906 0
M  V30 2720 O 261 1.32099 1.42759 0
M  V30 2721 C 261.283 3.28237 -1.48096 0
M  V30 2722 C 261.136 3.3312 -3.02244 0
M  V30 2723 C 262.455 4.24871 -1.14774 0
M  V30 2724 H 259.574 0.66077 -0.326424 0
M  V30 2725 H 262.216 1.28389 -1.40058 0
M  V30 2726 H 260.366 3.74024 -1.05062 0
M  V30 2727 H 262.038 2.95748 -3.54021 0
M  V30 2728 H 260.281 2.72756 -3.37323 0
M  V30 2729 H 260.952 4.3613 -3.38371 0
M  V30 2730 H 263.428 3.87361 -1.51957 0
M  V30 2731 H 262.304 5.25532 -1.58452 0
M  V30 2732 H 262.565 4.42058 -0.0611849 0
M  V30 2733 N 261.624 0.925811 1.2754 0
M  V30 2734 C 263.035 0.610102 1.7645 0
M  V30 2735 C 263.386 -0.874723 1.75622 0
M  V30 2736 O 262.511 -1.68444 1.35851 0
M  V30 2737 C 263.106 1.10073 3.20421 0
M  V30 2738 C 261.665 0.835723 3.67005 0
M  V30 2739 C 260.812 1.26054 2.46993 0
M  V30 2740 H 263.763 1.10579 1.13833 0
M  V30 2741 H 263.784 0.447557 3.77859 0
M  V30 2742 H 263.296 2.18143 3.20991 0
M  V30 2743 H 261.397 -0.231249 3.71882 0
M  V30 2744 H 261.51 1.45193 4.56569 0
M  V30 2745 H 259.874 0.679111 2.45479 0
M  V30 2746 H 260.657 2.34984 2.50275 0
M  V30 2747 N 263.102 -1.41638 0.69111 0
M  V30 2748 C 264.342 -2.03166 0.224291 0
M  V30 2749 C 264.706 -1.53537 -1.15284 0
M  V30 2750 O 265.907 -2.0696 -1.71525 0
M  V30 2751 C 264.178 -3.56342 0.274758 0
M  V30 2752 S 265.737 -4.3864 -0.118669 0
M  V30 2753 H 262.555 -0.705188 0.0907263 0
M  V30 2754 H 265.157 -1.7314 0.907895 0
M  V30 2755 H 263.861 -3.89958 1.2791 0
M  V30 2756 H 263.392 -3.91063 -0.428142 0
M  V30 2757 H 265.407 -4.77549 -1.34764 0
M  V30 2758 N 264.58 -0.43555 -1.51462 0
M  V30 2759 C 265.996 -0.0877501 -1.59359 0
M  V30 2760 C 266.196 1.4027 -1.4466 0
M  V30 2761 O 265.252 2.17243 -1.28693 0
M  V30 2762 C 266.565 -0.606264 -2.94525 0
M  V30 2763 C 268.113 -0.566548 -3.0783 0
M  V30 2764 C 268.588 -1.06201 -4.45517 0
M  V30 2765 N 270.079 -1.01992 -4.51832 0
M  V30 2766 C 270.814 -1.37417 -5.5669 0
M  V30 2767 N 270.31 -1.80119 -6.68976 0
M  V30 2768 N 272.103 -1.29245 -5.47039 0
M  V30 2769 H 264.254 -1.40533 -1.59261 0
M  V30 2770 H 266.517 -0.578992 -0.750648 0
M  V30 2771 H 266.223 -1.64901 -3.10645 0
M  V30 2772 H 266.097 -0.0302097 -3.77188 0
M  V30 2773 H 268.484 0.467208 -2.91378 0
M  V30 2774 H 268.565 -1.17898 -2.2701 0
M  V30 2775 H 268.209 -2.09422 -4.62715 0
M  V30 2776 H 268.139 -0.426127 -5.24873 0
M  V30 2777 H 270.63 -0.706308 -3.71241 0
M  V30 2778 H 270.943 -2.05392 -7.45006 0
M  V30 2779 H 269.288 -1.84044 -6.70189 0
M  V30 2780 H 272.479 -0.957522 -4.58202 0
M  V30 2781 H 272.652 -1.57182 -6.28648 0
M  V30 2782 N 266.058 1.56714 -0.166846 0
M  V30 2783 C 267.304 1.97039 0.479962 0
M  V30 2784 C 267.637 1.05264 1.63197 0
M  V30 2785 O 266.912 0.0988833 1.94248 0
M  V30 2786 C 267.195 3.46867 0.967212 0
M  V30 2787 C 267.048 4.49421 -0.18466 0
M  V30 2788 C 268.367 3.9968 1.84238 0
M  V30 2789 H 265.486 0.71641 0.172992 0
M  V30 2790 H 268.128 1.8832 -0.252079 0
M  V30 2791 H 266.278 3.54428 1.59101 0
M  V30 2792 H 267.95 4.53924 -0.821621 0
M  V30 2793 H 266.193 4.25573 -0.840837 0
M  V30 2794 H 266.864 5.51644 0.198317 0
M  V30 2795 H 269.34 3.94723 1.31655 0
M  V30 2796 H 268.216 5.04941 2.15234 0
M  V30 2797 H 268.477 3.43226 2.78654 0
M  V30 2798 N 267.536 -0.106894 1.57237 0
M  V30 2799 C 268.785 -0.811163 1.8467 0
M  V30 2800 C 269.098 -1.80469 0.754342 0
M  V30 2801 O 270.304 -2.55601 0.915439 0
M  V30 2802 C 268.76 -1.49337 3.27454 0
M  V30 2803 C 268.368 -0.540217 4.44731 0
M  V30 2804 C 270.112 -2.18206 3.64124 0
M  V30 2805 C 268.019 -1.22634 5.78545 0
M  V30 2806 H 266.949 -0.306679 0.688813 0
M  V30 2807 H 269.6 -0.0639887 1.83388 0
M  V30 2808 H 267.982 -2.2876 3.23241 0
M  V30 2809 H 269.156 0.221659 4.60267 0
M  V30 2810 H 267.471 0.042146 4.16379 0
M  V30 2811 H 270.068 -2.70253 4.61376 0
M  V30 2812 H 270.411 -2.96562 2.92158 0
M  V30 2813 H 270.944 -1.45658 3.70174 0
M  V30 2814 H 267.683 -0.483832 6.53712 0
M  V30 2815 H 267.203 -1.95993 5.66874 0
M  V30 2816 H 268.882 -1.75615 6.2271 0
M  V30 2817 N 269.014 -1.53014 -0.377408 0
M  V30 2818 C 270.43 -1.42523 -0.718281 0
M  V30 2819 C 270.63 -0.55487 -1.9371 0
M  V30 2820 O 269.686 -0.0327593 -2.52479 0
M  V30 2821 C 270.999 -2.85546 -0.942539 0
M  V30 2822 C 272.547 -2.95101 -1.04329 0
M  V30 2823 C 273.022 -4.3916 -1.3001 0
M  V30 2824 N 274.513 -4.42536 -1.36806 0
M  V30 2825 C 275.248 -5.51097 -1.58364 0
M  V30 2826 N 274.744 -6.69724 -1.77317 0
M  V30 2827 N 276.537 -5.38657 -1.60638 0
M  V30 2828 H 268.688 -2.08116 0.424426 0
M  V30 2829 H 270.951 -0.939352 0.127759 0
M  V30 2830 H 270.657 -3.51499 -0.118929 0
M  V30 2831 H 270.531 -3.28493 -1.85397 0
M  V30 2832 H 272.918 -2.29309 -1.85745 0
M  V30 2833 H 272.999 -2.55566 -0.109505 0
M  V30 2834 H 272.643 -5.05521 -0.490991 0
M  V30 2835 H 272.573 -4.76258 -2.24691 0
M  V30 2836 H 275.064 -3.57039 -1.23821 0
M  V30 2837 H 275.377 -7.48233 -1.93306 0
M  V30 2838 H 273.722 -6.72732 -1.74518 0
M  V30 2839 H 276.913 -4.44948 -1.45391 0
M  V30 2840 H 277.086 -6.2333 -1.77098 0
M  V30 2841 N 270.492 0.636531 -1.44174 0
M  V30 2842 C 271.402 1.77754 -1.53103 0
M  V30 2843 C 272.418 1.68928 -0.417034 0
M  V30 2844 O 273.594 1.89801 -0.6736 0
M  V30 2845 C 270.659 3.14115 -1.46741 0
M  V30 2846 C 269.72 3.34612 -2.68948 0
M  V30 2847 C 268.953 4.64467 -2.6288 0
M  V30 2848 O 269.176 5.44919 -1.68581 0
M  V30 2849 O 268.11 4.87049 -3.53648 0
M  V30 2850 H 271.936 1.73174 -2.49489 0
M  V30 2851 H 269.521 0.79709 -1.2636 0
M  V30 2852 H 271.403 3.95412 -1.45696 0
M  V30 2853 H 270.078 3.19249 -0.534975 0
M  V30 2854 H 268.985 2.53014 -2.75562 0
M  V30 2855 H 270.318 3.34336 -3.61221 0
M  V30 2856 N 271.97 1.30982 0.876444 0
M  V30 2857 C 273.219 1.19658 1.62373 0
M  V30 2858 C 273.532 -0.245636 1.94052 0
M  V30 2859 O 274.738 -0.48049 2.67214 0
M  V30 2860 C 273.194 2.09433 2.92687 0
M  V30 2861 C 272.802 3.58613 2.68516 0
M  V30 2862 C 274.546 2.06893 3.70669 0
M  V30 2863 C 272.453 4.40416 3.94699 0
M  V30 2864 H 271.383 0.444268 0.609214 0
M  V30 2865 H 274.034 1.55791 0.969605 0
M  V30 2866 H 272.416 1.66191 3.59439 0
M  V30 2867 H 273.59 4.10058 2.10212 0
M  V30 2868 H 271.905 3.63063 2.03898 0
M  V30 2869 H 274.502 2.65258 4.64265 0
M  V30 2870 H 274.845 1.05448 4.02724 0
M  V30 2871 H 275.378 2.48301 3.10792 0
M  V30 2872 H 272.117 5.42591 3.67798 0
M  V30 2873 H 271.637 3.93731 4.52477 0
M  V30 2874 H 273.316 4.52294 4.62644 0
M  V30 2875 N 273.449 -1.08991 1.13837 0
M  V30 2876 C 274.397 -2.17841 0.815347 0
M  V30 2877 C 275.391 -1.68164 -0.204233 0
M  V30 2878 O 276.597 -1.79897 -0.0609304 0
M  V30 2879 H 272.972 -0.710654 0.245915 0
M  V30 2880 H 274.943 -2.42315 1.74143 0
M  V30 2881 C 273.692 -3.46381 0.302614 0
M  V30 2882 H 273.015 -3.84979 1.0785 0
M  V30 2883 H 274.455 -4.23844 0.115074 0
M  V30 2884 C 272.914 -3.22556 -0.972591 0
M  V30 2885 O 273.444 -3.45599 -2.04754 0
M  V30 2886 N 271.65 -2.76134 -0.905455 0
M  V30 2887 H 271.197 -2.57582 -0.0305421 0
M  V30 2888 H 271.155 -2.60571 -1.75926 0
M  V30 2889 N 274.927 -0.932562 -1.27047 0
M  V30 2890 C 276.204 -0.49377 -1.89265 0
M  V30 2891 C 276.584 1.02833 -1.8436 0
M  V30 2892 O 275.932 1.88461 -1.29209 0
M  V30 2893 C 276.142 -1.04536 -3.32976 0
M  V30 2894 C 277.49 -1.10879 -4.09867 0
M  V30 2895 O 278.514 -0.995327 -3.42011 0
M  V30 2896 O 277.373 -1.28417 -5.31198 0
M  V30 2897 H 274.467 -0.159596 -0.811454 0
M  V30 2898 H 277.013 -1.02457 -1.3528 0
M  V30 2899 H 275.785 -2.08913 -3.30864 0
M  V30 2900 H 275.408 -0.496494 -3.94488 0
M  V30 2901 N 276.405 1.4127 -0.698611 0
M  V30 2902 C 277.821 1.55241 -0.370462 0
M  V30 2903 C 278.021 1.67351 1.12231 0
M  V30 2904 O 277.077 1.65363 1.90818 0
M  V30 2905 C 278.39 2.78997 -1.12165 0
M  V30 2906 C 279.938 2.92797 -1.1063 0
M  V30 2907 C 280.413 4.19445 -1.8393 0
M  V30 2908 N 281.904 4.26409 -1.80914 0
M  V30 2909 C 282.639 5.23271 -2.34467 0
M  V30 2910 N 282.135 6.26145 -2.96504 0
M  V30 2911 N 283.928 5.15232 -2.24706 0
M  V30 2912 H 276.079 1.31654 -1.66676 0
M  V30 2913 H 278.342 0.635393 -0.703548 0
M  V30 2914 H 278.048 2.76268 -2.17644 0
M  V30 2915 H 277.922 3.70606 -0.702209 0
M  V30 2916 H 280.309 2.95039 -0.0597713 0
M  V30 2917 H 280.39 2.02353 -1.56483 0
M  V30 2918 H 280.034 4.17964 -2.88563 0
M  V30 2919 H 279.964 5.08866 -1.35509 0
M  V30 2920 H 282.455 3.527 -1.35687 0
M  V30 2921 H 282.768 6.96451 -3.34927 0
M  V30 2922 H 281.113 6.26638 -3.00583 0
M  V30 2923 H 284.304 4.33789 -1.7591 0
M  V30 2924 H 284.477 5.90552 -2.66745 0
M  V30 2925 N 277.883 0.443576 1.51229 0
M  V30 2926 C 279.16 -0.181038 1.9476 0
M  V30 2927 C 279.54 -1.59523 1.38259 0
M  V30 2928 O 278.888 -2.2122 0.572198 0
M  V30 2929 C 279.098 -0.152422 3.48667 0
M  V30 2930 C 280.446 -0.354923 4.23114 0
M  V30 2931 O 281.47 -0.230257 3.55455 0
M  V30 2932 O 280.329 -0.603674 5.43156 0
M  V30 2933 H 277.423 -0.1266 0.817252 0
M  V30 2934 H 279.969 0.502004 1.62105 0
M  V30 2935 H 278.741 0.836022 3.82265 0
M  V30 2936 H 278.364 -0.878107 3.87782 0
M  V30 2937 N 279.361 -1.56624 0.175154 0
M  V30 2938 C 280.308 -2.18149 -0.753634 0
M  V30 2939 C 281.278 -1.12265 -1.22417 0
M  V30 2940 O 282.463 -1.40432 -1.29165 0
M  V30 2941 C 279.603 -2.82933 -1.97592 0
M  V30 2942 C 278.716 -4.03289 -1.5486 0
M  V30 2943 C 277.851 -4.55988 -2.72485 0
M  V30 2944 C 276.89 -5.68746 -2.26262 0
M  V30 2945 N 276.027 -6.15938 -3.36994 0
M  V30 2946 H 280.867 -2.9717 -0.222195 0
M  V30 2947 H 278.404 -1.46774 -0.0979422 0
M  V30 2948 H 280.362 -3.18653 -2.69288 0
M  V30 2949 H 278.992 -2.06509 -2.481 0
M  V30 2950 H 278.044 -3.73364 -0.728246 0
M  V30 2951 H 279.356 -4.849 -1.16933 0
M  V30 2952 H 278.51 -4.9391 -3.52332 0
M  V30 2953 H 277.249 -3.73443 -3.13674 0
M  V30 2954 H 276.254 -5.30372 -1.44863 0
M  V30 2955 H 277.479 -6.53095 -1.86127 0
M  V30 2956 H 275.425 -5.36321 -3.77751 0
M  V30 2957 H 275.342 -6.92548 -3.03172 0
M  V30 2958 H 276.61 -6.58511 -4.17114 0
M  V30 2959 N 280.839 0.0985539 -1.57292 0
M  V30 2960 C 281.789 1.1261 -1.9825 0
M  V30 2961 C 282.773 1.35961 -0.860426 0
M  V30 2962 O 283.965 1.36711 -1.12424 0
M  V30 2963 C 281.094 2.44727 -2.40757 0
M  V30 2964 C 280.18 2.24764 -3.59642 0
M  V30 2965 N 280.571 1.74661 -4.74687 0
M  V30 2966 C 278.869 2.55344 -3.65672 0
M  V30 2967 C 279.57 1.68887 -5.56644 0
M  V30 2968 N 278.546 2.13976 -4.99715 0
M  V30 2969 H 282.348 0.731604 -2.84648 0
M  V30 2970 H 279.862 0.306029 -1.59491 0
M  V30 2971 H 281.859 3.19072 -2.68326 0
M  V30 2972 H 280.519 2.84917 -1.55733 0
M  V30 2973 H 281.53 1.43908 -4.97505 0
M  V30 2974 H 278.207 2.99081 -2.91302 0
M  V30 2975 H 279.597 1.3123 -6.5896 0
M  V30 2976 N 282.317 1.53212 0.369288 0
M  V30 2977 C 283.547 1.72868 1.13139 0
M  V30 2978 C 283.955 0.455754 1.83629 0
M  V30 2979 O 283.298 -0.580861 1.74275 0
M  V30 2980 C 283.36 2.83667 2.20847 0
M  V30 2981 C 283.024 4.24142 1.70155 0
M  V30 2982 C 284.021 5.06619 1.16763 0
M  V30 2983 C 281.706 4.70539 1.7578 0
M  V30 2984 C 283.7 6.33581 0.696678 0
M  V30 2985 C 281.387 5.97481 1.28297 0
M  V30 2986 C 282.385 6.78833 0.753307 0
M  V30 2987 O 282.073 8.03393 0.285475 0
M  V30 2988 H 281.805 0.581707 0.344373 0
M  V30 2989 H 284.359 2.00736 0.435243 0
M  V30 2990 H 282.589 2.51265 2.93944 0
M  V30 2991 H 284.278 2.91536 2.82421 0
M  V30 2992 H 285.044 4.71948 1.11758 0
M  V30 2993 H 280.923 4.07293 2.15949 0
M  V30 2994 H 284.467 6.97027 0.282581 0
M  V30 2995 H 280.364 6.31651 1.32994 0
M  V30 2996 H 281.132 8.17497 0.405145 0
M  V30 2997 N 283.795 -0.628877 1.44509 0
M  V30 2998 C 285.025 -1.41349 1.50678 0
M  V30 2999 C 285.433 -1.88745 0.131075 0
M  V30 3000 O 284.776 -1.61592 -0.87371 0
M  V30 3001 C 284.838 -2.66608 2.41165 0
M  V30 3002 C 284.502 -2.40993 3.88293 0
M  V30 3003 C 285.499 -2.0268 4.78766 0
M  V30 3004 C 283.184 -2.54563 4.33016 0
M  V30 3005 C 285.178 -1.78269 6.11963 0
M  V30 3006 C 282.865 -2.29766 5.6626 0
M  V30 3007 C 283.863 -1.91678 6.55552 0
M  V30 3008 O 283.551 -1.67158 7.86329 0
M  V30 3009 H 283.283 -0.439851 0.51333 0
M  V30 3010 H 285.837 -0.776084 1.90174 0
M  V30 3011 H 284.067 -3.32994 1.96601 0
M  V30 3012 H 285.756 -3.28615 2.38259 0
M  V30 3013 H 286.522 -1.91751 4.45485 0
M  V30 3014 H 282.401 -2.83179 3.63773 0
M  V30 3015 H 285.945 -1.48465 6.81619 0
M  V30 3016 H 281.842 -2.40306 5.99102 0
M  V30 3017 H 282.61 -1.81386 7.98149 0
M  V30 3018 N 285.273 -1.31445 -0.869486 0
M  V30 3019 C 286.52 -1.21158 -1.62256 0
M  V30 3020 C 286.848 0.230155 -1.93133 0
M  V30 3021 O 286.103 1.17906 -1.56194 0
M  V30 3022 C 286.402 -2.00145 -2.96102 0
M  V30 3023 C 286.068 -3.4964 -2.84715 0
M  V30 3024 C 284.73 -3.90403 -2.81317 0
M  V30 3025 C 287.082 -4.44769 -2.71716 0
M  V30 3026 C 284.41 -5.24561 -2.62778 0
M  V30 3027 C 286.762 -5.79054 -2.54714 0
M  V30 3028 C 285.426 -6.19037 -2.49699 0
M  V30 3029 H 284.696 -0.443348 -0.593737 0
M  V30 3030 H 287.343 -1.62715 -1.00976 0
M  V30 3031 H 285.648 -1.5127 -3.6142 0
M  V30 3032 H 287.345 -1.89566 -3.53363 0
M  V30 3033 H 283.935 -3.17256 -2.88178 0
M  V30 3034 H 288.119 -4.14208 -2.73397 0
M  V30 3035 H 283.375 -5.54613 -2.57321 0
M  V30 3036 H 287.549 -6.52393 -2.43632 0
M  V30 3037 H 285.176 -7.22935 -2.35093 0
M  V30 3038 N 286.751 1.08385 -1.14413 0
M  V30 3039 C 287.698 2.15311 -0.831265 0
M  V30 3040 C 288.668 1.64751 0.211292 0
M  V30 3041 O 289.853 1.90627 0.0811674 0
M  V30 3042 C 286.993 3.43658 -0.315143 0
M  V30 3043 C 286.106 4.08064 -1.41802 0
M  V30 3044 C 285.241 5.24207 -0.859126 0
M  V30 3045 C 284.28 5.80554 -1.93967 0
M  V30 3046 N 283.417 6.88042 -1.39793 0
M  V30 3047 H 288.257 2.41415 -1.74708 0
M  V30 3048 H 285.794 1.18474 -0.871909 0
M  V30 3049 H 287.752 4.172 0.00230884 0
M  V30 3050 H 286.382 3.17839 0.56378 0
M  V30 3051 H 285.434 3.3228 -1.85187 0
M  V30 3052 H 286.746 4.45962 -2.23427 0
M  V30 3053 H 285.9 6.04689 -0.49359 0
M  V30 3054 H 284.639 4.87699 -0.011932 0
M  V30 3055 H 283.644 4.98725 -2.31415 0
M  V30 3056 H 284.869 6.19121 -2.79046 0
M  V30 3057 H 282.815 6.53493 -0.572919 0
M  V30 3058 H 282.732 7.24767 -2.15054 0
M  V30 3059 H 284 7.72255 -1.0603 0
M  V30 3060 N 288.23 0.939286 1.26551 0
M  V30 3061 C 289.507 0.5038 1.89001 0
M  V30 3062 C 289.887 -1.01854 1.84903 0
M  V30 3063 O 289.235 -1.87773 1.30206 0
M  V30 3064 C 289.445 1.063 3.32417 0
M  V30 3065 C 290.793 1.13051 4.09273 0
M  V30 3066 O 291.817 1.01345 3.41479 0
M  V30 3067 O 290.676 1.31233 5.30509 0
M  V30 3068 H 287.77 0.163897 0.810597 0
M  V30 3069 H 290.316 1.03173 1.34735 0
M  V30 3070 H 289.088 2.10665 3.29752 0
M  V30 3071 H 288.711 0.517408 3.94219 0
M  V30 3072 N 289.708 -1.40897 0.706093 0
M  V30 3073 C 290.938 -2.05075 0.250523 0
M  V30 3074 C 291.346 -1.53275 -1.10921 0
M  V30 3075 O 290.689 -0.680281 -1.7064 0
M  V30 3076 C 290.751 -3.59219 0.142178 0
M  V30 3077 C 290.415 -4.33864 1.43566 0
M  V30 3078 C 291.412 -4.62448 2.37566 0
M  V30 3079 C 289.097 -4.72946 1.69195 0
M  V30 3080 C 291.091 -5.29088 3.5545 0
M  V30 3081 C 288.778 -5.3932 2.87362 0
M  V30 3082 C 289.776 -5.6732 3.80312 0
M  V30 3083 O 289.464 -6.32325 4.96408 0
M  V30 3084 H 289.196 -0.666645 0.112074 0
M  V30 3085 H 291.75 -1.81467 0.962239 0
M  V30 3086 H 289.98 -3.81609 -0.6254 0
M  V30 3087 H 291.669 -4.0495 -0.277584 0
M  V30 3088 H 292.435 -4.32727 2.19027 0
M  V30 3089 H 288.314 -4.50527 0.977042 0
M  V30 3090 H 291.858 -5.50859 4.28018 0
M  V30 3091 H 287.755 -5.68461 3.05814 0
M  V30 3092 H 288.523 -6.50821 4.9636 0
M  V30 3093 N 291.186 -0.45159 -1.50991 0
M  V30 3094 C 292.133 0.352625 -2.2809 0
M  V30 3095 C 293.103 1.0044 -1.32291 0
M  V30 3096 O 294.288 1.02058 -1.6121 0
M  V30 3097 C 291.428 1.43983 -3.13629 0
M  V30 3098 C 290.541 0.804772 -4.24438 0
M  V30 3099 C 289.676 1.86822 -4.97263 0
M  V30 3100 C 288.715 1.21236 -5.99973 0
M  V30 3101 N 287.852 2.2178 -6.66152 0
M  V30 3102 H 292.692 -0.311186 -2.96371 0
M  V30 3103 H 290.229 -0.165308 -1.46168 0
M  V30 3104 H 292.187 2.08161 -3.61559 0
M  V30 3105 H 290.817 2.07307 -2.47434 0
M  V30 3106 H 289.869 0.0509129 -3.80366 0
M  V30 3107 H 291.181 0.286076 -4.97979 0
M  V30 3108 H 290.335 2.58628 -5.48813 0
M  V30 3109 H 289.074 2.42068 -4.23385 0
M  V30 3110 H 288.079 0.479828 -5.47702 0
M  V30 3111 H 289.304 0.667051 -6.75816 0
M  V30 3112 H 287.25 2.76079 -5.95077 0
M  V30 3113 H 287.167 1.74841 -7.35504 0
M  V30 3114 H 288.435 2.93026 -7.22327 0
M  V30 3115 N 292.664 1.56529 -0.183458 0
M  V30 3116 C 293.91 1.97537 0.459036 0
M  V30 3117 C 294.243 1.06989 1.62071 0
M  V30 3118 O 293.518 0.11948 1.94133 0
M  V30 3119 C 293.801 3.47874 0.930368 0
M  V30 3120 C 293.654 4.492 -0.232317 0
M  V30 3121 C 294.973 4.01612 1.79989 0
M  V30 3122 H 292.092 0.718204 0.165383 0
M  V30 3123 H 294.734 1.88042 -0.272038 0
M  V30 3124 H 292.884 3.56095 1.55333 0
M  V30 3125 H 294.556 4.53027 -0.86972 0
M  V30 3126 H 292.799 4.24657 -0.885928 0
M  V30 3127 H 293.47 5.51823 0.139796 0
M  V30 3128 H 295.946 3.96097 1.27461 0
M  V30 3129 H 294.822 5.07195 2.09867 0
M  V30 3130 H 295.083 3.46163 2.74998 0
M  V30 3131 N 294.142 -0.090211 1.57342 0
M  V30 3132 C 295.052 -1.12735 2.05738 0
M  V30 3133 C 296.068 -1.43557 0.983231 0
M  V30 3134 O 297.244 -1.54101 1.29672 0
M  V30 3135 C 294.309 -2.42659 2.47624 0
M  V30 3136 C 293.37 -2.18975 3.69254 0
M  V30 3137 C 292.603 -3.42704 4.09133 0
M  V30 3138 O 292.826 -4.51127 3.49057 0
M  V30 3139 O 291.76 -3.32003 5.02053 0
M  V30 3140 H 295.586 -0.746279 2.94388 0
M  V30 3141 H 293.171 -0.303064 1.46294 0
M  V30 3142 H 295.053 -3.19155 2.7517 0
M  V30 3143 H 293.728 -2.80182 1.62109 0
M  V30 3144 H 292.635 -1.40244 3.46818 0
M  V30 3145 H 293.968 -1.86342 4.55563 0
M  V30 3146 N 295.62 -1.53406 -0.361157 0
M  V30 3147 C 296.845 -1.74024 -1.12829 0
M  V30 3148 C 297.27 -0.470069 -1.82132 0
M  V30 3149 O 296.628 0.57619 -1.719 0
M  V30 3150 C 296.676 -2.90903 -2.13091 0
M  V30 3151 O 295.78 -2.59821 -3.20261 0
M  V30 3152 H 295.121 -0.577804 -0.327168 0
M  V30 3153 H 297.651 -2.00307 -0.41693 0
M  V30 3154 H 297.661 -3.17194 -2.56616 0
M  V30 3155 H 296.336 -3.83034 -1.62042 0
M  V30 3156 H 294.913 -2.44362 -2.81677 0
M  V30 3157 N 297.098 0.621204 -1.44841 0
M  V30 3158 C 298.323 1.41244 -1.51871 0
M  V30 3159 C 298.748 1.87519 -0.147764 0
M  V30 3160 O 298.106 1.59334 0.865 0
M  V30 3161 C 298.154 2.60221 -2.49634 0
M  V30 3162 O 297.258 3.60395 -2.00473 0
M  V30 3163 H 296.599 0.42223 -0.512463 0
M  V30 3164 H 299.129 0.757305 -1.90069 0
M  V30 3165 H 299.139 3.0764 -2.67996 0
M  V30 3166 H 297.814 2.25887 -3.4921 0
M  V30 3167 H 296.391 3.19717 -1.91925 0
M  V30 3168 N 298.576 1.31904 0.862503 0
M  V30 3169 C 299.822 1.22197 1.61851 0
M  V30 3170 C 300.155 -0.217641 1.92977 0
M  V30 3171 O 299.43 -1.15264 1.56666 0
M  V30 3172 C 299.713 2.07378 2.94391 0
M  V30 3173 C 299.566 3.59678 2.70096 0
M  V30 3174 C 300.885 1.92891 3.95577 0
M  V30 3175 H 298.004 0.445255 0.587296 0
M  V30 3176 H 300.646 1.6177 0.99651 0
M  V30 3177 H 298.796 1.73758 3.47477 0
M  V30 3178 H 300.468 4.03472 2.23625 0
M  V30 3179 H 298.711 3.82735 2.04197 0
M  V30 3180 H 299.382 4.14595 3.64438 0
M  V30 3181 H 301.858 2.22327 3.51724 0
M  V30 3182 H 300.734 2.54781 4.86187 0
M  V30 3183 H 300.995 0.894315 4.3296 0
M  V30 3184 O 300.093 -0.999479 1.26857 0
M  V30 3185 H 300.784 -1.62077 1.0607 0
M  V30 END ATOM
M  V30 BEGIN BOND
M  V30 END BOND
M  V30 END CTAB
M  END
$$$$
