drugbank_target|P39126 Isocitrate dehydrogenase [NADP] (DB02159; DB04272; DB04349; DB04530)
 OpenBabel12092119553D

  0  0  0     0  0            999 V3000
M  V30 BEGIN CTAB
M  V30 COUNTS 6537 6600 0 0 0
M  V30 BEGIN ATOM
M  V30 1 H -0.908 1.98254 -0.117106 0
M  V30 2 N 0 1.576 0 0
M  V30 3 C 0.933 2.03868 1.02534 0
M  V30 4 C 1.911 0.928543 1.3348 0
M  V30 5 O 3.095 1.19667 1.45644 0
M  V30 6 C 0.222 2.43627 2.35294 0
M  V30 7 C -0.732 3.65373 2.2001 0
M  V30 8 S 0.101 5.13292 1.52614 0
M  V30 9 C 1.257 5.56322 2.86805 0
M  V30 10 H 1.49 2.90518 0.631377 0
M  V30 11 H -0.977 1.52953 0.210867 0
M  V30 12 H 0.981 2.67203 3.11629 0
M  V30 13 H -0.358 1.57376 2.7183 0
M  V30 14 H -1.165 3.90944 3.18086 0
M  V30 15 H -1.563 3.418 1.51819 0
M  V30 16 H 0.729 5.58782 3.83104 0
M  V30 17 H 1.672 6.56266 2.65933 0
M  V30 18 H 2.08 4.83886 2.90714 0
M  V30 19 N 1.4781 -0.272755 1.55222 0
M  V30 20 C 2.4411 -1.32041 1.87344 0
M  V30 21 C 3.4411 -1.42342 0.74803 0
M  V30 22 O 4.6311 -1.41488 1.0162 0
M  V30 23 C 1.7631 -2.70173 2.07893 0
M  V30 24 H 2.9561 -1.04789 2.80997 0
M  V30 25 H 0.5091 -0.51083 1.47717 0
M  V30 26 H 1.2441 -3.02605 1.16622 0
M  V30 27 H 1.0291 -2.64082 2.89833 0
M  V30 28 H 2.5191 -3.45869 2.34017 0
M  V30 29 N 2.9562 -1.48159 -0.537278 0
M  V30 30 C 3.8882 -1.58218 -1.65831 0
M  V30 31 C 4.9012 -0.466948 -1.5596 0
M  V30 32 O 6.0902 -0.73747 -1.62553 0
M  V30 33 C 3.1902 -1.48906 -3.04434 0
M  V30 34 C 2.3632 -2.75343 -3.3986 0
M  V30 35 C 1.4222 -2.59588 -4.57712 0
M  V30 36 O 0.4482 -3.33457 -4.61297 0
M  V30 37 N 1.6502 -1.68724 -5.55439 0
M  V30 38 H 4.4152 -2.54891 -1.57641 0
M  V30 39 H 1.9762 -1.4479 -0.724386 0
M  V30 40 H 3.9682 -1.36072 -3.81139 0
M  V30 41 H 2.5382 -0.602368 -3.06741 0
M  V30 42 H 1.7582 -3.02795 -2.52406 0
M  V30 43 H 3.0462 -3.5924 -3.60311 0
M  V30 44 H 2.4442 -1.07898 -5.55315 0
M  V30 45 H 1.0012 -1.61832 -6.3139 0
M  V30 46 N 4.4343 0.785586 -1.36625 0
M  V30 47 C 5.6823 1.54057 -1.30808 0
M  V30 48 C 6.0033 1.94683 0.111157 0
M  V30 49 O 5.2733 1.65241 1.05224 0
M  V30 50 H 3.8533 0.571354 -0.481211 0
M  V30 51 H 6.5153 0.935821 -1.70963 0
M  V30 52 H 5.6113 2.44637 -1.93801 0
M  V30 53 N 5.9124 1.20967 1.01018 0
M  V30 54 C 6.8224 0.980157 2.13143 0
M  V30 55 C 7.8384 -0.0660665 1.73875 0
M  V30 56 O 9.0144 0.122821 2.01025 0
M  V30 57 C 6.0794 0.54216 3.42435 0
M  V30 58 C 5.1404 1.65999 3.95908 0
M  V30 59 C 4.3734 1.2428 5.19028 0
M  V30 60 O 4.5964 0.114196 5.70286 0
M  V30 61 O 3.5304 2.05271 5.65816 0
M  V30 62 H 7.3564 1.91913 2.35379 0
M  V30 63 H 4.9414 0.994099 1.11526 0
M  V30 64 H 6.8234 0.30744 4.20277 0
M  V30 65 H 5.4984 -0.36815 3.216 0
M  V30 66 H 4.4054 1.94906 3.19316 0
M  V30 67 H 5.7384 2.54753 4.21143 0
M  V30 68 N 7.3905 -1.2043 1.01659 0
M  V30 69 C 8.3375 -2.23215 0.586822 0
M  V30 70 C 9.3075 -1.61382 -0.393085 0
M  V30 71 O 10.4925 -1.88544 -0.292525 0
M  V30 72 C 7.6325 -3.45032 -0.0687464 0
M  V30 73 C 6.7455 -4.21296 0.955724 0
M  V30 74 C 5.8805 -5.30507 0.271208 0
M  V30 75 C 4.9195 -5.98515 1.28244 0
M  V30 76 N 4.0565 -6.99316 0.62459 0
M  V30 77 H 8.8965 -2.59336 1.46796 0
M  V30 78 H 6.4335 -1.27431 0.734836 0
M  V30 79 H 8.3915 -4.1459 -0.465965 0
M  V30 80 H 7.0215 -3.09604 -0.913529 0
M  V30 81 H 6.0735 -3.50803 1.4711 0
M  V30 82 H 7.3855 -4.6803 1.72479 0
M  V30 83 H 6.5395 -6.06428 -0.18151 0
M  V30 84 H 5.2785 -4.8481 -0.530163 0
M  V30 85 H 4.2835 -5.21355 1.74554 0
M  V30 86 H 5.5085 -6.46298 2.08509 0
M  V30 87 H 3.4545 -6.55812 -0.156914 0
M  V30 88 H 3.3715 -7.44178 1.33172 0
M  V30 89 H 4.6395 -7.79255 0.195462 0
M  V30 90 N 8.8686 -0.792821 -1.36206 0
M  V30 91 C 10.1176 -0.363353 -1.984 0
M  V30 92 C 10.4306 1.07172 -1.63626 0
M  V30 93 O 11.6366 1.60362 -2.19081 0
M  V30 94 C 10.0926 -0.59872 -3.54885 0
M  V30 95 C 9.7006 -2.04543 -3.9858 0
M  V30 96 C 11.4446 -0.233926 -4.23855 0
M  V30 97 C 9.3516 -2.22727 -5.47856 0
M  V30 98 H 8.2816 -0.13212 -0.742334 0
M  V30 99 H 10.9326 -0.974935 -1.55458 0
M  V30 100 H 9.3146 0.0826222 -3.95914 0
M  V30 101 H 10.4886 -2.76345 -3.68741 0
M  V30 102 H 8.8036 -2.36879 -3.42458 0
M  V30 103 H 11.4006 -0.348027 -5.33566 0
M  V30 104 H 11.7436 0.818351 -4.08177 0
M  V30 105 H 12.2766 -0.868639 -3.882 0
M  V30 106 H 9.0156 -3.2635 -5.68486 0
M  V30 107 H 8.5356 -1.55434 -5.7931 0
M  V30 108 H 10.2146 -2.03607 -6.14128 0
M  V30 109 N 10.3467 1.47872 -0.545128 0
M  V30 110 C 11.5747 2.06889 -0.021084 0
M  V30 111 C 11.9897 1.39955 1.2672 0
M  V30 112 O 11.3467 0.492036 1.75742 0
M  V30 113 C 11.3977 3.60996 0.190817 0
M  V30 114 O 11.1187 4.25419 -1.04644 0
M  V30 115 C 12.6197 4.36849 0.753521 0
M  V30 116 H 9.8397 0.669785 -0.0403635 0
M  V30 117 H 12.3837 1.90049 -0.755095 0
M  V30 118 H 10.5387 3.77391 0.87492 0
M  V30 119 H 10.9527 5.17785 -0.836611 0
M  V30 120 H 12.4267 5.45399 0.851139 0
M  V30 121 H 12.9037 4.02306 1.762 0
M  V30 122 H 13.5097 4.25169 0.105503 0
M  V30 123 N 11.8248 0.280983 1.55075 0
M  V30 124 C 13.0708 -0.33461 2.00021 0
M  V30 125 C 13.4038 -1.55063 1.16915 0
M  V30 126 O 12.6788 -1.93006 0.240646 0
M  V30 127 C 12.9618 -0.711007 3.53011 0
M  V30 128 C 12.8148 0.512766 4.46868 0
M  V30 129 C 14.1338 -1.54522 4.12081 0
M  V30 130 H 11.2528 -0.120147 0.727141 0
M  V30 131 H 13.8948 0.389097 1.85973 0
M  V30 132 H 12.0448 -1.32761 3.65112 0
M  V30 133 H 13.7168 1.15131 4.46702 0
M  V30 134 H 11.9598 1.14975 4.18286 0
M  V30 135 H 12.6308 0.205556 5.51617 0
M  V30 136 H 15.1068 -1.02442 4.03293 0
M  V30 137 H 13.9828 -1.77739 5.19327 0
M  V30 138 H 14.2438 -2.52813 3.62682 0
M  V30 139 N 13.3029 -1.57598 0.00835791 0
M  V30 140 C 14.5279 -1.95617 -0.689103 0
M  V30 141 C 14.9529 -0.883753 -1.66046 0
M  V30 142 O 14.3109 0.157352 -1.80616 0
M  V30 143 C 14.3589 -3.32736 -1.38994 0
M  V30 144 O 13.4629 -3.27631 -2.50463 0
M  V30 145 H 12.8039 -0.638379 -0.182668 0
M  V30 146 H 15.3339 -2.045 0.064036 0
M  V30 147 H 15.3439 -3.68494 -1.75147 0
M  V30 148 H 14.0189 -4.1034 -0.677778 0
M  V30 149 H 12.5959 -3.03561 -2.16576 0
M  V30 150 N 14.781 0.264519 -1.55364 0
M  V30 151 C 15.729 1.34702 -1.89626 0
M  V30 152 C 16.723 1.50712 -0.773459 0
M  V30 153 O 17.929 1.52395 -0.957897 0
M  V30 154 H 14.304 0.450682 -0.601988 0
M  V30 155 H 16.275 1.0306 -2.80038 0
M  V30 156 C 15.024 2.6989 -2.19214 0
M  V30 157 H 14.347 2.58365 -3.05103 0
M  V30 158 H 15.787 3.44553 -2.47102 0
M  V30 159 C 14.246 3.21637 -1.00254 0
M  V30 160 O 14.776 4.00973 -0.241501 0
M  V30 161 N 12.982 2.7943 -0.797938 0
M  V30 162 H 12.529 2.15026 -1.4185 0
M  V30 163 H 12.487 3.144 -0.00363422 0
M  V30 164 N 16.2591 1.48442 0.529413 0
M  V30 165 C 17.5071 1.56179 1.28267 0
M  V30 166 C 17.8281 0.237721 1.93546 0
M  V30 167 O 17.0981 -0.740779 1.81354 0
M  V30 168 H 15.6781 0.575367 0.476405 0
M  V30 169 H 18.3401 1.84909 0.61602 0
M  V30 170 H 17.4361 2.34312 2.06165 0
M  V30 171 N 17.7372 -0.778329 1.37039 0
M  V30 172 C 18.9832 -1.53892 1.32079 0
M  V30 173 C 19.3162 -1.9396 -0.0965386 0
M  V30 174 O 18.5912 -1.63568 -1.05242 0
M  V30 175 C 18.8742 -2.80847 2.25382 0
M  V30 176 C 18.7272 -2.47076 3.75864 0
M  V30 177 C 20.0462 -3.82741 2.1725 0
M  V30 178 H 17.1652 -0.558303 0.48111 0
M  V30 179 H 19.8072 -0.893397 1.67685 0
M  V30 180 H 17.9572 -3.35931 1.95148 0
M  V30 181 H 19.6292 -1.97957 4.16666 0
M  V30 182 H 17.8722 -1.79863 3.94755 0
M  V30 183 H 18.5432 -3.37798 4.36574 0
M  V30 184 H 21.0192 -3.37133 2.43887 0
M  V30 185 H 19.8952 -4.69303 2.84686 0
M  V30 186 H 20.1562 -4.2652 1.16331 0
M  V30 187 N 19.2153 -1.21501 -1.00376 0
M  V30 188 C 20.1453 -0.999478 -2.11028 0
M  V30 189 C 21.1263 0.0759671 -1.6993 0
M  V30 190 O 22.3113 -0.0841106 -1.94018 0
M  V30 191 C 19.4413 -0.564709 -3.42678 0
M  V30 192 C 18.3953 -1.58486 -3.97576 0
M  V30 193 C 17.7213 -1.00628 -5.25146 0
M  V30 194 C 19.0213 -2.97204 -4.29496 0
M  V30 195 H 20.7153 -1.92495 -2.29317 0
M  V30 196 H 18.2613 -0.92693 -1.102 0
M  V30 197 H 20.2143 -0.401091 -4.19487 0
M  V30 198 H 18.9383 0.396411 -3.24185 0
M  V30 199 H 17.5973 -1.73606 -3.22888 0
M  V30 200 H 17.2453 -0.0368439 -5.02987 0
M  V30 201 H 16.9453 -1.68771 -5.62841 0
M  V30 202 H 18.4693 -0.854015 -6.04598 0
M  V30 203 H 19.8833 -2.8552 -4.97143 0
M  V30 204 H 18.2803 -3.62372 -4.78338 0
M  V30 205 H 19.3503 -3.47956 -3.3772 0
M  V30 206 N 20.6934 1.19889 -1.02296 0
M  V30 207 C 21.6414 2.24938 -0.592081 0
M  V30 208 C 22.6354 1.65257 0.372357 0
M  V30 209 O 23.8414 1.78371 0.241583 0
M  V30 210 H 20.2164 0.731787 -0.173182 0
M  V30 211 H 22.1874 2.58603 -1.48885 0
M  V30 212 C 20.9364 3.47668 0.047351 0
M  V30 213 H 20.2594 3.93875 -0.685772 0
M  V30 214 H 21.6994 4.22852 0.311862 0
M  V30 215 C 20.1584 3.11136 1.29212 0
M  V30 216 O 20.6884 3.2325 2.38479 0
M  V30 217 N 18.8944 2.65625 1.17863 0
M  V30 218 H 18.4414 2.55968 0.289493 0
M  V30 219 H 18.3994 2.41553 2.01245 0
M  V30 220 N 22.1715 0.800033 1.35784 0
M  V30 221 C 23.4175 0.377901 1.99248 0
M  V30 222 C 23.7505 -1.05052 1.63333 0
M  V30 223 O 23.0255 -1.72768 0.893385 0
M  V30 224 C 23.3085 0.553922 3.55814 0
M  V30 225 C 23.1615 2.0268 4.01548 0
M  V30 226 C 24.4805 -0.0244802 4.40093 0
M  V30 227 H 21.5995 0.138782 0.723815 0
M  V30 228 H 24.2415 1.00835 1.61035 0
M  V30 229 H 22.3915 0.0172398 3.88496 0
M  V30 230 H 24.0635 2.62536 3.79305 0
M  V30 231 H 22.3065 2.5256 3.52698 0
M  V30 232 H 22.9775 2.10087 5.10458 0
M  V30 233 H 25.4535 0.433775 4.13833 0
M  V30 234 H 24.3295 0.128637 5.48749 0
M  V30 235 H 24.5905 -1.11758 4.27741 0
M  V30 236 N 23.6496 -1.47581 0.552962 0
M  V30 237 C 25.0606 -1.86324 0.118463 0
M  V30 238 C 25.4116 -1.46006 -1.3106 0
M  V30 239 O 24.5366 -0.861182 -1.98526 0
M  V30 240 C 25.1316 -3.3816 0.20821 0
M  V30 241 C 23.6906 -3.7601 -0.171226 0
M  V30 242 C 22.8376 -2.71634 0.557686 0
M  V30 243 H 25.7886 -1.39159 0.762928 0
M  V30 244 H 25.8096 -3.76141 -0.574278 0
M  V30 245 H 25.3216 -3.67473 1.24841 0
M  V30 246 H 23.4226 -3.52313 -1.21269 0
M  V30 247 H 23.5356 -4.78745 0.184379 0
M  V30 248 H 21.8996 -2.547 0.00125792 0
M  V30 249 H 22.6826 -3.0379 1.59896 0
M  V30 250 N 25.1277 -0.289203 -1.54924 0
M  V30 251 C 26.0757 0.607966 -2.24514 0
M  V30 252 C 27.0697 1.14655 -1.24702 0
M  V30 253 O 28.2757 1.09856 -1.4259 0
M  V30 254 H 24.6507 0.21464 -0.720718 0
M  V30 255 H 26.6217 -0.00164182 -2.984 0
M  V30 256 C 25.3707 1.77406 -2.99036 0
M  V30 257 H 24.6937 1.36884 -3.75637 0
M  V30 258 H 26.1337 2.37814 -3.51028 0
M  V30 259 C 24.5927 2.67107 -2.05318 0
M  V30 260 O 25.1227 3.6787 -1.61353 0
M  V30 261 N 23.3287 2.34582 -1.71521 0
M  V30 262 H 22.8757 1.52688 -2.07471 0
M  V30 263 H 22.8337 2.94867 -1.0909 0
M  V30 264 N 26.6058 1.57591 -0.0167156 0
M  V30 265 C 27.5538 2.10604 0.987353 0
M  V30 266 C 28.5478 1.02977 1.34507 0
M  V30 267 O 29.7538 1.21425 1.32875 0
M  V30 268 H 26.1288 0.672695 0.336134 0
M  V30 269 H 28.0998 2.93925 0.514817 0
M  V30 270 C 26.8488 2.6382 2.26483 0
M  V30 271 H 26.1718 3.46278 1.99829 0
M  V30 272 H 27.6118 3.04573 2.94977 0
M  V30 273 C 26.0708 1.55992 2.9861 0
M  V30 274 O 26.6008 0.952521 3.90243 0
M  V30 275 N 24.8068 1.28335 2.60727 0
M  V30 276 H 24.3538 1.77914 1.86291 0
M  V30 277 H 24.3118 0.564115 3.09298 0
M  V30 278 N 28.0839 -0.256276 1.55502 0
M  V30 279 C 29.4949 -0.826068 1.67431 0
M  V30 280 C 29.8459 -1.86396 0.612446 0
M  V30 281 O 28.9709 -2.15031 -0.243025 0
M  V30 282 C 29.5659 -1.50512 3.03532 0
M  V30 283 C 28.1249 -2.02273 3.17431 0
M  V30 284 C 27.2719 -0.870548 2.63281 0
M  V30 285 H 30.2229 -0.0322728 1.58667 0
M  V30 286 H 30.2439 -2.37279 2.97454 0
M  V30 287 H 29.7559 -0.749484 3.80794 0
M  V30 288 H 27.8569 -2.80746 2.44974 0
M  V30 289 H 27.9699 -2.22655 4.24219 0
M  V30 290 H 26.3339 -1.26851 2.20864 0
M  V30 291 H 27.1169 -0.128149 3.43061 0
M  V30 292 N 29.562 -1.4872 -0.521534 0
M  V30 293 C 30.811 -1.56419 -1.27341 0
M  V30 294 C 31.124 -0.246805 -1.94037 0
M  V30 295 O 32.33 -0.202122 -2.70747 0
M  V30 296 C 30.786 -2.75896 -2.31105 0
M  V30 297 C 30.394 -4.14311 -1.70441 0
M  V30 298 C 32.138 -2.92913 -3.07249 0
M  V30 299 C 30.045 -5.25038 -2.72194 0
M  V30 300 H 28.975 -0.582344 -0.478949 0
M  V30 301 H 31.626 -1.75071 -0.549779 0
M  V30 302 H 30.008 -2.50697 -3.06541 0
M  V30 303 H 31.182 -4.49564 -1.01136 0
M  V30 304 H 29.497 -4.02482 -1.06759 0
M  V30 305 H 32.094 -3.72805 -3.83302 0
M  V30 306 H 32.437 -2.02689 -3.63625 0
M  V30 307 H 32.97 -3.18054 -2.38928 0
M  V30 308 H 29.709 -6.17255 -2.20627 0
M  V30 309 H 29.229 -4.94263 -3.39801 0
M  V30 310 H 30.908 -5.53508 -3.35019 0
M  V30 311 N 31.0401 0.771051 -1.3745 0
M  V30 312 C 32.2891 1.52491 -1.3202 0
M  V30 313 C 32.6021 1.9538 0.0927347 0
M  V30 314 O 33.8081 2.70159 0.269503 0
M  V30 315 C 32.2641 2.75366 -2.31736 0
M  V30 316 C 31.8721 2.39573 -3.78562 0
M  V30 317 C 33.6161 3.53307 -2.35318 0
M  V30 318 C 31.5231 3.58954 -4.70007 0
M  V30 319 H 30.4531 0.572506 -0.490666 0
M  V30 320 H 33.1041 0.844474 -1.62914 0
M  V30 321 H 31.4861 3.45303 -1.93861 0
M  V30 322 H 32.6601 1.77415 -4.25277 0
M  V30 323 H 30.9751 1.74805 -3.77932 0
M  V30 324 H 33.5721 4.42039 -3.00842 0
M  V30 325 H 33.9151 3.93217 -1.36698 0
M  V30 326 H 34.4481 2.90367 -2.71904 0
M  V30 327 H 31.1871 3.24125 -5.69757 0
M  V30 328 H 30.7071 4.20214 -4.27996 0
M  V30 329 H 32.3861 4.25758 -4.87175 0
M  V30 330 N 32.5182 1.22032 0.997298 0
M  V30 331 C 33.9292 1.0397 1.55071 0
M  V30 332 C 34.2802 -0.398192 1.92117 0
M  V30 333 O 33.4052 -1.28254 1.74298 0
M  V30 334 C 34.0002 1.88109 2.81781 0
M  V30 335 C 32.5592 1.74357 3.33581 0
M  V30 336 C 31.7062 1.84846 2.06706 0
M  V30 337 H 34.6572 1.35941 0.818883 0
M  V30 338 H 34.6782 1.39589 3.53971 0
M  V30 339 H 34.1902 2.92754 2.54787 0
M  V30 340 H 32.2912 0.72427 3.65493 0
M  V30 341 H 32.4042 2.56772 4.04481 0
M  V30 342 H 30.7682 1.28238 2.20062 0
M  V30 343 H 31.5512 2.91014 1.82114 0
M  V30 344 N 33.9963 -1.19345 1.0293 0
M  V30 345 C 35.2433 -1.89038 0.726008 0
M  V30 346 C 35.5713 -1.79649 -0.745427 0
M  V30 347 O 34.8263 -1.18354 -1.55855 0
M  V30 348 C 35.1253 -3.39292 1.12319 0
M  V30 349 C 34.7913 -3.68885 2.59297 0
M  V30 350 C 33.4533 -3.76671 2.99453 0
M  V30 351 C 35.8053 -3.82178 3.54386 0
M  V30 352 C 33.1333 -3.9522 4.33611 0
M  V30 353 C 35.4853 -4.0224 4.88248 0
M  V30 354 C 34.1493 -4.08259 5.28092 0
M  V30 355 H 33.4193 -0.691739 0.265665 0
M  V30 356 H 36.0663 -1.41328 1.29223 0
M  V30 357 H 34.3713 -3.88903 0.475584 0
M  V30 358 H 36.0683 -3.91536 0.866037 0
M  V30 359 H 32.6583 -3.63433 2.27189 0
M  V30 360 H 36.8423 -3.75505 3.24514 0
M  V30 361 H 32.0983 -3.98119 4.64016 0
M  V30 362 H 36.2723 -4.11468 5.61843 0
M  V30 363 H 33.8993 -4.22384 6.32057 0
M  V30 364 N 35.4744 -0.807222 -1.35358 0
M  V30 365 C 36.7234 -0.384376 -1.98004 0
M  V30 366 C 37.0364 1.0543 -1.64754 0
M  V30 367 O 38.2424 1.58029 -2.20769 0
M  V30 368 C 36.6984 -0.636326 -3.5423 0
M  V30 369 C 36.3064 -2.08759 -3.96388 0
M  V30 370 C 38.0504 -0.278869 -4.23583 0
M  V30 371 C 35.9574 -2.28525 -5.45463 0
M  V30 372 H 34.8874 -0.139986 -0.740891 0
M  V30 373 H 37.5384 -0.991369 -1.54415 0
M  V30 374 H 35.9204 0.0406256 -3.95979 0
M  V30 375 H 37.0944 -2.8024 -3.6579 0
M  V30 376 H 35.4094 -2.40497 -3.39926 0
M  V30 377 H 38.0064 -0.404599 -5.33167 0
M  V30 378 H 38.3494 0.775012 -4.09022 0
M  V30 379 H 38.8824 -0.909764 -3.87257 0
M  V30 380 H 35.6214 -3.32361 -5.64992 0
M  V30 381 H 35.1414 -1.61569 -5.77629 0
M  V30 382 H 36.8204 -2.10109 -6.11934 0
M  V30 383 N 36.9525 1.47285 -0.560781 0
M  V30 384 C 37.8625 2.33846 0.187954 0
M  V30 385 C 38.8785 1.48412 0.908293 0
M  V30 386 O 40.0545 1.81332 0.876388 0
M  V30 387 C 37.1195 3.25178 1.2025 0
M  V30 388 C 36.1805 4.26504 0.489208 0
M  V30 389 C 35.4135 5.13472 1.45542 0
M  V30 390 O 35.6365 5.02959 2.6905 0
M  V30 391 O 34.5705 5.93902 0.977963 0
M  V30 392 H 38.3965 2.99177 -0.522177 0
M  V30 393 H 35.9815 1.45903 -0.321364 0
M  V30 394 H 37.8635 3.81584 1.78805 0
M  V30 395 H 36.5385 2.6247 1.89449 0
M  V30 396 H 35.4455 3.73847 -0.137627 0
M  V30 397 H 36.7785 4.91935 -0.161399 0
M  V30 398 N 38.4306 0.297415 1.54768 0
M  V30 399 C 39.6786 -0.312295 1.99673 0
M  V30 400 C 39.9996 -1.54686 1.18732 0
M  V30 401 O 39.2696 -1.93854 0.282382 0
M  V30 402 H 37.8496 -0.118381 0.73756 0
M  V30 403 H 40.5116 0.407915 1.90583 0
M  V30 404 H 39.6076 -0.586813 3.06534 0
M  V30 405 N 39.9087 -1.5758 0.0250728 0
M  V30 406 C 41.1857 -1.82917 -0.692873 0
M  V30 407 C 41.5657 -0.908137 -1.90568 0
M  V30 408 O 40.9137 0.0372298 -2.2847 0
M  V30 409 C 41.1237 -3.32034 -1.07492 0
M  V30 410 C 42.4717 -3.98406 -1.46826 0
M  V30 411 O 43.4957 -3.36505 -1.16801 0
M  V30 412 O 42.3547 -5.07497 -2.02754 0
M  V30 413 H 39.4487 -0.754079 -0.33955 0
M  V30 414 H 41.9947 -1.69619 0.0524456 0
M  V30 415 H 40.7667 -3.90728 -0.211552 0
M  V30 416 H 40.3897 -3.50424 -1.87854 0
M  V30 417 N 41.3868 0.248026 -1.55636 0
M  V30 418 C 42.6348 0.974295 -1.77065 0
M  V30 419 C 42.9558 1.85897 -0.588849 0
M  V30 420 O 42.2258 1.91868 0.395407 0
M  V30 421 H 40.8058 0.362733 -0.653019 0
M  V30 422 H 43.4678 0.266244 -1.93073 0
M  V30 423 H 42.5638 1.59667 -2.68166 0
M  V30 424 N 42.8649 1.48995 0.513639 0
M  V30 425 C 44.0929 1.61531 1.29288 0
M  V30 426 C 44.5079 0.281801 1.86685 0
M  V30 427 O 43.8649 -0.731111 1.67215 0
M  V30 428 C 43.9159 2.67449 2.43215 0
M  V30 429 O 43.6369 3.95626 1.88179 0
M  V30 430 C 45.1379 2.90575 3.34785 0
M  V30 431 H 42.3579 0.544165 0.392588 0
M  V30 432 H 44.9019 1.9494 0.617956 0
M  V30 433 H 43.0569 2.36853 3.0656 0
M  V30 434 H 43.4709 4.53868 2.62876 0
M  V30 435 H 44.9449 3.68449 4.11035 0
M  V30 436 H 45.4219 2.00011 3.91015 0
M  V30 437 H 46.0279 3.22538 2.77218 0
M  V30 438 N 44.343 -0.763751 1.37857 0
M  V30 439 C 45.591 -1.51957 1.33243 0
M  V30 440 C 45.912 -1.94835 -0.0801709 0
M  V30 441 O 45.182 -1.66894 -1.02582 0
M  V30 442 H 43.762 -0.563626 0.49024 0
M  V30 443 H 46.424 -0.908504 1.7243 0
M  V30 444 H 45.52 -2.41523 1.97669 0
M  V30 445 N 45.8211 -1.22559 -0.990812 0
M  V30 446 C 47.2321 -1.04791 -1.54518 0
M  V30 447 C 47.5831 0.387998 -1.92325 0
M  V30 448 O 46.7081 1.27328 -1.74976 0
M  V30 449 C 47.3031 -1.896 -2.80779 0
M  V30 450 C 45.8621 -1.76124 -3.32652 0
M  V30 451 C 45.0091 -1.8594 -2.05722 0
M  V30 452 H 47.9601 -1.36374 -0.811662 0
M  V30 453 H 47.9811 -1.41464 -3.53225 0
M  V30 454 H 47.4931 -2.94101 -2.53231 0
M  V30 455 H 45.5941 -0.743643 -3.65104 0
M  V30 456 H 45.7071 -2.58913 -4.03114 0
M  V30 457 H 44.0711 -1.29403 -2.19379 0
M  V30 458 H 44.8541 -2.91976 -1.80568 0
M  V30 459 N 47.2992 1.18797 -1.03562 0
M  V30 460 C 48.5762 1.84469 -0.650434 0
M  V30 461 C 48.9562 1.92319 0.870433 0
M  V30 462 O 48.3042 1.44528 1.76986 0
M  V30 463 C 48.5142 3.2306 -1.32036 0
M  V30 464 C 49.8622 3.9915 -1.44792 0
M  V30 465 O 50.8862 3.32481 -1.27806 0
M  V30 466 O 49.7452 5.18587 -1.72423 0
M  V30 467 H 46.8392 0.795251 -0.226946 0
M  V30 468 H 49.3852 1.26231 -1.13419 0
M  V30 469 H 48.1572 3.1222 -2.3587 0
M  V30 470 H 47.7802 3.88949 -0.8249 0
M  V30 471 N 48.7773 0.814389 1.34928 0
M  V30 472 C 50.0263 0.394871 1.97797 0
M  V30 473 C 50.3393 -1.04555 1.65311 0
M  V30 474 O 51.5453 -1.56856 2.21604 0
M  V30 475 C 50.0013 0.655103 3.53888 0
M  V30 476 C 49.6093 2.10858 3.95276 0
M  V30 477 C 51.3533 0.301329 4.23429 0
M  V30 478 C 49.2603 2.31415 5.44244 0
M  V30 479 H 48.1903 0.143913 0.740139 0
M  V30 480 H 50.8413 0.999544 1.53888 0
M  V30 481 H 49.2233 -0.0196253 3.95995 0
M  V30 482 H 50.3973 2.82176 3.64298 0
M  V30 483 H 48.7123 2.42297 3.38646 0
M  V30 484 H 51.3093 0.432869 5.32945 0
M  V30 485 H 51.6523 -0.75331 4.09428 0
M  V30 486 H 52.1853 0.930288 3.86769 0
M  V30 487 H 48.9243 3.35353 5.63222 0
M  V30 488 H 48.4443 1.6463 5.76764 0
M  V30 489 H 50.1233 2.13352 6.10811 0
M  V30 490 N 50.2554 -1.46986 0.568584 0
M  V30 491 C 51.5014 -2.0332 0.0571487 0
M  V30 492 C 51.8564 -1.43384 -1.28291 0
M  V30 493 O 51.1494 -0.584304 -1.82473 0
M  V30 494 C 51.3434 -3.57306 -0.081836 0
M  V30 495 C 51.1724 -4.32174 1.24321 0
M  V30 496 C 49.9424 -4.71633 1.81358 0
M  V30 497 C 52.1404 -4.66598 2.16312 0
M  V30 498 N 50.1224 -5.31191 3.07748 0
M  V30 499 C 51.4934 -5.26578 3.27285 0
M  V30 500 C 53.5484 -4.48527 2.16166 0
M  V30 501 C 52.2514 -5.70395 4.38226 0
M  V30 502 C 54.2774 -4.93351 3.26127 0
M  V30 503 C 53.6394 -5.5339 4.3582 0
M  V30 504 H 49.7384 -0.77943 0.063351 0
M  V30 505 H 52.3224 -1.79323 0.758378 0
M  V30 506 H 50.4934 -3.81046 -0.752207 0
M  V30 507 H 52.2254 -4.00282 -0.59637 0
M  V30 508 H 48.9804 -4.53946 1.35019 0
M  V30 509 H 49.4044 -5.65505 3.72201 0
M  V30 510 H 54.0464 -4.01456 1.32638 0
M  V30 511 H 51.7644 -6.16452 5.22506 0
M  V30 512 H 55.3504 -4.81131 3.27115 0
M  V30 513 H 54.2304 -5.87441 5.19503 0
M  V30 514 N 51.7335 -0.305618 -1.54608 0
M  V30 515 C 52.6815 0.584119 -2.25146 0
M  V30 516 C 53.6755 1.13326 -1.25911 0
M  V30 517 O 54.8815 1.08337 -1.43747 0
M  V30 518 H 51.2565 0.206983 -0.722954 0
M  V30 519 H 53.2275 -0.033291 -2.98381 0
M  V30 520 C 51.9765 1.74225 -3.009 0
M  V30 521 H 51.2995 1.32892 -3.77067 0
M  V30 522 H 52.7395 2.34077 -3.53531 0
M  V30 523 C 51.1985 2.64914 -2.0814 0
M  V30 524 O 51.7285 3.66137 -1.65246 0
M  V30 525 N 49.9345 2.3275 -1.74 0
M  V30 526 H 49.4815 1.50479 -2.09078 0
M  V30 527 H 49.4395 2.93694 -1.12211 0
M  V30 528 N 53.2116 1.57565 -0.0334293 0
M  V30 529 C 54.1746 2.09393 0.932048 0
M  V30 530 C 55.1746 1.00986 1.25134 0
M  V30 531 O 56.3646 1.27129 1.19096 0
M  V30 532 C 53.4966 2.56338 2.2473 0
M  V30 533 H 54.6896 2.95984 0.483085 0
M  V30 534 H 52.2426 1.54819 0.21468 0
M  V30 535 H 52.9776 1.7309 2.74245 0
M  V30 536 H 52.7626 3.35542 2.02865 0
M  V30 537 H 54.2526 2.96646 2.93923 0
M  V30 538 N 54.6897 -0.239769 1.55765 0
M  V30 539 C 55.6527 -1.28038 1.90103 0
M  V30 540 C 56.6527 -1.40723 0.778055 0
M  V30 541 O 57.8427 -1.39301 1.04599 0
M  V30 542 C 54.9747 -2.65702 2.13577 0
M  V30 543 H 56.1677 -0.988048 2.83157 0
M  V30 544 H 53.7207 -0.479382 1.48767 0
M  V30 545 H 54.4557 -3.00063 1.23015 0
M  V30 546 H 54.2407 -2.57875 2.95369 0
M  V30 547 H 55.7307 -3.40828 2.41301 0
M  V30 548 N 56.1678 -1.49265 -0.50573 0
M  V30 549 C 57.3928 -1.62478 -1.28902 0
M  V30 550 C 57.8178 -0.294332 -1.85783 0
M  V30 551 O 57.1758 0.737412 -1.65626 0
M  V30 552 C 57.2238 -2.69268 -2.39848 0
M  V30 553 O 56.3278 -2.28113 -3.43567 0
M  V30 554 H 55.6688 -0.54399 -0.380751 0
M  V30 555 H 58.1988 -1.95421 -0.605952 0
M  V30 556 H 58.2088 -2.91291 -2.85681 0
M  V30 557 H 56.8838 -3.65846 -1.97812 0
M  V30 558 H 55.4608 -2.16401 -3.03685 0
M  V30 559 N 57.6459 0.756429 -1.3826 0
M  V30 560 C 58.5929 1.87011 -1.35261 0
M  V30 561 C 59.5629 1.64695 -0.215616 0
M  V30 562 O 60.7479 1.864 -0.407399 0
M  V30 563 C 57.8879 3.24275 -1.18068 0
M  V30 564 C 57.0009 3.58442 -2.41129 0
M  V30 565 C 56.1359 4.84994 -2.16689 0
M  V30 566 C 55.1749 5.11939 -3.35537 0
M  V30 567 N 54.3119 6.29685 -3.10549 0
M  V30 568 H 59.1519 1.8891 -2.30472 0
M  V30 569 H 56.6889 0.923373 -1.14509 0
M  V30 570 H 58.6469 4.03479 -1.06116 0
M  V30 571 H 57.2769 3.21711 -0.264973 0
M  V30 572 H 56.3289 2.74103 -2.63764 0
M  V30 573 H 57.6409 3.74283 -3.29717 0
M  V30 574 H 56.7949 5.72135 -2.01857 0
M  V30 575 H 55.5339 4.71286 -1.25462 0
M  V30 576 H 54.5389 4.23268 -3.50891 0
M  V30 577 H 55.7639 5.27546 -4.27635 0
M  V30 578 H 53.7099 6.17306 -2.21967 0
M  V30 579 H 53.6269 6.46014 -3.92686 0
M  V30 580 H 54.8949 7.19722 -2.99367 0
M  V30 581 N 59.124 1.23083 0.984299 0
M  V30 582 C 60.37 1.06214 1.72761 0
M  V30 583 C 60.703 -0.400584 1.90024 0
M  V30 584 O 59.978 -1.29672 1.44967 0
M  V30 585 C 60.261 1.78375 3.12817 0
M  V30 586 C 60.114 3.32296 3.03149 0
M  V30 587 C 61.433 1.54309 4.12161 0
M  V30 588 H 58.552 0.387251 0.627061 0
M  V30 589 H 61.194 1.51536 1.14616 0
M  V30 590 H 59.344 1.39848 3.62457 0
M  V30 591 H 61.016 3.8032 2.61064 0
M  V30 592 H 59.259 3.6153 2.39747 0
M  V30 593 H 59.93 3.77972 4.02295 0
M  V30 594 H 62.406 1.87791 3.71314 0
M  V30 595 H 61.282 2.07281 5.08258 0
M  V30 596 H 61.543 0.477572 4.39513 0
M  V30 597 N 60.6021 -1.18246 1.0419 0
M  V30 598 C 61.5321 -2.24127 0.654914 0
M  V30 599 C 62.5131 -1.66617 -0.342451 0
M  V30 600 O 63.6981 -1.92924 -0.222277 0
M  V30 601 C 60.8281 -3.47295 0.0183757 0
M  V30 602 C 59.7821 -4.17563 0.939414 0
M  V30 603 C 59.1081 -5.34438 0.167286 0
M  V30 604 C 60.4081 -4.70917 2.25908 0
M  V30 605 H 62.1021 -2.56753 1.54007 0
M  V30 606 H 59.6481 -1.23414 0.74195 0
M  V30 607 H 61.6011 -4.20572 -0.264082 0
M  V30 608 H 60.3251 -3.13907 -0.901664 0
M  V30 609 H 58.9841 -3.46186 1.20628 0
M  V30 610 H 58.6321 -4.97298 -0.7552 0
M  V30 611 H 58.3321 -5.82388 0.780901 0
M  V30 612 H 59.8561 -6.10504 -0.108125 0
M  V30 613 H 61.2701 -5.35882 2.03724 0
M  V30 614 H 59.6671 -5.29406 2.82577 0
M  V30 615 H 60.7371 -3.88272 2.9047 0
M  V30 616 N 62.0802 -0.821533 -1.34494 0
M  V30 617 C 62.9902 -0.244355 -2.33324 0
M  V30 618 C 64.0062 0.620527 -1.62559 0
M  V30 619 O 65.1822 0.528754 -1.94335 0
M  V30 620 C 62.2472 0.585368 -3.41723 0
M  V30 621 C 61.3082 -0.301752 -4.28238 0
M  V30 622 C 60.5412 0.488466 -5.3146 0
M  V30 623 O 60.7642 1.72186 -5.4379 0
M  V30 624 O 59.6982 -0.12848 -6.01763 0
M  V30 625 H 63.5242 -1.06231 -2.84515 0
M  V30 626 H 61.1092 -0.583645 -1.37528 0
M  V30 627 H 62.9912 1.05747 -4.07916 0
M  V30 628 H 61.6662 1.38068 -2.92778 0
M  V30 629 H 60.5732 -0.821315 -3.64973 0
M  V30 630 H 61.9062 -1.06138 -4.8062 0
M  V30 631 N 63.5583 1.46682 -0.576371 0
M  V30 632 C 64.5213 2.28707 0.150239 0
M  V30 633 C 65.5213 1.38035 0.824794 0
M  V30 634 O 66.7113 1.60476 0.677719 0
M  V30 635 C 63.8433 3.18248 1.22192 0
M  V30 636 H 65.0363 2.94423 -0.570521 0
M  V30 637 H 62.5893 1.52688 -0.334078 0
M  V30 638 H 63.3243 2.57265 1.97447 0
M  V30 639 H 63.1093 3.85 0.742812 0
M  V30 640 H 64.5993 3.80001 1.73172 0
M  V30 641 N 65.0364 0.313813 1.54444 0
M  V30 642 C 65.9994 -0.54379 2.22656 0
M  V30 643 C 66.9994 -1.05124 1.21678 0
M  V30 644 O 68.1894 -0.945225 1.46325 0
M  V30 645 C 65.3214 -1.75427 2.92298 0
M  V30 646 H 66.5144 0.0523599 2.99854 0
M  V30 647 H 64.0674 0.0647834 1.56166 0
M  V30 648 H 64.8024 -2.38991 2.19211 0
M  V30 649 H 64.5874 -1.39791 3.66334 0
M  V30 650 H 66.0774 -2.36325 3.44297 0
M  V30 651 N 66.5145 -1.57545 0.0417849 0
M  V30 652 C 67.7605 -1.92601 -0.635021 0
M  V30 653 C 68.0935 -0.919627 -1.71045 0
M  V30 654 O 67.3685 0.0557892 -1.9442 0
M  V30 655 C 67.6515 -3.38085 -1.23979 0
M  V30 656 C 67.5045 -4.49467 -0.173057 0
M  V30 657 C 68.8235 -3.83776 -2.15416 0
M  V30 658 H 65.9425 -0.700397 -0.229374 0
M  V30 659 H 68.5845 -1.89728 0.101633 0
M  V30 660 H 66.7345 -3.40664 -1.86762 0
M  V30 661 H 68.4065 -4.59018 0.458312 0
M  V30 662 H 66.6495 -4.30909 0.499996 0
M  V30 663 H 67.3205 -5.48323 -0.636054 0
M  V30 664 H 69.7965 -3.83013 -1.62605 0
M  V30 665 H 68.6725 -4.8624 -2.54679 0
M  V30 666 H 68.9335 -3.19998 -3.05047 0
M  V30 667 N 67.9926 0.231505 -1.5589 0
M  V30 668 C 68.9026 1.308 -1.94752 0
M  V30 669 C 69.9186 1.51826 -0.849989 0
M  V30 670 O 71.0946 1.6515 -1.15271 0
M  V30 671 C 68.1596 2.63968 -2.24771 0
M  V30 672 C 67.2206 2.51331 -3.48039 0
M  V30 673 C 66.4536 3.78148 -3.76616 0
M  V30 674 O 66.6766 4.80722 -3.07022 0
M  V30 675 O 65.6106 3.75857 -4.70123 0
M  V30 676 H 69.4366 1.0083 -2.86474 0
M  V30 677 H 67.0216 0.433547 -1.42971 0
M  V30 678 H 68.9036 3.42633 -2.45318 0
M  V30 679 H 67.5786 2.9364 -1.36225 0
M  V30 680 H 66.4856 1.709 -3.32782 0
M  V30 681 H 67.8186 2.26601 -4.36936 0
M  V30 682 N 69.4707 1.49531 0.497807 0
M  V30 683 C 70.4177 1.66436 1.59899 0
M  V30 684 C 71.3877 0.505793 1.58212 0
M  V30 685 O 72.5727 0.733202 1.7615 0
M  V30 686 C 69.7127 1.7399 2.98029 0
M  V30 687 C 68.8257 3.01172 3.09708 0
M  V30 688 C 67.9607 2.99686 4.38591 0
M  V30 689 C 66.9997 4.21434 4.43914 0
M  V30 690 N 66.1367 4.1784 5.64229 0
M  V30 691 H 70.9767 2.60459 1.44793 0
M  V30 692 H 68.5137 1.29137 0.704423 0
M  V30 693 H 70.4717 1.76352 3.78095 0
M  V30 694 H 69.1017 0.834301 3.11832 0
M  V30 695 H 68.1537 3.08408 2.22685 0
M  V30 696 H 69.4657 3.91165 3.09502 0
M  V30 697 H 68.6197 3.00628 5.2698 0
M  V30 698 H 67.3587 2.07477 4.41367 0
M  V30 699 H 66.3637 4.20733 3.53926 0
M  V30 700 H 67.5887 5.14839 4.42851 0
M  V30 701 H 65.5347 3.28469 5.67841 0
M  V30 702 H 65.4517 5.01571 5.65652 0
M  V30 703 H 66.7197 4.22889 6.54817 0
M  V30 704 N 70.9488 -0.749086 1.3866 0
M  V30 705 C 71.9118 -1.84457 1.36045 0
M  V30 706 C 72.9118 -1.58682 0.260122 0
M  V30 707 O 74.1018 -1.66343 0.517261 0
M  V30 708 C 71.2338 -3.22008 1.11911 0
M  V30 709 H 72.4268 -1.88182 2.33512 0
M  V30 710 H 69.9798 -0.951266 1.24019 0
M  V30 711 H 70.7148 -3.2395 0.150686 0
M  V30 712 H 70.4998 -3.42111 1.91579 0
M  V30 713 H 71.9898 -4.0208 1.12788 0
M  V30 714 N 72.4269 -1.23603 -0.977757 0
M  V30 715 C 73.6569 -1.09487 -1.75203 0
M  V30 716 C 74.0649 0.356321 -1.85814 0
M  V30 717 O 73.4079 1.25816 -1.33851 0
M  V30 718 C 73.4699 -1.64905 -3.19447 0
M  V30 719 C 73.1339 -3.13688 -3.32338 0
M  V30 720 C 74.1309 -4.10953 -3.18455 0
M  V30 721 C 71.8159 -3.53449 -3.56902 0
M  V30 722 C 73.8099 -5.45962 -3.28944 0
M  V30 723 C 71.4969 -4.88602 -3.6703 0
M  V30 724 C 72.4949 -5.84668 -3.53062 0
M  V30 725 O 72.1829 -7.17365 -3.62826 0
M  V30 726 H 71.9149 -0.38367 -0.556573 0
M  V30 727 H 74.4689 -1.6398 -1.23693 0
M  V30 728 H 72.6989 -1.04835 -3.72218 0
M  V30 729 H 74.3879 -1.46226 -3.78646 0
M  V30 730 H 75.1539 -3.81577 -2.99372 0
M  V30 731 H 71.0329 -2.79188 -3.66844 0
M  V30 732 H 74.5769 -6.20925 -3.17958 0
M  V30 733 H 70.4739 -5.17653 -3.85623 0
M  V30 734 H 71.2419 -7.2515 -3.79605 0
M  V30 735 N 73.905 1.17692 -1.04816 0
M  V30 736 C 74.852 2.21581 -0.645797 0
M  V30 737 C 75.822 1.62367 0.350159 0
M  V30 738 O 77.007 1.89254 0.242433 0
M  V30 739 C 74.147 3.45092 -0.0227568 0
M  V30 740 C 73.26 4.18613 -1.06709 0
M  V30 741 C 72.395 5.29602 -0.411767 0
M  V30 742 C 71.434 5.94904 -1.44067 0
M  V30 743 N 70.571 6.97414 -0.809781 0
M  V30 744 H 75.411 2.55353 -1.5362 0
M  V30 745 H 72.948 1.25438 -0.768364 0
M  V30 746 H 74.906 4.15679 0.35588 0
M  V30 747 H 73.536 3.11917 0.831122 0
M  V30 748 H 72.588 3.46779 -1.5636 0
M  V30 749 H 73.9 4.63293 -1.84827 0
M  V30 750 H 73.054 6.06696 0.0206623 0
M  V30 751 H 71.793 4.86045 0.401438 0
M  V30 752 H 70.798 5.16544 -1.88316 0
M  V30 753 H 72.023 6.40542 -2.25571 0
M  V30 754 H 69.969 6.55998 -0.0170186 0
M  V30 755 H 69.886 7.40386 -1.52856 0
M  V30 756 H 71.154 7.78463 -0.401999 0
M  V30 757 N 75.3831 0.828654 1.34056 0
M  V30 758 C 76.6311 0.41863 1.97717 0
M  V30 759 C 76.9521 -1.02314 1.66002 0
M  V30 760 O 76.2221 -1.71119 0.953683 0
M  V30 761 H 74.8021 0.151809 0.731412 0
M  V30 762 H 77.4641 1.05936 1.63596 0
M  V30 763 H 76.5601 0.542318 3.07352 0
M  V30 764 N 76.8612 -1.46375 0.584142 0
M  V30 765 C 77.7712 -2.34115 -0.150728 0
M  V30 766 C 78.7872 -1.49838 -0.884567 0
M  V30 767 O 79.9632 -1.82704 -0.847429 0
M  V30 768 C 77.0282 -3.2705 -1.15062 0
M  V30 769 C 76.0892 -4.27228 -0.421293 0
M  V30 770 C 75.3222 -5.15722 -1.37355 0
M  V30 771 O 75.5452 -5.07176 -2.61014 0
M  V30 772 O 74.4792 -5.95383 -0.883355 0
M  V30 773 H 78.3052 -2.98309 0.569708 0
M  V30 774 H 75.8902 -1.45373 0.344535 0
M  V30 775 H 77.7722 -3.84381 -1.72712 0
M  V30 776 H 76.4472 -2.65451 -1.8525 0
M  V30 777 H 75.3542 -3.7358 0.197085 0
M  V30 778 H 76.6872 -4.91616 0.239641 0
M  V30 779 N 78.3393 -0.321999 -1.54275 0
M  V30 780 C 79.2863 0.544664 -2.24281 0
M  V30 781 C 80.2563 1.1129 -1.23303 0
M  V30 782 O 81.4413 1.15354 -1.51981 0
M  V30 783 C 78.5813 1.70045 -3.00298 0
M  V30 784 C 77.6943 1.16159 -4.1609 0
M  V30 785 C 76.8293 2.28293 -4.79641 0
M  V30 786 C 75.8683 1.71648 -5.8754 0
M  V30 787 N 75.0053 2.77438 -6.44959 0
M  V30 788 H 79.8453 -0.0588907 -2.97942 0
M  V30 789 H 77.3823 -0.0408345 -1.47043 0
M  V30 790 H 79.3403 2.38054 -3.42616 0
M  V30 791 H 77.9703 2.27531 -2.28975 0
M  V30 792 H 77.0223 0.373092 -3.78566 0
M  V30 793 H 78.3343 0.707087 -4.93763 0
M  V30 794 H 77.4883 3.0421 -5.2492 0
M  V30 795 H 76.2273 2.77079 -4.01346 0
M  V30 796 H 75.2323 0.942282 -5.41665 0
M  V30 797 H 76.4573 1.23741 -6.67731 0
M  V30 798 H 74.4033 3.25519 -5.69538 0
M  V30 799 H 74.3203 2.36547 -7.1804 0
M  V30 800 H 75.5883 3.53189 -6.94894 0
M  V30 801 N 79.8174 1.5752 -0.0501392 0
M  V30 802 C 80.7644 2.1147 0.924603 0
M  V30 803 C 81.7344 1.02182 1.30951 0
M  V30 804 O 82.9194 1.29723 1.39916 0
M  V30 805 C 80.0594 2.66337 2.19451 0
M  V30 806 C 79.1724 3.89708 1.86418 0
M  V30 807 C 78.3074 4.32893 3.07859 0
M  V30 808 C 77.3464 5.48967 2.70742 0
M  V30 809 N 76.4834 5.87211 3.84874 0
M  V30 810 H 81.3234 2.94465 0.457639 0
M  V30 811 H 78.8604 1.45531 0.214266 0
M  V30 812 H 80.8184 2.96247 2.93758 0
M  V30 813 H 79.4484 1.86141 2.63726 0
M  V30 814 H 78.5004 3.66396 1.02264 0
M  V30 815 H 79.8124 4.74074 1.55096 0
M  V30 816 H 78.9664 4.6435 3.90466 0
M  V30 817 H 77.7054 3.47336 3.42358 0
M  V30 818 H 76.7104 5.17183 1.86551 0
M  V30 819 H 77.9354 6.3624 2.37436 0
M  V30 820 H 75.8814 5.04607 4.19175 0
M  V30 821 H 75.7984 6.66266 3.57247 0
M  V30 822 H 77.0664 6.23282 4.68123 0
M  V30 823 N 81.2955 -0.223234 1.56011 0
M  V30 824 C 82.5445 -0.945912 1.78144 0
M  V30 825 C 82.8575 -1.85567 0.618396 0
M  V30 826 O 84.0635 -2.61688 0.723318 0
M  V30 827 C 82.5195 -1.73216 3.15475 0
M  V30 828 C 82.1275 -0.868619 4.39499 0
M  V30 829 C 83.8715 -2.44615 3.46935 0
M  V30 830 C 81.7785 -1.65212 5.67855 0
M  V30 831 H 80.7085 -0.356929 0.664167 0
M  V30 832 H 83.3595 -0.199845 1.82409 0
M  V30 833 H 81.7415 -2.52107 3.05382 0
M  V30 834 H 82.9155 -0.120366 4.60643 0
M  V30 835 H 81.2305 -0.26683 4.15544 0
M  V30 836 H 83.8275 -3.03732 4.40058 0
M  V30 837 H 84.1705 -3.17417 2.69355 0
M  V30 838 H 84.7035 -1.72715 3.58349 0
M  V30 839 H 81.4425 -0.967407 6.48322 0
M  V30 840 H 80.9625 -2.37503 5.50774 0
M  V30 841 H 82.6415 -2.21322 6.07968 0
M  V30 842 N 82.7736 -1.49793 -0.48987 0
M  V30 843 C 84.0016 -1.63568 -1.26701 0
M  V30 844 C 84.4166 -0.311465 -1.86213 0
M  V30 845 O 83.7736 0.704416 -1.68357 0
M  V30 846 C 83.8246 -2.71284 -2.38929 0
M  V30 847 O 83.5456 -3.9857 -1.81861 0
M  V30 848 C 85.0466 -2.95864 -3.3012 0
M  V30 849 H 82.2666 -0.550342 -0.383881 0
M  V30 850 H 84.8106 -1.95898 -0.586864 0
M  V30 851 H 82.9656 -2.417 -3.02753 0
M  V30 852 H 83.3796 -4.57993 -2.55622 0
M  V30 853 H 84.8536 -3.74941 -4.05121 0
M  V30 854 H 85.3306 -2.06206 -3.87783 0
M  V30 855 H 85.9366 -3.26907 -2.72051 0
M  V30 856 N 84.2517 0.741722 -1.39055 0
M  V30 857 C 85.4977 1.50234 -1.37118 0
M  V30 858 C 85.8527 1.92368 0.0350439 0
M  V30 859 O 85.1457 1.63422 1.00019 0
M  V30 860 C 85.3397 2.7592 -2.27163 0
M  V30 861 C 85.1687 2.46074 -3.76401 0
M  V30 862 C 83.9387 2.38704 -4.45364 0
M  V30 863 C 86.1367 2.12062 -4.68545 0
M  V30 864 N 84.1187 2.01258 -5.79973 0
M  V30 865 C 85.4897 1.85005 -5.91754 0
M  V30 866 C 87.5447 1.98473 -4.56632 0
M  V30 867 C 86.2477 1.4573 -7.04383 0
M  V30 868 C 88.2737 1.60599 -5.69176 0
M  V30 869 C 87.6357 1.34423 -6.91455 0
M  V30 870 H 83.7347 0.548858 -0.557027 0
M  V30 871 H 86.3187 0.862642 -1.74547 0
M  V30 872 H 84.4897 3.3768 -1.91904 0
M  V30 873 H 86.2217 3.42068 -2.16267 0
M  V30 874 H 82.9767 2.55574 -3.98721 0
M  V30 875 H 83.4007 1.85147 -6.51191 0
M  V30 876 H 88.0427 2.17381 -3.62637 0
M  V30 877 H 85.7607 1.25562 -7.98286 0
M  V30 878 H 89.3467 1.507 -5.61944 0
M  V30 879 H 88.2267 1.05555 -7.77064 0
M  V30 880 N 85.7298 1.2412 0.971189 0
M  V30 881 C 86.6768 1.0305 2.06517 0
M  V30 882 C 87.6468 -0.0550666 1.66009 0
M  V30 883 O 88.8318 0.0988688 1.90544 0
M  V30 884 C 85.9718 0.637653 3.39158 0
M  V30 885 C 85.0848 1.79633 3.92882 0
M  V30 886 C 84.2198 1.34939 5.13775 0
M  V30 887 C 83.2588 2.47823 5.59687 0
M  V30 888 N 82.3958 2.04022 6.71803 0
M  V30 889 H 87.2358 1.96685 2.23873 0
M  V30 890 H 84.7728 0.979694 1.09729 0
M  V30 891 H 86.7308 0.390931 4.15364 0
M  V30 892 H 85.3608 -0.261693 3.21737 0
M  V30 893 H 84.4128 2.15681 3.13346 0
M  V30 894 H 85.7248 2.64466 4.22918 0
M  V30 895 H 84.8788 1.06134 5.97345 0
M  V30 896 H 83.6178 0.471557 4.85415 0
M  V30 897 H 82.6228 2.77392 4.74693 0
M  V30 898 H 83.8478 3.36158 5.90063 0
M  V30 899 H 81.7938 1.18632 6.45184 0
M  V30 900 H 81.7108 2.82409 7.01271 0
M  V30 901 H 82.9788 1.78347 7.58823 0
M  V30 902 N 87.2079 -1.17134 1.05439 0
M  V30 903 C 88.1179 -2.24878 0.668365 0
M  V30 904 C 89.1339 -1.71186 -0.311687 0
M  V30 905 O 90.3099 -2.00738 -0.163161 0
M  V30 906 C 87.3749 -3.46662 0.051648 0
M  V30 907 C 86.4359 -4.15429 1.08246 0
M  V30 908 C 85.6689 -5.31399 0.495082 0
M  V30 909 O 85.8919 -5.66153 -0.694743 0
M  V30 910 O 84.8259 -5.89187 1.23056 0
M  V30 911 H 88.6519 -2.60189 1.56637 0
M  V30 912 H 86.2369 -1.24482 0.826104 0
M  V30 913 H 88.1189 -4.20394 -0.290966 0
M  V30 914 H 86.7939 -3.13142 -0.819971 0
M  V30 915 H 85.7009 -3.43704 1.47711 0
M  V30 916 H 87.0339 -4.52982 1.92532 0
M  V30 917 N 88.686 -0.835752 -1.33615 0
M  V30 918 C 89.932 -0.430596 -1.98176 0
M  V30 919 C 90.265 1.00684 -1.66061 0
M  V30 920 O 89.54 1.70339 -0.938877 0
M  V30 921 C 89.823 -0.648065 -3.5422 0
M  V30 922 C 89.676 -2.13255 -3.96033 0
M  V30 923 C 90.995 -0.0922113 -4.40003 0
M  V30 924 H 88.114 -0.157924 -0.719881 0
M  V30 925 H 90.756 -1.05069 -1.58305 0
M  V30 926 H 88.906 -0.120237 -3.88314 0
M  V30 927 H 90.578 -2.725 -3.72211 0
M  V30 928 H 88.821 -2.61823 -3.45878 0
M  V30 929 H 89.492 -2.23547 -5.04708 0
M  V30 930 H 91.968 -0.543343 -4.12537 0
M  V30 931 H 90.844 -0.274083 -5.48215 0
M  V30 932 H 91.105 1.00378 -4.30554 0
M  V30 933 N 90.1641 1.46063 -0.591896 0
M  V30 934 C 91.3941 2.06418 -0.0867676 0
M  V30 935 C 91.8021 1.43975 1.22751 0
M  V30 936 O 91.1451 0.542531 1.75506 0
M  V30 937 C 91.2071 3.59213 0.143725 0
M  V30 938 C 90.8711 4.439 -1.08635 0
M  V30 939 C 91.8681 4.79864 -2.00067 0
M  V30 940 C 89.5531 4.84896 -1.31077 0
M  V30 941 C 91.5471 5.55661 -3.12282 0
M  V30 942 C 89.2341 5.6045 -2.43596 0
M  V30 943 C 90.2321 5.95747 -3.34027 0
M  V30 944 O 89.9201 6.69772 -4.4459 0
M  V30 945 H 89.6521 0.673443 -0.0587447 0
M  V30 946 H 92.2061 1.88539 -0.814994 0
M  V30 947 H 90.4361 3.75433 0.926668 0
M  V30 948 H 92.1251 4.01463 0.5985 0
M  V30 949 H 92.8911 4.48763 -1.83947 0
M  V30 950 H 88.7701 4.56867 -0.61594 0
M  V30 951 H 92.3141 5.8313 -3.82891 0
M  V30 952 H 88.2111 5.90965 -2.59674 0
M  V30 953 H 88.9791 6.88207 -4.43073 0
M  V30 954 N 91.6422 0.330177 1.54103 0
M  V30 955 C 92.6052 -0.520144 2.2322 0
M  V30 956 C 93.6052 -1.03828 1.22786 0
M  V30 957 O 94.7952 -0.929652 1.4732 0
M  V30 958 C 91.9272 -1.72317 2.94142 0
M  V30 959 H 93.1202 0.0841605 2.99782 0
M  V30 960 H 90.6732 0.0813433 1.56088 0
M  V30 961 H 91.4082 -2.36653 2.21734 0
M  V30 962 H 91.1932 -1.35898 3.67796 0
M  V30 963 H 92.6832 -2.3266 3.46784 0
M  V30 964 N 93.1203 -1.57491 0.0584922 0
M  V30 965 C 94.3683 -1.92597 -0.612436 0
M  V30 966 C 94.6893 -0.938162 -1.70949 0
M  V30 967 O 93.9593 0.0158301 -1.95894 0
M  V30 968 H 92.5393 -0.710964 -0.229214 0
M  V30 969 H 95.2013 -1.94571 0.113218 0
M  V30 970 H 94.2973 -2.94038 -1.04633 0
M  V30 971 N 94.5984 0.214957 -1.56127 0
M  V30 972 C 95.5084 1.28727 -1.96129 0
M  V30 973 C 96.5244 1.50916 -0.866044 0
M  V30 974 O 97.7004 1.63918 -1.17016 0
M  V30 975 C 94.7654 2.61569 -2.27558 0
M  V30 976 C 93.8264 2.47625 -3.50685 0
M  V30 977 C 93.0594 3.74132 -3.80606 0
M  V30 978 O 93.2824 4.77438 -3.12104 0
M  V30 979 O 92.2164 3.70849 -4.74083 0
M  V30 980 H 96.0424 0.977855 -2.87527 0
M  V30 981 H 93.6274 0.418358 -1.43423 0
M  V30 982 H 95.5094 3.40012 -2.48938 0
M  V30 983 H 94.1844 2.92178 -1.39332 0
M  V30 984 H 93.0914 1.67361 -3.34576 0
M  V30 985 H 94.4244 2.21954 -4.39315 0
M  V30 986 N 96.0765 1.50051 0.48192 0
M  V30 987 C 97.0235 1.68122 1.58125 0
M  V30 988 C 97.9935 0.522545 1.57666 0
M  V30 989 O 99.1785 0.751844 1.75362 0
M  V30 990 C 96.3185 1.77142 2.96167 0
M  V30 991 C 95.4315 3.0444 3.06497 0
M  V30 992 C 94.5665 3.04321 4.35387 0
M  V30 993 C 93.6055 4.26118 4.3942 0
M  V30 994 N 92.7425 4.238 5.59766 0
M  V30 995 H 97.5825 2.6198 1.42022 0
M  V30 996 H 95.1195 1.29877 0.690687 0
M  V30 997 H 97.0775 1.80352 3.76203 0
M  V30 998 H 95.7075 0.867329 3.1093 0
M  V30 999 H 94.7595 3.10752 2.19402 0
M  V30 1000 H 96.0715 3.94426 3.05336 0
M  V30 1001 H 95.2255 3.062 5.23762 0
M  V30 1002 H 93.9645 2.12147 4.39141 0
M  V30 1003 H 92.9695 4.24463 3.49444 0
M  V30 1004 H 94.1945 5.19507 4.37366 0
M  V30 1005 H 92.1405 3.34474 5.64326 0
M  V30 1006 H 92.0575 5.07542 5.60301 0
M  V30 1007 H 93.3255 4.2981 6.50295 0
M  V30 1008 N 97.5546 -0.734337 1.39446 0
M  V30 1009 C 98.5176 -1.83004 1.37994 0
M  V30 1010 C 99.5176 -1.58397 0.276938 0
M  V30 1011 O 100.708 -1.65785 0.534875 0
M  V30 1012 C 97.8396 -3.20802 1.1532 0
M  V30 1013 H 99.0326 -1.85694 2.35494 0
M  V30 1014 H 96.5856 -0.938059 1.25021 0
M  V30 1015 H 97.3206 -3.23772 0.185036 0
M  V30 1016 H 97.1056 -3.4006 1.95197 0
M  V30 1017 H 98.5956 -4.00862 1.17046 0
M  V30 1018 N 99.0327 -1.24633 -0.964593 0
M  V30 1019 C 100.263 -1.11339 -1.74032 0
M  V30 1020 C 100.671 0.336593 -1.86182 0
M  V30 1021 O 100.014 1.24389 -1.35178 0
M  V30 1022 C 100.076 -1.68284 -3.1768 0
M  V30 1023 C 99.7397 -3.17196 -3.28992 0
M  V30 1024 C 100.737 -4.14308 -3.14078 0
M  V30 1025 C 98.4217 -3.57215 -3.53133 0
M  V30 1026 C 100.416 -5.4942 -3.23135 0
M  V30 1027 C 98.1027 -4.92468 -3.61827 0
M  V30 1028 C 99.1007 -5.8838 -3.46841 0
M  V30 1029 O 98.7887 -7.21173 -3.55197 0
M  V30 1030 H 98.5207 -0.389551 -0.552472 0
M  V30 1031 H 101.075 -1.65282 -1.21946 0
M  V30 1032 H 99.3047 -1.08777 -3.71085 0
M  V30 1033 H 100.994 -1.50234 -3.77074 0
M  V30 1034 H 101.76 -3.84731 -2.95308 0
M  V30 1035 H 97.6387 -2.83063 -3.63863 0
M  V30 1036 H 101.183 -6.24263 -3.11355 0
M  V30 1037 H 97.0797 -5.21714 -3.80111 0
M  V30 1038 H 97.8477 -7.29135 -3.71892 0
M  V30 1039 N 100.511 1.16574 -1.06058 0
M  V30 1040 C 101.459 2.22941 -0.663343 0
M  V30 1041 C 102.453 1.66358 0.319593 0
M  V30 1042 O 103.659 1.7905 0.184713 0
M  V30 1043 H 100.034 0.725907 -0.196376 0
M  V30 1044 H 102.005 2.53736 -1.57037 0
M  V30 1045 C 100.754 3.47642 -0.0632808 0
M  V30 1046 H 100.077 3.91493 -0.810733 0
M  V30 1047 H 101.517 4.2363 0.177177 0
M  V30 1048 C 99.9758 3.1509 1.19248 0
M  V30 1049 O 100.506 3.30673 2.28075 0
M  V30 1050 N 98.7118 2.6924 1.09353 0
M  V30 1051 H 98.2588 2.5676 0.207912 0
M  V30 1052 H 98.2168 2.47833 1.93458 0
M  V30 1053 N 101.989 0.842826 1.3317 0
M  V30 1054 C 102.936 0.276885 2.29133 0
M  V30 1055 C 103.906 -0.609527 1.54512 0
M  V30 1056 O 105.091 -0.546955 1.82792 0
M  V30 1057 C 102.231 -0.538707 3.40869 0
M  V30 1058 C 101.344 0.372169 4.30394 0
M  V30 1059 C 100.479 -0.454908 5.29249 0
M  V30 1060 C 99.5179 0.45411 6.10413 0
M  V30 1061 N 98.6549 -0.335075 7.013 0
M  V30 1062 H 103.495 1.10052 2.76934 0
M  V30 1063 H 101.032 0.554161 1.36262 0
M  V30 1064 H 102.99 -1.02709 4.0436 0
M  V30 1065 H 101.62 -1.32727 2.9425 0
M  V30 1066 H 100.672 0.97888 3.6759 0
M  V30 1067 H 101.984 1.0703 4.87182 0
M  V30 1068 H 101.138 -1.00695 5.98285 0
M  V30 1069 H 99.8769 -1.18646 4.73048 0
M  V30 1070 H 98.8819 1.01813 5.40291 0
M  V30 1071 H 100.107 1.18409 6.68697 0
M  V30 1072 H 98.0529 -1.04994 6.47543 0
M  V30 1073 H 97.9699 0.304262 7.55387 0
M  V30 1074 H 99.2379 -0.869224 7.74638 0
M  V30 1075 N 103.467 -1.45747 0.599634 0
M  V30 1076 C 104.695 -2.06668 0.0978551 0
M  V30 1077 C 105.11 -1.44562 -1.21439 0
M  V30 1078 O 104.467 -0.556923 -1.73795 0
M  V30 1079 C 104.518 -3.61456 -0.0567044 0
M  V30 1080 O 104.239 -4.21242 1.20361 0
M  V30 1081 C 105.74 -4.39345 -0.590869 0
M  V30 1082 H 102.96 -0.667825 0.0651943 0
M  V30 1083 H 105.504 -1.87115 0.82511 0
M  V30 1084 H 103.659 -3.80378 -0.734251 0
M  V30 1085 H 104.073 -5.14323 1.02821 0
M  V30 1086 H 105.547 -5.48182 -0.648131 0
M  V30 1087 H 106.024 -4.08568 -1.61147 0
M  V30 1088 H 106.63 -4.25268 0.0523679 0
M  V30 1089 N 104.945 -0.338344 -1.53925 0
M  V30 1090 C 106.193 0.259245 -2.0043 0
M  V30 1091 C 106.514 1.51484 -1.22791 0
M  V30 1092 O 105.784 1.93037 -0.33368 0
M  V30 1093 H 104.364 0.0987845 -0.740439 0
M  V30 1094 H 107.026 -0.458302 -1.89435 0
M  V30 1095 H 106.122 0.505334 -3.07982 0
M  V30 1096 N 106.423 1.57458 -0.0668435 0
M  V30 1097 C 107.333 2.15937 0.916975 0
M  V30 1098 C 108.349 1.12123 1.33058 0
M  V30 1099 O 109.525 1.44366 1.40429 0
M  V30 1100 C 106.59 2.70547 2.16807 0
M  V30 1101 C 105.651 3.89215 1.81135 0
M  V30 1102 C 104.884 4.41211 3.0028 0
M  V30 1103 O 105.107 3.92225 4.14144 0
M  V30 1104 O 104.041 5.32605 2.80384 0
M  V30 1105 H 107.867 3.00354 0.449561 0
M  V30 1106 H 105.452 1.48584 0.155949 0
M  V30 1107 H 107.334 3.0557 2.90181 0
M  V30 1108 H 106.009 1.89192 2.62656 0
M  V30 1109 H 104.916 3.59054 1.05028 0
M  V30 1110 H 106.249 4.71848 1.40073 0
M  V30 1111 N 107.901 -0.206675 1.56239 0
M  V30 1112 C 109.147 -0.925733 1.81113 0
M  V30 1113 C 109.502 -1.81368 0.642135 0
M  V30 1114 O 108.795 -1.88126 -0.363211 0
M  V30 1115 C 108.989 -1.78675 3.09532 0
M  V30 1116 C 108.818 -0.98365 4.3881 0
M  V30 1117 C 107.588 -0.672661 5.00803 0
M  V30 1118 C 109.786 -0.341847 5.13163 0
M  V30 1119 N 107.768 0.150283 6.13716 0
M  V30 1120 C 109.139 0.343815 6.19046 0
M  V30 1121 C 111.194 -0.256392 4.97239 0
M  V30 1122 C 109.897 1.10678 7.10734 0
M  V30 1123 C 111.923 0.493142 5.8934 0
M  V30 1124 C 111.285 1.16729 6.94661 0
M  V30 1125 H 107.384 -0.318524 0.714189 0
M  V30 1126 H 109.968 -0.195378 1.93717 0
M  V30 1127 H 108.139 -2.4888 2.98183 0
M  V30 1128 H 109.871 -2.44441 3.22538 0
M  V30 1129 H 106.626 -0.994294 4.63045 0
M  V30 1130 H 107.05 0.551026 6.74754 0
M  V30 1131 H 111.692 -0.763249 4.15854 0
M  V30 1132 H 109.41 1.6251 7.91591 0
M  V30 1133 H 112.996 0.560465 5.79094 0
M  V30 1134 H 111.876 1.738 7.64698 0
M  V30 1135 N 109.379 -1.50304 -0.473955 0
M  V30 1136 C 110.309 -1.71886 -1.58042 0
M  V30 1137 C 111.29 -0.567799 -1.60344 0
M  V30 1138 O 112.475 -0.806623 -1.76656 0
M  V30 1139 C 109.605 -1.81036 -2.96384 0
M  V30 1140 C 108.559 -2.962 -3.08949 0
M  V30 1141 C 107.885 -2.9049 -4.48909 0
M  V30 1142 C 109.185 -4.36752 -2.86434 0
M  V30 1143 H 110.879 -2.64527 -1.40234 0
M  V30 1144 H 108.425 -1.27295 -0.673201 0
M  V30 1145 H 110.378 -1.94719 -3.73714 0
M  V30 1146 H 109.102 -0.850147 -3.15341 0
M  V30 1147 H 107.761 -2.82164 -2.3405 0
M  V30 1148 H 107.409 -1.92321 -4.64781 0
M  V30 1149 H 107.109 -3.67802 -4.58253 0
M  V30 1150 H 108.633 -3.06218 -5.28264 0
M  V30 1151 H 110.047 -4.5133 -3.53517 0
M  V30 1152 H 108.444 -5.15493 -3.07225 0
M  V30 1153 H 109.514 -4.49321 -1.82316 0
M  V30 1154 N 110.857 0.726932 -1.39834 0
M  V30 1155 C 112.268 1.30558 -1.3346 0
M  V30 1156 C 112.619 1.962 -0.00273003 0
M  V30 1157 O 111.744 1.96826 0.899371 0
M  V30 1158 C 112.339 2.37404 -2.41713 0
M  V30 1159 C 110.898 2.90921 -2.38835 0
M  V30 1160 C 110.045 1.64578 -2.2318 0
M  V30 1161 H 112.996 0.523862 -1.49804 0
M  V30 1162 H 113.017 3.17984 -2.08966 0
M  V30 1163 H 112.529 1.89599 -3.38635 0
M  V30 1164 H 110.63 3.42985 -1.45575 0
M  V30 1165 H 110.743 3.43487 -3.33997 0
M  V30 1166 H 109.107 1.89219 -1.70494 0
M  V30 1167 H 109.89 1.18814 -3.22084 0
M  V30 1168 N 112.336 1.25143 0.95797 0
M  V30 1169 C 113.299 1.05321 2.03569 0
M  V30 1170 C 114.299 0.007152 1.60798 0
M  V30 1171 O 115.489 0.24903 1.72411 0
M  V30 1172 C 112.621 0.598394 3.35607 0
M  V30 1173 H 113.814 2.00986 2.22586 0
M  V30 1174 H 111.367 1.07502 1.13459 0
M  V30 1175 H 112.102 -0.361014 3.22284 0
M  V30 1176 H 111.887 1.35351 3.67998 0
M  V30 1177 H 113.377 0.48104 4.1482 0
M  V30 1178 N 113.814 -1.1601 1.06675 0
M  V30 1179 C 114.724 -2.24156 0.692179 0
M  V30 1180 C 115.74 -1.71507 -0.293513 0
M  V30 1181 O 116.916 -2.009 -0.141861 0
M  V30 1182 C 113.981 -3.46587 0.0884131 0
M  V30 1183 C 113.042 -4.14257 1.12646 0
M  V30 1184 C 112.275 -5.30844 0.551416 0
M  V30 1185 O 112.498 -5.66858 -0.634656 0
M  V30 1186 O 111.432 -5.87848 1.29298 0
M  V30 1187 H 115.258 -2.58513 1.59388 0
M  V30 1188 H 112.843 -1.23599 0.83926 0
M  V30 1189 H 114.725 -4.20679 -0.246361 0
M  V30 1190 H 113.4 -3.13994 -0.786712 0
M  V30 1191 H 112.307 -3.42118 1.51348 0
M  V30 1192 H 113.64 -4.50914 1.97325 0
M  V30 1193 N 115.292 -0.849877 -1.32721 0
M  V30 1194 C 116.52 -0.464754 -2.01613 0
M  V30 1195 C 116.935 0.937191 -1.63897 0
M  V30 1196 O 116.292 1.61081 -0.857856 0
M  V30 1197 C 116.343 -0.588638 -3.56675 0
M  V30 1198 O 116.064 -1.93535 -3.93034 0
M  V30 1199 C 117.565 -0.2019 -4.4284 0
M  V30 1200 H 114.785 -0.183215 -0.645502 0
M  V30 1201 H 117.329 -1.1455 -1.69407 0
M  V30 1202 H 115.484 0.0443159 -3.87375 0
M  V30 1203 H 115.898 -1.92871 -4.87751 0
M  V30 1204 H 117.372 -0.339599 -5.50954 0
M  V30 1205 H 117.849 0.857224 -4.30753 0
M  V30 1206 H 118.455 -0.809733 -4.17521 0
M  V30 1207 N 116.77 1.45427 -0.607355 0
M  V30 1208 C 117.7 2.3329 0.0989352 0
M  V30 1209 C 118.681 1.46816 0.859007 0
M  V30 1210 O 119.866 1.75588 0.829604 0
M  V30 1211 C 116.996 3.29518 1.09705 0
M  V30 1212 C 115.95 4.25626 0.450206 0
M  V30 1213 C 115.276 5.11542 1.55655 0
M  V30 1214 C 116.576 5.18505 -0.628455 0
M  V30 1215 H 118.27 2.92595 -0.634716 0
M  V30 1216 H 115.816 1.40696 -0.306681 0
M  V30 1217 H 117.769 3.89855 1.59971 0
M  V30 1218 H 116.493 2.68372 1.86129 0
M  V30 1219 H 115.152 3.66586 -0.0315886 0
M  V30 1220 H 114.8 4.46765 2.31107 0
M  V30 1221 H 114.5 5.76647 1.12925 0
M  V30 1222 H 116.024 5.74748 2.06148 0
M  V30 1223 H 117.438 5.72916 -0.209877 0
M  V30 1224 H 115.835 5.92085 -0.977489 0
M  V30 1225 H 116.905 4.60948 -1.50514 0
M  V30 1226 N 118.248 0.346503 1.53744 0
M  V30 1227 C 119.525 -0.304532 1.93215 0
M  V30 1228 C 119.905 -1.67993 1.27834 0
M  V30 1229 O 119.253 -2.24411 0.430352 0
M  V30 1230 C 119.463 -0.373852 3.46992 0
M  V30 1231 C 120.811 -0.62329 4.2 0
M  V30 1232 O 121.835 -0.455847 3.53271 0
M  V30 1233 O 120.694 -0.947879 5.38217 0
M  V30 1234 H 117.788 -0.178318 0.807547 0
M  V30 1235 H 120.334 0.397895 1.64969 0
M  V30 1236 H 119.106 0.591224 3.86808 0
M  V30 1237 H 118.729 -1.12294 3.81413 0
M  V30 1238 N 119.726 -1.57421 0.075193 0
M  V30 1239 C 120.972 -1.93905 -0.594025 0
M  V30 1240 C 121.305 -0.955701 -1.69056 0
M  V30 1241 O 120.58 0.0145373 -1.94495 0
M  V30 1242 C 120.863 -3.40638 -1.1678 0
M  V30 1243 C 120.716 -4.49733 -0.0776792 0
M  V30 1244 C 122.035 -3.88259 -2.07228 0
M  V30 1245 H 119.154 -0.705105 -0.214466 0
M  V30 1246 H 121.796 -1.8947 0.141854 0
M  V30 1247 H 119.946 -3.44549 -1.79494 0
M  V30 1248 H 121.618 -4.57942 0.555573 0
M  V30 1249 H 119.861 -4.29751 0.591286 0
M  V30 1250 H 120.532 -5.49549 -0.519603 0
M  V30 1251 H 123.008 -3.86376 -1.54445 0
M  V30 1252 H 121.884 -4.91533 -2.44308 0
M  V30 1253 H 122.145 -3.26396 -2.98191 0
M  V30 1254 N 121.204 0.198386 -1.56346 0
M  V30 1255 C 122.453 0.917451 -1.79627 0
M  V30 1256 C 122.766 1.8456 -0.64784 0
M  V30 1257 O 123.972 2.60504 -0.764859 0
M  V30 1258 C 122.428 1.68175 -3.18191 0
M  V30 1259 C 122.036 0.798589 -4.40825 0
M  V30 1260 C 123.78 2.39065 -3.50782 0
M  V30 1261 C 121.687 1.56157 -5.70411 0
M  V30 1262 H 120.617 0.346317 -0.669762 0
M  V30 1263 H 123.268 0.170801 -1.82703 0
M  V30 1264 H 121.65 2.47216 -3.09354 0
M  V30 1265 H 122.824 0.0470665 -4.60776 0
M  V30 1266 H 121.139 0.200686 -4.15916 0
M  V30 1267 H 123.736 2.96692 -4.44835 0
M  V30 1268 H 124.079 3.13091 -2.74371 0
M  V30 1269 H 124.612 1.66993 -3.61052 0
M  V30 1270 H 121.351 0.864142 -6.49779 0
M  V30 1271 H 120.871 2.2871 -5.54483 0
M  V30 1272 H 122.55 2.11622 -6.11412 0
M  V30 1273 N 122.682 1.50554 0.465978 0
M  V30 1274 C 124.098 1.38093 0.800154 0
M  V30 1275 C 124.298 0.440988 1.96615 0
M  V30 1276 O 123.354 -0.114499 2.5224 0
M  V30 1277 C 124.667 2.79565 1.10742 0
M  V30 1278 C 126.215 2.88516 1.21357 0
M  V30 1279 C 126.69 4.30833 1.55393 0
M  V30 1280 N 128.181 4.33807 1.62375 0
M  V30 1281 C 128.916 5.40927 1.90225 0
M  V30 1282 N 128.412 6.58247 2.16062 0
M  V30 1283 N 130.205 5.28376 1.9177 0
M  V30 1284 H 122.356 2.10237 -0.302366 0
M  V30 1285 H 124.619 0.945203 -0.0727746 0
M  V30 1286 H 124.325 3.50208 0.323661 0
M  V30 1287 H 124.199 3.17125 2.04234 0
M  V30 1288 H 126.586 2.1809 1.98799 0
M  V30 1289 H 126.667 2.54492 0.258321 0
M  V30 1290 H 126.311 5.01799 0.784889 0
M  V30 1291 H 126.241 4.62347 2.52076 0
M  V30 1292 H 128.732 3.49212 1.44427 0
M  V30 1293 H 129.045 7.3569 2.36601 0
M  V30 1294 H 127.39 6.61413 2.13444 0
M  V30 1295 H 130.581 4.35715 1.71085 0
M  V30 1296 H 130.754 6.11944 2.13139 0
M  V30 1297 N 124.16 -0.719506 1.40217 0
M  V30 1298 C 125.07 -1.86378 1.42479 0
M  V30 1299 C 126.086 -1.71073 0.317834 0
M  V30 1300 O 127.262 -1.93406 0.561794 0
M  V30 1301 C 124.327 -3.22136 1.28178 0
M  V30 1302 C 123.388 -3.49723 2.48982 0
M  V30 1303 C 122.621 -4.79004 2.35353 0
M  V30 1304 O 122.844 -5.53821 1.36524 0
M  V30 1305 O 121.778 -5.06839 3.2465 0
M  V30 1306 H 125.604 -1.87425 2.38968 0
M  V30 1307 H 123.189 -0.869405 1.21498 0
M  V30 1308 H 125.071 -4.03234 1.22395 0
M  V30 1309 H 123.746 -3.21825 0.347934 0
M  V30 1310 H 122.653 -2.6865 2.60342 0
M  V30 1311 H 123.986 -3.54828 3.41113 0
M  V30 1312 N 125.638 -1.25649 -0.95132 0
M  V30 1313 C 126.868 -1.13179 -1.72841 0
M  V30 1314 C 127.276 0.316827 -1.86528 0
M  V30 1315 O 126.619 1.22948 -1.3649 0
M  V30 1316 C 126.681 -1.71644 -3.15878 0
M  V30 1317 C 126.345 -3.20667 -3.25609 0
M  V30 1318 C 127.342 -4.17616 -3.09666 0
M  V30 1319 C 125.027 -3.6094 -3.49324 0
M  V30 1320 C 127.021 -5.52817 -3.17289 0
M  V30 1321 C 124.708 -4.96278 -3.56584 0
M  V30 1322 C 125.706 -5.92025 -3.40581 0
M  V30 1323 O 125.394 -7.24899 -3.47528 0
M  V30 1324 H 125.126 -0.395389 -0.54831 0
M  V30 1325 H 127.68 -1.66566 -1.20187 0
M  V30 1326 H 125.91 -1.12707 -3.69911 0
M  V30 1327 H 127.599 -1.54225 -3.75459 0
M  V30 1328 H 128.365 -3.87842 -2.91211 0
M  V30 1329 H 124.244 -2.86907 -3.6084 0
M  V30 1330 H 127.788 -6.2753 -3.04716 0
M  V30 1331 H 123.685 -5.25716 -3.74556 0
M  V30 1332 H 124.453 -7.33039 -3.64138 0
M  V30 1333 N 127.117 1.15442 -1.07289 0
M  V30 1334 C 128.364 1.86213 -0.795668 0
M  V30 1335 C 128.692 1.82291 0.678238 0
M  V30 1336 O 127.947 1.24057 1.51355 0
M  V30 1337 C 128.246 3.3489 -1.24834 0
M  V30 1338 C 127.912 3.59007 -2.72809 0
M  V30 1339 C 126.574 3.65298 -3.13227 0
M  V30 1340 C 128.926 3.68762 -3.68326 0
M  V30 1341 C 126.254 3.78854 -4.4798 0
M  V30 1342 C 128.606 3.83842 -5.0284 0
M  V30 1343 C 127.27 3.88378 -5.4288 0
M  V30 1344 H 126.54 0.681403 -0.291155 0
M  V30 1345 H 129.187 1.36435 -1.34379 0
M  V30 1346 H 127.492 3.8687 -0.619595 0
M  V30 1347 H 129.189 3.88052 -1.01076 0
M  V30 1348 H 125.779 3.5475 -2.40521 0
M  V30 1349 H 129.963 3.63202 -3.38227 0
M  V30 1350 H 125.219 3.80623 -4.78472 0
M  V30 1351 H 129.393 3.90332 -5.76727 0
M  V30 1352 H 127.02 3.98635 -6.47298 0
M  V30 1353 N 128.595 0.856903 1.32268 0
M  V30 1354 C 129.844 0.457599 1.96441 0
M  V30 1355 C 130.157 -0.992426 1.68553 0
M  V30 1356 O 131.363 -1.49727 2.26482 0
M  V30 1357 C 129.819 0.767358 3.51624 0
M  V30 1358 C 129.427 2.23326 3.88367 0
M  V30 1359 C 131.171 0.435887 4.22256 0
M  V30 1360 C 129.078 2.48613 5.36606 0
M  V30 1361 H 128.008 0.167387 0.735185 0
M  V30 1362 H 130.659 1.048 1.5063 0
M  V30 1363 H 129.041 0.106367 3.95857 0
M  V30 1364 H 130.215 2.93623 3.55137 0
M  V30 1365 H 128.53 2.52948 3.30766 0
M  V30 1366 H 131.127 0.602202 5.31298 0
M  V30 1367 H 131.47 -0.622672 4.11617 0
M  V30 1368 H 132.003 1.05286 3.83614 0
M  V30 1369 H 128.742 3.53101 5.52268 0
M  V30 1370 H 128.262 1.82896 5.71235 0
M  V30 1371 H 129.941 2.32676 6.03714 0
M  V30 1372 N 130.073 -1.45103 0.615059 0
M  V30 1373 C 131.036 -2.29025 -0.0895485 0
M  V30 1374 C 132.036 -1.40174 -0.787906 0
M  V30 1375 O 133.226 -1.62217 -0.634933 0
M  V30 1376 C 130.358 -3.21376 -1.13711 0
M  V30 1377 H 131.551 -2.92807 0.648382 0
M  V30 1378 H 129.104 -1.51749 0.374444 0
M  V30 1379 H 129.839 -2.6241 -1.90556 0
M  V30 1380 H 129.624 -3.86834 -0.640475 0
M  V30 1381 H 131.114 -3.84459 -1.63036 0
M  V30 1382 N 131.551 -0.354651 -1.53558 0
M  V30 1383 C 132.8 0.239504 -2.00273 0
M  V30 1384 C 133.113 1.50759 -1.24623 0
M  V30 1385 O 134.319 2.17968 -1.61871 0
M  V30 1386 C 132.775 0.477341 -3.5672 0
M  V30 1387 C 132.383 -0.775488 -4.41237 0
M  V30 1388 C 134.127 1.02975 -4.11821 0
M  V30 1389 C 132.034 -0.507838 -5.89216 0
M  V30 1390 H 130.964 0.0932743 -0.748208 0
M  V30 1391 H 133.615 -0.471701 -1.77334 0
M  V30 1392 H 131.997 1.24953 -3.7577 0
M  V30 1393 H 133.171 -1.54963 -4.33962 0
M  V30 1394 H 131.486 -1.25033 -3.97185 0
M  V30 1395 H 134.083 1.24513 -5.2 0
M  V30 1396 H 134.426 1.98862 -3.65731 0
M  V30 1397 H 134.959 0.317994 -3.96527 0
M  V30 1398 H 131.698 -1.43674 -6.39561 0
M  V30 1399 H 131.218 0.228011 -5.99366 0
M  V30 1400 H 132.897 -0.129238 -6.46871 0
M  V30 1401 N 133.029 1.57378 -0.0835403 0
M  V30 1402 C 133.976 2.13384 0.879539 0
M  V30 1403 C 134.946 1.04936 1.28754 0
M  V30 1404 O 136.131 1.32662 1.37133 0
M  V30 1405 C 133.271 2.70932 2.13752 0
M  V30 1406 C 132.384 3.93575 1.7811 0
M  V30 1407 C 131.519 4.39326 2.98607 0
M  V30 1408 C 130.558 5.54587 2.59037 0
M  V30 1409 N 129.695 5.95243 3.72331 0
M  V30 1410 H 134.535 2.9537 0.395076 0
M  V30 1411 H 132.072 1.45953 0.183349 0
M  V30 1412 H 134.03 3.02411 2.87408 0
M  V30 1413 H 132.66 1.91693 2.59718 0
M  V30 1414 H 131.712 3.68483 0.94469 0
M  V30 1415 H 133.024 4.77258 1.45005 0
M  V30 1416 H 132.178 4.72528 3.80529 0
M  V30 1417 H 130.917 3.5452 3.34913 0
M  V30 1418 H 129.922 5.21024 1.75539 0
M  V30 1419 H 131.147 6.41133 2.23887 0
M  V30 1420 H 129.093 5.13385 4.08378 0
M  V30 1421 H 129.01 6.73694 3.43034 0
M  V30 1422 H 130.278 6.33072 4.54797 0
M  V30 1423 N 134.507 -0.190092 1.56449 0
M  V30 1424 C 135.755 -0.907908 1.80559 0
M  V30 1425 C 136.076 -1.83583 0.657438 0
M  V30 1426 O 135.346 -1.93203 -0.323924 0
M  V30 1427 H 133.926 -0.338247 0.666032 0
M  V30 1428 H 136.588 -0.194403 1.93928 0
M  V30 1429 H 135.684 -1.49604 2.73907 0
M  V30 1430 N 135.985 -1.50799 -0.457987 0
M  V30 1431 C 137.396 -1.55152 -1.0385 0
M  V30 1432 C 137.747 -0.362719 -1.92818 0
M  V30 1433 O 136.872 0.522915 -2.09987 0
M  V30 1434 C 137.467 -2.81173 -1.89017 0
M  V30 1435 C 136.026 -2.88164 -2.42154 0
M  V30 1436 C 135.173 -2.49591 -1.20829 0
M  V30 1437 H 138.124 -1.56874 -0.240068 0
M  V30 1438 H 138.145 -2.63769 -2.74238 0
M  V30 1439 H 137.657 -3.67677 -1.24238 0
M  V30 1440 H 135.758 -2.06042 -3.10447 0
M  V30 1441 H 135.871 -3.91356 -2.76364 0
M  V30 1442 H 134.235 -2.02322 -1.54719 0
M  V30 1443 H 135.018 -3.38418 -0.576927 0
M  V30 1444 N 137.463 0.71206 -1.40597 0
M  V30 1445 C 138.393 1.83889 -1.43899 0
M  V30 1446 C 139.374 1.67442 -0.299504 0
M  V30 1447 O 140.559 1.87421 -0.508624 0
M  V30 1448 C 137.689 3.21877 -1.30431 0
M  V30 1449 C 136.643 3.53002 -2.42019 0
M  V30 1450 C 135.969 4.90172 -2.13626 0
M  V30 1451 C 137.269 3.53643 -3.84362 0
M  V30 1452 H 138.963 1.81383 -2.38203 0
M  V30 1453 H 136.509 0.871237 -1.14654 0
M  V30 1454 H 138.462 4.00404 -1.31357 0
M  V30 1455 H 137.186 3.24968 -0.326049 0
M  V30 1456 H 135.845 2.76818 -2.40349 0
M  V30 1457 H 135.493 4.89869 -1.14182 0
M  V30 1458 H 135.193 5.11962 -2.88389 0
M  V30 1459 H 136.717 5.71028 -2.1624 0
M  V30 1460 H 138.131 4.22203 -3.87837 0
M  V30 1461 H 136.528 3.86961 -4.58673 0
M  V30 1462 H 137.598 2.52954 -4.13693 0
M  V30 1463 N 138.941 1.26152 0.944643 0
M  V30 1464 C 140.169 1.14259 1.72489 0
M  V30 1465 C 140.584 -0.302555 1.8636 0
M  V30 1466 O 139.941 -1.20741 1.36849 0
M  V30 1467 C 139.992 1.80266 3.13347 0
M  V30 1468 O 139.713 3.19133 3.00143 0
M  V30 1469 C 141.214 1.74283 4.07603 0
M  V30 1470 H 138.434 0.398051 0.540181 0
M  V30 1471 H 140.978 1.66706 1.18446 0
M  V30 1472 H 139.133 1.31766 3.64303 0
M  V30 1473 H 139.547 3.51744 3.89071 0
M  V30 1474 H 141.021 2.25111 5.04013 0
M  V30 1475 H 141.498 0.708631 4.33446 0
M  V30 1476 H 142.104 2.22319 3.62567 0
M  V30 1477 N 140.419 -1.14872 1.07899 0
M  V30 1478 C 141.647 -1.89661 0.82683 0
M  V30 1479 C 142.062 -1.78312 -0.620519 0
M  V30 1480 O 141.419 -1.13888 -1.42604 0
M  V30 1481 C 141.47 -3.39817 1.23316 0
M  V30 1482 O 141.191 -3.50845 2.62372 0
M  V30 1483 C 142.692 -4.31615 1.0111 0
M  V30 1484 H 139.912 -0.60092 0.298557 0
M  V30 1485 H 142.456 -1.4551 1.43691 0
M  V30 1486 H 140.611 -3.8161 0.667286 0
M  V30 1487 H 141.025 -4.44076 2.79101 0
M  V30 1488 H 142.499 -5.35367 1.34486 0
M  V30 1489 H 142.976 -4.39169 -0.0522168 0
M  V30 1490 H 143.582 -3.95572 1.56215 0
M  V30 1491 N 141.898 -0.863906 -1.31812 0
M  V30 1492 C 143.309 -0.52522 -1.7916 0
M  V30 1493 C 143.66 0.957518 -1.71248 0
M  V30 1494 O 142.785 1.74734 -1.27659 0
M  V30 1495 C 143.38 -0.9466 -3.25307 0
M  V30 1496 C 141.939 -0.659668 -3.70574 0
M  V30 1497 C 141.086 -1.14126 -2.52726 0
M  V30 1498 H 144.037 -1.05022 -1.1898 0
M  V30 1499 H 144.058 -0.266766 -3.79564 0
M  V30 1500 H 143.57 -2.02579 -3.31034 0
M  V30 1501 H 141.671 0.408416 -3.70355 0
M  V30 1502 H 141.784 -1.23245 -4.62977 0
M  V30 1503 H 140.148 -0.561216 -2.4844 0
M  V30 1504 H 140.931 -2.22775 -2.61201 0
M  V30 1505 N 143.376 1.44774 -0.622745 0
M  V30 1506 C 144.622 2.0242 -0.124083 0
M  V30 1507 C 144.955 1.4881 1.24777 0
M  V30 1508 O 144.23 0.668799 1.8264 0
M  V30 1509 C 144.513 3.59957 -0.101619 0
M  V30 1510 C 144.366 4.23867 -1.50521 0
M  V30 1511 C 145.685 4.36284 0.578272 0
M  V30 1512 H 142.804 0.735528 -0.0465645 0
M  V30 1513 H 145.446 1.72447 -0.797617 0
M  V30 1514 H 143.596 3.85623 0.471934 0
M  V30 1515 H 145.268 4.09336 -2.12701 0
M  V30 1516 H 143.511 3.81684 -2.06154 0
M  V30 1517 H 144.182 5.32843 -1.4416 0
M  V30 1518 H 146.658 4.16001 0.0906057 0
M  V30 1519 H 145.534 5.46004 0.563149 0
M  V30 1520 H 145.795 4.10271 1.64713 0
M  V30 1521 N 144.854 0.36279 1.53368 0
M  V30 1522 C 146.102 -0.227326 2.00817 0
M  V30 1523 C 146.423 -1.49511 1.25186 0
M  V30 1524 O 145.693 -1.92482 0.364348 0
M  V30 1525 H 144.273 -0.0869923 0.741917 0
M  V30 1526 H 146.935 0.488381 1.88682 0
M  V30 1527 H 146.031 -0.456273 3.08747 0
M  V30 1528 N 146.332 -1.57332 0.0918853 0
M  V30 1529 C 147.58 -1.93853 -0.571446 0
M  V30 1530 C 147.901 -0.974212 -1.6892 0
M  V30 1531 O 147.171 -0.0257254 -1.95883 0
M  V30 1532 H 145.751 -0.715666 -0.214082 0
M  V30 1533 H 148.413 -1.94287 0.154464 0
M  V30 1534 H 147.509 -2.96191 -0.983729 0
M  V30 1535 N 147.81 0.181792 -1.56548 0
M  V30 1536 C 149.058 0.89832 -1.81038 0
M  V30 1537 C 149.379 1.83232 -0.667164 0
M  V30 1538 O 148.649 1.93372 0.313673 0
M  V30 1539 H 147.229 0.33471 -0.667816 0
M  V30 1540 H 149.891 0.184116 -1.94028 0
M  V30 1541 H 148.987 1.4815 -2.74696 0
M  V30 1542 N 149.288 1.51039 0.449983 0
M  V30 1543 C 150.537 1.62317 1.19733 0
M  V30 1544 C 150.85 0.339101 1.92638 0
M  V30 1545 O 152.056 0.331069 2.69474 0
M  V30 1546 C 150.512 2.86608 2.17678 0
M  V30 1547 C 150.12 4.21972 1.50479 0
M  V30 1548 C 151.864 3.07239 2.92924 0
M  V30 1549 C 149.771 5.37426 2.46834 0
M  V30 1550 H 148.701 0.604532 0.450619 0
M  V30 1551 H 151.352 1.77494 0.465625 0
M  V30 1552 H 149.734 2.65037 2.94231 0
M  V30 1553 H 150.908 4.53878 0.795716 0
M  V30 1554 H 149.223 4.07117 0.874344 0
M  V30 1555 H 151.82 3.90668 3.65079 0
M  V30 1556 H 152.163 2.19807 3.5354 0
M  V30 1557 H 152.696 3.29091 2.23481 0
M  V30 1558 H 149.435 6.27079 1.90926 0
M  V30 1559 H 148.955 5.09912 3.15832 0
M  V30 1560 H 150.634 5.68862 3.08228 0
M  V30 1561 N 150.766 -0.704594 1.40972 0
M  V30 1562 C 152.182 -1.01406 1.23244 0
M  V30 1563 C 152.382 -2.01169 0.115399 0
M  V30 1564 O 151.438 -2.47021 -0.523147 0
M  V30 1565 C 152.751 -1.54728 2.57836 0
M  V30 1566 C 154.299 -1.66658 2.64942 0
M  V30 1567 C 154.774 -2.23383 3.9983 0
M  V30 1568 N 156.265 -2.30756 4.01629 0
M  V30 1569 C 157 -2.75655 5.02794 0
M  V30 1570 N 156.496 -3.20225 6.14352 0
M  V30 1571 N 158.289 -2.75138 4.90159 0
M  V30 1572 H 150.44 -0.0435285 2.12355 0
M  V30 1573 H 152.703 -0.0818951 0.944456 0
M  V30 1574 H 152.409 -0.888832 3.40283 0
M  V30 1575 H 152.283 -2.53084 2.79693 0
M  V30 1576 H 154.67 -2.31617 1.8286 0
M  V30 1577 H 154.751 -0.668717 2.46904 0
M  V30 1578 H 154.395 -1.59043 4.82357 0
M  V30 1579 H 154.325 -3.23904 4.15203 0
M  V30 1580 H 156.816 -1.99291 3.21079 0
M  V30 1581 H 157.129 -3.53084 6.87424 0
M  V30 1582 H 155.474 -3.18156 6.17901 0
M  V30 1583 H 158.665 -2.39661 4.02095 0
M  V30 1584 H 158.838 -3.09812 5.6914 0
M  V30 1585 N 152.244 -1.26651 -0.937939 0
M  V30 1586 C 153.469 -1.15279 -1.72411 0
M  V30 1587 C 153.894 0.287866 -1.85884 0
M  V30 1588 O 153.252 1.20855 -1.35143 0
M  V30 1589 C 153.3 -1.83028 -3.10698 0
M  V30 1590 O 152.404 -1.12128 -3.96864 0
M  V30 1591 H 151.745 -0.401504 -0.528858 0
M  V30 1592 H 154.275 -1.67531 -1.1745 0
M  V30 1593 H 154.285 -1.89981 -3.6107 0
M  V30 1594 H 152.96 -2.87833 -3.00208 0
M  V30 1595 H 151.537 -1.13173 -3.55312 0
M  V30 1596 N 153.722 1.14298 -1.08507 0
M  V30 1597 C 154.652 2.21542 -0.737646 0
M  V30 1598 C 155.633 1.67773 0.280377 0
M  V30 1599 O 156.818 1.93616 0.150521 0
M  V30 1600 C 153.948 3.46988 -0.147259 0
M  V30 1601 C 152.902 4.13789 -1.09374 0
M  V30 1602 C 152.228 5.33449 -0.365524 0
M  V30 1603 C 153.528 4.62208 -2.4323 0
M  V30 1604 H 155.222 2.5086 -1.6343 0
M  V30 1605 H 152.768 1.20576 -0.787243 0
M  V30 1606 H 154.721 4.21262 0.107808 0
M  V30 1607 H 153.445 3.17037 0.784538 0
M  V30 1608 H 152.104 3.4147 -1.33393 0
M  V30 1609 H 151.752 4.99759 0.57011 0
M  V30 1610 H 151.452 5.79088 -0.996512 0
M  V30 1611 H 152.976 6.10485 -0.118534 0
M  V30 1612 H 154.39 5.27952 -2.23472 0
M  V30 1613 H 152.787 5.18553 -3.02031 0
M  V30 1614 H 153.857 3.77224 -3.04681 0
M  V30 1615 N 155.201 0.870884 1.31352 0
M  V30 1616 C 156.149 0.316445 2.30437 0
M  V30 1617 C 157.143 -0.568965 1.59559 0
M  V30 1618 O 158.349 -0.454964 1.74155 0
M  V30 1619 H 154.724 0.0836521 0.747333 0
M  V30 1620 H 156.695 1.16606 2.74673 0
M  V30 1621 C 155.444 -0.46635 3.44558 0
M  V30 1622 H 154.767 0.205687 3.99271 0
M  V30 1623 H 156.207 -0.819614 4.16003 0
M  V30 1624 C 154.666 -1.65797 2.9328 0
M  V30 1625 O 155.196 -2.75728 2.92125 0
M  V30 1626 N 153.402 -1.49041 2.4947 0
M  V30 1627 H 152.949 -0.59612 2.50608 0
M  V30 1628 H 152.907 -2.28911 2.15516 0
M  V30 1629 N 156.679 -1.44442 0.630414 0
M  V30 1630 C 157.925 -2.02351 0.134816 0
M  V30 1631 C 158.258 -1.4947 -1.23986 0
M  V30 1632 O 157.533 -0.678475 -1.82283 0
M  V30 1633 C 157.816 -3.59898 0.120707 0
M  V30 1634 C 157.669 -4.23063 1.52767 0
M  V30 1635 C 158.988 -4.36585 -0.555127 0
M  V30 1636 H 156.107 -0.73527 0.0504646 0
M  V30 1637 H 158.749 -1.72022 0.806751 0
M  V30 1638 H 156.899 -3.85868 -0.451477 0
M  V30 1639 H 158.571 -4.08202 2.14869 0
M  V30 1640 H 156.814 -3.80586 2.08175 0
M  V30 1641 H 157.485 -5.32071 1.46984 0
M  V30 1642 H 159.961 -4.16044 -0.0685429 0
M  V30 1643 H 158.837 -5.46294 -0.534185 0
M  V30 1644 H 159.098 -4.11138 -1.62535 0
M  V30 1645 N 158.157 -0.370918 -1.53173 0
M  V30 1646 C 159.12 0.460778 -2.24521 0
M  V30 1647 C 160.12 1.00536 -1.25496 0
M  V30 1648 O 161.31 0.890266 -1.49733 0
M  V30 1649 C 158.442 1.64457 -2.98608 0
M  V30 1650 H 159.635 -0.163613 -2.99453 0
M  V30 1651 H 157.188 -0.122699 -1.55818 0
M  V30 1652 H 157.923 2.30691 -2.2793 0
M  V30 1653 H 157.708 1.26099 -3.7127 0
M  V30 1654 H 159.198 2.23384 -3.5283 0
M  V30 1655 N 159.635 1.57281 -0.100228 0
M  V30 1656 C 160.565 2.17328 0.853857 0
M  V30 1657 C 161.546 1.10804 1.2906 0
M  V30 1658 O 162.731 1.38963 1.35657 0
M  V30 1659 C 159.861 2.75772 2.11109 0
M  V30 1660 C 158.815 3.87713 1.81279 0
M  V30 1661 C 158.141 4.32882 3.13874 0
M  V30 1662 C 159.441 5.10677 1.09574 0
M  V30 1663 H 161.135 2.97305 0.353545 0
M  V30 1664 H 158.681 1.43009 0.168612 0
M  V30 1665 H 160.634 3.16433 2.78296 0
M  V30 1666 H 159.358 1.93057 2.63432 0
M  V30 1667 H 158.017 3.476 1.16489 0
M  V30 1668 H 157.665 3.47051 3.64095 0
M  V30 1669 H 157.365 5.08358 2.94696 0
M  V30 1670 H 158.889 4.7618 3.82211 0
M  V30 1671 H 160.303 5.48474 1.66879 0
M  V30 1672 H 158.7 5.91615 1.00557 0
M  V30 1673 H 159.77 4.84835 0.0793299 0
M  V30 1674 N 161.113 -0.173488 1.56642 0
M  V30 1675 C 162.529 -0.525174 1.50712 0
M  V30 1676 C 162.729 -1.8476 0.804107 0
M  V30 1677 O 161.785 -2.49869 0.363574 0
M  V30 1678 C 163.098 -0.559937 2.95441 0
M  V30 1679 C 164.646 -0.647288 3.06234 0
M  V30 1680 C 165.121 -0.712963 4.52417 0
M  V30 1681 N 166.612 -0.775911 4.56655 0
M  V30 1682 C 167.347 -0.847264 5.67106 0
M  V30 1683 N 166.843 -0.879585 6.87194 0
M  V30 1684 N 168.636 -0.886117 5.55071 0
M  V30 1685 H 160.787 0.693681 2.00753 0
M  V30 1686 H 163.05 0.249841 0.914485 0
M  V30 1687 H 162.756 0.343049 3.50023 0
M  V30 1688 H 162.63 -1.40718 3.49969 0
M  V30 1689 H 165.017 -1.5407 2.51687 0
M  V30 1690 H 165.098 0.226586 2.54794 0
M  V30 1691 H 164.742 0.176183 5.07594 0
M  V30 1692 H 164.672 -1.60295 5.0161 0
M  V30 1693 H 167.163 -0.759304 3.70193 0
M  V30 1694 H 167.476 -0.935144 7.67121 0
M  V30 1695 H 165.821 -0.847898 6.89808 0
M  V30 1696 H 169.012 -0.857853 4.60172 0
M  V30 1697 H 169.185 -0.938263 6.41171 0
M  V30 1698 N 162.591 -1.51276 -0.441967 0
M  V30 1699 C 163.523 -1.68444 -1.55433 0
M  V30 1700 C 164.536 -0.565187 -1.52674 0
M  V30 1701 O 165.725 -0.839356 -1.57534 0
M  V30 1702 C 162.825 -1.67966 -2.94348 0
M  V30 1703 C 161.998 -2.964 -3.21661 0
M  V30 1704 C 161.057 -2.88171 -4.40277 0
M  V30 1705 O 160.083 -3.62119 -4.39157 0
M  V30 1706 N 161.285 -2.03706 -5.43584 0
M  V30 1707 H 164.05 -2.644 -1.41112 0
M  V30 1708 H 161.611 -1.49104 -0.630838 0
M  V30 1709 H 163.603 -1.60035 -3.71713 0
M  V30 1710 H 162.173 -0.796225 -3.0229 0
M  V30 1711 H 161.393 -3.18234 -2.32638 0
M  V30 1712 H 162.681 -3.81427 -3.36736 0
M  V30 1713 H 162.079 -1.42995 -5.47329 0
M  V30 1714 H 160.636 -2.01658 -6.1982 0
M  V30 1715 N 164.069 0.697108 -1.41344 0
M  V30 1716 C 164.979 1.84088 -1.45427 0
M  V30 1717 C 165.995 1.70545 -0.34501 0
M  V30 1718 O 167.171 1.92488 -0.592492 0
M  V30 1719 C 164.236 3.20056 -1.33286 0
M  V30 1720 C 163.297 3.45718 -2.54514 0
M  V30 1721 C 162.53 4.75199 -2.42944 0
M  V30 1722 O 162.753 5.51579 -1.45318 0
M  V30 1723 O 161.687 5.0161 -3.32672 0
M  V30 1724 H 165.513 1.836 -2.41919 0
M  V30 1725 H 163.098 0.849966 -1.22866 0
M  V30 1726 H 164.98 4.01236 -1.28794 0
M  V30 1727 H 163.655 3.2123 -0.39909 0
M  V30 1728 H 162.562 2.64474 -2.64583 0
M  V30 1729 H 163.895 3.49356 -3.46715 0
M  V30 1730 N 165.547 1.27147 0.931209 0
M  V30 1731 C 166.477 1.12081 2.04842 0
M  V30 1732 C 167.458 0.0232364 1.70084 0
M  V30 1733 O 168.643 0.197085 1.93197 0
M  V30 1734 C 165.773 0.76354 3.38803 0
M  V30 1735 C 164.727 1.81396 3.87659 0
M  V30 1736 C 164.053 1.31075 5.18385 0
M  V30 1737 C 165.353 3.21739 4.11438 0
M  V30 1738 H 167.047 2.05537 2.17703 0
M  V30 1739 H 164.593 0.989603 1.04608 0
M  V30 1740 H 166.546 0.644982 4.16435 0
M  V30 1741 H 165.27 -0.206727 3.25945 0
M  V30 1742 H 163.929 1.92136 3.12217 0
M  V30 1743 H 163.577 0.330037 5.01916 0
M  V30 1744 H 163.277 2.013 5.52044 0
M  V30 1745 H 164.801 1.20506 5.98591 0
M  V30 1746 H 166.215 3.14019 4.79651 0
M  V30 1747 H 164.612 3.89644 4.56397 0
M  V30 1748 H 165.682 3.67054 3.16859 0
M  V30 1749 N 167.025 -1.13721 1.09112 0
M  V30 1750 C 168.302 -1.81155 0.737706 0
M  V30 1751 C 168.682 -1.96253 -0.777683 0
M  V30 1752 O 168.03 -1.52807 -1.69889 0
M  V30 1753 C 168.24 -3.16392 1.47299 0
M  V30 1754 C 169.588 -3.91787 1.63671 0
M  V30 1755 O 170.612 -3.26005 1.43524 0
M  V30 1756 O 169.471 -5.0977 1.96969 0
M  V30 1757 H 166.565 -0.783518 0.26463 0
M  V30 1758 H 169.111 -1.20676 1.19312 0
M  V30 1759 H 167.883 -3.0061 2.50498 0
M  V30 1760 H 167.506 -3.8457 1.00953 0
M  V30 1761 N 168.503 -0.877838 -1.30888 0
M  V30 1762 C 169.433 -0.35534 -2.3078 0
M  V30 1763 C 170.414 0.557994 -1.60687 0
M  V30 1764 O 171.599 0.473355 -1.88343 0
M  V30 1765 C 168.729 0.437221 -3.44537 0
M  V30 1766 C 167.683 -0.383715 -4.26276 0
M  V30 1767 C 167.009 0.535014 -5.32017 0
M  V30 1768 C 168.309 -1.62201 -4.96476 0
M  V30 1769 H 170.003 -1.19007 -2.74732 0
M  V30 1770 H 167.549 -0.573698 -1.32078 0
M  V30 1771 H 169.502 0.813334 -4.13477 0
M  V30 1772 H 168.226 1.30553 -2.99372 0
M  V30 1773 H 166.885 -0.741874 -3.59015 0
M  V30 1774 H 166.533 1.40083 -4.831 0
M  V30 1775 H 166.233 -0.0104211 -5.87599 0
M  V30 1776 H 167.757 0.907799 -6.03814 0
M  V30 1777 H 169.171 -1.31689 -5.5797 0
M  V30 1778 H 167.568 -2.10711 -5.61891 0
M  V30 1779 H 168.638 -2.37044 -4.23011 0
M  V30 1780 N 169.982 1.44106 -0.638065 0
M  V30 1781 C 171.229 2.01978 -0.14533 0
M  V30 1782 C 171.557 1.50234 1.23532 0
M  V30 1783 O 170.812 0.679548 1.83523 0
M  V30 1784 C 171.111 3.5729 -0.0887327 0
M  V30 1785 C 170.777 4.28317 -1.40909 0
M  V30 1786 C 169.439 4.47437 -1.77069 0
M  V30 1787 C 171.791 4.6867 -2.28031 0
M  V30 1788 C 169.119 5.04171 -3.00047 0
M  V30 1789 C 171.471 5.26766 -3.50286 0
M  V30 1790 C 170.135 5.44104 -3.86661 0
M  V30 1791 H 169.405 0.739089 -0.0531801 0
M  V30 1792 H 172.052 1.72781 -0.825761 0
M  V30 1793 H 170.357 3.8594 0.675095 0
M  V30 1794 H 172.054 3.99807 0.309145 0
M  V30 1795 H 168.644 4.1377 -1.1177 0
M  V30 1796 H 172.828 4.53604 -2.01388 0
M  V30 1797 H 168.084 5.15782 -3.28298 0
M  V30 1798 H 172.258 5.56983 -4.18023 0
M  V30 1799 H 169.885 5.87832 -4.82034 0
M  V30 1800 N 171.46 0.379036 1.52974 0
M  V30 1801 C 172.706 -0.206727 2.01744 0
M  V30 1802 C 173.039 -1.47314 1.26539 0
M  V30 1803 O 172.314 -1.91084 0.362903 0
M  V30 1804 C 172.597 -0.485066 3.56818 0
M  V30 1805 C 172.45 0.795919 4.42702 0
M  V30 1806 C 173.769 -1.28003 4.21074 0
M  V30 1807 H 170.888 -0.0736607 0.73331 0
M  V30 1808 H 173.53 0.506581 1.83122 0
M  V30 1809 H 171.68 -1.09272 3.72816 0
M  V30 1810 H 173.352 1.43307 4.38476 0
M  V30 1811 H 171.595 1.41344 4.10127 0
M  V30 1812 H 172.266 0.555947 5.49193 0
M  V30 1813 H 174.742 -0.765867 4.08991 0
M  V30 1814 H 173.618 -1.44352 5.29579 0
M  V30 1815 H 173.879 -2.29236 3.78026 0
M  V30 1816 N 172.938 -1.57226 0.108567 0
M  V30 1817 C 174.178 -1.96717 -0.555155 0
M  V30 1818 C 174.542 -0.990003 -1.64508 0
M  V30 1819 O 175.743 -1.2739 -2.36696 0
M  V30 1820 C 174.014 -3.40575 -1.08367 0
M  V30 1821 S 175.573 -4.02072 -1.75737 0
M  V30 1822 H 172.391 -0.687638 -0.180762 0
M  V30 1823 H 174.993 -1.94563 0.191172 0
M  V30 1824 H 173.697 -4.0945 -0.279092 0
M  V30 1825 H 173.228 -3.46356 -1.86551 0
M  V30 1826 H 175.243 -3.91977 -3.04251 0
M  V30 1827 N 174.416 0.165178 -1.56732 0
M  V30 1828 C 175.346 1.20651 -1.99914 0
M  V30 1829 C 176.327 1.45827 -0.875705 0
M  V30 1830 O 177.512 1.57057 -1.14223 0
M  V30 1831 C 174.642 2.54401 -2.36427 0
M  V30 1832 C 173.596 2.43782 -3.51787 0
M  V30 1833 C 172.922 3.82078 -3.7406 0
M  V30 1834 C 174.222 1.93732 -4.85041 0
M  V30 1835 H 175.916 0.847534 -2.87154 0
M  V30 1836 H 173.462 0.40625 -1.38151 0
M  V30 1837 H 175.415 3.27458 -2.65234 0
M  V30 1838 H 174.139 2.92098 -1.46103 0
M  V30 1839 H 172.798 1.73178 -3.23117 0
M  V30 1840 H 172.446 4.17179 -2.81017 0
M  V30 1841 H 172.146 3.7584 -4.51684 0
M  V30 1842 H 173.67 4.56712 -4.05274 0
M  V30 1843 H 175.084 2.56569 -5.12684 0
M  V30 1844 H 173.481 1.98428 -5.66345 0
M  V30 1845 H 174.551 0.891962 -4.76626 0
M  V30 1846 N 175.894 1.51508 0.433938 0
M  V30 1847 C 177.31 1.39759 0.770682 0
M  V30 1848 C 177.51 0.482594 1.95636 0
M  V30 1849 O 176.566 -0.0609691 2.52426 0
M  V30 1850 C 177.879 2.81851 1.04787 0
M  V30 1851 C 179.427 2.91025 1.1521 0
M  V30 1852 C 179.902 4.34032 1.46219 0
M  V30 1853 N 181.393 4.37154 1.53136 0
M  V30 1854 C 182.128 5.4484 1.78709 0
M  V30 1855 N 181.624 6.62682 2.02051 0
M  V30 1856 N 183.417 5.32324 1.80519 0
M  V30 1857 H 175.568 2.09548 -0.346892 0
M  V30 1858 H 177.831 0.943446 -0.0928074 0
M  V30 1859 H 177.537 3.50815 0.249304 0
M  V30 1860 H 177.411 3.21386 1.97461 0
M  V30 1861 H 179.798 2.22257 1.94128 0
M  V30 1862 H 179.879 2.54983 0.204281 0
M  V30 1863 H 179.523 5.03351 0.678274 0
M  V30 1864 H 179.453 4.6759 2.42212 0
M  V30 1865 H 181.944 3.52197 1.36987 0
M  V30 1866 H 182.257 7.40543 2.20943 0
M  V30 1867 H 180.602 6.65791 1.99366 0
M  V30 1868 H 183.793 4.39246 1.61805 0
M  V30 1869 H 183.966 6.16328 2.00111 0
M  V30 1870 N 177.372 -0.689602 1.41712 0
M  V30 1871 C 178.783 -1.26973 1.36875 0
M  V30 1872 C 179.134 -1.96124 0.054748 0
M  V30 1873 O 178.259 -1.99141 -0.84687 0
M  V30 1874 C 178.854 -2.30912 2.47922 0
M  V30 1875 C 177.413 -2.84486 2.46464 0
M  V30 1876 C 176.56 -1.58603 2.27465 0
M  V30 1877 H 179.511 -0.48396 1.51141 0
M  V30 1878 H 179.532 -3.12331 2.17323 0
M  V30 1879 H 179.044 -1.80554 3.43543 0
M  V30 1880 H 177.145 -3.39005 1.54617 0
M  V30 1881 H 177.258 -3.34511 3.42986 0
M  V30 1882 H 175.622 -1.84632 1.75451 0
M  V30 1883 H 176.405 -1.10233 3.25121 0
M  V30 1884 N 178.85 -1.27639 -0.924453 0
M  V30 1885 C 180.096 -1.14336 -1.67497 0
M  V30 1886 C 180.429 0.309465 -1.91718 0
M  V30 1887 O 179.704 1.22608 -1.50989 0
M  V30 1888 C 179.987 -1.93096 -3.0395 0
M  V30 1889 C 179.84 -3.46381 -2.8695 0
M  V30 1890 C 181.159 -1.73798 -4.0433 0
M  V30 1891 H 178.278 -0.416728 -0.607871 0
M  V30 1892 H 180.92 -1.56832 -1.07256 0
M  V30 1893 H 179.07 -1.56982 -3.55372 0
M  V30 1894 H 180.742 -3.92343 -2.42621 0
M  V30 1895 H 178.985 -3.72557 -2.22225 0
M  V30 1896 H 179.656 -3.96735 -3.83804 0
M  V30 1897 H 182.132 -2.05293 -3.61931 0
M  V30 1898 H 181.008 -2.31294 -4.97789 0
M  V30 1899 H 181.269 -0.686725 -4.36734 0
M  V30 1900 N 180.328 1.1314 -1.09713 0
M  V30 1901 C 181.744 1.36477 -0.827423 0
M  V30 1902 C 181.944 1.93654 0.556817 0
M  V30 1903 O 181 2.15791 1.31112 0
M  V30 1904 C 182.313 2.31334 -1.92106 0
M  V30 1905 C 183.861 2.44943 -1.94864 0
M  V30 1906 C 184.336 3.4311 -3.0338 0
M  V30 1907 N 185.827 3.50662 -3.02639 0
M  V30 1908 C 186.562 4.2651 -3.83246 0
M  V30 1909 N 186.058 5.05485 -4.73768 0
M  V30 1910 N 187.851 4.2184 -3.71493 0
M  V30 1911 H 180.002 0.743807 -1.9895 0
M  V30 1912 H 182.265 0.389823 -0.864143 0
M  V30 1913 H 181.971 1.96483 -2.91698 0
M  V30 1914 H 181.845 3.31381 -1.80184 0
M  V30 1915 H 184.232 2.79079 -0.959099 0
M  V30 1916 H 184.313 1.4481 -2.10864 0
M  V30 1917 H 183.957 3.09704 -4.02549 0
M  V30 1918 H 183.887 4.43055 -2.84622 0
M  V30 1919 H 186.378 2.94315 -2.37039 0
M  V30 1920 H 186.691 5.60675 -5.3185 0
M  V30 1921 H 185.036 5.04708 -4.77802 0
M  V30 1922 H 188.227 3.5922 -3.00131 0
M  V30 1923 H 188.4 4.80697 -4.3455 0
M  V30 1924 N 181.806 0.884767 1.30421 0
M  V30 1925 C 183.036 0.517293 2.00019 0
M  V30 1926 C 183.444 -0.898632 1.66497 0
M  V30 1927 O 182.787 -1.60245 0.898181 0
M  V30 1928 C 182.849 0.612025 3.54252 0
M  V30 1929 C 182.513 1.99222 4.1129 0
M  V30 1930 C 183.51 2.9616 4.273 0
M  V30 1931 C 181.195 2.29755 4.46674 0
M  V30 1932 C 183.189 4.21764 4.77906 0
M  V30 1933 C 180.876 3.55606 4.96979 0
M  V30 1934 C 181.874 4.51425 5.12547 0
M  V30 1935 O 181.562 5.75043 5.61766 0
M  V30 1936 H 181.294 0.198529 0.64619 0
M  V30 1937 H 183.848 1.1919 1.67281 0
M  V30 1938 H 182.078 -0.119561 3.86515 0
M  V30 1939 H 183.767 0.255859 4.05093 0
M  V30 1940 H 184.533 2.73882 4.00267 0
M  V30 1941 H 180.412 1.55942 4.33824 0
M  V30 1942 H 183.956 4.96561 4.89972 0
M  V30 1943 H 179.853 3.7772 5.23448 0
M  V30 1944 H 180.621 5.77422 5.80109 0
M  V30 1945 N 183.284 -1.43765 0.645699 0
M  V30 1946 C 184.531 -2.01898 0.15604 0
M  V30 1947 C 184.859 -1.50887 -1.22733 0
M  V30 1948 O 184.114 -0.689271 -1.8316 0
M  V30 1949 C 184.413 -3.57238 0.107679 0
M  V30 1950 C 184.079 -4.27564 1.43178 0
M  V30 1951 C 182.741 -4.46492 1.7944 0
M  V30 1952 C 185.093 -4.67454 2.30513 0
M  V30 1953 C 182.421 -5.02573 3.02716 0
M  V30 1954 C 184.773 -5.24901 3.53074 0
M  V30 1955 C 183.437 -5.42046 3.89541 0
M  V30 1956 H 182.707 -0.738797 0.057099 0
M  V30 1957 H 185.354 -1.72341 0.834912 0
M  V30 1958 H 183.659 -3.86293 -0.654618 0
M  V30 1959 H 185.356 -3.99965 -0.287938 0
M  V30 1960 H 181.946 -4.13171 1.13963 0
M  V30 1961 H 186.13 -4.5253 2.0379 0
M  V30 1962 H 181.386 -5.14033 3.31028 0
M  V30 1963 H 185.56 -5.54758 4.20971 0
M  V30 1964 H 183.187 -5.85268 4.85145 0
M  V30 1965 N 184.763 -0.387143 -1.52771 0
M  V30 1966 C 185.991 0.195869 -2.05971 0
M  V30 1967 C 186.406 1.40691 -1.25903 0
M  V30 1968 O 185.763 1.79931 -0.305134 0
M  V30 1969 C 185.814 0.56812 -3.57008 0
M  V30 1970 O 185.535 -0.594803 -4.34043 0
M  V30 1971 C 187.036 1.20723 -4.26545 0
M  V30 1972 H 184.256 0.0300578 -0.670326 0
M  V30 1973 H 186.8 -0.551749 -1.96916 0
M  V30 1974 H 184.955 1.26564 -3.66143 0
M  V30 1975 H 185.369 -0.289322 -5.23701 0
M  V30 1976 H 186.843 1.41807 -5.33474 0
M  V30 1977 H 187.32 2.17395 -3.81623 0
M  V30 1978 H 187.926 0.550535 -4.21722 0
M  V30 1979 N 186.241 1.57166 -0.116904 0
M  V30 1980 C 187.489 1.94737 0.540533 0
M  V30 1981 C 187.81 1.00096 1.67349 0
M  V30 1982 O 187.08 0.0568854 1.95817 0
M  V30 1983 H 185.66 0.718981 0.202669 0
M  V30 1984 H 188.322 1.94017 -0.185353 0
M  V30 1985 H 187.418 2.97719 0.936483 0
M  V30 1986 N 187.719 -0.156864 1.56817 0
M  V30 1987 C 188.965 -0.872416 1.83076 0
M  V30 1988 C 189.298 -1.81261 0.697001 0
M  V30 1989 O 188.573 -1.92171 -0.30008 0
M  V30 1990 C 188.856 -1.65551 3.19789 0
M  V30 1991 C 188.709 -0.737467 4.43713 0
M  V30 1992 C 190.028 -2.62012 3.53606 0
M  V30 1993 H 187.147 -0.315715 0.665953 0
M  V30 1994 H 189.789 -0.138004 1.89498 0
M  V30 1995 H 187.939 -2.28159 3.14445 0
M  V30 1996 H 189.611 -0.123143 4.61136 0
M  V30 1997 H 187.854 -0.0464067 4.33775 0
M  V30 1998 H 188.525 -1.32122 5.35955 0
M  V30 1999 H 191.001 -2.09525 3.59497 0
M  V30 2000 H 189.877 -3.13861 4.50314 0
M  V30 2001 H 190.138 -3.42902 2.79053 0
M  V30 2002 N 189.197 -1.51736 -0.425897 0
M  V30 2003 C 190.608 -1.5732 -1.00536 0
M  V30 2004 C 190.959 -0.403537 -1.92005 0
M  V30 2005 O 190.084 0.478256 -2.11049 0
M  V30 2006 C 190.679 -2.85119 -1.8301 0
M  V30 2007 C 189.238 -2.93236 -2.35987 0
M  V30 2008 C 188.385 -2.52098 -1.15508 0
M  V30 2009 H 191.336 -1.57348 -0.206739 0
M  V30 2010 H 191.357 -2.69526 -2.68581 0
M  V30 2011 H 190.869 -3.7023 -1.16411 0
M  V30 2012 H 188.97 -2.12581 -3.06007 0
M  V30 2013 H 189.083 -3.9713 -2.68001 0
M  V30 2014 H 187.447 -2.05558 -1.50393 0
M  V30 2015 H 188.23 -3.39565 -0.505014 0
M  V30 2016 N 190.675 0.682077 -1.42076 0
M  V30 2017 C 191.9 1.47558 -1.45744 0
M  V30 2018 C 192.325 1.87977 -0.0680981 0
M  V30 2019 O 191.683 1.55522 0.9318 0
M  V30 2020 C 191.731 2.70575 -2.38373 0
M  V30 2021 O 190.835 3.68573 -1.85007 0
M  V30 2022 H 190.176 0.443585 -0.494093 0
M  V30 2023 H 192.706 0.837238 -1.86686 0
M  V30 2024 H 192.716 3.18729 -2.54707 0
M  V30 2025 H 191.391 2.40495 -3.39315 0
M  V30 2026 H 189.968 3.2757 -1.78192 0
M  V30 2027 N 192.153 1.28127 0.917671 0
M  V30 2028 C 193.564 1.13622 1.48145 0
M  V30 2029 C 193.915 -0.275207 1.9426 0
M  V30 2030 O 193.04 -1.1691 1.82102 0
M  V30 2031 C 193.635 2.05648 2.69248 0
M  V30 2032 C 192.194 1.95219 3.21818 0
M  V30 2033 C 191.341 1.97618 1.94532 0
M  V30 2034 H 194.292 1.40874 0.730772 0
M  V30 2035 H 194.313 1.61818 3.44377 0
M  V30 2036 H 193.825 3.08365 2.35653 0
M  V30 2037 H 191.926 0.955244 3.60147 0
M  V30 2038 H 192.039 2.81976 3.87333 0
M  V30 2039 H 190.403 1.41973 2.11461 0
M  V30 2040 H 191.186 3.02007 1.63238 0
M  V30 2041 N 193.631 -1.12557 1.10312 0
M  V30 2042 C 194.877 -1.84311 0.846011 0
M  V30 2043 C 195.21 -1.83805 -0.626859 0
M  V30 2044 O 194.485 -1.28268 -1.46211 0
M  V30 2045 C 194.768 -3.32048 1.39341 0
M  V30 2046 C 194.621 -3.41016 2.93305 0
M  V30 2047 C 195.94 -4.27764 1.03468 0
M  V30 2048 H 193.059 -0.669192 0.30879 0
M  V30 2049 H 195.701 -1.32057 1.36605 0
M  V30 2050 H 193.851 -3.76678 0.951087 0
M  V30 2051 H 195.523 -3.05031 3.46055 0
M  V30 2052 H 193.766 -2.81603 3.29973 0
M  V30 2053 H 194.437 -4.44948 3.26689 0
M  V30 2054 H 196.913 -3.91253 1.41633 0
M  V30 2055 H 195.789 -5.29549 1.44463 0
M  V30 2056 H 196.05 -4.42064 -0.0560404 0
M  V30 2057 N 195.109 -0.891671 -1.2995 0
M  V30 2058 C 196.056 -0.361736 -2.27948 0
M  V30 2059 C 197.026 0.551761 -1.56668 0
M  V30 2060 O 198.211 0.478736 -1.84696 0
M  V30 2061 C 195.351 0.411825 -3.42634 0
M  V30 2062 C 194.464 -0.531651 -4.28716 0
M  V30 2063 C 193.599 0.258167 -5.30572 0
M  V30 2064 C 192.638 -0.680349 -6.08307 0
M  V30 2065 N 191.775 0.0745613 -7.0206 0
M  V30 2066 H 196.615 -1.20254 -2.72659 0
M  V30 2067 H 194.152 -0.604352 -1.34112 0
M  V30 2068 H 196.11 0.876304 -4.07893 0
M  V30 2069 H 194.74 1.21715 -2.98974 0
M  V30 2070 H 193.792 -1.11463 -3.63703 0
M  V30 2071 H 195.104 -1.25038 -4.82874 0
M  V30 2072 H 194.258 0.784204 -6.0161 0
M  V30 2073 H 192.997 1.01008 -4.77126 0
M  V30 2074 H 192.002 -1.21796 -5.3614 0
M  V30 2075 H 193.227 -1.43145 -6.63842 0
M  V30 2076 H 191.173 0.808883 -6.50994 0
M  V30 2077 H 191.09 -0.584409 -7.53738 0
M  V30 2078 H 192.358 0.581123 -7.77331 0
M  V30 2079 N 196.587 1.43421 -0.653314 0
M  V30 2080 C 198.003 1.56341 -0.320886 0
M  V30 2081 C 198.203 1.63696 1.17499 0
M  V30 2082 O 197.259 1.59208 1.95982 0
M  V30 2083 C 198.572 2.82424 -1.03233 0
M  V30 2084 C 200.12 2.96168 -1.01259 0
M  V30 2085 C 200.595 4.25084 -1.70492 0
M  V30 2086 N 202.086 4.31948 -1.67257 0
M  V30 2087 C 202.821 5.30466 -2.17701 0
M  V30 2088 N 202.317 6.35261 -2.76434 0
M  V30 2089 N 204.11 5.2212 -2.082 0
M  V30 2090 H 196.261 1.3689 -1.62403 0
M  V30 2091 H 198.524 0.657455 -0.682977 0
M  V30 2092 H 198.23 2.83053 -2.08744 0
M  V30 2093 H 198.104 3.72653 -0.583948 0
M  V30 2094 H 200.491 2.9508 0.0341235 0
M  V30 2095 H 200.572 2.07229 -1.49966 0
M  V30 2096 H 200.216 4.26932 -2.7512 0
M  V30 2097 H 200.146 5.1292 -1.19251 0
M  V30 2098 H 202.637 3.56838 -1.24398 0
M  V30 2099 H 202.95 7.06754 -3.12601 0
M  V30 2100 H 201.295 6.35884 -2.80495 0
M  V30 2101 H 204.486 4.39166 -1.62021 0
M  V30 2102 H 204.659 5.98739 -2.47822 0
M  V30 2103 N 198.065 0.39524 1.52563 0
M  V30 2104 C 199.476 -0.0774719 1.86539 0
M  V30 2105 C 199.827 -1.45641 1.31466 0
M  V30 2106 O 198.952 -2.06459 0.648367 0
M  V30 2107 C 199.547 -0.147356 3.38479 0
M  V30 2108 C 198.106 -0.564373 3.72145 0
M  V30 2109 C 197.253 0.269919 2.75983 0
M  V30 2110 H 200.204 0.612876 1.46388 0
M  V30 2111 H 200.225 -0.965343 3.68051 0
M  V30 2112 H 199.737 0.856387 3.78534 0
M  V30 2113 H 197.838 -1.57527 3.37663 0
M  V30 2114 H 197.951 -0.318402 4.78041 0
M  V30 2115 H 196.315 -0.265696 2.5331 0
M  V30 2116 H 197.098 1.27175 3.18875 0
M  V30 2117 N 199.544 -1.57102 0.125237 0
M  V30 2118 C 200.454 -2.19191 -0.8362 0
M  V30 2119 C 201.47 -1.16985 -1.28805 0
M  V30 2120 O 202.646 -1.49479 -1.34974 0
M  V30 2121 C 199.711 -2.78407 -2.06617 0
M  V30 2122 C 198.772 -3.9567 -1.66565 0
M  V30 2123 C 198.005 -4.52052 -2.83698 0
M  V30 2124 O 198.228 -4.07326 -3.99302 0
M  V30 2125 O 197.162 -5.42645 -2.60423 0
M  V30 2126 H 200.988 -3.01816 -0.337776 0
M  V30 2127 H 198.573 -1.4906 -0.100695 0
M  V30 2128 H 200.455 -3.16129 -2.7864 0
M  V30 2129 H 199.13 -1.9881 -2.55453 0
M  V30 2130 H 198.037 -3.62705 -0.916296 0
M  V30 2131 H 199.37 -4.76722 -1.22464 0
M  V30 2132 N 201.022 0.148545 -1.56898 0
M  V30 2133 C 202.299 0.890019 -1.74178 0
M  V30 2134 C 202.679 1.99407 -0.692839 0
M  V30 2135 O 202.027 2.26671 0.288505 0
M  V30 2136 C 202.237 1.43389 -3.18183 0
M  V30 2137 C 203.585 1.89791 -3.79822 0
M  V30 2138 O 204.609 1.53134 -3.21603 0
M  V30 2139 O 203.468 2.57387 -4.82093 0
M  V30 2140 H 200.562 0.420496 -0.712118 0
M  V30 2141 H 203.108 0.134591 -1.69165 0
M  V30 2142 H 201.88 0.640383 -3.86024 0
M  V30 2143 H 201.503 2.25287 -3.27615 0
M  V30 2144 N 202.5 1.5196 0.417844 0
M  V30 2145 C 203.728 1.69426 1.18753 0
M  V30 2146 C 204.143 0.399955 1.84515 0
M  V30 2147 O 203.5 -0.623288 1.71527 0
M  V30 2148 C 203.551 2.82375 2.25714 0
M  V30 2149 O 203.272 4.06793 1.62638 0
M  V30 2150 C 204.773 3.11277 3.15628 0
M  V30 2151 H 201.993 0.568031 0.357186 0
M  V30 2152 H 204.537 1.98475 0.49273 0
M  V30 2153 H 202.692 2.5587 2.90877 0
M  V30 2154 H 203.106 4.69667 2.3348 0
M  V30 2155 H 204.58 3.93843 3.86771 0
M  V30 2156 H 205.057 2.24473 3.77503 0
M  V30 2157 H 205.663 3.39515 2.56144 0
M  V30 2158 N 203.978 -0.674533 1.42435 0
M  V30 2159 C 205.255 -1.4305 1.33402 0
M  V30 2160 C 205.635 -2.11081 -0.0284674 0
M  V30 2161 O 204.983 -2.03257 -1.04397 0
M  V30 2162 C 205.193 -2.43272 2.50239 0
M  V30 2163 C 206.541 -3.07907 2.92367 0
M  V30 2164 O 207.565 -2.53599 2.50132 0
M  V30 2165 O 206.424 -4.0632 3.65467 0
M  V30 2166 H 203.518 -0.638076 0.526106 0
M  V30 2167 H 206.064 -0.703235 1.54443 0
M  V30 2168 H 204.836 -1.91803 3.41068 0
M  V30 2169 H 204.459 -3.23479 2.31186 0
M  V30 2170 N 205.456 -1.28612 -0.910864 0
M  V30 2171 C 206.389 -1.07109 -2.01502 0
M  V30 2172 C 207.367 0.013706 -1.62594 0
M  V30 2173 O 208.551 -0.134796 -1.88017 0
M  V30 2174 C 205.678 -0.628255 -3.32822 0
M  V30 2175 C 204.724 -1.71012 -3.90714 0
M  V30 2176 S 205.557 -3.30676 -4.21205 0
M  V30 2177 C 206.713 -2.88234 -5.55583 0
M  V30 2178 H 206.946 -2.00591 -2.19432 0
M  V30 2179 H 204.479 -1.12633 -1.05609 0
M  V30 2180 H 206.437 -0.37946 -4.08742 0
M  V30 2181 H 205.098 0.28678 -3.12788 0
M  V30 2182 H 204.291 -1.35195 -4.85529 0
M  V30 2183 H 203.893 -1.91186 -3.21441 0
M  V30 2184 H 206.185 -2.34584 -6.35591 0
M  V30 2185 H 207.128 -3.81857 -5.96314 0
M  V30 2186 H 207.536 -2.26862 -5.16908 0
M  V30 2187 N 206.934 1.1197 -1.10907 0
M  V30 2188 C 208.18 1.8386 -0.855773 0
M  V30 2189 C 208.513 1.84134 0.617103 0
M  V30 2190 O 207.788 1.29041 1.45529 0
M  V30 2191 C 208.071 3.31305 -1.411 0
M  V30 2192 C 207.924 3.39456 -2.9511 0
M  V30 2193 C 209.243 4.2721 -1.05736 0
M  V30 2194 H 206.362 0.667545 -0.312334 0
M  V30 2195 H 209.004 1.31331 -1.37303 0
M  V30 2196 H 207.154 3.76169 -0.97105 0
M  V30 2197 H 208.826 3.03191 -3.47668 0
M  V30 2198 H 207.069 2.79849 -3.31462 0
M  V30 2199 H 207.74 4.43209 -3.29044 0
M  V30 2200 H 210.216 3.90497 -1.43706 0
M  V30 2201 H 209.092 5.28775 -1.47269 0
M  V30 2202 H 209.353 4.42088 0.0325958 0
M  V30 2203 N 208.412 0.89855 1.29475 0
M  V30 2204 C 209.661 0.519863 1.94885 0
M  V30 2205 C 209.974 -0.9383 1.71625 0
M  V30 2206 O 211.18 -1.42445 2.31131 0
M  V30 2207 C 209.636 0.878836 3.49005 0
M  V30 2208 C 209.244 2.35569 3.81066 0
M  V30 2209 C 210.988 0.570004 4.20656 0
M  V30 2210 C 208.895 2.65558 5.28425 0
M  V30 2211 H 207.825 0.190692 0.729488 0
M  V30 2212 H 210.476 1.09539 1.47219 0
M  V30 2213 H 208.858 0.232253 3.95318 0
M  V30 2214 H 210.032 3.04773 3.45616 0
M  V30 2215 H 208.347 2.63343 3.22552 0
M  V30 2216 H 210.944 0.770925 5.29113 0
M  V30 2217 H 211.287 -0.491404 4.1339 0
M  V30 2218 H 211.82 1.17438 3.8007 0
M  V30 2219 H 208.559 3.70493 5.40754 0
M  V30 2220 H 208.079 2.00977 5.65127 0
M  V30 2221 H 209.758 2.51765 5.96006 0
M  V30 2222 N 209.89 -1.43072 0.660911 0
M  V30 2223 C 211.137 -2.01721 0.177445 0
M  V30 2224 C 211.465 -1.5218 -1.21126 0
M  V30 2225 O 210.72 -0.708659 -1.82419 0
M  V30 2226 C 211.019 -3.57103 0.145563 0
M  V30 2227 C 210.685 -4.26021 1.47705 0
M  V30 2228 C 209.347 -4.44563 1.84165 0
M  V30 2229 C 211.699 -4.64983 2.35458 0
M  V30 2230 C 209.027 -4.99334 3.0803 0
M  V30 2231 C 211.379 -5.21127 3.58622 0
M  V30 2232 C 210.043 -5.37884 3.95268 0
M  V30 2233 H 209.313 -0.73815 0.0649317 0
M  V30 2234 H 211.96 -1.71446 0.853144 0
M  V30 2235 H 210.265 -3.86965 -0.61361 0
M  V30 2236 H 211.962 -4.00248 -0.2455 0
M  V30 2237 H 208.552 -4.11939 1.18339 0
M  V30 2238 H 212.736 -4.50343 2.08579 0
M  V30 2239 H 207.992 -5.10493 3.36462 0
M  V30 2240 H 212.166 -5.50262 4.26831 0
M  V30 2241 H 209.793 -5.80089 4.91325 0
M  V30 2242 N 211.368 -0.403325 -1.52352 0
M  V30 2243 C 212.784 -0.0539281 -1.59509 0
M  V30 2244 C 212.984 1.43307 -1.41652 0
M  V30 2245 O 212.04 2.19924 -1.24056 0
M  V30 2246 C 213.353 -0.543654 -2.95745 0
M  V30 2247 C 214.901 -0.501125 -3.08962 0
M  V30 2248 C 215.376 -0.967267 -4.47669 0
M  V30 2249 N 216.867 -0.923849 -4.53893 0
M  V30 2250 C 217.602 -1.25578 -5.5948 0
M  V30 2251 N 217.098 -1.65889 -6.72646 0
M  V30 2252 N 218.891 -1.17613 -5.49658 0
M  V30 2253 H 211.042 -1.37123 -1.62206 0
M  V30 2254 H 213.305 -0.56294 -0.76276 0
M  V30 2255 H 213.011 -1.58275 -3.14073 0
M  V30 2256 H 212.885 0.0498042 -3.77167 0
M  V30 2257 H 215.272 0.528909 -2.90321 0
M  V30 2258 H 215.353 -1.13056 -2.2946 0
M  V30 2259 H 214.997 -1.9956 -4.67053 0
M  V30 2260 H 214.927 -0.314698 -5.25659 0
M  V30 2261 H 217.418 -0.627403 -3.72655 0
M  V30 2262 H 217.731 -1.89543 -7.49195 0
M  V30 2263 H 216.076 -1.69787 -6.73942 0
M  V30 2264 H 219.267 -0.860115 -4.6013 0
M  V30 2265 H 219.44 -1.43812 -6.3184 0
M  V30 2266 N 212.846 1.57033 -0.133567 0
M  V30 2267 C 213.756 2.19632 0.824564 0
M  V30 2268 C 214.772 1.17666 1.28182 0
M  V30 2269 O 215.948 1.50193 1.3418 0
M  V30 2270 C 213.013 2.79499 2.05137 0
M  V30 2271 C 212.074 3.96548 1.64464 0
M  V30 2272 C 211.307 4.5355 2.81297 0
M  V30 2273 O 211.53 4.09438 3.97136 0
M  V30 2274 O 210.464 5.44018 2.57542 0
M  V30 2275 H 214.29 3.01991 0.321766 0
M  V30 2276 H 211.875 1.49112 0.0927889 0
M  V30 2277 H 213.757 3.17602 2.7696 0
M  V30 2278 H 212.432 2.00162 2.54395 0
M  V30 2279 H 211.339 3.63186 0.897048 0
M  V30 2280 H 212.672 4.77364 1.19934 0
M  V30 2281 N 214.325 -0.140222 1.56975 0
M  V30 2282 C 215.273 -1.19207 1.99731 0
M  V30 2283 C 216.267 -1.44089 0.890777 0
M  V30 2284 O 217.473 -1.44301 1.07597 0
M  V30 2285 H 213.848 -0.40142 0.635898 0
M  V30 2286 H 215.819 -0.804813 2.87342 0
M  V30 2287 C 214.568 -2.51617 2.39967 0
M  V30 2288 H 213.891 -2.33303 3.24669 0
M  V30 2289 H 215.331 -3.23827 2.73701 0
M  V30 2290 C 213.79 -3.12654 1.25496 0
M  V30 2291 O 214.32 -3.97786 0.559371 0
M  V30 2292 N 212.526 -2.72206 1.01746 0
M  V30 2293 H 212.073 -2.03074 1.58489 0
M  V30 2294 H 212.031 -3.13377 0.253461 0
M  V30 2295 N 215.803 -1.52179 -0.40978 0
M  V30 2296 C 217.031 -1.70054 -1.17853 0
M  V30 2297 C 217.446 -0.409735 -1.843 0
M  V30 2298 O 216.803 0.614183 -1.71855 0
M  V30 2299 C 216.854 -2.83568 -2.24213 0
M  V30 2300 O 216.575 -4.0765 -1.60478 0
M  V30 2301 C 218.076 -3.12947 -3.13973 0
M  V30 2302 H 215.296 -0.569917 -0.354169 0
M  V30 2303 H 217.84 -1.98734 -0.482198 0
M  V30 2304 H 215.995 -2.57409 -2.89516 0
M  V30 2305 H 216.409 -4.70899 -2.30986 0
M  V30 2306 H 217.883 -3.95889 -3.84677 0
M  V30 2307 H 218.36 -2.26472 -3.76307 0
M  V30 2308 H 218.966 -3.40868 -2.5434 0
M  V30 2309 N 217.281 0.66697 -1.42791 0
M  V30 2310 C 218.191 1.80962 -1.49299 0
M  V30 2311 C 219.207 1.69775 -0.381108 0
M  V30 2312 O 220.383 1.91188 -0.633188 0
M  V30 2313 C 217.448 3.17156 -1.40045 0
M  V30 2314 C 216.509 3.40242 -2.6179 0
M  V30 2315 C 215.742 4.69939 -2.52969 0
M  V30 2316 O 215.965 5.48372 -1.56985 0
M  V30 2317 O 214.899 4.94441 -3.43237 0
M  V30 2318 H 218.725 1.78427 -2.45759 0
M  V30 2319 H 216.31 0.823713 -1.24641 0
M  V30 2320 H 218.192 3.98413 -1.37276 0
M  V30 2321 H 216.867 3.20312 -0.467138 0
M  V30 2322 H 215.774 2.58802 -2.70134 0
M  V30 2323 H 217.107 3.41923 -3.54047 0
M  V30 2324 N 218.759 1.29093 0.90403 0
M  V30 2325 C 220.036 1.075 1.63411 0
M  V30 2326 C 220.416 -0.382346 2.07609 0
M  V30 2327 O 219.764 -1.37031 1.82851 0
M  V30 2328 C 219.974 2.05858 2.81822 0
M  V30 2329 C 221.322 2.36539 3.52611 0
M  V30 2330 O 222.346 2.04019 2.91984 0
M  V30 2331 O 221.205 2.92085 4.61897 0
M  V30 2332 H 218.299 0.411547 0.717327 0
M  V30 2333 H 220.845 1.40449 0.952479 0
M  V30 2334 H 219.617 3.04037 2.46327 0
M  V30 2335 H 219.24 1.73613 3.57693 0
M  V30 2336 N 220.237 -1.11381 1.11499 0
M  V30 2337 C 221.486 -1.82494 0.858993 0
M  V30 2338 C 221.799 -1.85605 -0.617278 0
M  V30 2339 O 223.005 -2.52824 -0.989552 0
M  V30 2340 C 221.461 -3.27745 1.48699 0
M  V30 2341 C 221.069 -3.32961 2.99735 0
M  V30 2342 C 222.813 -4.03754 1.31085 0
M  V30 2343 C 220.72 -4.72612 3.55516 0
M  V30 2344 H 219.65 -0.683802 0.317696 0
M  V30 2345 H 222.301 -1.25331 1.34031 0
M  V30 2346 H 220.683 -3.84844 0.933339 0
M  V30 2347 H 221.857 -2.85741 3.61509 0
M  V30 2348 H 220.172 -2.70433 3.16631 0
M  V30 2349 H 222.769 -5.06891 1.70192 0
M  V30 2350 H 223.112 -4.15527 0.253496 0
M  V30 2351 H 223.645 -3.53043 1.83318 0
M  V30 2352 H 220.384 -4.66036 4.60967 0
M  V30 2353 H 219.904 -5.2024 2.98513 0
M  V30 2354 H 221.583 -5.4157 3.53992 0
M  V30 2355 N 221.715 -0.905404 -1.28997 0
M  V30 2356 C 222.945 -0.549049 -1.99171 0
M  V30 2357 C 223.353 0.87203 -1.67906 0
M  V30 2358 O 222.696 1.58796 -0.923561 0
M  V30 2359 C 222.758 -0.668306 -3.53234 0
M  V30 2360 C 222.422 -2.0574 -4.08069 0
M  V30 2361 C 223.419 -3.0292 -4.22534 0
M  V30 2362 C 221.104 -2.36833 -4.42962 0
M  V30 2363 C 223.098 -4.29314 -4.71135 0
M  V30 2364 C 220.785 -3.63467 -4.91258 0
M  V30 2365 C 221.783 -4.59522 -5.053 0
M  V30 2366 O 221.471 -5.83907 -5.52546 0
M  V30 2367 H 221.203 -0.208784 -0.64295 0
M  V30 2368 H 223.757 -1.21836 -1.65363 0
M  V30 2369 H 221.987 0.0580547 -3.86656 0
M  V30 2370 H 223.676 -0.320273 -4.04634 0
M  V30 2371 H 224.442 -2.80216 -3.95859 0
M  V30 2372 H 220.321 -1.62824 -4.31288 0
M  V30 2373 H 223.865 -5.04293 -4.8201 0
M  V30 2374 H 219.762 -3.86 -5.17372 0
M  V30 2375 H 220.53 -5.86578 -5.70849 0
M  V30 2376 N 223.193 1.4272 -0.668489 0
M  V30 2377 C 224.156 2.292 0.00448567 0
M  V30 2378 C 225.156 1.43001 0.735339 0
M  V30 2379 O 226.346 1.64461 0.57429 0
M  V30 2380 C 223.478 3.25375 1.01705 0
M  V30 2381 H 224.671 2.90199 -0.756608 0
M  V30 2382 H 222.224 1.50254 -0.430506 0
M  V30 2383 H 222.959 2.69301 1.80686 0
M  V30 2384 H 222.744 3.88944 0.496463 0
M  V30 2385 H 224.234 3.90245 1.48655 0
M  V30 2386 N 224.671 0.411399 1.52136 0
M  V30 2387 C 225.919 -0.163322 2.01439 0
M  V30 2388 C 226.24 -1.45453 1.29879 0
M  V30 2389 O 225.51 -1.91225 0.4254 0
M  V30 2390 H 224.09 -0.0633447 0.744309 0
M  V30 2391 H 226.752 0.548161 1.87033 0
M  V30 2392 H 225.848 -0.357817 3.10042 0
M  V30 2393 N 226.149 -1.5696 0.141893 0
M  V30 2394 C 227.398 -1.95135 -0.510427 0
M  V30 2395 C 227.711 -1.02896 -1.66348 0
M  V30 2396 O 228.917 -1.30629 -2.38009 0
M  V30 2397 C 227.373 -3.46876 -0.959427 0
M  V30 2398 C 226.981 -4.47691 0.166419 0
M  V30 2399 C 228.725 -3.93927 -1.58183 0
M  V30 2400 C 226.632 -5.90636 -0.300565 0
M  V30 2401 H 225.562 -0.728494 -0.194454 0
M  V30 2402 H 228.213 -1.8211 0.22542 0
M  V30 2403 H 226.595 -3.55215 -1.75038 0
M  V30 2404 H 227.769 -4.51043 0.94325 0
M  V30 2405 H 226.084 -4.10527 0.696905 0
M  V30 2406 H 228.681 -4.98158 -1.94275 0
M  V30 2407 H 229.024 -3.3519 -2.46888 0
M  V30 2408 H 229.557 -3.88484 -0.855863 0
M  V30 2409 H 226.296 -6.5318 0.550989 0
M  V30 2410 H 225.816 -5.90655 -1.04338 0
M  V30 2411 H 227.495 -6.42588 -0.754265 0
M  V30 2412 N 227.627 0.131896 -1.57047 0
M  V30 2413 C 228.537 1.1815 -2.02676 0
M  V30 2414 C 229.553 1.46113 -0.944824 0
M  V30 2415 O 230.729 1.57485 -1.25541 0
M  V30 2416 C 227.794 2.49139 -2.41103 0
M  V30 2417 C 226.855 2.28688 -3.63318 0
M  V30 2418 C 226.088 3.53431 -3.99903 0
M  V30 2419 O 226.311 4.60223 -3.36973 0
M  V30 2420 O 225.245 3.45198 -4.93074 0
M  V30 2421 H 229.071 0.824069 -2.92306 0
M  V30 2422 H 226.656 0.341745 -1.45439 0
M  V30 2423 H 228.538 3.26338 -2.66611 0
M  V30 2424 H 227.213 2.84382 -1.54624 0
M  V30 2425 H 226.12 1.4939 -3.42977 0
M  V30 2426 H 227.453 1.98355 -4.50462 0
M  V30 2427 N 229.106 1.52395 0.401703 0
M  V30 2428 C 230.336 1.70429 1.1678 0
M  V30 2429 C 230.744 0.416702 1.84554 0
M  V30 2430 O 230.087 -0.617697 1.73003 0
M  V30 2431 C 230.149 2.78919 2.26814 0
M  V30 2432 C 229.813 4.20437 1.79113 0
M  V30 2433 C 230.81 5.04028 1.27482 0
M  V30 2434 C 228.495 4.66704 1.85722 0
M  V30 2435 C 230.489 6.31961 0.830913 0
M  V30 2436 C 228.176 5.94625 1.40942 0
M  V30 2437 C 229.174 6.77082 0.897128 0
M  V30 2438 O 228.862 8.02607 0.455822 0
M  V30 2439 H 228.594 0.574272 0.356634 0
M  V30 2440 H 231.148 1.99767 0.477724 0
M  V30 2441 H 229.378 2.44973 2.99207 0
M  V30 2442 H 231.067 2.8548 2.88541 0
M  V30 2443 H 231.833 4.69471 1.21744 0
M  V30 2444 H 227.712 4.0262 2.24539 0
M  V30 2445 H 231.256 6.96271 0.430368 0
M  V30 2446 H 227.153 6.28688 1.46362 0
M  V30 2447 H 227.921 8.16453 0.578457 0
M  V30 2448 N 230.584 -0.659388 1.43143 0
M  V30 2449 C 231.547 -1.75432 1.47501 0
M  V30 2450 C 232.547 -1.56707 0.360512 0
M  V30 2451 O 233.737 -1.62717 0.622002 0
M  V30 2452 C 230.869 -3.14239 1.32162 0
M  V30 2453 H 232.062 -1.7295 2.45006 0
M  V30 2454 H 229.615 -0.870469 1.29817 0
M  V30 2455 H 230.35 -3.22336 0.356401 0
M  V30 2456 H 230.135 -3.29235 2.12948 0
M  V30 2457 H 231.625 -3.94094 1.3813 0
M  V30 2458 N 232.062 -1.29571 -0.897171 0
M  V30 2459 C 233.009 -1.14916 -2.00158 0
M  V30 2460 C 233.979 -0.0418149 -1.66047 0
M  V30 2461 O 235.164 -0.209793 -1.89643 0
M  V30 2462 C 232.304 -0.834307 -3.34863 0
M  V30 2463 C 231.417 -2.02234 -3.8174 0
M  V30 2464 C 230.552 -1.64664 -5.05034 0
M  V30 2465 C 229.591 -2.80033 -5.44286 0
M  V30 2466 N 228.728 -2.42843 -6.58765 0
M  V30 2467 H 233.568 -2.09403 -2.12025 0
M  V30 2468 H 231.105 -1.042 -1.0383 0
M  V30 2469 H 233.063 -0.632436 -4.12379 0
M  V30 2470 H 231.693 0.0736656 -3.22716 0
M  V30 2471 H 230.745 -2.33583 -3.00238 0
M  V30 2472 H 232.057 -2.88673 -4.06779 0
M  V30 2473 H 231.211 -1.4078 -5.9014 0
M  V30 2474 H 229.95 -0.753766 -4.8184 0
M  V30 2475 H 228.955 -3.04596 -4.57713 0
M  V30 2476 H 230.18 -3.69989 -5.6946 0
M  V30 2477 H 228.126 -1.56046 -6.3717 0
M  V30 2478 H 228.043 -3.22815 -6.83613 0
M  V30 2479 H 229.311 -2.22285 -7.47134 0
M  V30 2480 N 233.54 1.10788 -1.12088 0
M  V30 2481 C 234.788 1.8231 -0.872205 0
M  V30 2482 C 235.109 1.85419 0.603709 0
M  V30 2483 O 234.379 1.32963 1.43867 0
M  V30 2484 H 232.959 0.675137 -0.319686 0
M  V30 2485 H 235.621 1.34068 -1.41463 0
M  V30 2486 H 234.717 2.85955 -1.25045 0
M  V30 2487 N 235.018 0.912232 1.28515 0
M  V30 2488 C 236.243 0.559774 1.99703 0
M  V30 2489 C 236.668 -0.851393 1.67729 0
M  V30 2490 O 236.026 -1.56875 0.908834 0
M  V30 2491 C 236.074 0.773874 3.52198 0
M  V30 2492 O 235.178 -0.167842 4.12058 0
M  V30 2493 H 234.519 0.21723 0.627461 0
M  V30 2494 H 237.049 1.22725 1.63706 0
M  V30 2495 H 237.059 0.683386 4.02236 0
M  V30 2496 H 235.734 1.80261 3.74805 0
M  V30 2497 H 234.311 -0.0287509 3.72889 0
M  V30 2498 N 236.496 -1.42363 0.676048 0
M  V30 2499 C 237.406 -2.346 -0.00153389 0
M  V30 2500 C 238.422 -1.5516 -0.787485 0
M  V30 2501 O 239.598 -1.87723 -0.729521 0
M  V30 2502 C 236.663 -3.33705 -0.940298 0
M  V30 2503 C 235.724 -4.29042 -0.148739 0
M  V30 2504 C 234.957 -5.23413 -1.04279 0
M  V30 2505 O 235.18 -5.22749 -2.28232 0
M  V30 2506 O 234.114 -5.99795 -0.502925 0
M  V30 2507 H 237.94 -2.94082 0.758268 0
M  V30 2508 H 235.525 -1.42888 0.436289 0
M  V30 2509 H 237.407 -3.94586 -1.47917 0
M  V30 2510 H 236.082 -2.76695 -1.67993 0
M  V30 2511 H 234.989 -3.71571 0.43427 0
M  V30 2512 H 236.322 -4.89097 0.551805 0
M  V30 2513 N 237.974 -0.419461 -1.51915 0
M  V30 2514 C 238.884 0.407528 -2.31033 0
M  V30 2515 C 239.9 1.04413 -1.3919 0
M  V30 2516 O 241.076 1.0434 -1.72265 0
M  V30 2517 C 238.141 1.50365 -3.12396 0
M  V30 2518 C 237.202 0.889029 -4.19994 0
M  V30 2519 C 236.435 1.93291 -4.97468 0
M  V30 2520 O 236.658 3.15259 -4.75361 0
M  V30 2521 O 235.592 1.53339 -5.8204 0
M  V30 2522 H 239.418 -0.237865 -3.02767 0
M  V30 2523 H 237.003 -0.182413 -1.48282 0
M  V30 2524 H 238.885 2.13975 -3.63032 0
M  V30 2525 H 237.56 2.13345 -2.43445 0
M  V30 2526 H 236.467 0.215353 -3.7348 0
M  V30 2527 H 237.8 0.302991 -4.91267 0
M  V30 2528 N 239.452 1.56882 -0.150215 0
M  V30 2529 C 240.698 1.96518 0.500834 0
M  V30 2530 C 241.031 1.03527 1.64304 0
M  V30 2531 O 240.306 0.0782751 1.94342 0
M  V30 2532 C 240.589 3.45822 1.00395 0
M  V30 2533 C 240.442 4.49591 -0.136983 0
M  V30 2534 C 241.761 3.97704 1.88467 0
M  V30 2535 H 238.88 0.714535 0.18058 0
M  V30 2536 H 241.522 1.88577 -0.232091 0
M  V30 2537 H 239.672 3.5272 1.62851 0
M  V30 2538 H 241.344 4.5477 -0.77343 0
M  V30 2539 H 239.587 4.26441 -0.795652 0
M  V30 2540 H 240.258 5.51402 0.256815 0
M  V30 2541 H 242.734 3.93304 1.35834 0
M  V30 2542 H 241.61 5.0263 2.20578 0
M  V30 2543 H 241.871 3.40252 2.82279 0
M  V30 2544 N 240.93 -0.123565 1.57115 0
M  V30 2545 C 241.862 -1.17739 1.96648 0
M  V30 2546 C 242.875 -1.37906 0.865201 0
M  V30 2547 O 244.064 -1.37062 1.14351 0
M  V30 2548 C 241.164 -2.53821 2.24562 0
M  V30 2549 C 240.337 -2.54317 3.55867 0
M  V30 2550 C 239.396 -3.72112 3.72047 0
M  V30 2551 O 238.422 -3.55907 4.44206 0
M  V30 2552 N 239.624 -4.90498 3.10471 0
M  V30 2553 H 242.389 -0.841147 2.87654 0
M  V30 2554 H 239.95 -0.31289 1.58848 0
M  V30 2555 H 241.942 -3.31175 2.32606 0
M  V30 2556 H 240.512 -2.79645 1.39705 0
M  V30 2557 H 239.732 -1.62711 3.59053 0
M  V30 2558 H 241.02 -2.51701 4.42181 0
M  V30 2559 H 240.418 -5.06567 2.51806 0
M  V30 2560 H 238.975 -5.65544 3.24043 0
M  V30 2561 N 242.408 -1.52605 -0.393616 0
M  V30 2562 C 243.355 -1.77055 -1.48054 0
M  V30 2563 C 244.325 -0.61358 -1.54352 0
M  V30 2564 O 245.51 -0.852806 -1.70681 0
M  V30 2565 C 242.65 -1.94108 -2.85335 0
M  V30 2566 C 241.763 -3.21792 -2.88226 0
M  V30 2567 C 240.898 -3.29188 -4.16904 0
M  V30 2568 C 239.937 -4.51013 -4.13828 0
M  V30 2569 N 239.074 -4.55716 -5.34105 0
M  V30 2570 H 243.914 -2.69815 -1.26506 0
M  V30 2571 H 241.451 -1.33683 -0.61379 0
M  V30 2572 H 243.409 -2.01979 -3.65049 0
M  V30 2573 H 242.039 -1.04713 -3.05344 0
M  V30 2574 H 241.091 -3.23015 -2.00911 0
M  V30 2575 H 242.403 -4.11557 -2.8182 0
M  V30 2576 H 241.557 -3.36216 -5.05018 0
M  V30 2577 H 240.296 -2.37389 -4.26026 0
M  V30 2578 H 239.301 -4.44115 -3.24102 0
M  V30 2579 H 240.526 -5.44123 -4.06333 0
M  V30 2580 H 238.472 -3.66807 -5.43865 0
M  V30 2581 H 238.389 -5.39346 -5.29756 0
M  V30 2582 H 239.657 -4.66993 -6.2413 0
M  V30 2583 N 243.887 0.651787 -1.4349 0
M  V30 2584 C 244.817 1.77621 -1.51569 0
M  V30 2585 C 245.798 1.66022 -0.370253 0
M  V30 2586 O 246.983 1.85095 -0.587658 0
M  V30 2587 C 244.113 3.16056 -1.43966 0
M  V30 2588 C 243.067 3.4242 -2.56774 0
M  V30 2589 C 242.393 4.8067 -2.34223 0
M  V30 2590 C 243.693 3.37023 -3.99015 0
M  V30 2591 H 245.387 1.71117 -2.45681 0
M  V30 2592 H 242.933 0.821825 -1.18246 0
M  V30 2593 H 244.886 3.94472 -1.48221 0
M  V30 2594 H 243.61 3.23293 -0.463586 0
M  V30 2595 H 242.269 2.66375 -2.51873 0
M  V30 2596 H 241.917 4.84585 -1.34856 0
M  V30 2597 H 241.617 4.9927 -3.09844 0
M  V30 2598 H 243.141 5.61342 -2.40265 0
M  V30 2599 H 244.555 4.05374 -4.05395 0
M  V30 2600 H 242.952 3.67159 -4.74673 0
M  V30 2601 H 244.022 2.3518 -4.2405 0
M  V30 2602 N 245.365 1.30045 0.890287 0
M  V30 2603 C 246.614 1.17929 1.63633 0
M  V30 2604 C 246.927 -0.266204 1.9378 0
M  V30 2605 O 248.133 -0.508804 2.6669 0
M  V30 2606 C 246.589 2.06317 2.94892 0
M  V30 2607 C 246.197 3.55745 2.72305 0
M  V30 2608 C 247.941 2.0295 3.72843 0
M  V30 2609 C 245.848 4.36205 3.99348 0
M  V30 2610 H 244.778 0.437782 0.613892 0
M  V30 2611 H 247.429 1.54754 0.986075 0
M  V30 2612 H 245.811 1.6237 3.61182 0
M  V30 2613 H 246.985 4.07805 2.1455 0
M  V30 2614 H 245.3 3.6088 2.07737 0
M  V30 2615 H 247.897 2.60319 4.67053 0
M  V30 2616 H 248.24 1.0117 4.0382 0
M  V30 2617 H 248.773 2.4499 3.13408 0
M  V30 2618 H 245.512 5.38659 3.73533 0
M  V30 2619 H 245.032 3.8891 4.56628 0
M  V30 2620 H 246.711 4.47362 4.67415 0
M  V30 2621 N 246.843 -1.10192 1.12674 0
M  V30 2622 C 248.068 -1.86523 0.906853 0
M  V30 2623 C 248.493 -1.80221 -0.538711 0
M  V30 2624 O 247.851 -1.17396 -1.38158 0
M  V30 2625 C 247.899 -3.32758 1.3894 0
M  V30 2626 O 247.003 -4.08449 0.5695 0
M  V30 2627 H 246.344 -0.578678 0.325619 0
M  V30 2628 H 248.874 -1.39203 1.49946 0
M  V30 2629 H 248.884 -3.83608 1.38958 0
M  V30 2630 H 247.559 -3.36661 2.44197 0
M  V30 2631 H 246.136 -3.67427 0.636528 0
M  V30 2632 N 248.321 -0.919034 -1.28029 0
M  V30 2633 C 249.568 -0.554934 -1.94748 0
M  V30 2634 C 249.896 0.90231 -1.72304 0
M  V30 2635 O 249.151 1.65767 -1.04018 0
M  V30 2636 C 249.45 -0.816855 -3.4794 0
M  V30 2637 C 249.116 -2.25448 -3.90492 0
M  V30 2638 C 247.778 -2.64752 -4.01821 0
M  V30 2639 C 250.13 -3.18977 -4.12193 0
M  V30 2640 C 247.458 -3.96727 -4.32232 0
M  V30 2641 C 249.81 -4.50523 -4.44086 0
M  V30 2642 C 248.474 -4.89673 -4.53626 0
M  V30 2643 H 247.744 -0.203065 -0.712633 0
M  V30 2644 H 250.391 -1.16136 -1.52265 0
M  V30 2645 H 248.696 -0.127677 -3.91592 0
M  V30 2646 H 250.393 -0.514238 -3.97689 0
M  V30 2647 H 246.983 -1.93952 -3.82205 0
M  V30 2648 H 251.167 -2.89817 -4.02889 0
M  V30 2649 H 246.423 -4.26754 -4.37825 0
M  V30 2650 H 250.597 -5.23005 -4.59825 0
M  V30 2651 H 248.224 -5.91969 -4.76946 0
M  V30 2652 N 249.799 1.42003 -0.683588 0
M  V30 2653 C 250.729 2.33487 -0.024866 0
M  V30 2654 C 251.71 1.51163 0.779975 0
M  V30 2655 O 252.895 1.79739 0.735362 0
M  V30 2656 C 250.025 3.3487 0.920836 0
M  V30 2657 C 248.979 4.27414 0.223958 0
M  V30 2658 C 248.305 5.19074 1.2832 0
M  V30 2659 C 249.605 5.14445 -0.90242 0
M  V30 2660 H 251.299 2.88819 -0.788921 0
M  V30 2661 H 248.845 1.38873 -0.38083 0
M  V30 2662 H 250.798 3.97787 1.39081 0
M  V30 2663 H 249.522 2.77861 1.71642 0
M  V30 2664 H 248.181 3.65904 -0.225864 0
M  V30 2665 H 247.829 4.58387 2.071 0
M  V30 2666 H 247.529 5.81822 0.821995 0
M  V30 2667 H 249.053 5.84867 1.75392 0
M  V30 2668 H 250.467 5.70998 -0.513272 0
M  V30 2669 H 248.864 5.86072 -1.28997 0
M  V30 2670 H 249.934 4.52322 -1.74737 0
M  V30 2671 N 251.277 0.427512 1.51691 0
M  V30 2672 C 252.209 -0.424521 2.25234 0
M  V30 2673 C 253.222 -0.994671 1.2888 0
M  V30 2674 O 254.411 -0.890483 1.54702 0
M  V30 2675 C 251.511 -1.60479 2.98496 0
M  V30 2676 C 250.684 -1.15527 4.21868 0
M  V30 2677 C 249.743 -2.20454 4.77793 0
M  V30 2678 O 248.769 -1.8029 5.39893 0
M  V30 2679 N 249.971 -3.52831 4.60967 0
M  V30 2680 H 252.736 0.205749 2.98993 0
M  V30 2681 H 250.297 0.255867 1.59865 0
M  V30 2682 H 252.289 -2.30276 3.32799 0
M  V30 2683 H 250.859 -2.14061 2.27809 0
M  V30 2684 H 250.079 -0.284736 3.9317 0
M  V30 2685 H 251.367 -0.832173 5.01949 0
M  V30 2686 H 250.765 -3.88201 4.11481 0
M  V30 2687 H 249.322 -4.18551 4.99658 0
M  V30 2688 N 252.755 -1.56801 0.158532 0
M  V30 2689 C 253.703 -2.18638 -0.793729 0
M  V30 2690 C 254.697 -1.14669 -1.24689 0
M  V30 2691 O 255.903 -1.32895 -1.21403 0
M  V30 2692 H 252.278 -0.700226 -0.274204 0
M  V30 2693 H 254.249 -2.97367 -0.248095 0
M  V30 2694 C 252.998 -2.83139 -2.0181 0
M  V30 2695 H 252.321 -3.62863 -1.67841 0
M  V30 2696 H 253.761 -3.29894 -2.66357 0
M  V30 2697 C 252.22 -1.82244 -2.83353 0
M  V30 2698 O 252.75 -1.3 -3.80083 0
M  V30 2699 N 250.956 -1.51288 -2.48114 0
M  V30 2700 H 250.503 -1.93964 -1.69516 0
M  V30 2701 H 250.461 -0.840296 -3.02963 0
M  V30 2702 N 254.233 0.115231 -1.57178 0
M  V30 2703 C 255.143 1.15994 -2.03918 0
M  V30 2704 C 256.159 1.45103 -0.960268 0
M  V30 2705 O 257.335 1.56144 -1.27204 0
M  V30 2706 C 254.4 2.46568 -2.43732 0
M  V30 2707 C 253.461 2.24822 -3.65723 0
M  V30 2708 C 252.694 3.4917 -4.03629 0
M  V30 2709 O 252.917 4.56623 -3.41835 0
M  V30 2710 O 251.851 3.39949 -4.96708 0
M  V30 2711 H 255.677 0.793019 -2.93164 0
M  V30 2712 H 253.262 0.3263 -1.45793 0
M  V30 2713 H 255.144 3.23492 -2.70057 0
M  V30 2714 H 253.819 2.82726 -1.57631 0
M  V30 2715 H 252.726 1.45744 -3.44542 0
M  V30 2716 H 254.059 1.93566 -4.52541 0
M  V30 2717 N 255.711 1.52812 0.385517 0
M  V30 2718 C 256.641 1.80808 1.47752 0
M  V30 2719 C 257.622 0.660318 1.5676 0
M  V30 2720 O 258.807 0.908246 1.71652 0
M  V30 2721 C 255.937 1.98008 2.85324 0
M  V30 2722 C 254.891 3.13709 2.91154 0
M  V30 2723 C 254.217 3.16169 4.31209 0
M  V30 2724 C 255.517 4.52709 2.60483 0
M  V30 2725 H 257.211 2.72253 1.24573 0
M  V30 2726 H 254.757 1.31003 0.597839 0
M  V30 2727 H 256.71 2.16176 3.61726 0
M  V30 2728 H 255.434 1.03255 3.09848 0
M  V30 2729 H 254.093 2.95329 2.17201 0
M  V30 2730 H 253.741 2.19092 4.52778 0
M  V30 2731 H 253.441 3.93894 4.36029 0
M  V30 2732 H 254.965 3.36496 5.09512 0
M  V30 2733 H 256.379 4.71173 3.26602 0
M  V30 2734 H 254.776 5.32528 2.76648 0
M  V30 2735 H 255.846 4.59186 1.55809 0
M  V30 2736 N 257.189 -0.644168 1.43834 0
M  V30 2737 C 258.137 -1.77793 1.49974 0
M  V30 2738 C 259.131 -1.65253 0.372536 0
M  V30 2739 O 260.337 -1.7149 0.546924 0
M  V30 2740 H 256.712 -0.58675 0.47035 0
M  V30 2741 H 258.683 -1.69736 2.45423 0
M  V30 2742 C 257.432 -3.16087 1.4486 0
M  V30 2743 H 256.755 -3.26378 2.30905 0
M  V30 2744 H 258.195 -3.95349 1.53217 0
M  V30 2745 C 256.654 -3.36484 0.167463 0
M  V30 2746 O 257.184 -3.94298 -0.767609 0
M  V30 2747 N 255.39 -2.90504 0.0747556 0
M  V30 2748 H 254.937 -2.4364 0.836507 0
M  V30 2749 H 254.895 -3.04527 -0.781714 0
M  V30 2750 N 258.668 -1.30515 -0.883378 0
M  V30 2751 C 259.914 -1.19607 -1.63774 0
M  V30 2752 C 260.247 0.248314 -1.92606 0
M  V30 2753 O 259.522 1.17742 -1.54813 0
M  V30 2754 C 259.805 -2.02669 -2.97653 0
M  V30 2755 C 259.658 -3.55335 -2.75784 0
M  V30 2756 C 260.977 -1.86573 -3.98596 0
M  V30 2757 H 258.096 -0.435856 -0.594305 0
M  V30 2758 H 260.738 -1.60165 -1.02212 0
M  V30 2759 H 258.888 -1.68208 -3.50197 0
M  V30 2760 H 260.56 -3.99863 -2.30016 0
M  V30 2761 H 258.803 -3.79438 -2.1026 0
M  V30 2762 H 259.474 -4.08745 -3.70988 0
M  V30 2763 H 261.95 -2.16703 -3.55217 0
M  V30 2764 H 260.826 -2.47014 -4.90179 0
M  V30 2765 H 261.087 -0.825321 -4.34328 0
M  V30 2766 N 260.146 1.09593 -1.13257 0
M  V30 2767 C 261.094 2.18271 -0.803783 0
M  V30 2768 C 262.088 1.68054 0.213148 0
M  V30 2769 O 263.294 1.79862 0.0704699 0
M  V30 2770 H 259.669 0.711949 -0.242143 0
M  V30 2771 H 261.64 2.43235 -1.72856 0
M  V30 2772 C 260.389 3.46536 -0.28424 0
M  V30 2773 H 259.712 3.85545 -1.05807 0
M  V30 2774 H 261.152 4.23899 -0.0925945 0
M  V30 2775 C 259.611 3.22036 0.989684 0
M  V30 2776 O 260.141 3.44509 2.06584 0
M  V30 2777 N 258.347 2.7565 0.920086 0
M  V30 2778 H 257.894 2.57562 0.0442019 0
M  V30 2779 H 257.852 2.59635 1.77306 0
M  V30 2780 N 261.624 0.925811 1.2754 0
M  V30 2781 C 262.571 0.422045 2.26908 0
M  V30 2782 C 263.541 -0.510029 1.58076 0
M  V30 2783 O 264.726 -0.429599 1.85901 0
M  V30 2784 C 261.866 -0.320837 3.43605 0
M  V30 2785 C 260.979 0.64513 4.27156 0
M  V30 2786 C 260.114 -0.117405 5.3107 0
M  V30 2787 C 259.153 0.841391 6.0629 0
M  V30 2788 N 258.29 0.111604 7.02011 0
M  V30 2789 H 263.13 1.27441 2.69375 0
M  V30 2790 H 260.667 0.639697 1.32462 0
M  V30 2791 H 262.625 -0.76785 4.10073 0
M  V30 2792 H 261.255 -1.13745 3.02096 0
M  V30 2793 H 260.307 1.21067 3.6062 0
M  V30 2794 H 261.619 1.37797 4.79389 0
M  V30 2795 H 260.773 -0.624422 6.03478 0
M  V30 2796 H 259.512 -0.883219 4.79636 0
M  V30 2797 H 258.517 1.35967 5.32722 0
M  V30 2798 H 259.742 1.60696 6.59813 0
M  V30 2799 H 257.688 -0.635999 6.5291 0
M  V30 2800 H 257.605 0.784044 7.51923 0
M  V30 2801 H 258.873 -0.374823 7.78598 0
M  V30 2802 N 263.102 -1.41638 0.69111 0
M  V30 2803 C 264.351 -2.00526 0.217318 0
M  V30 2804 C 264.664 -1.55353 -1.18848 0
M  V30 2805 O 265.87 -2.06769 -1.75951 0
M  V30 2806 C 264.326 -3.58313 0.337639 0
M  V30 2807 C 263.934 -4.12469 1.74852 0
M  V30 2808 C 265.678 -4.24431 -0.0766066 0
M  V30 2809 C 263.585 -5.62675 1.82074 0
M  V30 2810 H 262.515 -0.750008 0.0774893 0
M  V30 2811 H 265.166 -1.6217 0.858661 0
M  V30 2812 H 263.548 -3.9425 -0.371879 0
M  V30 2813 H 264.722 -3.8796 2.48644 0
M  V30 2814 H 263.037 -3.58861 2.11205 0
M  V30 2815 H 265.634 -5.34683 -0.0430284 0
M  V30 2816 H 265.977 -4.01101 -1.1146 0
M  V30 2817 H 266.51 -3.93512 0.582476 0
M  V30 2818 H 263.249 -5.90826 2.83911 0
M  V30 2819 H 262.769 -5.89124 1.12661 0
M  V30 2820 H 264.448 -6.27371 1.58159 0
M  V30 2821 N 264.58 -0.43555 -1.51462 0
M  V30 2822 C 265.996 -0.0877501 -1.59359 0
M  V30 2823 C 266.196 1.4027 -1.4466 0
M  V30 2824 O 265.252 2.17243 -1.28693 0
M  V30 2825 C 266.565 -0.606264 -2.94525 0
M  V30 2826 C 268.113 -0.566548 -3.0783 0
M  V30 2827 C 268.588 -1.06201 -4.45517 0
M  V30 2828 N 270.079 -1.01992 -4.51832 0
M  V30 2829 C 270.814 -1.37417 -5.5669 0
M  V30 2830 N 270.31 -1.80119 -6.68976 0
M  V30 2831 N 272.103 -1.29245 -5.47039 0
M  V30 2832 H 264.254 -1.40533 -1.59261 0
M  V30 2833 H 266.517 -0.578992 -0.750648 0
M  V30 2834 H 266.223 -1.64901 -3.10645 0
M  V30 2835 H 266.097 -0.0302097 -3.77188 0
M  V30 2836 H 268.484 0.467208 -2.91378 0
M  V30 2837 H 268.565 -1.17898 -2.2701 0
M  V30 2838 H 268.209 -2.09422 -4.62715 0
M  V30 2839 H 268.139 -0.426127 -5.24873 0
M  V30 2840 H 270.63 -0.706308 -3.71241 0
M  V30 2841 H 270.943 -2.05392 -7.45006 0
M  V30 2842 H 269.288 -1.84044 -6.70189 0
M  V30 2843 H 272.479 -0.957522 -4.58202 0
M  V30 2844 H 272.652 -1.57182 -6.28648 0
M  V30 2845 N 266.058 1.56714 -0.166846 0
M  V30 2846 C 267.305 1.96747 0.479252 0
M  V30 2847 C 267.633 1.05263 1.63554 0
M  V30 2848 O 266.888 0.0858098 1.95512 0
M  V30 2849 C 267.187 3.42889 1.00806 0
M  V30 2850 C 266.853 4.50889 -0.0318574 0
M  V30 2851 C 265.515 4.8015 -0.317675 0
M  V30 2852 C 267.867 5.15949 -0.737956 0
M  V30 2853 C 265.195 5.71772 -1.31506 0
M  V30 2854 C 267.547 6.08647 -1.72429 0
M  V30 2855 C 266.211 6.36277 -2.0176 0
M  V30 2856 H 265.481 0.719949 0.175371 0
M  V30 2857 H 268.128 1.89756 -0.257864 0
M  V30 2858 H 266.433 3.4681 1.82291 0
M  V30 2859 H 268.13 3.71203 1.51689 0
M  V30 2860 H 264.72 4.28128 0.201088 0
M  V30 2861 H 268.904 4.93458 -0.530351 0
M  V30 2862 H 264.16 5.91465 -1.54853 0
M  V30 2863 H 268.334 6.58129 -2.27682 0
M  V30 2864 H 265.961 7.07075 -2.79194 0
M  V30 2865 N 267.536 -0.106894 1.57237 0
M  V30 2866 C 268.947 -0.662723 1.74542 0
M  V30 2867 C 269.298 -1.7971 0.787319 0
M  V30 2868 O 268.423 -2.16368 -0.0369636 0
M  V30 2869 C 269.018 -1.20896 3.16496 0
M  V30 2870 C 267.577 -1.71096 3.35266 0
M  V30 2871 C 266.724 -0.615642 2.7038 0
M  V30 2872 H 269.675 0.119106 1.58252 0
M  V30 2873 H 269.696 -2.07847 3.18716 0
M  V30 2874 H 269.208 -0.383122 3.86204 0
M  V30 2875 H 267.309 -2.56119 2.70618 0
M  V30 2876 H 267.422 -1.81208 4.43509 0
M  V30 2877 H 265.786 -1.05222 2.31949 0
M  V30 2878 H 266.569 0.199419 3.4272 0
M  V30 2879 N 269.014 -1.53014 -0.377408 0
M  V30 2880 C 269.924 -1.81557 -1.48574 0
M  V30 2881 C 270.94 -0.703102 -1.59162 0
M  V30 2882 O 272.116 -0.99192 -1.75279 0
M  V30 2883 C 269.181 -1.9889 -2.83978 0
M  V30 2884 C 268.242 -3.22801 -2.83016 0
M  V30 2885 C 267.475 -3.39298 -4.11962 0
M  V30 2886 O 267.698 -2.60345 -5.0752 0
M  V30 2887 O 266.632 -4.32604 -4.18494 0
M  V30 2888 H 270.458 -2.75695 -1.27382 0
M  V30 2889 H 268.043 -1.38248 -0.566373 0
M  V30 2890 H 269.925 -2.11931 -3.6423 0
M  V30 2891 H 268.6 -1.07942 -3.05172 0
M  V30 2892 H 267.507 -3.15193 -2.01505 0
M  V30 2893 H 268.84 -4.13632 -2.66775 0
M  V30 2894 N 270.492 0.636531 -1.44174 0
M  V30 2895 C 271.72 1.42353 -1.50144 0
M  V30 2896 C 272.135 1.88389 -0.124575 0
M  V30 2897 O 271.492 1.6051 0.868489 0
M  V30 2898 C 271.543 2.64744 -2.46156 0
M  V30 2899 O 271.264 2.20629 -3.7849 0
M  V30 2900 C 272.765 3.57929 -2.61537 0
M  V30 2901 H 269.985 0.436752 -0.5094 0
M  V30 2902 H 272.529 0.778933 -1.89084 0
M  V30 2903 H 270.684 3.25307 -2.10366 0
M  V30 2904 H 271.098 2.99938 -4.30276 0
M  V30 2905 H 272.572 4.40428 -3.32757 0
M  V30 2906 H 273.049 4.06382 -1.66585 0
M  V30 2907 H 273.655 3.03238 -2.98206 0
M  V30 2908 N 271.97 1.30982 0.876444 0
M  V30 2909 C 273.195 1.23373 1.66715 0
M  V30 2910 C 273.62 -0.19885 1.87046 0
M  V30 2911 O 272.978 -1.1427 1.40756 0
M  V30 2912 C 273.026 1.97644 3.01611 0
M  V30 2913 O 272.13 1.30935 3.91062 0
M  V30 2914 H 271.471 0.426279 0.509099 0
M  V30 2915 H 274.001 1.72944 1.09323 0
M  V30 2916 H 274.011 2.06992 3.51594 0
M  V30 2917 H 272.686 3.01829 2.86133 0
M  V30 2918 H 271.263 1.29996 3.49507 0
M  V30 2919 N 273.449 -1.08991 1.13837 0
M  V30 2920 C 274.697 -1.80899 0.901098 0
M  V30 2921 C 275.018 -1.86356 -0.574134 0
M  V30 2922 O 274.288 -1.35235 -1.41733 0
M  V30 2923 H 272.868 -0.669966 0.330386 0
M  V30 2924 H 275.53 -1.318 1.43578 0
M  V30 2925 H 274.626 -2.83929 1.29578 0
M  V30 2926 N 274.927 -0.932562 -1.27047 0
M  V30 2927 C 276.176 -0.571351 -1.93439 0
M  V30 2928 C 276.489 0.892467 -1.74053 0
M  V30 2929 O 277.695 1.36267 -2.34826 0
M  V30 2930 C 276.151 -0.97106 -3.46552 0
M  V30 2931 C 275.759 -2.4559 -3.74686 0
M  V30 2932 C 277.503 -0.681333 -4.18997 0
M  V30 2933 C 275.41 -2.79475 -5.21198 0
M  V30 2934 H 274.34 -0.209966 -0.724176 0
M  V30 2935 H 276.991 -1.13403 -1.44263 0
M  V30 2936 H 275.373 -0.336983 -3.94564 0
M  V30 2937 H 276.547 -3.13829 -3.37414 0
M  V30 2938 H 274.862 -2.71802 -3.15456 0
M  V30 2939 H 277.459 -0.910939 -5.26883 0
M  V30 2940 H 277.802 0.381628 -4.14547 0
M  V30 2941 H 278.335 -1.27473 -3.76823 0
M  V30 2942 H 275.074 -3.847 -5.30741 0
M  V30 2943 H 274.594 -2.1589 -5.596 0
M  V30 2944 H 276.273 -2.67478 -5.89122 0
M  V30 2945 N 276.405 1.4127 -0.698611 0
M  V30 2946 C 277.653 2.00782 -0.230409 0
M  V30 2947 C 277.974 1.5562 1.17505 0
M  V30 2948 O 277.244 0.78815 1.79346 0
M  V30 2949 H 275.824 0.742464 -0.0821944 0
M  V30 2950 H 278.486 1.72852 -0.90045 0
M  V30 2951 H 277.582 3.11095 -0.25021 0
M  V30 2952 N 277.883 0.443576 1.51229 0
M  V30 2953 C 279.132 -0.122332 2.01329 0
M  V30 2954 C 279.445 -1.43237 1.33201 0
M  V30 2955 O 280.651 -2.0816 1.74304 0
M  V30 2956 C 279.107 -0.268551 3.58897 0
M  V30 2957 C 278.715 1.03142 4.35965 0
M  V30 2958 C 280.459 -0.787894 4.17124 0
M  V30 2959 C 278.366 0.850504 5.85252 0
M  V30 2960 H 277.296 -0.0494929 0.752374 0
M  V30 2961 H 279.947 0.574289 1.74282 0
M  V30 2962 H 278.329 -1.02832 3.82415 0
M  V30 2963 H 279.503 1.80001 4.24189 0
M  V30 2964 H 277.818 1.47977 3.89219 0
M  V30 2965 H 280.415 -0.939841 5.26375 0
M  V30 2966 H 280.758 -1.77201 3.76703 0
M  V30 2967 H 281.291 -0.0862669 3.97706 0
M  V30 2968 H 278.03 1.80718 6.30096 0
M  V30 2969 H 277.55 0.121825 5.99676 0
M  V30 2970 H 279.229 0.506163 6.45017 0
M  V30 2971 N 279.361 -1.56624 0.175154 0
M  V30 2972 C 280.308 -2.18149 -0.753634 0
M  V30 2973 C 281.278 -1.12265 -1.22417 0
M  V30 2974 O 282.463 -1.40432 -1.29165 0
M  V30 2975 C 279.603 -2.82933 -1.97592 0
M  V30 2976 C 278.716 -4.03289 -1.5486 0
M  V30 2977 C 277.851 -4.55988 -2.72485 0
M  V30 2978 C 276.89 -5.68746 -2.26262 0
M  V30 2979 N 276.027 -6.15938 -3.36994 0
M  V30 2980 H 280.867 -2.9717 -0.222195 0
M  V30 2981 H 278.404 -1.46774 -0.0979422 0
M  V30 2982 H 280.362 -3.18653 -2.69288 0
M  V30 2983 H 278.992 -2.06509 -2.481 0
M  V30 2984 H 278.044 -3.73364 -0.728246 0
M  V30 2985 H 279.356 -4.849 -1.16933 0
M  V30 2986 H 278.51 -4.9391 -3.52332 0
M  V30 2987 H 277.249 -3.73443 -3.13674 0
M  V30 2988 H 276.254 -5.30372 -1.44863 0
M  V30 2989 H 277.479 -6.53095 -1.86127 0
M  V30 2990 H 275.425 -5.36321 -3.77751 0
M  V30 2991 H 275.342 -6.92548 -3.03172 0
M  V30 2992 H 276.61 -6.58511 -4.17114 0
M  V30 2993 N 280.839 0.0985539 -1.57292 0
M  V30 2994 C 282.25 0.653457 -1.74891 0
M  V30 2995 C 282.601 1.7929 -0.796838 0
M  V30 2996 O 281.726 2.16385 0.0254886 0
M  V30 2997 C 282.321 1.19216 -3.17133 0
M  V30 2998 C 280.88 1.69316 -3.36168 0
M  V30 2999 C 280.027 0.601294 -2.70702 0
M  V30 3000 H 282.978 -0.127497 -1.58187 0
M  V30 3001 H 282.999 2.06154 -3.19814 0
M  V30 3002 H 282.511 0.362635 -3.86402 0
M  V30 3003 H 280.612 2.5468 -2.71972 0
M  V30 3004 H 280.725 1.78853 -4.44464 0
M  V30 3005 H 279.089 1.0399 -2.32504 0
M  V30 3006 H 279.872 -0.217592 -3.4261 0
M  V30 3007 N 282.317 1.53212 0.369288 0
M  V30 3008 C 283.563 1.69466 1.11397 0
M  V30 3009 C 283.896 0.443257 1.89074 0
M  V30 3010 O 283.171 -0.559386 1.86282 0
M  V30 3011 C 283.454 2.9422 2.07621 0
M  V30 3012 C 283.307 4.29508 1.33577 0
M  V30 3013 C 284.626 3.14565 3.07794 0
M  V30 3014 H 281.745 0.616667 0.403597 0
M  V30 3015 H 284.387 1.85845 0.395179 0
M  V30 3016 H 282.537 2.80387 2.68916 0
M  V30 3017 H 284.209 4.55147 0.750955 0
M  V30 3018 H 282.452 4.29088 0.637618 0
M  V30 3019 H 283.123 5.12926 2.03989 0
M  V30 3020 H 285.599 3.2756 2.56601 0
M  V30 3021 H 284.475 4.03297 3.72348 0
M  V30 3022 H 284.736 2.29675 3.77759 0
M  V30 3023 N 283.795 -0.628877 1.44509 0
M  V30 3024 C 285.02 -1.42048 1.5112 0
M  V30 3025 C 285.445 -1.87594 0.137818 0
M  V30 3026 O 284.803 -1.58873 -0.873437 0
M  V30 3027 C 284.851 -2.61541 2.48251 0
M  V30 3028 O 283.955 -3.61453 1.98559 0
M  V30 3029 H 283.296 -0.424942 0.510216 0
M  V30 3030 H 285.826 -0.767374 1.89664 0
M  V30 3031 H 285.836 -3.09057 2.66361 0
M  V30 3032 H 284.511 -2.27736 3.48007 0
M  V30 3033 H 283.088 -3.20731 1.90227 0
M  V30 3034 N 285.273 -1.31445 -0.869486 0
M  V30 3035 C 286.183 -1.21097 -2.0093 0
M  V30 3036 C 287.199 -0.127584 -1.73532 0
M  V30 3037 O 288.375 -0.345477 -1.98415 0
M  V30 3038 C 285.44 -0.919378 -3.34288 0
M  V30 3039 C 284.501 -2.08971 -3.75006 0
M  V30 3040 C 283.734 -1.81194 -5.02001 0
M  V30 3041 O 283.957 -0.747296 -5.65484 0
M  V30 3042 O 282.891 -2.66883 -5.39497 0
M  V30 3043 H 286.717 -2.16883 -2.12592 0
M  V30 3044 H 284.302 -1.11189 -0.997868 0
M  V30 3045 H 286.184 -0.772625 -4.14257 0
M  V30 3046 H 284.859 0.00844772 -3.23699 0
M  V30 3047 H 283.766 -2.29187 -2.95676 0
M  V30 3048 H 285.099 -2.9998 -3.90221 0
M  V30 3049 N 286.751 1.08385 -1.14413 0
M  V30 3050 C 287.661 2.18856 -0.844951 0
M  V30 3051 C 288.677 1.73121 0.174668 0
M  V30 3052 O 289.853 2.014 0.00312857 0
M  V30 3053 C 286.918 3.45155 -0.32696 0
M  V30 3054 C 285.979 4.05513 -1.40916 0
M  V30 3055 C 285.212 5.25784 -0.915793 0
M  V30 3056 O 285.435 5.69884 0.242651 0
M  V30 3057 O 284.369 5.77545 -1.69487 0
M  V30 3058 H 288.195 2.46919 -1.76818 0
M  V30 3059 H 285.78 1.17524 -0.922411 0
M  V30 3060 H 287.662 4.21377 -0.0440211 0
M  V30 3061 H 286.337 3.18668 0.568539 0
M  V30 3062 H 285.244 3.30879 -1.74556 0
M  V30 3063 H 286.577 4.3625 -2.27919 0
M  V30 3064 N 288.23 0.939286 1.26551 0
M  V30 3065 C 289.478 0.58469 1.93457 0
M  V30 3066 C 289.799 -0.878774 1.74076 0
M  V30 3067 O 289.069 -1.62421 1.09528 0
M  V30 3068 H 287.649 0.21325 0.715914 0
M  V30 3069 H 290.311 1.1942 1.54029 0
M  V30 3070 H 289.407 0.800849 3.0165 0
M  V30 3071 N 289.708 -1.40897 0.706093 0
M  V30 3072 C 290.936 -2.05373 0.250887 0
M  V30 3073 C 291.351 -1.53172 -1.10381 0
M  V30 3074 O 290.708 -0.684305 -1.69185 0
M  V30 3075 C 290.759 -3.6088 0.211571 0
M  V30 3076 O 290.48 -4.11153 1.51276 0
M  V30 3077 C 291.981 -4.42517 -0.263346 0
M  V30 3078 H 289.201 -0.66115 0.114552 0
M  V30 3079 H 291.745 -1.80479 0.961635 0
M  V30 3080 H 289.9 -3.84777 -0.450073 0
M  V30 3081 H 290.314 -5.05279 1.40689 0
M  V30 3082 H 291.788 -5.51479 -0.239718 0
M  V30 3083 H 292.265 -4.19396 -1.30397 0
M  V30 3084 H 292.871 -4.23708 0.367677 0
M  V30 3085 N 291.186 -0.45159 -1.50991 0
M  V30 3086 C 292.411 0.110667 -2.07105 0
M  V30 3087 C 292.836 1.3446 -1.31538 0
M  V30 3088 O 292.194 1.77743 -0.357365 0
M  V30 3089 C 292.242 0.397238 -3.58405 0
M  V30 3090 O 291.346 1.48124 -3.84881 0
M  V30 3091 H 290.687 -0.00439271 -0.663985 0
M  V30 3092 H 293.217 -0.637026 -1.9443 0
M  V30 3093 H 293.227 0.64351 -4.02893 0
M  V30 3094 H 291.902 -0.504553 -4.12828 0
M  V30 3095 H 290.479 1.22381 -3.52246 0
M  V30 3096 N 292.664 1.56529 -0.183458 0
M  V30 3097 C 294.08 1.58664 0.172554 0
M  V30 3098 C 294.28 1.19925 1.61926 0
M  V30 3099 O 293.336 0.916534 2.35278 0
M  V30 3100 C 294.649 3.00463 -0.119262 0
M  V30 3101 C 296.197 3.12945 -0.0584396 0
M  V30 3102 C 296.672 4.56857 -0.323408 0
M  V30 3103 N 298.163 4.62403 -0.271612 0
M  V30 3104 C 298.898 5.71626 -0.450639 0
M  V30 3105 N 298.394 6.89362 -0.689384 0
M  V30 3106 N 300.187 5.60775 -0.385701 0
M  V30 3107 H 292.338 1.79994 -1.12765 0
M  V30 3108 H 294.601 0.834808 -0.449222 0
M  V30 3109 H 294.307 3.33326 -1.12192 0
M  V30 3110 H 294.181 3.72659 0.583544 0
M  V30 3111 H 296.568 2.79902 0.934805 0
M  V30 3112 H 296.649 2.4316 -0.794144 0
M  V30 3113 H 296.293 4.9061 -1.31392 0
M  V30 3114 H 296.223 5.24816 0.43305 0
M  V30 3115 H 298.714 3.77785 -0.0932256 0
M  V30 3116 H 299.027 7.68489 -0.815113 0
M  V30 3117 H 297.372 6.91196 -0.726142 0
M  V30 3118 H 300.563 4.67674 -0.199687 0
M  V30 3119 H 300.736 6.4584 -0.528646 0
M  V30 3120 N 294.142 -0.090211 1.57342 0
M  V30 3121 C 295.072 -1.10976 2.05443 0
M  V30 3122 C 296.053 -1.41482 0.944284 0
M  V30 3123 O 297.238 -1.51428 1.21586 0
M  V30 3124 C 294.368 -2.42831 2.48295 0
M  V30 3125 C 293.322 -2.26721 3.63018 0
M  V30 3126 C 292.648 -3.63796 3.91863 0
M  V30 3127 C 293.948 -1.7037 4.93732 0
M  V30 3128 H 295.642 -0.709564 2.9087 0
M  V30 3129 H 293.188 -0.339874 1.39932 0
M  V30 3130 H 295.141 -3.14431 2.80555 0
M  V30 3131 H 293.865 -2.84795 1.59873 0
M  V30 3132 H 292.524 -1.57565 3.31012 0
M  V30 3133 H 292.172 -4.03297 3.00601 0
M  V30 3134 H 291.872 -3.53861 4.69101 0
M  V30 3135 H 293.396 -4.36855 4.26603 0
M  V30 3136 H 294.81 -2.31816 5.24342 0
M  V30 3137 H 293.207 -1.71181 5.75167 0
M  V30 3138 H 294.277 -0.663542 4.80339 0
M  V30 3139 N 295.62 -1.53406 -0.361157 0
M  V30 3140 C 296.866 -1.70054 -1.10496 0
M  V30 3141 C 297.199 -0.453278 -1.88836 0
M  V30 3142 O 296.474 0.5495 -1.86576 0
M  V30 3143 C 296.757 -2.95317 -2.06058 0
M  V30 3144 C 296.61 -4.3021 -1.31298 0
M  V30 3145 C 297.929 -3.16193 -3.06121 0
M  V30 3146 H 295.048 -0.618799 -0.400321 0
M  V30 3147 H 297.69 -1.86052 -0.385318 0
M  V30 3148 H 295.84 -2.81809 -2.67425 0
M  V30 3149 H 297.512 -4.55538 -0.726807 0
M  V30 3150 H 295.755 -4.29421 -0.614853 0
M  V30 3151 H 296.426 -5.14 -2.01265 0
M  V30 3152 H 298.902 -3.28916 -2.5486 0
M  V30 3153 H 297.778 -4.05266 -3.70204 0
M  V30 3154 H 298.039 -2.31676 -3.76535 0
M  V30 3155 N 297.098 0.621204 -1.44841 0
M  V30 3156 C 298.514 0.94048 -1.28946 0
M  V30 3157 C 298.714 2.00154 -0.23249 0
M  V30 3158 O 297.77 2.49651 0.378237 0
M  V30 3159 C 299.083 1.39433 -2.66419 0
M  V30 3160 C 300.631 1.50927 -2.74208 0
M  V30 3161 C 301.106 1.99692 -4.12174 0
M  V30 3162 N 302.597 2.06947 -4.144 0
M  V30 3163 C 303.332 2.45871 -5.1801 0
M  V30 3164 N 302.828 2.83862 -6.31977 0
M  V30 3165 N 304.621 2.46092 -5.05366 0
M  V30 3166 H 296.772 -0.0803548 -2.12248 0
M  V30 3167 H 299.035 0.0266913 -0.947624 0
M  V30 3168 H 298.741 0.688925 -3.44887 0
M  V30 3169 H 298.615 2.36347 -2.93973 0
M  V30 3170 H 301.002 2.20561 -1.96053 0
M  V30 3171 H 301.083 0.523627 -2.50383 0
M  V30 3172 H 300.727 1.30649 -4.90809 0
M  V30 3173 H 300.657 2.99146 -4.33381 0
M  V30 3174 H 303.148 1.80232 -3.32152 0
M  V30 3175 H 303.461 3.12405 -7.0684 0
M  V30 3176 H 301.806 2.8159 -6.35399 0
M  V30 3177 H 304.997 2.1581 -4.15384 0
M  V30 3178 H 305.17 2.76102 -5.86235 0
M  V30 3179 N 298.576 1.31904 0.862503 0
M  V30 3180 C 299.539 1.20131 1.95195 0
M  V30 3181 C 300.539 0.126409 1.60302 0
M  V30 3182 O 301.729 0.376234 1.70089 0
M  V30 3183 C 298.861 0.845691 3.30244 0
M  V30 3184 H 300.054 2.16943 2.07064 0
M  V30 3185 H 297.607 1.15622 1.05172 0
M  V30 3186 H 298.342 -0.120957 3.24074 0
M  V30 3187 H 298.127 1.62276 3.56944 0
M  V30 3188 H 299.617 0.787418 4.10109 0
M  V30 3189 N 300.054 -1.07777 1.14986 0
M  V30 3190 C 301.017 -2.13041 0.845358 0
M  V30 3191 C 302.017 -1.60071 -0.152931 0
M  V30 3192 O 303.207 -1.74033 0.0761879 0
M  V30 3193 C 300.339 -3.39896 0.261383 0
M  V30 3194 H 301.532 -2.41485 1.77834 0
M  V30 3195 H 299.085 -1.23595 0.956757 0
M  V30 3196 H 299.82 -3.17091 -0.68 0
M  V30 3197 H 299.605 -3.79642 0.980514 0
M  V30 3198 H 301.095 -4.17548 0.0657687 0
M  V30 3199 N 301.532 -0.945985 -1.26051 0
M  V30 3200 C 302.781 -0.591836 -1.92822 0
M  V30 3201 C 303.094 0.873956 -1.7499 0
M  V30 3202 O 304.3 1.33769 -2.36259 0
M  V30 3203 C 302.756 -1.00776 -3.45503 0
M  V30 3204 C 302.364 -2.4955 -3.7206 0
M  V30 3205 C 304.108 -0.725735 -4.1825 0
M  V30 3206 C 302.015 -2.84988 -5.18205 0
M  V30 3207 H 300.945 -0.217635 -0.721908 0
M  V30 3208 H 303.596 -1.14927 -1.43052 0
M  V30 3209 H 301.978 -0.378812 -3.94184 0
M  V30 3210 H 303.152 -3.1739 -3.34066 0
M  V30 3211 H 301.467 -2.75133 -3.12555 0
M  V30 3212 H 304.064 -0.966771 -5.25887 0
M  V30 3213 H 304.407 0.337639 -4.14929 0
M  V30 3214 H 304.94 -1.31463 -3.7545 0
M  V30 3215 H 301.679 -3.90307 -5.26631 0
M  V30 3216 H 301.199 -2.21813 -5.57278 0
M  V30 3217 H 302.878 -2.73712 -5.86252 0
M  V30 3218 N 303.011 1.40521 -0.713556 0
M  V30 3219 C 304.288 1.94775 -0.17943 0
M  V30 3220 C 304.668 1.65184 1.31444 0
M  V30 3221 O 304.016 0.968429 2.06963 0
M  V30 3222 C 304.226 3.45543 -0.489986 0
M  V30 3223 C 305.574 4.22442 -0.427536 0
M  V30 3224 O 306.598 3.53644 -0.425929 0
M  V30 3225 O 305.457 5.4501 -0.403292 0
M  V30 3226 H 302.551 0.826606 -0.0255192 0
M  V30 3227 H 305.097 1.5014 -0.790949 0
M  V30 3228 H 303.869 3.60432 -1.5233 0
M  V30 3229 H 303.492 3.97311 0.151598 0
M  V30 3230 N 304.489 0.459591 1.5075 0
M  V30 3231 C 305.719 -0.0972338 2.06371 0
M  V30 3232 C 306.127 -1.35074 1.32483 0
M  V30 3233 O 305.47 -1.79637 0.384226 0
M  V30 3234 C 305.532 -0.462759 3.56509 0
M  V30 3235 C 305.196 0.687084 4.51805 0
M  V30 3236 C 306.193 1.56578 4.95761 0
M  V30 3237 C 303.878 0.874144 4.94635 0
M  V30 3238 C 305.872 2.61604 5.81242 0
M  V30 3239 C 303.559 1.92765 5.79901 0
M  V30 3240 C 304.557 2.79697 6.23104 0
M  V30 3241 O 304.245 3.83235 7.06673 0
M  V30 3242 H 303.977 -0.00140687 0.675999 0
M  V30 3243 H 306.531 0.644011 1.95043 0
M  V30 3244 H 304.761 -1.25703 3.65699 0
M  V30 3245 H 306.45 -0.953323 3.94546 0
M  V30 3246 H 307.216 1.4329 4.6335 0
M  V30 3247 H 303.095 0.207006 4.60535 0
M  V30 3248 H 306.639 3.29489 6.14884 0
M  V30 3249 H 302.536 2.06064 6.11725 0
M  V30 3250 H 303.304 3.80084 7.24899 0
M  V30 3251 N 305.967 -1.56429 0.191757 0
M  V30 3252 C 306.93 -2.17707 -0.716688 0
M  V30 3253 C 307.93 -1.13061 -1.14341 0
M  V30 3254 O 309.12 -1.38464 -1.05704 0
M  V30 3255 C 306.252 -2.77644 -1.97804 0
M  V30 3256 H 307.445 -2.99342 -0.1829 0
M  V30 3257 H 304.998 -1.56193 -0.0578566 0
M  V30 3258 H 305.733 -1.99799 -2.55443 0
M  V30 3259 H 305.518 -3.54246 -1.68083 0
M  V30 3260 H 307.008 -3.24708 -2.62592 0
M  V30 3261 N 307.445 0.0818655 -1.57387 0
M  V30 3262 C 308.694 0.781681 -1.85937 0
M  V30 3263 C 309.007 1.79246 -0.782957 0
M  V30 3264 O 310.213 2.54112 -0.955987 0
M  V30 3265 C 308.669 1.44109 -3.29789 0
M  V30 3266 C 308.277 0.469396 -4.45534 0
M  V30 3267 C 310.021 2.12386 -3.67549 0
M  V30 3268 C 307.928 1.13415 -5.80423 0
M  V30 3269 H 306.858 0.295682 -0.693605 0
M  V30 3270 H 309.509 0.0348051 -1.83467 0
M  V30 3271 H 307.891 2.23588 -3.2684 0
M  V30 3272 H 309.065 -0.294856 -4.59856 0
M  V30 3273 H 307.38 -0.108383 -4.16259 0
M  V30 3274 H 309.977 2.62878 -4.65617 0
M  V30 3275 H 310.32 2.91877 -2.96839 0
M  V30 3276 H 310.853 1.39751 -3.72444 0
M  V30 3277 H 307.592 0.379771 -6.54399 0
M  V30 3278 H 307.112 1.8695 -5.69921 0
M  V30 3279 H 308.791 1.65686 -6.25426 0
M  V30 3280 N 308.923 1.53595 0.353017 0
M  V30 3281 C 309.833 1.83897 1.45667 0
M  V30 3282 C 310.849 0.728334 1.58023 0
M  V30 3283 O 312.025 1.01968 1.73679 0
M  V30 3284 C 309.09 2.03383 2.80778 0
M  V30 3285 C 308.151 3.27262 2.77845 0
M  V30 3286 C 307.384 3.45809 4.06512 0
M  V30 3287 O 307.607 2.68387 5.03314 0
M  V30 3288 O 306.541 4.39207 4.11559 0
M  V30 3289 H 310.367 2.77686 1.2298 0
M  V30 3290 H 307.952 1.39132 0.544308 0
M  V30 3291 H 309.834 2.17698 3.60812 0
M  V30 3292 H 308.509 1.12783 3.03417 0
M  V30 3293 H 307.416 3.18359 1.96465 0
M  V30 3294 H 308.749 4.17824 2.60161 0
M  V30 3295 N 310.401 -0.613514 1.45168 0
M  V30 3296 C 311.351 -1.71871 1.49815 0
M  V30 3297 C 312.335 -1.56774 0.362021 0
M  V30 3298 O 313.527 -1.66212 0.608493 0
M  V30 3299 C 310.656 -3.1061 1.46207 0
M  V30 3300 C 309.742 -3.31114 2.64999 0
M  V30 3301 N 310.133 -3.21904 3.90143 0
M  V30 3302 C 308.431 -3.61966 2.6057 0
M  V30 3303 C 309.132 -3.43577 4.69393 0
M  V30 3304 N 308.108 -3.67287 4.00751 0
M  V30 3305 H 311.91 -1.63235 2.444 0
M  V30 3306 H 309.424 -0.816577 1.40377 0
M  V30 3307 H 311.421 -3.8989 1.4762 0
M  V30 3308 H 310.081 -3.20399 0.52673 0
M  V30 3309 H 311.092 -3.00436 4.21852 0
M  V30 3310 H 307.769 -3.78629 1.75916 0
M  V30 3311 H 309.159 -3.41901 5.78406 0
M  V30 3312 N 311.879 -1.3236 -0.855495 0
M  V30 3313 C 313.127 -1.22629 -1.60644 0
M  V30 3314 C 313.448 0.212136 -1.93843 0
M  V30 3315 O 312.718 1.13666 -1.59552 0
M  V30 3316 H 311.298 -0.450882 -0.595579 0
M  V30 3317 H 313.96 -1.65871 -1.02337 0
M  V30 3318 H 313.056 -1.80832 -2.54374 0
M  V30 3319 N 313.357 1.07166 -1.15556 0
M  V30 3320 C 314.773 1.31899 -0.898603 0
M  V30 3321 C 314.973 1.96333 0.453383 0
M  V30 3322 O 314.029 2.22438 1.19489 0
M  V30 3323 C 315.342 2.20826 -2.04099 0
M  V30 3324 C 316.89 2.34269 -2.07574 0
M  V30 3325 C 317.365 3.26546 -3.21141 0
M  V30 3326 N 318.856 3.34127 -3.20801 0
M  V30 3327 C 319.591 4.05595 -4.05315 0
M  V30 3328 N 319.087 4.79661 -4.99897 0
M  V30 3329 N 320.88 4.01555 -3.93332 0
M  V30 3330 H 313.031 0.637302 -2.02613 0
M  V30 3331 H 315.294 0.343468 -0.883591 0
M  V30 3332 H 315 1.80744 -3.01703 0
M  V30 3333 H 314.874 3.21364 -1.97496 0
M  V30 3334 H 317.261 2.73603 -1.10568 0
M  V30 3335 H 317.342 1.33429 -2.18244 0
M  V30 3336 H 316.986 2.87931 -4.184 0
M  V30 3337 H 316.916 4.27345 -3.07708 0
M  V30 3338 H 319.407 2.81336 -2.52306 0
M  V30 3339 H 319.72 5.31694 -5.60822 0
M  V30 3340 H 318.065 4.78671 -5.03884 0
M  V30 3341 H 321.256 3.42806 -3.18751 0
M  V30 3342 H 321.429 4.56987 -4.5942 0
M  V30 3343 N 314.835 0.952656 1.25548 0
M  V30 3344 C 315.782 0.47008 2.25962 0
M  V30 3345 C 316.752 -0.476384 1.59122 0
M  V30 3346 O 317.937 -0.39007 1.8677 0
M  V30 3347 C 315.077 -0.247881 3.44209 0
M  V30 3348 C 314.19 0.735591 4.25691 0
M  V30 3349 C 313.325 -0.0047306 5.312 0
M  V30 3350 C 312.364 0.969805 6.04368 0
M  V30 3351 N 311.501 0.260486 7.01617 0
M  V30 3352 H 316.341 1.33126 2.66611 0
M  V30 3353 H 313.878 0.66765 1.31076 0
M  V30 3354 H 315.836 -0.680695 4.1161 0
M  V30 3355 H 314.466 -1.07312 3.0444 0
M  V30 3356 H 313.518 1.28689 3.57971 0
M  V30 3357 H 314.83 1.47934 4.76358 0
M  V30 3358 H 313.984 -0.496275 6.04667 0
M  V30 3359 H 312.723 -0.781282 4.81401 0
M  V30 3360 H 311.728 1.47237 5.29718 0
M  V30 3361 H 312.953 1.74655 6.56256 0
M  V30 3362 H 310.899 -0.497364 6.54112 0
M  V30 3363 H 310.816 0.943362 7.50091 0
M  V30 3364 H 312.084 -0.209587 7.79218 0
M  V30 3365 N 316.313 -1.40141 0.720998 0
M  V30 3366 C 317.538 -2.05618 0.271258 0
M  V30 3367 C 317.963 -1.53978 -1.08039 0
M  V30 3368 O 317.321 -0.677463 -1.68167 0
M  V30 3369 C 317.369 -3.59609 0.267197 0
M  V30 3370 O 316.473 -4.05526 -0.749814 0
M  V30 3371 H 315.814 -0.651904 0.126162 0
M  V30 3372 H 318.344 -1.79439 0.982997 0
M  V30 3373 H 318.354 -4.0786 0.106744 0
M  V30 3374 H 317.029 -3.96559 1.25354 0
M  V30 3375 H 315.606 -3.68722 -0.556644 0
M  V30 3376 N 317.792 -0.46758 -1.50504 0
M  V30 3377 C 319.038 0.0887532 -2.02606 0
M  V30 3378 C 319.371 1.39686 -1.34913 0
M  V30 3379 O 318.646 1.88644 -0.473694 0
M  V30 3380 C 318.929 0.276206 -3.59039 0
M  V30 3381 C 318.782 -1.05267 -4.37309 0
M  V30 3382 C 320.101 1.03235 -4.27821 0
M  V30 3383 H 317.22 0.0307814 -0.736357 0
M  V30 3384 H 319.862 -0.612485 -1.79857 0
M  V30 3385 H 318.012 0.8735 -3.78553 0
M  V30 3386 H 319.684 -1.68628 -4.29374 0
M  V30 3387 H 317.927 -1.65015 -4.01189 0
M  V30 3388 H 318.598 -0.875197 -5.45018 0
M  V30 3389 H 321.074 0.526111 -4.12761 0
M  V30 3390 H 319.95 1.1323 -5.37094 0
M  V30 3391 H 320.211 2.06806 -3.90748 0
M  V30 3392 N 319.27 1.56325 -0.20005 0
M  V30 3393 C 320.498 2.02105 0.442874 0
M  V30 3394 C 320.913 1.08014 1.5485 0
M  V30 3395 O 320.27 0.0858797 1.82298 0
M  V30 3396 C 320.321 3.47549 0.994583 0
M  V30 3397 O 320.042 4.38049 -0.0669322 0
M  V30 3398 C 321.543 4.0887 1.7129 0
M  V30 3399 H 318.763 0.661807 0.110691 0
M  V30 3400 H 321.307 2.02134 -0.310207 0
M  V30 3401 H 319.462 3.48204 1.69803 0
M  V30 3402 H 319.876 5.23368 0.344462 0
M  V30 3403 H 321.35 5.12475 2.05118 0
M  V30 3404 H 321.827 3.52615 2.61838 0
M  V30 3405 H 322.433 4.12002 1.05518 0
M  V30 3406 N 320.748 -0.0735177 1.57428 0
M  V30 3407 C 321.678 -1.0879 2.06608 0
M  V30 3408 C 322.659 -1.40473 0.959237 0
M  V30 3409 O 323.844 -1.5013 1.23185 0
M  V30 3410 C 320.974 -2.40183 2.50857 0
M  V30 3411 C 319.928 -2.22858 3.65402 0
M  V30 3412 C 319.254 -3.59619 3.957 0
M  V30 3413 C 320.554 -1.65123 4.95511 0
M  V30 3414 H 322.248 -0.678673 2.91607 0
M  V30 3415 H 319.794 -0.325013 1.40284 0
M  V30 3416 H 321.747 -3.11437 2.83874 0
M  V30 3417 H 320.471 -2.83083 1.62885 0
M  V30 3418 H 319.13 -1.54045 3.32664 0
M  V30 3419 H 318.778 -4.00086 3.04861 0
M  V30 3420 H 318.478 -3.48866 4.72828 0
M  V30 3421 H 320.002 -4.32306 4.31212 0
M  V30 3422 H 321.416 -2.26241 5.26771 0
M  V30 3423 H 319.813 -1.65071 5.7695 0
M  V30 3424 H 320.883 -0.612559 4.81015 0
M  V30 3425 N 322.226 -1.5378 -0.344866 0
M  V30 3426 C 323.472 -1.71216 -1.08687 0
M  V30 3427 C 323.805 -0.473281 -1.88345 0
M  V30 3428 O 323.08 0.52968 -1.87149 0
M  V30 3429 C 323.363 -2.97486 -2.02914 0
M  V30 3430 C 323.216 -4.31579 -1.26727 0
M  V30 3431 C 324.535 -3.19422 -3.0275 0
M  V30 3432 H 321.654 -0.62301 -0.393735 0
M  V30 3433 H 324.296 -1.8645 -0.365563 0
M  V30 3434 H 322.446 -2.84629 -2.64421 0
M  V30 3435 H 324.118 -4.56284 -0.67845 0
M  V30 3436 H 322.361 -4.30049 -0.569273 0
M  V30 3437 H 323.032 -5.16106 -1.95803 0
M  V30 3438 H 325.508 -3.316 -2.51357 0
M  V30 3439 H 324.384 -4.09169 -3.65885 0
M  V30 3440 H 324.645 -2.35656 -3.74057 0
M  V30 3441 N 323.704 0.605807 -1.45491 0
M  V30 3442 C 324.654 1.71074 -1.50724 0
M  V30 3443 C 325.638 1.5658 -0.37033 0
M  V30 3444 O 326.83 1.65887 -0.617299 0
M  V30 3445 C 323.959 3.0983 -1.47852 0
M  V30 3446 C 323.045 3.29704 -2.66751 0
M  V30 3447 N 323.436 3.19831 -3.91844 0
M  V30 3448 C 321.734 3.60579 -2.62486 0
M  V30 3449 C 322.435 3.41083 -4.71208 0
M  V30 3450 N 321.411 3.65157 -4.02693 0
M  V30 3451 H 325.213 1.61937 -2.45263 0
M  V30 3452 H 322.727 0.80912 -1.40808 0
M  V30 3453 H 324.724 3.89101 -1.49686 0
M  V30 3454 H 323.384 3.20115 -0.543714 0
M  V30 3455 H 324.395 2.98194 -4.23439 0
M  V30 3456 H 321.072 3.7769 -1.77922 0
M  V30 3457 H 322.462 3.38828 -5.80211 0
M  V30 3458 N 325.182 1.32811 0.848464 0
M  V30 3459 C 326.129 1.22265 1.95755 0
M  V30 3460 C 327.099 0.103413 1.65778 0
M  V30 3461 O 328.284 0.280033 1.88734 0
M  V30 3462 C 325.424 0.958014 3.31536 0
M  V30 3463 C 324.537 2.16262 3.73971 0
M  V30 3464 C 323.672 1.83295 4.98575 0
M  V30 3465 C 322.711 3.00041 5.33518 0
M  V30 3466 N 321.848 2.67125 6.49299 0
M  V30 3467 H 326.688 2.17128 2.04107 0
M  V30 3468 H 324.225 1.07982 0.998913 0
M  V30 3469 H 326.183 0.785052 4.09747 0
M  V30 3470 H 324.813 0.046159 3.22767 0
M  V30 3471 H 323.865 2.44565 2.91362 0
M  V30 3472 H 325.177 3.03572 3.95785 0
M  V30 3473 H 324.331 1.62586 5.84509 0
M  V30 3474 H 323.07 0.932078 4.7871 0
M  V30 3475 H 322.075 3.21374 4.46093 0
M  V30 3476 H 323.3 3.90869 5.55336 0
M  V30 3477 H 321.246 1.79586 6.3094 0
M  V30 3478 H 321.163 3.47965 6.71161 0
M  V30 3479 H 322.431 2.49861 7.3837 0
M  V30 3480 N 326.66 -1.06551 1.16123 0
M  V30 3481 C 327.908 -1.78947 0.939267 0
M  V30 3482 C 328.229 -1.87532 -0.534476 0
M  V30 3483 O 327.499 -1.38211 -1.38833 0
M  V30 3484 H 326.079 -0.662807 0.344523 0
M  V30 3485 H 328.741 -1.28725 1.46342 0
M  V30 3486 H 327.837 -2.81117 1.35572 0
M  V30 3487 N 328.138 -0.959301 -1.25041 0
M  V30 3488 C 329.086 -0.474437 -2.2771 0
M  V30 3489 C 330.08 0.457697 -1.631 0
M  V30 3490 O 331.286 0.333912 -1.76876 0
M  V30 3491 H 327.661 -0.134936 -0.739795 0
M  V30 3492 H 329.632 -1.35251 -2.65988 0
M  V30 3493 C 328.381 0.227884 -3.46952 0
M  V30 3494 H 327.704 -0.480248 -3.96905 0
M  V30 3495 H 329.144 0.531091 -4.20661 0
M  V30 3496 C 327.603 1.452 -3.04004 0
M  V30 3497 O 328.133 2.54949 -3.10426 0
M  V30 3498 N 326.339 1.31502 -2.59144 0
M  V30 3499 H 325.886 0.422065 -2.54119 0
M  V30 3500 H 325.844 2.13521 -2.30773 0
M  V30 3501 N 329.616 1.39756 -0.72842 0
M  V30 3502 C 330.865 1.99879 -0.270407 0
M  V30 3503 C 331.178 1.58449 1.14688 0
M  V30 3504 O 332.384 2.11362 1.70407 0
M  V30 3505 C 330.84 3.57292 -0.43252 0
M  V30 3506 C 330.448 4.07688 -1.85727 0
M  V30 3507 C 332.192 4.24485 -0.0359507 0
M  V30 3508 C 330.099 5.5765 -1.96928 0
M  V30 3509 H 329.029 0.747689 -0.0973472 0
M  V30 3510 H 331.68 1.59837 -0.901355 0
M  V30 3511 H 330.062 3.95097 0.267219 0
M  V30 3512 H 331.236 3.81231 -2.58843 0
M  V30 3513 H 329.551 3.53135 -2.20646 0
M  V30 3514 H 332.148 5.34609 -0.0987484 0
M  V30 3515 H 332.491 4.03915 1.00787 0
M  V30 3516 H 333.024 3.9183 -0.686604 0
M  V30 3517 H 329.763 5.8309 -2.99476 0
M  V30 3518 H 329.283 5.8593 -1.28241 0
M  V30 3519 H 330.962 6.22957 -1.74737 0
M  V30 3520 N 331.094 0.475555 1.50254 0
M  V30 3521 C 332.027 -0.362381 2.25304 0
M  V30 3522 C 333.005 -0.992393 1.28803 0
M  V30 3523 O 334.189 -1.02746 1.58036 0
M  V30 3524 C 331.316 -1.50813 3.03271 0
M  V30 3525 C 330.362 -0.995044 4.1473 0
M  V30 3526 S 331.195 0.0938436 5.35418 0
M  V30 3527 C 332.351 -1.05567 6.16933 0
M  V30 3528 H 332.584 0.274686 2.96028 0
M  V30 3529 H 330.117 0.260495 1.52187 0
M  V30 3530 H 332.075 -2.16476 3.48781 0
M  V30 3531 H 330.736 -2.11672 2.32064 0
M  V30 3532 H 329.929 -1.85293 4.68703 0
M  V30 3533 H 329.531 -0.416052 3.71679 0
M  V30 3534 H 331.823 -1.96636 6.48337 0
M  V30 3535 H 332.766 -0.555109 7.05921 0
M  V30 3536 H 333.174 -1.31151 5.49053 0
M  V30 3537 N 332.573 -1.56217 0.208337 0
M  V30 3538 C 333.52 -2.19699 -0.707192 0
M  V30 3539 C 334.49 -1.14836 -1.20008 0
M  V30 3540 O 335.675 -1.4314 -1.26157 0
M  V30 3541 C 332.815 -2.87061 -1.91546 0
M  V30 3542 C 331.928 -4.06483 -1.46271 0
M  V30 3543 C 331.063 -4.61665 -2.62752 0
M  V30 3544 C 330.102 -5.73417 -2.14147 0
M  V30 3545 N 329.239 -6.22948 -3.23853 0
M  V30 3546 H 334.079 -2.97575 -0.159111 0
M  V30 3547 H 331.616 -1.46948 -0.0667874 0
M  V30 3548 H 333.574 -3.24294 -2.62468 0
M  V30 3549 H 332.204 -2.11725 -2.43664 0
M  V30 3550 H 331.256 -3.74825 -0.648886 0
M  V30 3551 H 332.568 -4.87271 -1.06622 0
M  V30 3552 H 331.722 -5.01272 -3.41776 0
M  V30 3553 H 330.461 -3.80013 -3.05682 0
M  V30 3554 H 329.466 -5.33326 -1.33581 0
M  V30 3555 H 330.691 -6.56897 -1.72232 0
M  V30 3556 H 328.637 -5.44213 -3.6629 0
M  V30 3557 H 328.554 -6.98823 -2.88414 0
M  V30 3558 H 329.822 -6.6721 -4.03052 0
M  V30 3559 N 334.051 0.0651679 -1.57465 0
M  V30 3560 C 335.298 0.763063 -1.87573 0
M  V30 3561 C 335.626 1.77242 -0.800961 0
M  V30 3562 O 334.881 1.94651 0.202316 0
M  V30 3563 C 335.18 1.50081 -3.24362 0
M  V30 3564 C 334.846 0.630816 -4.46466 0
M  V30 3565 C 333.508 0.391082 -4.79608 0
M  V30 3566 C 335.86 0.0279465 -5.21193 0
M  V30 3567 C 333.188 -0.460894 -5.84887 0
M  V30 3568 C 335.54 -0.811522 -6.27373 0
M  V30 3569 C 334.204 -1.06106 -6.59013 0
M  V30 3570 H 333.474 0.279224 -0.686378 0
M  V30 3571 H 336.121 0.0236726 -1.91485 0
M  V30 3572 H 334.426 2.31258 -3.16271 0
M  V30 3573 H 336.123 2.04571 -3.44894 0
M  V30 3574 H 332.713 0.8278 -4.2053 0
M  V30 3575 H 336.897 0.200262 -4.95896 0
M  V30 3576 H 332.153 -0.662907 -6.07796 0
M  V30 3577 H 336.327 -1.28537 -6.84435 0
M  V30 3578 H 333.954 -1.723 -7.40417 0
M  V30 3579 N 335.529 1.53961 0.336706 0
M  V30 3580 C 336.757 1.75483 1.09605 0
M  V30 3581 C 337.172 0.4972 1.82136 0
M  V30 3582 O 336.529 -0.53149 1.74589 0
M  V30 3583 C 336.58 2.93943 2.10428 0
M  V30 3584 O 336.301 4.14842 1.40846 0
M  V30 3585 C 337.802 3.27571 2.98684 0
M  V30 3586 H 335.022 0.586166 0.326574 0
M  V30 3587 H 337.566 2.00808 0.38683 0
M  V30 3588 H 335.721 2.70929 2.76905 0
M  V30 3589 H 336.135 4.81383 2.08255 0
M  V30 3590 H 337.609 4.13791 3.6535 0
M  V30 3591 H 338.086 2.44168 3.65074 0
M  V30 3592 H 338.692 3.52615 2.37787 0
M  V30 3593 N 337.007 -0.598083 1.45811 0
M  V30 3594 C 337.917 -1.73632 1.57763 0
M  V30 3595 C 338.933 -1.67763 0.461676 0
M  V30 3596 O 340.109 -1.87949 0.723685 0
M  V30 3597 C 337.174 -3.10114 1.55018 0
M  V30 3598 C 336.235 -3.27364 2.77726 0
M  V30 3599 C 335.468 -4.57334 2.75102 0
M  V30 3600 O 335.691 -5.40258 1.8297 0
M  V30 3601 O 334.625 -4.77502 3.66437 0
M  V30 3602 H 338.451 -1.66498 2.53992 0
M  V30 3603 H 336.036 -0.763308 1.28429 0
M  V30 3604 H 337.918 -3.9141 1.56129 0
M  V30 3605 H 336.593 -3.17718 0.619431 0
M  V30 3606 H 335.5 -2.45619 2.82174 0
M  V30 3607 H 336.833 -3.24641 3.69958 0
M  V30 3608 N 338.485 -1.33259 -0.841409 0
M  V30 3609 C 339.733 -1.24326 -1.59334 0
M  V30 3610 C 340.054 0.191564 -1.94057 0
M  V30 3611 O 339.324 1.11967 -1.60749 0
M  V30 3612 H 337.904 -0.457174 -0.590763 0
M  V30 3613 H 340.566 -1.66947 -1.00571 0
M  V30 3614 H 339.662 -1.8352 -2.52442 0
M  V30 3615 N 339.963 1.05934 -1.16686 0
M  V30 3616 C 340.926 2.11669 -0.879144 0
M  V30 3617 C 341.926 1.60294 0.127445 0
M  V30 3618 O 343.116 1.7389 -0.103865 0
M  V30 3619 C 340.248 3.39438 -0.315425 0
M  V30 3620 H 341.441 2.38626 -1.81653 0
M  V30 3621 H 338.994 1.22058 -0.976299 0
M  V30 3622 H 339.729 3.18132 0.629468 0
M  V30 3623 H 339.514 3.78034 -1.04079 0
M  V30 3624 H 341.004 4.17391 -0.132189 0
M  V30 3625 N 341.441 0.965919 1.2453 0
M  V30 3626 C 342.688 0.626831 1.92554 0
M  V30 3627 C 343.016 -0.837739 1.75534 0
M  V30 3628 O 342.271 -1.61793 1.10098 0
M  V30 3629 C 342.57 0.945428 3.44669 0
M  V30 3630 C 342.236 2.39785 3.81856 0
M  V30 3631 C 340.898 2.79483 3.91718 0
M  V30 3632 C 343.25 3.34055 4.00071 0
M  V30 3633 C 340.578 4.12496 4.1721 0
M  V30 3634 C 342.93 4.66694 4.27059 0
M  V30 3635 C 341.594 5.06172 4.3514 0
M  V30 3636 H 340.864 0.229374 0.704605 0
M  V30 3637 H 343.511 1.21707 1.4785 0
M  V30 3638 H 341.816 0.272926 3.90848 0
M  V30 3639 H 343.513 0.661484 3.95507 0
M  V30 3640 H 340.103 2.08003 3.74743 0
M  V30 3641 H 344.287 3.04571 3.91855 0
M  V30 3642 H 339.543 4.42709 4.21685 0
M  V30 3643 H 343.717 5.3971 4.40097 0
M  V30 3644 H 341.344 6.09262 4.54646 0
M  V30 3645 N 342.919 -1.39368 0.735821 0
M  V30 3646 C 343.866 -2.30599 0.0963825 0
M  V30 3647 C 344.836 -1.49257 -0.728794 0
M  V30 3648 O 346.021 -1.77941 -0.688588 0
M  V30 3649 C 343.161 -3.35596 -0.804305 0
M  V30 3650 C 342.274 -4.31987 0.0335761 0
M  V30 3651 C 341.409 -5.24053 -0.868461 0
M  V30 3652 C 340.448 -6.12095 -0.0258776 0
M  V30 3653 N 339.585 -6.96514 -0.883893 0
M  V30 3654 H 344.425 -2.8471 0.880002 0
M  V30 3655 H 341.962 -1.40188 0.445619 0
M  V30 3656 H 343.92 -3.95062 -1.34096 0
M  V30 3657 H 342.55 -2.82938 -1.55389 0
M  V30 3658 H 341.602 -3.74133 0.68766 0
M  V30 3659 H 342.914 -4.94074 0.685036 0
M  V30 3660 H 342.068 -5.88549 -1.47293 0
M  V30 3661 H 340.807 -4.62289 -1.5537 0
M  V30 3662 H 339.812 -5.4661 0.591386 0
M  V30 3663 H 341.037 -6.75923 0.656156 0
M  V30 3664 H 338.983 -6.37318 -1.55441 0
M  V30 3665 H 338.9 -7.55448 -0.288931 0
M  V30 3666 H 340.168 -7.65439 -1.4739 0
M  V30 3667 N 344.397 -0.483516 -1.5 0
M  V30 3668 C 345.345 0.318061 -2.30415 0
M  V30 3669 C 346.339 0.978988 -1.38247 0
M  V30 3670 O 347.545 0.908673 -1.55381 0
M  V30 3671 H 343.92 0.121419 -0.742133 0
M  V30 3672 H 345.891 -0.380403 -2.95965 0
M  V30 3673 C 344.64 1.38013 -3.19136 0
M  V30 3674 H 343.963 0.880952 -3.89973 0
M  V30 3675 H 345.403 1.91332 -3.78375 0
M  V30 3676 C 343.862 2.38884 -2.37563 0
M  V30 3677 O 344.392 3.44412 -2.06744 0
M  V30 3678 N 342.598 2.10912 -1.99911 0
M  V30 3679 H 342.145 1.25118 -2.25174 0
M  V30 3680 H 342.103 2.78635 -1.45636 0
M  V30 3681 N 345.875 1.56104 -0.216619 0
M  V30 3682 C 347.121 1.99219 0.410301 0
M  V30 3683 C 347.476 1.10169 1.57735 0
M  V30 3684 O 346.769 0.150598 1.91007 0
M  V30 3685 C 346.963 3.45923 0.898464 0
M  V30 3686 C 346.792 4.49163 -0.219748 0
M  V30 3687 C 345.562 5.00642 -0.684516 0
M  V30 3688 C 347.76 5.03751 -1.03629 0
M  V30 3689 N 345.742 5.87579 -1.7783 0
M  V30 3690 C 347.113 5.87566 -1.97904 0
M  V30 3691 C 349.168 4.86128 -1.07629 0
M  V30 3692 C 347.871 6.5564 -2.95851 0
M  V30 3693 C 349.897 5.54958 -2.04392 0
M  V30 3694 C 349.259 6.38536 -2.97407 0
M  V30 3695 H 345.358 0.773206 0.11695 0
M  V30 3696 H 347.942 1.9193 -0.327258 0
M  V30 3697 H 346.113 3.53669 1.6054 0
M  V30 3698 H 347.845 3.75963 1.49779 0
M  V30 3699 H 344.6 4.72807 -0.27399 0
M  V30 3700 H 345.024 6.3575 -2.32705 0
M  V30 3701 H 349.666 4.21168 -0.371099 0
M  V30 3702 H 347.384 7.19785 -3.67335 0
M  V30 3703 H 350.97 5.43289 -2.08154 0
M  V30 3704 H 349.85 6.90858 -3.71059 0
M  V30 3705 N 347.353 -0.0568162 1.57498 0
M  V30 3706 C 348.601 -0.751617 1.87604 0
M  V30 3707 C 348.922 -1.77351 0.81066 0
M  V30 3708 O 348.192 -1.95254 -0.159018 0
M  V30 3709 H 346.772 -0.280583 0.692302 0
M  V30 3710 H 349.434 -0.0293483 1.94878 0
M  V30 3711 H 348.53 -1.25852 2.856 0
M  V30 3712 N 348.832 -1.54138 -0.328536 0
M  V30 3713 C 350.062 -1.75807 -1.08516 0
M  V30 3714 C 350.47 -0.50428 -1.82356 0
M  V30 3715 O 349.813 0.534451 -1.75754 0
M  V30 3716 C 349.875 -2.89423 -2.13248 0
M  V30 3717 C 349.539 -4.28504 -1.5885 0
M  V30 3718 C 350.536 -5.09536 -1.03289 0
M  V30 3719 C 348.221 -4.75034 -1.63243 0
M  V30 3720 C 350.215 -6.35206 -0.52845 0
M  V30 3721 C 347.902 -6.00672 -1.12411 0
M  V30 3722 C 348.9 -6.80592 -0.573062 0
M  V30 3723 O 348.588 -8.03867 -0.0723692 0
M  V30 3724 H 348.32 -0.590633 -0.328829 0
M  V30 3725 H 350.874 -2.01819 -0.381868 0
M  V30 3726 H 349.104 -2.5897 -2.87178 0
M  V30 3727 H 350.793 -2.98921 -2.74592 0
M  V30 3728 H 351.559 -4.74745 -0.99206 0
M  V30 3729 H 347.438 -4.12875 -2.05074 0
M  V30 3730 H 350.982 -6.97532 -0.0976774 0
M  V30 3731 H 346.879 -6.34955 -1.162 0
M  V30 3732 H 347.647 -8.18283 -0.188258 0
M  V30 3733 N 350.31 0.590341 -1.46126 0
M  V30 3734 C 351.22 1.72793 -1.58681 0
M  V30 3735 C 352.236 1.67516 -0.470566 0
M  V30 3736 O 353.412 1.87562 -0.733642 0
M  V30 3737 C 350.477 3.09287 -1.5666 0
M  V30 3738 C 349.538 3.25886 -2.79458 0
M  V30 3739 C 348.771 4.55869 -2.77524 0
M  V30 3740 O 348.994 5.3928 -1.85832 0
M  V30 3741 O 347.928 4.75552 -3.68964 0
M  V30 3742 H 351.754 1.65149 -2.54872 0
M  V30 3743 H 349.339 0.756486 -1.28832 0
M  V30 3744 H 351.221 3.90577 -1.58202 0
M  V30 3745 H 349.896 3.17385 -0.636271 0
M  V30 3746 H 348.803 2.44119 -2.83472 0
M  V30 3747 H 350.136 3.22675 -3.71674 0
M  V30 3748 N 351.788 1.33704 0.83433 0
M  V30 3749 C 352.718 1.26967 1.95963 0
M  V30 3750 C 353.699 0.149337 1.69443 0
M  V30 3751 O 354.884 0.339852 1.91203 0
M  V30 3752 C 352.014 1.01275 3.32206 0
M  V30 3753 C 350.968 2.09652 3.73136 0
M  V30 3754 C 350.294 1.69166 5.07235 0
M  V30 3755 C 351.594 3.51372 3.86439 0
M  V30 3756 H 353.288 2.2112 2.01857 0
M  V30 3757 H 350.834 1.06447 0.969793 0
M  V30 3758 H 352.787 0.952106 4.10503 0
M  V30 3759 H 351.511 0.0356203 3.26581 0
M  V30 3760 H 350.17 2.14766 2.97104 0
M  V30 3761 H 349.818 0.701437 4.98085 0
M  V30 3762 H 349.518 2.41694 5.35591 0
M  V30 3763 H 351.042 1.64576 5.88003 0
M  V30 3764 H 352.456 3.48734 4.55036 0
M  V30 3765 H 350.853 4.22425 4.26236 0
M  V30 3766 H 351.923 3.89546 2.88759 0
M  V30 3767 N 353.266 -1.05314 1.17247 0
M  V30 3768 C 354.229 -2.112 0.890357 0
M  V30 3769 C 355.229 -1.60359 -0.118943 0
M  V30 3770 O 356.419 -1.73833 0.113086 0
M  V30 3771 C 353.551 -3.39266 0.333422 0
M  V30 3772 H 354.744 -2.37659 1.82916 0
M  V30 3773 H 352.297 -1.21538 0.982758 0
M  V30 3774 H 353.032 -3.18462 -0.612587 0
M  V30 3775 H 352.817 -3.77477 1.06082 0
M  V30 3776 H 354.307 -4.17315 0.154322 0
M  V30 3777 N 354.744 -0.972509 -1.24016 0
M  V30 3778 C 355.654 -0.5143 -2.28893 0
M  V30 3779 C 356.67 0.427078 -1.68677 0
M  V30 3780 O 357.846 0.298939 -1.99169 0
M  V30 3781 C 354.911 0.183598 -3.46214 0
M  V30 3782 C 353.972 -0.798202 -4.21814 0
M  V30 3783 C 353.205 -0.133514 -5.33533 0
M  V30 3784 O 353.428 1.07714 -5.60137 0
M  V30 3785 O 352.362 -0.828103 -5.96176 0
M  V30 3786 H 356.188 -1.38629 -2.70214 0
M  V30 3787 H 353.773 -0.739769 -1.29799 0
M  V30 3788 H 355.655 0.575433 -4.17453 0
M  V30 3789 H 354.33 1.03048 -3.0686 0
M  V30 3790 H 353.237 -1.24059 -3.52931 0
M  V30 3791 H 354.57 -1.61364 -4.64997 0
M  V30 3792 N 356.222 1.38976 -0.743202 0
M  V30 3793 C 357.169 2.30544 -0.10861 0
M  V30 3794 C 358.139 1.49642 0.720869 0
M  V30 3795 O 359.324 1.78304 0.679142 0
M  V30 3796 C 356.464 3.36018 0.786496 0
M  V30 3797 C 355.577 4.31963 -0.0564849 0
M  V30 3798 C 354.712 5.24506 0.840657 0
M  V30 3799 C 353.751 6.121 -0.00658363 0
M  V30 3800 N 352.888 6.96973 0.846943 0
M  V30 3801 H 357.728 2.8424 -0.895088 0
M  V30 3802 H 355.265 1.3995 -0.453048 0
M  V30 3803 H 357.223 3.95768 1.31999 0
M  V30 3804 H 355.853 2.83758 1.53887 0
M  V30 3805 H 354.905 3.73763 -0.707492 0
M  V30 3806 H 356.217 4.93703 -0.711229 0
M  V30 3807 H 355.371 5.89322 1.4417 0
M  V30 3808 H 354.11 4.63107 1.52916 0
M  V30 3809 H 353.115 5.46289 -0.620366 0
M  V30 3810 H 354.34 6.75565 -0.691992 0
M  V30 3811 H 352.286 6.38133 1.52059 0
M  V30 3812 H 352.203 7.5559 0.248864 0
M  V30 3813 H 353.471 7.6621 1.43328 0
M  V30 3814 N 357.7 0.491464 1.49741 0
M  V30 3815 C 358.61 -0.296835 2.32715 0
M  V30 3816 C 359.626 -0.976536 1.44013 0
M  V30 3817 O 360.802 -0.960023 1.77047 0
M  V30 3818 C 357.867 -1.35288 3.19215 0
M  V30 3819 C 356.928 -0.687632 4.23757 0
M  V30 3820 C 356.161 -1.69336 5.06123 0
M  V30 3821 O 356.384 -2.92219 4.89861 0
M  V30 3822 O 355.318 -1.25394 5.88693 0
M  V30 3823 H 359.144 0.382048 3.01287 0
M  V30 3824 H 356.729 0.252953 1.47243 0
M  V30 3825 H 358.611 -1.96411 3.72828 0
M  V30 3826 H 357.286 -2.01487 2.53347 0
M  V30 3827 H 356.193 -0.0369159 3.74082 0
M  V30 3828 H 357.526 -0.0682566 4.92153 0
M  V30 3829 N 359.178 -1.55987 0.224894 0
M  V30 3830 C 360.408 -2.02489 -0.41007 0
M  V30 3831 C 360.816 -1.10391 -1.53657 0
M  V30 3832 O 360.159 -0.106458 -1.83391 0
M  V30 3833 C 360.221 -3.45319 -0.999757 0
M  V30 3834 C 359.885 -4.56999 -0.00827976 0
M  V30 3835 C 360.882 -5.13812 0.793314 0
M  V30 3836 C 358.567 -5.02176 0.111442 0
M  V30 3837 C 360.561 -6.14276 1.7013 0
M  V30 3838 C 358.248 -6.02477 1.02296 0
M  V30 3839 C 359.246 -6.58403 1.81643 0
M  V30 3840 O 358.934 -7.56751 2.71262 0
M  V30 3841 H 358.666 -0.667915 -0.104235 0
M  V30 3842 H 361.22 -2.0257 0.339782 0
M  V30 3843 H 359.45 -3.42318 -1.79876 0
M  V30 3844 H 361.139 -3.7545 -1.54248 0
M  V30 3845 H 361.905 -4.79756 0.711288 0
M  V30 3846 H 357.784 -4.58323 -0.49605 0
M  V30 3847 H 361.328 -6.57854 2.32107 0
M  V30 3848 H 357.225 -6.35954 1.10599 0
M  V30 3849 H 357.993 -7.74286 2.65375 0
M  V30 3850 N 360.656 0.0484629 -1.57525 0
M  V30 3851 C 361.904 0.741657 -1.88 0
M  V30 3852 C 362.225 1.76918 -0.820054 0
M  V30 3853 O 361.495 1.95335 0.148661 0
M  V30 3854 H 360.075 0.276908 -0.69378 0
M  V30 3855 H 362.737 0.019013 -1.94891 0
M  V30 3856 H 361.833 1.24336 -2.86264 0
M  V30 3857 N 362.134 1.5431 0.320358 0
M  V30 3858 C 363.411 1.63322 1.07635 0
M  V30 3859 C 363.791 0.46912 2.05821 0
M  V30 3860 O 363.139 -0.536274 2.22118 0
M  V30 3861 C 363.349 3.00465 1.77544 0
M  V30 3862 C 364.697 3.56621 2.30449 0
M  V30 3863 O 365.721 3.02791 1.87606 0
M  V30 3864 O 364.58 4.5083 3.08892 0
M  V30 3865 H 361.674 0.661502 0.496331 0
M  V30 3866 H 364.22 1.66656 0.319992 0
M  V30 3867 H 362.992 3.76629 1.06143 0
M  V30 3868 H 362.615 3.00824 2.59982 0
M  V30 3869 N 363.613 -0.582584 1.46437 0
M  V30 3870 C 364.56 -1.69164 1.5701 0
M  V30 3871 C 365.53 -1.60847 0.414403 0
M  V30 3872 O 366.715 -1.80058 0.631171 0
M  V30 3873 C 363.855 -3.075 1.56646 0
M  V30 3874 C 362.968 -3.2644 2.82951 0
M  V30 3875 C 362.103 -4.55026 2.7409 0
M  V30 3876 C 361.142 -4.6731 3.95333 0
M  V30 3877 N 360.279 -5.87221 3.84858 0
M  V30 3878 H 365.119 -1.59464 2.51744 0
M  V30 3879 H 362.656 -0.777186 1.24893 0
M  V30 3880 H 364.614 -3.8757 1.5442 0
M  V30 3881 H 363.244 -3.16096 0.654439 0
M  V30 3882 H 362.296 -2.39974 2.95155 0
M  V30 3883 H 363.608 -3.31385 3.72808 0
M  V30 3884 H 362.762 -5.43324 2.6997 0
M  V30 3885 H 361.501 -4.52519 1.81873 0
M  V30 3886 H 360.506 -3.77429 3.99784 0
M  V30 3887 H 361.731 -4.71595 4.88646 0
M  V30 3888 H 359.677 -5.85712 2.95427 0
M  V30 3889 H 359.594 -5.93435 4.6837 0
M  V30 3890 H 360.862 -6.7795 3.84713 0
M  V30 3891 N 365.091 -1.34144 -0.827227 0
M  V30 3892 C 366.337 -1.26446 -1.58554 0
M  V30 3893 C 366.67 0.1664 -1.93486 0
M  V30 3894 O 365.945 1.1107 -1.59667 0
M  V30 3895 C 366.228 -2.15111 -2.8879 0
M  V30 3896 C 366.081 -3.66712 -2.60465 0
M  V30 3897 C 367.4 -2.03311 -3.90324 0
M  V30 3898 H 364.519 -0.46067 -0.575284 0
M  V30 3899 H 367.161 -1.64356 -0.953269 0
M  V30 3900 H 365.311 -1.8291 -3.42748 0
M  V30 3901 H 366.983 -4.09259 -2.1285 0
M  V30 3902 H 365.226 -3.88014 -1.93978 0
M  V30 3903 H 365.897 -4.24112 -3.53317 0
M  V30 3904 H 368.373 -2.31574 -3.45706 0
M  V30 3905 H 367.249 -2.67582 -4.79261 0
M  V30 3906 H 367.51 -1.00879 -4.30437 0
M  V30 3907 N 366.569 1.04691 -1.17803 0
M  V30 3908 C 367.816 1.77782 -0.969532 0
M  V30 3909 C 368.144 1.87926 0.501401 0
M  V30 3910 O 367.399 1.37918 1.38842 0
M  V30 3911 C 367.698 3.21467 -1.56186 0
M  V30 3912 C 367.364 3.3137 -3.05786 0
M  V30 3913 C 366.026 3.3378 -3.46619 0
M  V30 3914 C 368.378 3.31976 -4.01797 0
M  V30 3915 C 365.706 3.34431 -4.82051 0
M  V30 3916 C 368.058 3.34167 -5.37136 0
M  V30 3917 C 366.722 3.34866 -5.77426 0
M  V30 3918 H 365.992 0.650549 -0.354777 0
M  V30 3919 H 368.639 1.23006 -1.46772 0
M  V30 3920 H 366.944 3.79203 -0.985515 0
M  V30 3921 H 368.641 3.76652 -1.37602 0
M  V30 3922 H 365.231 3.3021 -2.73238 0
M  V30 3923 H 369.415 3.29311 -3.71306 0
M  V30 3924 H 364.671 3.33285 -5.12573 0
M  V30 3925 H 368.845 3.33585 -6.11305 0
M  V30 3926 H 366.472 3.35124 -6.82346 0
M  V30 3927 N 368.047 0.979072 1.23499 0
M  V30 3928 C 369.275 0.665202 1.95915 0
M  V30 3929 C 369.69 -0.767571 1.72493 0
M  V30 3930 O 369.047 -1.51635 1.01554 0
M  V30 3931 C 369.098 0.944438 3.48945 0
M  V30 3932 O 368.819 2.3209 3.71572 0
M  V30 3933 C 370.32 0.646336 4.38563 0
M  V30 3934 H 367.54 0.247218 0.623798 0
M  V30 3935 H 370.084 1.31009 1.57025 0
M  V30 3936 H 368.239 0.345575 3.85856 0
M  V30 3937 H 368.653 2.40957 4.65876 0
M  V30 3938 H 370.127 0.892091 5.44744 0
M  V30 3939 H 370.604 -0.419575 4.37191 0
M  V30 3940 H 371.21 1.22562 4.07258 0
M  V30 3941 N 369.525 -1.3858 0.750561 0
M  V30 3942 C 370.771 -2.0095 0.31477 0
M  V30 3943 C 371.126 -1.58509 -1.09053 0
M  V30 3944 O 370.419 -0.8112 -1.7358 0
M  V30 3945 C 370.613 -3.55455 0.372373 0
M  V30 3946 C 370.442 -4.12898 1.78173 0
M  V30 3947 C 369.212 -4.44797 2.39757 0
M  V30 3948 C 371.41 -4.35366 2.7379 0
M  V30 3949 N 369.392 -4.87831 3.72685 0
M  V30 3950 C 370.763 -4.80775 3.91478 0
M  V30 3951 C 372.818 -4.1746 2.71351 0
M  V30 3952 C 371.521 -5.10155 5.07084 0
M  V30 3953 C 373.547 -4.47963 3.86113 0
M  V30 3954 C 372.909 -4.93593 5.02539 0
M  V30 3955 H 369.008 -0.765083 0.161776 0
M  V30 3956 H 371.592 -1.68246 0.979867 0
M  V30 3957 H 369.763 -3.87512 -0.26244 0
M  V30 3958 H 371.495 -4.04614 -0.0834479 0
M  V30 3959 H 368.25 -4.33135 1.91548 0
M  V30 3960 H 368.674 -5.13685 4.40972 0
M  V30 3961 H 373.316 -3.81372 1.82524 0
M  V30 3962 H 371.034 -5.45141 5.96529 0
M  V30 3963 H 374.62 -4.35717 3.85542 0
M  V30 3964 H 373.5 -5.16746 5.89867 0
M  V30 3965 N 371.003 -0.499398 -1.49478 0
M  V30 3966 C 371.966 0.268838 -2.27618 0
M  V30 3967 C 372.966 0.895383 -1.33565 0
M  V30 3968 O 374.156 0.760164 -1.56739 0
M  V30 3969 C 371.288 1.38559 -3.11471 0
M  V30 3970 H 372.481 -0.416812 -2.96989 0
M  V30 3971 H 370.034 -0.254313 -1.54217 0
M  V30 3972 H 370.769 2.10544 -2.46661 0
M  V30 3973 H 370.554 0.941797 -3.80621 0
M  V30 3974 H 372.044 1.92678 -3.70493 0
M  V30 3975 N 372.481 1.55866 -0.233164 0
M  V30 3976 C 373.413 2.18099 0.704668 0
M  V30 3977 C 374.426 1.15334 1.14899 0
M  V30 3978 O 375.615 1.42262 1.07814 0
M  V30 3979 C 372.715 2.7592 1.96777 0
M  V30 3980 C 371.888 4.03969 1.67713 0
M  V30 3981 C 370.947 4.46242 2.78845 0
M  V30 3982 O 369.973 5.12903 2.46818 0
M  V30 3983 N 371.175 4.12886 4.08051 0
M  V30 3984 H 373.94 2.99205 0.172258 0
M  V30 3985 H 371.501 1.61815 -0.0525945 0
M  V30 3986 H 373.493 3.01165 2.70337 0
M  V30 3987 H 372.063 1.99051 2.41034 0
M  V30 3988 H 371.283 3.86459 0.777391 0
M  V30 3989 H 372.571 4.8748 1.4574 0
M  V30 3990 H 371.969 3.59342 4.3691 0
M  V30 3991 H 370.526 4.42997 4.78118 0
M  V30 3992 N 373.959 -0.0401083 1.57549 0
M  V30 3993 C 375.189 -0.744115 1.92734 0
M  V30 3994 C 375.597 -1.70005 0.830348 0
M  V30 3995 O 374.94 -1.82576 -0.20286 0
M  V30 3996 C 375.002 -1.56516 3.2364 0
M  V30 3997 C 374.666 -0.7752 4.50377 0
M  V30 3998 C 375.663 -0.0803326 5.19838 0
M  V30 3999 C 373.348 -0.733002 4.96923 0
M  V30 4000 C 375.342 0.646154 6.34116 0
M  V30 4001 C 373.029 -0.00276321 6.111 0
M  V30 4002 C 374.027 0.685585 6.7955 0
M  V30 4003 O 373.715 1.40399 7.91545 0
M  V30 4004 H 373.447 -0.214861 0.640945 0
M  V30 4005 H 376.001 -0.00503675 2.05399 0
M  V30 4006 H 374.231 -2.3478 3.07271 0
M  V30 4007 H 375.92 -2.15076 3.44234 0
M  V30 4008 H 376.686 -0.104035 4.84888 0
M  V30 4009 H 372.565 -1.25827 4.43496 0
M  V30 4010 H 376.109 1.18398 6.87479 0
M  V30 4011 H 372.006 0.0229012 6.45496 0
M  V30 4012 H 372.774 1.31653 8.07843 0
M  V30 4013 N 375.437 -1.54477 -0.31217 0
M  V30 4014 C 376.714 -1.63891 -1.06767 0
M  V30 4015 C 377.094 -0.480028 -2.0557 0
M  V30 4016 O 376.442 0.524487 -2.22399 0
M  V30 4017 C 376.652 -3.01402 -1.75948 0
M  V30 4018 C 378 -3.57838 -2.28554 0
M  V30 4019 O 379.024 -3.03782 -1.85998 0
M  V30 4020 O 377.883 -4.52462 -3.06497 0
M  V30 4021 H 374.977 -0.664125 -0.492816 0
M  V30 4022 H 377.523 -1.66823 -0.311149 0
M  V30 4023 H 376.295 -3.77187 -1.04144 0
M  V30 4024 H 375.918 -3.02199 -2.58383 0
M  V30 4025 N 376.915 0.57481 -1.46744 0
M  V30 4026 C 378.331 0.898981 -1.31873 0
M  V30 4027 C 378.531 1.99313 -0.29605 0
M  V30 4028 O 377.587 2.50728 0.298621 0
M  V30 4029 C 378.9 1.30886 -2.7072 0
M  V30 4030 C 380.448 1.42127 -2.78871 0
M  V30 4031 C 380.923 1.86478 -4.18318 0
M  V30 4032 N 382.414 1.93658 -4.20774 0
M  V30 4033 C 383.149 2.29267 -5.2557 0
M  V30 4034 N 382.645 2.63612 -6.40688 0
M  V30 4035 N 384.438 2.29889 -5.1294 0
M  V30 4036 H 376.589 -0.147839 -2.11885 0
M  V30 4037 H 378.852 -0.00347013 -0.947994 0
M  V30 4038 H 378.558 0.578853 -3.46904 0
M  V30 4039 H 378.432 2.26874 -3.01343 0
M  V30 4040 H 380.819 2.14213 -2.0297 0
M  V30 4041 H 380.9 0.443705 -2.51922 0
M  V30 4042 H 380.544 1.14968 -4.94717 0
M  V30 4043 H 380.474 2.85207 -4.42679 0
M  V30 4044 H 382.965 1.69574 -3.37718 0
M  V30 4045 H 383.278 2.89759 -7.16421 0
M  V30 4046 H 381.623 2.61232 -6.44036 0
M  V30 4047 H 384.814 2.02485 -4.22039 0
M  V30 4048 H 384.987 2.57312 -5.94722 0
M  V30 4049 N 378.394 1.34581 0.820102 0
M  V30 4050 C 379.643 1.26437 1.57151 0
M  V30 4051 C 379.956 -0.163111 1.94919 0
M  V30 4052 O 381.162 -0.366722 2.69012 0
M  V30 4053 C 379.618 2.21658 2.83541 0
M  V30 4054 C 379.226 3.69679 2.53065 0
M  V30 4055 C 380.97 2.22428 3.61561 0
M  V30 4056 C 378.877 4.56761 3.75664 0
M  V30 4057 H 377.807 0.469707 0.589823 0
M  V30 4058 H 380.458 1.59763 0.902656 0
M  V30 4059 H 378.84 1.81287 3.52067 0
M  V30 4060 H 380.014 4.18605 1.92631 0
M  V30 4061 H 378.329 3.71384 1.88316 0
M  V30 4062 H 380.926 2.8471 4.52597 0
M  V30 4063 H 381.269 1.22434 3.97889 0
M  V30 4064 H 381.802 2.61259 2.99981 0
M  V30 4065 H 378.541 5.57702 3.44454 0
M  V30 4066 H 378.061 4.12568 4.35371 0
M  V30 4067 H 379.74 4.71509 4.43044 0
M  V30 4068 N 379.872 -1.04064 1.18357 0
M  V30 4069 C 380.835 -2.10243 0.912707 0
M  V30 4070 C 381.835 -1.60477 -0.101928 0
M  V30 4071 O 383.025 -1.73703 0.131517 0
M  V30 4072 C 380.157 -3.38893 0.369387 0
M  V30 4073 H 381.35 -2.35706 1.85426 0
M  V30 4074 H 378.903 -1.20489 0.995594 0
M  V30 4075 H 379.638 -3.19094 -0.578776 0
M  V30 4076 H 379.423 -3.76331 1.1008 0
M  V30 4077 H 380.913 -4.17128 0.198575 0
M  V30 4078 N 381.35 -0.985608 -1.22978 0
M  V30 4079 C 382.26 -0.538548 -2.28335 0
M  V30 4080 C 383.276 0.409163 -1.69121 0
M  V30 4081 O 384.452 0.277797 -1.99475 0
M  V30 4082 C 381.517 0.146867 -3.46389 0
M  V30 4083 C 380.578 -0.842896 -4.20944 0
M  V30 4084 C 379.811 -0.190095 -5.33361 0
M  V30 4085 O 380.034 1.01767 -5.61248 0
M  V30 4086 O 378.968 -0.891289 -5.95264 0
M  V30 4087 H 382.794 -1.41487 -2.68729 0
M  V30 4088 H 380.379 -0.753495 -1.29007 0
M  V30 4089 H 382.261 0.531125 -4.1804 0
M  V30 4090 H 380.936 0.997871 -3.07935 0
M  V30 4091 H 379.843 -1.27795 -3.51595 0
M  V30 4092 H 381.176 -1.66287 -4.6326 0
M  V30 4093 N 382.828 1.3818 -0.7579 0
M  V30 4094 C 383.738 2.3421 -0.135247 0
M  V30 4095 C 384.754 1.59487 0.695683 0
M  V30 4096 O 385.93 1.91657 0.618832 0
M  V30 4097 C 382.995 3.3862 0.744139 0
M  V30 4098 C 382.056 4.2918 -0.101658 0
M  V30 4099 C 381.289 5.28603 0.735851 0
M  V30 4100 O 381.512 5.35166 1.97366 0
M  V30 4101 O 380.446 6.01707 0.152372 0
M  V30 4102 H 384.272 2.8916 -0.928436 0
M  V30 4103 H 381.857 1.40101 -0.518855 0
M  V30 4104 H 383.739 4.02539 1.2466 0
M  V30 4105 H 382.414 2.86019 1.51575 0
M  V30 4106 H 381.321 3.68407 -0.650167 0
M  V30 4107 H 382.654 4.85048 -0.836024 0
M  V30 4108 N 384.306 0.507319 1.49211 0
M  V30 4109 C 385.238 -0.304532 2.27168 0
M  V30 4110 C 386.251 -0.924956 1.33972 0
M  V30 4111 O 387.44 -0.807227 1.59205 0
M  V30 4112 C 384.54 -1.44431 3.06583 0
M  V30 4113 C 383.713 -0.930026 4.27398 0
M  V30 4114 C 382.772 -1.94817 4.88807 0
M  V30 4115 O 381.798 -1.51418 5.4869 0
M  V30 4116 N 383 -3.279 4.79022 0
M  V30 4117 H 385.765 0.36395 2.97482 0
M  V30 4118 H 383.326 0.340249 1.58284 0
M  V30 4119 H 385.318 -2.12311 3.44537 0
M  V30 4120 H 383.888 -2.01684 2.38835 0
M  V30 4121 H 383.108 -0.0759244 3.94127 0
M  V30 4122 H 384.396 -0.564932 5.05654 0
M  V30 4123 H 383.794 -3.65843 4.3148 0
M  V30 4124 H 382.351 -3.91476 5.21142 0
M  V30 4125 N 385.784 -1.5574 0.241426 0
M  V30 4126 C 387.032 -1.98417 -0.384075 0
M  V30 4127 C 387.353 -1.13078 -1.58866 0
M  V30 4128 O 386.623 -0.212312 -1.94746 0
M  V30 4129 H 385.203 -0.732813 -0.144894 0
M  V30 4130 H 387.865 -1.9193 0.338943 0
M  V30 4131 H 386.961 -3.04219 -0.696939 0
M  V30 4132 N 387.262 0.0317525 -1.57568 0
M  V30 4133 C 388.209 1.0332 -2.06382 0
M  V30 4134 C 389.179 1.36082 -0.952414 0
M  V30 4135 O 390.364 1.46466 -1.2228 0
M  V30 4136 C 387.504 2.32989 -2.54578 0
M  V30 4137 C 386.617 2.0641 -3.79498 0
M  V30 4138 C 385.752 3.2993 -4.16317 0
M  V30 4139 C 384.791 2.98893 -5.34162 0
M  V30 4140 N 383.928 4.14857 -5.66426 0
M  V30 4141 H 388.768 0.609982 -2.9169 0
M  V30 4142 H 386.305 0.289573 -1.44222 0
M  V30 4143 H 388.263 3.0875 -2.80587 0
M  V30 4144 H 386.893 2.73039 -1.7219 0
M  V30 4145 H 385.945 1.21158 -3.6059 0
M  V30 4146 H 387.257 1.79513 -4.65378 0
M  V30 4147 H 386.411 4.1406 -4.4344 0
M  V30 4148 H 385.15 3.59938 -3.29083 0
M  V30 4149 H 384.155 2.13164 -5.06795 0
M  V30 4150 H 385.38 2.70165 -6.23047 0
M  V30 4151 H 383.326 4.44821 -4.82151 0
M  V30 4152 H 383.243 3.91374 -6.4681 0
M  V30 4153 H 384.511 4.99868 -5.98124 0
M  V30 4154 N 388.74 1.54641 0.303973 0
M  V30 4155 C 390.017 1.64455 1.05896 0
M  V30 4156 C 390.397 0.490923 2.05312 0
M  V30 4157 O 389.745 -0.512685 2.22674 0
M  V30 4158 C 389.955 3.02331 1.74347 0
M  V30 4159 C 391.303 3.59045 2.26653 0
M  V30 4160 O 392.327 3.04764 1.84384 0
M  V30 4161 O 391.186 4.54081 3.04093 0
M  V30 4162 H 388.28 0.666729 0.489287 0
M  V30 4163 H 390.826 1.66986 0.302298 0
M  V30 4164 H 389.598 3.77734 1.02142 0
M  V30 4165 H 389.221 3.03565 2.56777 0
M  V30 4166 N 390.218 -0.567019 1.47046 0
M  V30 4167 C 391.181 -1.65696 1.58359 0
M  V30 4168 C 392.181 -1.54097 0.459441 0
M  V30 4169 O 393.371 -1.58432 0.724225 0
M  V30 4170 C 390.503 -3.05197 1.51879 0
M  V30 4171 H 391.696 -1.57019 2.5551 0
M  V30 4172 H 389.249 -0.786148 1.3509 0
M  V30 4173 H 389.984 -3.19417 0.560673 0
M  V30 4174 H 389.769 -3.15025 2.33455 0
M  V30 4175 H 391.259 -3.84511 1.62913 0
M  V30 4176 N 391.696 -1.35014 -0.812953 0
M  V30 4177 C 392.659 -1.27292 -1.90602 0
M  V30 4178 C 393.659 -0.185817 -1.59723 0
M  V30 4179 O 394.849 -0.439102 -1.68575 0
M  V30 4180 C 391.981 -0.967676 -3.26877 0
M  V30 4181 H 393.174 -2.24479 -1.9887 0
M  V30 4182 H 390.727 -1.19446 -1.00808 0
M  V30 4183 H 391.462 0.0005954 -3.243 0
M  V30 4184 H 391.247 -1.75412 -3.50675 0
M  V30 4185 H 392.737 -0.939085 -4.06904 0
M  V30 4186 N 393.175 1.03435 -1.18907 0
M  V30 4187 C 394.123 2.13703 -0.918353 0
M  V30 4188 C 395.117 1.68947 0.123767 0
M  V30 4189 O 396.323 1.79983 -0.0249701 0
M  V30 4190 H 392.698 0.698112 -0.279542 0
M  V30 4191 H 394.669 2.33731 -1.85506 0
M  V30 4192 C 393.418 3.44542 -0.467532 0
M  V30 4193 H 392.741 3.79394 -1.26095 0
M  V30 4194 H 394.181 4.22812 -0.317164 0
M  V30 4195 C 392.64 3.26829 0.817588 0
M  V30 4196 O 393.17 3.54975 1.88031 0
M  V30 4197 N 391.376 2.80139 0.772677 0
M  V30 4198 H 390.923 2.57434 -0.0923883 0
M  V30 4199 H 390.881 2.68668 1.63294 0
M  V30 4200 N 394.653 0.992116 1.22453 0
M  V30 4201 C 395.6 0.541731 2.24352 0
M  V30 4202 C 396.57 -0.425519 1.60557 0
M  V30 4203 O 397.755 -0.330453 1.87917 0
M  V30 4204 C 394.895 -0.138248 3.44823 0
M  V30 4205 C 394.008 0.870649 4.23136 0
M  V30 4206 C 393.143 0.164269 5.30946 0
M  V30 4207 C 392.182 1.16159 6.00977 0
M  V30 4208 N 391.319 0.483568 7.00433 0
M  V30 4209 H 396.159 1.41541 2.62241 0
M  V30 4210 H 393.696 0.709013 1.28885 0
M  V30 4211 H 395.654 -0.5494 4.13567 0
M  V30 4212 H 394.284 -0.975721 3.077 0
M  V30 4213 H 393.336 1.40013 3.53696 0
M  V30 4214 H 394.648 1.63014 4.7141 0
M  V30 4215 H 393.802 -0.303653 6.0594 0
M  V30 4216 H 392.541 -0.627733 4.83643 0
M  V30 4217 H 391.546 1.64015 5.24766 0
M  V30 4218 H 392.771 1.95445 6.50368 0
M  V30 4219 H 390.717 -0.289012 6.55363 0
M  V30 4220 H 390.634 1.18152 7.4671 0
M  V30 4221 H 391.902 0.0384219 7.79491 0
M  V30 4222 N 396.131 -1.37776 0.765217 0
M  V30 4223 C 397.094 -2.28686 0.153416 0
M  V30 4224 C 398.094 -1.47727 -0.635081 0
M  V30 4225 O 399.284 -1.68027 -0.459632 0
M  V30 4226 C 396.416 -3.31608 -0.790495 0
M  V30 4227 H 397.609 -2.84297 0.954723 0
M  V30 4228 H 395.162 -1.46932 0.53299 0
M  V30 4229 H 395.897 -2.81109 -1.61705 0
M  V30 4230 H 395.682 -3.9144 -0.227348 0
M  V30 4231 H 397.172 -3.99559 -1.21419 0
M  V30 4232 N 397.609 -0.515225 -1.4894 0
M  V30 4233 C 398.541 0.292481 -2.27326 0
M  V30 4234 C 399.554 0.917838 -1.3446 0
M  V30 4235 O 400.743 0.798772 -1.5963 0
M  V30 4236 C 397.843 1.42803 -3.07344 0
M  V30 4237 C 397.016 0.907347 -4.27885 0
M  V30 4238 C 396.075 1.92222 -4.89834 0
M  V30 4239 O 395.101 1.48506 -5.49486 0
M  V30 4240 N 396.303 3.25355 -4.80754 0
M  V30 4241 H 399.068 -0.379721 -2.97285 0
M  V30 4242 H 396.629 -0.348638 -1.58102 0
M  V30 4243 H 398.621 2.10481 -3.45658 0
M  V30 4244 H 397.191 2.00414 -2.39902 0
M  V30 4245 H 396.411 0.0550218 -3.94162 0
M  V30 4246 H 397.699 0.538108 -5.05946 0
M  V30 4247 H 397.097 3.6355 -4.33414 0
M  V30 4248 H 395.654 3.88707 -5.23211 0
M  V30 4249 N 399.087 1.5561 -0.249682 0
M  V30 4250 C 400.312 2.03865 0.381305 0
M  V30 4251 C 400.737 1.12769 1.50548 0
M  V30 4252 O 400.095 0.121189 1.80895 0
M  V30 4253 C 400.143 3.50101 0.863816 0
M  V30 4254 O 399.247 3.62132 1.97318 0
M  V30 4255 H 398.588 0.658827 0.0827194 0
M  V30 4256 H 401.118 2.01105 -0.376552 0
M  V30 4257 H 401.128 3.90975 1.1663 0
M  V30 4258 H 399.803 4.1588 0.0411816 0
M  V30 4259 H 398.38 3.33155 1.67517 0
M  V30 4260 N 400.565 -0.0233959 1.57583 0
M  V30 4261 C 401.475 -1.03907 2.10334 0
M  V30 4262 C 402.491 -1.39257 1.04323 0
M  V30 4263 O 403.667 -1.48462 1.36091 0
M  V30 4264 C 400.732 -2.31938 2.57693 0
M  V30 4265 C 399.793 -2.03117 3.78209 0
M  V30 4266 C 399.026 -3.25043 4.233 0
M  V30 4267 O 399.249 -4.35916 3.67876 0
M  V30 4268 O 398.183 -3.10411 5.15683 0
M  V30 4269 H 402.009 -0.620748 2.97288 0
M  V30 4270 H 399.594 -0.240743 1.47448 0
M  V30 4271 H 401.476 -3.07196 2.88458 0
M  V30 4272 H 400.151 -2.73055 1.73847 0
M  V30 4273 H 399.058 -1.25408 3.52454 0
M  V30 4274 H 400.391 -1.66852 4.63056 0
M  V30 4275 N 402.043 -1.548 -0.295768 0
M  V30 4276 C 403.006 -1.85363 -1.34808 0
M  V30 4277 C 404.006 -0.726817 -1.43436 0
M  V30 4278 O 405.196 -0.995088 -1.42981 0
M  V30 4279 C 402.328 -2.03859 -2.73229 0
M  V30 4280 H 403.521 -2.7941 -1.08949 0
M  V30 4281 H 401.074 -1.46942 -0.532702 0
M  V30 4282 H 401.809 -1.12117 -3.04303 0
M  V30 4283 H 401.594 -2.8588 -2.68356 0
M  V30 4284 H 403.084 -2.28857 -3.49305 0
M  V30 4285 N 403.521 0.559213 -1.47345 0
M  V30 4286 C 404.431 1.69388 -1.62311 0
M  V30 4287 C 405.447 1.6648 -0.505993 0
M  V30 4288 O 406.623 1.85964 -0.773262 0
M  V30 4289 C 403.688 3.05894 -1.63185 0
M  V30 4290 C 402.749 3.19885 -2.86307 0
M  V30 4291 C 401.982 4.49879 -2.87131 0
M  V30 4292 O 402.205 5.35217 -1.97229 0
M  V30 4293 O 401.139 4.67618 -3.78968 0
M  V30 4294 H 404.965 1.59706 -2.58317 0
M  V30 4295 H 402.55 0.728989 -1.30407 0
M  V30 4296 H 404.432 3.87133 -1.66451 0
M  V30 4297 H 403.107 3.15964 -0.70345 0
M  V30 4298 H 402.014 2.38052 -2.88587 0
M  V30 4299 H 403.347 3.14718 -3.78435 0
M  V30 4300 N 404.999 1.35443 0.805782 0
M  V30 4301 C 405.962 1.28301 1.89925 0
M  V30 4302 C 406.962 0.194285 1.59622 0
M  V30 4303 O 408.152 0.448036 1.6834 0
M  V30 4304 C 405.284 0.984997 3.2636 0
M  V30 4305 H 406.477 2.2553 1.97677 0
M  V30 4306 H 404.03 1.19979 1.00173 0
M  V30 4307 H 404.765 0.016603 3.24296 0
M  V30 4308 H 404.55 1.77269 3.4974 0
M  V30 4309 H 406.04 0.960651 4.064 0
M  V30 4310 N 406.477 -1.02803 1.19454 0
M  V30 4311 C 407.44 -2.09264 0.934955 0
M  V30 4312 C 408.44 -1.60576 -0.0849015 0
M  V30 4313 O 409.63 -1.73554 0.149933 0
M  V30 4314 C 406.762 -3.38482 0.40531 0
M  V30 4315 H 407.955 -2.33726 1.87916 0
M  V30 4316 H 405.508 -1.19426 1.00832 0
M  V30 4317 H 406.243 -3.19689 -0.544899 0
M  V30 4318 H 406.028 -3.75142 1.14065 0
M  V30 4319 H 407.518 -4.16894 0.242806 0
M  V30 4320 N 407.956 -0.998596 -1.21925 0
M  V30 4321 C 409.204 -0.676325 -1.90448 0
M  V30 4322 C 409.525 0.794719 -1.78071 0
M  V30 4323 O 408.795 1.5701 -1.17152 0
M  V30 4324 H 407.375 -0.247165 -0.704925 0
M  V30 4325 H 410.037 -1.26633 -1.48156 0
M  V30 4326 H 409.133 -0.943858 -2.97486 0
M  V30 4327 N 409.434 1.37368 -0.772513 0
M  V30 4328 C 410.381 2.30262 -0.157488 0
M  V30 4329 C 411.351 1.51137 0.688965 0
M  V30 4330 O 412.536 1.79704 0.641168 0
M  V30 4331 C 409.676 3.37611 0.715045 0
M  V30 4332 C 408.789 4.31746 -0.148098 0
M  V30 4333 C 407.924 5.26171 0.729213 0
M  V30 4334 C 406.963 6.11948 -0.136418 0
M  V30 4335 N 406.1 6.98613 0.698914 0
M  V30 4336 H 410.94 2.82277 -0.955179 0
M  V30 4337 H 408.477 1.38957 -0.482631 0
M  V30 4338 H 410.435 3.98479 1.23575 0
M  V30 4339 H 409.065 2.86959 1.47833 0
M  V30 4340 H 408.117 3.72178 -0.786613 0
M  V30 4341 H 409.429 4.92084 -0.81579 0
M  V30 4342 H 408.583 5.92247 1.31637 0
M  V30 4343 H 407.322 4.66246 1.43059 0
M  V30 4344 H 406.327 5.4485 -0.736102 0
M  V30 4345 H 407.552 6.73945 -0.835134 0
M  V30 4346 H 405.498 6.41215 1.38489 0
M  V30 4347 H 405.415 7.55948 0.0885358 0
M  V30 4348 H 406.683 7.69077 1.27044 0
M  V30 4349 N 410.912 0.523116 1.48665 0
M  V30 4350 C 412.161 -0.01544 2.01694 0
M  V30 4351 C 412.474 -1.35975 1.40606 0
M  V30 4352 O 413.68 -1.98627 1.85093 0
M  V30 4353 C 412.136 -0.0779303 3.59816 0
M  V30 4354 C 411.744 1.26107 4.29885 0
M  V30 4355 C 413.488 -0.565678 4.20714 0
M  V30 4356 C 411.395 1.15954 5.79921 0
M  V30 4357 H 410.325 -0.00954163 0.75394 0
M  V30 4358 H 412.976 0.665865 1.70993 0
M  V30 4359 H 411.358 -0.824165 3.87329 0
M  V30 4360 H 412.532 2.02233 4.14051 0
M  V30 4361 H 410.847 1.68401 3.80828 0
M  V30 4362 H 413.444 -0.6595 5.30617 0
M  V30 4363 H 413.787 -1.56984 3.85567 0
M  V30 4364 H 414.32 0.12467 3.97605 0
M  V30 4365 H 411.059 2.13864 6.19631 0
M  V30 4366 H 410.579 0.439529 5.98187 0
M  V30 4367 H 412.258 0.847361 6.41427 0
M  V30 4368 N 412.39 -1.55475 0.257931 0
M  V30 4369 C 413.639 -1.98383 -0.364275 0
M  V30 4370 C 413.952 -1.14952 -1.58258 0
M  V30 4371 O 415.158 -1.47924 -2.27664 0
M  V30 4372 C 413.614 -3.53037 -0.699479 0
M  V30 4373 C 413.222 -4.45223 0.498046 0
M  V30 4374 C 414.966 -4.04575 -1.28526 0
M  V30 4375 C 412.873 -5.91238 0.138383 0
M  V30 4376 H 411.803 -0.740911 -0.13988 0
M  V30 4377 H 414.454 -1.79936 0.359883 0
M  V30 4378 H 412.836 -3.6722 -1.48207 0
M  V30 4379 H 414.01 -4.42803 1.27522 0
M  V30 4380 H 412.325 -4.04226 0.999503 0
M  V30 4381 H 414.922 -5.11196 -1.56788 0
M  V30 4382 H 415.265 -3.5258 -2.21344 0
M  V30 4383 H 415.798 -3.93762 -0.565337 0
M  V30 4384 H 412.537 -6.47294 1.03398 0
M  V30 4385 H 412.057 -5.96768 -0.602374 0
M  V30 4386 H 413.736 -6.46413 -0.27553 0
M  V30 4387 N 413.868 0.0150385 -1.57593 0
M  V30 4388 C 415.117 0.702115 -1.89085 0
M  V30 4389 C 415.43 1.75764 -0.858277 0
M  V30 4390 O 416.636 2.49829 -1.0629 0
M  V30 4391 C 415.092 1.29992 -3.35604 0
M  V30 4392 C 414.7 0.280007 -4.47124 0
M  V30 4393 C 416.444 1.96606 -3.76227 0
M  V30 4394 C 414.351 0.886949 -5.84711 0
M  V30 4395 H 413.281 0.265997 -0.705522 0
M  V30 4396 H 415.932 -0.0430408 -1.8345 0
M  V30 4397 H 414.314 2.09525 -3.36029 0
M  V30 4398 H 415.488 -0.489631 -4.58191 0
M  V30 4399 H 413.803 -0.284835 -4.15425 0
M  V30 4400 H 416.4 2.42893 -4.76347 0
M  V30 4401 H 416.743 2.79024 -3.08952 0
M  V30 4402 H 417.276 1.23828 -3.78036 0
M  V30 4403 H 414.015 0.101876 -6.55421 0
M  V30 4404 H 413.535 1.6261 -5.77337 0
M  V30 4405 H 415.214 1.39011 -6.3189 0
M  V30 4406 N 415.346 1.54954 0.287554 0
M  V30 4407 C 416.293 1.86834 1.35505 0
M  V30 4408 C 417.263 0.718452 1.49758 0
M  V30 4409 O 418.448 0.968358 1.644 0
M  V30 4410 C 415.588 2.13303 2.71286 0
M  V30 4411 C 414.701 3.40883 2.65373 0
M  V30 4412 C 413.836 3.57125 3.93236 0
M  V30 4413 C 412.875 4.78449 3.81776 0
M  V30 4414 N 412.012 4.91426 5.01443 0
M  V30 4415 H 416.852 2.77889 1.07619 0
M  V30 4416 H 414.389 1.37593 0.520241 0
M  V30 4417 H 416.347 2.26646 3.50267 0
M  V30 4418 H 414.977 1.25499 2.97405 0
M  V30 4419 H 414.029 3.36088 1.78182 0
M  V30 4420 H 415.341 4.29993 2.52799 0
M  V30 4421 H 414.495 3.70207 4.80658 0
M  V30 4422 H 413.234 2.66173 4.0866 0
M  V30 4423 H 412.239 4.65386 2.92738 0
M  V30 4424 H 413.464 5.70822 3.67884 0
M  V30 4425 H 411.41 4.03401 5.17304 0
M  V30 4426 H 411.327 5.74559 4.91343 0
M  V30 4427 H 412.595 5.08879 5.90477 0
M  V30 4428 N 416.824 -0.551391 1.4764 0
M  V30 4429 C 418.101 -1.31229 1.45046 0
M  V30 4430 C 418.481 -2.10563 0.150527 0
M  V30 4431 O 417.829 -2.11374 -0.867956 0
M  V30 4432 C 418.039 -2.21189 2.69956 0
M  V30 4433 C 419.387 -2.82021 3.1741 0
M  V30 4434 O 420.411 -2.31488 2.70724 0
M  V30 4435 O 419.27 -3.73885 3.98588 0
M  V30 4436 H 416.364 -0.591193 0.578291 0
M  V30 4437 H 418.91 -0.569813 1.59847 0
M  V30 4438 H 417.682 -1.62207 3.56096 0
M  V30 4439 H 417.305 -3.02722 2.57769 0
M  V30 4440 N 418.302 -1.35869 -0.798587 0
M  V30 4441 C 419.527 -1.32883 -1.59238 0
M  V30 4442 C 419.952 0.0894587 -1.87887 0
M  V30 4443 O 419.31 1.05869 -1.47178 0
M  V30 4444 C 419.358 -2.14892 -2.89575 0
M  V30 4445 O 418.462 -1.53512 -3.82763 0
M  V30 4446 H 417.803 -0.455236 -0.48338 0
M  V30 4447 H 420.333 -1.79024 -0.990539 0
M  V30 4448 H 420.343 -2.27139 -3.38928 0
M  V30 4449 H 419.018 -3.17998 -2.68049 0
M  V30 4450 H 417.595 -1.50153 -3.41334 0
M  V30 4451 N 419.78 1.02168 -1.19998 0
M  V30 4452 C 421.029 1.75091 -1.0013 0
M  V30 4453 C 421.342 1.89923 0.467835 0
M  V30 4454 O 422.548 2.59888 0.785515 0
M  V30 4455 C 421.004 3.14892 -1.74273 0
M  V30 4456 C 420.612 3.0809 -3.25245 0
M  V30 4457 C 422.356 3.9206 -1.62755 0
M  V30 4458 C 420.263 4.42867 -3.91948 0
M  V30 4459 H 419.193 0.656394 -0.37103 0
M  V30 4460 H 421.844 1.14284 -1.43567 0
M  V30 4461 H 420.226 3.7621 -1.2362 0
M  V30 4462 H 421.4 2.5611 -3.83072 0
M  V30 4463 H 419.715 2.44416 -3.3712 0
M  V30 4464 H 422.312 4.91764 -2.09934 0
M  V30 4465 H 422.655 4.12199 -0.582894 0
M  V30 4466 H 423.188 3.37359 -2.10793 0
M  V30 4467 H 419.927 4.27931 -4.96543 0
M  V30 4468 H 419.447 4.94874 -3.3891 0
M  V30 4469 H 421.126 5.11728 -3.95909 0
M  V30 4470 N 421.258 1.00505 1.21394 0
M  V30 4471 C 422.221 0.570459 2.21987 0
M  V30 4472 C 423.221 -0.353211 1.56873 0
M  V30 4473 O 424.411 -0.14349 1.73608 0
M  V30 4474 C 421.543 -0.168555 3.40483 0
M  V30 4475 H 422.736 1.46021 2.6195 0
M  V30 4476 H 420.289 0.793565 1.34656 0
M  V30 4477 H 421.024 -1.07374 3.06009 0
M  V30 4478 H 420.809 0.494823 3.88965 0
M  V30 4479 H 422.299 -0.460362 4.15055 0
M  V30 4480 N 422.737 -1.36956 0.779787 0
M  V30 4481 C 424.014 -1.93697 0.272156 0
M  V30 4482 C 424.394 -1.71267 -1.23413 0
M  V30 4483 O 423.742 -1.06607 -2.02107 0
M  V30 4484 C 423.952 -3.42812 0.654291 0
M  V30 4485 C 425.3 -4.19921 0.628602 0
M  V30 4486 O 426.324 -3.51209 0.594172 0
M  V30 4487 O 425.183 -5.42465 0.662864 0
M  V30 4488 H 422.277 -0.824447 0.0649286 0
M  V30 4489 H 424.823 -1.46196 0.861682 0
M  V30 4490 H 423.595 -3.52754 1.69353 0
M  V30 4491 H 423.218 -3.97582 0.0381369 0
M  V30 4492 N 424.215 -0.530993 -1.48385 0
M  V30 4493 C 425.464 0.00474348 -2.01699 0
M  V30 4494 C 425.777 1.35227 -1.41325 0
M  V30 4495 O 426.983 1.97643 -1.86144 0
M  V30 4496 C 425.439 0.0588473 -3.59852 0
M  V30 4497 C 425.047 -1.28385 -4.2921 0
M  V30 4498 C 426.791 0.543358 -4.21008 0
M  V30 4499 C 424.698 -1.19028 -5.79298 0
M  V30 4500 H 423.628 0.00554317 -0.75398 0
M  V30 4501 H 426.279 -0.674924 -1.70637 0
M  V30 4502 H 424.661 0.803612 -3.8776 0
M  V30 4503 H 425.835 -2.04426 -4.12973 0
M  V30 4504 H 424.15 -1.70418 -3.7993 0
M  V30 4505 H 426.747 0.631351 -5.3096 0
M  V30 4506 H 427.09 1.54937 -3.86394 0
M  V30 4507 H 427.623 -0.145754 -3.97533 0
M  V30 4508 H 424.362 -2.17147 -6.18488 0
M  V30 4509 H 423.882 -0.471246 -5.97946 0
M  V30 4510 H 425.561 -0.881365 -6.40969 0
M  V30 4511 N 425.693 1.55336 -0.266172 0
M  V30 4512 C 426.94 1.99397 0.353158 0
M  V30 4513 C 427.268 1.15451 1.56529 0
M  V30 4514 O 426.523 0.209974 1.9457 0
M  V30 4515 C 426.822 3.48606 0.787957 0
M  V30 4516 C 426.488 4.49773 -0.318541 0
M  V30 4517 C 425.15 4.77158 -0.62239 0
M  V30 4518 C 427.502 5.10212 -1.06459 0
M  V30 4519 C 424.83 5.62251 -1.67602 0
M  V30 4520 C 427.182 5.96449 -2.10788 0
M  V30 4521 C 425.846 6.22158 -2.41817 0
M  V30 4522 H 425.116 0.729644 0.12923 0
M  V30 4523 H 427.763 1.87732 -0.37802 0
M  V30 4524 H 426.068 3.57701 1.59866 0
M  V30 4525 H 427.765 3.80098 1.27775 0
M  V30 4526 H 424.355 4.2854 -0.0715925 0
M  V30 4527 H 428.539 4.89086 -0.843098 0
M  V30 4528 H 423.795 5.80419 -1.92155 0
M  V30 4529 H 427.969 6.42317 -2.69076 0
M  V30 4530 H 425.596 6.87888 -3.23596 0
M  V30 4531 N 427.171 -0.0066808 1.57599 0
M  V30 4532 C 428.101 -0.999296 2.11036 0
M  V30 4533 C 429.082 -1.36278 1.01795 0
M  V30 4534 O 430.267 -1.4477 1.29442 0
M  V30 4535 C 427.397 -2.29328 2.60818 0
M  V30 4536 C 426.351 -2.07159 3.74525 0
M  V30 4537 C 425.677 -3.42512 4.10596 0
M  V30 4538 C 426.977 -1.43959 5.02069 0
M  V30 4539 H 428.671 -0.554382 2.94223 0
M  V30 4540 H 426.217 -0.265221 1.41536 0
M  V30 4541 H 428.17 -2.99117 2.96828 0
M  V30 4542 H 426.894 -2.7592 1.74745 0
M  V30 4543 H 425.553 -1.39797 3.38899 0
M  V30 4544 H 425.201 -3.86795 3.21556 0
M  V30 4545 H 424.901 -3.28498 4.87199 0
M  V30 4546 H 426.425 -4.13628 4.4916 0
M  V30 4547 H 427.839 -2.03696 5.35893 0
M  V30 4548 H 426.236 -1.40452 5.83432 0
M  V30 4549 H 427.306 -0.407992 4.83181 0
M  V30 4550 N 428.649 -1.55105 -0.279332 0
M  V30 4551 C 429.581 -1.83952 -1.36727 0
M  V30 4552 C 430.594 -0.723642 -1.45833 0
M  V30 4553 O 431.783 -1.00141 -1.47763 0
M  V30 4554 C 428.883 -1.98183 -2.74912 0
M  V30 4555 C 428.056 -3.28787 -2.88475 0
M  V30 4556 C 427.115 -3.33162 -4.07295 0
M  V30 4557 O 426.141 -4.06576 -3.98353 0
M  V30 4558 N 427.343 -2.60109 -5.18964 0
M  V30 4559 H 430.108 -2.77853 -1.12328 0
M  V30 4560 H 427.669 -1.54945 -0.469442 0
M  V30 4561 H 429.661 -1.98488 -3.52682 0
M  V30 4562 H 428.231 -1.11177 -2.92162 0
M  V30 4563 H 427.451 -3.41075 -1.97641 0
M  V30 4564 H 428.739 -4.14933 -2.94463 0
M  V30 4565 H 428.137 -2.00136 -5.29115 0
M  V30 4566 H 426.694 -2.66143 -5.94988 0
M  V30 4567 N 430.127 0.543554 -1.4793 0
M  V30 4568 C 431.059 1.665 -1.57513 0
M  V30 4569 C 432.072 1.56156 -0.460333 0
M  V30 4570 O 433.261 1.62865 -0.730573 0
M  V30 4571 C 430.361 3.05063 -1.47614 0
M  V30 4572 C 429.534 3.41024 -2.739 0
M  V30 4573 C 428.593 4.58809 -2.57645 0
M  V30 4574 O 427.619 4.62707 -3.31498 0
M  V30 4575 N 428.821 5.56149 -1.66368 0
M  V30 4576 H 431.586 1.5872 -2.5422 0
M  V30 4577 H 429.147 0.730517 -1.44482 0
M  V30 4578 H 431.139 3.81712 -1.34455 0
M  V30 4579 H 429.709 3.06994 -0.589359 0
M  V30 4580 H 428.929 2.53687 -3.01723 0
M  V30 4581 H 430.217 3.61831 -3.57709 0
M  V30 4582 H 429.615 5.55767 -1.05543 0
M  V30 4583 H 428.172 6.32071 -1.59154 0
M  V30 4584 N 431.605 1.3629 0.791371 0
M  V30 4585 C 432.854 1.29742 1.54434 0
M  V30 4586 C 433.167 -0.121729 1.95221 0
M  V30 4587 O 434.373 -0.309579 2.69729 0
M  V30 4588 C 432.829 2.27623 2.78776 0
M  V30 4589 C 432.437 3.74963 2.45166 0
M  V30 4590 C 434.181 2.30047 3.56761 0
M  V30 4591 C 432.088 4.64626 3.65891 0
M  V30 4592 H 431.018 0.482113 0.579727 0
M  V30 4593 H 433.669 1.61642 0.868565 0
M  V30 4594 H 432.051 1.88714 3.48142 0
M  V30 4595 H 433.225 4.22596 1.83709 0
M  V30 4596 H 431.54 3.75295 1.80396 0
M  V30 4597 H 434.137 2.94247 4.46456 0
M  V30 4598 H 434.48 1.30846 3.95203 0
M  V30 4599 H 435.013 2.67563 2.94372 0
M  V30 4600 H 431.752 5.64883 3.32547 0
M  V30 4601 H 431.272 4.2171 4.26521 0
M  V30 4602 H 432.951 4.80801 4.32943 0
M  V30 4603 N 433.083 -1.0153 1.20538 0
M  V30 4604 C 434.013 -2.11972 0.979295 0
M  V30 4605 C 434.994 -1.6985 -0.0921787 0
M  V30 4606 O 436.179 -1.94089 0.0655932 0
M  V30 4607 C 433.309 -3.43201 0.531984 0
M  V30 4608 C 432.263 -3.9907 1.54685 0
M  V30 4609 C 431.589 -5.26082 0.956127 0
M  V30 4610 C 432.889 -4.32313 2.93092 0
M  V30 4611 H 434.583 -2.31143 1.90298 0
M  V30 4612 H 432.129 -1.11079 0.916372 0
M  V30 4613 H 434.082 -4.1985 0.361044 0
M  V30 4614 H 432.806 -3.23792 -0.427327 0
M  V30 4615 H 431.465 -3.2453 1.70517 0
M  V30 4616 H 431.113 -5.02999 -0.0111538 0
M  V30 4617 H 430.813 -5.64426 1.63393 0
M  V30 4618 H 432.337 -6.05386 0.796284 0
M  V30 4619 H 433.751 -4.99845 2.80763 0
M  V30 4620 H 432.148 -4.81774 3.57791 0
M  V30 4621 H 433.218 -3.41025 3.44717 0
M  V30 4622 N 434.561 -1.01147 -1.20859 0
M  V30 4623 C 435.789 -0.716911 -1.94082 0
M  V30 4624 C 436.204 0.721568 -1.74467 0
M  V30 4625 O 435.561 1.48889 -1.05539 0
M  V30 4626 C 435.612 -1.03662 -3.46318 0
M  V30 4627 O 435.333 -2.4186 -3.65288 0
M  V30 4628 C 436.834 -0.762386 -4.36695 0
M  V30 4629 H 434.054 -0.26367 -0.617024 0
M  V30 4630 H 436.598 -1.35127 -1.53496 0
M  V30 4631 H 434.753 -0.447757 -3.84804 0
M  V30 4632 H 435.167 -2.53224 -4.59323 0
M  V30 4633 H 436.641 -1.03621 -5.42187 0
M  V30 4634 H 437.118 0.303514 -4.3815 0
M  V30 4635 H 437.724 -1.33316 -4.03865 0
M  V30 4636 N 436.039 1.36541 -0.78704 0
M  V30 4637 C 437.455 1.52571 -0.46844 0
M  V30 4638 C 437.655 1.7415 1.01361 0
M  V30 4639 O 436.711 1.77163 1.79915 0
M  V30 4640 C 438.024 2.71299 -1.29682 0
M  V30 4641 C 439.572 2.85169 -1.29027 0
M  V30 4642 C 440.047 4.06898 -2.10233 0
M  V30 4643 N 441.538 4.1404 -2.07666 0
M  V30 4644 C 442.273 5.07301 -2.67271 0
M  V30 4645 N 441.769 6.06021 -3.35724 0
M  V30 4646 N 443.562 4.99898 -2.57018 0
M  V30 4647 H 435.713 1.20788 -1.74711 0
M  V30 4648 H 437.976 0.589364 -0.742532 0
M  V30 4649 H 437.682 2.61868 -2.34773 0
M  V30 4650 H 437.556 3.6539 -0.936479 0
M  V30 4651 H 439.943 2.94062 -0.247284 0
M  V30 4652 H 440.024 1.91992 -1.69035 0
M  V30 4653 H 439.668 3.98766 -3.1456 0
M  V30 4654 H 439.598 4.99218 -1.67597 0
M  V30 4655 H 442.089 3.43357 -1.57843 0
M  V30 4656 H 442.402 6.73741 -3.78541 0
M  V30 4657 H 440.747 6.06253 -3.39826 0
M  V30 4658 H 443.938 4.21724 -2.03142 0
M  V30 4659 H 444.111 5.72392 -3.03761 0
M  V30 4660 N 437.518 0.538854 1.48102 0
M  V30 4661 C 438.929 0.100679 1.86428 0
M  V30 4662 C 439.28 -1.32447 1.44749 0
M  V30 4663 O 438.405 -1.99339 0.842199 0
M  V30 4664 C 439 0.175933 3.38343 0
M  V30 4665 C 437.559 -0.207098 3.7583 0
M  V30 4666 C 436.706 0.531741 2.72154 0
M  V30 4667 H 439.657 0.749614 1.3988 0
M  V30 4668 H 439.678 -0.610144 3.75576 0
M  V30 4669 H 439.19 1.21328 3.68648 0
M  V30 4670 H 437.291 -1.24626 3.5114 0
M  V30 4671 H 437.404 0.138687 4.78899 0
M  V30 4672 H 435.768 -0.0230462 2.5469 0
M  V30 4673 H 436.551 1.56989 3.05302 0
M  V30 4674 N 438.996 -1.55193 0.274407 0
M  V30 4675 C 439.944 -2.23924 -0.629362 0
M  V30 4676 C 440.938 -1.23602 -1.1584 0
M  V30 4677 O 442.144 -1.41535 -1.11211 0
M  V30 4678 H 438.519 -0.718637 -0.221507 0
M  V30 4679 H 440.49 -2.98388 -0.0268322 0
M  V30 4680 C 439.239 -2.97329 -1.80252 0
M  V30 4681 H 438.562 -3.74313 -1.40462 0
M  V30 4682 H 440.002 -3.48743 -2.41152 0
M  V30 4683 C 438.461 -2.0276 -2.69054 0
M  V30 4684 O 438.991 -1.57836 -3.69392 0
M  V30 4685 N 437.197 -1.69275 -2.36208 0
M  V30 4686 H 436.744 -2.06004 -1.54661 0
M  V30 4687 H 436.702 -1.06271 -2.95895 0
M  V30 4688 N 440.474 -0.00167713 -1.576 0
M  V30 4689 C 441.384 1.00548 -2.1196 0
M  V30 4690 C 442.4 1.3758 -1.06526 0
M  V30 4691 O 443.576 1.46278 -1.38436 0
M  V30 4692 C 440.641 2.27809 -2.6135 0
M  V30 4693 C 439.702 1.97074 -3.81393 0
M  V30 4694 C 438.935 3.18267 -4.28417 0
M  V30 4695 O 439.158 4.30009 -3.74765 0
M  V30 4696 O 438.092 3.02167 -5.20556 0
M  V30 4697 H 441.918 0.573373 -2.98238 0
M  V30 4698 H 439.503 0.217255 -1.47812 0
M  V30 4699 H 441.385 3.02568 -2.93309 0
M  V30 4700 H 440.06 2.70254 -1.78169 0
M  V30 4701 H 438.967 1.19785 -3.54404 0
M  V30 4702 H 440.3 1.59464 -4.65652 0
M  V30 4703 N 441.952 1.55251 0.271103 0
M  V30 4704 C 443.199 1.75946 1.00245 0
M  V30 4705 C 443.527 0.561611 1.86215 0
M  V30 4706 O 442.782 -0.455832 1.90317 0
M  V30 4707 C 443.081 3.01879 1.91321 0
M  V30 4708 C 442.747 4.34337 1.21086 0
M  V30 4709 C 441.409 4.70338 1.01666 0
M  V30 4710 C 443.761 5.16325 0.71119 0
M  V30 4711 C 441.089 5.8588 0.310099 0
M  V30 4712 C 443.441 6.32597 0.0182157 0
M  V30 4713 C 442.105 6.67236 -0.18768 0
M  V30 4714 H 441.375 0.643833 0.366824 0
M  V30 4715 H 444.022 1.89521 0.27458 0
M  V30 4716 H 442.327 2.83212 2.70736 0
M  V30 4717 H 444.024 3.15088 2.48033 0
M  V30 4718 H 440.614 4.06043 1.37213 0
M  V30 4719 H 444.798 4.88987 0.848844 0
M  V30 4720 H 440.054 6.1124 0.139873 0
M  V30 4721 H 444.228 6.9538 -0.376711 0
M  V30 4722 H 441.855 7.56618 -0.73715 0
M  V30 4723 N 443.43 -0.535701 1.48216 0
M  V30 4724 C 444.707 -1.29683 1.46429 0
M  V30 4725 C 445.087 -2.10391 0.172852 0
M  V30 4726 O 444.435 -2.12282 -0.845488 0
M  V30 4727 C 444.645 -2.18313 2.72287 0
M  V30 4728 C 445.993 -2.78639 3.20383 0
M  V30 4729 O 447.017 -2.28604 2.73164 0
M  V30 4730 O 445.876 -3.69636 4.02531 0
M  V30 4731 H 442.97 -0.585026 0.584529 0
M  V30 4732 H 445.516 -0.552827 1.60443 0
M  V30 4733 H 444.288 -1.58421 3.57797 0
M  V30 4734 H 443.911 -2.99971 2.60966 0
M  V30 4735 N 444.908 -1.36708 -0.784132 0
M  V30 4736 C 446.154 -1.31426 -1.54451 0
M  V30 4737 C 446.487 0.10476 -1.93917 0
M  V30 4738 O 445.762 1.05934 -1.6312 0
M  V30 4739 C 446.045 -2.24189 -2.818 0
M  V30 4740 C 445.898 -3.74813 -2.48667 0
M  V30 4741 C 447.217 -2.15626 -3.83658 0
M  V30 4742 H 444.336 -0.478739 -0.560337 0
M  V30 4743 H 446.978 -1.67305 -0.900498 0
M  V30 4744 H 445.128 -1.93722 -3.36755 0
M  V30 4745 H 446.8 -4.15823 -1.99722 0
M  V30 4746 H 445.043 -3.93989 -1.81535 0
M  V30 4747 H 445.714 -4.35138 -3.39646 0
M  V30 4748 H 448.19 -2.42456 -3.38163 0
M  V30 4749 H 447.066 -2.82694 -4.70506 0
M  V30 4750 H 447.327 -1.14522 -4.27009 0
M  V30 4751 N 446.386 1.0089 -1.21074 0
M  V30 4752 C 447.632 1.74866 -1.02712 0
M  V30 4753 C 447.965 1.89178 0.438787 0
M  V30 4754 O 447.24 1.42325 1.32567 0
M  V30 4755 C 447.523 3.16347 -1.72036 0
M  V30 4756 C 447.376 3.09782 -3.26121 0
M  V30 4757 C 448.695 4.15187 -1.45973 0
M  V30 4758 H 445.814 0.634736 -0.374539 0
M  V30 4759 H 448.456 1.17646 -1.49196 0
M  V30 4760 H 446.606 3.65201 -1.32517 0
M  V30 4761 H 448.278 2.68673 -3.74983 0
M  V30 4762 H 446.521 2.46982 -3.56626 0
M  V30 4763 H 447.192 4.09829 -3.6979 0
M  V30 4764 H 449.668 3.75022 -1.80272 0
M  V30 4765 H 448.544 5.12331 -1.96999 0
M  V30 4766 H 448.805 4.40386 -0.388924 0
M  V30 4767 N 447.864 1.01787 1.20321 0
M  V30 4768 C 448.827 0.593972 2.2137 0
M  V30 4769 C 449.827 -0.336553 1.57239 0
M  V30 4770 O 451.017 -0.125069 1.7375 0
M  V30 4771 C 448.149 -0.132433 3.40643 0
M  V30 4772 H 449.342 1.48791 2.60387 0
M  V30 4773 H 446.895 0.807803 1.33807 0
M  V30 4774 H 447.63 -1.04123 3.0713 0
M  V30 4775 H 447.415 0.53605 3.88418 0
M  V30 4776 H 448.905 -0.416314 4.1552 0
M  V30 4777 N 449.342 -1.36122 0.79427 0
M  V30 4778 C 450.57 -2.03362 0.380989 0
M  V30 4779 C 450.985 -1.59881 -1.00416 0
M  V30 4780 O 450.342 -0.790515 -1.6449 0
M  V30 4781 C 450.393 -3.58804 0.440649 0
M  V30 4782 O 450.114 -4.007 1.77118 0
M  V30 4783 C 451.615 -4.43296 0.0186117 0
M  V30 4784 H 448.835 -0.652526 0.156367 0
M  V30 4785 H 451.379 -1.73998 1.07447 0
M  V30 4786 H 449.534 -3.8686 -0.204458 0
M  V30 4787 H 449.948 -4.95309 1.72538 0
M  V30 4788 H 451.422 -5.51887 0.111488 0
M  V30 4789 H 451.899 -4.2684 -1.03461 0
M  V30 4790 H 452.505 -4.20512 0.636395 0
M  V30 4791 N 450.82 -0.546701 -1.47814 0
M  V30 4792 C 451.753 0.254472 -2.26777 0
M  V30 4793 C 452.731 0.929809 -1.33392 0
M  V30 4794 O 453.915 0.950889 -1.62759 0
M  V30 4795 C 451.042 1.36171 -3.10121 0
M  V30 4796 C 450.088 0.796038 -4.19005 0
M  V30 4797 S 450.921 -0.349191 -5.3436 0
M  V30 4798 C 452.077 0.760122 -6.21267 0
M  V30 4799 H 452.31 -0.415612 -2.94381 0
M  V30 4800 H 449.843 -0.332809 -1.5077 0
M  V30 4801 H 451.801 1.99588 -3.58713 0
M  V30 4802 H 450.462 2.00359 -2.41899 0
M  V30 4803 H 449.655 1.62719 -4.7701 0
M  V30 4804 H 449.257 0.238246 -3.7324 0
M  V30 4805 H 451.549 1.65479 -6.5698 0
M  V30 4806 H 452.492 0.217673 -7.07765 0
M  V30 4807 H 452.9 1.04806 -5.54685 0
M  V30 4808 N 452.299 1.55045 -0.282633 0
M  V30 4809 C 453.247 2.24254 0.617478 0
M  V30 4810 C 454.241 1.24215 1.15183 0
M  V30 4811 O 455.447 1.42123 1.10459 0
M  V30 4812 H 451.822 0.719801 0.217693 0
M  V30 4813 H 453.793 2.98398 0.0110076 0
M  V30 4814 C 452.542 2.98281 1.78672 0
M  V30 4815 H 451.865 3.75053 1.38475 0
M  V30 4816 H 453.305 3.50017 2.393 0
M  V30 4817 C 451.764 2.04184 2.67975 0
M  V30 4818 O 452.294 1.59792 3.6855 0
M  V30 4819 N 450.5 1.70526 2.35307 0
M  V30 4820 H 450.047 2.06821 1.53567 0
M  V30 4821 H 450.005 1.07839 2.95327 0
M  V30 4822 N 453.777 0.010035 1.57597 0
M  V30 4823 C 454.707 -0.976857 2.12084 0
M  V30 4824 C 455.688 -1.35191 1.03235 0
M  V30 4825 O 456.873 -1.43389 1.3097 0
M  V30 4826 C 454.003 -2.26548 2.63236 0
M  V30 4827 C 452.957 -2.03175 3.76701 0
M  V30 4828 C 452.283 -3.38138 4.14206 0
M  V30 4829 C 453.583 -1.38625 5.03568 0
M  V30 4830 H 455.277 -0.523145 2.94794 0
M  V30 4831 H 452.823 -0.250195 1.4181 0
M  V30 4832 H 454.776 -2.95952 2.99984 0
M  V30 4833 H 453.5 -2.74051 1.77661 0
M  V30 4834 H 452.159 -1.36195 3.40362 0
M  V30 4835 H 451.807 -3.83363 3.25641 0
M  V30 4836 H 451.507 -3.23312 4.90656 0
M  V30 4837 H 453.031 -4.08841 4.53521 0
M  V30 4838 H 454.445 -1.98 5.38023 0
M  V30 4839 H 452.842 -1.34256 5.84889 0
M  V30 4840 H 453.912 -0.356722 4.83586 0
M  V30 4841 N 455.255 -1.55392 -0.262866 0
M  V30 4842 C 456.203 -1.8977 -1.345 0
M  V30 4843 C 457.197 -0.775063 -1.50629 0
M  V30 4844 O 458.403 -0.959519 -1.52293 0
M  V30 4845 H 454.778 -0.602467 -0.450041 0
M  V30 4846 H 456.749 -2.80147 -1.02762 0
M  V30 4847 C 455.498 -2.19501 -2.69657 0
M  V30 4848 H 454.821 -3.05378 -2.5804 0
M  V30 4849 H 456.261 -2.47469 -3.44289 0
M  V30 4850 C 454.72 -1.00597 -3.21531 0
M  V30 4851 O 455.25 -0.245768 -4.00947 0
M  V30 4852 N 453.456 -0.800911 -2.79345 0
M  V30 4853 H 453.003 -1.42079 -2.14875 0
M  V30 4854 H 452.961 -0.00697996 -3.14399 0
M  V30 4855 N 456.733 0.527833 -1.48498 0
M  V30 4856 C 457.981 1.28101 -1.56316 0
M  V30 4857 C 458.302 1.9352 -0.239781 0
M  V30 4858 O 457.572 1.81433 0.738849 0
M  V30 4859 H 456.152 0.475793 -0.575873 0
M  V30 4860 H 458.814 0.614052 -1.84974 0
M  V30 4861 H 457.91 2.05916 -2.34532 0
M  V30 4862 N 458.211 1.37122 0.776871 0
M  V30 4863 C 459.488 1.22586 1.52421 0
M  V30 4864 C 459.868 -0.182726 2.10308 0
M  V30 4865 O 459.216 -1.18979 1.9508 0
M  V30 4866 C 459.426 2.31782 2.60918 0
M  V30 4867 C 460.774 2.69071 3.2846 0
M  V30 4868 O 461.798 2.3092 2.71209 0
M  V30 4869 O 460.657 3.3478 4.31954 0
M  V30 4870 H 457.751 0.478045 0.674835 0
M  V30 4871 H 460.297 1.48888 0.814275 0
M  V30 4872 H 459.069 3.26131 2.16227 0
M  V30 4873 H 458.692 2.06916 3.39517 0
M  V30 4874 N 459.689 -1.00246 1.21608 0
M  V30 4875 C 460.919 -1.77373 1.05935 0
M  V30 4876 C 461.327 -1.85059 -0.393686 0
M  V30 4877 O 460.67 -1.31289 -1.28487 0
M  V30 4878 C 460.732 -3.22705 1.58435 0
M  V30 4879 C 460.396 -3.38591 3.06929 0
M  V30 4880 C 461.393 -3.2667 4.04454 0
M  V30 4881 C 459.078 -3.6395 3.46187 0
M  V30 4882 C 461.072 -3.39877 5.39224 0
M  V30 4883 C 458.759 -3.768 4.81108 0
M  V30 4884 C 459.757 -3.6477 5.77436 0
M  V30 4885 O 459.445 -3.77206 7.09909 0
M  V30 4886 H 459.177 -0.56419 0.372378 0
M  V30 4887 H 461.731 -1.26971 1.61454 0
M  V30 4888 H 459.961 -3.74255 0.973147 0
M  V30 4889 H 461.65 -3.81515 1.38568 0
M  V30 4890 H 462.416 -3.06999 3.75468 0
M  V30 4891 H 458.295 -3.72395 2.71741 0
M  V30 4892 H 461.839 -3.30404 6.14393 0
M  V30 4893 H 457.736 -3.95975 5.09779 0
M  V30 4894 H 458.504 -3.94138 7.17355 0
M  V30 4895 N 461.167 -1.02423 -1.1978 0
M  V30 4896 C 462.416 -0.713265 -1.88667 0
M  V30 4897 C 462.729 0.7609 -1.80193 0
M  V30 4898 O 463.935 1.18473 -2.44288 0
M  V30 4899 C 462.391 -1.22545 -3.38394 0
M  V30 4900 C 461.999 -2.72706 -3.55437 0
M  V30 4901 C 463.743 -0.990257 -4.12788 0
M  V30 4902 C 461.65 -3.17367 -4.99031 0
M  V30 4903 H 460.58 -0.263105 -0.706606 0
M  V30 4904 H 463.231 -1.23792 -1.35454 0
M  V30 4905 H 461.613 -0.628732 -3.90977 0
M  V30 4906 H 462.787 -3.37993 -3.13205 0
M  V30 4907 H 461.102 -2.94453 -2.94425 0
M  V30 4908 H 463.699 -1.29926 -5.18675 0
M  V30 4909 H 464.042 0.0730761 -4.16236 0
M  V30 4910 H 464.575 -1.55074 -3.66329 0
M  V30 4911 H 461.314 -4.23009 -5.00743 0
M  V30 4912 H 460.834 -2.56805 -5.42044 0
M  V30 4913 H 462.513 -3.10441 -5.67658 0
M  V30 4914 N 462.645 1.35699 -0.801477 0
M  V30 4915 C 463.87 2.03687 -0.390678 0
M  V30 4916 C 464.295 1.60015 0.988778 0
M  V30 4917 O 463.653 0.774357 1.63931 0
M  V30 4918 C 463.701 3.57439 -0.476404 0
M  V30 4919 O 462.805 4.09208 0.512106 0
M  V30 4920 H 462.146 0.64344 -0.163956 0
M  V30 4921 H 464.676 1.73403 -1.08594 0
M  V30 4922 H 464.686 4.06544 -0.344357 0
M  V30 4923 H 463.361 3.88576 -1.48262 0
M  V30 4924 H 461.938 3.7134 0.340721 0
M  V30 4925 N 464.123 0.554532 1.47522 0
M  V30 4926 C 465.4 -0.0360704 1.95567 0
M  V30 4927 C 465.78 -1.48828 1.49711 0
M  V30 4928 O 465.128 -2.16366 0.734717 0
M  V30 4929 C 465.338 0.106631 3.48837 0
M  V30 4930 C 466.686 -0.0400899 4.24581 0
M  V30 4931 O 467.71 0.0340453 3.56184 0
M  V30 4932 O 466.569 -0.199111 5.46137 0
M  V30 4933 H 463.663 -0.0656294 0.824392 0
M  V30 4934 H 466.209 0.620867 1.57935 0
M  V30 4935 H 464.981 1.11727 3.7501 0
M  V30 4936 H 464.604 -0.58804 3.93227 0
M  V30 4937 N 465.601 -1.54893 0.290851 0
M  V30 4938 C 466.564 -2.21824 -0.576784 0
M  V30 4939 C 467.564 -1.20104 -1.06919 0
M  V30 4940 O 468.754 -1.44906 -0.966843 0
M  V30 4941 C 465.886 -2.89662 -1.79747 0
M  V30 4942 H 467.079 -2.99899 0.00784051 0
M  V30 4943 H 464.632 -1.56245 0.0415934 0
M  V30 4944 H 465.367 -2.15639 -2.42219 0
M  V30 4945 H 465.152 -3.64219 -1.45214 0
M  V30 4946 H 466.642 -3.4075 -2.4141 0
M  V30 4947 N 467.08 -0.0183926 -1.57589 0
M  V30 4948 C 468.01 0.965596 -2.12599 0
M  V30 4949 C 468.991 1.34641 -1.0395 0
M  V30 4950 O 470.176 1.42693 -1.31729 0
M  V30 4951 C 467.306 2.25149 -2.64434 0
M  V30 4952 C 466.26 2.01175 -3.77773 0
M  V30 4953 C 465.586 3.35937 -4.15994 0
M  V30 4954 C 466.886 1.35953 -5.04296 0
M  V30 4955 H 468.58 0.507504 -2.95067 0
M  V30 4956 H 466.126 0.242671 -1.41941 0
M  V30 4957 H 468.079 2.94357 -3.01549 0
M  V30 4958 H 466.803 2.73105 -1.79112 0
M  V30 4959 H 465.462 1.34388 -3.4108 0
M  V30 4960 H 465.11 3.81631 -3.27669 0
M  V30 4961 H 464.81 3.20705 -4.92364 0
M  V30 4962 H 466.334 4.0643 -4.55683 0
M  V30 4963 H 467.748 1.95144 -5.39065 0
M  V30 4964 H 466.145 1.31152 -5.85593 0
M  V30 4965 H 467.215 0.331071 -4.83768 0
M  V30 4966 N 468.558 1.5553 0.254621 0
M  V30 4967 C 469.521 1.88872 1.29846 0
M  V30 4968 C 470.521 0.764591 1.41459 0
M  V30 4969 O 471.711 1.03265 1.40293 0
M  V30 4970 C 468.843 2.11032 2.67728 0
M  V30 4971 H 470.036 2.82201 1.01502 0
M  V30 4972 H 467.589 1.48303 0.493556 0
M  V30 4973 H 468.324 1.20146 3.01223 0
M  V30 4974 H 468.109 2.92895 2.60682 0
M  V30 4975 H 469.599 2.38038 3.43115 0
M  V30 4976 N 470.036 -0.519951 1.48776 0
M  V30 4977 C 470.999 -1.60574 1.6355 0
M  V30 4978 C 471.999 -1.52557 0.508234 0
M  V30 4979 O 473.189 -1.56047 0.774262 0
M  V30 4980 C 470.321 -3.00211 1.61512 0
M  V30 4981 H 471.514 -1.4881 2.60376 0
M  V30 4982 H 469.067 -0.742772 1.37523 0
M  V30 4983 H 469.802 -3.17471 0.662009 0
M  V30 4984 H 469.587 -3.07439 2.43359 0
M  V30 4985 H 471.077 -3.79134 1.75064 0
M  V30 4986 N 471.514 -1.37532 -0.769588 0
M  V30 4987 C 472.446 -1.29347 -1.89214 0
M  V30 4988 C 473.459 -0.208842 -1.61455 0
M  V30 4989 O 474.648 -0.465158 -1.72333 0
M  V30 4990 C 471.748 -0.977649 -3.24492 0
M  V30 4991 C 470.921 -2.16817 -3.7988 0
M  V30 4992 C 469.98 -1.82229 -4.93639 0
M  V30 4993 O 469.006 -2.54548 -5.09111 0
M  V30 4994 N 470.208 -0.767696 -5.75401 0
M  V30 4995 H 472.973 -2.26073 -1.96751 0
M  V30 4996 H 470.534 -1.31185 -0.948795 0
M  V30 4997 H 472.526 -0.727065 -3.98115 0
M  V30 4998 H 471.096 -0.0988777 -3.12444 0
M  V30 4999 H 470.316 -2.58038 -2.9801 0
M  V30 5000 H 471.604 -2.96308 -4.13617 0
M  V30 5001 H 471.002 -0.167626 -5.65452 0
M  V30 5002 H 469.559 -0.576973 -6.49241 0
M  V30 5003 N 472.992 0.995999 -1.22138 0
M  V30 5004 C 474.238 1.73767 -1.04561 0
M  V30 5005 C 474.571 1.89633 0.418698 0
M  V30 5006 O 473.846 1.43723 1.3105 0
M  V30 5007 C 474.129 3.14505 -1.75382 0
M  V30 5008 C 473.982 3.06306 -3.29388 0
M  V30 5009 C 475.301 4.13615 -1.50369 0
M  V30 5010 H 472.42 0.630728 -0.38125 0
M  V30 5011 H 475.062 1.16057 -1.50435 0
M  V30 5012 H 473.212 3.63775 -1.36383 0
M  V30 5013 H 474.884 2.64681 -3.77812 0
M  V30 5014 H 473.127 2.43186 -3.59226 0
M  V30 5015 H 473.798 4.05884 -3.74116 0
M  V30 5016 H 476.274 3.73089 -1.84239 0
M  V30 5017 H 475.15 5.10212 -2.02421 0
M  V30 5018 H 475.411 4.39949 -0.435611 0
M  V30 5019 N 474.47 1.03057 1.19235 0
M  V30 5020 C 475.718 0.726581 1.88587 0
M  V30 5021 C 476.039 -0.747227 1.80115 0
M  V30 5022 O 475.309 -1.53849 1.21274 0
M  V30 5023 H 473.889 0.265768 0.698124 0
M  V30 5024 H 476.551 1.30516 1.44746 0
M  V30 5025 H 475.647 1.0224 2.94879 0
M  V30 5026 N 475.948 -1.35272 0.808662 0
M  V30 5027 C 477.196 -1.98316 0.389233 0
M  V30 5028 C 477.517 -1.64465 -1.04767 0
M  V30 5029 O 476.787 -0.928175 -1.72516 0
M  V30 5030 H 475.367 -0.733585 0.140935 0
M  V30 5031 H 478.029 -1.6515 1.03496 0
M  V30 5032 H 477.125 -3.08123 0.496631 0
M  V30 5033 N 477.426 -0.562348 -1.47226 0
M  V30 5034 C 478.675 -0.038041 -2.01664 0
M  V30 5035 C 478.988 1.32199 -1.44162 0
M  V30 5036 O 480.194 1.9365 -1.90294 0
M  V30 5037 C 478.65 -0.0174958 -3.59896 0
M  V30 5038 C 478.258 -1.3746 -4.2639 0
M  V30 5039 C 480.002 0.453934 -4.22066 0
M  V30 5040 C 477.909 -1.31289 -5.76643 0
M  V30 5041 H 476.839 -0.0104511 -0.753928 0
M  V30 5042 H 479.49 -0.710966 -1.69167 0
M  V30 5043 H 477.872 0.721182 -3.89378 0
M  V30 5044 H 479.046 -2.1314 -4.08544 0
M  V30 5045 H 477.361 -1.78438 -3.7623 0
M  V30 5046 H 479.958 0.518584 -5.32179 0
M  V30 5047 H 480.301 1.46706 -3.89594 0
M  V30 5048 H 480.834 -0.230044 -3.97134 0
M  V30 5049 H 477.573 -2.30217 -6.13743 0
M  V30 5050 H 477.093 -0.597973 -5.96812 0
M  V30 5051 H 478.772 -1.01713 -6.38955 0
M  V30 5052 N 478.904 1.54736 -0.299062 0
M  V30 5053 C 480.152 1.99706 0.31017 0
M  V30 5054 C 480.473 1.18896 1.54559 0
M  V30 5055 O 479.743 0.284445 1.93824 0
M  V30 5056 H 478.323 0.737686 0.117596 0
M  V30 5057 H 480.985 1.9054 -0.409943 0
M  V30 5058 H 480.081 3.06596 0.58355 0
M  V30 5059 N 480.382 0.0267497 1.57577 0
M  V30 5060 C 481.631 -0.651736 1.9088 0
M  V30 5061 C 481.944 -1.73427 0.904576 0
M  V30 5062 O 483.15 -2.46923 1.12877 0
M  V30 5063 C 481.606 -1.21048 3.38933 0
M  V30 5064 C 481.214 -0.161362 4.47709 0
M  V30 5065 C 482.958 -1.86562 3.81307 0
M  V30 5066 C 480.865 -0.731611 5.86857 0
M  V30 5067 H 479.795 -0.247198 0.712326 0
M  V30 5068 H 482.446 0.0916641 1.83271 0
M  V30 5069 H 480.828 -2.00542 3.41466 0
M  V30 5070 H 482.002 0.61094 4.56732 0
M  V30 5071 H 480.317 0.394877 4.14523 0
M  V30 5072 H 482.914 -2.30178 4.8262 0
M  V30 5073 H 483.257 -2.70735 3.16241 0
M  V30 5074 H 483.79 -1.13762 3.81186 0
M  V30 5075 H 480.529 0.0719329 6.55461 0
M  V30 5076 H 480.049 -1.47245 5.81445 0
M  V30 5077 H 481.728 -1.22208 6.35354 0
M  V30 5078 N 481.861 -1.55662 -0.24637 0
M  V30 5079 C 482.824 -1.89558 -1.28842 0
M  V30 5080 C 483.824 -0.772082 -1.41052 0
M  V30 5081 O 485.014 -1.04007 -1.39743 0
M  V30 5082 C 482.146 -2.12449 -2.66605 0
M  V30 5083 H 483.339 -2.82735 -1.00004 0
M  V30 5084 H 480.892 -1.48562 -0.485684 0
M  V30 5085 H 481.627 -1.21742 -3.00582 0
M  V30 5086 H 481.412 -2.94273 -2.59125 0
M  V30 5087 H 482.902 -2.39854 -3.41847 0
M  V30 5088 N 483.339 0.512053 -1.4905 0
M  V30 5089 C 484.75 1.09376 -1.51307 0
M  V30 5090 C 485.101 1.94 -0.292971 0
M  V30 5091 O 484.226 2.07965 0.598277 0
M  V30 5092 C 484.821 1.99031 -2.74176 0
M  V30 5093 C 483.38 2.52385 -2.79247 0
M  V30 5094 C 482.527 1.29749 -2.45073 0
M  V30 5095 H 485.478 0.296467 -1.55906 0
M  V30 5096 H 485.499 2.83569 -2.53711 0
M  V30 5097 H 485.011 1.37412 -3.62959 0
M  V30 5098 H 483.112 3.17673 -1.94716 0
M  V30 5099 H 483.225 2.90293 -3.81139 0
M  V30 5100 H 481.589 1.61912 -1.96612 0
M  V30 5101 H 482.372 0.698555 -3.36118 0
M  V30 5102 N 484.817 1.37938 0.762283 0
M  V30 5103 C 486.065 1.33404 1.51815 0
M  V30 5104 C 486.386 -0.0780975 1.94844 0
M  V30 5105 O 485.656 -1.02405 1.67003 0
M  V30 5106 H 484.236 0.490839 0.563104 0
M  V30 5107 H 486.898 1.72527 0.906669 0
M  V30 5108 H 485.994 1.97926 2.41313 0
M  V30 5109 N 486.295 -0.989507 1.22664 0
M  V30 5110 C 487.258 -2.06183 1.00106 0
M  V30 5111 C 488.258 -1.60765 -0.0337726 0
M  V30 5112 O 489.448 -1.72989 0.205072 0
M  V30 5113 C 486.58 -3.37021 0.51279 0
M  V30 5114 H 487.773 -2.27629 1.95256 0
M  V30 5115 H 485.326 -1.16158 1.0458 0
M  V30 5116 H 486.061 -3.21261 -0.442917 0
M  V30 5117 H 485.846 -3.71323 1.25942 0
M  V30 5118 H 487.336 -4.1591 0.375315 0
M  V30 5119 N 487.773 -1.03688 -1.18687 0
M  V30 5120 C 488.721 -0.618292 -2.24232 0
M  V30 5121 C 489.715 0.353045 -1.6568 0
M  V30 5122 O 490.921 0.220749 -1.78641 0
M  V30 5123 H 487.296 -0.181711 -0.729716 0
M  V30 5124 H 489.267 -1.51893 -2.56848 0
M  V30 5125 C 488.016 0.00677342 -3.47699 0
M  V30 5126 H 487.339 -0.731692 -3.93047 0
M  V30 5127 H 488.779 0.262492 -4.23187 0
M  V30 5128 C 487.238 1.25572 -3.12623 0
M  V30 5129 O 487.768 2.34691 -3.26011 0
M  V30 5130 N 485.974 1.14755 -2.66982 0
M  V30 5131 H 485.521 0.259601 -2.56289 0
M  V30 5132 H 485.479 1.98412 -2.43885 0
M  V30 5133 N 489.251 1.34841 -0.815825 0
M  V30 5134 C 490.5 1.97755 -0.396976 0
M  V30 5135 C 490.813 1.65422 1.04379 0
M  V30 5136 O 492.019 2.21771 1.5662 0
M  V30 5137 C 490.475 3.53818 -0.658869 0
M  V30 5138 C 490.083 3.95051 -2.11278 0
M  V30 5139 C 491.827 4.23397 -0.305834 0
M  V30 5140 C 489.734 5.43997 -2.31994 0
M  V30 5141 H 488.664 0.739985 -0.1447 0
M  V30 5142 H 491.315 1.53781 -1.00118 0
M  V30 5143 H 489.697 3.95997 0.0154112 0
M  V30 5144 H 490.871 3.63998 -2.82564 0
M  V30 5145 H 489.186 3.38388 -2.42657 0
M  V30 5146 H 491.783 5.32899 -0.43854 0
M  V30 5147 H 492.126 4.09508 0.748952 0
M  V30 5148 H 492.659 3.8667 -0.934403 0
M  V30 5149 H 489.398 5.62865 -3.35952 0
M  V30 5150 H 488.918 5.76589 -1.65244 0
M  V30 5151 H 490.597 6.10584 -2.14001 0
M  V30 5152 N 490.729 0.570148 1.46925 0
M  V30 5153 C 491.677 -0.183181 2.31878 0
M  V30 5154 C 492.671 -0.896721 1.43719 0
M  V30 5155 O 493.877 -0.816536 1.60414 0
M  V30 5156 H 490.252 -0.077944 0.74795 0
M  V30 5157 H 492.223 0.552312 2.93244 0
M  V30 5158 C 490.972 -1.19172 3.2664 0
M  V30 5159 H 490.295 -0.652088 3.94446 0
M  V30 5160 H 491.735 -1.68946 3.88887 0
M  V30 5161 C 490.194 -2.24627 2.51086 0
M  V30 5162 O 490.724 -3.31773 2.26472 0
M  V30 5163 N 488.93 -1.98898 2.11867 0
M  V30 5164 H 488.477 -1.11777 2.32086 0
M  V30 5165 H 488.435 -2.6967 1.61634 0
M  V30 5166 N 492.207 -1.54576 0.307264 0
M  V30 5167 C 493.437 -2.04378 -0.302158 0
M  V30 5168 C 493.845 -1.18381 -1.47589 0
M  V30 5169 O 493.188 -0.20352 -1.82569 0
M  V30 5170 C 493.25 -3.50133 -0.815305 0
M  V30 5171 C 492.914 -4.56401 0.233977 0
M  V30 5172 C 493.911 -5.08884 1.06456 0
M  V30 5173 C 491.596 -5.0088 0.377478 0
M  V30 5174 C 493.59 -6.04394 2.02452 0
M  V30 5175 C 491.277 -5.96208 1.34088 0
M  V30 5176 C 492.275 -6.47849 2.16288 0
M  V30 5177 O 491.963 -7.41308 3.10994 0
M  V30 5178 H 491.695 -0.672502 -0.0686839 0
M  V30 5179 H 494.249 -2.00484 0.446682 0
M  V30 5180 H 492.479 -3.51371 -1.61478 0
M  V30 5181 H 494.168 -3.83098 -1.34129 0
M  V30 5182 H 494.934 -4.75311 0.964596 0
M  V30 5183 H 490.813 -4.60309 -0.252405 0
M  V30 5184 H 494.357 -6.44626 2.66652 0
M  V30 5185 H 490.254 -6.29198 1.44154 0
M  V30 5186 H 491.022 -7.5913 3.06045 0
M  V30 5187 N 493.685 -0.035106 -1.57561 0
M  V30 5188 C 494.595 0.960295 -2.14046 0
M  V30 5189 C 495.611 1.3529 -1.0942 0
M  V30 5190 O 496.787 1.43309 -1.41508 0
M  V30 5191 C 493.852 2.22214 -2.66124 0
M  V30 5192 C 492.913 1.8894 -3.85487 0
M  V30 5193 C 492.146 3.09109 -4.35072 0
M  V30 5194 O 492.369 4.21963 -3.83802 0
M  V30 5195 O 491.303 2.91058 -5.26848 0
M  V30 5196 H 495.129 0.509983 -2.99387 0
M  V30 5197 H 492.714 0.185853 -1.48239 0
M  V30 5198 H 494.596 2.96279 -2.99661 0
M  V30 5199 H 493.271 2.66414 -1.83862 0
M  V30 5200 H 492.178 1.12241 -3.56865 0
M  V30 5201 H 493.511 1.49551 -4.6893 0
M  V30 5202 N 495.163 1.55791 0.238111 0
M  V30 5203 C 496.391 1.82098 0.982233 0
M  V30 5204 C 496.806 0.612025 1.78605 0
M  V30 5205 O 496.163 -0.419381 1.77616 0
M  V30 5206 C 496.214 3.0673 1.91309 0
M  V30 5207 O 495.935 4.2296 1.14179 0
M  V30 5208 C 497.436 3.45903 2.77248 0
M  V30 5209 H 494.656 0.605748 0.288635 0
M  V30 5210 H 497.2 2.02862 0.258341 0
M  V30 5211 H 495.355 2.87991 2.59114 0
M  V30 5212 H 495.769 4.93653 1.7722 0
M  V30 5213 H 497.243 4.36189 3.38295 0
M  V30 5214 H 497.72 2.66891 3.48806 0
M  V30 5215 H 498.326 3.67024 2.14881 0
M  V30 5216 N 496.642 -0.504142 1.49319 0
M  V30 5217 C 497.89 -1.25598 1.58334 0
M  V30 5218 C 498.211 -1.93114 0.270538 0
M  V30 5219 O 497.481 -1.82585 -0.709891 0
M  V30 5220 H 496.061 -0.466571 0.58337 0
M  V30 5221 H 498.723 -0.584547 1.85928 0
M  V30 5222 H 497.819 -2.02159 2.37778 0
M  V30 5223 N 498.12 -1.38341 -0.754957 0
M  V30 5224 C 499.07 -1.31964 -1.85929 0
M  V30 5225 C 500.054 -0.204181 -1.59599 0
M  V30 5226 O 501.246 -0.440036 -1.71443 0
M  V30 5227 C 498.375 -1.14565 -3.2362 0
M  V30 5228 C 497.461 -2.30727 -3.55846 0
M  V30 5229 N 497.852 -3.56165 -3.59138 0
M  V30 5230 C 496.15 -2.23249 -3.86104 0
M  V30 5231 C 496.851 -4.32865 -3.88591 0
M  V30 5232 N 495.827 -3.62203 -4.05351 0
M  V30 5233 H 499.629 -2.2694 -1.8675 0
M  V30 5234 H 497.143 -1.31553 -0.952243 0
M  V30 5235 H 499.14 -1.0808 -4.02647 0
M  V30 5236 H 497.8 -0.205212 -3.24051 0
M  V30 5237 H 498.811 -3.89854 -3.40932 0
M  V30 5238 H 495.488 -1.37357 -3.94258 0
M  V30 5239 H 496.878 -5.41504 -3.97773 0
M  V30 5240 N 499.598 0.982988 -1.23187 0
M  V30 5241 C 500.561 2.05649 -1.01198 0
M  V30 5242 C 501.561 1.6078 0.0252464 0
M  V30 5243 O 502.751 1.72878 -0.214243 0
M  V30 5244 C 499.883 3.36744 -0.530656 0
M  V30 5245 H 501.076 2.2659 -1.96461 0
M  V30 5246 H 498.629 1.15602 -1.05195 0
M  V30 5247 H 499.364 3.21492 0.425873 0
M  V30 5248 H 499.149 3.7065 -1.2791 0
M  V30 5249 H 500.639 4.15705 -0.397366 0
M  V30 5250 N 501.076 1.04316 1.18135 0
M  V30 5251 C 502.325 0.74319 1.87509 0
M  V30 5252 C 502.638 -0.732136 1.81381 0
M  V30 5253 O 503.844 -1.14572 2.46141 0
M  V30 5254 C 502.3 1.27913 3.36402 0
M  V30 5255 C 501.908 2.78326 3.51053 0
M  V30 5256 C 503.652 1.0558 4.11161 0
M  V30 5257 C 501.559 3.25266 4.93919 0
M  V30 5258 H 500.489 0.274313 0.702331 0
M  V30 5259 H 503.14 1.25931 1.33467 0
M  V30 5260 H 501.522 0.690853 3.89927 0
M  V30 5261 H 502.696 3.42933 3.07788 0
M  V30 5262 H 501.011 2.991 2.89704 0
M  V30 5263 H 503.608 1.38161 5.16542 0
M  V30 5264 H 503.951 -0.00684729 4.16299 0
M  V30 5265 H 504.484 1.60882 3.63816 0
M  V30 5266 H 501.223 4.30922 4.9395 0
M  V30 5267 H 500.743 2.65396 5.3789 0
M  V30 5268 H 502.422 3.19433 5.62647 0
M  V30 5269 N 502.554 -1.34406 0.822964 0
M  V30 5270 C 503.801 -1.98284 0.411057 0
M  V30 5271 C 504.129 -1.65245 -1.02588 0
M  V30 5272 O 503.384 -0.91619 -1.72929 0
M  V30 5273 C 503.683 -3.52981 0.560268 0
M  V30 5274 C 503.349 -4.05931 1.96293 0
M  V30 5275 C 502.011 -4.20103 2.34664 0
M  V30 5276 C 504.363 -4.34412 2.87985 0
M  V30 5277 C 501.691 -4.60082 3.64062 0
M  V30 5278 C 504.043 -4.75838 4.16847 0
M  V30 5279 C 502.707 -4.88215 4.55195 0
M  V30 5280 H 501.977 -0.725573 0.150416 0
M  V30 5281 H 504.624 -1.60349 1.04692 0
M  V30 5282 H 502.929 -3.91477 -0.158982 0
M  V30 5283 H 504.626 -4.00385 0.222087 0
M  V30 5284 H 501.216 -3.95363 1.65487 0
M  V30 5285 H 505.4 -4.23001 2.59584 0
M  V30 5286 H 500.656 -4.67856 3.93599 0
M  V30 5287 H 504.83 -4.96834 4.87984 0
M  V30 5288 H 502.457 -5.18952 5.55512 0
M  V30 5289 N 504.032 -0.577932 -1.46621 0
M  V30 5290 C 504.942 0.160651 -2.34049 0
M  V30 5291 C 505.958 0.890911 -1.49462 0
M  V30 5292 O 507.134 0.855166 -1.82343 0
M  V30 5293 C 504.199 1.16447 -3.26559 0
M  V30 5294 C 503.26 0.4394 -4.27045 0
M  V30 5295 C 502.493 1.3954 -5.15135 0
M  V30 5296 O 502.716 2.63162 -5.06065 0
M  V30 5297 O 501.65 0.908585 -5.95003 0
M  V30 5298 H 505.476 -0.557057 -2.98547 0
M  V30 5299 H 503.061 -0.338369 -1.45518 0
M  V30 5300 H 504.943 1.7434 -3.83645 0
M  V30 5301 H 503.618 1.86373 -2.64663 0
M  V30 5302 H 502.525 -0.181247 -3.73661 0
M  V30 5303 H 503.858 -0.218799 -4.91713 0
M  V30 5304 N 505.51 1.54411 -0.315457 0
M  V30 5305 C 506.473 2.22713 0.54142 0
M  V30 5306 C 507.473 1.2179 1.04995 0
M  V30 5307 O 508.663 1.46426 0.943667 0
M  V30 5308 C 505.795 2.92485 1.75116 0
M  V30 5309 H 506.988 2.99849 -0.0555508 0
M  V30 5310 H 504.541 1.56159 -0.0664453 0
M  V30 5311 H 505.276 2.19466 2.38758 0
M  V30 5312 H 505.061 3.66483 1.39401 0
M  V30 5313 H 506.551 3.44548 2.35959 0
M  V30 5314 N 506.988 0.0434614 1.5754 0
M  V30 5315 C 508.216 -0.641835 1.96693 0
M  V30 5316 C 508.631 -1.64832 0.920652 0
M  V30 5317 O 507.988 -1.82247 -0.095993 0
M  V30 5318 C 508.039 -1.33557 3.35924 0
M  V30 5319 O 507.76 -0.369403 4.3654 0
M  V30 5320 C 509.261 -2.11135 3.89791 0
M  V30 5321 H 506.481 -0.176013 0.647503 0
M  V30 5322 H 509.025 0.107478 2.04217 0
M  V30 5323 H 507.18 -2.03617 3.29574 0
M  V30 5324 H 507.594 -0.863674 5.1734 0
M  V30 5325 H 509.068 -2.55107 4.89514 0
M  V30 5326 H 509.545 -2.95634 3.24803 0
M  V30 5327 H 510.151 -1.46002 3.99454 0
M  V30 5328 N 508.466 -1.55915 -0.229846 0
M  V30 5329 C 509.416 -1.8813 -1.28807 0
M  V30 5330 C 510.4 -0.743621 -1.42685 0
M  V30 5331 O 511.592 -1.00588 -1.4564 0
M  V30 5332 C 508.721 -2.19431 -2.64017 0
M  V30 5333 C 507.807 -3.39569 -2.54074 0
M  V30 5334 N 508.198 -4.58404 -2.13774 0
M  V30 5335 C 506.496 -3.43019 -2.85051 0
M  V30 5336 C 507.197 -5.40557 -2.1488 0
M  V30 5337 N 506.173 -4.80054 -2.55047 0
M  V30 5338 H 509.975 -2.77527 -0.967261 0
M  V30 5339 H 507.489 -1.5637 -0.438433 0
M  V30 5340 H 509.486 -2.40681 -3.40409 0
M  V30 5341 H 508.146 -1.31341 -2.9695 0
M  V30 5342 H 509.157 -4.83716 -1.8504 0
M  V30 5343 H 505.834 -2.65249 -3.22411 0
M  V30 5344 H 507.224 -6.45666 -1.85918 0
M  V30 5345 N 509.944 0.496216 -1.49584 0
M  V30 5346 C 511.192 1.24756 -1.58998 0
M  V30 5347 C 511.513 1.92968 -0.280775 0
M  V30 5348 O 510.783 1.82959 0.700198 0
M  V30 5349 H 509.363 0.463471 -0.585836 0
M  V30 5350 H 512.025 0.574678 -1.86235 0
M  V30 5351 H 511.121 2.00895 -2.38847 0
M  V30 5352 N 511.423 1.38739 0.74761 0
M  V30 5353 C 512.651 1.38521 1.53686 0
M  V30 5354 C 513.066 -0.0235129 1.88785 0
M  V30 5355 O 512.423 -0.991662 1.53207 0
M  V30 5356 C 512.474 2.24641 2.83229 0
M  V30 5357 O 512.195 3.60026 2.49625 0
M  V30 5358 C 513.696 2.32669 3.77333 0
M  V30 5359 H 510.916 0.473589 0.475347 0
M  V30 5360 H 513.46 1.82395 0.924786 0
M  V30 5361 H 511.615 1.84213 3.40799 0
M  V30 5362 H 512.029 4.05435 3.3275 0
M  V30 5363 H 513.503 2.97201 4.65162 0
M  V30 5364 H 513.98 1.3421 4.18192 0
M  V30 5365 H 514.586 2.73512 3.25685 0
M  V30 5366 N 512.901 -0.976442 1.23707 0
M  V30 5367 C 513.864 -2.0511 1.02287 0
M  V30 5368 C 514.864 -1.60791 -0.0167195 0
M  V30 5369 O 516.054 -1.72761 0.223408 0
M  V30 5370 C 513.186 -3.36458 0.548507 0
M  V30 5371 H 514.379 -2.25545 1.9766 0
M  V30 5372 H 511.932 -1.15042 1.05806 0
M  V30 5373 H 512.667 -3.21713 -0.408818 0
M  V30 5374 H 512.452 -3.69967 1.29874 0
M  V30 5375 H 513.942 -4.15489 0.419406 0
M  V30 5376 N 514.379 -1.04941 -1.1758 0
M  V30 5377 C 515.79 -0.784501 -1.69418 0
M  V30 5378 C 516.141 0.693625 -1.8353 0
M  V30 5379 O 515.266 1.53925 -1.52106 0
M  V30 5380 C 515.861 -1.41746 -3.07723 0
M  V30 5381 C 514.42 -1.20066 -3.56737 0
M  V30 5382 C 513.567 -1.5026 -2.33061 0
M  V30 5383 H 516.518 -1.21469 -1.02133 0
M  V30 5384 H 516.539 -0.825381 -3.7144 0
M  V30 5385 H 516.051 -2.49325 -2.9742 0
M  V30 5386 H 514.152 -0.144006 -3.72322 0
M  V30 5387 H 514.265 -1.90384 -4.39648 0
M  V30 5388 H 512.629 -0.922598 -2.37403 0
M  V30 5389 H 513.412 -2.58967 -2.25368 0
M  V30 5390 N 515.857 1.33968 -0.830081 0
M  V30 5391 C 516.804 2.29387 -0.255008 0
M  V30 5392 C 517.774 1.53923 0.624243 0
M  V30 5393 O 518.959 1.82262 0.564372 0
M  V30 5394 C 516.099 3.4034 0.571209 0
M  V30 5395 C 515.212 4.30729 -0.331083 0
M  V30 5396 C 514.347 5.2879 0.505389 0
M  V30 5397 C 513.386 6.10819 -0.395843 0
M  V30 5398 N 512.523 7.00948 0.401979 0
M  V30 5399 H 517.363 2.77972 -1.07404 0
M  V30 5400 H 514.9 1.36785 -0.541133 0
M  V30 5401 H 516.858 4.03361 1.06562 0
M  V30 5402 H 515.488 2.9297 1.35529 0
M  V30 5403 H 514.54 3.68507 -0.943759 0
M  V30 5404 H 515.852 4.88181 -1.02377 0
M  V30 5405 H 515.006 5.97297 1.06399 0
M  V30 5406 H 513.745 4.71894 1.23155 0
M  V30 5407 H 512.75 5.41238 -0.966529 0
M  V30 5408 H 513.975 6.69797 -1.12023 0
M  V30 5409 H 511.921 6.46512 1.11168 0
M  V30 5410 H 511.838 7.55643 -0.232167 0
M  V30 5411 H 513.106 7.73774 0.943102 0
M  V30 5412 N 517.335 0.585699 1.46312 0
M  V30 5413 C 518.565 0.0780166 2.06453 0
M  V30 5414 C 518.973 -1.2336 1.43454 0
M  V30 5415 O 518.316 -1.75734 0.535086 0
M  V30 5416 C 518.378 -0.158951 3.59148 0
M  V30 5417 C 518.042 1.06752 4.44357 0
M  V30 5418 C 519.039 1.98031 4.80708 0
M  V30 5419 C 516.724 1.2902 4.85447 0
M  V30 5420 C 518.718 3.09924 5.5698 0
M  V30 5421 C 516.405 2.41218 5.61478 0
M  V30 5422 C 517.403 3.31499 5.97158 0
M  V30 5423 O 517.091 4.41747 6.71651 0
M  V30 5424 H 516.823 0.0558894 0.673686 0
M  V30 5425 H 519.377 0.806994 1.88883 0
M  V30 5426 H 517.607 -0.942575 3.75037 0
M  V30 5427 H 519.296 -0.615513 4.01206 0
M  V30 5428 H 520.062 1.82043 4.49539 0
M  V30 5429 H 515.941 0.596567 4.57124 0
M  V30 5430 H 519.485 3.80415 5.84748 0
M  V30 5431 H 515.382 2.57167 5.9206 0
M  V30 5432 H 516.15 4.40152 6.90079 0
M  V30 5433 N 518.813 -1.54241 0.323641 0
M  V30 5434 C 519.776 -2.22997 -0.529602 0
M  V30 5435 C 520.776 -1.22345 -1.04347 0
M  V30 5436 O 521.966 -1.46924 -0.935889 0
M  V30 5437 C 519.098 -2.93409 -1.73562 0
M  V30 5438 H 520.291 -2.99815 0.0714518 0
M  V30 5439 H 517.844 -1.56121 0.0747258 0
M  V30 5440 H 518.579 -2.20729 -2.37591 0
M  V30 5441 H 518.364 -3.67217 -1.37456 0
M  V30 5442 H 519.854 -3.45794 -2.34128 0
M  V30 5443 N 520.291 -0.0518155 -1.57515 0
M  V30 5444 C 521.539 0.620595 -1.92336 0
M  V30 5445 C 521.86 1.71345 -0.930907 0
M  V30 5446 O 521.13 1.95885 0.0241341 0
M  V30 5447 H 519.71 0.232226 -0.709986 0
M  V30 5448 H 522.372 -0.104969 -1.94617 0
M  V30 5449 H 521.468 1.05879 -2.93592 0
M  V30 5450 N 521.769 1.56035 0.221574 0
M  V30 5451 C 522.699 1.95434 1.2778 0
M  V30 5452 C 523.68 0.822564 1.48889 0
M  V30 5453 O 524.865 1.08486 1.61072 0
M  V30 5454 C 521.995 2.27102 2.62759 0
M  V30 5455 C 520.949 3.4277 2.56306 0
M  V30 5456 C 520.275 3.60043 3.95314 0
M  V30 5457 C 521.575 4.77742 2.11093 0
M  V30 5458 H 523.269 2.83912 0.950504 0
M  V30 5459 H 520.815 1.36596 0.455791 0
M  V30 5460 H 522.768 2.53256 3.36807 0
M  V30 5461 H 521.492 1.35478 2.97176 0
M  V30 5462 H 520.151 3.16664 1.84715 0
M  V30 5463 H 519.799 2.65794 4.27039 0
M  V30 5464 H 519.499 4.37841 3.91879 0
M  V30 5465 H 521.023 3.88545 4.71025 0
M  V30 5466 H 522.437 5.03102 2.74885 0
M  V30 5467 H 520.834 5.58823 2.18716 0
M  V30 5468 H 521.904 4.731 1.06321 0
M  V30 5469 N 523.247 -0.488276 1.49845 0
M  V30 5470 C 524.524 -1.24959 1.50481 0
M  V30 5471 C 524.904 -2.09735 0.239698 0
M  V30 5472 O 524.252 -2.14865 -0.777524 0
M  V30 5473 C 524.462 -2.0954 2.79095 0
M  V30 5474 C 525.81 -2.68305 3.29086 0
M  V30 5475 O 526.834 -2.19797 2.80299 0
M  V30 5476 O 525.693 -3.56643 4.14087 0
M  V30 5477 H 522.787 -0.566133 0.602845 0
M  V30 5478 H 525.333 -0.501504 1.6212 0
M  V30 5479 H 524.105 -1.46958 3.62656 0
M  V30 5480 H 523.728 -2.91517 2.70377 0
M  V30 5481 N 524.725 -1.39134 -0.740242 0
M  V30 5482 C 525.672 -1.37434 -1.8542 0
M  V30 5483 C 526.642 -0.234822 -1.64432 0
M  V30 5484 O 527.827 -0.429125 -1.85912 0
M  V30 5485 C 524.967 -1.21844 -3.22875 0
M  V30 5486 C 524.08 -2.45296 -3.55603 0
M  V30 5487 C 523.215 -2.22334 -4.82432 0
M  V30 5488 C 522.254 -3.41488 -5.07988 0
M  V30 5489 N 521.391 -3.17877 -6.26018 0
M  V30 5490 H 526.231 -2.3266 -1.86207 0
M  V30 5491 H 523.768 -1.15578 -0.909946 0
M  V30 5492 H 525.726 -1.10818 -4.02213 0
M  V30 5493 H 524.356 -0.3025 -3.21379 0
M  V30 5494 H 523.408 -2.66945 -2.71006 0
M  V30 5495 H 524.72 -3.34063 -3.7041 0
M  V30 5496 H 523.874 -2.0852 -5.69741 0
M  V30 5497 H 522.613 -1.30954 -4.6979 0
M  V30 5498 H 521.618 -3.55807 -4.19144 0
M  V30 5499 H 522.843 -4.33763 -5.22519 0
M  V30 5500 H 520.789 -2.29156 -6.14673 0
M  V30 5501 H 520.706 -4.00198 -6.41387 0
M  V30 5502 H 521.974 -3.07746 -7.16179 0
M  V30 5503 N 526.204 0.969867 -1.24223 0
M  V30 5504 C 527.45 1.7151 -1.08223 0
M  V30 5505 C 527.783 1.90478 0.37838 0
M  V30 5506 O 527.058 1.4647 1.27971 0
M  V30 5507 C 527.341 3.10714 -1.82013 0
M  V30 5508 C 527.194 2.9925 -3.35811 0
M  V30 5509 C 528.513 4.10332 -1.59108 0
M  V30 5510 H 525.632 0.622499 -0.394543 0
M  V30 5511 H 528.274 1.1284 -1.52863 0
M  V30 5512 H 526.424 3.608 -1.44068 0
M  V30 5513 H 528.096 2.56608 -3.83341 0
M  V30 5514 H 526.339 2.35512 -3.64303 0
M  V30 5515 H 527.01 3.97857 -3.82641 0
M  V30 5516 H 529.486 3.69097 -1.92111 0
M  V30 5517 H 528.362 5.05804 -2.13198 0
M  V30 5518 H 528.623 4.38926 -0.528832 0
M  V30 5519 N 527.682 1.05563 1.17022 0
M  V30 5520 C 528.63 0.653887 2.2322 0
M  V30 5521 C 529.624 -0.326642 1.66221 0
M  V30 5522 O 530.83 -0.192301 1.7897 0
M  V30 5523 H 527.205 0.193297 0.726733 0
M  V30 5524 H 529.176 1.5596 2.54399 0
M  V30 5525 C 527.925 0.0485434 3.47666 0
M  V30 5526 H 527.248 0.79413 3.91834 0
M  V30 5527 H 528.688 -0.195133 4.23551 0
M  V30 5528 C 527.147 -1.20583 3.14581 0
M  V30 5529 O 527.677 -2.29475 3.29703 0
M  V30 5530 N 525.883 -1.10493 2.68774 0
M  V30 5531 H 525.43 -0.218795 2.56669 0
M  V30 5532 H 525.388 -1.94507 2.47011 0
M  V30 5533 N 529.16 -1.33526 0.837174 0
M  V30 5534 C 530.571 -1.80182 0.489017 0
M  V30 5535 C 530.922 -1.69285 -0.991826 0
M  V30 5536 O 530.047 -1.24113 -1.77271 0
M  V30 5537 C 530.642 -3.27149 0.880866 0
M  V30 5538 C 529.201 -3.71828 0.584872 0
M  V30 5539 C 528.348 -2.54974 1.09011 0
M  V30 5540 H 531.299 -1.21071 1.02603 0
M  V30 5541 H 531.32 -3.80024 0.190239 0
M  V30 5542 H 530.832 -3.35048 1.95869 0
M  V30 5543 H 528.933 -3.69457 -0.48295 0
M  V30 5544 H 529.046 -4.65366 1.13892 0
M  V30 5545 H 527.41 -2.4952 0.511047 0
M  V30 5546 H 528.193 -2.65637 2.17467 0
M  V30 5547 N 530.638 -0.59345 -1.46 0
M  V30 5548 C 531.863 -0.0872365 -2.07216 0
M  V30 5549 C 532.288 1.2131 -1.43755 0
M  V30 5550 O 531.646 1.73528 -0.525152 0
M  V30 5551 C 531.694 0.0538197 -3.6056 0
M  V30 5552 O 530.798 1.10765 -3.97247 0
M  V30 5553 H 530.139 -0.0676598 -0.660544 0
M  V30 5554 H 532.669 -0.819445 -1.87473 0
M  V30 5555 H 532.679 0.256567 -4.07193 0
M  V30 5556 H 531.354 -0.895739 -4.0614 0
M  V30 5557 H 529.931 0.882501 -3.62307 0
M  V30 5558 N 532.116 1.54067 -0.331816 0
M  V30 5559 C 533.341 2.05599 0.272705 0
M  V30 5560 C 533.766 1.2059 1.44359 0
M  V30 5561 O 533.124 0.216907 1.79998 0
M  V30 5562 C 533.172 3.54188 0.677021 0
M  V30 5563 O 532.276 3.72082 1.77844 0
M  V30 5564 H 531.617 0.662286 0.0476801 0
M  V30 5565 H 534.147 1.98826 -0.482624 0
M  V30 5566 H 534.157 3.96608 0.957415 0
M  V30 5567 H 532.832 4.15513 -0.179325 0
M  V30 5568 H 531.409 3.41566 1.49622 0
M  V30 5569 N 533.594 0.0601682 1.57485 0
M  V30 5570 C 534.84 -0.612501 1.93329 0
M  V30 5571 C 535.173 -1.6996 0.939526 0
M  V30 5572 O 534.448 -1.94472 -0.0330957 0
M  V30 5573 C 534.731 -1.20025 3.39508 0
M  V30 5574 C 534.584 -0.12059 4.49638 0
M  V30 5575 C 535.903 -2.10923 3.86264 0
M  V30 5576 H 533.022 -0.221185 0.703027 0
M  V30 5577 H 535.664 0.123768 1.89596 0
M  V30 5578 H 533.814 -1.82774 3.42821 0
M  V30 5579 H 535.486 0.51185 4.58452 0
M  V30 5580 H 533.729 0.550251 4.30296 0
M  V30 5581 H 534.4 -0.572019 5.49028 0
M  V30 5582 H 536.876 -1.58124 3.84884 0
M  V30 5583 H 535.752 -2.48987 4.8918 0
M  V30 5584 H 536.013 -3.01292 3.23536 0
M  V30 5585 N 535.072 -1.5615 -0.213296 0
M  V30 5586 C 536.321 -1.78743 -0.93455 0
M  V30 5587 C 536.634 -0.630199 -1.8517 0
M  V30 5588 O 537.84 -0.739966 -2.61222 0
M  V30 5589 C 536.296 -3.16571 -1.71203 0
M  V30 5590 C 535.904 -4.40043 -0.840617 0
M  V30 5591 C 537.648 -3.48485 -2.42401 0
M  V30 5592 C 535.555 -5.68895 -1.61592 0
M  V30 5593 H 534.485 -0.666426 -0.352692 0
M  V30 5594 H 537.136 -1.82532 -0.188227 0
M  V30 5595 H 535.518 -3.06981 -2.50157 0
M  V30 5596 H 536.692 -4.6071 -0.0910326 0
M  V30 5597 H 535.007 -4.15706 -0.240365 0
M  V30 5598 H 537.604 -4.41983 -3.00924 0
M  V30 5599 H 537.947 -2.71371 -3.15695 0
M  V30 5600 H 538.48 -3.59442 -1.7043 0
M  V30 5601 H 535.219 -6.48925 -0.926106 0
M  V30 5602 H 534.739 -5.52275 -2.33991 0
M  V30 5603 H 536.418 -6.09365 -2.17447 0
M  V30 5604 N 536.55 0.480323 -1.50102 0
M  V30 5605 C 537.48 1.58769 -1.71215 0
M  V30 5606 C 538.461 1.60583 -0.560997 0
M  V30 5607 O 539.646 1.76996 -0.799127 0
M  V30 5608 C 536.776 2.97148 -1.79778 0
M  V30 5609 C 535.73 3.10201 -2.94888 0
M  V30 5610 C 535.056 4.50137 -2.88584 0
M  V30 5611 C 536.356 2.88283 -4.35534 0
M  V30 5612 H 538.05 1.41354 -2.6393 0
M  V30 5613 H 535.596 0.678591 -1.27008 0
M  V30 5614 H 537.549 3.74536 -1.93133 0
M  V30 5615 H 536.273 3.15699 -0.836772 0
M  V30 5616 H 534.932 2.35244 -2.81169 0
M  V30 5617 H 534.58 4.65593 -1.90349 0
M  V30 5618 H 534.28 4.59808 -3.65856 0
M  V30 5619 H 535.804 5.29558 -3.03976 0
M  V30 5620 H 537.218 3.55427 -4.49827 0
M  V30 5621 H 535.615 3.09408 -5.14186 0
M  V30 5622 H 536.685 1.84219 -4.48544 0
M  V30 5623 N 538.028 1.39524 0.732853 0
M  V30 5624 C 539.253 1.40329 1.52717 0
M  V30 5625 C 539.678 0.000286574 1.881 0
M  V30 5626 O 539.036 -0.987262 1.52062 0
M  V30 5627 C 539.084 2.28464 2.78992 0
M  V30 5628 O 538.188 1.716 3.75003 0
M  V30 5629 H 537.529 0.47778 0.461109 0
M  V30 5630 H 540.059 1.83546 0.903996 0
M  V30 5631 H 540.069 2.43051 3.27705 0
M  V30 5632 H 538.744 3.30425 2.52572 0
M  V30 5633 H 537.321 1.66267 3.33781 0
M  V30 5634 N 539.506 -0.963266 1.24736 0
M  V30 5635 C 540.754 -1.70343 1.08755 0
M  V30 5636 C 541.075 -1.91387 -0.373619 0
M  V30 5637 O 540.345 -1.4948 -1.2662 0
M  V30 5638 H 538.925 -0.631224 0.399456 0
M  V30 5639 H 541.587 -1.15859 1.56725 0
M  V30 5640 H 540.683 -2.68616 1.58909 0
M  V30 5641 N 540.985 -1.06182 -1.16461 0
M  V30 5642 C 542.231 -0.779015 -1.87241 0
M  V30 5643 C 542.564 0.692715 -1.81425 0
M  V30 5644 O 541.839 1.5074 -1.22913 0
M  V30 5645 C 542.122 -1.2728 -3.36856 0
M  V30 5646 C 541.975 -2.80821 -3.51368 0
M  V30 5647 C 543.294 -0.879799 -4.31216 0
M  V30 5648 H 540.413 -0.284464 -0.679889 0
M  V30 5649 H 543.055 -1.31755 -1.36896 0
M  V30 5650 H 541.205 -0.814673 -3.79862 0
M  V30 5651 H 542.877 -3.34833 -3.17308 0
M  V30 5652 H 541.12 -3.19606 -2.93316 0
M  V30 5653 H 541.791 -3.10435 -4.56436 0
M  V30 5654 H 544.267 -1.27436 -3.96105 0
M  V30 5655 H 543.143 -1.25278 -5.34412 0
M  V30 5656 H 543.404 0.215372 -4.41575 0
M  V30 5657 N 542.463 1.3308 -0.844243 0
M  V30 5658 C 543.393 2.3161 -0.296493 0
M  V30 5659 C 544.374 1.59215 0.598707 0
M  V30 5660 O 545.559 1.87077 0.521134 0
M  V30 5661 C 542.689 3.43313 0.524762 0
M  V30 5662 C 541.643 4.27115 -0.275106 0
M  V30 5663 C 540.969 5.30483 0.670236 0
M  V30 5664 C 542.269 5.00443 -1.49514 0
M  V30 5665 H 543.963 2.77672 -1.11976 0
M  V30 5666 H 541.509 1.33496 -0.539899 0
M  V30 5667 H 543.462 4.11273 0.918298 0
M  V30 5668 H 542.186 2.95952 1.3813 0
M  V30 5669 H 540.845 3.60787 -0.650267 0
M  V30 5670 H 540.493 4.79379 1.52332 0
M  V30 5671 H 540.193 5.87435 0.139123 0
M  V30 5672 H 541.717 6.01308 1.06117 0
M  V30 5673 H 543.131 5.61141 -1.17447 0
M  V30 5674 H 541.528 5.67071 -1.96343 0
M  V30 5675 H 542.598 4.28906 -2.26202 0
M  V30 5676 N 543.941 0.601185 1.45683 0
M  V30 5677 C 544.871 -0.108824 2.33246 0
M  V30 5678 C 545.852 -0.865223 1.46451 0
M  V30 5679 O 547.037 -0.83704 1.75235 0
M  V30 5680 C 544.167 -1.11101 3.2905 0
M  V30 5681 C 543.121 -0.468244 4.25431 0
M  V30 5682 C 542.447 -1.57822 5.10878 0
M  V30 5683 C 543.747 0.606469 5.18767 0
M  V30 5684 H 545.441 0.622306 2.92861 0
M  V30 5685 H 542.987 0.300714 1.40825 0
M  V30 5686 H 544.94 -1.61622 3.89174 0
M  V30 5687 H 543.664 -1.87265 2.67581 0
M  V30 5688 H 542.323 0.0160484 3.66596 0
M  V30 5689 H 541.971 -2.32998 4.45781 0
M  V30 5690 H 541.671 -1.15369 5.76163 0
M  V30 5691 H 543.195 -2.08583 5.73869 0
M  V30 5692 H 544.609 0.185589 5.73 0
M  V30 5693 H 543.006 0.952381 5.92494 0
M  V30 5694 H 544.076 1.48559 4.61582 0
M  V30 5695 N 545.419 -1.53889 0.339982 0
M  V30 5696 C 546.349 -2.27843 -0.510856 0
M  V30 5697 C 547.33 -1.29267 -1.10563 0
M  V30 5698 O 548.515 -1.58104 -1.12768 0
M  V30 5699 C 545.645 -3.04857 -1.66372 0
M  V30 5700 C 544.599 -4.10907 -1.19746 0
M  V30 5701 C 543.925 -4.75855 -2.43857 0
M  V30 5702 C 545.225 -5.21435 -0.300501 0
M  V30 5703 H 546.919 -2.99212 0.106067 0
M  V30 5704 H 544.465 -1.43904 0.0524533 0
M  V30 5705 H 546.418 -3.5533 -2.26537 0
M  V30 5706 H 545.142 -2.31133 -2.30749 0
M  V30 5707 H 543.801 -3.61342 -0.618654 0
M  V30 5708 H 543.449 -3.9873 -3.06633 0
M  V30 5709 H 543.149 -5.47502 -2.13343 0
M  V30 5710 H 544.673 -5.2911 -3.04754 0
M  V30 5711 H 546.087 -5.67565 -0.80889 0
M  V30 5712 H 544.484 -6.00036 -0.0874076 0
M  V30 5713 H 545.554 -4.80328 0.664321 0
M  V30 5714 N 546.897 -0.0685191 -1.57451 0
M  V30 5715 C 547.807 0.914677 -2.16034 0
M  V30 5716 C 548.823 1.32938 -1.12265 0
M  V30 5717 O 549.999 1.40275 -1.44516 0
M  V30 5718 C 547.064 2.16519 -2.70777 0
M  V30 5719 C 546.125 1.80721 -3.89408 0
M  V30 5720 C 545.358 2.9981 -4.41531 0
M  V30 5721 O 545.581 4.13727 -3.92666 0
M  V30 5722 O 544.515 2.79817 -5.32903 0
M  V30 5723 H 548.341 0.446364 -3.00402 0
M  V30 5724 H 545.926 0.154367 -1.486 0
M  V30 5725 H 547.808 2.89856 -3.05878 0
M  V30 5726 H 546.483 2.62454 -1.89471 0
M  V30 5727 H 545.39 1.04646 -3.59166 0
M  V30 5728 H 546.723 1.39571 -4.71997 0
M  V30 5729 N 548.375 1.56261 0.205012 0
M  V30 5730 C 549.325 1.90155 1.25798 0
M  V30 5731 C 550.309 0.766227 1.41484 0
M  V30 5732 O 551.501 1.02893 1.44021 0
M  V30 5733 C 548.63 2.23603 2.60493 0
M  V30 5734 C 547.716 3.43568 2.48639 0
M  V30 5735 N 548.107 4.61747 2.06455 0
M  V30 5736 C 546.405 3.4751 2.79558 0
M  V30 5737 C 547.106 5.43907 2.06253 0
M  V30 5738 N 546.082 4.84051 2.47377 0
M  V30 5739 H 549.884 2.79031 0.922986 0
M  V30 5740 H 547.398 1.57048 0.413501 0
M  V30 5741 H 549.395 2.46067 3.36537 0
M  V30 5742 H 548.055 1.36049 2.94823 0
M  V30 5743 H 549.066 4.86598 1.77321 0
M  V30 5744 H 545.743 2.70345 3.18151 0
M  V30 5745 H 547.133 6.48542 1.75622 0
M  V30 5746 N 549.853 -0.472356 1.50355 0
M  V30 5747 C 550.783 -1.57859 1.72055 0
M  V30 5748 C 551.764 -1.60283 0.569505 0
M  V30 5749 O 552.949 -1.7657 0.808503 0
M  V30 5750 C 550.079 -2.96191 1.81351 0
M  V30 5751 C 549.033 -3.08633 2.96529 0
M  V30 5752 C 548.359 -4.486 2.90968 0
M  V30 5753 C 549.659 -2.85969 4.37057 0
M  V30 5754 H 551.353 -1.39953 2.64676 0
M  V30 5755 H 548.899 -0.671846 1.27367 0
M  V30 5756 H 550.852 -3.73507 1.95117 0
M  V30 5757 H 549.576 -3.15251 0.853502 0
M  V30 5758 H 548.235 -2.33749 2.82413 0
M  V30 5759 H 547.883 -4.64577 1.92815 0
M  V30 5760 H 547.583 -4.57861 3.68289 0
M  V30 5761 H 549.107 -5.27938 3.0678 0
M  V30 5762 H 550.521 -3.53036 4.51706 0
M  V30 5763 H 548.918 -3.06677 5.15819 0
M  V30 5764 H 549.988 -1.81838 4.49514 0
M  V30 5765 N 551.331 -1.39911 -0.725443 0
M  V30 5766 C 552.579 -1.37382 -1.48224 0
M  V30 5767 C 552.9 0.0264107 -1.94982 0
M  V30 5768 O 552.17 0.979408 -1.6966 0
M  V30 5769 H 550.75 -0.505596 -0.549892 0
M  V30 5770 H 553.412 -1.7487 -0.860608 0
M  V30 5771 H 552.508 -2.04254 -2.3598 0
M  V30 5772 N 552.809 0.956637 -1.25245 0
M  V30 5773 C 554.055 1.70413 -1.11044 0
M  V30 5774 C 554.41 1.89275 0.345377 0
M  V30 5775 O 553.703 1.45116 1.25107 0
M  V30 5776 C 553.897 3.08996 -1.79601 0
M  V30 5777 C 553.726 3.03654 -3.317 0
M  V30 5778 C 552.496 3.07521 -4.00947 0
M  V30 5779 C 554.694 2.84975 -4.28128 0
M  V30 5780 N 552.676 2.92316 -5.39838 0
M  V30 5781 C 554.047 2.7818 -5.5409 0
M  V30 5782 C 556.102 2.6964 -4.18568 0
M  V30 5783 C 554.805 2.57616 -6.71585 0
M  V30 5784 C 556.831 2.50447 -5.35752 0
M  V30 5785 C 556.193 2.4437 -6.60653 0
M  V30 5786 H 552.292 0.631642 -0.461035 0
M  V30 5787 H 554.876 1.13331 -1.58317 0
M  V30 5788 H 553.047 3.64248 -1.34826 0
M  V30 5789 H 554.779 3.72515 -1.58161 0
M  V30 5790 H 551.534 3.16635 -3.52192 0
M  V30 5791 H 551.958 2.87923 -6.12723 0
M  V30 5792 H 556.6 2.73113 -3.22752 0
M  V30 5793 H 554.318 2.52885 -7.67512 0
M  V30 5794 H 557.904 2.39509 -5.30214 0
M  V30 5795 H 556.784 2.29712 -7.49801 0
M  V30 5796 N 554.287 1.06798 1.15896 0
M  V30 5797 C 555.235 0.677525 2.22514 0
M  V30 5798 C 556.229 -0.308994 1.66558 0
M  V30 5799 O 557.435 -0.173308 1.79164 0
M  V30 5800 H 553.81 0.200994 0.724642 0
M  V30 5801 H 555.781 1.5865 2.52731 0
M  V30 5802 C 554.53 0.0854153 3.47595 0
M  V30 5803 H 553.853 0.835645 3.90969 0
M  V30 5804 H 555.293 -0.150199 4.23734 0
M  V30 5805 C 553.752 -1.1724 3.15843 0
M  V30 5806 O 554.282 -2.25965 3.32119 0
M  V30 5807 N 552.488 -1.07636 2.69931 0
M  V30 5808 H 552.035 -0.191559 2.56887 0
M  V30 5809 H 551.993 -1.91876 2.4906 0
M  V30 5810 N 555.766 -1.3263 0.851289 0
M  V30 5811 C 556.676 -2.32722 0.296268 0
M  V30 5812 C 557.692 -1.63901 -0.584162 0
M  V30 5813 O 558.868 -1.95465 -0.485334 0
M  V30 5814 C 555.933 -3.42942 -0.509103 0
M  V30 5815 C 554.994 -4.2746 0.397069 0
M  V30 5816 C 554.227 -5.32416 -0.36996 0
M  V30 5817 O 554.45 -5.47491 -1.6003 0
M  V30 5818 O 553.384 -6.01327 0.262493 0
M  V30 5819 H 557.21 -2.82078 1.12543 0
M  V30 5820 H 554.795 -1.36194 0.614135 0
M  V30 5821 H 556.677 -4.1017 -0.96634 0
M  V30 5822 H 555.352 -2.95781 -1.31512 0
M  V30 5823 H 554.259 -3.63053 0.902411 0
M  V30 5824 H 555.592 -4.78136 1.16818 0
M  V30 5825 N 557.244 -0.608902 -1.45362 0
M  V30 5826 C 558.207 0.0992563 -2.28985 0
M  V30 5827 C 559.207 0.793841 -1.39838 0
M  V30 5828 O 560.397 0.641804 -1.61946 0
M  V30 5829 C 557.529 1.15073 -3.20891 0
M  V30 5830 H 558.722 -0.635964 -2.93079 0
M  V30 5831 H 556.275 -0.368007 -1.51906 0
M  V30 5832 H 557.01 1.91667 -2.616 0
M  V30 5833 H 556.795 0.656867 -3.86559 0
M  V30 5834 H 558.285 1.64665 -3.83765 0
M  V30 5835 N 558.722 1.53707 -0.348139 0
M  V30 5836 C 559.685 2.23812 0.494058 0
M  V30 5837 C 560.685 1.23989 1.02388 0
M  V30 5838 O 561.875 1.48395 0.912396 0
M  V30 5839 C 559.007 2.96133 1.68872 0
M  V30 5840 H 560.2 2.99663 -0.119141 0
M  V30 5841 H 557.753 1.55983 -0.0995539 0
M  V30 5842 H 558.488 2.24481 2.34049 0
M  V30 5843 H 558.273 3.69357 1.31596 0
M  V30 5844 H 559.763 3.49475 2.28597 0
M  V30 5845 N 560.2 0.0768682 1.57412 0
M  V30 5846 C 561.477 -0.632359 1.85096 0
M  V30 5847 C 561.857 -1.87479 0.9703 0
M  V30 5848 O 561.205 -2.28469 0.0379062 0
M  V30 5849 C 561.415 -0.965174 3.35388 0
M  V30 5850 C 562.763 -1.33648 4.03018 0
M  V30 5851 O 563.787 -1.05675 3.40164 0
M  V30 5852 O 562.646 -1.85959 5.13889 0
M  V30 5853 H 559.74 -0.314574 0.764835 0
M  V30 5854 H 562.286 0.108184 1.69355 0
M  V30 5855 H 561.058 -0.0829745 3.91212 0
M  V30 5856 H 560.681 -1.76231 3.5641 0
M  V30 5857 N 561.678 -1.56367 -0.196722 0
M  V30 5858 C 562.608 -1.97442 -1.24655 0
M  V30 5859 C 563.589 -0.846147 -1.47561 0
M  V30 5860 O 564.774 -1.11035 -1.59326 0
M  V30 5861 C 561.904 -2.31253 -2.59112 0
M  V30 5862 C 560.858 -3.46804 -2.50821 0
M  V30 5863 C 560.184 -3.66286 -3.89536 0
M  V30 5864 C 561.484 -4.8104 -2.03465 0
M  V30 5865 H 563.178 -2.85388 -0.905216 0
M  V30 5866 H 560.724 -1.37304 -0.434002 0
M  V30 5867 H 562.677 -2.58583 -3.32736 0
M  V30 5868 H 561.401 -1.40188 -2.94983 0
M  V30 5869 H 560.06 -3.19563 -1.79653 0
M  V30 5870 H 559.708 -2.72555 -4.22756 0
M  V30 5871 H 559.408 -4.4402 -3.84864 0
M  V30 5872 H 560.932 -3.9599 -4.64784 0
M  V30 5873 H 562.346 -5.07411 -2.66846 0
M  V30 5874 H 560.743 -5.62232 -2.09798 0
M  V30 5875 H 561.813 -4.74732 -0.98781 0
M  V30 5876 N 563.156 0.464375 -1.50603 0
M  V30 5877 C 564.402 1.21776 -1.62168 0
M  V30 5878 C 564.735 1.91476 -0.324154 0
M  V30 5879 O 564.01 1.8242 0.674782 0
M  V30 5880 C 564.293 2.25614 -2.80661 0
M  V30 5881 C 564.146 1.60175 -4.20314 0
M  V30 5882 C 565.465 3.26862 -2.94702 0
M  V30 5883 H 562.584 0.44137 -0.590222 0
M  V30 5884 H 565.226 0.510623 -1.8301 0
M  V30 5885 H 563.376 2.85923 -2.63021 0
M  V30 5886 H 565.048 1.03411 -4.4956 0
M  V30 5887 H 563.291 0.904697 -4.24261 0
M  V30 5888 H 563.962 2.35665 -4.99165 0
M  V30 5889 H 566.438 2.76582 -3.10872 0
M  V30 5890 H 565.314 3.96839 -3.79223 0
M  V30 5891 H 565.575 3.91382 -2.05603 0
M  V30 5892 N 564.634 1.40294 0.718013 0
M  V30 5893 C 565.883 1.37746 1.4734 0
M  V30 5894 C 566.196 -0.0180754 1.95592 0
M  V30 5895 O 567.402 -0.166166 2.70991 0
M  V30 5896 C 565.858 2.4208 2.66318 0
M  V30 5897 C 565.466 3.87432 2.24945 0
M  V30 5898 C 567.21 2.48635 3.44065 0
M  V30 5899 C 565.117 4.83368 3.40748 0
M  V30 5900 H 564.047 0.512165 0.553356 0
M  V30 5901 H 566.698 1.66019 0.781661 0
M  V30 5902 H 565.08 2.06903 3.3765 0
M  V30 5903 H 566.254 4.3174 1.6105 0
M  V30 5904 H 564.569 3.8433 1.60249 0
M  V30 5905 H 567.166 3.17499 4.30231 0
M  V30 5906 H 567.509 1.51611 3.87711 0
M  V30 5907 H 568.042 2.82791 2.79775 0
M  V30 5908 H 564.781 5.81716 3.02136 0
M  V30 5909 H 564.301 4.43726 4.03568 0
M  V30 5910 H 565.98 5.03074 4.06848 0
M  V30 5911 N 566.112 -0.949982 1.2575 0
M  V30 5912 C 567.059 -2.04738 1.06541 0
M  V30 5913 C 568.029 -1.66078 -0.0268818 0
M  V30 5914 O 569.214 -1.90348 0.131196 0
M  V30 5915 C 566.354 -3.38027 0.695127 0
M  V30 5916 C 565.467 -3.89776 1.86276 0
M  V30 5917 C 564.602 -5.11411 1.4364 0
M  V30 5918 C 563.641 -5.554 2.57287 0
M  V30 5919 N 562.778 -6.68244 2.15395 0
M  V30 5920 H 567.618 -2.20502 2.00457 0
M  V30 5921 H 565.155 -1.0805 0.998178 0
M  V30 5922 H 567.113 -4.14641 0.461375 0
M  V30 5923 H 565.743 -3.22135 -0.207046 0
M  V30 5924 H 564.795 -3.0964 2.20969 0
M  V30 5925 H 566.107 -4.18368 2.71606 0
M  V30 5926 H 565.261 -5.95457 1.16257 0
M  V30 5927 H 564 -4.84545 0.553879 0
M  V30 5928 H 563.005 -4.69916 2.85409 0
M  V30 5929 H 564.23 -5.84272 3.46125 0
M  V30 5930 H 562.176 -6.43078 1.29565 0
M  V30 5931 H 562.093 -6.96377 2.94272 0
M  V30 5932 H 563.361 -7.55687 1.91201 0
M  V30 5933 N 567.59 -1.07411 -1.15328 0
M  V30 5934 C 568.815 -0.818856 -1.90551 0
M  V30 5935 C 569.24 0.622194 -1.77512 0
M  V30 5936 O 568.598 1.43484 -1.10824 0
M  V30 5937 C 568.646 -1.23267 -3.38877 0
M  V30 5938 O 567.75 -0.378345 -4.10661 0
M  V30 5939 H 567.091 -0.29827 -0.593238 0
M  V30 5940 H 569.621 -1.43289 -1.46046 0
M  V30 5941 H 569.631 -1.20912 -3.89672 0
M  V30 5942 H 568.306 -2.28226 -3.47686 0
M  V30 5943 H 566.883 -0.464437 -3.69996 0
M  V30 5944 N 569.068 1.32177 -0.85831 0
M  V30 5945 C 570.001 2.26823 -0.25035 0
M  V30 5946 C 570.979 1.50571 0.61378 0
M  V30 5947 O 572.163 1.79682 0.569777 0
M  V30 5948 C 569.29 3.32472 0.646556 0
M  V30 5949 C 568.336 4.26255 -0.144675 0
M  V30 5950 S 569.169 5.13608 -1.5155 0
M  V30 5951 C 570.325 6.22778 -0.624408 0
M  V30 5952 H 570.558 2.7804 -1.05267 0
M  V30 5953 H 568.091 1.39764 -0.656152 0
M  V30 5954 H 570.049 3.93817 1.15837 0
M  V30 5955 H 568.71 2.80031 1.42272 0
M  V30 5956 H 567.903 5.01114 0.538613 0
M  V30 5957 H 567.505 3.69346 -0.588198 0
M  V30 5958 H 569.797 6.77287 0.169846 0
M  V30 5959 H 570.74 6.95233 -1.34376 0
M  V30 5960 H 571.148 5.64156 -0.197128 0
M  V30 5961 N 570.547 0.616602 1.45037 0
M  V30 5962 C 571.457 -0.0985401 2.34393 0
M  V30 5963 C 572.473 -0.850971 1.51771 0
M  V30 5964 O 573.649 -0.806521 1.84546 0
M  V30 5965 C 570.714 -1.07748 3.29532 0
M  V30 5966 C 569.775 -0.326022 4.2806 0
M  V30 5967 C 569.008 -1.25833 5.18654 0
M  V30 5968 O 569.231 -2.49652 5.12864 0
M  V30 5969 O 568.165 -0.750512 5.97203 0
M  V30 5970 H 571.991 0.636016 2.96966 0
M  V30 5971 H 569.576 0.376832 1.44569 0
M  V30 5972 H 571.458 -1.64107 3.88133 0
M  V30 5973 H 570.133 -1.79291 2.69512 0
M  V30 5974 H 569.04 0.280253 3.73049 0
M  V30 5975 H 570.373 0.349091 4.9096 0
M  V30 5976 N 572.025 -1.5352 0.356285 0
M  V30 5977 C 572.972 -2.25439 -0.494569 0
M  V30 5978 C 573.942 -1.25752 -1.08516 0
M  V30 5979 O 575.127 -1.54513 -1.1194 0
M  V30 5980 C 572.267 -3.04011 -1.63313 0
M  V30 5981 C 571.38 -4.18574 -1.06862 0
M  V30 5982 C 570.515 -4.84607 -2.17552 0
M  V30 5983 C 569.554 -5.91218 -1.58518 0
M  V30 5984 N 568.691 -6.50979 -2.63003 0
M  V30 5985 H 573.531 -2.97737 0.125244 0
M  V30 5986 H 571.068 -1.46916 0.0735789 0
M  V30 5987 H 573.026 -3.47834 -2.30363 0
M  V30 5988 H 571.656 -2.33986 -2.22374 0
M  V30 5989 H 570.708 -3.79303 -0.288672 0
M  V30 5990 H 572.02 -4.95215 -0.596924 0
M  V30 5991 H 571.174 -5.31566 -2.92442 0
M  V30 5992 H 569.913 -4.07418 -2.6807 0
M  V30 5993 H 568.918 -5.4363 -0.821391 0
M  V30 5994 H 570.143 -6.70322 -1.08836 0
M  V30 5995 H 568.089 -5.76648 -3.12751 0
M  V30 5996 H 568.006 -7.23131 -2.20493 0
M  V30 5997 H 569.274 -7.02589 -3.37623 0
M  V30 5998 N 573.503 -0.0852151 -1.57369 0
M  V30 5999 C 574.731 0.58946 -1.98325 0
M  V30 6000 C 575.146 1.62333 -0.96403 0
M  V30 6001 O 574.503 1.82438 0.0476395 0
M  V30 6002 C 574.554 1.24604 -3.39347 0
M  V30 6003 O 574.275 0.253532 -4.37366 0
M  V30 6004 C 575.776 2.00726 -3.95252 0
M  V30 6005 H 572.996 0.158783 -0.651942 0
M  V30 6006 H 575.54 -0.161584 -2.03861 0
M  V30 6007 H 573.695 1.94808 -3.34856 0
M  V30 6008 H 574.109 0.726207 -5.19448 0
M  V30 6009 H 575.583 2.42039 -4.96106 0
M  V30 6010 H 576.06 2.86919 -3.32527 0
M  V30 6011 H 576.666 1.3536 -4.03185 0
M  V30 6012 N 574.981 1.5647 0.188427 0
M  V30 6013 C 576.23 1.80207 0.905995 0
M  V30 6014 C 576.543 0.659579 1.84144 0
M  V30 6015 O 577.749 0.781431 2.60011 0
M  V30 6016 C 576.205 3.19255 1.66145 0
M  V30 6017 C 575.813 4.41324 0.770504 0
M  V30 6018 C 577.557 3.52298 2.36826 0
M  V30 6019 C 575.464 5.71394 1.52521 0
M  V30 6020 H 574.394 0.671953 0.342045 0
M  V30 6021 H 577.045 1.82808 0.159164 0
M  V30 6022 H 575.427 3.10922 2.45242 0
M  V30 6023 H 576.601 4.60797 0.0177261 0
M  V30 6024 H 574.916 4.16035 0.174199 0
M  V30 6025 H 577.513 4.46715 2.93854 0
M  V30 6026 H 577.856 2.76359 3.11338 0
M  V30 6027 H 578.389 3.62108 1.6469 0
M  V30 6028 H 575.128 6.50316 0.82275 0
M  V30 6029 H 574.648 5.55928 2.25175 0
M  V30 6030 H 576.327 6.12747 2.07725 0
M  V30 6031 N 576.459 -0.456382 1.50847 0
M  V30 6032 C 577.422 -1.53493 1.70213 0
M  V30 6033 C 578.422 -1.50264 0.572481 0
M  V30 6034 O 579.612 -1.52623 0.839751 0
M  V30 6035 C 576.744 -2.93091 1.741 0
M  V30 6036 H 577.937 -1.37633 2.66453 0
M  V30 6037 H 575.49 -0.683776 1.4055 0
M  V30 6038 H 576.225 -3.14378 0.796063 0
M  V30 6039 H 576.01 -2.9684 2.5618 0
M  V30 6040 H 577.5 -3.71368 1.90987 0
M  V30 6041 N 577.937 -1.40673 -0.710563 0
M  V30 6042 C 579.162 -1.42741 -1.50465 0
M  V30 6043 C 579.587 -0.0302116 -1.88076 0
M  V30 6044 O 578.945 0.962945 -1.53613 0
M  V30 6045 C 578.993 -2.32873 -2.75322 0
M  V30 6046 O 578.097 -1.77544 -3.72226 0
M  V30 6047 H 577.438 -0.485056 -0.45345 0
M  V30 6048 H 579.968 -1.84961 -0.874681 0
M  V30 6049 H 579.978 -2.48233 -3.23797 0
M  V30 6050 H 578.653 -3.34401 -2.47283 0
M  V30 6051 H 577.23 -1.71556 -3.31093 0
M  V30 6052 N 579.415 0.9433 -1.26252 0
M  V30 6053 C 580.362 2.0417 -1.07625 0
M  V30 6054 C 581.332 1.6609 0.0180738 0
M  V30 6055 O 582.517 1.90276 -0.141289 0
M  V30 6056 C 579.657 3.37653 -0.713043 0
M  V30 6057 C 578.77 3.88783 -1.8834 0
M  V30 6058 C 577.905 5.10642 -1.4635 0
M  V30 6059 C 576.944 5.54028 -2.60229 0
M  V30 6060 N 576.081 6.67092 -2.18936 0
M  V30 6061 H 580.921 2.19436 -2.01623 0
M  V30 6062 H 578.458 1.07519 -1.00389 0
M  V30 6063 H 580.416 4.14391 -0.483358 0
M  V30 6064 H 579.046 3.22241 0.18996 0
M  V30 6065 H 578.098 3.08464 -2.22608 0
M  V30 6066 H 579.41 4.16922 -2.73821 0
M  V30 6067 H 578.564 5.94832 -1.19414 0
M  V30 6068 H 577.303 4.84244 -0.579568 0
M  V30 6069 H 576.308 4.68396 -2.87898 0
M  V30 6070 H 577.533 5.82429 -3.49219 0
M  V30 6071 H 575.479 6.42381 -1.32974 0
M  V30 6072 H 575.396 6.94806 -2.97961 0
M  V30 6073 H 576.664 7.54662 -1.95206 0
M  V30 6074 N 580.893 1.08022 1.14757 0
M  V30 6075 C 582.139 0.808705 1.85978 0
M  V30 6076 C 582.472 -0.663764 1.82504 0
M  V30 6077 O 581.747 -1.48765 1.25296 0
M  V30 6078 C 582.03 1.32623 3.34788 0
M  V30 6079 C 581.883 2.86375 3.46856 0
M  V30 6080 C 583.202 0.948291 4.29762 0
M  V30 6081 H 580.321 0.295244 0.675278 0
M  V30 6082 H 582.963 1.33917 1.34783 0
M  V30 6083 H 581.113 0.875002 3.78518 0
M  V30 6084 H 582.785 3.39839 3.11941 0
M  V30 6085 H 581.028 3.24232 2.88194 0
M  V30 6086 H 581.699 3.17658 4.51439 0
M  V30 6087 H 584.175 1.33722 3.94028 0
M  V30 6088 H 583.051 1.33765 5.32352 0
M  V30 6089 H 583.312 -0.145094 4.41862 0
M  V30 6090 N 582.371 -1.3172 0.865308 0
M  V30 6091 C 583.617 -1.97168 0.474633 0
M  V30 6092 C 583.95 -1.68263 -0.969604 0
M  V30 6093 O 583.225 -0.976588 -1.68205 0
M  V30 6094 C 583.508 -3.52689 0.726808 0
M  V30 6095 C 583.361 -3.91185 2.22024 0
M  V30 6096 C 584.68 -4.39689 0.190201 0
M  V30 6097 H 581.799 -0.716185 0.17392 0
M  V30 6098 H 584.441 -1.55925 1.08569 0
M  V30 6099 H 582.591 -3.8795 0.206705 0
M  V30 6100 H 584.263 -3.66049 2.80724 0
M  V30 6101 H 582.506 -3.3996 2.69462 0
M  V30 6102 H 583.177 -4.99604 2.34735 0
M  V30 6103 H 585.653 -4.11225 0.635103 0
M  V30 6104 H 584.529 -5.47469 0.396132 0
M  V30 6105 H 584.79 -4.32683 -0.907625 0
M  V30 6106 N 583.85 -0.624285 -1.44708 0
M  V30 6107 C 585.077 -0.132919 -2.06473 0
M  V30 6108 C 585.493 1.18967 -1.46602 0
M  V30 6109 O 584.85 1.72824 -0.586341 0
M  V30 6110 C 584.901 -0.00465418 -3.615 0
M  V30 6111 O 584.622 -1.27494 -4.19138 0
M  V30 6112 C 586.123 0.516213 -4.40284 0
M  V30 6113 H 583.343 -0.0765201 -0.666623 0
M  V30 6114 H 585.887 -0.856751 -1.85688 0
M  V30 6115 H 584.042 0.669583 -3.8157 0
M  V30 6116 H 584.456 -1.11536 -5.12504 0
M  V30 6117 H 585.93 0.554994 -5.49203 0
M  V30 6118 H 586.407 1.5419 -4.11245 0
M  V30 6119 H 587.013 -0.124542 -4.25118 0
M  V30 6120 N 585.328 1.53329 -0.364422 0
M  V30 6121 C 586.558 2.05359 0.226096 0
M  V30 6122 C 586.966 1.23777 1.43094 0
M  V30 6123 O 586.309 0.271139 1.81688 0
M  V30 6124 C 586.371 3.52918 0.684794 0
M  V30 6125 C 586.035 4.55218 -0.403206 0
M  V30 6126 C 587.032 5.04583 -1.2527 0
M  V30 6127 C 584.717 4.99134 -0.563117 0
M  V30 6128 C 586.711 5.96463 -2.24745 0
M  V30 6129 C 584.398 5.9082 -1.56124 0
M  V30 6130 C 585.396 6.39375 -2.40184 0
M  V30 6131 O 585.084 7.29255 -3.38293 0
M  V30 6132 H 584.816 0.674588 0.0436772 0
M  V30 6133 H 587.37 1.98688 -0.520782 0
M  V30 6134 H 585.6 3.57122 1.48326 0
M  V30 6135 H 587.289 3.87812 1.19818 0
M  V30 6136 H 588.055 4.71403 -1.14034 0
M  V30 6137 H 583.934 4.60928 0.0813909 0
M  V30 6138 H 587.478 6.34285 -2.90393 0
M  V30 6139 H 583.375 6.23414 -1.67407 0
M  V30 6140 H 584.143 7.47249 -3.34009 0
M  V30 6141 N 586.806 0.0935595 1.57322 0
M  V30 6142 C 588.083 -0.612692 1.85756 0
M  V30 6143 C 588.463 -1.86439 0.99013 0
M  V30 6144 O 587.811 -2.28416 0.0621362 0
M  V30 6145 C 588.021 -0.929547 3.36393 0
M  V30 6146 C 589.369 -1.29366 4.04413 0
M  V30 6147 O 590.393 -1.02061 3.41265 0
M  V30 6148 O 589.252 -1.80498 5.15832 0
M  V30 6149 H 586.346 -0.306444 0.768128 0
M  V30 6150 H 588.892 0.126141 1.69231 0
M  V30 6151 H 587.664 -0.0414766 3.91278 0
M  V30 6152 H 587.287 -1.72441 3.5826 0
M  V30 6153 N 588.284 -1.56567 -0.180126 0
M  V30 6154 C 589.531 -1.81492 -0.898167 0
M  V30 6155 C 589.859 -0.669225 -1.82624 0
M  V30 6156 O 589.114 0.344096 -1.92651 0
M  V30 6157 C 589.413 -3.1252 -1.73395 0
M  V30 6158 C 589.079 -4.40658 -0.955567 0
M  V30 6159 C 587.741 -4.75465 -0.740707 0
M  V30 6160 C 590.093 -5.19593 -0.408948 0
M  V30 6161 C 587.421 -5.86691 0.0320128 0
M  V30 6162 C 589.773 -6.31627 0.350638 0
M  V30 6163 C 588.437 -6.65007 0.576378 0
M  V30 6164 H 587.707 -0.664125 -0.328662 0
M  V30 6165 H 590.354 -1.908 -0.163616 0
M  V30 6166 H 588.659 -2.98515 -2.53763 0
M  V30 6167 H 590.356 -3.29013 -2.29241 0
M  V30 6168 H 586.946 -4.13352 -1.13306 0
M  V30 6169 H 591.13 -4.93104 -0.562307 0
M  V30 6170 H 586.386 -6.11016 0.216735 0
M  V30 6171 H 590.56 -6.92001 0.781497 0
M  V30 6172 H 588.187 -7.51033 1.17703 0
M  V30 6173 N 589.762 0.448376 -1.51087 0
M  V30 6174 C 590.725 1.52588 -1.71025 0
M  V30 6175 C 591.725 1.49958 -0.580442 0
M  V30 6176 O 592.915 1.52176 -0.847833 0
M  V30 6177 C 590.047 2.92163 -1.75652 0
M  V30 6178 H 591.24 1.36218 -2.67179 0
M  V30 6179 H 588.793 0.676313 -1.4091 0
M  V30 6180 H 589.528 3.13951 -0.812724 0
M  V30 6181 H 589.313 2.95478 -2.57751 0
M  V30 6182 H 590.803 3.70349 -1.92953 0
M  V30 6183 N 591.24 1.41047 0.703093 0
M  V30 6184 C 592.656 1.23351 1.01275 0
M  V30 6185 C 592.856 0.11754 2.01157 0
M  V30 6186 O 591.912 -0.520518 2.47077 0
M  V30 6187 C 593.225 2.58001 1.54454 0
M  V30 6188 C 594.773 2.65119 1.66376 0
M  V30 6189 C 595.248 4.00067 2.22958 0
M  V30 6190 N 596.739 4.01875 2.30328 0
M  V30 6191 C 597.474 5.03087 2.75119 0
M  V30 6192 N 596.97 6.14692 3.19571 0
M  V30 6193 N 598.763 4.90451 2.74616 0
M  V30 6194 H 590.914 2.1236 0.0412686 0
M  V30 6195 H 593.177 0.944543 0.08089 0
M  V30 6196 H 592.883 3.40378 0.88521 0
M  V30 6197 H 592.757 2.79962 2.52786 0
M  V30 6198 H 595.144 1.83106 2.31422 0
M  V30 6199 H 595.225 2.46975 0.666089 0
M  V30 6200 H 594.869 4.82526 1.58529 0
M  V30 6201 H 594.799 4.15547 3.23462 0
M  V30 6202 H 597.29 3.21291 1.98949 0
M  V30 6203 H 597.603 6.87799 3.52352 0
M  V30 6204 H 595.948 6.18239 3.17498 0
M  V30 6205 H 599.139 4.0235 2.39233 0
M  V30 6206 H 599.312 5.6947 3.09206 0
M  V30 6207 N 592.718 -0.936591 1.26751 0
M  V30 6208 C 593.648 -2.05315 1.11212 0
M  V30 6209 C 594.629 -1.70092 0.0160262 0
M  V30 6210 O 595.814 -1.93279 0.188894 0
M  V30 6211 C 592.944 -3.39123 0.749171 0
M  V30 6212 C 591.898 -3.88425 1.79751 0
M  V30 6213 C 591.224 -5.18936 1.28876 0
M  V30 6214 C 592.524 -4.12798 3.19992 0
M  V30 6215 H 594.218 -2.18573 2.04613 0
M  V30 6216 H 591.764 -1.05027 0.985159 0
M  V30 6217 H 593.717 -4.16704 0.627323 0
M  V30 6218 H 592.441 -3.25855 -0.220543 0
M  V30 6219 H 591.1 -3.13028 1.90811 0
M  V30 6220 H 590.748 -5.02051 0.308757 0
M  V30 6221 H 590.448 -5.52892 1.98958 0
M  V30 6222 H 591.972 -5.99096 1.17967 0
M  V30 6223 H 593.386 -4.80977 3.11983 0
M  V30 6224 H 591.783 -4.58044 3.87705 0
M  V30 6225 H 592.853 -3.18412 3.65707 0
M  V30 6226 N 594.196 -1.08629 -1.14182 0
M  V30 6227 C 595.129 -0.662329 -2.18377 0
M  V30 6228 C 596.107 0.327054 -1.59277 0
M  V30 6229 O 597.291 0.230376 -1.87087 0
M  V30 6230 C 594.418 0.0254765 -3.3869 0
M  V30 6231 C 593.464 -0.924414 -4.16361 0
M  V30 6232 S 594.297 -2.43226 -4.77076 0
M  V30 6233 C 595.453 -1.75663 -6.00744 0
M  V30 6234 H 595.686 -1.54501 -2.54001 0
M  V30 6235 H 593.219 -0.901484 -1.2535 0
M  V30 6236 H 595.177 0.416032 -4.08386 0
M  V30 6237 H 593.838 0.884689 -3.01384 0
M  V30 6238 H 593.031 -0.390099 -5.02488 0
M  V30 6239 H 592.633 -1.25598 -3.5228 0
M  V30 6240 H 594.925 -1.07589 -6.68903 0
M  V30 6241 H 595.868 -2.59673 -6.58768 0
M  V30 6242 H 596.276 -1.22903 -5.50958 0
M  V30 6243 N 595.674 1.31259 -0.872281 0
M  V30 6244 C 596.951 1.91362 -0.404943 0
M  V30 6245 C 597.331 1.79362 1.11321 0
M  V30 6246 O 596.679 1.20277 1.94283 0
M  V30 6247 C 596.889 3.3749 -0.888893 0
M  V30 6248 C 598.237 4.14593 -0.916384 0
M  V30 6249 O 599.261 3.46282 -0.834701 0
M  V30 6250 O 598.12 5.3661 -1.03498 0
M  V30 6251 H 595.214 0.818016 -0.121569 0
M  V30 6252 H 597.76 1.39912 -0.960346 0
M  V30 6253 H 596.532 3.40249 -1.93251 0
M  V30 6254 H 596.155 3.96375 -0.311932 0
M  V30 6255 N 597.152 0.631951 1.44375 0
M  V30 6256 C 598.4 0.136497 2.01639 0
M  V30 6257 C 598.721 -1.24637 1.49969 0
M  V30 6258 O 597.991 -1.82827 0.70363 0
M  V30 6259 H 596.571 0.0474703 0.74549 0
M  V30 6260 H 599.233 0.818837 1.76865 0
M  V30 6261 H 598.329 0.104817 3.11924 0
M  V30 6262 N 598.631 -1.53133 0.372548 0
M  V30 6263 C 599.594 -2.24569 -0.458389 0
M  V30 6264 C 600.594 -1.25603 -1.00402 0
M  V30 6265 O 601.784 -1.49827 -0.888672 0
M  V30 6266 C 598.916 -2.98783 -1.6414 0
M  V30 6267 H 600.109 -2.99436 0.166799 0
M  V30 6268 H 597.662 -1.55805 0.124357 0
M  V30 6269 H 598.397 -2.28176 -2.30448 0
M  V30 6270 H 598.182 -3.71404 -1.25704 0
M  V30 6271 H 599.672 -3.53068 -2.23008 0
M  V30 6272 N 600.109 -0.101901 -1.5727 0
M  V30 6273 C 601.337 0.568392 -1.98939 0
M  V30 6274 C 601.752 1.61301 -0.981194 0
M  V30 6275 O 601.109 1.82478 0.0282869 0
M  V30 6276 C 601.16 1.20997 -3.40649 0
M  V30 6277 O 600.881 0.207129 -4.3761 0
M  V30 6278 C 602.382 1.96523 -3.97358 0
M  V30 6279 H 599.602 0.15186 -0.65359 0
M  V30 6280 H 602.146 -0.183198 -2.03678 0
M  V30 6281 H 600.301 1.91245 -3.36904 0
M  V30 6282 H 600.715 0.671071 -5.20189 0
M  V30 6283 H 602.189 2.36764 -4.98645 0
M  V30 6284 H 602.666 2.83376 -3.35552 0
M  V30 6285 H 603.272 1.31076 -4.04598 0
M  V30 6286 N 601.587 1.56661 0.17182 0
M  V30 6287 C 602.497 1.99604 1.2327 0
M  V30 6288 C 603.513 0.907333 1.4847 0
M  V30 6289 O 604.689 1.21492 1.60629 0
M  V30 6290 C 601.754 2.34685 2.55194 0
M  V30 6291 C 600.815 3.57381 2.3786 0
M  V30 6292 C 600.048 3.90779 3.63494 0
M  V30 6293 O 600.271 3.25152 4.6865 0
M  V30 6294 O 599.205 4.84129 3.57634 0
M  V30 6295 H 603.031 2.90114 0.898192 0
M  V30 6296 H 600.616 1.44522 0.378647 0
M  V30 6297 H 602.498 2.5822 3.33017 0
M  V30 6298 H 601.173 1.47336 2.88225 0
M  V30 6299 H 600.08 3.39064 1.5807 0
M  V30 6300 H 601.413 4.45268 2.09754 0
M  V30 6301 N 603.065 -0.440357 1.51323 0
M  V30 6302 C 604.311 -1.19181 1.64085 0
M  V30 6303 C 604.644 -1.90936 0.354575 0
M  V30 6304 O 603.919 -1.8347 -0.645675 0
M  V30 6305 C 604.202 -2.2112 2.84215 0
M  V30 6306 C 604.055 -1.53468 4.22809 0
M  V30 6307 C 605.374 -3.22133 2.99864 0
M  V30 6308 H 602.493 -0.431924 0.597169 0
M  V30 6309 H 605.135 -0.481443 1.83799 0
M  V30 6310 H 603.285 -2.81703 2.67537 0
M  V30 6311 H 604.957 -0.962455 4.51148 0
M  V30 6312 H 603.2 -0.837086 4.25647 0
M  V30 6313 H 603.871 -2.27694 5.02852 0
M  V30 6314 H 606.347 -2.71601 3.15233 0
M  V30 6315 H 605.223 -3.90756 3.85488 0
M  V30 6316 H 605.484 -3.88061 2.11804 0
M  V30 6317 N 604.543 -1.41418 -0.695603 0
M  V30 6318 C 605.49 -1.43264 -1.80954 0
M  V30 6319 C 606.46 -0.287016 -1.63601 0
M  V30 6320 O 607.645 -0.488054 -1.84452 0
M  V30 6321 C 604.785 -1.32054 -3.18835 0
M  V30 6322 C 603.898 -2.56485 -3.4762 0
M  V30 6323 C 603.033 -2.3757 -4.75115 0
M  V30 6324 C 602.072 -3.57477 -4.96867 0
M  V30 6325 N 601.209 -3.37632 -6.15588 0
M  V30 6326 H 606.049 -2.38467 -1.78711 0
M  V30 6327 H 603.586 -1.18415 -0.872715 0
M  V30 6328 H 605.544 -1.23558 -3.98484 0
M  V30 6329 H 604.174 -0.404592 -3.20254 0
M  V30 6330 H 603.226 -2.75432 -2.62376 0
M  V30 6331 H 604.538 -3.45678 -3.59594 0
M  V30 6332 H 603.692 -2.2654 -5.62818 0
M  V30 6333 H 602.431 -1.45834 -4.65386 0
M  V30 6334 H 601.436 -3.68961 -4.07612 0
M  V30 6335 H 602.661 -4.50167 -5.08455 0
M  V30 6336 H 600.607 -2.48596 -6.07072 0
M  V30 6337 H 600.524 -4.20401 -6.2833 0
M  V30 6338 H 601.792 -3.30375 -7.06026 0
M  V30 6339 N 606.021 0.929856 -1.27246 0
M  V30 6340 C 607.261 1.6919 -1.14691 0
M  V30 6341 C 607.625 1.896 0.302621 0
M  V30 6342 O 608.826 2.63102 0.550543 0
M  V30 6343 C 607.097 3.02291 -1.9067 0
M  V30 6344 S 608.656 3.93436 -1.94303 0
M  V30 6345 H 605.474 0.581248 -0.409477 0
M  V30 6346 H 608.076 1.10722 -1.61124 0
M  V30 6347 H 606.78 2.85125 -2.95181 0
M  V30 6348 H 606.311 3.65813 -1.44723 0
M  V30 6349 H 608.326 4.85224 -1.0379 0
M  V30 6350 N 607.499 1.09233 1.13605 0
M  V30 6351 C 608.724 0.849067 1.89224 0
M  V30 6352 C 609.149 -0.593875 1.78479 0
M  V30 6353 O 608.507 -1.41703 1.13092 0
M  V30 6354 C 608.555 1.28642 3.36873 0
M  V30 6355 O 607.659 0.44363 4.10007 0
M  V30 6356 H 607 0.30767 0.588417 0
M  V30 6357 H 609.53 1.45595 1.43748 0
M  V30 6358 H 609.54 1.27096 3.87699 0
M  V30 6359 H 608.215 2.33729 3.44011 0
M  V30 6360 H 606.792 0.523241 3.69211 0
M  V30 6361 N 608.977 -1.30795 0.87923 0
M  V30 6362 C 609.887 -2.32041 0.345565 0
M  V30 6363 C 610.903 -1.65103 -0.549265 0
M  V30 6364 O 612.079 -1.9645 -0.443763 0
M  V30 6365 C 609.144 -3.43944 -0.436245 0
M  V30 6366 C 608.205 -4.26521 0.48765 0
M  V30 6367 C 607.438 -5.33081 -0.256943 0
M  V30 6368 O 607.661 -5.50762 -1.48381 0
M  V30 6369 O 606.595 -6.00635 0.389985 0
M  V30 6370 H 610.421 -2.79627 1.18501 0
M  V30 6371 H 608.006 -1.3486 0.642885 0
M  V30 6372 H 609.888 -4.12128 -0.879119 0
M  V30 6373 H 608.563 -2.98504 -1.25208 0
M  V30 6374 H 607.47 -3.61057 0.979216 0
M  V30 6375 H 608.803 -4.75551 1.26933 0
M  V30 6376 N 610.455 -0.639598 -1.44038 0
M  V30 6377 C 611.702 -0.14748 -2.01962 0
M  V30 6378 C 612.03 1.23372 -1.50365 0
M  V30 6379 O 611.285 1.8345 -0.681501 0
M  V30 6380 C 611.584 -0.0925348 -3.5728 0
M  V30 6381 C 611.25 -1.41365 -4.28167 0
M  V30 6382 C 609.912 -1.77545 -4.47248 0
M  V30 6383 C 612.264 -2.2853 -4.68427 0
M  V30 6384 C 609.592 -3.00583 -5.03852 0
M  V30 6385 C 611.944 -3.50846 -5.26393 0
M  V30 6386 C 610.608 -3.8724 -5.43692 0
M  V30 6387 H 609.878 -0.0539666 -0.739032 0
M  V30 6388 H 612.525 -0.827599 -1.72694 0
M  V30 6389 H 610.83 0.670987 -3.86012 0
M  V30 6390 H 612.527 0.304891 -3.99839 0
M  V30 6391 H 609.117 -1.1221 -4.13651 0
M  V30 6392 H 613.301 -2.0187 -4.5339 0
M  V30 6393 H 608.557 -3.28846 -5.15432 0
M  V30 6394 H 612.731 -4.18616 -5.56537 0
M  V30 6395 H 610.358 -4.8266 -5.87319 0
M  V30 6396 N 611.933 1.52934 -0.380664 0
M  V30 6397 C 613.181 2.01069 0.203874 0
M  V30 6398 C 613.502 1.26922 1.4804 0
M  V30 6399 O 612.772 0.386787 1.92044 0
M  V30 6400 H 611.352 0.742882 0.0783279 0
M  V30 6401 H 614.014 1.88099 -0.510368 0
M  V30 6402 H 613.11 3.09258 0.42021 0
M  V30 6403 N 613.412 0.11024 1.57214 0
M  V30 6404 C 614.322 -0.857077 2.18383 0
M  V30 6405 C 615.338 -1.29915 1.1575 0
M  V30 6406 O 616.514 -1.36394 1.48184 0
M  V30 6407 C 613.579 -2.09264 2.76423 0
M  V30 6408 C 612.64 -1.70333 3.94063 0
M  V30 6409 C 611.873 -2.87999 4.49324 0
M  V30 6410 O 612.096 -4.0317 4.03497 0
M  V30 6411 O 611.03 -2.6559 5.40135 0
M  V30 6412 H 614.856 -0.366561 3.0148 0
M  V30 6413 H 612.441 -0.114914 1.48957 0
M  V30 6414 H 614.323 -2.81644 3.13456 0
M  V30 6415 H 612.998 -2.57339 1.96363 0
M  V30 6416 H 611.905 -0.950864 3.61814 0
M  V30 6417 H 613.238 -1.27007 4.75531 0
M  V30 6418 N 614.89 -1.56749 -0.16351 0
M  V30 6419 C 615.8 -2.00255 -1.2221 0
M  V30 6420 C 616.816 -0.915194 -1.47987 0
M  V30 6421 O 617.992 -1.22342 -1.59982 0
M  V30 6422 C 615.057 -2.36035 -2.53946 0
M  V30 6423 C 614.118 -3.58637 -2.35962 0
M  V30 6424 C 613.351 -3.92701 -3.61416 0
M  V30 6425 O 613.574 -3.27632 -4.66919 0
M  V30 6426 O 612.508 -4.86019 -3.55062 0
M  V30 6427 H 616.334 -2.90586 -0.882794 0
M  V30 6428 H 613.919 -1.44721 -0.370978 0
M  V30 6429 H 615.801 -2.59982 -3.31643 0
M  V30 6430 H 614.476 -1.48863 -2.8744 0
M  V30 6431 H 613.383 -3.39898 -1.5627 0
M  V30 6432 H 614.716 -4.46374 -2.0739 0
M  V30 6433 N 616.368 0.432326 -1.51554 0
M  V30 6434 C 617.298 1.53242 -1.76179 0
M  V30 6435 C 618.279 1.58717 -0.611801 0
M  V30 6436 O 619.464 1.74364 -0.855033 0
M  V30 6437 C 616.594 2.91278 -1.89141 0
M  V30 6438 C 615.548 3.00663 -3.04608 0
M  V30 6439 C 614.874 4.40728 -3.02759 0
M  V30 6440 C 616.174 2.74281 -4.44485 0
M  V30 6441 H 617.868 1.32886 -2.68294 0
M  V30 6442 H 615.414 0.637841 -1.29103 0
M  V30 6443 H 617.367 3.68203 -2.04951 0
M  V30 6444 H 616.091 3.12877 -0.936785 0
M  V30 6445 H 614.75 2.26179 -2.88511 0
M  V30 6446 H 614.398 4.59301 -2.05065 0
M  V30 6447 H 614.098 4.47936 -3.80299 0
M  V30 6448 H 615.622 5.19619 -3.20669 0
M  V30 6449 H 617.036 3.40936 -4.60907 0
M  V30 6450 H 615.433 2.92893 -5.23769 0
M  V30 6451 H 616.503 1.69856 -4.54177 0
M  V30 6452 N 617.846 1.41785 0.688094 0
M  V30 6453 C 619.095 1.4084 1.44385 0
M  V30 6454 C 619.408 0.0234166 1.95586 0
M  V30 6455 O 620.614 -0.108647 2.71283 0
M  V30 6456 C 619.07 2.47675 2.61123 0
M  V30 6457 C 618.678 3.92116 2.16677 0
M  V30 6458 C 620.422 2.55877 3.38714 0
M  V30 6459 C 618.329 4.90487 3.30419 0
M  V30 6460 H 617.259 0.523787 0.542368 0
M  V30 6461 H 619.91 1.6764 0.74627 0
M  V30 6462 H 618.292 2.14018 3.33185 0
M  V30 6463 H 619.466 4.35059 1.51856 0
M  V30 6464 H 617.781 3.87642 1.5206 0
M  V30 6465 H 620.378 3.26553 4.234 0
M  V30 6466 H 620.721 1.59801 3.84408 0
M  V30 6467 H 621.254 2.88662 2.73714 0
M  V30 6468 H 617.993 5.87994 2.89729 0
M  V30 6469 H 617.513 4.52187 3.94065 0
M  V30 6470 H 619.192 5.11591 3.96085 0
M  V30 6471 N 619.324 -0.923095 1.27737 0
M  V30 6472 C 620.271 -2.02432 1.1086 0
M  V30 6473 C 621.241 -1.66098 0.00835195 0
M  V30 6474 O 622.426 -1.90027 0.171542 0
M  V30 6475 C 619.566 -3.36476 0.766671 0
M  V30 6476 C 618.679 -3.85737 1.94501 0
M  V30 6477 C 617.814 -5.08249 1.54455 0
M  V30 6478 C 616.853 -5.49818 2.6901 0
M  V30 6479 N 615.99 -6.63524 2.29521 0
M  V30 6480 H 620.83 -2.16201 2.05089 0
M  V30 6481 H 618.367 -1.05909 1.02087 0
M  V30 6482 H 620.325 -4.13569 0.549223 0
M  V30 6483 H 618.955 -3.22502 -0.13867 0
M  V30 6484 H 618.007 -3.04883 2.27487 0
M  V30 6485 H 619.319 -4.12513 2.80419 0
M  V30 6486 H 618.473 -5.92857 1.28862 0
M  V30 6487 H 617.212 -4.83261 0.656534 0
M  V30 6488 H 616.217 -4.63757 2.95313 0
M  V30 6489 H 617.442 -5.76799 3.5844 0
M  V30 6490 H 615.388 -6.40185 1.43177 0
M  V30 6491 H 615.305 -6.89978 3.08977 0
M  V30 6492 H 616.573 -7.51461 2.07187 0
M  V30 6493 N 620.802 -1.09834 -1.13024 0
M  V30 6494 C 621.75 -0.736283 -2.20639 0
M  V30 6495 C 622.744 0.264725 -1.67319 0
M  V30 6496 O 623.95 0.125745 -1.7956 0
M  V30 6497 H 620.325 -0.220136 -0.719058 0
M  V30 6498 H 622.296 -1.65295 -2.48436 0
M  V30 6499 C 621.045 -0.177544 -3.47246 0
M  V30 6500 H 620.368 -0.939009 -3.88616 0
M  V30 6501 H 621.808 0.0378007 -4.23983 0
M  V30 6502 C 620.267 1.08824 -3.1884 0
M  V30 6503 O 620.797 2.1708 -3.37993 0
M  V30 6504 N 619.003 1.00442 -2.7269 0
M  V30 6505 H 618.55 0.123383 -2.57304 0
M  V30 6506 H 618.508 1.85206 -2.5406 0
M  V30 6507 N 622.28 1.30327 -0.886154 0
M  V30 6508 C 623.213 2.26241 -0.298407 0
M  V30 6509 C 624.191 1.51839 0.581704 0
M  V30 6510 O 625.375 1.80851 0.531536 0
M  V30 6511 C 622.502 3.33768 0.575888 0
M  V30 6512 C 621.548 4.25852 -0.235057 0
M  V30 6513 S 622.381 5.10277 -1.62411 0
M  V30 6514 C 623.537 6.21313 -0.756368 0
M  V30 6515 H 623.77 2.75744 -1.11141 0
M  V30 6516 H 621.303 1.38341 -0.685651 0
M  V30 6517 H 623.261 3.96186 1.07458 0
M  V30 6518 H 621.922 2.82986 1.363 0
M  V30 6519 H 621.115 5.02143 0.432198 0
M  V30 6520 H 620.717 3.68015 -0.666409 0
M  V30 6521 H 623.009 6.77495 0.0261451 0
M  V30 6522 H 623.952 6.92226 -1.49093 0
M  V30 6523 H 624.36 5.63611 -0.316749 0
M  V30 6524 N 623.758 0.647228 1.43697 0
M  V30 6525 C 625.035 0.0883758 1.954 0
M  V30 6526 C 625.415 -1.39006 1.58873 0
M  V30 6527 O 624.763 -2.11255 0.87083 0
M  V30 6528 C 624.973 0.328263 3.47453 0
M  V30 6529 C 626.321 0.230009 4.23977 0
M  V30 6530 O 627.345 0.260496 3.55246 0
M  V30 6531 O 626.204 0.148615 5.46298 0
M  V30 6532 H 623.298 -0.0130683 0.826897 0
M  V30 6533 H 625.844 0.72005 1.53666 0
M  V30 6534 H 624.616 1.3535 3.67146 0
M  V30 6535 H 624.239 -0.336772 3.96171 0
M  V30 6536 O 625.275 -1.52523 0.530952 0
M  V30 6537 H 625.966 -1.93688 0.0212942 0
M  V30 END ATOM
M  V30 BEGIN BOND
M  V30 END BOND
M  V30 END CTAB
M  END
$$$$
