drugbank_target|P46459 Vesicle-fusing ATPase (DB01902)
 OpenBabel12092120543D

  0  0  0     0  0            999 V3000
M  V30 BEGIN CTAB
M  V30 COUNTS 11726 11818 0 0 0
M  V30 BEGIN ATOM
M  V30 1 H -0.908 1.98254 -0.117106 0
M  V30 2 N 0 1.576 0 0
M  V30 3 C 0.933 2.03868 1.02534 0
M  V30 4 C 1.911 0.928543 1.3348 0
M  V30 5 O 3.095 1.19667 1.45644 0
M  V30 6 C 0.222 2.43627 2.35294 0
M  V30 7 C -0.732 3.65373 2.2001 0
M  V30 8 S 0.101 5.13292 1.52614 0
M  V30 9 C 1.257 5.56322 2.86805 0
M  V30 10 H 1.49 2.90518 0.631377 0
M  V30 11 H -0.977 1.52953 0.210867 0
M  V30 12 H 0.981 2.67203 3.11629 0
M  V30 13 H -0.358 1.57376 2.7183 0
M  V30 14 H -1.165 3.90944 3.18086 0
M  V30 15 H -1.563 3.418 1.51819 0
M  V30 16 H 0.729 5.58782 3.83104 0
M  V30 17 H 1.672 6.56266 2.65933 0
M  V30 18 H 2.08 4.83886 2.90714 0
M  V30 19 N 1.4781 -0.272755 1.55222 0
M  V30 20 C 2.4411 -1.32041 1.87344 0
M  V30 21 C 3.4411 -1.42342 0.74803 0
M  V30 22 O 4.6311 -1.41488 1.0162 0
M  V30 23 C 1.7631 -2.70173 2.07893 0
M  V30 24 H 2.9561 -1.04789 2.80997 0
M  V30 25 H 0.5091 -0.51083 1.47717 0
M  V30 26 H 1.2441 -3.02605 1.16622 0
M  V30 27 H 1.0291 -2.64082 2.89833 0
M  V30 28 H 2.5191 -3.45869 2.34017 0
M  V30 29 N 2.9562 -1.48159 -0.537278 0
M  V30 30 C 4.2042 -1.55497 -1.29094 0
M  V30 31 C 4.5252 -0.227454 -1.93669 0
M  V30 32 O 3.7952 0.750386 -1.80959 0
M  V30 33 H 2.3752 -0.572832 -0.47945 0
M  V30 34 H 5.0372 -1.84579 -0.625818 0
M  V30 35 H 4.1332 -2.33216 -2.07405 0
M  V30 36 N 4.4343 0.785586 -1.36625 0
M  V30 37 C 5.8503 1.08419 -1.17122 0
M  V30 38 C 6.0503 2.015 0.00208491 0
M  V30 39 O 5.1063 2.43551 0.666278 0
M  V30 40 C 6.4193 1.69498 -2.48377 0
M  V30 41 C 7.9673 1.81821 -2.54775 0
M  V30 42 C 8.4423 2.46315 -3.86126 0
M  V30 43 N 9.9333 2.53779 -3.87492 0
M  V30 44 C 10.6683 3.045 -4.85868 0
M  V30 45 N 10.1643 3.55499 -5.94637 0
M  V30 46 N 11.9573 3.03247 -4.73284 0
M  V30 47 H 4.1083 0.167264 -2.1174 0
M  V30 48 H 6.3713 0.13682 -0.938075 0
M  V30 49 H 6.0773 1.08571 -3.34522 0
M  V30 50 H 5.9513 2.6896 -2.64462 0
M  V30 51 H 8.3383 2.41884 -1.69045 0
M  V30 52 H 8.4193 0.811532 -2.42586 0
M  V30 53 H 8.0633 1.86895 -4.72263 0
M  V30 54 H 7.9933 3.47561 -3.95612 0
M  V30 55 H 10.4843 2.17672 -3.08913 0
M  V30 56 H 10.7973 3.92562 -6.65669 0
M  V30 57 H 9.1423 3.5364 -5.98301 0
M  V30 58 H 12.3333 2.62696 -3.87438 0
M  V30 59 H 12.5063 3.42467 -5.50109 0
M  V30 60 N 5.9124 1.20967 1.01018 0
M  V30 61 C 7.1374 1.0503 1.78839 0
M  V30 62 C 7.5624 -0.395752 1.8389 0
M  V30 63 O 6.9204 -1.28529 1.27867 0
M  V30 64 C 6.9684 1.64602 3.2084 0
M  V30 65 O 6.0724 0.887988 4.02726 0
M  V30 66 H 5.4134 0.369987 0.551367 0
M  V30 67 H 7.9434 1.60399 1.27018 0
M  V30 68 H 7.9534 1.68607 3.71532 0
M  V30 69 H 6.6284 2.69841 3.16479 0
M  V30 70 H 5.2054 0.922648 3.61305 0
M  V30 71 N 7.3905 -1.2043 1.01659 0
M  V30 72 C 8.3235 -2.21924 0.531521 0
M  V30 73 C 9.3015 -1.57054 -0.421032 0
M  V30 74 O 10.4855 -1.85389 -0.341035 0
M  V30 75 C 7.6125 -3.37942 -0.226496 0
M  V30 76 C 6.6585 -4.21115 0.67561 0
M  V30 77 S 7.4915 -4.90674 2.14475 0
M  V30 78 C 8.6475 -6.10113 1.3969 0
M  V30 79 H 8.8805 -2.62725 1.3915 0
M  V30 80 H 6.4135 -1.30481 0.825479 0
M  V30 81 H 8.3715 -4.05196 -0.657738 0
M  V30 82 H 7.0325 -2.956 -1.06205 0
M  V30 83 H 6.2255 -5.03918 0.091108 0
M  V30 84 H 5.8275 -3.59115 1.04463 0
M  V30 85 H 8.1195 -6.7411 0.676897 0
M  V30 86 H 9.0625 -6.73022 2.20107 0
M  V30 87 H 9.4705 -5.57283 0.899786 0
M  V30 88 N 8.8686 -0.792821 -1.36206 0
M  V30 89 C 9.8006 -0.151469 -2.28699 0
M  V30 90 C 10.8136 0.641262 -1.49638 0
M  V30 91 O 12.0026 0.475885 -1.72039 0
M  V30 92 C 9.1026 0.808424 -3.29117 0
M  V30 93 C 8.2756 0.0650202 -4.37352 0
M  V30 94 C 7.3346 0.941358 -5.17711 0
M  V30 95 O 6.3606 0.397352 -5.67811 0
M  V30 96 N 7.5626 2.2652 -5.3448 0
M  V30 97 H 10.3276 -0.945982 -2.84379 0
M  V30 98 H 7.8886 -0.647032 -1.48409 0
M  V30 99 H 9.8806 1.3986 -3.79765 0
M  V30 100 H 8.4506 1.5038 -2.74052 0
M  V30 101 H 7.6706 -0.706255 -3.87822 0
M  V30 102 H 8.9586 -0.447847 -5.06825 0
M  V30 103 H 8.3566 2.73128 -4.95396 0
M  V30 104 H 6.9136 2.80493 -5.88359 0
M  V30 105 N 10.3467 1.47872 -0.545128 0
M  V30 106 C 11.3097 2.28337 0.198717 0
M  V30 107 C 12.3097 1.36255 0.853888 0
M  V30 108 O 13.4997 1.59003 0.711606 0
M  V30 109 C 10.6317 3.15585 1.28915 0
M  V30 110 H 11.8247 2.95567 -0.507941 0
M  V30 111 H 9.3777 1.53362 -0.301616 0
M  V30 112 H 10.1127 2.53019 2.02859 0
M  V30 113 H 9.8977 3.83337 0.824309 0
M  V30 114 H 11.3877 3.76243 1.81194 0
M  V30 115 N 11.8248 0.280983 1.55075 0
M  V30 116 C 12.7878 -0.590896 2.21452 0
M  V30 117 C 13.7878 -1.07682 1.19421 0
M  V30 118 O 14.9778 -0.97605 1.44288 0
M  V30 119 C 12.1098 -1.81587 2.88511 0
M  V30 120 H 13.3028 -0.0112554 2.99898 0
M  V30 121 H 10.8558 0.0316438 1.56268 0
M  V30 122 H 11.5908 -2.43587 2.14093 0
M  V30 123 H 11.3758 -1.4753 3.63287 0
M  V30 124 H 12.8658 -2.43575 3.39206 0
M  V30 125 N 13.3029 -1.57598 0.00835791 0
M  V30 126 C 14.7189 -1.55764 -0.347822 0
M  V30 127 C 14.9189 -1.01186 -1.74252 0
M  V30 128 O 13.9749 -0.649371 -2.44007 0
M  V30 129 C 15.2879 -2.99927 -0.215407 0
M  V30 130 C 16.8359 -3.11656 -0.289725 0
M  V30 131 C 17.3109 -4.57621 -0.18634 0
M  V30 132 N 18.8019 -4.62557 -0.243978 0
M  V30 133 C 19.5369 -5.73094 -0.18745 0
M  V30 134 N 19.0329 -6.92753 -0.0810331 0
M  V30 135 N 20.8259 -5.61588 -0.239925 0
M  V30 136 H 12.9769 -1.91411 0.92062 0
M  V30 137 H 15.2399 -0.879562 0.353659 0
M  V30 138 H 14.9459 -3.43729 0.744512 0
M  V30 139 H 14.8199 -3.63865 -0.994097 0
M  V30 140 H 17.2069 -2.67779 -1.24009 0
M  V30 141 H 17.2879 -2.5048 0.51898 0
M  V30 142 H 16.9319 -5.02174 0.760519 0
M  V30 143 H 16.8619 -5.16752 -1.01364 0
M  V30 144 H 19.3529 -3.76481 -0.327217 0
M  V30 145 H 19.6659 -7.72787 -0.0440241 0
M  V30 146 H 18.0109 -6.94984 -0.0465419 0
M  V30 147 H 21.2019 -4.66996 -0.321317 0
M  V30 148 H 21.3749 -6.47714 -0.192407 0
M  V30 149 N 14.781 0.264519 -1.55364 0
M  V30 150 C 16.021 1.00254 -1.78125 0
M  V30 151 C 16.385 1.83187 -0.575017 0
M  V30 152 O 17.586 2.60029 -0.681042 0
M  V30 153 C 15.857 1.85478 -3.05504 0
M  V30 154 S 17.416 2.6543 -3.49417 0
M  V30 155 H 14.234 0.337522 -0.625779 0
M  V30 156 H 16.836 0.272111 -1.93597 0
M  V30 157 H 15.54 1.23491 -3.9138 0
M  V30 158 H 15.071 2.62827 -2.92721 0
M  V30 159 H 17.086 3.87958 -3.09359 0
M  V30 160 N 16.2591 1.48442 0.529413 0
M  V30 161 C 17.6701 1.5002 1.11134 0
M  V30 162 C 18.0211 0.27031 1.94329 0
M  V30 163 O 17.1461 -0.622507 2.07253 0
M  V30 164 C 17.7411 2.71834 2.02217 0
M  V30 165 C 16.3001 2.76283 2.55627 0
M  V30 166 C 15.4471 2.43542 1.326 0
M  V30 167 H 18.3981 1.5555 0.314641 0
M  V30 168 H 18.4191 2.50384 2.8651 0
M  V30 169 H 17.9311 3.61331 1.41639 0
M  V30 170 H 16.0321 1.90995 3.19924 0
M  V30 171 H 16.1451 3.77725 2.94721 0
M  V30 172 H 14.5091 1.94709 1.64196 0
M  V30 173 H 15.2921 3.3528 0.737734 0
M  V30 174 N 17.7372 -0.778329 1.37039 0
M  V30 175 C 18.9652 -1.56734 1.35063 0
M  V30 176 C 19.3802 -1.88686 -0.0655597 0
M  V30 177 O 18.7372 -1.5096 -1.02554 0
M  V30 178 C 18.7882 -2.88163 2.18276 0
M  V30 179 O 18.5092 -2.57583 3.54376 0
M  V30 180 C 20.0102 -3.82422 2.24206 0
M  V30 181 H 17.2302 -0.485778 0.462883 0
M  V30 182 H 19.7742 -0.965185 1.8029 0
M  V30 183 H 17.9292 -3.44818 1.76576 0
M  V30 184 H 18.3432 -3.41699 3.97922 0
M  V30 185 H 19.8172 -4.71667 2.86765 0
M  V30 186 H 20.2942 -4.21078 1.24861 0
M  V30 187 H 20.9002 -3.31697 2.6619 0
M  V30 188 N 19.2153 -1.21501 -1.00376 0
M  V30 189 C 20.4923 -0.941745 -1.71437 0
M  V30 190 C 20.8723 0.546114 -2.03914 0
M  V30 191 O 20.2203 1.51128 -1.71384 0
M  V30 192 C 20.4303 -1.82812 -2.97289 0
M  V30 193 C 21.7783 -2.07771 -3.70292 0
M  V30 194 O 22.8023 -1.80171 -3.07273 0
M  V30 195 O 21.6613 -2.54456 -4.83647 0
M  V30 196 H 18.7553 -0.353243 -0.747762 0
M  V30 197 H 21.3013 -1.32436 -1.06108 0
M  V30 198 H 20.0733 -2.83501 -2.69709 0
M  V30 199 H 19.6963 -1.4464 -3.70358 0
M  V30 200 N 20.6934 1.19889 -1.02296 0
M  V30 201 C 21.6034 2.26571 -0.608508 0
M  V30 202 C 22.6194 1.70299 0.356964 0
M  V30 203 O 23.7954 2.00235 0.216326 0
M  V30 204 C 20.8604 3.46677 0.0402814 0
M  V30 205 C 19.9214 4.18153 -0.97194 0
M  V30 206 C 19.1544 5.32525 -0.354016 0
M  V30 207 O 19.3774 5.64112 0.844604 0
M  V30 208 O 18.3114 5.92242 -1.07391 0
M  V30 209 H 22.1374 2.64251 -1.49684 0
M  V30 210 H 19.7224 1.26629 -0.792809 0
M  V30 211 H 21.6044 4.19475 0.402324 0
M  V30 212 H 20.2794 3.10858 0.902707 0
M  V30 213 H 19.1864 3.47499 -1.38546 0
M  V30 214 H 20.5194 4.57927 -1.80454 0
M  V30 215 N 22.1715 0.800033 1.35784 0
M  V30 216 C 23.1015 0.220184 2.3246 0
M  V30 217 C 24.0825 -0.65073 1.57161 0
M  V30 218 O 25.2675 -0.582359 1.85263 0
M  V30 219 C 22.3975 -0.637353 3.41402 0
M  V30 220 C 21.3515 0.134531 4.27789 0
M  V30 221 C 20.6775 -0.844285 5.27992 0
M  V30 222 C 21.9775 1.32979 5.05088 0
M  V30 223 H 23.6715 1.02787 2.81203 0
M  V30 224 H 21.2175 0.495717 1.35199 0
M  V30 225 H 23.1705 -1.05302 4.08031 0
M  V30 226 H 21.8945 -1.47785 2.91251 0
M  V30 227 H 20.5535 0.531296 3.6273 0
M  V30 228 H 20.2015 -1.68011 4.74111 0
M  V30 229 H 19.9015 -0.332184 5.8666 0
M  V30 230 H 21.4255 -1.2583 5.97494 0
M  V30 231 H 22.8395 0.98934 5.64699 0
M  V30 232 H 21.2365 1.77593 5.7322 0
M  V30 233 H 22.3065 2.11978 4.36111 0
M  V30 234 N 23.6496 -1.47581 0.552962 0
M  V30 235 C 24.8746 -2.07378 0.0300593 0
M  V30 236 C 25.2996 -1.40355 -1.25229 0
M  V30 237 O 24.6576 -0.477099 -1.7491 0
M  V30 238 C 24.7056 -3.60274 -0.153231 0
M  V30 239 O 23.8096 -3.94041 -1.21678 0
M  V30 240 H 23.1506 -0.662158 0.0494182 0
M  V30 241 H 25.6806 -1.89662 0.767434 0
M  V30 242 H 25.6906 -4.0633 -0.368761 0
M  V30 243 H 24.3656 -4.08455 0.783397 0
M  V30 244 H 22.9426 -3.59735 -0.982079 0
M  V30 245 N 25.1277 -0.289203 -1.54924 0
M  V30 246 C 26.0577 0.58549 -2.2604 0
M  V30 247 C 27.0387 1.14753 -1.25562 0
M  V30 248 O 28.2237 1.17906 -1.54311 0
M  V30 249 C 25.3537 1.76305 -2.99222 0
M  V30 250 C 24.3077 1.33191 -4.06748 0
M  V30 251 C 23.6337 2.5937 -4.6758 0
M  V30 252 C 24.9337 0.471775 -5.20165 0
M  V30 253 H 26.6277 -0.00763532 -2.99399 0
M  V30 254 H 24.1737 -0.00511229 -1.43999 0
M  V30 255 H 26.1267 2.38097 -3.47689 0
M  V30 256 H 24.8507 2.38223 -2.23422 0
M  V30 257 H 23.5097 0.737121 -3.59113 0
M  V30 258 H 23.1577 3.19576 -3.88433 0
M  V30 259 H 22.8577 2.31228 -5.40192 0
M  V30 260 H 24.3817 3.21985 -5.18804 0
M  V30 261 H 25.7957 0.995056 -5.64599 0
M  V30 262 H 24.1927 0.284639 -5.99425 0
M  V30 263 H 25.2627 -0.506041 -4.82252 0
M  V30 264 N 26.6058 1.57591 -0.0167156 0
M  V30 265 C 27.8338 1.95575 0.675128 0
M  V30 266 C 28.2488 0.892542 1.6637 0
M  V30 267 O 27.6058 -0.126912 1.82058 0
M  V30 268 C 27.6568 3.33608 1.39239 0
M  V30 269 O 27.3778 4.3585 0.443444 0
M  V30 270 C 28.8788 3.86151 2.17721 0
M  V30 271 H 26.0988 0.644423 0.186978 0
M  V30 272 H 28.6428 2.0437 -0.0728 0
M  V30 273 H 26.7978 3.2607 2.09182 0
M  V30 274 H 27.2118 5.158 0.951358 0
M  V30 275 H 28.6858 4.85114 2.63379 0
M  V30 276 H 29.1628 3.19738 3.01105 0
M  V30 277 H 29.7688 3.96918 1.52761 0
M  V30 278 N 28.0839 -0.256276 1.55502 0
M  V30 279 C 29.0319 -1.33694 1.90338 0
M  V30 280 C 30.0259 -1.50299 0.781441 0
M  V30 281 O 31.2319 -1.51885 0.965966 0
M  V30 282 H 27.6069 -0.447483 0.60437 0
M  V30 283 H 29.5779 -1.01574 2.8058 0
M  V30 284 C 28.3269 -2.68724 2.20642 0
M  V30 285 H 27.6499 -2.56743 3.06469 0
M  V30 286 H 29.0899 -3.43237 2.48926 0
M  V30 287 C 27.5489 -3.21101 1.01959 0
M  V30 288 O 28.0789 -4.0084 0.262762 0
M  V30 289 N 26.2849 -2.79003 0.812746 0
M  V30 290 H 25.8319 -2.14271 1.42989 0
M  V30 291 H 25.7899 -3.14393 0.0203076 0
M  V30 292 N 29.562 -1.4872 -0.521534 0
M  V30 293 C 30.802 -1.58771 -1.28729 0
M  V30 294 C 31.166 -0.259394 -1.9024 0
M  V30 295 O 32.367 -0.234942 -2.67771 0
M  V30 296 C 30.638 -2.70039 -2.34124 0
M  V30 297 S 32.197 -2.9991 -3.20312 0
M  V30 298 H 29.015 -0.560251 -0.437767 0
M  V30 299 H 31.617 -1.86283 -0.593188 0
M  V30 300 H 30.321 -3.65101 -1.87429 0
M  V30 301 H 29.852 -2.44455 -3.08229 0
M  V30 302 H 31.867 -2.39855 -4.34378 0
M  V30 303 N 31.0401 0.771051 -1.3745 0
M  V30 304 C 32.0031 1.86598 -1.33093 0
M  V30 305 C 33.0031 1.59076 -0.234845 0
M  V30 306 O 34.1931 1.67145 -0.490732 0
M  V30 307 C 31.3251 3.23747 -1.06773 0
M  V30 308 H 32.5181 1.91873 -2.30488 0
M  V30 309 H 30.0711 0.970876 -1.2249 0
M  V30 310 H 30.8061 3.24148 -0.099129 0
M  V30 311 H 30.5911 3.45115 -1.86112 0
M  V30 312 H 32.0811 4.03824 -1.06377 0
M  V30 313 N 32.5182 1.22032 0.997298 0
M  V30 314 C 33.7642 1.04376 1.73878 0
M  V30 315 C 34.0972 -0.420716 1.89588 0
M  V30 316 O 33.3722 -1.31202 1.43583 0
M  V30 317 C 33.6552 1.75047 3.14691 0
M  V30 318 C 33.5082 3.29062 3.06656 0
M  V30 319 C 34.8272 1.49928 4.13775 0
M  V30 320 H 31.9462 0.380578 0.631133 0
M  V30 321 H 34.5882 1.50312 1.16217 0
M  V30 322 H 32.7382 1.35996 3.63919 0
M  V30 323 H 34.4102 3.7753 2.65083 0
M  V30 324 H 32.6532 3.58967 2.43568 0
M  V30 325 H 33.3242 3.73683 4.06282 0
M  V30 326 H 35.8002 1.83842 3.73285 0
M  V30 327 H 34.6762 2.01878 5.10428 0
M  V30 328 H 34.9372 0.430929 4.39995 0
M  V30 329 N 33.9963 -1.19345 1.0293 0
M  V30 330 C 35.2423 -1.89318 0.727083 0
M  V30 331 C 35.5753 -1.79446 -0.742483 0
M  V30 332 O 34.8503 -1.1871 -1.54072 0
M  V30 333 C 35.1333 -3.40238 1.17942 0
M  V30 334 C 34.9863 -3.58979 2.71024 0
M  V30 335 C 36.3053 -4.33479 0.760548 0
M  V30 336 H 33.4243 -0.687475 0.265606 0
M  V30 337 H 36.0663 -1.40477 1.2793 0
M  V30 338 H 34.2163 -3.81964 0.709608 0
M  V30 339 H 35.8883 -3.26421 3.25955 0
M  V30 340 H 34.1313 -3.02018 3.11396 0
M  V30 341 H 34.8023 -4.64823 2.9773 0
M  V30 342 H 37.2783 -3.99469 1.16464 0
M  V30 343 H 36.1543 -5.37664 1.10493 0
M  V30 344 H 36.4153 -4.40813 -0.337063 0
M  V30 345 N 35.4744 -0.807222 -1.35358 0
M  V30 346 C 36.4224 -0.20614 -2.31685 0
M  V30 347 C 37.4164 0.644445 -1.56663 0
M  V30 348 O 38.6224 0.537538 -1.71786 0
M  V30 349 H 34.9974 -0.0479006 -0.750473 0
M  V30 350 H 36.9684 -1.03369 -2.79924 0
M  V30 351 C 35.7174 0.630212 -3.41941 0
M  V30 352 H 35.0404 -0.0149558 -3.99797 0
M  V30 353 H 36.4804 1.01716 -4.11619 0
M  V30 354 C 34.9394 1.79601 -2.85035 0
M  V30 355 O 35.4694 2.89351 -2.78637 0
M  V30 356 N 33.6754 1.60774 -2.42074 0
M  V30 357 H 33.2224 0.715009 -2.47478 0
M  V30 358 H 33.1804 2.38933 -2.04349 0
M  V30 359 N 36.9525 1.47285 -0.560781 0
M  V30 360 C 37.8625 2.33846 0.187954 0
M  V30 361 C 38.8785 1.48412 0.908293 0
M  V30 362 O 40.0545 1.81332 0.876388 0
M  V30 363 C 37.1195 3.25178 1.2025 0
M  V30 364 C 36.1805 4.26504 0.489208 0
M  V30 365 C 35.4135 5.13472 1.45542 0
M  V30 366 O 35.6365 5.02959 2.6905 0
M  V30 367 O 34.5705 5.93902 0.977963 0
M  V30 368 H 38.3965 2.99177 -0.522177 0
M  V30 369 H 35.9815 1.45903 -0.321364 0
M  V30 370 H 37.8635 3.81584 1.78805 0
M  V30 371 H 36.5385 2.6247 1.89449 0
M  V30 372 H 35.4455 3.73847 -0.137627 0
M  V30 373 H 36.7785 4.91935 -0.161399 0
M  V30 374 N 38.4306 0.297415 1.54768 0
M  V30 375 C 39.3776 -0.580276 2.23386 0
M  V30 376 C 40.3476 -1.13238 1.21517 0
M  V30 377 O 41.5326 -1.17757 1.50126 0
M  V30 378 C 38.6726 -1.74801 2.97555 0
M  V30 379 C 37.7856 -1.22764 4.1419 0
M  V30 380 C 36.9206 -2.35895 4.75949 0
M  V30 381 C 35.9596 -1.80974 5.84735 0
M  V30 382 N 35.0966 -2.87664 6.40464 0
M  V30 383 H 39.9366 0.0114833 2.97998 0
M  V30 384 H 37.4736 0.0174361 1.4709 0
M  V30 385 H 39.4316 -2.43475 3.38786 0
M  V30 386 H 38.0616 -2.31145 2.25326 0
M  V30 387 H 37.1136 -0.433271 3.77924 0
M  V30 388 H 38.4256 -0.785551 4.92575 0
M  V30 389 H 37.5796 -3.12523 5.20014 0
M  V30 390 H 36.3186 -2.83429 3.96887 0
M  V30 391 H 35.3236 -1.02834 5.40097 0
M  V30 392 H 36.5486 -1.34348 6.65678 0
M  V30 393 H 34.4946 -3.34538 5.64287 0
M  V30 394 H 34.4116 -2.4794 7.14186 0
M  V30 395 H 35.6796 -3.642 6.89187 0
M  V30 396 N 39.9087 -1.5758 0.0250728 0
M  V30 397 C 41.1857 -1.82917 -0.692873 0
M  V30 398 C 41.5657 -0.908137 -1.90568 0
M  V30 399 O 40.9137 0.0372298 -2.2847 0
M  V30 400 C 41.1237 -3.32034 -1.07492 0
M  V30 401 C 42.4717 -3.98406 -1.46826 0
M  V30 402 O 43.4957 -3.36505 -1.16801 0
M  V30 403 O 42.3547 -5.07497 -2.02754 0
M  V30 404 H 39.4487 -0.754079 -0.33955 0
M  V30 405 H 41.9947 -1.69619 0.0524456 0
M  V30 406 H 40.7667 -3.90728 -0.211552 0
M  V30 407 H 40.3897 -3.50424 -1.87854 0
M  V30 408 N 41.3868 0.248026 -1.55636 0
M  V30 409 C 42.6338 0.976224 -1.77415 0
M  V30 410 C 42.9618 1.85361 -0.589193 0
M  V30 411 O 42.2168 1.90973 0.427529 0
M  V30 412 C 42.5158 1.86819 -3.04686 0
M  V30 413 C 42.1818 1.14625 -4.36087 0
M  V30 414 C 40.8438 0.946723 -4.71795 0
M  V30 415 C 43.1958 0.634463 -5.17324 0
M  V30 416 C 40.5238 0.223091 -5.86276 0
M  V30 417 C 42.8758 -0.0756959 -6.32555 0
M  V30 418 C 41.5398 -0.286711 -6.66884 0
M  V30 419 H 40.8098 0.357226 -0.649208 0
M  V30 420 H 43.4568 0.246415 -1.89908 0
M  V30 421 H 41.7618 2.66502 -2.872 0
M  V30 422 H 43.4588 2.43329 -3.18735 0
M  V30 423 H 40.0488 1.3117 -4.08035 0
M  V30 424 H 44.2328 0.77616 -4.90193 0
M  V30 425 H 39.4888 0.0491185 -6.1138 0
M  V30 426 H 43.6628 -0.479899 -6.94745 0
M  V30 427 H 41.2898 -0.849389 -7.5544 0
M  V30 428 N 42.8649 1.48995 0.513639 0
M  V30 429 C 43.7969 1.60836 1.63293 0
M  V30 430 C 44.8099 0.491701 1.55197 0
M  V30 431 O 45.9989 0.763238 1.6136 0
M  V30 432 C 43.0989 1.53731 3.02027 0
M  V30 433 C 42.2719 2.80715 3.35437 0
M  V30 434 C 41.3309 2.66837 4.53525 0
M  V30 435 O 40.3569 3.40753 4.55934 0
M  V30 436 N 41.5589 1.77539 5.52684 0
M  V30 437 H 44.3239 2.57366 1.53566 0
M  V30 438 H 41.8849 1.45925 0.701259 0
M  V30 439 H 43.8769 1.42118 3.78926 0
M  V30 440 H 42.4469 0.651092 3.05744 0
M  V30 441 H 41.6669 3.06772 2.47557 0
M  V30 442 H 42.9549 3.64927 3.54551 0
M  V30 443 H 42.3529 1.16719 5.53528 0
M  V30 444 H 40.9099 1.71856 6.28736 0
M  V30 445 N 44.343 -0.763751 1.37857 0
M  V30 446 C 45.568 -1.55805 1.36893 0
M  V30 447 C 45.993 -1.88054 -0.0416135 0
M  V30 448 O 45.351 -1.49825 -1.02089 0
M  V30 449 C 45.399 -2.84012 2.22192 0
M  V30 450 O 44.503 -3.78732 1.63204 0
M  V30 451 H 43.844 -0.471638 0.46739 0
M  V30 452 H 46.374 -0.944657 1.81487 0
M  V30 453 H 46.384 -3.33037 2.35691 0
M  V30 454 H 45.059 -2.59869 3.24716 0
M  V30 455 H 43.636 -3.37402 1.58791 0
M  V30 456 N 45.8211 -1.22559 -0.990812 0
M  V30 457 C 47.0691 -1.04933 -1.72724 0
M  V30 458 C 47.3901 0.416158 -1.90508 0
M  V30 459 O 46.6601 1.29918 -1.46622 0
M  V30 460 H 45.2401 -0.385296 -0.639965 0
M  V30 461 H 47.9021 -1.54105 -1.19322 0
M  V30 462 H 46.9981 -1.52886 -2.72089 0
M  V30 463 N 47.2992 1.18797 -1.03562 0
M  V30 464 C 48.2312 2.21731 -0.580337 0
M  V30 465 C 49.2442 1.59051 0.347349 0
M  V30 466 O 50.4332 1.77929 0.142669 0
M  V30 467 C 47.5332 3.38459 0.172805 0
M  V30 468 C 46.7062 4.3072 -0.761496 0
M  V30 469 C 45.7652 5.26174 -0.0525547 0
M  V30 470 O 44.7912 5.65108 -0.681333 0
M  V30 471 N 45.9932 5.67624 1.21586 0
M  V30 472 H 48.7582 2.61417 -1.46565 0
M  V30 473 H 46.3192 1.33531 -0.915476 0
M  V30 474 H 48.3112 3.99335 0.656793 0
M  V30 475 H 46.8812 2.97507 0.959602 0
M  V30 476 H 46.1012 3.67525 -1.42544 0
M  V30 477 H 47.3892 4.89267 -1.39626 0
M  V30 478 H 46.7872 5.38038 1.74732 0
M  V30 479 H 45.3442 6.30721 1.64421 0
M  V30 480 N 48.7773 0.814389 1.34928 0
M  V30 481 C 49.7273 0.202752 2.27097 0
M  V30 482 C 50.7113 -0.62799 1.48139 0
M  V30 483 O 51.9033 -0.483969 1.70255 0
M  V30 484 C 49.0323 -0.64146 3.37254 0
M  V30 485 C 48.1183 0.19944 4.23631 0
M  V30 486 N 48.5093 1.26628 4.89693 0
M  V30 487 C 46.8073 -0.0176433 4.45997 0
M  V30 488 C 47.5083 1.78031 5.53787 0
M  V30 489 N 46.4843 1.08553 5.32651 0
M  V30 490 H 50.2863 1.01893 2.75672 0
M  V30 491 H 47.8003 0.656332 1.48546 0
M  V30 492 H 49.7973 -1.09575 4.02243 0
M  V30 493 H 48.4573 -1.4559 2.9023 0
M  V30 494 H 49.4683 1.64901 4.90946 0
M  V30 495 H 46.1453 -0.800601 4.09752 0
M  V30 496 H 47.5353 2.67236 6.16469 0
M  V30 497 N 50.2554 -1.46986 0.568584 0
M  V30 498 C 51.5014 -2.02741 0.0488709 0
M  V30 499 C 51.8344 -1.44077 -1.30214 0
M  V30 500 O 51.1094 -0.600552 -1.84996 0
M  V30 501 C 51.3924 -3.60086 -0.032047 0
M  V30 502 C 51.2454 -4.29162 1.34686 0
M  V30 503 C 52.5644 -4.33838 -0.739798 0
M  V30 504 H 49.6834 -0.736749 0.0192338 0
M  V30 505 H 52.3254 -1.75289 0.733065 0
M  V30 506 H 50.4754 -3.83606 -0.61473 0
M  V30 507 H 52.1474 -4.16948 1.97362 0
M  V30 508 H 50.3904 -3.89073 1.91846 0
M  V30 509 H 51.0614 -5.37826 1.24285 0
M  V30 510 H 53.5374 -4.15378 -0.244939 0
M  V30 511 H 52.4134 -5.43537 -0.765406 0
M  V30 512 H 52.6744 -4.03875 -1.79827 0
M  V30 513 N 51.7335 -0.305618 -1.54608 0
M  V30 514 C 52.9825 0.303098 -1.9941 0
M  V30 515 C 53.2955 1.54648 -1.19764 0
M  V30 516 O 54.5015 2.23007 -1.54855 0
M  V30 517 C 52.9575 0.590588 -3.55021 0
M  V30 518 C 52.5655 -0.634719 -4.43481 0
M  V30 519 C 54.3095 1.16025 -4.08336 0
M  V30 520 C 52.2165 -0.320126 -5.90533 0
M  V30 521 H 51.1465 0.117031 -0.744862 0
M  V30 522 H 53.7975 -0.415045 -1.78745 0
M  V30 523 H 52.1795 1.36845 -3.71604 0
M  V30 524 H 53.3535 -1.41079 -4.38672 0
M  V30 525 H 51.6685 -1.12333 -4.00962 0
M  V30 526 H 54.2655 1.40994 -5.15776 0
M  V30 527 H 54.6085 2.10397 -3.5922 0
M  V30 528 H 55.1415 0.443985 -3.95315 0
M  V30 529 H 51.8805 -1.23254 -6.43808 0
M  V30 530 H 51.4005 0.418579 -5.98338 0
M  V30 531 H 53.0795 0.0766241 -6.46955 0
M  V30 532 N 53.2116 1.57565 -0.0334293 0
M  V30 533 C 54.4576 1.92262 0.645226 0
M  V30 534 C 54.7906 0.910543 1.71531 0
M  V30 535 O 54.0656 -0.066099 1.94388 0
M  V30 536 C 54.3486 3.37422 1.2577 0
M  V30 537 C 54.2016 4.49369 0.196891 0
M  V30 538 C 55.5206 3.82628 2.17449 0
M  V30 539 H 52.6396 0.699171 0.233085 0
M  V30 540 H 55.2816 1.89779 -0.0915694 0
M  V30 541 H 53.4316 3.39669 1.88566 0
M  V30 542 H 55.1036 4.59254 -0.433962 0
M  V30 543 H 53.3466 4.31168 -0.477137 0
M  V30 544 H 54.0176 5.47978 0.665124 0
M  V30 545 H 56.4936 3.82145 1.64634 0
M  V30 546 H 55.3696 4.84883 2.57254 0
M  V30 547 H 55.6306 3.18376 3.0674 0
M  V30 548 N 54.6897 -0.239769 1.55765 0
M  V30 549 C 56.1057 -0.588624 1.48349 0
M  V30 550 C 56.3057 -1.88005 0.72502 0
M  V30 551 O 55.3617 -2.51186 0.257269 0
M  V30 552 C 56.6747 -0.68474 2.928 0
M  V30 553 C 58.2227 -0.77659 3.03213 0
M  V30 554 C 58.6977 -0.904207 4.48986 0
M  V30 555 N 60.1887 -0.968896 4.52953 0
M  V30 556 C 60.9237 -1.08703 5.63002 0
M  V30 557 N 60.4197 -1.17026 6.82845 0
M  V30 558 N 62.2127 -1.12074 5.50814 0
M  V30 559 H 54.3637 0.607911 2.03515 0
M  V30 560 H 56.6267 0.21083 0.924259 0
M  V30 561 H 56.3327 0.194284 3.51163 0
M  V30 562 H 56.2067 -1.55435 3.43686 0
M  V30 563 H 58.5937 -1.64606 2.44926 0
M  V30 564 H 58.6747 0.118315 2.55526 0
M  V30 565 H 58.3187 -0.0392633 5.07885 0
M  V30 566 H 58.2487 -1.81426 4.9436 0
M  V30 567 H 60.7397 -0.915633 3.6664 0
M  V30 568 H 61.0527 -1.25966 7.62465 0
M  V30 569 H 59.3977 -1.13971 6.85591 0
M  V30 570 H 62.5887 -1.05226 4.5612 0
M  V30 571 H 62.7617 -1.20936 6.36615 0
M  V30 572 N 56.1678 -1.49265 -0.50573 0
M  V30 573 C 57.3958 -1.62215 -1.28429 0
M  V30 574 C 57.8108 -0.291697 -1.86533 0
M  V30 575 O 57.1678 0.722233 -1.67601 0
M  V30 576 C 57.2188 -2.68735 -2.41793 0
M  V30 577 O 56.9398 -3.96619 -1.86078 0
M  V30 578 C 58.4408 -2.92346 -3.3324 0
M  V30 579 H 55.6608 -0.546239 -0.389697 0
M  V30 580 H 58.2048 -1.95265 -0.607609 0
M  V30 581 H 56.3598 -2.38476 -3.053 0
M  V30 582 H 56.7738 -4.55256 -2.60465 0
M  V30 583 H 58.2478 -3.70623 -4.09075 0
M  V30 584 H 58.7248 -2.02081 -3.89948 0
M  V30 585 H 59.3308 -3.24003 -2.75503 0
M  V30 586 N 57.6459 0.756429 -1.3826 0
M  V30 587 C 58.8709 1.55077 -1.37717 0
M  V30 588 C 59.2959 1.88073 0.03164 0
M  V30 589 O 58.6539 1.50364 1.01293 0
M  V30 590 C 58.7019 2.8283 -2.23695 0
M  V30 591 O 57.8059 3.77862 -1.6521 0
M  V30 592 H 57.1469 0.469152 -0.469885 0
M  V30 593 H 59.6769 0.935019 -1.81985 0
M  V30 594 H 59.6869 3.31783 -2.37453 0
M  V30 595 H 58.3619 2.58144 -3.2609 0
M  V30 596 H 56.9389 3.36555 -1.60578 0
M  V30 597 N 59.124 1.23083 0.984299 0
M  V30 598 C 60.535 1.05609 1.5396 0
M  V30 599 C 60.886 -0.377793 1.92528 0
M  V30 600 O 60.011 -1.26398 1.75649 0
M  V30 601 C 60.606 1.91087 2.7977 0
M  V30 602 C 59.165 1.77885 3.31713 0
M  V30 603 C 58.312 1.87028 2.04733 0
M  V30 604 H 61.263 1.36802 0.804419 0
M  V30 605 H 61.284 1.43336 3.5247 0
M  V30 606 H 60.796 2.9544 2.51668 0
M  V30 607 H 58.897 0.762995 3.64704 0
M  V30 608 H 59.01 2.61047 4.01735 0
M  V30 609 H 57.374 1.30565 2.18689 0
M  V30 610 H 58.157 2.92929 1.79017 0
M  V30 611 N 60.6021 -1.18246 1.0419 0
M  V30 612 C 61.5501 -2.23968 0.627792 0
M  V30 613 C 62.5441 -1.65828 -0.346019 0
M  V30 614 O 63.7501 -1.78733 -0.213175 0
M  V30 615 H 60.1251 -0.728939 0.184802 0
M  V30 616 H 62.0961 -2.56202 1.52981 0
M  V30 617 C 60.8451 -3.47699 0.00796591 0
M  V30 618 H 60.1681 -3.92734 0.748347 0
M  V30 619 H 61.6081 -4.23294 -0.24455 0
M  V30 620 C 60.0671 -3.13153 -1.24246 0
M  V30 621 O 60.5971 -3.27003 -2.33307 0
M  V30 622 N 58.8031 -2.67467 -1.13622 0
M  V30 623 H 58.3501 -2.56396 -0.248734 0
M  V30 624 H 58.3081 -2.44724 -1.97377 0
M  V30 625 N 62.0802 -0.821533 -1.34494 0
M  V30 626 C 63.0302 -0.214793 -2.26986 0
M  V30 627 C 64.0142 0.620125 -1.4847 0
M  V30 628 O 65.2062 0.474933 -1.70509 0
M  V30 629 C 62.3352 0.623566 -3.37589 0
M  V30 630 C 61.4212 -0.221904 -4.23519 0
M  V30 631 N 61.8122 -1.29223 -4.89014 0
M  V30 632 C 60.1102 -0.00600922 -4.46 0
M  V30 633 C 60.8112 -1.80965 -5.52835 0
M  V30 634 N 59.7872 -1.11376 -5.32068 0
M  V30 635 H 63.5892 -1.03354 -2.75128 0
M  V30 636 H 61.1032 -0.6642 -1.48196 0
M  V30 637 H 63.1002 1.0744 -4.02818 0
M  V30 638 H 61.7602 1.44049 -2.90998 0
M  V30 639 H 62.7712 -1.67502 -4.90065 0
M  V30 640 H 59.4482 0.77886 -4.10171 0
M  V30 641 H 60.8382 -2.70502 -6.15043 0
M  V30 642 N 63.5583 1.46682 -0.576371 0
M  V30 643 C 64.9743 1.57822 -0.237562 0
M  V30 644 C 65.1743 1.57237 1.26011 0
M  V30 645 O 64.2303 1.48596 2.04146 0
M  V30 646 C 65.5433 2.87499 -0.881168 0
M  V30 647 C 67.0913 3.01119 -0.85417 0
M  V30 648 C 67.5663 4.33524 -1.4772 0
M  V30 649 N 69.0573 4.40207 -1.44125 0
M  V30 650 C 69.7923 5.4126 -1.89276 0
M  V30 651 N 69.2883 6.49021 -2.42371 0
M  V30 652 N 71.0813 5.32422 -1.80231 0
M  V30 653 H 63.2323 1.45306 -1.54919 0
M  V30 654 H 65.4953 0.692733 -0.647167 0
M  V30 655 H 65.2013 2.9372 -1.93447 0
M  V30 656 H 65.0753 3.75224 -0.385592 0
M  V30 657 H 67.4623 2.94485 0.190491 0
M  V30 658 H 67.5433 2.14887 -1.3877 0
M  V30 659 H 67.1873 4.40916 -2.52103 0
M  V30 660 H 67.1173 5.1852 -0.918947 0
M  V30 661 H 69.6083 3.62931 -1.05307 0
M  V30 662 H 69.9213 7.2233 -2.74698 0
M  V30 663 H 68.2663 6.49858 -2.46393 0
M  V30 664 H 71.4573 4.47137 -1.38514 0
M  V30 665 H 71.6303 6.11034 -2.15735 0
M  V30 666 N 65.0364 0.313813 1.54444 0
M  V30 667 C 66.2664 -0.293491 2.04505 0
M  V30 668 C 66.6744 -1.47086 1.19005 0
M  V30 669 O 66.0174 -1.82481 0.211257 0
M  V30 670 C 66.0794 -0.800455 3.50475 0
M  V30 671 C 65.7434 0.253322 4.56297 0
M  V30 672 C 66.7404 1.08612 5.08428 0
M  V30 673 C 64.4254 0.398708 5.00715 0
M  V30 674 C 66.4194 2.05013 6.0353 0
M  V30 675 C 64.1064 1.36614 5.95634 0
M  V30 676 C 65.1044 2.19033 6.46926 0
M  V30 677 O 64.7924 3.14134 7.39983 0
M  V30 678 H 64.5244 -0.0658325 0.672787 0
M  V30 679 H 67.0784 0.455177 2.00293 0
M  V30 680 H 65.3084 -1.59987 3.52053 0
M  V30 681 H 66.9974 -1.32504 3.83663 0
M  V30 682 H 67.7634 0.984736 4.74898 0
M  V30 683 H 63.6424 -0.23289 4.60411 0
M  V30 684 H 67.1864 2.69382 6.4349 0
M  V30 685 H 63.0834 1.4682 6.28581 0
M  V30 686 H 63.8514 3.0926 7.57826 0
M  V30 687 N 66.5145 -1.57545 0.0417849 0
M  V30 688 C 67.7425 -1.96624 -0.643928 0
M  V30 689 C 68.1575 -0.918897 -1.64929 0
M  V30 690 O 67.5145 0.0979323 -1.82237 0
M  V30 691 C 67.5655 -3.35781 -1.33914 0
M  V30 692 O 67.2865 -4.365 -0.374048 0
M  V30 693 C 68.7875 -3.89566 -2.1155 0
M  V30 694 H 66.0075 -0.647316 -0.176702 0
M  V30 695 H 68.5515 -2.04229 0.105304 0
M  V30 696 H 66.7065 -3.29357 -2.03968 0
M  V30 697 H 67.1205 -5.17248 -0.869179 0
M  V30 698 H 68.5945 -4.89242 -2.55628 0
M  V30 699 H 69.0715 -3.24488 -2.9598 0
M  V30 700 H 69.6775 -3.99298 -1.46427 0
M  V30 701 N 67.9926 0.231505 -1.5589 0
M  V30 702 C 69.2396 0.957352 -1.78441 0
M  V30 703 C 69.5676 1.84726 -0.60882 0
M  V30 704 O 68.8226 1.91416 0.40725 0
M  V30 705 C 69.1216 1.83577 -3.0665 0
M  V30 706 C 68.7876 1.09993 -4.37278 0
M  V30 707 C 67.4496 0.896629 -4.72773 0
M  V30 708 C 69.8016 0.579558 -5.17968 0
M  V30 709 C 67.1296 0.160896 -5.86479 0
M  V30 710 C 69.4816 -0.142783 -6.32439 0
M  V30 711 C 68.1456 -0.357427 -6.66542 0
M  V30 712 H 67.4156 0.35032 -0.65296 0
M  V30 713 H 70.0626 0.226259 -1.90159 0
M  V30 714 H 68.3676 2.63441 -2.90011 0
M  V30 715 H 70.0646 2.39934 -3.21298 0
M  V30 716 H 66.6546 1.26835 -4.09403 0
M  V30 717 H 70.8386 0.724125 -4.90989 0
M  V30 718 H 66.0946 -0.0157293 -6.11398 0
M  V30 719 H 70.2686 -0.553559 -6.94196 0
M  V30 720 H 67.8956 -0.929466 -7.54497 0
M  V30 721 N 69.4707 1.49531 0.497807 0
M  V30 722 C 70.6987 1.62893 1.27567 0
M  V30 723 C 71.1137 0.301585 1.86376 0
M  V30 724 O 70.4707 -0.713335 1.67982 0
M  V30 725 C 70.5217 2.70013 2.40364 0
M  V30 726 O 70.2427 3.976 1.83972 0
M  V30 727 C 71.7437 2.94109 3.31685 0
M  V30 728 H 68.9637 0.548298 0.386794 0
M  V30 729 H 71.5077 1.95584 0.597245 0
M  V30 730 H 69.6627 2.40092 3.04031 0
M  V30 731 H 70.0767 4.56631 2.58047 0
M  V30 732 H 71.5507 3.72788 4.07104 0
M  V30 733 H 72.0277 2.04147 3.88871 0
M  V30 734 H 72.6337 3.2546 2.73781 0
M  V30 735 N 70.9488 -0.749086 1.3866 0
M  V30 736 C 71.8788 -1.8764 1.38973 0
M  V30 737 C 72.8598 -1.68178 0.255004 0
M  V30 738 O 74.0448 -1.88704 0.458754 0
M  V30 739 C 71.1748 -3.25222 1.21851 0
M  V30 740 C 70.1288 -3.59295 2.32575 0
M  V30 741 C 69.4548 -4.95663 2.00555 0
M  V30 742 C 70.7548 -3.63709 3.7485 0
M  V30 743 H 72.4488 -1.87635 2.3331 0
M  V30 744 H 69.9948 -0.901329 1.12303 0
M  V30 745 H 71.9478 -4.03746 1.20695 0
M  V30 746 H 70.6718 -3.25719 0.239775 0
M  V30 747 H 69.3308 -2.83093 2.32925 0
M  V30 748 H 68.9788 -4.92724 1.01154 0
M  V30 749 H 68.6788 -5.19429 2.74714 0
M  V30 750 H 70.2028 -5.7656 2.01024 0
M  V30 751 H 71.6168 -4.32338 3.76506 0
M  V30 752 H 70.0138 -3.98986 4.48252 0
M  V30 753 H 71.0838 -2.63834 4.06841 0
M  V30 754 N 72.4269 -1.23603 -0.977757 0
M  V30 755 C 73.3739 -1.01954 -2.07061 0
M  V30 756 C 74.3439 0.0638697 -1.65977 0
M  V30 757 O 75.5289 -0.0887624 -1.90593 0
M  V30 758 C 72.6689 -0.619658 -3.39491 0
M  V30 759 C 71.7819 -1.77547 -3.93829 0
M  V30 760 C 70.9169 -1.32212 -5.14484 0
M  V30 761 C 69.9559 -2.44852 -5.60994 0
M  V30 762 N 69.0929 -2.00456 -6.72876 0
M  V30 763 H 73.9329 -1.95495 -2.24913 0
M  V30 764 H 71.4699 -0.973861 -1.10247 0
M  V30 765 H 73.4279 -0.368898 -4.15566 0
M  V30 766 H 72.0579 0.278752 -3.21594 0
M  V30 767 H 71.1099 -2.14016 -3.14486 0
M  V30 768 H 72.4219 -2.62219 -4.24314 0
M  V30 769 H 71.5759 -1.02965 -5.97899 0
M  V30 770 H 70.3149 -0.445808 -4.85658 0
M  V30 771 H 69.3199 -2.74871 -4.76157 0
M  V30 772 H 70.5449 -3.33024 -5.91837 0
M  V30 773 H 68.4909 -1.15208 -6.45804 0
M  V30 774 H 68.4079 -2.78687 -7.02759 0
M  V30 775 H 69.6759 -1.7432 -7.59758 0
M  V30 776 N 73.905 1.17692 -1.04816 0
M  V30 777 C 75.133 1.91786 -0.776254 0
M  V30 778 C 75.548 1.76604 0.667577 0
M  V30 779 O 74.905 1.10067 1.45573 0
M  V30 780 C 74.956 3.42967 -1.14263 0
M  V30 781 O 74.677 3.57678 -2.52978 0
M  V30 782 C 76.178 4.34144 -0.896311 0
M  V30 783 H 73.398 0.608624 -0.282519 0
M  V30 784 H 75.942 1.49268 -1.39783 0
M  V30 785 H 74.097 3.83245 -0.565874 0
M  V30 786 H 74.511 4.51319 -2.67229 0
M  V30 787 H 75.985 5.38744 -1.20244 0
M  V30 788 H 76.462 4.38876 0.168636 0
M  V30 789 H 77.068 3.99574 -1.45672 0
M  V30 790 N 75.3831 0.828654 1.34056 0
M  V30 791 C 76.3331 0.226828 2.26869 0
M  V30 792 C 77.3171 -0.612243 1.48796 0
M  V30 793 O 78.5091 -0.465884 1.70759 0
M  V30 794 C 75.6381 -0.605654 3.37915 0
M  V30 795 C 74.7241 0.244361 4.23395 0
M  V30 796 N 75.1151 1.31815 4.88322 0
M  V30 797 C 73.4131 0.0296616 4.4599 0
M  V30 798 C 74.1141 1.83895 5.51867 0
M  V30 799 N 73.0901 1.14196 5.3147 0
M  V30 800 H 76.8921 1.04811 2.74576 0
M  V30 801 H 74.4061 0.67205 1.47842 0
M  V30 802 H 76.4031 -1.05302 4.03382 0
M  V30 803 H 75.0631 -1.42504 2.91758 0
M  V30 804 H 76.0741 1.70099 4.8917 0
M  V30 805 H 72.7511 -0.757097 4.10578 0
M  V30 806 H 74.1411 2.7376 6.136 0
M  V30 807 N 76.8612 -1.46375 0.584142 0
M  V30 808 C 78.2722 -1.86031 0.157959 0
M  V30 809 C 78.6232 -1.48753 -1.27933 0
M  V30 810 O 77.7482 -0.903098 -1.96655 0
M  V30 811 C 78.3432 -3.37642 0.279892 0
M  V30 812 C 76.9022 -3.76289 -0.09143 0
M  V30 813 C 76.0492 -2.7039 0.615178 0
M  V30 814 H 79.0002 -1.37509 0.792274 0
M  V30 815 H 79.0212 -3.77275 -0.494364 0
M  V30 816 H 78.5332 -3.64742 1.32607 0
M  V30 817 H 76.6342 -3.54806 -1.13769 0
M  V30 818 H 76.7472 -4.78246 0.285886 0
M  V30 819 H 75.1112 -2.5464 0.0552833 0
M  V30 820 H 75.8942 -3.0033 1.66303 0
M  V30 821 N 78.3393 -0.321999 -1.54275 0
M  V30 822 C 79.5643 0.285791 -2.05422 0
M  V30 823 C 79.9893 1.45124 -1.19669 0
M  V30 824 O 79.3473 1.80132 -0.205441 0
M  V30 825 C 79.3953 0.69956 -3.53749 0
M  V30 826 O 78.4993 1.8021 -3.70942 0
M  V30 827 H 77.8403 0.0518962 -0.661969 0
M  V30 828 H 80.3703 -0.469954 -1.9913 0
M  V30 829 H 80.3803 0.982649 -3.9599 0
M  V30 830 H 79.0553 -0.152864 -4.15619 0
M  V30 831 H 77.6323 1.51794 -3.40607 0
M  V30 832 N 79.8174 1.5752 -0.0501392 0
M  V30 833 C 81.0634 1.92936 0.624798 0
M  V30 834 C 81.3964 0.928685 1.70555 0
M  V30 835 O 80.6714 -0.0454779 1.94447 0
M  V30 836 C 80.9544 3.38737 1.22185 0
M  V30 837 C 80.8074 4.49552 0.149218 0
M  V30 838 C 82.1264 3.84913 2.13378 0
M  V30 839 H 79.2454 0.701604 0.225657 0
M  V30 840 H 81.8874 1.89671 -0.111693 0
M  V30 841 H 80.0374 3.4165 1.84953 0
M  V30 842 H 81.7094 4.58768 -0.482648 0
M  V30 843 H 79.9524 4.30638 -0.522841 0
M  V30 844 H 80.6234 5.48653 0.606966 0
M  V30 845 H 83.0994 3.8387 1.60572 0
M  V30 846 H 81.9754 4.87584 2.52097 0
M  V30 847 H 82.2364 3.21611 3.03346 0
M  V30 848 N 81.2955 -0.223234 1.56011 0
M  V30 849 C 82.5415 -0.949279 1.79211 0
M  V30 850 C 82.8745 -1.84054 0.619494 0
M  V30 851 O 82.1495 -1.90726 -0.381317 0
M  V30 852 C 82.4325 -1.78965 3.12479 0
M  V30 853 C 82.2855 -0.924997 4.40186 0
M  V30 854 C 83.6045 -2.76774 3.42175 0
M  V30 855 H 80.7235 -0.343676 0.651963 0
M  V30 856 H 83.3655 -0.218253 1.88742 0
M  V30 857 H 81.5155 -2.41291 3.04485 0
M  V30 858 H 83.1875 -0.318615 4.60198 0
M  V30 859 H 81.4305 -0.230344 4.33188 0
M  V30 860 H 82.1015 -1.54735 5.29869 0
M  V30 861 H 84.5775 -2.24584 3.50287 0
M  V30 862 H 83.4535 -3.32678 4.36597 0
M  V30 863 H 83.7145 -3.54429 2.64258 0
M  V30 864 N 82.7736 -1.49793 -0.48987 0
M  V30 865 C 84.1846 -1.52914 -1.07118 0
M  V30 866 C 84.5356 -0.321738 -1.93544 0
M  V30 867 O 83.6606 0.567338 -2.08831 0
M  V30 868 C 84.2556 -2.771 -1.94938 0
M  V30 869 C 82.8146 -2.82963 -2.48212 0
M  V30 870 C 81.9616 -2.46972 -1.26096 0
M  V30 871 H 84.9126 -1.56329 -0.273289 0
M  V30 872 H 84.9336 -2.57892 -2.79771 0
M  V30 873 H 84.4456 -3.64959 -1.32009 0
M  V30 874 H 82.5466 -1.99411 -3.14748 0
M  V30 875 H 82.6596 -3.85406 -2.84603 0
M  V30 876 H 81.0236 -1.98994 -1.58976 0
M  V30 877 H 81.8066 -3.37118 -0.648581 0
M  V30 878 N 84.2517 0.741722 -1.39055 0
M  V30 879 C 85.4997 1.49818 -1.35643 0
M  V30 880 C 85.8207 1.94938 0.0491642 0
M  V30 881 O 85.0907 1.68505 0.999141 0
M  V30 882 H 83.6707 0.555755 -0.499144 0
M  V30 883 H 86.3327 0.880957 -1.73854 0
M  V30 884 H 85.4287 2.38348 -2.01486 0
M  V30 885 N 85.7298 1.2412 0.971189 0
M  V30 886 C 86.9548 1.10667 1.75407 0
M  V30 887 C 87.3798 -0.337048 1.85056 0
M  V30 888 O 86.7378 -1.24396 1.31892 0
M  V30 889 C 86.7858 1.74726 3.15441 0
M  V30 890 O 85.8898 1.01566 3.99697 0
M  V30 891 H 85.2308 0.387341 0.539317 0
M  V30 892 H 87.7608 1.64358 1.2185 0
M  V30 893 H 87.7708 1.80341 3.6598 0
M  V30 894 H 86.4458 2.79773 3.07734 0
M  V30 895 H 85.0228 1.03713 3.58187 0
M  V30 896 N 87.2079 -1.17134 1.05439 0
M  V30 897 C 88.4569 -1.86791 0.761049 0
M  V30 898 C 88.7699 -1.82072 -0.714795 0
M  V30 899 O 89.9759 -2.47223 -1.12218 0
M  V30 900 C 88.4319 -3.35166 1.31117 0
M  V30 901 C 88.0399 -3.48381 2.81664 0
M  V30 902 C 89.7839 -4.10134 1.09499 0
M  V30 903 C 87.6909 -4.90793 3.29964 0
M  V30 904 H 86.6209 -0.699681 0.281002 0
M  V30 905 H 89.2719 -1.3226 1.27199 0
M  V30 906 H 87.6539 -3.8925 0.72803 0
M  V30 907 H 88.8279 -3.04502 3.45855 0
M  V30 908 H 87.1429 -2.86836 3.01851 0
M  V30 909 H 89.7399 -5.152 1.43084 0
M  V30 910 H 90.0829 -4.16287 0.0328772 0
M  V30 911 H 90.6159 -3.62264 1.64346 0
M  V30 912 H 87.3549 -4.89816 4.35616 0
M  V30 913 H 86.8749 -5.35333 2.70516 0
M  V30 914 H 88.5539 -5.59573 3.24787 0
M  V30 915 N 88.686 -0.835752 -1.33615 0
M  V30 916 C 89.649 -0.272 -2.2758 0
M  V30 917 C 90.649 0.557487 -1.50827 0
M  V30 918 O 91.839 0.37173 -1.70188 0
M  V30 919 C 88.971 0.617173 -3.35267 0
M  V30 920 H 90.164 -1.10111 -2.78954 0
M  V30 921 H 87.717 -0.608594 -1.43965 0
M  V30 922 H 88.452 1.46884 -2.89129 0
M  V30 923 H 88.237 0.0237066 -3.92093 0
M  V30 924 H 89.727 1.005 -4.05326 0
M  V30 925 N 90.1641 1.46063 -0.591896 0
M  V30 926 C 91.4111 2.02338 -0.0809991 0
M  V30 927 C 91.7391 1.46228 1.28249 0
M  V30 928 O 90.9941 0.620818 1.85592 0
M  V30 929 C 91.2931 3.57391 0.0249813 0
M  V30 930 C 90.9591 4.32583 -1.27211 0
M  V30 931 C 89.6211 4.52844 -1.62745 0
M  V30 932 C 91.9731 4.75687 -2.13005 0
M  V30 933 C 89.3011 5.13462 -2.83855 0
M  V30 934 C 91.6531 5.37644 -3.3335 0
M  V30 935 C 90.3171 5.5613 -3.69155 0
M  V30 936 H 89.5871 0.740407 -0.0296397 0
M  V30 937 H 92.2341 1.75321 -0.770374 0
M  V30 938 H 90.5391 3.83597 0.797537 0
M  V30 939 H 92.2361 3.98621 0.436184 0
M  V30 940 H 88.8261 4.17116 -0.985499 0
M  V30 941 H 93.0101 4.59782 -1.86855 0
M  V30 942 H 88.2661 5.25965 -3.11722 0
M  V30 943 H 92.4401 5.7 -4.00092 0
M  V30 944 H 90.0671 6.0287 -4.63089 0
M  V30 945 N 91.6422 0.330177 1.54103 0
M  V30 946 C 92.8672 -0.274893 2.0557 0
M  V30 947 C 93.2922 -1.44487 1.20437 0
M  V30 948 O 92.6502 -1.80021 0.214991 0
M  V30 949 C 92.6982 -0.68079 3.54115 0
M  V30 950 O 91.8022 -1.7824 3.71893 0
M  V30 951 H 91.1432 -0.0483849 0.662235 0
M  V30 952 H 93.6732 0.480508 1.98878 0
M  V30 953 H 93.6832 -0.961635 3.96505 0
M  V30 954 H 92.3582 0.174903 4.15532 0
M  V30 955 H 90.9352 -1.49985 3.41407 0
M  V30 956 N 93.1203 -1.57491 0.0584922 0
M  V30 957 C 94.0503 -2.14988 -0.911178 0
M  V30 958 C 95.0313 -1.07343 -1.31952 0
M  V30 959 O 96.2163 -1.35318 -1.39294 0
M  V30 960 C 93.3463 -2.70078 -2.18347 0
M  V30 961 C 92.3003 -3.82771 -1.91495 0
M  V30 962 C 91.6263 -4.24408 -3.25241 0
M  V30 963 C 92.9263 -5.07592 -1.23075 0
M  V30 964 H 94.6203 -2.96263 -0.432246 0
M  V30 965 H 92.1663 -1.42512 -0.206469 0
M  V30 966 H 94.1193 -3.08943 -2.86587 0
M  V30 967 H 92.8433 -1.86005 -2.68458 0
M  V30 968 H 91.5023 -3.44389 -1.25664 0
M  V30 969 H 91.1503 -3.37275 -3.73168 0
M  V30 970 H 90.8503 -5.00366 -3.08071 0
M  V30 971 H 92.3743 -4.65879 -3.94701 0
M  V30 972 H 93.7883 -5.43857 -1.81362 0
M  V30 973 H 92.1853 -5.88741 -1.16207 0
M  V30 974 H 93.2553 -4.84454 -0.207847 0
M  V30 975 N 94.5984 0.214957 -1.56127 0
M  V30 976 C 96.0094 0.781386 -1.69562 0
M  V30 977 C 96.3604 1.84707 -0.66165 0
M  V30 978 O 95.4854 2.156 0.185927 0
M  V30 979 C 96.0804 1.42411 -3.07416 0
M  V30 980 C 94.6394 1.93786 -3.22683 0
M  V30 981 C 93.7864 0.800438 -2.65496 0
M  V30 982 H 96.7374 -0.00980633 -1.58697 0
M  V30 983 H 96.7584 2.29309 -3.0364 0
M  V30 984 H 96.2704 0.64826 -3.82648 0
M  V30 985 H 94.3714 2.74152 -2.52332 0
M  V30 986 H 94.4844 2.1133 -4.29973 0
M  V30 987 H 92.8484 1.2095 -2.2415 0
M  V30 988 H 93.6314 0.0371471 -3.4328 0
M  V30 989 N 96.0765 1.50051 0.48192 0
M  V30 990 C 97.0085 1.64263 1.59844 0
M  V30 991 C 98.0215 0.52451 1.54119 0
M  V30 992 O 99.2105 0.797293 1.59704 0
M  V30 993 C 96.3105 1.60102 2.98698 0
M  V30 994 C 95.4835 2.87767 3.29407 0
M  V30 995 C 94.5425 2.76397 4.47762 0
M  V30 996 O 93.5685 3.50348 4.48603 0
M  V30 997 N 94.7705 1.89222 5.48794 0
M  V30 998 H 97.5355 2.60566 1.48073 0
M  V30 999 H 95.0965 1.47379 0.670149 0
M  V30 1000 H 97.0885 1.50123 3.75826 0
M  V30 1001 H 95.6585 0.715798 3.04294 0
M  V30 1002 H 94.8785 3.11954 2.40994 0
M  V30 1003 H 96.1665 3.72365 3.4673 0
M  V30 1004 H 95.5645 1.28434 5.50928 0
M  V30 1005 H 94.1215 1.85154 6.24949 0
M  V30 1006 N 97.5546 -0.734337 1.39446 0
M  V30 1007 C 98.9706 -1.03997 1.21065 0
M  V30 1008 C 99.1706 -2.01369 0.0727019 0
M  V30 1009 O 98.2266 -2.45856 -0.575426 0
M  V30 1010 C 99.5396 -1.60163 2.54496 0
M  V30 1011 C 101.088 -1.7224 2.61347 0
M  V30 1012 C 101.563 -2.31814 3.95002 0
M  V30 1013 N 103.054 -2.39223 3.96644 0
M  V30 1014 C 103.789 -2.86258 4.96834 0
M  V30 1015 N 103.285 -3.33184 6.07421 0
M  V30 1016 N 105.078 -2.85473 4.84213 0
M  V30 1017 H 97.2286 -0.0885624 2.12215 0
M  V30 1018 H 99.4916 -0.10191 0.942506 0
M  V30 1019 H 99.1976 -0.960811 3.38321 0
M  V30 1020 H 99.0716 -2.5896 2.74262 0
M  V30 1021 H 101.459 -2.35443 1.77906 0
M  V30 1022 H 101.54 -0.720939 2.4543 0
M  V30 1023 H 101.184 -1.69238 4.78875 0
M  V30 1024 H 101.114 -3.32638 4.08239 0
M  V30 1025 H 103.605 -2.06057 3.16779 0
M  V30 1026 H 103.918 -3.67586 6.7978 0
M  V30 1027 H 102.263 -3.31191 6.11013 0
M  V30 1028 H 105.454 -2.48136 3.96921 0
M  V30 1029 H 105.627 -3.21814 5.62441 0
M  V30 1030 N 99.0327 -1.24633 -0.964593 0
M  V30 1031 C 99.9797 -1.04144 -2.05968 0
M  V30 1032 C 100.95 0.046262 -1.66036 0
M  V30 1033 O 102.135 -0.108972 -1.90489 0
M  V30 1034 C 99.2747 -0.65563 -3.38815 0
M  V30 1035 C 98.3877 -1.81714 -3.91923 0
M  V30 1036 C 97.5227 -1.37662 -5.13052 0
M  V30 1037 C 96.5617 -2.50788 -5.58365 0
M  V30 1038 N 95.6987 -2.07582 -6.70712 0
M  V30 1039 H 100.539 -1.9787 -2.22827 0
M  V30 1040 H 98.0757 -0.9855 -1.09208 0
M  V30 1041 H 100.034 -0.412954 -4.15151 0
M  V30 1042 H 98.6637 0.244627 -3.21872 0
M  V30 1043 H 97.7157 -2.1734 -3.12198 0
M  V30 1044 H 99.0277 -2.66705 -4.21509 0
M  V30 1045 H 98.1817 -1.093 -5.96773 0
M  V30 1046 H 96.9207 -0.497293 -4.85158 0
M  V30 1047 H 95.9257 -2.79906 -4.73215 0
M  V30 1048 H 97.1507 -3.39283 -5.88272 0
M  V30 1049 H 95.0967 -1.22051 -6.44546 0
M  V30 1050 H 95.0137 -2.86125 -6.99763 0
M  V30 1051 H 96.2817 -1.82369 -7.57867 0
M  V30 1052 N 100.511 1.16574 -1.06058 0
M  V30 1053 C 101.757 1.87565 -0.78683 0
M  V30 1054 C 102.112 1.80012 0.679214 0
M  V30 1055 O 101.405 1.20327 1.49104 0
M  V30 1056 C 101.599 3.36195 -1.21275 0
M  V30 1057 C 101.428 3.58216 -2.71866 0
M  V30 1058 C 100.198 3.7444 -3.39298 0
M  V30 1059 C 102.396 3.57134 -3.70081 0
M  V30 1060 N 100.378 3.84389 -4.78663 0
M  V30 1061 C 101.749 3.73038 -4.9522 0
M  V30 1062 C 103.804 3.40332 -3.63426 0
M  V30 1063 C 102.507 3.73879 -6.14497 0
M  V30 1064 C 104.533 3.42466 -4.82153 0
M  V30 1065 C 103.895 3.58887 -6.06118 0
M  V30 1066 H 99.9938 0.704081 -0.340284 0
M  V30 1067 H 102.578 1.39885 -1.35426 0
M  V30 1068 H 100.749 3.82522 -0.673179 0
M  V30 1069 H 102.481 3.94839 -0.887917 0
M  V30 1070 H 99.2358 3.74662 -2.89699 0
M  V30 1071 H 99.6598 3.93138 -5.51155 0
M  V30 1072 H 104.302 3.26566 -2.68541 0
M  V30 1073 H 102.02 3.86427 -7.09718 0
M  V30 1074 H 105.606 3.30712 -4.78666 0
M  V30 1075 H 104.486 3.60454 -6.9645 0
M  V30 1076 N 101.989 0.842826 1.3317 0
M  V30 1077 C 102.952 0.284065 2.27433 0
M  V30 1078 C 103.952 -0.54948 1.5112 0
M  V30 1079 O 105.142 -0.362699 1.70382 0
M  V30 1080 C 102.274 -0.599384 3.35589 0
M  V30 1081 H 103.467 1.11589 2.78366 0
M  V30 1082 H 101.02 0.616221 1.4364 0
M  V30 1083 H 101.755 -1.45349 2.89904 0
M  V30 1084 H 101.54 -0.00291266 3.921 0
M  V30 1085 H 103.03 -0.983488 4.05854 0
M  V30 1086 N 103.467 -1.45747 0.599634 0
M  V30 1087 C 104.715 -2.01893 0.0915472 0
M  V30 1088 C 105.036 -1.47155 -1.27946 0
M  V30 1089 O 104.306 -0.66273 -1.84349 0
M  V30 1090 H 102.886 -0.746363 0.0308524 0
M  V30 1091 H 105.548 -1.78645 0.779237 0
M  V30 1092 H 104.644 -3.1208 0.0353086 0
M  V30 1093 N 104.945 -0.338344 -1.53925 0
M  V30 1094 C 105.875 0.51328 -2.27789 0
M  V30 1095 C 106.856 1.107 -1.29149 0
M  V30 1096 O 108.041 1.12937 -1.57984 0
M  V30 1097 C 105.171 1.66697 -3.04679 0
M  V30 1098 C 104.125 1.20183 -4.1078 0
M  V30 1099 C 103.451 2.44363 -4.75595 0
M  V30 1100 C 104.751 0.30605 -5.21403 0
M  V30 1101 H 106.445 -0.102883 -2.99223 0
M  V30 1102 H 103.991 -0.0509219 -1.4391 0
M  V30 1103 H 105.944 2.26915 -3.55088 0
M  V30 1104 H 104.668 2.30995 -2.30887 0
M  V30 1105 H 103.327 0.622499 -3.61276 0
M  V30 1106 H 102.975 3.07057 -3.98403 0
M  V30 1107 H 102.675 2.13925 -5.47275 0
M  V30 1108 H 104.199 3.05317 -5.28786 0
M  V30 1109 H 105.613 0.814929 -5.67478 0
M  V30 1110 H 104.01 0.0937929 -6.00027 0
M  V30 1111 H 105.08 -0.65921 -4.80398 0
M  V30 1112 N 106.423 1.57458 -0.0668435 0
M  V30 1113 C 107.648 1.9804 0.616027 0
M  V30 1114 C 108.073 0.944771 1.62652 0
M  V30 1115 O 107.431 -0.0902094 1.81075 0
M  V30 1116 C 107.479 3.37665 1.26549 0
M  V30 1117 O 106.583 3.36701 2.38131 0
M  V30 1118 H 105.924 0.644719 0.158849 0
M  V30 1119 H 108.454 2.04121 -0.139891 0
M  V30 1120 H 108.464 3.7474 1.6135 0
M  V30 1121 H 107.139 4.12573 0.525016 0
M  V30 1122 H 105.716 3.1139 2.0516 0
M  V30 1123 N 107.901 -0.206675 1.56239 0
M  V30 1124 C 109.15 -0.926964 1.79138 0
M  V30 1125 C 109.463 -1.84901 0.638043 0
M  V30 1126 O 110.669 -2.60906 0.751033 0
M  V30 1127 C 109.125 -1.6986 3.17294 0
M  V30 1128 C 108.733 -0.821956 4.40395 0
M  V30 1129 C 110.477 -2.40922 3.4951 0
M  V30 1130 C 108.384 -1.59179 5.69575 0
M  V30 1131 H 107.314 -0.349864 0.667915 0
M  V30 1132 H 109.965 -0.180487 1.8261 0
M  V30 1133 H 108.347 -2.48853 3.08039 0
M  V30 1134 H 109.521 -0.0715019 4.60745 0
M  V30 1135 H 107.836 -0.222741 4.15804 0
M  V30 1136 H 110.433 -2.99047 4.43255 0
M  V30 1137 H 110.776 -3.14542 2.72707 0
M  V30 1138 H 111.309 -1.68905 3.60161 0
M  V30 1139 H 108.048 -0.898589 6.49312 0
M  V30 1140 H 107.568 -2.31648 5.53262 0
M  V30 1141 H 109.247 -2.14862 6.10281 0
M  V30 1142 N 109.379 -1.50304 -0.473955 0
M  V30 1143 C 110.627 -1.60832 -1.22382 0
M  V30 1144 C 110.948 -0.30939 -1.9253 0
M  V30 1145 O 110.218 0.67296 -1.83978 0
M  V30 1146 H 108.798 -0.592652 -0.454723 0
M  V30 1147 H 111.46 -1.87068 -0.546968 0
M  V30 1148 H 110.556 -2.41803 -1.97327 0
M  V30 1149 N 110.857 0.726932 -1.39834 0
M  V30 1150 C 111.789 1.85147 -1.35104 0
M  V30 1151 C 112.802 1.60736 -0.258392 0
M  V30 1152 O 113.991 1.70821 -0.517931 0
M  V30 1153 C 111.091 3.21332 -1.07697 0
M  V30 1154 C 110.264 3.73033 -2.28396 0
M  V30 1155 C 109.323 4.87802 -1.97322 0
M  V30 1156 O 108.349 5.01043 -2.70083 0
M  V30 1157 N 109.551 5.72768 -0.944273 0
M  V30 1158 H 112.316 1.89706 -2.32017 0
M  V30 1159 H 109.877 0.908006 -1.3404 0
M  V30 1160 H 111.869 3.95691 -0.849144 0
M  V30 1161 H 110.439 3.11992 -0.194909 0
M  V30 1162 H 109.659 2.89934 -2.6708 0
M  V30 1163 H 110.947 4.0431 -3.08887 0
M  V30 1164 H 110.345 5.64669 -0.341427 0
M  V30 1165 H 108.902 6.4716 -0.776346 0
M  V30 1166 N 112.336 1.25143 0.95797 0
M  V30 1167 C 113.246 1.06968 2.08794 0
M  V30 1168 C 114.262 0.00773911 1.73998 0
M  V30 1169 O 115.438 0.207972 2.00323 0
M  V30 1170 C 112.503 0.68691 3.39827 0
M  V30 1171 C 111.564 1.82641 3.88511 0
M  V30 1172 C 110.797 1.46181 5.1329 0
M  V30 1173 O 111.02 0.355971 5.69288 0
M  V30 1174 O 109.954 2.29085 5.566 0
M  V30 1175 H 113.78 2.01723 2.27027 0
M  V30 1176 H 111.365 1.04051 1.07209 0
M  V30 1177 H 113.247 0.485417 4.18595 0
M  V30 1178 H 111.922 -0.231417 3.22872 0
M  V30 1179 H 110.829 2.08274 3.10762 0
M  V30 1180 H 112.162 2.72386 4.09959 0
M  V30 1181 N 113.814 -1.1601 1.06675 0
M  V30 1182 C 115.063 -1.85973 0.780818 0
M  V30 1183 C 115.376 -1.82819 -0.695444 0
M  V30 1184 O 116.582 -2.484 -1.09589 0
M  V30 1185 C 115.038 -3.33757 1.34665 0
M  V30 1186 C 114.646 -3.45374 2.85343 0
M  V30 1187 C 116.39 -4.0895 1.13843 0
M  V30 1188 C 114.297 -4.87266 3.35151 0
M  V30 1189 H 113.227 -0.696661 0.288407 0
M  V30 1190 H 115.878 -1.30903 1.28595 0
M  V30 1191 H 114.26 -3.88456 0.769274 0
M  V30 1192 H 115.434 -3.00816 3.49065 0
M  V30 1193 H 113.749 -2.83619 3.04876 0
M  V30 1194 H 116.346 -5.13654 1.4854 0
M  V30 1195 H 116.689 -4.16229 0.0770282 0
M  V30 1196 H 117.222 -3.605 1.68179 0
M  V30 1197 H 113.961 -4.85168 4.40786 0
M  V30 1198 H 113.481 -5.32433 2.76179 0
M  V30 1199 H 115.16 -5.56097 3.30704 0
M  V30 1200 N 115.292 -0.849877 -1.32721 0
M  V30 1201 C 116.202 -0.293791 -2.32753 0
M  V30 1202 C 117.218 0.585906 -1.63839 0
M  V30 1203 O 118.394 0.487413 -1.95413 0
M  V30 1204 C 115.459 0.512752 -3.42887 0
M  V30 1205 C 114.52 -0.39252 -4.27502 0
M  V30 1206 C 113.753 0.375625 -5.32377 0
M  V30 1207 O 113.976 1.60613 -5.4732 0
M  V30 1208 O 112.91 -0.256094 -6.01355 0
M  V30 1209 H 116.736 -1.12242 -2.82197 0
M  V30 1210 H 114.321 -0.612685 -1.36259 0
M  V30 1211 H 116.203 0.970704 -4.10067 0
M  V30 1212 H 114.878 1.31826 -2.95641 0
M  V30 1213 H 113.785 -0.898547 -3.63149 0
M  V30 1214 H 115.118 -1.16309 -4.7826 0
M  V30 1215 N 116.77 1.45427 -0.607355 0
M  V30 1216 C 118.016 2.0254 -0.102607 0
M  V30 1217 C 118.349 1.47478 1.26348 0
M  V30 1218 O 117.624 0.64939 1.83339 0
M  V30 1219 C 117.907 3.60044 -0.0634347 0
M  V30 1220 C 117.76 4.2544 -1.46017 0
M  V30 1221 C 119.079 4.35646 0.624514 0
M  V30 1222 H 116.198 0.73598 -0.0387607 0
M  V30 1223 H 118.84 1.73284 -0.779282 0
M  V30 1224 H 116.99 3.85101 0.512808 0
M  V30 1225 H 118.662 4.11569 -2.08347 0
M  V30 1226 H 116.905 3.83849 -2.02094 0
M  V30 1227 H 117.576 5.34342 -1.385 0
M  V30 1228 H 120.052 4.15882 0.134723 0
M  V30 1229 H 118.928 5.45376 0.621028 0
M  V30 1230 H 119.189 4.08501 1.69055 0
M  V30 1231 N 118.248 0.346503 1.53744 0
M  V30 1232 C 119.473 -0.253074 2.0585 0
M  V30 1233 C 119.898 -1.43202 1.21962 0
M  V30 1234 O 119.256 -1.79783 0.234073 0
M  V30 1235 C 119.304 -0.643193 3.54817 0
M  V30 1236 O 118.408 -1.74286 3.73762 0
M  V30 1237 H 117.749 -0.0413583 0.662711 0
M  V30 1238 H 120.279 0.501574 1.98357 0
M  V30 1239 H 120.289 -0.919526 3.97503 0
M  V30 1240 H 118.964 0.218966 4.15323 0
M  V30 1241 H 117.541 -1.46356 3.42979 0
M  V30 1242 N 119.726 -1.57421 0.075193 0
M  V30 1243 C 120.656 -2.15942 -0.888324 0
M  V30 1244 C 121.637 -1.08737 -1.30806 0
M  V30 1245 O 122.822 -1.36787 -1.37851 0
M  V30 1246 C 119.952 -2.72379 -2.1547 0
M  V30 1247 C 118.906 -3.8478 -1.87425 0
M  V30 1248 C 118.232 -4.27834 -3.20721 0
M  V30 1249 C 119.532 -5.08869 -1.17684 0
M  V30 1250 H 121.226 -2.96705 -0.400799 0
M  V30 1251 H 118.772 -1.42723 -0.191342 0
M  V30 1252 H 120.725 -3.11965 -2.83295 0
M  V30 1253 H 119.449 -1.88841 -2.6647 0
M  V30 1254 H 118.108 -3.45703 -1.22004 0
M  V30 1255 H 117.756 -3.41214 -3.6957 0
M  V30 1256 H 117.456 -5.03605 -3.02746 0
M  V30 1257 H 118.98 -4.70039 -3.89738 0
M  V30 1258 H 120.394 -5.4575 -1.75584 0
M  V30 1259 H 118.791 -5.8994 -1.09956 0
M  V30 1260 H 119.861 -4.84648 -0.156453 0
M  V30 1261 N 121.204 0.198386 -1.56346 0
M  V30 1262 C 122.434 0.934215 -1.84271 0
M  V30 1263 C 122.842 1.77496 -0.655125 0
M  V30 1264 O 122.185 1.7961 0.385488 0
M  V30 1265 C 122.247 1.88278 -3.06254 0
M  V30 1266 C 121.911 1.22431 -4.40295 0
M  V30 1267 C 122.908 0.602839 -5.16393 0
M  V30 1268 C 120.593 1.22915 -4.87029 0
M  V30 1269 C 122.587 -0.0050083 -6.374 0
M  V30 1270 C 120.274 0.617465 -6.07973 0
M  V30 1271 C 121.272 0.00146341 -6.83 0
M  V30 1272 O 120.96 -0.600642 -8.01653 0
M  V30 1273 H 120.692 0.278245 -0.616081 0
M  V30 1274 H 123.246 0.211626 -2.04307 0
M  V30 1275 H 121.476 2.64498 -2.82095 0
M  V30 1276 H 123.165 2.48612 -3.20853 0
M  V30 1277 H 123.931 0.591265 -4.81382 0
M  V30 1278 H 119.81 1.69801 -4.28589 0
M  V30 1279 H 123.354 -0.48643 -6.95902 0
M  V30 1280 H 119.251 0.62653 -6.42452 0
M  V30 1281 H 120.019 -0.497225 -8.16988 0
M  V30 1282 N 122.682 1.50554 0.465978 0
M  V30 1283 C 123.91 1.65563 1.24083 0
M  V30 1284 C 124.325 0.341051 1.85694 0
M  V30 1285 O 123.682 -0.677543 1.69457 0
M  V30 1286 C 123.733 2.75051 2.34583 0
M  V30 1287 O 123.454 4.01413 1.75497 0
M  V30 1288 C 124.955 3.01078 3.25372 0
M  V30 1289 H 122.175 0.55638 0.375077 0
M  V30 1290 H 124.719 1.96807 0.555624 0
M  V30 1291 H 122.874 2.46486 2.9887 0
M  V30 1292 H 123.288 4.62002 2.48303 0
M  V30 1293 H 124.762 3.81339 3.99105 0
M  V30 1294 H 125.239 2.12349 3.84453 0
M  V30 1295 H 125.845 3.31194 2.66816 0
M  V30 1296 N 124.16 -0.719506 1.40217 0
M  V30 1297 C 125.407 -1.47933 1.38283 0
M  V30 1298 C 125.735 -1.94493 -0.0161536 0
M  V30 1299 O 124.99 -1.68224 -0.999956 0
M  V30 1300 C 125.289 -2.72271 2.31524 0
M  V30 1301 C 124.955 -2.44496 3.78857 0
M  V30 1302 C 123.617 -2.36631 4.18998 0
M  V30 1303 C 125.969 -2.21104 4.71977 0
M  V30 1304 C 123.297 -2.03437 5.503 0
M  V30 1305 C 125.649 -1.89423 6.03574 0
M  V30 1306 C 124.313 -1.80038 6.42762 0
M  V30 1307 H 123.583 -0.541325 0.506012 0
M  V30 1308 H 126.23 -0.824502 1.72842 0
M  V30 1309 H 124.535 -3.42572 1.90137 0
M  V30 1310 H 126.232 -3.30348 2.27313 0
M  V30 1311 H 122.822 -2.51503 3.47051 0
M  V30 1312 H 127.006 -2.26139 4.41786 0
M  V30 1313 H 122.262 -1.94705 5.79569 0
M  V30 1314 H 126.436 -1.70336 6.75247 0
M  V30 1315 H 124.063 -1.54083 7.44421 0
M  V30 1316 N 125.638 -1.25649 -0.95132 0
M  V30 1317 C 126.915 -1.01361 -1.67288 0
M  V30 1318 C 127.295 0.459135 -2.06046 0
M  V30 1319 O 126.643 1.43723 -1.7764 0
M  V30 1320 C 126.853 -1.95256 -2.89268 0
M  V30 1321 C 128.201 -2.23289 -3.61147 0
M  V30 1322 O 129.225 -1.93041 -2.99355 0
M  V30 1323 O 128.084 -2.74741 -4.72419 0
M  V30 1324 H 125.178 -0.38464 -0.732107 0
M  V30 1325 H 127.724 -1.36817 -1.00395 0
M  V30 1326 H 126.496 -2.94685 -2.57442 0
M  V30 1327 H 126.119 -1.60218 -3.6389 0
M  V30 1328 N 127.117 1.15442 -1.07289 0
M  V30 1329 C 128.064 2.20161 -0.692653 0
M  V30 1330 C 129.034 1.63073 0.31564 0
M  V30 1331 O 130.219 1.89725 0.202235 0
M  V30 1332 C 127.359 3.44967 -0.0959509 0
M  V30 1333 C 126.472 4.16256 -1.15564 0
M  V30 1334 C 125.607 5.28609 -0.524011 0
M  V30 1335 C 124.646 5.91715 -1.56653 0
M  V30 1336 N 123.783 6.9554 -0.957531 0
M  V30 1337 H 128.623 2.52037 -1.59002 0
M  V30 1338 H 126.16 1.2378 -0.794798 0
M  V30 1339 H 128.118 4.16341 0.267628 0
M  V30 1340 H 126.748 3.1361 0.764772 0
M  V30 1341 H 125.8 3.43385 -1.6368 0
M  V30 1342 H 127.112 4.59268 -1.94613 0
M  V30 1343 H 126.266 6.06604 -0.108032 0
M  V30 1344 H 125.005 4.86787 0.29825 0
M  V30 1345 H 124.01 5.12433 -1.9923 0
M  V30 1346 H 125.235 6.35614 -2.39107 0
M  V30 1347 H 123.181 6.55814 -0.156162 0
M  V30 1348 H 123.098 7.36977 -1.68526 0
M  V30 1349 H 124.366 7.77435 -0.567032 0
M  V30 1350 N 128.595 0.856903 1.32268 0
M  V30 1351 C 129.558 0.308171 2.27119 0
M  V30 1352 C 130.558 -0.533421 1.51695 0
M  V30 1353 O 131.748 -0.344607 1.70757 0
M  V30 1354 C 128.88 -0.563757 3.36206 0
M  V30 1355 H 130.073 1.14535 2.77167 0
M  V30 1356 H 127.626 0.631421 1.42978 0
M  V30 1357 H 128.361 -1.42266 2.91429 0
M  V30 1358 H 128.146 0.0386749 3.92081 0
M  V30 1359 H 129.636 -0.940386 4.06874 0
M  V30 1360 N 130.073 -1.45103 0.615059 0
M  V30 1361 C 131.02 -2.30586 -0.0993978 0
M  V30 1362 C 131.99 -1.42544 -0.852669 0
M  V30 1363 O 133.175 -1.71465 -0.836917 0
M  V30 1364 C 130.315 -3.27572 -1.08583 0
M  V30 1365 C 129.428 -4.30717 -0.332656 0
M  V30 1366 C 128.563 -5.14807 -1.30947 0
M  V30 1367 C 127.602 -6.09673 -0.544538 0
M  V30 1368 N 126.739 -6.86517 -1.47101 0
M  V30 1369 H 131.579 -2.91144 0.635542 0
M  V30 1370 H 129.116 -1.4346 0.325206 0
M  V30 1371 H 131.074 -3.82276 -1.67095 0
M  V30 1372 H 129.704 -2.68751 -1.78809 0
M  V30 1373 H 128.756 -3.78615 0.368107 0
M  V30 1374 H 130.068 -4.98102 0.263842 0
M  V30 1375 H 129.222 -5.73948 -1.96643 0
M  V30 1376 H 127.961 -4.47458 -1.9399 0
M  V30 1377 H 126.966 -5.49656 0.126003 0
M  V30 1378 H 128.191 -6.79052 0.080947 0
M  V30 1379 H 126.137 -6.21851 -2.08895 0
M  V30 1380 H 126.054 -7.50281 -0.928137 0
M  V30 1381 H 127.322 -7.50194 -2.11731 0
M  V30 1382 N 131.551 -0.354651 -1.53558 0
M  V30 1383 C 132.483 0.5315 -2.22952 0
M  V30 1384 C 133.496 1.05503 -1.23988 0
M  V30 1385 O 134.685 0.963279 -1.50277 0
M  V30 1386 C 131.785 1.74538 -2.90499 0
M  V30 1387 C 130.958 1.35524 -4.15875 0
M  V30 1388 C 130.017 2.42999 -4.66731 0
M  V30 1389 O 129.043 2.05844 -5.30676 0
M  V30 1390 N 130.245 3.74423 -4.43608 0
M  V30 1391 H 133.01 -0.0628615 -2.99634 0
M  V30 1392 H 130.571 -0.179302 -1.60904 0
M  V30 1393 H 132.563 2.45892 -3.21433 0
M  V30 1394 H 131.133 2.24686 -2.17336 0
M  V30 1395 H 130.353 0.471998 -3.91364 0
M  V30 1396 H 131.641 1.07071 -4.97406 0
M  V30 1397 H 131.039 4.07391 -3.92491 0
M  V30 1398 H 129.596 4.41913 -4.7912 0
M  V30 1399 N 133.029 1.57378 -0.0835403 0
M  V30 1400 C 134.269 1.95808 0.586381 0
M  V30 1401 C 134.633 0.963706 1.66062 0
M  V30 1402 O 135.834 1.23608 2.38693 0
M  V30 1403 C 134.105 3.38808 1.13771 0
M  V30 1404 S 135.664 3.99225 1.82112 0
M  V30 1405 H 132.482 0.684675 0.191679 0
M  V30 1406 H 135.084 1.94843 -0.160194 0
M  V30 1407 H 133.788 4.08954 0.344197 0
M  V30 1408 H 133.319 3.43344 1.92038 0
M  V30 1409 H 135.334 3.87087 3.10449 0
M  V30 1410 N 134.507 -0.190092 1.56449 0
M  V30 1411 C 135.756 -0.907912 1.80111 0
M  V30 1412 C 136.069 -1.84214 0.657619 0
M  V30 1413 O 137.275 -2.60094 0.778663 0
M  V30 1414 C 135.731 -1.66485 3.19078 0
M  V30 1415 C 135.339 -0.7752 4.41242 0
M  V30 1416 C 137.083 -2.37201 3.52045 0
M  V30 1417 C 134.99 -1.53129 5.71231 0
M  V30 1418 H 133.92 -0.34276 0.671589 0
M  V30 1419 H 136.571 -0.161109 1.82791 0
M  V30 1420 H 134.953 -2.45572 3.10661 0
M  V30 1421 H 136.127 -0.0226298 4.60794 0
M  V30 1422 H 134.442 -0.178627 4.16017 0
M  V30 1423 H 137.039 -2.94329 4.46402 0
M  V30 1424 H 137.382 -3.11632 2.76028 0
M  V30 1425 H 137.915 -1.65075 3.61932 0
M  V30 1426 H 134.654 -0.82967 6.50228 0
M  V30 1427 H 134.174 -2.25767 5.55688 0
M  V30 1428 H 135.853 -2.08377 6.12526 0
M  V30 1429 N 135.985 -1.50799 -0.457987 0
M  V30 1430 C 137.233 -1.62121 -1.2067 0
M  V30 1431 C 137.554 -0.329793 -1.92191 0
M  V30 1432 O 136.824 0.653409 -1.84682 0
M  V30 1433 H 135.404 -0.597441 -0.448411 0
M  V30 1434 H 138.066 -1.87637 -0.527096 0
M  V30 1435 H 137.162 -2.43882 -1.94751 0
M  V30 1436 N 137.463 0.71206 -1.40597 0
M  V30 1437 C 138.691 1.50111 -1.42388 0
M  V30 1438 C 139.106 1.88784 -0.0245395 0
M  V30 1439 O 138.463 1.55681 0.952351 0
M  V30 1440 C 138.514 2.7742 -2.31776 0
M  V30 1441 O 138.235 2.40382 -3.66262 0
M  V30 1442 C 139.736 3.7129 -2.42196 0
M  V30 1443 H 136.956 0.46314 -0.485533 0
M  V30 1444 H 139.5 0.878068 -1.8469 0
M  V30 1445 H 137.655 3.36001 -1.92827 0
M  V30 1446 H 138.069 3.22324 -4.13772 0
M  V30 1447 H 139.543 4.57448 -3.08943 0
M  V30 1448 H 140.02 4.14641 -1.44809 0
M  V30 1449 H 140.626 3.18619 -2.81712 0
M  V30 1450 N 138.941 1.26152 0.944643 0
M  V30 1451 C 139.874 1.01729 2.04271 0
M  V30 1452 C 140.852 -0.0568101 1.62501 0
M  V30 1453 O 142.036 0.0848987 1.88309 0
M  V30 1454 C 139.163 0.539792 3.34371 0
M  V30 1455 C 138.209 1.60593 3.9511 0
M  V30 1456 S 139.042 3.19392 4.29825 0
M  V30 1457 C 140.198 2.73402 5.63029 0
M  V30 1458 H 140.431 1.94703 2.24673 0
M  V30 1459 H 137.964 1.09793 1.08558 0
M  V30 1460 H 139.922 0.270956 4.09605 0
M  V30 1461 H 138.583 -0.369609 3.11918 0
M  V30 1462 H 137.776 1.22275 4.88943 0
M  V30 1463 H 137.378 1.82596 3.26397 0
M  V30 1464 H 139.67 2.1765 6.41588 0
M  V30 1465 H 140.613 3.65913 6.06229 0
M  V30 1466 H 141.021 2.13077 5.22741 0
M  V30 1467 N 140.419 -1.14872 1.07899 0
M  V30 1468 C 141.647 -1.89661 0.82683 0
M  V30 1469 C 142.062 -1.78312 -0.620519 0
M  V30 1470 O 141.419 -1.13888 -1.42604 0
M  V30 1471 C 141.47 -3.39817 1.23316 0
M  V30 1472 O 141.191 -3.50845 2.62372 0
M  V30 1473 C 142.692 -4.31615 1.0111 0
M  V30 1474 H 139.912 -0.60092 0.298557 0
M  V30 1475 H 142.456 -1.4551 1.43691 0
M  V30 1476 H 140.611 -3.8161 0.667286 0
M  V30 1477 H 141.025 -4.44076 2.79101 0
M  V30 1478 H 142.499 -5.35367 1.34486 0
M  V30 1479 H 142.976 -4.39169 -0.0522168 0
M  V30 1480 H 143.582 -3.95572 1.56215 0
M  V30 1481 N 141.898 -0.863906 -1.31812 0
M  V30 1482 C 143.147 -0.46801 -1.96195 0
M  V30 1483 C 143.46 0.983474 -1.69077 0
M  V30 1484 O 144.666 1.48523 -2.27273 0
M  V30 1485 C 143.122 -0.785995 -3.51212 0
M  V30 1486 C 142.73 -2.25383 -3.87178 0
M  V30 1487 C 144.474 -0.458274 -4.22019 0
M  V30 1488 C 142.381 -2.51455 -5.3528 0
M  V30 1489 H 141.311 -0.171283 -0.734287 0
M  V30 1490 H 143.962 -1.05597 -1.50072 0
M  V30 1491 H 142.344 -0.127359 -3.95795 0
M  V30 1492 H 143.518 -2.95502 -3.53575 0
M  V30 1493 H 141.833 -2.54698 -3.2942 0
M  V30 1494 H 144.43 -0.630369 -5.30971 0
M  V30 1495 H 144.773 0.600834 -4.11941 0
M  V30 1496 H 145.306 -1.07319 -3.8305 0
M  V30 1497 H 142.045 -3.56025 -5.50387 0
M  V30 1498 H 141.565 -1.85923 -5.70257 0
M  V30 1499 H 143.244 -2.35874 -6.02472 0
M  V30 1500 N 143.376 1.44774 -0.622745 0
M  V30 1501 C 144.286 2.34433 0.0886031 0
M  V30 1502 C 145.302 1.52131 0.844529 0
M  V30 1503 O 146.478 1.84886 0.798691 0
M  V30 1504 C 143.543 3.29986 1.0635 0
M  V30 1505 C 142.604 4.28195 0.307873 0
M  V30 1506 C 141.837 5.19183 1.23633 0
M  V30 1507 O 142.06 5.13918 2.47476 0
M  V30 1508 O 140.994 5.97515 0.725189 0
M  V30 1509 H 144.82 2.96693 -0.648599 0
M  V30 1510 H 142.405 1.44408 -0.382957 0
M  V30 1511 H 144.287 3.88825 1.6246 0
M  V30 1512 H 142.962 2.70269 1.78146 0
M  V30 1513 H 141.869 3.72927 -0.296064 0
M  V30 1514 H 143.202 4.90808 -0.3699 0
M  V30 1515 N 144.854 0.36279 1.53368 0
M  V30 1516 C 146.103 -0.22888 2.00397 0
M  V30 1517 C 146.416 -1.50096 1.25421 0
M  V30 1518 O 147.622 -2.17106 1.63025 0
M  V30 1519 C 146.078 -0.458417 3.56969 0
M  V30 1520 C 145.686 0.798877 4.4082 0
M  V30 1521 C 147.43 -1.00789 4.12361 0
M  V30 1522 C 145.337 0.539078 5.88938 0
M  V30 1523 H 144.267 -0.089305 0.748693 0
M  V30 1524 H 146.918 0.481099 1.77081 0
M  V30 1525 H 145.3 -1.22959 3.76427 0
M  V30 1526 H 146.474 1.57262 4.33134 0
M  V30 1527 H 144.789 1.27137 3.96516 0
M  V30 1528 H 147.386 -1.21754 5.20653 0
M  V30 1529 H 147.729 -1.9692 3.66781 0
M  V30 1530 H 148.262 -0.296961 3.9669 0
M  V30 1531 H 145.001 1.47064 6.3879 0
M  V30 1532 H 144.521 -0.196222 5.99479 0
M  V30 1533 H 146.2 0.163542 6.46793 0
M  V30 1534 N 146.332 -1.57332 0.0918853 0
M  V30 1535 C 147.609 -1.85691 -0.614668 0
M  V30 1536 C 147.989 -0.988146 -1.86545 0
M  V30 1537 O 147.337 -0.0597055 -2.28422 0
M  V30 1538 C 147.547 -3.36294 -0.933126 0
M  V30 1539 C 148.895 -4.04275 -1.29796 0
M  V30 1540 O 149.919 -3.41157 -1.02424 0
M  V30 1541 O 148.778 -5.1564 -1.81047 0
M  V30 1542 H 145.872 -0.767802 -0.307261 0
M  V30 1543 H 148.418 -1.69244 0.12434 0
M  V30 1544 H 147.19 -3.91273 -0.0456404 0
M  V30 1545 H 146.813 -3.58076 -1.72822 0
M  V30 1546 N 147.81 0.181792 -1.56548 0
M  V30 1547 C 149.057 0.900097 -1.81396 0
M  V30 1548 C 149.385 1.82695 -0.667281 0
M  V30 1549 O 148.64 1.92614 0.346146 0
M  V30 1550 C 148.939 1.73728 -3.12335 0
M  V30 1551 C 148.605 0.960255 -4.40556 0
M  V30 1552 C 147.267 0.745766 -4.75386 0
M  V30 1553 C 149.619 0.414477 -5.19549 0
M  V30 1554 C 146.947 -0.0257694 -5.86694 0
M  V30 1555 C 149.299 -0.343916 -6.31664 0
M  V30 1556 C 147.963 -0.569301 -6.65068 0
M  V30 1557 H 147.233 0.329369 -0.663775 0
M  V30 1558 H 149.88 0.165647 -1.90782 0
M  V30 1559 H 148.185 2.54081 -2.98245 0
M  V30 1560 H 149.882 2.29591 -3.28769 0
M  V30 1561 H 146.472 1.13746 -4.13231 0
M  V30 1562 H 150.656 0.567554 -4.93044 0
M  V30 1563 H 145.912 -0.210233 -6.11038 0
M  V30 1564 H 150.086 -0.774133 -6.92084 0
M  V30 1565 H 147.713 -1.16903 -7.51158 0
M  V30 1566 N 149.288 1.51039 0.449983 0
M  V30 1567 C 150.218 1.74379 1.55288 0
M  V30 1568 C 151.199 0.593236 1.5942 0
M  V30 1569 O 152.384 0.834625 1.7535 0
M  V30 1570 C 149.514 1.85728 2.93466 0
M  V30 1571 C 148.468 3.01078 3.04197 0
M  V30 1572 C 147.794 2.97595 4.44231 0
M  V30 1573 C 149.094 4.41254 2.7945 0
M  V30 1574 H 150.788 2.66725 1.36008 0
M  V30 1575 H 148.334 1.2835 0.652864 0
M  V30 1576 H 150.287 2.0064 3.70569 0
M  V30 1577 H 149.011 0.900207 3.13949 0
M  V30 1578 H 147.67 2.85851 2.29531 0
M  V30 1579 H 147.318 1.99691 4.61663 0
M  V30 1580 H 147.018 3.75046 4.52343 0
M  V30 1581 H 148.542 3.14583 5.23326 0
M  V30 1582 H 149.956 4.56897 3.46292 0
M  V30 1583 H 148.353 5.20315 2.98985 0
M  V30 1584 H 149.423 4.52164 1.75144 0
M  V30 1585 N 150.766 -0.704594 1.40972 0
M  V30 1586 C 151.698 -1.82974 1.38033 0
M  V30 1587 C 152.711 -1.60305 0.283931 0
M  V30 1588 O 153.9 -1.69975 0.545042 0
M  V30 1589 C 151 -3.19578 1.12795 0
M  V30 1590 C 150.173 -3.69352 2.34302 0
M  V30 1591 C 149.232 -4.84601 2.05058 0
M  V30 1592 O 148.258 -4.96682 2.7802 0
M  V30 1593 N 149.46 -5.71194 1.03528 0
M  V30 1594 H 152.225 -1.85991 2.35005 0
M  V30 1595 H 149.786 -0.886567 1.35468 0
M  V30 1596 H 151.778 -3.9429 0.911987 0
M  V30 1597 H 150.348 -3.11642 0.24452 0
M  V30 1598 H 149.568 -2.85649 2.71659 0
M  V30 1599 H 150.856 -3.99345 3.1528 0
M  V30 1600 H 150.254 -5.64054 0.431217 0
M  V30 1601 H 148.811 -6.45843 0.879205 0
M  V30 1602 N 152.244 -1.26651 -0.937939 0
M  V30 1603 C 153.191 -1.0849 -2.03712 0
M  V30 1604 C 154.161 0.011033 -1.66096 0
M  V30 1605 O 155.346 -0.149353 -1.90215 0
M  V30 1606 C 152.486 -0.72735 -3.37348 0
M  V30 1607 C 151.599 -1.89986 -3.87981 0
M  V30 1608 C 150.734 -1.48513 -5.10017 0
M  V30 1609 C 149.773 -2.62575 -5.5292 0
M  V30 1610 N 148.91 -2.21762 -6.66158 0
M  V30 1611 H 153.75 -2.02551 -2.18579 0
M  V30 1612 H 151.287 -1.00844 -1.07093 0
M  V30 1613 H 153.245 -0.50092 -4.14182 0
M  V30 1614 H 151.875 0.176298 -3.22318 0
M  V30 1615 H 150.927 -2.23913 -3.07518 0
M  V30 1616 H 152.239 -2.75586 -4.15757 0
M  V30 1617 H 151.393 -1.21934 -5.94321 0
M  V30 1618 H 150.132 -0.60009 -4.83994 0
M  V30 1619 H 149.137 -2.8988 -4.67172 0
M  V30 1620 H 150.362 -3.51685 -5.80943 0
M  V30 1621 H 148.308 -1.35696 -6.41812 0
M  V30 1622 H 148.225 -3.00903 -6.93537 0
M  V30 1623 H 149.493 -1.98403 -7.53828 0
M  V30 1624 N 153.722 1.14298 -1.08507 0
M  V30 1625 C 154.669 2.19414 -0.715965 0
M  V30 1626 C 155.639 1.63399 0.298326 0
M  V30 1627 O 156.824 1.89929 0.182101 0
M  V30 1628 C 153.964 3.44845 -0.132534 0
M  V30 1629 C 153.077 4.15007 -1.19973 0
M  V30 1630 C 152.212 5.28024 -0.580048 0
M  V30 1631 C 151.251 5.9002 -1.62921 0
M  V30 1632 N 150.388 6.94485 -1.03125 0
M  V30 1633 H 155.228 2.50336 -1.61666 0
M  V30 1634 H 152.765 1.2293 -0.807882 0
M  V30 1635 H 154.723 4.16601 0.223454 0
M  V30 1636 H 153.353 3.14403 0.731467 0
M  V30 1637 H 152.405 3.41629 -1.67313 0
M  V30 1638 H 153.717 4.57178 -1.99473 0
M  V30 1639 H 152.871 6.06455 -0.172364 0
M  V30 1640 H 151.61 4.87076 0.246603 0
M  V30 1641 H 150.615 5.10291 -2.04654 0
M  V30 1642 H 151.84 6.33042 -2.45835 0
M  V30 1643 H 149.786 6.55612 -0.225711 0
M  V30 1644 H 149.703 7.35148 -1.76334 0
M  V30 1645 H 150.971 7.7679 -0.649458 0
M  V30 1646 N 155.201 0.870884 1.31352 0
M  V30 1647 C 156.426 0.495957 2.01383 0
M  V30 1648 C 156.851 -0.904324 1.64935 0
M  V30 1649 O 156.209 -1.59687 0.858466 0
M  V30 1650 C 156.257 0.661433 3.54482 0
M  V30 1651 O 155.361 -0.298851 4.11316 0
M  V30 1652 H 154.702 0.197158 0.634054 0
M  V30 1653 H 157.232 1.17455 1.67527 0
M  V30 1654 H 157.242 0.555072 4.04207 0
M  V30 1655 H 155.917 1.68246 3.8035 0
M  V30 1656 H 154.494 -0.147368 3.72609 0
M  V30 1657 N 156.679 -1.44442 0.630414 0
M  V30 1658 C 157.928 -2.01267 0.132073 0
M  V30 1659 C 158.241 -1.50172 -1.25331 0
M  V30 1660 O 159.447 -1.9912 -1.84562 0
M  V30 1661 C 157.903 -3.59422 0.185362 0
M  V30 1662 C 157.511 -4.19514 1.57201 0
M  V30 1663 C 159.255 -4.23724 -0.256553 0
M  V30 1664 C 157.162 -5.69891 1.58045 0
M  V30 1665 H 156.092 -0.752619 0.0456092 0
M  V30 1666 H 158.743 -1.65666 0.789106 0
M  V30 1667 H 157.125 -3.92318 -0.538759 0
M  V30 1668 H 158.299 -3.98156 2.31966 0
M  V30 1669 H 156.614 -3.67496 1.95795 0
M  V30 1670 H 159.211 -5.34019 -0.269767 0
M  V30 1671 H 159.554 -3.96013 -1.28372 0
M  V30 1672 H 160.087 -3.95629 0.41505 0
M  V30 1673 H 156.826 -6.02336 2.58597 0
M  V30 1674 H 156.346 -5.93373 0.875725 0
M  V30 1675 H 158.025 -6.33515 1.31408 0
M  V30 1676 N 158.157 -0.370918 -1.53173 0
M  V30 1677 C 159.434 0.273754 -1.93675 0
M  V30 1678 C 159.814 1.65938 -1.3049 0
M  V30 1679 O 159.162 2.23698 -0.465999 0
M  V30 1680 C 159.372 0.318602 -3.47543 0
M  V30 1681 C 160.72 0.556392 -4.20939 0
M  V30 1682 O 161.744 0.399587 -3.53952 0
M  V30 1683 O 160.603 0.862133 -5.39657 0
M  V30 1684 H 157.697 0.165448 -0.810281 0
M  V30 1685 H 160.243 -0.42409 -1.64315 0
M  V30 1686 H 159.015 -0.652687 -3.85818 0
M  V30 1687 H 158.638 1.06212 -3.83151 0
M  V30 1688 N 159.635 1.57281 -0.100228 0
M  V30 1689 C 160.86 1.99302 0.573881 0
M  V30 1690 C 161.285 0.979059 1.60611 0
M  V30 1691 O 160.643 -0.0517803 1.81226 0
M  V30 1692 C 160.691 3.40274 1.19358 0
M  V30 1693 O 159.795 3.41676 2.30935 0
M  V30 1694 H 159.136 0.647944 0.145138 0
M  V30 1695 H 161.666 2.03779 -0.183156 0
M  V30 1696 H 161.676 3.78078 1.53365 0
M  V30 1697 H 160.351 4.13594 0.437385 0
M  V30 1698 H 158.928 3.15672 1.98509 0
M  V30 1699 N 161.113 -0.173488 1.56642 0
M  V30 1700 C 162.061 -1.23417 1.97157 0
M  V30 1701 C 163.055 -1.45946 0.860013 0
M  V30 1702 O 164.261 -1.46551 1.04512 0
M  V30 1703 H 160.636 -0.414818 0.62724 0
M  V30 1704 H 162.607 -0.865582 2.8557 0
M  V30 1705 C 161.356 -2.5665 2.34576 0
M  V30 1706 H 160.679 -2.40137 3.19647 0
M  V30 1707 H 162.119 -3.2956 2.6677 0
M  V30 1708 C 160.578 -3.15245 1.18836 0
M  V30 1709 O 161.108 -3.98883 0.474869 0
M  V30 1710 N 159.314 -2.74303 0.959497 0
M  V30 1711 H 158.861 -2.0639 1.54146 0
M  V30 1712 H 158.819 -3.13844 0.186932 0
M  V30 1713 N 162.591 -1.51276 -0.441967 0
M  V30 1714 C 164.002 -1.56244 -1.02199 0
M  V30 1715 C 164.353 -0.383149 -1.92422 0
M  V30 1716 O 163.478 0.500613 -2.1053 0
M  V30 1717 C 164.073 -2.83162 -1.86024 0
M  V30 1718 C 162.632 -2.90716 -2.39084 0
M  V30 1719 C 161.779 -2.50858 -1.18175 0
M  V30 1720 H 164.73 -1.5712 -0.223416 0
M  V30 1721 H 164.751 -2.66663 -2.71425 0
M  V30 1722 H 164.263 -3.68974 -1.20331 0
M  V30 1723 H 162.364 -2.09323 -3.08244 0
M  V30 1724 H 162.477 -3.94266 -2.72198 0
M  V30 1725 H 160.841 -2.03951 -1.52565 0
M  V30 1726 H 161.624 -3.3901 -0.541001 0
M  V30 1727 N 164.069 0.697108 -1.41344 0
M  V30 1728 C 165.299 1.48377 -1.43763 0
M  V30 1729 C 165.707 1.89156 -0.0408726 0
M  V30 1730 O 165.05 1.57239 0.949812 0
M  V30 1731 C 165.112 2.7781 -2.2817 0
M  V30 1732 C 164.776 2.59244 -3.76353 0
M  V30 1733 C 165.773 2.25292 -4.68551 0
M  V30 1734 C 163.458 2.74933 -4.20378 0
M  V30 1735 C 165.452 2.07264 -6.02761 0
M  V30 1736 C 163.139 2.56521 -5.54653 0
M  V30 1737 C 164.137 2.22737 -6.4566 0
M  V30 1738 O 163.825 2.04485 -7.77458 0
M  V30 1739 H 163.557 0.463842 -0.491759 0
M  V30 1740 H 166.111 0.865934 -1.86255 0
M  V30 1741 H 164.341 3.41995 -1.8049 0
M  V30 1742 H 166.03 3.39608 -2.22309 0
M  V30 1743 H 166.796 2.12787 -4.35829 0
M  V30 1744 H 162.675 3.00213 -3.49848 0
M  V30 1745 H 166.219 1.80817 -6.73759 0
M  V30 1746 H 162.116 2.68616 -5.86955 0
M  V30 1747 H 162.884 2.1926 -7.88586 0
M  V30 1748 N 165.547 1.27147 0.931209 0
M  V30 1749 C 166.824 1.0401 1.65654 0
M  V30 1750 C 167.204 -0.426297 2.06751 0
M  V30 1751 O 166.552 -1.40879 1.79904 0
M  V30 1752 C 166.762 1.99834 2.86125 0
M  V30 1753 C 168.11 2.29007 3.57549 0
M  V30 1754 O 169.134 1.97779 2.96246 0
M  V30 1755 O 167.993 2.82222 4.67989 0
M  V30 1756 H 165.087 0.396239 0.725895 0
M  V30 1757 H 167.633 1.38397 0.982056 0
M  V30 1758 H 166.405 2.98744 2.52721 0
M  V30 1759 H 166.028 1.65987 3.61295 0
M  V30 1760 N 167.025 -1.13721 1.09112 0
M  V30 1761 C 168.253 -1.88773 0.846899 0
M  V30 1762 C 168.668 -1.7896 -0.601572 0
M  V30 1763 O 168.025 -1.15394 -1.41388 0
M  V30 1764 C 168.076 -3.3849 1.26913 0
M  V30 1765 O 167.797 -3.48043 2.66079 0
M  V30 1766 C 169.298 -4.30518 1.05682 0
M  V30 1767 H 166.518 -0.59772 0.304914 0
M  V30 1768 H 169.062 -1.43977 1.45227 0
M  V30 1769 H 167.217 -3.80881 0.707723 0
M  V30 1770 H 167.631 -4.4109 2.83795 0
M  V30 1771 H 169.105 -5.3391 1.40156 0
M  V30 1772 H 169.582 -4.392 -0.00563416 0
M  V30 1773 H 170.188 -3.93893 1.60402 0
M  V30 1774 N 168.503 -0.877838 -1.30888 0
M  V30 1775 C 169.78 -0.413052 -1.91189 0
M  V30 1776 C 170.16 1.1056 -1.79832 0
M  V30 1777 O 169.508 1.93771 -1.21099 0
M  V30 1778 C 169.718 -0.903191 -3.3711 0
M  V30 1779 C 171.066 -0.93395 -4.14201 0
M  V30 1780 O 172.09 -0.849373 -3.45925 0
M  V30 1781 O 170.949 -1.05772 -5.36167 0
M  V30 1782 H 168.043 -0.125035 -0.817493 0
M  V30 1783 H 170.589 -0.966269 -1.39504 0
M  V30 1784 H 169.361 -1.94692 -3.39427 0
M  V30 1785 H 168.984 -0.328732 -3.96239 0
M  V30 1786 N 169.982 1.44106 -0.638065 0
M  V30 1787 C 170.929 2.30715 0.062701 0
M  V30 1788 C 171.899 1.43882 0.829883 0
M  V30 1789 O 173.084 1.72775 0.809532 0
M  V30 1790 C 170.224 3.29258 1.03358 0
M  V30 1791 C 169.337 4.31192 0.26409 0
M  V30 1792 C 168.472 5.16825 1.22741 0
M  V30 1793 C 167.511 6.10462 0.447475 0
M  V30 1794 N 166.648 6.8877 1.36161 0
M  V30 1795 H 171.488 2.90096 -0.681781 0
M  V30 1796 H 169.025 1.42925 -0.347988 0
M  V30 1797 H 170.983 3.84886 1.60992 0
M  V30 1798 H 169.613 2.71562 1.74511 0
M  V30 1799 H 168.665 3.77981 -0.428295 0
M  V30 1800 H 169.977 4.97619 -0.343052 0
M  V30 1801 H 169.131 5.77004 1.87487 0
M  V30 1802 H 167.87 4.50488 1.86847 0
M  V30 1803 H 166.875 5.49386 -0.213433 0
M  V30 1804 H 168.1 6.78837 -0.188968 0
M  V30 1805 H 166.046 6.25096 1.98975 0
M  V30 1806 H 165.963 7.51663 0.808656 0
M  V30 1807 H 167.231 7.53467 1.99769 0
M  V30 1808 N 171.46 0.379036 1.52974 0
M  V30 1809 C 172.393 -0.504932 2.22544 0
M  V30 1810 C 173.371 -1.0723 1.22231 0
M  V30 1811 O 174.555 -1.12589 1.51182 0
M  V30 1812 C 171.682 -1.69794 2.93066 0
M  V30 1813 C 170.728 -1.25678 4.07563 0
M  V30 1814 S 171.561 -0.246852 5.34931 0
M  V30 1815 C 172.717 -1.44588 6.08971 0
M  V30 1816 H 172.95 0.0858666 2.97176 0
M  V30 1817 H 170.483 0.163183 1.53535 0
M  V30 1818 H 172.441 -2.38219 3.34308 0
M  V30 1819 H 171.102 -2.26002 2.18133 0
M  V30 1820 H 170.295 -2.14725 4.5597 0
M  V30 1821 H 169.897 -0.651584 3.6828 0
M  V30 1822 H 172.189 -2.37469 6.34519 0
M  V30 1823 H 173.132 -1.00292 7.00962 0
M  V30 1824 H 173.54 -1.65804 5.39601 0
M  V30 1825 N 172.938 -1.57226 0.108567 0
M  V30 1826 C 173.901 -2.13602 -0.831082 0
M  V30 1827 C 174.901 -1.06841 -1.20173 0
M  V30 1828 O 176.091 -1.32666 -1.12895 0
M  V30 1829 C 173.223 -2.66769 -2.12243 0
M  V30 1830 H 174.416 -2.97951 -0.341317 0
M  V30 1831 H 171.969 -1.55667 -0.14057 0
M  V30 1832 H 172.704 -1.85977 -2.65675 0
M  V30 1833 H 172.489 -3.44839 -1.86625 0
M  V30 1834 H 173.979 -3.10332 -2.79435 0
M  V30 1835 N 174.416 0.165178 -1.56732 0
M  V30 1836 C 175.379 1.18822 -1.95995 0
M  V30 1837 C 176.379 1.3685 -0.84431 0
M  V30 1838 O 177.569 1.34152 -1.11126 0
M  V30 1839 C 174.701 2.5521 -2.26011 0
M  V30 1840 H 175.894 0.851825 -2.87548 0
M  V30 1841 H 173.447 0.407857 -1.50885 0
M  V30 1842 H 174.182 2.93852 -1.37191 0
M  V30 1843 H 173.967 2.43489 -3.07336 0
M  V30 1844 H 175.457 3.28927 -2.57288 0
M  V30 1845 N 175.894 1.51508 0.433938 0
M  V30 1846 C 176.804 1.75917 1.5521 0
M  V30 1847 C 177.82 0.643545 1.61662 0
M  V30 1848 O 178.996 0.926183 1.7884 0
M  V30 1849 C 176.061 1.88213 2.91164 0
M  V30 1850 C 175.122 3.12074 2.94802 0
M  V30 1851 C 174.355 3.23774 4.24271 0
M  V30 1852 O 174.578 2.4133 5.16833 0
M  V30 1853 O 173.512 4.16774 4.34262 0
M  V30 1854 H 177.338 2.70777 1.37527 0
M  V30 1855 H 174.923 1.36051 0.617293 0
M  V30 1856 H 176.805 1.98267 3.71845 0
M  V30 1857 H 175.48 0.965413 3.08968 0
M  V30 1858 H 174.387 3.07497 2.13065 0
M  V30 1859 H 175.72 4.03446 2.81943 0
M  V30 1860 N 177.372 -0.689602 1.41712 0
M  V30 1861 C 178.619 -1.44966 1.4139 0
M  V30 1862 C 178.947 -1.94484 0.025105 0
M  V30 1863 O 178.202 -1.70307 -0.964048 0
M  V30 1864 C 178.501 -2.67298 2.37247 0
M  V30 1865 C 178.167 -2.36405 3.83958 0
M  V30 1866 C 176.829 -2.27691 4.23923 0
M  V30 1867 C 179.181 -2.11043 4.76561 0
M  V30 1868 C 176.509 -1.91719 5.54492 0
M  V30 1869 C 178.861 -1.76578 6.07456 0
M  V30 1870 C 177.525 -1.66363 6.46436 0
M  V30 1871 H 176.795 -0.53047 0.517381 0
M  V30 1872 H 179.442 -0.787655 1.74552 0
M  V30 1873 H 177.747 -3.38461 1.9736 0
M  V30 1874 H 179.444 -3.25452 2.34269 0
M  V30 1875 H 176.034 -2.44085 3.52308 0
M  V30 1876 H 180.218 -2.16717 4.46483 0
M  V30 1877 H 175.474 -1.82367 5.83568 0
M  V30 1878 H 179.648 -1.55974 6.78708 0
M  V30 1879 H 177.275 -1.38258 7.47522 0
M  V30 1880 N 178.85 -1.27639 -0.924453 0
M  V30 1881 C 180.099 -1.13549 -1.66702 0
M  V30 1882 C 180.412 0.317487 -1.93006 0
M  V30 1883 O 181.618 0.579333 -2.65247 0
M  V30 1884 C 180.074 -1.98426 -3.00259 0
M  V30 1885 C 179.682 -3.484 -2.81641 0
M  V30 1886 C 181.426 -1.92993 -3.78092 0
M  V30 1887 C 179.333 -4.25464 -4.10773 0
M  V30 1888 H 178.263 -0.421351 -0.625283 0
M  V30 1889 H 180.914 -1.52085 -1.02676 0
M  V30 1890 H 179.296 -1.52736 -3.6536 0
M  V30 1891 H 180.47 -4.01973 -2.25287 0
M  V30 1892 H 178.785 -3.55245 -2.17232 0
M  V30 1893 H 181.382 -2.47844 -4.7379 0
M  V30 1894 H 181.725 -0.904281 -4.0636 0
M  V30 1895 H 182.258 -2.36595 -3.19793 0
M  V30 1896 H 178.997 -5.28566 -3.87683 0
M  V30 1897 H 178.517 -3.76667 -4.66779 0
M  V30 1898 H 180.196 -4.34812 -4.79111 0
M  V30 1899 N 180.328 1.1314 -1.09713 0
M  V30 1900 C 181.26 2.18343 -0.697056 0
M  V30 1901 C 182.273 1.60669 0.262551 0
M  V30 1902 O 183.462 1.78435 0.0481527 0
M  V30 1903 C 180.562 3.38899 -0.00684728 0
M  V30 1904 C 179.735 4.26078 -0.988741 0
M  V30 1905 C 178.794 5.25155 -0.331394 0
M  V30 1906 O 177.82 5.60701 -0.979926 0
M  V30 1907 N 179.022 5.73271 0.913261 0
M  V30 1908 H 181.787 2.5328 -1.60216 0
M  V30 1909 H 179.348 1.28491 -0.984971 0
M  V30 1910 H 181.34 4.02255 0.444191 0
M  V30 1911 H 179.91 3.02175 0.800551 0
M  V30 1912 H 179.13 3.59453 -1.61826 0
M  V30 1913 H 180.418 4.81178 -1.65364 0
M  V30 1914 H 179.816 5.46544 1.45966 0
M  V30 1915 H 178.373 6.3855 1.30757 0
M  V30 1916 N 181.806 0.884767 1.30421 0
M  V30 1917 C 182.738 0.308655 2.27112 0
M  V30 1918 C 183.751 -0.536655 1.53701 0
M  V30 1919 O 184.94 -0.35624 1.74909 0
M  V30 1920 C 182.04 -0.579782 3.33904 0
M  V30 1921 C 181.213 0.236417 4.36761 0
M  V30 1922 C 180.272 -0.582482 5.22966 0
M  V30 1923 O 179.298 -0.00525502 5.692 0
M  V30 1924 N 180.5 -1.89163 5.48815 0
M  V30 1925 H 183.265 1.13964 2.77186 0
M  V30 1926 H 180.826 0.747731 1.43599 0
M  V30 1927 H 182.818 -1.13366 3.88497 0
M  V30 1928 H 181.388 -1.31144 2.83761 0
M  V30 1929 H 180.608 0.97174 3.82035 0
M  V30 1930 H 181.896 0.795924 5.02536 0
M  V30 1931 H 181.294 -2.38352 5.13035 0
M  V30 1932 H 179.851 -2.39296 6.06284 0
M  V30 1933 N 183.284 -1.43765 0.645699 0
M  V30 1934 C 184.531 -2.01898 0.15604 0
M  V30 1935 C 184.859 -1.50887 -1.22733 0
M  V30 1936 O 184.114 -0.689271 -1.8316 0
M  V30 1937 C 184.413 -3.57238 0.107679 0
M  V30 1938 C 184.079 -4.27564 1.43178 0
M  V30 1939 C 182.741 -4.46492 1.7944 0
M  V30 1940 C 185.093 -4.67454 2.30513 0
M  V30 1941 C 182.421 -5.02573 3.02716 0
M  V30 1942 C 184.773 -5.24901 3.53074 0
M  V30 1943 C 183.437 -5.42046 3.89541 0
M  V30 1944 H 182.707 -0.738797 0.057099 0
M  V30 1945 H 185.354 -1.72341 0.834912 0
M  V30 1946 H 183.659 -3.86293 -0.654618 0
M  V30 1947 H 185.356 -3.99965 -0.287938 0
M  V30 1948 H 181.946 -4.13171 1.13963 0
M  V30 1949 H 186.13 -4.5253 2.0379 0
M  V30 1950 H 181.386 -5.14033 3.31028 0
M  V30 1951 H 185.56 -5.54758 4.20971 0
M  V30 1952 H 183.187 -5.85268 4.85145 0
M  V30 1953 N 184.763 -0.387143 -1.52771 0
M  V30 1954 C 185.711 0.463953 -2.27926 0
M  V30 1955 C 186.705 1.06493 -1.31741 0
M  V30 1956 O 187.911 1.00565 -1.49287 0
M  V30 1957 H 184.286 0.16837 -0.732909 0
M  V30 1958 H 186.257 -0.19141 -2.97785 0
M  V30 1959 C 185.006 1.5803 -3.09713 0
M  V30 1960 H 184.329 1.12718 -3.83581 0
M  V30 1961 H 185.769 2.15008 -3.65442 0
M  V30 1962 C 184.228 2.53509 -2.2189 0
M  V30 1963 O 184.758 3.56863 -1.84422 0
M  V30 1964 N 182.964 2.23199 -1.86093 0
M  V30 1965 H 182.511 1.39185 -2.16761 0
M  V30 1966 H 182.469 2.87333 -1.27621 0
M  V30 1967 N 186.241 1.57166 -0.116904 0
M  V30 1968 C 187.189 2.16457 0.851418 0
M  V30 1969 C 188.183 1.11323 1.27686 0
M  V30 1970 O 189.389 1.2963 1.24884 0
M  V30 1971 H 185.764 0.69271 0.292672 0
M  V30 1972 H 187.735 2.96605 0.32685 0
M  V30 1973 C 186.484 2.77689 2.09246 0
M  V30 1974 H 185.807 3.58285 1.77402 0
M  V30 1975 H 187.247 3.22716 2.7501 0
M  V30 1976 C 185.706 1.74667 2.88085 0
M  V30 1977 O 186.236 1.19877 3.83396 0
M  V30 1978 N 184.442 1.44656 2.52038 0
M  V30 1979 H 183.989 1.89402 1.74599 0
M  V30 1980 H 183.947 0.759675 3.05084 0
M  V30 1981 N 187.719 -0.156864 1.56817 0
M  V30 1982 C 188.651 -1.21883 1.94106 0
M  V30 1983 C 189.664 -1.3971 0.835754 0
M  V30 1984 O 190.853 -1.39457 1.11418 0
M  V30 1985 C 187.953 -2.58527 2.19127 0
M  V30 1986 C 187.126 -2.61809 3.50393 0
M  V30 1987 C 186.185 -3.7992 3.64071 0
M  V30 1988 O 185.211 -3.65249 4.36557 0
M  V30 1989 N 186.413 -4.96973 2.99997 0
M  V30 1990 H 189.178 -0.901974 2.85805 0
M  V30 1991 H 186.739 -0.346513 1.58148 0
M  V30 1992 H 188.731 -3.36034 2.25529 0
M  V30 1993 H 187.301 -2.82545 1.33742 0
M  V30 1994 H 186.521 -1.7029 3.5552 0
M  V30 1995 H 187.809 -2.61024 4.36742 0
M  V30 1996 H 187.207 -5.11794 2.41004 0
M  V30 1997 H 185.764 -5.7229 3.11974 0
M  V30 1998 N 189.197 -1.51736 -0.425897 0
M  V30 1999 C 190.16 -1.73271 -1.50032 0
M  V30 2000 C 191.16 -0.602639 -1.4908 0
M  V30 2001 O 192.35 -0.87033 -1.509 0
M  V30 2002 C 189.482 -1.79969 -2.89523 0
M  V30 2003 H 190.675 -2.69172 -1.32237 0
M  V30 2004 H 188.228 -1.41899 -0.65532 0
M  V30 2005 H 188.963 -0.859241 -3.1271 0
M  V30 2006 H 188.748 -2.62109 -2.91619 0
M  V30 2007 H 190.238 -1.9843 -3.67444 0
M  V30 2008 N 190.675 0.682077 -1.42076 0
M  V30 2009 C 191.922 1.44215 -1.42156 0
M  V30 2010 C 192.25 1.94468 -0.0354186 0
M  V30 2011 O 191.505 1.70816 0.955002 0
M  V30 2012 C 191.804 2.66036 -2.38662 0
M  V30 2013 C 191.47 2.34366 -3.85206 0
M  V30 2014 C 190.132 2.25439 -4.25124 0
M  V30 2015 C 192.484 2.08513 -4.77673 0
M  V30 2016 C 189.812 1.88775 -5.55501 0
M  V30 2017 C 192.164 1.73354 -6.08384 0
M  V30 2018 C 190.828 1.62933 -6.47309 0
M  V30 2019 H 190.098 0.527718 -0.520187 0
M  V30 2020 H 192.745 0.778387 -1.74967 0
M  V30 2021 H 191.05 3.3741 -1.99152 0
M  V30 2022 H 192.747 3.24205 -2.35991 0
M  V30 2023 H 189.337 2.42213 -3.53597 0
M  V30 2024 H 193.521 2.14346 -4.47626 0
M  V30 2025 H 188.777 1.7927 -5.84527 0
M  V30 2026 H 192.951 1.52373 -6.79526 0
M  V30 2027 H 190.578 1.34292 -7.48244 0
M  V30 2028 N 192.153 1.28127 0.917671 0
M  V30 2029 C 193.378 1.18007 1.70555 0
M  V30 2030 C 193.803 -0.258257 1.86319 0
M  V30 2031 O 193.161 -1.1869 1.37049 0
M  V30 2032 C 193.209 1.87948 3.07746 0
M  V30 2033 O 192.313 1.18427 3.9503 0
M  V30 2034 H 191.654 0.409867 0.522403 0
M  V30 2035 H 194.184 1.69379 1.1477 0
M  V30 2036 H 194.194 1.95701 3.58001 0
M  V30 2037 H 192.869 2.92573 2.95591 0
M  V30 2038 H 191.446 1.18811 3.53466 0
M  V30 2039 N 193.631 -1.12557 1.10312 0
M  V30 2040 C 194.877 -1.84311 0.846011 0
M  V30 2041 C 195.21 -1.83805 -0.626859 0
M  V30 2042 O 194.485 -1.28268 -1.46211 0
M  V30 2043 C 194.768 -3.32048 1.39341 0
M  V30 2044 C 194.621 -3.41016 2.93305 0
M  V30 2045 C 195.94 -4.27764 1.03468 0
M  V30 2046 H 193.059 -0.669192 0.30879 0
M  V30 2047 H 195.701 -1.32057 1.36605 0
M  V30 2048 H 193.851 -3.76678 0.951087 0
M  V30 2049 H 195.523 -3.05031 3.46055 0
M  V30 2050 H 193.766 -2.81603 3.29973 0
M  V30 2051 H 194.437 -4.44948 3.26689 0
M  V30 2052 H 196.913 -3.91253 1.41633 0
M  V30 2053 H 195.789 -5.29549 1.44463 0
M  V30 2054 H 196.05 -4.42064 -0.0560404 0
M  V30 2055 N 195.109 -0.891671 -1.2995 0
M  V30 2056 C 196.357 -0.512486 -1.95494 0
M  V30 2057 C 196.678 0.942776 -1.70695 0
M  V30 2058 O 195.948 1.66374 -1.03424 0
M  V30 2059 H 194.528 -0.186533 -0.723336 0
M  V30 2060 H 197.19 -1.13621 -1.58355 0
M  V30 2061 H 196.286 -0.688342 -3.04415 0
M  V30 2062 N 196.587 1.43421 -0.653314 0
M  V30 2063 C 197.519 2.29071 0.0769134 0
M  V30 2064 C 198.532 1.42513 0.787017 0
M  V30 2065 O 199.721 1.66449 0.644757 0
M  V30 2066 C 196.821 3.19436 1.13199 0
M  V30 2067 C 195.994 4.34533 0.500006 0
M  V30 2068 C 195.053 5.05771 1.45198 0
M  V30 2069 O 194.079 5.61037 0.960538 0
M  V30 2070 N 195.281 5.0928 2.78594 0
M  V30 2071 H 198.046 2.92382 -0.658235 0
M  V30 2072 H 195.607 1.54112 -0.496104 0
M  V30 2073 H 197.599 3.63958 1.76964 0
M  V30 2074 H 196.169 2.57724 1.7691 0
M  V30 2075 H 195.389 3.92925 -0.316738 0
M  V30 2076 H 196.677 5.08766 0.0588345 0
M  V30 2077 H 196.075 4.65751 3.2108 0
M  V30 2078 H 194.632 5.57519 3.37662 0
M  V30 2079 N 198.065 0.39524 1.52563 0
M  V30 2080 C 198.997 -0.472201 2.24283 0
M  V30 2081 C 200.01 -1.02178 1.26742 0
M  V30 2082 O 201.199 -0.923097 1.52778 0
M  V30 2083 C 198.299 -1.66775 2.95024 0
M  V30 2084 C 197.472 -1.2445 4.19322 0
M  V30 2085 C 196.531 -2.30539 4.7301 0
M  V30 2086 O 195.557 -1.91702 5.35947 0
M  V30 2087 N 196.759 -3.6253 4.53379 0
M  V30 2088 H 199.524 0.142282 2.99362 0
M  V30 2089 H 197.085 0.2219 1.60372 0
M  V30 2090 H 199.077 -2.37283 3.27839 0
M  V30 2091 H 197.647 -2.18845 2.23217 0
M  V30 2092 H 196.867 -0.368069 3.92478 0
M  V30 2093 H 198.155 -0.938457 5.0007 0
M  V30 2094 H 197.553 -3.96841 4.03154 0
M  V30 2095 H 196.11 -4.29055 4.90668 0
M  V30 2096 N 199.544 -1.57102 0.125237 0
M  V30 2097 C 200.474 -2.18659 -0.819174 0
M  V30 2098 C 201.455 -1.12843 -1.27281 0
M  V30 2099 O 202.64 -1.41104 -1.33429 0
M  V30 2100 C 199.77 -2.79096 -2.06695 0
M  V30 2101 C 198.724 -3.90548 -1.75088 0
M  V30 2102 C 198.05 -4.37821 -3.06948 0
M  V30 2103 C 199.35 -5.12356 -1.01435 0
M  V30 2104 H 201.044 -2.9783 -0.306202 0
M  V30 2105 H 198.59 -1.4326 -0.145839 0
M  V30 2106 H 200.543 -3.2082 -2.73226 0
M  V30 2107 H 199.267 -1.97223 -2.60328 0
M  V30 2108 H 197.926 -3.49409 -1.10944 0
M  V30 2109 H 197.574 -3.52799 -3.58527 0
M  V30 2110 H 197.274 -5.12982 -2.86571 0
M  V30 2111 H 198.798 -4.822 -3.74587 0
M  V30 2112 H 200.212 -5.5106 -1.58132 0
M  V30 2113 H 198.609 -5.9314 -0.911319 0
M  V30 2114 H 199.679 -4.849 -0.00218681 0
M  V30 2115 N 201.022 0.148545 -1.56898 0
M  V30 2116 C 202.268 0.862694 -1.83536 0
M  V30 2117 C 202.601 1.80889 -0.706604 0
M  V30 2118 O 201.876 1.92328 0.289885 0
M  V30 2119 C 202.159 1.63853 -3.20662 0
M  V30 2120 C 202.012 0.713925 -4.44098 0
M  V30 2121 C 203.331 2.60133 -3.54991 0
M  V30 2122 H 200.45 0.312179 -0.667618 0
M  V30 2123 H 203.092 0.127953 -1.89569 0
M  V30 2124 H 201.242 2.26489 -3.1565 0
M  V30 2125 H 202.914 0.098686 -4.61194 0
M  V30 2126 H 201.157 0.0234019 -4.33794 0
M  V30 2127 H 201.828 1.29278 -5.36648 0
M  V30 2128 H 204.304 2.07616 -3.60603 0
M  V30 2129 H 203.18 3.11468 -4.51972 0
M  V30 2130 H 203.441 3.41417 -2.80868 0
M  V30 2131 N 202.5 1.5196 0.417844 0
M  V30 2132 C 203.747 1.65591 1.16559 0
M  V30 2133 C 204.075 0.381565 1.90721 0
M  V30 2134 O 203.33 -0.635156 1.85106 0
M  V30 2135 C 203.629 2.82269 2.19223 0
M  V30 2136 C 203.295 4.20819 1.61933 0
M  V30 2137 C 201.957 4.58506 1.46033 0
M  V30 2138 C 204.309 5.07196 1.20008 0
M  V30 2139 C 201.637 5.80257 0.867113 0
M  V30 2140 C 203.989 6.29544 0.621086 0
M  V30 2141 C 202.653 6.65987 0.449144 0
M  V30 2142 H 201.923 0.605939 0.42652 0
M  V30 2143 H 204.57 1.86041 0.45397 0
M  V30 2144 H 202.875 2.56118 2.96498 0
M  V30 2145 H 204.572 2.90012 2.76936 0
M  V30 2146 H 201.162 3.91116 1.7529 0
M  V30 2147 H 205.346 4.7867 1.31105 0
M  V30 2148 H 200.602 6.07124 0.721833 0
M  V30 2149 H 204.776 6.95805 0.287798 0
M  V30 2150 H 202.403 7.60199 -0.012632 0
M  V30 2151 N 203.978 -0.674533 1.42435 0
M  V30 2152 C 205.203 -1.46784 1.46524 0
M  V30 2153 C 205.628 -1.87938 0.078066 0
M  V30 2154 O 204.986 -1.56014 -0.92354 0
M  V30 2155 C 205.034 -2.69307 2.39805 0
M  V30 2156 O 204.138 -3.67587 1.86959 0
M  V30 2157 H 203.479 -0.440959 0.496439 0
M  V30 2158 H 206.009 -0.827326 1.87127 0
M  V30 2159 H 206.019 -3.17374 2.56393 0
M  V30 2160 H 204.694 -2.38692 3.40586 0
M  V30 2161 H 203.271 -3.2662 1.79927 0
M  V30 2162 N 205.456 -1.28612 -0.910864 0
M  V30 2163 C 206.703 -1.15934 -1.66029 0
M  V30 2164 C 207.031 0.291483 -1.92303 0
M  V30 2165 O 206.286 1.22816 -1.52364 0
M  V30 2166 C 206.585 -1.90624 -3.0232 0
M  V30 2167 C 206.251 -3.40405 -2.95695 0
M  V30 2168 C 204.913 -3.81255 -2.93595 0
M  V30 2169 C 207.265 -4.359 -2.85728 0
M  V30 2170 C 204.593 -5.15936 -2.79334 0
M  V30 2171 C 206.945 -5.70657 -2.73007 0
M  V30 2172 C 205.609 -6.10779 -2.69267 0
M  V30 2173 H 204.879 -0.424234 -0.607541 0
M  V30 2174 H 207.526 -1.5942 -1.06101 0
M  V30 2175 H 205.831 -1.39696 -3.6605 0
M  V30 2176 H 207.528 -1.78228 -3.59215 0
M  V30 2177 H 204.118 -3.07927 -2.98125 0
M  V30 2178 H 208.302 -4.053 -2.86436 0
M  V30 2179 H 203.558 -5.46146 -2.74835 0
M  V30 2180 H 207.732 -6.44311 -2.64264 0
M  V30 2181 H 205.359 -7.1509 -2.57974 0
M  V30 2182 N 206.934 1.1197 -1.10907 0
M  V30 2183 C 207.882 2.19927 -0.757303 0
M  V30 2184 C 208.876 1.67564 0.248747 0
M  V30 2185 O 210.082 1.79672 0.108605 0
M  V30 2186 H 206.457 0.716925 -0.226987 0
M  V30 2187 H 208.428 2.46847 -1.67658 0
M  V30 2188 C 207.177 3.47061 -0.210671 0
M  V30 2189 H 206.5 3.87703 -0.976049 0
M  V30 2190 H 207.94 4.24 -0.0026584 0
M  V30 2191 C 206.399 3.19864 1.05777 0
M  V30 2192 O 206.929 3.40049 2.13845 0
M  V30 2193 N 205.135 2.73636 0.978349 0
M  V30 2194 H 204.682 2.5741 0.0988246 0
M  V30 2195 H 204.64 2.55815 1.82773 0
M  V30 2196 N 208.412 0.89855 1.29475 0
M  V30 2197 C 209.322 0.379974 2.31502 0
M  V30 2198 C 210.338 -0.524695 1.659 0
M  V30 2199 O 211.514 -0.414551 1.97087 0
M  V30 2200 C 208.579 -0.385138 3.44554 0
M  V30 2201 C 207.64 0.550914 4.2575 0
M  V30 2202 C 206.873 -0.177778 5.33404 0
M  V30 2203 O 207.096 -1.40189 5.52904 0
M  V30 2204 O 206.03 0.479106 5.9999 0
M  V30 2205 H 209.856 1.22639 2.77837 0
M  V30 2206 H 207.441 0.662834 1.33891 0
M  V30 2207 H 209.323 -0.817841 4.13388 0
M  V30 2208 H 207.998 -1.20763 3.0033 0
M  V30 2209 H 206.905 1.03271 3.59564 0
M  V30 2210 H 208.238 1.33979 4.73614 0
M  V30 2211 N 209.89 -1.43072 0.660911 0
M  V30 2212 C 210.837 -2.30785 -0.0259884 0
M  V30 2213 C 211.807 -1.45184 -0.806888 0
M  V30 2214 O 212.992 -1.74041 -0.781943 0
M  V30 2215 C 210.132 -3.30861 -0.981067 0
M  V30 2216 C 209.245 -4.31558 -0.195458 0
M  V30 2217 C 208.38 -5.18712 -1.14503 0
M  V30 2218 C 207.419 -6.11097 -0.350299 0
M  V30 2219 N 206.556 -6.90849 -1.25186 0
M  V30 2220 H 211.396 -2.88975 0.727846 0
M  V30 2221 H 208.933 -1.42353 0.370682 0
M  V30 2222 H 210.891 -3.87399 -1.54849 0
M  V30 2223 H 209.521 -2.74304 -1.70169 0
M  V30 2224 H 208.573 -3.77252 0.488374 0
M  V30 2225 H 209.885 -4.9701 0.422176 0
M  V30 2226 H 209.039 -5.79914 -1.78284 0
M  V30 2227 H 207.778 -4.53404 -1.79656 0
M  V30 2228 H 206.783 -5.48976 0.300808 0
M  V30 2229 H 208.008 -6.7845 0.296941 0
M  V30 2230 H 205.954 -6.28182 -1.89005 0
M  V30 2231 H 205.871 -7.52854 -0.688971 0
M  V30 2232 H 207.139 -7.5655 -1.87757 0
M  V30 2233 N 211.368 -0.403325 -1.52352 0
M  V30 2234 C 212.298 0.416205 -2.29761 0
M  V30 2235 C 213.279 1.05123 -1.33728 0
M  V30 2236 O 214.464 1.06134 -1.62632 0
M  V30 2237 C 211.594 1.53624 -3.11475 0
M  V30 2238 C 210.548 1.02653 -4.15507 0
M  V30 2239 C 209.874 2.23971 -4.85532 0
M  V30 2240 C 211.174 0.08463 -5.22231 0
M  V30 2241 H 212.868 -0.229701 -2.98518 0
M  V30 2242 H 210.414 -0.111913 -1.43564 0
M  V30 2243 H 212.367 2.1165 -3.64393 0
M  V30 2244 H 211.091 2.20994 -2.40477 0
M  V30 2245 H 209.75 0.46871 -3.63591 0
M  V30 2246 H 209.398 2.89883 -4.11068 0
M  V30 2247 H 209.098 1.90521 -5.55856 0
M  V30 2248 H 210.622 2.82614 -5.41259 0
M  V30 2249 H 212.036 0.573509 -5.70424 0
M  V30 2250 H 210.433 -0.160783 -5.99885 0
M  V30 2251 H 211.503 -0.86237 -4.7717 0
M  V30 2252 N 212.846 1.57033 -0.133567 0
M  V30 2253 C 214.093 1.95686 0.520877 0
M  V30 2254 C 214.421 1.0177 1.6575 0
M  V30 2255 O 213.676 0.0443195 1.9565 0
M  V30 2256 C 213.975 3.40674 1.08057 0
M  V30 2257 C 213.641 4.50855 0.0637899 0
M  V30 2258 C 212.303 4.80716 -0.215757 0
M  V30 2259 C 214.655 5.17398 -0.62835 0
M  V30 2260 C 211.983 5.74433 -1.19348 0
M  V30 2261 C 214.335 6.12167 -1.5948 0
M  V30 2262 C 212.999 6.40414 -1.88218 0
M  V30 2263 H 212.269 0.716067 0.190602 0
M  V30 2264 H 214.916 1.9026 -0.217556 0
M  V30 2265 H 213.221 3.42865 1.89606 0
M  V30 2266 H 214.918 3.67902 1.59529 0
M  V30 2267 H 211.508 4.27605 0.291855 0
M  V30 2268 H 215.692 4.94472 -0.425562 0
M  V30 2269 H 210.948 5.94616 -1.42272 0
M  V30 2270 H 215.122 6.6281 -2.13671 0
M  V30 2271 H 212.749 7.12838 -2.64133 0
M  V30 2272 N 214.325 -0.140222 1.56975 0
M  V30 2273 C 215.573 -0.850005 1.83356 0
M  V30 2274 C 215.894 -1.81399 0.71551 0
M  V30 2275 O 215.164 -1.94136 -0.262294 0
M  V30 2276 H 213.744 -0.316886 0.676456 0
M  V30 2277 H 216.406 -0.132608 1.94448 0
M  V30 2278 H 215.502 -1.40814 2.78528 0
M  V30 2279 N 215.803 -1.52179 -0.40978 0
M  V30 2280 C 216.733 -1.78435 -1.5061 0
M  V30 2281 C 217.714 -0.635295 -1.57791 0
M  V30 2282 O 218.899 -0.880823 -1.73076 0
M  V30 2283 C 216.029 -1.93444 -2.88439 0
M  V30 2284 C 214.983 -3.09038 -2.96108 0
M  V30 2285 C 214.309 -3.09268 -4.36185 0
M  V30 2286 C 215.609 -4.48508 -2.67652 0
M  V30 2287 H 217.303 -2.70237 -1.28889 0
M  V30 2288 H 214.849 -1.30036 -0.618605 0
M  V30 2289 H 216.802 -2.10394 -3.65119 0
M  V30 2290 H 215.526 -0.983129 -3.11452 0
M  V30 2291 H 214.185 -2.91837 -2.21872 0
M  V30 2292 H 213.833 -2.11861 -4.56206 0
M  V30 2293 H 213.533 -3.86907 -4.42241 0
M  V30 2294 H 215.057 -3.28348 -5.14801 0
M  V30 2295 H 216.471 -4.65918 -3.34056 0
M  V30 2296 H 214.868 -5.28059 -2.85085 0
M  V30 2297 H 215.938 -4.56649 -1.63095 0
M  V30 2298 N 217.281 0.66697 -1.42791 0
M  V30 2299 C 218.211 1.79218 -1.49677 0
M  V30 2300 C 219.192 1.66405 -0.352623 0
M  V30 2301 O 220.377 1.85708 -0.567993 0
M  V30 2302 C 217.507 3.17565 -1.40605 0
M  V30 2303 C 216.461 3.45124 -2.53127 0
M  V30 2304 C 215.787 4.83127 -2.29112 0
M  V30 2305 C 217.087 3.41236 -3.95418 0
M  V30 2306 H 218.781 1.73713 -2.43853 0
M  V30 2307 H 216.327 0.83432 -1.17367 0
M  V30 2308 H 218.28 3.96022 -1.44029 0
M  V30 2309 H 217.004 3.23767 -0.429271 0
M  V30 2310 H 215.663 2.69031 -2.49034 0
M  V30 2311 H 215.311 4.85988 -1.29709 0
M  V30 2312 H 215.011 5.02528 -3.04531 0
M  V30 2313 H 216.535 5.63859 -2.34297 0
M  V30 2314 H 217.949 4.09651 -4.01073 0
M  V30 2315 H 216.346 3.72173 -4.70752 0
M  V30 2316 H 217.416 2.39665 -4.21532 0
M  V30 2317 N 218.759 1.29093 0.90403 0
M  V30 2318 C 220.005 1.16986 1.65656 0
M  V30 2319 C 220.338 -0.278925 1.92186 0
M  V30 2320 O 219.613 -1.2019 1.5292 0
M  V30 2321 C 219.896 1.97908 3.0084 0
M  V30 2322 C 219.749 3.50903 2.81403 0
M  V30 2323 C 221.068 1.80208 4.01513 0
M  V30 2324 H 218.187 0.426346 0.601164 0
M  V30 2325 H 220.829 1.58518 1.04747 0
M  V30 2326 H 218.979 1.62616 3.52829 0
M  V30 2327 H 220.651 3.96153 2.36348 0
M  V30 2328 H 218.894 3.76045 2.1627 0
M  V30 2329 H 219.565 4.02791 3.77443 0
M  V30 2330 H 222.041 2.11025 3.58619 0
M  V30 2331 H 220.917 2.39184 4.94047 0
M  V30 2332 H 221.178 0.756119 4.35586 0
M  V30 2333 N 220.237 -1.11381 1.11499 0
M  V30 2334 C 221.184 -2.17439 0.773887 0
M  V30 2335 C 222.154 -1.64132 -0.254899 0
M  V30 2336 O 223.339 -1.90345 -0.13168 0
M  V30 2337 C 220.479 -3.44373 0.223917 0
M  V30 2338 C 219.592 -4.1168 1.30934 0
M  V30 2339 C 218.727 -5.263 0.71984 0
M  V30 2340 C 217.766 -5.85493 1.78507 0
M  V30 2341 N 216.903 -6.91507 1.21502 0
M  V30 2342 H 221.743 -2.45962 1.68246 0
M  V30 2343 H 219.28 -1.20744 0.840191 0
M  V30 2344 H 221.238 -4.17047 -0.112921 0
M  V30 2345 H 219.868 -3.16232 -0.647851 0
M  V30 2346 H 218.92 -3.37073 1.76312 0
M  V30 2347 H 220.232 -4.51729 2.11524 0
M  V30 2348 H 219.386 -6.05785 0.333094 0
M  V30 2349 H 218.125 -4.87559 -0.117377 0
M  V30 2350 H 217.13 -5.04686 2.18111 0
M  V30 2351 H 218.355 -6.26301 2.62533 0
M  V30 2352 H 216.301 -6.54783 0.399455 0
M  V30 2353 H 216.218 -7.30214 1.95763 0
M  V30 2354 H 217.486 -7.74795 0.855181 0
M  V30 2355 N 221.715 -0.905404 -1.28997 0
M  V30 2356 C 222.992 -0.453513 -1.9027 0
M  V30 2357 C 223.372 1.06721 -1.82137 0
M  V30 2358 O 222.72 1.91159 -1.25182 0
M  V30 2359 C 222.93 -0.974494 -3.35119 0
M  V30 2360 C 224.278 -1.0216 -4.12127 0
M  V30 2361 O 225.302 -0.922557 -3.44046 0
M  V30 2362 O 224.161 -1.17121 -5.33802 0
M  V30 2363 H 221.255 -0.142347 -0.814657 0
M  V30 2364 H 223.801 -0.995642 -1.37423 0
M  V30 2365 H 222.573 -2.01848 -3.35221 0
M  V30 2366 H 222.196 -0.412706 -3.95452 0
M  V30 2367 N 223.193 1.4272 -0.668489 0
M  V30 2368 C 224.442 2.00846 -0.185389 0
M  V30 2369 C 224.755 1.53442 1.21305 0
M  V30 2370 O 225.961 2.03944 1.79218 0
M  V30 2371 C 224.417 3.58805 -0.280591 0
M  V30 2372 C 224.025 4.15198 -1.68268 0
M  V30 2373 C 225.769 4.24255 0.14412 0
M  V30 2374 C 223.676 5.655 -1.73099 0
M  V30 2375 H 222.606 0.751145 -0.0655475 0
M  V30 2376 H 225.257 1.63516 -0.832752 0
M  V30 2377 H 223.639 3.93608 0.434553 0
M  V30 2378 H 224.813 3.91866 -2.42441 0
M  V30 2379 H 223.128 3.62176 -2.05469 0
M  V30 2380 H 225.725 5.34547 0.128086 0
M  V30 2381 H 226.068 3.99277 1.17827 0
M  V30 2382 H 226.601 3.94389 -0.519798 0
M  V30 2383 H 223.34 5.95268 -2.74475 0
M  V30 2384 H 222.86 5.90842 -1.03274 0
M  V30 2385 H 224.539 6.29808 -1.48158 0
M  V30 2386 N 224.671 0.411399 1.52136 0
M  V30 2387 C 225.581 -0.419774 2.30814 0
M  V30 2388 C 226.597 -1.0515 1.38634 0
M  V30 2389 O 227.773 -1.05252 1.71709 0
M  V30 2390 C 224.838 -1.52019 3.11594 0
M  V30 2391 C 223.899 -0.91129 4.19516 0
M  V30 2392 C 223.132 -1.95927 4.96436 0
M  V30 2393 O 223.355 -3.17775 4.73683 0
M  V30 2394 O 222.289 -1.56423 5.81219 0
M  V30 2395 H 226.115 0.221805 3.02889 0
M  V30 2396 H 223.7 0.174547 1.48377 0
M  V30 2397 H 225.582 -2.15898 3.61892 0
M  V30 2398 H 224.257 -2.14633 2.42311 0
M  V30 2399 H 223.164 -0.235157 3.7336 0
M  V30 2400 H 224.497 -0.32904 4.91099 0
M  V30 2401 N 226.149 -1.5696 0.141893 0
M  V30 2402 C 227.112 -2.15316 -0.785587 0
M  V30 2403 C 228.112 -1.09366 -1.1788 0
M  V30 2404 O 229.302 -1.35031 -1.10056 0
M  V30 2405 C 226.434 -2.71211 -2.06537 0
M  V30 2406 H 227.627 -2.98608 -0.278041 0
M  V30 2407 H 225.18 -1.5593 -0.107519 0
M  V30 2408 H 225.915 -1.91571 -2.6167 0
M  V30 2409 H 225.7 -3.4872 -1.79268 0
M  V30 2410 H 227.19 -3.16189 -2.72789 0
M  V30 2411 N 227.627 0.131896 -1.57047 0
M  V30 2412 C 228.56 1.19236 -1.94571 0
M  V30 2413 C 229.538 1.40782 -0.813576 0
M  V30 2414 O 230.722 1.55148 -1.07058 0
M  V30 2415 C 227.849 2.54858 -2.23081 0
M  V30 2416 C 226.895 2.49817 -3.45679 0
M  V30 2417 S 227.728 1.95036 -4.98719 0
M  V30 2418 C 228.884 3.32357 -5.30367 0
M  V30 2419 H 229.117 0.872297 -2.84215 0
M  V30 2420 H 226.65 0.338134 -1.50652 0
M  V30 2421 H 228.608 3.32898 -2.40185 0
M  V30 2422 H 227.269 2.84047 -1.34074 0
M  V30 2423 H 226.462 3.49688 -3.62952 0
M  V30 2424 H 226.064 1.79892 -3.27895 0
M  V30 2425 H 228.356 4.28525 -5.2476 0
M  V30 2426 H 229.299 3.19923 -6.31708 0
M  V30 2427 H 229.707 3.3019 -4.57859 0
M  V30 2428 N 229.106 1.52395 0.401703 0
M  V30 2429 C 230.383 1.57387 1.16141 0
M  V30 2430 C 230.763 0.359359 2.08019 0
M  V30 2431 O 230.111 -0.65326 2.18963 0
M  V30 2432 C 230.321 2.90631 1.93221 0
M  V30 2433 C 231.669 3.43904 2.49028 0
M  V30 2434 O 232.693 2.92421 2.03393 0
M  V30 2435 O 231.552 4.33823 3.32356 0
M  V30 2436 H 228.646 0.634262 0.530698 0
M  V30 2437 H 231.192 1.64725 0.407883 0
M  V30 2438 H 229.964 3.70473 1.25958 0
M  V30 2439 H 229.587 2.8662 2.75563 0
M  V30 2440 N 230.584 -0.659388 1.43143 0
M  V30 2441 C 231.995 -1.24041 1.39537 0
M  V30 2442 C 232.346 -1.95963 0.0963364 0
M  V30 2443 O 231.471 -2.00892 -0.804438 0
M  V30 2444 C 232.066 -2.25601 2.52764 0
M  V30 2445 C 230.625 -2.79195 2.52443 0
M  V30 2446 C 229.772 -1.53743 2.30778 0
M  V30 2447 H 232.723 -0.451792 1.52133 0
M  V30 2448 H 232.744 -3.07651 2.23899 0
M  V30 2449 H 232.256 -1.73226 3.47296 0
M  V30 2450 H 230.357 -3.35649 1.61773 0
M  V30 2451 H 230.47 -3.2716 3.50004 0
M  V30 2452 H 228.834 -1.80869 1.79328 0
M  V30 2453 H 229.617 -1.03312 3.27386 0
M  V30 2454 N 232.062 -1.29571 -0.897171 0
M  V30 2455 C 233.287 -1.20705 -1.68656 0
M  V30 2456 C 233.712 0.228582 -1.86706 0
M  V30 2457 O 233.07 1.16494 -1.3892 0
M  V30 2458 C 233.118 -1.9282 -3.04717 0
M  V30 2459 O 232.222 -1.24697 -3.93096 0
M  V30 2460 H 231.563 -0.418126 -0.515816 0
M  V30 2461 H 234.093 -1.71183 -1.12061 0
M  V30 2462 H 234.103 -2.01372 -3.54843 0
M  V30 2463 H 232.778 -2.97239 -2.90899 0
M  V30 2464 H 231.355 -1.2442 -3.51531 0
M  V30 2465 N 233.54 1.10788 -1.12088 0
M  V30 2466 C 234.789 1.82036 -0.868659 0
M  V30 2467 C 235.102 1.85929 0.607426 0
M  V30 2468 O 236.308 2.53346 0.97613 0
M  V30 2469 C 234.764 3.26951 -1.50435 0
M  V30 2470 C 234.372 3.31367 -3.01496 0
M  V30 2471 C 236.116 4.03053 -1.33225 0
M  V30 2472 C 234.023 4.7072 -3.58017 0
M  V30 2473 H 232.953 0.682108 -0.321318 0
M  V30 2474 H 235.604 1.24618 -1.34694 0
M  V30 2475 H 233.986 3.84343 -0.953735 0
M  V30 2476 H 235.16 2.83819 -3.6302 0
M  V30 2477 H 233.475 2.6875 -3.18061 0
M  V30 2478 H 236.072 5.05981 -1.72878 0
M  V30 2479 H 236.415 4.15387 -0.275529 0
M  V30 2480 H 236.948 3.52066 -1.85188 0
M  V30 2481 H 233.687 4.63585 -4.63432 0
M  V30 2482 H 233.207 5.1865 -3.01268 0
M  V30 2483 H 234.886 5.39685 -3.56859 0
M  V30 2484 N 235.018 0.912232 1.28515 0
M  V30 2485 C 235.948 0.416403 2.29757 0
M  V30 2486 C 236.929 -0.515194 1.6211 0
M  V30 2487 O 238.114 -0.423253 1.89532 0
M  V30 2488 C 235.244 -0.34572 3.45575 0
M  V30 2489 C 234.198 0.496599 4.25109 0
M  V30 2490 C 233.524 -0.393771 5.33248 0
M  V30 2491 C 234.824 1.75307 4.92001 0
M  V30 2492 H 236.518 1.26249 2.7148 0
M  V30 2493 H 234.064 0.608515 1.30511 0
M  V30 2494 H 236.017 -0.703422 4.15488 0
M  V30 2495 H 234.741 -1.2257 3.02728 0
M  V30 2496 H 233.4 0.8368 3.56922 0
M  V30 2497 H 233.048 -1.27225 4.86644 0
M  V30 2498 H 232.748 0.166209 5.87365 0
M  V30 2499 H 234.272 -0.747389 6.06009 0
M  V30 2500 H 235.686 1.46437 5.54283 0
M  V30 2501 H 234.083 2.25534 5.56106 0
M  V30 2502 H 235.153 2.48176 4.16577 0
M  V30 2503 N 236.496 -1.42363 0.676048 0
M  V30 2504 C 237.443 -2.308 -0.00150904 0
M  V30 2505 C 238.413 -1.46032 -0.791444 0
M  V30 2506 O 239.598 -1.74861 -0.76344 0
M  V30 2507 C 236.738 -3.31883 -0.945919 0
M  V30 2508 C 235.851 -4.31741 -0.149675 0
M  V30 2509 C 234.986 -5.19898 -1.08995 0
M  V30 2510 C 234.025 -6.11434 -0.285465 0
M  V30 2511 N 233.162 -6.92138 -1.17851 0
M  V30 2512 H 238.002 -2.88187 0.758455 0
M  V30 2513 H 235.539 -1.41952 0.38576 0
M  V30 2514 H 237.497 -3.89019 -1.50731 0
M  V30 2515 H 236.127 -2.76093 -1.6725 0
M  V30 2516 H 235.179 -3.76713 0.528359 0
M  V30 2517 H 236.491 -4.96534 0.474866 0
M  V30 2518 H 235.645 -5.81772 -1.72123 0
M  V30 2519 H 234.384 -4.55284 -1.74837 0
M  V30 2520 H 233.389 -5.48627 0.359018 0
M  V30 2521 H 234.614 -6.78097 0.368883 0
M  V30 2522 H 232.56 -6.30152 -1.82332 0
M  V30 2523 H 232.477 -7.53542 -0.609082 0
M  V30 2524 H 233.745 -7.58499 -1.79722 0
M  V30 2525 N 237.974 -0.419461 -1.51915 0
M  V30 2526 C 239.222 0.152637 -2.01523 0
M  V30 2527 C 239.543 1.44762 -1.30649 0
M  V30 2528 O 238.813 1.90997 -0.435535 0
M  V30 2529 H 237.393 0.0593966 -0.744635 0
M  V30 2530 H 240.055 -0.558073 -1.86739 0
M  V30 2531 H 239.151 0.341369 -3.10227 0
M  V30 2532 N 239.452 1.56882 -0.150215 0
M  V30 2533 C 240.362 2.20494 0.801222 0
M  V30 2534 C 241.378 1.19019 1.26927 0
M  V30 2535 O 242.554 1.51607 1.32579 0
M  V30 2536 C 239.619 2.81659 2.02161 0
M  V30 2537 C 238.68 3.9827 1.60249 0
M  V30 2538 C 237.913 4.56508 2.7647 0
M  V30 2539 O 238.136 4.13627 3.92771 0
M  V30 2540 O 237.07 5.46719 2.51757 0
M  V30 2541 H 240.896 3.02315 0.289717 0
M  V30 2542 H 238.481 1.49202 0.0769684 0
M  V30 2543 H 240.363 3.20522 2.73576 0
M  V30 2544 H 239.038 2.02849 2.52258 0
M  V30 2545 H 237.945 3.64117 0.858477 0
M  V30 2546 H 239.278 4.78609 1.14864 0
M  V30 2547 N 240.93 -0.123565 1.57115 0
M  V30 2548 C 242.341 -0.681198 1.73829 0
M  V30 2549 C 242.692 -1.80535 0.768214 0
M  V30 2550 O 241.817 -2.16317 -0.0599103 0
M  V30 2551 C 242.412 -1.24246 3.15196 0
M  V30 2552 C 240.971 -1.74643 3.33432 0
M  V30 2553 C 240.118 -0.644284 2.69711 0
M  V30 2554 H 243.069 0.102315 1.5837 0
M  V30 2555 H 243.09 -2.11216 3.16493 0
M  V30 2556 H 242.602 -0.424062 3.85776 0
M  V30 2557 H 240.703 -2.58974 2.67886 0
M  V30 2558 H 240.816 -1.85902 4.41562 0
M  V30 2559 H 239.18 -1.07676 2.3082 0
M  V30 2560 H 239.963 0.163058 3.42913 0
M  V30 2561 N 242.408 -1.52605 -0.393616 0
M  V30 2562 C 243.371 -1.76415 -1.46323 0
M  V30 2563 C 244.371 -0.634126 -1.47768 0
M  V30 2564 O 245.561 -0.902142 -1.4902 0
M  V30 2565 C 242.693 -1.8607 -2.85641 0
M  V30 2566 H 243.886 -2.71916 -1.26498 0
M  V30 2567 H 241.439 -1.43257 -0.625073 0
M  V30 2568 H 242.174 -0.925378 -3.10817 0
M  V30 2569 H 241.959 -2.68235 -2.85993 0
M  V30 2570 H 243.449 -2.06179 -3.63153 0
M  V30 2571 N 243.887 0.651787 -1.4349 0
M  V30 2572 C 245.115 1.43937 -1.48626 0
M  V30 2573 C 245.53 1.8851 -0.104587 0
M  V30 2574 O 244.887 1.5958 0.885464 0
M  V30 2575 C 244.938 2.6734 -2.43334 0
M  V30 2576 O 244.659 2.24631 -3.76128 0
M  V30 2577 C 246.16 3.60683 -2.57726 0
M  V30 2578 H 243.38 0.44213 -0.504739 0
M  V30 2579 H 245.924 0.798944 -1.88248 0
M  V30 2580 H 244.079 3.2752 -2.06904 0
M  V30 2581 H 244.493 3.04485 -4.2707 0
M  V30 2582 H 245.967 4.43933 -3.28067 0
M  V30 2583 H 246.444 4.08126 -1.62265 0
M  V30 2584 H 247.05 3.06384 -2.94973 0
M  V30 2585 N 245.365 1.30045 0.890287 0
M  V30 2586 C 246.613 1.18327 1.63839 0
M  V30 2587 C 246.934 -0.263455 1.93212 0
M  V30 2588 O 246.204 -1.17856 1.56482 0
M  V30 2589 H 244.784 0.434933 0.607324 0
M  V30 2590 H 247.446 1.631 1.06698 0
M  V30 2591 H 246.542 1.74024 2.59079 0
M  V30 2592 N 246.843 -1.10192 1.12674 0
M  V30 2593 C 247.79 -2.16606 0.796906 0
M  V30 2594 C 248.76 -1.64394 -0.237476 0
M  V30 2595 O 249.945 -1.90474 -0.111484 0
M  V30 2596 C 247.085 -3.44116 0.26043 0
M  V30 2597 C 246.198 -4.10268 1.35293 0
M  V30 2598 C 245.333 -5.25507 0.775621 0
M  V30 2599 C 244.372 -5.83567 1.84706 0
M  V30 2600 N 243.509 -6.90179 1.28829 0
M  V30 2601 H 248.349 -2.44163 1.70846 0
M  V30 2602 H 245.886 -1.19846 0.85295 0
M  V30 2603 H 247.844 -4.17143 -0.0686814 0
M  V30 2604 H 246.474 -3.16901 -0.614274 0
M  V30 2605 H 245.526 -3.35184 1.79877 0
M  V30 2606 H 246.838 -4.4946 2.16303 0
M  V30 2607 H 245.992 -6.05398 0.397327 0
M  V30 2608 H 244.731 -4.87656 -0.0656581 0
M  V30 2609 H 243.736 -5.02344 2.23452 0
M  V30 2610 H 244.961 -6.23482 2.69161 0
M  V30 2611 H 242.907 -6.54322 0.468881 0
M  V30 2612 H 242.824 -7.28097 2.03497 0
M  V30 2613 H 244.092 -7.73844 0.937311 0
M  V30 2614 N 248.321 -0.919034 -1.28029 0
M  V30 2615 C 249.737 -0.617972 -1.4715 0
M  V30 2616 C 249.937 0.835242 -1.83374 0
M  V30 2617 O 248.993 1.61388 -1.94191 0
M  V30 2618 C 250.306 -1.56041 -2.57044 0
M  V30 2619 C 251.854 -1.56769 -2.7091 0
M  V30 2620 C 252.329 -2.49688 -3.83953 0
M  V30 2621 N 253.82 -2.47845 -3.91314 0
M  V30 2622 C 254.555 -3.16437 -4.78179 0
M  V30 2623 N 254.051 -3.94376 -5.69596 0
M  V30 2624 N 255.844 -3.05498 -4.71834 0
M  V30 2625 H 247.995 -1.85866 -1.02798 0
M  V30 2626 H 250.258 -0.797506 -0.512531 0
M  V30 2627 H 249.964 -2.59671 -2.372 0
M  V30 2628 H 249.838 -1.29551 -3.54255 0
M  V30 2629 H 252.225 -0.538745 -2.90141 0
M  V30 2630 H 252.306 -1.87305 -1.74214 0
M  V30 2631 H 251.95 -3.52688 -3.65477 0
M  V30 2632 H 251.88 -2.16453 -4.80058 0
M  V30 2633 H 254.371 -1.91234 -3.25941 0
M  V30 2634 H 254.684 -4.43721 -6.32718 0
M  V30 2635 H 253.029 -3.98481 -5.69419 0
M  V30 2636 H 256.22 -2.44108 -3.99411 0
M  V30 2637 H 256.393 -3.59225 -5.39316 0
M  V30 2638 N 249.799 1.42003 -0.683588 0
M  V30 2639 C 250.731 2.29183 0.0283068 0
M  V30 2640 C 251.744 1.4415 0.756611 0
M  V30 2641 O 252.933 1.67779 0.609306 0
M  V30 2642 C 250.033 3.21765 1.06398 0
M  V30 2643 C 249.206 4.35496 0.407723 0
M  V30 2644 C 248.265 5.08737 1.34437 0
M  V30 2645 O 247.291 5.62948 0.841318 0
M  V30 2646 N 248.493 5.15075 2.67728 0
M  V30 2647 H 251.258 2.9092 -0.720105 0
M  V30 2648 H 248.819 1.53025 -0.528682 0
M  V30 2649 H 250.811 3.6763 1.69204 0
M  V30 2650 H 249.381 2.61418 1.71404 0
M  V30 2651 H 248.601 3.92165 -0.400012 0
M  V30 2652 H 249.889 5.08776 -0.0490956 0
M  V30 2653 H 249.287 4.72457 3.11129 0
M  V30 2654 H 247.844 5.64556 3.2576 0
M  V30 2655 N 251.277 0.427512 1.51691 0
M  V30 2656 C 252.224 -0.388867 2.275 0
M  V30 2657 C 253.194 -1.02532 1.30677 0
M  V30 2658 O 254.379 -1.0461 1.59566 0
M  V30 2659 C 251.519 -1.48954 3.11298 0
M  V30 2660 C 250.632 -0.872194 4.23104 0
M  V30 2661 C 249.767 -1.94709 4.94228 0
M  V30 2662 C 248.806 -1.30766 5.97969 0
M  V30 2663 N 247.943 -2.32349 6.62539 0
M  V30 2664 H 252.783 0.263997 2.96828 0
M  V30 2665 H 250.32 0.142033 1.46413 0
M  V30 2666 H 252.278 -2.13887 3.58201 0
M  V30 2667 H 250.908 -2.11217 2.44105 0
M  V30 2668 H 249.96 -0.111419 3.80237 0
M  V30 2669 H 251.272 -0.365264 4.97461 0
M  V30 2670 H 250.426 -2.67327 5.44629 0
M  V30 2671 H 249.165 -2.48773 4.1948 0
M  V30 2672 H 248.17 -0.566902 5.4687 0
M  V30 2673 H 249.395 -0.774483 6.74669 0
M  V30 2674 H 247.341 -2.85511 5.90609 0
M  V30 2675 H 247.258 -1.8652 7.3263 0
M  V30 2676 H 248.526 -3.04481 7.17574 0
M  V30 2677 N 252.755 -1.56801 0.158532 0
M  V30 2678 C 254.004 -1.95665 -0.489702 0
M  V30 2679 C 254.317 -1.04654 -1.65248 0
M  V30 2680 O 255.523 -1.33146 -2.3661 0
M  V30 2681 C 253.979 -3.47874 -0.922582 0
M  V30 2682 C 253.587 -4.47489 0.213893 0
M  V30 2683 C 255.331 -3.95583 -1.53996 0
M  V30 2684 C 253.238 -5.90921 -0.237903 0
M  V30 2685 H 252.168 -0.730516 -0.186716 0
M  V30 2686 H 254.819 -1.81861 0.244722 0
M  V30 2687 H 253.201 -3.57051 -1.71261 0
M  V30 2688 H 254.375 -4.50017 0.991036 0
M  V30 2689 H 252.69 -4.09764 0.740407 0
M  V30 2690 H 255.287 -5.0019 -1.8898 0
M  V30 2691 H 255.63 -3.37789 -2.43319 0
M  V30 2692 H 256.163 -3.8937 -0.814611 0
M  V30 2693 H 252.902 -6.52559 0.620236 0
M  V30 2694 H 252.422 -5.91729 -0.980676 0
M  V30 2695 H 254.101 -6.43352 -0.686067 0
M  V30 2696 N 254.233 0.115231 -1.57178 0
M  V30 2697 C 255.143 1.15994 -2.03918 0
M  V30 2698 C 256.159 1.45103 -0.960268 0
M  V30 2699 O 257.335 1.56144 -1.27204 0
M  V30 2700 C 254.4 2.46568 -2.43732 0
M  V30 2701 C 253.461 2.24822 -3.65723 0
M  V30 2702 C 252.694 3.4917 -4.03629 0
M  V30 2703 O 252.917 4.56623 -3.41835 0
M  V30 2704 O 251.851 3.39949 -4.96708 0
M  V30 2705 H 255.677 0.793019 -2.93164 0
M  V30 2706 H 253.262 0.3263 -1.45793 0
M  V30 2707 H 255.144 3.23492 -2.70057 0
M  V30 2708 H 253.819 2.82726 -1.57631 0
M  V30 2709 H 252.726 1.45744 -3.44542 0
M  V30 2710 H 254.059 1.93566 -4.52541 0
M  V30 2711 N 255.711 1.52812 0.385517 0
M  V30 2712 C 256.957 1.68275 1.13188 0
M  V30 2713 C 257.29 0.423179 1.89533 0
M  V30 2714 O 256.565 -0.579113 1.85679 0
M  V30 2715 C 256.848 2.92001 2.1073 0
M  V30 2716 C 256.701 4.28067 1.38125 0
M  V30 2717 C 258.02 3.11283 3.11113 0
M  V30 2718 H 255.139 0.612352 0.410115 0
M  V30 2719 H 257.781 1.85415 0.414869 0
M  V30 2720 H 255.931 2.77519 2.71874 0
M  V30 2721 H 257.603 4.54324 0.799187 0
M  V30 2722 H 255.846 4.28388 0.683092 0
M  V30 2723 H 256.517 5.10733 2.09417 0
M  V30 2724 H 258.993 3.2482 2.6006 0
M  V30 2725 H 257.869 3.99325 3.76605 0
M  V30 2726 H 258.13 2.25656 3.80173 0
M  V30 2727 N 257.189 -0.644168 1.43834 0
M  V30 2728 C 258.437 -1.40117 1.45642 0
M  V30 2729 C 258.758 -1.94814 0.0852413 0
M  V30 2730 O 258.028 -1.74988 -0.880688 0
M  V30 2731 H 256.608 -0.52005 0.536243 0
M  V30 2732 H 259.27 -0.7591 1.7951 0
M  V30 2733 H 258.366 -2.23902 2.17427 0
M  V30 2734 N 258.668 -1.30515 -0.883378 0
M  V30 2735 C 259.598 -1.19607 -2.00541 0
M  V30 2736 C 260.579 -0.086346 -1.69881 0
M  V30 2737 O 261.764 -0.268654 -1.92333 0
M  V30 2738 C 258.894 -0.888758 -3.35736 0
M  V30 2739 C 257.848 -1.95659 -3.8066 0
M  V30 2740 C 257.174 -1.50224 -5.13164 0
M  V30 2741 C 258.474 -3.36788 -3.99213 0
M  V30 2742 H 260.168 -2.13476 -2.09925 0
M  V30 2743 H 257.714 -1.02775 -1.00863 0
M  V30 2744 H 259.667 -0.799094 -4.13754 0
M  V30 2745 H 258.391 0.0856125 -3.26488 0
M  V30 2746 H 257.05 -2.03591 -3.04871 0
M  V30 2747 H 256.698 -0.516092 -5.00345 0
M  V30 2748 H 256.398 -2.2165 -5.44192 0
M  V30 2749 H 257.922 -1.42639 -5.93706 0
M  V30 2750 H 259.336 -3.31605 -4.67665 0
M  V30 2751 H 257.733 -4.06314 -4.41621 0
M  V30 2752 H 258.803 -3.78561 -3.03017 0
M  V30 2753 N 260.146 1.09593 -1.13257 0
M  V30 2754 C 261.392 1.82003 -0.89458 0
M  V30 2755 C 261.725 1.85402 0.577906 0
M  V30 2756 O 261 1.32099 1.42759 0
M  V30 2757 C 261.283 3.28237 -1.48096 0
M  V30 2758 C 261.136 3.3312 -3.02244 0
M  V30 2759 C 262.455 4.24871 -1.14774 0
M  V30 2760 H 259.574 0.66077 -0.326424 0
M  V30 2761 H 262.216 1.28389 -1.40058 0
M  V30 2762 H 260.366 3.74024 -1.05062 0
M  V30 2763 H 262.038 2.95748 -3.54021 0
M  V30 2764 H 260.281 2.72756 -3.37323 0
M  V30 2765 H 260.952 4.3613 -3.38371 0
M  V30 2766 H 263.428 3.87361 -1.51957 0
M  V30 2767 H 262.304 5.25532 -1.58452 0
M  V30 2768 H 262.565 4.42058 -0.0611849 0
M  V30 2769 N 261.624 0.925811 1.2754 0
M  V30 2770 C 262.87 0.566092 1.94739 0
M  V30 2771 C 263.203 -0.890057 1.72603 0
M  V30 2772 O 262.478 -1.63467 1.05399 0
M  V30 2773 C 262.761 0.89054 3.48915 0
M  V30 2774 C 262.614 2.4003 3.80402 0
M  V30 2775 C 263.933 0.395101 4.38323 0
M  V30 2776 H 261.052 0.20714 0.707292 0
M  V30 2777 H 263.694 1.15725 1.50691 0
M  V30 2778 H 261.844 0.387452 3.86563 0
M  V30 2779 H 263.516 2.97494 3.52555 0
M  V30 2780 H 261.759 2.85028 3.2702 0
M  V30 2781 H 262.43 2.57785 4.8811 0
M  V30 2782 H 264.906 0.826241 4.07814 0
M  V30 2783 H 263.782 0.651086 5.45025 0
M  V30 2784 H 264.043 -0.704798 4.36446 0
M  V30 2785 N 263.102 -1.41638 0.69111 0
M  V30 2786 C 264.35 -2.00902 0.219758 0
M  V30 2787 C 264.671 -1.54994 -1.18329 0
M  V30 2788 O 263.941 -0.778628 -1.79762 0
M  V30 2789 H 262.521 -0.74289 0.0782558 0
M  V30 2790 H 265.183 -1.73327 0.891271 0
M  V30 2791 H 264.279 -3.11224 0.233708 0
M  V30 2792 N 264.58 -0.43555 -1.51462 0
M  V30 2793 C 265.528 0.391205 -2.29287 0
M  V30 2794 C 266.522 1.02247 -1.35062 0
M  V30 2795 O 267.728 0.957646 -1.52411 0
M  V30 2796 H 264.103 0.144968 -0.737895 0
M  V30 2797 H 266.074 -0.286051 -2.97026 0
M  V30 2798 C 264.823 1.48096 -3.14583 0
M  V30 2799 H 264.146 1.00457 -3.86973 0
M  V30 2800 H 265.586 2.03273 -3.72097 0
M  V30 2801 C 264.045 2.46321 -2.29843 0
M  V30 2802 O 264.575 3.50815 -1.95682 0
M  V30 2803 N 262.781 2.17166 -1.931 0
M  V30 2804 H 262.328 1.32218 -2.21079 0
M  V30 2805 H 262.286 2.83127 -1.36698 0
M  V30 2806 N 266.058 1.56714 -0.166846 0
M  V30 2807 C 267.283 2.01557 0.488833 0
M  V30 2808 C 267.708 1.0463 1.56314 0
M  V30 2809 O 267.066 0.0251304 1.81283 0
M  V30 2810 C 267.114 3.4503 1.04818 0
M  V30 2811 O 266.218 3.51163 2.16236 0
M  V30 2812 H 265.559 0.653516 0.117526 0
M  V30 2813 H 268.089 2.02818 -0.269421 0
M  V30 2814 H 268.099 3.84243 1.37191 0
M  V30 2815 H 266.774 4.15077 0.261572 0
M  V30 2816 H 265.351 3.23807 1.84942 0
M  V30 2817 N 267.536 -0.106894 1.57237 0
M  V30 2818 C 268.468 -1.15646 1.97885 0
M  V30 2819 C 269.481 -1.36981 0.879779 0
M  V30 2820 O 270.67 -1.35841 1.15799 0
M  V30 2821 C 267.77 -2.51425 2.27241 0
M  V30 2822 C 266.943 -2.50529 3.58545 0
M  V30 2823 C 266.002 -3.68145 3.75973 0
M  V30 2824 O 265.028 -3.51176 4.47956 0
M  V30 2825 N 266.23 -4.87177 3.15656 0
M  V30 2826 H 268.995 -0.81059 2.8853 0
M  V30 2827 H 266.556 -0.296024 1.59171 0
M  V30 2828 H 268.548 -3.28689 2.36105 0
M  V30 2829 H 267.118 -2.78147 1.42663 0
M  V30 2830 H 266.338 -1.58894 3.60758 0
M  V30 2831 H 267.626 -2.46997 4.44826 0
M  V30 2832 H 267.024 -5.03868 2.57165 0
M  V30 2833 H 265.581 -5.62075 3.30023 0
M  V30 2834 N 269.014 -1.53014 -0.377408 0
M  V30 2835 C 270.26 -1.68872 -1.12294 0
M  V30 2836 C 270.593 -0.433224 -1.89306 0
M  V30 2837 O 269.868 0.569258 -1.85983 0
M  V30 2838 C 270.151 -2.93115 -2.09179 0
M  V30 2839 C 270.004 -4.28794 -1.35853 0
M  V30 2840 C 271.323 -3.12928 -3.09458 0
M  V30 2841 H 268.442 -0.614518 -0.406862 0
M  V30 2842 H 271.084 -1.85633 -0.40503 0
M  V30 2843 H 269.234 -2.78956 -2.70399 0
M  V30 2844 H 270.906 -4.54742 -0.775082 0
M  V30 2845 H 269.149 -4.28744 -0.660364 0
M  V30 2846 H 269.82 -5.11837 -2.06706 0
M  V30 2847 H 272.296 -3.26194 -2.58334 0
M  V30 2848 H 271.172 -4.01316 -3.74482 0
M  V30 2849 H 271.433 -2.27669 -3.78971 0
M  V30 2850 N 270.492 0.636531 -1.44174 0
M  V30 2851 C 271.455 1.73063 -1.50273 0
M  V30 2852 C 272.455 1.56113 -0.385397 0
M  V30 2853 O 273.645 1.61707 -0.64781 0
M  V30 2854 C 270.777 3.12096 -1.37145 0
M  V30 2855 H 271.97 1.69031 -2.47727 0
M  V30 2856 H 269.523 0.849706 -1.31186 0
M  V30 2857 H 270.258 3.21728 -0.407636 0
M  V30 2858 H 270.043 3.25805 -2.18159 0
M  V30 2859 H 271.533 3.91846 -1.44382 0
M  V30 2860 N 271.97 1.30982 0.876444 0
M  V30 2861 C 273.217 1.20296 1.62896 0
M  V30 2862 C 273.545 -0.240395 1.93009 0
M  V30 2863 O 272.8 -1.18733 1.55567 0
M  V30 2864 C 273.099 1.98572 2.9716 0
M  V30 2865 C 272.765 3.48125 2.86566 0
M  V30 2866 C 271.427 3.88905 2.83383 0
M  V30 2867 C 273.779 4.43322 2.74071 0
M  V30 2868 C 271.107 5.2316 2.65556 0
M  V30 2869 C 273.459 5.77695 2.57781 0
M  V30 2870 C 272.123 6.17704 2.52979 0
M  V30 2871 H 271.393 0.440193 0.59608 0
M  V30 2872 H 274.04 1.62177 1.01837 0
M  V30 2873 H 272.345 1.49352 3.62217 0
M  V30 2874 H 274.042 1.8769 3.54364 0
M  V30 2875 H 270.632 3.15723 2.89856 0
M  V30 2876 H 274.816 4.12752 2.75589 0
M  V30 2877 H 270.072 5.53241 2.60259 0
M  V30 2878 H 274.246 6.51091 2.47089 0
M  V30 2879 H 271.873 7.21678 2.38924 0
M  V30 2880 N 273.449 -1.08991 1.13837 0
M  V30 2881 C 274.359 -2.19301 0.833333 0
M  V30 2882 C 275.375 -1.73026 -0.183847 0
M  V30 2883 O 276.551 -2.01395 -0.0138092 0
M  V30 2884 C 273.616 -3.45323 0.308651 0
M  V30 2885 C 272.677 -4.06255 1.38764 0
M  V30 2886 C 271.91 -5.26262 0.887896 0
M  V30 2887 O 272.133 -5.69747 -0.27287 0
M  V30 2888 O 271.067 -5.78435 1.66421 0
M  V30 2889 H 274.893 -2.47854 1.75506 0
M  V30 2890 H 272.478 -1.18012 0.916166 0
M  V30 2891 H 274.36 -4.21394 0.0216739 0
M  V30 2892 H 273.035 -3.18362 -0.585431 0
M  V30 2893 H 271.942 -3.318 1.72799 0
M  V30 2894 H 273.275 -4.37452 2.25602 0
M  V30 2895 N 274.927 -0.932562 -1.27047 0
M  V30 2896 C 275.874 -0.434072 -2.26681 0
M  V30 2897 C 276.844 0.501639 -1.58344 0
M  V30 2898 O 278.029 0.419734 -1.86126 0
M  V30 2899 C 275.169 0.30261 -3.43771 0
M  V30 2900 C 274.282 -0.667774 -4.26808 0
M  V30 2901 C 273.417 0.0892393 -5.31125 0
M  V30 2902 C 272.456 -0.873532 -6.05835 0
M  V30 2903 N 271.593 -0.148832 -7.01942 0
M  V30 2904 H 276.433 -1.28868 -2.68695 0
M  V30 2905 H 273.97 -0.646713 -1.32121 0
M  V30 2906 H 275.928 0.746092 -4.10474 0
M  V30 2907 H 274.558 1.12142 -3.02695 0
M  V30 2908 H 273.61 -1.22978 -3.59973 0
M  V30 2909 H 274.922 -1.40337 -4.78651 0
M  V30 2910 H 274.076 0.592409 -6.03801 0
M  V30 2911 H 272.815 0.85777 -4.80097 0
M  V30 2912 H 271.82 -1.38791 -5.31994 0
M  V30 2913 H 273.045 -1.64193 -6.58952 0
M  V30 2914 H 270.991 0.601365 -6.53238 0
M  V30 2915 H 270.908 -0.82391 -7.51497 0
M  V30 2916 H 272.176 0.333527 -7.78786 0
M  V30 2917 N 276.405 1.4127 -0.698611 0
M  V30 2918 C 277.368 2.29158 -0.044132 0
M  V30 2919 C 278.368 1.44529 0.704841 0
M  V30 2920 O 279.558 1.65643 0.539276 0
M  V30 2921 C 276.69 3.27459 0.947809 0
M  V30 2922 H 277.883 2.88529 -0.817994 0
M  V30 2923 H 275.436 1.49307 -0.46228 0
M  V30 2924 H 276.171 2.73073 1.74933 0
M  V30 2925 H 275.956 3.8991 0.41385 0
M  V30 2926 H 277.446 3.93311 1.40344 0
M  V30 2927 N 277.883 0.443576 1.51229 0
M  V30 2928 C 278.793 -0.370721 2.31652 0
M  V30 2929 C 279.809 -1.02186 1.40833 0
M  V30 2930 O 280.985 -1.01586 1.73903 0
M  V30 2931 C 278.05 -1.45376 3.14749 0
M  V30 2932 C 277.111 -0.822099 4.21355 0
M  V30 2933 C 276.344 -1.85353 5.0048 0
M  V30 2934 O 276.567 -3.07656 4.80316 0
M  V30 2935 O 275.501 -1.4406 5.84406 0
M  V30 2936 H 279.327 0.286002 3.0235 0
M  V30 2937 H 276.912 0.20598 1.47973 0
M  V30 2938 H 278.794 -2.08173 3.66391 0
M  V30 2939 H 277.469 -2.09445 2.46809 0
M  V30 2940 H 276.376 -0.155909 3.73775 0
M  V30 2941 H 277.709 -0.224797 4.91686 0
M  V30 2942 N 279.361 -1.56624 0.175154 0
M  V30 2943 C 280.309 -2.19468 -0.770495 0
M  V30 2944 C 281.303 -1.15985 -1.23466 0
M  V30 2945 O 282.509 -1.34176 -1.19987 0
M  V30 2946 H 278.884 -0.703095 -0.266761 0
M  V30 2947 H 280.855 -2.97613 -0.216542 0
M  V30 2948 C 279.604 -2.85264 -1.98796 0
M  V30 2949 H 278.927 -3.64623 -1.63983 0
M  V30 2950 H 280.367 -3.327 -2.62843 0
M  V30 2951 C 278.826 -1.85239 -2.81404 0
M  V30 2952 O 279.356 -1.34024 -3.78682 0
M  V30 2953 N 277.562 -1.53911 -2.46495 0
M  V30 2954 H 277.109 -1.95751 -1.67449 0
M  V30 2955 H 277.067 -0.872382 -3.02054 0
M  V30 2956 N 280.839 0.0985539 -1.57292 0
M  V30 2957 C 282.064 0.820196 -1.90493 0
M  V30 2958 C 282.489 1.71658 -0.769094 0
M  V30 2959 O 281.847 1.79133 0.279495 0
M  V30 2960 C 281.895 1.61242 -3.22542 0
M  V30 2961 O 280.999 2.72108 -3.09888 0
M  V30 2962 H 280.34 0.225547 -0.62452 0
M  V30 2963 H 282.87 0.0748159 -2.04463 0
M  V30 2964 H 282.88 1.99737 -3.55766 0
M  V30 2965 H 281.555 0.954535 -4.04798 0
M  V30 2966 H 280.132 2.36667 -2.88172 0
M  V30 2967 N 282.317 1.53212 0.369288 0
M  V30 2968 C 283.542 1.73423 1.1375 0
M  V30 2969 C 283.967 0.460404 1.82378 0
M  V30 2970 O 283.325 -0.585298 1.71592 0
M  V30 2971 C 283.373 2.89769 2.1463 0
M  V30 2972 O 282.477 2.58119 3.21634 0
M  V30 2973 H 281.818 0.576061 0.330227 0
M  V30 2974 H 284.348 2.00083 0.427547 0
M  V30 2975 H 284.358 3.15829 2.58294 0
M  V30 2976 H 283.033 3.8217 1.64071 0
M  V30 2977 H 281.61 2.42864 2.82969 0
M  V30 2978 N 283.795 -0.628877 1.44509 0
M  V30 2979 C 284.725 -1.75187 1.54376 0
M  V30 2980 C 285.706 -1.65411 0.396618 0
M  V30 2981 O 286.891 -1.84137 0.617031 0
M  V30 2982 C 284.021 -3.13725 1.48976 0
M  V30 2983 C 282.975 -3.38291 2.62189 0
M  V30 2984 C 282.301 -4.76883 2.41841 0
M  V30 2985 C 283.601 -3.30632 4.04326 0
M  V30 2986 H 285.295 -1.67187 2.48373 0
M  V30 2987 H 282.841 -0.802909 1.19538 0
M  V30 2988 H 284.794 -3.92064 1.54478 0
M  V30 2989 H 283.518 -3.22515 0.514961 0
M  V30 2990 H 282.177 -2.62334 2.56079 0
M  V30 2991 H 281.825 -4.82378 1.42548 0
M  V30 2992 H 281.525 -4.94278 3.17747 0
M  V30 2993 H 283.049 -5.57449 2.49165 0
M  V30 2994 H 284.463 -3.98873 4.11793 0
M  V30 2995 H 282.86 -3.59561 4.80454 0
M  V30 2996 H 283.93 -2.28404 4.27738 0
M  V30 2997 N 285.273 -1.31445 -0.869486 0
M  V30 2998 C 286.221 -1.19067 -1.99814 0
M  V30 2999 C 287.215 -0.0988569 -1.69111 0
M  V30 3000 O 288.421 -0.260781 -1.78101 0
M  V30 3001 H 284.796 -0.368677 -0.655425 0
M  V30 3002 H 286.767 -2.14555 -2.07385 0
M  V30 3003 C 285.516 -0.915323 -3.35436 0
M  V30 3004 H 284.839 -1.74759 -3.59582 0
M  V30 3005 H 286.279 -0.868895 -4.15001 0
M  V30 3006 C 284.738 0.381928 -3.34728 0
M  V30 3007 O 285.268 1.39857 -3.76567 0
M  V30 3008 N 283.474 0.398633 -2.87853 0
M  V30 3009 H 283.021 -0.429186 -2.54 0
M  V30 3010 H 282.979 1.26651 -2.87762 0
M  V30 3011 N 286.751 1.08385 -1.14413 0
M  V30 3012 C 287.681 2.17321 -0.854044 0
M  V30 3013 C 288.662 1.69024 0.191049 0
M  V30 3014 O 289.847 1.94141 0.0476779 0
M  V30 3015 C 286.977 3.45719 -0.330983 0
M  V30 3016 C 285.931 4.07409 -1.31155 0
M  V30 3017 C 285.257 5.30762 -0.64778 0
M  V30 3018 C 286.557 4.48665 -2.67388 0
M  V30 3019 H 288.251 2.41845 -1.76498 0
M  V30 3020 H 285.797 1.16233 -0.850051 0
M  V30 3021 H 287.75 4.21241 -0.115645 0
M  V30 3022 H 286.474 3.2075 0.615381 0
M  V30 3023 H 285.133 3.33919 -1.51306 0
M  V30 3024 H 284.781 5.02078 0.304398 0
M  V30 3025 H 284.481 5.72992 -1.30207 0
M  V30 3026 H 286.005 6.08998 -0.441972 0
M  V30 3027 H 287.419 5.15364 -2.51143 0
M  V30 3028 H 285.816 5.01814 -3.29093 0
M  V30 3029 H 286.886 3.60543 -3.24248 0
M  V30 3030 N 288.23 0.939286 1.26551 0
M  V30 3031 C 289.479 0.581601 1.93133 0
M  V30 3032 C 289.792 -0.883224 1.74524 0
M  V30 3033 O 290.998 -1.3502 2.35546 0
M  V30 3034 C 289.454 0.989425 3.46032 0
M  V30 3035 C 289.062 2.47573 3.73379 0
M  V30 3036 C 290.806 0.703544 4.18629 0
M  V30 3037 C 288.713 2.82235 5.19709 0
M  V30 3038 H 287.643 0.213803 0.723052 0
M  V30 3039 H 290.294 1.14167 1.4366 0
M  V30 3040 H 288.676 0.357902 3.94379 0
M  V30 3041 H 289.85 3.15614 3.35744 0
M  V30 3042 H 288.165 2.73471 3.1401 0
M  V30 3043 H 290.762 0.938869 5.26393 0
M  V30 3044 H 291.105 -0.359639 4.14744 0
M  V30 3045 H 291.638 1.2947 3.76141 0
M  V30 3046 H 288.377 3.87509 5.28694 0
M  V30 3047 H 287.897 2.18854 5.58447 0
M  V30 3048 H 289.576 2.70599 5.87695 0
M  V30 3049 N 289.708 -1.40897 0.706093 0
M  V30 3050 C 290.956 -2.00657 0.241054 0
M  V30 3051 C 291.277 -1.56241 -1.16678 0
M  V30 3052 O 290.547 -0.79765 -1.78926 0
M  V30 3053 H 289.127 -0.742018 0.0861308 0
M  V30 3054 H 291.789 -1.72372 0.909604 0
M  V30 3055 H 290.885 -3.10958 0.266705 0
M  V30 3056 N 291.186 -0.45159 -1.50991 0
M  V30 3057 C 292.133 0.352625 -2.2809 0
M  V30 3058 C 293.103 1.0044 -1.32291 0
M  V30 3059 O 294.288 1.02058 -1.6121 0
M  V30 3060 C 291.428 1.43983 -3.13629 0
M  V30 3061 C 290.541 0.804772 -4.24438 0
M  V30 3062 C 289.676 1.86822 -4.97263 0
M  V30 3063 C 288.715 1.21236 -5.99973 0
M  V30 3064 N 287.852 2.2178 -6.66152 0
M  V30 3065 H 292.692 -0.311186 -2.96371 0
M  V30 3066 H 290.229 -0.165308 -1.46168 0
M  V30 3067 H 292.187 2.08161 -3.61559 0
M  V30 3068 H 290.817 2.07307 -2.47434 0
M  V30 3069 H 289.869 0.0509129 -3.80366 0
M  V30 3070 H 291.181 0.286076 -4.97979 0
M  V30 3071 H 290.335 2.58628 -5.48813 0
M  V30 3072 H 289.074 2.42068 -4.23385 0
M  V30 3073 H 288.079 0.479828 -5.47702 0
M  V30 3074 H 289.304 0.667051 -6.75816 0
M  V30 3075 H 287.25 2.76079 -5.95077 0
M  V30 3076 H 287.167 1.74841 -7.35504 0
M  V30 3077 H 288.435 2.93026 -7.22327 0
M  V30 3078 N 292.664 1.56529 -0.183458 0
M  V30 3079 C 293.627 2.17324 0.728223 0
M  V30 3080 C 294.627 1.12453 1.14939 0
M  V30 3081 O 295.817 1.37902 1.06437 0
M  V30 3082 C 292.949 2.76591 1.99274 0
M  V30 3083 H 294.142 2.99241 0.198772 0
M  V30 3084 H 291.695 1.5616 0.0661391 0
M  V30 3085 H 292.43 1.98441 2.56499 0
M  V30 3086 H 292.215 3.5335 1.69959 0
M  V30 3087 H 293.705 3.23311 2.6431 0
M  V30 3088 N 294.142 -0.090211 1.57342 0
M  V30 3089 C 295.089 -1.10909 2.02405 0
M  V30 3090 C 296.059 -1.39523 0.901252 0
M  V30 3091 O 297.244 -1.50903 1.1676 0
M  V30 3092 C 294.384 -2.42277 2.45755 0
M  V30 3093 C 293.497 -2.20352 3.71576 0
M  V30 3094 C 292.632 -3.45154 4.03785 0
M  V30 3095 C 291.671 -3.18512 5.22701 0
M  V30 3096 N 290.808 -4.35593 5.50639 0
M  V30 3097 H 295.648 -0.71782 2.89225 0
M  V30 3098 H 293.185 -0.342901 1.43048 0
M  V30 3099 H 295.143 -3.18951 2.68935 0
M  V30 3100 H 293.773 -2.79242 1.61938 0
M  V30 3101 H 292.825 -1.34458 3.55844 0
M  V30 3102 H 294.137 -1.96661 4.58395 0
M  V30 3103 H 293.291 -4.30233 4.27767 0
M  V30 3104 H 292.03 -3.71904 3.15498 0
M  V30 3105 H 291.035 -2.31827 4.98534 0
M  V30 3106 H 292.26 -2.93103 6.12591 0
M  V30 3107 H 290.206 -4.6241 4.6531 0
M  V30 3108 H 290.123 -4.1511 6.31838 0
M  V30 3109 H 291.391 -5.21723 5.7916 0
M  V30 3110 N 295.62 -1.53406 -0.361157 0
M  V30 3111 C 296.848 -1.73717 -1.12383 0
M  V30 3112 C 297.263 -0.468161 -1.82904 0
M  V30 3113 O 296.62 0.559198 -1.73722 0
M  V30 3114 C 296.671 -2.90558 -2.15078 0
M  V30 3115 O 296.392 -4.12549 -1.47428 0
M  V30 3116 C 297.893 -3.22777 -3.03858 0
M  V30 3117 H 295.113 -0.580896 -0.335858 0
M  V30 3118 H 297.657 -2.00167 -0.418728 0
M  V30 3119 H 295.812 -2.66489 -2.8118 0
M  V30 3120 H 296.226 -4.78009 -2.15887 0
M  V30 3121 H 297.7 -4.07927 -3.71887 0
M  V30 3122 H 298.177 -2.38329 -3.68912 0
M  V30 3123 H 298.783 -3.48787 -2.43367 0
M  V30 3124 N 297.098 0.621204 -1.44841 0
M  V30 3125 C 298.045 1.73267 -1.5247 0
M  V30 3126 C 299.015 1.6189 -0.371611 0
M  V30 3127 O 300.2 1.81668 -0.58321 0
M  V30 3128 C 297.34 3.11545 -1.48438 0
M  V30 3129 C 296.453 3.33827 -2.74196 0
M  V30 3130 C 295.588 4.62133 -2.61929 0
M  V30 3131 C 294.627 4.77627 -3.82804 0
M  V30 3132 N 293.764 5.97219 -3.69153 0
M  V30 3133 H 298.604 1.66082 -2.47428 0
M  V30 3134 H 296.141 0.810026 -1.22788 0
M  V30 3135 H 298.099 3.91528 -1.4409 0
M  V30 3136 H 296.729 3.1772 -0.570402 0
M  V30 3137 H 295.781 2.47715 -2.88689 0
M  V30 3138 H 297.093 3.41153 -3.6389 0
M  V30 3139 H 296.247 5.50291 -2.5547 0
M  V30 3140 H 294.986 4.57182 -1.69811 0
M  V30 3141 H 293.991 3.87896 -3.89637 0
M  V30 3142 H 295.216 4.84385 -4.75971 0
M  V30 3143 H 293.162 5.93339 -2.79794 0
M  V30 3144 H 293.079 6.05644 -4.52472 0
M  V30 3145 H 294.347 6.87912 -3.66603 0
M  V30 3146 N 298.576 1.31904 0.862503 0
M  V30 3147 C 299.486 1.22161 2.00285 0
M  V30 3148 C 300.502 0.136785 1.73462 0
M  V30 3149 O 301.678 0.355994 1.98229 0
M  V30 3150 C 298.743 0.937093 3.33796 0
M  V30 3151 C 297.804 2.10957 3.73893 0
M  V30 3152 C 297.037 1.83853 5.01033 0
M  V30 3153 O 297.26 0.777274 5.65079 0
M  V30 3154 O 296.194 2.69741 5.38074 0
M  V30 3155 H 300.02 2.18008 2.11439 0
M  V30 3156 H 297.605 1.11716 0.991957 0
M  V30 3157 H 299.487 0.794583 4.13841 0
M  V30 3158 H 298.162 0.00871894 3.23699 0
M  V30 3159 H 297.069 2.30752 2.94456 0
M  V30 3160 H 298.402 3.02046 3.88625 0
M  V30 3161 N 300.054 -1.07777 1.14986 0
M  V30 3162 C 301.002 -2.16964 0.838406 0
M  V30 3163 C 301.996 -1.68372 -0.186386 0
M  V30 3164 O 303.202 -1.79951 -0.0418465 0
M  V30 3165 H 299.577 -0.708006 0.253439 0
M  V30 3166 H 301.548 -2.40454 1.76704 0
M  V30 3167 C 300.297 -3.4604 0.339335 0
M  V30 3168 H 299.62 -3.83813 1.11927 0
M  V30 3169 H 301.06 -4.23698 0.160021 0
M  V30 3170 C 299.519 -3.23569 -0.938325 0
M  V30 3171 O 300.049 -3.47752 -2.01077 0
M  V30 3172 N 298.255 -2.77079 -0.876117 0
M  V30 3173 H 297.802 -2.576 -0.00322037 0
M  V30 3174 H 297.76 -2.62422 -1.73153 0
M  V30 3175 N 301.532 -0.945985 -1.26051 0
M  V30 3176 C 302.948 -0.649045 -1.45807 0
M  V30 3177 C 303.148 0.796158 -1.85104 0
M  V30 3178 O 302.204 1.57233 -1.97571 0
M  V30 3179 C 303.517 -1.61458 -2.53677 0
M  V30 3180 C 305.065 -1.62481 -2.67524 0
M  V30 3181 C 305.54 -2.57776 -3.7857 0
M  V30 3182 N 307.031 -2.5609 -3.85969 0
M  V30 3183 C 307.766 -3.26508 -4.7136 0
M  V30 3184 N 307.262 -4.0637 -5.61102 0
M  V30 3185 N 309.055 -3.15437 -4.65248 0
M  V30 3186 H 301.206 -1.88005 -0.988328 0
M  V30 3187 H 303.469 -0.808198 -0.4955 0
M  V30 3188 H 303.175 -2.64644 -2.31638 0
M  V30 3189 H 303.049 -1.37036 -3.51427 0
M  V30 3190 H 305.436 -0.600167 -2.88933 0
M  V30 3191 H 305.517 -1.90958 -1.70202 0
M  V30 3192 H 305.161 -3.60361 -3.57913 0
M  V30 3193 H 305.091 -2.26587 -4.75359 0
M  V30 3194 H 307.582 -1.98105 -3.21812 0
M  V30 3195 H 307.895 -4.57042 -6.23164 0
M  V30 3196 H 306.24 -4.10469 -5.60839 0
M  V30 3197 H 309.431 -2.52525 -3.94143 0
M  V30 3198 H 309.604 -3.70584 -5.31575 0
M  V30 3199 N 303.011 1.40521 -0.713556 0
M  V30 3200 C 303.943 2.29191 -0.0203126 0
M  V30 3201 C 304.956 1.45723 0.725864 0
M  V30 3202 O 306.145 1.69033 0.573581 0
M  V30 3203 C 303.245 3.2395 0.995486 0
M  V30 3204 C 302.418 4.36262 0.315256 0
M  V30 3205 C 301.477 5.11474 1.23616 0
M  V30 3206 O 300.503 5.64606 0.721719 0
M  V30 3207 N 301.705 5.20638 2.56743 0
M  V30 3208 H 304.47 2.89327 -0.781652 0
M  V30 3209 H 302.031 1.51869 -0.561022 0
M  V30 3210 H 304.023 3.71137 1.61368 0
M  V30 3211 H 302.593 2.64995 1.6582 0
M  V30 3212 H 301.813 3.91228 -0.483106 0
M  V30 3213 H 303.101 5.08558 -0.157004 0
M  V30 3214 H 302.499 4.7895 3.01037 0
M  V30 3215 H 301.056 5.71339 3.13712 0
M  V30 3216 N 304.489 0.459591 1.5075 0
M  V30 3217 C 305.714 -0.0996819 2.0716 0
M  V30 3218 C 306.139 -1.33761 1.32249 0
M  V30 3219 O 305.497 -1.77551 0.366786 0
M  V30 3220 C 305.545 -0.378226 3.58611 0
M  V30 3221 O 304.649 -1.46081 3.85661 0
M  V30 3222 H 303.99 0.00791392 0.663953 0
M  V30 3223 H 306.52 0.647329 1.9409 0
M  V30 3224 H 306.53 -0.622135 4.03229 0
M  V30 3225 H 305.205 0.526439 4.12555 0
M  V30 3226 H 303.782 -1.20511 3.5289 0
M  V30 3227 N 305.967 -1.56429 0.191757 0
M  V30 3228 C 307.216 -1.9666 -0.448088 0
M  V30 3229 C 307.529 -1.08136 -1.62991 0
M  V30 3230 O 308.735 -1.38135 -2.33733 0
M  V30 3231 C 307.191 -3.49753 -0.848585 0
M  V30 3232 C 306.799 -4.46935 0.308764 0
M  V30 3233 C 308.543 -3.9876 -1.4557 0
M  V30 3234 C 306.45 -5.91293 -0.112506 0
M  V30 3235 H 305.38 -0.734312 -0.171179 0
M  V30 3236 H 308.031 -1.81301 0.283242 0
M  V30 3237 H 306.413 -3.60604 -1.63649 0
M  V30 3238 H 307.587 -4.47813 1.08627 0
M  V30 3239 H 305.902 -4.08102 0.827158 0
M  V30 3240 H 308.499 -5.04086 -1.78328 0
M  V30 3241 H 308.842 -3.42875 -2.36099 0
M  V30 3242 H 309.375 -3.9101 -0.731836 0
M  V30 3243 H 306.114 -6.51097 0.758514 0
M  V30 3244 H 305.634 -5.93676 -0.854941 0
M  V30 3245 H 307.313 -6.44663 -0.549448 0
M  V30 3246 N 307.445 0.0818655 -1.57387 0
M  V30 3247 C 308.694 0.781681 -1.85937 0
M  V30 3248 C 309.007 1.79246 -0.782957 0
M  V30 3249 O 310.213 2.54112 -0.955987 0
M  V30 3250 C 308.669 1.44109 -3.29789 0
M  V30 3251 C 308.277 0.469396 -4.45534 0
M  V30 3252 C 310.021 2.12386 -3.67549 0
M  V30 3253 C 307.928 1.13415 -5.80423 0
M  V30 3254 H 306.858 0.295682 -0.693605 0
M  V30 3255 H 309.509 0.0348051 -1.83467 0
M  V30 3256 H 307.891 2.23588 -3.2684 0
M  V30 3257 H 309.065 -0.294856 -4.59856 0
M  V30 3258 H 307.38 -0.108383 -4.16259 0
M  V30 3259 H 309.977 2.62878 -4.65617 0
M  V30 3260 H 310.32 2.91877 -2.96839 0
M  V30 3261 H 310.853 1.39751 -3.72444 0
M  V30 3262 H 307.592 0.379771 -6.54399 0
M  V30 3263 H 307.112 1.8695 -5.69921 0
M  V30 3264 H 308.791 1.65686 -6.25426 0
M  V30 3265 N 308.923 1.53595 0.353017 0
M  V30 3266 C 309.871 1.81605 1.45335 0
M  V30 3267 C 310.865 0.685923 1.54892 0
M  V30 3268 O 312.071 0.869095 1.57628 0
M  V30 3269 H 308.446 0.575204 0.484401 0
M  V30 3270 H 310.417 2.73679 1.18921 0
M  V30 3271 C 309.166 2.03406 2.81995 0
M  V30 3272 H 308.489 2.89814 2.75405 0
M  V30 3273 H 309.929 2.26975 3.58132 0
M  V30 3274 C 308.388 0.816794 3.26849 0
M  V30 3275 O 308.918 0.0115856 4.01698 0
M  V30 3276 N 307.124 0.636682 2.8354 0
M  V30 3277 H 306.671 1.2931 2.22793 0
M  V30 3278 H 306.629 -0.176336 3.13905 0
M  V30 3279 N 310.401 -0.613514 1.45168 0
M  V30 3280 C 311.812 -1.19539 1.43413 0
M  V30 3281 C 312.163 -1.95558 0.158632 0
M  V30 3282 O 311.288 -2.0335 -0.740119 0
M  V30 3283 C 311.883 -2.17445 2.59813 0
M  V30 3284 C 310.442 -2.71022 2.61197 0
M  V30 3285 C 309.589 -1.46323 2.35552 0
M  V30 3286 H 312.54 -0.403163 1.53494 0
M  V30 3287 H 312.561 -3.00373 2.33574 0
M  V30 3288 H 312.073 -1.62089 3.52631 0
M  V30 3289 H 310.174 -3.30332 1.7237 0
M  V30 3290 H 310.287 -3.15859 3.60236 0
M  V30 3291 H 308.651 -1.75072 1.84992 0
M  V30 3292 H 309.434 -0.92844 3.30507 0
M  V30 3293 N 311.879 -1.3236 -0.855495 0
M  V30 3294 C 313.156 -1.13491 -1.59309 0
M  V30 3295 C 313.536 0.30503 -2.08885 0
M  V30 3296 O 312.884 1.30151 -1.87811 0
M  V30 3297 C 313.094 -2.16176 -2.73987 0
M  V30 3298 C 314.442 -2.49463 -3.43589 0
M  V30 3299 O 315.466 -2.14715 -2.84211 0
M  V30 3300 O 314.325 -3.09027 -4.50738 0
M  V30 3301 H 311.419 -0.437887 -0.701559 0
M  V30 3302 H 313.965 -1.43887 -0.899696 0
M  V30 3303 H 312.737 -3.1297 -2.34873 0
M  V30 3304 H 312.36 -1.86769 -3.51003 0
M  V30 3305 N 313.357 1.07166 -1.15556 0
M  V30 3306 C 314.603 1.80222 -0.942961 0
M  V30 3307 C 314.958 1.85121 0.524209 0
M  V30 3308 O 314.251 1.32531 1.38369 0
M  V30 3309 C 314.445 3.24707 -1.49332 0
M  V30 3310 C 314.274 3.33887 -3.01247 0
M  V30 3311 C 313.044 3.44337 -3.69811 0
M  V30 3312 C 315.242 3.24484 -3.99017 0
M  V30 3313 N 313.224 3.42439 -5.09518 0
M  V30 3314 C 314.595 3.29726 -5.25053 0
M  V30 3315 C 316.65 3.08307 -3.90962 0
M  V30 3316 C 315.353 3.20455 -6.43973 0
M  V30 3317 C 317.379 3.00371 -5.09442 0
M  V30 3318 C 316.741 3.06227 -6.34354 0
M  V30 3319 H 312.84 0.672709 -0.398731 0
M  V30 3320 H 315.424 1.27905 -1.46794 0
M  V30 3321 H 313.595 3.7544 -0.994946 0
M  V30 3322 H 315.327 3.85894 -1.21935 0
M  V30 3323 H 312.082 3.48762 -3.20409 0
M  V30 3324 H 312.506 3.45013 -5.8249 0
M  V30 3325 H 317.148 3.02633 -2.95251 0
M  V30 3326 H 314.866 3.24888 -7.39914 0
M  V30 3327 H 318.452 2.88955 -5.04971 0
M  V30 3328 H 317.332 3.00132 -7.24493 0
M  V30 3329 N 314.835 0.952656 1.25548 0
M  V30 3330 C 315.783 0.462354 2.27958 0
M  V30 3331 C 316.777 -0.46634 1.62855 0
M  V30 3332 O 317.983 -0.343287 1.76696 0
M  V30 3333 H 314.358 0.13101 0.7405 0
M  V30 3334 H 316.329 1.33839 2.66702 0
M  V30 3335 C 315.078 -0.24628 3.46827 0
M  V30 3336 H 314.401 0.459192 3.97154 0
M  V30 3337 H 315.841 -0.553393 4.20373 0
M  V30 3338 C 314.3 -1.4681 3.0323 0
M  V30 3339 O 314.83 -2.56591 3.09069 0
M  V30 3340 N 313.036 -1.32874 2.58443 0
M  V30 3341 H 312.583 -0.435536 2.53891 0
M  V30 3342 H 312.541 -2.14742 2.29637 0
M  V30 3343 N 316.313 -1.40141 0.720998 0
M  V30 3344 C 317.56 -2.00787 0.262842 0
M  V30 3345 C 317.888 -1.5718 -1.14563 0
M  V30 3346 O 317.143 -0.785391 -1.79249 0
M  V30 3347 C 317.442 -3.56165 0.296892 0
M  V30 3348 C 317.108 -4.19373 1.65641 0
M  V30 3349 C 315.77 -4.36352 2.02855 0
M  V30 3350 C 318.122 -4.54578 2.54968 0
M  V30 3351 C 315.45 -4.8582 3.28931 0
M  V30 3352 C 317.802 -5.05447 3.80402 0
M  V30 3353 C 316.466 -5.20635 4.17726 0
M  V30 3354 H 315.736 -0.734731 0.0961807 0
M  V30 3355 H 318.383 -1.67673 0.925093 0
M  V30 3356 H 316.688 -3.8922 -0.448932 0
M  V30 3357 H 318.385 -4.00929 -0.0755208 0
M  V30 3358 H 314.975 -4.06549 1.35704 0
M  V30 3359 H 319.159 -4.41091 2.27491 0
M  V30 3360 H 314.415 -4.95764 3.57811 0
M  V30 3361 H 318.589 -5.31663 4.49786 0
M  V30 3362 H 316.216 -5.58728 5.15487 0
M  V30 3363 N 317.792 -0.46758 -1.50504 0
M  V30 3364 C 318.702 0.33382 -2.32213 0
M  V30 3365 C 319.718 0.999323 -1.42441 0
M  V30 3366 O 320.894 0.988068 -1.75497 0
M  V30 3367 C 317.959 1.4035 -3.17022 0
M  V30 3368 C 317.02 0.754961 -4.2261 0
M  V30 3369 C 316.253 1.77367 -5.03365 0
M  V30 3370 O 316.476 2.99976 -4.8515 0
M  V30 3371 O 315.41 1.34744 -5.86624 0
M  V30 3372 H 319.236 -0.334067 -3.01857 0
M  V30 3373 H 316.821 -0.229496 -1.47627 0
M  V30 3374 H 318.703 2.02318 -3.69656 0
M  V30 3375 H 317.378 2.05492 -2.5011 0
M  V30 3376 H 316.285 0.0964244 -3.73976 0
M  V30 3377 H 317.618 0.146545 -4.91982 0
M  V30 3378 N 319.27 1.56325 -0.20005 0
M  V30 3379 C 320.217 2.1932 0.718833 0
M  V30 3380 C 321.187 1.14198 1.20615 0
M  V30 3381 O 322.372 1.42469 1.26914 0
M  V30 3382 C 319.512 2.86041 1.93066 0
M  V30 3383 C 318.625 4.05702 1.48425 0
M  V30 3384 C 317.76 4.60266 2.65196 0
M  V30 3385 C 316.799 5.72273 2.17185 0
M  V30 3386 N 315.936 6.21221 3.27152 0
M  V30 3387 H 320.776 2.97486 0.17489 0
M  V30 3388 H 318.313 1.46911 0.0745794 0
M  V30 3389 H 320.271 3.22897 2.64184 0
M  V30 3390 H 318.901 2.1043 2.44783 0
M  V30 3391 H 317.953 3.74475 0.668755 0
M  V30 3392 H 319.265 4.86699 1.09204 0
M  V30 3393 H 318.419 4.99453 3.4443 0
M  V30 3394 H 317.158 3.78386 3.07693 0
M  V30 3395 H 316.163 5.3261 1.36407 0
M  V30 3396 H 317.388 6.55974 1.75713 0
M  V30 3397 H 315.334 5.42263 3.69171 0
M  V30 3398 H 315.251 6.97284 2.92116 0
M  V30 3399 H 316.519 6.65063 4.06585 0
M  V30 3400 N 320.748 -0.0735177 1.57428 0
M  V30 3401 C 321.681 -1.11932 1.98863 0
M  V30 3402 C 322.659 -1.37666 0.865266 0
M  V30 3403 O 323.843 -1.51068 1.12742 0
M  V30 3404 C 320.97 -2.46403 2.32386 0
M  V30 3405 C 320.016 -2.36815 3.54713 0
M  V30 3406 S 320.849 -1.76392 5.05614 0
M  V30 3407 C 322.005 -3.12444 5.42337 0
M  V30 3408 H 322.238 -0.766212 2.87257 0
M  V30 3409 H 319.771 -0.281987 1.51803 0
M  V30 3410 H 321.729 -3.23755 2.52375 0
M  V30 3411 H 320.39 -2.78876 1.44524 0
M  V30 3412 H 319.583 -3.35977 3.7568 0
M  V30 3413 H 319.185 -1.67598 3.34345 0
M  V30 3414 H 321.477 -4.08753 5.40303 0
M  V30 3415 H 322.42 -2.96258 6.43146 0
M  V30 3416 H 322.828 -3.1297 4.69798 0
M  V30 3417 N 322.226 -1.5378 -0.344866 0
M  V30 3418 C 323.474 -1.70625 -1.08311 0
M  V30 3419 C 323.795 -0.471447 -1.89215 0
M  V30 3420 O 323.065 0.514616 -1.8902 0
M  V30 3421 H 321.645 -0.629058 -0.402859 0
M  V30 3422 H 324.307 -1.9103 -0.386459 0
M  V30 3423 H 323.403 -2.57656 -1.76124 0
M  V30 3424 N 323.704 0.605807 -1.45491 0
M  V30 3425 C 324.953 1.36086 -1.48874 0
M  V30 3426 C 325.266 1.95131 -0.135333 0
M  V30 3427 O 326.472 2.7146 -0.0468144 0
M  V30 3428 C 324.928 2.46518 -2.62215 0
M  V30 3429 C 324.536 1.93877 -4.03876 0
M  V30 3430 C 326.28 3.23512 -2.74846 0
M  V30 3431 C 324.187 3.01801 -5.08596 0
M  V30 3432 H 323.117 0.511497 -0.553974 0
M  V30 3433 H 325.768 0.649089 -1.71636 0
M  V30 3434 H 324.15 3.20388 -2.32739 0
M  V30 3435 H 325.324 1.26704 -4.43038 0
M  V30 3436 H 323.639 1.29622 -3.95711 0
M  V30 3437 H 326.236 4.04013 -3.50253 0
M  V30 3438 H 326.579 3.74631 -1.81542 0
M  V30 3439 H 327.112 2.56742 -3.03856 0
M  V30 3440 H 323.851 2.55597 -6.03614 0
M  V30 3441 H 323.371 3.67535 -4.74002 0
M  V30 3442 H 325.05 3.66152 -5.33424 0
M  V30 3443 N 325.182 1.32811 0.848464 0
M  V30 3444 C 326.43 1.23479 1.59991 0
M  V30 3445 C 326.751 -0.201853 1.93952 0
M  V30 3446 O 326.021 -1.12818 1.60153 0
M  V30 3447 H 324.601 0.454034 0.593179 0
M  V30 3448 H 327.263 1.66412 1.01455 0
M  V30 3449 H 326.359 1.82178 2.53412 0
M  V30 3450 N 326.66 -1.06551 1.16123 0
M  V30 3451 C 327.908 -1.78947 0.939267 0
M  V30 3452 C 328.229 -1.87532 -0.534476 0
M  V30 3453 O 327.499 -1.38211 -1.38833 0
M  V30 3454 H 326.079 -0.662807 0.344523 0
M  V30 3455 H 328.741 -1.28725 1.46342 0
M  V30 3456 H 327.837 -2.81117 1.35572 0
M  V30 3457 N 328.138 -0.959301 -1.25041 0
M  V30 3458 C 329.068 -0.501388 -2.28053 0
M  V30 3459 C 330.049 0.454673 -1.63911 0
M  V30 3460 O 331.234 0.352618 -1.90972 0
M  V30 3461 C 328.364 0.217224 -3.4662 0
M  V30 3462 C 327.318 -0.654034 -4.22973 0
M  V30 3463 C 326.644 0.195589 -5.34342 0
M  V30 3464 C 327.944 -1.93447 -4.85155 0
M  V30 3465 H 329.638 -1.36238 -2.66608 0
M  V30 3466 H 327.184 -0.656534 -1.28163 0
M  V30 3467 H 329.137 0.548732 -4.17812 0
M  V30 3468 H 327.861 1.1125 -3.07068 0
M  V30 3469 H 326.52 -0.968693 -3.5357 0
M  V30 3470 H 326.168 1.09076 -4.91031 0
M  V30 3471 H 325.868 -0.384091 -5.86343 0
M  V30 3472 H 327.392 0.521958 -6.08365 0
M  V30 3473 H 328.806 -1.66908 -5.48466 0
M  V30 3474 H 327.203 -2.46018 -5.47353 0
M  V30 3475 H 328.273 -2.63466 -4.07079 0
M  V30 3476 N 329.616 1.39756 -0.72842 0
M  V30 3477 C 330.893 1.94574 -0.200079 0
M  V30 3478 C 331.273 1.66569 1.29684 0
M  V30 3479 O 330.621 0.990326 2.05924 0
M  V30 3480 C 330.831 3.45004 -0.526608 0
M  V30 3481 C 332.179 4.21965 -0.472318 0
M  V30 3482 O 333.203 3.53173 -0.463413 0
M  V30 3483 O 332.062 5.44552 -0.461075 0
M  V30 3484 H 329.156 0.826289 -0.0342851 0
M  V30 3485 H 331.702 1.49293 -0.806829 0
M  V30 3486 H 330.474 3.58796 -1.56144 0
M  V30 3487 H 330.097 3.97449 0.109449 0
M  V30 3488 N 331.094 0.475555 1.50254 0
M  V30 3489 C 332.041 -0.316293 2.28622 0
M  V30 3490 C 333.011 -0.983227 1.33873 0
M  V30 3491 O 334.196 -0.994805 1.62814 0
M  V30 3492 C 331.336 -1.38975 3.1588 0
M  V30 3493 C 330.449 -0.737146 4.25664 0
M  V30 3494 C 329.584 -1.78887 5.00173 0
M  V30 3495 C 328.623 -1.11676 6.01826 0
M  V30 3496 N 327.76 -2.11154 6.69596 0
M  V30 3497 H 332.6 0.358297 2.95838 0
M  V30 3498 H 330.137 0.188541 1.45887 0
M  V30 3499 H 332.095 -2.02383 3.64825 0
M  V30 3500 H 330.725 -2.03344 2.50701 0
M  V30 3501 H 329.777 0.0096065 3.80399 0
M  V30 3502 H 331.089 -0.206816 4.98371 0
M  V30 3503 H 330.243 -2.49865 5.52859 0
M  V30 3504 H 328.982 -2.35302 4.27182 0
M  V30 3505 H 327.987 -0.392633 5.48396 0
M  V30 3506 H 329.212 -0.55945 6.76792 0
M  V30 3507 H 327.158 -2.66577 5.99394 0
M  V30 3508 H 327.075 -1.63118 7.38193 0
M  V30 3509 H 328.343 -2.81497 7.26897 0
M  V30 3510 N 332.573 -1.56217 0.208337 0
M  V30 3511 C 333.483 -2.23316 -0.718836 0
M  V30 3512 C 334.499 -1.23648 -1.22422 0
M  V30 3513 O 335.675 -1.56423 -1.26861 0
M  V30 3514 C 332.74 -2.88968 -1.91568 0
M  V30 3515 C 331.801 -4.03943 -1.45357 0
M  V30 3516 C 331.034 -4.66455 -2.59337 0
M  V30 3517 O 331.257 -4.27919 -3.77149 0
M  V30 3518 O 330.191 -5.55686 -2.31293 0
M  V30 3519 H 334.017 -3.03182 -0.177315 0
M  V30 3520 H 331.602 -1.49384 -0.0215402 0
M  V30 3521 H 333.484 -3.30455 -2.61491 0
M  V30 3522 H 332.159 -2.12071 -2.44556 0
M  V30 3523 H 331.066 -3.67052 -0.722746 0
M  V30 3524 H 332.399 -4.82543 -0.970219 0
M  V30 3525 N 334.051 0.0651679 -1.57465 0
M  V30 3526 C 335.298 0.763063 -1.87573 0
M  V30 3527 C 335.626 1.77242 -0.800961 0
M  V30 3528 O 334.881 1.94651 0.202316 0
M  V30 3529 C 335.18 1.50081 -3.24362 0
M  V30 3530 C 334.846 0.630816 -4.46466 0
M  V30 3531 C 333.508 0.391082 -4.79608 0
M  V30 3532 C 335.86 0.0279465 -5.21193 0
M  V30 3533 C 333.188 -0.460894 -5.84887 0
M  V30 3534 C 335.54 -0.811522 -6.27373 0
M  V30 3535 C 334.204 -1.06106 -6.59013 0
M  V30 3536 H 333.474 0.279224 -0.686378 0
M  V30 3537 H 336.121 0.0236726 -1.91485 0
M  V30 3538 H 334.426 2.31258 -3.16271 0
M  V30 3539 H 336.123 2.04571 -3.44894 0
M  V30 3540 H 332.713 0.8278 -4.2053 0
M  V30 3541 H 336.897 0.200262 -4.95896 0
M  V30 3542 H 332.153 -0.662907 -6.07796 0
M  V30 3543 H 336.327 -1.28537 -6.84435 0
M  V30 3544 H 333.954 -1.723 -7.40417 0
M  V30 3545 N 335.529 1.53961 0.336706 0
M  V30 3546 C 336.754 1.75797 1.10046 0
M  V30 3547 C 337.179 0.498985 1.81361 0
M  V30 3548 O 336.537 -0.548769 1.72795 0
M  V30 3549 C 336.585 2.94257 2.08436 0
M  V30 3550 O 335.689 2.64883 3.16087 0
M  V30 3551 H 335.03 0.582936 0.317934 0
M  V30 3552 H 337.56 2.00945 0.38501 0
M  V30 3553 H 337.57 3.21237 2.51537 0
M  V30 3554 H 336.245 3.85564 1.55927 0
M  V30 3555 H 334.822 2.48812 2.77753 0
M  V30 3556 N 337.007 -0.598083 1.45811 0
M  V30 3557 C 338.284 -1.35777 1.40797 0
M  V30 3558 C 338.664 -2.10935 0.083462 0
M  V30 3559 O 338.012 -2.08505 -0.934763 0
M  V30 3560 C 338.222 -2.29666 2.62783 0
M  V30 3561 C 339.57 -2.91977 3.08277 0
M  V30 3562 O 340.594 -2.39984 2.63223 0
M  V30 3563 O 339.453 -3.86376 3.86491 0
M  V30 3564 H 336.547 -0.609291 0.55919 0
M  V30 3565 H 339.093 -0.620379 1.57954 0
M  V30 3566 H 337.865 -1.73454 3.50756 0
M  V30 3567 H 337.488 -3.1077 2.48008 0
M  V30 3568 N 338.485 -1.33259 -0.841409 0
M  V30 3569 C 339.734 -1.23921 -1.59143 0
M  V30 3570 C 340.047 0.1941 -1.94635 0
M  V30 3571 O 341.253 0.409474 -2.68394 0
M  V30 3572 C 339.709 -2.17119 -2.87032 0
M  V30 3573 C 339.317 -3.65606 -2.58914 0
M  V30 3574 C 341.061 -2.16648 -3.65053 0
M  V30 3575 C 338.968 -4.50726 -3.82884 0
M  V30 3576 H 337.898 -0.460264 -0.597221 0
M  V30 3577 H 340.549 -1.58307 -0.927959 0
M  V30 3578 H 338.931 -1.75663 -3.54906 0
M  V30 3579 H 340.105 -4.15487 -1.99267 0
M  V30 3580 H 338.42 -3.68341 -1.942 0
M  V30 3581 H 341.017 -2.77474 -4.57069 0
M  V30 3582 H 341.36 -1.16088 -3.99787 0
M  V30 3583 H 341.893 -2.56453 -3.041 0
M  V30 3584 H 338.632 -5.52151 -3.53283 0
M  V30 3585 H 338.152 -4.0559 -4.41879 0
M  V30 3586 H 339.831 -4.64401 -4.50489 0
M  V30 3587 N 339.963 1.05934 -1.16686 0
M  V30 3588 C 341.21 1.788 -0.950622 0
M  V30 3589 C 341.538 1.87384 0.521305 0
M  V30 3590 O 340.793 1.36438 1.40297 0
M  V30 3591 C 341.092 3.23105 -1.52767 0
M  V30 3592 C 340.758 3.34594 -3.02254 0
M  V30 3593 C 339.42 3.37437 -3.43059 0
M  V30 3594 C 341.772 3.36219 -3.98254 0
M  V30 3595 C 339.1 3.39525 -4.78477 0
M  V30 3596 C 341.452 3.39845 -5.33562 0
M  V30 3597 C 340.116 3.40971 -5.73842 0
M  V30 3598 H 339.386 0.654275 -0.347857 0
M  V30 3599 H 342.033 1.24555 -1.45459 0
M  V30 3600 H 340.338 3.80227 -0.94524 0
M  V30 3601 H 342.035 3.7809 -1.336 0
M  V30 3602 H 338.625 3.3309 -2.6972 0
M  V30 3603 H 342.809 3.33231 -3.67792 0
M  V30 3604 H 338.065 3.38703 -5.09009 0
M  V30 3605 H 342.239 3.4005 -6.07733 0
M  V30 3606 H 339.866 3.42342 -6.78753 0
M  V30 3607 N 341.441 0.965919 1.2453 0
M  V30 3608 C 342.857 0.67216 1.44756 0
M  V30 3609 C 343.057 -0.766609 1.86347 0
M  V30 3610 O 342.113 -1.5407 2.00047 0
M  V30 3611 C 343.426 1.65473 2.51076 0
M  V30 3612 C 344.974 1.66716 2.64905 0
M  V30 3613 C 345.449 2.63766 3.74421 0
M  V30 3614 N 346.94 2.62198 3.81846 0
M  V30 3615 C 347.675 3.33966 4.66106 0
M  V30 3616 N 347.171 4.15245 5.54566 0
M  V30 3617 N 348.964 3.22799 4.60171 0
M  V30 3618 H 341.115 1.89553 0.958293 0
M  V30 3619 H 343.378 0.815979 0.482579 0
M  V30 3620 H 343.084 2.68296 2.27399 0
M  V30 3621 H 342.958 1.4261 3.49202 0
M  V30 3622 H 345.345 0.646057 2.87941 0
M  V30 3623 H 345.426 1.93642 1.67142 0
M  V30 3624 H 345.07 3.6601 3.52135 0
M  V30 3625 H 345 2.34121 4.71694 0
M  V30 3626 H 347.491 2.032 3.18619 0
M  V30 3627 H 347.804 4.66898 6.15814 0
M  V30 3628 H 346.149 4.1934 5.54237 0
M  V30 3629 H 349.34 2.58764 3.90075 0
M  V30 3630 H 349.513 3.78994 5.25612 0
M  V30 3631 N 342.919 -1.39368 0.735821 0
M  V30 3632 C 344.335 -1.54204 0.411492 0
M  V30 3633 C 344.535 -1.70268 -1.07755 0
M  V30 3634 O 343.591 -1.70364 -1.86366 0
M  V30 3635 C 344.904 -2.75925 1.19523 0
M  V30 3636 C 346.452 -2.89761 1.18354 0
M  V30 3637 C 346.927 -4.14421 1.94986 0
M  V30 3638 N 348.418 -4.21462 1.92156 0
M  V30 3639 C 349.153 -5.16871 2.48258 0
M  V30 3640 N 348.649 -6.18063 3.13001 0
M  V30 3641 N 350.442 -5.09093 2.38287 0
M  V30 3642 H 342.593 -1.27189 1.70108 0
M  V30 3643 H 344.856 -0.616517 0.720147 0
M  V30 3644 H 344.562 -2.70401 2.24892 0
M  V30 3645 H 344.436 -3.68614 0.800222 0
M  V30 3646 H 346.823 -2.94777 0.137975 0
M  V30 3647 H 346.904 -1.98133 1.61793 0
M  V30 3648 H 346.548 -4.10166 2.99543 0
M  V30 3649 H 346.478 -5.05095 1.48953 0
M  V30 3650 H 348.969 -3.48979 1.44991 0
M  V30 3651 H 349.282 -6.87326 3.53275 0
M  V30 3652 H 347.627 -6.18448 3.17091 0
M  V30 3653 H 350.818 -4.28973 1.8735 0
M  V30 3654 H 350.991 -5.83272 2.82308 0
M  V30 3655 N 344.397 -0.483516 -1.5 0
M  V30 3656 C 345.36 0.292965 -2.2732 0
M  V30 3657 C 346.36 0.909499 -1.32608 0
M  V30 3658 O 347.55 0.776745 -1.55924 0
M  V30 3659 C 344.682 1.41854 -3.09984 0
M  V30 3660 H 345.875 -0.385289 -2.97415 0
M  V30 3661 H 343.428 -0.237942 -1.54478 0
M  V30 3662 H 344.163 2.13148 -2.44414 0
M  V30 3663 H 343.948 0.982114 -3.79601 0
M  V30 3664 H 345.438 1.96597 -3.68429 0
M  V30 3665 N 345.875 1.56104 -0.216619 0
M  V30 3666 C 347.122 1.98172 0.416416 0
M  V30 3667 C 347.45 1.10413 1.60122 0
M  V30 3668 O 346.705 0.147967 1.9514 0
M  V30 3669 C 347.004 3.45923 0.898464 0
M  V30 3670 C 346.67 4.50559 -0.175288 0
M  V30 3671 C 345.332 4.78897 -0.470271 0
M  V30 3672 C 347.684 5.1334 -0.901728 0
M  V30 3673 C 345.012 5.67299 -1.4963 0
M  V30 3674 C 347.364 6.02853 -1.91705 0
M  V30 3675 C 346.028 6.29537 -2.21901 0
M  V30 3676 H 345.298 0.725164 0.152377 0
M  V30 3677 H 347.945 1.88839 -0.318103 0
M  V30 3678 H 346.25 3.52434 1.71165 0
M  V30 3679 H 347.947 3.75841 1.39803 0
M  V30 3680 H 344.537 4.28551 0.0647806 0
M  V30 3681 H 348.721 4.91521 -0.687072 0
M  V30 3682 H 343.977 5.86239 -1.73592 0
M  V30 3683 H 348.151 6.50552 -2.48505 0
M  V30 3684 H 345.778 6.97835 -3.01548 0
M  V30 3685 N 347.353 -0.0568162 1.57498 0
M  V30 3686 C 348.316 -1.05038 2.03715 0
M  V30 3687 C 349.316 -1.30709 0.936577 0
M  V30 3688 O 350.506 -1.26178 1.20103 0
M  V30 3689 C 347.638 -2.39034 2.43055 0
M  V30 3690 H 348.831 -0.651715 2.92733 0
M  V30 3691 H 346.384 -0.302947 1.53336 0
M  V30 3692 H 347.119 -2.83703 1.57108 0
M  V30 3693 H 346.904 -2.21739 3.2338 0
M  V30 3694 H 348.394 -3.10421 2.79336 0
M  V30 3695 N 348.832 -1.54138 -0.328536 0
M  V30 3696 C 350.057 -1.76378 -1.09112 0
M  V30 3697 C 350.482 -0.508596 -1.81094 0
M  V30 3698 O 349.84 0.539598 -1.73084 0
M  V30 3699 C 349.888 -2.95358 -2.06872 0
M  V30 3700 O 348.992 -2.66556 -3.14677 0
M  V30 3701 H 348.333 -0.584614 -0.314838 0
M  V30 3702 H 350.863 -2.01146 -0.374348 0
M  V30 3703 H 350.873 -3.22566 -2.4983 0
M  V30 3704 H 349.548 -3.86385 -1.5388 0
M  V30 3705 H 348.125 -2.50282 -2.7643 0
M  V30 3706 N 350.31 0.590341 -1.46126 0
M  V30 3707 C 351.726 0.912917 -1.30912 0
M  V30 3708 C 351.926 1.99616 -0.274893 0
M  V30 3709 O 350.982 2.50397 0.325197 0
M  V30 3710 C 352.295 1.3375 -2.69317 0
M  V30 3711 C 353.843 1.45077 -2.77348 0
M  V30 3712 C 354.318 1.90904 -4.16317 0
M  V30 3713 N 355.809 1.9811 -4.18696 0
M  V30 3714 C 356.544 2.34828 -5.23109 0
M  V30 3715 N 356.04 2.70393 -6.37856 0
M  V30 3716 N 357.833 2.35317 -5.10473 0
M  V30 3717 H 349.984 -0.125358 -2.1203 0
M  V30 3718 H 352.247 0.00658481 -0.947977 0
M  V30 3719 H 351.953 0.615614 -3.4627 0
M  V30 3720 H 351.827 2.30058 -2.9892 0
M  V30 3721 H 354.214 2.16353 -2.00687 0
M  V30 3722 H 354.295 0.4704 -2.51438 0
M  V30 3723 H 353.939 1.20209 -4.9347 0
M  V30 3724 H 353.869 2.89886 -4.39629 0
M  V30 3725 H 356.36 1.73146 -3.359 0
M  V30 3726 H 356.673 2.97341 -7.13308 0
M  V30 3727 H 355.018 2.68048 -6.41229 0
M  V30 3728 H 358.209 2.0695 -4.19868 0
M  V30 3729 H 358.382 2.63605 -5.9196 0
M  V30 3730 N 351.788 1.33704 0.83433 0
M  V30 3731 C 353.034 1.25603 1.59222 0
M  V30 3732 C 353.367 -0.176659 1.93395 0
M  V30 3733 O 352.642 -1.11915 1.59076 0
M  V30 3734 C 352.925 2.13576 2.89926 0
M  V30 3735 C 352.778 3.65326 2.62406 0
M  V30 3736 C 354.097 2.01238 3.91397 0
M  V30 3737 H 351.216 0.457613 0.577719 0
M  V30 3738 H 353.858 1.63848 0.961972 0
M  V30 3739 H 352.008 1.8109 3.43713 0
M  V30 3740 H 353.68 4.08124 2.15017 0
M  V30 3741 H 351.923 3.8698 1.96033 0
M  V30 3742 H 352.594 4.22232 3.55562 0
M  V30 3743 H 355.07 2.29738 3.46929 0
M  V30 3744 H 353.946 2.65036 4.80673 0
M  V30 3745 H 354.207 0.985951 4.30966 0
M  V30 3746 N 353.266 -1.05314 1.17247 0
M  V30 3747 C 354.513 -1.78293 0.960091 0
M  V30 3748 C 354.841 -1.87658 -0.51136 0
M  V30 3749 O 354.096 -1.3718 -1.39571 0
M  V30 3750 C 354.395 -3.2229 1.54479 0
M  V30 3751 C 354.061 -3.32987 3.04024 0
M  V30 3752 C 352.723 -3.35613 3.44844 0
M  V30 3753 C 355.075 -3.34102 4.00031 0
M  V30 3754 C 352.403 -3.36982 4.8027 0
M  V30 3755 C 354.755 -3.3701 5.35357 0
M  V30 3756 C 353.419 -3.37923 5.75642 0
M  V30 3757 H 352.689 -0.652422 0.351322 0
M  V30 3758 H 355.336 -1.23782 1.46117 0
M  V30 3759 H 353.641 -3.7972 0.965391 0
M  V30 3760 H 355.338 -3.77376 1.35603 0
M  V30 3761 H 351.928 -3.31655 2.71483 0
M  V30 3762 H 356.112 -3.31276 3.69554 0
M  V30 3763 H 351.368 -3.35999 5.10798 0
M  V30 3764 H 355.542 -3.36822 6.09528 0
M  V30 3765 H 353.169 -3.38738 6.80559 0
M  V30 3766 N 354.744 -0.972509 -1.24016 0
M  V30 3767 C 356.155 -0.67517 -1.74064 0
M  V30 3768 C 356.506 0.808939 -1.78747 0
M  V30 3769 O 355.631 1.63286 -1.42009 0
M  V30 3770 C 356.226 -1.21889 -3.16115 0
M  V30 3771 C 354.785 -0.971358 -3.6365 0
M  V30 3772 C 353.932 -1.35134 -2.42145 0
M  V30 3773 H 356.883 -1.14727 -1.09651 0
M  V30 3774 H 356.904 -0.587489 -3.75937 0
M  V30 3775 H 356.416 -2.29906 -3.12674 0
M  V30 3776 H 354.517 0.0930686 -3.72484 0
M  V30 3777 H 354.63 -1.62039 -4.50866 0
M  V30 3778 H 352.994 -0.769751 -2.4279 0
M  V30 3779 H 353.777 -2.4411 -2.41381 0
M  V30 3780 N 356.222 1.38976 -0.743202 0
M  V30 3781 C 357.633 1.83123 -0.363732 0
M  V30 3782 C 357.984 1.6205 1.10609 0
M  V30 3783 O 357.109 1.11606 1.854 0
M  V30 3784 C 357.704 3.32439 -0.653408 0
M  V30 3785 C 356.263 3.74974 -0.327338 0
M  V30 3786 C 355.41 2.61878 -0.911875 0
M  V30 3787 H 358.361 1.27852 -0.940191 0
M  V30 3788 H 358.382 3.80432 0.0720031 0
M  V30 3789 H 357.894 3.47745 -1.72323 0
M  V30 3790 H 355.995 3.65252 0.736314 0
M  V30 3791 H 356.108 4.72106 -0.815631 0
M  V30 3792 H 354.472 2.52448 -0.337944 0
M  V30 3793 H 355.255 2.79987 -1.98651 0
M  V30 3794 N 357.7 0.491464 1.49741 0
M  V30 3795 C 358.61 -0.296835 2.32715 0
M  V30 3796 C 359.626 -0.976536 1.44013 0
M  V30 3797 O 360.802 -0.960023 1.77047 0
M  V30 3798 C 357.867 -1.35288 3.19215 0
M  V30 3799 C 356.928 -0.687632 4.23757 0
M  V30 3800 C 356.161 -1.69336 5.06123 0
M  V30 3801 O 356.384 -2.92219 4.89861 0
M  V30 3802 O 355.318 -1.25394 5.88693 0
M  V30 3803 H 359.144 0.382048 3.01287 0
M  V30 3804 H 356.729 0.252953 1.47243 0
M  V30 3805 H 358.611 -1.96411 3.72828 0
M  V30 3806 H 357.286 -2.01487 2.53347 0
M  V30 3807 H 356.193 -0.0369159 3.74082 0
M  V30 3808 H 357.526 -0.0682566 4.92153 0
M  V30 3809 N 359.178 -1.55987 0.224894 0
M  V30 3810 C 360.427 -1.97566 -0.406273 0
M  V30 3811 C 360.74 -1.11569 -1.6066 0
M  V30 3812 O 361.946 -1.43062 -2.3075 0
M  V30 3813 C 360.402 -3.51474 -0.774207 0
M  V30 3814 C 360.01 -4.46179 0.403496 0
M  V30 3815 C 361.754 -4.01758 -1.37079 0
M  V30 3816 C 359.661 -5.91399 0.0129412 0
M  V30 3817 H 358.591 -0.737777 -0.155565 0
M  V30 3818 H 361.242 -1.80659 0.321635 0
M  V30 3819 H 359.624 -3.63994 -1.55963 0
M  V30 3820 H 360.798 -4.45409 1.18101 0
M  V30 3821 H 359.113 -4.06255 0.913536 0
M  V30 3822 H 361.71 -5.07756 -1.67596 0
M  V30 3823 H 362.053 -3.47805 -2.28773 0
M  V30 3824 H 362.586 -3.92475 -0.648733 0
M  V30 3825 H 359.325 -6.49341 0.896451 0
M  V30 3826 H 358.845 -5.95356 -0.728821 0
M  V30 3827 H 360.524 -6.45683 -0.412582 0
M  V30 3828 N 360.656 0.0484629 -1.57525 0
M  V30 3829 C 361.902 0.744226 -1.88651 0
M  V30 3830 C 362.235 1.76029 -0.820212 0
M  V30 3831 O 361.51 1.93782 0.166985 0
M  V30 3832 C 361.793 1.43128 -3.30434 0
M  V30 3833 C 361.646 0.43005 -4.47739 0
M  V30 3834 C 362.965 2.37031 -3.70816 0
M  V30 3835 H 360.084 0.269089 -0.68612 0
M  V30 3836 H 362.726 0.00713532 -1.89999 0
M  V30 3837 H 360.876 2.05956 -3.29415 0
M  V30 3838 H 362.548 -0.194816 -4.60888 0
M  V30 3839 H 360.791 -0.252522 -4.33064 0
M  V30 3840 H 361.462 0.948874 -5.43783 0
M  V30 3841 H 363.938 1.84263 -3.73077 0
M  V30 3842 H 362.814 2.82094 -4.70865 0
M  V30 3843 H 363.075 3.22864 -3.02012 0
M  V30 3844 N 362.134 1.5431 0.320358 0
M  V30 3845 C 363.044 1.86946 1.41734 0
M  V30 3846 C 364.06 0.761689 1.56443 0
M  V30 3847 O 365.236 1.05629 1.71477 0
M  V30 3848 C 362.301 2.09293 2.76401 0
M  V30 3849 C 361.362 3.33082 2.70841 0
M  V30 3850 C 360.595 3.54353 3.99086 0
M  V30 3851 O 360.818 2.79002 4.97508 0
M  V30 3852 O 359.752 4.47838 4.0215 0
M  V30 3853 H 363.578 2.80232 1.17062 0
M  V30 3854 H 361.163 1.40255 0.514673 0
M  V30 3855 H 363.045 2.25303 3.56113 0
M  V30 3856 H 361.72 1.19194 3.00956 0
M  V30 3857 H 360.627 3.22454 1.89668 0
M  V30 3858 H 361.96 4.23249 2.5124 0
M  V30 3859 N 363.613 -0.582584 1.46437 0
M  V30 3860 C 364.545 -1.70618 1.53043 0
M  V30 3861 C 365.558 -1.57322 0.418769 0
M  V30 3862 O 366.747 -1.64744 0.687136 0
M  V30 3863 C 363.847 -3.08869 1.39474 0
M  V30 3864 C 363.02 -3.48166 2.64762 0
M  V30 3865 C 362.079 -4.65478 2.4539 0
M  V30 3866 O 361.105 -4.71333 3.19114 0
M  V30 3867 N 362.307 -5.60365 1.51564 0
M  V30 3868 H 365.072 -1.65405 2.49923 0
M  V30 3869 H 362.633 -0.768567 1.42494 0
M  V30 3870 H 364.625 -3.85143 1.24287 0
M  V30 3871 H 363.195 -3.08449 0.507758 0
M  V30 3872 H 362.415 -2.61598 2.9489 0
M  V30 3873 H 363.703 -3.71188 3.4799 0
M  V30 3874 H 363.101 -5.5837 0.907705 0
M  V30 3875 H 361.658 -6.36068 1.4234 0
M  V30 3876 N 365.091 -1.34144 -0.827227 0
M  V30 3877 C 366.024 -1.19707 -1.94282 0
M  V30 3878 C 367.002 -0.0897256 -1.62352 0
M  V30 3879 O 368.186 -0.254095 -1.8678 0
M  V30 3880 C 365.313 -0.838646 -3.28153 0
M  V30 3881 C 364.359 -1.95514 -3.79047 0
M  V30 3882 S 365.192 -3.56793 -3.99323 0
M  V30 3883 C 366.348 -3.22983 -5.36127 0
M  V30 3884 H 366.581 -2.1414 -2.06231 0
M  V30 3885 H 364.114 -1.19121 -0.982321 0
M  V30 3886 H 366.072 -0.638637 -4.05502 0
M  V30 3887 H 364.733 0.0872776 -3.13979 0
M  V30 3888 H 363.926 -1.658 -4.75948 0
M  V30 3889 H 363.528 -2.11241 -3.08631 0
M  V30 3890 H 365.82 -2.74531 -6.19386 0
M  V30 3891 H 366.763 -4.19008 -5.70822 0
M  V30 3892 H 367.171 -2.59276 -5.01434 0
M  V30 3893 N 366.569 1.04691 -1.17803 0
M  V30 3894 C 367.817 1.7743 -0.967617 0
M  V30 3895 C 368.138 1.88359 0.504574 0
M  V30 3896 O 367.408 1.40402 1.36617 0
M  V30 3897 H 365.988 0.657242 -0.355024 0
M  V30 3898 H 368.65 1.2638 -1.48371 0
M  V30 3899 H 367.746 2.78924 -1.40027 0
M  V30 3900 N 368.047 0.979072 1.23499 0
M  V30 3901 C 369.287 0.655228 1.93613 0
M  V30 3902 C 369.651 -0.796336 1.74707 0
M  V30 3903 O 370.852 -1.23094 2.38959 0
M  V30 3904 C 369.123 1.03337 3.42135 0
M  V30 3905 S 370.682 0.825793 4.3096 0
M  V30 3906 H 367.5 0.240004 0.669267 0
M  V30 3907 H 370.102 1.25843 1.49612 0
M  V30 3908 H 368.806 2.08646 3.53405 0
M  V30 3909 H 368.337 0.421397 3.91137 0
M  V30 3910 H 370.352 -0.290991 4.95346 0
M  V30 3911 N 369.525 -1.3858 0.750561 0
M  V30 3912 C 370.472 -2.30483 0.120835 0
M  V30 3913 C 371.442 -1.50022 -0.712923 0
M  V30 3914 O 372.627 -1.78662 -0.669676 0
M  V30 3915 C 369.767 -3.36431 -0.768666 0
M  V30 3916 C 368.88 -4.31927 0.0793922 0
M  V30 3917 C 368.015 -5.24944 -0.81283 0
M  V30 3918 C 367.054 -6.12088 0.0390447 0
M  V30 3919 N 366.191 -6.97412 -0.809969 0
M  V30 3920 H 371.031 -2.83761 0.91015 0
M  V30 3921 H 368.568 -1.39707 0.460463 0
M  V30 3922 H 370.526 -3.96462 -1.29898 0
M  V30 3923 H 369.156 -2.8457 -1.5238 0
M  V30 3924 H 368.208 -3.73382 0.727303 0
M  V30 3925 H 369.52 -4.93319 0.737401 0
M  V30 3926 H 368.674 -5.90078 -1.41042 0
M  V30 3927 H 367.413 -4.63911 -1.50458 0
M  V30 3928 H 366.418 -5.45952 0.649328 0
M  V30 3929 H 367.643 -6.75189 0.727809 0
M  V30 3930 H 365.589 -6.38931 -1.48672 0
M  V30 3931 H 365.506 -7.55712 -0.208789 0
M  V30 3932 H 366.774 -7.66959 -1.39263 0
M  V30 3933 N 371.003 -0.499398 -1.49478 0
M  V30 3934 C 371.953 0.299103 -2.2603 0
M  V30 3935 C 372.937 0.936934 -1.30807 0
M  V30 3936 O 374.129 0.844798 -1.55538 0
M  V30 3937 C 371.258 1.36391 -3.15044 0
M  V30 3938 C 370.344 0.732398 -4.17728 0
M  V30 3939 N 370.735 -0.164028 -5.05534 0
M  V30 3940 C 369.033 0.993162 -4.34801 0
M  V30 3941 C 369.734 -0.525345 -5.79323 0
M  V30 3942 N 368.71 0.106348 -5.43496 0
M  V30 3943 H 372.512 -0.391003 -2.91287 0
M  V30 3944 H 370.026 -0.31537 -1.59308 0
M  V30 3945 H 372.023 1.94939 -3.68516 0
M  V30 3946 H 370.683 2.05571 -2.51338 0
M  V30 3947 H 371.694 -0.534736 -5.15132 0
M  V30 3948 H 368.371 1.67783 -3.82302 0
M  V30 3949 H 369.761 -1.25862 -6.60006 0
M  V30 3950 N 372.481 1.55866 -0.233164 0
M  V30 3951 C 373.727 1.98897 0.395959 0
M  V30 3952 C 374.06 1.12091 1.58585 0
M  V30 3953 O 373.335 0.181182 1.93654 0
M  V30 3954 C 373.618 3.50658 0.819224 0
M  V30 3955 C 373.471 4.48233 -0.375109 0
M  V30 3956 C 374.79 4.07135 1.67121 0
M  V30 3957 H 371.909 0.723102 0.142451 0
M  V30 3958 H 374.551 1.87082 -0.331725 0
M  V30 3959 H 372.701 3.60857 1.43925 0
M  V30 3960 H 374.373 4.50031 -1.01341 0
M  V30 3961 H 372.616 4.21624 -1.02058 0
M  V30 3962 H 373.287 5.51988 -0.0358328 0
M  V30 3963 H 375.763 3.99952 1.14795 0
M  V30 3964 H 374.639 5.13615 1.93625 0
M  V30 3965 H 374.9 3.54736 2.63846 0
M  V30 3966 N 373.959 -0.0401083 1.57549 0
M  V30 3967 C 374.906 -1.04413 2.05831 0
M  V30 3968 C 375.876 -1.36585 0.945184 0
M  V30 3969 O 377.061 -1.47112 1.21502 0
M  V30 3970 C 374.201 -2.34336 2.53339 0
M  V30 3971 C 373.314 -2.08419 3.78398 0
M  V30 3972 C 372.449 -3.32133 4.14561 0
M  V30 3973 C 371.488 -3.01721 5.3257 0
M  V30 3974 N 370.625 -4.17855 5.64218 0
M  V30 3975 H 375.465 -0.625442 2.91363 0
M  V30 3976 H 373.002 -0.297218 1.44066 0
M  V30 3977 H 374.96 -3.10234 2.78946 0
M  V30 3978 H 373.59 -2.73948 1.7074 0
M  V30 3979 H 372.642 -1.23069 3.59942 0
M  V30 3980 H 373.954 -1.81978 4.64419 0
M  V30 3981 H 373.108 -4.16406 4.41238 0
M  V30 3982 H 371.847 -3.61678 3.2717 0
M  V30 3983 H 370.852 -2.15849 5.05657 0
M  V30 3984 H 372.077 -2.73466 6.21605 0
M  V30 3985 H 370.023 -4.47372 4.79786 0
M  V30 3986 H 369.94 -3.94798 6.44725 0
M  V30 3987 H 371.208 -5.03033 5.95465 0
M  V30 3988 N 375.437 -1.54477 -0.31217 0
M  V30 3989 C 376.685 -1.72884 -1.04668 0
M  V30 3990 C 377.006 -0.511477 -1.88173 0
M  V30 3991 O 376.276 0.474407 -1.90069 0
M  V30 3992 H 374.856 -0.637461 -0.389425 0
M  V30 3993 H 377.518 -1.91807 -0.345852 0
M  V30 3994 H 376.614 -2.61334 -1.70619 0
M  V30 3995 N 376.915 0.57481 -1.46744 0
M  V30 3996 C 378.164 1.32898 -1.51727 0
M  V30 3997 C 378.477 1.948 -0.176692 0
M  V30 3998 O 379.683 2.71299 -0.104385 0
M  V30 3999 C 378.139 2.40901 -2.67385 0
M  V30 4000 C 377.747 1.85266 -4.07898 0
M  V30 4001 C 379.491 3.17609 -2.81646 0
M  V30 4002 C 377.398 2.90945 -5.14883 0
M  V30 4003 H 376.328 0.499631 -0.564699 0
M  V30 4004 H 378.979 0.612536 -1.72975 0
M  V30 4005 H 377.361 3.15379 -2.39483 0
M  V30 4006 H 378.535 1.17278 -4.45626 0
M  V30 4007 H 376.85 1.21199 -3.98371 0
M  V30 4008 H 379.447 3.96493 -3.58744 0
M  V30 4009 H 379.79 3.70696 -1.89448 0
M  V30 4010 H 380.323 2.50239 -3.09233 0
M  V30 4011 H 377.062 2.42736 -6.089 0
M  V30 4012 H 376.582 3.57398 -4.81691 0
M  V30 4013 H 378.261 3.54755 -5.41071 0
M  V30 4014 N 378.394 1.34581 0.820102 0
M  V30 4015 C 379.324 1.29038 1.94606 0
M  V30 4016 C 380.305 0.1673 1.69275 0
M  V30 4017 O 381.49 0.360112 1.90832 0
M  V30 4018 C 378.62 1.04793 3.31113 0
M  V30 4019 C 377.574 2.13597 3.70891 0
M  V30 4020 C 376.9 1.74537 5.05412 0
M  V30 4021 C 378.2 3.55451 3.8269 0
M  V30 4022 H 379.894 2.23248 1.99501 0
M  V30 4023 H 377.44 1.0747 0.958449 0
M  V30 4024 H 379.393 0.995592 4.0947 0
M  V30 4025 H 378.117 0.0702565 3.26524 0
M  V30 4026 H 376.776 2.17905 2.9481 0
M  V30 4027 H 376.424 0.754226 4.97313 0
M  V30 4028 H 376.124 2.47361 5.32997 0
M  V30 4029 H 377.648 1.70803 5.86224 0
M  V30 4030 H 379.062 3.5354 4.51312 0
M  V30 4031 H 377.459 4.26922 4.21732 0
M  V30 4032 H 378.529 3.92587 2.84611 0
M  V30 4033 N 379.872 -1.04064 1.18357 0
M  V30 4034 C 380.802 -2.14001 0.934113 0
M  V30 4035 C 381.783 -1.69616 -0.128186 0
M  V30 4036 O 382.968 -1.94185 0.0244093 0
M  V30 4037 C 380.098 -3.44253 0.459066 0
M  V30 4038 C 379.052 -4.02261 1.46185 0
M  V30 4039 C 378.378 -5.27992 0.844322 0
M  V30 4040 C 379.678 -4.38432 2.83856 0
M  V30 4041 H 381.372 -2.35127 1.85352 0
M  V30 4042 H 378.918 -1.12998 0.892604 0
M  V30 4043 H 380.871 -4.20522 0.271907 0
M  V30 4044 H 379.595 -3.22813 -0.495912 0
M  V30 4045 H 378.254 -3.28074 1.63595 0
M  V30 4046 H 377.902 -5.02862 -0.117845 0
M  V30 4047 H 377.602 -5.67765 1.51384 0
M  V30 4048 H 379.126 -6.06938 0.667693 0
M  V30 4049 H 380.54 -5.05688 2.70098 0
M  V30 4050 H 378.937 -4.89254 3.47491 0
M  V30 4051 H 380.007 -3.4826 3.37406 0
M  V30 4052 N 381.35 -0.985608 -1.22978 0
M  V30 4053 C 382.58 -0.674603 -1.95276 0
M  V30 4054 C 382.988 0.763483 -1.73111 0
M  V30 4055 O 382.331 1.52601 -1.02268 0
M  V30 4056 C 382.393 -0.891597 -3.48268 0
M  V30 4057 C 382.057 -2.31275 -3.94158 0
M  V30 4058 C 383.054 -3.29179 -4.02415 0
M  V30 4059 C 380.739 -2.64524 -4.27004 0
M  V30 4060 C 382.733 -4.58407 -4.42879 0
M  V30 4061 C 380.42 -3.93974 -4.67149 0
M  V30 4062 C 381.418 -4.90727 -4.75053 0
M  V30 4063 O 381.106 -6.17865 -5.14294 0
M  V30 4064 H 380.838 -0.249251 -0.628371 0
M  V30 4065 H 383.392 -1.32106 -1.5728 0
M  V30 4066 H 381.622 -0.187962 -3.86243 0
M  V30 4067 H 383.311 -0.576957 -4.01779 0
M  V30 4068 H 384.077 -3.04823 -3.77237 0
M  V30 4069 H 379.956 -1.89923 -4.2006 0
M  V30 4070 H 383.5 -5.33926 -4.48964 0
M  V30 4071 H 379.397 -4.18122 -4.91777 0
M  V30 4072 H 380.165 -6.21694 -5.32389 0
M  V30 4073 N 382.828 1.3818 -0.7579 0
M  V30 4074 C 384.076 1.99624 -0.315361 0
M  V30 4075 C 384.397 1.60464 1.10799 0
M  V30 4076 O 383.667 0.863507 1.75842 0
M  V30 4077 H 382.247 0.73831 -0.113611 0
M  V30 4078 H 384.909 1.68878 -0.972952 0
M  V30 4079 H 384.005 3.09754 -0.381931 0
M  V30 4080 N 384.306 0.507319 1.49211 0
M  V30 4081 C 385.717 0.0611118 1.866 0
M  V30 4082 C 386.068 -1.35488 1.41907 0
M  V30 4083 O 385.193 -2.0108 0.799726 0
M  V30 4084 C 385.788 0.104125 3.3864 0
M  V30 4085 C 384.347 -0.28677 3.75306 0
M  V30 4086 C 383.494 0.473893 2.73221 0
M  V30 4087 H 386.445 0.719775 1.41439 0
M  V30 4088 H 386.466 -0.689672 3.74198 0
M  V30 4089 H 385.978 1.13482 3.71138 0
M  V30 4090 H 384.079 -1.32046 3.48417 0
M  V30 4091 H 384.192 0.0370745 4.79086 0
M  V30 4092 H 382.556 -0.0770644 2.54583 0
M  V30 4093 H 383.339 1.50478 3.08563 0
M  V30 4094 N 385.784 -1.5574 0.241426 0
M  V30 4095 C 387.195 -1.84842 -0.262755 0
M  V30 4096 C 387.546 -1.16317 -1.58003 0
M  V30 4097 O 386.671 -0.439653 -2.11887 0
M  V30 4098 C 387.266 -3.35332 -0.483523 0
M  V30 4099 C 385.825 -3.6468 -0.931977 0
M  V30 4100 C 384.972 -2.77299 -0.0061151 0
M  V30 4101 H 387.923 -1.51761 0.464129 0
M  V30 4102 H 387.944 -3.56615 -1.32688 0
M  V30 4103 H 387.456 -3.85178 0.47537 0
M  V30 4104 H 385.557 -3.20307 -1.90353 0
M  V30 4105 H 385.67 -4.72498 -0.792628 0
M  V30 4106 H 384.034 -2.49408 -0.516503 0
M  V30 4107 H 384.817 -3.2995 0.948052 0
M  V30 4108 N 387.262 0.0317525 -1.57568 0
M  V30 4109 C 388.51 0.721676 -1.88776 0
M  V30 4110 C 388.831 1.76039 -0.838772 0
M  V30 4111 O 388.101 1.95482 0.127935 0
M  V30 4112 H 386.681 0.269534 -0.696678 0
M  V30 4113 H 389.343 -0.00165879 -1.949 0
M  V30 4114 H 388.439 1.21293 -2.87566 0
M  V30 4115 N 388.74 1.54641 0.303973 0
M  V30 4116 C 389.98 1.75516 1.04755 0
M  V30 4117 C 390.344 0.528211 1.84591 0
M  V30 4118 O 391.545 0.614645 2.61678 0
M  V30 4119 C 389.816 3.00685 1.93193 0
M  V30 4120 S 391.375 3.42549 2.74237 0
M  V30 4121 H 388.193 0.616987 0.353339 0
M  V30 4122 H 390.795 1.92842 0.321292 0
M  V30 4123 H 389.499 3.8811 1.33411 0
M  V30 4124 H 389.03 2.85937 2.70191 0
M  V30 4125 H 391.045 2.99386 3.95705 0
M  V30 4126 N 390.218 -0.567019 1.47046 0
M  V30 4127 C 391.466 -1.322 1.52864 0
M  V30 4128 C 391.787 -1.94088 0.188388 0
M  V30 4129 O 391.057 -1.7941 -0.786693 0
M  V30 4130 H 389.637 -0.490894 0.563056 0
M  V30 4131 H 392.299 -0.662879 1.83281 0
M  V30 4132 H 391.395 -2.12062 2.2899 0
M  V30 4133 N 391.696 -1.35014 -0.812953 0
M  V30 4134 C 392.643 -1.27412 -1.92444 0
M  V30 4135 C 393.613 -0.14733 -1.65445 0
M  V30 4136 O 394.798 -0.329974 -1.87925 0
M  V30 4137 C 391.938 -1.04558 -3.28879 0
M  V30 4138 C 391.051 -2.26101 -3.68106 0
M  V30 4139 C 390.186 -1.96449 -4.9354 0
M  V30 4140 C 389.225 -3.14081 -5.25376 0
M  V30 4141 N 388.362 -2.84246 -6.41988 0
M  V30 4142 H 393.202 -2.22463 -1.98278 0
M  V30 4143 H 390.739 -1.10593 -0.969933 0
M  V30 4144 H 392.697 -0.893413 -4.07522 0
M  V30 4145 H 391.327 -0.131719 -3.22531 0
M  V30 4146 H 390.379 -2.52204 -2.84775 0
M  V30 4147 H 391.691 -3.13959 -3.87597 0
M  V30 4148 H 390.845 -1.78026 -5.79993 0
M  V30 4149 H 389.584 -1.05867 -4.76071 0
M  V30 4150 H 388.589 -3.33089 -4.37415 0
M  V30 4151 H 389.814 -4.05455 -5.44778 0
M  V30 4152 H 387.76 -1.96252 -6.25956 0
M  V30 4153 H 387.677 -3.65637 -6.61699 0
M  V30 4154 H 388.945 -2.6935 -7.31485 0
M  V30 4155 N 393.175 1.03435 -1.18907 0
M  V30 4156 C 394.403 1.80381 -1.01342 0
M  V30 4157 C 394.818 1.83649 0.438005 0
M  V30 4158 O 394.175 1.27655 1.30424 0
M  V30 4159 C 394.226 3.25689 -1.56873 0
M  V30 4160 O 393.947 3.22673 -2.96334 0
M  V30 4161 C 395.448 4.19255 -1.44014 0
M  V30 4162 H 392.668 0.56784 -0.35749 0
M  V30 4163 H 395.212 1.30317 -1.576 0
M  V30 4164 H 393.367 3.72962 -1.04777 0
M  V30 4165 H 393.781 4.13748 -3.22355 0
M  V30 4166 H 395.255 5.19123 -1.87657 0
M  V30 4167 H 395.732 4.37467 -0.389815 0
M  V30 4168 H 396.338 3.77851 -1.95214 0
M  V30 4169 N 394.653 0.992116 1.22453 0
M  V30 4170 C 395.583 0.561677 2.26644 0
M  V30 4171 C 396.564 -0.411055 1.65059 0
M  V30 4172 O 397.749 -0.301861 1.9184 0
M  V30 4173 C 394.879 -0.125247 3.47074 0
M  V30 4174 C 393.833 0.765948 4.21091 0
M  V30 4175 C 393.159 -0.0538484 5.34673 0
M  V30 4176 C 394.459 2.06242 4.79856 0
M  V30 4177 H 396.153 1.43259 2.62902 0
M  V30 4178 H 393.699 0.690283 1.26377 0
M  V30 4179 H 395.652 -0.437764 4.1912 0
M  V30 4180 H 394.376 -1.03069 3.0991 0
M  V30 4181 H 393.035 1.0621 3.50878 0
M  V30 4182 H 392.683 -0.960188 4.9375 0
M  V30 4183 H 392.383 0.539415 5.85119 0
M  V30 4184 H 393.907 -0.360477 6.09535 0
M  V30 4185 H 395.321 1.8139 5.43848 0
M  V30 4186 H 393.718 2.60444 5.40638 0
M  V30 4187 H 394.788 2.74167 3.99951 0
M  V30 4188 N 396.131 -1.37776 0.765217 0
M  V30 4189 C 397.061 -2.32945 0.160953 0
M  V30 4190 C 398.042 -1.55454 -0.690516 0
M  V30 4191 O 399.227 -1.83721 -0.629318 0
M  V30 4192 C 396.357 -3.39669 -0.724031 0
M  V30 4193 C 395.311 -4.27992 0.0256173 0
M  V30 4194 C 394.637 -5.25673 -0.978383 0
M  V30 4195 C 395.937 -5.08309 1.20082 0
M  V30 4196 H 397.631 -2.83728 0.955969 0
M  V30 4197 H 395.177 -1.36416 0.461149 0
M  V30 4198 H 397.13 -4.05219 -1.15652 0
M  V30 4199 H 395.854 -2.87396 -1.5515 0
M  V30 4200 H 394.513 -3.63964 0.438812 0
M  V30 4201 H 394.161 -4.69682 -1.80022 0
M  V30 4202 H 393.861 -5.85625 -0.481378 0
M  V30 4203 H 395.385 -5.94098 -1.40995 0
M  V30 4204 H 396.799 -5.67034 0.845307 0
M  V30 4205 H 395.196 -5.77554 1.62947 0
M  V30 4206 H 396.266 -4.41365 2.00811 0
M  V30 4207 N 397.609 -0.515225 -1.4894 0
M  V30 4208 C 398.572 0.244681 -2.2789 0
M  V30 4209 C 399.572 0.881166 -1.34507 0
M  V30 4210 O 400.762 0.743497 -1.57537 0
M  V30 4211 C 397.894 1.35247 -3.12923 0
M  V30 4212 H 399.087 -0.448289 -2.96531 0
M  V30 4213 H 396.64 -0.270656 -1.53939 0
M  V30 4214 H 397.375 2.07916 -2.48881 0
M  V30 4215 H 397.16 0.901374 -3.81599 0
M  V30 4216 H 398.65 1.88737 -3.72516 0
M  V30 4217 N 399.087 1.5561 -0.249682 0
M  V30 4218 C 400.503 1.59254 0.105103 0
M  V30 4219 C 400.703 1.26685 1.56694 0
M  V30 4220 O 399.759 1.0155 2.31179 0
M  V30 4221 C 401.072 2.99687 -0.246592 0
M  V30 4222 C 402.62 3.12416 -0.191118 0
M  V30 4223 C 403.095 4.55074 -0.516885 0
M  V30 4224 N 404.586 4.60835 -0.467489 0
M  V30 4225 C 405.321 5.69201 -0.69268 0
M  V30 4226 N 404.817 6.85817 -0.981146 0
M  V30 4227 N 406.61 5.58635 -0.623198 0
M  V30 4228 H 398.761 1.75049 -1.20298 0
M  V30 4229 H 401.024 0.815003 -0.484225 0
M  V30 4230 H 400.73 3.28267 -1.26228 0
M  V30 4231 H 400.604 3.74798 0.424962 0
M  V30 4232 H 402.991 2.83615 0.815247 0
M  V30 4233 H 403.072 2.39573 -0.896563 0
M  V30 4234 H 402.716 4.84596 -1.52082 0
M  V30 4235 H 402.646 5.26181 0.210068 0
M  V30 4236 H 405.137 3.7705 -0.253373 0
M  V30 4237 H 405.45 7.64341 -1.14032 0
M  V30 4238 H 403.795 6.87494 -1.01865 0
M  V30 4239 H 406.986 4.66406 -0.397863 0
M  V30 4240 H 407.159 6.43017 -0.802093 0
M  V30 4241 N 400.565 -0.0233959 1.57583 0
M  V30 4242 C 401.497 -1.04994 2.03737 0
M  V30 4243 C 402.51 -1.32125 0.951152 0
M  V30 4244 O 403.699 -1.29512 1.22837 0
M  V30 4245 C 400.799 -2.39026 2.40249 0
M  V30 4246 C 399.972 -2.31171 3.7132 0
M  V30 4247 C 399.031 -3.47698 3.94959 0
M  V30 4248 O 398.057 -3.26937 4.65941 0
M  V30 4249 N 399.259 -4.6976 3.41037 0
M  V30 4250 H 402.024 -0.656507 2.92421 0
M  V30 4251 H 399.585 -0.211235 1.60516 0
M  V30 4252 H 401.577 -3.15712 2.53196 0
M  V30 4253 H 400.147 -2.70194 1.57207 0
M  V30 4254 H 399.367 -1.39547 3.68674 0
M  V30 4255 H 400.655 -2.23071 4.57293 0
M  V30 4256 H 400.053 -4.89528 2.83512 0
M  V30 4257 H 398.61 -5.43791 3.59353 0
M  V30 4258 N 402.043 -1.548 -0.295768 0
M  V30 4259 C 403.292 -1.73538 -1.02798 0
M  V30 4260 C 403.605 -0.531159 -1.8825 0
M  V30 4261 O 404.811 -0.600458 -2.64777 0
M  V30 4262 C 403.267 -3.07051 -1.87744 0
M  V30 4263 C 402.875 -4.34968 -1.07269 0
M  V30 4264 C 404.619 -3.35146 -2.60533 0
M  V30 4265 C 402.526 -5.5953 -1.91521 0
M  V30 4266 H 401.456 -0.646794 -0.387522 0
M  V30 4267 H 404.107 -1.81278 -0.284718 0
M  V30 4268 H 402.489 -2.93289 -2.66078 0
M  V30 4269 H 403.663 -4.5958 -0.335117 0
M  V30 4270 H 401.978 -4.13847 -0.460384 0
M  V30 4271 H 404.575 -4.2541 -3.23929 0
M  V30 4272 H 404.918 -2.54255 -3.29636 0
M  V30 4273 H 405.451 -3.49902 -1.89244 0
M  V30 4274 H 402.19 -6.43103 -1.26878 0
M  V30 4275 H 401.71 -5.39096 -2.62937 0
M  V30 4276 H 403.389 -5.96982 -2.49442 0
M  V30 4277 N 403.521 0.559213 -1.47345 0
M  V30 4278 C 404.769 1.31388 -1.53563 0
M  V30 4279 C 405.09 1.93985 -0.198678 0
M  V30 4280 O 404.36 1.79825 0.777167 0
M  V30 4281 H 402.94 0.487901 -0.565652 0
M  V30 4282 H 405.602 0.65315 -1.8363 0
M  V30 4283 H 404.698 2.10844 -2.30111 0
M  V30 4284 N 404.999 1.35443 0.805782 0
M  V30 4285 C 405.946 1.28431 1.91766 0
M  V30 4286 C 406.916 0.156102 1.65365 0
M  V30 4287 O 408.101 0.339936 1.87747 0
M  V30 4288 C 405.241 1.06301 3.2832 0
M  V30 4289 C 404.354 2.2805 3.66902 0
M  V30 4290 C 403.489 1.99064 4.92491 0
M  V30 4291 C 402.528 3.16863 5.23703 0
M  V30 4292 N 401.665 2.87647 6.40471 0
M  V30 4293 H 406.505 2.23511 1.97096 0
M  V30 4294 H 404.042 1.11105 0.964054 0
M  V30 4295 H 406 0.915012 4.07042 0
M  V30 4296 H 404.63 0.148822 3.22457 0
M  V30 4297 H 403.682 2.53711 2.83434 0
M  V30 4298 H 404.994 3.1601 3.85927 0
M  V30 4299 H 404.148 1.81099 5.7904 0
M  V30 4300 H 402.887 1.0839 4.75503 0
M  V30 4301 H 401.892 3.35404 4.35642 0
M  V30 4302 H 403.117 4.08339 5.4262 0
M  V30 4303 H 401.063 1.99568 6.24907 0
M  V30 4304 H 400.98 3.69141 6.59751 0
M  V30 4305 H 402.248 2.73226 7.30047 0
M  V30 4306 N 406.477 -1.02803 1.19454 0
M  V30 4307 C 407.41 -2.107 0.876396 0
M  V30 4308 C 408.388 -1.61741 -0.166897 0
M  V30 4309 O 409.572 -1.88451 -0.0430195 0
M  V30 4310 C 406.699 -3.37262 0.311758 0
M  V30 4311 C 405.745 -4.05093 1.33424 0
M  V30 4312 S 406.578 -4.50498 2.89503 0
M  V30 4313 C 407.734 -5.80277 2.34584 0
M  V30 4314 H 407.967 -2.37362 1.79016 0
M  V30 4315 H 405.5 -1.15755 1.02177 0
M  V30 4316 H 407.458 -4.10499 -0.00748752 0
M  V30 4317 H 406.119 -3.08693 -0.58032 0
M  V30 4318 H 405.312 -4.9611 0.888302 0
M  V30 4319 H 404.914 -3.3803 1.60037 0
M  V30 4320 H 407.206 -6.54873 1.73633 0
M  V30 4321 H 408.149 -6.29651 3.23952 0
M  V30 4322 H 408.557 -5.3599 1.77131 0
M  V30 4323 N 407.956 -0.998596 -1.21925 0
M  V30 4324 C 408.886 -0.573688 -2.26343 0
M  V30 4325 C 409.867 0.402296 -1.65274 0
M  V30 4326 O 411.052 0.291683 -1.91997 0
M  V30 4327 C 408.182 0.106839 -3.47136 0
M  V30 4328 C 407.136 -0.788269 -4.20678 0
M  V30 4329 C 406.462 0.0254927 -5.34694 0
M  V30 4330 C 407.762 -2.08784 -4.78755 0
M  V30 4331 H 409.456 -1.44651 -2.62138 0
M  V30 4332 H 407.002 -0.696975 -1.26009 0
M  V30 4333 H 408.955 0.415531 -4.19346 0
M  V30 4334 H 407.679 1.01424 -3.10452 0
M  V30 4335 H 406.338 -1.08069 -3.50309 0
M  V30 4336 H 405.986 0.933989 -4.94253 0
M  V30 4337 H 405.686 -0.570437 -5.84825 0
M  V30 4338 H 407.21 0.328147 -6.09718 0
M  V30 4339 H 408.624 -1.84272 -5.42878 0
M  V30 4340 H 407.021 -2.63307 -5.39249 0
M  V30 4341 H 408.091 -2.76284 -3.98491 0
M  V30 4342 N 409.434 1.37368 -0.772513 0
M  V30 4343 C 410.382 2.32134 -0.147111 0
M  V30 4344 C 411.376 1.54972 0.684106 0
M  V30 4345 O 412.582 1.70363 0.581083 0
M  V30 4346 H 408.957 0.751449 -0.028786 0
M  V30 4347 H 410.928 2.82464 -0.962112 0
M  V30 4348 C 409.677 3.40226 0.71703 0
M  V30 4349 H 409 3.99706 0.0867951 0
M  V30 4350 H 410.44 4.08897 1.12159 0
M  V30 4351 C 408.899 2.80372 1.86797 0
M  V30 4352 O 409.429 2.71183 2.96349 0
M  V30 4353 N 407.635 2.37904 1.66883 0
M  V30 4354 H 407.182 2.45578 0.777759 0
M  V30 4355 H 407.14 1.98202 2.44056 0
M  V30 4356 N 410.912 0.523116 1.48665 0
M  V30 4357 C 411.875 -0.232592 2.28017 0
M  V30 4358 C 412.875 -0.874021 1.34972 0
M  V30 4359 O 414.065 -0.735132 1.57929 0
M  V30 4360 C 411.197 -1.33586 3.13636 0
M  V30 4361 H 412.39 0.464008 2.96289 0
M  V30 4362 H 409.943 0.278816 1.53793 0
M  V30 4363 H 410.678 -2.06593 2.4998 0
M  V30 4364 H 410.463 -0.881125 3.82071 0
M  V30 4365 H 411.953 -1.86759 3.73511 0
M  V30 4366 N 412.39 -1.55475 0.257931 0
M  V30 4367 C 413.806 -1.59307 -0.0966563 0
M  V30 4368 C 414.006 -1.27514 -1.5602 0
M  V30 4369 O 413.062 -1.02774 -2.30637 0
M  V30 4370 C 414.375 -2.99552 0.262481 0
M  V30 4371 C 415.923 -3.1231 0.207683 0
M  V30 4372 C 416.398 -4.54793 0.541012 0
M  V30 4373 N 417.889 -4.6058 0.491921 0
M  V30 4374 C 418.624 -5.68825 0.722857 0
M  V30 4375 N 418.12 -6.85287 1.0175 0
M  V30 4376 N 419.913 -5.58296 0.652815 0
M  V30 4377 H 412.064 -1.74409 1.21224 0
M  V30 4378 H 414.327 -0.812424 0.48854 0
M  V30 4379 H 414.033 -3.27593 1.27967 0
M  V30 4380 H 413.907 -3.75019 -0.40508 0
M  V30 4381 H 416.294 -2.84044 -0.800195 0
M  V30 4382 H 416.375 -2.39095 0.909255 0
M  V30 4383 H 416.019 -4.83783 1.5465 0
M  V30 4384 H 415.949 -5.26285 -0.18216 0
M  V30 4385 H 418.44 -3.7691 0.273366 0
M  V30 4386 H 418.753 -7.63725 1.18084 0
M  V30 4387 H 417.098 -6.86945 1.05509 0
M  V30 4388 H 420.289 -4.66189 0.422592 0
M  V30 4389 H 420.462 -6.42582 0.836182 0
M  V30 4390 N 413.868 0.0150385 -1.57593 0
M  V30 4391 C 414.778 1.02791 -2.10882 0
M  V30 4392 C 415.794 1.38702 -1.0506 0
M  V30 4393 O 416.97 1.47739 -1.36877 0
M  V30 4394 C 414.035 2.30568 -2.58919 0
M  V30 4395 C 413.096 2.01108 -3.79281 0
M  V30 4396 C 412.329 3.22794 -4.25018 0
M  V30 4397 O 412.552 4.33959 -3.70183 0
M  V30 4398 O 411.486 3.07672 -5.17322 0
M  V30 4399 H 415.312 0.604973 -2.97613 0
M  V30 4400 H 412.897 0.23292 -1.47573 0
M  V30 4401 H 414.779 3.05662 -2.90084 0
M  V30 4402 H 413.454 2.72129 -1.75293 0
M  V30 4403 H 412.361 1.23537 -3.53114 0
M  V30 4404 H 413.694 1.64394 -4.63935 0
M  V30 4405 N 415.346 1.54954 0.287554 0
M  V30 4406 C 416.757 1.65732 0.859634 0
M  V30 4407 C 417.108 0.574767 1.87592 0
M  V30 4408 O 416.233 -0.286299 2.14498 0
M  V30 4409 C 416.828 3.00438 1.56597 0
M  V30 4410 C 415.387 3.13292 2.08627 0
M  V30 4411 C 414.534 2.61473 0.923416 0
M  V30 4412 H 417.485 1.5857 0.0642338 0
M  V30 4413 H 417.506 2.92613 2.43224 0
M  V30 4414 H 417.018 3.79207 0.826053 0
M  V30 4415 H 415.119 2.39268 2.85625 0
M  V30 4416 H 415.232 4.19647 2.31157 0
M  V30 4417 H 413.596 2.18264 1.31275 0
M  V30 4418 H 414.379 3.42733 0.197241 0
M  V30 4419 N 416.824 -0.551391 1.4764 0
M  V30 4420 C 417.771 -1.65796 1.60563 0
M  V30 4421 C 418.741 -1.59932 0.448428 0
M  V30 4422 O 419.926 -1.78679 0.669222 0
M  V30 4423 C 417.066 -3.04108 1.63133 0
M  V30 4424 C 416.179 -3.20365 2.89811 0
M  V30 4425 C 415.314 -4.49109 2.8368 0
M  V30 4426 C 414.353 -4.58819 4.05156 0
M  V30 4427 N 413.49 -5.78926 3.97227 0
M  V30 4428 H 418.33 -1.54088 2.5507 0
M  V30 4429 H 415.867 -0.75052 1.26513 0
M  V30 4430 H 417.825 -3.84207 1.62606 0
M  V30 4431 H 416.455 -3.14637 0.721341 0
M  V30 4432 H 415.507 -2.33659 3.00179 0
M  V30 4433 H 416.819 -3.23402 3.79753 0
M  V30 4434 H 415.973 -5.37475 2.81434 0
M  V30 4435 H 414.712 -4.4856 1.91431 0
M  V30 4436 H 413.717 -3.68864 4.077 0
M  V30 4437 H 414.942 -4.61124 4.98539 0
M  V30 4438 H 412.888 -5.79314 3.07785 0
M  V30 4439 H 412.805 -5.83367 4.80853 0
M  V30 4440 H 414.073 -6.69637 3.99007 0
M  V30 4441 N 418.302 -1.35869 -0.798587 0
M  V30 4442 C 419.548 -1.2978 -1.55836 0
M  V30 4443 C 419.881 0.125322 -1.93795 0
M  V30 4444 O 419.156 1.07658 -1.61987 0
M  V30 4445 C 419.439 -2.21188 -2.84162 0
M  V30 4446 C 419.292 -3.72155 -2.52628 0
M  V30 4447 C 420.611 -2.11545 -3.85923 0
M  V30 4448 H 417.73 -0.472769 -0.565383 0
M  V30 4449 H 420.372 -1.66341 -0.918192 0
M  V30 4450 H 418.522 -1.90139 -3.38791 0
M  V30 4451 H 420.194 -4.13682 -2.04121 0
M  V30 4452 H 418.437 -3.92042 -1.85704 0
M  V30 4453 H 419.108 -4.31511 -3.44242 0
M  V30 4454 H 421.584 -2.38855 -3.40716 0
M  V30 4455 H 420.46 -2.77688 -4.73477 0
M  V30 4456 H 420.721 -1.09987 -4.282 0
M  V30 4457 N 419.78 1.02168 -1.19998 0
M  V30 4458 C 421.026 1.75945 -1.00852 0
M  V30 4459 C 421.359 1.88702 0.458828 0
M  V30 4460 O 420.634 1.40911 1.34069 0
M  V30 4461 C 420.917 3.18154 -1.68671 0
M  V30 4462 C 420.77 3.13224 -3.22817 0
M  V30 4463 C 422.089 4.16711 -1.41561 0
M  V30 4464 H 419.208 0.638673 -0.367785 0
M  V30 4465 H 421.85 1.19222 -1.4794 0
M  V30 4466 H 420 3.66586 -1.28636 0
M  V30 4467 H 421.672 2.72635 -3.72112 0
M  V30 4468 H 419.915 2.50751 -3.53986 0
M  V30 4469 H 420.586 4.13728 -3.65422 0
M  V30 4470 H 423.062 3.76913 -1.76284 0
M  V30 4471 H 421.938 5.14391 -1.91553 0
M  V30 4472 H 422.199 4.40774 -0.342193 0
M  V30 4473 N 421.258 1.00505 1.21394 0
M  V30 4474 C 422.206 0.558623 2.25792 0
M  V30 4475 C 423.2 -0.396848 1.64686 0
M  V30 4476 O 424.406 -0.268035 1.77993 0
M  V30 4477 H 420.781 0.1623 0.734277 0
M  V30 4478 H 422.752 1.4503 2.60785 0
M  V30 4479 C 421.501 -0.0989574 3.47559 0
M  V30 4480 H 420.824 0.627225 3.94849 0
M  V30 4481 H 422.264 -0.3746 4.22342 0
M  V30 4482 C 420.723 -1.33817 3.09184 0
M  V30 4483 O 421.253 -2.43252 3.19674 0
M  V30 4484 N 419.459 -1.21793 2.63846 0
M  V30 4485 H 419.006 -0.32746 2.5551 0
M  V30 4486 H 418.964 -2.04809 2.38539 0
M  V30 4487 N 422.737 -1.36956 0.779787 0
M  V30 4488 C 423.985 -1.99097 0.347079 0
M  V30 4489 C 424.306 -1.62206 -1.08232 0
M  V30 4490 O 423.576 -0.891373 -1.74446 0
M  V30 4491 H 422.156 -0.736409 0.125342 0
M  V30 4492 H 424.818 -1.67308 0.999696 0
M  V30 4493 H 423.914 -3.09107 0.431162 0
M  V30 4494 N 424.215 -0.530993 -1.48385 0
M  V30 4495 C 425.626 -0.0907905 -1.86479 0
M  V30 4496 C 425.977 1.33213 -1.44044 0
M  V30 4497 O 425.102 1.99783 -0.831615 0
M  V30 4498 C 425.697 -0.157987 -3.38431 0
M  V30 4499 C 424.256 0.227026 -3.75715 0
M  V30 4500 C 423.403 -0.5173 -2.72432 0
M  V30 4501 H 426.354 -0.742186 -1.40276 0
M  V30 4502 H 426.375 0.630053 -3.75247 0
M  V30 4503 H 425.887 -1.19372 -3.69286 0
M  V30 4504 H 423.988 1.26486 -3.50474 0
M  V30 4505 H 424.101 -0.113288 -4.78966 0
M  V30 4506 H 422.465 0.0365527 -2.54674 0
M  V30 4507 H 423.248 -1.55368 -3.0613 0
M  V30 4508 N 425.693 1.55336 -0.266172 0
M  V30 4509 C 426.603 2.2583 0.635458 0
M  V30 4510 C 427.619 1.28106 1.17749 0
M  V30 4511 O 428.795 1.61024 1.20968 0
M  V30 4512 C 425.86 2.95879 1.80712 0
M  V30 4513 C 424.921 4.09059 1.30265 0
M  V30 4514 C 424.154 4.75759 2.41846 0
M  V30 4515 O 424.377 4.41622 3.61007 0
M  V30 4516 O 423.311 5.63888 2.1051 0
M  V30 4517 H 427.137 3.03631 0.0646693 0
M  V30 4518 H 424.722 1.49361 -0.0339177 0
M  V30 4519 H 426.604 3.39932 2.49047 0
M  V30 4520 H 425.279 2.21002 2.36516 0
M  V30 4521 H 424.186 3.69482 0.586019 0
M  V30 4522 H 425.519 4.85811 0.790458 0
M  V30 4523 N 427.171 -0.0066808 1.57599 0
M  V30 4524 C 428.42 -0.692078 1.89455 0
M  V30 4525 C 428.733 -1.75306 0.867586 0
M  V30 4526 O 429.939 -2.49262 1.07614 0
M  V30 4527 C 428.395 -1.2821 3.36289 0
M  V30 4528 C 428.003 -0.256291 4.47266 0
M  V30 4529 C 429.747 -1.94608 3.77264 0
M  V30 4530 C 427.654 -0.855927 5.85173 0
M  V30 4531 H 426.584 -0.262252 0.706923 0
M  V30 4532 H 429.235 0.052769 1.83424 0
M  V30 4533 H 427.617 -2.0774 3.37135 0
M  V30 4534 H 428.791 0.513923 4.57925 0
M  V30 4535 H 427.106 0.306862 4.15268 0
M  V30 4536 H 429.703 -2.40364 4.77629 0
M  V30 4537 H 430.046 -2.77382 3.10427 0
M  V30 4538 H 430.579 -1.21822 3.78688 0
M  V30 4539 H 427.318 -0.0671161 6.55466 0
M  V30 4540 H 426.838 -1.59546 5.78191 0
M  V30 4541 H 428.517 -1.35658 6.32618 0
M  V30 4542 N 428.649 -1.55105 -0.279332 0
M  V30 4543 C 429.579 -1.90557 -1.34945 0
M  V30 4544 C 430.56 -0.766738 -1.51839 0
M  V30 4545 O 431.745 -1.02434 -1.64988 0
M  V30 4546 C 428.875 -2.17193 -2.71006 0
M  V30 4547 C 427.829 -3.33021 -2.68851 0
M  V30 4548 C 427.155 -3.45123 -4.08405 0
M  V30 4549 C 428.455 -4.69578 -2.28678 0
M  V30 4550 H 430.149 -2.80188 -1.05522 0
M  V30 4551 H 427.695 -1.34811 -0.506173 0
M  V30 4552 H 429.648 -2.40581 -3.45975 0
M  V30 4553 H 428.372 -1.24355 -3.01999 0
M  V30 4554 H 427.031 -3.0959 -1.9634 0
M  V30 4555 H 426.679 -2.49762 -4.3661 0
M  V30 4556 H 426.379 -4.22995 -4.07859 0
M  V30 4557 H 427.903 -3.70796 -4.85121 0
M  V30 4558 H 429.317 -4.92553 -2.93368 0
M  V30 4559 H 427.714 -5.5032 -2.39306 0
M  V30 4560 H 428.784 -4.68828 -1.23807 0
M  V30 4561 N 430.127 0.543554 -1.4793 0
M  V30 4562 C 431.075 1.67039 -1.61866 0
M  V30 4563 C 432.069 1.62294 -0.48549 0
M  V30 4564 O 433.275 1.67315 -0.66376 0
M  V30 4565 H 429.65 0.552954 -0.509652 0
M  V30 4566 H 431.621 1.52426 -2.56533 0
M  V30 4567 C 430.37 3.05357 -1.6629 0
M  V30 4568 H 429.693 3.09696 -2.5284 0
M  V30 4569 H 431.133 3.83855 -1.80088 0
M  V30 4570 C 429.592 3.34531 -0.398861 0
M  V30 4571 O 430.122 3.98649 0.494162 0
M  V30 4572 N 428.328 2.89299 -0.2747 0
M  V30 4573 H 427.875 2.37298 -1.00236 0
M  V30 4574 H 427.833 3.09188 0.570075 0
M  V30 4575 N 431.605 1.3629 0.791371 0
M  V30 4576 C 432.552 1.30458 1.90393 0
M  V30 4577 C 433.522 0.173632 1.6519 0
M  V30 4578 O 434.707 0.35983 1.87376 0
M  V30 4579 C 431.847 1.09777 3.27174 0
M  V30 4580 C 430.96 2.31929 3.64462 0
M  V30 4581 C 430.095 2.04276 4.90352 0
M  V30 4582 C 429.134 3.224 5.20312 0
M  V30 4583 N 428.271 2.94424 6.37385 0
M  V30 4584 H 433.111 2.25589 1.94714 0
M  V30 4585 H 430.648 1.12122 0.952216 0
M  V30 4586 H 432.606 0.958133 4.06049 0
M  V30 4587 H 431.236 0.183014 3.22281 0
M  V30 4588 H 430.288 2.56703 2.80727 0
M  V30 4589 H 431.6 3.20085 3.82553 0
M  V30 4590 H 430.754 1.87231 5.77087 0
M  V30 4591 H 429.493 1.13428 4.74326 0
M  V30 4592 H 428.498 3.40005 4.32061 0
M  V30 4593 H 429.723 4.14071 5.38258 0
M  V30 4594 H 427.669 2.06185 6.22755 0
M  V30 4595 H 427.586 3.76118 6.55798 0
M  V30 4596 H 428.854 2.80953 7.27108 0
M  V30 4597 N 433.083 -1.0153 1.20538 0
M  V30 4598 C 434.313 -1.78487 1.04048 0
M  V30 4599 C 434.721 -1.84631 -0.413292 0
M  V30 4600 O 434.064 -1.29919 -1.29872 0
M  V30 4601 C 434.126 -3.24367 1.55003 0
M  V30 4602 C 433.79 -3.41827 3.0332 0
M  V30 4603 C 434.787 -3.30941 4.00966 0
M  V30 4604 C 432.472 -3.67602 3.42307 0
M  V30 4605 C 434.466 -3.45577 5.35589 0
M  V30 4606 C 432.153 -3.81881 4.77085 0
M  V30 4607 C 433.151 -3.70874 5.73534 0
M  V30 4608 O 432.839 -3.84714 7.05868 0
M  V30 4609 H 432.571 -0.568108 0.366373 0
M  V30 4610 H 435.125 -1.28677 1.60098 0
M  V30 4611 H 433.355 -3.75266 0.933397 0
M  V30 4612 H 435.044 -3.82963 1.34514 0
M  V30 4613 H 435.81 -3.10964 3.72191 0
M  V30 4614 H 431.689 -3.75256 2.67776 0
M  V30 4615 H 435.233 -3.36902 6.10854 0
M  V30 4616 H 431.13 -4.01359 5.0555 0
M  V30 4617 H 431.898 -4.01724 7.13134 0
M  V30 4618 N 434.561 -1.01147 -1.20859 0
M  V30 4619 C 435.807 -0.698899 -1.90377 0
M  V30 4620 C 436.14 0.76904 -1.78324 0
M  V30 4621 O 435.415 1.55817 -1.16409 0
M  V30 4622 C 435.698 -1.12878 -3.41951 0
M  V30 4623 C 435.551 -2.65665 -3.62963 0
M  V30 4624 C 436.87 -0.696114 -4.3456 0
M  V30 4625 H 433.989 -0.255372 -0.691342 0
M  V30 4626 H 436.631 -1.25831 -1.42361 0
M  V30 4627 H 434.781 -0.652827 -3.82976 0
M  V30 4628 H 436.453 -3.21074 -3.31224 0
M  V30 4629 H 434.696 -3.06878 -3.06608 0
M  V30 4630 H 435.367 -2.90797 -4.69192 0
M  V30 4631 H 437.843 -1.10521 -4.01154 0
M  V30 4632 H 436.719 -1.025 -5.39245 0
M  V30 4633 H 436.98 0.402465 -4.40264 0
M  V30 4634 N 436.039 1.36541 -0.78704 0
M  V30 4635 C 437.287 1.98911 -0.357633 0
M  V30 4636 C 437.608 1.62778 1.07371 0
M  V30 4637 O 436.878 0.900612 1.73971 0
M  V30 4638 H 435.458 0.735734 -0.129246 0
M  V30 4639 H 438.12 1.66776 -1.00855 0
M  V30 4640 H 437.216 3.08874 -0.447549 0
M  V30 4641 N 437.518 0.538854 1.48102 0
M  V30 4642 C 438.428 -0.222648 2.33541 0
M  V30 4643 C 439.444 -0.930225 1.47047 0
M  V30 4644 O 440.62 -0.903211 1.80011 0
M  V30 4645 C 437.685 -1.25064 3.23357 0
M  V30 4646 C 436.746 -0.552469 4.2573 0
M  V30 4647 C 435.979 -1.53149 5.11254 0
M  V30 4648 O 436.202 -2.76487 4.9891 0
M  V30 4649 O 435.136 -1.06602 5.92385 0
M  V30 4650 H 438.962 0.477707 2.99919 0
M  V30 4651 H 436.547 0.299669 1.46364 0
M  V30 4652 H 438.429 -1.8445 3.78888 0
M  V30 4653 H 437.104 -1.93325 2.59629 0
M  V30 4654 H 436.011 0.082114 3.7401 0
M  V30 4655 H 437.344 0.0883526 4.92121 0
M  V30 4656 N 438.996 -1.55193 0.274407 0
M  V30 4657 C 440.221 -2.04446 -0.348824 0
M  V30 4658 C 440.646 -1.15149 -1.48735 0
M  V30 4659 O 440.004 -0.149952 -1.80679 0
M  V30 4660 C 440.052 -3.51431 -0.808009 0
M  V30 4661 O 439.156 -3.65225 -1.91531 0
M  V30 4662 H 438.497 -0.66006 -0.0722276 0
M  V30 4663 H 441.027 -2.00481 0.408498 0
M  V30 4664 H 441.037 -3.92781 -1.10395 0
M  V30 4665 H 439.712 -4.15892 0.0249865 0
M  V30 4666 H 438.289 -3.35778 -1.62196 0
M  V30 4667 N 440.474 -0.00167713 -1.576 0
M  V30 4668 C 441.384 1.00548 -2.1196 0
M  V30 4669 C 442.4 1.3758 -1.06526 0
M  V30 4670 O 443.576 1.46278 -1.38436 0
M  V30 4671 C 440.641 2.27809 -2.6135 0
M  V30 4672 C 439.702 1.97074 -3.81393 0
M  V30 4673 C 438.935 3.18267 -4.28417 0
M  V30 4674 O 439.158 4.30009 -3.74765 0
M  V30 4675 O 438.092 3.02167 -5.20556 0
M  V30 4676 H 441.918 0.573373 -2.98238 0
M  V30 4677 H 439.503 0.217255 -1.47812 0
M  V30 4678 H 441.385 3.02568 -2.93309 0
M  V30 4679 H 440.06 2.70254 -1.78169 0
M  V30 4680 H 438.967 1.19785 -3.54404 0
M  V30 4681 H 440.3 1.59464 -4.65652 0
M  V30 4682 N 441.952 1.55251 0.271103 0
M  V30 4683 C 442.915 1.87484 1.31842 0
M  V30 4684 C 443.915 0.749545 1.42262 0
M  V30 4685 O 445.105 1.01771 1.4138 0
M  V30 4686 C 442.237 2.0818 2.69951 0
M  V30 4687 H 443.43 2.81108 1.0449 0
M  V30 4688 H 440.983 1.47771 0.509258 0
M  V30 4689 H 441.718 1.16944 3.02481 0
M  V30 4690 H 441.503 2.90114 2.63774 0
M  V30 4691 H 442.993 2.34385 3.4562 0
M  V30 4692 N 443.43 -0.535701 1.48216 0
M  V30 4693 C 444.378 -1.66179 1.62749 0
M  V30 4694 C 445.372 -1.62034 0.49409 0
M  V30 4695 O 446.578 -1.6696 0.672624 0
M  V30 4696 H 442.953 -0.550244 0.512578 0
M  V30 4697 H 444.924 -1.51063 2.57337 0
M  V30 4698 C 443.673 -3.04471 1.67907 0
M  V30 4699 H 442.996 -3.08351 2.54479 0
M  V30 4700 H 444.436 -3.82894 1.82121 0
M  V30 4701 C 442.895 -3.34314 0.416596 0
M  V30 4702 O 443.425 -3.98905 -0.473014 0
M  V30 4703 N 441.631 -2.89149 0.290038 0
M  V30 4704 H 441.178 -2.36764 1.01493 0
M  V30 4705 H 441.136 -3.09486 -0.55367 0
M  V30 4706 N 444.908 -1.36708 -0.784132 0
M  V30 4707 C 446.157 -1.30559 -1.53744 0
M  V30 4708 C 446.47 0.111374 -1.95283 0
M  V30 4709 O 447.676 0.29527 -2.6989 0
M  V30 4710 C 446.132 -2.29098 -2.77565 0
M  V30 4711 C 445.74 -3.76258 -2.43174 0
M  V30 4712 C 447.484 -2.31936 -3.55536 0
M  V30 4713 C 445.391 -4.6656 -3.63422 0
M  V30 4714 H 444.321 -0.48518 -0.577162 0
M  V30 4715 H 446.972 -1.62101 -0.859981 0
M  V30 4716 H 445.354 -1.90557 -3.47137 0
M  V30 4717 H 446.528 -4.23565 -1.81465 0
M  V30 4718 H 444.843 -3.76246 -1.78403 0
M  V30 4719 H 447.44 -2.9661 -4.44889 0
M  V30 4720 H 447.783 -1.3294 -3.94503 0
M  V30 4721 H 448.316 -2.6912 -2.92949 0
M  V30 4722 H 445.055 -5.66638 -3.29547 0
M  V30 4723 H 444.575 -4.23966 -4.24279 0
M  V30 4724 H 446.254 -4.8309 -4.30387 0
M  V30 4725 N 446.386 1.0089 -1.21074 0
M  V30 4726 C 447.802 1.2695 -0.967257 0
M  V30 4727 C 448.002 1.9846 0.348673 0
M  V30 4728 O 447.058 2.28459 1.0753 0
M  V30 4729 C 448.371 2.09697 -2.15517 0
M  V30 4730 C 449.919 2.22937 -2.197 0
M  V30 4731 C 450.394 3.09064 -3.37999 0
M  V30 4732 N 451.885 3.16653 -3.38061 0
M  V30 4733 C 452.62 3.8354 -4.26245 0
M  V30 4734 N 452.116 4.52488 -5.2462 0
M  V30 4735 N 453.909 3.80141 -4.14064 0
M  V30 4736 H 446.06 0.529005 -2.05707 0
M  V30 4737 H 448.323 0.296148 -0.900556 0
M  V30 4738 H 448.029 1.64497 -3.10859 0
M  V30 4739 H 447.903 3.10444 -2.14253 0
M  V30 4740 H 450.29 2.67357 -1.24916 0
M  V30 4741 H 450.371 1.21673 -2.2501 0
M  V30 4742 H 450.015 2.65347 -4.33074 0
M  V30 4743 H 449.945 4.10433 -3.29928 0
M  V30 4744 H 452.436 2.67566 -2.66865 0
M  V30 4745 H 452.749 5.01219 -5.88217 0
M  V30 4746 H 451.094 4.51288 -5.28549 0
M  V30 4747 H 454.285 3.25427 -3.36474 0
M  V30 4748 H 454.458 4.31992 -4.82998 0
M  V30 4749 N 447.864 1.01787 1.20321 0
M  V30 4750 C 448.811 0.589197 2.23153 0
M  V30 4751 C 449.781 -0.391367 1.61423 0
M  V30 4752 O 450.966 -0.290518 1.88575 0
M  V30 4753 C 448.106 -0.0650747 3.45039 0
M  V30 4754 C 447.219 0.960207 4.21194 0
M  V30 4755 C 446.354 0.276854 5.30478 0
M  V30 4756 C 445.393 1.2888 5.98378 0
M  V30 4757 N 444.53 0.632031 6.99249 0
M  V30 4758 H 449.37 1.47071 2.59179 0
M  V30 4759 H 446.907 0.736192 1.27352 0
M  V30 4760 H 448.865 -0.461552 4.14639 0
M  V30 4761 H 447.495 -0.910233 3.09701 0
M  V30 4762 H 446.547 1.47484 3.50646 0
M  V30 4763 H 447.859 1.72977 4.67847 0
M  V30 4764 H 447.013 -0.175056 6.06447 0
M  V30 4765 H 445.752 -0.525004 4.84866 0
M  V30 4766 H 444.757 1.75109 5.21169 0
M  V30 4767 H 445.982 2.09196 6.46076 0
M  V30 4768 H 443.928 -0.149935 6.55829 0
M  V30 4769 H 443.845 1.33964 7.44036 0
M  V30 4770 H 445.113 0.203755 7.79234 0
M  V30 4771 N 449.342 -1.36122 0.79427 0
M  V30 4772 C 450.272 -2.32551 0.210328 0
M  V30 4773 C 451.253 -1.56884 -0.657386 0
M  V30 4774 O 452.438 -1.85014 -0.590207 0
M  V30 4775 C 449.568 -3.41128 -0.651819 0
M  V30 4776 C 448.522 -4.27842 0.116395 0
M  V30 4777 C 447.848 -5.2763 -0.86666 0
M  V30 4778 C 449.148 -5.05647 1.30837 0
M  V30 4779 H 450.842 -2.81636 1.01594 0
M  V30 4780 H 448.388 -1.35407 0.489981 0
M  V30 4781 H 450.341 -4.07581 -1.07031 0
M  V30 4782 H 449.065 -2.90622 -1.49019 0
M  V30 4783 H 447.724 -3.62952 0.515915 0
M  V30 4784 H 447.372 -4.73395 -1.70019 0
M  V30 4785 H 447.072 -5.86514 -0.35705 0
M  V30 4786 H 448.596 -5.96955 -1.28361 0
M  V30 4787 H 450.01 -5.65113 0.965393 0
M  V30 4788 H 448.407 -5.73967 1.75161 0
M  V30 4789 H 449.477 -4.37006 2.10128 0
M  V30 4790 N 450.82 -0.546701 -1.47814 0
M  V30 4791 C 452.067 -0.0187407 -2.02491 0
M  V30 4792 C 452.395 1.32685 -1.42215 0
M  V30 4793 O 451.65 1.87413 -0.563454 0
M  V30 4794 C 451.949 0.134869 -3.57145 0
M  V30 4795 C 451.615 -1.13849 -4.3629 0
M  V30 4796 C 450.277 -1.48743 -4.57634 0
M  V30 4797 C 452.629 -1.98277 -4.82012 0
M  V30 4798 C 449.957 -2.67932 -5.21948 0
M  V30 4799 C 452.309 -3.16659 -5.4764 0
M  V30 4800 C 450.973 -3.51879 -5.67219 0
M  V30 4801 H 450.243 -0.0068577 -0.740968 0
M  V30 4802 H 452.89 -0.716097 -1.77607 0
M  V30 4803 H 451.195 0.915118 -3.80963 0
M  V30 4804 H 452.892 0.558556 -3.97091 0
M  V30 4805 H 449.482 -0.856767 -4.19949 0
M  V30 4806 H 453.666 -1.72628 -4.6531 0
M  V30 4807 H 448.922 -2.95401 -5.35302 0
M  V30 4808 H 453.096 -3.82374 -5.82033 0
M  V30 4809 H 450.723 -4.44331 -6.16825 0
M  V30 4810 N 452.299 1.55045 -0.282633 0
M  V30 4811 C 453.262 2.21515 0.588539 0
M  V30 4812 C 454.262 1.19535 1.07554 0
M  V30 4813 O 455.452 1.44391 0.974514 0
M  V30 4814 C 452.584 2.88704 1.8128 0
M  V30 4815 H 453.777 2.99899 0.00806397 0
M  V30 4816 H 451.33 1.56265 -0.0333067 0
M  V30 4817 H 452.065 2.14352 2.43359 0
M  V30 4818 H 451.85 3.63443 1.47144 0
M  V30 4819 H 453.34 3.39465 2.43214 0
M  V30 4820 N 453.777 0.010035 1.57597 0
M  V30 4821 C 455.054 -0.710296 1.82248 0
M  V30 4822 C 455.434 -1.91426 0.889911 0
M  V30 4823 O 454.782 -2.28424 -0.0590292 0
M  V30 4824 C 454.992 -1.10655 3.30993 0
M  V30 4825 C 456.34 -1.50621 3.96987 0
M  V30 4826 O 457.364 -1.20007 3.35375 0
M  V30 4827 O 456.223 -2.07587 5.05539 0
M  V30 4828 H 453.317 -0.34673 0.750804 0
M  V30 4829 H 455.863 0.0362578 1.69661 0
M  V30 4830 H 454.635 -0.248826 3.90508 0
M  V30 4831 H 454.258 -1.91189 3.48615 0
M  V30 4832 N 455.255 -1.55392 -0.262866 0
M  V30 4833 C 456.218 -1.88181 -1.30846 0
M  V30 4834 C 457.218 -0.757079 -1.41862 0
M  V30 4835 O 458.408 -1.02519 -1.40838 0
M  V30 4836 C 455.54 -2.09609 -2.68844 0
M  V30 4837 H 456.733 -2.81659 -1.02997 0
M  V30 4838 H 454.286 -1.48039 -0.501414 0
M  V30 4839 H 455.021 -1.18547 -3.01856 0
M  V30 4840 H 454.806 -2.91508 -2.62231 0
M  V30 4841 H 456.296 -2.36215 -3.44372 0
M  V30 4842 N 456.733 0.527833 -1.48498 0
M  V30 4843 C 457.643 1.65907 -1.65867 0
M  V30 4844 C 458.659 1.6537 -0.541192 0
M  V30 4845 O 459.835 1.84282 -0.812534 0
M  V30 4846 C 456.9 3.02364 -1.69637 0
M  V30 4847 C 455.961 3.1374 -2.93028 0
M  V30 4848 C 455.194 4.43688 -2.96609 0
M  V30 4849 O 455.417 5.30913 -2.08538 0
M  V30 4850 O 454.351 4.59475 -3.88802 0
M  V30 4851 H 458.177 1.5419 -2.61647 0
M  V30 4852 H 455.762 0.701163 -1.31924 0
M  V30 4853 H 457.644 3.83515 -1.74625 0
M  V30 4854 H 456.319 3.14401 -0.770312 0
M  V30 4855 H 455.226 2.31877 -2.93571 0
M  V30 4856 H 456.559 3.06621 -3.85026 0
M  V30 4857 N 458.211 1.37122 0.776871 0
M  V30 4858 C 459.121 1.34651 1.9211 0
M  V30 4859 C 460.137 0.246824 1.7224 0
M  V30 4860 O 461.313 0.48134 1.95563 0
M  V30 4861 C 458.378 1.14748 3.2716 0
M  V30 4862 C 457.439 2.34308 3.5972 0
M  V30 4863 C 456.672 2.15345 4.88326 0
M  V30 4864 O 456.895 1.13507 5.58992 0
M  V30 4865 O 455.829 3.03414 5.1983 0
M  V30 4866 H 459.655 2.31013 1.97146 0
M  V30 4867 H 457.24 1.17799 0.918901 0
M  V30 4868 H 459.122 1.05616 4.0795 0
M  V30 4869 H 457.797 0.214562 3.22988 0
M  V30 4870 H 456.704 2.49011 2.79185 0
M  V30 4871 H 458.037 3.26149 3.68629 0
M  V30 4872 N 459.689 -1.00246 1.21608 0
M  V30 4873 C 460.599 -2.12515 0.993709 0
M  V30 4874 C 461.615 -1.73913 -0.0549939 0
M  V30 4875 O 462.791 -2.00943 0.135619 0
M  V30 4876 C 459.856 -3.42083 0.563953 0
M  V30 4877 C 458.917 -3.94843 1.68516 0
M  V30 4878 C 458.15 -5.18226 1.27582 0
M  V30 4879 O 458.373 -5.70201 0.150506 0
M  V30 4880 O 457.307 -5.64497 2.0887 0
M  V30 4881 H 461.133 -2.34152 1.93407 0
M  V30 4882 H 458.718 -1.10891 1.00118 0
M  V30 4883 H 460.6 -4.20073 0.334194 0
M  V30 4884 H 459.275 -3.21828 -0.347665 0
M  V30 4885 H 458.182 -3.18068 1.96935 0
M  V30 4886 H 459.515 -4.19512 2.5743 0
M  V30 4887 N 461.167 -1.02423 -1.1978 0
M  V30 4888 C 462.099 -0.559152 -2.22275 0
M  V30 4889 C 463.112 0.36251 -1.58713 0
M  V30 4890 O 464.301 0.159641 -1.77785 0
M  V30 4891 C 461.401 0.205094 -3.38279 0
M  V30 4892 C 460.574 -0.720361 -4.31427 0
M  V30 4893 C 459.633 -0.00234368 -5.262 0
M  V30 4894 O 458.659 -0.627378 -5.65732 0
M  V30 4895 N 459.861 1.26996 -5.66438 0
M  V30 4896 H 462.626 -1.44064 -2.62804 0
M  V30 4897 H 460.187 -0.902692 -1.34399 0
M  V30 4898 H 462.179 0.694868 -3.9869 0
M  V30 4899 H 460.749 0.987947 -2.96578 0
M  V30 4900 H 459.969 -1.39031 -3.68869 0
M  V30 4901 H 461.257 -1.3495 -4.90577 0
M  V30 4902 H 460.655 1.79858 -5.36347 0
M  V30 4903 H 459.212 1.70432 -6.29123 0
M  V30 4904 N 462.645 1.35699 -0.801477 0
M  V30 4905 C 464.061 1.52065 -0.484596 0
M  V30 4906 C 464.261 1.75215 0.995084 0
M  V30 4907 O 463.317 1.79061 1.78026 0
M  V30 4908 C 464.63 2.69908 -1.32552 0
M  V30 4909 C 466.178 2.83784 -1.32044 0
M  V30 4910 C 466.653 4.04646 -2.14536 0
M  V30 4911 N 468.144 4.11814 -2.12046 0
M  V30 4912 C 468.879 5.04437 -2.72636 0
M  V30 4913 N 468.375 6.02426 -3.42133 0
M  V30 4914 N 470.168 4.97144 -2.62305 0
M  V30 4915 H 462.319 1.18928 -1.75983 0
M  V30 4916 H 464.582 0.581455 -0.748741 0
M  V30 4917 H 464.288 2.59363 -2.37537 0
M  V30 4918 H 464.162 3.64376 -0.975181 0
M  V30 4919 H 466.549 2.93783 -0.27846 0
M  V30 4920 H 466.63 1.90188 -1.71062 0
M  V30 4921 H 466.274 3.95407 -3.18772 0
M  V30 4922 H 466.204 4.97413 -1.72882 0
M  V30 4923 H 468.695 3.41664 -1.61476 0
M  V30 4924 H 469.008 6.69688 -3.85666 0
M  V30 4925 H 467.353 6.02615 -3.46237 0
M  V30 4926 H 470.544 4.19546 -2.07603 0
M  V30 4927 H 470.717 5.69138 -3.09815 0
M  V30 4928 N 464.123 0.554532 1.47522 0
M  V30 4929 C 465.539 0.214107 1.58157 0
M  V30 4930 C 465.739 -1.28331 1.55349 0
M  V30 4931 O 464.795 -2.06329 1.45549 0
M  V30 4932 C 466.108 0.838391 2.88776 0
M  V30 4933 C 467.656 0.809374 3.02354 0
M  V30 4934 C 468.131 1.41268 4.35669 0
M  V30 4935 N 469.622 1.37574 4.42298 0
M  V30 4936 C 470.357 1.8122 5.4401 0
M  V30 4937 N 469.853 2.3271 6.52547 0
M  V30 4938 N 471.646 1.72307 5.35039 0
M  V30 4939 H 463.797 1.52744 1.4759 0
M  V30 4940 H 466.06 0.636812 0.702264 0
M  V30 4941 H 465.766 1.89065 2.96559 0
M  V30 4942 H 465.64 0.329847 3.75755 0
M  V30 4943 H 468.027 -0.234187 2.94169 0
M  V30 4944 H 468.108 1.35565 2.16924 0
M  V30 4945 H 467.752 2.45529 4.4461 0
M  V30 4946 H 467.682 0.841871 5.19827 0
M  V30 4947 H 470.173 0.999081 3.64454 0
M  V30 4948 H 470.486 2.63944 7.26329 0
M  V30 4949 H 468.831 2.36719 6.53444 0
M  V30 4950 H 472.022 1.3186 4.49144 0
M  V30 4951 H 472.195 2.06641 6.14169 0
M  V30 4952 N 465.601 -1.54893 0.290851 0
M  V30 4953 C 466.531 -2.26103 -0.583084 0
M  V30 4954 C 467.512 -1.25684 -1.14619 0
M  V30 4955 O 468.697 -1.54436 -1.17741 0
M  V30 4956 C 465.827 -2.99409 -1.75987 0
M  V30 4957 C 464.781 -4.0689 -1.32758 0
M  V30 4958 C 464.107 -4.67856 -2.58872 0
M  V30 4959 C 465.407 -5.20215 -0.46624 0
M  V30 4960 H 467.101 -2.99398 0.0108214 0
M  V30 4961 H 464.647 -1.43998 0.00664468 0
M  V30 4962 H 466.6 -3.47943 -2.37727 0
M  V30 4963 H 465.324 -2.23675 -2.37985 0
M  V30 4964 H 463.983 -3.59191 -0.733299 0
M  V30 4965 H 463.631 -3.88772 -3.19163 0
M  V30 4966 H 463.331 -5.40438 -2.30653 0
M  V30 4967 H 464.855 -5.19147 -3.21433 0
M  V30 4968 H 466.269 -5.64704 -0.989047 0
M  V30 4969 H 464.666 -5.99455 -0.27826 0
M  V30 4970 H 465.736 -4.82198 0.511173 0
M  V30 4971 N 467.08 -0.0183926 -1.57589 0
M  V30 4972 C 468.328 0.661253 -1.90976 0
M  V30 4973 C 468.649 1.73281 -0.894353 0
M  V30 4974 O 467.919 1.9579 0.0656788 0
M  V30 4975 H 466.499 0.247233 -0.704901 0
M  V30 4976 H 469.161 -0.0636639 -1.94796 0
M  V30 4977 H 468.257 1.12083 -2.9128 0
M  V30 4978 N 468.558 1.5553 0.254621 0
M  V30 4979 C 469.521 1.88872 1.29846 0
M  V30 4980 C 470.521 0.764591 1.41459 0
M  V30 4981 O 471.711 1.03265 1.40293 0
M  V30 4982 C 468.843 2.11032 2.67728 0
M  V30 4983 H 470.036 2.82201 1.01502 0
M  V30 4984 H 467.589 1.48303 0.493556 0
M  V30 4985 H 468.324 1.20146 3.01223 0
M  V30 4986 H 468.109 2.92895 2.60682 0
M  V30 4987 H 469.599 2.38038 3.43115 0
M  V30 4988 N 470.036 -0.519951 1.48776 0
M  V30 4989 C 470.984 -1.64443 1.64503 0
M  V30 4990 C 471.978 -1.61501 0.511248 0
M  V30 4991 O 473.184 -1.66238 0.690294 0
M  V30 4992 H 469.559 -0.544776 0.518385 0
M  V30 4993 H 471.53 -1.48325 2.58925 0
M  V30 4994 C 470.279 -3.02673 1.71127 0
M  V30 4995 H 469.602 -3.05635 2.57735 0
M  V30 4996 H 471.042 -3.80941 1.86172 0
M  V30 4997 C 469.501 -3.33854 0.452032 0
M  V30 4998 O 470.031 -3.99385 -0.430678 0
M  V30 4999 N 468.237 -2.88825 0.32069 0
M  V30 5000 H 467.784 -2.35674 1.03998 0
M  V30 5001 H 467.742 -3.10056 -0.520814 0
M  V30 5002 N 471.514 -1.37532 -0.769588 0
M  V30 5003 C 472.739 -1.36231 -1.56384 0
M  V30 5004 C 473.164 0.0495849 -1.88035 0
M  V30 5005 O 472.522 1.02723 -1.49391 0
M  V30 5006 C 472.57 -2.20986 -2.84952 0
M  V30 5007 O 471.674 -1.61597 -3.79421 0
M  V30 5008 H 471.015 -0.465387 -0.473615 0
M  V30 5009 H 473.545 -1.81085 -0.952342 0
M  V30 5010 H 473.555 -2.34277 -3.34034 0
M  V30 5011 H 472.23 -3.23612 -2.61243 0
M  V30 5012 H 470.807 -1.57359 -3.38072 0
M  V30 5013 N 472.992 0.995999 -1.22138 0
M  V30 5014 C 474.24 1.73167 -1.042 0
M  V30 5015 C 474.561 1.90329 0.42423 0
M  V30 5016 O 473.831 1.4607 1.30539 0
M  V30 5017 H 472.411 0.641593 -0.38258 0
M  V30 5018 H 475.073 1.19974 -1.53598 0
M  V30 5019 H 474.169 2.72734 -1.51731 0
M  V30 5020 N 474.47 1.03057 1.19235 0
M  V30 5021 C 475.4 0.633497 2.24742 0
M  V30 5022 C 476.381 -0.358335 1.66283 0
M  V30 5023 O 477.566 -0.240676 1.92703 0
M  V30 5024 C 474.696 -0.0147648 3.47297 0
M  V30 5025 C 473.65 0.899527 4.18441 0
M  V30 5026 C 472.976 0.116281 5.34574 0
M  V30 5027 C 474.276 2.21404 4.73051 0
M  V30 5028 H 475.97 1.5155 2.58211 0
M  V30 5029 H 473.516 0.73014 1.24117 0
M  V30 5030 H 475.469 -0.304202 4.20301 0
M  V30 5031 H 474.193 -0.931577 3.13032 0
M  V30 5032 H 472.852 1.17319 3.47321 0
M  V30 5033 H 472.5 -0.802619 4.96555 0
M  V30 5034 H 472.2 0.725293 5.83107 0
M  V30 5035 H 473.724 -0.166376 6.10373 0
M  V30 5036 H 475.138 1.98601 5.37802 0
M  V30 5037 H 473.535 2.77512 5.32078 0
M  V30 5038 H 474.605 2.86752 3.91026 0
M  V30 5039 N 475.948 -1.35272 0.808662 0
M  V30 5040 C 476.898 -2.27181 0.193124 0
M  V30 5041 C 477.882 -1.47871 -0.634265 0
M  V30 5042 O 479.074 -1.70048 -0.491182 0
M  V30 5043 C 476.203 -3.36979 -0.655751 0
M  V30 5044 C 475.289 -4.23712 0.181481 0
M  V30 5045 N 475.68 -4.90225 1.24551 0
M  V30 5046 C 473.978 -4.45985 -0.0365493 0
M  V30 5047 C 474.679 -5.54537 1.75682 0
M  V30 5048 N 473.655 -5.33107 1.06294 0
M  V30 5049 H 477.457 -2.76101 1.00724 0
M  V30 5050 H 474.971 -1.48823 0.650029 0
M  V30 5051 H 476.968 -4.01774 -1.11279 0
M  V30 5052 H 475.628 -2.89611 -1.46819 0
M  V30 5053 H 476.639 -4.91641 1.62818 0
M  V30 5054 H 473.316 -4.09409 -0.817964 0
M  V30 5055 H 474.706 -6.17597 2.64621 0
M  V30 5056 N 477.426 -0.562348 -1.47226 0
M  V30 5057 C 478.675 -0.038041 -2.01664 0
M  V30 5058 C 478.988 1.32199 -1.44162 0
M  V30 5059 O 480.194 1.9365 -1.90294 0
M  V30 5060 C 478.65 -0.0174958 -3.59896 0
M  V30 5061 C 478.258 -1.3746 -4.2639 0
M  V30 5062 C 480.002 0.453934 -4.22066 0
M  V30 5063 C 477.909 -1.31289 -5.76643 0
M  V30 5064 H 476.839 -0.0104511 -0.753928 0
M  V30 5065 H 479.49 -0.710966 -1.69167 0
M  V30 5066 H 477.872 0.721182 -3.89378 0
M  V30 5067 H 479.046 -2.1314 -4.08544 0
M  V30 5068 H 477.361 -1.78438 -3.7623 0
M  V30 5069 H 479.958 0.518584 -5.32179 0
M  V30 5070 H 480.301 1.46706 -3.89594 0
M  V30 5071 H 480.834 -0.230044 -3.97134 0
M  V30 5072 H 477.573 -2.30217 -6.13743 0
M  V30 5073 H 477.093 -0.597973 -5.96812 0
M  V30 5074 H 478.772 -1.01713 -6.38955 0
M  V30 5075 N 478.904 1.54736 -0.299062 0
M  V30 5076 C 480.153 1.99279 0.311549 0
M  V30 5077 C 480.466 1.19107 1.55154 0
M  V30 5078 O 481.672 1.53908 2.23662 0
M  V30 5079 C 480.128 3.54768 0.605632 0
M  V30 5080 C 479.736 4.43746 -0.615914 0
M  V30 5081 C 481.48 4.07841 1.17754 0
M  V30 5082 C 479.387 5.90663 -0.29509 0
M  V30 5083 H 478.317 0.744359 0.120187 0
M  V30 5084 H 480.968 1.78919 -0.407464 0
M  V30 5085 H 479.35 3.71021 1.38419 0
M  V30 5086 H 480.524 4.39267 -1.39218 0
M  V30 5087 H 478.839 4.01434 -1.10633 0
M  V30 5088 H 481.436 5.15174 1.43179 0
M  V30 5089 H 481.779 3.58324 2.11918 0
M  V30 5090 H 482.312 3.95123 0.460739 0
M  V30 5091 H 479.051 6.44325 -1.20524 0
M  V30 5092 H 478.571 5.98155 0.44394 0
M  V30 5093 H 480.25 6.46916 0.104048 0
M  V30 5094 N 480.382 0.0267497 1.57577 0
M  V30 5095 C 481.631 -0.651736 1.9088 0
M  V30 5096 C 481.944 -1.73427 0.904576 0
M  V30 5097 O 483.15 -2.46923 1.12877 0
M  V30 5098 C 481.606 -1.21048 3.38933 0
M  V30 5099 C 481.214 -0.161362 4.47709 0
M  V30 5100 C 482.958 -1.86562 3.81307 0
M  V30 5101 C 480.865 -0.731611 5.86857 0
M  V30 5102 H 479.795 -0.247198 0.712326 0
M  V30 5103 H 482.446 0.0916641 1.83271 0
M  V30 5104 H 480.828 -2.00542 3.41466 0
M  V30 5105 H 482.002 0.61094 4.56732 0
M  V30 5106 H 480.317 0.394877 4.14523 0
M  V30 5107 H 482.914 -2.30178 4.8262 0
M  V30 5108 H 483.257 -2.70735 3.16241 0
M  V30 5109 H 483.79 -1.13762 3.81186 0
M  V30 5110 H 480.529 0.0719329 6.55461 0
M  V30 5111 H 480.049 -1.47245 5.81445 0
M  V30 5112 H 481.728 -1.22208 6.35354 0
M  V30 5113 N 481.861 -1.55662 -0.24637 0
M  V30 5114 C 483.108 -1.77519 -0.974335 0
M  V30 5115 C 483.436 -0.591165 -1.85298 0
M  V30 5116 O 482.691 0.425497 -1.91018 0
M  V30 5117 C 482.99 -3.04885 -1.86494 0
M  V30 5118 C 482.656 -4.36209 -1.14161 0
M  V30 5119 C 481.318 -4.71896 -0.941701 0
M  V30 5120 C 483.67 -5.17391 -0.628957 0
M  V30 5121 C 480.998 -5.86299 -0.216852 0
M  V30 5122 C 483.35 -6.32546 0.0824273 0
M  V30 5123 C 482.014 -6.66853 0.293807 0
M  V30 5124 H 481.284 -0.649588 -0.356535 0
M  V30 5125 H 483.931 -1.89934 -0.244394 0
M  V30 5126 H 482.236 -2.87484 -2.66196 0
M  V30 5127 H 483.933 -3.18994 -2.42989 0
M  V30 5128 H 480.523 -4.08174 -1.30736 0
M  V30 5129 H 484.707 -4.90276 -0.770943 0
M  V30 5130 H 479.963 -6.11385 -0.0426124 0
M  V30 5131 H 484.137 -6.94693 0.487292 0
M  V30 5132 H 481.764 -7.55349 0.857428 0
M  V30 5133 N 483.339 0.512053 -1.4905 0
M  V30 5134 C 484.616 1.27337 -1.48474 0
M  V30 5135 C 484.996 2.1009 -0.206301 0
M  V30 5136 O 484.344 2.136 0.811609 0
M  V30 5137 C 484.554 2.13954 -2.75726 0
M  V30 5138 C 485.902 2.73507 -3.24776 0
M  V30 5139 O 486.926 2.24229 -2.76767 0
M  V30 5140 O 485.785 3.63186 -4.08361 0
M  V30 5141 H 482.879 0.575652 -0.593762 0
M  V30 5142 H 485.425 0.527232 -1.61302 0
M  V30 5143 H 484.197 1.52709 -3.60272 0
M  V30 5144 H 483.82 2.95782 -2.65705 0
M  V30 5145 N 484.817 1.37938 0.762283 0
M  V30 5146 C 485.727 1.36681 1.90671 0
M  V30 5147 C 486.743 0.265078 1.71969 0
M  V30 5148 O 487.919 0.502055 1.95042 0
M  V30 5149 C 484.984 1.18211 3.25925 0
M  V30 5150 C 484.045 2.3811 3.57214 0
M  V30 5151 C 483.278 2.20512 4.86014 0
M  V30 5152 O 483.501 1.19429 5.57757 0
M  V30 5153 O 482.435 3.08911 5.16583 0
M  V30 5154 H 486.261 2.33091 1.94685 0
M  V30 5155 H 483.846 1.18767 0.906356 0
M  V30 5156 H 485.728 1.09937 4.06807 0
M  V30 5157 H 484.403 0.248807 3.22742 0
M  V30 5158 H 483.31 2.51958 2.76529 0
M  V30 5159 H 484.643 3.30041 3.65149 0
M  V30 5160 N 486.295 -0.989507 1.22664 0
M  V30 5161 C 487.544 -1.72375 1.04737 0
M  V30 5162 C 487.857 -1.91096 -0.417316 0
M  V30 5163 O 489.063 -2.6188 -0.716334 0
M  V30 5164 C 487.519 -3.10161 1.82561 0
M  V30 5165 C 487.127 -2.99358 3.333 0
M  V30 5166 C 488.871 -3.87607 1.73093 0
M  V30 5167 C 486.778 -4.32319 4.03552 0
M  V30 5168 H 485.708 -0.646326 0.388302 0
M  V30 5169 H 488.359 -1.10437 1.46546 0
M  V30 5170 H 486.741 -3.728 1.33552 0
M  V30 5171 H 487.915 -2.45863 3.89728 0
M  V30 5172 H 486.23 -2.35392 3.43481 0
M  V30 5173 H 488.827 -4.86025 2.22899 0
M  V30 5174 H 489.17 -4.10509 0.691976 0
M  V30 5175 H 489.703 -3.31652 2.19663 0
M  V30 5176 H 486.442 -4.14616 5.07714 0
M  V30 5177 H 485.962 -4.85714 3.51911 0
M  V30 5178 H 487.641 -5.01051 4.09337 0
M  V30 5179 N 487.773 -1.03688 -1.18687 0
M  V30 5180 C 489.05 -0.652397 -1.84399 0
M  V30 5181 C 489.43 0.868386 -1.92412 0
M  V30 5182 O 488.778 1.76832 -1.44716 0
M  V30 5183 C 488.988 -1.3238 -3.22919 0
M  V30 5184 C 490.336 -1.45216 -3.98996 0
M  V30 5185 O 491.36 -1.2816 -3.32345 0
M  V30 5186 O 490.219 -1.72975 -5.18403 0
M  V30 5187 H 487.313 -0.227793 -0.795009 0
M  V30 5188 H 489.859 -1.13553 -1.2611 0
M  V30 5189 H 488.631 -2.36202 -3.11968 0
M  V30 5190 H 488.254 -0.829039 -3.88861 0
M  V30 5191 N 489.251 1.34841 -0.815825 0
M  V30 5192 C 490.214 2.27959 -0.238185 0
M  V30 5193 C 491.214 1.49983 0.579816 0
M  V30 5194 O 492.404 1.69617 0.396953 0
M  V30 5195 C 489.536 3.34314 0.666876 0
M  V30 5196 H 490.729 2.80558 -1.05958 0
M  V30 5197 H 488.282 1.44852 -0.587156 0
M  V30 5198 H 489.017 2.86916 1.5116 0
M  V30 5199 H 488.802 3.92014 0.0819106 0
M  V30 5200 H 490.292 4.0379 1.06506 0
M  V30 5201 N 490.729 0.570148 1.46925 0
M  V30 5202 C 491.978 0.0487352 2.01641 0
M  V30 5203 C 492.291 -1.31433 1.44861 0
M  V30 5204 O 493.497 -1.92638 1.91318 0
M  V30 5205 C 491.953 0.0365817 3.59881 0
M  V30 5206 C 491.561 1.39719 4.25655 0
M  V30 5207 C 493.305 -0.431545 4.22301 0
M  V30 5208 C 491.212 1.34345 5.75939 0
M  V30 5209 H 490.142 0.0144492 0.753862 0
M  V30 5210 H 492.793 0.719928 1.68788 0
M  V30 5211 H 491.175 -0.700522 3.89755 0
M  V30 5212 H 492.349 2.15303 4.07408 0
M  V30 5213 H 490.664 1.80431 3.75278 0
M  V30 5214 H 493.261 -0.490354 5.32447 0
M  V30 5215 H 493.604 -1.44638 3.90366 0
M  V30 5216 H 494.137 0.251102 3.97007 0
M  V30 5217 H 490.876 2.33469 6.12513 0
M  V30 5218 H 490.396 0.629615 5.96486 0
M  V30 5219 H 492.075 1.051 6.38407 0
M  V30 5220 N 492.207 -1.54576 0.307264 0
M  V30 5221 C 493.447 -2.02172 -0.300962 0
M  V30 5222 C 493.811 -1.19081 -1.50611 0
M  V30 5223 O 495.012 -1.56405 -2.18612 0
M  V30 5224 C 493.283 -3.51576 -0.642591 0
M  V30 5225 S 494.842 -4.21127 -1.23279 0
M  V30 5226 H 491.66 -0.705021 -0.0920141 0
M  V30 5227 H 494.262 -1.90563 0.436594 0
M  V30 5228 H 492.966 -4.09681 0.242901 0
M  V30 5229 H 492.497 -3.67234 -1.41077 0
M  V30 5230 H 494.512 -4.27426 -2.52034 0
M  V30 5231 N 493.685 -0.035106 -1.57561 0
M  V30 5232 C 494.632 0.94474 -2.10578 0
M  V30 5233 C 495.602 1.3192 -1.00927 0
M  V30 5234 O 496.787 1.41147 -1.28382 0
M  V30 5235 C 493.927 2.21982 -2.64231 0
M  V30 5236 C 493.04 1.90128 -3.87911 0
M  V30 5237 C 492.175 3.11975 -4.29936 0
M  V30 5238 C 491.214 2.75968 -5.46359 0
M  V30 5239 N 490.351 3.90459 -5.83512 0
M  V30 5240 H 495.191 0.485717 -2.94015 0
M  V30 5241 H 492.728 0.228143 -1.4532 0
M  V30 5242 H 494.686 2.96572 -2.9343 0
M  V30 5243 H 493.316 2.6549 -1.83616 0
M  V30 5244 H 492.368 1.05755 -3.65404 0
M  V30 5245 H 493.68 1.59613 -4.72573 0
M  V30 5246 H 492.834 3.9488 -4.60603 0
M  V30 5247 H 491.573 3.45657 -3.44053 0
M  V30 5248 H 490.578 1.91478 -5.1538 0
M  V30 5249 H 491.803 2.43497 -6.33945 0
M  V30 5250 H 489.749 4.23971 -5.00584 0
M  V30 5251 H 489.666 3.63588 -6.62827 0
M  V30 5252 H 490.934 4.7405 -6.18787 0
M  V30 5253 N 495.163 1.55791 0.238111 0
M  V30 5254 C 496.095 1.87513 1.31802 0
M  V30 5255 C 497.108 0.762053 1.43863 0
M  V30 5256 O 498.297 1.04024 1.45056 0
M  V30 5257 C 495.397 2.05402 2.69561 0
M  V30 5258 C 494.57 3.3632 2.79656 0
M  V30 5259 C 493.629 3.43844 3.98319 0
M  V30 5260 O 492.655 4.16994 3.87433 0
M  V30 5261 N 493.857 2.73777 5.11885 0
M  V30 5262 H 496.622 2.80734 1.04922 0
M  V30 5263 H 494.183 1.56135 0.428196 0
M  V30 5264 H 496.175 2.07769 3.47296 0
M  V30 5265 H 494.745 1.18884 2.89111 0
M  V30 5266 H 493.965 3.46195 1.88528 0
M  V30 5267 H 495.253 4.22594 2.83358 0
M  V30 5268 H 494.651 2.14094 5.23622 0
M  V30 5269 H 493.208 2.81825 5.87723 0
M  V30 5270 N 496.642 -0.504142 1.49319 0
M  V30 5271 C 498.058 -0.835039 1.36012 0
M  V30 5272 C 498.258 -1.97674 0.390808 0
M  V30 5273 O 497.314 -2.51867 -0.178655 0
M  V30 5274 C 498.627 -1.17821 2.76656 0
M  V30 5275 C 500.175 -1.2866 2.85334 0
M  V30 5276 C 500.65 -1.66307 4.26739 0
M  V30 5277 N 502.141 -1.73362 4.29534 0
M  V30 5278 C 502.876 -2.0393 5.35911 0
M  V30 5279 N 502.372 -2.32744 6.52535 0
M  V30 5280 N 504.165 -2.05155 5.23324 0
M  V30 5281 H 496.316 0.248764 2.10938 0
M  V30 5282 H 498.579 0.0486962 0.946748 0
M  V30 5283 H 498.285 -0.412682 3.4927 0
M  V30 5284 H 498.159 -2.12239 3.11825 0
M  V30 5285 H 500.546 -2.04285 2.1296 0
M  V30 5286 H 500.627 -0.323004 2.53752 0
M  V30 5287 H 500.271 -0.91234 4.99639 0
M  V30 5288 H 500.201 -2.63761 4.55782 0
M  V30 5289 H 502.692 -1.53268 3.45424 0
M  V30 5290 H 503.005 -2.55248 7.2943 0
M  V30 5291 H 501.35 -2.30207 6.55767 0
M  V30 5292 H 504.541 -1.82119 4.3122 0
M  V30 5293 H 504.714 -2.28644 6.06322 0
M  V30 5294 N 498.12 -1.38341 -0.754957 0
M  V30 5295 C 499.368 -1.34208 -1.51105 0
M  V30 5296 C 499.689 0.0677634 -1.94882 0
M  V30 5297 O 498.959 1.01517 -1.67544 0
M  V30 5298 H 497.539 -0.493819 -0.560493 0
M  V30 5299 H 500.201 -1.73005 -0.897507 0
M  V30 5300 H 499.297 -1.99203 -2.4026 0
M  V30 5301 N 499.598 0.982988 -1.23187 0
M  V30 5302 C 500.823 1.76455 -1.08988 0
M  V30 5303 C 501.248 1.84726 0.354691 0
M  V30 5304 O 500.606 1.30699 1.25649 0
M  V30 5305 C 500.654 3.17094 -1.71708 0
M  V30 5306 O 499.758 4.00648 -0.977477 0
M  V30 5307 H 499.099 0.542988 -0.382177 0
M  V30 5308 H 501.629 1.23413 -1.63188 0
M  V30 5309 H 501.639 3.67684 -1.76841 0
M  V30 5310 H 500.314 3.10389 -2.76823 0
M  V30 5311 H 498.891 3.59161 -1.0029 0
M  V30 5312 N 501.076 1.04316 1.18135 0
M  V30 5313 C 502.009 0.580823 2.20685 0
M  V30 5314 C 502.987 -0.385943 1.57953 0
M  V30 5315 O 504.171 -0.299654 1.86103 0
M  V30 5316 C 501.298 -0.151162 3.38363 0
M  V30 5317 C 500.344 0.769247 4.19505 0
M  V30 5318 S 501.177 2.25352 4.85774 0
M  V30 5319 C 502.333 1.53246 6.0685 0
M  V30 5320 H 502.566 1.44968 2.5956 0
M  V30 5321 H 500.099 0.85434 1.28609 0
M  V30 5322 H 502.057 -0.567315 4.06561 0
M  V30 5323 H 500.718 -0.995936 2.97892 0
M  V30 5324 H 499.911 0.203335 5.0359 0
M  V30 5325 H 499.513 1.12436 3.56699 0
M  V30 5326 H 501.805 0.82689 6.72435 0
M  V30 5327 H 502.748 2.35044 6.67952 0
M  V30 5328 H 503.156 1.0237 5.5514 0
M  V30 5329 N 502.554 -1.34406 0.822964 0
M  V30 5330 C 503.517 -2.2783 0.250271 0
M  V30 5331 C 504.517 -1.50288 -0.571854 0
M  V30 5332 O 505.707 -1.69825 -0.387952 0
M  V30 5333 C 502.839 -3.34663 -0.649137 0
M  V30 5334 H 504.032 -2.79992 1.07444 0
M  V30 5335 H 501.585 -1.44539 0.594829 0
M  V30 5336 H 502.32 -2.87714 -1.49637 0
M  V30 5337 H 502.105 -3.92052 -0.0611199 0
M  V30 5338 H 503.595 -4.04349 -1.04363 0
M  V30 5339 N 504.032 -0.577932 -1.46621 0
M  V30 5340 C 505.28 -0.061566 -2.02006 0
M  V30 5341 C 505.601 1.30117 -1.4524 0
M  V30 5342 O 504.871 1.85313 -0.63529 0
M  V30 5343 H 503.451 -0.0197692 -0.746738 0
M  V30 5344 H 506.113 -0.752631 -1.79782 0
M  V30 5345 H 505.209 0.0110238 -3.12098 0
M  V30 5346 N 505.51 1.54411 -0.315457 0
M  V30 5347 C 506.735 2.05299 0.294496 0
M  V30 5348 C 507.16 1.19052 1.4563 0
M  V30 5349 O 506.518 0.197804 1.80218 0
M  V30 5350 C 506.566 3.5345 0.714549 0
M  V30 5351 O 505.67 3.70175 1.81781 0
M  V30 5352 H 505.011 0.661743 0.0547019 0
M  V30 5353 H 507.541 1.99327 -0.461508 0
M  V30 5354 H 507.551 3.9557 0.999426 0
M  V30 5355 H 506.226 4.1568 -0.135244 0
M  V30 5356 H 504.803 3.3996 1.53236 0
M  V30 5357 N 506.988 0.0434614 1.5754 0
M  V30 5358 C 508.216 -0.641835 1.96693 0
M  V30 5359 C 508.631 -1.64832 0.920652 0
M  V30 5360 O 507.988 -1.82247 -0.095993 0
M  V30 5361 C 508.039 -1.33557 3.35924 0
M  V30 5362 O 507.76 -0.369403 4.3654 0
M  V30 5363 C 509.261 -2.11135 3.89791 0
M  V30 5364 H 506.481 -0.176013 0.647503 0
M  V30 5365 H 509.025 0.107478 2.04217 0
M  V30 5366 H 507.18 -2.03617 3.29574 0
M  V30 5367 H 507.594 -0.863674 5.1734 0
M  V30 5368 H 509.068 -2.55107 4.89514 0
M  V30 5369 H 509.545 -2.95634 3.24803 0
M  V30 5370 H 510.151 -1.46002 3.99454 0
M  V30 5371 N 508.466 -1.55915 -0.229846 0
M  V30 5372 C 509.714 -1.7819 -0.953565 0
M  V30 5373 C 510.035 -0.610504 -1.85197 0
M  V30 5374 O 509.305 0.372988 -1.92316 0
M  V30 5375 H 507.885 -0.657208 -0.355087 0
M  V30 5376 H 510.547 -1.9337 -0.243693 0
M  V30 5377 H 509.643 -2.70011 -1.56527 0
M  V30 5378 N 509.944 0.496216 -1.49584 0
M  V30 5379 C 511.19 1.25189 -1.59548 0
M  V30 5380 C 511.523 1.9212 -0.283466 0
M  V30 5381 O 510.798 1.80947 0.713324 0
M  V30 5382 C 511.081 2.31516 -2.75812 0
M  V30 5383 C 510.934 1.69054 -4.16822 0
M  V30 5384 C 512.253 3.3304 -2.87702 0
M  V30 5385 H 509.372 0.45379 -0.580727 0
M  V30 5386 H 512.014 0.549327 -1.81886 0
M  V30 5387 H 510.164 2.91438 -2.56897 0
M  V30 5388 H 511.836 1.12923 -4.47265 0
M  V30 5389 H 510.079 0.994485 -4.22247 0
M  V30 5390 H 510.75 2.462 -4.94054 0
M  V30 5391 H 513.226 2.83114 -3.04936 0
M  V30 5392 H 512.102 4.04794 -3.7072 0
M  V30 5393 H 512.363 3.95655 -1.97255 0
M  V30 5394 N 511.423 1.38739 0.74761 0
M  V30 5395 C 512.373 1.32948 1.85226 0
M  V30 5396 C 513.357 0.212642 1.59489 0
M  V30 5397 O 514.549 0.449121 1.71207 0
M  V30 5398 C 511.678 1.16279 3.23008 0
M  V30 5399 C 510.764 2.32611 3.54617 0
M  V30 5400 N 511.155 3.58065 3.57244 0
M  V30 5401 C 509.453 2.25293 3.84914 0
M  V30 5402 C 510.154 4.34919 3.8629 0
M  V30 5403 N 509.13 3.64348 4.03425 0
M  V30 5404 H 512.932 2.27927 1.85544 0
M  V30 5405 H 510.446 1.32056 0.945253 0
M  V30 5406 H 512.443 1.10214 4.02068 0
M  V30 5407 H 511.103 0.222394 3.23937 0
M  V30 5408 H 512.114 3.91656 3.3886 0
M  V30 5409 H 508.791 1.39446 3.93524 0
M  V30 5410 H 510.181 5.43605 3.94896 0
M  V30 5411 N 512.901 -0.976442 1.23707 0
M  V30 5412 C 514.178 -1.69296 0.979699 0
M  V30 5413 C 514.558 -2.0508 -0.500555 0
M  V30 5414 O 513.906 -1.74708 -1.47273 0
M  V30 5415 C 514.116 -2.93143 1.89389 0
M  V30 5416 C 515.464 -3.65572 2.15968 0
M  V30 5417 O 516.488 -3.03184 1.86971 0
M  V30 5418 O 515.347 -4.77859 2.65167 0
M  V30 5419 H 512.441 -0.739708 0.369812 0
M  V30 5420 H 514.987 -1.03131 1.34767 0
M  V30 5421 H 513.759 -2.63327 2.89439 0
M  V30 5422 H 513.382 -3.67044 1.52854 0
M  V30 5423 N 514.379 -1.04941 -1.1758 0
M  V30 5424 C 515.607 -0.778294 -1.91703 0
M  V30 5425 C 516.022 0.665697 -1.76675 0
M  V30 5426 O 515.379 1.45456 -1.10222 0
M  V30 5427 C 515.43 -1.14628 -3.42845 0
M  V30 5428 O 515.151 -2.53359 -3.57409 0
M  V30 5429 C 516.652 -0.900931 -4.34049 0
M  V30 5430 H 513.872 -0.283167 -0.608323 0
M  V30 5431 H 516.416 -1.39942 -1.49119 0
M  V30 5432 H 514.571 -0.569953 -3.83184 0
M  V30 5433 H 514.985 -2.67709 -4.51035 0
M  V30 5434 H 516.459 -1.20817 -5.38616 0
M  V30 5435 H 516.936 0.163966 -4.38894 0
M  V30 5436 H 517.542 -1.46097 -3.99419 0
M  V30 5437 N 515.857 1.33968 -0.830081 0
M  V30 5438 C 517.103 1.98357 -0.422191 0
M  V30 5439 C 517.436 1.65633 1.01387 0
M  V30 5440 O 516.711 0.931648 1.70735 0
M  V30 5441 C 516.994 3.54492 -0.633043 0
M  V30 5442 C 516.847 3.96934 -2.11574 0
M  V30 5443 C 518.166 4.40039 -0.0735584 0
M  V30 5444 H 515.285 0.720544 -0.154871 0
M  V30 5445 H 517.927 1.58749 -1.04397 0
M  V30 5446 H 516.077 3.88361 -0.103775 0
M  V30 5447 H 517.749 3.73363 -2.7092 0
M  V30 5448 H 515.992 3.46984 -2.60354 0
M  V30 5449 H 516.663 5.05651 -2.21406 0
M  V30 5450 H 519.139 4.12764 -0.52585 0
M  V30 5451 H 518.015 5.48327 -0.250841 0
M  V30 5452 H 518.276 4.30124 1.02202 0
M  V30 5453 N 517.335 0.585699 1.46312 0
M  V30 5454 C 518.581 0.0725284 2.0267 0
M  V30 5455 C 518.914 -1.28523 1.45586 0
M  V30 5456 O 518.189 -1.84283 0.622101 0
M  V30 5457 C 518.472 0.0099788 3.60099 0
M  V30 5458 C 518.325 1.39685 4.27561 0
M  V30 5459 C 519.644 -0.689117 4.34671 0
M  V30 5460 H 516.763 0.0278307 0.736474 0
M  V30 5461 H 519.405 0.753472 1.74421 0
M  V30 5462 H 517.555 -0.56992 3.84297 0
M  V30 5463 H 519.227 2.02215 4.14617 0
M  V30 5464 H 517.47 1.96374 3.86807 0
M  V30 5465 H 518.141 1.30553 5.36339 0
M  V30 5466 H 520.617 -0.196446 4.15636 0
M  V30 5467 H 519.493 -0.701921 5.44393 0
M  V30 5468 H 519.754 -1.75101 4.05946 0
M  V30 5469 N 518.813 -1.54241 0.323641 0
M  V30 5470 C 519.761 -2.25813 -0.557804 0
M  V30 5471 C 520.755 -1.27225 -1.11849 0
M  V30 5472 O 521.961 -1.45001 -1.06652 0
M  V30 5473 H 518.336 -0.72532 -0.198532 0
M  V30 5474 H 520.307 -2.98322 0.0681112 0
M  V30 5475 C 519.056 -3.02913 -1.70701 0
M  V30 5476 H 518.379 -3.78593 -1.28482 0
M  V30 5477 H 519.819 -3.56238 -2.29935 0
M  V30 5478 C 518.278 -2.11217 -2.62467 0
M  V30 5479 O 518.808 -1.69508 -3.64184 0
M  V30 5480 N 517.014 -1.76704 -2.30703 0
M  V30 5481 H 516.561 -2.1082 -1.48029 0
M  V30 5482 H 516.519 -1.15631 -2.92364 0
M  V30 5483 N 520.291 -0.0518155 -1.57515 0
M  V30 5484 C 521.223 0.951542 -2.08515 0
M  V30 5485 C 522.236 1.27436 -1.01311 0
M  V30 5486 O 523.425 1.23504 -1.28876 0
M  V30 5487 C 520.525 2.27291 -2.5138 0
M  V30 5488 C 519.698 2.13191 -3.81927 0
M  V30 5489 C 518.757 3.28458 -4.11098 0
M  V30 5490 O 517.783 3.04334 -4.81009 0
M  V30 5491 N 518.985 4.52954 -3.63061 0
M  V30 5492 H 521.75 0.516242 -2.9522 0
M  V30 5493 H 519.311 0.13441 -1.61341 0
M  V30 5494 H 521.303 3.03272 -2.67971 0
M  V30 5495 H 519.873 2.62386 -1.69919 0
M  V30 5496 H 519.093 1.21798 -3.74912 0
M  V30 5497 H 520.381 2.00999 -4.67415 0
M  V30 5498 H 519.779 4.75444 -3.06545 0
M  V30 5499 H 518.336 5.26026 -3.84889 0
M  V30 5500 N 521.769 1.56035 0.221574 0
M  V30 5501 C 522.699 1.95434 1.2778 0
M  V30 5502 C 523.68 0.822564 1.48889 0
M  V30 5503 O 524.865 1.08486 1.61072 0
M  V30 5504 C 521.995 2.27102 2.62759 0
M  V30 5505 C 520.949 3.4277 2.56306 0
M  V30 5506 C 520.275 3.60043 3.95314 0
M  V30 5507 C 521.575 4.77742 2.11093 0
M  V30 5508 H 523.269 2.83912 0.950504 0
M  V30 5509 H 520.815 1.36596 0.455791 0
M  V30 5510 H 522.768 2.53256 3.36807 0
M  V30 5511 H 521.492 1.35478 2.97176 0
M  V30 5512 H 520.151 3.16664 1.84715 0
M  V30 5513 H 519.799 2.65794 4.27039 0
M  V30 5514 H 519.499 4.37841 3.91879 0
M  V30 5515 H 521.023 3.88545 4.71025 0
M  V30 5516 H 522.437 5.03102 2.74885 0
M  V30 5517 H 520.834 5.58823 2.18716 0
M  V30 5518 H 521.904 4.731 1.06321 0
M  V30 5519 N 523.247 -0.488276 1.49845 0
M  V30 5520 C 524.177 -1.59675 1.70371 0
M  V30 5521 C 525.158 -1.60878 0.552473 0
M  V30 5522 O 526.343 -1.77417 0.78973 0
M  V30 5523 C 523.473 -2.98098 1.782 0
M  V30 5524 C 522.427 -3.11761 2.93239 0
M  V30 5525 C 521.753 -4.51661 2.86193 0
M  V30 5526 C 523.053 -2.90589 4.33999 0
M  V30 5527 H 524.747 -1.42752 2.63177 0
M  V30 5528 H 522.293 -0.685317 1.26647 0
M  V30 5529 H 524.246 -3.75555 1.91144 0
M  V30 5530 H 522.97 -3.16138 0.820018 0
M  V30 5531 H 521.629 -2.36732 2.79917 0
M  V30 5532 H 521.277 -4.66595 1.87877 0
M  V30 5533 H 520.977 -4.61742 3.63412 0
M  V30 5534 H 522.501 -5.31162 3.01163 0
M  V30 5535 H 523.915 -3.57807 4.47936 0
M  V30 5536 H 522.312 -3.1213 5.12538 0
M  V30 5537 H 523.382 -1.86595 4.4756 0
M  V30 5538 N 524.725 -1.39134 -0.740242 0
M  V30 5539 C 525.95 -1.39518 -1.53459 0
M  V30 5540 C 526.375 0.00968883 -1.88098 0
M  V30 5541 O 525.733 0.995312 -1.51536 0
M  V30 5542 C 525.781 -2.26981 -2.802 0
M  V30 5543 O 524.885 -1.69609 -3.75908 0
M  V30 5544 H 524.226 -0.475328 -0.463637 0
M  V30 5545 H 526.756 -1.83064 -0.913717 0
M  V30 5546 H 526.766 -2.41309 -3.28989 0
M  V30 5547 H 525.441 -3.29081 -2.5432 0
M  V30 5548 H 524.018 -1.64495 -3.34658 0
M  V30 5549 N 526.204 0.969867 -1.24223 0
M  V30 5550 C 527.151 2.06407 -1.0327 0
M  V30 5551 C 528.121 1.66014 0.0533 0
M  V30 5552 O 529.306 1.90533 -0.100896 0
M  V30 5553 C 526.446 3.3909 -0.641262 0
M  V30 5554 C 525.559 3.9269 -1.80051 0
M  V30 5555 C 524.694 5.13631 -1.35486 0
M  V30 5556 C 523.733 5.59423 -2.48419 0
M  V30 5557 N 522.87 6.71586 -2.04737 0
M  V30 5558 H 527.71 2.23663 -1.96923 0
M  V30 5559 H 525.247 1.09624 -0.980862 0
M  V30 5560 H 527.205 4.15323 -0.395351 0
M  V30 5561 H 525.835 3.21765 0.258269 0
M  V30 5562 H 524.887 3.13116 -2.16014 0
M  V30 5563 H 526.199 4.22636 -2.64916 0
M  V30 5564 H 525.353 5.97231 -1.0677 0
M  V30 5565 H 524.092 4.85364 -0.476722 0
M  V30 5566 H 523.097 4.74398 -2.77897 0
M  V30 5567 H 524.322 5.89705 -3.36786 0
M  V30 5568 H 522.268 6.45058 -1.19318 0
M  V30 5569 H 522.185 7.0097 -2.83156 0
M  V30 5570 H 523.453 7.58633 -1.79154 0
M  V30 5571 N 527.682 1.05563 1.17022 0
M  V30 5572 C 528.931 0.763036 1.8671 0
M  V30 5573 C 529.244 -0.712857 1.82147 0
M  V30 5574 O 530.45 -1.11955 2.47343 0
M  V30 5575 C 528.906 1.31474 3.35026 0
M  V30 5576 C 528.514 2.82034 3.48081 0
M  V30 5577 C 530.258 1.09935 4.10018 0
M  V30 5578 C 528.165 3.30486 4.90442 0
M  V30 5579 H 527.095 0.281747 0.699382 0
M  V30 5580 H 529.746 1.2734 1.32124 0
M  V30 5581 H 528.128 0.732171 3.89173 0
M  V30 5582 H 529.302 3.46178 3.04133 0
M  V30 5583 H 527.617 3.02156 2.86515 0
M  V30 5584 H 530.214 1.43632 5.15048 0
M  V30 5585 H 530.557 0.0373072 4.16283 0
M  V30 5586 H 531.09 1.64732 3.62089 0
M  V30 5587 H 527.829 4.36137 4.89352 0
M  V30 5588 H 527.349 2.71086 5.35044 0
M  V30 5589 H 529.028 3.25382 5.59227 0
M  V30 5590 N 529.16 -1.33526 0.837174 0
M  V30 5591 C 530.437 -1.92369 0.354065 0
M  V30 5592 C 530.817 -1.76348 -1.16038 0
M  V30 5593 O 530.165 -1.15083 -1.97403 0
M  V30 5594 C 530.375 -3.39728 0.799101 0
M  V30 5595 C 531.723 -4.16877 0.806139 0
M  V30 5596 O 532.747 -3.48373 0.742597 0
M  V30 5597 O 531.606 -5.39166 0.892345 0
M  V30 5598 H 528.7 -0.820952 0.0998378 0
M  V30 5599 H 531.246 -1.42409 0.922913 0
M  V30 5600 H 530.018 -3.45254 1.84162 0
M  V30 5601 H 529.641 -3.97062 0.206731 0
M  V30 5602 N 530.638 -0.59345 -1.46 0
M  V30 5603 C 531.886 -0.082988 -2.0193 0
M  V30 5604 C 532.207 1.28569 -1.46612 0
M  V30 5605 O 531.477 1.84629 -0.654909 0
M  V30 5606 H 530.057 -0.0276882 -0.746487 0
M  V30 5607 H 532.719 -0.771657 -1.78973 0
M  V30 5608 H 531.815 -0.022079 -3.12092 0
M  V30 5609 N 532.116 1.54067 -0.331816 0
M  V30 5610 C 533.362 2.01012 0.268667 0
M  V30 5611 C 533.695 1.2195 1.51136 0
M  V30 5612 O 532.97 0.303972 1.9211 0
M  V30 5613 C 533.253 3.55158 0.59456 0
M  V30 5614 C 533.106 4.4494 -0.659409 0
M  V30 5615 C 534.425 4.16939 1.4089 0
M  V30 5616 H 531.544 0.730698 0.0961756 0
M  V30 5617 H 534.186 1.84593 -0.450031 0
M  V30 5618 H 532.336 3.6928 1.20685 0
M  V30 5619 H 534.008 4.42675 -1.29756 0
M  V30 5620 H 532.251 4.1428 -1.28665 0
M  V30 5621 H 532.922 5.50643 -0.386804 0
M  V30 5622 H 535.398 4.06443 0.891272 0
M  V30 5623 H 534.274 5.24889 1.60569 0
M  V30 5624 H 534.535 3.70798 2.40752 0
M  V30 5625 N 533.594 0.0601682 1.57485 0
M  V30 5626 C 534.504 -0.926121 2.15546 0
M  V30 5627 C 535.52 -1.33532 1.11558 0
M  V30 5628 O 536.696 -1.4104 1.4377 0
M  V30 5629 C 533.761 -2.17952 2.69625 0
M  V30 5630 C 532.822 -1.82783 3.88444 0
M  V30 5631 C 532.055 -3.02148 4.39935 0
M  V30 5632 O 532.278 -4.15803 3.90466 0
M  V30 5633 O 531.212 -2.82639 5.31412 0
M  V30 5634 H 535.038 -0.462289 3.00161 0
M  V30 5635 H 532.623 -0.162246 1.48516 0
M  V30 5636 H 534.505 -2.91474 3.04337 0
M  V30 5637 H 533.18 -2.63456 1.88077 0
M  V30 5638 H 532.087 -1.06549 3.58606 0
M  V30 5639 H 533.42 -1.42072 4.7125 0
M  V30 5640 N 535.072 -1.5615 -0.213296 0
M  V30 5641 C 536.004 -1.89586 -1.28802 0
M  V30 5642 C 537.017 -0.784844 -1.42633 0
M  V30 5643 O 538.206 -1.06319 -1.43383 0
M  V30 5644 C 535.306 -2.09665 -2.66259 0
M  V30 5645 C 534.479 -3.40726 -2.7427 0
M  V30 5646 C 533.538 -3.50137 -3.92798 0
M  V30 5647 O 532.564 -4.23105 -3.8075 0
M  V30 5648 N 533.766 -2.81886 -5.07465 0
M  V30 5649 H 536.531 -2.82368 -1.00442 0
M  V30 5650 H 534.092 -1.56796 -0.403302 0
M  V30 5651 H 536.084 -2.13268 -3.43946 0
M  V30 5652 H 534.654 -1.23469 -2.87183 0
M  V30 5653 H 533.874 -3.4915 -1.82997 0
M  V30 5654 H 535.162 -4.27048 -2.76599 0
M  V30 5655 H 534.56 -2.22397 -5.2015 0
M  V30 5656 H 533.117 -2.91139 -5.83165 0
M  V30 5657 N 536.55 0.480323 -1.50102 0
M  V30 5658 C 537.48 1.58769 -1.71215 0
M  V30 5659 C 538.461 1.60583 -0.560997 0
M  V30 5660 O 539.646 1.76996 -0.799127 0
M  V30 5661 C 536.776 2.97148 -1.79778 0
M  V30 5662 C 535.73 3.10201 -2.94888 0
M  V30 5663 C 535.056 4.50137 -2.88584 0
M  V30 5664 C 536.356 2.88283 -4.35534 0
M  V30 5665 H 538.05 1.41354 -2.6393 0
M  V30 5666 H 535.596 0.678591 -1.27008 0
M  V30 5667 H 537.549 3.74536 -1.93133 0
M  V30 5668 H 536.273 3.15699 -0.836772 0
M  V30 5669 H 534.932 2.35244 -2.81169 0
M  V30 5670 H 534.58 4.65593 -1.90349 0
M  V30 5671 H 534.28 4.59808 -3.65856 0
M  V30 5672 H 535.804 5.29558 -3.03976 0
M  V30 5673 H 537.218 3.55427 -4.49827 0
M  V30 5674 H 535.615 3.09408 -5.14186 0
M  V30 5675 H 536.685 1.84219 -4.48544 0
M  V30 5676 N 538.028 1.39524 0.732853 0
M  V30 5677 C 538.976 1.38563 1.86824 0
M  V30 5678 C 539.97 0.268467 1.67259 0
M  V30 5679 O 541.176 0.438613 1.74574 0
M  V30 5680 H 537.551 0.432737 0.615014 0
M  V30 5681 H 539.522 2.34328 1.84751 0
M  V30 5682 C 538.271 1.2481 3.24527 0
M  V30 5683 H 537.594 2.10044 3.40179 0
M  V30 5684 H 539.034 1.28194 4.04156 0
M  V30 5685 C 537.493 -0.0432825 3.36872 0
M  V30 5686 O 538.023 -1.01268 3.88726 0
M  V30 5687 N 536.229 -0.107055 2.90403 0
M  V30 5688 H 535.776 0.682512 2.48394 0
M  V30 5689 H 535.734 -0.970618 2.99042 0
M  V30 5690 N 539.506 -0.963266 1.24736 0
M  V30 5691 C 540.454 -2.07985 1.04139 0
M  V30 5692 C 541.448 -1.69381 -0.0250556 0
M  V30 5693 O 542.654 -1.79531 0.129863 0
M  V30 5694 H 539.029 -0.680627 0.319768 0
M  V30 5695 H 541 -2.22517 1.98818 0
M  V30 5696 C 539.749 -3.4123 0.667615 0
M  V30 5697 H 539.072 -3.71397 1.48 0
M  V30 5698 H 540.512 -4.20244 0.563136 0
M  V30 5699 C 538.971 -3.3104 -0.625647 0
M  V30 5700 O 539.501 -3.65334 -1.67016 0
M  V30 5701 N 537.707 -2.84168 -0.608033 0
M  V30 5702 H 537.254 -2.56458 0.242323 0
M  V30 5703 H 537.212 -2.77732 -1.47352 0
M  V30 5704 N 540.985 -1.06182 -1.16461 0
M  V30 5705 C 542.234 -0.772927 -1.86303 0
M  V30 5706 C 542.547 0.703187 -1.82523 0
M  V30 5707 O 543.753 1.10641 -2.47933 0
M  V30 5708 C 542.209 -1.33249 -3.34324 0
M  V30 5709 C 541.817 -2.83876 -3.46581 0
M  V30 5710 C 543.561 -1.12108 -4.09429 0
M  V30 5711 C 541.468 -3.33082 -4.88682 0
M  V30 5712 H 540.398 -0.285452 -0.697878 0
M  V30 5713 H 543.049 -1.28039 -1.31447 0
M  V30 5714 H 541.431 -0.7528 -3.88779 0
M  V30 5715 H 542.605 -3.47786 -3.02293 0
M  V30 5716 H 540.92 -3.03671 -2.84909 0
M  V30 5717 H 543.517 -1.46361 -5.14279 0
M  V30 5718 H 543.86 -0.0593832 -4.16258 0
M  V30 5719 H 544.393 -1.6665 -3.6121 0
M  V30 5720 H 541.132 -4.38726 -4.87032 0
M  V30 5721 H 540.652 -2.73919 -5.33599 0
M  V30 5722 H 542.331 -3.28344 -5.57494 0
M  V30 5723 N 542.463 1.3308 -0.844243 0
M  V30 5724 C 543.393 2.3161 -0.296493 0
M  V30 5725 C 544.374 1.59215 0.598707 0
M  V30 5726 O 545.559 1.87077 0.521134 0
M  V30 5727 C 542.689 3.43313 0.524762 0
M  V30 5728 C 541.643 4.27115 -0.275106 0
M  V30 5729 C 540.969 5.30483 0.670236 0
M  V30 5730 C 542.269 5.00443 -1.49514 0
M  V30 5731 H 543.963 2.77672 -1.11976 0
M  V30 5732 H 541.509 1.33496 -0.539899 0
M  V30 5733 H 543.462 4.11273 0.918298 0
M  V30 5734 H 542.186 2.95952 1.3813 0
M  V30 5735 H 540.845 3.60787 -0.650267 0
M  V30 5736 H 540.493 4.79379 1.52332 0
M  V30 5737 H 540.193 5.87435 0.139123 0
M  V30 5738 H 541.717 6.01308 1.06117 0
M  V30 5739 H 543.131 5.61141 -1.17447 0
M  V30 5740 H 541.528 5.67071 -1.96343 0
M  V30 5741 H 542.598 4.28906 -2.26202 0
M  V30 5742 N 543.941 0.601185 1.45683 0
M  V30 5743 C 545.187 0.0940202 2.02582 0
M  V30 5744 C 545.52 -1.26972 1.46941 0
M  V30 5745 O 544.795 -1.83613 0.641612 0
M  V30 5746 C 545.078 0.0481715 3.60068 0
M  V30 5747 C 544.931 1.44212 4.26055 0
M  V30 5748 C 546.25 -0.642975 4.35378 0
M  V30 5749 H 543.369 0.0356404 0.736138 0
M  V30 5750 H 546.011 0.771929 1.73612 0
M  V30 5751 H 544.161 -0.529128 3.8488 0
M  V30 5752 H 545.833 2.06601 4.12449 0
M  V30 5753 H 544.076 2.00465 3.84703 0
M  V30 5754 H 544.747 1.36234 5.34925 0
M  V30 5755 H 547.223 -0.152351 4.15821 0
M  V30 5756 H 546.099 -0.644141 5.45107 0
M  V30 5757 H 546.36 -1.70785 4.0778 0
M  V30 5758 N 545.419 -1.53889 0.339982 0
M  V30 5759 C 546.668 -2.00035 -0.258604 0
M  V30 5760 C 546.981 -1.23179 -1.51942 0
M  V30 5761 O 548.187 -1.59784 -2.19503 0
M  V30 5762 C 546.643 -3.56249 -0.511359 0
M  V30 5763 C 546.251 -4.41957 0.733349 0
M  V30 5764 C 547.995 -4.1082 -1.069 0
M  V30 5765 C 545.902 -5.89673 0.451591 0
M  V30 5766 H 544.832 -0.747284 -0.10041 0
M  V30 5767 H 547.483 -1.77776 0.454758 0
M  V30 5768 H 545.865 -3.7456 -1.28533 0
M  V30 5769 H 547.039 -4.35421 1.50815 0
M  V30 5770 H 545.354 -3.9836 1.21237 0
M  V30 5771 H 547.951 -5.18789 -1.2947 0
M  V30 5772 H 548.294 -3.63817 -2.02343 0
M  V30 5773 H 548.827 -3.96205 -0.355817 0
M  V30 5774 H 545.566 -6.40903 1.37565 0
M  V30 5775 H 545.086 -5.99122 -0.285193 0
M  V30 5776 H 546.765 -6.46965 0.0675067 0
M  V30 5777 N 546.897 -0.0685191 -1.57451 0
M  V30 5778 C 548.145 0.60016 -1.92983 0
M  V30 5779 C 548.466 1.70348 -0.949028 0
M  V30 5780 O 547.736 1.959 0.00335647 0
M  V30 5781 H 546.316 0.224682 -0.712409 0
M  V30 5782 H 548.978 -0.125605 -1.94495 0
M  V30 5783 H 548.074 1.02759 -2.94698 0
M  V30 5784 N 548.375 1.56261 0.205012 0
M  V30 5785 C 549.308 1.88797 1.28183 0
M  V30 5786 C 550.286 0.747018 1.44424 0
M  V30 5787 O 551.47 0.997039 1.59973 0
M  V30 5788 C 548.597 2.10949 2.64987 0
M  V30 5789 C 547.643 3.33649 2.6567 0
M  V30 5790 S 548.476 4.89078 2.18088 0
M  V30 5791 C 549.632 5.14286 3.56736 0
M  V30 5792 H 549.865 2.79837 1.00393 0
M  V30 5793 H 547.398 1.48911 0.408042 0
M  V30 5794 H 549.356 2.24395 3.4374 0
M  V30 5795 H 548.017 1.20678 2.89993 0
M  V30 5796 H 547.21 3.46245 3.66239 0
M  V30 5797 H 546.812 3.19146 1.94992 0
M  V30 5798 H 549.104 5.04198 4.52537 0
M  V30 5799 H 550.047 6.16096 3.49043 0
M  V30 5800 H 550.455 4.41957 3.51189 0
M  V30 5801 N 549.853 -0.472356 1.50355 0
M  V30 5802 C 551.081 -1.24784 1.65035 0
M  V30 5803 C 551.496 -1.85837 0.333176 0
M  V30 5804 O 550.853 -1.69168 -0.68472 0
M  V30 5805 C 550.904 -2.35747 2.74054 0
M  V30 5806 O 550.625 -1.77197 4.00665 0
M  V30 5807 C 552.126 -3.26645 2.99696 0
M  V30 5808 H 549.346 -0.377432 0.554785 0
M  V30 5809 H 551.89 -0.563962 1.9657 0
M  V30 5810 H 550.045 -2.99912 2.45217 0
M  V30 5811 H 550.459 -2.5026 4.60945 0
M  V30 5812 H 551.933 -4.00718 3.79644 0
M  V30 5813 H 552.41 -3.8535 2.10718 0
M  V30 5814 H 553.016 -2.68218 3.3006 0
M  V30 5815 N 551.331 -1.39911 -0.725443 0
M  V30 5816 C 552.279 -1.39552 -1.86086 0
M  V30 5817 C 553.273 -0.277334 -1.67114 0
M  V30 5818 O 554.479 -0.447865 -1.74339 0
M  V30 5819 H 550.854 -0.435993 -0.612711 0
M  V30 5820 H 552.825 -2.35305 -1.83505 0
M  V30 5821 C 551.574 -1.26529 -3.2386 0
M  V30 5822 H 550.897 -2.11845 -3.3906 0
M  V30 5823 H 552.337 -1.30336 -4.03471 0
M  V30 5824 C 550.796 0.0254168 -3.3689 0
M  V30 5825 O 551.326 0.992048 -3.89257 0
M  V30 5826 N 549.532 0.0916528 -2.90455 0
M  V30 5827 H 549.079 -0.695675 -2.48028 0
M  V30 5828 H 549.037 0.954745 -2.99553 0
M  V30 5829 N 552.809 0.956637 -1.25245 0
M  V30 5830 C 554.225 1.22733 -1.02023 0
M  V30 5831 C 554.425 1.99761 0.264186 0
M  V30 5832 O 553.481 2.32814 0.977436 0
M  V30 5833 C 554.794 2.00367 -2.24217 0
M  V30 5834 C 556.342 2.13418 -2.28958 0
M  V30 5835 C 556.817 2.9445 -3.50803 0
M  V30 5836 N 558.308 3.02029 -3.51187 0
M  V30 5837 C 559.043 3.65116 -4.42129 0
M  V30 5838 N 558.539 4.2983 -5.43339 0
M  V30 5839 N 560.332 3.62237 -4.29815 0
M  V30 5840 H 552.483 0.441282 -2.07765 0
M  V30 5841 H 554.746 0.257686 -0.912306 0
M  V30 5842 H 554.452 1.51165 -3.17556 0
M  V30 5843 H 554.326 3.01077 -2.27228 0
M  V30 5844 H 556.713 2.61819 -1.36143 0
M  V30 5845 H 556.794 1.1202 -2.29968 0
M  V30 5846 H 556.438 2.46741 -4.43939 0
M  V30 5847 H 556.368 3.9607 -3.47039 0
M  V30 5848 H 558.859 2.56007 -2.77973 0
M  V30 5849 H 559.172 4.75819 -6.08947 0
M  V30 5850 H 557.517 4.28465 -5.47214 0
M  V30 5851 H 560.708 3.10863 -3.49974 0
M  V30 5852 H 560.881 4.11117 -5.00886 0
M  V30 5853 N 554.287 1.06798 1.15896 0
M  V30 5854 C 555.698 0.811355 1.68149 0
M  V30 5855 C 556.049 -0.664339 1.8461 0
M  V30 5856 O 555.174 -1.51485 1.54535 0
M  V30 5857 C 555.769 1.46624 3.05429 0
M  V30 5858 C 554.328 1.25726 3.54781 0
M  V30 5859 C 553.475 1.53949 2.3064 0
M  V30 5860 H 556.426 1.23078 1.00187 0
M  V30 5861 H 556.447 0.88437 3.7008 0
M  V30 5862 H 555.959 2.54025 2.93416 0
M  V30 5863 H 554.06 0.20322 3.72045 0
M  V30 5864 H 554.173 1.97354 4.36564 0
M  V30 5865 H 552.537 0.96025 2.35905 0
M  V30 5866 H 553.32 2.6252 2.2122 0
M  V30 5867 N 555.766 -1.3263 0.851289 0
M  V30 5868 C 557.043 -1.91982 0.374448 0
M  V30 5869 C 557.423 -1.77568 -1.14161 0
M  V30 5870 O 556.771 -1.1717 -1.96172 0
M  V30 5871 C 556.981 -3.38862 0.835088 0
M  V30 5872 C 558.329 -4.15999 0.850309 0
M  V30 5873 O 559.353 -3.47566 0.779505 0
M  V30 5874 O 558.212 -5.38189 0.949481 0
M  V30 5875 H 555.306 -0.819846 0.10854 0
M  V30 5876 H 557.852 -1.41422 0.937966 0
M  V30 5877 H 556.624 -3.43281 1.87814 0
M  V30 5878 H 556.247 -3.96821 0.248833 0
M  V30 5879 N 557.244 -0.608902 -1.45362 0
M  V30 5880 C 558.174 0.0964526 -2.33301 0
M  V30 5881 C 559.155 0.857444 -1.46908 0
M  V30 5882 O 560.34 0.827735 -1.75676 0
M  V30 5883 C 557.47 1.09354 -3.29635 0
M  V30 5884 C 556.424 0.445676 -4.25673 0
M  V30 5885 C 555.75 1.5511 -5.11708 0
M  V30 5886 C 557.05 -0.633972 -5.18438 0
M  V30 5887 H 558.744 -0.637829 -2.92527 0
M  V30 5888 H 556.29 -0.308178 -1.40664 0
M  V30 5889 H 558.243 1.59556 -3.90025 0
M  V30 5890 H 556.967 1.85843 -2.6857 0
M  V30 5891 H 555.626 -0.0354897 -3.66583 0
M  V30 5892 H 555.274 2.30631 -4.4701 0
M  V30 5893 H 554.974 1.12311 -5.76767 0
M  V30 5894 H 556.498 2.05537 -5.74967 0
M  V30 5895 H 557.912 -0.215974 -5.72893 0
M  V30 5896 H 556.309 -0.983789 -5.91981 0
M  V30 5897 H 557.379 -1.51005 -4.60788 0
M  V30 5898 N 558.722 1.53707 -0.348139 0
M  V30 5899 C 559.971 2.0017 0.247992 0
M  V30 5900 C 560.284 1.23983 1.51286 0
M  V30 5901 O 561.49 1.60946 2.18652 0
M  V30 5902 C 559.946 3.56515 0.492459 0
M  V30 5903 C 559.554 4.41562 -0.756777 0
M  V30 5904 C 561.298 4.11381 1.0472 0
M  V30 5905 C 559.205 5.89426 -0.482856 0
M  V30 5906 H 558.135 0.747806 0.0964452 0
M  V30 5907 H 560.786 1.77532 -0.464179 0
M  V30 5908 H 559.168 3.75236 1.26545 0
M  V30 5909 H 560.342 4.34615 -1.53122 0
M  V30 5910 H 558.657 3.97711 -1.23348 0
M  V30 5911 H 561.254 5.19468 1.26717 0
M  V30 5912 H 561.597 3.64885 2.00411 0
M  V30 5913 H 562.13 3.96389 0.334801 0
M  V30 5914 H 558.869 6.40164 -1.40962 0
M  V30 5915 H 558.389 5.99264 0.253416 0
M  V30 5916 H 560.068 6.4692 -0.101816 0
M  V30 5917 N 560.2 0.0768682 1.57412 0
M  V30 5918 C 561.477 -0.632359 1.85096 0
M  V30 5919 C 561.857 -1.87479 0.9703 0
M  V30 5920 O 561.205 -2.28469 0.0379062 0
M  V30 5921 C 561.415 -0.965174 3.35388 0
M  V30 5922 C 562.763 -1.33648 4.03018 0
M  V30 5923 O 563.787 -1.05675 3.40164 0
M  V30 5924 O 562.646 -1.85959 5.13889 0
M  V30 5925 H 559.74 -0.314574 0.764835 0
M  V30 5926 H 562.286 0.108184 1.69355 0
M  V30 5927 H 561.058 -0.0829745 3.91212 0
M  V30 5928 H 560.681 -1.76231 3.5641 0
M  V30 5929 N 561.678 -1.56367 -0.196722 0
M  V30 5930 C 562.588 -1.97617 -1.2643 0
M  V30 5931 C 563.604 -0.883598 -1.49895 0
M  V30 5932 O 564.78 -1.18921 -1.62541 0
M  V30 5933 C 561.845 -2.30595 -2.58895 0
M  V30 5934 C 560.906 -3.53551 -2.43516 0
M  V30 5935 C 560.139 -3.84946 -3.69665 0
M  V30 5936 O 560.362 -3.17655 -4.73763 0
M  V30 5937 O 559.296 -4.78379 -3.65291 0
M  V30 5938 H 563.122 -2.88648 -0.944233 0
M  V30 5939 H 560.707 -1.43901 -0.401592 0
M  V30 5940 H 562.589 -2.52889 -3.37083 0
M  V30 5941 H 561.264 -1.42732 -2.90533 0
M  V30 5942 H 560.171 -3.36507 -1.63445 0
M  V30 5943 H 561.504 -4.41875 -2.16812 0
M  V30 5944 N 563.156 0.464375 -1.50603 0
M  V30 5945 C 564.119 1.54393 -1.69397 0
M  V30 5946 C 565.119 1.50566 -0.564504 0
M  V30 5947 O 566.309 1.53066 -0.831645 0
M  V30 5948 C 563.441 2.9401 -1.72543 0
M  V30 5949 H 564.634 1.39044 -2.65719 0
M  V30 5950 H 562.187 0.69122 -1.40185 0
M  V30 5951 H 562.922 3.14795 -0.77938 0
M  V30 5952 H 562.707 2.98195 -2.54602 0
M  V30 5953 H 564.197 3.72375 -1.89015 0
M  V30 5954 N 564.634 1.40294 0.718013 0
M  V30 5955 C 565.564 1.43118 1.84498 0
M  V30 5956 C 566.545 0.292403 1.67568 0
M  V30 5957 O 567.73 0.500675 1.87635 0
M  V30 5958 C 564.86 1.29065 3.22427 0
M  V30 5959 C 563.814 2.40521 3.54025 0
M  V30 5960 C 563.14 2.11546 4.91073 0
M  V30 5961 C 564.44 3.82859 3.55269 0
M  V30 5962 H 566.134 2.37432 1.82391 0
M  V30 5963 H 563.68 1.14283 0.87609 0
M  V30 5964 H 565.633 1.29658 4.00957 0
M  V30 5965 H 564.357 0.312271 3.25104 0
M  V30 5966 H 563.016 2.39173 2.77834 0
M  V30 5967 H 562.664 1.12104 4.90348 0
M  V30 5968 H 562.364 2.86216 5.1318 0
M  V30 5969 H 563.888 2.13817 5.71939 0
M  V30 5970 H 565.302 3.86044 4.23843 0
M  V30 5971 H 563.699 4.57029 3.88902 0
M  V30 5972 H 564.769 4.12617 2.54706 0
M  V30 5973 N 566.112 -0.949982 1.2575 0
M  V30 5974 C 567.042 -2.06483 1.09028 0
M  V30 5975 C 568.023 -1.701 -0.00201532 0
M  V30 5976 O 569.208 -1.93469 0.168383 0
M  V30 5977 C 566.338 -3.39899 0.71316 0
M  V30 5978 C 565.292 -3.90309 1.75621 0
M  V30 5979 C 564.618 -5.20274 1.23365 0
M  V30 5980 C 565.918 -4.16169 3.15596 0
M  V30 5981 H 567.612 -2.20731 2.02283 0
M  V30 5982 H 565.158 -1.06066 0.973964 0
M  V30 5983 H 567.111 -4.17346 0.58309 0
M  V30 5984 H 565.835 -3.25602 -0.255091 0
M  V30 5985 H 564.494 -3.15035 1.8748 0
M  V30 5986 H 564.142 -5.02351 0.255491 0
M  V30 5987 H 563.842 -5.54971 1.93082 0
M  V30 5988 H 565.366 -6.00314 1.11607 0
M  V30 5989 H 566.78 -4.84259 3.06864 0
M  V30 5990 H 565.177 -4.62131 3.82825 0
M  V30 5991 H 566.247 -3.22273 3.6231 0
M  V30 5992 N 567.59 -1.07411 -1.15328 0
M  V30 5993 C 569.006 -0.799759 -1.38116 0
M  V30 5994 C 569.206 0.59572 -1.92493 0
M  V30 5995 O 568.262 1.35433 -2.13106 0
M  V30 5996 C 569.575 -1.87407 -2.35158 0
M  V30 5997 C 571.123 -1.89889 -2.48819 0
M  V30 5998 C 571.598 -2.96406 -3.49153 0
M  V30 5999 N 573.089 -2.95512 -3.56689 0
M  V30 6000 C 573.824 -3.74575 -4.34144 0
M  V30 6001 N 573.32 -4.63488 -5.14928 0
M  V30 6002 N 575.113 -3.62919 -4.29239 0
M  V30 6003 H 567.264 -1.97411 -0.78374 0
M  V30 6004 H 569.527 -0.856113 -0.407154 0
M  V30 6005 H 569.233 -2.8768 -2.0232 0
M  V30 6006 H 569.107 -1.73471 -3.34944 0
M  V30 6007 H 571.494 -0.902677 -2.80955 0
M  V30 6008 H 571.575 -2.07904 -1.49029 0
M  V30 6009 H 571.219 -3.96227 -3.17752 0
M  V30 6010 H 571.149 -2.75638 -4.48699 0
M  V30 6011 H 573.64 -2.31061 -2.99031 0
M  V30 6012 H 573.953 -5.20445 -5.71276 0
M  V30 6013 H 572.298 -4.67537 -5.14232 0
M  V30 6014 H 575.489 -2.92833 -3.65194 0
M  V30 6015 H 575.662 -4.24777 -4.89355 0
M  V30 6016 N 569.068 1.32177 -0.85831 0
M  V30 6017 C 570.479 1.79381 -0.517621 0
M  V30 6018 C 570.83 1.70841 0.964769 0
M  V30 6019 O 569.955 1.26917 1.75274 0
M  V30 6020 C 570.55 3.25706 -0.932801 0
M  V30 6021 C 569.109 3.70851 -0.643953 0
M  V30 6022 C 568.256 2.53208 -1.13054 0
M  V30 6023 H 571.207 1.19424 -1.04516 0
M  V30 6024 H 571.228 3.79673 -0.250674 0
M  V30 6025 H 570.74 3.31889 -2.01174 0
M  V30 6026 H 568.841 3.70178 0.424112 0
M  V30 6027 H 568.954 4.63495 -1.21281 0
M  V30 6028 H 567.318 2.48676 -0.550679 0
M  V30 6029 H 568.101 2.62143 -2.21666 0
M  V30 6030 N 570.547 0.616602 1.45037 0
M  V30 6031 C 571.795 0.115103 2.01772 0
M  V30 6032 C 572.116 -1.2622 1.48639 0
M  V30 6033 O 571.386 -1.83563 0.684199 0
M  V30 6034 H 569.966 0.0395607 0.745952 0
M  V30 6035 H 572.628 0.800032 1.77723 0
M  V30 6036 H 571.724 0.0717274 3.12018 0
M  V30 6037 N 572.025 -1.5352 0.356285 0
M  V30 6038 C 573.441 -1.59599 0.00485267 0
M  V30 6039 C 573.641 -1.37179 -1.47595 0
M  V30 6040 O 572.697 -1.17234 -2.23635 0
M  V30 6041 C 574.01 -2.97277 0.452454 0
M  V30 6042 C 575.558 -3.10357 0.405881 0
M  V30 6043 C 576.033 -4.50432 0.829148 0
M  V30 6044 N 577.524 -4.5652 0.783838 0
M  V30 6045 C 578.259 -5.63077 1.08315 0
M  V30 6046 N 577.755 -6.77429 1.45126 0
M  V30 6047 N 579.548 -5.53014 1.00655 0
M  V30 6048 H 571.699 -1.66346 1.32071 0
M  V30 6049 H 573.962 -0.77971 0.539218 0
M  V30 6050 H 573.668 -3.18792 1.48542 0
M  V30 6051 H 573.542 -3.76836 -0.165762 0
M  V30 6052 H 575.929 -2.88558 -0.617934 0
M  V30 6053 H 576.01 -2.32828 1.05947 0
M  V30 6054 H 575.654 -4.72968 1.85103 0
M  V30 6055 H 575.584 -5.26378 0.152906 0
M  V30 6056 H 578.075 -3.74408 0.512513 0
M  V30 6057 H 578.388 -7.54669 1.66415 0
M  V30 6058 H 576.733 -6.78844 1.48983 0
M  V30 6059 H 579.924 -4.62557 0.718215 0
M  V30 6060 H 580.097 -6.35964 1.24315 0
M  V30 6061 N 573.503 -0.0852151 -1.57369 0
M  V30 6062 C 574.433 0.874556 -2.16503 0
M  V30 6063 C 575.414 1.30111 -1.09568 0
M  V30 6064 O 576.599 1.36977 -1.37662 0
M  V30 6065 C 573.729 2.13731 -2.73745 0
M  V30 6066 C 572.683 1.84971 -3.85966 0
M  V30 6067 C 572.009 3.17991 -4.29867 0
M  V30 6068 C 573.309 1.14442 -5.09608 0
M  V30 6069 H 575.003 0.381899 -2.96954 0
M  V30 6070 H 572.549 0.18225 -1.42842 0
M  V30 6071 H 574.502 2.81302 -3.13763 0
M  V30 6072 H 573.226 2.65263 -1.90534 0
M  V30 6073 H 571.885 1.19801 -3.46473 0
M  V30 6074 H 571.533 3.6739 -3.4356 0
M  V30 6075 H 571.233 2.99534 -5.05523 0
M  V30 6076 H 572.757 3.86737 -4.72511 0
M  V30 6077 H 574.171 1.72105 -5.46857 0
M  V30 6078 H 572.568 1.06197 -5.90629 0
M  V30 6079 H 573.638 0.12559 -4.84737 0
M  V30 6080 N 574.981 1.5647 0.188427 0
M  V30 6081 C 575.891 1.98285 1.2538 0
M  V30 6082 C 576.907 0.891535 1.49424 0
M  V30 6083 O 578.083 1.19782 1.61908 0
M  V30 6084 C 575.148 2.31965 2.57669 0
M  V30 6085 C 574.209 3.54838 2.41638 0
M  V30 6086 C 573.442 3.86901 3.67618 0
M  V30 6087 O 573.665 3.20163 4.72072 0
M  V30 6088 O 572.599 4.80309 3.62749 0
M  V30 6089 H 576.425 2.89145 0.928912 0
M  V30 6090 H 574.01 1.44112 0.393955 0
M  V30 6091 H 575.892 2.54673 3.35737 0
M  V30 6092 H 574.567 1.44271 2.89771 0
M  V30 6093 H 573.474 3.37369 1.61658 0
M  V30 6094 H 574.807 4.43019 2.14465 0
M  V30 6095 N 576.459 -0.456382 1.50847 0
M  V30 6096 C 577.705 -1.20914 1.62811 0
M  V30 6097 C 578.038 -1.91301 0.334304 0
M  V30 6098 O 577.313 -1.82775 -0.665098 0
M  V30 6099 C 577.596 -2.24122 2.81853 0
M  V30 6100 C 577.449 -1.57944 4.21158 0
M  V30 6101 C 578.768 -3.25295 2.96431 0
M  V30 6102 H 575.887 -0.438233 0.592554 0
M  V30 6103 H 578.529 -0.50091 1.83278 0
M  V30 6104 H 576.679 -2.84524 2.64534 0
M  V30 6105 H 578.351 -1.01025 4.50102 0
M  V30 6106 H 576.594 -0.882185 4.24735 0
M  V30 6107 H 577.265 -2.33014 5.00408 0
M  V30 6108 H 579.741 -2.7493 3.12335 0
M  V30 6109 H 578.617 -3.94822 3.81322 0
M  V30 6110 H 578.878 -3.90286 2.07676 0
M  V30 6111 N 577.937 -1.40673 -0.710563 0
M  V30 6112 C 578.884 -1.41336 -1.82463 0
M  V30 6113 C 579.854 -0.269648 -1.63897 0
M  V30 6114 O 581.039 -0.468463 -1.8496 0
M  V30 6115 C 578.179 -1.28665 -3.20218 0
M  V30 6116 C 577.292 -2.52784 -3.5032 0
M  V30 6117 C 576.427 -2.32517 -4.77608 0
M  V30 6118 C 575.466 -3.52187 -5.0063 0
M  V30 6119 N 574.603 -3.31084 -6.19135 0
M  V30 6120 H 579.443 -2.36558 -1.8123 0
M  V30 6121 H 576.98 -1.17483 -0.885226 0
M  V30 6122 H 578.938 -1.19324 -3.99772 0
M  V30 6123 H 577.568 -0.370602 -3.20666 0
M  V30 6124 H 576.62 -2.72634 -2.65283 0
M  V30 6125 H 577.932 -3.41845 -3.63241 0
M  V30 6126 H 577.086 -2.20558 -5.65189 0
M  V30 6127 H 575.825 -1.40889 -4.66906 0
M  V30 6128 H 574.83 -3.64617 -4.11502 0
M  V30 6129 H 576.055 -4.44749 -5.13201 0
M  V30 6130 H 574.001 -2.42143 -6.09674 0
M  V30 6131 H 573.918 -4.13713 -6.32754 0
M  V30 6132 H 575.186 -3.22868 -7.0949 0
M  V30 6133 N 579.415 0.9433 -1.26252 0
M  V30 6134 C 580.348 2.04162 -1.01946 0
M  V30 6135 C 581.326 1.62507 0.0550808 0
M  V30 6136 O 582.51 1.883 -0.0869025 0
M  V30 6137 C 579.637 3.34313 -0.54335 0
M  V30 6138 C 578.683 3.94939 -1.61013 0
M  V30 6139 S 579.516 4.29484 -3.19849 0
M  V30 6140 C 580.672 5.62738 -2.74001 0
M  V30 6141 H 580.905 2.24466 -1.94942 0
M  V30 6142 H 578.438 1.08441 -1.09909 0
M  V30 6143 H 580.396 4.09576 -0.275315 0
M  V30 6144 H 579.057 3.11957 0.36629 0
M  V30 6145 H 578.25 4.88812 -1.22795 0
M  V30 6146 H 577.852 3.26202 -1.82943 0
M  V30 6147 H 580.144 6.41356 -2.18333 0
M  V30 6148 H 581.087 6.05839 -3.66558 0
M  V30 6149 H 581.495 5.22514 -2.13634 0
M  V30 6150 N 580.893 1.08022 1.14757 0
M  V30 6151 C 581.803 0.718292 2.23333 0
M  V30 6152 C 582.819 -0.273477 1.71837 0
M  V30 6153 O 583.995 -0.118406 2.01052 0
M  V30 6154 C 581.06 0.128855 3.4646 0
M  V30 6155 C 580.121 1.17473 4.12915 0
M  V30 6156 C 579.354 0.61333 5.30164 0
M  V30 6157 O 579.577 -0.568458 5.6756 0
M  V30 6158 O 578.511 1.3615 5.86299 0
M  V30 6159 H 582.337 1.62394 2.56636 0
M  V30 6160 H 579.922 0.853628 1.22611 0
M  V30 6161 H 581.804 -0.197249 4.20938 0
M  V30 6162 H 580.479 -0.750014 3.14891 0
M  V30 6163 H 579.386 1.5533 3.40328 0
M  V30 6164 H 580.719 2.02574 4.48581 0
M  V30 6165 N 582.371 -1.3172 0.865308 0
M  V30 6166 C 583.62 -1.96145 0.470098 0
M  V30 6167 C 583.933 -1.69182 -0.981674 0
M  V30 6168 O 585.139 -2.27431 -1.48281 0
M  V30 6169 C 583.595 -3.51129 0.789732 0
M  V30 6170 C 583.203 -3.86938 2.25795 0
M  V30 6171 C 584.947 -4.2197 0.462765 0
M  V30 6172 C 582.854 -5.35012 2.52024 0
M  V30 6173 H 581.784 -0.734105 0.172065 0
M  V30 6174 H 584.435 -1.49959 1.05757 0
M  V30 6175 H 582.817 -3.95781 0.131571 0
M  V30 6176 H 583.991 -3.5326 2.95879 0
M  V30 6177 H 582.306 -3.29149 2.55049 0
M  V30 6178 H 584.903 -5.30904 0.636019 0
M  V30 6179 H 585.246 -4.12005 -0.59645 0
M  V30 6180 H 585.779 -3.82936 1.07727 0
M  V30 6181 H 582.518 -5.50008 3.56611 0
M  V30 6182 H 582.038 -5.70058 1.8653 0
M  V30 6183 H 583.717 -6.0222 2.36515 0
M  V30 6184 N 583.85 -0.624285 -1.44708 0
M  V30 6185 C 585.098 -0.125802 -2.01708 0
M  V30 6186 C 585.418 1.2543 -1.49306 0
M  V30 6187 O 584.689 1.83198 -0.693924 0
M  V30 6188 H 583.269 -0.0435161 -0.745731 0
M  V30 6189 H 585.931 -0.809446 -1.77296 0
M  V30 6190 H 585.027 -0.0882734 -3.11975 0
M  V30 6191 N 585.328 1.53329 -0.364422 0
M  V30 6192 C 586.258 2.28627 0.474543 0
M  V30 6193 C 587.239 1.31009 1.08492 0
M  V30 6194 O 588.424 1.59878 1.10239 0
M  V30 6195 C 585.554 3.07465 1.61501 0
M  V30 6196 C 584.508 4.1276 1.13194 0
M  V30 6197 C 583.834 4.79674 2.36255 0
M  V30 6198 C 585.134 5.21847 0.217507 0
M  V30 6199 H 586.828 2.99005 -0.153656 0
M  V30 6200 H 584.374 1.43803 -0.0753406 0
M  V30 6201 H 586.327 3.58889 2.20855 0
M  V30 6202 H 585.051 2.34775 2.27042 0
M  V30 6203 H 583.71 3.62281 0.56109 0
M  V30 6204 H 583.358 4.03557 3.00251 0
M  V30 6205 H 583.058 5.50827 2.04606 0
M  V30 6206 H 584.582 5.33892 2.96297 0
M  V30 6207 H 585.996 5.6878 0.718493 0
M  V30 6208 H 584.393 6.00099 -0.00806408 0
M  V30 6209 H 585.463 4.7921 -0.740653 0
M  V30 6210 N 586.806 0.0935595 1.57322 0
M  V30 6211 C 588.217 -0.435807 1.81542 0
M  V30 6212 C 588.568 -1.68263 1.00907 0
M  V30 6213 O 587.693 -2.15087 0.237983 0
M  V30 6214 C 588.288 -0.797436 3.29282 0
M  V30 6215 C 586.847 -1.27155 3.54272 0
M  V30 6216 C 585.994 -0.267455 2.76007 0
M  V30 6217 H 588.945 0.31902 1.5546 0
M  V30 6218 H 588.966 -1.6571 3.42521 0
M  V30 6219 H 588.478 0.110206 3.87943 0
M  V30 6220 H 586.579 -2.19696 3.00939 0
M  V30 6221 H 586.692 -1.23445 4.62923 0
M  V30 6222 H 585.056 -0.749282 2.43429 0
M  V30 6223 H 585.839 0.632839 3.37417 0
M  V30 6224 N 588.284 -1.56567 -0.180126 0
M  V30 6225 C 589.561 -1.7235 -0.924931 0
M  V30 6226 C 589.941 -0.652523 -2.00762 0
M  V30 6227 O 589.289 0.334115 -2.26044 0
M  V30 6228 C 589.499 -3.1523 -1.49771 0
M  V30 6229 C 590.847 -3.75921 -1.97405 0
M  V30 6230 O 591.871 -3.18452 -1.59583 0
M  V30 6231 O 590.73 -4.7681 -2.67048 0
M  V30 6232 H 587.824 -0.703502 -0.434758 0
M  V30 6233 H 590.37 -1.6886 -0.168647 0
M  V30 6234 H 589.142 -3.84656 -0.718027 0
M  V30 6235 H 588.765 -3.23009 -2.31842 0
M  V30 6236 N 589.762 0.448376 -1.51087 0
M  V30 6237 C 590.672 1.56882 -1.74428 0
M  V30 6238 C 591.688 1.62268 -0.62809 0
M  V30 6239 O 592.864 1.79716 -0.909075 0
M  V30 6240 C 589.929 2.92947 -1.85426 0
M  V30 6241 C 588.99 2.97766 -3.09247 0
M  V30 6242 C 588.223 4.27341 -3.19711 0
M  V30 6243 O 588.446 5.19112 -2.36387 0
M  V30 6244 O 587.38 4.38219 -4.12611 0
M  V30 6245 H 591.206 1.40104 -2.69452 0
M  V30 6246 H 588.791 0.630247 -1.35456 0
M  V30 6247 H 590.673 3.73719 -1.94709 0
M  V30 6248 H 589.348 3.09876 -0.935887 0
M  V30 6249 H 588.255 2.15989 -3.0545 0
M  V30 6250 H 589.588 2.8578 -4.00738 0
M  V30 6251 N 591.24 1.41047 0.703093 0
M  V30 6252 C 592.187 1.42302 1.81711 0
M  V30 6253 C 593.157 0.278336 1.63751 0
M  V30 6254 O 594.342 0.478266 1.84709 0
M  V30 6255 C 591.482 1.30362 3.19531 0
M  V30 6256 C 590.595 2.54638 3.48975 0
M  V30 6257 C 589.73 2.35047 4.76368 0
M  V30 6258 C 588.769 3.54837 4.98756 0
M  V30 6259 N 587.906 3.34363 6.1737 0
M  V30 6260 H 592.746 2.37516 1.79973 0
M  V30 6261 H 590.283 1.1795 0.878983 0
M  V30 6262 H 592.241 1.21443 3.99134 0
M  V30 6263 H 590.871 0.387602 3.20464 0
M  V30 6264 H 589.923 2.74037 2.63833 0
M  V30 6265 H 591.235 3.43766 3.61423 0
M  V30 6266 H 590.389 2.23552 5.64012 0
M  V30 6267 H 589.128 1.43363 4.66153 0
M  V30 6268 H 588.133 3.66795 4.09563 0
M  V30 6269 H 589.358 4.47464 5.10835 0
M  V30 6270 H 587.304 2.45373 6.08382 0
M  V30 6271 H 587.221 4.17063 6.30551 0
M  V30 6272 H 588.489 3.26626 7.07768 0
M  V30 6273 N 592.718 -0.936591 1.26751 0
M  V30 6274 C 593.966 -1.67998 1.12343 0
M  V30 6275 C 594.287 -1.92137 -0.332938 0
M  V30 6276 O 593.557 -1.52132 -1.23421 0
M  V30 6277 H 592.137 -0.622609 0.412756 0
M  V30 6278 H 594.799 -1.12509 1.59147 0
M  V30 6279 H 593.895 -2.65185 1.64571 0
M  V30 6280 N 594.196 -1.08629 -1.14182 0
M  V30 6281 C 595.612 -0.814363 -1.3726 0
M  V30 6282 C 595.812 0.575271 -1.93114 0
M  V30 6283 O 594.868 1.33165 -2.1453 0
M  V30 6284 C 596.181 -1.8989 -2.33157 0
M  V30 6285 C 597.729 -1.92518 -2.46791 0
M  V30 6286 C 598.204 -3.00092 -3.45989 0
M  V30 6287 N 599.695 -2.99279 -3.53534 0
M  V30 6288 C 600.43 -3.79158 -4.30147 0
M  V30 6289 N 599.926 -4.68923 -5.09983 0
M  V30 6290 N 601.719 -3.67451 -4.25366 0
M  V30 6291 H 593.87 -1.98232 -0.762758 0
M  V30 6292 H 596.133 -0.860383 -0.398051 0
M  V30 6293 H 595.839 -2.89809 -1.99257 0
M  V30 6294 H 595.713 -1.77013 -3.33086 0
M  V30 6295 H 598.1 -0.932425 -2.79982 0
M  V30 6296 H 598.181 -2.09473 -1.46816 0
M  V30 6297 H 597.825 -3.99575 -3.13532 0
M  V30 6298 H 597.755 -2.80382 -4.45751 0
M  V30 6299 H 600.246 -2.3422 -2.96563 0
M  V30 6300 H 600.559 -5.26475 -5.65724 0
M  V30 6301 H 598.904 -4.72964 -5.09244 0
M  V30 6302 H 602.095 -2.9669 -3.62067 0
M  V30 6303 H 602.268 -4.29944 -4.84822 0
M  V30 6304 N 595.674 1.31259 -0.872281 0
M  V30 6305 C 596.604 2.30929 -0.345554 0
M  V30 6306 C 597.585 1.60449 0.5648 0
M  V30 6307 O 598.77 1.8814 0.481335 0
M  V30 6308 C 595.9 3.44348 0.451823 0
M  V30 6309 C 594.854 4.26435 -0.365641 0
M  V30 6310 C 594.18 5.31785 0.557562 0
M  V30 6311 C 595.48 4.97159 -1.60095 0
M  V30 6312 H 597.174 2.75234 -1.17841 0
M  V30 6313 H 594.72 1.3232 -0.568094 0
M  V30 6314 H 596.673 4.13128 0.830854 0
M  V30 6315 H 595.397 2.98816 1.31821 0
M  V30 6316 H 594.056 3.59326 -0.726649 0
M  V30 6317 H 593.704 4.82502 1.4213 0
M  V30 6318 H 593.404 5.87598 0.0144878 0
M  V30 6319 H 594.928 6.03424 0.933387 0
M  V30 6320 H 596.342 5.58523 -1.29323 0
M  V30 6321 H 594.739 5.62779 -2.08327 0
M  V30 6322 H 595.809 4.24012 -2.35249 0
M  V30 6323 N 597.152 0.631951 1.44375 0
M  V30 6324 C 598.084 -0.110911 2.28931 0
M  V30 6325 C 599.097 -0.808086 1.41329 0
M  V30 6326 O 600.286 -0.669396 1.65473 0
M  V30 6327 C 597.386 -1.17928 3.1772 0
M  V30 6328 C 596.559 -0.564458 4.33743 0
M  V30 6329 C 595.618 -1.5269 5.0356 0
M  V30 6330 O 594.644 -1.04372 5.59549 0
M  V30 6331 N 595.846 -2.86123 5.05088 0
M  V30 6332 H 598.611 0.614758 2.93327 0
M  V30 6333 H 596.172 0.473171 1.54831 0
M  V30 6334 H 598.164 -1.82348 3.61291 0
M  V30 6335 H 596.734 -1.80717 2.55069 0
M  V30 6336 H 595.954 0.258373 3.93352 0
M  V30 6337 H 597.242 -0.134355 5.08623 0
M  V30 6338 H 596.64 -3.27959 4.60933 0
M  V30 6339 H 595.197 -3.45901 5.52445 0
M  V30 6340 N 598.631 -1.53133 0.372548 0
M  V30 6341 C 599.88 -2.00539 -0.216115 0
M  V30 6342 C 600.193 -1.26374 -1.49295 0
M  V30 6343 O 601.399 -1.64404 -2.16064 0
M  V30 6344 C 599.855 -3.57253 -0.435678 0
M  V30 6345 C 599.463 -4.40302 0.82693 0
M  V30 6346 C 601.207 -4.12995 -0.981618 0
M  V30 6347 C 599.114 -5.88583 0.576567 0
M  V30 6348 H 598.044 -0.749246 -0.084536 0
M  V30 6349 H 600.695 -1.76771 0.492364 0
M  V30 6350 H 599.077 -3.77202 -1.20559 0
M  V30 6351 H 600.251 -4.32124 1.60017 0
M  V30 6352 H 598.566 -3.95699 1.29659 0
M  V30 6353 H 601.163 -5.21418 -1.18436 0
M  V30 6354 H 601.506 -3.68027 -1.94581 0
M  V30 6355 H 602.039 -3.96871 -0.271696 0
M  V30 6356 H 598.778 -6.37841 1.51128 0
M  V30 6357 H 598.298 -5.99592 -0.158047 0
M  V30 6358 H 599.977 -6.46676 0.204722 0
M  V30 6359 N 600.109 -0.101901 -1.5727 0
M  V30 6360 C 601.039 0.851544 -2.17419 0
M  V30 6361 C 602.02 1.28942 -1.10941 0
M  V30 6362 O 603.205 1.35509 -1.39107 0
M  V30 6363 C 600.335 2.10816 -2.75996 0
M  V30 6364 C 599.289 1.80867 -3.87906 0
M  V30 6365 C 598.615 3.13413 -4.33216 0
M  V30 6366 C 599.915 1.0903 -5.10793 0
M  V30 6367 H 601.609 0.350381 -2.97343 0
M  V30 6368 H 599.155 0.16709 -1.43027 0
M  V30 6369 H 601.108 2.77959 -3.16729 0
M  V30 6370 H 599.832 2.63227 -1.93337 0
M  V30 6371 H 598.491 1.16119 -3.47724 0
M  V30 6372 H 598.139 3.63725 -3.47438 0
M  V30 6373 H 597.839 2.94155 -5.08671 0
M  V30 6374 H 599.363 3.81704 -4.76586 0
M  V30 6375 H 600.777 1.66295 -5.48652 0
M  V30 6376 H 599.174 0.99927 -5.91722 0
M  V30 6377 H 600.244 0.0741704 -4.84843 0
M  V30 6378 N 601.587 1.56661 0.17182 0
M  V30 6379 C 602.537 1.92781 1.21736 0
M  V30 6380 C 603.521 0.796065 1.39827 0
M  V30 6381 O 604.713 1.05924 1.41806 0
M  V30 6382 C 601.842 2.29079 2.55691 0
M  V30 6383 C 600.928 3.48765 2.41296 0
M  V30 6384 N 601.319 4.66022 1.96614 0
M  V30 6385 C 599.617 3.53362 2.72124 0
M  V30 6386 C 600.318 5.48159 1.94669 0
M  V30 6387 N 599.294 4.89189 2.37054 0
M  V30 6388 H 603.096 2.80926 0.863592 0
M  V30 6389 H 600.61 1.57889 0.380096 0
M  V30 6390 H 602.607 2.5315 3.31241 0
M  V30 6391 H 601.267 1.42272 2.91871 0
M  V30 6392 H 602.278 4.9025 1.66959 0
M  V30 6393 H 598.955 2.77033 3.12345 0
M  V30 6394 H 600.345 6.52121 1.61826 0
M  V30 6395 N 603.065 -0.440357 1.51323 0
M  V30 6396 C 604.314 -1.18697 1.63076 0
M  V30 6397 C 604.627 -1.92418 0.35136 0
M  V30 6398 O 605.833 -2.69258 0.348221 0
M  V30 6399 C 604.289 -2.15849 2.87988 0
M  V30 6400 C 603.897 -1.47789 4.22921 0
M  V30 6401 C 605.641 -2.90962 3.09098 0
M  V30 6402 C 603.548 -2.43407 5.38987 0
M  V30 6403 H 602.478 -0.44676 0.607389 0
M  V30 6404 H 605.129 -0.454313 1.77787 0
M  V30 6405 H 603.511 -2.92537 2.66905 0
M  V30 6406 H 604.685 -0.7668 4.54375 0
M  V30 6407 H 603 -0.848404 4.07665 0
M  V30 6408 H 605.597 -3.62584 3.92985 0
M  V30 6409 H 605.94 -3.52133 2.22053 0
M  V30 6410 H 606.473 -2.21381 3.30507 0
M  V30 6411 H 603.212 -1.86929 6.28282 0
M  V30 6412 H 602.732 -3.12579 5.11913 0
M  V30 6413 H 604.411 -3.046 5.70813 0
M  V30 6414 N 604.543 -1.41418 -0.695603 0
M  V30 6415 C 605.493 -1.39731 -1.80165 0
M  V30 6416 C 606.477 -0.271689 -1.5859 0
M  V30 6417 O 607.669 -0.512354 -1.69422 0
M  V30 6418 C 604.798 -1.28187 -3.1847 0
M  V30 6419 C 603.884 -2.45612 -3.45739 0
M  V30 6420 N 604.275 -3.71077 -3.43708 0
M  V30 6421 C 602.573 -2.39424 -3.76288 0
M  V30 6422 C 603.274 -4.48957 -3.69882 0
M  V30 6423 N 602.25 -3.7907 -3.89624 0
M  V30 6424 H 606.052 -2.34656 -1.76957 0
M  V30 6425 H 603.566 -1.35473 -0.89559 0
M  V30 6426 H 605.563 -1.2506 -3.977 0
M  V30 6427 H 604.223 -0.342468 -3.22889 0
M  V30 6428 H 605.234 -4.03963 -3.2409 0
M  V30 6429 H 601.911 -1.53955 -3.88077 0
M  V30 6430 H 603.301 -5.57887 -3.74448 0
M  V30 6431 N 606.021 0.929856 -1.27246 0
M  V30 6432 C 607.249 1.71144 -1.16265 0
M  V30 6433 C 607.664 1.867 0.280786 0
M  V30 6434 O 607.021 1.38249 1.19136 0
M  V30 6435 C 607.072 3.11222 -1.83911 0
M  V30 6436 O 606.793 2.96398 -3.22614 0
M  V30 6437 C 608.294 4.05541 -1.79028 0
M  V30 6438 H 605.514 0.535499 -0.404328 0
M  V30 6439 H 608.058 1.16492 -1.68077 0
M  V30 6440 H 606.213 3.6274 -1.36009 0
M  V30 6441 H 606.627 3.8494 -3.56261 0
M  V30 6442 H 608.101 5.01351 -2.30978 0
M  V30 6443 H 608.578 4.32589 -0.759168 0
M  V30 6444 H 609.184 3.59947 -2.26535 0
M  V30 6445 N 607.499 1.09233 1.13605 0
M  V30 6446 C 608.462 0.733553 2.17144 0
M  V30 6447 C 609.462 -0.235873 1.59061 0
M  V30 6448 O 610.652 -0.0143167 1.74194 0
M  V30 6449 C 607.784 0.084471 3.40795 0
M  V30 6450 H 608.977 1.65049 2.50397 0
M  V30 6451 H 606.53 0.891264 1.28399 0
M  V30 6452 H 607.265 -0.843795 3.1313 0
M  V30 6453 H 607.05 0.781985 3.84223 0
M  V30 6454 H 608.54 -0.151216 4.17326 0
M  V30 6455 N 608.977 -1.30795 0.87923 0
M  V30 6456 C 610.393 -1.48981 0.57243 0
M  V30 6457 C 610.593 -1.80719 -0.891236 0
M  V30 6458 O 609.649 -1.89136 -1.67283 0
M  V30 6459 C 610.962 -2.61721 1.48063 0
M  V30 6460 C 612.51 -2.75603 1.48365 0
M  V30 6461 C 612.985 -3.91449 2.37763 0
M  V30 6462 N 614.476 -3.98751 2.35695 0
M  V30 6463 C 615.211 -4.87684 3.01583 0
M  V30 6464 N 614.707 -5.81454 3.76674 0
M  V30 6465 N 616.5 -4.81005 2.90844 0
M  V30 6466 H 608.651 -1.08465 1.82617 0
M  V30 6467 H 610.914 -0.536813 0.781368 0
M  V30 6468 H 610.62 -2.45073 2.52254 0
M  V30 6469 H 610.494 -3.58071 1.18596 0
M  V30 6470 H 612.881 -2.9166 0.44927 0
M  V30 6471 H 612.962 -1.79891 1.81859 0
M  V30 6472 H 612.606 -3.76149 3.41283 0
M  V30 6473 H 612.536 -4.86487 2.01589 0
M  V30 6474 H 615.027 -3.31668 1.81121 0
M  V30 6475 H 615.34 -6.46063 4.24054 0
M  V30 6476 H 613.685 -5.81403 3.80782 0
M  V30 6477 H 616.876 -4.06728 2.31711 0
M  V30 6478 H 617.049 -5.50107 3.42471 0
M  V30 6479 N 610.455 -0.639598 -1.44038 0
M  V30 6480 C 611.388 0.109736 -2.27936 0
M  V30 6481 C 612.366 0.843095 -1.39035 0
M  V30 6482 O 613.55 0.845456 -1.68476 0
M  V30 6483 C 610.677 1.16173 -3.18153 0
M  V30 6484 C 609.723 0.527954 -4.2322 0
M  V30 6485 S 610.556 -0.688318 -5.31058 0
M  V30 6486 C 611.712 0.363481 -6.24844 0
M  V30 6487 H 611.945 -0.601986 -2.91142 0
M  V30 6488 H 609.478 -0.42802 -1.48349 0
M  V30 6489 H 611.436 1.76372 -3.7068 0
M  V30 6490 H 610.097 1.84569 -2.54151 0
M  V30 6491 H 609.29 1.32054 -4.86393 0
M  V30 6492 H 608.892 0.000396444 -3.74 0
M  V30 6493 H 611.184 1.23362 -6.66174 0
M  V30 6494 H 612.127 -0.23288 -7.07717 0
M  V30 6495 H 612.535 0.693179 -5.60228 0
M  V30 6496 N 611.933 1.52934 -0.380664 0
M  V30 6497 C 613.349 1.59571 -0.0302429 0
M  V30 6498 C 613.549 1.39509 1.45394 0
M  V30 6499 O 612.605 1.20777 2.21741 0
M  V30 6500 C 613.918 2.96519 -0.499691 0
M  V30 6501 C 615.466 3.09672 -0.455204 0
M  V30 6502 C 615.941 4.49056 -0.900703 0
M  V30 6503 N 617.432 4.55215 -0.856367 0
M  V30 6504 C 618.167 5.61282 -1.17259 0
M  V30 6505 N 617.663 6.75035 -1.55885 0
M  V30 6506 N 619.456 5.51343 -1.0944 0
M  V30 6507 H 611.607 1.64224 -1.347 0
M  V30 6508 H 613.87 0.771033 -0.551554 0
M  V30 6509 H 613.576 3.16388 -1.53595 0
M  V30 6510 H 613.45 3.77052 0.105789 0
M  V30 6511 H 615.837 2.89504 0.571949 0
M  V30 6512 H 615.918 2.31113 -1.09638 0
M  V30 6513 H 615.562 4.69964 -1.92604 0
M  V30 6514 H 615.492 5.26068 -0.236629 0
M  V30 6515 H 617.983 3.73546 -0.572013 0
M  V30 6516 H 618.296 7.51926 -1.784 0
M  V30 6517 H 616.641 6.76388 -1.59764 0
M  V30 6518 H 619.832 4.61356 -0.791713 0
M  V30 6519 H 620.005 6.33905 -1.34417 0
M  V30 6520 N 613.412 0.11024 1.57214 0
M  V30 6521 C 614.66 -0.548783 1.94506 0
M  V30 6522 C 614.981 -1.67772 0.99386 0
M  V30 6523 O 614.251 -1.9584 0.0485841 0
M  V30 6524 H 612.831 -0.205715 0.718116 0
M  V30 6525 H 615.493 0.177127 1.94093 0
M  V30 6526 H 614.589 -0.949096 2.97319 0
M  V30 6527 N 614.89 -1.56749 -0.16351 0
M  V30 6528 C 615.84 -1.93424 -1.20712 0
M  V30 6529 C 616.824 -0.803469 -1.39403 0
M  V30 6530 O 618.016 -1.06675 -1.41243 0
M  V30 6531 C 615.145 -2.30431 -2.54473 0
M  V30 6532 C 614.231 -3.5004 -2.39443 0
M  V30 6533 N 614.622 -4.67058 -1.9414 0
M  V30 6534 C 612.92 -3.548 -2.70246 0
M  V30 6535 C 613.621 -5.49184 -1.9176 0
M  V30 6536 N 612.597 -4.9044 -2.34457 0
M  V30 6537 H 616.399 -2.8138 -0.848681 0
M  V30 6538 H 613.913 -1.58089 -0.371717 0
M  V30 6539 H 615.91 -2.54903 -3.29894 0
M  V30 6540 H 614.57 -1.43818 -2.91112 0
M  V30 6541 H 615.581 -4.91128 -1.64357 0
M  V30 6542 H 612.258 -2.78685 -3.10871 0
M  V30 6543 H 613.648 -6.5297 -1.58366 0
M  V30 6544 N 616.368 0.432326 -1.51554 0
M  V30 6545 C 617.3 1.54357 -1.6943 0
M  V30 6546 C 618.313 1.52311 -0.574897 0
M  V30 6547 O 619.502 1.56997 -0.849369 0
M  V30 6548 C 616.602 2.93273 -1.69836 0
M  V30 6549 C 615.775 3.19768 -2.98442 0
M  V30 6550 C 614.834 4.38433 -2.90969 0
M  V30 6551 O 613.86 4.36842 -3.64908 0
M  V30 6552 N 615.062 5.42276 -2.07163 0
M  V30 6553 H 617.827 1.39426 -2.65293 0
M  V30 6554 H 615.388 0.621331 -1.49503 0
M  V30 6555 H 617.38 3.70687 -1.62399 0
M  V30 6556 H 615.95 3.01777 -0.815456 0
M  V30 6557 H 615.17 2.30607 -3.19709 0
M  V30 6558 H 616.458 3.343 -3.83563 0
M  V30 6559 H 615.856 5.46407 -1.46477 0
M  V30 6560 H 614.413 6.18524 -2.05601 0
M  V30 6561 N 617.846 1.41785 0.688094 0
M  V30 6562 C 618.776 1.47 1.8142 0
M  V30 6563 C 619.757 0.327881 1.6691 0
M  V30 6564 O 620.942 0.540362 1.86531 0
M  V30 6565 C 618.072 1.35876 3.19617 0
M  V30 6566 C 617.026 2.47976 3.48844 0
M  V30 6567 C 616.352 2.21915 4.86475 0
M  V30 6568 C 617.652 3.90309 3.47068 0
M  V30 6569 H 619.346 2.41247 1.77314 0
M  V30 6570 H 616.892 1.16116 0.851651 0
M  V30 6571 H 618.845 1.38134 3.98117 0
M  V30 6572 H 617.569 0.38116 3.24368 0
M  V30 6573 H 616.228 2.45013 2.72698 0
M  V30 6574 H 615.876 1.2248 4.8786 0
M  V30 6575 H 615.576 2.97037 5.06994 0
M  V30 6576 H 617.1 2.25901 5.67275 0
M  V30 6577 H 618.514 3.94947 4.1556 0
M  V30 6578 H 616.911 4.65175 3.7912 0
M  V30 6579 H 617.981 4.17927 2.45896 0
M  V30 6580 N 619.324 -0.923095 1.27737 0
M  V30 6581 C 620.254 -2.04124 1.13383 0
M  V30 6582 C 621.235 -1.70066 0.0340658 0
M  V30 6583 O 622.42 -1.93068 0.209383 0
M  V30 6584 C 619.55 -3.3831 0.785097 0
M  V30 6585 C 618.504 -3.86496 1.8386 0
M  V30 6586 C 617.83 -5.1754 1.34373 0
M  V30 6587 C 619.13 -4.09381 3.24353 0
M  V30 6588 H 620.824 -2.1639 2.06919 0
M  V30 6589 H 618.37 -1.03976 0.996243 0
M  V30 6590 H 620.323 -4.16016 0.671485 0
M  V30 6591 H 619.047 -3.2607 -0.185969 0
M  V30 6592 H 617.706 -3.10987 1.9412 0
M  V30 6593 H 617.354 -5.01696 0.361989 0
M  V30 6594 H 617.054 -5.50751 2.04811 0
M  V30 6595 H 618.578 -5.97811 1.24315 0
M  V30 6596 H 619.992 -4.77641 3.17067 0
M  V30 6597 H 618.389 -4.53906 3.92542 0
M  V30 6598 H 619.459 -3.14515 3.69064 0
M  V30 6599 N 620.802 -1.09834 -1.13024 0
M  V30 6600 C 622.027 -0.85909 -1.88771 0
M  V30 6601 C 622.452 0.584402 -1.78791 0
M  V30 6602 O 621.81 1.41101 -1.13842 0
M  V30 6603 C 621.858 -1.30427 -3.36186 0
M  V30 6604 O 620.962 -0.465368 -4.09766 0
M  V30 6605 H 620.303 -0.310786 -0.586778 0
M  V30 6606 H 622.833 -1.46355 -1.42973 0
M  V30 6607 H 622.843 -1.2915 -3.8702 0
M  V30 6608 H 621.518 -2.3555 -3.42767 0
M  V30 6609 H 620.095 -0.542814 -3.68928 0
M  V30 6610 N 622.28 1.30327 -0.886154 0
M  V30 6611 C 623.243 2.26376 -0.358687 0
M  V30 6612 C 624.243 1.52845 0.499498 0
M  V30 6613 O 625.433 1.71483 0.306485 0
M  V30 6614 C 622.565 3.37379 0.488726 0
M  V30 6615 H 623.758 2.74547 -1.20681 0
M  V30 6616 H 621.311 1.41536 -0.663113 0
M  V30 6617 H 622.046 2.94526 1.35739 0
M  V30 6618 H 621.831 3.91897 -0.126003 0
M  V30 6619 H 623.321 4.08868 0.84952 0
M  V30 6620 N 623.758 0.647228 1.43697 0
M  V30 6621 C 625.035 0.0883758 1.954 0
M  V30 6622 C 625.415 -1.39006 1.58873 0
M  V30 6623 O 624.763 -2.11255 0.87083 0
M  V30 6624 C 624.973 0.328263 3.47453 0
M  V30 6625 C 626.321 0.230009 4.23977 0
M  V30 6626 O 627.345 0.260496 3.55246 0
M  V30 6627 O 626.204 0.148615 5.46298 0
M  V30 6628 H 623.298 -0.0130683 0.826897 0
M  V30 6629 H 625.844 0.72005 1.53666 0
M  V30 6630 H 624.616 1.3535 3.67146 0
M  V30 6631 H 624.239 -0.336772 3.96171 0
M  V30 6632 N 625.236 -1.5273 0.388769 0
M  V30 6633 C 626.482 -2.01871 -0.193877 0
M  V30 6634 C 626.815 -1.27475 -1.46505 0
M  V30 6635 O 626.09 -0.375063 -1.90849 0
M  V30 6636 C 626.373 -3.5712 -0.462336 0
M  V30 6637 C 626.226 -4.42186 0.824091 0
M  V30 6638 C 627.545 -4.21881 -1.25319 0
M  V30 6639 H 624.664 -0.733764 -0.0689899 0
M  V30 6640 H 627.306 -1.82796 0.518231 0
M  V30 6641 H 625.456 -3.73504 -1.06896 0
M  V30 6642 H 627.128 -4.37554 1.46096 0
M  V30 6643 H 625.371 -4.09219 1.43952 0
M  V30 6644 H 626.042 -5.48828 0.590905 0
M  V30 6645 H 628.518 -4.0947 -0.73981 0
M  V30 6646 H 627.394 -5.30487 -1.40977 0
M  V30 6647 H 627.655 -3.79478 -2.26824 0
M  V30 6648 N 626.714 -0.118576 -1.57153 0
M  V30 6649 C 627.991 0.583062 -1.86708 0
M  V30 6650 C 628.371 1.84841 -1.01967 0
M  V30 6651 O 627.719 2.28288 -0.0984673 0
M  V30 6652 C 627.929 0.875912 -3.3783 0
M  V30 6653 C 629.277 1.22916 -4.0642 0
M  V30 6654 O 630.301 0.966188 -3.42846 0
M  V30 6655 O 629.16 1.72269 -5.18638 0
M  V30 6656 H 626.254 0.294185 -0.772906 0
M  V30 6657 H 628.8 -0.153048 -1.69008 0
M  V30 6658 H 627.572 -0.0207776 -3.91294 0
M  V30 6659 H 627.195 1.66719 -3.60958 0
M  V30 6660 N 628.193 1.56834 0.155195 0
M  V30 6661 C 629.442 1.82088 0.867567 0
M  V30 6662 C 629.755 0.69849 1.82703 0
M  V30 6663 O 630.961 0.836407 2.58295 0
M  V30 6664 C 629.417 3.22707 1.59336 0
M  V30 6665 C 629.025 4.42859 0.676719 0
M  V30 6666 C 630.769 3.57242 2.293 0
M  V30 6667 C 628.676 5.74501 1.40367 0
M  V30 6668 H 627.606 0.679057 0.327715 0
M  V30 6669 H 630.257 1.83105 0.120351 0
M  V30 6670 H 628.639 3.16054 2.38591 0
M  V30 6671 H 629.813 4.60731 -0.0800196 0
M  V30 6672 H 628.128 4.16311 0.0859129 0
M  V30 6673 H 630.725 4.52847 2.84312 0
M  V30 6674 H 631.068 2.82901 3.05406 0
M  V30 6675 H 631.601 3.6552 1.56972 0
M  V30 6676 H 628.34 6.51915 0.684623 0
M  V30 6677 H 627.86 5.60579 2.13332 0
M  V30 6678 H 629.539 6.17016 1.94681 0
M  V30 6679 N 629.671 -0.424282 1.51781 0
M  V30 6680 C 630.618 -1.51591 1.74037 0
M  V30 6681 C 631.588 -1.55556 0.582358 0
M  V30 6682 O 632.773 -1.72364 0.818245 0
M  V30 6683 C 629.913 -2.89188 1.8832 0
M  V30 6684 C 629.026 -2.9465 3.1592 0
M  V30 6685 C 628.161 -4.23452 3.20721 0
M  V30 6686 C 627.2 -4.22831 4.42584 0
M  V30 6687 N 626.337 -5.43178 4.44862 0
M  V30 6688 H 631.177 -1.31917 2.67212 0
M  V30 6689 H 628.714 -0.640599 1.32419 0
M  V30 6690 H 630.672 -3.69044 1.94583 0
M  V30 6691 H 629.302 -3.07392 0.985402 0
M  V30 6692 H 628.354 -2.07378 3.18902 0
M  V30 6693 H 629.666 -2.90055 4.05795 0
M  V30 6694 H 628.82 -5.1169 3.25973 0
M  V30 6695 H 627.559 -4.30722 2.28757 0
M  V30 6696 H 626.564 -3.32984 4.37495 0
M  V30 6697 H 627.789 -4.17213 5.35826 0
M  V30 6698 H 625.735 -5.51145 3.55775 0
M  V30 6699 H 625.652 -5.40515 5.28563 0
M  V30 6700 H 626.92 -6.33412 4.54324 0
M  V30 6701 N 631.149 -1.42148 -0.680565 0
M  V30 6702 C 632.059 -1.47565 -1.82378 0
M  V30 6703 C 633.075 -0.36489 -1.70131 0
M  V30 6704 O 634.251 -0.614916 -1.91783 0
M  V30 6705 C 631.316 -1.37013 -3.18478 0
M  V30 6706 C 630.377 -2.58532 -3.42724 0
M  V30 6707 C 629.61 -2.48473 -4.72331 0
M  V30 6708 O 629.833 -1.51745 -5.49845 0
M  V30 6709 O 628.767 -3.38503 -4.97694 0
M  V30 6710 H 632.593 -2.44045 -1.80764 0
M  V30 6711 H 630.178 -1.23849 -0.835569 0
M  V30 6712 H 632.06 -1.33468 -3.99705 0
M  V30 6713 H 630.735 -0.436552 -3.20743 0
M  V30 6714 H 629.642 -2.67652 -2.61368 0
M  V30 6715 H 630.975 -3.50769 -3.45286 0
M  V30 6716 N 632.627 0.916307 -1.28225 0
M  V30 6717 C 633.557 2.0352 -1.14464 0
M  V30 6718 C 634.538 1.70045 -0.0430844 0
M  V30 6719 O 635.723 1.92954 -0.219619 0
M  V30 6720 C 632.853 3.37889 -0.803027 0
M  V30 6721 C 631.807 3.85516 -1.85908 0
M  V30 6722 C 631.133 5.1682 -1.37116 0
M  V30 6723 C 632.433 4.07655 -3.26519 0
M  V30 6724 H 634.127 2.1529 -2.08064 0
M  V30 6725 H 631.673 1.03446 -1.00174 0
M  V30 6726 H 633.626 4.15654 -0.693537 0
M  V30 6727 H 632.35 3.26164 0.168674 0
M  V30 6728 H 631.009 3.09953 -1.95767 0
M  V30 6729 H 630.657 5.01497 -0.38859 0
M  V30 6730 H 630.357 5.49657 -2.07728 0
M  V30 6731 H 631.881 5.97143 -1.27484 0
M  V30 6732 H 633.295 4.75953 -3.19596 0
M  V30 6733 H 631.692 4.51818 -3.94943 0
M  V30 6734 H 632.762 3.12553 -3.70727 0
M  V30 6735 N 634.105 1.10431 1.1244 0
M  V30 6736 C 635.068 0.756542 2.16354 0
M  V30 6737 C 636.068 -0.21899 1.59302 0
M  V30 6738 O 637.258 0.00415969 1.742 0
M  V30 6739 C 634.39 0.120612 3.40687 0
M  V30 6740 H 635.583 1.67696 2.48632 0
M  V30 6741 H 633.136 0.904832 1.27446 0
M  V30 6742 H 633.871 -0.810536 3.14008 0
M  V30 6743 H 633.656 0.822693 3.83372 0
M  V30 6744 H 635.146 -0.106945 4.17463 0
M  V30 6745 N 635.583 -1.29855 0.893053 0
M  V30 6746 C 636.829 -1.96116 0.516349 0
M  V30 6747 C 637.162 -1.70281 -0.933695 0
M  V30 6748 O 636.437 -1.01205 -1.66096 0
M  V30 6749 C 636.72 -3.51068 0.801455 0
M  V30 6750 C 636.573 -3.86387 2.30272 0
M  V30 6751 C 637.892 -4.39186 0.283423 0
M  V30 6752 H 635.011 -0.712335 0.189072 0
M  V30 6753 H 637.653 -1.53587 1.11852 0
M  V30 6754 H 635.803 -3.87424 0.288949 0
M  V30 6755 H 637.475 -3.60012 2.88425 0
M  V30 6756 H 635.718 -3.34167 2.76613 0
M  V30 6757 H 636.389 -4.94512 2.45279 0
M  V30 6758 H 638.865 -4.09785 0.722187 0
M  V30 6759 H 637.741 -5.46505 0.512169 0
M  V30 6760 H 638.002 -4.34511 -0.815643 0
M  V30 6761 N 637.061 -0.65484 -1.43351 0
M  V30 6762 C 637.971 0.0363603 -2.34572 0
M  V30 6763 C 638.987 0.810432 -1.53974 0
M  V30 6764 O 640.163 0.757308 -1.86619 0
M  V30 6765 C 637.228 0.989733 -3.32273 0
M  V30 6766 C 636.289 0.212414 -4.28774 0
M  V30 6767 C 635.522 1.12038 -5.21808 0
M  V30 6768 O 635.745 2.35967 -5.19303 0
M  V30 6769 O 634.679 0.59191 -5.98982 0
M  V30 6770 H 638.505 -0.714527 -2.95175 0
M  V30 6771 H 636.09 -0.415029 -1.4352 0
M  V30 6772 H 637.972 1.53759 -3.92347 0
M  V30 6773 H 636.647 1.72082 -2.74171 0
M  V30 6774 H 635.554 -0.379062 -3.72175 0
M  V30 6775 H 636.887 -0.479138 -4.89862 0
M  V30 6776 N 638.539 1.52521 -0.396863 0
M  V30 6777 C 639.767 2.06091 0.18275 0
M  V30 6778 C 640.182 1.26796 1.39886 0
M  V30 6779 O 639.539 0.316585 1.79733 0
M  V30 6780 C 639.59 3.57362 0.545377 0
M  V30 6781 O 639.311 4.33656 -0.622428 0
M  V30 6782 C 640.812 4.27305 1.18004 0
M  V30 6783 H 638.032 0.670504 0.025789 0
M  V30 6784 H 640.576 1.96561 -0.564276 0
M  V30 6785 H 638.731 3.66941 1.2423 0
M  V30 6786 H 639.145 5.23507 -0.322662 0
M  V30 6787 H 640.619 5.34366 1.38408 0
M  V30 6788 H 641.096 3.83 2.1496 0
M  V30 6789 H 641.702 4.22064 0.523671 0
M  V30 6790 N 640.017 0.126909 1.57088 0
M  V30 6791 C 640.964 -0.82036 2.15728 0
M  V30 6792 C 641.934 -1.25811 1.08447 0
M  V30 6793 O 643.119 -1.33422 1.36393 0
M  V30 6794 C 640.259 -2.06199 2.76724 0
M  V30 6795 C 639.372 -1.67188 3.98337 0
M  V30 6796 C 638.507 -2.86378 4.47393 0
M  V30 6797 C 637.546 -2.43644 5.61519 0
M  V30 6798 N 636.683 -3.55775 6.05284 0
M  V30 6799 H 641.523 -0.313472 2.96347 0
M  V30 6800 H 639.06 -0.14303 1.46403 0
M  V30 6801 H 641.018 -2.78959 3.10222 0
M  V30 6802 H 639.648 -2.54333 1.98782 0
M  V30 6803 H 638.7 -0.842714 3.70948 0
M  V30 6804 H 640.012 -1.31789 4.81075 0
M  V30 6805 H 639.166 -3.67353 4.82842 0
M  V30 6806 H 637.905 -3.25009 3.63621 0
M  V30 6807 H 636.91 -1.61104 5.25667 0
M  V30 6808 H 638.135 -2.06122 6.47063 0
M  V30 6809 H 636.081 -3.94065 5.24451 0
M  V30 6810 H 635.998 -3.24325 6.82898 0
M  V30 6811 H 637.266 -4.37166 6.45373 0
M  V30 6812 N 641.495 -1.56914 -0.146875 0
M  V30 6813 C 642.443 -1.99224 -1.20053 0
M  V30 6814 C 643.437 -0.884661 -1.44465 0
M  V30 6815 O 644.643 -1.06984 -1.44756 0
M  V30 6816 H 641.018 -0.634191 -0.404112 0
M  V30 6817 H 642.989 -2.86998 -0.816987 0
M  V30 6818 C 641.738 -2.38899 -2.52632 0
M  V30 6819 H 641.061 -3.23677 -2.34677 0
M  V30 6820 H 642.501 -2.72326 -3.24984 0
M  V30 6821 C 640.96 -1.2417 -3.13183 0
M  V30 6822 O 641.49 -0.542503 -3.9802 0
M  V30 6823 N 639.696 -1.00592 -2.72635 0
M  V30 6824 H 639.243 -1.57627 -2.03744 0
M  V30 6825 H 639.201 -0.240174 -3.13481 0
M  V30 6826 N 642.974 0.416227 -1.52004 0
M  V30 6827 C 644.221 1.16383 -1.65714 0
M  V30 6828 C 644.549 1.9068 -0.383594 0
M  V30 6829 O 643.804 1.85174 0.633185 0
M  V30 6830 C 644.103 2.18923 -2.82502 0
M  V30 6831 C 643.769 1.61485 -4.20991 0
M  V30 6832 C 642.431 1.45545 -4.58661 0
M  V30 6833 C 644.783 1.19468 -5.07323 0
M  V30 6834 C 642.111 0.860937 -5.80349 0
M  V30 6835 C 644.463 0.614386 -6.29609 0
M  V30 6836 C 643.127 0.442056 -6.66035 0
M  V30 6837 H 642.397 0.425875 -0.606392 0
M  V30 6838 H 645.044 0.45199 -1.8609 0
M  V30 6839 H 643.349 2.96225 -2.56433 0
M  V30 6840 H 645.046 2.76628 -2.90307 0
M  V30 6841 H 641.636 1.74873 -3.91302 0
M  V30 6842 H 645.82 1.30596 -4.78809 0
M  V30 6843 H 641.076 0.715372 -6.072 0
M  V30 6844 H 645.25 0.280393 -6.95835 0
M  V30 6845 H 642.877 -0.0207218 -7.60197 0
M  V30 6846 N 644.452 1.42507 0.673017 0
M  V30 6847 C 645.677 1.4668 1.46627 0
M  V30 6848 C 646.102 0.080066 1.8793 0
M  V30 6849 O 645.46 -0.921879 1.56112 0
M  V30 6850 C 645.508 2.40091 2.69051 0
M  V30 6851 O 644.612 1.8735 3.67387 0
M  V30 6852 H 643.953 0.496908 0.44043 0
M  V30 6853 H 646.483 1.87215 0.825334 0
M  V30 6854 H 646.493 2.56731 3.17101 0
M  V30 6855 H 645.168 3.4084 2.3833 0
M  V30 6856 H 643.745 1.80274 3.26429 0
M  V30 6857 N 645.93 -0.909495 1.28709 0
M  V30 6858 C 647.178 -1.65577 1.15882 0
M  V30 6859 C 647.499 -1.928 -0.292108 0
M  V30 6860 O 646.769 -1.54716 -1.20166 0
M  V30 6861 H 645.349 -0.613714 0.425869 0
M  V30 6862 H 648.011 -1.09108 1.61498 0
M  V30 6863 H 647.107 -2.61634 1.70159 0
M  V30 6864 N 647.408 -1.11026 -1.11852 0
M  V30 6865 C 648.371 -0.768006 -2.1595 0
M  V30 6866 C 649.371 0.210538 -1.59416 0
M  V30 6867 O 650.561 -0.0133978 -1.74195 0
M  V30 6868 C 647.693 -0.138678 -3.40618 0
M  V30 6869 H 648.886 -1.69012 -2.4774 0
M  V30 6870 H 646.439 -0.911578 -1.26964 0
M  V30 6871 H 647.174 0.793872 -3.14433 0
M  V30 6872 H 646.959 -0.843012 -3.8293 0
M  V30 6873 H 648.449 0.0848039 -4.17514 0
M  V30 6874 N 648.886 1.2938 -0.899927 0
M  V30 6875 C 649.796 2.31462 -0.382437 0
M  V30 6876 C 650.812 1.65956 0.522929 0
M  V30 6877 O 651.988 1.97131 0.412454 0
M  V30 6878 C 649.053 3.44595 0.381472 0
M  V30 6879 C 648.114 4.25692 -0.555444 0
M  V30 6880 C 647.347 5.33422 0.172102 0
M  V30 6881 O 647.57 5.53053 1.396 0
M  V30 6882 O 646.504 5.99939 -0.485491 0
M  V30 6883 H 650.33 2.77706 -1.22934 0
M  V30 6884 H 647.915 1.33821 -0.664259 0
M  V30 6885 H 649.797 4.13474 0.813442 0
M  V30 6886 H 648.472 3.00458 1.20443 0
M  V30 6887 H 647.379 3.59453 -1.03653 0
M  V30 6888 H 648.712 4.73471 -1.34483 0
M  V30 6889 N 650.364 0.662433 1.43002 0
M  V30 6890 C 651.294 -0.00979809 2.33498 0
M  V30 6891 C 652.275 -0.802329 1.49989 0
M  V30 6892 O 653.46 -0.761964 1.78627 0
M  V30 6893 C 650.59 -0.970446 3.33466 0
M  V30 6894 C 649.544 -0.287383 4.27034 0
M  V30 6895 C 648.87 -1.36012 5.17112 0
M  V30 6896 C 650.17 0.82595 5.15728 0
M  V30 6897 H 651.864 0.745959 2.89958 0
M  V30 6898 H 649.41 0.360172 1.39423 0
M  V30 6899 H 651.363 -1.44971 3.95679 0
M  V30 6900 H 650.087 -1.75748 2.75282 0
M  V30 6901 H 648.746 0.17152 3.66199 0
M  V30 6902 H 648.394 -2.13882 4.55262 0
M  V30 6903 H 648.094 -0.908276 5.80538 0
M  V30 6904 H 649.618 -1.84056 5.82199 0
M  V30 6905 H 651.032 0.42845 5.71697 0
M  V30 6906 H 649.429 1.20282 5.87922 0
M  V30 6907 H 650.499 1.68003 4.54866 0
M  V30 6908 N 651.842 -1.52309 0.404946 0
M  V30 6909 C 652.752 -2.30634 -0.429555 0
M  V30 6910 C 653.768 -1.38187 -1.05737 0
M  V30 6911 O 654.944 -1.71261 -1.05979 0
M  V30 6912 C 652.009 -3.10947 -1.53339 0
M  V30 6913 C 651.07 -4.19126 -0.929065 0
M  V30 6914 C 650.303 -4.95601 -1.9803 0
M  V30 6915 O 650.526 -4.72331 -3.1978 0
M  V30 6916 O 649.46 -5.80551 -1.58886 0
M  V30 6917 H 653.286 -3.0298 0.208963 0
M  V30 6918 H 650.871 -1.4845 0.168255 0
M  V30 6919 H 652.753 -3.60974 -2.1743 0
M  V30 6920 H 651.428 -2.41399 -2.15658 0
M  V30 6921 H 650.335 -3.73257 -0.250982 0
M  V30 6922 H 651.668 -4.90955 -0.349855 0
M  V30 6923 N 653.32 -0.135238 -1.57019 0
M  V30 6924 C 654.568 0.51777 -1.95355 0
M  V30 6925 C 654.889 1.6617 -1.02042 0
M  V30 6926 O 654.159 1.95738 -0.0797343 0
M  V30 6927 H 652.739 0.194264 -0.721298 0
M  V30 6928 H 655.401 -0.207983 -1.93787 0
M  V30 6929 H 654.497 0.901675 -2.98791 0
M  V30 6930 N 654.798 1.5699 0.138552 0
M  V30 6931 C 655.728 2.01933 1.17241 0
M  V30 6932 C 656.709 0.90033 1.44319 0
M  V30 6933 O 657.894 1.16872 1.55095 0
M  V30 6934 C 655.024 2.40711 2.50351 0
M  V30 6935 C 653.978 3.55874 2.37776 0
M  V30 6936 C 653.304 3.80491 3.75674 0
M  V30 6937 C 654.604 4.8826 1.85472 0
M  V30 6938 H 656.298 2.88551 0.798672 0
M  V30 6939 H 653.844 1.3882 0.382743 0
M  V30 6940 H 655.797 2.70754 3.22909 0
M  V30 6941 H 654.521 1.5104 2.89576 0
M  V30 6942 H 653.18 3.2601 1.67669 0
M  V30 6943 H 652.828 2.88057 4.12349 0
M  V30 6944 H 652.528 4.57998 3.68119 0
M  V30 6945 H 654.052 4.12967 4.49767 0
M  V30 6946 H 655.466 5.16965 2.4783 0
M  V30 6947 H 653.863 5.69631 1.88787 0
M  V30 6948 H 654.933 4.78071 0.810935 0
M  V30 6949 N 656.276 -0.40816 1.52223 0
M  V30 6950 C 657.522 -1.15673 1.66576 0
M  V30 6951 C 657.855 -1.90141 0.394996 0
M  V30 6952 O 657.13 -1.84798 -0.606613 0
M  V30 6953 C 657.413 -2.15042 2.88841 0
M  V30 6954 C 657.266 -1.44465 4.25969 0
M  V30 6955 C 658.585 -3.15699 3.0663 0
M  V30 6956 H 655.704 -0.41916 0.606196 0
M  V30 6957 H 658.346 -0.442348 1.84779 0
M  V30 6958 H 656.496 -2.75964 2.73452 0
M  V30 6959 H 658.168 -0.866544 4.53088 0
M  V30 6960 H 656.411 -0.746612 4.27327 0
M  V30 6961 H 657.082 -2.16976 5.07568 0
M  V30 6962 H 659.558 -2.64854 3.20923 0
M  V30 6963 H 658.434 -3.82491 3.9369 0
M  V30 6964 H 658.695 -3.83481 2.19987 0
M  V30 6965 N 657.755 -1.42862 -0.66545 0
M  V30 6966 C 659.171 -1.25993 -0.979687 0
M  V30 6967 C 659.371 -0.170831 -2.00775 0
M  V30 6968 O 658.427 0.454827 -2.4837 0
M  V30 6969 C 659.74 -2.62005 -1.47559 0
M  V30 6970 C 661.288 -2.69437 -1.59288 0
M  V30 6971 C 661.763 -4.05838 -2.12272 0
M  V30 6972 N 663.254 -4.0784 -2.19592 0
M  V30 6973 C 663.989 -5.10205 -2.61684 0
M  V30 6974 N 663.485 -6.22949 -3.03161 0
M  V30 6975 N 665.278 -4.9756 -2.61516 0
M  V30 6976 H 657.429 -2.12395 0.0150493 0
M  V30 6977 H 659.692 -0.946355 -0.0558187 0
M  V30 6978 H 659.398 -3.42605 -0.794654 0
M  V30 6979 H 659.272 -2.86566 -2.45275 0
M  V30 6980 H 661.659 -1.89178 -2.26486 0
M  V30 6981 H 661.74 -2.48655 -0.600374 0
M  V30 6982 H 661.384 -4.86559 -1.4568 0
M  V30 6983 H 661.314 -4.23977 -3.12331 0
M  V30 6984 H 663.805 -3.26452 -1.90361 0
M  V30 6985 H 664.118 -6.96899 -3.33993 0
M  V30 6986 H 662.463 -6.2644 -3.00995 0
M  V30 6987 H 665.654 -4.08551 -2.28481 0
M  V30 6988 H 665.827 -5.77468 -2.93999 0
M  V30 6989 N 659.233 0.902656 -1.29189 0
M  V30 6990 C 660.196 1.98797 -1.14071 0
M  V30 6991 C 661.196 1.60615 -0.0770549 0
M  V30 6992 O 662.386 1.71165 -0.323753 0
M  V30 6993 C 659.518 3.32688 -0.743739 0
M  V30 6994 H 660.711 2.13637 -2.10473 0
M  V30 6995 H 658.264 1.08678 -1.12334 0
M  V30 6996 H 658.999 3.23549 0.220554 0
M  V30 6997 H 658.784 3.61765 -1.51223 0
M  V30 6998 H 660.274 4.12337 -0.660935 0
M  V30 6999 N 660.711 1.11618 1.11262 0
M  V30 7000 C 661.674 0.779447 2.15539 0
M  V30 7001 C 662.674 -0.202081 1.59525 0
M  V30 7002 O 663.864 0.0226356 1.74185 0
M  V30 7003 C 660.996 0.15674 3.40539 0
M  V30 7004 H 662.189 1.70324 2.4684 0
M  V30 7005 H 659.742 0.918298 1.26479 0
M  V30 7006 H 660.477 -0.777186 3.1485 0
M  V30 7007 H 660.262 0.863308 3.82478 0
M  V30 7008 H 661.752 -0.062661 4.17553 0
M  V30 7009 N 662.189 -1.289 0.906776 0
M  V30 7010 C 663.121 -2.26556 0.347159 0
M  V30 7011 C 664.134 -1.54589 -0.51049 0
M  V30 7012 O 665.323 -1.75489 -0.326501 0
M  V30 7013 C 662.423 -3.3484 -0.523024 0
M  V30 7014 C 661.596 -4.36296 0.310515 0
M  V30 7015 C 660.655 -5.23879 -0.493634 0
M  V30 7016 O 659.681 -5.69127 0.0913569 0
M  V30 7017 N 660.883 -5.51946 -1.7982 0
M  V30 7018 H 663.648 -2.75212 1.18652 0
M  V30 7019 H 661.209 -1.42309 0.771996 0
M  V30 7020 H 663.201 -3.90366 -1.06756 0
M  V30 7021 H 661.771 -2.85946 -1.26309 0
M  V30 7022 H 660.991 -3.80331 1.03644 0
M  V30 7023 H 662.279 -5.01113 0.881106 0
M  V30 7024 H 661.677 -5.17006 -2.2961 0
M  V30 7025 H 660.234 -6.10258 -2.28971 0
M  V30 7026 N 663.667 -0.670007 -1.42649 0
M  V30 7027 C 664.892 -0.196955 -2.06463 0
M  V30 7028 C 665.317 1.1352 -1.49983 0
M  V30 7029 O 664.675 1.705 -0.616397 0
M  V30 7030 C 664.723 -0.137381 -3.60338 0
M  V30 7031 O 663.827 0.895523 -4.02559 0
M  V30 7032 H 663.168 -0.102579 -0.656029 0
M  V30 7033 H 665.698 -0.917669 -1.82866 0
M  V30 7034 H 665.708 0.0403625 -4.0798 0
M  V30 7035 H 664.383 -1.10977 -4.0082 0
M  V30 7036 H 662.96 0.689209 -3.66476 0
M  V30 7037 N 665.145 1.52092 -0.413018 0
M  V30 7038 C 666.373 2.06274 0.160881 0
M  V30 7039 C 666.788 1.28273 1.38533 0
M  V30 7040 O 666.145 0.33563 1.79387 0
M  V30 7041 C 666.196 3.57921 0.507443 0
M  V30 7042 O 665.917 4.32971 -0.668388 0
M  V30 7043 C 667.418 4.28533 1.13465 0
M  V30 7044 H 664.638 0.67074 0.0186759 0
M  V30 7045 H 667.182 1.95951 -0.585092 0
M  V30 7046 H 665.337 3.68238 1.20331 0
M  V30 7047 H 665.751 5.23135 -0.378169 0
M  V30 7048 H 667.225 5.35804 1.32732 0
M  V30 7049 H 667.702 3.85258 2.10886 0
M  V30 7050 H 668.308 4.22595 0.478876 0
M  V30 7051 N 666.623 0.143563 1.56945 0
M  V30 7052 C 667.586 -0.783295 2.154 0
M  V30 7053 C 668.586 -1.17763 1.09492 0
M  V30 7054 O 669.776 -1.09912 1.35148 0
M  V30 7055 C 666.908 -2.06248 2.7143 0
M  V30 7056 H 668.101 -0.274863 2.98638 0
M  V30 7057 H 665.654 -0.105859 1.55941 0
M  V30 7058 H 666.389 -2.61466 1.91849 0
M  V30 7059 H 666.174 -1.78897 3.4891 0
M  V30 7060 H 667.664 -2.72453 3.16479 0
M  V30 7061 N 668.101 -1.57061 -0.130224 0
M  V30 7062 C 669.034 -1.94698 -1.19029 0
M  V30 7063 C 670.012 -0.815074 -1.40696 0
M  V30 7064 O 671.196 -1.07223 -1.55034 0
M  V30 7065 C 668.323 -2.23352 -2.5462 0
M  V30 7066 C 667.369 -3.45945 -2.49448 0
M  V30 7067 S 668.202 -4.98927 -1.94505 0
M  V30 7068 C 669.358 -5.30721 -3.31792 0
M  V30 7069 H 669.591 -2.84308 -0.869272 0
M  V30 7070 H 667.124 -1.50688 -0.336531 0
M  V30 7071 H 669.082 -2.40539 -3.32643 0
M  V30 7072 H 667.743 -1.34376 -2.83905 0
M  V30 7073 H 666.936 -3.63324 -3.49302 0
M  V30 7074 H 666.538 -3.28086 -1.79543 0
M  V30 7075 H 668.83 -5.25215 -4.27966 0
M  V30 7076 H 669.773 -6.32048 -3.19251 0
M  V30 7077 H 670.181 -4.5821 -3.29703 0
M  V30 7078 N 669.579 0.400081 -1.52437 0
M  V30 7079 C 670.527 1.50851 -1.7705 0
M  V30 7080 C 671.521 1.56928 -0.637969 0
M  V30 7081 O 672.727 1.60226 -0.820212 0
M  V30 7082 H 669.102 0.50186 -0.560036 0
M  V30 7083 H 671.073 1.27281 -2.69893 0
M  V30 7084 C 669.822 2.88117 -1.94638 0
M  V30 7085 H 669.145 2.84187 -2.81208 0
M  V30 7086 H 670.585 3.64942 -2.15855 0
M  V30 7087 C 669.044 3.29206 -0.715899 0
M  V30 7088 O 669.574 4.01544 0.111944 0
M  V30 7089 N 667.78 2.85363 -0.549191 0
M  V30 7090 H 667.327 2.26664 -1.22397 0
M  V30 7091 H 667.285 3.13214 0.27278 0
M  V30 7092 N 671.057 1.43213 0.657864 0
M  V30 7093 C 672.473 1.26511 0.972992 0
M  V30 7094 C 672.673 0.181477 2.00681 0
M  V30 7095 O 671.729 -0.441649 2.48608 0
M  V30 7096 C 673.042 2.62784 1.46168 0
M  V30 7097 C 674.59 2.70278 1.57857 0
M  V30 7098 C 675.065 4.06958 2.10117 0
M  V30 7099 N 676.556 4.08999 2.17426 0
M  V30 7100 C 677.291 5.11585 2.58975 0
M  V30 7101 N 676.787 6.24548 2.99853 0
M  V30 7102 N 678.58 4.9894 2.58873 0
M  V30 7103 H 670.731 2.12384 -0.0263129 0
M  V30 7104 H 672.994 0.946638 0.0507992 0
M  V30 7105 H 672.7 3.43022 0.776474 0
M  V30 7106 H 672.574 2.87863 2.43751 0
M  V30 7107 H 674.961 1.90376 2.25479 0
M  V30 7108 H 675.042 2.4897 0.587179 0
M  V30 7109 H 674.686 4.87325 1.43098 0
M  V30 7110 H 674.616 4.25628 3.10078 0
M  V30 7111 H 677.107 3.27457 1.88627 0
M  V30 7112 H 677.42 6.98661 3.30292 0
M  V30 7113 H 675.765 6.28027 2.97669 0
M  V30 7114 H 678.956 4.09757 2.26311 0
M  V30 7115 H 679.129 5.79019 2.90932 0
M  V30 7116 N 672.536 -0.895792 1.29666 0
M  V30 7117 C 673.486 -1.98736 1.1175 0
M  V30 7118 C 674.47 -1.6086 0.0357834 0
M  V30 7119 O 675.662 -1.75111 0.257926 0
M  V30 7120 C 672.791 -3.33845 0.800156 0
M  V30 7121 C 671.877 -3.78068 1.9216 0
M  V30 7122 N 672.268 -3.94489 3.16563 0
M  V30 7123 C 670.566 -4.07376 1.81552 0
M  V30 7124 C 671.267 -4.31819 3.89753 0
M  V30 7125 N 670.243 -4.41081 3.17724 0
M  V30 7126 H 674.045 -2.09507 2.06117 0
M  V30 7127 H 671.559 -1.08488 1.20848 0
M  V30 7128 H 673.556 -4.11757 0.652841 0
M  V30 7129 H 672.216 -3.24417 -0.135551 0
M  V30 7130 H 673.227 -3.79914 3.51974 0
M  V30 7131 H 669.904 -4.06483 0.952787 0
M  V30 7132 H 671.294 -4.52337 4.96831 0
M  V30 7133 N 674.014 -1.12206 -1.10668 0
M  V30 7134 C 675.263 -0.870595 -1.81944 0
M  V30 7135 C 675.576 0.605447 -1.85994 0
M  V30 7136 O 676.782 0.973433 -2.53449 0
M  V30 7137 C 675.238 -1.50783 -3.26791 0
M  V30 7138 C 674.846 -3.01849 -3.31046 0
M  V30 7139 C 676.59 -1.33653 -4.02911 0
M  V30 7140 C 674.497 -3.58518 -4.70339 0
M  V30 7141 H 673.427 -0.322043 -0.681765 0
M  V30 7142 H 676.078 -1.34827 -1.24475 0
M  V30 7143 H 674.46 -0.957825 -3.84242 0
M  V30 7144 H 675.634 -3.63321 -2.83433 0
M  V30 7145 H 673.949 -3.18346 -2.68411 0
M  V30 7146 H 676.546 -1.73416 -5.05797 0
M  V30 7147 H 676.889 -0.279949 -4.15358 0
M  V30 7148 H 677.422 -1.85562 -3.51868 0
M  V30 7149 H 674.161 -4.63925 -4.63091 0
M  V30 7150 H 673.681 -3.01819 -5.18329 0
M  V30 7151 H 675.36 -3.57434 -5.39305 0
M  V30 7152 N 675.492 1.28418 -0.913599 0
M  V30 7153 C 676.439 2.27301 -0.400373 0
M  V30 7154 C 677.409 1.57582 0.52509 0
M  V30 7155 O 678.594 1.85482 0.447318 0
M  V30 7156 C 675.734 3.43284 0.35361 0
M  V30 7157 C 674.847 4.27752 -0.604341 0
M  V30 7158 C 673.982 5.30934 0.168075 0
M  V30 7159 C 673.021 6.07065 -0.783499 0
M  V30 7160 N 672.158 7.02086 -0.0446112 0
M  V30 7161 H 676.998 2.70579 -1.24865 0
M  V30 7162 H 674.535 1.33067 -0.627028 0
M  V30 7163 H 676.493 4.09322 0.806945 0
M  V30 7164 H 675.123 3.00997 1.16623 0
M  V30 7165 H 674.175 3.61759 -1.17621 0
M  V30 7166 H 675.487 4.80682 -1.33216 0
M  V30 7167 H 674.641 6.02855 0.681979 0
M  V30 7168 H 673.38 4.78771 0.928947 0
M  V30 7169 H 672.385 5.33995 -1.30878 0
M  V30 7170 H 673.61 6.61317 -1.54392 0
M  V30 7171 H 671.556 6.52273 0.698272 0
M  V30 7172 H 671.473 7.52637 -0.712258 0
M  V30 7173 H 672.741 7.78205 0.449102 0
M  V30 7174 N 676.97 0.677563 1.42291 0
M  V30 7175 C 677.933 0.0101085 2.29198 0
M  V30 7176 C 678.933 -0.726219 1.43467 0
M  V30 7177 O 680.123 -0.563807 1.64824 0
M  V30 7178 C 677.255 -0.996316 3.26016 0
M  V30 7179 H 678.448 0.775071 2.89711 0
M  V30 7180 H 676.001 0.440065 1.49977 0
M  V30 7181 H 676.736 -1.78967 2.70446 0
M  V30 7182 H 676.521 -0.471687 3.89253 0
M  V30 7183 H 678.011 -1.46167 3.91184 0
M  V30 7184 N 678.448 -1.51871 0.421078 0
M  V30 7185 C 679.673 -2.0684 -0.152371 0
M  V30 7186 C 680.098 -1.28802 -1.37083 0
M  V30 7187 O 679.456 -0.321482 -1.78427 0
M  V30 7188 C 679.504 -3.57532 -0.469368 0
M  V30 7189 O 678.608 -3.81818 -1.55848 0
M  V30 7190 H 677.949 -0.663939 -0.00898586 0
M  V30 7191 H 680.479 -1.95674 0.597724 0
M  V30 7192 H 680.489 -4.01515 -0.724553 0
M  V30 7193 H 679.164 -4.13761 0.421276 0
M  V30 7194 H 677.741 -3.49709 -1.29453 0
M  V30 7195 N 679.926 -0.151884 -1.56866 0
M  V30 7196 C 681.154 0.504813 -2.00647 0
M  V30 7197 C 681.569 1.58098 -1.03201 0
M  V30 7198 O 680.926 1.82476 -0.0297814 0
M  V30 7199 C 680.977 1.10099 -3.44326 0
M  V30 7200 O 680.698 0.0678021 -4.38048 0
M  V30 7201 C 682.199 1.83782 -4.03409 0
M  V30 7202 H 679.419 0.130989 -0.65809 0
M  V30 7203 H 681.963 -0.247903 -2.02992 0
M  V30 7204 H 680.118 1.8043 -3.42817 0
M  V30 7205 H 680.532 0.505237 -5.22061 0
M  V30 7206 H 682.006 2.2078 -5.05925 0
M  V30 7207 H 682.483 2.72557 -3.44397 0
M  V30 7208 H 683.089 1.18138 -4.08563 0
M  V30 7209 N 681.404 1.57128 0.121893 0
M  V30 7210 C 682.351 2.0013 1.14964 0
M  V30 7211 C 683.321 0.872959 1.4131 0
M  V30 7212 O 684.506 1.13696 1.53225 0
M  V30 7213 C 681.646 2.40824 2.4718 0
M  V30 7214 C 680.759 3.67061 2.27794 0
M  V30 7215 C 679.894 3.96749 3.53219 0
M  V30 7216 C 678.933 5.16178 3.28978 0
M  V30 7217 N 678.07 5.41751 4.46599 0
M  V30 7218 H 682.91 2.8772 0.775947 0
M  V30 7219 H 680.447 1.42328 0.371652 0
M  V30 7220 H 682.405 2.62454 3.24305 0
M  V30 7221 H 681.035 1.56279 2.82448 0
M  V30 7222 H 680.087 3.53063 1.416 0
M  V30 7223 H 681.399 4.5434 2.05857 0
M  V30 7224 H 680.553 4.19012 4.38764 0
M  V30 7225 H 679.292 3.07941 3.78185 0
M  V30 7226 H 678.297 4.93762 2.41824 0
M  V30 7227 H 679.522 6.06561 3.05386 0
M  V30 7228 H 677.468 4.55899 4.71691 0
M  V30 7229 H 677.385 6.23347 4.27756 0
M  V30 7230 H 678.653 5.68531 5.33285 0
M  V30 7231 N 682.882 -0.391992 1.52647 0
M  V30 7232 C 684.128 -1.139 1.67793 0
M  V30 7233 C 684.461 -1.89711 0.41514 0
M  V30 7234 O 683.736 -1.85431 -0.586979 0
M  V30 7235 C 684.019 -2.11966 2.91105 0
M  V30 7236 C 683.872 -1.39939 4.27478 0
M  V30 7237 C 685.191 -3.1243 3.09961 0
M  V30 7238 H 682.31 -0.412707 0.610608 0
M  V30 7239 H 684.952 -0.422725 1.85238 0
M  V30 7240 H 683.102 -2.73048 2.76364 0
M  V30 7241 H 684.774 -0.818439 4.53982 0
M  V30 7242 H 683.017 -0.701246 4.28095 0
M  V30 7243 H 683.688 -2.1158 5.09841 0
M  V30 7244 H 686.164 -2.61435 3.23714 0
M  V30 7245 H 685.04 -3.78294 3.97725 0
M  V30 7246 H 685.301 -3.81127 2.24042 0
M  V30 7247 N 684.36 -1.4356 -0.65026 0
M  V30 7248 C 685.27 -1.514 -1.79207 0
M  V30 7249 C 686.286 -0.400895 -1.69319 0
M  V30 7250 O 687.462 -0.655458 -1.90436 0
M  V30 7251 C 684.527 -1.43737 -3.155 0
M  V30 7252 C 683.588 -2.65743 -3.37163 0
M  V30 7253 C 682.821 -2.58436 -4.66954 0
M  V30 7254 O 683.044 -1.63374 -5.46503 0
M  V30 7255 O 681.978 -3.48984 -4.90402 0
M  V30 7256 H 685.804 -2.47825 -1.75547 0
M  V30 7257 H 683.389 -1.25594 -0.809111 0
M  V30 7258 H 685.271 -1.41916 -3.96784 0
M  V30 7259 H 683.946 -0.504488 -3.19745 0
M  V30 7260 H 682.853 -2.73136 -2.55632 0
M  V30 7261 H 684.186 -3.58014 -3.37768 0
M  V30 7262 N 685.838 0.888903 -1.30139 0
M  V30 7263 C 687.084 1.6428 -1.18912 0
M  V30 7264 C 687.417 1.92499 0.256477 0
M  V30 7265 O 686.692 1.54312 1.18397 0
M  V30 7266 C 686.975 2.9851 -2.01405 0
M  V30 7267 C 686.828 2.77288 -3.54163 0
M  V30 7268 C 688.147 3.99383 -1.84882 0
M  V30 7269 H 685.266 0.596148 -0.433333 0
M  V30 7270 H 687.908 1.0289 -1.5973 0
M  V30 7271 H 686.058 3.50907 -1.66722 0
M  V30 7272 H 687.73 2.31709 -3.98884 0
M  V30 7273 H 685.973 2.11867 -3.78543 0
M  V30 7274 H 686.644 3.72717 -4.07168 0
M  V30 7275 H 689.12 3.56132 -2.15196 0
M  V30 7276 H 687.996 4.91222 -2.44934 0
M  V30 7277 H 688.257 4.34674 -0.806902 0
M  V30 7278 N 687.317 1.12792 1.10072 0
M  V30 7279 C 688.594 0.796867 1.78632 0
M  V30 7280 C 688.974 -0.712739 1.98704 0
M  V30 7281 O 688.322 -1.64773 1.5831 0
M  V30 7282 C 688.532 1.57622 3.11378 0
M  V30 7283 C 689.88 1.76463 3.86194 0
M  V30 7284 O 690.904 1.54165 3.2111 0
M  V30 7285 O 689.763 2.13623 5.03018 0
M  V30 7286 H 686.857 0.290248 0.774394 0
M  V30 7287 H 689.403 1.23215 1.16688 0
M  V30 7288 H 688.175 2.60246 2.92212 0
M  V30 7289 H 687.798 1.13543 3.81043 0
M  V30 7290 N 688.795 -1.27931 0.920396 0
M  V30 7291 C 689.728 -2.2537 0.358285 0
M  V30 7292 C 690.706 -1.53328 -0.541242 0
M  V30 7293 O 691.89 -1.82196 -0.483399 0
M  V30 7294 C 689.017 -3.35178 -0.487193 0
M  V30 7295 C 688.063 -4.25079 0.347881 0
M  V30 7296 S 688.896 -5.05792 1.75883 0
M  V30 7297 C 690.052 -6.19089 0.920832 0
M  V30 7298 H 690.285 -2.72701 1.18413 0
M  V30 7299 H 687.818 -1.36474 0.722088 0
M  V30 7300 H 689.776 -3.98895 -0.96916 0
M  V30 7301 H 688.437 -2.865 -1.28749 0
M  V30 7302 H 687.63 -5.03113 -0.298912 0
M  V30 7303 H 687.232 -3.66119 0.763748 0
M  V30 7304 H 689.524 -6.77326 0.15349 0
M  V30 7305 H 690.467 -6.8803 1.67394 0
M  V30 7306 H 690.875 -5.62573 0.466069 0
M  V30 7307 N 690.273 -0.685099 -1.4193 0
M  V30 7308 C 691.183 -0.013404 -2.34596 0
M  V30 7309 C 692.199 0.777589 -1.55658 0
M  V30 7310 O 693.375 0.717553 -1.88184 0
M  V30 7311 C 690.44 0.919031 -3.34297 0
M  V30 7312 C 689.501 0.121417 -4.29128 0
M  V30 7313 C 688.734 1.00944 -5.24067 0
M  V30 7314 O 688.957 2.24898 -5.24192 0
M  V30 7315 O 687.891 0.464724 -6.00103 0
M  V30 7316 H 691.717 -0.776978 -2.93593 0
M  V30 7317 H 689.302 -0.445379 -1.42607 0
M  V30 7318 H 691.184 1.45402 -3.9552 0
M  V30 7319 H 689.859 1.66228 -2.77759 0
M  V30 7320 H 688.766 -0.45792 -3.71287 0
M  V30 7321 H 690.099 -0.582937 -4.88736 0
M  V30 7322 N 691.751 1.51645 -0.429126 0
M  V30 7323 C 692.698 2.27542 0.386446 0
M  V30 7324 C 693.668 1.30786 1.02393 0
M  V30 7325 O 694.853 1.59678 1.0444 0
M  V30 7326 C 691.993 3.11457 1.48623 0
M  V30 7327 C 691.106 4.23196 0.867691 0
M  V30 7328 C 690.241 4.94435 1.94183 0
M  V30 7329 C 689.28 5.98108 1.30129 0
M  V30 7330 N 688.417 6.62786 2.31644 0
M  V30 7331 H 693.257 2.968 -0.267155 0
M  V30 7332 H 690.794 1.46397 -0.143591 0
M  V30 7333 H 692.752 3.58429 2.13506 0
M  V30 7334 H 691.382 2.44329 2.10957 0
M  V30 7335 H 690.434 3.80248 0.107373 0
M  V30 7336 H 691.746 4.97499 0.35997 0
M  V30 7337 H 690.9 5.44914 2.66747 0
M  V30 7338 H 689.639 4.19744 2.48326 0
M  V30 7339 H 688.644 5.4693 0.561082 0
M  V30 7340 H 689.869 6.74751 0.767303 0
M  V30 7341 H 687.815 5.90913 2.84883 0
M  V30 7342 H 687.732 7.32828 1.85741 0
M  V30 7343 H 689 7.17897 3.03717 0
M  V30 7344 N 693.229 0.160201 1.56784 0
M  V30 7345 C 694.192 -0.760405 2.16219 0
M  V30 7346 C 695.192 -1.16595 1.10735 0
M  V30 7347 O 696.382 -1.08472 1.36306 0
M  V30 7348 C 693.514 -2.03358 2.73603 0
M  V30 7349 H 694.707 -0.243173 2.98912 0
M  V30 7350 H 692.26 -0.0893139 1.56045 0
M  V30 7351 H 692.995 -2.59416 1.94612 0
M  V30 7352 H 692.78 -1.75186 3.50788 0
M  V30 7353 H 694.27 -2.69081 3.19351 0
M  V30 7354 N 694.707 -1.5719 -0.113559 0
M  V30 7355 C 695.617 -2.04041 -1.15777 0
M  V30 7356 C 696.633 -0.961812 -1.45001 0
M  V30 7357 O 697.809 -1.2737 -1.56009 0
M  V30 7358 C 694.874 -2.43994 -2.46308 0
M  V30 7359 C 693.935 -3.65962 -2.24433 0
M  V30 7360 C 693.168 -4.04 -3.4874 0
M  V30 7361 O 693.391 -3.42321 -4.56259 0
M  V30 7362 O 692.325 -4.97069 -3.3942 0
M  V30 7363 H 696.151 -2.93248 -0.789899 0
M  V30 7364 H 693.736 -1.45828 -0.324748 0
M  V30 7365 H 695.618 -2.70401 -3.23204 0
M  V30 7366 H 694.293 -1.57932 -2.82558 0
M  V30 7367 H 693.2 -3.44697 -1.45377 0
M  V30 7368 H 694.533 -4.52746 -1.93084 0
M  V30 7369 N 696.185 0.383891 -1.52853 0
M  V30 7370 C 697.41 1.154 -1.7233 0
M  V30 7371 C 697.835 1.82809 -0.44298 0
M  V30 7372 O 697.193 1.71026 0.601645 0
M  V30 7373 C 697.241 2.17386 -2.87708 0
M  V30 7374 O 696.345 3.24082 -2.55038 0
M  V30 7375 H 695.686 0.335709 -0.572883 0
M  V30 7376 H 698.216 0.44662 -1.99666 0
M  V30 7377 H 698.226 2.61296 -3.1335 0
M  V30 7378 H 696.901 1.6771 -3.80587 0
M  V30 7379 H 695.478 2.85273 -2.40153 0
M  V30 7380 N 697.663 1.43903 0.642637 0
M  V30 7381 C 698.593 1.52697 1.76652 0
M  V30 7382 C 699.574 0.380816 1.65782 0
M  V30 7383 O 700.759 0.599432 1.84717 0
M  V30 7384 C 697.889 1.45975 3.15133 0
M  V30 7385 C 696.843 2.58949 3.40778 0
M  V30 7386 C 696.169 2.37279 4.79169 0
M  V30 7387 C 697.469 4.01153 3.34475 0
M  V30 7388 H 699.163 2.46766 1.69549 0
M  V30 7389 H 696.709 1.18767 0.814279 0
M  V30 7390 H 698.662 1.5073 3.93521 0
M  V30 7391 H 697.386 0.484162 3.22991 0
M  V30 7392 H 696.045 2.53564 2.64765 0
M  V30 7393 H 695.693 1.37939 4.83717 0
M  V30 7394 H 695.393 3.13016 4.97287 0
M  V30 7395 H 696.917 2.43834 5.59801 0
M  V30 7396 H 698.331 4.07968 4.02784 0
M  V30 7397 H 696.728 4.77001 3.64129 0
M  V30 7398 H 697.798 4.25539 2.32475 0
M  V30 7399 N 699.141 -0.881989 1.30609 0
M  V30 7400 C 700.073 -1.99375 1.13058 0
M  V30 7401 C 701.086 -1.62636 0.0729879 0
M  V30 7402 O 702.275 -1.75621 0.319301 0
M  V30 7403 C 699.375 -3.31536 0.702651 0
M  V30 7404 C 698.548 -3.96693 1.84265 0
M  V30 7405 C 697.607 -5.07158 1.40277 0
M  V30 7406 O 696.633 -5.28628 2.11048 0
M  V30 7407 N 697.835 -5.79808 0.283449 0
M  V30 7408 H 700.6 -2.14981 2.08814 0
M  V30 7409 H 698.161 -1.05526 1.22784 0
M  V30 7410 H 700.153 -4.02804 0.391331 0
M  V30 7411 H 698.723 -3.12175 -0.162954 0
M  V30 7412 H 697.943 -3.1856 2.32192 0
M  V30 7413 H 699.231 -4.36964 2.60653 0
M  V30 7414 H 698.629 -5.64871 -0.306189 0
M  V30 7415 H 697.186 -6.51792 0.0315985 0
M  V30 7416 N 700.619 -1.13374 -1.09472 0
M  V30 7417 C 701.865 -0.896516 -1.81908 0
M  V30 7418 C 702.198 0.575933 -1.85463 0
M  V30 7419 O 701.473 1.42618 -1.32251 0
M  V30 7420 C 701.756 -1.48445 -3.28079 0
M  V30 7421 C 701.609 -3.02598 -3.32798 0
M  V30 7422 C 702.928 -1.15226 -4.24748 0
M  V30 7423 H 700.047 -0.327127 -0.660422 0
M  V30 7424 H 702.689 -1.40195 -1.2824 0
M  V30 7425 H 700.839 -1.0546 -3.73912 0
M  V30 7426 H 702.511 -3.54335 -2.95372 0
M  V30 7427 H 700.754 -3.37613 -2.72397 0
M  V30 7428 H 701.425 -3.38835 -4.3577 0
M  V30 7429 H 703.901 -1.52369 -3.87199 0
M  V30 7430 H 702.777 -1.59012 -5.25363 0
M  V30 7431 H 703.038 -0.0658891 -4.42051 0
M  V30 7432 N 702.098 1.27442 -0.927168 0
M  V30 7433 C 703.326 1.98498 -0.583622 0
M  V30 7434 C 703.741 1.69171 0.838241 0
M  V30 7435 O 703.098 0.951969 1.55704 0
M  V30 7436 C 703.149 3.52552 -0.799341 0
M  V30 7437 O 702.87 3.80851 -2.16527 0
M  V30 7438 C 704.371 4.4086 -0.464436 0
M  V30 7439 H 701.591 0.633487 -0.221213 0
M  V30 7440 H 704.135 1.62308 -1.24404 0
M  V30 7441 H 702.29 3.86955 -0.185728 0
M  V30 7442 H 702.704 4.75441 -2.21487 0
M  V30 7443 H 704.178 5.47967 -0.666075 0
M  V30 7444 H 704.655 4.35082 0.599995 0
M  V30 7445 H 705.261 4.11977 -1.05617 0
M  V30 7446 N 703.576 0.692616 1.41565 0
M  V30 7447 C 704.992 0.363878 1.55397 0
M  V30 7448 C 705.192 -1.1294 1.66874 0
M  V30 7449 O 704.248 -1.91517 1.64552 0
M  V30 7450 C 705.561 1.10982 2.7947 0
M  V30 7451 C 707.109 1.09387 2.93263 0
M  V30 7452 C 707.584 1.8215 4.20221 0
M  V30 7453 N 709.075 1.79105 4.27172 0
M  V30 7454 C 709.81 2.32247 5.2426 0
M  V30 7455 N 709.306 2.93847 6.27396 0
M  V30 7456 N 711.099 2.22519 5.1618 0
M  V30 7457 H 703.25 1.66116 1.3236 0
M  V30 7458 H 705.513 0.700848 0.63837 0
M  V30 7459 H 705.219 2.1647 2.77188 0
M  V30 7460 H 705.093 0.686492 3.709 0
M  V30 7461 H 707.48 0.0472638 2.95062 0
M  V30 7462 H 707.561 1.55623 2.03015 0
M  V30 7463 H 707.205 2.86789 4.19183 0
M  V30 7464 H 707.135 1.33351 5.09436 0
M  V30 7465 H 709.626 1.34191 3.53272 0
M  V30 7466 H 709.939 3.31972 6.97864 0
M  V30 7467 H 708.284 2.97924 6.27906 0
M  V30 7468 H 711.475 1.7407 4.34531 0
M  V30 7469 H 711.648 2.64239 5.91677 0
M  V30 7470 N 705.054 -1.51416 0.437162 0
M  V30 7471 C 706.302 -2.01687 -0.129108 0
M  V30 7472 C 706.623 -1.32329 -1.43227 0
M  V30 7473 O 705.893 -0.457796 -1.90476 0
M  V30 7474 H 704.473 -0.745277 -0.0507023 0
M  V30 7475 H 707.135 -1.86075 0.579828 0
M  V30 7476 H 706.231 -3.10605 -0.305141 0
M  V30 7477 N 706.532 -0.168513 -1.56696 0
M  V30 7478 C 707.809 0.523367 -1.88468 0
M  V30 7479 C 708.189 1.81503 -1.07796 0
M  V30 7480 O 707.537 2.27859 -0.171045 0
M  V30 7481 C 707.747 0.767991 -3.40445 0
M  V30 7482 C 709.095 1.09924 -4.10124 0
M  V30 7483 O 710.119 0.856625 -3.45746 0
M  V30 7484 O 708.978 1.55681 -5.23856 0
M  V30 7485 H 706.072 0.269447 -0.781874 0
M  V30 7486 H 708.618 -0.206739 -1.68436 0
M  V30 7487 H 707.39 -0.145254 -3.9103 0
M  V30 7488 H 707.013 1.55151 -3.66079 0
M  V30 7489 N 708.01 1.57248 0.105221 0
M  V30 7490 C 709.257 1.8557 0.810552 0
M  V30 7491 C 709.585 0.755595 1.79223 0
M  V30 7492 O 708.84 -0.251788 1.94073 0
M  V30 7493 C 709.139 3.20437 1.58287 0
M  V30 7494 C 708.805 4.44716 0.744235 0
M  V30 7495 C 707.467 4.78458 0.513013 0
M  V30 7496 C 709.819 5.20953 0.160578 0
M  V30 7497 C 707.147 5.8587 -0.311894 0
M  V30 7498 C 709.499 6.29235 -0.651596 0
M  V30 7499 C 708.163 6.615 -0.893005 0
M  V30 7500 H 707.433 0.67905 0.296602 0
M  V30 7501 H 710.08 1.91363 0.0723968 0
M  V30 7502 H 708.385 3.10283 2.39232 0
M  V30 7503 H 710.082 3.39576 2.13282 0
M  V30 7504 H 706.672 4.18287 0.934555 0
M  V30 7505 H 710.856 4.95226 0.3264 0
M  V30 7506 H 706.112 6.09286 -0.508012 0
M  V30 7507 H 710.286 6.87484 -1.11077 0
M  V30 7508 H 707.913 7.44562 -1.53401 0
M  V30 7509 N 709.488 -0.375779 1.53054 0
M  V30 7510 C 710.418 -1.46598 1.81745 0
M  V30 7511 C 711.399 -1.56337 0.670286 0
M  V30 7512 O 712.584 -1.71071 0.919158 0
M  V30 7513 C 709.714 -2.84058 1.99821 0
M  V30 7514 C 708.668 -2.8915 3.15557 0
M  V30 7515 C 707.994 -4.29187 3.18908 0
M  V30 7516 C 709.294 -2.57595 4.54359 0
M  V30 7517 H 710.988 -1.22837 2.73041 0
M  V30 7518 H 708.534 -0.589485 1.31381 0
M  V30 7519 H 710.487 -3.60342 2.18475 0
M  V30 7520 H 709.211 -3.09184 1.05226 0
M  V30 7521 H 707.87 -2.15316 2.96706 0
M  V30 7522 H 707.518 -4.51374 2.2197 0
M  V30 7523 H 707.218 -4.33512 3.96662 0
M  V30 7524 H 708.742 -5.07359 3.39734 0
M  V30 7525 H 710.156 -3.23595 4.73243 0
M  V30 7526 H 708.553 -2.73252 5.34279 0
M  V30 7527 H 709.623 -1.52882 4.60169 0
M  V30 7528 N 710.966 -1.44241 -0.634997 0
M  V30 7529 C 711.929 -1.50457 -1.72903 0
M  V30 7530 C 712.929 -0.387058 -1.56072 0
M  V30 7531 O 714.119 -0.649531 -1.61638 0
M  V30 7532 C 711.251 -1.37477 -3.1195 0
M  V30 7533 H 712.444 -2.47907 -1.68767 0
M  V30 7534 H 709.997 -1.31276 -0.84831 0
M  V30 7535 H 710.732 -0.41106 -3.21684 0
M  V30 7536 H 710.517 -2.18506 -3.25573 0
M  V30 7537 H 712.007 -1.44799 -3.91692 0
M  V30 7538 N 712.444 0.87505 -1.31075 0
M  V30 7539 C 713.669 1.66583 -1.23551 0
M  V30 7540 C 714.094 1.87067 0.19686 0
M  V30 7541 O 713.452 1.40877 1.1412 0
M  V30 7542 C 713.5 3.01401 -1.97965 0
M  V30 7543 O 712.604 3.90923 -1.31351 0
M  V30 7544 H 711.945 0.508645 -0.426821 0
M  V30 7545 H 714.475 1.09139 -1.7306 0
M  V30 7546 H 714.485 3.51374 -2.07366 0
M  V30 7547 H 713.16 2.85812 -3.02133 0
M  V30 7548 H 711.737 3.49369 -1.30368 0
M  V30 7549 N 713.922 1.13953 1.08869 0
M  V30 7550 C 714.852 0.844824 2.17681 0
M  V30 7551 C 715.833 -0.198213 1.68941 0
M  V30 7552 O 717.018 -0.0559073 1.9412 0
M  V30 7553 C 714.148 0.316325 3.45856 0
M  V30 7554 C 713.102 1.29426 4.07962 0
M  V30 7555 C 712.428 0.625275 5.31031 0
M  V30 7556 C 713.728 2.65484 4.49795 0
M  V30 7557 H 715.422 1.75471 2.42591 0
M  V30 7558 H 712.968 0.845116 1.16592 0
M  V30 7559 H 714.921 0.0977876 4.21287 0
M  V30 7560 H 713.645 -0.628972 3.20486 0
M  V30 7561 H 712.304 1.49889 3.34558 0
M  V30 7562 H 711.952 -0.325678 5.01945 0
M  V30 7563 H 711.652 1.27777 5.73539 0
M  V30 7564 H 713.176 0.416152 6.0918 0
M  V30 7565 H 714.59 2.48957 5.16424 0
M  V30 7566 H 712.987 3.26963 5.03205 0
M  V30 7567 H 714.057 3.22717 3.61914 0
M  V30 7568 N 715.4 -1.26948 0.933913 0
M  V30 7569 C 716.31 -2.30366 0.443671 0
M  V30 7570 C 717.326 -1.67284 -0.478745 0
M  V30 7571 O 718.502 -1.98156 -0.360043 0
M  V30 7572 C 715.567 -3.45485 -0.289974 0
M  V30 7573 C 714.628 -4.24069 0.668114 0
M  V30 7574 C 713.861 -5.33691 -0.0306138 0
M  V30 7575 O 714.084 -5.5656 -1.24888 0
M  V30 7576 O 713.018 -5.98441 0.644384 0
M  V30 7577 H 716.844 -2.74349 1.30254 0
M  V30 7578 H 714.429 -1.32012 0.699506 0
M  V30 7579 H 716.311 -4.15486 -0.70353 0
M  V30 7580 H 714.986 -3.03546 -1.12435 0
M  V30 7581 H 713.893 -3.56579 1.13147 0
M  V30 7582 H 715.226 -4.69739 1.46989 0
M  V30 7583 N 716.879 -0.700114 -1.41195 0
M  V30 7584 C 717.827 -0.0263301 -2.32585 0
M  V30 7585 C 718.821 0.763683 -1.51209 0
M  V30 7586 O 720.027 0.668793 -1.67114 0
M  V30 7587 H 716.402 0.0102869 -0.75193 0
M  V30 7588 H 718.373 -0.814087 -2.8708 0
M  V30 7589 C 717.122 0.892793 -3.36042 0
M  V30 7590 H 716.445 0.294306 -3.98715 0
M  V30 7591 H 717.885 1.33247 -4.02518 0
M  V30 7592 C 716.344 2.01109 -2.7029 0
M  V30 7593 O 716.874 3.10035 -2.55423 0
M  V30 7594 N 715.08 1.79015 -2.28915 0
M  V30 7595 H 714.627 0.904275 -2.41207 0
M  V30 7596 H 714.585 2.54022 -1.85257 0
M  V30 7597 N 718.357 1.51182 -0.445186 0
M  V30 7598 C 719.634 1.9478 0.178965 0
M  V30 7599 C 720.014 1.38428 1.59376 0
M  V30 7600 O 719.362 0.574552 2.21159 0
M  V30 7601 C 719.572 3.48683 0.148711 0
M  V30 7602 C 720.92 4.23152 0.35042 0
M  V30 7603 O 721.944 3.55479 0.226474 0
M  V30 7604 O 720.803 5.4322 0.597893 0
M  V30 7605 H 717.897 0.817387 0.12573 0
M  V30 7606 H 720.443 1.62051 -0.503729 0
M  V30 7607 H 719.215 3.82176 -0.84009 0
M  V30 7608 H 718.838 3.87875 0.873979 0
M  V30 7609 N 719.835 0.176821 1.56605 0
M  V30 7610 C 721.084 -0.466833 1.96223 0
M  V30 7611 C 721.397 -1.64015 1.06576 0
M  V30 7612 O 722.603 -2.3504 1.35898 0
M  V30 7613 C 721.059 -0.881921 3.48927 0
M  V30 7614 C 720.667 0.266102 4.47209 0
M  V30 7615 C 722.411 -1.49368 3.97353 0
M  V30 7616 C 720.318 -0.168923 5.91159 0
M  V30 7617 H 719.248 -0.178178 0.732645 0
M  V30 7618 H 721.899 0.265929 1.81563 0
M  V30 7619 H 720.281 -1.67082 3.59026 0
M  V30 7620 H 721.455 1.04349 4.4883 0
M  V30 7621 H 719.77 0.788178 4.08872 0
M  V30 7622 H 722.367 -1.8313 5.02362 0
M  V30 7623 H 722.71 -2.3936 3.40606 0
M  V30 7624 H 723.243 -0.769114 3.90294 0
M  V30 7625 H 719.982 0.696351 6.51791 0
M  V30 7626 H 719.502 -0.911552 5.92833 0
M  V30 7627 H 721.181 -0.610938 6.44109 0
M  V30 7628 N 721.313 -1.57302 -0.09688 0
M  V30 7629 C 722.26 -2.01933 -1.11766 0
M  V30 7630 C 723.23 -0.895329 -1.39904 0
M  V30 7631 O 724.415 -1.16119 -1.51397 0
M  V30 7632 C 721.555 -2.44726 -2.43317 0
M  V30 7633 C 720.668 -3.70639 -2.21925 0
M  V30 7634 C 719.803 -4.02318 -3.46862 0
M  V30 7635 C 718.842 -5.21346 -3.20725 0
M  V30 7636 N 717.979 -5.48787 -4.37924 0
M  V30 7637 H 722.819 -2.88919 -0.730075 0
M  V30 7638 H 720.356 -1.42901 -0.348962 0
M  V30 7639 H 722.314 -2.6758 -3.20088 0
M  V30 7640 H 720.944 -1.60753 -2.79926 0
M  V30 7641 H 719.996 -3.55271 -1.35965 0
M  V30 7642 H 721.308 -4.57557 -1.98603 0
M  V30 7643 H 720.462 -4.25939 -4.32042 0
M  V30 7644 H 719.201 -3.13918 -3.73238 0
M  V30 7645 H 718.206 -4.97547 -2.33938 0
M  V30 7646 H 719.431 -6.11343 -2.95697 0
M  V30 7647 H 717.377 -4.63346 -4.64378 0
M  V30 7648 H 717.294 -6.30073 -4.17785 0
M  V30 7649 H 718.562 -5.76943 -5.24173 0
M  V30 7650 N 722.791 0.367657 -1.53252 0
M  V30 7651 C 724.202 0.944563 -1.61043 0
M  V30 7652 C 724.553 1.90325 -0.476546 0
M  V30 7653 O 723.678 2.12721 0.397333 0
M  V30 7654 C 724.273 1.71992 -2.91898 0
M  V30 7655 C 722.832 2.2462 -3.02031 0
M  V30 7656 C 721.979 1.05799 -2.56324 0
M  V30 7657 H 724.93 0.146516 -1.58022 0
M  V30 7658 H 724.951 2.58095 -2.79584 0
M  V30 7659 H 724.463 1.02192 -3.74404 0
M  V30 7660 H 722.564 2.97668 -2.24108 0
M  V30 7661 H 722.677 2.52644 -4.07073 0
M  V30 7662 H 721.041 1.42435 -2.1115 0
M  V30 7663 H 721.824 0.375008 -3.41246 0
M  V30 7664 N 724.269 1.44576 0.627338 0
M  V30 7665 C 725.232 1.51372 1.72102 0
M  V30 7666 C 726.232 0.395329 1.55865 0
M  V30 7667 O 727.422 0.658094 1.61291 0
M  V30 7668 C 724.554 1.39129 3.11217 0
M  V30 7669 H 725.747 2.48798 1.6745 0
M  V30 7670 H 723.3 1.31724 0.841336 0
M  V30 7671 H 724.035 0.428114 3.21462 0
M  V30 7672 H 723.82 2.20229 3.24409 0
M  V30 7673 H 725.31 1.46874 3.90919 0
M  V30 7674 N 725.747 -0.868086 1.31537 0
M  V30 7675 C 726.994 -1.62127 1.2133 0
M  V30 7676 C 727.322 -1.93158 -0.2281 0
M  V30 7677 O 726.577 -1.5632 -1.1774 0
M  V30 7678 C 726.876 -2.95889 2.0046 0
M  V30 7679 C 726.542 -2.84343 3.49943 0
M  V30 7680 C 725.204 -2.80901 3.90702 0
M  V30 7681 C 727.556 -2.71243 4.45058 0
M  V30 7682 C 724.884 -2.6222 5.24841 0
M  V30 7683 C 727.236 -2.54098 5.79325 0
M  V30 7684 C 725.9 -2.4904 6.19302 0
M  V30 7685 H 725.17 -0.593265 0.443979 0
M  V30 7686 H 727.817 -1.00803 1.62822 0
M  V30 7687 H 726.122 -3.61259 1.51655 0
M  V30 7688 H 727.819 -3.53161 1.89942 0
M  V30 7689 H 724.409 -2.8784 3.17563 0
M  V30 7690 H 728.593 -2.72956 4.14498 0
M  V30 7691 H 723.849 -2.56731 5.54887 0
M  V30 7692 H 728.023 -2.42938 6.52652 0
M  V30 7693 H 725.65 -2.34324 7.23185 0
M  V30 7694 N 727.225 -1.14528 -1.08264 0
M  V30 7695 C 728.473 -0.912599 -1.80322 0
M  V30 7696 C 728.794 0.562256 -1.86718 0
M  V30 7697 O 728.064 1.40869 -1.36135 0
M  V30 7698 H 726.644 -0.334645 -0.667849 0
M  V30 7699 H 729.306 -1.44415 -1.30883 0
M  V30 7700 H 728.402 -1.31384 -2.83098 0
M  V30 7701 N 728.703 1.26451 -0.940633 0
M  V30 7702 C 729.931 1.97868 -0.604642 0
M  V30 7703 C 730.346 1.70051 0.820251 0
M  V30 7704 O 729.703 0.96843 1.54686 0
M  V30 7705 C 729.754 3.51684 -0.836689 0
M  V30 7706 O 729.475 3.78533 -2.20554 0
M  V30 7707 C 730.976 4.40343 -0.511169 0
M  V30 7708 H 728.196 0.631105 -0.227919 0
M  V30 7709 H 730.74 1.60979 -1.26119 0
M  V30 7710 H 728.895 3.86736 -0.226759 0
M  V30 7711 H 729.309 4.73065 -2.26517 0
M  V30 7712 H 730.783 5.47229 -0.724157 0
M  V30 7713 H 731.26 4.35694 0.553815 0
M  V30 7714 H 731.866 4.10834 -1.0998 0
M  V30 7715 N 730.181 0.707592 1.40822 0
M  V30 7716 C 731.129 0.0386643 2.32568 0
M  V30 7717 C 732.123 -0.755653 1.51612 0
M  V30 7718 O 733.329 -0.659921 1.67467 0
M  V30 7719 H 729.704 -0.00629912 0.751974 0
M  V30 7720 H 731.675 0.8293 2.86645 0
M  V30 7721 C 730.424 -0.87496 3.36511 0
M  V30 7722 H 729.747 -0.273157 3.98866 0
M  V30 7723 H 731.187 -1.31111 4.03219 0
M  V30 7724 C 729.646 -1.99672 2.71353 0
M  V30 7725 O 730.176 -3.08676 2.57064 0
M  V30 7726 N 728.382 -1.77799 2.29861 0
M  V30 7727 H 727.929 -0.89147 2.41683 0
M  V30 7728 H 727.887 -2.53036 1.86601 0
M  V30 7729 N 731.66 -1.50943 0.453197 0
M  V30 7730 C 732.592 -2.25922 -0.38623 0
M  V30 7731 C 733.605 -1.3055 -0.972652 0
M  V30 7732 O 734.794 -1.56191 -0.864097 0
M  V30 7733 C 731.894 -3.01176 -1.5539 0
M  V30 7734 C 731.067 -4.23768 -1.0835 0
M  V30 7735 C 730.126 -4.81466 -2.12313 0
M  V30 7736 O 729.152 -5.42875 -1.71101 0
M  V30 7737 N 730.354 -4.66889 -3.44956 0
M  V30 7738 H 733.119 -2.98601 0.256468 0
M  V30 7739 H 730.68 -1.59408 0.282965 0
M  V30 7740 H 732.672 -3.36659 -2.24594 0
M  V30 7741 H 731.242 -2.31409 -2.10163 0
M  V30 7742 H 730.462 -3.93597 -0.217961 0
M  V30 7743 H 731.75 -5.03289 -0.746857 0
M  V30 7744 H 731.148 -4.18011 -3.81161 0
M  V30 7745 H 729.705 -5.06691 -4.1001 0
M  V30 7746 N 733.138 -0.185124 -1.56509 0
M  V30 7747 C 734.048 0.751908 -2.22224 0
M  V30 7748 C 735.064 1.24244 -1.21817 0
M  V30 7749 O 736.24 1.29169 -1.54523 0
M  V30 7750 C 733.305 1.95837 -2.86092 0
M  V30 7751 C 732.366 1.51337 -4.01741 0
M  V30 7752 C 731.599 2.66233 -4.62554 0
M  V30 7753 O 731.822 3.8346 -4.22273 0
M  V30 7754 O 730.756 2.39517 -5.52191 0
M  V30 7755 H 734.582 0.222304 -3.02885 0
M  V30 7756 H 732.167 0.0437141 -1.49336 0
M  V30 7757 H 734.049 2.66368 -3.26536 0
M  V30 7758 H 732.724 2.47677 -2.08417 0
M  V30 7759 H 731.631 0.777155 -3.65939 0
M  V30 7760 H 732.964 1.04175 -4.81049 0
M  V30 7761 N 734.616 1.57351 0.0885366 0
M  V30 7762 C 735.893 1.77449 0.822873 0
M  V30 7763 C 736.273 0.768463 1.96616 0
M  V30 7764 O 735.621 -0.201757 2.27608 0
M  V30 7765 C 735.831 3.23425 1.31137 0
M  V30 7766 C 737.179 3.86791 1.75152 0
M  V30 7767 O 738.203 3.27215 1.40745 0
M  V30 7768 O 737.062 4.91568 2.38794 0
M  V30 7769 H 734.156 0.727653 0.393002 0
M  V30 7770 H 736.702 1.69556 0.0699095 0
M  V30 7771 H 735.474 3.88188 0.49254 0
M  V30 7772 H 735.097 3.35977 2.12615 0
M  V30 7773 N 736.094 -0.359525 1.53444 0
M  V30 7774 C 737.324 -1.12036 1.73585 0
M  V30 7775 C 737.732 -1.83335 0.467438 0
M  V30 7776 O 737.075 -1.74641 -0.569753 0
M  V30 7777 C 737.137 -2.19036 2.85068 0
M  V30 7778 C 736.801 -1.67451 4.25217 0
M  V30 7779 C 737.798 -1.13534 5.07352 0
M  V30 7780 C 735.483 -1.72781 4.71648 0
M  V30 7781 C 737.477 -0.656321 6.34012 0
M  V30 7782 C 735.164 -1.2449 5.98285 0
M  V30 7783 C 736.162 -0.710068 6.79299 0
M  V30 7784 O 735.85 -0.234314 8.03558 0
M  V30 7785 H 735.582 -0.340662 0.583888 0
M  V30 7786 H 738.136 -0.422452 2.01009 0
M  V30 7787 H 736.366 -2.92338 2.53131 0
M  V30 7788 H 738.055 -2.80559 2.93328 0
M  V30 7789 H 738.821 -1.08751 4.7265 0
M  V30 7790 H 734.7 -2.13351 4.08659 0
M  V30 7791 H 738.244 -0.238193 6.97193 0
M  V30 7792 H 734.141 -1.28969 6.32485 0
M  V30 7793 H 734.909 -0.353084 8.17738 0
M  V30 7794 N 737.572 -1.44907 -0.619662 0
M  V30 7795 C 738.535 -1.52282 -1.71297 0
M  V30 7796 C 739.535 -0.40359 -1.55653 0
M  V30 7797 O 740.725 -0.666638 -1.6094 0
M  V30 7798 C 737.857 -1.40778 -3.10474 0
M  V30 7799 H 739.05 -2.49683 -1.66128 0
M  V30 7800 H 736.603 -1.32168 -0.834339 0
M  V30 7801 H 737.338 -0.445156 -3.2123 0
M  V30 7802 H 737.123 -2.21947 -3.23237 0
M  V30 7803 H 738.613 -1.48946 -3.90135 0
M  V30 7804 N 739.05 0.861098 -1.31996 0
M  V30 7805 C 740.275 1.65264 -1.2531 0
M  V30 7806 C 740.7 1.87265 0.177007 0
M  V30 7807 O 740.058 1.4208 1.12619 0
M  V30 7808 C 740.106 2.99284 -2.0115 0
M  V30 7809 O 739.21 3.89508 -1.3549 0
M  V30 7810 H 738.551 0.50409 -0.432192 0
M  V30 7811 H 741.081 1.07297 -1.74208 0
M  V30 7812 H 741.091 3.49154 -2.11081 0
M  V30 7813 H 739.766 2.82591 -3.05148 0
M  V30 7814 H 738.343 3.47966 -1.34066 0
M  V30 7815 N 740.528 1.15101 1.07655 0
M  V30 7816 C 741.758 0.946357 1.83651 0
M  V30 7817 C 742.166 -0.508641 1.82235 0
M  V30 7818 O 741.509 -1.36445 1.22997 0
M  V30 7819 C 741.571 1.37945 3.31981 0
M  V30 7820 C 741.235 2.85155 3.57122 0
M  V30 7821 C 742.232 3.83234 3.51323 0
M  V30 7822 C 739.917 3.2275 3.84887 0
M  V30 7823 C 741.911 5.16914 3.72932 0
M  V30 7824 C 739.598 4.56604 4.06148 0
M  V30 7825 C 740.596 5.53495 4.00165 0
M  V30 7826 O 740.284 6.84931 4.20861 0
M  V30 7827 H 740.016 0.336368 0.586372 0
M  V30 7828 H 742.57 1.53198 1.36819 0
M  V30 7829 H 740.8 0.737205 3.79608 0
M  V30 7830 H 742.489 1.14439 3.89434 0
M  V30 7831 H 743.255 3.55535 3.29878 0
M  V30 7832 H 739.134 2.47921 3.88659 0
M  V30 7833 H 742.678 5.92529 3.68178 0
M  V30 7834 H 738.575 4.84019 4.27078 0
M  V30 7835 H 739.343 6.91304 4.38226 0
M  V30 7836 N 742.006 -1.2595 0.947325 0
M  V30 7837 C 743.255 -1.92759 0.593887 0
M  V30 7838 C 743.568 -1.75083 -0.872093 0
M  V30 7839 O 744.774 -2.36401 -1.33518 0
M  V30 7840 C 743.23 -3.45395 1.01144 0
M  V30 7841 C 742.838 -3.71795 2.49946 0
M  V30 7842 C 744.582 -4.18173 0.730185 0
M  V30 7843 C 742.489 -5.17901 2.85539 0
M  V30 7844 H 741.419 -0.721676 0.218403 0
M  V30 7845 H 744.07 -1.4293 1.15079 0
M  V30 7846 H 742.452 -3.94143 0.383007 0
M  V30 7847 H 743.626 -3.33728 3.17746 0
M  V30 7848 H 741.941 -3.12263 2.75465 0
M  V30 7849 H 744.538 -5.25784 0.972367 0
M  V30 7850 H 744.881 -4.14964 -0.333223 0
M  V30 7851 H 745.414 -3.75309 1.31862 0
M  V30 7852 H 742.153 -5.26216 3.90867 0
M  V30 7853 H 741.673 -5.57042 2.22406 0
M  V30 7854 H 743.352 -5.8596 2.74336 0
M  V30 7855 N 743.484 -0.715051 -1.40445 0
M  V30 7856 C 744.417 -0.0112426 -2.28197 0
M  V30 7857 C 745.395 0.768211 -1.43308 0
M  V30 7858 O 746.579 0.754961 -1.72721 0
M  V30 7859 C 743.706 0.991453 -3.23864 0
M  V30 7860 C 742.752 0.302873 -4.25423 0
M  V30 7861 S 743.585 -0.968852 -5.26663 0
M  V30 7862 C 744.741 0.0317538 -6.25892 0
M  V30 7863 H 744.974 -0.755467 -2.87541 0
M  V30 7864 H 742.507 -0.506054 -1.45871 0
M  V30 7865 H 744.465 1.56475 -3.79507 0
M  V30 7866 H 743.126 1.70838 -2.63578 0
M  V30 7867 H 742.319 1.06086 -4.92709 0
M  V30 7868 H 741.921 -0.197853 -3.73476 0
M  V30 7869 H 744.213 0.878764 -6.71777 0
M  V30 7870 H 745.156 -0.607698 -7.05488 0
M  V30 7871 H 745.564 0.39524 -5.63115 0
M  V30 7872 N 744.962 1.50701 -0.461195 0
M  V30 7873 C 745.91 2.29918 0.352231 0
M  V30 7874 C 746.904 1.36778 0.999403 0
M  V30 7875 O 748.11 1.54015 0.931639 0
M  V30 7876 H 744.485 0.740249 0.132423 0
M  V30 7877 H 746.456 2.96497 -0.336424 0
M  V30 7878 C 745.205 3.17052 1.42736 0
M  V30 7879 H 744.528 3.88623 0.938747 0
M  V30 7880 H 745.968 3.75493 1.96928 0
M  V30 7881 C 744.427 2.3399 2.42384 0
M  V30 7882 O 744.957 2.01608 3.47444 0
M  V30 7883 N 743.163 1.96758 2.13857 0
M  V30 7884 H 742.71 2.23292 1.28447 0
M  V30 7885 H 742.668 1.41484 2.80766 0
M  V30 7886 N 746.441 0.193421 1.56409 0
M  V30 7887 C 747.689 -0.444908 1.97142 0
M  V30 7888 C 748.01 -1.62268 1.08139 0
M  V30 7889 O 747.28 -1.95307 0.152326 0
M  V30 7890 H 745.86 -0.16736 0.728011 0
M  V30 7891 H 748.522 0.279763 1.92882 0
M  V30 7892 H 747.618 -0.790159 3.01932 0
M  V30 7893 N 747.919 -1.57396 -0.0801906 0
M  V30 7894 C 749.168 -1.8602 -0.779702 0
M  V30 7895 C 749.481 -0.784864 -1.79163 0
M  V30 7896 O 750.687 -0.958691 -2.54011 0
M  V30 7897 C 749.143 -3.29942 -1.43758 0
M  V30 7898 C 748.751 -4.45584 -0.464654 0
M  V30 7899 C 750.495 -3.67775 -2.11995 0
M  V30 7900 C 748.402 -5.80544 -1.12797 0
M  V30 7901 H 747.332 -0.69392 -0.294943 0
M  V30 7902 H 749.983 -1.83471 -0.0328527 0
M  V30 7903 H 748.365 -3.27078 -2.2324 0
M  V30 7904 H 749.539 -4.59824 0.299749 0
M  V30 7905 H 747.854 -4.16247 0.112813 0
M  V30 7906 H 750.451 -4.65896 -2.62383 0
M  V30 7907 H 750.794 -2.9715 -2.91561 0
M  V30 7908 H 751.327 -3.72593 -1.39354 0
M  V30 7909 H 748.066 -6.54439 -0.372807 0
M  V30 7910 H 747.586 -5.70119 -1.86344 0
M  V30 7911 H 749.265 -6.25602 -1.6502 0
M  V30 7912 N 749.397 0.351382 -1.53633 0
M  V30 7913 C 750.646 1.08988 -1.69719 0
M  V30 7914 C 750.959 1.90043 -0.462948 0
M  V30 7915 O 752.165 2.66769 -0.504613 0
M  V30 7916 C 750.621 1.98691 -3.00083 0
M  V30 7917 C 750.229 1.22881 -4.30818 0
M  V30 7918 C 751.973 2.72446 -3.25536 0
M  V30 7919 C 749.88 2.11568 -5.52262 0
M  V30 7920 H 748.81 0.410588 -0.632403 0
M  V30 7921 H 751.461 0.349886 -1.80133 0
M  V30 7922 H 749.843 2.76478 -2.83506 0
M  V30 7923 H 751.017 0.500582 -4.58073 0
M  V30 7924 H 749.332 0.60928 -4.11918 0
M  V30 7925 H 751.929 3.39055 -4.13456 0
M  V30 7926 H 752.272 3.38588 -2.42206 0
M  V30 7927 H 752.805 2.01735 -3.42852 0
M  V30 7928 H 749.544 1.4998 -6.38111 0
M  V30 7929 H 749.064 2.82201 -5.29266 0
M  V30 7930 H 750.743 2.70802 -5.87601 0
M  V30 7931 N 750.875 1.45233 0.611969 0
M  V30 7932 C 751.822 1.5357 1.72293 0
M  V30 7933 C 752.792 0.381912 1.6165 0
M  V30 7934 O 753.977 0.594765 1.81293 0
M  V30 7935 C 751.117 1.50419 3.10593 0
M  V30 7936 C 750.23 2.76316 3.32074 0
M  V30 7937 C 749.365 2.64866 4.60456 0
M  V30 7938 C 748.404 3.85838 4.7518 0
M  V30 7939 N 747.541 3.72949 5.94856 0
M  V30 7940 H 752.381 2.4848 1.64504 0
M  V30 7941 H 749.918 1.23302 0.802191 0
M  V30 7942 H 751.876 1.4658 3.90602 0
M  V30 7943 H 750.506 0.590621 3.17351 0
M  V30 7944 H 749.558 2.90261 2.45872 0
M  V30 7945 H 750.87 3.66055 3.38829 0
M  V30 7946 H 750.024 2.58969 5.48653 0
M  V30 7947 H 748.763 1.72719 4.56092 0
M  V30 7948 H 747.768 3.92099 3.85407 0
M  V30 7949 H 748.993 4.79045 4.81344 0
M  V30 7950 H 746.939 2.83567 5.91545 0
M  V30 7951 H 746.856 4.56319 6.02751 0
M  V30 7952 H 748.124 3.70976 6.85563 0
M  V30 7953 N 752.353 -0.854086 1.3245 0
M  V30 7954 C 753.599 -1.6105 1.24235 0
M  V30 7955 C 753.954 -1.91421 -0.193877 0
M  V30 7956 O 753.247 -1.54599 -1.1318 0
M  V30 7957 C 753.441 -2.93746 2.03587 0
M  V30 7958 C 753.27 -2.76335 3.54781 0
M  V30 7959 C 752.04 -2.74687 4.24117 0
M  V30 7960 C 754.238 -2.50052 4.4942 0
M  V30 7961 N 752.22 -2.48493 5.6136 0
M  V30 7962 C 753.591 -2.33269 5.74444 0
M  V30 7963 C 755.646 -2.35525 4.38671 0
M  V30 7964 C 754.349 -2.03434 6.89933 0
M  V30 7965 C 756.375 -2.07081 5.5396 0
M  V30 7966 C 755.737 -1.91098 6.77983 0
M  V30 7967 H 751.836 -0.593008 0.50977 0
M  V30 7968 H 754.42 -1.00392 1.66822 0
M  V30 7969 H 752.591 -3.52382 1.63345 0
M  V30 7970 H 754.323 -3.58768 1.87263 0
M  V30 7971 H 751.078 -2.87647 3.7624 0
M  V30 7972 H 751.502 -2.38322 6.33665 0
M  V30 7973 H 756.144 -2.46602 3.43435 0
M  V30 7974 H 753.862 -1.91095 7.85181 0
M  V30 7975 H 757.448 -1.96618 5.4757 0
M  V30 7976 H 756.328 -1.69402 7.65684 0
M  V30 7977 N 753.831 -1.1567 -1.07043 0
M  V30 7978 C 755.079 -0.931673 -1.79344 0
M  V30 7979 C 755.4 0.542421 -1.87304 0
M  V30 7980 O 754.67 1.39418 -1.37621 0
M  V30 7981 H 753.25 -0.34171 -0.664262 0
M  V30 7982 H 755.912 -1.45795 -1.29344 0
M  V30 7983 H 755.008 -1.34379 -2.81689 0
M  V30 7984 N 755.309 1.25446 -0.953992 0
M  V30 7985 C 756.586 1.884 -0.525823 0
M  V30 7986 C 756.966 1.86079 0.996891 0
M  V30 7987 O 756.314 1.32389 1.8624 0
M  V30 7988 C 756.524 3.31154 -1.10172 0
M  V30 7989 C 757.872 4.07926 -1.17819 0
M  V30 7990 O 758.896 3.40273 -1.05323 0
M  V30 7991 O 757.755 5.28942 -1.37415 0
M  V30 7992 H 754.849 0.808629 -0.173345 0
M  V30 7993 H 757.395 1.33522 -1.04738 0
M  V30 7994 H 756.167 3.27271 -2.14499 0
M  V30 7995 H 755.79 3.93588 -0.56338 0
M  V30 7996 N 756.787 0.722489 1.40064 0
M  V30 7997 C 758.198 0.336507 1.83642 0
M  V30 7998 C 758.549 -1.13002 1.6039 0
M  V30 7999 O 757.674 -1.87036 1.08842 0
M  V30 8000 C 758.269 0.603985 3.33373 0
M  V30 8001 C 756.828 0.271637 3.75419 0
M  V30 8002 C 755.975 0.872898 2.63203 0
M  V30 8003 H 758.926 0.921108 1.29233 0
M  V30 8004 H 758.947 -0.128471 3.80283 0
M  V30 8005 H 758.459 1.67141 3.50265 0
M  V30 8006 H 756.56 -0.790455 3.64119 0
M  V30 8007 H 756.673 0.745457 4.73265 0
M  V30 8008 H 755.037 0.300431 2.52922 0
M  V30 8009 H 755.82 1.94473 2.82905 0
M  V30 8010 N 758.265 -1.50454 0.469181 0
M  V30 8011 C 759.511 -2.02615 -0.0865971 0
M  V30 8012 C 759.844 -1.35062 -1.39542 0
M  V30 8013 O 759.119 -0.475701 -1.88593 0
M  V30 8014 C 759.402 -3.59068 -0.272385 0
M  V30 8015 C 759.255 -4.37196 1.05733 0
M  V30 8016 C 760.574 -4.2793 -1.0278 0
M  V30 8017 H 757.693 -0.736389 -0.0299977 0
M  V30 8018 H 760.335 -1.79792 0.614399 0
M  V30 8019 H 758.485 -3.78646 -0.869471 0
M  V30 8020 H 760.157 -4.29195 1.69084 0
M  V30 8021 H 758.4 -4.01013 1.65442 0
M  V30 8022 H 759.071 -5.44924 0.880997 0
M  V30 8023 H 761.547 -4.12816 -0.521718 0
M  V30 8024 H 760.423 -5.37214 -1.12659 0
M  V30 8025 H 760.684 -3.90968 -2.0639 0
M  V30 8026 N 759.743 -0.201713 -1.56304 0
M  V30 8027 C 760.971 0.440723 -2.02152 0
M  V30 8028 C 761.386 1.54735 -1.08179 0
M  V30 8029 O 760.743 1.82289 -0.0878196 0
M  V30 8030 C 760.794 0.990884 -3.47655 0
M  V30 8031 O 760.515 -0.0715937 -4.38041 0
M  V30 8032 C 762.016 1.70854 -4.09052 0
M  V30 8033 H 759.236 0.109987 -0.661924 0
M  V30 8034 H 761.78 -0.312358 -2.021 0
M  V30 8035 H 759.935 1.69432 -3.48384 0
M  V30 8036 H 760.349 0.338892 -5.23404 0
M  V30 8037 H 761.823 2.04572 -5.12693 0
M  V30 8038 H 762.3 2.61462 -3.52894 0
M  V30 8039 H 762.906 1.0508 -4.12114 0
M  V30 8040 N 761.222 1.57436 0.0718424 0
M  V30 8041 C 762.638 1.53792 0.426628 0
M  V30 8042 C 762.838 0.921887 1.79174 0
M  V30 8043 O 761.894 0.524374 2.46995 0
M  V30 8044 C 763.207 2.98443 0.367739 0
M  V30 8045 C 764.755 3.09778 0.447928 0
M  V30 8046 C 765.23 4.5608 0.418946 0
M  V30 8047 N 766.721 4.60716 0.479022 0
M  V30 8048 C 767.456 5.71397 0.47881 0
M  V30 8049 N 766.952 6.91443 0.433417 0
M  V30 8050 N 768.745 5.59639 0.525364 0
M  V30 8051 H 760.896 1.95848 -0.822033 0
M  V30 8052 H 763.159 0.896418 -0.308447 0
M  V30 8053 H 762.865 3.47072 -0.56865 0
M  V30 8054 H 762.739 3.58335 1.17795 0
M  V30 8055 H 765.126 2.61122 1.37474 0
M  V30 8056 H 765.207 2.52796 -0.390857 0
M  V30 8057 H 764.851 5.05393 -0.504016 0
M  V30 8058 H 764.781 5.10925 1.27526 0
M  V30 8059 H 767.272 3.74328 0.518355 0
M  V30 8060 H 767.585 7.71562 0.43718 0
M  V30 8061 H 765.93 6.93847 0.400106 0
M  V30 8062 H 769.121 4.64756 0.558519 0
M  V30 8063 H 769.294 6.45896 0.52173 0
M  V30 8064 N 762.7 -0.34323 1.53817 0
M  V30 8065 C 763.946 -1.08504 1.71332 0
M  V30 8066 C 764.279 -1.88294 0.475285 0
M  V30 8067 O 763.554 -1.87205 -0.527688 0
M  V30 8068 C 763.837 -2.02597 2.97702 0
M  V30 8069 C 763.69 -1.26268 4.31713 0
M  V30 8070 C 765.009 -3.0241 3.19744 0
M  V30 8071 H 762.128 -0.393072 0.623429 0
M  V30 8072 H 764.77 -0.363579 1.86489 0
M  V30 8073 H 762.92 -2.64118 2.8491 0
M  V30 8074 H 764.592 -0.673594 4.56356 0
M  V30 8075 H 762.835 -0.564696 4.30109 0
M  V30 8076 H 763.506 -1.95253 5.16314 0
M  V30 8077 H 765.982 -2.51004 3.31868 0
M  V30 8078 H 764.858 -3.65449 4.09558 0
M  V30 8079 H 765.119 -3.73806 2.36054 0
M  V30 8080 N 764.178 -1.45556 -0.604258 0
M  V30 8081 C 765.108 -1.57327 -1.72541 0
M  V30 8082 C 766.089 -0.424637 -1.64714 0
M  V30 8083 O 767.274 -0.648196 -1.83063 0
M  V30 8084 C 764.404 -1.54279 -3.11152 0
M  V30 8085 C 763.358 -2.67893 -3.33792 0
M  V30 8086 C 762.684 -2.499 -4.72709 0
M  V30 8087 C 763.984 -4.0988 -3.23722 0
M  V30 8088 H 765.678 -2.51175 -1.62947 0
M  V30 8089 H 763.224 -1.20884 -0.782504 0
M  V30 8090 H 765.177 -1.6111 -3.89386 0
M  V30 8091 H 763.901 -0.569627 -3.21594 0
M  V30 8092 H 762.56 -2.60495 -2.57949 0
M  V30 8093 H 762.208 -1.50715 -4.79889 0
M  V30 8094 H 761.908 -3.26091 -4.88813 0
M  V30 8095 H 763.432 -2.5859 -5.5314 0
M  V30 8096 H 764.846 -4.18503 -3.91826 0
M  V30 8097 H 763.243 -4.86487 -3.51355 0
M  V30 8098 H 764.313 -4.31553 -2.21111 0
M  V30 8099 N 765.656 0.84705 -1.32902 0
M  V30 8100 C 766.933 1.58583 -1.14503 0
M  V30 8101 C 767.313 2.09075 0.291724 0
M  V30 8102 O 766.661 1.88636 1.28952 0
M  V30 8103 C 766.871 2.72605 -2.17916 0
M  V30 8104 C 768.219 3.41993 -2.51646 0
M  V30 8105 O 769.243 2.82838 -2.1652 0
M  V30 8106 O 768.102 4.48761 -3.1189 0
M  V30 8107 H 765.196 0.698756 -0.442345 0
M  V30 8108 H 767.742 0.890516 -1.44457 0
M  V30 8109 H 766.514 2.32876 -3.14459 0
M  V30 8110 H 766.137 3.49807 -1.89 0
M  V30 8111 N 767.134 1.16236 1.06428 0
M  V30 8112 C 768.411 0.853294 1.76006 0
M  V30 8113 C 768.791 -0.649162 2.00871 0
M  V30 8114 O 768.139 -1.59653 1.63472 0
M  V30 8115 C 768.349 1.67448 3.06206 0
M  V30 8116 C 769.697 1.8866 3.80385 0
M  V30 8117 O 770.721 1.64303 3.16043 0
M  V30 8118 O 769.58 2.29518 4.95968 0
M  V30 8119 H 766.674 0.314737 0.764767 0
M  V30 8120 H 769.22 1.26865 1.12709 0
M  V30 8121 H 767.992 2.69411 2.83784 0
M  V30 8122 H 767.615 1.25608 3.77238 0
M  V30 8123 N 768.612 -1.24939 0.960631 0
M  V30 8124 C 769.86 -1.92437 0.617441 0
M  V30 8125 C 770.181 -1.75543 -0.849101 0
M  V30 8126 O 769.451 -1.12269 -1.60538 0
M  V30 8127 H 768.031 -0.712192 0.225371 0
M  V30 8128 H 770.693 -1.5198 1.22017 0
M  V30 8129 H 769.789 -3.00247 0.851933 0
M  V30 8130 N 770.09 -0.729906 -1.39679 0
M  V30 8131 C 771 -0.0880322 -2.34435 0
M  V30 8132 C 772.016 0.727674 -1.58053 0
M  V30 8133 O 773.192 0.657321 -1.90371 0
M  V30 8134 C 770.257 0.812211 -3.37052 0
M  V30 8135 C 769.318 -0.0151681 -4.29297 0
M  V30 8136 C 768.551 0.842202 -5.27013 0
M  V30 8137 O 768.774 2.08108 -5.31081 0
M  V30 8138 O 767.708 0.27357 -6.01278 0
M  V30 8139 H 771.534 -0.869989 -2.90972 0
M  V30 8140 H 769.119 -0.490522 -1.41118 0
M  V30 8141 H 771.001 1.32745 -3.99946 0
M  V30 8142 H 769.676 1.57307 -2.82907 0
M  V30 8143 H 768.583 -0.575811 -3.69642 0
M  V30 8144 H 769.916 -0.738129 -4.86634 0
M  V30 8145 N 771.568 1.50203 -0.477153 0
M  V30 8146 C 772.498 2.31517 0.303646 0
M  V30 8147 C 773.479 1.38696 0.984753 0
M  V30 8148 O 774.664 1.67615 0.980758 0
M  V30 8149 C 771.794 3.18598 1.38249 0
M  V30 8150 C 770.748 4.2002 0.822645 0
M  V30 8151 C 770.074 4.95878 2.00024 0
M  V30 8152 C 771.374 5.22023 -0.170185 0
M  V30 8153 H 773.068 2.97042 -0.375027 0
M  V30 8154 H 770.614 1.42848 -0.181802 0
M  V30 8155 H 772.567 3.74282 1.93625 0
M  V30 8156 H 771.291 2.5097 2.09002 0
M  V30 8157 H 769.95 3.65445 0.290813 0
M  V30 8158 H 769.598 4.24717 2.69489 0
M  V30 8159 H 769.298 5.64487 1.63183 0
M  V30 8160 H 770.822 5.54399 2.55878 0
M  V30 8161 H 772.236 5.72543 0.294606 0
M  V30 8162 H 770.633 5.98386 -0.453181 0
M  V30 8163 H 771.703 4.72396 -1.09408 0
M  V30 8164 N 773.046 0.209999 1.56195 0
M  V30 8165 C 773.976 -0.699746 2.22769 0
M  V30 8166 C 774.957 -1.20993 1.1956 0
M  V30 8167 O 776.142 -1.25605 1.48112 0
M  V30 8168 C 773.272 -1.91302 2.89863 0
M  V30 8169 C 772.226 -1.53715 3.99444 0
M  V30 8170 C 771.552 -2.82826 4.53777 0
M  V30 8171 C 772.852 -0.735836 5.17091 0
M  V30 8172 H 774.546 -0.144716 2.9905 0
M  V30 8173 H 772.092 -0.0681645 1.43839 0
M  V30 8174 H 774.045 -2.5548 3.35124 0
M  V30 8175 H 772.769 -2.49283 2.11011 0
M  V30 8176 H 771.428 -0.918892 3.54897 0
M  V30 8177 H 771.076 -3.38927 3.71669 0
M  V30 8178 H 770.776 -2.58415 5.27727 0
M  V30 8179 H 772.3 -3.47966 5.01749 0
M  V30 8180 H 773.714 -1.28105 5.58804 0
M  V30 8181 H 772.111 -0.589272 5.972 0
M  V30 8182 H 773.181 0.260004 4.84202 0
M  V30 8183 N 774.524 -1.57472 -0.0634922 0
M  V30 8184 C 775.77 -1.87932 -0.762194 0
M  V30 8185 C 776.103 -0.803377 -1.76804 0
M  V30 8186 O 775.378 0.185468 -1.93614 0
M  V30 8187 C 775.661 -3.29053 -1.46275 0
M  V30 8188 C 775.514 -4.47309 -0.472755 0
M  V30 8189 C 776.833 -3.68537 -2.40558 0
M  V30 8190 H 773.952 -0.683521 -0.275624 0
M  V30 8191 H 776.594 -1.89983 -0.0252651 0
M  V30 8192 H 774.744 -3.27435 -2.0909 0
M  V30 8193 H 776.416 -4.61053 0.150828 0
M  V30 8194 H 774.659 -4.33286 0.211187 0
M  V30 8195 H 775.33 -5.42853 -1.00072 0
M  V30 8196 H 777.806 -3.71302 -1.87814 0
M  V30 8197 H 776.682 -4.68152 -2.86574 0
M  V30 8198 H 776.943 -2.98917 -3.25731 0
M  V30 8199 N 776.003 0.335068 -1.53997 0
M  V30 8200 C 776.935 1.4327 -1.78903 0
M  V30 8201 C 777.948 1.48347 -0.670598 0
M  V30 8202 O 779.137 1.51277 -0.947494 0
M  V30 8203 C 776.237 2.81878 -1.88144 0
M  V30 8204 C 775.41 3.00141 -3.18174 0
M  V30 8205 C 774.469 4.19041 -3.18263 0
M  V30 8206 O 773.495 4.12751 -3.9195 0
M  V30 8207 N 774.697 5.28004 -2.41231 0
M  V30 8208 H 777.462 1.22272 -2.73623 0
M  V30 8209 H 775.023 0.524996 -1.53152 0
M  V30 8210 H 777.015 3.59609 -1.85644 0
M  V30 8211 H 775.585 2.9598 -1.00572 0
M  V30 8212 H 774.805 2.09808 -3.33728 0
M  V30 8213 H 776.093 3.0923 -4.04047 0
M  V30 8214 H 775.491 5.35986 -1.8093 0
M  V30 8215 H 774.048 6.04196 -2.44521 0
M  V30 8216 N 777.481 1.45874 0.596531 0
M  V30 8217 C 778.413 1.51408 1.7207 0
M  V30 8218 C 779.426 0.403738 1.57714 0
M  V30 8219 O 780.615 0.671384 1.65393 0
M  V30 8220 C 777.715 1.3652 3.10186 0
M  V30 8221 C 776.888 2.61428 3.50677 0
M  V30 8222 C 775.947 2.40937 4.67799 0
M  V30 8223 O 774.973 3.14602 4.74357 0
M  V30 8224 N 776.175 1.4621 5.61785 0
M  V30 8225 H 778.94 2.48333 1.67782 0
M  V30 8226 H 776.501 1.41755 0.782129 0
M  V30 8227 H 778.493 1.20606 3.86311 0
M  V30 8228 H 777.063 0.478302 3.08919 0
M  V30 8229 H 776.283 2.92381 2.644 0
M  V30 8230 H 777.571 3.44432 3.74491 0
M  V30 8231 H 776.969 0.854382 5.59211 0
M  V30 8232 H 775.526 1.36264 6.37397 0
M  V30 8233 N 778.959 -0.83999 1.33349 0
M  V30 8234 C 780.187 -1.62728 1.27778 0
M  V30 8235 C 780.602 -1.88191 -0.151505 0
M  V30 8236 O 779.959 -1.46128 -1.09329 0
M  V30 8237 C 780.01 -2.97813 2.04913 0
M  V30 8238 O 779.731 -2.73469 3.42266 0
M  V30 8239 C 781.232 -3.92245 2.0654 0
M  V30 8240 H 778.452 -0.506374 0.440257 0
M  V30 8241 H 780.996 -1.04637 1.75703 0
M  V30 8242 H 779.151 -3.52509 1.60674 0
M  V30 8243 H 779.565 -3.59483 3.81932 0
M  V30 8244 H 781.039 -4.84249 2.64966 0
M  V30 8245 H 781.516 -4.26332 1.05537 0
M  V30 8246 H 782.122 -3.43487 2.50793 0
M  V30 8247 N 780.437 -1.16799 -1.0581 0
M  V30 8248 C 781.384 -0.87902 -2.13405 0
M  V30 8249 C 782.354 0.174541 -1.6518 0
M  V30 8250 O 783.539 0.0386843 -1.90761 0
M  V30 8251 C 780.679 -0.391616 -3.42871 0
M  V30 8252 C 779.792 -1.50857 -4.04804 0
M  V30 8253 C 778.927 -0.975682 -5.22163 0
M  V30 8254 C 777.966 -2.06851 -5.76089 0
M  V30 8255 N 777.103 -1.55085 -6.84758 0
M  V30 8256 H 781.943 -1.80043 -2.37463 0
M  V30 8257 H 779.48 -0.898083 -1.16503 0
M  V30 8258 H 781.438 -0.0906247 -4.17102 0
M  V30 8259 H 780.068 0.49284 -3.19016 0
M  V30 8260 H 779.12 -1.92542 -3.28073 0
M  V30 8261 H 780.432 -2.33305 -4.40874 0
M  V30 8262 H 779.586 -0.628165 -6.03439 0
M  V30 8263 H 778.325 -0.120566 -4.87551 0
M  V30 8264 H 777.33 -2.42467 -4.93447 0
M  V30 8265 H 778.555 -2.92768 -6.12751 0
M  V30 8266 H 776.501 -0.718345 -6.52055 0
M  V30 8267 H 776.418 -2.31145 -7.19797 0
M  V30 8268 H 777.686 -1.23206 -7.69702 0
M  V30 8269 N 781.915 1.24427 -0.967243 0
M  V30 8270 C 782.863 2.27403 -0.488927 0
M  V30 8271 C 783.857 1.63388 0.447302 0
M  V30 8272 O 785.063 1.77085 0.322643 0
M  V30 8273 H 781.438 0.738921 -0.139643 0
M  V30 8274 H 783.409 2.65122 -1.36942 0
M  V30 8275 C 782.158 3.4709 0.205787 0
M  V30 8276 H 781.481 3.96591 -0.50551 0
M  V30 8277 H 782.921 4.2099 0.504296 0
M  V30 8278 C 781.38 3.04923 1.43261 0
M  V30 8279 O 781.91 3.12043 2.52967 0
M  V30 8280 N 780.116 2.59976 1.29849 0
M  V30 8281 H 779.663 2.54382 0.405876 0
M  V30 8282 H 779.621 2.32128 2.12047 0
M  V30 8283 N 783.393 0.737304 1.3929 0
M  V30 8284 C 784.618 0.295237 2.05288 0
M  V30 8285 C 785.043 -1.06235 1.55228 0
M  V30 8286 O 784.401 -1.67365 0.697043 0
M  V30 8287 C 784.449 0.309146 3.59272 0
M  V30 8288 O 783.553 -0.702437 4.06374 0
M  V30 8289 H 782.894 0.133762 0.650387 0
M  V30 8290 H 785.424 1.00387 1.78279 0
M  V30 8291 H 785.434 0.154336 4.07708 0
M  V30 8292 H 784.109 1.29974 3.95069 0
M  V30 8293 H 782.686 -0.513574 3.69346 0
M  V30 8294 N 784.871 -1.49948 0.485112 0
M  V30 8295 C 786.148 -1.95186 -0.12726 0
M  V30 8296 C 786.528 -1.42605 -1.5565 0
M  V30 8297 O 785.876 -0.632986 -2.19558 0
M  V30 8298 C 786.086 -3.48955 -0.0562117 0
M  V30 8299 C 787.434 -4.23932 -0.238106 0
M  V30 8300 O 788.458 -3.55955 -0.132145 0
M  V30 8301 O 787.317 -5.44614 -0.453658 0
M  V30 8302 H 784.411 -0.820433 -0.104014 0
M  V30 8303 H 786.957 -1.60659 0.546517 0
M  V30 8304 H 785.729 -3.79814 0.941122 0
M  V30 8305 H 785.352 -3.90056 -0.770834 0
M  V30 8306 N 786.349 -0.21828 -1.56081 0
M  V30 8307 C 787.765 0.137168 -1.59009 0
M  V30 8308 C 787.965 1.59215 -1.23503 0
M  V30 8309 O 787.021 2.33178 -0.968716 0
M  V30 8310 C 788.334 -0.186162 -3.00123 0
M  V30 8311 C 789.882 -0.128135 -3.12738 0
M  V30 8312 C 790.357 -0.425094 -4.56023 0
M  V30 8313 N 791.848 -0.374547 -4.61683 0
M  V30 8314 C 792.583 -0.57786 -5.70481 0
M  V30 8315 N 792.079 -0.842771 -6.87655 0
M  V30 8316 N 793.872 -0.510521 -5.59777 0
M  V30 8317 H 786.023 -1.16746 -1.77437 0
M  V30 8318 H 788.286 -0.467706 -0.824594 0
M  V30 8319 H 787.992 -1.19589 -3.30744 0
M  V30 8320 H 787.866 0.500388 -3.73866 0
M  V30 8321 H 790.253 0.872224 -2.81915 0
M  V30 8322 H 790.334 -0.848112 -2.41331 0
M  V30 8323 H 789.978 -1.42288 -4.87562 0
M  V30 8324 H 789.908 0.316038 -5.25651 0
M  V30 8325 H 792.399 -0.177356 -3.77484 0
M  V30 8326 H 792.712 -0.986095 -7.66483 0
M  V30 8327 H 791.057 -0.879929 -6.89407 0
M  V30 8328 H 794.248 -0.303813 -4.67113 0
M  V30 8329 H 794.421 -0.672378 -6.44502 0
M  V30 8330 N 787.827 1.57504 0.0551401 0
M  V30 8331 C 789.055 1.92294 0.76358 0
M  V30 8332 C 789.47 0.815774 1.70266 0
M  V30 8333 O 788.827 -0.209772 1.8129 0
M  V30 8334 C 788.878 3.26914 1.54302 0
M  V30 8335 O 788.599 4.33375 0.641666 0
M  V30 8336 C 790.1 3.75825 2.35097 0
M  V30 8337 H 787.32 0.635229 0.216159 0
M  V30 8338 H 789.864 2.0449 0.0204385 0
M  V30 8339 H 788.019 3.16196 2.23828 0
M  V30 8340 H 788.433 5.10927 1.1855 0
M  V30 8341 H 789.907 4.72603 2.8522 0
M  V30 8342 H 790.384 3.0568 3.15367 0
M  V30 8343 H 790.99 3.89542 1.70696 0
M  V30 8344 N 789.305 -0.326896 1.54172 0
M  V30 8345 C 790.716 -0.901533 1.63491 0
M  V30 8346 C 791.067 -1.88994 0.52684 0
M  V30 8347 O 790.192 -2.137 -0.340794 0
M  V30 8348 C 790.787 -1.64192 2.96355 0
M  V30 8349 C 789.346 -2.16533 3.07881 0
M  V30 8350 C 788.493 -0.98966 2.59039 0
M  V30 8351 H 791.444 -0.104568 1.58355 0
M  V30 8352 H 791.465 -2.50592 2.86328 0
M  V30 8353 H 790.977 -0.922291 3.76982 0
M  V30 8354 H 789.078 -2.91622 2.31922 0
M  V30 8355 H 789.191 -2.41762 4.13628 0
M  V30 8356 H 787.555 -1.36787 2.14852 0
M  V30 8357 H 788.338 -0.284401 3.4212 0
M  V30 8358 N 790.784 -1.46188 -0.588786 0
M  V30 8359 C 791.714 -1.59148 -1.70863 0
M  V30 8360 C 792.695 -0.442083 -1.64255 0
M  V30 8361 O 793.88 -0.667575 -1.82365 0
M  V30 8362 C 791.01 -1.5757 -3.09498 0
M  V30 8363 C 789.964 -2.71418 -3.30932 0
M  V30 8364 C 789.29 -2.549 -4.70032 0
M  V30 8365 C 790.59 -4.1329 -3.19356 0
M  V30 8366 H 792.284 -2.52889 -1.60274 0
M  V30 8367 H 789.83 -1.21707 -0.769638 0
M  V30 8368 H 791.783 -1.65231 -3.87655 0
M  V30 8369 H 790.507 -0.603705 -3.20972 0
M  V30 8370 H 789.166 -2.63216 -2.55172 0
M  V30 8371 H 788.814 -1.55797 -4.78264 0
M  V30 8372 H 788.514 -3.31257 -4.85327 0
M  V30 8373 H 790.038 -2.64443 -5.50366 0
M  V30 8374 H 791.452 -4.22636 -3.87365 0
M  V30 8375 H 789.849 -4.90187 -3.46175 0
M  V30 8376 H 790.919 -4.33874 -2.16522 0
M  V30 8377 N 792.262 0.832906 -1.33792 0
M  V30 8378 C 793.508 1.59089 -1.25772 0
M  V30 8379 C 793.841 1.93414 0.174601 0
M  V30 8380 O 793.116 1.59195 1.11746 0
M  V30 8381 C 793.399 2.89699 -2.13885 0
M  V30 8382 C 793.252 2.62017 -3.65605 0
M  V30 8383 C 794.571 3.91182 -2.01654 0
M  V30 8384 H 791.69 0.577232 -0.458227 0
M  V30 8385 H 794.332 0.960227 -1.6395 0
M  V30 8386 H 792.482 3.4352 -1.81456 0
M  V30 8387 H 794.154 2.14582 -4.08353 0
M  V30 8388 H 792.397 1.95621 -3.87189 0
M  V30 8389 H 793.068 3.55112 -4.2261 0
M  V30 8390 H 795.544 3.46684 -2.30107 0
M  V30 8391 H 794.42 4.80391 -2.65548 0
M  V30 8392 H 794.681 4.30861 -0.990536 0
M  V30 8393 N 793.74 1.17359 1.05189 0
M  V30 8394 C 794.965 0.98709 1.82404 0
M  V30 8395 C 795.39 -0.459848 1.82392 0
M  V30 8396 O 794.748 -1.32924 1.23292 0
M  V30 8397 C 794.796 1.53276 3.26403 0
M  V30 8398 O 793.9 0.746541 4.05587 0
M  V30 8399 H 793.241 0.35047 0.563974 0
M  V30 8400 H 795.771 1.55856 1.32552 0
M  V30 8401 H 795.781 1.55504 3.77203 0
M  V30 8402 H 794.456 2.58603 3.25726 0
M  V30 8403 H 793.033 0.795671 3.64312 0
M  V30 8404 N 795.218 -1.23913 0.973828 0
M  V30 8405 C 796.464 -1.92436 0.640026 0
M  V30 8406 C 796.797 -1.75875 -0.823512 0
M  V30 8407 O 796.072 -1.11563 -1.59323 0
M  V30 8408 C 796.355 -3.4526 1.0231 0
M  V30 8409 C 796.208 -3.70961 2.54378 0
M  V30 8410 C 797.527 -4.36495 0.562155 0
M  V30 8411 H 794.646 -0.698868 0.233992 0
M  V30 8412 H 797.288 -1.46163 1.21393 0
M  V30 8413 H 795.438 -3.84802 0.534751 0
M  V30 8414 H 797.11 -3.40941 3.10737 0
M  V30 8415 H 795.353 -3.15899 2.97305 0
M  V30 8416 H 796.024 -4.77912 2.76232 0
M  V30 8417 H 798.5 -4.04363 0.981333 0
M  V30 8418 H 797.376 -5.42142 0.858689 0
M  V30 8419 H 797.637 -4.38818 -0.537659 0
M  V30 8420 N 796.696 -0.74468 -1.38897 0
M  V30 8421 C 797.626 -0.126355 -2.33158 0
M  V30 8422 C 798.607 0.713517 -1.54412 0
M  V30 8423 O 799.792 0.656523 -1.82766 0
M  V30 8424 C 796.922 0.774375 -3.38557 0
M  V30 8425 C 795.876 0.0379214 -4.27983 0
M  V30 8426 C 795.202 1.05631 -5.24162 0
M  V30 8427 C 796.502 -1.12523 -5.10035 0
M  V30 8428 H 798.196 -0.913744 -2.85116 0
M  V30 8429 H 795.742 -0.440847 -1.37086 0
M  V30 8430 H 797.695 1.21655 -4.03458 0
M  V30 8431 H 796.419 1.59399 -2.85061 0
M  V30 8432 H 795.078 -0.384733 -3.64576 0
M  V30 8433 H 794.726 1.86975 -4.66958 0
M  V30 8434 H 794.426 0.568261 -5.84846 0
M  V30 8435 H 795.95 1.49799 -5.9194 0
M  V30 8436 H 797.364 -0.761037 -5.68226 0
M  V30 8437 H 795.761 -1.54355 -5.79909 0
M  V30 8438 H 796.831 -1.94237 -4.44297 0
M  V30 8439 N 798.174 1.49689 -0.493057 0
M  V30 8440 C 799.104 2.31826 0.279073 0
M  V30 8441 C 800.085 1.39733 0.969987 0
M  V30 8442 O 801.27 1.68646 0.962925 0
M  V30 8443 C 798.4 3.20046 1.34862 0
M  V30 8444 C 797.354 4.20869 0.77805 0
M  V30 8445 C 796.68 4.97971 1.94753 0
M  V30 8446 C 797.98 5.21813 -0.225543 0
M  V30 8447 H 799.674 2.96627 -0.406512 0
M  V30 8448 H 797.22 1.42647 -0.196943 0
M  V30 8449 H 799.173 3.76315 1.89645 0
M  V30 8450 H 797.897 2.53172 2.06328 0
M  V30 8451 H 796.556 3.65733 0.252036 0
M  V30 8452 H 796.204 4.27552 2.64969 0
M  V30 8453 H 795.904 5.66186 1.57187 0
M  V30 8454 H 797.428 5.57082 2.49984 0
M  V30 8455 H 798.842 5.72823 0.233864 0
M  V30 8456 H 797.239 5.97872 -0.516622 0
M  V30 8457 H 798.309 4.71209 -1.14412 0
M  V30 8458 N 799.652 0.226554 1.55963 0
M  V30 8459 C 800.562 -0.692725 2.24139 0
M  V30 8460 C 801.578 -1.20971 1.25068 0
M  V30 8461 O 802.754 -1.25027 1.57893 0
M  V30 8462 C 799.819 -1.88183 2.91184 0
M  V30 8463 C 798.88 -1.40633 4.05612 0
M  V30 8464 C 798.113 -2.53875 4.6945 0
M  V30 8465 O 798.336 -3.72129 4.32292 0
M  V30 8466 O 797.27 -2.24792 5.58348 0
M  V30 8467 H 801.096 -0.141921 3.03368 0
M  V30 8468 H 798.681 -0.0041049 1.49399 0
M  V30 8469 H 800.563 -2.57617 3.33484 0
M  V30 8470 H 799.238 -2.42064 2.14911 0
M  V30 8471 H 798.145 -0.67986 3.67871 0
M  V30 8472 H 799.478 -0.913838 4.83642 0
M  V30 8473 N 801.13 -1.57531 -0.0467866 0
M  V30 8474 C 802.378 -1.88078 -0.739656 0
M  V30 8475 C 802.699 -0.821936 -1.76831 0
M  V30 8476 O 801.969 0.146582 -1.95351 0
M  V30 8477 H 800.549 -0.694075 -0.276169 0
M  V30 8478 H 803.211 -1.94893 -0.0169391 0
M  V30 8479 H 802.307 -2.86396 -1.24031 0
M  V30 8480 N 802.608 0.318715 -1.54344 0
M  V30 8481 C 804.019 0.89285 -1.63967 0
M  V30 8482 C 804.37 1.88712 -0.536855 0
M  V30 8483 O 803.495 2.13877 0.329457 0
M  V30 8484 C 804.09 1.62618 -2.97222 0
M  V30 8485 C 802.649 2.14897 -3.09025 0
M  V30 8486 C 801.796 0.975909 -2.5956 0
M  V30 8487 H 804.747 0.0961687 -1.58408 0
M  V30 8488 H 804.768 2.4907 -2.87653 0
M  V30 8489 H 804.28 0.902286 -3.77466 0
M  V30 8490 H 802.381 2.90387 -2.33465 0
M  V30 8491 H 802.494 2.39565 -4.14904 0
M  V30 8492 H 800.858 1.35646 -2.15574 0
M  V30 8493 H 801.641 0.266253 -3.42266 0
M  V30 8494 N 804.086 1.46499 0.581025 0
M  V30 8495 C 805.497 1.4604 1.16315 0
M  V30 8496 C 805.848 0.202154 1.95156 0
M  V30 8497 O 804.973 -0.694638 2.04948 0
M  V30 8498 C 805.568 2.64593 2.11604 0
M  V30 8499 C 804.127 2.6717 2.65136 0
M  V30 8500 C 803.274 2.38753 1.4104 0
M  V30 8501 H 806.225 1.54354 0.368871 0
M  V30 8502 H 806.246 2.40207 2.95095 0
M  V30 8503 H 805.758 3.56154 1.54194 0
M  V30 8504 H 803.859 1.79685 3.26411 0
M  V30 8505 H 803.972 3.67182 3.07757 0
M  V30 8506 H 802.336 1.88845 1.70908 0
M  V30 8507 H 803.119 3.32493 0.854588 0
M  V30 8508 N 805.565 -0.825799 1.34232 0
M  V30 8509 C 806.515 -1.92533 1.22128 0
M  V30 8510 C 807.499 -1.60444 0.121002 0
M  V30 8511 O 808.691 -1.73497 0.350385 0
M  V30 8512 C 805.82 -3.29134 0.975995 0
M  V30 8513 C 804.906 -3.6735 2.11931 0
M  V30 8514 N 805.297 -3.77154 3.37029 0
M  V30 8515 C 803.595 -3.97179 2.02891 0
M  V30 8516 C 804.296 -4.10552 4.12095 0
M  V30 8517 N 803.272 -4.23619 3.40658 0
M  V30 8518 H 807.074 -1.98287 2.16932 0
M  V30 8519 H 804.588 -1.01929 1.26429 0
M  V30 8520 H 806.585 -4.07717 0.870187 0
M  V30 8521 H 805.245 -3.24679 0.036606 0
M  V30 8522 H 806.256 -3.60723 3.71618 0
M  V30 8523 H 802.933 -4.00861 1.16692 0
M  V30 8524 H 804.323 -4.25365 5.2011 0
M  V30 8525 N 807.043 -1.17915 -1.04565 0
M  V30 8526 C 808.268 -0.996749 -1.81878 0
M  V30 8527 C 808.693 0.450169 -1.82634 0
M  V30 8528 O 808.051 1.32268 -1.23995 0
M  V30 8529 C 808.099 -1.55005 -3.25585 0
M  V30 8530 O 807.203 -0.76804 -4.05185 0
M  V30 8531 H 806.544 -0.353456 -0.562108 0
M  V30 8532 H 809.074 -1.56557 -1.31723 0
M  V30 8533 H 809.084 -1.57503 -3.76373 0
M  V30 8534 H 807.759 -2.60327 -3.2435 0
M  V30 8535 H 806.336 -0.81498 -3.63885 0
M  V30 8536 N 808.521 1.23394 -0.980386 0
M  V30 8537 C 809.769 1.91431 -0.647978 0
M  V30 8538 C 810.09 1.76871 0.821066 0
M  V30 8539 O 809.36 1.14808 1.58732 0
M  V30 8540 H 807.94 0.708516 -0.236673 0
M  V30 8541 H 810.602 1.50019 -1.2442 0
M  V30 8542 H 809.698 2.98854 -0.899592 0
M  V30 8543 N 809.999 0.752036 1.385 0
M  V30 8544 C 810.946 0.123288 2.3047 0
M  V30 8545 C 811.916 -0.711326 1.50098 0
M  V30 8546 O 813.101 -0.667775 1.78733 0
M  V30 8547 C 810.241 -0.765085 3.36512 0
M  V30 8548 C 809.354 0.0839885 4.31918 0
M  V30 8549 C 808.489 -0.807243 5.25031 0
M  V30 8550 C 807.528 0.0455583 6.12083 0
M  V30 8551 N 806.665 -0.802547 6.97498 0
M  V30 8552 H 811.505 0.913169 2.83664 0
M  V30 8553 H 809.042 0.46195 1.39658 0
M  V30 8554 H 811 -1.29476 3.966 0
M  V30 8555 H 809.63 -1.52077 2.84732 0
M  V30 8556 H 808.682 0.731276 3.73305 0
M  V30 8557 H 809.994 0.74265 4.9324 0
M  V30 8558 H 809.148 -1.40414 5.90228 0
M  V30 8559 H 807.887 -1.49964 4.64071 0
M  V30 8560 H 806.892 0.655137 5.45883 0
M  V30 8561 H 808.117 0.734994 6.75111 0
M  V30 8562 H 806.063 -1.47992 6.39089 0
M  V30 8563 H 805.98 -0.200747 7.55733 0
M  V30 8564 H 807.248 -1.38447 7.67107 0
M  V30 8565 N 811.477 -1.49425 0.500989 0
M  V30 8566 C 812.705 -2.06861 -0.0403443 0
M  V30 8567 C 813.12 -1.36132 -1.30819 0
M  V30 8568 O 812.477 -0.439647 -1.77125 0
M  V30 8569 C 812.528 -3.6027 -0.297902 0
M  V30 8570 O 812.249 -4.28338 0.919686 0
M  V30 8571 C 813.75 -4.34419 -0.882876 0
M  V30 8572 H 810.97 -0.670688 0.0204619 0
M  V30 8573 H 813.514 -1.92207 0.698342 0
M  V30 8574 H 811.669 -3.74627 -0.98657 0
M  V30 8575 H 812.083 -5.2004 0.682528 0
M  V30 8576 H 813.557 -5.42631 -1.01268 0
M  V30 8577 H 814.034 -3.96898 -1.88066 0
M  V30 8578 H 814.64 -4.24669 -0.231677 0
M  V30 8579 N 812.955 -0.234822 -1.55841 0
M  V30 8580 C 813.918 0.656378 -2.196 0
M  V30 8581 C 814.918 1.11179 -1.16171 0
M  V30 8582 O 816.108 1.01845 -1.41326 0
M  V30 8583 C 813.24 1.90072 -2.82993 0
M  V30 8584 H 814.433 0.100281 -2.99732 0
M  V30 8585 H 811.986 0.0147613 -1.56293 0
M  V30 8586 H 812.721 2.49836 -2.06767 0
M  V30 8587 H 812.506 1.5825 -3.58747 0
M  V30 8588 H 813.996 2.53538 -3.31826 0
M  V30 8589 N 814.433 1.57553 0.0384317 0
M  V30 8590 C 815.363 2.0898 1.04161 0
M  V30 8591 C 816.344 0.99029 1.38301 0
M  V30 8592 O 817.529 1.26499 1.47349 0
M  V30 8593 C 814.659 2.56145 2.34536 0
M  V30 8594 C 813.613 3.70275 2.14663 0
M  V30 8595 C 812.939 4.03612 3.50715 0
M  V30 8596 C 814.239 4.99067 1.54045 0
M  V30 8597 H 815.933 2.93046 0.613548 0
M  V30 8598 H 813.479 1.40973 0.293684 0
M  V30 8599 H 815.432 2.90741 3.05037 0
M  V30 8600 H 814.156 1.6915 2.79385 0
M  V30 8601 H 812.815 3.36013 1.46597 0
M  V30 8602 H 812.463 3.13698 3.93195 0
M  V30 8603 H 812.163 4.80482 3.38247 0
M  V30 8604 H 813.687 4.40735 4.22593 0
M  V30 8605 H 815.101 5.3168 2.14451 0
M  V30 8606 H 813.498 5.80484 1.52178 0
M  V30 8607 H 814.568 4.8226 0.505259 0
M  V30 8608 N 815.911 -0.310526 1.54511 0
M  V30 8609 C 816.874 -1.3657 1.84068 0
M  V30 8610 C 817.874 -1.44123 0.713097 0
M  V30 8611 O 819.064 -1.43924 0.981399 0
M  V30 8612 C 816.196 -2.75162 2.01243 0
M  V30 8613 H 817.389 -1.1161 2.78358 0
M  V30 8614 H 814.942 -0.546699 1.46427 0
M  V30 8615 H 815.677 -3.05359 1.09208 0
M  V30 8616 H 815.462 -2.71071 2.83307 0
M  V30 8617 H 816.952 -3.51473 2.25514 0
M  V30 8618 N 817.389 -1.46805 -0.573248 0
M  V30 8619 C 818.352 -1.57655 -1.66366 0
M  V30 8620 C 819.352 -0.452905 -1.5429 0
M  V30 8621 O 820.542 -0.717502 -1.58737 0
M  V30 8622 C 817.674 -1.50584 -3.05839 0
M  V30 8623 H 818.867 -2.54842 -1.581 0
M  V30 8624 H 816.42 -1.34756 -0.791868 0
M  V30 8625 H 817.155 -0.547127 -3.19651 0
M  V30 8626 H 816.94 -2.32118 -3.16012 0
M  V30 8627 H 818.43 -1.61282 -3.85199 0
M  V30 8628 N 818.867 0.818669 -1.34668 0
M  V30 8629 C 819.814 1.92983 -1.26595 0
M  V30 8630 C 820.784 1.65506 -0.140315 0
M  V30 8631 O 821.969 1.88063 -0.322005 0
M  V30 8632 C 819.109 3.2932 -1.03163 0
M  V30 8633 C 818.222 3.69061 -2.24539 0
M  V30 8634 C 817.357 4.94368 -1.94355 0
M  V30 8635 C 816.396 5.26702 -3.11851 0
M  V30 8636 N 815.533 6.43187 -2.81522 0
M  V30 8637 H 820.373 1.99219 -2.2162 0
M  V30 8638 H 817.91 0.974612 -1.1018 0
M  V30 8639 H 819.868 4.07897 -0.87613 0
M  V30 8640 H 818.498 3.22584 -0.118045 0
M  V30 8641 H 817.55 2.85842 -2.50995 0
M  V30 8642 H 818.862 3.88924 -3.12313 0
M  V30 8643 H 818.016 5.80742 -1.75566 0
M  V30 8644 H 816.755 4.76515 -1.03848 0
M  V30 8645 H 815.76 4.38823 -3.31231 0
M  V30 8646 H 816.985 5.46492 -4.03142 0
M  V30 8647 H 814.931 6.26783 -1.93596 0
M  V30 8648 H 814.848 6.63243 -3.62829 0
M  V30 8649 H 816.116 7.32621 -2.66247 0
M  V30 8650 N 820.346 1.18468 1.03938 0
M  V30 8651 C 821.595 0.975193 1.76558 0
M  V30 8652 C 821.908 -0.495978 1.89207 0
M  V30 8653 O 823.114 -0.824009 2.58694 0
M  V30 8654 C 821.57 1.69579 3.17444 0
M  V30 8655 C 821.178 3.20636 3.12884 0
M  V30 8656 C 822.922 1.56917 3.94433 0
M  V30 8657 C 820.829 3.8533 4.48636 0
M  V30 8658 H 819.759 0.361244 0.66183 0
M  V30 8659 H 822.41 1.41854 1.16403 0
M  V30 8660 H 820.792 1.18022 3.78004 0
M  V30 8661 H 821.966 3.79228 2.61768 0
M  V30 8662 H 820.281 3.33454 2.49394 0
M  V30 8663 H 822.878 2.02611 4.94826 0
M  V30 8664 H 823.221 0.521638 4.13019 0
M  V30 8665 H 823.754 2.05762 3.40451 0
M  V30 8666 H 820.493 4.90136 4.35255 0
M  V30 8667 H 820.013 3.31526 4.99851 0
M  V30 8668 H 821.692 3.88269 5.17549 0
M  V30 8669 N 821.824 -1.22873 0.986916 0
M  V30 8670 C 822.787 -2.2281 0.537442 0
M  V30 8671 C 823.787 -1.56331 -0.37646 0
M  V30 8672 O 824.977 -1.73376 -0.169247 0
M  V30 8673 C 822.109 -3.40195 -0.219082 0
M  V30 8674 H 823.302 -2.64089 1.42116 0
M  V30 8675 H 820.855 -1.35819 0.773488 0
M  V30 8676 H 821.59 -3.04381 -1.11905 0
M  V30 8677 H 821.375 -3.89657 0.437026 0
M  V30 8678 H 822.865 -4.14326 -0.521926 0
M  V30 8679 N 823.302 -0.75937 -1.38099 0
M  V30 8680 C 824.212 -0.13774 -2.34195 0
M  V30 8681 C 825.228 0.693985 -1.59561 0
M  V30 8682 O 826.404 0.616792 -1.91723 0
M  V30 8683 C 823.469 0.740535 -3.38699 0
M  V30 8684 C 822.53 -0.106225 -4.29169 0
M  V30 8685 C 821.763 0.730225 -5.28681 0
M  V30 8686 O 821.986 1.96796 -5.35376 0
M  V30 8687 O 820.92 0.145969 -6.01723 0
M  V30 8688 H 824.746 -0.931512 -2.89061 0
M  V30 8689 H 822.331 -0.520345 -1.40046 0
M  V30 8690 H 824.213 1.24232 -4.02672 0
M  V30 8691 H 822.888 1.51271 -2.8618 0
M  V30 8692 H 821.795 -0.654088 -3.68337 0
M  V30 8693 H 823.128 -0.841186 -4.84959 0
M  V30 8694 N 824.78 1.49157 -0.508906 0
M  V30 8695 C 825.69 2.33045 0.269656 0
M  V30 8696 C 826.706 1.45143 0.959662 0
M  V30 8697 O 827.882 1.78155 0.939295 0
M  V30 8698 C 824.947 3.20772 1.31554 0
M  V30 8699 C 824.008 4.24531 0.638131 0
M  V30 8700 C 823.241 5.08065 1.63418 0
M  V30 8701 O 823.464 4.93238 2.86483 0
M  V30 8702 O 822.398 5.90117 1.18516 0
M  V30 8703 H 826.224 3.00821 -0.417183 0
M  V30 8704 H 823.809 1.46938 -0.270119 0
M  V30 8705 H 825.691 3.75095 1.92047 0
M  V30 8706 H 824.366 2.55681 1.98516 0
M  V30 8707 H 823.273 3.74099 -0.00674357 0
M  V30 8708 H 824.606 4.92199 0.0108155 0
M  V30 8709 N 826.258 0.243083 1.55714 0
M  V30 8710 C 827.483 -0.389944 2.03701 0
M  V30 8711 C 827.908 -1.51025 1.12129 0
M  V30 8712 O 827.266 -1.80944 0.11352 0
M  V30 8713 C 827.314 -0.878649 3.49731 0
M  V30 8714 O 826.418 -1.98851 3.61292 0
M  V30 8715 H 825.759 -0.0855115 0.658471 0
M  V30 8716 H 828.289 0.368023 2.01263 0
M  V30 8717 H 828.299 -1.18287 3.90477 0
M  V30 8718 H 826.974 -0.0588107 4.15858 0
M  V30 8719 H 825.551 -1.68928 3.32442 0
M  V30 8720 N 827.736 -1.57571 -0.0300757 0
M  V30 8721 C 828.684 -2.0758 -1.04944 0
M  V30 8722 C 829.678 -0.989384 -1.37505 0
M  V30 8723 O 830.884 -1.17427 -1.36422 0
M  V30 8724 H 827.259 -0.662419 -0.355956 0
M  V30 8725 H 829.23 -2.92268 -0.601848 0
M  V30 8726 C 827.979 -2.5698 -2.34215 0
M  V30 8727 H 827.302 -3.40193 -2.10021 0
M  V30 8728 H 828.742 -2.95682 -3.03888 0
M  V30 8729 C 827.201 -1.47059 -3.03109 0
M  V30 8730 O 827.731 -0.83625 -3.92899 0
M  V30 8731 N 825.937 -1.20538 -2.64422 0
M  V30 8732 H 825.484 -1.72305 -1.9149 0
M  V30 8733 H 825.442 -0.472045 -3.10836 0
M  V30 8734 N 829.214 0.302327 -1.54673 0
M  V30 8735 C 830.461 1.0377 -1.73891 0
M  V30 8736 C 830.789 1.87309 -0.523979 0
M  V30 8737 O 830.044 1.8936 0.494084 0
M  V30 8738 C 830.343 1.97365 -2.97963 0
M  V30 8739 C 830.009 1.29812 -4.3181 0
M  V30 8740 C 828.671 1.11121 -4.68194 0
M  V30 8741 C 831.023 0.815073 -5.14787 0
M  V30 8742 C 828.351 0.428077 -5.85136 0
M  V30 8743 C 830.703 0.145665 -6.32432 0
M  V30 8744 C 829.367 -0.0532098 -6.67479 0
M  V30 8745 H 828.637 0.379721 -0.636312 0
M  V30 8746 H 831.284 0.312708 -1.8893 0
M  V30 8747 H 829.589 2.76387 -2.777 0
M  V30 8748 H 831.286 2.54331 -3.10027 0
M  V30 8749 H 827.876 1.45366 -4.03196 0
M  V30 8750 H 832.06 0.947191 -4.87178 0
M  V30 8751 H 827.316 0.262995 -6.10834 0
M  V30 8752 H 831.49 -0.236533 -6.95998 0
M  V30 8753 H 829.117 -0.58456 -7.57949 0
M  V30 8754 N 830.692 1.47107 0.565454 0
M  V30 8755 C 832.103 1.47266 1.1476 0
M  V30 8756 C 832.454 0.222841 1.9493 0
M  V30 8757 O 831.579 -0.672862 2.05673 0
M  V30 8758 C 832.174 2.66822 2.08785 0
M  V30 8759 C 830.733 2.69967 2.62288 0
M  V30 8760 C 829.88 2.40236 1.38499 0
M  V30 8761 H 832.831 1.54736 0.352479 0
M  V30 8762 H 832.852 2.43323 2.92531 0
M  V30 8763 H 832.364 3.5777 1.50408 0
M  V30 8764 H 830.465 1.83137 3.24487 0
M  V30 8765 H 830.578 3.70426 3.03845 0
M  V30 8766 H 828.942 1.90648 1.68895 0
M  V30 8767 H 829.725 3.33381 0.819274 0
M  V30 8768 N 832.17 -0.811516 1.35101 0
M  V30 8769 C 833.417 -1.56835 1.28098 0
M  V30 8770 C 833.745 -1.93951 -0.14597 0
M  V30 8771 O 833 -1.61173 -1.11004 0
M  V30 8772 C 833.299 -2.87121 2.1283 0
M  V30 8773 C 832.965 -2.69245 3.61688 0
M  V30 8774 C 831.627 -2.64078 4.02264 0
M  V30 8775 C 833.979 -2.52122 4.56162 0
M  V30 8776 C 831.307 -2.39724 5.3549 0
M  V30 8777 C 833.659 -2.29298 5.89581 0
M  V30 8778 C 832.323 -2.2255 6.29307 0
M  V30 8779 H 831.593 -0.5739 0.468742 0
M  V30 8780 H 834.24 -0.93806 1.66951 0
M  V30 8781 H 832.545 -3.54502 1.66841 0
M  V30 8782 H 834.242 -3.44788 2.0475 0
M  V30 8783 H 830.832 -2.74112 3.29485 0
M  V30 8784 H 835.016 -2.5513 4.25702 0
M  V30 8785 H 830.272 -2.32965 5.65276 0
M  V30 8786 H 834.446 -2.15038 6.62368 0
M  V30 8787 H 832.073 -2.0344 7.32473 0
M  V30 8788 N 833.648 -1.19017 -1.03309 0
M  V30 8789 C 834.897 -0.984542 -1.76039 0
M  V30 8790 C 835.21 0.485937 -1.89468 0
M  V30 8791 O 836.416 0.810278 -2.59127 0
M  V30 8792 C 834.872 -1.71261 -3.1654 0
M  V30 8793 C 834.48 -3.22291 -3.11179 0
M  V30 8794 C 836.224 -1.59007 -3.93595 0
M  V30 8795 C 834.131 -3.87704 -4.46587 0
M  V30 8796 H 833.061 -0.364749 -0.659905 0
M  V30 8797 H 835.712 -1.4247 -1.15649 0
M  V30 8798 H 834.094 -1.20025 -3.77373 0
M  V30 8799 H 835.268 -3.80611 -2.59753 0
M  V30 8800 H 833.583 -3.34772 -2.47622 0
M  V30 8801 H 836.18 -2.05232 -4.93745 0
M  V30 8802 H 836.523 -0.543534 -4.12736 0
M  V30 8803 H 837.056 -2.07564 -3.39355 0
M  V30 8804 H 833.795 -4.92437 -4.3265 0
M  V30 8805 H 833.315 -3.34172 -4.98085 0
M  V30 8806 H 834.994 -3.91008 -5.15482 0
M  V30 8807 N 835.127 1.22348 -0.993418 0
M  V30 8808 C 836.074 2.24294 -0.544118 0
M  V30 8809 C 837.044 1.60602 0.42381 0
M  V30 8810 O 838.229 1.87952 0.328453 0
M  V30 8811 C 835.369 3.44837 0.134578 0
M  V30 8812 C 834.482 4.23043 -0.875151 0
M  V30 8813 C 833.617 5.30928 -0.169919 0
M  V30 8814 C 832.656 6.00853 -1.16798 0
M  V30 8815 N 831.793 7.00381 -0.491021 0
M  V30 8816 H 836.633 2.6209 -1.4182 0
M  V30 8817 H 834.17 1.2881 -0.710384 0
M  V30 8818 H 836.128 4.13625 0.544998 0
M  V30 8819 H 834.758 3.07804 0.972446 0
M  V30 8820 H 833.81 3.53546 -1.40389 0
M  V30 8821 H 835.122 4.71237 -1.63516 0
M  V30 8822 H 834.276 6.05972 0.297205 0
M  V30 8823 H 833.015 4.8371 0.622586 0
M  V30 8824 H 832.02 5.24591 -1.64573 0
M  V30 8825 H 833.245 6.50159 -1.96137 0
M  V30 8826 H 831.191 6.55393 0.282037 0
M  V30 8827 H 831.108 7.46584 -1.18947 0
M  V30 8828 H 832.376 7.79486 -0.0467169 0
M  V30 8829 N 836.605 0.766683 1.37694 0
M  V30 8830 C 837.854 0.325425 1.99057 0
M  V30 8831 C 838.167 -1.10275 1.61551 0
M  V30 8832 O 839.373 -1.64513 2.1598 0
M  V30 8833 C 837.829 0.530886 3.55963 0
M  V30 8834 C 837.437 1.96899 4.02411 0
M  V30 8835 C 839.181 0.152997 4.24224 0
M  V30 8836 C 837.088 2.12232 5.52007 0
M  V30 8837 H 836.018 0.117929 0.744721 0
M  V30 8838 H 838.669 0.945091 1.5729 0
M  V30 8839 H 837.051 -0.158162 3.95684 0
M  V30 8840 H 838.225 2.69258 3.73948 0
M  V30 8841 H 836.54 2.303 3.46916 0
M  V30 8842 H 839.137 0.24614 5.34133 0
M  V30 8843 H 839.48 -0.896096 4.06541 0
M  V30 8844 H 840.013 0.794398 3.89787 0
M  V30 8845 H 836.752 3.15442 5.7461 0
M  V30 8846 H 836.272 1.4435 5.82171 0
M  V30 8847 H 837.951 1.9185 6.17902 0
M  V30 8848 N 838.083 -1.48885 0.516809 0
M  V30 8849 C 839.323 -2.0439 -0.0202232 0
M  V30 8850 C 839.687 -1.38652 -1.32814 0
M  V30 8851 O 840.888 -1.84968 -1.95039 0
M  V30 8852 C 839.159 -3.57071 -0.153257 0
M  V30 8853 S 840.718 -4.34074 -0.642256 0
M  V30 8854 H 837.536 -0.710977 0.00576322 0
M  V30 8855 H 840.138 -1.82753 0.694376 0
M  V30 8856 H 838.842 -4.02454 0.803695 0
M  V30 8857 H 838.373 -3.83139 -0.892627 0
M  V30 8858 H 840.388 -4.58011 -1.90893 0
M  V30 8859 N 839.561 -0.251338 -1.55583 0
M  V30 8860 C 840.786 0.379136 -2.03905 0
M  V30 8861 C 841.211 1.50428 -1.12929 0
M  V30 8862 O 840.569 1.80882 -0.123114 0
M  V30 8863 C 840.617 0.86009 -3.50193 0
M  V30 8864 O 839.721 1.96932 -3.62342 0
M  V30 8865 H 839.062 0.0820183 -0.658915 0
M  V30 8866 H 841.592 -0.378692 -2.01065 0
M  V30 8867 H 841.602 1.16214 -3.91099 0
M  V30 8868 H 840.277 0.0367559 -4.15884 0
M  V30 8869 H 838.854 1.67163 -3.33333 0
M  V30 8870 N 841.039 1.57585 0.0217189 0
M  V30 8871 C 842.45 1.7787 0.567377 0
M  V30 8872 C 842.801 0.883337 1.7519 0
M  V30 8873 O 841.926 0.0800819 2.16252 0
M  V30 8874 C 842.521 3.2257 1.03606 0
M  V30 8875 C 841.08 3.44026 1.52718 0
M  V30 8876 C 840.227 2.73313 0.468545 0
M  V30 8877 H 843.178 1.57377 -0.2045 0
M  V30 8878 H 843.199 3.29488 1.9031 0
M  V30 8879 H 842.711 3.87711 0.173739 0
M  V30 8880 H 840.812 2.8407 2.41111 0
M  V30 8881 H 840.925 4.52659 1.56962 0
M  V30 8882 H 839.289 2.37299 0.925263 0
M  V30 8883 H 840.072 3.41141 -0.384438 0
M  V30 8884 N 842.517 -0.29412 1.54831 0
M  V30 8885 C 843.794 -1.04847 1.65126 0
M  V30 8886 C 844.174 -2.04996 0.503986 0
M  V30 8887 O 843.522 -2.22996 -0.498496 0
M  V30 8888 C 843.732 -1.72418 3.03435 0
M  V30 8889 C 845.08 -2.24362 3.60481 0
M  V30 8890 O 846.104 -1.8244 3.05932 0
M  V30 8891 O 844.963 -3.01196 4.56008 0
M  V30 8892 H 842.057 -0.485032 0.669831 0
M  V30 8893 H 844.603 -0.291659 1.67175 0
M  V30 8894 H 843.375 -0.997351 3.78376 0
M  V30 8895 H 842.998 -2.54839 3.05193 0
M  V30 8896 N 843.995 -1.47404 -0.557645 0
M  V30 8897 C 844.942 -1.59859 -1.66475 0
M  V30 8898 C 845.912 -0.441644 -1.60121 0
M  V30 8899 O 847.097 -0.661641 -1.78961 0
M  V30 8900 C 844.237 -1.61843 -3.04797 0
M  V30 8901 C 843.35 -2.8845 -3.2159 0
M  V30 8902 C 842.485 -2.81773 -4.50308 0
M  V30 8903 C 841.524 -4.03208 -4.60532 0
M  V30 8904 N 840.661 -3.94769 -5.80604 0
M  V30 8905 H 845.501 -2.54415 -1.55168 0
M  V30 8906 H 843.038 -1.26194 -0.755876 0
M  V30 8907 H 844.996 -1.60976 -3.84893 0
M  V30 8908 H 843.626 -0.707997 -3.1494 0
M  V30 8909 H 842.678 -2.99186 -2.34929 0
M  V30 8910 H 843.99 -3.78379 -3.25009 0
M  V30 8911 H 843.144 -2.79153 -5.38663 0
M  V30 8912 H 841.883 -1.89527 -4.49367 0
M  V30 8913 H 840.888 -4.06133 -3.70589 0
M  V30 8914 H 842.113 -4.9658 -4.63233 0
M  V30 8915 H 840.059 -3.05326 -5.80613 0
M  V30 8916 H 839.976 -4.78375 -5.854 0
M  V30 8917 H 841.244 -3.96165 -6.71322 0
M  V30 8918 N 845.473 0.80434 -1.35529 0
M  V30 8919 C 846.406 1.92222 -1.22987 0
M  V30 8920 C 847.384 1.62177 -0.117269 0
M  V30 8921 O 848.568 1.86321 -0.285761 0
M  V30 8922 C 845.695 3.26682 -0.894223 0
M  V30 8923 C 844.741 3.75674 -2.01919 0
M  V30 8924 S 845.574 3.93209 -3.6352 0
M  V30 8925 C 846.73 5.30568 -3.32037 0
M  V30 8926 H 846.963 2.02567 -2.1761 0
M  V30 8927 H 844.496 0.961961 -1.20771 0
M  V30 8928 H 846.454 4.04359 -0.707371 0
M  V30 8929 H 845.115 3.14082 0.0339729 0
M  V30 8930 H 844.308 4.73065 -1.73854 0
M  V30 8931 H 843.91 3.05001 -2.16449 0
M  V30 8932 H 846.202 6.14637 -2.85004 0
M  V30 8933 H 847.145 5.63628 -4.28636 0
M  V30 8934 H 847.553 4.96961 -2.6775 0
M  V30 8935 N 846.951 1.19563 1.02676 0
M  V30 8936 C 848.2 0.993864 1.75514 0
M  V30 8937 C 848.513 -0.475882 1.89723 0
M  V30 8938 O 849.719 -0.796525 2.59553 0
M  V30 8939 C 848.175 1.72937 3.15628 0
M  V30 8940 C 847.783 3.23937 3.09466 0
M  V30 8941 C 849.527 1.61092 3.92746 0
M  V30 8942 C 847.434 3.90067 4.44524 0
M  V30 8943 H 846.364 0.368244 0.657961 0
M  V30 8944 H 849.015 1.43081 1.14891 0
M  V30 8945 H 847.397 1.22025 3.76731 0
M  V30 8946 H 848.571 3.81983 2.57731 0
M  V30 8947 H 846.886 3.3608 2.45843 0
M  V30 8948 H 849.483 2.07848 4.92649 0
M  V30 8949 H 849.826 0.565415 4.12442 0
M  V30 8950 H 850.359 2.09361 3.3825 0
M  V30 8951 H 847.098 4.94725 4.30032 0
M  V30 8952 H 846.618 3.36809 4.96306 0
M  V30 8953 H 848.297 3.93736 5.13401 0
M  V30 8954 N 848.429 -1.21819 0.999893 0
M  V30 8955 C 849.677 -1.90375 0.678351 0
M  V30 8956 C 849.998 -1.78155 -0.792824 0
M  V30 8957 O 849.268 -1.17319 -1.56885 0
M  V30 8958 H 847.848 -0.704661 0.247915 0
M  V30 8959 H 850.51 -1.48021 1.2679 0
M  V30 8960 H 849.606 -2.97385 0.947023 0
M  V30 8961 N 849.908 -0.773975 -1.37286 0
M  V30 8962 C 851.155 -0.339306 -1.99637 0
M  V30 8963 C 851.483 1.08478 -1.61439 0
M  V30 8964 O 850.738 1.7612 -0.853252 0
M  V30 8965 C 851.037 -0.432651 -3.54772 0
M  V30 8966 C 850.703 -1.81531 -4.12744 0
M  V30 8967 C 849.365 -2.19366 -4.2829 0
M  V30 8968 C 851.717 -2.72137 -4.44512 0
M  V30 8969 C 849.045 -3.47239 -4.72908 0
M  V30 8970 C 851.397 -3.99421 -4.90556 0
M  V30 8971 C 850.061 -4.37298 -5.04308 0
M  V30 8972 H 849.331 -0.124161 -0.730524 0
M  V30 8973 H 851.978 -0.988432 -1.64019 0
M  V30 8974 H 850.283 0.30001 -3.9065 0
M  V30 8975 H 851.98 -0.0776 -4.00925 0
M  V30 8976 H 848.57 -1.51126 -4.01072 0
M  V30 8977 H 852.754 -2.44165 -4.32084 0
M  V30 8978 H 848.01 -3.76477 -4.81742 0
M  V30 8979 H 852.184 -4.69756 -5.14104 0
M  V30 8980 H 849.811 -5.36442 -5.38641 0
M  V30 8981 N 851.386 1.48609 -0.524698 0
M  V30 8982 C 852.611 2.07398 0.00952139 0
M  V30 8983 C 853.036 1.37939 1.27884 0
M  V30 8984 O 852.394 0.443633 1.75788 0
M  V30 8985 C 852.442 3.59916 0.221956 0
M  V30 8986 O 851.546 3.91647 1.29175 0
M  V30 8987 H 850.887 0.662981 -0.0367729 0
M  V30 8988 H 853.417 1.91092 -0.7311 0
M  V30 8989 H 853.427 4.05552 0.446236 0
M  V30 8990 H 852.102 4.09876 -0.705306 0
M  V30 8991 H 850.679 3.57796 1.05055 0
M  V30 8992 N 852.864 0.259585 1.55447 0
M  V30 8993 C 853.774 -0.645026 2.25558 0
M  V30 8994 C 854.79 -1.18291 1.27606 0
M  V30 8995 O 855.966 -1.21649 1.6051 0
M  V30 8996 C 853.031 -1.81964 2.9511 0
M  V30 8997 C 852.092 -1.31997 4.08504 0
M  V30 8998 C 851.325 -2.43861 4.74729 0
M  V30 8999 O 851.548 -3.62876 4.40088 0
M  V30 9000 O 850.482 -2.12898 5.6299 0
M  V30 9001 H 854.308 -0.0775399 3.03601 0
M  V30 9002 H 851.893 0.0275859 1.49375 0
M  V30 9003 H 853.775 -2.50485 3.38873 0
M  V30 9004 H 852.45 -2.37451 2.19997 0
M  V30 9005 H 851.357 -0.601676 3.6923 0
M  V30 9006 H 852.69 -0.811045 4.85472 0
M  V30 9007 N 854.342 -1.57594 -0.0133615 0
M  V30 9008 C 855.57 -1.94251 -0.712328 0
M  V30 9009 C 855.985 -0.86063 -1.68043 0
M  V30 9010 O 855.342 0.161632 -1.81783 0
M  V30 9011 C 855.393 -3.30891 -1.45581 0
M  V30 9012 O 855.114 -4.34924 -0.526539 0
M  V30 9013 C 856.615 -3.81926 -2.2505 0
M  V30 9014 H 853.835 -0.640737 -0.199241 0
M  V30 9015 H 856.379 -2.04472 0.0337855 0
M  V30 9016 H 854.534 -3.22019 -2.15366 0
M  V30 9017 H 854.948 -5.1389 -1.04962 0
M  V30 9018 H 856.422 -4.79999 -2.72589 0
M  V30 9019 H 856.899 -3.13934 -3.07152 0
M  V30 9020 H 857.505 -3.93931 -1.60308 0
M  V30 9021 N 855.82 0.285905 -1.54985 0
M  V30 9022 C 856.783 1.33625 -1.86218 0
M  V30 9023 C 857.783 1.42971 -0.735936 0
M  V30 9024 O 858.973 1.42345 -1.00417 0
M  V30 9025 C 856.105 2.71926 -2.05595 0
M  V30 9026 H 857.298 1.07167 -2.80099 0
M  V30 9027 H 854.851 0.523335 -1.47278 0
M  V30 9028 H 855.586 3.03583 -1.14053 0
M  V30 9029 H 855.371 2.6653 -2.87583 0
M  V30 9030 H 856.861 3.47841 -2.31077 0
M  V30 9031 N 857.298 1.47698 0.54982 0
M  V30 9032 C 858.245 1.60739 1.65625 0
M  V30 9033 C 859.215 0.450129 1.59884 0
M  V30 9034 O 860.4 0.671123 1.78607 0
M  V30 9035 C 857.54 1.63457 3.03934 0
M  V30 9036 C 856.653 2.90152 3.20056 0
M  V30 9037 C 855.788 2.84157 4.48807 0
M  V30 9038 C 854.827 4.05644 4.58387 0
M  V30 9039 N 853.964 3.97843 5.78503 0
M  V30 9040 H 858.804 2.55234 1.53817 0
M  V30 9041 H 856.341 1.26593 0.749173 0
M  V30 9042 H 858.299 1.63015 3.84034 0
M  V30 9043 H 856.929 0.724689 3.1456 0
M  V30 9044 H 855.981 3.00428 2.33339 0
M  V30 9045 H 857.293 3.80097 3.22998 0
M  V30 9046 H 856.447 2.82006 5.37175 0
M  V30 9047 H 855.186 1.91908 4.48356 0
M  V30 9048 H 854.191 4.08092 3.6843 0
M  V30 9049 H 855.416 4.9903 4.60593 0
M  V30 9050 H 853.362 3.08401 5.78986 0
M  V30 9051 H 853.279 4.81473 5.82855 0
M  V30 9052 H 854.547 3.99719 6.69212 0
M  V30 9053 N 858.776 -0.797141 1.35954 0
M  V30 9054 C 860.016 -1.56795 1.31128 0
M  V30 9055 C 860.38 -1.91683 -0.110364 0
M  V30 9056 O 861.581 -2.67305 -0.283093 0
M  V30 9057 C 859.852 -2.81577 2.20111 0
M  V30 9058 S 861.411 -3.71895 2.32894 0
M  V30 9059 H 858.229 -0.53711 0.465869 0
M  V30 9060 H 860.831 -0.939522 1.71445 0
M  V30 9061 H 859.535 -2.53986 3.22365 0
M  V30 9062 H 859.066 -3.49399 1.80786 0
M  V30 9063 H 861.081 -4.72322 1.52073 0
M  V30 9064 N 860.254 -1.20106 -1.0204 0
M  V30 9065 C 861.186 -0.904236 -2.10609 0
M  V30 9066 C 862.199 0.106487 -1.62451 0
M  V30 9067 O 863.388 -0.124035 -1.78069 0
M  V30 9068 C 860.488 -0.333423 -3.37256 0
M  V30 9069 C 859.661 -1.39476 -4.14566 0
M  V30 9070 C 858.72 -0.835961 -5.19517 0
M  V30 9071 O 857.746 -1.51573 -5.48648 0
M  V30 9072 N 858.948 0.356531 -5.79404 0
M  V30 9073 H 861.713 -1.8388 -2.36661 0
M  V30 9074 H 859.274 -1.10422 -1.184 0
M  V30 9075 H 861.266 0.0544571 -4.04663 0
M  V30 9076 H 859.836 0.505608 -3.08484 0
M  V30 9077 H 859.056 -1.95714 -3.42184 0
M  V30 9078 H 860.344 -2.10967 -4.63001 0
M  V30 9079 H 859.742 0.926143 -5.58067 0
M  V30 9080 H 858.299 0.686093 -6.48179 0
M  V30 9081 N 861.732 1.21287 -1.00634 0
M  V30 9082 C 862.695 2.21927 -0.572821 0
M  V30 9083 C 863.695 1.5691 0.351541 0
M  V30 9084 O 864.885 1.73623 0.141643 0
M  V30 9085 C 862.017 3.40501 0.164932 0
M  V30 9086 H 863.21 2.61795 -1.463 0
M  V30 9087 H 860.763 1.34571 -0.794998 0
M  V30 9088 H 861.498 3.06123 1.07049 0
M  V30 9089 H 861.283 3.88912 -0.498962 0
M  V30 9090 H 862.773 4.15103 0.455945 0
M  V30 9091 N 863.21 0.781244 1.36873 0
M  V30 9092 C 864.143 0.120106 2.27884 0
M  V30 9093 C 865.121 -0.698961 1.4681 0
M  V30 9094 O 866.305 -0.671694 1.76126 0
M  V30 9095 C 863.432 -0.835804 3.28226 0
M  V30 9096 C 862.478 -0.0995527 4.26384 0
M  V30 9097 S 863.311 1.21903 5.2144 0
M  V30 9098 C 864.467 0.266904 6.25331 0
M  V30 9099 H 864.7 0.891796 2.83609 0
M  V30 9100 H 862.233 0.575075 1.43291 0
M  V30 9101 H 864.191 -1.3819 3.86541 0
M  V30 9102 H 862.852 -1.58068 2.71428 0
M  V30 9103 H 862.045 -0.82457 4.97209 0
M  V30 9104 H 861.647 0.375818 3.72107 0
M  V30 9105 H 863.939 -0.55725 6.75204 0
M  V30 9106 H 864.882 0.943603 7.01785 0
M  V30 9107 H 865.29 -0.126121 5.64359 0
M  V30 9108 N 864.689 -1.48329 0.532571 0
M  V30 9109 C 865.636 -2.29663 -0.228779 0
M  V30 9110 C 866.606 -1.37529 -0.931401 0
M  V30 9111 O 867.791 -1.66493 -0.931921 0
M  V30 9112 C 864.931 -3.20955 -1.26814 0
M  V30 9113 C 864.044 -4.28168 -0.574099 0
M  V30 9114 C 863.179 -5.06638 -1.59661 0
M  V30 9115 C 862.218 -6.05651 -0.88618 0
M  V30 9116 N 861.355 -6.77169 -1.85436 0
M  V30 9117 H 866.195 -2.94255 0.47098 0
M  V30 9118 H 863.732 -1.45061 0.2441 0
M  V30 9119 H 865.69 -3.72285 -1.88307 0
M  V30 9120 H 864.32 -2.58281 -1.93625 0
M  V30 9121 H 863.372 -3.80085 0.154827 0
M  V30 9122 H 864.684 -4.98797 -0.0163984 0
M  V30 9123 H 863.838 -5.61995 -2.28576 0
M  V30 9124 H 862.577 -4.35854 -2.18821 0
M  V30 9125 H 861.582 -5.49495 -0.182981 0
M  V30 9126 H 862.807 -6.78434 -0.300659 0
M  V30 9127 H 860.753 -6.09134 -2.43499 0
M  V30 9128 H 860.67 -7.43882 -1.34816 0
M  V30 9129 H 861.938 -7.37114 -2.53541 0
M  V30 9130 N 866.167 -0.267825 -1.55308 0
M  V30 9131 C 867.114 0.6228 -2.22238 0
M  V30 9132 C 868.084 1.15536 -1.19334 0
M  V30 9133 O 869.269 1.206 -1.47852 0
M  V30 9134 C 866.409 1.80447 -2.94164 0
M  V30 9135 C 865.522 1.30646 -4.11771 0
M  V30 9136 C 864.657 2.44935 -4.7136 0
M  V30 9137 C 863.696 1.92099 -5.81175 0
M  V30 9138 N 862.833 2.99834 -6.34857 0
M  V30 9139 H 867.673 0.0453874 -2.97965 0
M  V30 9140 H 865.21 0.0106371 -1.47096 0
M  V30 9141 H 867.168 2.49896 -3.34078 0
M  V30 9142 H 865.798 2.35403 -2.20874 0
M  V30 9143 H 864.85 0.505314 -3.77029 0
M  V30 9144 H 866.162 0.879409 -4.90987 0
M  V30 9145 H 865.316 3.2239 -5.13955 0
M  V30 9146 H 864.055 2.90951 -3.91406 0
M  V30 9147 H 863.06 1.13122 -5.38037 0
M  V30 9148 H 864.285 1.47027 -6.62993 0
M  V30 9149 H 862.231 3.45246 -5.578 0
M  V30 9150 H 862.148 2.61524 -7.09324 0
M  V30 9151 H 863.416 3.77286 -6.82111 0
M  V30 9152 N 867.645 1.57599 0.00500368 0
M  V30 9153 C 868.894 1.89528 0.690061 0
M  V30 9154 C 869.207 0.869451 1.75214 0
M  V30 9155 O 870.413 1.07879 2.49147 0
M  V30 9156 C 868.869 3.36425 1.27852 0
M  V30 9157 C 868.477 4.47293 0.251531 0
M  V30 9158 C 870.221 3.77471 1.94206 0
M  V30 9159 C 868.128 5.85264 0.8497 0
M  V30 9160 H 867.058 0.707201 0.2615 0
M  V30 9161 H 869.709 1.83418 -0.0547209 0
M  V30 9162 H 868.091 3.37356 2.07381 0
M  V30 9163 H 869.265 4.5787 -0.518796 0
M  V30 9164 H 867.58 4.15235 -0.311281 0
M  V30 9165 H 870.177 4.77884 2.39855 0
M  V30 9166 H 870.52 3.10722 2.77051 0
M  V30 9167 H 871.053 3.78817 1.21419 0
M  V30 9168 H 867.792 6.55472 0.0601408 0
M  V30 9169 H 867.312 5.78361 1.5893 0
M  V30 9170 H 868.991 6.32762 1.34984 0
M  V30 9171 N 869.123 -0.277682 1.55134 0
M  V30 9172 C 870.37 -1.0099 1.7552 0
M  V30 9173 C 870.698 -1.86452 0.553712 0
M  V30 9174 O 869.953 -1.90122 -0.463896 0
M  V30 9175 C 870.252 -1.92599 3.01065 0
M  V30 9176 C 869.918 -1.22926 4.3382 0
M  V30 9177 C 868.58 -1.03659 4.69902 0
M  V30 9178 C 870.932 -0.733071 5.16019 0
M  V30 9179 C 868.26 -0.334933 5.85743 0
M  V30 9180 C 870.612 -0.0450319 6.32584 0
M  V30 9181 C 869.276 0.159393 6.6731 0
M  V30 9182 H 868.546 -0.36955 0.642273 0
M  V30 9183 H 871.193 -0.282611 1.89403 0
M  V30 9184 H 869.498 -2.71934 2.82062 0
M  V30 9185 H 871.195 -2.49367 3.14034 0
M  V30 9186 H 867.785 -1.38933 4.05457 0
M  V30 9187 H 871.969 -0.869565 4.88623 0
M  V30 9188 H 867.225 -0.165783 6.11175 0
M  V30 9189 H 871.399 0.34723 6.95534 0
M  V30 9190 H 869.026 0.70507 7.56923 0
M  V30 9191 N 870.601 -1.47988 -0.541979 0
M  V30 9192 C 871.878 -1.45878 -1.30303 0
M  V30 9193 C 872.258 -0.163931 -2.10463 0
M  V30 9194 O 871.606 0.854479 -2.11922 0
M  V30 9195 C 871.816 -2.71359 -2.19466 0
M  V30 9196 C 873.164 -3.19199 -2.79995 0
M  V30 9197 O 874.188 -2.72193 -2.2976 0
M  V30 9198 O 873.047 -4.00961 -3.71339 0
M  V30 9199 H 870.141 -0.582043 -0.587498 0
M  V30 9200 H 872.687 -1.60207 -0.559623 0
M  V30 9201 H 871.459 -3.57122 -1.59936 0
M  V30 9202 H 871.082 -2.59692 -3.01075 0
M  V30 9203 N 872.079 0.78992 -1.36375 0
M  V30 9204 C 873.356 1.53584 -1.21126 0
M  V30 9205 C 873.736 2.10124 0.202785 0
M  V30 9206 O 873.084 1.93936 1.20835 0
M  V30 9207 C 873.294 2.63117 -2.29282 0
M  V30 9208 C 874.642 3.31013 -2.65924 0
M  V30 9209 O 875.666 2.734 -2.28321 0
M  V30 9210 O 874.525 4.35129 -3.30643 0
M  V30 9211 H 871.619 0.679366 -0.471583 0
M  V30 9212 H 874.165 0.828446 -1.48104 0
M  V30 9213 H 872.937 2.19329 -3.24053 0
M  V30 9214 H 872.56 3.41476 -2.03666 0
M  V30 9215 N 873.557 1.20646 1.01402 0
M  V30 9216 C 874.52 0.959314 2.08158 0
M  V30 9217 C 875.52 -0.0661558 1.60664 0
M  V30 9218 O 876.71 0.170177 1.73367 0
M  V30 9219 C 873.842 0.444785 3.37986 0
M  V30 9220 H 875.035 1.90631 2.31517 0
M  V30 9221 H 872.588 1.02219 1.18241 0
M  V30 9222 H 873.323 -0.507553 3.20304 0
M  V30 9223 H 873.108 1.18435 3.73785 0
M  V30 9224 H 874.598 0.291443 4.16582 0
M  V30 9225 N 875.035 -1.20752 1.01276 0
M  V30 9226 C 876.265 -1.93725 0.717934 0
M  V30 9227 C 876.673 -1.74769 -0.724732 0
M  V30 9228 O 876.016 -1.05642 -1.50285 0
M  V30 9229 C 876.078 -3.46196 0.968954 0
M  V30 9230 C 875.742 -3.88909 2.39998 0
M  V30 9231 C 876.739 -3.94982 3.38061 0
M  V30 9232 C 874.424 -4.21006 2.7397 0
M  V30 9233 C 876.418 -4.32558 4.68159 0
M  V30 9234 C 874.105 -4.58257 4.04282 0
M  V30 9235 C 875.103 -4.64004 5.01187 0
M  V30 9236 O 874.791 -5.00403 6.29168 0
M  V30 9237 H 874.523 -0.622663 0.263186 0
M  V30 9238 H 877.077 -1.54299 1.35577 0
M  V30 9239 H 875.307 -3.85728 0.273952 0
M  V30 9240 H 876.996 -4.00394 0.666312 0
M  V30 9241 H 877.762 -3.70353 3.13151 0
M  V30 9242 H 873.641 -4.15725 1.99233 0
M  V30 9243 H 877.185 -4.36959 5.43795 0
M  V30 9244 H 873.082 -4.82341 4.28973 0
M  V30 9245 H 873.85 -5.18409 6.33399 0
M  V30 9246 N 876.513 -0.788492 -1.36457 0
M  V30 9247 C 877.46 -0.18435 -2.30063 0
M  V30 9248 C 878.43 0.67128 -1.51931 0
M  V30 9249 O 879.615 0.620152 -1.8044 0
M  V30 9250 C 876.755 0.675596 -3.38422 0
M  V30 9251 C 875.868 -0.198475 -4.31544 0
M  V30 9252 C 875.003 0.667757 -5.26986 0
M  V30 9253 C 874.042 -0.207825 -6.11747 0
M  V30 9254 N 873.179 0.617335 -6.99381 0
M  V30 9255 H 878.019 -0.988056 -2.81143 0
M  V30 9256 H 875.556 -0.498815 -1.38384 0
M  V30 9257 H 877.514 1.18916 -3.99894 0
M  V30 9258 H 876.144 1.44474 -2.88664 0
M  V30 9259 H 875.196 -0.829995 -3.71235 0
M  V30 9260 H 876.508 -0.873163 -4.91098 0
M  V30 9261 H 875.662 1.24716 -5.93743 0
M  V30 9262 H 874.401 1.37607 -4.67884 0
M  V30 9263 H 873.406 -0.799638 -5.43954 0
M  V30 9264 H 874.631 -0.913729 -6.72925 0
M  V30 9265 H 872.577 1.30996 -6.42788 0
M  V30 9266 H 872.494 0.000307255 -7.56 0
M  V30 9267 H 873.762 1.1806 -7.70508 0
M  V30 9268 N 877.991 1.48044 -0.54043 0
M  V30 9269 C 879.216 2.07396 -0.0124765 0
M  V30 9270 C 879.641 1.39288 1.26414 0
M  V30 9271 O 878.999 0.462252 1.75308 0
M  V30 9272 C 879.047 3.60131 0.18377 0
M  V30 9273 O 878.151 3.92995 1.25014 0
M  V30 9274 H 877.492 0.662554 -0.0438026 0
M  V30 9275 H 880.022 1.90306 -0.751327 0
M  V30 9276 H 880.032 4.06003 0.403197 0
M  V30 9277 H 878.707 4.09105 -0.74874 0
M  V30 9278 H 877.284 3.5889 1.01254 0
M  V30 9279 N 879.47 0.276058 1.55163 0
M  V30 9280 C 880.402 -0.644254 2.19959 0
M  V30 9281 C 881.415 -1.11675 1.18459 0
M  V30 9282 O 882.604 -1.0385 1.45181 0
M  V30 9283 C 879.704 -1.89093 2.81242 0
M  V30 9284 C 878.877 -1.56509 4.08441 0
M  V30 9285 C 877.936 -2.66433 4.53762 0
M  V30 9286 O 876.962 -2.32579 5.19515 0
M  V30 9287 N 878.164 -3.96509 4.23982 0
M  V30 9288 H 880.929 -0.0896808 2.99566 0
M  V30 9289 H 878.49 0.0971981 1.61608 0
M  V30 9290 H 880.482 -2.61929 3.08505 0
M  V30 9291 H 879.052 -2.35453 2.05622 0
M  V30 9292 H 878.272 -0.670522 3.88455 0
M  V30 9293 H 879.56 -1.32242 4.91314 0
M  V30 9294 H 878.958 -4.26834 3.71254 0
M  V30 9295 H 877.515 -4.6572 4.56014 0
M  V30 9296 N 880.948 -1.576 0.00335426 0
M  V30 9297 C 881.878 -2.11668 -0.985839 0
M  V30 9298 C 882.859 -1.02661 -1.35627 0
M  V30 9299 O 884.044 -1.30361 -1.43943 0
M  V30 9300 C 881.174 -2.62273 -2.27662 0
M  V30 9301 C 880.128 -3.75837 -2.0477 0
M  V30 9302 C 879.454 -4.12769 -3.39891 0
M  V30 9303 C 880.754 -5.02975 -1.40759 0
M  V30 9304 H 882.448 -2.9457 -0.535637 0
M  V30 9305 H 879.994 -1.41702 -0.256204 0
M  V30 9306 H 881.947 -2.98727 -2.97221 0
M  V30 9307 H 880.671 -1.76498 -2.74802 0
M  V30 9308 H 879.33 -3.39782 -1.37636 0
M  V30 9309 H 878.978 -3.24013 -3.8474 0
M  V30 9310 H 878.678 -4.89281 -3.25389 0
M  V30 9311 H 880.202 -4.51784 -4.1076 0
M  V30 9312 H 881.616 -5.37179 -2.00279 0
M  V30 9313 H 880.013 -5.84315 -1.36734 0
M  V30 9314 H 881.083 -4.83431 -0.377218 0
M  V30 9315 N 882.426 0.269451 -1.5528 0
M  V30 9316 C 883.651 1.02299 -1.80415 0
M  V30 9317 C 884.076 1.7902 -0.577363 0
M  V30 9318 O 883.434 1.75018 0.473125 0
M  V30 9319 C 883.482 1.95445 -3.0304 0
M  V30 9320 O 882.586 3.04271 -2.78375 0
M  V30 9321 H 881.927 0.292289 -0.596207 0
M  V30 9322 H 884.457 0.297282 -2.02429 0
M  V30 9323 H 884.467 2.37333 -3.31869 0
M  V30 9324 H 883.142 1.39017 -3.91978 0
M  V30 9325 H 881.719 2.66673 -2.60653 0
M  V30 9326 N 883.904 1.48273 0.534124 0
M  V30 9327 C 885.144 1.57674 1.3007 0
M  V30 9328 C 885.508 0.243256 1.90453 0
M  V30 9329 O 886.709 0.212231 2.67961 0
M  V30 9330 C 884.98 2.68044 2.36405 0
M  V30 9331 S 886.539 2.97183 3.22843 0
M  V30 9332 H 883.357 0.55652 0.442501 0
M  V30 9333 H 885.959 1.85774 0.60896 0
M  V30 9334 H 884.663 3.63498 1.90518 0
M  V30 9335 H 884.194 2.41833 3.10291 0
M  V30 9336 H 886.209 2.36164 4.36396 0
M  V30 9337 N 885.382 -0.782676 1.36792 0
M  V30 9338 C 886.628 -1.54311 1.3159 0
M  V30 9339 C 886.961 -1.93928 -0.102696 0
M  V30 9340 O 886.236 -1.63233 -1.05761 0
M  V30 9341 C 886.519 -2.81561 2.24489 0
M  V30 9342 C 886.372 -2.48268 3.75078 0
M  V30 9343 C 887.691 -3.83428 2.16034 0
M  V30 9344 H 884.81 -0.559828 0.479335 0
M  V30 9345 H 887.452 -0.898717 1.67401 0
M  V30 9346 H 885.602 -3.36549 1.9408 0
M  V30 9347 H 887.274 -1.99279 4.16036 0
M  V30 9348 H 885.517 -1.81116 3.94182 0
M  V30 9349 H 886.188 -3.39183 4.35499 0
M  V30 9350 H 888.664 -3.37905 2.42815 0
M  V30 9351 H 887.54 -4.70204 2.83194 0
M  V30 9352 H 887.801 -4.26887 1.14976 0
M  V30 9353 N 886.86 -1.21182 -1.00761 0
M  V30 9354 C 888.106 -1.02898 -1.74756 0
M  V30 9355 C 888.439 0.436774 -1.89225 0
M  V30 9356 O 887.714 1.32415 -1.42466 0
M  V30 9357 C 887.997 -1.72372 -3.16164 0
M  V30 9358 C 887.85 -3.2645 -3.09435 0
M  V30 9359 C 889.169 -1.46415 -4.15031 0
M  V30 9360 H 886.288 -0.375214 -0.634337 0
M  V30 9361 H 888.93 -1.49321 -1.17487 0
M  V30 9362 H 887.08 -1.32906 -3.65059 0
M  V30 9363 H 888.752 -3.75269 -2.68274 0
M  V30 9364 H 886.995 -3.56889 -2.46603 0
M  V30 9365 H 887.666 -3.70226 -4.09435 0
M  V30 9366 H 890.142 -1.80671 -3.7483 0
M  V30 9367 H 889.018 -1.97544 -5.12121 0
M  V30 9368 H 889.279 -0.39361 -4.40344 0
M  V30 9369 N 888.338 1.20213 -1.01915 0
M  V30 9370 C 889.584 1.89928 -0.711007 0
M  V30 9371 C 889.917 1.7881 0.75767 0
M  V30 9372 O 889.192 1.17399 1.55073 0
M  V30 9373 C 889.475 3.41225 -1.15053 0
M  V30 9374 C 889.328 3.61264 -2.67971 0
M  V30 9375 C 890.647 4.34108 -0.72377 0
M  V30 9376 H 887.766 0.689702 -0.259768 0
M  V30 9377 H 890.408 1.41557 -1.26734 0
M  V30 9378 H 888.558 3.82552 -0.677199 0
M  V30 9379 H 890.23 3.29173 -3.23176 0
M  V30 9380 H 888.473 3.04647 -3.08824 0
M  V30 9381 H 889.144 4.67331 -2.93779 0
M  V30 9382 H 891.62 4.00442 -1.13073 0
M  V30 9383 H 890.496 5.38581 -1.05931 0
M  V30 9384 H 890.757 4.40512 0.374424 0
M  V30 9385 N 889.816 0.795718 1.36037 0
M  V30 9386 C 891.093 0.294743 1.93367 0
M  V30 9387 C 891.473 -1.21406 1.72696 0
M  V30 9388 O 890.821 -2.00849 1.08959 0
M  V30 9389 C 891.031 0.694254 3.42025 0
M  V30 9390 C 892.379 0.677566 4.19159 0
M  V30 9391 O 893.403 0.635119 3.50492 0
M  V30 9392 O 892.262 0.726127 5.41655 0
M  V30 9393 H 889.356 0.0745459 0.823633 0
M  V30 9394 H 891.902 0.878685 1.4518 0
M  V30 9395 H 890.674 1.73458 3.50753 0
M  V30 9396 H 890.297 0.0845338 3.9751 0
M  V30 9397 N 891.294 -1.47756 0.548274 0
M  V30 9398 C 892.571 -1.9555 -0.0443603 0
M  V30 9399 C 892.951 -1.49079 -1.49462 0
M  V30 9400 O 892.299 -0.725538 -2.16675 0
M  V30 9401 C 892.509 -3.48879 0.0918425 0
M  V30 9402 C 893.857 -4.2456 -0.0580879 0
M  V30 9403 O 894.881 -3.56195 0.018946 0
M  V30 9404 O 893.74 -5.46048 -0.222261 0
M  V30 9405 H 890.834 -0.824106 -0.0691235 0
M  V30 9406 H 893.38 -1.58196 0.614166 0
M  V30 9407 H 892.152 -3.7548 1.10137 0
M  V30 9408 H 891.775 -3.92975 -0.604704 0
M  V30 9409 N 892.772 -0.284283 -1.55015 0
M  V30 9410 C 894.021 0.33055 -1.98973 0
M  V30 9411 C 894.334 1.56284 -1.17621 0
M  V30 9412 O 895.54 2.2512 -1.51767 0
M  V30 9413 C 893.996 0.639457 -3.54174 0
M  V30 9414 C 893.604 -0.573543 -4.44313 0
M  V30 9415 C 895.348 1.21641 -4.06699 0
M  V30 9416 C 893.255 -0.238715 -5.90918 0
M  V30 9417 H 892.185 0.127285 -0.743179 0
M  V30 9418 H 894.836 -0.390372 -1.793 0
M  V30 9419 H 893.218 1.41953 -3.69683 0
M  V30 9420 H 894.392 -1.3502 -4.40575 0
M  V30 9421 H 892.707 -1.06797 -4.02472 0
M  V30 9422 H 895.304 1.48088 -5.13784 0
M  V30 9423 H 895.647 2.15328 -3.56286 0
M  V30 9424 H 896.18 0.498422 -3.94665 0
M  V30 9425 H 892.919 -1.1437 -6.45445 0
M  V30 9426 H 892.439 0.500997 -5.97704 0
M  V30 9427 H 894.118 0.165774 -6.46788 0
M  V30 9428 N 894.251 1.57596 -0.0117121 0
M  V30 9429 C 895.161 2.12596 0.991964 0
M  V30 9430 C 896.177 1.07399 1.36899 0
M  V30 9431 O 897.353 1.39365 1.45394 0
M  V30 9432 C 894.418 2.62796 2.2614 0
M  V30 9433 C 893.479 3.8264 1.94642 0
M  V30 9434 C 892.712 4.30435 3.15533 0
M  V30 9435 O 892.935 3.77495 4.27614 0
M  V30 9436 O 891.869 5.22469 2.98847 0
M  V30 9437 H 895.695 2.98597 0.554371 0
M  V30 9438 H 893.28 1.47947 0.207839 0
M  V30 9439 H 895.162 2.9523 3.00695 0
M  V30 9440 H 893.837 1.79886 2.69114 0
M  V30 9441 H 892.744 3.5516 1.17526 0
M  V30 9442 H 894.077 4.66658 1.56496 0
M  V30 9443 N 895.729 -0.261212 1.5542 0
M  V30 9444 C 897.145 -0.609012 1.47524 0
M  V30 9445 C 897.345 -1.88986 0.699042 0
M  V30 9446 O 896.401 -2.51517 0.222628 0
M  V30 9447 C 897.714 -0.725025 2.91828 0
M  V30 9448 C 899.262 -0.818302 3.02114 0
M  V30 9449 C 899.737 -0.965996 4.47697 0
M  V30 9450 N 901.228 -1.03123 4.51575 0
M  V30 9451 C 901.963 -1.16451 5.6145 0
M  V30 9452 N 901.459 -1.26425 6.81167 0
M  V30 9453 N 903.252 -1.19655 5.49217 0
M  V30 9454 H 895.403 0.579807 2.04333 0
M  V30 9455 H 897.666 0.198072 0.927077 0
M  V30 9456 H 897.372 0.145871 3.51397 0
M  V30 9457 H 897.246 -1.60156 3.41511 0
M  V30 9458 H 899.633 -1.67966 2.42634 0
M  V30 9459 H 899.714 0.0830895 2.55665 0
M  V30 9460 H 899.358 -0.109251 5.07782 0
M  V30 9461 H 899.288 -1.88221 4.91813 0
M  V30 9462 H 901.779 -0.966072 3.65343 0
M  V30 9463 H 902.092 -1.36462 7.60656 0
M  V30 9464 H 900.437 -1.23408 6.83956 0
M  V30 9465 H 903.628 -1.11501 4.54626 0
M  V30 9466 H 903.801 -1.29698 6.34888 0
M  V30 9467 N 897.207 -1.48554 -0.526253 0
M  V30 9468 C 898.137 -1.66252 -1.63959 0
M  V30 9469 C 899.118 -0.511351 -1.62232 0
M  V30 9470 O 900.303 -0.744322 -1.7937 0
M  V30 9471 C 897.433 -1.70556 -3.02536 0
M  V30 9472 C 896.387 -2.8521 -3.19123 0
M  V30 9473 C 895.713 -2.74606 -4.58798 0
M  V30 9474 C 897.013 -4.26463 -3.0154 0
M  V30 9475 H 898.707 -2.59459 -1.49404 0
M  V30 9476 H 896.253 -1.24862 -0.717326 0
M  V30 9477 H 898.206 -1.81524 -3.80298 0
M  V30 9478 H 896.93 -0.739297 -3.18123 0
M  V30 9479 H 895.589 -2.73802 -2.43779 0
M  V30 9480 H 895.237 -1.75941 -4.71226 0
M  V30 9481 H 894.937 -3.51544 -4.70841 0
M  V30 9482 H 896.461 -2.87548 -5.38655 0
M  V30 9483 H 897.875 -4.38685 -3.69091 0
M  V30 9484 H 896.272 -5.04428 -3.25073 0
M  V30 9485 H 897.342 -4.42667 -1.97925 0
M  V30 9486 N 898.685 0.775411 -1.37205 0
M  V30 9487 C 899.615 1.90258 -1.35367 0
M  V30 9488 C 900.596 1.68634 -0.222864 0
M  V30 9489 O 901.781 1.89545 -0.422659 0
M  V30 9490 C 898.911 3.27488 -1.15623 0
M  V30 9491 C 897.865 3.63668 -2.25676 0
M  V30 9492 C 897.191 4.994 -1.91059 0
M  V30 9493 C 898.491 3.70797 -3.67841 0
M  V30 9494 H 900.185 1.92053 -2.29687 0
M  V30 9495 H 897.731 0.922597 -1.10563 0
M  V30 9496 H 899.684 4.05976 -1.12968 0
M  V30 9497 H 898.408 3.26117 -0.177573 0
M  V30 9498 H 897.067 2.87486 -2.2748 0
M  V30 9499 H 896.715 4.94565 -0.917324 0
M  V30 9500 H 896.415 5.24576 -2.64751 0
M  V30 9501 H 897.939 5.80291 -1.89985 0
M  V30 9502 H 899.353 4.39444 -3.68187 0
M  V30 9503 H 897.75 4.07468 -4.40556 0
M  V30 9504 H 898.82 2.71549 -4.01732 0
M  V30 9505 N 900.163 1.21714 1.00117 0
M  V30 9506 C 901.44 0.945391 1.71236 0
M  V30 9507 C 901.82 -0.541772 2.0403 0
M  V30 9508 O 901.168 -1.50763 1.71705 0
M  V30 9509 C 901.378 1.83444 2.96899 0
M  V30 9510 C 902.726 2.08558 3.69849 0
M  V30 9511 O 903.75 1.80824 3.06889 0
M  V30 9512 O 902.609 2.55485 4.83104 0
M  V30 9513 H 899.703 0.354834 0.747009 0
M  V30 9514 H 902.249 1.32661 1.05825 0
M  V30 9515 H 901.021 2.84075 2.69105 0
M  V30 9516 H 900.644 1.45428 3.70049 0
M  V30 9517 N 901.641 -1.19671 1.02551 0
M  V30 9518 C 902.871 -1.92952 0.738441 0
M  V30 9519 C 903.279 -1.75528 -0.706155 0
M  V30 9520 O 902.622 -1.0723 -1.49156 0
M  V30 9521 C 902.684 -3.45149 1.00562 0
M  V30 9522 C 902.348 -3.86341 2.44109 0
M  V30 9523 C 903.345 -3.91374 3.42231 0
M  V30 9524 C 901.03 -4.18076 2.7842 0
M  V30 9525 C 903.024 -4.27568 4.7272 0
M  V30 9526 C 900.711 -4.53943 4.0912 0
M  V30 9527 C 901.709 -4.58663 5.06081 0
M  V30 9528 O 901.397 -4.93701 6.3444 0
M  V30 9529 H 901.129 -0.619836 0.269776 0
M  V30 9530 H 903.683 -1.52852 1.37206 0
M  V30 9531 H 901.913 -3.85416 0.314849 0
M  V30 9532 H 903.602 -3.99664 0.708742 0
M  V30 9533 H 904.368 -3.67011 3.17061 0
M  V30 9534 H 900.247 -4.13589 2.03631 0
M  V30 9535 H 903.791 -4.31166 5.48399 0
M  V30 9536 H 899.688 -4.77764 4.34064 0
M  V30 9537 H 900.456 -5.11662 6.38862 0
M  V30 9538 N 903.119 -0.802921 -1.35613 0
M  V30 9539 C 904.365 -0.382141 -1.99167 0
M  V30 9540 C 904.698 1.04704 -1.63556 0
M  V30 9541 O 903.973 1.72578 -0.89706 0
M  V30 9542 C 904.256 -0.561493 -3.55695 0
M  V30 9543 C 904.109 -2.03534 -4.01116 0
M  V30 9544 C 905.428 0.0151135 -4.40097 0
M  V30 9545 H 902.547 -0.140322 -0.723518 0
M  V30 9546 H 905.189 -1.01177 -1.6082 0
M  V30 9547 H 903.339 -0.0255083 -3.88492 0
M  V30 9548 H 905.011 -2.63343 -3.78746 0
M  V30 9549 H 903.254 -2.5331 -3.52159 0
M  V30 9550 H 903.925 -2.11173 -5.1001 0
M  V30 9551 H 906.401 -0.442582 -4.1374 0
M  V30 9552 H 905.277 -0.140316 -5.48721 0
M  V30 9553 H 905.538 1.10848 -4.27978 0
M  V30 9554 N 904.597 1.47463 -0.556102 0
M  V30 9555 C 906.008 1.86298 -0.122429 0
M  V30 9556 C 906.359 1.46285 1.30749 0
M  V30 9557 O 905.484 0.865405 1.98342 0
M  V30 9558 C 906.079 3.38115 -0.215407 0
M  V30 9559 C 904.638 3.76046 0.163223 0
M  V30 9560 C 903.785 2.71515 -0.563466 0
M  V30 9561 H 906.736 1.38996 -0.765888 0
M  V30 9562 H 906.757 3.76263 0.566271 0
M  V30 9563 H 906.269 3.67207 -1.25622 0
M  V30 9564 H 904.37 3.5257 1.20519 0
M  V30 9565 H 904.483 4.78705 -0.194568 0
M  V30 9566 H 902.847 2.54699 -0.00667879 0
M  V30 9567 H 903.63 3.03449 -1.60542 0
M  V30 9568 N 906.075 0.2925 1.54862 0
M  V30 9569 C 907.324 -0.319994 1.99146 0
M  V30 9570 C 907.637 -1.55658 1.18448 0
M  V30 9571 O 908.843 -2.24312 1.52959 0
M  V30 9572 C 907.299 -0.620665 3.54508 0
M  V30 9573 C 906.907 0.597098 4.44003 0
M  V30 9574 C 908.651 -1.19482 4.07338 0
M  V30 9575 C 906.558 0.270049 5.90783 0
M  V30 9576 H 905.488 -0.123342 0.743843 0
M  V30 9577 H 908.139 0.399876 1.7909 0
M  V30 9578 H 906.521 -1.3999 3.7043 0
M  V30 9579 H 907.695 1.37354 4.39853 0
M  V30 9580 H 906.01 1.0893 4.019 0
M  V30 9581 H 908.607 -1.45362 5.14562 0
M  V30 9582 H 908.95 -2.13435 3.57423 0
M  V30 9583 H 909.483 -0.477485 3.94924 0
M  V30 9584 H 906.222 1.17791 6.4483 0
M  V30 9585 H 905.742 -0.469292 5.97961 0
M  V30 9586 H 907.421 -0.131471 6.46866 0
M  V30 9587 N 907.553 -1.57587 0.0200696 0
M  V30 9588 C 908.801 -1.91046 -0.65922 0
M  V30 9589 C 909.122 -0.896197 -1.73186 0
M  V30 9590 O 908.392 0.0635952 -1.95797 0
M  V30 9591 H 906.972 -0.705163 -0.246483 0
M  V30 9592 H 909.634 -1.94789 0.0657368 0
M  V30 9593 H 908.73 -2.91399 -1.11773 0
M  V30 9594 N 909.032 0.252966 -1.55557 0
M  V30 9595 C 910.443 0.822503 -1.67606 0
M  V30 9596 C 910.794 1.86265 -0.616411 0
M  V30 9597 O 909.919 2.15082 0.238447 0
M  V30 9598 C 910.514 1.49866 -3.03852 0
M  V30 9599 C 909.073 2.01597 -3.17861 0
M  V30 9600 C 908.22 0.864943 -2.63465 0
M  V30 9601 H 911.171 0.0288958 -1.58674 0
M  V30 9602 H 911.192 2.36646 -2.97958 0
M  V30 9603 H 910.704 0.741378 -3.80953 0
M  V30 9604 H 908.805 2.80224 -2.45571 0
M  V30 9605 H 908.918 2.21752 -4.24692 0
M  V30 9606 H 907.282 1.2638 -2.21134 0
M  V30 9607 H 908.065 0.120847 -3.43087 0
M  V30 9608 N 910.51 1.48831 0.518367 0
M  V30 9609 C 911.926 1.35209 0.847979 0
M  V30 9610 C 912.126 0.371927 1.98038 0
M  V30 9611 O 911.182 -0.202681 2.51685 0
M  V30 9612 C 912.495 2.7552 1.20455 0
M  V30 9613 C 914.043 2.84094 1.31377 0
M  V30 9614 C 914.518 4.25132 1.70372 0
M  V30 9615 N 916.009 4.27861 1.77453 0
M  V30 9616 C 916.744 5.3394 2.09035 0
M  V30 9617 N 916.24 6.50285 2.3896 0
M  V30 9618 N 918.033 5.21343 2.10139 0
M  V30 9619 H 910.184 2.11166 -0.228624 0
M  V30 9620 H 912.447 0.94717 -0.0396599 0
M  V30 9621 H 912.153 3.48861 0.445991 0
M  V30 9622 H 912.027 3.09785 2.15204 0
M  V30 9623 H 914.414 2.11001 2.06307 0
M  V30 9624 H 914.495 2.53433 0.347203 0
M  V30 9625 H 914.139 4.98745 0.959975 0
M  V30 9626 H 914.069 4.53245 2.68098 0
M  V30 9627 H 916.56 3.43945 1.56557 0
M  V30 9628 H 916.873 7.26961 2.62196 0
M  V30 9629 H 915.218 6.5354 2.36454 0
M  V30 9630 H 918.409 4.29462 1.86225 0
M  V30 9631 H 918.582 6.04112 2.34419 0
M  V30 9632 N 911.988 -0.768124 1.37614 0
M  V30 9633 C 913.235 -1.5268 1.33022 0
M  V30 9634 C 913.563 -1.94318 -0.0841918 0
M  V30 9635 O 912.818 -1.64623 -1.0582 0
M  V30 9636 C 913.117 -2.80204 2.21856 0
M  V30 9637 C 912.783 -2.57602 3.7007 0
M  V30 9638 C 911.445 -2.51146 4.10462 0
M  V30 9639 C 913.797 -2.37482 4.63952 0
M  V30 9640 C 911.125 -2.22566 5.42846 0
M  V30 9641 C 913.477 -2.10425 5.96577 0
M  V30 9642 C 912.141 -2.02416 6.36069 0
M  V30 9643 H 911.411 -0.558697 0.486763 0
M  V30 9644 H 914.058 -0.88447 1.69851 0
M  V30 9645 H 912.363 -3.49014 1.78034 0
M  V30 9646 H 914.06 -3.38099 2.15615 0
M  V30 9647 H 910.65 -2.63491 3.38039 0
M  V30 9648 H 914.834 -2.41457 4.33604 0
M  V30 9649 H 910.09 -2.14863 5.72402 0
M  V30 9650 H 914.264 -1.93857 6.68874 0
M  V30 9651 H 911.891 -1.80034 7.38574 0
M  V30 9652 N 913.466 -1.22244 -0.994698 0
M  V30 9653 C 914.691 -1.07299 -1.77487 0
M  V30 9654 C 915.116 0.372302 -1.84379 0
M  V30 9655 O 914.474 1.2689 -1.29494 0
M  V30 9656 C 914.522 -1.68675 -3.18718 0
M  V30 9657 O 913.626 -0.939202 -4.01563 0
M  V30 9658 H 912.967 -0.376979 -0.546611 0
M  V30 9659 H 915.497 -1.62003 -1.24965 0
M  V30 9660 H 915.507 -1.73324 -3.69354 0
M  V30 9661 H 914.182 -2.73849 -3.13017 0
M  V30 9662 H 912.759 -0.968583 -3.60101 0
M  V30 9663 N 914.944 1.19125 -1.03184 0
M  V30 9664 C 915.892 2.24492 -0.608781 0
M  V30 9665 C 916.886 1.65529 0.360065 0
M  V30 9666 O 918.092 1.78546 0.22832 0
M  V30 9667 H 914.467 0.73048 -0.178616 0
M  V30 9668 H 916.438 2.5749 -1.50803 0
M  V30 9669 C 915.187 3.47693 0.0215126 0
M  V30 9670 H 914.51 3.93354 -0.715024 0
M  V30 9671 H 915.95 4.23072 0.280429 0
M  V30 9672 C 914.409 3.12088 1.26896 0
M  V30 9673 O 914.939 3.25013 2.36071 0
M  V30 9674 N 913.145 2.66494 1.15886 0
M  V30 9675 H 912.692 2.56176 0.270463 0
M  V30 9676 H 912.65 2.43042 1.99444 0
M  V30 9677 N 916.422 0.810101 1.35185 0
M  V30 9678 C 917.352 0.237453 2.32289 0
M  V30 9679 C 918.333 -0.639032 1.5764 0
M  V30 9680 O 919.518 -0.568575 1.8569 0
M  V30 9681 C 916.648 -0.611964 3.41866 0
M  V30 9682 C 915.602 0.166318 4.27677 0
M  V30 9683 C 914.928 -0.805024 5.28605 0
M  V30 9684 C 916.228 1.36729 5.04086 0
M  V30 9685 H 917.922 1.04874 2.80432 0
M  V30 9686 H 915.468 0.505751 1.34826 0
M  V30 9687 H 917.421 -1.02267 4.08802 0
M  V30 9688 H 916.145 -1.45617 2.92341 0
M  V30 9689 H 914.804 0.558238 3.62325 0
M  V30 9690 H 914.452 -1.64483 4.75347 0
M  V30 9691 H 914.152 -0.288577 5.86891 0
M  V30 9692 H 915.676 -1.21386 5.98413 0
M  V30 9693 H 917.09 1.03128 5.63948 0
M  V30 9694 H 915.487 1.81848 5.71884 0
M  V30 9695 H 916.557 2.15214 4.34524 0
M  V30 9696 N 917.9 -1.47166 0.563914 0
M  V30 9697 C 919.146 -2.02756 0.0424338 0
M  V30 9698 C 919.479 -1.43662 -1.3067 0
M  V30 9699 O 918.754 -0.594676 -1.85186 0
M  V30 9700 C 919.037 -3.60074 -0.0434793 0
M  V30 9701 C 918.89 -4.29587 1.33323 0
M  V30 9702 C 920.209 -4.336 -0.753568 0
M  V30 9703 H 917.328 -0.736806 0.0168946 0
M  V30 9704 H 919.97 -1.75521 0.727496 0
M  V30 9705 H 918.12 -3.83409 -0.626906 0
M  V30 9706 H 919.792 -4.17573 1.96037 0
M  V30 9707 H 918.035 -3.8968 1.9061 0
M  V30 9708 H 918.706 -5.38218 1.22576 0
M  V30 9709 H 921.182 -4.15299 -0.258126 0
M  V30 9710 H 920.058 -5.43291 -0.782659 0
M  V30 9711 H 920.319 -4.03302 -1.81108 0
M  V30 9712 N 919.378 -0.300708 -1.54705 0
M  V30 9713 C 920.308 0.568675 -2.26469 0
M  V30 9714 C 921.289 1.13817 -1.26411 0
M  V30 9715 O 922.474 1.16756 -1.55183 0
M  V30 9716 C 919.604 1.74077 -3.00524 0
M  V30 9717 C 918.558 1.30165 -4.07727 0
M  V30 9718 C 917.884 2.55888 -4.69495 0
M  V30 9719 C 919.184 0.433106 -5.20501 0
M  V30 9720 H 920.878 -0.0298851 -2.99385 0
M  V30 9721 H 918.424 -0.0158135 -1.43991 0
M  V30 9722 H 920.377 2.35506 -3.49449 0
M  V30 9723 H 919.101 2.36556 -2.25186 0
M  V30 9724 H 917.76 0.710414 -3.59651 0
M  V30 9725 H 917.408 3.16681 -3.90797 0
M  V30 9726 H 917.108 2.27207 -5.41895 0
M  V30 9727 H 918.632 3.18121 -5.21183 0
M  V30 9728 H 920.046 0.95307 -5.65322 0
M  V30 9729 H 918.443 0.240085 -5.9962 0
M  V30 9730 H 919.513 -0.541866 -4.81863 0
M  V30 9731 N 920.856 1.57574 -0.0284266 0
M  V30 9732 C 921.788 2.07079 0.982391 0
M  V30 9733 C 922.801 0.994078 1.28926 0
M  V30 9734 O 923.99 1.27028 1.25404 0
M  V30 9735 C 921.09 2.47978 2.30998 0
M  V30 9736 C 920.263 3.7872 2.18838 0
M  V30 9737 C 919.322 4.06177 3.34524 0
M  V30 9738 O 918.348 4.76438 3.11441 0
M  V30 9739 N 919.55 3.56297 4.58293 0
M  V30 9740 H 922.315 2.94421 0.560011 0
M  V30 9741 H 919.876 1.61124 0.158347 0
M  V30 9742 H 921.868 2.63439 3.07216 0
M  V30 9743 H 920.438 1.66005 2.64879 0
M  V30 9744 H 919.658 3.73062 1.27351 0
M  V30 9745 H 920.946 4.6438 2.07915 0
M  V30 9746 H 920.344 2.99453 4.79942 0
M  V30 9747 H 918.901 3.77038 5.31682 0
M  V30 9748 N 922.334 -0.244713 1.55689 0
M  V30 9749 C 923.297 -1.2864 1.89695 0
M  V30 9750 C 924.297 -1.40969 0.773583 0
M  V30 9751 O 925.487 -1.39632 1.04156 0
M  V30 9752 C 922.619 -2.66379 2.12732 0
M  V30 9753 H 923.812 -0.997033 2.82841 0
M  V30 9754 H 921.365 -0.484103 1.48614 0
M  V30 9755 H 922.1 -3.00452 1.22062 0
M  V30 9756 H 921.885 -2.58812 2.94549 0
M  V30 9757 H 923.375 -3.41592 2.40218 0
M  V30 9758 N 923.813 -1.49104 -0.510467 0
M  V30 9759 C 924.743 -1.67981 -1.62187 0
M  V30 9760 C 925.724 -0.528529 -1.6168 0
M  V30 9761 O 926.909 -0.763305 -1.7857 0
M  V30 9762 C 924.039 -1.73755 -3.0071 0
M  V30 9763 C 922.993 -2.88579 -3.1608 0
M  V30 9764 C 922.319 -2.79457 -4.5586 0
M  V30 9765 C 923.619 -4.29638 -2.97 0
M  V30 9766 H 925.313 -2.61029 -1.46643 0
M  V30 9767 H 922.859 -1.25615 -0.704042 0
M  V30 9768 H 924.812 -1.85548 -3.78352 0
M  V30 9769 H 923.536 -0.772996 -3.17321 0
M  V30 9770 H 922.195 -2.76372 -2.40861 0
M  V30 9771 H 921.843 -1.80929 -4.69333 0
M  V30 9772 H 921.543 -3.56518 -4.67086 0
M  V30 9773 H 923.067 -2.93245 -5.35574 0
M  V30 9774 H 924.481 -4.42575 -3.64418 0
M  V30 9775 H 922.878 -5.07847 -3.19704 0
M  V30 9776 H 923.948 -4.44741 -1.93219 0
M  V30 9777 N 925.291 0.760815 -1.38019 0
M  V30 9778 C 926.221 1.88811 -1.37377 0
M  V30 9779 C 927.202 1.68388 -0.240737 0
M  V30 9780 O 928.387 1.89086 -0.442739 0
M  V30 9781 C 925.517 3.26244 -1.1909 0
M  V30 9782 C 924.471 3.61254 -2.29521 0
M  V30 9783 C 923.797 4.97346 -1.96345 0
M  V30 9784 C 925.097 3.66874 -3.71753 0
M  V30 9785 H 926.791 1.89606 -2.31711 0
M  V30 9786 H 924.337 0.910818 -1.11535 0
M  V30 9787 H 926.29 4.04755 -1.17267 0
M  V30 9788 H 925.014 3.2591 -0.212152 0
M  V30 9789 H 923.673 2.85057 -2.30517 0
M  V30 9790 H 923.321 4.93564 -0.969728 0
M  V30 9791 H 923.021 5.21739 -2.703 0
M  V30 9792 H 924.545 5.78244 -1.96129 0
M  V30 9793 H 925.959 4.35514 -3.72828 0
M  V30 9794 H 924.356 4.02772 -4.44853 0
M  V30 9795 H 925.426 2.67273 -4.0459 0
M  V30 9796 N 926.769 1.22769 0.988202 0
M  V30 9797 C 928.015 1.05665 1.73097 0
M  V30 9798 C 928.348 -0.406615 1.89895 0
M  V30 9799 O 927.623 -1.30132 1.44554 0
M  V30 9800 C 927.906 1.77381 3.13382 0
M  V30 9801 C 927.759 3.31332 3.04203 0
M  V30 9802 C 929.078 1.52999 4.12649 0
M  V30 9803 H 926.197 0.385258 0.628288 0
M  V30 9804 H 928.839 1.51171 1.15097 0
M  V30 9805 H 926.989 1.38696 3.62899 0
M  V30 9806 H 928.661 3.79489 2.6227 0
M  V30 9807 H 926.904 3.60767 2.40894 0
M  V30 9808 H 927.575 3.76692 4.03493 0
M  V30 9809 H 930.051 1.86611 3.71908 0
M  V30 9810 H 928.927 2.05666 5.08913 0
M  V30 9811 H 929.188 0.463615 4.39662 0
M  V30 9812 N 928.247 -1.18576 1.03814 0
M  V30 9813 C 929.177 -2.24334 0.647795 0
M  V30 9814 C 930.158 -1.66508 -0.34774 0
M  V30 9815 O 931.343 -1.92852 -0.228401 0
M  V30 9816 C 928.473 -3.47299 0.00734922 0
M  V30 9817 C 927.427 -4.17859 0.926152 0
M  V30 9818 C 926.753 -5.34489 0.150317 0
M  V30 9819 C 928.053 -4.71632 2.24411 0
M  V30 9820 H 929.747 -2.57241 1.53191 0
M  V30 9821 H 927.293 -1.23649 0.738028 0
M  V30 9822 H 929.246 -4.20486 -0.277434 0
M  V30 9823 H 927.97 -3.13619 -0.911626 0
M  V30 9824 H 926.629 -3.46567 1.19528 0
M  V30 9825 H 926.277 -4.97056 -0.770985 0
M  V30 9826 H 925.977 -5.82633 0.762407 0
M  V30 9827 H 927.501 -6.10467 -0.127508 0
M  V30 9828 H 928.915 -5.36526 2.02021 0
M  V30 9829 H 927.312 -5.303 2.80894 0
M  V30 9830 H 928.382 -3.89192 2.89236 0
M  V30 9831 N 929.725 -0.817259 -1.34754 0
M  V30 9832 C 930.655 -0.249769 -2.3216 0
M  V30 9833 C 931.636 0.630663 -1.57977 0
M  V30 9834 O 932.821 0.558719 -1.85989 0
M  V30 9835 C 929.951 0.593825 -3.42186 0
M  V30 9836 C 928.905 -0.188997 -4.27583 0
M  V30 9837 C 928.231 0.776979 -5.29025 0
M  V30 9838 C 929.531 -1.39401 -5.03354 0
M  V30 9839 H 931.225 -1.06359 -2.79872 0
M  V30 9840 H 928.771 -0.512894 -1.34556 0
M  V30 9841 H 930.724 1.00097 -4.09339 0
M  V30 9842 H 929.448 1.44064 -2.93109 0
M  V30 9843 H 928.107 -0.577445 -3.62024 0
M  V30 9844 H 927.755 1.61959 -4.76212 0
M  V30 9845 H 927.455 0.257448 -5.87036 0
M  V30 9846 H 928.979 1.18211 -5.99048 0
M  V30 9847 H 930.393 -1.06117 -5.63393 0
M  V30 9848 H 928.79 -1.84878 -5.70912 0
M  V30 9849 H 929.86 -2.17515 -4.33377 0
M  V30 9850 N 931.203 1.46865 -0.571711 0
M  V30 9851 C 932.15 2.30189 0.167808 0
M  V30 9852 C 933.12 1.3995 0.89461 0
M  V30 9853 O 934.305 1.68905 0.887451 0
M  V30 9854 C 931.445 3.24205 1.1826 0
M  V30 9855 C 930.558 4.2954 0.460376 0
M  V30 9856 C 929.693 5.10693 1.46173 0
M  V30 9857 C 928.732 6.07788 0.725291 0
M  V30 9858 N 927.869 6.81847 1.67417 0
M  V30 9859 H 932.709 2.92902 -0.548831 0
M  V30 9860 H 930.246 1.44362 -0.282474 0
M  V30 9861 H 932.204 3.77147 1.7837 0
M  V30 9862 H 930.834 2.63324 1.86709 0
M  V30 9863 H 929.886 3.79541 -0.255546 0
M  V30 9864 H 931.198 4.98665 -0.115855 0
M  V30 9865 H 930.352 5.67857 2.13595 0
M  V30 9866 H 929.091 4.41502 2.07188 0
M  V30 9867 H 928.096 5.49787 0.037228 0
M  V30 9868 H 929.321 6.78993 0.120678 0
M  V30 9869 H 927.267 6.15376 2.27263 0
M  V30 9870 H 927.184 7.47195 1.15046 0
M  V30 9871 H 928.452 7.43577 2.33908 0
M  V30 9872 N 932.681 0.308908 1.54543 0
M  V30 9873 C 933.628 -0.563659 2.23811 0
M  V30 9874 C 934.598 -1.12332 1.22355 0
M  V30 9875 O 935.783 -1.16638 1.50997 0
M  V30 9876 C 932.923 -1.72585 2.98845 0
M  V30 9877 C 932.036 -1.19682 4.1509 0
M  V30 9878 C 931.171 -2.32351 4.77688 0
M  V30 9879 C 930.21 -1.76623 5.86064 0
M  V30 9880 N 929.347 -2.82896 6.42584 0
M  V30 9881 H 934.187 0.0336288 2.97981 0
M  V30 9882 H 931.724 0.0283666 1.47073 0
M  V30 9883 H 933.682 -2.40951 3.40586 0
M  V30 9884 H 932.312 -2.29464 2.27037 0
M  V30 9885 H 931.364 -0.405173 3.78236 0
M  V30 9886 H 932.676 -0.748923 4.93146 0
M  V30 9887 H 931.83 -3.0865 5.22322 0
M  V30 9888 H 930.569 -2.80472 3.98982 0
M  V30 9889 H 929.574 -0.988171 5.40847 0
M  V30 9890 H 930.799 -1.29398 6.66658 0
M  V30 9891 H 928.745 -3.30336 5.66758 0
M  V30 9892 H 928.662 -2.42626 7.16009 0
M  V30 9893 H 929.93 -3.59068 6.91875 0
M  V30 9894 N 934.159 -1.57557 0.0367827 0
M  V30 9895 C 935.122 -2.09591 -0.927589 0
M  V30 9896 C 936.122 -1.01252 -1.24919 0
M  V30 9897 O 937.312 -1.27382 -1.18825 0
M  V30 9898 C 934.444 -2.56816 -2.24184 0
M  V30 9899 H 935.637 -2.96086 -0.476784 0
M  V30 9900 H 933.19 -1.54864 -0.211385 0
M  V30 9901 H 933.925 -1.73673 -2.73876 0
M  V30 9902 H 933.71 -3.35973 -2.0215 0
M  V30 9903 H 935.2 -2.97271 -2.93291 0
M  V30 9904 N 935.637 0.236453 -1.55816 0
M  V30 9905 C 937.048 0.80468 -1.68469 0
M  V30 9906 C 937.399 1.85601 -0.636133 0
M  V30 9907 O 936.524 2.15323 0.215622 0
M  V30 9908 C 937.119 1.46634 -3.05424 0
M  V30 9909 C 935.678 1.98214 -3.19981 0
M  V30 9910 C 934.825 0.83695 -2.64368 0
M  V30 9911 H 937.776 0.0120647 -1.58695 0
M  V30 9912 H 937.797 2.33472 -3.00451 0
M  V30 9913 H 937.309 0.700931 -3.81718 0
M  V30 9914 H 935.41 2.77604 -2.4853 0
M  V30 9915 H 935.523 2.17235 -4.2702 0
M  V30 9916 H 933.887 1.24028 -2.22462 0
M  V30 9917 H 934.67 0.084451 -3.43196 0
M  V30 9918 N 937.115 1.49373 0.502552 0
M  V30 9919 C 938.526 1.52 1.0841 0
M  V30 9920 C 938.877 0.305317 1.9381 0
M  V30 9921 O 938.002 -0.585023 2.08342 0
M  V30 9922 C 938.597 2.75437 1.97281 0
M  V30 9923 C 937.156 2.80848 2.50602 0
M  V30 9924 C 936.303 2.45894 1.28186 0
M  V30 9925 H 939.254 1.56092 0.286533 0
M  V30 9926 H 939.275 2.55511 2.81947 0
M  V30 9927 H 938.787 3.63827 1.35098 0
M  V30 9928 H 936.888 1.96735 3.16427 0
M  V30 9929 H 937.001 3.82979 2.8786 0
M  V30 9930 H 935.365 1.97639 1.60657 0
M  V30 9931 H 936.148 3.36556 0.677139 0
M  V30 9932 N 938.594 -0.753485 1.38421 0
M  V30 9933 C 939.526 -1.87692 1.31547 0
M  V30 9934 C 940.539 -1.612 0.227671 0
M  V30 9935 O 941.728 -1.71778 0.485238 0
M  V30 9936 C 938.828 -3.23329 1.01545 0
M  V30 9937 C 938.001 -3.77324 2.21236 0
M  V30 9938 C 937.06 -4.91478 1.87977 0
M  V30 9939 O 936.086 -5.06106 2.60472 0
M  V30 9940 N 937.288 -5.74466 0.834796 0
M  V30 9941 H 940.053 -1.94099 2.28354 0
M  V30 9942 H 937.614 -0.933421 1.32283 0
M  V30 9943 H 939.606 -3.9724 0.773477 0
M  V30 9944 H 938.176 -3.12307 0.135334 0
M  V30 9945 H 937.396 -2.94978 2.61498 0
M  V30 9946 H 938.684 -4.10131 3.01115 0
M  V30 9947 H 938.082 -5.65217 0.233606 0
M  V30 9948 H 936.639 -6.48524 0.652703 0
M  V30 9949 N 940.072 -1.23292 -0.981677 0
M  V30 9950 C 941.32 -1.06214 -1.71939 0
M  V30 9951 C 941.641 0.401989 -1.90812 0
M  V30 9952 O 940.911 1.28825 -1.47584 0
M  V30 9953 H 939.491 -0.390042 -0.637084 0
M  V30 9954 H 942.153 -1.54988 -1.18173 0
M  V30 9955 H 941.249 -1.54904 -2.70945 0
M  V30 9956 N 941.55 1.18024 -1.04442 0
M  V30 9957 C 942.966 1.40107 -0.76435 0
M  V30 9958 C 943.166 1.90914 0.644516 0
M  V30 9959 O 942.222 2.0959 1.40813 0
M  V30 9960 C 943.535 2.39851 -1.81361 0
M  V30 9961 C 945.083 2.53571 -1.83496 0
M  V30 9962 C 945.558 3.56583 -2.87424 0
M  V30 9963 N 947.049 3.64094 -2.86339 0
M  V30 9964 C 947.784 4.43537 -3.63405 0
M  V30 9965 N 947.28 5.26557 -4.50233 0
M  V30 9966 N 949.073 4.38336 -3.51877 0
M  V30 9967 H 941.224 0.833726 -1.95353 0
M  V30 9968 H 943.487 0.42881 -0.845474 0
M  V30 9969 H 943.193 2.09576 -2.82438 0
M  V30 9970 H 943.067 3.39251 -1.6489 0
M  V30 9971 H 945.454 2.83161 -0.830883 0
M  V30 9972 H 945.535 1.54272 -2.04044 0
M  V30 9973 H 945.179 3.27733 -3.88012 0
M  V30 9974 H 945.109 4.55569 -2.6413 0
M  V30 9975 H 947.6 3.04814 -2.23376 0
M  V30 9976 H 947.913 5.84336 -5.05738 0
M  V30 9977 H 946.258 5.25964 -4.54298 0
M  V30 9978 H 949.449 3.72528 -2.83444 0
M  V30 9979 H 949.622 5.00007 -4.12186 0
M  V30 9980 N 943.028 0.824394 1.34319 0
M  V30 9981 C 943.975 0.245282 2.29493 0
M  V30 9982 C 944.945 -0.630762 1.53657 0
M  V30 9983 O 946.13 -0.572094 1.82021 0
M  V30 9984 C 943.27 -0.585631 3.40095 0
M  V30 9985 C 942.383 0.312821 4.30866 0
M  V30 9986 C 941.518 -0.527801 5.28571 0
M  V30 9987 C 940.557 0.369946 6.10981 0
M  V30 9988 N 939.694 -0.43169 7.00772 0
M  V30 9989 H 944.534 1.06225 2.78425 0
M  V30 9990 H 942.071 0.53533 1.37013 0
M  V30 9991 H 944.029 -1.08271 4.02906 0
M  V30 9992 H 942.659 -1.3677 2.92393 0
M  V30 9993 H 941.711 0.928129 3.68904 0
M  V30 9994 H 943.023 1.00306 4.8861 0
M  V30 9995 H 942.177 -1.0893 5.96841 0
M  V30 9996 H 940.916 -1.25154 4.71368 0
M  V30 9997 H 939.921 0.943577 5.41643 0
M  V30 9998 H 941.146 1.09182 6.70266 0
M  V30 9999 H 939.092 -1.13908 6.46035 0
M  V30 10000 H 939.009 0.200133 7.55735 0
M  V30 10001 H 940.277 -0.975894 7.73367 0
M  V30 10002 N 944.506 -1.46559 0.579492 0
M  V30 10003 C 945.436 -2.33059 -0.143437 0
M  V30 10004 C 946.417 -1.4515 -0.886868 0
M  V30 10005 O 947.602 -1.73973 -0.862961 0
M  V30 10006 C 944.732 -3.27364 -1.15973 0
M  V30 10007 C 943.686 -4.24689 -0.531348 0
M  V30 10008 C 943.012 -5.08479 -1.65388 0
M  V30 10009 C 944.312 -5.1961 0.529391 0
M  V30 10010 H 946.006 -2.93753 0.578762 0
M  V30 10011 H 943.552 -1.41256 0.279775 0
M  V30 10012 H 945.505 -3.86732 -1.67382 0
M  V30 10013 H 944.229 -2.64771 -1.91217 0
M  V30 10014 H 942.888 -3.6658 -0.0383749 0
M  V30 10015 H 942.536 -4.42273 -2.3959 0
M  V30 10016 H 942.236 -5.74387 -1.23909 0
M  V30 10017 H 943.76 -5.70709 -2.17079 0
M  V30 10018 H 945.174 -5.73212 0.100506 0
M  V30 10019 H 943.571 -5.93843 0.86432 0
M  V30 10020 H 944.641 -4.63737 1.4169 0
M  V30 10021 N 945.984 -0.3171 -1.54377 0
M  V30 10022 C 946.914 0.544623 -2.2706 0
M  V30 10023 C 947.895 1.12469 -1.27611 0
M  V30 10024 O 949.08 1.15103 -1.56413 0
M  V30 10025 C 946.21 1.70879 -3.02353 0
M  V30 10026 C 945.164 1.25833 -4.09084 0
M  V30 10027 C 944.49 2.50894 -4.72182 0
M  V30 10028 C 945.79 0.377876 -5.20931 0
M  V30 10029 H 947.484 -0.0616372 -2.99337 0
M  V30 10030 H 945.03 -0.0310848 -1.43966 0
M  V30 10031 H 946.983 2.31787 -3.51927 0
M  V30 10032 H 945.707 2.34155 -2.27682 0
M  V30 10033 H 944.366 0.672228 -3.60384 0
M  V30 10034 H 944.014 3.12518 -3.94134 0
M  V30 10035 H 943.714 2.21447 -5.44275 0
M  V30 10036 H 945.238 3.12575 -5.24528 0
M  V30 10037 H 946.652 0.893056 -5.66302 0
M  V30 10038 H 945.049 0.176474 -5.9984 0
M  V30 10039 H 946.119 -0.592943 -4.81261 0
M  V30 10040 N 947.462 1.57535 -0.0451378 0
M  V30 10041 C 948.711 1.91628 0.629415 0
M  V30 10042 C 949.024 0.924754 1.72359 0
M  V30 10043 O 950.23 1.15751 2.45589 0
M  V30 10044 C 948.686 3.40322 1.17084 0
M  V30 10045 C 948.294 4.47867 0.109101 0
M  V30 10046 C 950.038 3.83458 1.82099 0
M  V30 10047 C 947.945 5.87671 0.663072 0
M  V30 10048 H 946.875 0.715163 0.238868 0
M  V30 10049 H 949.526 1.83151 -0.113046 0
M  V30 10050 H 947.908 3.43783 1.96543 0
M  V30 10051 H 949.082 4.55988 -0.664201 0
M  V30 10052 H 947.397 4.14034 -0.443227 0
M  V30 10053 H 949.994 4.85273 2.2453 0
M  V30 10054 H 950.337 3.19379 2.67026 0
M  V30 10055 H 950.87 3.82488 1.09305 0
M  V30 10056 H 947.609 6.55332 -0.148423 0
M  V30 10057 H 947.129 5.83124 1.4045 0
M  V30 10058 H 948.808 6.36737 1.14785 0
M  V30 10059 N 948.94 -0.228186 1.55939 0
M  V30 10060 C 950.189 -0.951563 1.77843 0
M  V30 10061 C 950.502 -1.85763 0.612501 0
M  V30 10062 O 951.708 -2.61916 0.715006 0
M  V30 10063 C 950.164 -1.74216 3.14923 0
M  V30 10064 C 949.772 -0.882569 4.39221 0
M  V30 10065 C 951.516 -2.45715 3.46156 0
M  V30 10066 C 949.423 -1.67014 5.67327 0
M  V30 10067 H 948.353 -0.359035 0.663031 0
M  V30 10068 H 951.004 -0.205636 1.82344 0
M  V30 10069 H 949.386 -2.53075 3.0458 0
M  V30 10070 H 950.56 -0.13499 4.60602 0
M  V30 10071 H 948.875 -0.280022 4.15457 0
M  V30 10072 H 951.472 -3.05127 4.39092 0
M  V30 10073 H 951.815 -3.1827 2.68346 0
M  V30 10074 H 952.348 -1.73852 3.57799 0
M  V30 10075 H 949.087 -0.987985 6.48012 0
M  V30 10076 H 948.607 -2.3925 5.50018 0
M  V30 10077 H 950.286 -2.23252 6.07262 0
M  V30 10078 N 950.418 -1.49637 -0.494624 0
M  V30 10079 C 951.666 -1.5913 -1.24587 0
M  V30 10080 C 951.987 -0.282828 -1.92938 0
M  V30 10081 O 951.257 0.69825 -1.83034 0
M  V30 10082 H 949.837 -0.586329 -0.462847 0
M  V30 10083 H 952.499 -1.86296 -0.572696 0
M  V30 10084 H 951.595 -2.3906 -2.00641 0
M  V30 10085 N 951.896 0.746133 -1.38819 0
M  V30 10086 C 953.124 1.53539 -1.38685 0
M  V30 10087 C 953.539 1.88788 0.0215039 0
M  V30 10088 O 952.896 1.53312 0.990031 0
M  V30 10089 C 952.947 2.8299 -2.24942 0
M  V30 10090 O 952.668 2.49242 -3.60292 0
M  V30 10091 C 954.169 3.77085 -2.3307 0
M  V30 10092 H 951.389 0.474842 -0.474095 0
M  V30 10093 H 953.933 0.922844 -1.82493 0
M  V30 10094 H 952.088 3.40603 -1.84576 0
M  V30 10095 H 952.502 3.32319 -4.05789 0
M  V30 10096 H 953.976 4.64845 -2.97696 0
M  V30 10097 H 954.453 4.18049 -1.34655 0
M  V30 10098 H 955.059 3.25394 -2.73859 0
M  V30 10099 N 953.375 1.23811 0.975125 0
M  V30 10100 C 954.603 1.10019 1.75224 0
M  V30 10101 C 955.018 -0.34791 1.85567 0
M  V30 10102 O 954.375 -1.24043 1.33864 0
M  V30 10103 C 954.426 1.72572 3.1765 0
M  V30 10104 O 954.147 3.11719 3.07836 0
M  V30 10105 C 955.648 1.64292 4.11732 0
M  V30 10106 H 952.868 0.38476 0.549728 0
M  V30 10107 H 955.412 1.63768 1.22476 0
M  V30 10108 H 953.567 1.22843 3.67408 0
M  V30 10109 H 953.981 3.42152 3.97533 0
M  V30 10110 H 955.455 2.12754 5.09352 0
M  V30 10111 H 955.932 0.602722 4.35045 0
M  V30 10112 H 956.538 2.13411 3.6788 0
M  V30 10113 N 954.853 -1.17469 1.05066 0
M  V30 10114 C 956.078 -1.92162 0.780298 0
M  V30 10115 C 956.503 -1.76222 -0.657832 0
M  V30 10116 O 955.861 -1.0791 -1.45688 0
M  V30 10117 C 955.909 -3.41292 1.16414 0
M  V30 10118 O 955.013 -4.1134 0.295531 0
M  V30 10119 H 954.354 -0.599127 0.286257 0
M  V30 10120 H 956.884 -1.48903 1.40318 0
M  V30 10121 H 956.894 -3.92029 1.13036 0
M  V30 10122 H 955.569 -3.52214 2.21175 0
M  V30 10123 H 954.146 -3.70857 0.389797 0
M  V30 10124 N 956.331 -0.831506 -1.3388 0
M  V30 10125 C 957.747 -0.518349 -1.50948 0
M  V30 10126 C 957.947 0.955807 -1.77388 0
M  V30 10127 O 957.003 1.73993 -1.82983 0
M  V30 10128 C 958.316 -1.38531 -2.66889 0
M  V30 10129 C 959.864 -1.38332 -2.80772 0
M  V30 10130 C 960.339 -2.23497 -3.99766 0
M  V30 10131 N 961.83 -2.21167 -4.06988 0
M  V30 10132 C 962.565 -2.83805 -4.98239 0
M  V30 10133 N 962.061 -3.55468 -5.94655 0
M  V30 10134 N 963.854 -2.73314 -4.91178 0
M  V30 10135 H 956.005 -1.78588 -1.14978 0
M  V30 10136 H 958.268 -0.761508 -0.564633 0
M  V30 10137 H 957.974 -2.43255 -2.54007 0
M  V30 10138 H 957.848 -1.05611 -3.62114 0
M  V30 10139 H 960.235 -0.343832 -2.9309 0
M  V30 10140 H 960.316 -1.75256 -1.86331 0
M  V30 10141 H 959.96 -3.27501 -3.88208 0
M  V30 10142 H 959.89 -1.83919 -4.93438 0
M  V30 10143 H 962.381 -1.69046 -3.37982 0
M  V30 10144 H 962.694 -4.00487 -6.60931 0
M  V30 10145 H 961.039 -3.59575 -5.94753 0
M  V30 10146 H 964.23 -2.16897 -4.14817 0
M  V30 10147 H 964.403 -3.22416 -5.62096 0
M  V30 10148 N 957.809 1.4625 -0.587256 0
M  V30 10149 C 958.756 2.30354 0.143384 0
M  V30 10150 C 959.726 1.40891 0.879716 0
M  V30 10151 O 960.911 1.69837 0.869486 0
M  V30 10152 C 958.051 3.25441 1.14815 0
M  V30 10153 C 957.164 4.30004 0.414792 0
M  V30 10154 C 956.299 5.12214 1.40748 0
M  V30 10155 C 955.338 6.08523 0.660786 0
M  V30 10156 N 954.475 6.83585 1.60176 0
M  V30 10157 H 959.315 2.92304 -0.579866 0
M  V30 10158 H 956.852 1.44055 -0.29777 0
M  V30 10159 H 958.81 3.79018 1.7436 0
M  V30 10160 H 957.44 2.6529 1.83906 0
M  V30 10161 H 956.492 3.79248 -0.295787 0
M  V30 10162 H 957.804 4.98515 -0.168738 0
M  V30 10163 H 956.958 5.70091 2.0756 0
M  V30 10164 H 955.697 4.43675 2.02494 0
M  V30 10165 H 954.702 5.49796 -0.0210864 0
M  V30 10166 H 955.927 6.79083 0.0486551 0
M  V30 10167 H 953.873 6.17752 2.20724 0
M  V30 10168 H 953.79 7.48373 1.07115 0
M  V30 10169 H 955.058 7.46016 2.26009 0
M  V30 10170 N 959.287 0.325282 1.54207 0
M  V30 10171 C 960.564 -0.33113 1.92777 0
M  V30 10172 C 960.944 -1.69739 1.25506 0
M  V30 10173 O 960.292 -2.24983 0.399385 0
M  V30 10174 C 960.502 -0.421636 3.46444 0
M  V30 10175 C 961.85 -0.681111 4.19101 0
M  V30 10176 O 962.874 -0.504488 3.52609 0
M  V30 10177 O 961.733 -1.02196 5.3686 0
M  V30 10178 H 958.827 -0.18943 0.805013 0
M  V30 10179 H 961.373 0.375123 1.65502 0
M  V30 10180 H 960.145 0.537862 3.87586 0
M  V30 10181 H 959.768 -1.1754 3.79829 0
M  V30 10182 N 960.765 -1.57509 0.0534917 0
M  V30 10183 C 962.011 -1.93068 -0.62069 0
M  V30 10184 C 962.344 -0.932313 -1.70357 0
M  V30 10185 O 961.619 0.0413393 -1.94456 0
M  V30 10186 C 961.902 -3.38997 -1.21463 0
M  V30 10187 C 961.755 -4.49583 -0.13965 0
M  V30 10188 C 963.074 -3.85366 -2.12558 0
M  V30 10189 H 960.193 -0.702083 -0.224163 0
M  V30 10190 H 962.835 -1.89647 0.115729 0
M  V30 10191 H 960.985 -3.42043 -1.84226 0
M  V30 10192 H 962.657 -4.58664 0.492411 0
M  V30 10193 H 960.9 -4.30525 0.532006 0
M  V30 10194 H 961.571 -5.48781 -0.595287 0
M  V30 10195 H 964.047 -3.8421 -1.59755 0
M  V30 10196 H 962.923 -4.8812 -2.51058 0
M  V30 10197 H 963.184 -3.22256 -3.02661 0
M  V30 10198 N 962.243 0.219913 -1.56058 0
M  V30 10199 C 963.173 1.27572 -1.9557 0
M  V30 10200 C 964.154 1.48801 -0.824148 0
M  V30 10201 O 965.339 1.60957 -1.08658 0
M  V30 10202 C 962.469 2.62517 -2.27381 0
M  V30 10203 C 961.423 2.55941 -3.43042 0
M  V30 10204 C 960.749 3.94931 -3.60463 0
M  V30 10205 C 962.049 2.10584 -4.77966 0
M  V30 10206 H 963.743 0.947482 -2.84013 0
M  V30 10207 H 961.289 0.454337 -1.36645 0
M  V30 10208 H 963.242 3.36538 -2.53615 0
M  V30 10209 H 961.966 2.97031 -1.35794 0
M  V30 10210 H 960.625 1.84377 -3.1686 0
M  V30 10211 H 960.273 4.26756 -2.66249 0
M  V30 10212 H 959.973 3.91413 -4.38258 0
M  V30 10213 H 961.497 4.70611 -3.89046 0
M  V30 10214 H 962.911 2.74349 -5.03394 0
M  V30 10215 H 961.308 2.18122 -5.59055 0
M  V30 10216 H 962.378 1.05818 -4.73213 0
M  V30 10217 N 963.721 1.49897 0.486681 0
M  V30 10218 C 964.653 1.63755 1.60365 0
M  V30 10219 C 965.666 0.519614 1.54285 0
M  V30 10220 O 966.855 0.792219 1.59957 0
M  V30 10221 C 963.955 1.59153 2.99205 0
M  V30 10222 C 963.128 2.8672 3.30319 0
M  V30 10223 C 962.187 2.74974 4.48638 0
M  V30 10224 O 961.213 3.48922 4.49714 0
M  V30 10225 N 962.415 1.87479 5.49392 0
M  V30 10226 H 965.18 2.60094 1.48899 0
M  V30 10227 H 962.741 1.47166 0.674825 0
M  V30 10228 H 964.733 1.4893 3.76301 0
M  V30 10229 H 963.303 0.706133 3.0452 0
M  V30 10230 H 962.523 3.11188 2.41983 0
M  V30 10231 H 963.811 3.71262 3.47911 0
M  V30 10232 H 963.209 1.26684 5.51333 0
M  V30 10233 H 961.766 1.83169 6.25534 0
M  V30 10234 N 965.199 -0.738761 1.39212 0
M  V30 10235 C 966.109 -1.88324 1.39897 0
M  V30 10236 C 967.125 -1.71494 0.294229 0
M  V30 10237 O 968.301 -1.94162 0.535087 0
M  V30 10238 C 965.366 -3.23871 1.23726 0
M  V30 10239 C 964.427 -3.53121 2.44139 0
M  V30 10240 C 963.66 -4.82202 2.2873 0
M  V30 10241 O 963.883 -5.55649 1.28879 0
M  V30 10242 O 962.817 -5.11265 3.17634 0
M  V30 10243 H 966.643 -1.90701 2.36362 0
M  V30 10244 H 964.228 -0.886067 1.20288 0
M  V30 10245 H 966.11 -4.04882 1.16826 0
M  V30 10246 H 964.785 -3.22274 0.303551 0
M  V30 10247 H 963.692 -2.72212 2.56615 0
M  V30 10248 H 965.025 -3.59495 3.36191 0
M  V30 10249 N 966.677 -1.24326 -0.968545 0
M  V30 10250 C 967.61 -0.978121 -2.06175 0
M  V30 10251 C 968.588 0.0878107 -1.62363 0
M  V30 10252 O 969.772 -0.0489472 -1.88436 0
M  V30 10253 C 966.899 -0.475884 -3.3534 0
M  V30 10254 C 965.945 -1.53023 -3.98103 0
M  V30 10255 S 966.778 -3.11131 -4.35841 0
M  V30 10256 C 967.934 -2.62608 -5.68144 0
M  V30 10257 H 968.167 -1.9038 -2.28348 0
M  V30 10258 H 965.7 -1.07701 -1.10633 0
M  V30 10259 H 967.658 -0.192739 -4.10047 0
M  V30 10260 H 966.319 0.429067 -3.11156 0
M  V30 10261 H 965.512 -1.12922 -4.91187 0
M  V30 10262 H 965.114 -1.76334 -3.29822 0
M  V30 10263 H 967.406 -2.05367 -6.45624 0
M  V30 10264 H 968.349 -3.54277 -6.13101 0
M  V30 10265 H 968.757 -2.03063 -5.26712 0
M  V30 10266 N 968.156 1.1691 -1.05688 0
M  V30 10267 C 969.066 2.24735 -0.67315 0
M  V30 10268 C 970.082 1.71252 0.308043 0
M  V30 10269 O 971.258 2.00772 0.158889 0
M  V30 10270 C 968.323 3.4665 -0.059026 0
M  V30 10271 C 967.384 4.15198 -1.0913 0
M  V30 10272 C 966.617 5.31292 -0.50639 0
M  V30 10273 O 966.84 5.663 0.682692 0
M  V30 10274 O 965.774 5.88923 -1.2431 0
M  V30 10275 H 969.6 2.59855 -1.57191 0
M  V30 10276 H 967.185 1.24306 -0.828751 0
M  V30 10277 H 969.067 4.20455 0.282018 0
M  V30 10278 H 967.742 3.13316 0.813304 0
M  V30 10279 H 966.649 3.43389 -1.48442 0
M  V30 10280 H 967.982 4.52571 -1.93495 0
M  V30 10281 N 969.634 0.838594 1.33437 0
M  V30 10282 C 970.567 0.216651 2.27169 0
M  V30 10283 C 971.545 -0.636065 1.49643 0
M  V30 10284 O 972.729 -0.596388 1.78817 0
M  V30 10285 C 969.856 -0.69584 3.31475 0
M  V30 10286 C 968.902 0.0813808 4.26422 0
M  V30 10287 S 969.735 1.43909 5.15801 0
M  V30 10288 C 970.891 0.531887 6.23636 0
M  V30 10289 H 971.124 1.01128 2.79572 0
M  V30 10290 H 968.657 0.635332 1.40723 0
M  V30 10291 H 970.615 -1.21671 3.92054 0
M  V30 10292 H 969.276 -1.46413 2.77888 0
M  V30 10293 H 968.469 -0.612944 5.00259 0
M  V30 10294 H 968.071 0.533304 3.70178 0
M  V30 10295 H 970.363 -0.270371 6.7696 0
M  V30 10296 H 971.306 1.24041 6.97151 0
M  V30 10297 H 971.714 0.113357 5.64386 0
M  V30 10298 N 971.112 -1.45937 0.595003 0
M  V30 10299 C 972.042 -2.33198 -0.11871 0
M  V30 10300 C 973.023 -1.46083 -0.871423 0
M  V30 10301 O 974.208 -1.74879 -0.844461 0
M  V30 10302 C 971.338 -3.28576 -1.12495 0
M  V30 10303 C 970.292 -4.25229 -0.486275 0
M  V30 10304 C 969.618 -5.10204 -1.59986 0
M  V30 10305 C 970.918 -5.19019 0.584473 0
M  V30 10306 H 972.612 -2.93122 0.609886 0
M  V30 10307 H 970.158 -1.40951 0.294742 0
M  V30 10308 H 972.111 -3.88485 -1.6327 0
M  V30 10309 H 970.835 -2.66784 -1.88398 0
M  V30 10310 H 969.494 -3.666 0.000507962 0
M  V30 10311 H 969.142 -4.44789 -2.34886 0
M  V30 10312 H 968.842 -5.75669 -1.1781 0
M  V30 10313 H 970.366 -5.7298 -2.11014 0
M  V30 10314 H 971.78 -5.73073 0.161297 0
M  V30 10315 H 970.177 -5.92893 0.927256 0
M  V30 10316 H 971.247 -4.62208 1.46601 0
M  V30 10317 N 972.59 -0.333456 -1.54032 0
M  V30 10318 C 973.538 0.543414 -2.26163 0
M  V30 10319 C 974.532 1.11037 -1.27934 0
M  V30 10320 O 975.738 1.05727 -1.45677 0
M  V30 10321 H 972.113 0.19391 -0.726569 0
M  V30 10322 H 974.084 -0.0871052 -2.98273 0
M  V30 10323 C 972.833 1.68769 -3.03994 0
M  V30 10324 H 972.156 1.26069 -3.79403 0
M  V30 10325 H 973.596 2.27662 -3.57695 0
M  V30 10326 C 972.055 2.61117 -2.12884 0
M  V30 10327 O 972.585 3.63097 -1.71823 0
M  V30 10328 N 970.791 2.29573 -1.7817 0
M  V30 10329 H 970.338 1.46684 -2.11759 0
M  V30 10330 H 970.296 2.91622 -1.1749 0
M  V30 10331 N 974.068 1.57479 -0.061844 0
M  V30 10332 C 975.031 2.1104 0.894127 0
M  V30 10333 C 976.031 1.03227 1.23292 0
M  V30 10334 O 977.221 1.29256 1.16784 0
M  V30 10335 C 974.353 2.6035 2.20069 0
M  V30 10336 H 975.546 2.96807 0.429619 0
M  V30 10337 H 973.099 1.55181 0.18672 0
M  V30 10338 H 973.834 1.78008 2.71079 0
M  V30 10339 H 973.619 3.39146 1.9678 0
M  V30 10340 H 975.109 3.019 2.88525 0
M  V30 10341 N 975.546 -0.211634 1.56173 0
M  V30 10342 C 976.793 -0.93455 1.79645 0
M  V30 10343 C 977.121 -1.83936 0.632294 0
M  V30 10344 O 976.376 -1.91919 -0.382841 0
M  V30 10345 C 976.675 -1.79657 3.08963 0
M  V30 10346 C 976.341 -1.04415 4.38644 0
M  V30 10347 C 975.003 -0.836351 4.73876 0
M  V30 10348 C 977.355 -0.51355 5.18664 0
M  V30 10349 C 974.683 -0.0861976 5.86637 0
M  V30 10350 C 977.035 0.223309 6.32206 0
M  V30 10351 C 975.699 0.442279 6.66033 0
M  V30 10352 H 974.969 -0.341976 0.657368 0
M  V30 10353 H 977.616 -0.202024 1.90431 0
M  V30 10354 H 975.921 -2.59726 2.93342 0
M  V30 10355 H 977.618 -2.35823 3.24328 0
M  V30 10356 H 974.208 -1.21611 4.10985 0
M  V30 10357 H 978.392 -0.661541 4.91871 0
M  V30 10358 H 973.648 0.0935866 6.11328 0
M  V30 10359 H 977.822 0.641917 6.93435 0
M  V30 10360 H 975.449 1.02547 7.53252 0
M  V30 10361 N 977.024 -1.50153 -0.478725 0
M  V30 10362 C 978.249 -1.64776 -1.2595 0
M  V30 10363 C 978.674 -0.327794 -1.85222 0
M  V30 10364 O 978.032 0.707418 -1.66929 0
M  V30 10365 C 978.08 -2.73551 -2.34952 0
M  V30 10366 O 977.184 -2.34273 -3.39397 0
M  V30 10367 H 976.525 -0.550769 -0.370877 0
M  V30 10368 H 979.055 -1.96482 -0.570605 0
M  V30 10369 H 979.065 -2.96397 -2.8038 0
M  V30 10370 H 977.74 -3.69354 -1.91181 0
M  V30 10371 H 976.317 -2.21844 -2.99733 0
M  V30 10372 N 978.502 0.731368 -1.39602 0
M  V30 10373 C 979.73 1.52059 -1.40305 0
M  V30 10374 C 980.145 1.888 0.00147921 0
M  V30 10375 O 979.502 1.54354 0.973715 0
M  V30 10376 C 979.553 2.80588 -2.27931 0
M  V30 10377 O 979.274 2.45406 -3.62915 0
M  V30 10378 C 980.775 3.74592 -2.37056 0
M  V30 10379 H 977.995 0.469787 -0.479104 0
M  V30 10380 H 980.539 0.903436 -1.83462 0
M  V30 10381 H 978.694 3.38626 -1.88178 0
M  V30 10382 H 979.108 3.27996 -4.09291 0
M  V30 10383 H 980.582 4.61662 -3.02609 0
M  V30 10384 H 981.059 4.16597 -1.39081 0
M  V30 10385 H 981.665 3.22471 -2.77295 0
M  V30 10386 N 979.98 1.24838 0.961938 0
M  V30 10387 C 981.208 1.11871 1.74047 0
M  V30 10388 C 981.623 -0.328209 1.85925 0
M  V30 10389 O 980.98 -1.22616 1.35173 0
M  V30 10390 C 981.031 1.75931 3.15801 0
M  V30 10391 O 980.752 3.14967 3.04512 0
M  V30 10392 C 982.253 1.68649 4.09966 0
M  V30 10393 H 979.473 0.390569 0.545616 0
M  V30 10394 H 982.017 1.65058 1.20732 0
M  V30 10395 H 980.172 1.26733 3.66084 0
M  V30 10396 H 980.586 3.46349 3.93882 0
M  V30 10397 H 982.06 2.18144 5.07067 0
M  V30 10398 H 982.537 0.648831 4.34381 0
M  V30 10399 H 983.143 2.17301 3.65596 0
M  V30 10400 N 981.458 -1.16348 1.06306 0
M  V30 10401 C 982.707 -1.8622 0.774909 0
M  V30 10402 C 983.02 -1.82598 -0.701245 0
M  V30 10403 O 984.226 -2.48051 -1.10377 0
M  V30 10404 C 982.682 -3.34182 1.33604 0
M  V30 10405 C 982.29 -3.46279 2.84245 0
M  V30 10406 C 984.034 -4.09309 1.12544 0
M  V30 10407 C 981.941 -4.88327 3.33602 0
M  V30 10408 H 980.871 -0.697574 0.286194 0
M  V30 10409 H 983.522 -1.31311 1.28179 0
M  V30 10410 H 981.904 -3.88698 0.756937 0
M  V30 10411 H 983.078 -3.01923 3.48108 0
M  V30 10412 H 981.393 -2.84585 3.03974 0
M  V30 10413 H 983.99 -5.14123 1.46909 0
M  V30 10414 H 984.333 -4.16251 0.0638129 0
M  V30 10415 H 984.866 -3.61032 1.67034 0
M  V30 10416 H 981.605 -4.86565 4.39244 0
M  V30 10417 H 981.125 -5.33307 2.74487 0
M  V30 10418 H 982.804 -5.57144 3.28937 0
M  V30 10419 N 982.937 -0.845659 -1.3299 0
M  V30 10420 C 983.887 -0.2557 -2.26562 0
M  V30 10421 C 984.871 0.593245 -1.49564 0
M  V30 10422 O 986.063 0.444101 -1.71338 0
M  V30 10423 C 983.192 0.562573 -3.38659 0
M  V30 10424 C 982.278 -0.298259 -4.2305 0
M  V30 10425 N 982.669 -1.38023 -4.86604 0
M  V30 10426 C 980.967 -0.0864539 -4.45916 0
M  V30 10427 C 981.668 -1.90907 -5.49481 0
M  V30 10428 N 980.644 -1.20955 -5.29973 0
M  V30 10429 H 984.446 -1.083 -2.73219 0
M  V30 10430 H 981.96 -0.690823 -1.46974 0
M  V30 10431 H 983.957 1.00157 -4.0469 0
M  V30 10432 H 982.617 1.38777 -2.93549 0
M  V30 10433 H 983.628 -1.76314 -4.86964 0
M  V30 10434 H 980.305 0.70475 -4.11509 0
M  V30 10435 H 981.695 -2.81552 -6.10064 0
M  V30 10436 N 984.415 1.45619 -0.602734 0
M  V30 10437 C 985.661 2.02572 -0.0961759 0
M  V30 10438 C 985.994 1.47076 1.26815 0
M  V30 10439 O 985.269 0.643566 1.83544 0
M  V30 10440 C 985.552 3.60062 -0.0520032 0
M  V30 10441 C 985.405 4.25901 -1.44665 0
M  V30 10442 C 986.724 4.35446 0.638342 0
M  V30 10443 H 983.843 0.736099 -0.0364238 0
M  V30 10444 H 986.485 1.7353 -0.773776 0
M  V30 10445 H 984.635 3.84936 0.525032 0
M  V30 10446 H 986.307 4.12228 -2.0704 0
M  V30 10447 H 984.55 3.84489 -2.00874 0
M  V30 10448 H 985.221 5.34779 -1.36803 0
M  V30 10449 H 987.697 4.15837 0.147926 0
M  V30 10450 H 986.573 5.45176 0.63834 0
M  V30 10451 H 986.834 4.07962 1.70351 0
M  V30 10452 N 985.893 0.34162 1.53853 0
M  V30 10453 C 987.304 -0.14269 1.86154 0
M  V30 10454 C 987.655 -1.50151 1.2629 0
M  V30 10455 O 986.78 -2.08601 0.575735 0
M  V30 10456 C 987.375 -0.265691 3.37757 0
M  V30 10457 C 985.934 -0.694231 3.69942 0
M  V30 10458 C 985.081 0.173195 2.76759 0
M  V30 10459 H 988.032 0.561284 1.48443 0
M  V30 10460 H 988.053 -1.09352 3.64448 0
M  V30 10461 H 987.565 0.723424 3.81298 0
M  V30 10462 H 985.666 -1.69244 3.31945 0
M  V30 10463 H 985.779 -0.485461 4.76634 0
M  V30 10464 H 984.143 -0.35416 2.52226 0
M  V30 10465 H 984.926 1.15941 3.23129 0
M  V30 10466 N 987.371 -1.57444 0.0701946 0
M  V30 10467 C 988.319 -2.13834 -0.915302 0
M  V30 10468 C 989.313 -1.07483 -1.30934 0
M  V30 10469 O 990.519 -1.25865 -1.28678 0
M  V30 10470 H 986.894 -0.683716 -0.313108 0
M  V30 10471 H 988.865 -2.95503 -0.414758 0
M  V30 10472 C 987.614 -2.71355 -2.17398 0
M  V30 10473 H 986.937 -3.52861 -1.87961 0
M  V30 10474 H 988.377 -3.1441 -2.84469 0
M  V30 10475 C 986.836 -1.66038 -2.93143 0
M  V30 10476 O 987.366 -1.08443 -3.86786 0
M  V30 10477 N 985.572 -1.3711 -2.56221 0
M  V30 10478 H 985.119 -1.84135 -1.80145 0
M  V30 10479 H 985.077 -0.66877 -3.07205 0
M  V30 10480 N 988.849 0.203349 -1.56283 0
M  V30 10481 C 990.098 0.92315 -1.79334 0
M  V30 10482 C 990.411 1.84765 -0.641977 0
M  V30 10483 O 991.617 2.60745 -0.756584 0
M  V30 10484 C 990.073 1.69184 -3.17655 0
M  V30 10485 C 989.681 0.812581 -4.40569 0
M  V30 10486 C 991.425 2.40177 -3.50022 0
M  V30 10487 C 989.332 1.57967 -5.69913 0
M  V30 10488 H 988.262 0.348442 -0.668659 0
M  V30 10489 H 990.913 0.1766 -1.82648 0
M  V30 10490 H 989.295 2.48197 -3.08568 0
M  V30 10491 H 990.469 0.0616956 -4.60759 0
M  V30 10492 H 988.784 0.21389 -4.1585 0
M  V30 10493 H 991.381 2.98103 -4.4389 0
M  V30 10494 H 991.724 3.13961 -2.73376 0
M  V30 10495 H 992.257 1.68138 -3.6052 0
M  V30 10496 H 988.996 0.884767 -6.49501 0
M  V30 10497 H 988.516 2.3047 -5.53754 0
M  V30 10498 H 990.195 2.13562 -6.10737 0
M  V30 10499 N 990.327 1.50405 0.470755 0
M  V30 10500 C 991.29 1.68741 1.5511 0
M  V30 10501 C 992.29 0.558116 1.50804 0
M  V30 10502 O 993.48 0.825149 1.53418 0
M  V30 10503 C 990.612 1.71295 2.94739 0
M  V30 10504 H 991.805 2.65127 1.40169 0
M  V30 10505 H 989.358 1.39891 0.697156 0
M  V30 10506 H 990.093 0.766029 3.15123 0
M  V30 10507 H 989.878 2.53336 2.99271 0
M  V30 10508 H 991.368 1.87434 3.73173 0
M  V30 10509 N 991.805 -0.723954 1.39988 0
M  V30 10510 C 993.033 -1.51313 1.4111 0
M  V30 10511 C 993.448 -1.88798 0.00853333 0
M  V30 10512 O 992.805 -1.54868 -0.965516 0
M  V30 10513 C 992.856 -2.79375 2.29416 0
M  V30 10514 O 992.577 -2.43478 3.64211 0
M  V30 10515 C 994.078 -3.7333 2.3904 0
M  V30 10516 H 991.298 -0.46724 0.481589 0
M  V30 10517 H 993.842 -0.893694 1.83938 0
M  V30 10518 H 991.997 -3.37624 1.89971 0
M  V30 10519 H 992.411 -3.25821 4.11024 0
M  V30 10520 H 993.885 -4.60051 3.05053 0
M  V30 10521 H 994.362 -4.15854 1.41289 0
M  V30 10522 H 994.968 -3.20996 2.79001 0
M  V30 10523 N 993.283 -1.25346 -0.955304 0
M  V30 10524 C 994.531 -1.09837 -1.69647 0
M  V30 10525 C 994.852 0.361425 -1.91621 0
M  V30 10526 O 994.122 1.25666 -1.50283 0
M  V30 10527 H 992.702 -0.403467 -0.628668 0
M  V30 10528 H 995.364 -1.57459 -1.14859 0
M  V30 10529 H 994.46 -1.60616 -2.67598 0
M  V30 10530 N 994.761 1.15782 -1.06922 0
M  V30 10531 C 995.671 2.24008 -0.696948 0
M  V30 10532 C 996.687 1.71569 0.289862 0
M  V30 10533 O 997.863 2.00929 0.137585 0
M  V30 10534 C 994.928 3.46568 -0.0957895 0
M  V30 10535 C 993.989 4.14017 -1.13528 0
M  V30 10536 C 993.222 5.30725 -0.562713 0
M  V30 10537 O 993.445 5.66992 0.62259 0
M  V30 10538 O 992.379 5.87572 -1.30549 0
M  V30 10539 H 996.205 2.58174 -1.59938 0
M  V30 10540 H 993.79 1.2342 -0.841889 0
M  V30 10541 H 995.672 4.20731 0.237407 0
M  V30 10542 H 994.347 3.14161 0.780027 0
M  V30 10543 H 993.254 3.41795 -1.52076 0
M  V30 10544 H 994.587 4.50493 -1.98285 0
M  V30 10545 N 996.239 0.8527 1.3254 0
M  V30 10546 C 997.171 0.253181 2.27797 0
M  V30 10547 C 998.184 -0.573977 1.52346 0
M  V30 10548 O 999.373 -0.398786 1.73988 0
M  V30 10549 C 996.473 -0.661034 3.32391 0
M  V30 10550 C 995.646 0.12984 4.37207 0
M  V30 10551 C 994.705 -0.709837 5.2139 0
M  V30 10552 O 993.731 -0.144056 5.69018 0
M  V30 10553 N 994.933 -2.0249 5.44039 0
M  V30 10554 H 997.698 1.07171 2.79883 0
M  V30 10555 H 995.259 0.712491 1.45379 0
M  V30 10556 H 997.251 -1.22806 3.85617 0
M  V30 10557 H 995.821 -1.38025 2.80478 0
M  V30 10558 H 995.041 0.878289 3.84291 0
M  V30 10559 H 996.329 0.673141 5.04328 0
M  V30 10560 H 995.727 -2.50792 5.0707 0
M  V30 10561 H 994.284 -2.5401 6.00269 0
M  V30 10562 N 997.718 -1.45297 0.610449 0
M  V30 10563 C 998.648 -2.33311 -0.0939698 0
M  V30 10564 C 999.629 -1.46999 -0.85588 0
M  V30 10565 O 1000.81 -1.75764 -0.825865 0
M  V30 10566 C 997.944 -3.29751 -1.09003 0
M  V30 10567 C 996.898 -4.2572 -0.441146 0
M  V30 10568 C 996.224 -5.11873 -1.54566 0
M  V30 10569 C 997.524 -5.1837 0.639489 0
M  V30 10570 H 999.218 -2.92459 0.640941 0
M  V30 10571 H 996.764 -1.40631 0.309675 0
M  V30 10572 H 998.717 -3.90195 -1.59141 0
M  V30 10573 H 997.441 -2.68768 -1.85557 0
M  V30 10574 H 996.1 -3.66579 0.0393908 0
M  V30 10575 H 995.748 -4.47256 -2.30155 0
M  V30 10576 H 995.448 -5.76886 -1.11698 0
M  V30 10577 H 996.972 -5.75185 -2.04925 0
M  V30 10578 H 998.386 -5.7287 0.22207 0
M  V30 10579 H 996.783 -5.91876 0.990089 0
M  V30 10580 H 997.853 -4.60627 1.51495 0
M  V30 10581 N 999.196 -0.349774 -1.5367 0
M  V30 10582 C 1000.13 0.496338 -2.28164 0
M  V30 10583 C 1001.11 1.09737 -1.29968 0
M  V30 10584 O 1002.29 1.11759 -1.58819 0
M  V30 10585 C 999.422 1.64428 -3.0591 0
M  V30 10586 C 998.376 1.17127 -4.11661 0
M  V30 10587 C 997.702 2.40822 -4.77398 0
M  V30 10588 C 999.002 0.267293 -5.21616 0
M  V30 10589 H 1000.7 -0.125117 -2.99138 0
M  V30 10590 H 998.242 -0.0616152 -1.43868 0
M  V30 10591 H 1000.19 2.2427 -3.56765 0
M  V30 10592 H 998.919 2.29272 -2.32598 0
M  V30 10593 H 997.578 0.595634 -3.61729 0
M  V30 10594 H 997.226 3.04088 -4.00674 0
M  V30 10595 H 996.926 2.09852 -5.48849 0
M  V30 10596 H 998.45 3.01378 -5.3104 0
M  V30 10597 H 999.864 0.772734 -5.68068 0
M  V30 10598 H 998.261 0.0491991 -6.0008 0
M  V30 10599 H 999.331 -0.694892 -4.79895 0
M  V30 10600 N 1000.67 1.57404 -0.0785433 0
M  V30 10601 C 1001.58 2.16612 0.900902 0
M  V30 10602 C 1002.6 1.13109 1.32221 0
M  V30 10603 O 1003.78 1.45406 1.39352 0
M  V30 10604 C 1000.84 2.7215 2.14791 0
M  V30 10605 C 999.902 3.90551 1.78237 0
M  V30 10606 C 999.135 4.43431 2.96993 0
M  V30 10607 O 999.358 3.95292 4.11218 0
M  V30 10608 O 998.292 5.34674 2.76418 0
M  V30 10609 H 1002.12 3.0068 0.427227 0
M  V30 10610 H 999.703 1.48696 0.144902 0
M  V30 10611 H 1001.58 3.07718 2.87902 0
M  V30 10612 H 1000.26 1.91139 2.61243 0
M  V30 10613 H 999.167 3.59825 1.02357 0
M  V30 10614 H 1000.5 4.72876 1.36562 0
M  V30 10615 N 1002.15 -0.195058 1.56388 0
M  V30 10616 C 1003.11 -1.2254 1.93692 0
M  V30 10617 C 1004.11 -1.38437 0.81804 0
M  V30 10618 O 1005.3 -1.36248 1.08545 0
M  V30 10619 C 1002.44 -2.59476 2.21099 0
M  V30 10620 H 1003.63 -0.906544 2.8587 0
M  V30 10621 H 1001.18 -0.436577 1.50079 0
M  V30 10622 H 1001.92 -2.96417 1.31558 0
M  V30 10623 H 1001.7 -2.4931 3.02634 0
M  V30 10624 H 1003.19 -3.33777 2.50964 0
M  V30 10625 N 1003.63 -1.50653 -0.462772 0
M  V30 10626 C 1004.56 -1.73056 -1.5676 0
M  V30 10627 C 1005.54 -0.579699 -1.59917 0
M  V30 10628 O 1006.73 -0.819729 -1.76051 0
M  V30 10629 C 1003.86 -1.83234 -2.9503 0
M  V30 10630 C 1002.81 -2.98488 -3.06739 0
M  V30 10631 C 1002.14 -2.93818 -4.46738 0
M  V30 10632 C 1003.44 -4.38869 -2.83181 0
M  V30 10633 H 1005.13 -2.65562 -1.38265 0
M  V30 10634 H 1002.68 -1.27792 -0.663722 0
M  V30 10635 H 1004.63 -1.97491 -3.72257 0
M  V30 10636 H 1003.35 -0.873558 -3.14701 0
M  V30 10637 H 1002.01 -2.83895 -2.31946 0
M  V30 10638 H 1001.66 -1.95769 -4.63339 0
M  V30 10639 H 1001.36 -3.71197 -4.55507 0
M  V30 10640 H 1002.88 -3.10135 -5.25974 0
M  V30 10641 H 1004.3 -4.53945 -3.50153 0
M  V30 10642 H 1002.69 -5.17762 -3.03386 0
M  V30 10643 H 1003.76 -4.50663 -1.78972 0
M  V30 10644 N 1005.11 0.71652 -1.4037 0
M  V30 10645 C 1006.02 1.86074 -1.42876 0
M  V30 10646 C 1007.03 1.71005 -0.321475 0
M  V30 10647 O 1008.21 1.93286 -0.565909 0
M  V30 10648 C 1005.28 3.21862 -1.28863 0
M  V30 10649 C 1004.34 3.49193 -2.49726 0
M  V30 10650 C 1003.57 4.78502 -2.36372 0
M  V30 10651 O 1003.79 5.53529 -1.37703 0
M  V30 10652 O 1002.73 5.06147 -3.25728 0
M  V30 10653 H 1006.55 1.86916 -2.39366 0
M  V30 10654 H 1004.14 0.866818 -1.21683 0
M  V30 10655 H 1006.02 4.02972 -1.23253 0
M  V30 10656 H 1004.69 3.2175 -0.354783 0
M  V30 10657 H 1003.6 2.68095 -2.60913 0
M  V30 10658 H 1004.93 3.54101 -3.41868 0
M  V30 10659 N 1006.59 1.25851 0.948643 0
M  V30 10660 C 1007.52 1.09248 2.06367 0
M  V30 10661 C 1008.5 -0.000205168 1.701 0
M  V30 10662 O 1009.68 0.170442 1.93451 0
M  V30 10663 C 1006.81 0.716777 3.39823 0
M  V30 10664 C 1005.77 1.76036 3.90122 0
M  V30 10665 C 1005.09 1.23918 5.20143 0
M  V30 10666 C 1006.39 3.16039 4.15833 0
M  V30 10667 H 1008.09 2.02518 2.20515 0
M  V30 10668 H 1005.63 0.975093 1.05962 0
M  V30 10669 H 1007.59 0.587531 4.17284 0
M  V30 10670 H 1006.31 -0.251626 3.25629 0
M  V30 10671 H 1004.97 1.87815 3.14835 0
M  V30 10672 H 1004.62 0.260836 5.02323 0
M  V30 10673 H 1004.32 1.93673 5.54765 0
M  V30 10674 H 1005.84 1.12245 6.00194 0
M  V30 10675 H 1007.25 3.0738 4.83933 0
M  V30 10676 H 1005.65 3.83317 4.61723 0
M  V30 10677 H 1006.72 3.62652 3.21887 0
M  V30 10678 N 1008.06 -1.15214 1.07534 0
M  V30 10679 C 1008.99 -2.2216 0.718837 0
M  V30 10680 C 1009.98 -1.6753 -0.29459 0
M  V30 10681 O 1011.16 -1.93481 -0.166931 0
M  V30 10682 C 1008.29 -3.471 0.117836 0
M  V30 10683 C 1007.24 -4.14701 1.05862 0
M  V30 10684 C 1006.57 -5.3374 0.320284 0
M  V30 10685 C 1007.87 -4.64254 2.39302 0
M  V30 10686 H 1009.56 -2.52237 1.61297 0
M  V30 10687 H 1007.11 -1.21239 0.776992 0
M  V30 10688 H 1009.06 -4.21156 -0.143519 0
M  V30 10689 H 1007.79 -3.16361 -0.811389 0
M  V30 10690 H 1006.45 -3.42589 1.30493 0
M  V30 10691 H 1006.09 -4.99257 -0.61246 0
M  V30 10692 H 1005.79 -5.79912 0.947381 0
M  V30 10693 H 1007.32 -6.10563 0.0667721 0
M  V30 10694 H 1008.73 -5.29827 2.18988 0
M  V30 10695 H 1007.13 -5.21095 2.97623 0
M  V30 10696 H 1008.2 -3.79793 3.01472 0
M  V30 10697 N 1009.54 -0.859717 -1.32086 0
M  V30 10698 C 1010.79 -0.464662 -1.96686 0
M  V30 10699 C 1011.11 0.98412 -1.68345 0
M  V30 10700 O 1010.38 1.68847 -0.993361 0
M  V30 10701 H 1008.96 -0.168838 -0.727669 0
M  V30 10702 H 1011.62 -1.09726 -1.61079 0
M  V30 10703 H 1010.72 -0.613904 -3.06003 0
M  V30 10704 N 1011.02 1.44971 -0.618145 0
M  V30 10705 C 1011.97 2.32354 0.106846 0
M  V30 10706 C 1012.96 1.4659 0.848984 0
M  V30 10707 O 1014.17 1.63012 0.763354 0
M  V30 10708 H 1010.54 0.750108 0.0533109 0
M  V30 10709 H 1012.51 2.9127 -0.648426 0
M  V30 10710 C 1011.26 3.30381 1.08368 0
M  V30 10711 H 1010.59 3.96377 0.52205 0
M  V30 10712 H 1012.03 3.94231 1.56069 0
M  V30 10713 C 1010.49 2.58336 2.1625 0
M  V30 10714 O 1011.02 2.37258 3.24148 0
M  V30 10715 N 1009.22 2.18292 1.91825 0
M  V30 10716 H 1008.77 2.35635 1.04086 0
M  V30 10717 H 1008.73 1.70413 2.6421 0
M  V30 10718 N 1012.5 0.357919 1.53482 0
M  V30 10719 C 1013.75 -0.234163 2.01142 0
M  V30 10720 C 1014.07 -1.49399 1.2454 0
M  V30 10721 O 1013.33 -1.92981 0.325111 0
M  V30 10722 C 1013.63 -0.579617 3.52669 0
M  V30 10723 C 1013.29 0.584988 4.47089 0
M  V30 10724 C 1011.96 0.904558 4.72622 0
M  V30 10725 C 1014.31 1.3656 5.02992 0
M  V30 10726 C 1011.64 2.00685 5.5131 0
M  V30 10727 C 1013.99 2.45824 5.82884 0
M  V30 10728 C 1012.65 2.78325 6.06706 0
M  V30 10729 H 1011.92 -0.0856863 0.736029 0
M  V30 10730 H 1014.57 0.488801 1.85157 0
M  V30 10731 H 1012.87 -1.38349 3.66561 0
M  V30 10732 H 1014.57 -1.04985 3.87013 0
M  V30 10733 H 1011.16 0.32587 4.27359 0
M  V30 10734 H 1015.34 1.13196 4.83219 0
M  V30 10735 H 1010.6 2.26272 5.67988 0
M  V30 10736 H 1014.77 3.06732 6.25211 0
M  V30 10737 H 1012.4 3.63862 6.67464 0
M  V30 10738 N 1013.98 -1.5736 0.0868897 0
M  V30 10739 C 1014.92 -2.13571 -0.874996 0
M  V30 10740 C 1015.89 -1.0521 -1.2853 0
M  V30 10741 O 1017.08 -1.32954 -1.3685 0
M  V30 10742 C 1014.22 -2.71386 -2.13175 0
M  V30 10743 C 1013.33 -3.93953 -1.77272 0
M  V30 10744 C 1012.47 -4.3996 -2.97671 0
M  V30 10745 C 1011.51 -5.55137 -2.57856 0
M  V30 10746 N 1010.64 -5.96034 -3.71064 0
M  V30 10747 H 1015.48 -2.95453 -0.388789 0
M  V30 10748 H 1013.02 -1.45992 -0.180242 0
M  V30 10749 H 1014.98 -3.03022 -2.86764 0
M  V30 10750 H 1013.61 -1.92245 -2.5931 0
M  V30 10751 H 1012.66 -3.68683 -0.936845 0
M  V30 10752 H 1013.97 -4.77565 -1.43989 0
M  V30 10753 H 1013.13 -4.73337 -3.79522 0
M  V30 10754 H 1011.86 -3.55232 -3.34158 0
M  V30 10755 H 1010.87 -5.21397 -1.7443 0
M  V30 10756 H 1012.09 -6.41608 -2.22522 0
M  V30 10757 H 1010.04 -5.14253 -4.07284 0
M  V30 10758 H 1009.96 -6.74423 -3.41599 0
M  V30 10759 H 1011.23 -6.34038 -4.53449 0
M  V30 10760 N 1015.45 0.186762 -1.56489 0
M  V30 10761 C 1016.73 0.932229 -1.71956 0
M  V30 10762 C 1017.11 2.01037 -0.644006 0
M  V30 10763 O 1016.46 2.259 0.343694 0
M  V30 10764 C 1016.67 1.51106 -3.14592 0
M  V30 10765 C 1018.02 1.98997 -3.75081 0
M  V30 10766 O 1019.04 1.60931 -3.17773 0
M  V30 10767 O 1017.9 2.69067 -4.75673 0
M  V30 10768 H 1014.99 0.437736 -0.701652 0
M  V30 10769 H 1017.54 0.175803 -1.68787 0
M  V30 10770 H 1016.31 0.734327 -3.84348 0
M  V30 10771 H 1015.94 2.33209 -3.22024 0
M  V30 10772 N 1016.93 1.50896 0.454776 0
M  V30 10773 C 1017.88 1.70947 1.55067 0
M  V30 10774 C 1018.85 0.550899 1.56698 0
M  V30 10775 O 1020.03 0.783352 1.73978 0
M  V30 10776 C 1017.17 1.82455 2.92924 0
M  V30 10777 C 1016.29 3.09919 3.00956 0
M  V30 10778 C 1015.42 3.12125 4.29827 0
M  V30 10779 C 1014.46 4.33975 4.31662 0
M  V30 10780 N 1013.6 4.33828 5.5203 0
M  V30 10781 H 1018.44 2.645 1.37273 0
M  V30 10782 H 1015.98 1.31101 0.667148 0
M  V30 10783 H 1017.93 1.87108 3.72889 0
M  V30 10784 H 1016.56 0.92327 3.09315 0
M  V30 10785 H 1015.62 3.14659 2.13761 0
M  V30 10786 H 1016.93 3.99869 2.98172 0
M  V30 10787 H 1016.08 3.15598 5.18154 0
M  V30 10788 H 1014.82 2.20033 4.35243 0
M  V30 10789 H 1013.83 4.30697 3.41731 0
M  V30 10790 H 1015.05 5.27312 4.27924 0
M  V30 10791 H 1013 3.44598 5.58201 0
M  V30 10792 H 1012.91 5.17566 5.51055 0
M  V30 10793 H 1014.18 4.4147 6.42437 0
M  V30 10794 N 1018.41 -0.709066 1.40748 0
M  V30 10795 C 1019.32 -1.85314 1.43861 0
M  V30 10796 C 1020.34 -1.70832 0.330539 0
M  V30 10797 O 1021.51 -1.92983 0.576152 0
M  V30 10798 C 1018.58 -3.21174 1.30568 0
M  V30 10799 C 1017.64 -3.47863 2.51574 0
M  V30 10800 C 1016.87 -4.77241 2.38906 0
M  V30 10801 O 1017.09 -5.52791 1.40636 0
M  V30 10802 O 1016.03 -5.04413 3.28407 0
M  V30 10803 H 1019.85 -1.85644 2.40354 0
M  V30 10804 H 1017.44 -0.860352 1.2214 0
M  V30 10805 H 1019.32 -4.02313 1.25388 0
M  V30 10806 H 1018 -3.21557 0.371841 0
M  V30 10807 H 1016.9 -2.66708 2.62331 0
M  V30 10808 H 1018.24 -3.52283 3.43741 0
M  V30 10809 N 1019.89 -1.26353 -0.941956 0
M  V30 10810 C 1021.31 -1.03448 -1.21534 0
M  V30 10811 C 1021.51 0.240855 -2.00055 0
M  V30 10812 O 1020.56 0.950199 -2.33939 0
M  V30 10813 C 1021.87 -2.2654 -1.97737 0
M  V30 10814 C 1023.42 -2.31433 -2.10731 0
M  V30 10815 C 1023.9 -3.54216 -2.90336 0
M  V30 10816 N 1025.39 -3.54688 -2.9791 0
M  V30 10817 C 1026.12 -4.4636 -3.59931 0
M  V30 10818 N 1025.62 -5.48319 -4.2346 0
M  V30 10819 N 1027.41 -4.34013 -3.57196 0
M  V30 10820 H 1019.56 -2.08266 -0.417005 0
M  V30 10821 H 1021.83 -0.915251 -0.247021 0
M  V30 10822 H 1021.53 -3.19299 -1.47449 0
M  V30 10823 H 1021.41 -2.30726 -2.98405 0
M  V30 10824 H 1023.79 -1.3919 -2.60212 0
M  V30 10825 H 1023.87 -2.31259 -1.09329 0
M  V30 10826 H 1023.52 -4.46788 -2.41543 0
M  V30 10827 H 1023.45 -3.51637 -3.91993 0
M  V30 10828 H 1025.94 -2.80942 -2.52745 0
M  V30 10829 H 1026.25 -6.14458 -4.6868 0
M  V30 10830 H 1024.6 -5.52177 -4.22049 0
M  V30 10831 H 1027.79 -3.53578 -3.06758 0
M  V30 10832 H 1027.96 -5.0565 -4.05244 0
M  V30 10833 N 1021.37 1.14642 -1.08144 0
M  V30 10834 C 1022.6 1.89484 -0.830864 0
M  V30 10835 C 1023.01 1.78443 0.616722 0
M  V30 10836 O 1022.37 1.14191 1.42361 0
M  V30 10837 C 1022.42 3.39554 -1.24039 0
M  V30 10838 O 1022.14 3.50286 -2.63119 0
M  V30 10839 C 1023.64 4.31399 -1.02029 0
M  V30 10840 H 1020.86 0.600283 -0.299835 0
M  V30 10841 H 1023.4 1.45204 -1.44001 0
M  V30 10842 H 1021.56 3.81467 -0.675407 0
M  V30 10843 H 1021.97 4.43481 -2.80045 0
M  V30 10844 H 1023.45 5.35079 -1.35625 0
M  V30 10845 H 1023.92 4.39179 0.0428697 0
M  V30 10846 H 1024.53 3.95238 -1.57057 0
M  V30 10847 N 1022.85 0.866709 1.31628 0
M  V30 10848 C 1024.07 0.49039 2.01004 0
M  V30 10849 C 1024.49 -0.916244 1.65077 0
M  V30 10850 O 1023.85 -1.59975 0.8783 0
M  V30 10851 C 1023.9 0.634011 3.55897 0
M  V30 10852 O 1023.62 1.98525 3.90537 0
M  V30 10853 C 1025.12 0.258277 4.42547 0
M  V30 10854 H 1022.34 0.191421 0.643117 0
M  V30 10855 H 1024.88 1.16698 1.67934 0
M  V30 10856 H 1023.04 0.00501801 3.874 0
M  V30 10857 H 1023.45 1.99067 4.85255 0
M  V30 10858 H 1024.93 0.409733 5.50477 0
M  V30 10859 H 1025.4 -0.802301 4.3181 0
M  V30 10860 H 1026.01 0.862837 4.16456 0
M  V30 10861 N 1024.32 -1.44642 0.625825 0
M  V30 10862 C 1025.57 -2.01308 0.125682 0
M  V30 10863 C 1025.89 -1.49773 -1.25807 0
M  V30 10864 O 1027.09 -1.98533 -1.85194 0
M  V30 10865 C 1025.55 -3.59479 0.17395 0
M  V30 10866 C 1025.16 -4.20011 1.55868 0
M  V30 10867 C 1026.9 -4.2364 -0.270005 0
M  V30 10868 C 1024.81 -5.7039 1.56235 0
M  V30 10869 H 1023.74 -0.75276 0.0432194 0
M  V30 10870 H 1026.39 -1.65916 0.783842 0
M  V30 10871 H 1024.77 -3.92145 -0.551212 0
M  V30 10872 H 1025.94 -3.98891 2.307 0
M  V30 10873 H 1024.26 -3.68116 1.94627 0
M  V30 10874 H 1026.86 -5.33931 -0.28672 0
M  V30 10875 H 1027.2 -3.95603 -1.29629 0
M  V30 10876 H 1027.73 -3.95759 0.402487 0
M  V30 10877 H 1024.47 -6.03154 2.56683 0
M  V30 10878 H 1023.99 -5.93648 0.856881 0
M  V30 10879 H 1025.67 -6.33929 1.29396 0
M  V30 10880 N 1025.8 -0.366053 -1.5329 0
M  V30 10881 C 1026.76 0.467904 -2.24373 0
M  V30 10882 C 1027.76 1.00934 -1.25176 0
M  V30 10883 O 1028.95 0.895015 -1.49449 0
M  V30 10884 C 1026.09 1.65405 -2.98084 0
M  V30 10885 H 1027.28 -0.154105 -2.99504 0
M  V30 10886 H 1024.83 -0.117751 -1.55856 0
M  V30 10887 H 1025.57 2.31413 -2.27197 0
M  V30 10888 H 1025.35 1.27277 -3.70868 0
M  V30 10889 H 1026.84 2.24503 -3.52119 0
M  V30 10890 N 1027.28 1.57312 -0.0952337 0
M  V30 10891 C 1028.21 2.11059 0.893678 0
M  V30 10892 C 1029.22 1.04787 1.24594 0
M  V30 10893 O 1030.41 1.32233 1.19903 0
M  V30 10894 C 1027.51 2.57552 2.20272 0
M  V30 10895 C 1026.69 3.87661 2.02578 0
M  V30 10896 C 1025.75 4.2 3.16996 0
M  V30 10897 O 1024.77 4.89219 2.90953 0
M  V30 10898 N 1025.97 3.75414 4.42769 0
M  V30 10899 H 1028.74 2.96532 0.434632 0
M  V30 10900 H 1026.3 1.6165 0.0898661 0
M  V30 10901 H 1028.29 2.76232 2.95766 0
M  V30 10902 H 1026.86 1.7709 2.576 0
M  V30 10903 H 1026.08 3.78128 1.11413 0
M  V30 10904 H 1027.37 4.7278 1.88032 0
M  V30 10905 H 1026.77 3.1954 4.66809 0
M  V30 10906 H 1025.32 3.99249 5.15212 0
M  V30 10907 N 1028.76 -0.17846 1.56586 0
M  V30 10908 C 1029.69 -1.24547 1.92408 0
M  V30 10909 C 1030.7 -1.40849 0.816421 0
M  V30 10910 O 1031.89 -1.40979 1.09486 0
M  V30 10911 C 1028.99 -2.61523 2.15544 0
M  V30 10912 C 1028.16 -2.66613 3.46751 0
M  V30 10913 C 1027.22 -3.84901 3.588 0
M  V30 10914 O 1026.25 -3.71231 4.31482 0
M  V30 10915 N 1027.45 -5.0106 2.9312 0
M  V30 10916 H 1030.22 -0.941275 2.84535 0
M  V30 10917 H 1027.78 -0.368275 1.57656 0
M  V30 10918 H 1029.77 -3.3911 2.20876 0
M  V30 10919 H 1028.34 -2.84362 1.29835 0
M  V30 10920 H 1027.56 -1.75174 3.5314 0
M  V30 10921 H 1028.85 -2.67018 4.33104 0
M  V30 10922 H 1028.25 -5.15067 2.33928 0
M  V30 10923 H 1026.8 -5.76535 3.04057 0
M  V30 10924 N 1030.24 -1.51135 -0.446768 0
M  V30 10925 C 1031.48 -1.63578 -1.19875 0
M  V30 10926 C 1031.81 -0.346478 -1.91084 0
M  V30 10927 O 1031.09 0.653447 -1.83195 0
M  V30 10928 C 1031.37 -2.83275 -2.22323 0
M  V30 10929 C 1031.23 -4.22155 -1.55259 0
M  V30 10930 C 1032.54 -2.98496 -3.23401 0
M  V30 10931 H 1029.66 -0.595333 -0.434452 0
M  V30 10932 H 1032.31 -1.83593 -0.48923 0
M  V30 10933 H 1030.46 -2.6634 -2.82834 0
M  V30 10934 H 1032.13 -4.50736 -0.981571 0
M  V30 10935 H 1030.37 -4.25288 -0.855122 0
M  V30 10936 H 1031.04 -5.01882 -2.29823 0
M  V30 10937 H 1033.52 -3.14079 -2.72935 0
M  V30 10938 H 1032.39 -3.83828 -3.92386 0
M  V30 10939 H 1032.65 -2.10157 -3.88956 0
M  V30 10940 N 1031.71 0.701592 -1.41122 0
M  V30 10941 C 1032.66 1.81559 -1.42495 0
M  V30 10942 C 1033.63 1.63722 -0.280078 0
M  V30 10943 O 1034.82 1.84658 -0.480231 0
M  V30 10944 C 1031.96 3.19392 -1.30702 0
M  V30 10945 C 1031.07 3.48704 -2.55009 0
M  V30 10946 C 1030.2 4.76118 -2.35554 0
M  V30 10947 C 1029.24 4.98378 -3.55367 0
M  V30 10948 N 1028.38 6.17014 -3.3502 0
M  V30 10949 H 1033.22 1.7972 -2.37707 0
M  V30 10950 H 1030.76 0.877727 -1.18044 0
M  V30 10951 H 1032.71 3.99004 -1.21867 0
M  V30 10952 H 1031.34 3.20423 -0.391012 0
M  V30 10953 H 1030.4 2.63542 -2.74317 0
M  V30 10954 H 1031.71 3.61057 -3.44151 0
M  V30 10955 H 1030.86 5.63774 -2.24152 0
M  V30 10956 H 1029.6 4.66 -1.43859 0
M  V30 10957 H 1028.61 4.09172 -3.6723 0
M  V30 10958 H 1029.83 5.10359 -4.48007 0
M  V30 10959 H 1027.78 6.0812 -2.4602 0
M  V30 10960 H 1027.69 6.30107 -4.17733 0
M  V30 10961 H 1028.96 7.0742 -3.27379 0
M  V30 10962 N 1033.19 1.2685 0.935242 0
M  V30 10963 C 1034.44 1.12522 1.67878 0
M  V30 10964 C 1034.76 -0.330894 1.92172 0
M  V30 10965 O 1034.03 -1.23259 1.52263 0
M  V30 10966 H 1032.61 0.413418 0.622169 0
M  V30 10967 H 1035.27 1.59267 1.12339 0
M  V30 10968 H 1034.37 1.64853 2.65009 0
M  V30 10969 N 1034.67 -1.14067 1.0875 0
M  V30 10970 C 1035.62 -2.19261 0.720633 0
M  V30 10971 C 1036.59 -1.63462 -0.294847 0
M  V30 10972 O 1037.77 -1.89967 -0.178058 0
M  V30 10973 C 1034.91 -3.44816 0.139873 0
M  V30 10974 C 1034.03 -4.1475 1.20856 0
M  V30 10975 C 1033.16 -5.27899 0.591285 0
M  V30 10976 C 1032.2 -5.89672 1.64176 0
M  V30 10977 N 1031.34 -6.94264 1.04603 0
M  V30 10978 H 1036.18 -2.49991 1.62198 0
M  V30 10979 H 1033.71 -1.22757 0.810497 0
M  V30 10980 H 1035.67 -4.16648 -0.214587 0
M  V30 10981 H 1034.3 -3.14558 -0.724774 0
M  V30 10982 H 1033.35 -3.41272 1.6804 0
M  V30 10983 H 1034.67 -4.56753 2.00446 0
M  V30 10984 H 1033.82 -6.06417 0.185271 0
M  V30 10985 H 1032.56 -4.87128 -0.236236 0
M  V30 10986 H 1031.56 -5.09854 2.05739 0
M  V30 10987 H 1032.79 -6.32517 2.47182 0
M  V30 10988 H 1030.73 -6.55562 0.239664 0
M  V30 10989 H 1030.65 -7.34771 1.77898 0
M  V30 10990 H 1031.92 -7.7665 0.665989 0
M  V30 10991 N 1036.15 -0.873678 -1.31166 0
M  V30 10992 C 1037.1 -0.330288 -2.28424 0
M  V30 10993 C 1038.07 0.573299 -1.55893 0
M  V30 10994 O 1039.25 0.504143 -1.84019 0
M  V30 10995 C 1036.39 0.459004 -3.42034 0
M  V30 10996 C 1035.5 -0.472519 -4.29408 0
M  V30 10997 C 1034.64 0.331261 -5.30166 0
M  V30 10998 C 1033.68 -0.596453 -6.09187 0
M  V30 10999 N 1032.81 0.171305 -7.01891 0
M  V30 11000 H 1037.65 -1.16485 -2.7429 0
M  V30 11001 H 1035.19 -0.585813 -1.34932 0
M  V30 11002 H 1037.15 0.932432 -4.06647 0
M  V30 11003 H 1035.78 1.25824 -2.97268 0
M  V30 11004 H 1034.83 -1.06441 -3.65205 0
M  V30 11005 H 1036.14 -1.18372 -4.84551 0
M  V30 11006 H 1035.3 0.867038 -6.00473 0
M  V30 11007 H 1034.04 1.07573 -4.75688 0
M  V30 11008 H 1033.04 -1.14395 -5.37767 0
M  V30 11009 H 1034.27 -1.33983 -6.65752 0
M  V30 11010 H 1032.21 0.89852 -6.49817 0
M  V30 11011 H 1032.13 -0.480481 -7.54472 0
M  V30 11012 H 1033.4 0.688192 -7.76456 0
M  V30 11013 N 1037.63 1.44308 -0.633487 0
M  V30 11014 C 1038.87 2.02322 -0.139123 0
M  V30 11015 C 1039.21 1.49733 1.23667 0
M  V30 11016 O 1038.48 0.682353 1.82138 0
M  V30 11017 C 1038.76 3.59871 -0.128366 0
M  V30 11018 C 1038.62 4.22737 -1.53667 0
M  V30 11019 C 1039.94 4.36702 0.545834 0
M  V30 11020 H 1037.05 0.735161 -0.0520293 0
M  V30 11021 H 1039.7 1.7185 -0.810411 0
M  V30 11022 H 1037.85 3.85963 0.443263 0
M  V30 11023 H 1039.52 4.07744 -2.15737 0
M  V30 11024 H 1037.76 3.80142 -2.08985 0
M  V30 11025 H 1038.43 5.31757 -1.48116 0
M  V30 11026 H 1040.91 4.16057 0.0596879 0
M  V30 11027 H 1039.78 5.46407 0.522557 0
M  V30 11028 H 1040.05 4.11483 1.6166 0
M  V30 11029 N 1039.1 0.374177 1.53094 0
M  V30 11030 C 1040.35 -0.205669 2.02358 0
M  V30 11031 C 1040.71 -1.4572 1.25633 0
M  V30 11032 O 1040 -1.88487 0.343977 0
M  V30 11033 C 1040.19 -0.542179 3.53264 0
M  V30 11034 C 1040.02 0.675186 4.44602 0
M  V30 11035 C 1038.79 1.18987 4.91091 0
M  V30 11036 C 1040.99 1.54299 4.90608 0
M  V30 11037 N 1038.97 2.36637 5.66459 0
M  V30 11038 C 1040.34 2.56605 5.64406 0
M  V30 11039 C 1042.4 1.56486 4.7267 0
M  V30 11040 C 1041.1 3.60965 6.22171 0
M  V30 11041 C 1043.13 2.59745 5.31307 0
M  V30 11042 C 1042.49 3.60774 6.04997 0
M  V30 11043 H 1038.59 -0.0377471 0.781088 0
M  V30 11044 H 1041.17 0.520661 1.87609 0
M  V30 11045 H 1039.34 -1.23758 3.68156 0
M  V30 11046 H 1041.07 -1.10786 3.89241 0
M  V30 11047 H 1037.83 0.753181 4.67573 0
M  V30 11048 H 1038.25 2.96123 6.08802 0
M  V30 11049 H 1042.9 0.797296 4.15214 0
M  V30 11050 H 1040.61 4.38599 6.78717 0
M  V30 11051 H 1044.2 2.62301 5.19316 0
M  V30 11052 H 1043.08 4.39363 6.49561 0
M  V30 11053 N 1040.58 -1.57259 0.103575 0
M  V30 11054 C 1041.83 -1.93832 -0.55786 0
M  V30 11055 C 1042.14 -0.988087 -1.68808 0
M  V30 11056 O 1043.35 -1.24786 -2.41124 0
M  V30 11057 C 1041.81 -3.44433 -1.04373 0
M  V30 11058 C 1041.41 -4.47963 0.0571971 0
M  V30 11059 C 1043.16 -3.89953 -1.67742 0
M  V30 11060 C 1041.07 -5.89727 -0.444505 0
M  V30 11061 H 1040 -0.723536 -0.212161 0
M  V30 11062 H 1042.65 -1.82606 0.180944 0
M  V30 11063 H 1041.03 -3.50841 -1.83648 0
M  V30 11064 H 1042.2 -4.53209 0.83298 0
M  V30 11065 H 1040.52 -4.12104 0.596588 0
M  V30 11066 H 1043.11 -4.93272 -2.06365 0
M  V30 11067 H 1043.46 -3.2907 -2.54988 0
M  V30 11068 H 1043.99 -3.86281 -0.950342 0
M  V30 11069 H 1040.73 -6.5433 0.391543 0
M  V30 11070 H 1040.25 -5.87935 -1.18711 0
M  V30 11071 H 1041.93 -6.40558 -0.910739 0
M  V30 11072 N 1042.06 0.170153 -1.56679 0
M  V30 11073 C 1043.31 0.884841 -1.817 0
M  V30 11074 C 1043.63 1.82731 -0.680763 0
M  V30 11075 O 1042.9 1.936 0.299294 0
M  V30 11076 H 1041.48 0.329738 -0.670285 0
M  V30 11077 H 1044.14 0.169691 -1.9416 0
M  V30 11078 H 1043.24 1.46104 -2.7579 0
M  V30 11079 N 1043.54 1.5137 0.438746 0
M  V30 11080 C 1044.79 1.63202 1.18524 0
M  V30 11081 C 1045.1 0.353408 1.92381 0
M  V30 11082 O 1046.31 0.351086 2.6922 0
M  V30 11083 C 1044.76 2.88218 2.15542 0
M  V30 11084 C 1044.37 4.23078 1.47339 0
M  V30 11085 C 1046.11 3.09407 2.90633 0
M  V30 11086 C 1044.02 5.39246 2.42833 0
M  V30 11087 H 1042.95 0.607864 0.446114 0
M  V30 11088 H 1045.6 1.77835 0.452421 0
M  V30 11089 H 1043.98 2.67216 2.92253 0
M  V30 11090 H 1045.16 4.54457 0.761964 0
M  V30 11091 H 1043.47 4.07755 0.844065 0
M  V30 11092 H 1046.07 3.9337 3.62165 0
M  V30 11093 H 1046.41 2.22428 3.51897 0
M  V30 11094 H 1046.95 3.30743 2.21029 0
M  V30 11095 H 1043.69 6.2848 1.8626 0
M  V30 11096 H 1043.21 5.12245 3.12034 0
M  V30 11097 H 1044.88 5.71137 3.03992 0
M  V30 11098 N 1045.02 -0.694098 1.41492 0
M  V30 11099 C 1045.96 -1.80801 1.43456 0
M  V30 11100 C 1046.93 -1.63571 0.288757 0
M  V30 11101 O 1048.12 -1.844 0.490017 0
M  V30 11102 C 1045.26 -3.18694 1.32394 0
M  V30 11103 C 1044.37 -3.47346 2.56855 0
M  V30 11104 C 1043.51 -4.74862 2.38075 0
M  V30 11105 C 1042.55 -4.96486 3.58005 0
M  V30 11106 N 1041.68 -6.15229 3.38287 0
M  V30 11107 H 1046.52 -1.78457 2.38657 0
M  V30 11108 H 1044.06 -0.871455 1.18508 0
M  V30 11109 H 1046.02 -3.98352 1.23982 0
M  V30 11110 H 1044.65 -3.20211 0.407999 0
M  V30 11111 H 1043.7 -2.62083 2.75711 0
M  V30 11112 H 1045.01 -3.59226 3.4606 0
M  V30 11113 H 1044.17 -5.62577 2.27139 0
M  V30 11114 H 1042.9 -4.6523 1.46329 0
M  V30 11115 H 1041.91 -4.07219 3.69395 0
M  V30 11116 H 1043.13 -5.07976 4.50708 0
M  V30 11117 H 1041.08 -6.06807 2.49242 0
M  V30 11118 H 1041 -6.27883 4.21069 0
M  V30 11119 H 1042.27 -7.05674 3.31126 0
M  V30 11120 N 1046.49 -1.27344 -0.928501 0
M  V30 11121 C 1047.44 -1.10001 -2.029 0
M  V30 11122 C 1048.41 -0.00131084 -1.661 0
M  V30 11123 O 1049.6 -0.163485 -1.90098 0
M  V30 11124 C 1046.74 -0.7524 -3.36798 0
M  V30 11125 C 1045.85 -1.92865 -3.86558 0
M  V30 11126 C 1044.98 -1.52299 -5.08899 0
M  V30 11127 C 1044.02 -2.66677 -5.50953 0
M  V30 11128 N 1043.16 -2.26706 -6.64491 0
M  V30 11129 H 1048 -2.0417 -2.17068 0
M  V30 11130 H 1045.54 -1.01637 -1.0634 0
M  V30 11131 H 1047.5 -0.531687 -4.13798 0
M  V30 11132 H 1046.13 0.15234 -3.2244 0
M  V30 11133 H 1045.18 -2.26192 -3.05845 0
M  V30 11134 H 1046.49 -2.78668 -4.13698 0
M  V30 11135 H 1045.64 -1.26348 -5.93398 0
M  V30 11136 H 1044.38 -0.636042 -4.83535 0
M  V30 11137 H 1043.39 -2.93344 -4.65004 0
M  V30 11138 H 1044.61 -3.55992 -5.78313 0
M  V30 11139 H 1042.56 -1.40462 -6.40786 0
M  V30 11140 H 1042.48 -3.06049 -6.91281 0
M  V30 11141 H 1043.74 -2.04 -7.52333 0
M  V30 11142 N 1047.97 1.13488 -1.09353 0
M  V30 11143 C 1048.9 2.20988 -0.75409 0
M  V30 11144 C 1049.88 1.67977 0.267901 0
M  V30 11145 O 1051.07 1.93722 0.136128 0
M  V30 11146 C 1048.2 3.46869 -0.173042 0
M  V30 11147 C 1047.15 4.12965 -1.12446 0
M  V30 11148 C 1046.48 5.33163 -0.405157 0
M  V30 11149 C 1047.78 4.60388 -2.46658 0
M  V30 11150 H 1049.47 2.49639 -1.6529 0
M  V30 11151 H 1047.02 1.19987 -0.796182 0
M  V30 11152 H 1048.97 4.21331 0.0764988 0
M  V30 11153 H 1047.7 3.17611 0.760956 0
M  V30 11154 H 1046.35 3.40469 -1.35927 0
M  V30 11155 H 1046 5.00169 0.532955 0
M  V30 11156 H 1045.7 5.78332 -1.03952 0
M  V30 11157 H 1047.23 6.1038 -0.163899 0
M  V30 11158 H 1048.64 5.26276 -2.27389 0
M  V30 11159 H 1047.04 5.16294 -3.05876 0
M  V30 11160 H 1048.11 3.74949 -3.07476 0
M  V30 11161 N 1049.45 0.880621 1.30701 0
M  V30 11162 C 1050.38 0.360251 2.30704 0
M  V30 11163 C 1051.36 -0.554572 1.60806 0
M  V30 11164 O 1052.55 -0.469345 1.88443 0
M  V30 11165 C 1049.68 -0.429888 3.44629 0
M  V30 11166 C 1048.63 0.392786 4.26194 0
M  V30 11167 C 1047.96 -0.52369 5.32129 0
M  V30 11168 C 1049.26 1.63258 4.96129 0
M  V30 11169 H 1050.95 1.19591 2.74478 0
M  V30 11170 H 1048.5 0.576508 1.31956 0
M  V30 11171 H 1050.45 -0.804532 4.13649 0
M  V30 11172 H 1049.17 -1.29916 2.99649 0
M  V30 11173 H 1047.83 0.749514 3.58856 0
M  V30 11174 H 1047.48 -1.39054 4.83397 0
M  V30 11175 H 1047.18 0.0229272 5.87596 0
M  V30 11176 H 1048.71 -0.894946 6.04006 0
M  V30 11177 H 1050.12 1.32877 5.57689 0
M  V30 11178 H 1048.52 2.11906 5.61441 0
M  V30 11179 H 1049.59 2.37944 4.22505 0
M  V30 11180 N 1050.93 -1.4397 0.641131 0
M  V30 11181 C 1051.86 -2.27948 -0.10731 0
M  V30 11182 C 1052.84 -1.39124 -0.841615 0
M  V30 11183 O 1054.02 -1.68566 -0.843662 0
M  V30 11184 C 1051.15 -3.18277 -1.15835 0
M  V30 11185 C 1050.2 -4.23276 -0.52345 0
M  V30 11186 S 1051.03 -5.30984 0.693969 0
M  V30 11187 C 1052.19 -6.24882 -0.356831 0
M  V30 11188 H 1052.42 -2.91077 0.605083 0
M  V30 11189 H 1049.95 -1.48303 0.429598 0
M  V30 11190 H 1051.91 -3.70867 -1.75977 0
M  V30 11191 H 1050.57 -2.54348 -1.84299 0
M  V30 11192 H 1049.76 -4.86533 -1.31536 0
M  V30 11193 H 1049.37 -3.74 0.00358355 0
M  V30 11194 H 1051.66 -6.66305 -1.22653 0
M  V30 11195 H 1052.6 -7.07692 0.240412 0
M  V30 11196 H 1053.01 -5.60301 -0.687217 0
M  V30 11197 N 1052.41 -0.382291 -1.52893 0
M  V30 11198 C 1053.34 0.447829 -2.29165 0
M  V30 11199 C 1054.32 1.06956 -1.32267 0
M  V30 11200 O 1055.5 1.08365 -1.61154 0
M  V30 11201 C 1052.63 1.57902 -3.09329 0
M  V30 11202 C 1051.59 1.08369 -4.14053 0
M  V30 11203 C 1050.91 2.30641 -4.82399 0
M  V30 11204 C 1052.21 0.156591 -5.22065 0
M  V30 11205 H 1053.91 -0.188541 -2.98806 0
M  V30 11206 H 1051.45 -0.0921179 -1.43705 0
M  V30 11207 H 1053.41 2.16652 -3.61442 0
M  V30 11208 H 1052.13 2.24287 -2.37409 0
M  V30 11209 H 1050.79 0.518772 -3.62911 0
M  V30 11210 H 1050.44 2.9552 -4.07034 0
M  V30 11211 H 1050.14 1.98163 -5.53177 0
M  V30 11212 H 1051.66 2.90047 -5.37313 0
M  V30 11213 H 1053.08 0.652065 -5.6958 0
M  V30 11214 H 1051.47 -0.0780978 -6.00049 0
M  V30 11215 H 1052.54 -0.796529 -4.78313 0
M  V30 11216 N 1053.89 1.57202 -0.111913 0
M  V30 11217 C 1055.13 1.94125 0.547573 0
M  V30 11218 C 1055.45 0.997026 1.68282 0
M  V30 11219 O 1056.65 1.26063 2.40459 0
M  V30 11220 C 1055.11 3.44982 1.02545 0
M  V30 11221 C 1054.72 4.47927 -0.0809529 0
M  V30 11222 C 1056.46 3.90837 1.65671 0
M  V30 11223 C 1054.37 5.89955 0.413224 0
M  V30 11224 H 1053.3 0.724651 0.208321 0
M  V30 11225 H 1055.95 1.82507 -0.190625 0
M  V30 11226 H 1054.33 3.5181 1.81785 0
M  V30 11227 H 1055.51 4.52761 -0.857003 0
M  V30 11228 H 1053.82 4.11782 -0.618434 0
M  V30 11229 H 1056.42 4.9436 2.03746 0
M  V30 11230 H 1056.76 3.30417 2.53239 0
M  V30 11231 H 1057.29 3.8678 0.929844 0
M  V30 11232 H 1054.03 6.54113 -0.426238 0
M  V30 11233 H 1053.55 5.88557 1.15591 0
M  V30 11234 H 1055.23 6.41032 0.876756 0
M  V30 11235 N 1055.36 -0.161842 1.56767 0
M  V30 11236 C 1056.27 -1.21996 2.00385 0
M  V30 11237 C 1057.29 -1.4789 0.916768 0
M  V30 11238 O 1058.47 -1.59852 1.22513 0
M  V30 11239 C 1055.53 -2.53695 2.36305 0
M  V30 11240 C 1054.59 -2.3558 3.58888 0
M  V30 11241 C 1053.82 -3.60998 3.93085 0
M  V30 11242 O 1054.05 -4.6657 3.28129 0
M  V30 11243 O 1052.98 -3.54544 4.86397 0
M  V30 11244 H 1056.81 -0.879701 2.9068 0
M  V30 11245 H 1054.39 -0.369437 1.4476 0
M  V30 11246 H 1056.27 -3.31366 2.60335 0
M  V30 11247 H 1054.95 -2.87281 1.49169 0
M  V30 11248 H 1053.86 -1.55908 3.40064 0
M  V30 11249 H 1055.19 -2.06915 4.46595 0
M  V30 11250 N 1056.84 -1.516 -0.430713 0
M  V30 11251 C 1057.77 -1.68084 -1.54347 0
M  V30 11252 C 1058.75 -0.528401 -1.53775 0
M  V30 11253 O 1059.94 -0.753072 -1.72804 0
M  V30 11254 C 1057.06 -1.70048 -2.92919 0
M  V30 11255 C 1056.11 -2.91336 -3.11489 0
M  V30 11256 S 1056.94 -4.52043 -2.87084 0
M  V30 11257 C 1058.1 -4.56761 -4.27926 0
M  V30 11258 H 1058.33 -2.62203 -1.40131 0
M  V30 11259 H 1055.86 -1.41368 -0.620853 0
M  V30 11260 H 1057.82 -1.71864 -3.72791 0
M  V30 11261 H 1056.48 -0.770946 -3.04492 0
M  V30 11262 H 1055.68 -2.8913 -4.1282 0
M  V30 11263 H 1055.28 -2.87296 -2.39451 0
M  V30 11264 H 1057.57 -4.32809 -5.21232 0
M  V30 11265 H 1058.51 -5.58604 -4.35163 0
M  V30 11266 H 1058.92 -3.86014 -4.1189 0
M  V30 11267 N 1058.32 0.686584 -1.41858 0
M  V30 11268 C 1059.54 1.4802 -1.45275 0
M  V30 11269 C 1059.97 1.87997 -0.0621297 0
M  V30 11270 O 1059.33 1.55226 0.936733 0
M  V30 11271 C 1059.38 2.7133 -2.37513 0
M  V30 11272 O 1058.48 3.69159 -1.83836 0
M  V30 11273 H 1057.82 0.445152 -0.492682 0
M  V30 11274 H 1060.35 0.843161 -1.86419 0
M  V30 11275 H 1060.36 3.19537 -2.53693 0
M  V30 11276 H 1059.04 2.41571 -3.3855 0
M  V30 11277 H 1057.61 3.28134 -1.77151 0
M  V30 11278 N 1059.8 1.27835 0.921735 0
M  V30 11279 C 1060.73 1.136 2.04003 0
M  V30 11280 C 1061.71 0.0358756 1.70062 0
M  V30 11281 O 1062.89 0.211438 1.93046 0
M  V30 11282 C 1060.02 0.788697 3.38226 0
M  V30 11283 C 1058.98 1.84272 3.863 0
M  V30 11284 C 1058.3 1.34923 5.17397 0
M  V30 11285 C 1059.6 3.24788 4.09035 0
M  V30 11286 H 1061.3 2.07149 2.1617 0
M  V30 11287 H 1058.84 0.997349 1.0387 0
M  V30 11288 H 1060.8 0.675911 4.15944 0
M  V30 11289 H 1059.52 -0.182499 3.2609 0
M  V30 11290 H 1058.18 1.94451 3.1078 0
M  V30 11291 H 1057.83 0.367328 5.01657 0
M  V30 11292 H 1057.53 2.05397 5.50532 0
M  V30 11293 H 1059.05 1.24951 5.97678 0
M  V30 11294 H 1060.47 3.17575 4.77304 0
M  V30 11295 H 1058.86 3.93025 4.53488 0
M  V30 11296 H 1059.93 3.69398 3.14122 0
M  V30 11297 N 1061.28 -1.12907 1.09954 0
M  V30 11298 C 1062.21 -2.18194 0.701701 0
M  V30 11299 C 1063.22 -1.60724 -0.259131 0
M  V30 11300 O 1064.41 -1.78445 -0.0443549 0
M  V30 11301 C 1061.51 -3.38897 0.0140602 0
M  V30 11302 C 1060.68 -4.25867 0.997807 0
M  V30 11303 C 1059.74 -5.25084 0.34257 0
M  V30 11304 O 1058.77 -5.60492 0.991857 0
M  V30 11305 N 1059.97 -5.73464 -0.901058 0
M  V30 11306 H 1062.73 -2.52939 1.60755 0
M  V30 11307 H 1060.3 -1.28281 0.987703 0
M  V30 11308 H 1062.29 -4.02349 -0.435628 0
M  V30 11309 H 1060.86 -3.02345 -0.794118 0
M  V30 11310 H 1060.08 -3.59107 1.6259 0
M  V30 11311 H 1061.37 -4.80825 1.66388 0
M  V30 11312 H 1060.76 -5.46854 -1.44802 0
M  V30 11313 H 1059.32 -6.38827 -1.29398 0
M  V30 11314 N 1062.75 -0.88754 -1.30232 0
M  V30 11315 C 1063.69 -0.300814 -2.26209 0
M  V30 11316 C 1064.66 0.580088 -1.519 0
M  V30 11317 O 1065.85 0.529611 -1.80907 0
M  V30 11318 C 1062.98 0.572336 -3.33829 0
M  V30 11319 C 1062.02 -0.239589 -4.25827 0
M  V30 11320 S 1062.85 -1.62953 -5.10104 0
M  V30 11321 C 1064.01 -0.762979 -6.21232 0
M  V30 11322 H 1064.24 -1.11435 -2.75626 0
M  V30 11323 H 1061.78 -0.687123 -1.38268 0
M  V30 11324 H 1063.73 1.07036 -3.963 0
M  V30 11325 H 1062.4 1.35999 -2.83131 0
M  V30 11326 H 1061.59 0.426854 -5.02189 0
M  V30 11327 H 1061.19 -0.670325 -3.67944 0
M  V30 11328 H 1063.48 0.0189354 -6.77497 0
M  V30 11329 H 1064.43 -1.49829 -6.92067 0
M  V30 11330 H 1064.83 -0.322747 -5.63577 0
M  V30 11331 N 1064.23 1.43628 -0.648757 0
M  V30 11332 C 1065.51 1.95391 -0.0904551 0
M  V30 11333 C 1065.89 1.59021 1.38837 0
M  V30 11334 O 1065.24 0.873078 2.11163 0
M  V30 11335 C 1065.45 3.47418 -0.33196 0
M  V30 11336 C 1066.8 4.23952 -0.234521 0
M  V30 11337 O 1067.82 3.55218 -0.264276 0
M  V30 11338 O 1066.68 5.46282 -0.154428 0
M  V30 11339 H 1063.77 0.82691 0.0121884 0
M  V30 11340 H 1066.32 1.5359 -0.721685 0
M  V30 11341 H 1065.09 3.67001 -1.35741 0
M  V30 11342 H 1064.71 3.96207 0.332556 0
M  V30 11343 N 1065.71 0.390394 1.52688 0
M  V30 11344 C 1067.12 -0.083394 1.86514 0
M  V30 11345 C 1067.47 -1.46057 1.31003 0
M  V30 11346 O 1066.6 -2.06663 0.641809 0
M  V30 11347 C 1067.19 -0.158102 3.38431 0
M  V30 11348 C 1065.75 -0.576186 3.71964 0
M  V30 11349 C 1064.9 0.261156 2.76068 0
M  V30 11350 H 1067.85 0.608226 1.46582 0
M  V30 11351 H 1067.87 -0.977023 3.67742 0
M  V30 11352 H 1067.38 0.844365 3.78803 0
M  V30 11353 H 1065.48 -1.58598 3.37161 0
M  V30 11354 H 1065.6 -0.333577 4.77937 0
M  V30 11355 H 1063.96 -0.273737 2.53225 0
M  V30 11356 H 1064.74 1.26162 3.19277 0
M  V30 11357 N 1067.19 -1.57141 0.120249 0
M  V30 11358 C 1068.1 -2.18925 -0.843155 0
M  V30 11359 C 1069.11 -1.16575 -1.29175 0
M  V30 11360 O 1070.29 -1.4905 -1.35448 0
M  V30 11361 C 1067.36 -2.7775 -2.075 0
M  V30 11362 C 1066.42 -3.95139 -1.6782 0
M  V30 11363 C 1065.65 -4.51149 -2.85132 0
M  V30 11364 O 1065.87 -4.06056 -4.00593 0
M  V30 11365 O 1064.81 -5.41815 -2.62145 0
M  V30 11366 H 1068.63 -3.01707 -0.347357 0
M  V30 11367 H 1066.22 -1.49028 -0.105427 0
M  V30 11368 H 1068.1 -3.15243 -2.79643 0
M  V30 11369 H 1066.77 -1.97998 -2.56083 0
M  V30 11370 H 1065.68 -3.62412 -0.927807 0
M  V30 11371 H 1067.01 -4.7633 -1.23977 0
M  V30 11372 N 1068.67 0.153526 -1.5685 0
M  V30 11373 C 1069.9 0.881055 -1.86872 0
M  V30 11374 C 1070.3 1.75547 -0.705692 0
M  V30 11375 O 1069.65 1.8064 0.333888 0
M  V30 11376 C 1069.71 1.79429 -3.11521 0
M  V30 11377 C 1069.37 1.0977 -4.43621 0
M  V30 11378 C 1070.37 0.454693 -5.17908 0
M  V30 11379 C 1068.06 1.08915 -4.9035 0
M  V30 11380 C 1070.05 -0.187562 -6.37124 0
M  V30 11381 C 1067.74 0.443084 -6.09492 0
M  V30 11382 C 1068.73 -0.194154 -6.82724 0
M  V30 11383 O 1068.42 -0.829995 -7.99604 0
M  V30 11384 H 1068.15 0.260486 -0.623797 0
M  V30 11385 H 1070.71 0.153024 -2.04829 0
M  V30 11386 H 1068.94 2.5631 -2.89555 0
M  V30 11387 H 1070.63 2.39321 -3.27842 0
M  V30 11388 H 1071.39 0.453151 -4.82878 0
M  V30 11389 H 1067.27 1.57456 -4.33276 0
M  V30 11390 H 1070.82 -0.685542 -6.94223 0
M  V30 11391 H 1066.71 0.44227 -6.43983 0
M  V30 11392 H 1067.48 -0.731013 -8.15229 0
M  V30 11393 N 1070.14 1.51827 0.422667 0
M  V30 11394 C 1071.56 1.40328 0.760275 0
M  V30 11395 C 1071.76 0.497119 1.95272 0
M  V30 11396 O 1070.82 -0.0422083 2.52465 0
M  V30 11397 C 1072.13 2.82622 1.02689 0
M  V30 11398 C 1073.68 2.91874 1.13044 0
M  V30 11399 C 1074.15 4.35107 1.4299 0
M  V30 11400 N 1075.64 4.3828 1.49883 0
M  V30 11401 C 1076.38 5.46153 1.74655 0
M  V30 11402 N 1075.87 6.64165 1.9712 0
M  V30 11403 N 1077.67 5.33651 1.76558 0
M  V30 11404 H 1069.82 2.09285 -0.362455 0
M  V30 11405 H 1072.08 0.94273 -0.0998161 0
M  V30 11406 H 1071.79 3.50991 0.223226 0
M  V30 11407 H 1071.66 3.22844 1.95068 0
M  V30 11408 H 1074.05 2.23694 1.92471 0
M  V30 11409 H 1074.13 2.55128 0.185326 0
M  V30 11410 H 1073.77 5.03841 0.640848 0
M  V30 11411 H 1073.7 4.69377 2.38731 0
M  V30 11412 H 1076.19 3.53206 1.34366 0
M  V30 11413 H 1076.51 7.42165 2.15434 0
M  V30 11414 H 1074.85 6.67255 1.94413 0
M  V30 11415 H 1078.04 4.40436 1.58536 0
M  V30 11416 H 1078.22 6.17798 1.95525 0
M  V30 11417 N 1071.62 -0.679052 1.4222 0
M  V30 11418 C 1072.87 -1.44125 1.42674 0
M  V30 11419 C 1073.2 -1.94156 0.041438 0
M  V30 11420 O 1072.48 -1.70628 -0.93361 0
M  V30 11421 C 1072.76 -2.64133 2.44756 0
M  V30 11422 C 1072.61 -2.19761 3.9246 0
M  V30 11423 C 1073.93 -3.66347 2.43881 0
M  V30 11424 H 1071.05 -0.522729 0.519541 0
M  V30 11425 H 1073.69 -0.772067 1.73606 0
M  V30 11426 H 1071.84 -3.21225 2.1851 0
M  V30 11427 H 1073.51 -1.67869 4.29671 0
M  V30 11428 H 1071.76 -1.51377 4.06531 0
M  V30 11429 H 1072.43 -3.05944 4.59459 0
M  V30 11430 H 1074.9 -3.18963 2.67211 0
M  V30 11431 H 1073.78 -4.47902 3.17293 0
M  V30 11432 H 1074.04 -4.17183 1.46325 0
M  V30 11433 N 1073.1 -1.28322 -0.914942 0
M  V30 11434 C 1074.52 -1.06003 -1.19313 0
M  V30 11435 C 1074.72 0.198366 -2.00521 0
M  V30 11436 O 1073.77 0.900364 -2.35902 0
M  V30 11437 C 1075.09 -2.30684 -1.92887 0
M  V30 11438 C 1076.63 -2.35851 -2.05775 0
M  V30 11439 C 1077.11 -3.60295 -2.82757 0
M  V30 11440 N 1078.6 -3.60928 -2.9032 0
M  V30 11441 C 1079.33 -4.53894 -3.50383 0
M  V30 11442 N 1078.83 -5.57178 -4.11734 0
M  V30 11443 N 1080.62 -4.41492 -3.4791 0
M  V30 11444 H 1072.77 -2.09104 -0.372735 0
M  V30 11445 H 1075.04 -0.920285 -0.227552 0
M  V30 11446 H 1074.74 -3.22355 -1.40643 0
M  V30 11447 H 1074.62 -2.37003 -2.93444 0
M  V30 11448 H 1077 -1.44678 -2.57201 0
M  V30 11449 H 1077.09 -2.33526 -1.04399 0
M  V30 11450 H 1076.73 -4.51811 -2.32011 0
M  V30 11451 H 1076.66 -3.59873 -3.84446 0
M  V30 11452 H 1079.15 -2.8624 -2.46729 0
M  V30 11453 H 1079.46 -6.24261 -4.55541 0
M  V30 11454 H 1077.81 -5.61005 -4.10242 0
M  V30 11455 H 1081 -3.60005 -2.99189 0
M  V30 11456 H 1081.17 -5.14132 -3.94427 0
M  V30 11457 N 1074.58 1.12322 -1.10551 0
M  V30 11458 C 1075.53 2.18087 -0.755424 0
M  V30 11459 C 1076.5 1.6391 0.268805 0
M  V30 11460 O 1077.68 1.90227 0.147813 0
M  V30 11461 C 1074.82 3.4455 -0.194713 0
M  V30 11462 C 1073.93 4.12775 -1.27439 0
M  V30 11463 C 1073.07 5.26891 -0.675194 0
M  V30 11464 C 1072.11 5.86985 -1.73536 0
M  V30 11465 N 1071.24 6.92512 -1.15635 0
M  V30 11466 H 1076.08 2.47379 -1.66155 0
M  V30 11467 H 1073.62 1.21452 -0.829924 0
M  V30 11468 H 1075.58 4.16936 0.148275 0
M  V30 11469 H 1074.21 3.15671 0.674638 0
M  V30 11470 H 1073.26 3.38556 -1.73448 0
M  V30 11471 H 1074.57 4.53506 -2.07687 0
M  V30 11472 H 1073.73 6.06046 -0.281723 0
M  V30 11473 H 1072.47 4.87442 0.158708 0
M  V30 11474 H 1071.47 5.06517 -2.13825 0
M  V30 11475 H 1072.7 6.28505 -2.57213 0
M  V30 11476 H 1070.64 6.55098 -0.343928 0
M  V30 11477 H 1070.56 7.31848 -1.89565 0
M  V30 11478 H 1071.83 7.75492 -0.789463 0
M  V30 11479 N 1076.06 0.894434 1.2976 0
M  V30 11480 C 1077.3 0.517669 1.95771 0
M  V30 11481 C 1077.63 -0.935028 1.70551 0
M  V30 11482 O 1076.89 -1.67722 1.00835 0
M  V30 11483 C 1077.19 0.750307 3.49435 0
M  V30 11484 C 1076.85 2.17955 3.94723 0
M  V30 11485 C 1075.51 2.57036 4.068 0
M  V30 11486 C 1077.87 3.11053 4.18205 0
M  V30 11487 C 1075.19 3.88406 4.39724 0
M  V30 11488 C 1077.55 4.41966 4.52602 0
M  V30 11489 C 1076.21 4.80927 4.62888 0
M  V30 11490 H 1075.48 0.189428 0.716378 0
M  V30 11491 H 1078.13 1.13209 1.54454 0
M  V30 11492 H 1076.43 0.0529242 3.91764 0
M  V30 11493 H 1078.13 0.438251 3.98598 0
M  V30 11494 H 1074.72 1.86622 3.85837 0
M  V30 11495 H 1078.9 2.82076 4.08347 0
M  V30 11496 H 1074.16 4.18321 4.4589 0
M  V30 11497 H 1078.33 5.14134 4.69722 0
M  V30 11498 H 1075.96 5.82759 4.88156 0
M  V30 11499 N 1077.53 -1.43282 0.656365 0
M  V30 11500 C 1078.46 -2.33492 -0.0196962 0
M  V30 11501 C 1079.45 -1.49647 -0.80868 0
M  V30 11502 O 1080.63 -1.78303 -0.769529 0
M  V30 11503 C 1077.76 -3.33052 -0.984574 0
M  V30 11504 C 1076.71 -4.26908 -0.305483 0
M  V30 11505 C 1076.04 -5.16531 -1.38202 0
M  V30 11506 C 1077.34 -5.16073 0.804081 0
M  V30 11507 H 1079.03 -2.90272 0.733661 0
M  V30 11508 H 1076.58 -1.39574 0.354259 0
M  V30 11509 H 1078.53 -3.9506 -1.46647 0
M  V30 11510 H 1077.26 -2.74535 -1.76913 0
M  V30 11511 H 1075.92 -3.66268 0.155995 0
M  V30 11512 H 1075.56 -4.54351 -2.1581 0
M  V30 11513 H 1075.26 -5.80148 -0.932878 0
M  V30 11514 H 1076.79 -5.81414 -1.86522 0
M  V30 11515 H 1078.2 -5.71873 0.404212 0
M  V30 11516 H 1076.6 -5.88427 1.17789 0
M  V30 11517 H 1077.67 -4.55574 1.66073 0
M  V30 11518 N 1079.01 -0.398486 -1.52479 0
M  V30 11519 C 1079.98 0.420206 -2.25315 0
M  V30 11520 C 1080.98 0.982559 -1.27289 0
M  V30 11521 O 1082.17 0.863113 -1.51314 0
M  V30 11522 C 1079.3 1.59045 -3.01525 0
M  V30 11523 H 1080.49 -0.217599 -2.9911 0
M  V30 11524 H 1078.04 -0.150784 -1.55571 0
M  V30 11525 H 1078.78 2.26542 -2.32054 0
M  V30 11526 H 1078.56 1.19382 -3.73484 0
M  V30 11527 H 1080.05 2.16984 -3.56802 0
M  V30 11528 N 1080.49 1.57075 -0.12858 0
M  V30 11529 C 1081.42 2.18833 0.814519 0
M  V30 11530 C 1082.4 1.13114 1.2704 0
M  V30 11531 O 1083.59 1.41387 1.33129 0
M  V30 11532 C 1080.72 2.79535 2.06101 0
M  V30 11533 C 1079.67 3.9092 1.74257 0
M  V30 11534 C 1079 4.38473 3.06015 0
M  V30 11535 C 1080.3 5.1257 1.00345 0
M  V30 11536 H 1081.99 2.97895 0.299862 0
M  V30 11537 H 1079.54 1.4329 0.14279 0
M  V30 11538 H 1081.49 3.21401 2.72543 0
M  V30 11539 H 1080.21 1.97777 2.59907 0
M  V30 11540 H 1078.87 3.49645 1.102 0
M  V30 11541 H 1078.52 3.53561 3.57776 0
M  V30 11542 H 1078.22 5.13591 2.85479 0
M  V30 11543 H 1079.75 4.82997 3.7356 0
M  V30 11544 H 1081.16 5.51395 1.56959 0
M  V30 11545 H 1079.56 5.93333 0.898693 0
M  V30 11546 H 1080.63 4.84899 -0.0081335 0
M  V30 11547 N 1081.97 -0.145205 1.5693 0
M  V30 11548 C 1082.9 -1.18096 2.01434 0
M  V30 11549 C 1083.88 -1.447 0.894204 0
M  V30 11550 O 1085.07 -1.55589 1.16214 0
M  V30 11551 C 1082.2 -2.51369 2.39647 0
M  V30 11552 C 1081.15 -2.39283 3.54863 0
M  V30 11553 C 1080.48 -3.77283 3.78895 0
M  V30 11554 C 1081.78 -1.8754 4.87469 0
M  V30 11555 H 1083.47 -0.810897 2.8821 0
M  V30 11556 H 1081.02 -0.388624 1.38657 0
M  V30 11557 H 1082.97 -3.24054 2.69382 0
M  V30 11558 H 1081.69 -2.90214 1.49811 0
M  V30 11559 H 1080.35 -1.6905 3.25296 0
M  V30 11560 H 1080 -4.13567 2.86307 0
M  V30 11561 H 1079.7 -3.70057 4.56433 0
M  V30 11562 H 1081.22 -4.51514 4.11057 0
M  V30 11563 H 1082.64 -2.50019 5.1591 0
M  V30 11564 H 1081.03 -1.912 5.68826 0
M  V30 11565 H 1082.1 -0.831194 4.77723 0
M  V30 11566 N 1083.45 -1.52049 -0.414609 0
M  V30 11567 C 1084.86 -1.40729 -0.752822 0
M  V30 11568 C 1085.06 -0.507468 -1.95005 0
M  V30 11569 O 1084.12 0.0288189 -2.52484 0
M  V30 11570 C 1085.43 -2.83163 -1.01189 0
M  V30 11571 C 1086.98 -2.92469 -1.11494 0
M  V30 11572 C 1087.46 -4.35859 -1.4068 0
M  V30 11573 N 1088.95 -4.39069 -1.47557 0
M  V30 11574 C 1089.68 -5.47072 -1.71756 0
M  V30 11575 N 1089.18 -6.65201 -1.93595 0
M  V30 11576 N 1090.97 -5.3458 -1.73726 0
M  V30 11577 H 1083.12 -2.09089 0.373549 0
M  V30 11578 H 1085.38 -0.942188 0.104814 0
M  V30 11579 H 1085.09 -3.51104 -0.204609 0
M  V30 11580 H 1084.96 -3.23874 -1.93353 0
M  V30 11581 H 1087.35 -2.24711 -1.91282 0
M  V30 11582 H 1087.43 -2.55222 -0.171794 0
M  V30 11583 H 1087.08 -5.04174 -0.614119 0
M  V30 11584 H 1087.01 -4.70637 -2.36238 0
M  V30 11585 H 1089.5 -3.53913 -1.32491 0
M  V30 11586 H 1089.81 -7.43297 -2.11495 0
M  V30 11587 H 1088.16 -6.68276 -1.90871 0
M  V30 11588 H 1091.35 -4.41271 -1.56198 0
M  V30 11589 H 1091.52 -6.18826 -1.92246 0
M  V30 11590 N 1084.93 0.6715 -1.42579 0
M  V30 11591 C 1085.84 1.81435 -1.48723 0
M  V30 11592 C 1086.85 1.69895 -0.375716 0
M  V30 11593 O 1088.03 1.91388 -0.627115 0
M  V30 11594 C 1085.09 3.17599 -1.39038 0
M  V30 11595 C 1084.15 3.41071 -2.60709 0
M  V30 11596 C 1083.39 4.7074 -2.51476 0
M  V30 11597 O 1083.61 5.48868 -1.55243 0
M  V30 11598 O 1082.54 4.95528 -3.41666 0
M  V30 11599 H 1086.37 1.79206 -2.45191 0
M  V30 11600 H 1083.95 0.827666 -1.24379 0
M  V30 11601 H 1085.84 3.98847 -1.3601 0
M  V30 11602 H 1084.51 3.20458 -0.456966 0
M  V30 11603 H 1083.42 2.59659 -2.69311 0
M  V30 11604 H 1084.75 3.43045 -3.5296 0
M  V30 11605 N 1086.4 1.28806 0.908124 0
M  V30 11606 C 1087.31 1.15079 2.04436 0
M  V30 11607 C 1088.33 0.076012 1.73834 0
M  V30 11608 O 1089.51 0.286421 1.99353 0
M  V30 11609 C 1086.57 0.819733 3.3687 0
M  V30 11610 C 1085.63 1.97746 3.81045 0
M  V30 11611 C 1084.86 1.66211 5.07158 0
M  V30 11612 O 1085.09 0.579092 5.67453 0
M  V30 11613 O 1084.02 2.5075 5.47182 0
M  V30 11614 H 1087.85 2.10477 2.18937 0
M  V30 11615 H 1085.43 1.08177 1.03044 0
M  V30 11616 H 1087.31 0.649304 4.16368 0
M  V30 11617 H 1085.99 -0.10454 3.23531 0
M  V30 11618 H 1084.9 2.20308 3.02349 0
M  V30 11619 H 1086.23 2.88264 3.98955 0
M  V30 11620 N 1087.88 -1.11734 1.11145 0
M  V30 11621 C 1089.13 -1.83043 0.856717 0
M  V30 11622 C 1089.45 -1.84901 -0.619407 0
M  V30 11623 O 1088.72 -1.31738 -1.44989 0
M  V30 11624 H 1087.3 -0.677823 0.31395 0
M  V30 11625 H 1089.96 -1.35262 1.40322 0
M  V30 11626 H 1089.06 -2.87005 1.22616 0
M  V30 11627 N 1089.36 -0.901303 -1.29284 0
M  V30 11628 C 1090.32 -0.385081 -2.25942 0
M  V30 11629 C 1091.32 0.481626 -1.53418 0
M  V30 11630 O 1092.51 0.286451 -1.71829 0
M  V30 11631 C 1089.64 0.449319 -3.37926 0
M  V30 11632 H 1090.84 -1.23877 -2.7312 0
M  V30 11633 H 1088.39 -0.679586 -1.40753 0
M  V30 11634 H 1089.13 1.32292 -2.9609 0
M  V30 11635 H 1088.91 -0.171731 -3.91724 0
M  V30 11636 H 1090.4 0.801746 -4.09831 0
M  V30 11637 N 1090.84 1.42931 -0.663954 0
M  V30 11638 C 1092.06 2.06544 -0.188201 0
M  V30 11639 C 1092.49 1.495 1.14155 0
M  V30 11640 O 1091.85 0.609164 1.7076 0
M  V30 11641 C 1091.89 3.60393 -0.122105 0
M  V30 11642 O 1091 4.02176 0.91258 0
M  V30 11643 H 1090.34 0.656458 -0.0997967 0
M  V30 11644 H 1092.87 1.83253 -0.909909 0
M  V30 11645 H 1092.88 4.07959 0.0576568 0
M  V30 11646 H 1091.55 4.01287 -1.09276 0
M  V30 11647 H 1090.13 3.6618 0.704738 0
M  V30 11648 N 1092.32 0.406567 1.52266 0
M  V30 11649 C 1093.73 -0.063607 1.86592 0
M  V30 11650 C 1094.08 -1.4466 1.32544 0
M  V30 11651 O 1093.2 -2.05971 0.663692 0
M  V30 11652 C 1093.8 -0.122198 3.3858 0
M  V30 11653 C 1092.36 -0.536701 3.72554 0
M  V30 11654 C 1091.5 0.290422 2.75775 0
M  V30 11655 H 1094.45 0.623738 1.45929 0
M  V30 11656 H 1094.48 -0.937964 3.68758 0
M  V30 11657 H 1093.99 0.884495 3.77887 0
M  V30 11658 H 1092.09 -1.55013 3.38824 0
M  V30 11659 H 1092.2 -0.282867 4.78264 0
M  V30 11660 H 1090.57 -0.246864 2.53501 0
M  V30 11661 H 1091.35 1.29541 3.17921 0
M  V30 11662 N 1093.79 -1.57004 0.136909 0
M  V30 11663 C 1094.72 -2.19262 -0.802902 0
M  V30 11664 C 1095.71 -1.13786 -1.26439 0
M  V30 11665 O 1096.89 -1.42091 -1.32377 0
M  V30 11666 C 1094.02 -2.80624 -2.04615 0
M  V30 11667 C 1092.97 -3.91839 -1.72181 0
M  V30 11668 C 1092.3 -4.4009 -3.03686 0
M  V30 11669 C 1093.6 -5.13095 -0.976249 0
M  V30 11670 H 1095.29 -2.98049 -0.28406 0
M  V30 11671 H 1092.84 -1.43364 -0.135189 0
M  V30 11672 H 1094.79 -3.22842 -2.70834 0
M  V30 11673 H 1093.52 -1.99153 -2.58855 0
M  V30 11674 H 1092.18 -3.50224 -1.08344 0
M  V30 11675 H 1091.82 -3.55454 -3.55896 0
M  V30 11676 H 1091.52 -5.15098 -2.82751 0
M  V30 11677 H 1093.05 -4.84971 -3.70993 0
M  V30 11678 H 1094.46 -5.5222 -1.54033 0
M  V30 11679 H 1092.86 -5.93801 -0.867214 0
M  V30 11680 H 1093.93 -4.84888 0.0338488 0
M  V30 11681 N 1095.27 0.136881 -1.57004 0
M  V30 11682 C 1096.55 0.87705 -1.74835 0
M  V30 11683 C 1096.93 1.98886 -0.707639 0
M  V30 11684 O 1096.28 2.26879 0.271652 0
M  V30 11685 C 1096.49 1.41021 -3.1924 0
M  V30 11686 C 1097.84 1.86963 -3.81222 0
M  V30 11687 O 1098.86 1.5074 -3.22732 0
M  V30 11688 O 1097.72 2.53798 -4.83993 0
M  V30 11689 H 1094.81 0.415192 -0.715223 0
M  V30 11690 H 1097.36 0.122016 -1.69261 0
M  V30 11691 H 1096.13 0.611677 -3.8649 0
M  V30 11692 H 1095.75 2.22846 -3.2928 0
M  V30 11693 N 1096.75 1.52266 0.40654 0
M  V30 11694 C 1098 1.66452 1.15325 0
M  V30 11695 C 1098.33 0.395728 1.90432 0
M  V30 11696 O 1097.58 -0.621382 1.85573 0
M  V30 11697 C 1097.88 2.8389 2.1712 0
M  V30 11698 C 1097.55 4.22011 1.58801 0
M  V30 11699 C 1096.21 4.59579 1.42621 0
M  V30 11700 C 1098.56 5.08074 1.16236 0
M  V30 11701 C 1095.89 5.80885 0.823967 0
M  V30 11702 C 1098.24 6.29988 0.574284 0
M  V30 11703 C 1096.9 6.66303 0.399638 0
M  V30 11704 H 1096.17 0.609092 0.422005 0
M  V30 11705 H 1098.82 1.86374 0.440131 0
M  V30 11706 H 1097.13 2.58314 2.94586 0
M  V30 11707 H 1098.82 2.92063 2.74774 0
M  V30 11708 H 1095.41 3.92408 1.72378 0
M  V30 11709 H 1099.6 4.79631 1.27544 0
M  V30 11710 H 1094.85 6.07644 0.676694 0
M  V30 11711 H 1099.03 6.96 0.236081 0
M  V30 11712 H 1096.65 7.60169 -0.0691262 0
M  V30 11713 N 1098.23 -0.663929 1.42933 0
M  V30 11714 C 1099.51 -1.42054 1.34462 0
M  V30 11715 C 1099.89 -2.11096 -0.0127801 0
M  V30 11716 O 1099.23 -2.04027 -1.02884 0
M  V30 11717 C 1099.44 -2.41406 2.5204 0
M  V30 11718 C 1100.79 -3.05726 2.94647 0
M  V30 11719 O 1101.82 -2.51733 2.52009 0
M  V30 11720 O 1100.67 -4.03593 3.68477 0
M  V30 11721 H 1097.77 -0.634149 0.530834 0
M  V30 11722 H 1100.31 -0.691738 1.54962 0
M  V30 11723 H 1099.09 -1.89263 3.42484 0
M  V30 11724 H 1098.71 -3.21752 2.33584 0
M  V30 11725 O 1099.75 -1.39907 -0.806738 0
M  V30 11726 H 1100.44 -1.28267 -1.45146 0
M  V30 END ATOM
M  V30 BEGIN BOND
M  V30 END BOND
M  V30 END CTAB
M  END
$$$$
