drugbank_target|P0C2S5 Cellulose 1,4-beta-cellobiosidase (reducing end) CelS (DB02379)
 OpenBabel12092120033D

  0  0  0     0  0            999 V3000
M  V30 BEGIN CTAB
M  V30 COUNTS 11494 11681 0 0 0
M  V30 BEGIN ATOM
M  V30 1 H -0.908 1.98254 -0.117106 0
M  V30 2 N 0 1.576 0 0
M  V30 3 C 0.933 2.03868 1.02534 0
M  V30 4 C 1.911 0.928543 1.3348 0
M  V30 5 O 3.095 1.19667 1.45644 0
M  V30 6 C 0.222 2.43627 2.35294 0
M  V30 7 C -0.732 3.65373 2.2001 0
M  V30 8 S 0.101 5.13292 1.52614 0
M  V30 9 C 1.257 5.56322 2.86805 0
M  V30 10 H 1.49 2.90518 0.631377 0
M  V30 11 H -0.977 1.52953 0.210867 0
M  V30 12 H 0.981 2.67203 3.11629 0
M  V30 13 H -0.358 1.57376 2.7183 0
M  V30 14 H -1.165 3.90944 3.18086 0
M  V30 15 H -1.563 3.418 1.51819 0
M  V30 16 H 0.729 5.58782 3.83104 0
M  V30 17 H 1.672 6.56266 2.65933 0
M  V30 18 H 2.08 4.83886 2.90714 0
M  V30 19 N 1.4781 -0.272755 1.55222 0
M  V30 20 C 2.7241 -1.00581 1.761 0
M  V30 21 C 3.0571 -1.85932 0.560625 0
M  V30 22 O 2.3321 -1.89416 -0.441801 0
M  V30 23 C 2.6151 -1.88816 3.06628 0
M  V30 24 C 2.4681 -1.06457 4.37021 0
M  V30 25 C 3.7871 -2.8752 3.33197 0
M  V30 26 H 0.9061 -0.364244 0.640699 0
M  V30 27 H 3.5481 -0.278189 1.87952 0
M  V30 28 H 1.6981 -2.50856 2.96654 0
M  V30 29 H 3.3701 -0.464863 4.58952 0
M  V30 30 H 1.6131 -0.368043 4.32236 0
M  V30 31 H 2.2841 -1.71514 5.24678 0
M  V30 32 H 4.7601 -2.35615 3.42965 0
M  V30 33 H 3.6361 -3.46399 4.25792 0
M  V30 34 H 3.8971 -3.62657 2.52849 0
M  V30 35 N 2.9562 -1.48159 -0.537278 0
M  V30 36 C 3.9032 -1.62138 -1.64256 0
M  V30 37 C 4.8732 -0.463668 -1.59497 0
M  V30 38 O 6.0582 -0.686241 -1.78032 0
M  V30 39 C 3.1982 -1.66028 -3.02537 0
M  V30 40 C 2.3112 -2.92855 -3.17585 0
M  V30 41 C 1.4462 -2.87952 -4.46382 0
M  V30 42 C 0.4852 -4.09516 -4.54932 0
M  V30 43 N -0.3778 -4.02733 -5.75109 0
M  V30 44 H 4.4622 -2.56529 -1.51647 0
M  V30 45 H 1.9992 -1.27224 -0.738414 0
M  V30 46 H 3.9572 -1.66265 -3.82638 0
M  V30 47 H 2.5872 -0.751331 -3.13934 0
M  V30 48 H 1.6392 -3.02395 -2.30784 0
M  V30 49 H 2.9512 -3.82822 -3.19764 0
M  V30 50 H 2.1052 -2.8655 -5.34765 0
M  V30 51 H 0.8442 -1.95702 -4.46712 0
M  V30 52 H -0.1508 -4.11201 -3.64957 0
M  V30 53 H 1.0742 -5.02917 -4.56346 0
M  V30 54 H -0.9798 -3.13299 -5.76351 0
M  V30 55 H -1.0628 -4.86397 -5.78752 0
M  V30 56 H 0.2052 -4.05379 -6.65799 0
M  V30 57 N 4.4343 0.785586 -1.36625 0
M  V30 58 C 5.6593 1.57963 -1.34397 0
M  V30 59 C 6.0843 1.87964 0.071526 0
M  V30 60 O 5.4423 1.48182 1.0446 0
M  V30 61 C 5.4903 2.87511 -2.17646 0
M  V30 62 O 4.5943 3.81281 -1.57158 0
M  V30 63 H 3.9353 0.479014 -0.459828 0
M  V30 64 H 6.4653 0.973411 -1.79961 0
M  V30 65 H 6.4753 3.36745 -2.30362 0
M  V30 66 H 5.1503 2.65002 -3.20541 0
M  V30 67 H 3.7273 3.39885 -1.53403 0
M  V30 68 N 5.9124 1.20967 1.01018 0
M  V30 69 C 7.3284 0.965905 1.27053 0
M  V30 70 C 7.5284 -0.350785 1.98423 0
M  V30 71 O 6.5844 -1.07773 2.28344 0
M  V30 72 C 7.8974 2.15294 2.09926 0
M  V30 73 C 9.4454 2.19463 2.23171 0
M  V30 74 C 9.9204 3.3767 3.09424 0
M  V30 75 N 11.4114 3.37724 3.17012 0
M  V30 76 C 12.1464 4.25837 3.83993 0
M  V30 77 N 11.6424 5.24138 4.53047 0
M  V30 78 N 13.4354 4.1366 3.80581 0
M  V30 79 H 5.5864 2.0565 0.531194 0
M  V30 80 H 7.8494 0.90024 0.297106 0
M  V30 81 H 7.5554 3.10684 1.64828 0
M  V30 82 H 7.4294 2.13923 3.10672 0
M  V30 83 H 9.8164 1.24632 2.6749 0
M  V30 84 H 9.8974 2.2488 1.21912 0
M  V30 85 H 9.5414 4.32791 2.65808 0
M  V30 86 H 9.4714 3.29491 4.10784 0
M  V30 87 H 11.9624 2.6658 2.6785 0
M  V30 88 H 12.2754 5.87684 5.01844 0
M  V30 89 H 10.6204 5.28068 4.5185 0
M  V30 90 H 13.8114 3.36127 3.25785 0
M  V30 91 H 13.9844 4.82538 4.32505 0
M  V30 92 N 7.3905 -1.2043 1.01659 0
M  V30 93 C 8.3375 -2.23215 0.586822 0
M  V30 94 C 9.3075 -1.61382 -0.393085 0
M  V30 95 O 10.4925 -1.88544 -0.292525 0
M  V30 96 C 7.6325 -3.45032 -0.0687464 0
M  V30 97 C 6.7455 -4.21296 0.955724 0
M  V30 98 C 5.8805 -5.30507 0.271208 0
M  V30 99 C 4.9195 -5.98515 1.28244 0
M  V30 100 N 4.0565 -6.99316 0.62459 0
M  V30 101 H 8.8965 -2.59336 1.46796 0
M  V30 102 H 6.4335 -1.27431 0.734836 0
M  V30 103 H 8.3915 -4.1459 -0.465965 0
M  V30 104 H 7.0215 -3.09604 -0.913529 0
M  V30 105 H 6.0735 -3.50803 1.4711 0
M  V30 106 H 7.3855 -4.6803 1.72479 0
M  V30 107 H 6.5395 -6.06428 -0.18151 0
M  V30 108 H 5.2785 -4.8481 -0.530163 0
M  V30 109 H 4.2835 -5.21355 1.74554 0
M  V30 110 H 5.5085 -6.46298 2.08509 0
M  V30 111 H 3.4545 -6.55812 -0.156914 0
M  V30 112 H 3.3715 -7.44178 1.33172 0
M  V30 113 H 4.6395 -7.79255 0.195462 0
M  V30 114 N 8.8686 -0.792821 -1.36206 0
M  V30 115 C 10.1176 -0.363353 -1.984 0
M  V30 116 C 10.4306 1.07172 -1.63626 0
M  V30 117 O 11.6366 1.60362 -2.19081 0
M  V30 118 C 10.0926 -0.59872 -3.54885 0
M  V30 119 C 9.7006 -2.04543 -3.9858 0
M  V30 120 C 11.4446 -0.233926 -4.23855 0
M  V30 121 C 9.3516 -2.22727 -5.47856 0
M  V30 122 H 8.2816 -0.13212 -0.742334 0
M  V30 123 H 10.9326 -0.974935 -1.55458 0
M  V30 124 H 9.3146 0.0826222 -3.95914 0
M  V30 125 H 10.4886 -2.76345 -3.68741 0
M  V30 126 H 8.8036 -2.36879 -3.42458 0
M  V30 127 H 11.4006 -0.348027 -5.33566 0
M  V30 128 H 11.7436 0.818351 -4.08177 0
M  V30 129 H 12.2766 -0.868639 -3.882 0
M  V30 130 H 9.0156 -3.2635 -5.68486 0
M  V30 131 H 8.5356 -1.55434 -5.7931 0
M  V30 132 H 10.2146 -2.03607 -6.14128 0
M  V30 133 N 10.3467 1.47872 -0.545128 0
M  V30 134 C 11.5717 2.07391 -0.0190611 0
M  V30 135 C 11.9967 1.39688 1.25971 0
M  V30 136 O 11.3547 0.467816 1.7516 0
M  V30 137 C 11.4027 3.60188 0.172335 0
M  V30 138 O 10.5067 3.9339 1.23766 0
M  V30 139 H 9.8477 0.662411 -0.0459059 0
M  V30 140 H 12.3777 1.90066 -0.757365 0
M  V30 141 H 12.3877 4.06129 0.390305 0
M  V30 142 H 11.0627 4.08865 -0.761725 0
M  V30 143 H 9.6397 3.5921 1.00114 0
M  V30 144 N 11.8248 0.280983 1.55075 0
M  V30 145 C 13.0738 -0.334784 1.98902 0
M  V30 146 C 13.3868 -1.56534 1.17288 0
M  V30 147 O 14.5928 -2.25443 1.51287 0
M  V30 148 C 13.0488 -0.646994 3.54037 0
M  V30 149 C 12.6568 0.564085 4.44435 0
M  V30 150 C 14.4008 -1.22506 4.06439 0
M  V30 151 C 12.3078 0.226137 5.90967 0
M  V30 152 H 11.2378 -0.128866 0.742906 0
M  V30 153 H 13.8888 0.386556 1.79382 0
M  V30 154 H 12.2708 -1.42739 3.6938 0
M  V30 155 H 13.4448 1.34082 4.40861 0
M  V30 156 H 11.7598 1.0594 4.02698 0
M  V30 157 H 14.3568 -1.49182 5.13468 0
M  V30 158 H 14.6998 -2.16085 3.55827 0
M  V30 159 H 15.2328 -0.50682 3.94558 0
M  V30 160 H 11.9718 1.12996 6.45687 0
M  V30 161 H 11.4918 -0.513717 5.97596 0
M  V30 162 H 13.1708 -0.179539 6.46751 0
M  V30 163 N 13.3029 -1.57598 0.00835791 0
M  V30 164 C 14.2329 -2.1198 -0.979113 0
M  V30 165 C 15.2139 -1.03091 -1.35301 0
M  V30 166 O 16.3989 -1.30818 -1.43528 0
M  V30 167 C 13.5289 -2.62995 -2.26828 0
M  V30 168 C 12.4829 -3.76485 -2.03576 0
M  V30 169 C 11.8089 -4.13846 -3.38579 0
M  V30 170 C 13.1089 -5.0342 -1.39161 0
M  V30 171 H 14.8029 -2.94738 -0.526281 0
M  V30 172 H 12.3489 -1.41783 -0.251704 0
M  V30 173 H 14.3019 -2.99669 -2.96271 0
M  V30 174 H 13.0259 -1.7737 -2.7424 0
M  V30 175 H 11.6849 -3.40217 -1.36557 0
M  V30 176 H 11.3329 -3.25232 -3.83709 0
M  V30 177 H 11.0329 -4.90312 -3.23834 0
M  V30 178 H 12.5569 -4.53086 -4.09323 0
M  V30 179 H 13.9709 -5.37812 -1.98573 0
M  V30 180 H 12.3679 -5.84746 -1.34878 0
M  V30 181 H 13.4379 -4.83548 -0.361868 0
M  V30 182 N 14.781 0.264519 -1.55364 0
M  V30 183 C 15.711 1.33121 -1.91836 0
M  V30 184 C 16.692 1.51101 -0.781192 0
M  V30 185 O 17.877 1.64003 -1.04003 0
M  V30 186 C 15.007 2.68921 -2.19769 0
M  V30 187 C 13.961 2.65661 -3.35571 0
M  V30 188 C 13.287 4.05093 -3.49004 0
M  V30 189 C 14.587 2.24187 -4.71739 0
M  V30 190 H 16.281 1.02844 -2.81182 0
M  V30 191 H 13.827 0.493286 -1.35287 0
M  V30 192 H 15.78 3.43663 -2.43872 0
M  V30 193 H 14.504 3.00799 -1.27231 0
M  V30 194 H 13.163 1.93377 -3.1145 0
M  V30 195 H 12.811 4.34206 -2.53917 0
M  V30 196 H 12.511 4.03804 -4.26868 0
M  V30 197 H 14.035 4.81561 -3.75408 0
M  V30 198 H 15.449 2.88654 -4.9533 0
M  V30 199 H 13.846 2.34044 -5.52579 0
M  V30 200 H 14.916 1.19327 -4.69988 0
M  V30 201 N 16.2591 1.48442 0.529413 0
M  V30 202 C 17.2221 1.62524 1.61612 0
M  V30 203 C 18.2221 0.498509 1.52877 0
M  V30 204 O 19.4121 0.76431 1.56537 0
M  V30 205 C 16.5441 1.59597 3.01233 0
M  V30 206 H 17.7371 2.59423 1.50465 0
M  V30 207 H 15.2901 1.37047 0.751514 0
M  V30 208 H 16.0251 0.641781 3.17886 0
M  V30 209 H 15.8101 2.41397 3.08982 0
M  V30 210 H 17.3001 1.72646 3.80241 0
M  V30 211 N 17.7372 -0.778329 1.37039 0
M  V30 212 C 18.9832 -1.53892 1.32079 0
M  V30 213 C 19.3162 -1.9396 -0.0965386 0
M  V30 214 O 18.5912 -1.63568 -1.05242 0
M  V30 215 C 18.8742 -2.80847 2.25382 0
M  V30 216 C 18.7272 -2.47076 3.75864 0
M  V30 217 C 20.0462 -3.82741 2.1725 0
M  V30 218 H 17.1652 -0.558303 0.48111 0
M  V30 219 H 19.8072 -0.893397 1.67685 0
M  V30 220 H 17.9572 -3.35931 1.95148 0
M  V30 221 H 19.6292 -1.97957 4.16666 0
M  V30 222 H 17.8722 -1.79863 3.94755 0
M  V30 223 H 18.5432 -3.37798 4.36574 0
M  V30 224 H 21.0192 -3.37133 2.43887 0
M  V30 225 H 19.8952 -4.69303 2.84686 0
M  V30 226 H 20.1562 -4.2652 1.16331 0
M  V30 227 N 19.2153 -1.21501 -1.00376 0
M  V30 228 C 20.1783 -0.976927 -2.07337 0
M  V30 229 C 21.1783 0.0525322 -1.60714 0
M  V30 230 O 22.3683 -0.184869 -1.73216 0
M  V30 231 C 19.5003 -0.473423 -3.37597 0
M  V30 232 H 20.6933 -1.92587 -2.29892 0
M  V30 233 H 18.2463 -1.03217 -1.17371 0
M  V30 234 H 18.9813 0.480379 -3.20722 0
M  V30 235 H 18.7663 -1.216 -3.72768 0
M  V30 236 H 20.2563 -0.32675 -4.1632 0
M  V30 237 N 20.6934 1.19889 -1.02296 0
M  V30 238 C 21.6264 2.21639 -0.543282 0
M  V30 239 C 22.6044 1.57275 0.412698 0
M  V30 240 O 23.7884 1.85568 0.331198 0
M  V30 241 C 20.9154 3.38057 0.208571 0
M  V30 242 C 19.9614 4.20751 -0.697933 0
M  V30 243 S 20.7944 4.89529 -2.17075 0
M  V30 244 C 21.9504 6.09363 -1.42923 0
M  V30 245 H 22.1834 2.61984 -1.40541 0
M  V30 246 H 19.7164 1.30041 -0.832387 0
M  V30 247 H 21.6744 4.05539 0.63624 0
M  V30 248 H 20.3354 2.96159 1.04635 0
M  V30 249 H 19.5284 5.03862 -0.117831 0
M  V30 250 H 19.1304 3.58556 -1.06366 0
M  V30 251 H 21.4224 6.73742 -0.712637 0
M  V30 252 H 22.3654 6.71845 -2.23673 0
M  V30 253 H 22.7734 5.56798 -0.929327 0
M  V30 254 N 22.1715 0.800033 1.35784 0
M  V30 255 C 23.1015 0.220184 2.3246 0
M  V30 256 C 24.0825 -0.65073 1.57161 0
M  V30 257 O 25.2675 -0.582359 1.85263 0
M  V30 258 C 22.3975 -0.637353 3.41402 0
M  V30 259 C 21.3515 0.134531 4.27789 0
M  V30 260 C 20.6775 -0.844285 5.27992 0
M  V30 261 C 21.9775 1.32979 5.05088 0
M  V30 262 H 23.6715 1.02787 2.81203 0
M  V30 263 H 21.2175 0.495717 1.35199 0
M  V30 264 H 23.1705 -1.05302 4.08031 0
M  V30 265 H 21.8945 -1.47785 2.91251 0
M  V30 266 H 20.5535 0.531296 3.6273 0
M  V30 267 H 20.2015 -1.68011 4.74111 0
M  V30 268 H 19.9015 -0.332184 5.8666 0
M  V30 269 H 21.4255 -1.2583 5.97494 0
M  V30 270 H 22.8395 0.98934 5.64699 0
M  V30 271 H 21.2365 1.77593 5.7322 0
M  V30 272 H 22.3065 2.11978 4.36111 0
M  V30 273 N 23.6496 -1.47581 0.552962 0
M  V30 274 C 24.8956 -2.02782 0.0273648 0
M  V30 275 C 25.2286 -1.42687 -1.31734 0
M  V30 276 O 24.5036 -0.580897 -1.85623 0
M  V30 277 C 24.7866 -3.60031 -0.0702371 0
M  V30 278 C 24.6396 -4.30566 1.30126 0
M  V30 279 C 25.9586 -4.33028 -0.785771 0
M  V30 280 H 23.0776 -0.736912 0.0114185 0
M  V30 281 H 25.7196 -1.76056 0.714432 0
M  V30 282 H 23.8696 -3.82932 -0.655382 0
M  V30 283 H 25.5416 -4.19018 1.92929 0
M  V30 284 H 23.7846 -3.91086 1.87709 0
M  V30 285 H 24.4556 -5.39114 1.18573 0
M  V30 286 H 26.9316 -4.15095 -0.288982 0
M  V30 287 H 25.8076 -5.42695 -0.823013 0
M  V30 288 H 26.0686 -4.01945 -1.841 0
M  V30 289 N 25.1277 -0.289203 -1.54924 0
M  V30 290 C 26.3527 0.329299 -2.04769 0
M  V30 291 C 26.7777 1.4763 -1.16564 0
M  V30 292 O 26.1357 1.80527 -0.167186 0
M  V30 293 C 26.1837 0.774438 -3.52186 0
M  V30 294 O 25.2877 1.88038 -3.67036 0
M  V30 295 H 24.6287 0.0659259 -0.660719 0
M  V30 296 H 27.1587 -0.42761 -2.00082 0
M  V30 297 H 27.1687 1.06642 -3.93816 0
M  V30 298 H 25.8437 -0.0646707 -4.1585 0
M  V30 299 H 24.4207 1.58985 -3.3731 0
M  V30 300 N 26.6058 1.57591 -0.0167156 0
M  V30 301 C 27.8548 1.90461 0.663877 0
M  V30 302 C 28.1678 0.893515 1.73999 0
M  V30 303 O 29.3738 1.11302 2.47637 0
M  V30 304 C 27.8298 3.38155 1.23204 0
M  V30 305 C 27.4378 4.47597 0.189866 0
M  V30 306 C 29.1818 3.80111 1.88986 0
M  V30 307 C 27.0888 5.86379 0.768964 0
M  V30 308 H 26.0188 0.710738 0.251729 0
M  V30 309 H 28.6698 1.83326 -0.0799926 0
M  V30 310 H 27.0518 3.40182 2.02712 0
M  V30 311 H 28.2258 4.57112 -0.581846 0
M  V30 312 H 26.5408 4.14766 -0.368475 0
M  V30 313 H 29.1378 4.81145 2.33247 0
M  V30 314 H 29.4808 3.14511 2.72743 0
M  V30 315 H 30.0138 3.80454 1.16187 0
M  V30 316 H 26.7528 6.55493 -0.0301957 0
M  V30 317 H 26.2728 5.80496 1.50945 0
M  V30 318 H 27.9518 6.34563 1.26251 0
M  V30 319 N 28.0839 -0.256276 1.55502 0
M  V30 320 C 29.0169 -1.34321 1.84481 0
M  V30 321 C 29.9949 -1.46802 0.699131 0
M  V30 322 O 31.1789 -1.63165 0.943904 0
M  V30 323 C 28.3059 -2.71779 2.02123 0
M  V30 324 C 27.3519 -2.76496 3.24734 0
M  V30 325 S 28.1849 -2.3405 4.81644 0
M  V30 326 C 29.3409 -3.73452 5.02279 0
M  V30 327 H 29.5739 -1.09539 2.76385 0
M  V30 328 H 27.1069 -0.45678 1.47489 0
M  V30 329 H 29.0649 -3.50932 2.12972 0
M  V30 330 H 27.7259 -2.93803 1.11078 0
M  V30 331 H 26.9189 -3.77424 3.34016 0
M  V30 332 H 26.5209 -2.05379 3.12563 0
M  V30 333 H 28.8129 -4.6887 4.89047 0
M  V30 334 H 29.7559 -3.6911 6.04287 0
M  V30 335 H 30.1639 -3.6553 4.30172 0
M  V30 336 N 29.562 -1.4872 -0.521534 0
M  V30 337 C 30.811 -1.56419 -1.27341 0
M  V30 338 C 31.124 -0.246805 -1.94037 0
M  V30 339 O 32.33 -0.202122 -2.70747 0
M  V30 340 C 30.786 -2.75896 -2.31105 0
M  V30 341 C 30.394 -4.14311 -1.70441 0
M  V30 342 C 32.138 -2.92913 -3.07249 0
M  V30 343 C 30.045 -5.25038 -2.72194 0
M  V30 344 H 28.975 -0.582344 -0.478949 0
M  V30 345 H 31.626 -1.75071 -0.549779 0
M  V30 346 H 30.008 -2.50697 -3.06541 0
M  V30 347 H 31.182 -4.49564 -1.01136 0
M  V30 348 H 29.497 -4.02482 -1.06759 0
M  V30 349 H 32.094 -3.72805 -3.83302 0
M  V30 350 H 32.437 -2.02689 -3.63625 0
M  V30 351 H 32.97 -3.18054 -2.38928 0
M  V30 352 H 29.709 -6.17255 -2.20627 0
M  V30 353 H 29.229 -4.94263 -3.39801 0
M  V30 354 H 30.908 -5.53508 -3.35019 0
M  V30 355 N 31.0401 0.771051 -1.3745 0
M  V30 356 C 32.4511 1.34737 -1.29239 0
M  V30 357 C 32.8021 1.96109 0.0596908 0
M  V30 358 O 31.9271 1.93865 0.961534 0
M  V30 359 C 32.5221 2.44973 -2.34037 0
M  V30 360 C 31.0811 2.98372 -2.29458 0
M  V30 361 C 30.2281 1.71595 -2.17831 0
M  V30 362 H 33.1791 0.571256 -1.48062 0
M  V30 363 H 33.2001 3.24471 -1.98744 0
M  V30 364 H 32.7121 2.00276 -3.32432 0
M  V30 365 H 30.8131 3.47443 -1.34589 0
M  V30 366 H 30.9261 3.53939 -3.229 0
M  V30 367 H 29.2901 1.94547 -1.64388 0
M  V30 368 H 30.0731 1.29001 -3.18141 0
M  V30 369 N 32.5182 1.22032 0.997298 0
M  V30 370 C 33.7462 1.06841 1.7718 0
M  V30 371 C 34.1612 -0.381325 1.84909 0
M  V30 372 O 33.5182 -1.26437 1.31605 0
M  V30 373 C 33.5692 1.66814 3.20711 0
M  V30 374 O 33.2902 3.06116 3.13408 0
M  V30 375 C 34.7912 1.56838 4.14628 0
M  V30 376 H 32.0112 0.374782 0.556578 0
M  V30 377 H 34.5552 1.61532 1.2541 0
M  V30 378 H 32.7102 1.16196 3.69564 0
M  V30 379 H 33.1242 3.34926 4.0364 0
M  V30 380 H 34.5982 2.03532 5.13107 0
M  V30 381 H 35.0752 0.524155 4.36061 0
M  V30 382 H 35.6812 2.06741 3.7167 0
M  V30 383 N 33.9963 -1.19345 1.0293 0
M  V30 384 C 35.2243 -1.92997 0.745644 0
M  V30 385 C 35.6393 -1.75519 -0.695589 0
M  V30 386 O 34.9963 -1.07737 -1.47306 0
M  V30 387 C 35.0473 -3.44741 1.08792 0
M  V30 388 O 34.7683 -3.61658 2.47256 0
M  V30 389 C 36.2693 -4.35515 0.827129 0
M  V30 390 H 33.4893 -0.613042 0.272801 0
M  V30 391 H 36.0333 -1.51473 1.3739 0
M  V30 392 H 34.1883 -3.84097 0.504832 0
M  V30 393 H 34.6023 -4.55514 2.60015 0
M  V30 394 H 36.0763 -5.40589 1.11658 0
M  V30 395 H 36.5533 -4.38552 -0.238436 0
M  V30 396 H 37.1593 -4.01841 1.39297 0
M  V30 397 N 35.4744 -0.807222 -1.35358 0
M  V30 398 C 36.4374 -0.223665 -2.28106 0
M  V30 399 C 37.4374 0.589354 -1.4961 0
M  V30 400 O 38.6274 0.407745 -1.69361 0
M  V30 401 C 35.7594 0.688149 -3.33882 0
M  V30 402 H 36.9524 -1.04169 -2.81227 0
M  V30 403 H 34.5054 -0.577921 -1.45223 0
M  V30 404 H 35.2404 1.52984 -2.85948 0
M  V30 405 H 35.0254 0.10687 -3.91954 0
M  V30 406 H 36.5154 1.09075 -4.03104 0
M  V30 407 N 36.9525 1.47285 -0.560781 0
M  V30 408 C 38.1995 2.02464 -0.038062 0
M  V30 409 C 38.5275 1.43474 1.31322 0
M  V30 410 O 37.7825 0.581311 1.86867 0
M  V30 411 C 38.0815 3.57258 0.100784 0
M  V30 412 C 37.7475 4.35184 -1.18007 0
M  V30 413 C 36.4095 4.56194 -1.53103 0
M  V30 414 C 38.7615 4.80098 -2.02867 0
M  V30 415 C 36.0895 5.19367 -2.729 0
M  V30 416 C 38.4415 5.44593 -3.21871 0
M  V30 417 C 37.1055 5.63835 -3.57276 0
M  V30 418 H 36.3755 0.740869 -0.0139279 0
M  V30 419 H 39.0225 1.76916 -0.733012 0
M  V30 420 H 37.3275 3.81819 0.878724 0
M  V30 421 H 39.0245 3.97606 0.520639 0
M  V30 422 H 35.6145 4.19113 -0.8968 0
M  V30 423 H 39.7985 4.63642 -1.7706 0
M  V30 424 H 35.0545 5.32459 -3.00496 0
M  V30 425 H 39.2285 5.78358 -3.87911 0
M  V30 426 H 36.8555 6.12557 -4.50197 0
M  V30 427 N 38.4306 0.297415 1.54768 0
M  V30 428 C 39.3936 -0.567375 2.22066 0
M  V30 429 C 40.3936 -1.06409 1.20556 0
M  V30 430 O 41.5836 -0.960691 1.45315 0
M  V30 431 C 38.7156 -1.78517 2.90421 0
M  V30 432 H 39.9086 0.0205534 2.99893 0
M  V30 433 H 37.4616 0.0482163 1.56226 0
M  V30 434 H 38.1966 -2.41303 2.16664 0
M  V30 435 H 37.9816 -1.43669 3.64831 0
M  V30 436 H 39.4716 -2.39964 3.41771 0
M  V30 437 N 39.9087 -1.5758 0.0250728 0
M  V30 438 C 41.1567 -1.91255 -0.653151 0
M  V30 439 C 41.4777 -0.901691 -1.729 0
M  V30 440 O 40.7477 0.0573785 -1.95816 0
M  V30 441 H 39.3277 -0.705942 -0.244243 0
M  V30 442 H 41.9897 -1.94767 0.0719209 0
M  V30 443 H 41.0857 -2.91752 -1.10847 0
M  V30 444 N 41.3868 0.248026 -1.55636 0
M  V30 445 C 42.7978 0.817177 -1.67866 0
M  V30 446 C 43.1488 1.86069 -0.622322 0
M  V30 447 O 42.2738 2.15157 0.231618 0
M  V30 448 C 42.8688 1.489 -3.04326 0
M  V30 449 C 41.4278 2.00587 -3.185 0
M  V30 450 C 40.5748 0.856573 -2.63739 0
M  V30 451 H 43.5258 0.0238579 -1.58682 0
M  V30 452 H 43.5468 2.35698 -2.98708 0
M  V30 453 H 43.0588 0.729279 -3.81186 0
M  V30 454 H 41.1598 2.79443 -2.4646 0
M  V30 455 H 41.2728 2.20402 -4.25393 0
M  V30 456 H 39.6368 1.25678 -2.21534 0
M  V30 457 H 40.4198 0.109953 -3.43124 0
M  V30 458 N 42.8649 1.48995 0.513639 0
M  V30 459 C 44.0929 1.61531 1.29288 0
M  V30 460 C 44.5079 0.281801 1.86685 0
M  V30 461 O 43.8649 -0.731111 1.67215 0
M  V30 462 C 43.9159 2.67449 2.43215 0
M  V30 463 O 43.6369 3.95626 1.88179 0
M  V30 464 C 45.1379 2.90575 3.34785 0
M  V30 465 H 42.3579 0.544165 0.392588 0
M  V30 466 H 44.9019 1.9494 0.617956 0
M  V30 467 H 43.0569 2.36853 3.0656 0
M  V30 468 H 43.4709 4.53868 2.62876 0
M  V30 469 H 44.9449 3.68449 4.11035 0
M  V30 470 H 45.4219 2.00011 3.91015 0
M  V30 471 H 46.0279 3.22538 2.77218 0
M  V30 472 N 44.343 -0.763751 1.37857 0
M  V30 473 C 45.29 -1.87726 1.34267 0
M  V30 474 C 46.26 -1.64807 0.206879 0
M  V30 475 O 47.445 -1.86613 0.397508 0
M  V30 476 C 44.585 -3.24896 1.16346 0
M  V30 477 C 43.698 -3.59716 2.39225 0
M  V30 478 C 42.833 -4.86137 2.14114 0
M  V30 479 C 41.872 -5.13711 3.32817 0
M  V30 480 N 41.009 -6.31323 3.07206 0
M  V30 481 H 45.849 -1.90129 2.29466 0
M  V30 482 H 43.386 -0.929433 1.14017 0
M  V30 483 H 45.344 -4.04036 1.03975 0
M  V30 484 H 43.974 -3.21847 0.247909 0
M  V30 485 H 43.026 -2.75498 2.62307 0
M  V30 486 H 44.338 -3.76027 3.27728 0
M  V30 487 H 43.492 -5.73198 1.9882 0
M  V30 488 H 42.231 -4.71945 1.22961 0
M  V30 489 H 41.236 -4.25123 3.48641 0
M  V30 490 H 42.461 -5.29807 4.24832 0
M  V30 491 H 40.407 -6.18474 2.1869 0
M  V30 492 H 40.324 -6.48087 3.89254 0
M  V30 493 H 41.592 -7.213 2.95546 0
M  V30 494 N 45.8211 -1.22559 -0.990812 0
M  V30 495 C 46.7841 -0.998863 -2.0629 0
M  V30 496 C 47.7841 0.0354834 -1.60761 0
M  V30 497 O 48.9741 -0.203231 -1.7301 0
M  V30 498 C 46.1061 -0.509203 -3.37076 0
M  V30 499 H 47.2991 -1.95014 -2.27837 0
M  V30 500 H 44.8521 -1.04456 -1.16269 0
M  V30 501 H 45.5871 0.446335 -3.21214 0
M  V30 502 H 45.3721 -1.25547 -3.71457 0
M  V30 503 H 46.8621 -0.370888 -4.1595 0
M  V30 504 N 47.2992 1.18797 -1.03562 0
M  V30 505 C 48.7102 1.70322 -0.764676 0
M  V30 506 C 49.0612 1.82708 0.714996 0
M  V30 507 O 48.1862 1.50299 1.55689 0
M  V30 508 C 48.7812 3.09356 -1.38145 0
M  V30 509 C 47.3402 3.58114 -1.15895 0
M  V30 510 C 46.4872 2.34798 -1.4753 0
M  V30 511 H 49.4382 1.03543 -1.20268 0
M  V30 512 H 49.4592 3.72378 -0.781977 0
M  V30 513 H 48.9712 3.00309 -2.45837 0
M  V30 514 H 47.0722 3.72464 -0.100544 0
M  V30 515 H 47.1852 4.4184 -1.8524 0
M  V30 516 H 45.5492 2.38464 -0.894829 0
M  V30 517 H 46.3322 2.28375 -2.56319 0
M  V30 518 N 48.7773 0.814389 1.34928 0
M  V30 519 C 50.0053 0.411136 2.02774 0
M  V30 520 C 50.4203 -0.980316 1.61354 0
M  V30 521 O 49.7773 -1.63299 0.814847 0
M  V30 522 C 49.8283 0.493865 3.58111 0
M  V30 523 O 49.5493 1.83047 3.98027 0
M  V30 524 C 51.0503 0.0844174 4.4322 0
M  V30 525 H 48.2703 0.166037 0.650133 0
M  V30 526 H 50.8143 1.10018 1.72384 0
M  V30 527 H 48.9693 -0.147006 3.87121 0
M  V30 528 H 49.3833 1.79872 4.92693 0
M  V30 529 H 50.8573 0.193404 5.51661 0
M  V30 530 H 51.3343 -0.97113 4.28329 0
M  V30 531 H 51.9403 0.69875 4.19521 0
M  V30 532 N 50.2554 -1.46986 0.568584 0
M  V30 533 C 51.2024 -2.30153 -0.172707 0
M  V30 534 C 52.1724 -1.39759 -0.897586 0
M  V30 535 O 53.3574 -1.68716 -0.891044 0
M  V30 536 C 50.4974 -3.23952 -1.1895 0
M  V30 537 C 49.6104 -4.29441 -0.469517 0
M  V30 538 C 48.7454 -5.1038 -1.47259 0
M  V30 539 C 47.7844 -6.07632 -0.738225 0
M  V30 540 N 46.9214 -6.8149 -1.68868 0
M  V30 541 H 51.7614 -2.93019 0.542596 0
M  V30 542 H 49.2984 -1.44422 0.279401 0
M  V30 543 H 51.2564 -3.76767 -1.79173 0
M  V30 544 H 49.8864 -2.62926 -1.87269 0
M  V30 545 H 48.9384 -3.79594 0.247467 0
M  V30 546 H 50.2504 -4.98689 0.105241 0
M  V30 547 H 49.4044 -5.67402 -2.14803 0
M  V30 548 H 48.1434 -4.4106 -2.08128 0
M  V30 549 H 47.1484 -5.49778 -0.0489293 0
M  V30 550 H 48.3734 -6.78966 -0.135129 0
M  V30 551 H 46.3194 -6.14891 -2.28573 0
M  V30 552 H 46.2364 -7.46948 -1.16636 0
M  V30 553 H 47.5044 -7.43078 -2.3549 0
M  V30 554 N 51.7335 -0.305618 -1.54608 0
M  V30 555 C 53.0105 0.355652 -1.92339 0
M  V30 556 C 53.3905 1.71324 -1.23335 0
M  V30 557 O 52.7385 2.25473 -0.370702 0
M  V30 558 C 52.9485 0.46572 -3.45879 0
M  V30 559 C 54.2965 0.734426 -4.182 0
M  V30 560 O 55.3205 0.54935 -3.51938 0
M  V30 561 O 54.1795 1.09024 -5.35515 0
M  V30 562 H 51.2735 0.199666 -0.802535 0
M  V30 563 H 53.8195 -0.354017 -1.65966 0
M  V30 564 H 52.5915 -0.488461 -3.88239 0
M  V30 565 H 52.2145 1.22367 -3.78301 0
M  V30 566 N 53.2116 1.57565 -0.0334293 0
M  V30 567 C 54.4596 1.91598 0.642999 0
M  V30 568 C 54.7806 0.910847 1.7242 0
M  V30 569 O 54.0506 -0.0469931 1.95844 0
M  V30 570 H 52.6306 0.707228 0.240496 0
M  V30 571 H 55.2926 1.94726 -0.0822488 0
M  V30 572 H 54.3886 2.92336 1.09298 0
M  V30 573 N 54.6897 -0.239769 1.55765 0
M  V30 574 C 55.9177 -0.98417 1.81994 0
M  V30 575 C 56.3327 -1.7867 0.610124 0
M  V30 576 O 55.6897 -1.77571 -0.421271 0
M  V30 577 C 55.7407 -1.91635 3.06526 0
M  V30 578 O 55.4617 -1.14629 4.22838 0
M  V30 579 C 56.9627 -2.77616 3.45607 0
M  V30 580 H 54.1827 -0.28928 0.605441 0
M  V30 581 H 56.7267 -0.260499 2.02834 0
M  V30 582 H 54.8817 -2.5942 2.87715 0
M  V30 583 H 55.2957 -1.77745 4.93464 0
M  V30 584 H 56.7697 -3.38759 4.35828 0
M  V30 585 H 57.2467 -3.4909 2.6652 0
M  V30 586 H 57.8527 -2.15271 3.66795 0
M  V30 587 N 56.1678 -1.49265 -0.50573 0
M  V30 588 C 57.3928 -1.62478 -1.28902 0
M  V30 589 C 57.8178 -0.294332 -1.85783 0
M  V30 590 O 57.1758 0.737412 -1.65626 0
M  V30 591 C 57.2238 -2.69268 -2.39848 0
M  V30 592 O 56.3278 -2.28113 -3.43567 0
M  V30 593 H 55.6688 -0.54399 -0.380751 0
M  V30 594 H 58.1988 -1.95421 -0.605952 0
M  V30 595 H 58.2088 -2.91291 -2.85681 0
M  V30 596 H 56.8838 -3.65846 -1.97812 0
M  V30 597 H 55.4608 -2.16401 -3.03685 0
M  V30 598 N 57.6459 0.756429 -1.3826 0
M  V30 599 C 58.8759 1.54341 -1.3734 0
M  V30 600 C 59.2839 1.89159 0.0393917 0
M  V30 601 O 58.6269 1.5307 1.01565 0
M  V30 602 C 58.6889 2.87238 -2.16182 0
M  V30 603 C 58.3529 2.74973 -3.65019 0
M  V30 604 C 59.3499 2.44962 -4.58574 0
M  V30 605 C 57.0349 2.92515 -4.08338 0
M  V30 606 C 59.0289 2.32642 -5.93428 0
M  V30 607 C 56.7159 2.79815 -5.43274 0
M  V30 608 C 57.7139 2.49921 -6.35632 0
M  V30 609 O 57.4019 2.37275 -7.68086 0
M  V30 610 H 57.1339 0.484281 -0.471643 0
M  V30 611 H 59.6879 0.944152 -1.82414 0
M  V30 612 H 57.9179 3.49342 -1.65822 0
M  V30 613 H 59.6069 3.48731 -2.07705 0
M  V30 614 H 60.3729 2.31081 -4.26412 0
M  V30 615 H 56.2519 3.14781 -3.368 0
M  V30 616 H 59.7959 2.0923 -6.65484 0
M  V30 617 H 55.6929 2.93269 -5.75034 0
M  V30 618 H 56.4609 2.52509 -7.78577 0
M  V30 619 N 59.124 1.23083 0.984299 0
M  V30 620 C 60.071 1.00854 2.07598 0
M  V30 621 C 61.041 -0.0726709 1.65941 0
M  V30 622 O 62.226 0.0786535 1.90638 0
M  V30 623 C 59.366 0.601645 3.39815 0
M  V30 624 C 58.479 1.75456 3.94765 0
M  V30 625 C 57.614 1.29482 5.15177 0
M  V30 626 C 56.653 2.41873 5.62284 0
M  V30 627 N 55.79 1.96885 6.73929 0
M  V30 628 H 60.63 1.943 2.25946 0
M  V30 629 H 58.167 0.968001 1.10762 0
M  V30 630 H 60.125 0.346854 4.15756 0
M  V30 631 H 58.755 -0.295803 3.21442 0
M  V30 632 H 57.807 2.12346 3.15616 0
M  V30 633 H 59.119 2.59965 4.25699 0
M  V30 634 H 58.273 0.997923 5.98437 0
M  V30 635 H 57.012 0.420046 4.85888 0
M  V30 636 H 56.017 2.72342 4.77608 0
M  V30 637 H 57.242 3.29881 5.93595 0
M  V30 638 H 55.188 1.11782 6.46406 0
M  V30 639 H 55.105 2.74956 7.04227 0
M  V30 640 H 56.373 1.70289 7.60672 0
M  V30 641 N 60.6021 -1.18246 1.0419 0
M  V30 642 C 61.8791 -1.84121 0.660208 0
M  V30 643 C 62.2591 -1.92778 -0.860221 0
M  V30 644 O 61.6071 -1.45464 -1.76217 0
M  V30 645 C 61.8171 -3.22355 1.33747 0
M  V30 646 C 63.1651 -3.98376 1.46906 0
M  V30 647 O 64.1891 -3.31799 1.29568 0
M  V30 648 O 63.0481 -5.17665 1.75171 0
M  V30 649 H 60.1421 -0.794036 0.231161 0
M  V30 650 H 62.6881 -1.25628 1.14087 0
M  V30 651 H 61.4601 -3.10964 2.37522 0
M  V30 652 H 61.0831 -3.88506 0.845515 0
M  V30 653 N 62.0802 -0.821533 -1.34494 0
M  V30 654 C 63.0102 -0.257138 -2.3208 0
M  V30 655 C 63.9912 0.625645 -1.58176 0
M  V30 656 O 65.1762 0.552811 -1.86166 0
M  V30 657 C 62.3062 0.582958 -3.42372 0
M  V30 658 C 61.2602 -0.202571 -4.2752 0
M  V30 659 C 60.5862 0.760179 -5.29269 0
M  V30 660 C 61.8862 -1.40998 -5.02908 0
M  V30 661 H 63.5802 -1.07247 -2.79532 0
M  V30 662 H 61.1262 -0.517163 -1.34393 0
M  V30 663 H 63.0792 0.987972 -4.09655 0
M  V30 664 H 61.8032 1.43133 -2.93565 0
M  V30 665 H 60.4622 -0.588936 -3.61838 0
M  V30 666 H 60.1102 1.60447 -4.76724 0
M  V30 667 H 59.8102 0.238809 -5.87115 0
M  V30 668 H 61.3342 1.16308 -5.9942 0
M  V30 669 H 62.7482 -1.07905 -5.63054 0
M  V30 670 H 61.1452 -1.86689 -5.70322 0
M  V30 671 H 62.2152 -2.1889 -4.32684 0
M  V30 672 N 63.5583 1.46682 -0.576371 0
M  V30 673 C 64.8053 2.02412 -0.0595339 0
M  V30 674 C 65.1333 1.44859 1.29793 0
M  V30 675 O 64.3883 0.601099 1.8624 0
M  V30 676 C 64.6873 3.57345 0.062886 0
M  V30 677 C 64.3533 4.33908 -1.22616 0
M  V30 678 C 63.0153 4.54544 -1.57933 0
M  V30 679 C 65.3673 4.77919 -2.07948 0
M  V30 680 C 62.6953 5.16444 -2.78393 0
M  V30 681 C 65.0473 5.41149 -3.27629 0
M  V30 682 C 63.7113 5.60014 -3.63236 0
M  V30 683 H 62.9813 0.74068 -0.021785 0
M  V30 684 H 65.6283 1.76128 -0.751735 0
M  V30 685 H 63.9333 3.82729 0.838178 0
M  V30 686 H 65.6303 3.98136 0.478439 0
M  V30 687 H 62.2203 4.18138 -0.941202 0
M  V30 688 H 66.4043 4.61738 -1.81967 0
M  V30 689 H 61.6603 5.29242 -3.06126 0
M  V30 690 H 65.8343 5.74211 -3.94023 0
M  V30 691 H 63.4613 6.07748 -4.56669 0
M  V30 692 N 65.0364 0.313813 1.54444 0
M  V30 693 C 65.9664 -0.549454 2.26943 0
M  V30 694 C 66.9474 -1.12741 1.27372 0
M  V30 695 O 68.1324 -1.15436 1.56167 0
M  V30 696 C 65.2624 -1.71523 3.01989 0
M  V30 697 C 64.2164 -1.26703 4.08816 0
M  V30 698 C 63.5424 -2.51898 4.71647 0
M  V30 699 C 64.8424 -0.388962 5.2085 0
M  V30 700 H 66.5364 0.0552661 2.99349 0
M  V30 701 H 64.0824 0.0280207 1.43973 0
M  V30 702 H 66.0354 -2.32535 3.51433 0
M  V30 703 H 64.7594 -2.34639 2.27183 0
M  V30 704 H 63.4184 -0.679896 3.6024 0
M  V30 705 H 63.0664 -3.13356 3.93468 0
M  V30 706 H 62.7664 -2.22605 5.43802 0
M  V30 707 H 64.2904 -3.1369 5.23861 0
M  V30 708 H 65.7044 -0.905107 5.6611 0
M  V30 709 H 64.1014 -0.18924 5.99802 0
M  V30 710 H 65.1714 0.582699 4.81386 0
M  V30 711 N 66.5145 -1.57545 0.0417849 0
M  V30 712 C 67.4245 -2.14451 -0.951213 0
M  V30 713 C 68.4405 -1.09992 -1.34825 0
M  V30 714 O 69.6165 -1.42114 -1.42708 0
M  V30 715 C 66.6815 -2.67063 -2.21084 0
M  V30 716 C 65.7425 -3.86284 -1.87304 0
M  V30 717 C 64.9755 -4.36378 -3.07261 0
M  V30 718 O 65.1985 -3.85587 -4.20332 0
M  V30 719 O 64.1325 -5.28077 -2.88822 0
M  V30 720 H 67.9585 -2.99601 -0.497287 0
M  V30 721 H 65.5435 -1.48317 -0.179567 0
M  V30 722 H 67.4255 -3.00914 -2.95006 0
M  V30 723 H 66.1005 -1.84989 -2.65633 0
M  V30 724 H 65.0075 -3.57338 -1.10727 0
M  V30 725 H 66.3405 -4.6956 -1.47562 0
M  V30 726 N 67.9926 0.231505 -1.5589 0
M  V30 727 C 68.9226 1.29022 -1.94617 0
M  V30 728 C 69.9036 1.4941 -0.813067 0
M  V30 729 O 71.0886 1.6176 -1.07459 0
M  V30 730 C 68.2186 2.64199 -2.25424 0
M  V30 731 C 67.1726 2.58484 -3.41131 0
M  V30 732 C 66.4986 3.97599 -3.57518 0
M  V30 733 C 67.7986 2.1413 -4.76388 0
M  V30 734 H 69.4926 0.968563 -2.83301 0
M  V30 735 H 67.0386 0.464479 -1.36303 0
M  V30 736 H 68.9916 3.38413 -2.51107 0
M  V30 737 H 67.7156 2.98032 -1.33583 0
M  V30 738 H 66.3746 1.86727 -3.15481 0
M  V30 739 H 66.0226 4.28723 -2.6307 0
M  V30 740 H 65.7226 3.94659 -4.35337 0
M  V30 741 H 67.2466 4.7349 -3.85538 0
M  V30 742 H 68.6606 2.78083 -5.01341 0
M  V30 743 H 67.0576 2.2227 -5.57419 0
M  V30 744 H 68.1276 1.09331 -4.72414 0
M  V30 745 N 69.4707 1.49531 0.497807 0
M  V30 746 C 70.7007 1.62657 1.27382 0
M  V30 747 C 71.1087 0.298488 1.86831 0
M  V30 748 O 70.4517 -0.72647 1.68725 0
M  V30 749 C 70.5137 2.6393 2.44093 0
M  V30 750 C 70.1777 4.08195 2.05489 0
M  V30 751 C 71.1747 4.949 1.59279 0
M  V30 752 C 68.8597 4.53948 2.15026 0
M  V30 753 C 70.8537 6.25397 1.23113 0
M  V30 754 C 68.5407 5.84458 1.78473 0
M  V30 755 C 69.5387 6.70006 1.32591 0
M  V30 756 O 69.2267 7.98083 0.965327 0
M  V30 757 H 68.9587 0.550429 0.392434 0
M  V30 758 H 71.5127 1.96325 0.603801 0
M  V30 759 H 69.7427 2.25449 3.14181 0
M  V30 760 H 71.4317 2.66552 3.06113 0
M  V30 761 H 72.1977 4.60779 1.51354 0
M  V30 762 H 68.0767 3.87525 2.4969 0
M  V30 763 H 71.6207 6.92125 0.872299 0
M  V30 764 H 67.5177 6.18107 1.86048 0
M  V30 765 H 68.2857 8.11122 1.09652 0
M  V30 766 N 70.9488 -0.749086 1.3866 0
M  V30 767 C 72.1968 -1.50535 1.34847 0
M  V30 768 C 72.5178 -1.94909 -0.0595016 0
M  V30 769 O 71.7878 -1.67973 -1.00806 0
M  V30 770 H 70.3678 -0.558395 0.49619 0
M  V30 771 H 73.0298 -0.890165 1.73384 0
M  V30 772 H 72.1258 -2.39413 2.00219 0
M  V30 773 N 72.4269 -1.23603 -0.977757 0
M  V30 774 C 73.3739 -1.01954 -2.07061 0
M  V30 775 C 74.3439 0.0638697 -1.65977 0
M  V30 776 O 75.5289 -0.0887624 -1.90593 0
M  V30 777 C 72.6689 -0.619658 -3.39491 0
M  V30 778 C 71.7819 -1.77547 -3.93829 0
M  V30 779 C 70.9169 -1.32212 -5.14484 0
M  V30 780 C 69.9559 -2.44852 -5.60994 0
M  V30 781 N 69.0929 -2.00456 -6.72876 0
M  V30 782 H 73.9329 -1.95495 -2.24913 0
M  V30 783 H 71.4699 -0.973861 -1.10247 0
M  V30 784 H 73.4279 -0.368898 -4.15566 0
M  V30 785 H 72.0579 0.278752 -3.21594 0
M  V30 786 H 71.1099 -2.14016 -3.14486 0
M  V30 787 H 72.4219 -2.62219 -4.24314 0
M  V30 788 H 71.5759 -1.02965 -5.97899 0
M  V30 789 H 70.3149 -0.445808 -4.85658 0
M  V30 790 H 69.3199 -2.74871 -4.76157 0
M  V30 791 H 70.5449 -3.33024 -5.91837 0
M  V30 792 H 68.4909 -1.15208 -6.45804 0
M  V30 793 H 68.4079 -2.78687 -7.02759 0
M  V30 794 H 69.6759 -1.7432 -7.59758 0
M  V30 795 N 73.905 1.17692 -1.04816 0
M  V30 796 C 75.154 1.87192 -0.751132 0
M  V30 797 C 75.467 1.8169 0.724441 0
M  V30 798 O 76.673 2.46625 1.13527 0
M  V30 799 C 75.129 3.35857 -1.29338 0
M  V30 800 C 74.737 3.4987 -2.79812 0
M  V30 801 C 76.481 4.10709 -1.07322 0
M  V30 802 C 74.388 4.92536 -3.27356 0
M  V30 803 H 73.318 0.701162 -0.277288 0
M  V30 804 H 75.969 1.32932 -1.26496 0
M  V30 805 H 74.351 3.89631 -0.707376 0
M  V30 806 H 75.525 3.06332 -3.44235 0
M  V30 807 H 73.84 2.88433 -3.00325 0
M  V30 808 H 76.437 5.15952 -1.4035 0
M  V30 809 H 76.78 4.16299 -0.0108001 0
M  V30 810 H 77.313 3.6313 -1.62423 0
M  V30 811 H 74.052 4.92119 -4.33012 0
M  V30 812 H 73.572 5.3676 -2.67673 0
M  V30 813 H 75.251 5.61288 -3.21815 0
M  V30 814 N 75.3831 0.828654 1.34056 0
M  V30 815 C 76.3301 0.252567 2.29414 0
M  V30 816 C 77.3001 -0.62588 1.53857 0
M  V30 817 O 78.4851 -0.566312 1.82202 0
M  V30 818 C 75.6251 -0.574831 3.40279 0
M  V30 819 C 74.7381 0.326499 4.30764 0
M  V30 820 C 73.8731 -0.511016 5.28736 0
M  V30 821 C 72.9121 0.389342 6.1086 0
M  V30 822 N 72.0491 -0.409439 7.00905 0
M  V30 823 H 76.8891 1.07108 2.78086 0
M  V30 824 H 74.4261 0.539677 1.36843 0
M  V30 825 H 76.3841 -1.06992 4.03248 0
M  V30 826 H 75.0141 -1.35841 2.92826 0
M  V30 827 H 74.0661 0.939837 3.68607 0
M  V30 828 H 75.3781 1.01857 4.88289 0
M  V30 829 H 74.5321 -1.07035 5.97184 0
M  V30 830 H 73.2711 -1.23657 4.71763 0
M  V30 831 H 72.2761 0.960769 5.4134 0
M  V30 832 H 73.5011 1.1131 6.69916 0
M  V30 833 H 71.4471 -1.11856 6.46393 0
M  V30 834 H 71.3641 0.224126 7.55668 0
M  V30 835 H 72.6321 -0.951336 7.73673 0
M  V30 836 N 76.8612 -1.46375 0.584142 0
M  V30 837 C 78.1382 -1.956 0.0033388 0
M  V30 838 C 78.5182 -1.52679 -1.45782 0
M  V30 839 O 77.8662 -0.77816 -2.14842 0
M  V30 840 C 78.0762 -3.48551 0.176891 0
M  V30 841 C 79.4242 -4.24576 0.0454609 0
M  V30 842 O 80.4482 -3.56043 0.105801 0
M  V30 843 O 79.3072 -5.46427 -0.0890376 0
M  V30 844 H 76.4012 -0.825547 -0.0490066 0
M  V30 845 H 78.9472 -1.56652 0.65256 0
M  V30 846 H 77.7192 -3.72683 1.1926 0
M  V30 847 H 77.3422 -3.94332 -0.508695 0
M  V30 848 N 78.3393 -0.321999 -1.54275 0
M  V30 849 C 79.7503 0.166384 -1.85957 0
M  V30 850 C 80.1013 1.51747 -1.24367 0
M  V30 851 O 79.2263 2.09317 -0.549124 0
M  V30 852 C 79.8213 0.308681 -3.37391 0
M  V30 853 C 78.3803 0.741286 -3.69028 0
M  V30 854 C 77.5273 -0.137937 -2.76957 0
M  V30 855 H 80.4783 -0.542335 -1.49146 0
M  V30 856 H 80.4993 1.13984 -3.63026 0
M  V30 857 H 80.0113 -0.674809 -3.82188 0
M  V30 858 H 78.1123 1.73458 -3.29762 0
M  V30 859 H 78.2253 0.546118 -4.75977 0
M  V30 860 H 76.5893 0.386251 -2.51754 0
M  V30 861 H 77.3723 -1.11816 -3.2458 0
M  V30 862 N 79.8174 1.5752 -0.0501392 0
M  V30 863 C 80.7644 2.1147 0.924603 0
M  V30 864 C 81.7344 1.02182 1.30951 0
M  V30 865 O 82.9194 1.29723 1.39916 0
M  V30 866 C 80.0594 2.66337 2.19451 0
M  V30 867 C 79.1724 3.89708 1.86418 0
M  V30 868 C 78.3074 4.32893 3.07859 0
M  V30 869 C 77.3464 5.48967 2.70742 0
M  V30 870 N 76.4834 5.87211 3.84874 0
M  V30 871 H 81.3234 2.94465 0.457639 0
M  V30 872 H 78.8604 1.45531 0.214266 0
M  V30 873 H 80.8184 2.96247 2.93758 0
M  V30 874 H 79.4484 1.86141 2.63726 0
M  V30 875 H 78.5004 3.66396 1.02264 0
M  V30 876 H 79.8124 4.74074 1.55096 0
M  V30 877 H 78.9664 4.6435 3.90466 0
M  V30 878 H 77.7054 3.47336 3.42358 0
M  V30 879 H 76.7104 5.17183 1.86551 0
M  V30 880 H 77.9354 6.3624 2.37436 0
M  V30 881 H 75.8814 5.04607 4.19175 0
M  V30 882 H 75.7984 6.66266 3.57247 0
M  V30 883 H 77.0664 6.23282 4.68123 0
M  V30 884 N 81.2955 -0.223234 1.56011 0
M  V30 885 C 82.2435 -1.29627 1.93131 0
M  V30 886 C 83.2375 -1.48608 0.813146 0
M  V30 887 O 84.4435 -1.49802 0.997966 0
M  V30 888 H 80.8185 -0.434563 0.613726 0
M  V30 889 H 82.7895 -0.955995 2.82672 0
M  V30 890 C 81.5385 -2.63983 2.26292 0
M  V30 891 H 80.8615 -2.50185 3.11846 0
M  V30 892 H 82.3015 -3.3788 2.56151 0
M  V30 893 C 80.7605 -3.18866 1.08747 0
M  V30 894 O 81.2905 -4.00192 0.347727 0
M  V30 895 N 79.4965 -2.77217 0.871743 0
M  V30 896 H 79.0435 -2.1119 1.47501 0
M  V30 897 H 79.0015 -3.1428 0.0869905 0
M  V30 898 N 82.7736 -1.49793 -0.48987 0
M  V30 899 C 84.0216 -1.59525 -1.24081 0
M  V30 900 C 84.3426 -0.288953 -1.92847 0
M  V30 901 O 83.6126 0.692436 -1.83254 0
M  V30 902 H 82.1926 -0.587796 -0.460983 0
M  V30 903 H 84.8546 -1.86477 -0.566778 0
M  V30 904 H 83.9506 -2.39696 -1.99881 0
M  V30 905 N 84.2517 0.741722 -1.39055 0
M  V30 906 C 85.4817 1.52876 -1.3897 0
M  V30 907 C 85.8897 1.8919 0.0193266 0
M  V30 908 O 85.2327 1.54138 0.999356 0
M  V30 909 C 85.2947 2.84929 -2.19216 0
M  V30 910 C 84.9587 2.71086 -3.67915 0
M  V30 911 C 85.9557 2.40084 -4.61146 0
M  V30 912 C 83.6407 2.88168 -4.11418 0
M  V30 913 C 85.6347 2.26335 -5.95862 0
M  V30 914 C 83.3217 2.74037 -5.46211 0
M  V30 915 C 84.3197 2.43166 -6.38247 0
M  V30 916 O 84.0077 2.29115 -7.70559 0
M  V30 917 H 83.7397 0.479252 -0.476753 0
M  V30 918 H 86.2937 0.924751 -1.83405 0
M  V30 919 H 84.5237 3.47564 -1.69518 0
M  V30 920 H 86.2127 3.46509 -2.11392 0
M  V30 921 H 86.9787 2.26545 -4.28838 0
M  V30 922 H 82.8577 3.11191 -3.40119 0
M  V30 923 H 86.4017 2.0216 -6.67665 0
M  V30 924 H 82.2987 2.87153 -5.78112 0
M  V30 925 H 83.0667 2.44237 -7.81211 0
M  V30 926 N 85.7298 1.2412 0.971189 0
M  V30 927 C 86.9768 1.07881 1.71371 0
M  V30 928 C 87.3048 -0.382901 1.90694 0
M  V30 929 O 86.5598 -1.29945 1.46331 0
M  V30 930 C 86.8588 1.75983 3.11071 0
M  V30 931 C 86.5248 3.25909 3.11599 0
M  V30 932 C 85.1868 3.66813 3.11451 0
M  V30 933 C 87.5388 4.21771 3.062 0
M  V30 934 C 84.8668 5.02021 3.03631 0
M  V30 935 C 87.2188 5.56982 2.99923 0
M  V30 936 C 85.8828 5.97237 2.98102 0
M  V30 937 H 85.1528 0.394764 0.62709 0
M  V30 938 H 87.7998 1.54176 1.13587 0
M  V30 939 H 86.1048 1.22072 3.72298 0
M  V30 940 H 87.8018 1.60887 3.6731 0
M  V30 941 H 84.3918 2.93353 3.12477 0
M  V30 942 H 88.5758 3.91172 3.05447 0
M  V30 943 H 83.8318 5.32411 3.0058 0
M  V30 944 H 88.0058 6.30969 2.94704 0
M  V30 945 H 85.6328 7.01967 2.91798 0
M  V30 946 N 87.2079 -1.17134 1.05439 0
M  V30 947 C 88.4329 -1.91913 0.786396 0
M  V30 948 C 88.8579 -1.7643 -0.652234 0
M  V30 949 O 88.2159 -1.08372 -1.45345 0
M  V30 950 C 88.2639 -3.40921 1.17497 0
M  V30 951 O 87.3679 -4.11244 0.308589 0
M  V30 952 H 86.7089 -0.598215 0.288158 0
M  V30 953 H 89.2389 -1.48457 1.4079 0
M  V30 954 H 89.2489 -3.91668 1.14281 0
M  V30 955 H 87.9239 -3.5151 2.22292 0
M  V30 956 H 86.5009 -3.70731 0.40157 0
M  V30 957 N 88.686 -0.835752 -1.33615 0
M  V30 958 C 90.097 -0.487099 -1.80234 0
M  V30 959 C 90.448 0.993627 -1.69179 0
M  V30 960 O 89.573 1.77403 -1.23924 0
M  V30 961 C 90.168 -0.877385 -3.27242 0
M  V30 962 C 88.727 -0.580915 -3.7189 0
M  V30 963 C 87.874 -1.0874 -2.5509 0
M  V30 964 H 90.825 -1.02474 -1.2118 0
M  V30 965 H 90.846 -0.186195 -3.80044 0
M  V30 966 H 90.358 -1.95512 -3.35256 0
M  V30 967 H 88.459 0.486881 -3.69405 0
M  V30 968 H 88.572 -1.13396 -4.65487 0
M  V30 969 H 86.936 -0.508392 -2.49575 0
M  V30 970 H 87.719 -2.17184 -2.65868 0
M  V30 971 N 90.1641 1.46063 -0.591896 0
M  V30 972 C 91.4411 1.95595 -0.0137119 0
M  V30 973 C 91.8211 1.5345 1.4497 0
M  V30 974 O 91.1691 0.789543 2.14426 0
M  V30 975 C 91.3791 3.48453 -0.195373 0
M  V30 976 C 92.7271 4.24546 -0.0679765 0
M  V30 977 O 93.7511 3.55982 -0.124681 0
M  V30 978 O 92.6101 5.46467 0.0600579 0
M  V30 979 H 89.7041 0.825795 0.0446279 0
M  V30 980 H 92.2501 1.56303 -0.660859 0
M  V30 981 H 91.0221 3.72045 -1.21235 0
M  V30 982 H 90.6451 3.94597 0.487775 0
M  V30 983 N 91.6422 0.330177 1.54103 0
M  V30 984 C 92.5522 -0.541534 2.28264 0
M  V30 985 C 93.5682 -1.12351 1.32866 0
M  V30 986 O 94.7442 -1.14206 1.65888 0
M  V30 987 C 91.8092 -1.68322 3.03098 0
M  V30 988 C 90.8702 -1.13238 4.14096 0
M  V30 989 C 90.1032 -2.21966 4.85352 0
M  V30 990 O 90.3262 -3.42437 4.56172 0
M  V30 991 O 89.2602 -1.87013 5.7211 0
M  V30 992 H 93.0862 0.060938 3.03639 0
M  V30 993 H 90.6712 0.09565 1.49093 0
M  V30 994 H 92.5532 -2.34777 3.49939 0
M  V30 995 H 91.2282 -2.27176 2.30593 0
M  V30 996 H 90.1352 -0.432736 3.71589 0
M  V30 997 H 91.4682 -0.588898 4.88664 0
M  V30 998 N 93.1203 -1.57491 0.0584922 0
M  V30 999 C 94.3683 -1.92597 -0.612436 0
M  V30 1000 C 94.6893 -0.938162 -1.70949 0
M  V30 1001 O 93.9593 0.0158301 -1.95894 0
M  V30 1002 H 92.5393 -0.710964 -0.229214 0
M  V30 1003 H 95.2013 -1.94571 0.113218 0
M  V30 1004 H 94.2973 -2.94038 -1.04633 0
M  V30 1005 N 94.5984 0.214957 -1.56127 0
M  V30 1006 C 95.8474 0.936451 -1.78643 0
M  V30 1007 C 96.1604 1.85237 -0.628229 0
M  V30 1008 O 97.3664 2.613 -0.737186 0
M  V30 1009 C 95.8224 1.7154 -3.16389 0
M  V30 1010 C 95.4304 0.845299 -4.39953 0
M  V30 1011 C 97.1744 2.42772 -3.48227 0
M  V30 1012 C 95.0814 1.62198 -5.68723 0
M  V30 1013 H 94.0114 0.353401 -0.666051 0
M  V30 1014 H 96.6624 0.190169 -1.82512 0
M  V30 1015 H 95.0444 2.50484 -3.06715 0
M  V30 1016 H 96.2184 0.0959353 -4.607 0
M  V30 1017 H 94.5334 0.244789 -4.1568 0
M  V30 1018 H 97.1304 3.01394 -4.41663 0
M  V30 1019 H 97.4734 3.15984 -2.71035 0
M  V30 1020 H 98.0064 1.70813 -3.5926 0
M  V30 1021 H 94.7454 0.933011 -6.48826 0
M  V30 1022 H 94.2654 2.34579 -5.52026 0
M  V30 1023 H 95.9444 2.18095 -6.09133 0
M  V30 1024 N 96.0765 1.50051 0.48192 0
M  V30 1025 C 97.4875 1.5348 1.06305 0
M  V30 1026 C 97.8385 0.331997 1.93371 0
M  V30 1027 O 96.9635 -0.556256 2.09129 0
M  V30 1028 C 97.5585 2.7813 1.93466 0
M  V30 1029 C 96.1175 2.84275 2.46707 0
M  V30 1030 C 95.2645 2.47637 1.24785 0
M  V30 1031 H 98.2155 1.56472 0.264995 0
M  V30 1032 H 98.2365 2.59372 2.78399 0
M  V30 1033 H 97.7485 3.65654 1.30072 0
M  V30 1034 H 95.8495 2.01077 3.13686 0
M  V30 1035 H 95.9625 3.8691 2.82555 0
M  V30 1036 H 94.3265 1.99835 1.57918 0
M  V30 1037 H 95.1095 3.37457 0.630694 0
M  V30 1038 N 97.5546 -0.734337 1.39446 0
M  V30 1039 C 98.7846 -1.52137 1.39778 0
M  V30 1040 C 99.1926 -1.89198 -0.00929312 0
M  V30 1041 O 98.5356 -1.54666 -0.991168 0
M  V30 1042 C 98.5976 -2.83762 2.20724 0
M  V30 1043 C 98.2616 -2.69131 3.69347 0
M  V30 1044 C 99.2586 -2.37635 4.62413 0
M  V30 1045 C 96.9436 -2.85982 4.1294 0
M  V30 1046 C 98.9376 -2.23172 5.97054 0
M  V30 1047 C 96.6246 -2.71137 5.47657 0
M  V30 1048 C 97.6226 -2.39777 6.39528 0
M  V30 1049 O 97.3106 -2.25026 7.71763 0
M  V30 1050 H 97.0426 -0.476717 0.479288 0
M  V30 1051 H 99.5966 -0.915012 1.83893 0
M  V30 1052 H 97.8266 -3.4666 1.71359 0
M  V30 1053 H 99.5156 -3.45383 2.13226 0
M  V30 1054 H 100.282 -2.24267 4.30034 0
M  V30 1055 H 96.1606 -3.09383 3.41765 0
M  V30 1056 H 99.7046 -1.98617 6.68728 0
M  V30 1057 H 95.6016 -2.84083 5.79626 0
M  V30 1058 H 96.3696 -2.40091 7.82495 0
M  V30 1059 N 99.0327 -1.24633 -0.964593 0
M  V30 1060 C 99.9827 -1.00841 -2.04487 0
M  V30 1061 C 100.967 0.0512468 -1.60818 0
M  V30 1062 O 102.159 -0.162865 -1.76249 0
M  V30 1063 C 99.2877 -0.618474 -3.37683 0
M  V30 1064 C 98.3737 -1.71437 -3.87905 0
M  V30 1065 N 98.7647 -2.9477 -4.11029 0
M  V30 1066 C 97.0627 -1.5926 -4.16596 0
M  V30 1067 C 97.7637 -3.65834 -4.52261 0
M  V30 1068 N 96.7397 -2.9341 -4.57615 0
M  V30 1069 H 100.542 -1.94487 -2.20345 0
M  V30 1070 H 98.0557 -1.14805 -1.14863 0
M  V30 1071 H 100.053 -0.429247 -4.14684 0
M  V30 1072 H 98.7127 0.310766 -3.23209 0
M  V30 1073 H 99.7237 -3.30917 -3.9839 0
M  V30 1074 H 96.4007 -0.731606 -4.1104 0
M  V30 1075 H 97.7907 -4.71646 -4.78539 0
M  V30 1076 N 100.511 1.16574 -1.06058 0
M  V30 1077 C 101.736 1.91493 -0.796562 0
M  V30 1078 C 102.161 1.76773 0.642868 0
M  V30 1079 O 101.519 1.09142 1.44768 0
M  V30 1080 C 101.567 3.40293 -1.19303 0
M  V30 1081 O 100.671 4.11074 -0.330394 0
M  V30 1082 H 100.012 0.596678 -0.291326 0
M  V30 1083 H 102.542 1.47708 -1.41575 0
M  V30 1084 H 102.552 3.91057 -1.16356 0
M  V30 1085 H 101.227 3.50326 -2.24153 0
M  V30 1086 H 99.8038 3.70513 -0.421225 0
M  V30 1087 N 101.989 0.842826 1.3317 0
M  V30 1088 C 103.238 0.436738 1.96915 0
M  V30 1089 C 103.551 -1.01025 1.67491 0
M  V30 1090 O 104.757 -1.5212 2.24881 0
M  V30 1091 C 103.213 0.730021 3.52418 0
M  V30 1092 C 102.821 2.19195 3.90714 0
M  V30 1093 C 104.565 0.391076 4.22695 0
M  V30 1094 C 102.472 2.42907 5.39212 0
M  V30 1095 H 101.402 0.15958 0.736919 0
M  V30 1096 H 104.053 1.03196 1.51733 0
M  V30 1097 H 102.435 0.0643755 3.95948 0
M  V30 1098 H 103.609 2.8984 3.58231 0
M  V30 1099 H 101.924 2.49425 3.33431 0
M  V30 1100 H 104.521 0.545817 5.31907 0
M  V30 1101 H 104.864 -0.666294 4.10933 0
M  V30 1102 H 105.397 1.01212 3.84709 0
M  V30 1103 H 102.136 3.47224 5.55982 0
M  V30 1104 H 101.656 1.76827 5.73142 0
M  V30 1105 H 103.335 2.2626 6.06148 0
M  V30 1106 N 103.467 -1.45747 0.599634 0
M  V30 1107 C 104.377 -2.34262 -0.125888 0
M  V30 1108 C 105.393 -1.50768 -0.868625 0
M  V30 1109 O 106.569 -1.83592 -0.828003 0
M  V30 1110 C 103.634 -3.28252 -1.11587 0
M  V30 1111 C 102.695 -4.27651 -0.375956 0
M  V30 1112 C 101.928 -5.1715 -1.31877 0
M  V30 1113 O 102.151 -5.09916 -2.55621 0
M  V30 1114 O 101.085 -5.96286 -0.820157 0
M  V30 1115 H 104.911 -2.97688 0.601315 0
M  V30 1116 H 102.496 -1.44999 0.359934 0
M  V30 1117 H 104.378 -3.86191 -1.68626 0
M  V30 1118 H 103.053 -2.67401 -1.82424 0
M  V30 1119 H 101.96 -3.7335 0.236698 0
M  V30 1120 H 103.293 -4.91334 0.29177 0
M  V30 1121 N 104.945 -0.338344 -1.53925 0
M  V30 1122 C 106.173 0.261298 -2.05243 0
M  V30 1123 C 106.588 1.44625 -1.21363 0
M  V30 1124 O 105.945 1.80811 -0.247736 0
M  V30 1125 C 105.996 0.681412 -3.5502 0
M  V30 1126 O 105.717 -0.456414 -4.35716 0
M  V30 1127 C 107.218 1.34232 -4.22489 0
M  V30 1128 H 104.438 0.0513685 -0.669031 0
M  V30 1129 H 106.982 -0.488822 -1.98572 0
M  V30 1130 H 105.137 1.38148 -3.61931 0
M  V30 1131 H 105.551 -0.122564 -5.24357 0
M  V30 1132 H 107.025 1.58708 -5.28693 0
M  V30 1133 H 107.502 2.29426 -3.74514 0
M  V30 1134 H 108.108 0.684424 -4.19757 0
M  V30 1135 N 106.423 1.57458 -0.0668435 0
M  V30 1136 C 107.353 2.15468 0.899764 0
M  V30 1137 C 108.334 1.08042 1.31381 0
M  V30 1138 O 109.519 1.36054 1.38574 0
M  V30 1139 C 106.649 2.71232 2.16911 0
M  V30 1140 C 105.603 3.83781 1.89463 0
M  V30 1141 C 104.929 4.26127 3.22986 0
M  V30 1142 C 106.229 5.08238 1.20381 0
M  V30 1143 H 107.923 2.96488 0.416529 0
M  V30 1144 H 105.469 1.4262 0.198908 0
M  V30 1145 H 107.422 3.10458 2.84945 0
M  V30 1146 H 106.146 1.87426 2.67468 0
M  V30 1147 H 104.805 3.45051 1.23836 0
M  V30 1148 H 104.453 3.39249 3.71374 0
M  V30 1149 H 104.153 5.01993 3.05413 0
M  V30 1150 H 105.677 4.67966 3.92225 0
M  V30 1151 H 107.091 5.44811 1.78475 0
M  V30 1152 H 105.488 5.89349 1.13083 0
M  V30 1153 H 106.558 4.84558 0.182153 0
M  V30 1154 N 107.901 -0.206675 1.56239 0
M  V30 1155 C 109.15 -0.926964 1.79138 0
M  V30 1156 C 109.463 -1.84901 0.638043 0
M  V30 1157 O 110.669 -2.60906 0.751033 0
M  V30 1158 C 109.125 -1.6986 3.17294 0
M  V30 1159 C 108.733 -0.821956 4.40395 0
M  V30 1160 C 110.477 -2.40922 3.4951 0
M  V30 1161 C 108.384 -1.59179 5.69575 0
M  V30 1162 H 107.314 -0.349864 0.667915 0
M  V30 1163 H 109.965 -0.180487 1.8261 0
M  V30 1164 H 108.347 -2.48853 3.08039 0
M  V30 1165 H 109.521 -0.0715019 4.60745 0
M  V30 1166 H 107.836 -0.222741 4.15804 0
M  V30 1167 H 110.433 -2.99047 4.43255 0
M  V30 1168 H 110.776 -3.14542 2.72707 0
M  V30 1169 H 111.309 -1.68905 3.60161 0
M  V30 1170 H 108.048 -0.898589 6.49312 0
M  V30 1171 H 107.568 -2.31648 5.53262 0
M  V30 1172 H 109.247 -2.14862 6.10281 0
M  V30 1173 N 109.379 -1.50304 -0.473955 0
M  V30 1174 C 110.625 -1.61389 -1.22806 0
M  V30 1175 C 110.958 -0.311955 -1.91678 0
M  V30 1176 O 110.233 0.686384 -1.81986 0
M  V30 1177 C 110.516 -2.79219 -2.27396 0
M  V30 1178 C 110.369 -4.19286 -1.62848 0
M  V30 1179 C 111.688 -2.92614 -3.28732 0
M  V30 1180 H 108.807 -0.587399 -0.445119 0
M  V30 1181 H 111.449 -1.82681 -0.522265 0
M  V30 1182 H 109.599 -2.61195 -2.87592 0
M  V30 1183 H 111.271 -4.48892 -1.06271 0
M  V30 1184 H 109.514 -4.23677 -0.931693 0
M  V30 1185 H 110.185 -4.97655 -2.38838 0
M  V30 1186 H 112.661 -3.09105 -2.78556 0
M  V30 1187 H 111.537 -3.76688 -3.99246 0
M  V30 1188 H 111.798 -2.03107 -3.92683 0
M  V30 1189 N 110.857 0.726932 -1.39834 0
M  V30 1190 C 111.767 1.87131 -1.41489 0
M  V30 1191 C 112.783 1.71239 -0.308757 0
M  V30 1192 O 113.959 1.93701 -0.551529 0
M  V30 1193 C 111.024 3.22811 -1.26468 0
M  V30 1194 C 110.085 3.51039 -2.47124 0
M  V30 1195 C 109.318 4.80245 -2.3281 0
M  V30 1196 O 109.541 5.54537 -1.33585 0
M  V30 1197 O 108.475 5.08554 -3.21957 0
M  V30 1198 H 112.301 1.8869 -2.3797 0
M  V30 1199 H 109.886 0.875837 -1.21035 0
M  V30 1200 H 111.768 4.03877 -1.20255 0
M  V30 1201 H 110.443 3.22005 -0.330862 0
M  V30 1202 H 109.35 2.70027 -2.58914 0
M  V30 1203 H 110.683 3.56632 -3.39227 0
M  V30 1204 N 112.336 1.25143 0.95797 0
M  V30 1205 C 113.299 1.05321 2.03569 0
M  V30 1206 C 114.299 0.007152 1.60798 0
M  V30 1207 O 115.489 0.24903 1.72411 0
M  V30 1208 C 112.621 0.598394 3.35607 0
M  V30 1209 H 113.814 2.00986 2.22586 0
M  V30 1210 H 111.367 1.07502 1.13459 0
M  V30 1211 H 112.102 -0.361014 3.22284 0
M  V30 1212 H 111.887 1.35351 3.67998 0
M  V30 1213 H 113.377 0.48104 4.1482 0
M  V30 1214 N 113.814 -1.1601 1.06675 0
M  V30 1215 C 115.225 -1.68235 0.809565 0
M  V30 1216 C 115.576 -1.8454 -0.666303 0
M  V30 1217 O 114.701 -1.54374 -1.5165 0
M  V30 1218 C 115.296 -3.05585 1.46299 0
M  V30 1219 C 113.855 -3.54915 1.25349 0
M  V30 1220 C 113.002 -2.30804 1.53703 0
M  V30 1221 H 115.953 -1.00318 1.22971 0
M  V30 1222 H 115.974 -3.70174 0.880431 0
M  V30 1223 H 115.486 -2.93686 2.53713 0
M  V30 1224 H 113.587 -3.72067 0.199261 0
M  V30 1225 H 113.7 -4.36774 1.9689 0
M  V30 1226 H 112.064 -2.36007 0.957739 0
M  V30 1227 H 112.847 -2.21499 2.62284 0
M  V30 1228 N 115.292 -0.849877 -1.32721 0
M  V30 1229 C 116.569 -0.372405 -1.92022 0
M  V30 1230 C 116.949 1.1435 -1.77447 0
M  V30 1231 O 116.297 1.96296 -1.16962 0
M  V30 1232 C 116.507 -0.831482 -3.3895 0
M  V30 1233 C 117.855 -0.845882 -4.16089 0
M  V30 1234 O 118.879 -0.775806 -3.47649 0
M  V30 1235 O 117.738 -0.943753 -5.38289 0
M  V30 1236 H 114.832 -0.107667 -0.819961 0
M  V30 1237 H 117.378 -0.93646 -1.41522 0
M  V30 1238 H 116.15 -1.87448 -3.4348 0
M  V30 1239 H 115.773 -0.24461 -3.96847 0
M  V30 1240 N 116.77 1.45427 -0.607355 0
M  V30 1241 C 118 2.06314 -0.108656 0
M  V30 1242 C 118.408 1.45269 1.21217 0
M  V30 1243 O 117.751 0.561115 1.74921 0
M  V30 1244 C 117.813 3.59345 0.105618 0
M  V30 1245 C 117.477 4.42723 -1.13337 0
M  V30 1246 C 118.474 4.77715 -2.05145 0
M  V30 1247 C 116.159 4.83478 -1.36213 0
M  V30 1248 C 118.153 5.52317 -3.18158 0
M  V30 1249 C 115.84 5.57835 -2.49527 0
M  V30 1250 C 116.838 5.92171 -3.40327 0
M  V30 1251 O 116.526 6.65019 -4.51669 0
M  V30 1252 H 116.258 0.672782 -0.0658842 0
M  V30 1253 H 118.812 1.87664 -0.834945 0
M  V30 1254 H 117.042 3.76394 0.886796 0
M  V30 1255 H 118.731 4.02076 0.555886 0
M  V30 1256 H 119.497 4.46787 -1.88697 0
M  V30 1257 H 115.376 4.56188 -0.664362 0
M  V30 1258 H 118.92 5.79036 -3.89054 0
M  V30 1259 H 114.817 5.88177 -2.65928 0
M  V30 1260 H 115.585 6.83469 -4.50348 0
M  V30 1261 N 118.248 0.346503 1.53744 0
M  V30 1262 C 119.496 -0.248612 2.00565 0
M  V30 1263 C 119.817 -1.5083 1.23593 0
M  V30 1264 O 119.087 -1.92858 0.343912 0
M  V30 1265 H 117.667 -0.0948564 0.740953 0
M  V30 1266 H 120.329 0.468341 1.89189 0
M  V30 1267 H 119.425 -0.488994 3.08245 0
M  V30 1268 N 119.726 -1.57421 0.075193 0
M  V30 1269 C 120.676 -2.09441 -0.901025 0
M  V30 1270 C 121.66 -1.00486 -1.25663 0
M  V30 1271 O 122.852 -1.2679 -1.23504 0
M  V30 1272 C 119.981 -2.66233 -2.16737 0
M  V30 1273 C 119.067 -3.82198 -1.83808 0
M  V30 1274 N 119.458 -4.91028 -1.21345 0
M  V30 1275 C 117.756 -3.91558 -2.13538 0
M  V30 1276 C 118.457 -5.71852 -1.06585 0
M  V30 1277 N 117.433 -5.20233 -1.57667 0
M  V30 1278 H 121.235 -2.90972 -0.413815 0
M  V30 1279 H 118.749 -1.6189 -0.128601 0
M  V30 1280 H 120.746 -3.01819 -2.87595 0
M  V30 1281 H 119.406 -1.8615 -2.66042 0
M  V30 1282 H 120.417 -5.10323 -0.88268 0
M  V30 1283 H 117.094 -3.22454 -2.65197 0
M  V30 1284 H 118.484 -6.69401 -0.578933 0
M  V30 1285 N 121.204 0.198386 -1.56346 0
M  V30 1286 C 122.45 0.920648 -1.80698 0
M  V30 1287 C 122.783 1.83045 -0.648697 0
M  V30 1288 O 122.058 1.91308 0.350925 0
M  V30 1289 C 122.341 1.73971 -3.15287 0
M  V30 1290 C 122.194 0.85485 -4.41602 0
M  V30 1291 C 123.513 2.71296 -3.46535 0
M  V30 1292 H 120.632 0.333261 -0.657348 0
M  V30 1293 H 123.274 0.188198 -1.89066 0
M  V30 1294 H 121.424 2.36416 -3.08285 0
M  V30 1295 H 123.096 0.245362 -4.60647 0
M  V30 1296 H 121.339 0.161398 -4.335 0
M  V30 1297 H 122.01 1.46286 -5.32264 0
M  V30 1298 H 124.486 2.18983 -3.53816 0
M  V30 1299 H 123.362 3.2569 -4.41834 0
M  V30 1300 H 123.623 3.5018 -2.69864 0
M  V30 1301 N 122.682 1.50554 0.465978 0
M  V30 1302 C 123.91 1.65563 1.24083 0
M  V30 1303 C 124.325 0.341051 1.85694 0
M  V30 1304 O 123.682 -0.677543 1.69457 0
M  V30 1305 C 123.733 2.75051 2.34583 0
M  V30 1306 O 123.454 4.01413 1.75497 0
M  V30 1307 C 124.955 3.01078 3.25372 0
M  V30 1308 H 122.175 0.55638 0.375077 0
M  V30 1309 H 124.719 1.96807 0.555624 0
M  V30 1310 H 122.874 2.46486 2.9887 0
M  V30 1311 H 123.288 4.62002 2.48303 0
M  V30 1312 H 124.762 3.81339 3.99105 0
M  V30 1313 H 125.239 2.12349 3.84453 0
M  V30 1314 H 125.845 3.31194 2.66816 0
M  V30 1315 N 124.16 -0.719506 1.40217 0
M  V30 1316 C 125.388 -1.50864 1.41589 0
M  V30 1317 C 125.803 -1.88794 0.0145275 0
M  V30 1318 O 125.16 -1.55174 -0.960594 0
M  V30 1319 C 125.211 -2.78646 2.30302 0
M  V30 1320 O 124.932 -2.42321 3.64983 0
M  V30 1321 C 126.433 -3.72569 2.40224 0
M  V30 1322 H 123.653 -0.465709 0.48307 0
M  V30 1323 H 126.197 -0.88785 1.84221 0
M  V30 1324 H 124.352 -3.37019 1.91042 0
M  V30 1325 H 124.766 -3.24514 4.12057 0
M  V30 1326 H 126.24 -4.5908 3.06512 0
M  V30 1327 H 126.717 -4.15403 1.42608 0
M  V30 1328 H 127.323 -3.20109 2.80019 0
M  V30 1329 N 125.638 -1.25649 -0.95132 0
M  V30 1330 C 126.863 -1.13443 -1.73624 0
M  V30 1331 C 127.288 0.307565 -1.85568 0
M  V30 1332 O 126.646 1.22282 -1.33854 0
M  V30 1333 C 126.694 -1.79723 -3.12621 0
M  V30 1334 O 125.798 -1.07912 -3.98031 0
M  V30 1335 H 125.139 -0.395872 -0.533086 0
M  V30 1336 H 127.669 -1.66276 -1.1922 0
M  V30 1337 H 127.679 -1.86141 -3.63064 0
M  V30 1338 H 126.354 -2.84633 -3.03244 0
M  V30 1339 H 124.931 -1.09398 -3.56492 0
M  V30 1340 N 127.117 1.15442 -1.07289 0
M  V30 1341 C 128.027 2.23786 -0.704057 0
M  V30 1342 C 129.043 1.7166 0.284413 0
M  V30 1343 O 130.219 2.00972 0.131205 0
M  V30 1344 C 127.284 3.46535 -0.106792 0
M  V30 1345 C 126.345 4.13654 -1.14842 0
M  V30 1346 C 125.578 5.30544 -0.57956 0
M  V30 1347 O 125.801 5.67187 0.604585 0
M  V30 1348 O 124.735 5.87154 -1.32414 0
M  V30 1349 H 128.561 2.57664 -1.60757 0
M  V30 1350 H 126.146 1.23152 -0.845803 0
M  V30 1351 H 128.028 4.20804 0.224048 0
M  V30 1352 H 126.703 3.14407 0.770049 0
M  V30 1353 H 125.61 3.4131 -1.5316 0
M  V30 1354 H 126.943 4.49861 -1.99714 0
M  V30 1355 N 128.595 0.856903 1.32268 0
M  V30 1356 C 129.558 0.308171 2.27119 0
M  V30 1357 C 130.558 -0.533421 1.51695 0
M  V30 1358 O 131.748 -0.344607 1.70757 0
M  V30 1359 C 128.88 -0.563757 3.36206 0
M  V30 1360 H 130.073 1.14535 2.77167 0
M  V30 1361 H 127.626 0.631421 1.42978 0
M  V30 1362 H 128.361 -1.42266 2.91429 0
M  V30 1363 H 128.146 0.0386749 3.92081 0
M  V30 1364 H 129.636 -0.940386 4.06874 0
M  V30 1365 N 130.073 -1.45103 0.615059 0
M  V30 1366 C 131.32 -2.02183 0.113179 0
M  V30 1367 C 131.648 -1.48249 -1.25906 0
M  V30 1368 O 130.903 -0.650265 -1.84581 0
M  V30 1369 C 131.202 -3.57386 0.0318797 0
M  V30 1370 C 130.868 -4.30505 1.34077 0
M  V30 1371 C 129.53 -4.50197 1.69929 0
M  V30 1372 C 131.882 -4.72238 2.20546 0
M  V30 1373 C 129.21 -5.08881 2.91988 0
M  V30 1374 C 131.562 -5.32272 3.41861 0
M  V30 1375 C 130.226 -5.50187 3.77956 0
M  V30 1376 H 129.496 -0.739842 0.0414151 0
M  V30 1377 H 132.143 -1.74073 0.798168 0
M  V30 1378 H 130.448 -3.84817 -0.736409 0
M  V30 1379 H 132.145 -3.99264 -0.372712 0
M  V30 1380 H 128.735 -4.15496 1.05173 0
M  V30 1381 H 132.919 -4.56751 1.94146 0
M  V30 1382 H 128.175 -5.20939 3.2005 0
M  V30 1383 H 132.349 -5.63563 4.09109 0
M  V30 1384 H 129.976 -5.95427 4.72622 0
M  V30 1385 N 131.551 -0.354651 -1.53558 0
M  V30 1386 C 132.776 0.242153 -2.05981 0
M  V30 1387 C 133.201 1.42553 -1.2272 0
M  V30 1388 O 132.559 1.79656 -0.243604 0
M  V30 1389 C 132.607 0.624367 -3.55154 0
M  V30 1390 O 131.711 1.72301 -3.74681 0
M  V30 1391 H 131.052 0.0378432 -0.662921 0
M  V30 1392 H 133.582 -0.512087 -1.98088 0
M  V30 1393 H 133.592 0.898433 -3.97985 0
M  V30 1394 H 132.267 -0.240989 -4.15201 0
M  V30 1395 H 130.844 1.44535 -3.4375 0
M  V30 1396 N 133.029 1.57378 -0.0835403 0
M  V30 1397 C 134.259 1.97975 0.590713 0
M  V30 1398 C 134.667 0.961083 1.62972 0
M  V30 1399 O 134.01 -0.0590879 1.83605 0
M  V30 1400 C 134.072 3.34915 1.3066 0
M  V30 1401 C 133.736 4.55069 0.419698 0
M  V30 1402 C 134.733 5.18868 -0.32749 0
M  V30 1403 C 132.418 5.0114 0.341137 0
M  V30 1404 C 134.412 6.27098 -1.14134 0
M  V30 1405 C 132.099 6.0924 -0.476374 0
M  V30 1406 C 133.097 6.72083 -1.21627 0
M  V30 1407 O 132.785 7.781 -2.02028 0
M  V30 1408 H 132.517 0.655818 0.163947 0
M  V30 1409 H 135.071 2.04807 -0.156021 0
M  V30 1410 H 133.301 3.24733 2.09966 0
M  V30 1411 H 134.99 3.60037 1.87424 0
M  V30 1412 H 135.756 4.84211 -0.276459 0
M  V30 1413 H 131.635 4.51996 0.90668 0
M  V30 1414 H 135.179 6.7608 -1.71935 0
M  V30 1415 H 131.076 6.43329 -0.528927 0
M  V30 1416 H 131.844 7.95034 -1.94586 0
M  V30 1417 N 134.507 -0.190092 1.56449 0
M  V30 1418 C 135.737 -0.92443 1.84764 0
M  V30 1419 C 136.145 -1.77146 0.664529 0
M  V30 1420 O 135.488 -1.79812 -0.375957 0
M  V30 1421 C 135.55 -1.86651 3.07248 0
M  V30 1422 C 135.214 -1.20094 4.40938 0
M  V30 1423 C 136.211 -0.575445 5.16706 0
M  V30 1424 C 133.896 -1.2033 4.87674 0
M  V30 1425 C 135.89 0.0388111 6.37388 0
M  V30 1426 C 133.577 -0.585214 6.08291 0
M  V30 1427 C 134.575 0.0347578 6.82991 0
M  V30 1428 O 134.263 0.643147 8.01323 0
M  V30 1429 H 133.995 -0.274974 0.617548 0
M  V30 1430 H 136.549 -0.200788 2.04416 0
M  V30 1431 H 134.779 -2.62998 2.83494 0
M  V30 1432 H 136.468 -2.46907 3.22167 0
M  V30 1433 H 137.234 -0.565728 4.81689 0
M  V30 1434 H 133.113 -1.67526 4.29484 0
M  V30 1435 H 136.657 0.523329 6.95634 0
M  V30 1436 H 132.554 -0.592451 6.42775 0
M  V30 1437 H 133.322 0.540545 8.16713 0
M  V30 1438 N 135.985 -1.50799 -0.457987 0
M  V30 1439 C 137.231 -1.62683 -1.21088 0
M  V30 1440 C 137.564 -0.332268 -1.91336 0
M  V30 1441 O 136.839 0.667043 -1.82704 0
M  V30 1442 C 137.122 -2.81615 -2.24422 0
M  V30 1443 C 136.975 -4.20989 -1.58392 0
M  V30 1444 C 138.294 -2.96085 -3.2561 0
M  V30 1445 H 135.413 -0.592087 -0.438864 0
M  V30 1446 H 138.055 -1.83225 -0.50286 0
M  V30 1447 H 136.205 -2.64231 -2.84806 0
M  V30 1448 H 137.877 -4.49994 -1.01504 0
M  V30 1449 H 136.12 -4.24641 -0.886704 0
M  V30 1450 H 136.791 -5.0016 -2.33547 0
M  V30 1451 H 139.267 -3.12042 -2.75262 0
M  V30 1452 H 138.143 -3.80902 -3.95228 0
M  V30 1453 H 138.404 -2.0726 -3.90507 0
M  V30 1454 N 137.463 0.71206 -1.40597 0
M  V30 1455 C 138.709 1.47292 -1.40274 0
M  V30 1456 C 139.064 1.92399 -0.00576812 0
M  V30 1457 O 138.357 1.65507 0.965297 0
M  V30 1458 C 138.551 2.71039 -2.32965 0
M  V30 1459 C 138.38 2.38035 -3.81536 0
M  V30 1460 C 137.15 2.29203 -4.50327 0
M  V30 1461 C 139.348 2.02076 -4.72938 0
M  V30 1462 N 137.33 1.88911 -5.84111 0
M  V30 1463 C 138.701 1.72412 -5.95545 0
M  V30 1464 C 140.756 1.88742 -4.60739 0
M  V30 1465 C 139.459 1.30756 -7.07316 0
M  V30 1466 C 141.485 1.4849 -5.72455 0
M  V30 1467 C 140.847 1.19726 -6.94151 0
M  V30 1468 H 136.946 0.536919 -0.568544 0
M  V30 1469 H 139.53 0.825424 -1.76337 0
M  V30 1470 H 137.701 3.33533 -1.99023 0
M  V30 1471 H 139.433 3.37404 -2.23474 0
M  V30 1472 H 136.188 2.47059 -4.04053 0
M  V30 1473 H 136.612 1.71293 -6.54972 0
M  V30 1474 H 141.254 2.0964 -3.67166 0
M  V30 1475 H 138.972 1.08601 -8.00769 0
M  V30 1476 H 142.558 1.38747 -5.65014 0
M  V30 1477 H 141.438 0.890482 -7.79128 0
M  V30 1478 N 138.941 1.26152 0.944643 0
M  V30 1479 C 139.871 1.09902 2.06019 0
M  V30 1480 C 140.852 0.00519538 1.70099 0
M  V30 1481 O 142.037 0.176583 1.93396 0
M  V30 1482 C 139.167 0.727562 3.39594 0
M  V30 1483 C 138.121 1.77274 3.89561 0
M  V30 1484 C 137.447 1.25569 5.19747 0
M  V30 1485 C 138.747 3.17357 4.14827 0
M  V30 1486 H 140.441 2.03217 2.19871 0
M  V30 1487 H 137.987 0.978452 1.05652 0
M  V30 1488 H 139.94 0.600777 4.17095 0
M  V30 1489 H 138.664 -0.241287 3.25707 0
M  V30 1490 H 137.323 1.88814 3.14237 0
M  V30 1491 H 136.971 0.276783 5.02238 0
M  V30 1492 H 136.671 1.95433 5.54148 0
M  V30 1493 H 138.195 1.1415 5.99835 0
M  V30 1494 H 139.609 3.08914 4.82954 0
M  V30 1495 H 138.006 3.84781 4.60504 0
M  V30 1496 H 139.076 3.63673 3.20734 0
M  V30 1497 N 140.419 -1.14872 1.07899 0
M  V30 1498 C 141.329 -2.2341 0.715915 0
M  V30 1499 C 142.345 -1.71808 -0.275306 0
M  V30 1500 O 143.521 -2.01039 -0.120545 0
M  V30 1501 C 140.586 -3.46474 0.125168 0
M  V30 1502 C 139.647 -4.13039 1.17034 0
M  V30 1503 C 138.88 -5.30229 0.607688 0
M  V30 1504 O 139.103 -5.675 -0.574497 0
M  V30 1505 O 138.037 -5.86444 1.35526 0
M  V30 1506 H 141.863 -2.56808 1.62121 0
M  V30 1507 H 139.448 -1.22702 0.852322 0
M  V30 1508 H 141.33 -4.20917 -0.201729 0
M  V30 1509 H 140.005 -3.14811 -0.753364 0
M  V30 1510 H 138.912 -3.40493 1.54968 0
M  V30 1511 H 140.245 -4.48796 2.02097 0
M  V30 1512 N 141.898 -0.863906 -1.31812 0
M  V30 1513 C 142.861 -0.320212 -2.26952 0
M  V30 1514 C 143.861 0.525369 -1.51975 0
M  V30 1515 O 145.051 0.335547 -1.70938 0
M  V30 1516 C 142.183 0.545919 -3.365 0
M  V30 1517 H 143.376 -1.16004 -2.76556 0
M  V30 1518 H 140.929 -0.638995 -1.42641 0
M  V30 1519 H 141.664 1.40718 -2.92179 0
M  V30 1520 H 141.449 -0.0594674 -3.92055 0
M  V30 1521 H 142.939 0.918796 -4.07367 0
M  V30 1522 N 143.376 1.44774 -0.622745 0
M  V30 1523 C 144.309 2.27792 0.136329 0
M  V30 1524 C 145.287 1.38041 0.859264 0
M  V30 1525 O 146.471 1.67478 0.86506 0
M  V30 1526 C 143.598 3.16776 1.19878 0
M  V30 1527 C 142.644 4.22575 0.57731 0
M  V30 1528 S 143.477 5.31825 -0.626294 0
M  V30 1529 C 144.633 6.24377 0.436378 0
M  V30 1530 H 144.866 2.91824 -0.567967 0
M  V30 1531 H 142.399 1.48838 -0.410677 0
M  V30 1532 H 144.357 3.68596 1.80686 0
M  V30 1533 H 143.018 2.5198 1.87523 0
M  V30 1534 H 142.211 4.84818 1.37721 0
M  V30 1535 H 141.813 3.73974 0.0440439 0
M  V30 1536 H 144.105 6.64689 1.31128 0
M  V30 1537 H 145.048 7.07941 -0.150271 0
M  V30 1538 H 145.456 5.59381 0.758513 0
M  V30 1539 N 144.854 0.36279 1.53368 0
M  V30 1540 C 146.084 -0.228281 2.05335 0
M  V30 1541 C 146.492 -1.43226 1.23625 0
M  V30 1542 O 145.835 -1.81717 0.269206 0
M  V30 1543 C 145.897 -0.688549 3.52845 0
M  V30 1544 C 145.561 0.398362 4.5526 0
M  V30 1545 C 146.558 1.24732 5.04716 0
M  V30 1546 C 144.243 0.557805 4.99193 0
M  V30 1547 C 146.237 2.2411 5.96702 0
M  V30 1548 C 143.924 1.55495 5.90986 0
M  V30 1549 C 144.922 2.39503 6.39631 0
M  V30 1550 O 144.61 3.37517 7.29615 0
M  V30 1551 H 144.342 -0.044395 0.674541 0
M  V30 1552 H 146.896 0.518668 1.98744 0
M  V30 1553 H 145.126 -1.48706 3.56964 0
M  V30 1554 H 146.815 -1.20231 3.87685 0
M  V30 1555 H 147.581 1.13532 4.71525 0
M  V30 1556 H 143.46 -0.0862959 4.60919 0
M  V30 1557 H 147.004 2.89718 6.34594 0
M  V30 1558 H 142.901 1.66744 6.23592 0
M  V30 1559 H 143.669 3.33213 7.47604 0
M  V30 1560 N 146.332 -1.57332 0.0918853 0
M  V30 1561 C 147.58 -1.93853 -0.571446 0
M  V30 1562 C 147.901 -0.974212 -1.6892 0
M  V30 1563 O 147.171 -0.0257254 -1.95883 0
M  V30 1564 H 145.751 -0.715666 -0.214082 0
M  V30 1565 H 148.413 -1.94287 0.154464 0
M  V30 1566 H 147.509 -2.96191 -0.983729 0
M  V30 1567 N 147.81 0.181792 -1.56548 0
M  V30 1568 C 148.758 1.24461 -1.965 0
M  V30 1569 C 149.752 1.464 -0.852261 0
M  V30 1570 O 150.958 1.47103 -1.03733 0
M  V30 1571 H 147.333 0.418138 -0.625031 0
M  V30 1572 H 149.304 0.880714 -2.85107 0
M  V30 1573 C 148.053 2.57891 -2.33212 0
M  V30 1574 H 147.376 2.41829 -3.18369 0
M  V30 1575 H 148.816 3.3097 -2.65019 0
M  V30 1576 C 147.275 3.15871 -1.17163 0
M  V30 1577 O 147.805 3.9913 -0.453708 0
M  V30 1578 N 146.011 2.74808 -0.944936 0
M  V30 1579 H 145.558 2.07205 -1.53049 0
M  V30 1580 H 145.516 3.13939 -0.170286 0
M  V30 1581 N 149.288 1.51039 0.449983 0
M  V30 1582 C 150.218 1.74379 1.55288 0
M  V30 1583 C 151.199 0.593236 1.5942 0
M  V30 1584 O 152.384 0.834625 1.7535 0
M  V30 1585 C 149.514 1.85728 2.93466 0
M  V30 1586 C 148.468 3.01078 3.04197 0
M  V30 1587 C 147.794 2.97595 4.44231 0
M  V30 1588 C 149.094 4.41254 2.7945 0
M  V30 1589 H 150.788 2.66725 1.36008 0
M  V30 1590 H 148.334 1.2835 0.652864 0
M  V30 1591 H 150.287 2.0064 3.70569 0
M  V30 1592 H 149.011 0.900207 3.13949 0
M  V30 1593 H 147.67 2.85851 2.29531 0
M  V30 1594 H 147.318 1.99691 4.61663 0
M  V30 1595 H 147.018 3.75046 4.52343 0
M  V30 1596 H 148.542 3.14583 5.23326 0
M  V30 1597 H 149.956 4.56897 3.46292 0
M  V30 1598 H 148.353 5.20315 2.98985 0
M  V30 1599 H 149.423 4.52164 1.75144 0
M  V30 1600 N 150.766 -0.704594 1.40972 0
M  V30 1601 C 151.994 -1.49354 1.43182 0
M  V30 1602 C 152.409 -1.88768 0.0345508 0
M  V30 1603 O 151.766 -1.56184 -0.944081 0
M  V30 1604 C 151.817 -2.76187 2.33244 0
M  V30 1605 O 151.538 -2.38436 3.67532 0
M  V30 1606 C 153.039 -3.7 2.44162 0
M  V30 1607 H 150.259 -0.460559 0.487982 0
M  V30 1608 H 152.803 -0.868261 1.85153 0
M  V30 1609 H 150.958 -3.34974 1.94606 0
M  V30 1610 H 151.372 -3.20126 4.15475 0
M  V30 1611 H 152.846 -4.55803 3.11364 0
M  V30 1612 H 153.323 -4.13867 1.47006 0
M  V30 1613 H 153.929 -3.17121 2.83398 0
M  V30 1614 N 152.244 -1.26651 -0.937939 0
M  V30 1615 C 153.492 -1.12165 -1.68118 0
M  V30 1616 C 153.813 0.334983 -1.92101 0
M  V30 1617 O 153.083 1.23583 -1.52 0
M  V30 1618 H 151.663 -0.412093 -0.623048 0
M  V30 1619 H 154.325 -1.59027 -1.12678 0
M  V30 1620 H 153.421 -1.64289 -2.6536 0
M  V30 1621 N 153.722 1.14298 -1.08507 0
M  V30 1622 C 154.67 2.21483 -0.710483 0
M  V30 1623 C 155.664 1.66998 0.284234 0
M  V30 1624 O 156.87 1.79401 0.146692 0
M  V30 1625 H 153.245 0.721578 -0.211729 0
M  V30 1626 H 155.216 2.50348 -1.62384 0
M  V30 1627 C 153.965 3.4743 -0.137007 0
M  V30 1628 H 153.288 3.89686 -0.893592 0
M  V30 1629 H 154.728 4.2391 0.0872789 0
M  V30 1630 C 153.187 3.17548 1.12538 0
M  V30 1631 O 153.717 3.35437 2.21009 0
M  V30 1632 N 151.923 2.71499 1.03617 0
M  V30 1633 H 151.47 2.57143 0.153403 0
M  V30 1634 H 151.428 2.51881 1.88158 0
M  V30 1635 N 155.201 0.870884 1.31352 0
M  V30 1636 C 156.447 0.492314 1.97352 0
M  V30 1637 C 156.802 -0.945174 1.67583 0
M  V30 1638 O 156.095 -1.65674 0.962423 0
M  V30 1639 C 156.289 0.687157 3.50732 0
M  V30 1640 C 156.118 2.14203 3.95407 0
M  V30 1641 C 154.888 2.78382 4.21701 0
M  V30 1642 C 157.086 3.1144 4.09279 0
M  V30 1643 N 155.068 4.14611 4.52737 0
M  V30 1644 C 156.439 4.32702 4.44037 0
M  V30 1645 C 158.494 3.07418 3.91661 0
M  V30 1646 C 157.197 5.50463 4.63015 0
M  V30 1647 C 159.223 4.24438 4.11833 0
M  V30 1648 C 158.585 5.44463 4.46923 0
M  V30 1649 H 154.684 0.229206 0.747655 0
M  V30 1650 H 157.268 1.12568 1.5886 0
M  V30 1651 H 155.439 0.083384 3.8831 0
M  V30 1652 H 157.171 0.276883 4.03752 0
M  V30 1653 H 153.926 2.29326 4.14375 0
M  V30 1654 H 154.35 4.84928 4.72413 0
M  V30 1655 H 158.992 2.15732 3.6362 0
M  V30 1656 H 156.71 6.42666 4.89904 0
M  V30 1657 H 160.296 4.2278 3.99685 0
M  V30 1658 H 159.176 6.33504 4.62214 0
M  V30 1659 N 156.679 -1.44442 0.630414 0
M  V30 1660 C 157.904 -2.06927 0.139944 0
M  V30 1661 C 158.329 -1.46795 -1.17613 0
M  V30 1662 O 157.687 -0.569144 -1.72135 0
M  V30 1663 C 157.735 -3.6058 0.0379581 0
M  V30 1664 O 156.839 -3.99937 -1.0062 0
M  V30 1665 H 156.18 -0.658608 0.0844483 0
M  V30 1666 H 158.71 -1.85327 0.866891 0
M  V30 1667 H 158.72 -4.07714 -0.152856 0
M  V30 1668 H 157.395 -4.03728 0.998809 0
M  V30 1669 H 155.972 -3.64436 -0.79001 0
M  V30 1670 N 158.157 -0.370918 -1.53173 0
M  V30 1671 C 159.405 0.216673 -2.00935 0
M  V30 1672 C 159.726 1.48845 -1.25977 0
M  V30 1673 O 158.996 1.92286 -0.374551 0
M  V30 1674 H 157.576 0.0830565 -0.742368 0
M  V30 1675 H 160.238 -0.49838 -1.8842 0
M  V30 1676 H 159.334 0.439893 -3.08984 0
M  V30 1677 N 159.635 1.57281 -0.100228 0
M  V30 1678 C 160.881 1.94826 0.563101 0
M  V30 1679 C 161.214 0.982475 1.67514 0
M  V30 1680 O 160.489 0.0164069 1.94493 0
M  V30 1681 C 160.772 3.42453 1.11346 0
M  V30 1682 C 160.625 4.498 0.00612081 0
M  V30 1683 C 161.944 3.91506 2.01024 0
M  V30 1684 H 159.063 0.708428 0.203221 0
M  V30 1685 H 161.705 1.8922 -0.171979 0
M  V30 1686 H 159.855 3.47361 1.7399 0
M  V30 1687 H 161.527 4.57 -0.628357 0
M  V30 1688 H 159.77 4.28756 -0.659581 0
M  V30 1689 H 160.441 5.50306 0.432109 0
M  V30 1690 H 162.917 3.88784 1.48278 0
M  V30 1691 H 161.793 4.95358 2.36457 0
M  V30 1692 H 162.054 3.31099 2.92961 0
M  V30 1693 N 161.113 -0.173488 1.56642 0
M  V30 1694 C 162.023 -1.23482 1.99473 0
M  V30 1695 C 163.039 -1.48567 0.905752 0
M  V30 1696 O 164.215 -1.60758 1.21321 0
M  V30 1697 C 161.28 -2.55444 2.34413 0
M  V30 1698 C 160.341 -2.38241 3.57127 0
M  V30 1699 C 159.574 -3.63909 3.90392 0
M  V30 1700 O 159.797 -4.68996 3.24653 0
M  V30 1701 O 158.731 -3.58149 4.83749 0
M  V30 1702 H 162.557 -0.901279 2.90018 0
M  V30 1703 H 160.142 -0.380185 1.44482 0
M  V30 1704 H 162.024 -3.33292 2.57865 0
M  V30 1705 H 160.699 -2.88382 1.4703 0
M  V30 1706 H 159.606 -1.58431 3.38896 0
M  V30 1707 H 160.939 -2.10228 4.45045 0
M  V30 1708 N 162.591 -1.51276 -0.441967 0
M  V30 1709 C 163.819 -1.67516 -1.21434 0
M  V30 1710 C 164.234 -0.37055 -1.85128 0
M  V30 1711 O 163.591 0.650498 -1.70513 0
M  V30 1712 C 163.642 -2.78748 -2.30177 0
M  V30 1713 O 163.363 -4.04154 -1.69089 0
M  V30 1714 C 164.864 -3.06217 -3.20541 0
M  V30 1715 H 162.084 -0.562276 -0.366178 0
M  V30 1716 H 164.628 -1.97666 -0.524244 0
M  V30 1717 H 162.783 -2.5121 -2.94911 0
M  V30 1718 H 163.197 -4.65894 -2.40922 0
M  V30 1719 H 164.671 -3.8764 -3.92987 0
M  V30 1720 H 165.148 -2.18439 -3.81026 0
M  V30 1721 H 165.754 -3.35397 -2.61513 0
M  V30 1722 N 164.069 0.697108 -1.41344 0
M  V30 1723 C 165.032 1.79281 -1.42797 0
M  V30 1724 C 166.032 1.57607 -0.318837 0
M  V30 1725 O 167.222 1.64309 -0.578642 0
M  V30 1726 C 164.354 3.17632 -1.23785 0
M  V30 1727 H 165.547 1.79385 -2.40335 0
M  V30 1728 H 163.1 0.904582 -1.27464 0
M  V30 1729 H 163.835 3.23167 -0.270814 0
M  V30 1730 H 163.62 3.34765 -2.04144 0
M  V30 1731 H 165.11 3.97617 -1.27633 0
M  V30 1732 N 165.547 1.27147 0.931209 0
M  V30 1733 C 166.793 1.14455 1.68141 0
M  V30 1734 C 167.148 -0.307172 1.89932 0
M  V30 1735 O 166.441 -1.22158 1.47607 0
M  V30 1736 C 166.635 1.8579 3.05314 0
M  V30 1737 C 166.464 3.3775 2.96909 0
M  V30 1738 C 165.234 4.07062 2.99381 0
M  V30 1739 C 167.432 4.33783 2.76291 0
M  V30 1740 N 165.414 5.45618 2.8138 0
M  V30 1741 C 166.785 5.59582 2.6696 0
M  V30 1742 C 168.84 4.23915 2.61152 0
M  V30 1743 C 167.543 6.76639 2.44033 0
M  V30 1744 C 169.569 5.40689 2.39602 0
M  V30 1745 C 168.931 6.65443 2.3101 0
M  V30 1746 H 165.03 0.473667 0.622225 0
M  V30 1747 H 167.614 1.60568 1.10118 0
M  V30 1748 H 165.785 1.42138 3.61457 0
M  V30 1749 H 167.517 1.65634 3.69253 0
M  V30 1750 H 164.272 3.585 3.09475 0
M  V30 1751 H 164.696 6.184 2.75519 0
M  V30 1752 H 169.338 3.28189 2.66555 0
M  V30 1753 H 167.056 7.72451 2.3737 0
M  V30 1754 H 170.642 5.34932 2.28778 0
M  V30 1755 H 169.522 7.54277 2.14558 0
M  V30 1756 N 167.025 -1.13721 1.09112 0
M  V30 1757 C 167.972 -2.19031 0.727591 0
M  V30 1758 C 168.942 -1.63555 -0.289656 0
M  V30 1759 O 170.127 -1.90023 -0.172026 0
M  V30 1760 C 167.267 -3.4477 0.15082 0
M  V30 1761 C 166.38 -4.14365 1.22172 0
M  V30 1762 C 165.515 -5.27709 0.608042 0
M  V30 1763 C 164.554 -5.89147 1.66047 0
M  V30 1764 N 163.691 -6.93929 1.06806 0
M  V30 1765 H 168.531 -2.49475 1.62991 0
M  V30 1766 H 166.068 -1.22499 0.81439 0
M  V30 1767 H 168.026 -4.16714 -0.201358 0
M  V30 1768 H 166.656 -3.14787 -0.714783 0
M  V30 1769 H 165.708 -3.40737 1.69122 0
M  V30 1770 H 167.02 -4.56114 2.01895 0
M  V30 1771 H 166.174 -6.06355 0.204523 0
M  V30 1772 H 164.913 -4.872 -0.220769 0
M  V30 1773 H 163.918 -5.09198 2.07357 0
M  V30 1774 H 165.143 -6.31729 2.49189 0
M  V30 1775 H 163.089 -6.55483 0.260476 0
M  V30 1776 H 163.006 -7.34202 1.8023 0
M  V30 1777 H 164.274 -7.76434 0.690644 0
M  V30 1778 N 168.503 -0.877838 -1.30888 0
M  V30 1779 C 169.749 -0.493426 -1.96706 0
M  V30 1780 C 170.082 0.953504 -1.6918 0
M  V30 1781 O 169.357 1.67266 -0.992594 0
M  V30 1782 C 169.64 -0.760429 -3.51979 0
M  V30 1783 C 169.493 -2.25747 -3.89048 0
M  V30 1784 C 170.812 -0.232148 -4.39487 0
M  V30 1785 H 167.931 -0.180746 -0.714493 0
M  V30 1786 H 170.573 -1.10052 -1.54882 0
M  V30 1787 H 168.723 -0.243715 -3.87735 0
M  V30 1788 H 170.395 -2.84204 -3.63354 0
M  V30 1789 H 168.638 -2.72694 -3.37373 0
M  V30 1790 H 169.309 -2.39491 -4.97341 0
M  V30 1791 H 171.785 -0.674314 -4.106 0
M  V30 1792 H 170.661 -0.448355 -5.47066 0
M  V30 1793 H 170.922 0.866297 -4.33529 0
M  V30 1794 N 169.982 1.44106 -0.638065 0
M  V30 1795 C 170.915 2.27924 0.112161 0
M  V30 1796 C 171.893 1.38945 0.844574 0
M  V30 1797 O 173.077 1.68386 0.847248 0
M  V30 1798 C 170.204 3.18029 1.16512 0
M  V30 1799 C 169.25 4.23163 0.532458 0
M  V30 1800 S 170.083 5.31131 -0.682666 0
M  V30 1801 C 171.239 6.24805 0.37013 0
M  V30 1802 H 171.472 2.91205 -0.598887 0
M  V30 1803 H 169.005 1.48394 -0.426441 0
M  V30 1804 H 170.963 3.70492 1.76766 0
M  V30 1805 H 169.624 2.53955 1.8484 0
M  V30 1806 H 168.817 4.86252 1.32571 0
M  V30 1807 H 168.419 3.74 0.00437644 0
M  V30 1808 H 170.711 6.66042 1.24071 0
M  V30 1809 H 171.654 7.07741 -0.225349 0
M  V30 1810 H 172.062 5.60154 0.699141 0
M  V30 1811 N 171.46 0.379036 1.52974 0
M  V30 1812 C 172.37 -0.468639 2.29872 0
M  V30 1813 C 173.386 -1.08067 1.36373 0
M  V30 1814 O 174.562 -1.08871 1.69438 0
M  V30 1815 C 171.627 -1.58594 3.083 0
M  V30 1816 C 170.688 -1.00007 4.17489 0
M  V30 1817 C 169.921 -2.06413 4.92168 0
M  V30 1818 O 170.144 -3.27751 4.66835 0
M  V30 1819 O 169.078 -1.68717 5.7777 0
M  V30 1820 H 172.904 0.157508 3.03291 0
M  V30 1821 H 170.489 0.143035 1.48714 0
M  V30 1822 H 172.371 -2.23525 3.57232 0
M  V30 1823 H 171.046 -2.19724 2.37703 0
M  V30 1824 H 169.953 -0.314299 3.72777 0
M  V30 1825 H 171.286 -0.433135 4.90291 0
M  V30 1826 N 172.938 -1.57226 0.108567 0
M  V30 1827 C 174.215 -1.86333 -0.594939 0
M  V30 1828 C 174.595 -1.00788 -1.85486 0
M  V30 1829 O 173.943 -0.0839293 -2.28346 0
M  V30 1830 C 174.153 -3.37265 -0.897405 0
M  V30 1831 C 175.501 -4.05629 -1.25501 0
M  V30 1832 O 176.525 -3.42224 -0.987998 0
M  V30 1833 O 175.384 -5.17531 -1.75567 0
M  V30 1834 H 172.478 -0.771018 -0.2991 0
M  V30 1835 H 175.024 -1.69102 0.142283 0
M  V30 1836 H 173.796 -3.913 -0.00413806 0
M  V30 1837 H 173.419 -3.59889 -1.69014 0
M  V30 1838 N 174.416 0.165178 -1.56732 0
M  V30 1839 C 175.662 0.877389 -1.83503 0
M  V30 1840 C 176.017 1.79602 -0.689996 0
M  V30 1841 O 175.31 1.89023 0.313205 0
M  V30 1842 C 175.504 1.70405 -3.1416 0
M  V30 1843 C 175.333 0.866961 -4.41264 0
M  V30 1844 C 174.103 0.539646 -5.0241 0
M  V30 1845 C 176.301 0.205671 -5.13889 0
M  V30 1846 N 174.283 -0.312946 -6.13102 0
M  V30 1847 C 175.654 -0.507823 -6.17917 0
M  V30 1848 C 177.709 0.124468 -4.97744 0
M  V30 1849 C 176.412 -1.29483 -7.0755 0
M  V30 1850 C 178.438 -0.649222 -5.87826 0
M  V30 1851 C 177.8 -1.35106 -6.91322 0
M  V30 1852 H 173.899 0.299477 -0.722383 0
M  V30 1853 H 176.483 0.143949 -1.94167 0
M  V30 1854 H 174.654 2.40887 -3.04677 0
M  V30 1855 H 176.386 2.35804 -3.28905 0
M  V30 1856 H 173.141 0.871176 -4.65519 0
M  V30 1857 H 173.565 -0.729731 -6.73056 0
M  V30 1858 H 178.207 0.652724 -4.17731 0
M  V30 1859 H 175.925 -1.83441 -7.87004 0
M  V30 1860 H 179.511 -0.713804 -5.77405 0
M  V30 1861 H 178.391 -1.94013 -7.59821 0
M  V30 1862 N 175.894 1.51508 0.433938 0
M  V30 1863 C 177.143 1.63578 1.18005 0
M  V30 1864 C 177.456 0.359514 1.92268 0
M  V30 1865 O 178.662 0.359632 2.69108 0
M  V30 1866 C 177.118 2.88901 2.14626 0
M  V30 1867 C 176.726 4.23544 1.45995 0
M  V30 1868 C 178.47 3.10328 2.89649 0
M  V30 1869 C 176.377 5.40014 2.4112 0
M  V30 1870 H 175.307 0.609277 0.444182 0
M  V30 1871 H 177.958 1.77978 0.446773 0
M  V30 1872 H 176.34 2.68142 2.91403 0
M  V30 1873 H 177.514 4.54696 0.747532 0
M  V30 1874 H 175.829 4.08021 0.831115 0
M  V30 1875 H 178.426 3.94518 3.60915 0
M  V30 1876 H 178.769 2.23544 3.51189 0
M  V30 1877 H 179.302 3.31443 2.19978 0
M  V30 1878 H 176.041 6.29068 1.84264 0
M  V30 1879 H 175.561 5.13233 3.10406 0
M  V30 1880 H 177.24 5.72099 3.02177 0
M  V30 1881 N 177.372 -0.689602 1.41712 0
M  V30 1882 C 178.621 -1.44534 1.40686 0
M  V30 1883 C 178.934 -1.95588 0.0213352 0
M  V30 1884 O 180.14 -2.71271 -0.111534 0
M  V30 1885 C 178.596 -2.61387 2.47396 0
M  V30 1886 C 178.204 -2.17094 3.91885 0
M  V30 1887 C 179.948 -3.38986 2.55517 0
M  V30 1888 C 177.855 -3.3094 4.90135 0
M  V30 1889 H 176.785 -0.542925 0.52321 0
M  V30 1890 H 179.436 -0.748054 1.6756 0
M  V30 1891 H 177.818 -3.33412 2.13664 0
M  V30 1892 H 178.992 -1.52318 4.34897 0
M  V30 1893 H 177.307 -1.52473 3.8748 0
M  V30 1894 H 179.904 -4.23747 3.26102 0
M  V30 1895 H 180.247 -3.84578 1.59391 0
M  V30 1896 H 180.78 -2.74021 2.8837 0
M  V30 1897 H 177.519 -2.90355 5.87685 0
M  V30 1898 H 177.039 -3.94546 4.51767 0
M  V30 1899 H 178.718 -3.9663 5.11169 0
M  V30 1900 N 178.85 -1.27639 -0.924453 0
M  V30 1901 C 180.261 -1.12834 -1.48746 0
M  V30 1902 C 180.612 0.285505 -1.94112 0
M  V30 1903 O 179.737 1.17874 -1.81479 0
M  V30 1904 C 180.332 -2.04217 -2.70334 0
M  V30 1905 C 178.891 -1.93509 -3.22848 0
M  V30 1906 C 178.038 -1.96583 -1.95577 0
M  V30 1907 H 180.989 -1.40484 -0.738233 0
M  V30 1908 H 181.01 -1.59989 -3.4523 0
M  V30 1909 H 180.522 -3.07111 -2.37285 0
M  V30 1910 H 178.623 -0.936131 -3.60649 0
M  V30 1911 H 178.736 -2.79917 -3.88823 0
M  V30 1912 H 177.1 -1.4085 -2.12211 0
M  V30 1913 H 177.883 -3.01137 -1.64837 0
M  V30 1914 N 180.328 1.1314 -1.09713 0
M  V30 1915 C 181.605 1.80762 -0.747302 0
M  V30 1916 C 181.985 1.96663 0.767265 0
M  V30 1917 O 181.333 1.53706 1.69076 0
M  V30 1918 C 181.543 3.15606 -1.48975 0
M  V30 1919 C 182.891 3.90914 -1.65746 0
M  V30 1920 O 183.915 3.25239 -1.45251 0
M  V30 1921 O 182.774 5.08718 -1.9967 0
M  V30 1922 H 179.868 0.782103 -0.268782 0
M  V30 1923 H 182.414 1.20041 -1.19951 0
M  V30 1924 H 181.186 2.99278 -2.52088 0
M  V30 1925 H 180.809 3.84029 -1.02991 0
M  V30 1926 N 181.806 0.884767 1.30421 0
M  V30 1927 C 183.031 0.517288 2.00845 0
M  V30 1928 C 183.456 -0.886779 1.65885 0
M  V30 1929 O 182.814 -1.58768 0.875354 0
M  V30 1930 C 182.862 0.698994 3.5376 0
M  V30 1931 O 181.966 -0.255208 4.1161 0
M  V30 1932 H 181.307 0.203872 0.631927 0
M  V30 1933 H 183.837 1.19225 1.66272 0
M  V30 1934 H 183.847 0.597912 4.03595 0
M  V30 1935 H 182.522 1.72271 3.78544 0
M  V30 1936 H 181.099 -0.10784 3.72744 0
M  V30 1937 N 183.284 -1.43765 0.645699 0
M  V30 1938 C 184.512 -2.06253 0.163556 0
M  V30 1939 C 184.927 -1.48352 -1.16778 0
M  V30 1940 O 184.284 -0.611932 -1.71935 0
M  V30 1941 C 184.335 -3.61453 0.0583186 0
M  V30 1942 O 184.056 -4.172 1.33702 0
M  V30 1943 C 185.557 -4.41002 -0.450795 0
M  V30 1944 H 182.777 -0.665413 0.0864077 0
M  V30 1945 H 185.321 -1.84396 0.884222 0
M  V30 1946 H 183.476 -3.82522 -0.612865 0
M  V30 1947 H 183.89 -5.10791 1.19131 0
M  V30 1948 H 185.364 -5.49966 -0.473403 0
M  V30 1949 H 185.841 -4.13488 -1.48068 0
M  V30 1950 H 186.447 -4.24886 0.187637 0
M  V30 1951 N 184.763 -0.387143 -1.52771 0
M  V30 1952 C 185.673 0.456442 -2.30117 0
M  V30 1953 C 186.689 1.07342 -1.36944 0
M  V30 1954 O 187.865 1.07971 -1.70013 0
M  V30 1955 C 184.93 1.56957 -3.09136 0
M  V30 1956 C 183.991 0.977916 -4.18014 0
M  V30 1957 C 183.224 2.038 -4.93256 0
M  V30 1958 O 183.447 3.25271 -4.68567 0
M  V30 1959 O 182.381 1.6565 -5.78657 0
M  V30 1960 H 186.207 -0.17359 -3.03203 0
M  V30 1961 H 183.792 -0.150919 -1.48636 0
M  V30 1962 H 185.674 2.21628 -3.58412 0
M  V30 1963 H 184.349 2.18461 -2.38865 0
M  V30 1964 H 183.256 0.294525 -3.72939 0
M  V30 1965 H 184.589 0.407128 -4.90513 0
M  V30 1966 N 186.241 1.57166 -0.116904 0
M  V30 1967 C 187.173 2.12271 0.864507 0
M  V30 1968 C 188.186 1.06494 1.23138 0
M  V30 1969 O 189.375 1.33873 1.18069 0
M  V30 1970 C 186.475 2.60564 2.16702 0
M  V30 1971 C 185.648 3.90416 1.97216 0
M  V30 1972 C 184.707 4.24329 3.11178 0
M  V30 1973 O 183.733 4.93182 2.84184 0
M  V30 1974 N 184.935 3.8148 4.37554 0
M  V30 1975 H 187.7 2.97102 0.393726 0
M  V30 1976 H 185.261 1.61759 0.0675805 0
M  V30 1977 H 187.253 2.80282 2.91932 0
M  V30 1978 H 185.823 1.80623 2.55135 0
M  V30 1979 H 185.043 3.79627 1.06192 0
M  V30 1980 H 186.331 4.75327 1.81499 0
M  V30 1981 H 185.729 3.25943 4.62361 0
M  V30 1982 H 184.286 4.06311 5.09661 0
M  V30 1983 N 187.719 -0.156864 1.56817 0
M  V30 1984 C 189.13 -0.717916 1.72345 0
M  V30 1985 C 189.481 -1.82124 0.729747 0
M  V30 1986 O 188.606 -2.16141 -0.105781 0
M  V30 1987 C 189.201 -1.30904 3.12489 0
M  V30 1988 C 187.76 -1.81676 3.29653 0
M  V30 1989 C 186.907 -0.701349 2.68284 0
M  V30 1990 H 189.858 0.0686989 1.58551 0
M  V30 1991 H 189.879 -2.17882 3.11942 0
M  V30 1992 H 189.391 -0.505796 3.8479 0
M  V30 1993 H 187.492 -2.64598 2.62333 0
M  V30 1994 H 187.605 -1.95226 4.3752 0
M  V30 1995 H 185.969 -1.12548 2.28484 0
M  V30 1996 H 186.752 0.0902846 3.43181 0
M  V30 1997 N 189.197 -1.51736 -0.425897 0
M  V30 1998 C 190.445 -1.64644 -1.17204 0
M  V30 1999 C 190.766 -0.370486 -1.91448 0
M  V30 2000 O 190.036 0.614088 -1.86026 0
M  V30 2001 H 188.616 -0.606819 -0.435638 0
M  V30 2002 H 191.278 -1.88713 -0.487177 0
M  V30 2003 H 190.374 -2.47958 -1.89534 0
M  V30 2004 N 190.675 0.682077 -1.42076 0
M  V30 2005 C 191.608 1.80666 -1.3941 0
M  V30 2006 C 192.586 1.60518 -0.25939 0
M  V30 2007 O 193.77 1.83088 -0.448456 0
M  V30 2008 C 190.897 3.17556 -1.17796 0
M  V30 2009 C 189.943 3.56468 -2.34164 0
M  V30 2010 S 190.776 3.59729 -3.96681 0
M  V30 2011 C 191.932 4.99323 -3.77395 0
M  V30 2012 H 192.165 1.82652 -2.34575 0
M  V30 2013 H 189.698 0.852062 -1.2876 0
M  V30 2014 H 191.656 3.96575 -1.06012 0
M  V30 2015 H 190.317 3.13164 -0.242279 0
M  V30 2016 H 189.51 4.5595 -2.1477 0
M  V30 2017 H 189.112 2.84792 -2.42425 0
M  V30 2018 H 191.404 5.87202 -3.37935 0
M  V30 2019 H 192.347 5.23763 -4.76527 0
M  V30 2020 H 192.755 4.71498 -3.10403 0
M  V30 2021 N 192.153 1.28127 0.917671 0
M  V30 2022 C 193.378 1.18007 1.70555 0
M  V30 2023 C 193.803 -0.258257 1.86319 0
M  V30 2024 O 193.161 -1.1869 1.37049 0
M  V30 2025 C 193.209 1.87948 3.07746 0
M  V30 2026 O 192.313 1.18427 3.9503 0
M  V30 2027 H 191.654 0.409867 0.522403 0
M  V30 2028 H 194.184 1.69379 1.1477 0
M  V30 2029 H 194.194 1.95701 3.58001 0
M  V30 2030 H 192.869 2.92573 2.95591 0
M  V30 2031 H 191.446 1.18811 3.53466 0
M  V30 2032 N 193.631 -1.12557 1.10312 0
M  V30 2033 C 194.856 -1.88405 0.867085 0
M  V30 2034 C 195.281 -1.79038 -0.576817 0
M  V30 2035 O 194.639 -1.14439 -1.40618 0
M  V30 2036 C 194.687 -3.3563 1.31851 0
M  V30 2037 O 193.791 -4.09565 0.482734 0
M  V30 2038 H 193.132 -0.585455 0.313271 0
M  V30 2039 H 195.662 -1.42352 1.4696 0
M  V30 2040 H 195.672 -3.86469 1.3079 0
M  V30 2041 H 194.347 -3.41765 2.37001 0
M  V30 2042 H 192.924 -3.68695 0.558448 0
M  V30 2043 N 195.109 -0.891671 -1.2995 0
M  V30 2044 C 196.339 -0.527893 -1.99742 0
M  V30 2045 C 196.747 0.88979 -1.66971 0
M  V30 2046 O 196.09 1.59766 -0.906667 0
M  V30 2047 C 196.152 -0.630804 -3.53922 0
M  V30 2048 C 195.816 -2.01401 -4.10228 0
M  V30 2049 C 196.813 -2.98422 -4.25724 0
M  V30 2050 C 194.498 -2.32121 -4.45449 0
M  V30 2051 C 196.492 -4.24293 -4.75662 0
M  V30 2052 C 194.179 -3.58237 -4.95086 0
M  V30 2053 C 195.177 -4.54137 -5.10146 0
M  V30 2054 O 194.865 -5.78014 -5.58708 0
M  V30 2055 H 194.597 -0.201953 -0.645129 0
M  V30 2056 H 197.151 -1.20076 -1.66646 0
M  V30 2057 H 195.381 0.0990616 -3.86573 0
M  V30 2058 H 197.07 -0.277338 -4.04951 0
M  V30 2059 H 197.836 -2.76001 -3.98809 0
M  V30 2060 H 193.715 -1.5824 -4.32991 0
M  V30 2061 H 197.259 -4.99153 -4.87332 0
M  V30 2062 H 193.156 -3.80491 -5.21437 0
M  V30 2063 H 193.924 -5.8049 -5.77039 0
M  V30 2064 N 196.587 1.43421 -0.653314 0
M  V30 2065 C 197.535 2.32546 0.0501531 0
M  V30 2066 C 198.529 1.48617 0.812985 0
M  V30 2067 O 199.735 1.64825 0.723375 0
M  V30 2068 H 196.11 0.751185 0.0350032 0
M  V30 2069 H 198.081 2.89602 -0.719261 0
M  V30 2070 C 196.83 3.32925 1.00279 0
M  V30 2071 H 196.153 3.97532 0.425236 0
M  V30 2072 H 197.593 3.9792 1.46409 0
M  V30 2073 C 196.052 2.63532 2.09886 0
M  V30 2074 O 196.582 2.45092 3.18265 0
M  V30 2075 N 194.788 2.22905 1.86445 0
M  V30 2076 H 194.335 2.38103 0.98309 0
M  V30 2077 H 194.293 1.76805 2.59976 0
M  V30 2078 N 198.065 0.39524 1.52563 0
M  V30 2079 C 199.476 -0.0774719 1.86539 0
M  V30 2080 C 199.827 -1.45641 1.31466 0
M  V30 2081 O 198.952 -2.06459 0.648367 0
M  V30 2082 C 199.547 -0.147356 3.38479 0
M  V30 2083 C 198.106 -0.564373 3.72145 0
M  V30 2084 C 197.253 0.269919 2.75983 0
M  V30 2085 H 200.204 0.612876 1.46388 0
M  V30 2086 H 200.225 -0.965343 3.68051 0
M  V30 2087 H 199.737 0.856387 3.78534 0
M  V30 2088 H 197.838 -1.57527 3.37663 0
M  V30 2089 H 197.951 -0.318402 4.78041 0
M  V30 2090 H 196.315 -0.265696 2.5331 0
M  V30 2091 H 197.098 1.27175 3.18875 0
M  V30 2092 N 199.544 -1.57102 0.125237 0
M  V30 2093 C 200.492 -2.16905 -0.839927 0
M  V30 2094 C 201.486 -1.11998 -1.27094 0
M  V30 2095 O 202.692 -1.3029 -1.24195 0
M  V30 2096 H 199.067 -0.694252 -0.288995 0
M  V30 2097 H 201.038 -2.96774 -0.311115 0
M  V30 2098 C 199.787 -2.78795 -2.07771 0
M  V30 2099 H 199.11 -3.59221 -1.755 0
M  V30 2100 H 200.55 -3.2417 -2.73295 0
M  V30 2101 C 199.009 -1.76193 -2.87155 0
M  V30 2102 O 199.539 -1.21909 -3.82755 0
M  V30 2103 N 197.745 -1.45991 -2.51267 0
M  V30 2104 H 197.292 -1.90325 -1.73592 0
M  V30 2105 H 197.25 -0.775844 -3.04677 0
M  V30 2106 N 201.022 0.148545 -1.56898 0
M  V30 2107 C 202.247 0.880385 -1.87787 0
M  V30 2108 C 202.672 1.74018 -0.714093 0
M  V30 2109 O 202.03 1.78153 0.336343 0
M  V30 2110 C 202.078 1.71422 -3.17249 0
M  V30 2111 O 201.182 2.8183 -3.01074 0
M  V30 2112 H 200.523 0.245301 -0.617028 0
M  V30 2113 H 203.053 0.139826 -2.04122 0
M  V30 2114 H 203.063 2.10954 -3.49231 0
M  V30 2115 H 201.738 1.08284 -4.01556 0
M  V30 2116 H 200.315 2.45715 -2.80497 0
M  V30 2117 N 202.5 1.5196 0.417844 0
M  V30 2118 C 203.911 1.57851 0.997 0
M  V30 2119 C 204.262 0.413714 1.91789 0
M  V30 2120 O 203.387 -0.467057 2.113 0
M  V30 2121 C 203.982 2.86085 1.81496 0
M  V30 2122 C 202.541 2.94483 2.34428 0
M  V30 2123 C 201.688 2.52707 1.14169 0
M  V30 2124 H 204.639 1.57455 0.198392 0
M  V30 2125 H 204.66 2.70947 2.67148 0
M  V30 2126 H 204.172 3.70842 1.14446 0
M  V30 2127 H 202.273 2.142 3.04875 0
M  V30 2128 H 202.386 3.98546 2.65891 0
M  V30 2129 H 200.75 2.06353 1.49301 0
M  V30 2130 H 201.533 3.39828 0.486999 0
M  V30 2131 N 203.978 -0.674533 1.42435 0
M  V30 2132 C 204.941 -1.76986 1.45632 0
M  V30 2133 C 205.941 -1.5708 0.343871 0
M  V30 2134 O 207.131 -1.63367 0.604709 0
M  V30 2135 C 204.263 -3.15623 1.28822 0
M  V30 2136 H 205.456 -1.75539 2.43158 0
M  V30 2137 H 203.009 -0.884189 1.28887 0
M  V30 2138 H 203.744 -3.22696 0.322193 0
M  V30 2139 H 203.529 -3.31475 2.09444 0
M  V30 2140 H 205.019 -3.95537 1.33942 0
M  V30 2141 N 205.456 -1.28612 -0.910864 0
M  V30 2142 C 206.684 -1.18792 -1.69399 0
M  V30 2143 C 207.099 0.253039 -1.87097 0
M  V30 2144 O 206.456 1.17071 -1.40003 0
M  V30 2145 C 206.507 -1.88511 -3.08457 0
M  V30 2146 O 206.228 -3.26979 -2.91576 0
M  V30 2147 C 207.729 -1.85029 -4.02839 0
M  V30 2148 H 204.949 -0.412233 -0.529438 0
M  V30 2149 H 207.493 -1.69788 -1.13984 0
M  V30 2150 H 205.648 -1.41379 -3.60681 0
M  V30 2151 H 206.062 -3.61936 -3.79608 0
M  V30 2152 H 207.536 -2.38395 -4.97867 0
M  V30 2153 H 208.013 -0.823303 -4.31414 0
M  V30 2154 H 208.619 -2.31853 -3.56545 0
M  V30 2155 N 206.934 1.1197 -1.10907 0
M  V30 2156 C 208.164 1.8713 -0.875553 0
M  V30 2157 C 208.572 1.8016 0.577843 0
M  V30 2158 O 207.915 1.17699 1.41042 0
M  V30 2159 C 207.977 3.37005 -1.2517 0
M  V30 2160 C 207.641 3.67748 -2.71313 0
M  V30 2161 C 208.638 3.65698 -3.69542 0
M  V30 2162 C 206.323 3.96928 -3.07821 0
M  V30 2163 C 208.317 3.92395 -5.023 0
M  V30 2164 C 206.004 4.23284 -4.40765 0
M  V30 2165 C 207.002 4.21005 -5.37814 0
M  V30 2166 O 206.69 4.46704 -6.68364 0
M  V30 2167 H 206.422 0.598786 -0.313737 0
M  V30 2168 H 208.976 1.42568 -1.47863 0
M  V30 2169 H 207.206 3.82146 -0.591741 0
M  V30 2170 H 208.895 3.93519 -0.994877 0
M  V30 2171 H 209.661 3.43211 -3.42682 0
M  V30 2172 H 205.54 3.97841 -2.32902 0
M  V30 2173 H 209.084 3.90531 -5.78041 0
M  V30 2174 H 204.981 4.45246 -4.67361 0
M  V30 2175 H 205.749 4.64299 -6.74069 0
M  V30 2176 N 208.412 0.89855 1.29475 0
M  V30 2177 C 209.375 0.380272 2.26023 0
M  V30 2178 C 210.375 -0.484891 1.53315 0
M  V30 2179 O 211.565 -0.290108 1.71767 0
M  V30 2180 C 208.697 -0.45651 3.3783 0
M  V30 2181 H 209.89 1.23295 2.73383 0
M  V30 2182 H 207.443 0.676589 1.40897 0
M  V30 2183 H 208.178 -1.32922 2.95808 0
M  V30 2184 H 207.963 0.163393 3.91759 0
M  V30 2185 H 209.453 -0.810466 4.0966 0
M  V30 2186 N 209.89 -1.43072 0.660911 0
M  V30 2187 C 211.167 -1.95307 0.107017 0
M  V30 2188 C 211.547 -1.60192 -1.37484 0
M  V30 2189 O 210.895 -0.890949 -2.10415 0
M  V30 2190 C 211.105 -3.47124 0.361402 0
M  V30 2191 C 212.453 -4.23738 0.270455 0
M  V30 2192 O 213.477 -3.54981 0.294382 0
M  V30 2193 O 212.336 -5.46131 0.200737 0
M  V30 2194 H 209.43 -0.826984 -0.00517729 0
M  V30 2195 H 211.976 -1.52972 0.734681 0
M  V30 2196 H 210.748 -3.65837 1.38848 0
M  V30 2197 H 210.371 -3.96475 -0.298953 0
M  V30 2198 N 211.368 -0.403325 -1.52352 0
M  V30 2199 C 212.278 0.432009 -2.30588 0
M  V30 2200 C 213.294 1.05884 -1.38075 0
M  V30 2201 O 214.47 1.06161 -1.71148 0
M  V30 2202 C 211.535 1.53669 -3.10784 0
M  V30 2203 C 210.596 0.933525 -4.19027 0
M  V30 2204 C 209.829 1.98557 -4.9539 0
M  V30 2205 O 210.052 3.20283 -4.71991 0
M  V30 2206 O 208.986 1.59504 -5.80381 0
M  V30 2207 H 212.812 -0.205739 -3.03002 0
M  V30 2208 H 210.397 -0.166675 -1.48467 0
M  V30 2209 H 212.279 2.17814 -3.60742 0
M  V30 2210 H 210.954 2.15915 -2.41169 0
M  V30 2211 H 209.861 0.254954 -3.7323 0
M  V30 2212 H 211.194 0.35508 -4.90918 0
M  V30 2213 N 212.846 1.57033 -0.133567 0
M  V30 2214 C 214.076 1.99754 0.527429 0
M  V30 2215 C 214.484 1.01245 1.59832 0
M  V30 2216 O 213.827 -0.000645496 1.837 0
M  V30 2217 C 213.889 3.38903 1.19939 0
M  V30 2218 C 213.553 4.56174 0.274709 0
M  V30 2219 C 214.55 5.17563 -0.492398 0
M  V30 2220 C 212.235 5.01972 0.18153 0
M  V30 2221 C 214.229 6.2315 -1.34027 0
M  V30 2222 C 211.916 6.07416 -0.669958 0
M  V30 2223 C 212.914 6.67874 -1.42947 0
M  V30 2224 O 212.602 7.71279 -2.2668 0
M  V30 2225 H 212.334 0.660702 0.142999 0
M  V30 2226 H 214.888 2.04207 -0.221099 0
M  V30 2227 H 213.118 3.31248 1.99528 0
M  V30 2228 H 214.807 3.65818 1.75875 0
M  V30 2229 H 215.573 4.83087 -0.430367 0
M  V30 2230 H 211.452 4.54652 0.762422 0
M  V30 2231 H 214.996 6.70268 -1.93357 0
M  V30 2232 H 210.893 6.41321 -0.73333 0
M  V30 2233 H 211.661 7.88441 -2.1978 0
M  V30 2234 N 214.325 -0.140222 1.56975 0
M  V30 2235 C 215.235 -1.19223 2.02047 0
M  V30 2236 C 216.251 -1.46612 0.937062 0
M  V30 2237 O 217.427 -1.58148 1.24704 0
M  V30 2238 C 214.492 -2.50414 2.39778 0
M  V30 2239 C 213.553 -2.30612 3.621 0
M  V30 2240 C 212.786 -3.55547 3.98023 0
M  V30 2241 O 213.009 -4.62004 3.34528 0
M  V30 2242 O 211.943 -3.47808 4.91237 0
M  V30 2243 H 215.769 -0.839559 2.91865 0
M  V30 2244 H 213.354 -0.349453 1.45256 0
M  V30 2245 H 215.236 -3.27747 2.64877 0
M  V30 2246 H 213.911 -2.85198 1.53114 0
M  V30 2247 H 212.818 -1.51207 3.4218 0
M  V30 2248 H 214.151 -2.00741 4.49404 0
M  V30 2249 N 215.803 -1.52179 -0.40978 0
M  V30 2250 C 217.08 -1.56769 -1.16974 0
M  V30 2251 C 217.46 -0.348322 -2.08206 0
M  V30 2252 O 216.808 0.664862 -2.18613 0
M  V30 2253 C 217.018 -2.89603 -1.9476 0
M  V30 2254 C 218.366 -3.42579 -2.50849 0
M  V30 2255 O 219.39 -2.91338 -2.04941 0
M  V30 2256 O 218.249 -4.32054 -3.34652 0
M  V30 2257 H 215.343 -0.631439 -0.534054 0
M  V30 2258 H 217.889 -1.64507 -0.416613 0
M  V30 2259 H 216.661 -3.698 -1.27921 0
M  V30 2260 H 216.284 -2.85155 -2.77079 0
M  V30 2261 N 217.281 0.66697 -1.42791 0
M  V30 2262 C 218.692 1.2478 -1.38877 0
M  V30 2263 C 219.043 1.96012 -0.0859426 0
M  V30 2264 O 218.168 2.00463 0.815081 0
M  V30 2265 C 218.763 2.26938 -2.51564 0
M  V30 2266 C 217.322 2.80529 -2.50959 0
M  V30 2267 C 216.469 1.54965 -2.29959 0
M  V30 2268 H 219.42 0.459853 -1.51892 0
M  V30 2269 H 219.441 3.08834 -2.22265 0
M  V30 2270 H 218.953 1.75065 -3.46372 0
M  V30 2271 H 217.054 3.36502 -1.59991 0
M  V30 2272 H 217.167 3.29012 -3.48265 0
M  V30 2273 H 215.531 1.81817 -1.78366 0
M  V30 2274 H 216.314 1.05047 -3.26833 0
M  V30 2275 N 218.759 1.29093 0.90403 0
M  V30 2276 C 219.984 1.19809 1.69294 0
M  V30 2277 C 220.409 -0.238481 1.86582 0
M  V30 2278 O 219.767 -1.1723 1.383 0
M  V30 2279 C 219.815 1.91202 3.05736 0
M  V30 2280 O 218.919 1.22611 3.93752 0
M  V30 2281 H 218.26 0.415385 0.518027 0
M  V30 2282 H 220.79 1.70586 1.12967 0
M  V30 2283 H 220.8 1.99487 3.55906 0
M  V30 2284 H 219.475 2.95692 2.92471 0
M  V30 2285 H 218.052 1.22554 3.52186 0
M  V30 2286 N 220.237 -1.11381 1.11499 0
M  V30 2287 C 221.467 -1.86663 0.885464 0
M  V30 2288 C 221.875 -1.80464 -0.568281 0
M  V30 2289 O 221.218 -1.18445 -1.40415 0
M  V30 2290 C 221.28 -3.36337 1.26956 0
M  V30 2291 C 220.944 -3.66304 2.73259 0
M  V30 2292 C 221.941 -3.63733 3.71476 0
M  V30 2293 C 219.626 -3.9529 3.09921 0
M  V30 2294 C 221.62 -3.89725 5.04374 0
M  V30 2295 C 219.307 -4.20941 4.43004 0
M  V30 2296 C 220.305 -4.18147 5.40039 0
M  V30 2297 O 219.993 -4.43153 6.70724 0
M  V30 2298 H 219.725 -0.597114 0.316908 0
M  V30 2299 H 222.279 -1.41782 1.48617 0
M  V30 2300 H 220.509 -3.81826 0.611999 0
M  V30 2301 H 222.198 -3.92986 1.01573 0
M  V30 2302 H 222.964 -3.41389 3.44498 0
M  V30 2303 H 218.843 -3.966 2.35009 0
M  V30 2304 H 222.387 -3.8746 5.80104 0
M  V30 2305 H 218.284 -4.42761 4.69716 0
M  V30 2306 H 219.052 -4.60717 6.76522 0
M  V30 2307 N 221.715 -0.905404 -1.28997 0
M  V30 2308 C 222.945 -0.549049 -1.99171 0
M  V30 2309 C 223.353 0.87203 -1.67906 0
M  V30 2310 O 222.696 1.58796 -0.923561 0
M  V30 2311 C 222.758 -0.668306 -3.53234 0
M  V30 2312 C 222.422 -2.0574 -4.08069 0
M  V30 2313 C 223.419 -3.0292 -4.22534 0
M  V30 2314 C 221.104 -2.36833 -4.42962 0
M  V30 2315 C 223.098 -4.29314 -4.71135 0
M  V30 2316 C 220.785 -3.63467 -4.91258 0
M  V30 2317 C 221.783 -4.59522 -5.053 0
M  V30 2318 O 221.471 -5.83907 -5.52546 0
M  V30 2319 H 221.203 -0.208784 -0.64295 0
M  V30 2320 H 223.757 -1.21836 -1.65363 0
M  V30 2321 H 221.987 0.0580547 -3.86656 0
M  V30 2322 H 223.676 -0.320273 -4.04634 0
M  V30 2323 H 224.442 -2.80216 -3.95859 0
M  V30 2324 H 220.321 -1.62824 -4.31288 0
M  V30 2325 H 223.865 -5.04293 -4.8201 0
M  V30 2326 H 219.762 -3.86 -5.17372 0
M  V30 2327 H 220.53 -5.86578 -5.70849 0
M  V30 2328 N 223.193 1.4272 -0.668489 0
M  V30 2329 C 224.604 1.84793 -0.266151 0
M  V30 2330 C 224.955 1.55959 1.19043 0
M  V30 2331 O 224.08 1.01622 1.91055 0
M  V30 2332 C 224.675 3.35436 -0.476271 0
M  V30 2333 C 223.234 3.76182 -0.128113 0
M  V30 2334 C 222.381 2.66344 -0.771777 0
M  V30 2335 H 225.332 1.32656 -0.871098 0
M  V30 2336 H 225.353 3.79515 0.273561 0
M  V30 2337 H 224.865 3.5639 -1.53647 0
M  V30 2338 H 222.966 3.60836 0.928891 0
M  V30 2339 H 223.079 4.75766 -0.564231 0
M  V30 2340 H 221.443 2.53885 -0.203652 0
M  V30 2341 H 222.226 2.90123 -1.83531 0
M  V30 2342 N 224.671 0.411399 1.52136 0
M  V30 2343 C 225.896 -0.165538 2.06738 0
M  V30 2344 C 226.321 -1.379 1.27926 0
M  V30 2345 O 225.679 -1.78628 0.310114 0
M  V30 2346 C 225.727 -0.492124 3.57226 0
M  V30 2347 O 224.831 -1.58276 3.80818 0
M  V30 2348 H 224.172 -0.0132132 0.663869 0
M  V30 2349 H 226.702 0.585253 1.96051 0
M  V30 2350 H 226.712 -0.750104 4.01045 0
M  V30 2351 H 225.387 0.394922 4.14021 0
M  V30 2352 H 223.964 -1.31677 3.48877 0
M  V30 2353 N 226.149 -1.5696 0.141893 0
M  V30 2354 C 227.059 -2.20066 -0.812905 0
M  V30 2355 C 228.075 -1.18344 -1.27557 0
M  V30 2356 O 229.251 -1.50902 -1.33381 0
M  V30 2357 C 226.316 -2.80583 -2.03652 0
M  V30 2358 C 225.377 -3.97414 -1.62359 0
M  V30 2359 C 224.61 -4.55036 -2.78887 0
M  V30 2360 O 224.833 -4.11538 -3.94959 0
M  V30 2361 O 223.767 -5.45376 -2.54653 0
M  V30 2362 H 227.593 -3.02157 -0.305746 0
M  V30 2363 H 225.178 -1.49159 -0.0848799 0
M  V30 2364 H 227.06 -3.19067 -2.75272 0
M  V30 2365 H 225.735 -2.01508 -2.5333 0
M  V30 2366 H 224.642 -3.63656 -0.877775 0
M  V30 2367 H 225.975 -4.77994 -1.17401 0
M  V30 2368 N 227.627 0.131896 -1.57047 0
M  V30 2369 C 228.557 1.16384 -2.02428 0
M  V30 2370 C 229.538 1.43936 -0.90644 0
M  V30 2371 O 230.723 1.54599 -1.17528 0
M  V30 2372 C 227.853 2.49328 -2.4177 0
M  V30 2373 C 226.807 2.36266 -3.56879 0
M  V30 2374 C 226.133 3.74057 -3.8208 0
M  V30 2375 C 227.433 1.834 -4.89042 0
M  V30 2376 H 229.127 0.786433 -2.88887 0
M  V30 2377 H 226.673 0.376855 -1.38981 0
M  V30 2378 H 228.626 3.21759 -2.7212 0
M  V30 2379 H 227.35 2.88934 -1.52266 0
M  V30 2380 H 226.009 1.66286 -3.26718 0
M  V30 2381 H 225.657 4.11125 -2.89803 0
M  V30 2382 H 225.357 3.66174 -4.59554 0
M  V30 2383 H 226.881 4.48012 -4.1487 0
M  V30 2384 H 228.295 2.45636 -5.18011 0
M  V30 2385 H 226.692 1.8637 -5.70426 0
M  V30 2386 H 227.762 0.790662 -4.7841 0
M  V30 2387 N 229.106 1.52395 0.401703 0
M  V30 2388 C 230.053 1.76268 1.48991 0
M  V30 2389 C 231.023 0.605386 1.54675 0
M  V30 2390 O 232.208 0.843742 1.7113 0
M  V30 2391 C 229.348 1.92592 2.86361 0
M  V30 2392 C 228.461 3.20259 2.89928 0
M  V30 2393 C 227.596 3.26972 4.18644 0
M  V30 2394 C 226.635 4.48812 4.16214 0
M  V30 2395 N 225.772 4.52877 5.36514 0
M  V30 2396 H 230.612 2.6914 1.27935 0
M  V30 2397 H 228.149 1.33355 0.620871 0
M  V30 2398 H 230.107 2.0004 3.66115 0
M  V30 2399 H 228.737 1.03093 3.05895 0
M  V30 2400 H 227.789 3.21945 2.02621 0
M  V30 2401 H 229.101 4.10056 2.83999 0
M  V30 2402 H 228.255 3.33533 5.06794 0
M  V30 2403 H 226.994 2.35126 4.27278 0
M  V30 2404 H 225.999 4.4239 3.26453 0
M  V30 2405 H 227.224 5.41961 4.09213 0
M  V30 2406 H 225.17 3.63917 5.45802 0
M  V30 2407 H 225.087 5.36529 5.32609 0
M  V30 2408 H 226.355 4.63676 6.26597 0
M  V30 2409 N 230.584 -0.659388 1.43143 0
M  V30 2410 C 231.831 -1.41935 1.44433 0
M  V30 2411 C 232.159 -1.94387 0.0663522 0
M  V30 2412 O 231.414 -1.72314 -0.927706 0
M  V30 2413 C 231.713 -2.62206 2.42864 0
M  V30 2414 C 231.379 -2.28208 3.88886 0
M  V30 2415 C 230.041 -2.18647 4.28657 0
M  V30 2416 C 232.393 -2.00887 4.8093 0
M  V30 2417 C 229.721 -1.79914 5.58433 0
M  V30 2418 C 232.073 -1.63653 6.11065 0
M  V30 2419 C 230.737 -1.52614 6.49819 0
M  V30 2420 H 230.007 -0.519376 0.528517 0
M  V30 2421 H 232.654 -0.750453 1.76183 0
M  V30 2422 H 230.959 -3.34199 2.04495 0
M  V30 2423 H 232.656 -3.2041 2.41119 0
M  V30 2424 H 229.246 -2.36557 3.57406 0
M  V30 2425 H 233.43 -2.07198 4.5098 0
M  V30 2426 H 228.686 -1.69948 5.87305 0
M  V30 2427 H 232.86 -1.41543 6.81864 0
M  V30 2428 H 230.487 -1.22371 7.50286 0
M  V30 2429 N 232.062 -1.29571 -0.897171 0
M  V30 2430 C 233.339 -1.08365 -1.62839 0
M  V30 2431 C 233.719 0.371331 -2.07808 0
M  V30 2432 O 233.067 1.3606 -1.83576 0
M  V30 2433 C 233.277 -2.0735 -2.80726 0
M  V30 2434 C 234.625 -2.38406 -3.51351 0
M  V30 2435 O 235.649 -2.05564 -2.90898 0
M  V30 2436 O 234.508 -2.9453 -4.60341 0
M  V30 2437 H 231.602 -0.415345 -0.715134 0
M  V30 2438 H 234.148 -1.40952 -0.945018 0
M  V30 2439 H 232.92 -3.05339 -2.44711 0
M  V30 2440 H 232.543 -1.75507 -3.56767 0
M  V30 2441 N 233.54 1.10788 -1.12088 0
M  V30 2442 C 234.768 1.86461 -0.896651 0
M  V30 2443 C 235.183 1.80492 0.553912 0
M  V30 2444 O 234.54 1.19102 1.38278 0
M  V30 2445 C 234.591 3.35006 -1.35843 0
M  V30 2446 O 234.312 3.40866 -2.75213 0
M  V30 2447 C 235.813 4.27565 -1.1706 0
M  V30 2448 H 233.033 0.589425 -0.320654 0
M  V30 2449 H 235.577 1.40076 -1.48993 0
M  V30 2450 H 233.732 3.7887 -0.808458 0
M  V30 2451 H 234.146 4.33411 -2.9539 0
M  V30 2452 H 235.62 5.30007 -1.54263 0
M  V30 2453 H 236.097 4.3906 -0.110814 0
M  V30 2454 H 236.703 3.89501 -1.70789 0
M  V30 2455 N 235.018 0.912232 1.28515 0
M  V30 2456 C 236.264 0.545405 1.95328 0
M  V30 2457 C 236.597 -0.908313 1.71649 0
M  V30 2458 O 235.872 -1.64575 1.03659 0
M  V30 2459 C 236.155 0.853483 3.4984 0
M  V30 2460 C 236.008 2.35982 3.82926 0
M  V30 2461 C 237.327 0.348589 4.38717 0
M  V30 2462 H 234.446 0.199626 0.709449 0
M  V30 2463 H 237.088 1.1412 1.5191 0
M  V30 2464 H 235.238 0.34643 3.86952 0
M  V30 2465 H 236.91 2.93738 3.55691 0
M  V30 2466 H 235.153 2.81543 3.30024 0
M  V30 2467 H 235.824 2.52593 4.90816 0
M  V30 2468 H 238.3 0.78294 4.08668 0
M  V30 2469 H 237.176 0.593242 5.45685 0
M  V30 2470 H 237.437 -0.751049 4.35674 0
M  V30 2471 N 236.496 -1.42363 0.676048 0
M  V30 2472 C 237.912 -1.55811 0.345718 0
M  V30 2473 C 238.112 -1.65544 -1.14879 0
M  V30 2474 O 237.168 -1.62306 -1.93424 0
M  V30 2475 C 238.481 -2.80746 1.07713 0
M  V30 2476 C 240.029 -2.9452 1.05958 0
M  V30 2477 C 240.504 -4.22318 1.77233 0
M  V30 2478 N 241.995 -4.29233 1.74108 0
M  V30 2479 C 242.73 -5.26935 2.26113 0
M  V30 2480 N 242.226 -6.30783 2.86505 0
M  V30 2481 N 244.019 -5.18741 2.1648 0
M  V30 2482 H 236.17 -1.34289 1.6456 0
M  V30 2483 H 238.433 -0.646506 0.69335 0
M  V30 2484 H 238.139 -2.79696 2.13221 0
M  V30 2485 H 238.013 -3.71676 0.64316 0
M  V30 2486 H 240.4 -2.95097 0.0128255 0
M  V30 2487 H 240.481 -2.04817 1.53244 0
M  V30 2488 H 240.125 -4.22502 2.81877 0
M  V30 2489 H 240.055 -5.10958 1.27396 0
M  V30 2490 H 242.546 -3.54814 1.30059 0
M  V30 2491 H 242.859 -7.01691 3.23805 0
M  V30 2492 H 241.204 -6.31341 2.90575 0
M  V30 2493 H 244.395 -4.36533 1.68987 0
M  V30 2494 H 244.568 -5.94721 2.57316 0
M  V30 2495 N 237.974 -0.419461 -1.51915 0
M  V30 2496 C 239.22 0.153166 -2.02221 0
M  V30 2497 C 239.553 1.43907 -1.30401 0
M  V30 2498 O 238.828 1.90055 -0.413438 0
M  V30 2499 C 239.111 0.390291 -3.57979 0
M  V30 2500 C 238.964 -0.913014 -4.40436 0
M  V30 2501 C 240.283 1.16794 -4.2432 0
M  V30 2502 H 237.402 0.0541924 -0.735005 0
M  V30 2503 H 240.044 -0.554955 -1.81715 0
M  V30 2504 H 238.194 0.993491 -3.75582 0
M  V30 2505 H 239.866 -1.54882 -4.34522 0
M  V30 2506 H 238.109 -1.52168 -4.06236 0
M  V30 2507 H 238.78 -0.701361 -5.47526 0
M  V30 2508 H 241.256 0.657161 -4.10878 0
M  V30 2509 H 240.132 1.3026 -5.3322 0
M  V30 2510 H 240.393 2.19132 -3.83971 0
M  V30 2511 N 239.452 1.56882 -0.150215 0
M  V30 2512 C 240.7 1.9584 0.499105 0
M  V30 2513 C 241.021 1.03623 1.65188 0
M  V30 2514 O 240.291 0.0984084 1.95653 0
M  V30 2515 H 238.871 0.723119 0.187373 0
M  V30 2516 H 241.533 1.9358 -0.226466 0
M  V30 2517 H 240.629 2.99638 0.873122 0
M  V30 2518 N 240.93 -0.123565 1.57115 0
M  V30 2519 C 242.155 -0.850398 1.89164 0
M  V30 2520 C 242.58 -1.7286 0.741688 0
M  V30 2521 O 241.938 -1.78665 -0.307958 0
M  V30 2522 C 241.986 -1.66353 3.19936 0
M  V30 2523 O 241.09 -2.77004 3.0552 0
M  V30 2524 H 240.431 -0.235454 0.620852 0
M  V30 2525 H 242.961 -0.107335 2.04318 0
M  V30 2526 H 242.971 -2.05372 3.52543 0
M  V30 2527 H 241.646 -1.01881 4.03228 0
M  V30 2528 H 240.223 -2.41221 2.84371 0
M  V30 2529 N 242.408 -1.52605 -0.393616 0
M  V30 2530 C 243.685 -1.58001 -1.15304 0
M  V30 2531 C 244.065 -0.370385 -2.07825 0
M  V30 2532 O 243.413 0.641638 -2.19306 0
M  V30 2533 C 243.623 -2.91652 -1.91677 0
M  V30 2534 C 244.971 -3.4522 -2.47201 0
M  V30 2535 O 245.995 -2.93495 -2.01839 0
M  V30 2536 O 244.854 -4.35579 -3.3005 0
M  V30 2537 H 241.948 -0.637068 -0.527327 0
M  V30 2538 H 244.494 -1.64939 -0.399141 0
M  V30 2539 H 243.266 -3.71136 -1.23992 0
M  V30 2540 H 242.889 -2.88077 -2.74039 0
M  V30 2541 N 243.887 0.651787 -1.4349 0
M  V30 2542 C 245.298 1.233 -1.40193 0
M  V30 2543 C 245.649 1.9591 -0.106727 0
M  V30 2544 O 244.774 2.01316 0.793773 0
M  V30 2545 C 245.369 2.24257 -2.53957 0
M  V30 2546 C 243.928 2.77852 -2.5392 0
M  V30 2547 C 243.075 1.52517 -2.3159 0
M  V30 2548 H 246.026 0.443717 -1.52371 0
M  V30 2549 H 246.047 3.0646 -2.25528 0
M  V30 2550 H 245.559 1.71382 -3.4821 0
M  V30 2551 H 243.66 3.34786 -1.63551 0
M  V30 2552 H 243.773 3.25299 -3.51735 0
M  V30 2553 H 242.137 1.79915 -1.80285 0
M  V30 2554 H 242.92 1.01574 -3.27929 0
M  V30 2555 N 245.365 1.30045 0.890287 0
M  V30 2556 C 246.611 1.18737 1.64406 0
M  V30 2557 C 246.944 -0.258525 1.92472 0
M  V30 2558 O 246.219 -1.18562 1.54186 0
M  V30 2559 C 246.502 2.01087 2.98724 0
M  V30 2560 C 246.355 3.53867 2.77665 0
M  V30 2561 C 247.674 1.84457 3.9958 0
M  V30 2562 H 244.793 0.432698 0.596608 0
M  V30 2563 H 247.435 1.5962 1.0306 0
M  V30 2564 H 245.585 1.66349 3.51084 0
M  V30 2565 H 247.257 3.98637 2.32133 0
M  V30 2566 H 245.5 3.78318 2.12269 0
M  V30 2567 H 246.171 4.06772 3.7315 0
M  V30 2568 H 248.647 2.14817 3.56361 0
M  V30 2569 H 247.523 2.44411 4.91482 0
M  V30 2570 H 247.784 0.802276 4.3476 0
M  V30 2571 N 246.843 -1.10192 1.12674 0
M  V30 2572 C 247.793 -2.14754 0.765801 0
M  V30 2573 C 248.777 -1.59154 -0.236409 0
M  V30 2574 O 249.969 -1.76951 -0.0415261 0
M  V30 2575 C 247.098 -3.42563 0.224827 0
M  V30 2576 C 246.184 -4.05091 1.25548 0
M  V30 2577 N 246.575 -4.42287 2.4539 0
M  V30 2578 C 244.873 -4.32186 1.10142 0
M  V30 2579 C 245.574 -4.91441 3.11224 0
M  V30 2580 N 244.55 -4.88405 2.38666 0
M  V30 2581 H 248.352 -2.41309 1.67772 0
M  V30 2582 H 245.866 -1.27339 1.00789 0
M  V30 2583 H 247.863 -4.16868 -0.0519578 0
M  V30 2584 H 246.523 -3.17467 -0.681515 0
M  V30 2585 H 247.534 -4.33902 2.82754 0
M  V30 2586 H 244.211 -4.16735 0.252587 0
M  V30 2587 H 245.601 -5.29749 4.13298 0
M  V30 2588 N 248.321 -0.919034 -1.28029 0
M  V30 2589 C 249.269 -0.401753 -2.29104 0
M  V30 2590 C 250.263 0.509354 -1.61561 0
M  V30 2591 O 251.469 0.390014 -1.75724 0
M  V30 2592 H 247.844 -0.111331 -0.743713 0
M  V30 2593 H 249.815 -1.2672 -2.70156 0
M  V30 2594 C 248.564 0.338148 -3.46052 0
M  V30 2595 H 247.887 -0.353732 -3.98232 0
M  V30 2596 H 249.327 0.664653 -4.18758 0
M  V30 2597 C 247.786 1.54798 -2.99231 0
M  V30 2598 O 248.316 2.64696 -3.02157 0
M  V30 2599 N 246.522 1.3968 -2.54829 0
M  V30 2600 H 246.069 0.502698 -2.52647 0
M  V30 2601 H 246.027 2.20755 -2.23863 0
M  V30 2602 N 249.799 1.42003 -0.683588 0
M  V30 2603 C 251.076 1.95112 -0.138075 0
M  V30 2604 C 251.456 1.62359 1.34918 0
M  V30 2605 O 250.804 0.924311 2.08971 0
M  V30 2606 C 251.014 3.46505 -0.416581 0
M  V30 2607 C 252.362 4.23254 -0.337834 0
M  V30 2608 O 253.386 3.54468 -0.35082 0
M  V30 2609 O 252.245 5.45743 -0.287596 0
M  V30 2610 H 249.339 0.826961 -0.00797996 0
M  V30 2611 H 251.885 1.51784 -0.758924 0
M  V30 2612 H 250.657 3.63582 -1.4465 0
M  V30 2613 H 250.28 3.969 0.235839 0
M  V30 2614 N 251.277 0.427512 1.51691 0
M  V30 2615 C 252.207 -0.3796 2.30394 0
M  V30 2616 C 253.188 -1.02982 1.35384 0
M  V30 2617 O 254.373 -1.03534 1.643 0
M  V30 2618 C 251.503 -1.48649 3.1388 0
M  V30 2619 C 250.457 -0.960294 4.17088 0
M  V30 2620 C 249.783 -2.16219 4.89033 0
M  V30 2621 C 251.083 -0.00153679 5.223 0
M  V30 2622 H 252.777 0.277164 2.98114 0
M  V30 2623 H 250.323 0.134739 1.43368 0
M  V30 2624 H 252.276 -2.05826 3.67714 0
M  V30 2625 H 251 -2.1714 2.43962 0
M  V30 2626 H 249.659 -0.410806 3.64291 0
M  V30 2627 H 249.307 -2.83307 4.15628 0
M  V30 2628 H 249.007 -1.81654 5.58816 0
M  V30 2629 H 250.531 -2.73968 5.45687 0
M  V30 2630 H 251.945 -0.482687 5.71264 0
M  V30 2631 H 250.342 0.256199 5.99553 0
M  V30 2632 H 251.412 0.938174 4.75738 0
M  V30 2633 N 252.755 -1.56801 0.158532 0
M  V30 2634 C 254.001 -1.96781 -0.490405 0
M  V30 2635 C 254.334 -1.04397 -1.63753 0
M  V30 2636 O 253.609 -0.0885805 -1.94298 0
M  V30 2637 C 253.892 -3.4635 -0.985594 0
M  V30 2638 C 253.745 -4.49512 0.160824 0
M  V30 2639 C 255.064 -3.98697 -1.86355 0
M  V30 2640 H 252.183 -0.715482 -0.176788 0
M  V30 2641 H 254.825 -1.88451 0.242088 0
M  V30 2642 H 252.975 -3.53579 -1.60978 0
M  V30 2643 H 254.647 -4.54353 0.797537 0
M  V30 2644 H 252.89 -4.26013 0.818256 0
M  V30 2645 H 253.561 -5.51531 -0.227569 0
M  V30 2646 H 256.037 -3.94019 -1.33746 0
M  V30 2647 H 254.913 -5.03792 -2.17909 0
M  V30 2648 H 255.174 -3.41744 -2.8047 0
M  V30 2649 N 254.233 0.115231 -1.57178 0
M  V30 2650 C 255.458 0.840354 -1.89612 0
M  V30 2651 C 255.883 1.72464 -0.750845 0
M  V30 2652 O 255.241 1.78826 0.298478 0
M  V30 2653 C 255.289 1.64654 -3.20814 0
M  V30 2654 O 254.393 2.7538 -3.06985 0
M  V30 2655 H 253.734 0.232158 -0.622092 0
M  V30 2656 H 256.264 0.0964977 -2.04372 0
M  V30 2657 H 256.274 2.03499 -3.53627 0
M  V30 2658 H 254.949 0.997416 -4.03763 0
M  V30 2659 H 253.526 2.3971 -2.85646 0
M  V30 2660 N 255.711 1.52812 0.385517 0
M  V30 2661 C 256.674 1.77188 1.45386 0
M  V30 2662 C 257.674 0.641953 1.4743 0
M  V30 2663 O 258.864 0.910033 1.4854 0
M  V30 2664 C 255.996 1.87582 2.8465 0
M  V30 2665 H 257.189 2.72583 1.25054 0
M  V30 2666 H 254.742 1.43586 0.617467 0
M  V30 2667 H 255.477 0.941849 3.10322 0
M  V30 2668 H 255.262 2.69748 2.84567 0
M  V30 2669 H 256.752 2.08102 3.62054 0
M  V30 2670 N 257.189 -0.644168 1.43834 0
M  V30 2671 C 258.419 -1.42939 1.49171 0
M  V30 2672 C 258.827 -1.88874 0.111048 0
M  V30 2673 O 258.17 -1.60656 -0.8908 0
M  V30 2674 C 258.232 -2.69151 2.38324 0
M  V30 2675 C 257.896 -2.45097 3.85715 0
M  V30 2676 C 258.893 -2.07747 4.76589 0
M  V30 2677 C 256.578 -2.59141 4.30292 0
M  V30 2678 C 258.572 -1.8475 6.10038 0
M  V30 2679 C 256.259 -2.35759 5.63792 0
M  V30 2680 C 257.257 -1.9862 6.53482 0
M  V30 2681 O 256.945 -1.75489 7.84512 0
M  V30 2682 H 256.677 -0.445271 0.508635 0
M  V30 2683 H 259.231 -0.79621 1.8934 0
M  V30 2684 H 257.461 -3.3506 1.93058 0
M  V30 2685 H 259.15 -3.31123 2.3476 0
M  V30 2686 H 259.916 -1.96465 4.43426 0
M  V30 2687 H 255.795 -2.87022 3.60749 0
M  V30 2688 H 259.339 -1.55686 6.80006 0
M  V30 2689 H 255.236 -2.46646 5.9652 0
M  V30 2690 H 256.004 -1.89841 7.9618 0
M  V30 2691 N 258.668 -1.30515 -0.883378 0
M  V30 2692 C 259.916 -1.19194 -1.63209 0
M  V30 2693 C 260.237 0.253205 -1.93349 0
M  V30 2694 O 259.507 1.17025 -1.57105 0
M  V30 2695 H 258.087 -0.438148 -0.605009 0
M  V30 2696 H 260.749 -1.63663 -1.05832 0
M  V30 2697 H 259.845 -1.75396 -2.58153 0
M  V30 2698 N 260.146 1.09593 -1.13257 0
M  V30 2699 C 261.557 1.63229 -0.906274 0
M  V30 2700 C 261.908 1.8811 0.557578 0
M  V30 2701 O 261.033 1.62953 1.42391 0
M  V30 2702 C 261.628 2.96535 -1.63867 0
M  V30 2703 C 260.187 3.47003 -1.45828 0
M  V30 2704 C 259.334 2.2145 -1.66898 0
M  V30 2705 H 262.285 0.92978 -1.28611 0
M  V30 2706 H 262.306 3.64411 -1.09476 0
M  V30 2707 H 261.818 2.78394 -2.70404 0
M  V30 2708 H 259.919 3.70272 -0.415848 0
M  V30 2709 H 260.032 4.24551 -2.2202 0
M  V30 2710 H 258.396 2.30022 -1.09371 0
M  V30 2711 H 259.179 2.0583 -2.74752 0
M  V30 2712 N 261.624 0.925811 1.2754 0
M  V30 2713 C 262.572 0.413897 2.28888 0
M  V30 2714 C 263.566 -0.500779 1.61829 0
M  V30 2715 O 264.772 -0.38069 1.75928 0
M  V30 2716 H 261.147 0.115274 0.743112 0
M  V30 2717 H 263.118 1.28151 2.69481 0
M  V30 2718 C 261.867 -0.319792 3.46226 0
M  V30 2719 H 261.19 0.374846 3.98039 0
M  V30 2720 H 262.63 -0.642435 4.19105 0
M  V30 2721 C 261.089 -1.53209 3.00048 0
M  V30 2722 O 261.619 -2.6309 3.03557 0
M  V30 2723 N 259.825 -1.38326 2.55566 0
M  V30 2724 H 259.372 -0.489292 2.5291 0
M  V30 2725 H 259.33 -2.19564 2.25031 0
M  V30 2726 N 263.102 -1.41638 0.69111 0
M  V30 2727 C 264.035 -2.28183 -0.0274913 0
M  V30 2728 C 265.013 -1.41984 -0.792424 0
M  V30 2729 O 266.197 -1.71415 -0.784169 0
M  V30 2730 C 263.324 -3.22135 -1.04628 0
M  V30 2731 C 262.37 -4.24848 -0.375037 0
M  V30 2732 S 263.203 -5.28231 0.879321 0
M  V30 2733 C 264.359 -6.25748 -0.137983 0
M  V30 2734 H 264.592 -2.88782 0.706553 0
M  V30 2735 H 262.125 -1.46709 0.481222 0
M  V30 2736 H 264.083 -3.76797 -1.62894 0
M  V30 2737 H 262.744 -2.6064 -1.75287 0
M  V30 2738 H 261.937 -4.90837 -1.14433 0
M  V30 2739 H 261.539 -3.73758 0.134434 0
M  V30 2740 H 263.831 -6.70188 -0.992659 0
M  V30 2741 H 264.774 -7.06417 0.487867 0
M  V30 2742 H 265.182 -5.62363 -0.490762 0
M  V30 2743 N 264.58 -0.43555 -1.51462 0
M  V30 2744 C 265.81 0.130053 -2.0619 0
M  V30 2745 C 266.218 1.37164 -1.30317 0
M  V30 2746 O 265.561 1.80225 -0.355598 0
M  V30 2747 C 265.623 0.519418 -3.55728 0
M  V30 2748 C 265.287 -0.615119 -4.52841 0
M  V30 2749 C 266.284 -1.48671 -4.9819 0
M  V30 2750 C 263.969 -0.795341 -4.95963 0
M  V30 2751 C 265.963 -2.52324 -5.8533 0
M  V30 2752 C 263.65 -1.83514 -5.82894 0
M  V30 2753 C 264.648 -2.69748 -6.27475 0
M  V30 2754 O 264.336 -3.71944 -7.1268 0
M  V30 2755 H 264.068 0.0121612 -0.675891 0
M  V30 2756 H 266.622 -0.6129 -1.96043 0
M  V30 2757 H 264.852 1.31505 -3.63653 0
M  V30 2758 H 266.541 1.01597 -3.92979 0
M  V30 2759 H 267.307 -1.359 -4.65571 0
M  V30 2760 H 263.186 -0.133713 -4.60806 0
M  V30 2761 H 266.73 -3.19665 -6.20048 0
M  V30 2762 H 262.627 -1.96306 -6.14926 0
M  V30 2763 H 263.395 -3.68503 -7.30854 0
M  V30 2764 N 266.058 1.56714 -0.166846 0
M  V30 2765 C 266.988 2.20754 0.760913 0
M  V30 2766 C 267.969 1.16178 1.24244 0
M  V30 2767 O 269.154 1.44592 1.29641 0
M  V30 2768 C 266.284 2.84478 1.99223 0
M  V30 2769 C 265.238 3.95053 1.64672 0
M  V30 2770 C 264.564 4.45805 2.95232 0
M  V30 2771 C 265.864 5.14865 0.878155 0
M  V30 2772 H 267.558 2.98537 0.22713 0
M  V30 2773 H 265.104 1.43596 0.107805 0
M  V30 2774 H 267.057 3.27951 2.64624 0
M  V30 2775 H 265.781 2.04056 2.55007 0
M  V30 2776 H 264.44 3.52228 1.01641 0
M  V30 2777 H 264.088 3.62181 3.49047 0
M  V30 2778 H 263.788 5.204 2.7287 0
M  V30 2779 H 265.312 4.91962 3.6167 0
M  V30 2780 H 266.726 5.55059 1.43466 0
M  V30 2781 H 265.123 5.95348 0.753738 0
M  V30 2782 H 266.193 4.84735 -0.126377 0
M  V30 2783 N 267.536 -0.106894 1.57237 0
M  V30 2784 C 268.469 -1.16125 1.96444 0
M  V30 2785 C 269.447 -1.3947 0.835871 0
M  V30 2786 O 270.631 -1.53425 1.09513 0
M  V30 2787 C 267.758 -2.51277 2.27107 0
M  V30 2788 C 266.804 -2.44285 3.4961 0
M  V30 2789 S 267.637 -1.87077 5.01759 0
M  V30 2790 C 268.793 -3.23877 5.35588 0
M  V30 2791 H 269.026 -0.826971 2.85567 0
M  V30 2792 H 266.559 -0.314124 1.51171 0
M  V30 2793 H 268.517 -3.29035 2.45451 0
M  V30 2794 H 267.178 -2.81879 1.38576 0
M  V30 2795 H 266.371 -3.4387 3.68469 0
M  V30 2796 H 265.973 -1.74652 3.30715 0
M  V30 2797 H 268.265 -4.20122 5.31511 0
M  V30 2798 H 269.208 -3.09833 6.36717 0
M  V30 2799 H 269.616 -3.22864 4.63054 0
M  V30 2800 N 269.014 -1.53014 -0.377408 0
M  V30 2801 C 269.964 -1.74996 -1.46152 0
M  V30 2802 C 270.948 -0.604236 -1.49123 0
M  V30 2803 O 272.14 -0.862489 -1.54564 0
M  V30 2804 C 269.269 -1.93267 -2.8373 0
M  V30 2805 C 268.355 -3.13807 -2.85283 0
M  V30 2806 N 268.746 -4.35941 -2.56493 0
M  V30 2807 C 267.044 -3.14288 -3.16448 0
M  V30 2808 C 267.745 -5.17615 -2.65424 0
M  V30 2809 N 266.721 -4.53559 -2.99641 0
M  V30 2810 H 270.523 -2.67044 -1.22738 0
M  V30 2811 H 268.037 -1.51479 -0.585479 0
M  V30 2812 H 270.034 -2.0714 -3.61799 0
M  V30 2813 H 268.694 -1.0244 -3.08117 0
M  V30 2814 H 269.705 -4.63876 -2.30302 0
M  V30 2815 H 266.382 -2.33312 -3.46225 0
M  V30 2816 H 267.772 -6.25006 -2.46612 0
M  V30 2817 N 270.492 0.636531 -1.44174 0
M  V30 2818 C 271.738 1.39649 -1.47884 0
M  V30 2819 C 272.093 1.92098 -0.107747 0
M  V30 2820 O 271.386 1.70391 0.876208 0
M  V30 2821 C 271.58 2.58309 -2.47005 0
M  V30 2822 C 271.409 2.17476 -3.93617 0
M  V30 2823 C 270.179 2.0501 -4.61843 0
M  V30 2824 C 272.377 1.76722 -4.82984 0
M  V30 2825 N 270.359 1.57683 -5.93304 0
M  V30 2826 C 271.73 1.40601 -6.03847 0
M  V30 2827 C 273.785 1.64054 -4.70096 0
M  V30 2828 C 272.488 0.930787 -7.13252 0
M  V30 2829 C 274.514 1.17937 -5.79521 0
M  V30 2830 C 273.876 0.827625 -6.99521 0
M  V30 2831 H 269.975 0.506027 -0.596205 0
M  V30 2832 H 272.559 0.730791 -1.80465 0
M  V30 2833 H 270.73 3.22514 -2.16423 0
M  V30 2834 H 272.462 3.25083 -2.41045 0
M  V30 2835 H 269.217 2.25294 -4.16581 0
M  V30 2836 H 269.641 1.36334 -6.63131 0
M  V30 2837 H 274.283 1.89882 -3.77762 0
M  V30 2838 H 272.001 0.660012 -8.054 0
M  V30 2839 H 275.587 1.08601 -5.71574 0
M  V30 2840 H 274.467 0.476231 -7.82753 0
M  V30 2841 N 271.97 1.30982 0.876444 0
M  V30 2842 C 272.9 1.20668 1.99903 0
M  V30 2843 C 273.881 0.095354 1.69833 0
M  V30 2844 O 275.066 0.27885 1.92188 0
M  V30 2845 C 272.196 0.90655 3.3526 0
M  V30 2846 C 271.15 1.97675 3.79617 0
M  V30 2847 C 270.476 1.52943 5.1236 0
M  V30 2848 C 271.776 3.389 3.97422 0
M  V30 2849 H 273.47 2.14586 2.0879 0
M  V30 2850 H 271.016 1.03308 1.00317 0
M  V30 2851 H 272.969 0.821025 4.13324 0
M  V30 2852 H 271.693 -0.0682969 3.26529 0
M  V30 2853 H 270.352 2.05205 3.03787 0
M  V30 2854 H 270 0.54262 5.00065 0
M  V30 2855 H 269.7 2.24532 5.43009 0
M  V30 2856 H 271.224 1.45786 5.92941 0
M  V30 2857 H 272.638 3.34081 4.659 0
M  V30 2858 H 271.035 4.0865 4.3946 0
M  V30 2859 H 272.105 3.80163 3.01006 0
M  V30 2860 N 273.449 -1.08991 1.13837 0
M  V30 2861 C 274.382 -2.15049 0.763477 0
M  V30 2862 C 275.36 -1.60629 -0.252398 0
M  V30 2863 O 276.544 -1.87958 -0.142853 0
M  V30 2864 C 273.671 -3.38441 0.132545 0
M  V30 2865 C 272.717 -4.11596 1.11763 0
M  V30 2866 S 273.55 -4.6521 2.65216 0
M  V30 2867 C 274.706 -5.91896 2.03495 0
M  V30 2868 H 274.939 -2.46518 1.66182 0
M  V30 2869 H 272.472 -1.21008 0.958976 0
M  V30 2870 H 274.43 -4.09883 -0.225074 0
M  V30 2871 H 273.091 -3.05182 -0.743135 0
M  V30 2872 H 272.284 -5.00121 0.624076 0
M  V30 2873 H 271.886 -3.46038 1.41894 0
M  V30 2874 H 274.178 -6.63156 1.38675 0
M  V30 2875 H 275.121 -6.45938 2.9012 0
M  V30 2876 H 275.529 -5.44625 1.48471 0
M  V30 2877 N 274.927 -0.932562 -1.27047 0
M  V30 2878 C 276.204 -0.49377 -1.89265 0
M  V30 2879 C 276.584 1.02833 -1.8436 0
M  V30 2880 O 275.932 1.88461 -1.29209 0
M  V30 2881 C 276.142 -1.04536 -3.32976 0
M  V30 2882 C 277.49 -1.10879 -4.09867 0
M  V30 2883 O 278.514 -0.995327 -3.42011 0
M  V30 2884 O 277.373 -1.28417 -5.31198 0
M  V30 2885 H 274.467 -0.159596 -0.811454 0
M  V30 2886 H 277.013 -1.02457 -1.3528 0
M  V30 2887 H 275.785 -2.08913 -3.30864 0
M  V30 2888 H 275.408 -0.496494 -3.94488 0
M  V30 2889 N 276.405 1.4127 -0.698611 0
M  V30 2890 C 277.651 2.01478 -0.231207 0
M  V30 2891 C 277.984 1.55215 1.16713 0
M  V30 2892 O 277.259 0.764672 1.78838 0
M  V30 2893 C 277.542 3.58912 -0.292281 0
M  V30 2894 C 277.395 4.15293 -1.72778 0
M  V30 2895 C 278.714 4.38736 0.346194 0
M  V30 2896 H 275.833 0.732025 -0.0854878 0
M  V30 2897 H 278.475 1.67977 -0.887906 0
M  V30 2898 H 276.625 3.87582 0.26686 0
M  V30 2899 H 278.297 3.97486 -2.341 0
M  V30 2900 H 276.54 3.7022 -2.26096 0
M  V30 2901 H 277.211 5.24452 -1.72202 0
M  V30 2902 H 279.687 4.15897 -0.130035 0
M  V30 2903 H 278.563 5.48221 0.272932 0
M  V30 2904 H 278.824 4.18425 1.42734 0
M  V30 2905 N 277.883 0.443576 1.51229 0
M  V30 2906 C 279.16 -0.181038 1.9476 0
M  V30 2907 C 279.54 -1.59523 1.38259 0
M  V30 2908 O 278.888 -2.2122 0.572198 0
M  V30 2909 C 279.098 -0.152422 3.48667 0
M  V30 2910 C 280.446 -0.354923 4.23114 0
M  V30 2911 O 281.47 -0.230257 3.55455 0
M  V30 2912 O 280.329 -0.603674 5.43156 0
M  V30 2913 H 277.423 -0.1266 0.817252 0
M  V30 2914 H 279.969 0.502004 1.62105 0
M  V30 2915 H 278.741 0.836022 3.82265 0
M  V30 2916 H 278.364 -0.878107 3.87782 0
M  V30 2917 N 279.361 -1.56624 0.175154 0
M  V30 2918 C 280.309 -2.19468 -0.770495 0
M  V30 2919 C 281.303 -1.15985 -1.23466 0
M  V30 2920 O 282.509 -1.34176 -1.19987 0
M  V30 2921 H 278.884 -0.703095 -0.266761 0
M  V30 2922 H 280.855 -2.97613 -0.216542 0
M  V30 2923 C 279.604 -2.85264 -1.98796 0
M  V30 2924 H 278.927 -3.64623 -1.63983 0
M  V30 2925 H 280.367 -3.327 -2.62843 0
M  V30 2926 C 278.826 -1.85239 -2.81404 0
M  V30 2927 O 279.356 -1.34024 -3.78682 0
M  V30 2928 N 277.562 -1.53911 -2.46495 0
M  V30 2929 H 277.109 -1.95751 -1.67449 0
M  V30 2930 H 277.067 -0.872382 -3.02054 0
M  V30 2931 N 280.839 0.0985539 -1.57292 0
M  V30 2932 C 282.085 0.798769 -1.87059 0
M  V30 2933 C 282.44 1.76514 -0.76555 0
M  V30 2934 O 281.733 1.90181 0.232752 0
M  V30 2935 C 281.927 1.56927 -3.21105 0
M  V30 2936 C 281.756 0.679026 -4.44544 0
M  V30 2937 C 280.526 0.326071 -5.04247 0
M  V30 2938 C 282.724 -0.0124715 -5.14298 0
M  V30 2939 N 280.706 -0.572702 -6.11223 0
M  V30 2940 C 282.077 -0.769446 -6.15207 0
M  V30 2941 C 284.132 -0.0867545 -4.97824 0
M  V30 2942 C 282.835 -1.59376 -7.01421 0
M  V30 2943 C 284.861 -0.897955 -5.84543 0
M  V30 2944 C 284.223 -1.64306 -6.84969 0
M  V30 2945 H 280.322 0.268568 -0.734435 0
M  V30 2946 H 282.906 0.0614664 -1.94603 0
M  V30 2947 H 281.077 2.27748 -3.1462 0
M  V30 2948 H 282.809 2.21641 -3.38611 0
M  V30 2949 H 279.564 0.67295 -4.68795 0
M  V30 2950 H 279.988 -1.01454 -6.69355 0
M  V30 2951 H 284.63 0.474963 -4.20124 0
M  V30 2952 H 282.348 -2.16655 -7.78515 0
M  V30 2953 H 285.934 -0.958059 -5.73858 0
M  V30 2954 H 284.814 -2.26065 -7.50909 0
M  V30 2955 N 282.317 1.53212 0.369288 0
M  V30 2956 C 283.547 1.72868 1.13139 0
M  V30 2957 C 283.955 0.455754 1.83629 0
M  V30 2958 O 283.298 -0.580861 1.74275 0
M  V30 2959 C 283.36 2.83667 2.20847 0
M  V30 2960 C 283.024 4.24142 1.70155 0
M  V30 2961 C 284.021 5.06619 1.16763 0
M  V30 2962 C 281.706 4.70539 1.7578 0
M  V30 2963 C 283.7 6.33581 0.696678 0
M  V30 2964 C 281.387 5.97481 1.28297 0
M  V30 2965 C 282.385 6.78833 0.753307 0
M  V30 2966 O 282.073 8.03393 0.285475 0
M  V30 2967 H 281.805 0.581707 0.344373 0
M  V30 2968 H 284.359 2.00736 0.435243 0
M  V30 2969 H 282.589 2.51265 2.93944 0
M  V30 2970 H 284.278 2.91536 2.82421 0
M  V30 2971 H 285.044 4.71948 1.11758 0
M  V30 2972 H 280.923 4.07293 2.15949 0
M  V30 2973 H 284.467 6.97027 0.282581 0
M  V30 2974 H 280.364 6.31651 1.32994 0
M  V30 2975 H 281.132 8.17497 0.405145 0
M  V30 2976 N 283.795 -0.628877 1.44509 0
M  V30 2977 C 285.043 -1.38565 1.4712 0
M  V30 2978 C 285.364 -1.94712 0.105899 0
M  V30 2979 O 284.634 -1.75912 -0.862079 0
M  V30 2980 H 283.214 -0.514333 0.541729 0
M  V30 2981 H 285.876 -0.740018 1.80305 0
M  V30 2982 H 284.972 -2.21583 2.19789 0
M  V30 2983 N 285.273 -1.31445 -0.869486 0
M  V30 2984 C 286.52 -1.21158 -1.62256 0
M  V30 2985 C 286.848 0.230155 -1.93133 0
M  V30 2986 O 286.103 1.17906 -1.56194 0
M  V30 2987 C 286.402 -2.00145 -2.96102 0
M  V30 2988 C 286.068 -3.4964 -2.84715 0
M  V30 2989 C 284.73 -3.90403 -2.81317 0
M  V30 2990 C 287.082 -4.44769 -2.71716 0
M  V30 2991 C 284.41 -5.24561 -2.62778 0
M  V30 2992 C 286.762 -5.79054 -2.54714 0
M  V30 2993 C 285.426 -6.19037 -2.49699 0
M  V30 2994 H 284.696 -0.443348 -0.593737 0
M  V30 2995 H 287.343 -1.62715 -1.00976 0
M  V30 2996 H 285.648 -1.5127 -3.6142 0
M  V30 2997 H 287.345 -1.89566 -3.53363 0
M  V30 2998 H 283.935 -3.17256 -2.88178 0
M  V30 2999 H 288.119 -4.14208 -2.73397 0
M  V30 3000 H 283.375 -5.54613 -2.57321 0
M  V30 3001 H 287.549 -6.52393 -2.43632 0
M  V30 3002 H 285.176 -7.22935 -2.35093 0
M  V30 3003 N 286.751 1.08385 -1.14413 0
M  V30 3004 C 287.999 1.80419 -0.910679 0
M  V30 3005 C 288.32 1.86658 0.564243 0
M  V30 3006 O 287.59 1.35985 1.41014 0
M  V30 3007 H 286.17 0.668204 -0.333934 0
M  V30 3008 H 288.832 1.31037 -1.44275 0
M  V30 3009 H 287.928 2.83238 -1.31082 0
M  V30 3010 N 288.23 0.939286 1.26551 0
M  V30 3011 C 289.458 0.602536 1.97932 0
M  V30 3012 C 289.873 -0.82206 1.69964 0
M  V30 3013 O 289.23 -1.54789 0.966784 0
M  V30 3014 C 289.281 0.832946 3.51773 0
M  V30 3015 O 289.002 2.20151 3.78768 0
M  V30 3016 C 290.503 0.506483 4.40397 0
M  V30 3017 H 287.723 0.227248 0.631347 0
M  V30 3018 H 290.267 1.25948 1.61113 0
M  V30 3019 H 288.422 0.222644 3.8676 0
M  V30 3020 H 288.836 2.26013 4.73306 0
M  V30 3021 H 290.31 0.718333 5.47306 0
M  V30 3022 H 290.787 -0.558451 4.35635 0
M  V30 3023 H 291.393 1.09543 4.10951 0
M  V30 3024 N 289.708 -1.40897 0.706093 0
M  V30 3025 C 290.956 -2.00657 0.241054 0
M  V30 3026 C 291.277 -1.56241 -1.16678 0
M  V30 3027 O 290.547 -0.79765 -1.78926 0
M  V30 3028 H 289.127 -0.742018 0.0861308 0
M  V30 3029 H 291.789 -1.72372 0.909604 0
M  V30 3030 H 290.885 -3.10958 0.266705 0
M  V30 3031 N 291.186 -0.45159 -1.50991 0
M  V30 3032 C 292.414 0.108334 -2.06616 0
M  V30 3033 C 292.829 1.35224 -1.31757 0
M  V30 3034 O 292.186 1.78475 -0.381174 0
M  V30 3035 C 292.237 0.41619 -3.59096 0
M  V30 3036 O 291.958 -0.778361 -4.3113 0
M  V30 3037 C 293.459 1.02523 -4.31282 0
M  V30 3038 H 290.679 0.00159995 -0.670998 0
M  V30 3039 H 293.223 -0.634771 -1.94399 0
M  V30 3040 H 291.378 1.10921 -3.71181 0
M  V30 3041 H 291.792 -0.511181 -5.22003 0
M  V30 3042 H 293.266 1.19053 -5.39009 0
M  V30 3043 H 293.743 2.01013 -3.905 0
M  V30 3044 H 294.349 0.371173 -4.23677 0
M  V30 3045 N 292.664 1.56529 -0.183458 0
M  V30 3046 C 294.08 1.58664 0.172554 0
M  V30 3047 C 294.28 1.19925 1.61926 0
M  V30 3048 O 293.336 0.916534 2.35278 0
M  V30 3049 C 294.649 3.00463 -0.119262 0
M  V30 3050 C 296.197 3.12945 -0.0584396 0
M  V30 3051 C 296.672 4.56857 -0.323408 0
M  V30 3052 N 298.163 4.62403 -0.271612 0
M  V30 3053 C 298.898 5.71626 -0.450639 0
M  V30 3054 N 298.394 6.89362 -0.689384 0
M  V30 3055 N 300.187 5.60775 -0.385701 0
M  V30 3056 H 292.338 1.79994 -1.12765 0
M  V30 3057 H 294.601 0.834808 -0.449222 0
M  V30 3058 H 294.307 3.33326 -1.12192 0
M  V30 3059 H 294.181 3.72659 0.583544 0
M  V30 3060 H 296.568 2.79902 0.934805 0
M  V30 3061 H 296.649 2.4316 -0.794144 0
M  V30 3062 H 296.293 4.9061 -1.31392 0
M  V30 3063 H 296.223 5.24816 0.43305 0
M  V30 3064 H 298.714 3.77785 -0.0932256 0
M  V30 3065 H 299.027 7.68489 -0.815113 0
M  V30 3066 H 297.372 6.91196 -0.726142 0
M  V30 3067 H 300.563 4.67674 -0.199687 0
M  V30 3068 H 300.736 6.4584 -0.528646 0
M  V30 3069 N 294.142 -0.090211 1.57342 0
M  V30 3070 C 295.105 -1.09335 2.01441 0
M  V30 3071 C 296.105 -1.32666 0.908641 0
M  V30 3072 O 297.295 -1.28697 1.174 0
M  V30 3073 C 294.427 -2.44136 2.3793 0
M  V30 3074 H 295.62 -0.713662 2.91285 0
M  V30 3075 H 293.173 -0.335404 1.52659 0
M  V30 3076 H 293.908 -2.86972 1.51055 0
M  V30 3077 H 293.693 -2.28548 3.18603 0
M  V30 3078 H 295.183 -3.16277 2.72688 0
M  V30 3079 N 295.62 -1.53406 -0.361157 0
M  V30 3080 C 296.848 -1.73717 -1.12383 0
M  V30 3081 C 297.263 -0.468161 -1.82904 0
M  V30 3082 O 296.62 0.559198 -1.73722 0
M  V30 3083 C 296.671 -2.90558 -2.15078 0
M  V30 3084 O 296.392 -4.12549 -1.47428 0
M  V30 3085 C 297.893 -3.22777 -3.03858 0
M  V30 3086 H 295.113 -0.580896 -0.335858 0
M  V30 3087 H 297.657 -2.00167 -0.418728 0
M  V30 3088 H 295.812 -2.66489 -2.8118 0
M  V30 3089 H 296.226 -4.78009 -2.15887 0
M  V30 3090 H 297.7 -4.07927 -3.71887 0
M  V30 3091 H 298.177 -2.38329 -3.68912 0
M  V30 3092 H 298.783 -3.48787 -2.43367 0
M  V30 3093 N 297.098 0.621204 -1.44841 0
M  V30 3094 C 298.345 1.38055 -1.48145 0
M  V30 3095 C 298.673 1.94143 -0.117867 0
M  V30 3096 O 297.928 1.74713 0.881694 0
M  V30 3097 C 298.227 2.55675 -2.4973 0
M  V30 3098 C 297.893 2.17817 -3.94799 0
M  V30 3099 C 296.555 2.07205 -4.34303 0
M  V30 3100 C 298.907 1.88065 -4.86087 0
M  V30 3101 C 296.235 1.65045 -5.63007 0
M  V30 3102 C 298.587 1.47394 -6.15189 0
M  V30 3103 C 297.251 1.35331 -6.53637 0
M  V30 3104 H 296.521 0.505181 -0.542101 0
M  V30 3105 H 299.168 0.703477 -1.78111 0
M  V30 3106 H 297.473 3.2866 -2.13284 0
M  V30 3107 H 299.17 3.13904 -2.4953 0
M  V30 3108 H 295.76 2.26998 -3.63552 0
M  V30 3109 H 299.944 1.95168 -4.56315 0
M  V30 3110 H 295.2 1.54317 -5.91605 0
M  V30 3111 H 299.374 1.23415 -6.85377 0
M  V30 3112 H 297.001 1.02435 -7.53267 0
M  V30 3113 N 298.576 1.31904 0.862503 0
M  V30 3114 C 299.825 1.21373 1.61094 0
M  V30 3115 C 300.138 -0.22504 1.94301 0
M  V30 3116 O 301.344 -0.452121 2.67709 0
M  V30 3117 C 299.8 2.12525 2.9045 0
M  V30 3118 C 299.408 3.61441 2.64697 0
M  V30 3119 C 301.152 2.10813 3.68454 0
M  V30 3120 C 299.059 4.44578 3.90006 0
M  V30 3121 H 297.989 0.450705 0.604468 0
M  V30 3122 H 300.64 1.56811 0.953027 0
M  V30 3123 H 299.022 1.69994 3.57656 0
M  V30 3124 H 300.196 4.12264 2.05851 0
M  V30 3125 H 298.511 3.65205 2.00036 0
M  V30 3126 H 301.108 2.70167 4.61426 0
M  V30 3127 H 301.451 1.09713 4.01583 0
M  V30 3128 H 301.984 2.51583 3.08141 0
M  V30 3129 H 298.723 5.46461 3.62023 0
M  V30 3130 H 298.243 3.98508 4.48276 0
M  V30 3131 H 299.922 4.57176 4.5782 0
M  V30 3132 N 300.054 -1.07777 1.14986 0
M  V30 3133 C 301.002 -2.16964 0.838406 0
M  V30 3134 C 301.996 -1.68372 -0.186386 0
M  V30 3135 O 303.202 -1.79951 -0.0418465 0
M  V30 3136 H 299.577 -0.708006 0.253439 0
M  V30 3137 H 301.548 -2.40454 1.76704 0
M  V30 3138 C 300.297 -3.4604 0.339335 0
M  V30 3139 H 299.62 -3.83813 1.11927 0
M  V30 3140 H 301.06 -4.23698 0.160021 0
M  V30 3141 C 299.519 -3.23569 -0.938325 0
M  V30 3142 O 300.049 -3.47752 -2.01077 0
M  V30 3143 N 298.255 -2.77079 -0.876117 0
M  V30 3144 H 297.802 -2.576 -0.00322037 0
M  V30 3145 H 297.76 -2.62422 -1.73153 0
M  V30 3146 N 301.532 -0.945985 -1.26051 0
M  V30 3147 C 302.76 -0.613025 -1.9761 0
M  V30 3148 C 303.175 0.813035 -1.70397 0
M  V30 3149 O 302.532 1.54274 -0.974979 0
M  V30 3150 C 302.583 -0.85159 -3.51326 0
M  V30 3151 O 302.304 -2.22157 -3.77595 0
M  V30 3152 C 303.805 -0.529831 -4.40122 0
M  V30 3153 H 301.025 -0.230593 -0.630133 0
M  V30 3154 H 303.569 -1.268 -1.60443 0
M  V30 3155 H 301.724 -0.243151 -3.86636 0
M  V30 3156 H 302.138 -2.2852 -4.721 0
M  V30 3157 H 303.612 -0.747348 -5.46917 0
M  V30 3158 H 304.089 0.535341 -4.35925 0
M  V30 3159 H 304.695 -1.11721 -4.10364 0
M  V30 3160 N 303.011 1.40521 -0.713556 0
M  V30 3161 C 304.258 2.00923 -0.25219 0
M  V30 3162 C 304.586 1.56571 1.15395 0
M  V30 3163 O 303.841 0.775874 1.79663 0
M  V30 3164 C 304.14 3.56317 -0.278 0
M  V30 3165 C 303.806 4.20246 -1.63415 0
M  V30 3166 C 302.468 4.37422 -2.00538 0
M  V30 3167 C 304.82 4.55923 -2.52554 0
M  V30 3168 C 302.148 4.87558 -3.2635 0
M  V30 3169 C 304.5 5.07458 -3.77716 0
M  V30 3170 C 303.164 5.22843 -4.14959 0
M  V30 3171 H 302.434 0.735231 -0.0922829 0
M  V30 3172 H 305.081 1.68161 -0.916188 0
M  V30 3173 H 303.386 3.88976 0.469567 0
M  V30 3174 H 305.083 4.00883 0.0967819 0
M  V30 3175 H 301.673 4.07263 -1.33546 0
M  V30 3176 H 305.857 4.42291 -2.25149 0
M  V30 3177 H 301.113 4.97654 -3.55176 0
M  V30 3178 H 305.287 5.34041 -4.4696 0
M  V30 3179 H 302.914 5.61454 -5.12516 0
M  V30 3180 N 304.489 0.459591 1.5075 0
M  V30 3181 C 305.421 -0.37665 2.26084 0
M  V30 3182 C 306.434 -0.967109 1.30961 0
M  V30 3183 O 307.623 -0.857468 1.56556 0
M  V30 3184 C 304.723 -1.54112 3.01832 0
M  V30 3185 C 303.896 -1.06553 4.24223 0
M  V30 3186 C 302.955 -2.1027 4.82362 0
M  V30 3187 O 301.981 -1.68798 5.43595 0
M  V30 3188 N 303.183 -3.42974 4.68347 0
M  V30 3189 H 305.948 0.269124 2.98489 0
M  V30 3190 H 303.509 0.28972 1.59287 0
M  V30 3191 H 305.501 -2.23165 3.37608 0
M  V30 3192 H 304.071 -2.0918 2.32298 0
M  V30 3193 H 303.291 -0.201274 3.93686 0
M  V30 3194 H 304.579 -0.725516 5.03601 0
M  V30 3195 H 303.977 -3.79385 4.19623 0
M  V30 3196 H 302.534 -4.07858 5.08424 0
M  V30 3197 N 305.967 -1.56429 0.191757 0
M  V30 3198 C 307.383 -1.58754 -0.164137 0
M  V30 3199 C 307.583 -1.20782 -1.61288 0
M  V30 3200 O 306.639 -0.928999 -2.34789 0
M  V30 3201 C 307.952 -3.00396 0.135195 0
M  V30 3202 C 309.5 -3.1291 0.0750351 0
M  V30 3203 C 309.975 -4.56679 0.347632 0
M  V30 3204 N 311.466 -4.62252 0.296131 0
M  V30 3205 C 312.201 -5.71379 0.480948 0
M  V30 3206 N 311.697 -6.88986 0.725933 0
M  V30 3207 N 313.49 -5.60563 0.415435 0
M  V30 3208 H 305.641 -1.79393 1.13718 0
M  V30 3209 H 307.904 -0.832414 0.453643 0
M  V30 3210 H 307.61 -3.32726 1.13958 0
M  V30 3211 H 307.484 -3.72963 -0.563773 0
M  V30 3212 H 309.871 -2.80394 -0.919948 0
M  V30 3213 H 309.952 -2.42736 0.807029 0
M  V30 3214 H 309.596 -4.89907 1.33992 0
M  V30 3215 H 309.526 -5.25039 -0.405212 0
M  V30 3216 H 312.017 -3.7773 0.113259 0
M  V30 3217 H 312.33 -7.68046 0.855857 0
M  V30 3218 H 310.675 -6.90801 0.762788 0
M  V30 3219 H 313.866 -4.67561 0.224486 0
M  V30 3220 H 314.039 -6.45551 0.562889 0
M  V30 3221 N 307.445 0.0818655 -1.57387 0
M  V30 3222 C 308.693 0.781368 -1.86384 0
M  V30 3223 C 309.014 1.78618 -0.782342 0
M  V30 3224 O 308.284 1.94976 0.190061 0
M  V30 3225 H 306.864 0.291562 -0.687751 0
M  V30 3226 H 309.526 0.060348 -1.94807 0
M  V30 3227 H 308.622 1.3038 -2.83562 0
M  V30 3228 N 308.923 1.53595 0.353017 0
M  V30 3229 C 309.833 1.83897 1.45667 0
M  V30 3230 C 310.849 0.728334 1.58023 0
M  V30 3231 O 312.025 1.01968 1.73679 0
M  V30 3232 C 309.09 2.03383 2.80778 0
M  V30 3233 C 308.151 3.27262 2.77845 0
M  V30 3234 C 307.384 3.45809 4.06512 0
M  V30 3235 O 307.607 2.68387 5.03314 0
M  V30 3236 O 306.541 4.39207 4.11559 0
M  V30 3237 H 310.367 2.77686 1.2298 0
M  V30 3238 H 307.952 1.39132 0.544308 0
M  V30 3239 H 309.834 2.17698 3.60812 0
M  V30 3240 H 308.509 1.12783 3.03417 0
M  V30 3241 H 307.416 3.18359 1.96465 0
M  V30 3242 H 308.749 4.17824 2.60161 0
M  V30 3243 N 310.401 -0.613514 1.45168 0
M  V30 3244 C 311.333 -1.73825 1.4939 0
M  V30 3245 C 312.346 -1.58175 0.385304 0
M  V30 3246 O 313.535 -1.66165 0.652036 0
M  V30 3247 C 310.635 -3.11758 1.32891 0
M  V30 3248 C 309.808 -3.53704 2.57317 0
M  V30 3249 C 308.867 -4.70579 2.35462 0
M  V30 3250 O 307.893 -4.77996 3.09044 0
M  V30 3251 N 309.095 -5.63454 1.39644 0
M  V30 3252 H 311.86 -1.70669 2.46358 0
M  V30 3253 H 309.421 -0.79862 1.40832 0
M  V30 3254 H 311.413 -3.87692 1.1609 0
M  V30 3255 H 309.983 -3.09456 0.442218 0
M  V30 3256 H 309.203 -2.67794 2.89275 0
M  V30 3257 H 310.491 -3.78486 3.40038 0
M  V30 3258 H 309.889 -5.6017 0.789062 0
M  V30 3259 H 308.446 -6.38944 1.28816 0
M  V30 3260 N 311.879 -1.3236 -0.855495 0
M  V30 3261 C 312.789 -1.23221 -1.99634 0
M  V30 3262 C 313.805 -0.145983 -1.73387 0
M  V30 3263 O 314.981 -0.366502 -1.98037 0
M  V30 3264 C 312.046 -0.954782 -3.33294 0
M  V30 3265 C 311.107 -2.12937 -3.72769 0
M  V30 3266 C 310.34 -1.86508 -5.00051 0
M  V30 3267 O 310.563 -0.807231 -5.64659 0
M  V30 3268 O 309.497 -2.72591 -5.36636 0
M  V30 3269 H 313.323 -2.19126 -2.1028 0
M  V30 3270 H 310.908 -1.12241 -0.986018 0
M  V30 3271 H 312.79 -0.816519 -4.13414 0
M  V30 3272 H 311.465 -0.0258854 -3.2369 0
M  V30 3273 H 310.372 -2.3231 -2.93228 0
M  V30 3274 H 311.705 -3.04102 -3.87018 0
M  V30 3275 N 313.357 1.07166 -1.15556 0
M  V30 3276 C 314.582 1.84053 -0.955988 0
M  V30 3277 C 315.007 1.81586 0.490739 0
M  V30 3278 O 314.365 1.21018 1.34997 0
M  V30 3279 C 314.413 3.28957 -1.47714 0
M  V30 3280 O 313.517 4.06795 -0.677593 0
M  V30 3281 H 312.858 0.569842 -0.340847 0
M  V30 3282 H 315.388 1.35178 -1.53584 0
M  V30 3283 H 315.398 3.79788 -1.4908 0
M  V30 3284 H 314.073 3.30068 -2.53037 0
M  V30 3285 H 312.65 3.6561 -0.733721 0
M  V30 3286 N 314.835 0.952656 1.25548 0
M  V30 3287 C 316.063 0.623496 1.97282 0
M  V30 3288 C 316.478 -0.803987 1.70826 0
M  V30 3289 O 315.835 -1.53755 0.983147 0
M  V30 3290 C 315.886 0.870209 3.5087 0
M  V30 3291 O 315.607 2.24156 3.76412 0
M  V30 3292 C 317.108 0.553164 4.39835 0
M  V30 3293 H 314.328 0.233931 0.628902 0
M  V30 3294 H 316.872 1.27649 1.59768 0
M  V30 3295 H 315.027 0.263652 3.86502 0
M  V30 3296 H 315.441 2.31021 4.70882 0
M  V30 3297 H 316.915 0.776342 5.46513 0
M  V30 3298 H 317.392 -0.512215 4.36203 0
M  V30 3299 H 317.998 1.13896 4.09766 0
M  V30 3300 N 316.313 -1.40141 0.720998 0
M  V30 3301 C 317.559 -2.01572 0.272075 0
M  V30 3302 C 317.914 -1.5616 -1.12391 0
M  V30 3303 O 317.207 -0.774198 -1.75262 0
M  V30 3304 C 317.401 -3.56165 0.296892 0
M  V30 3305 C 317.23 -4.16584 1.69375 0
M  V30 3306 C 316 -4.49783 2.30269 0
M  V30 3307 C 318.198 -4.41076 2.64493 0
M  V30 3308 N 316.18 -4.95626 3.62254 0
M  V30 3309 C 317.551 -4.88971 3.81192 0
M  V30 3310 C 319.606 -4.23122 2.62435 0
M  V30 3311 C 318.309 -5.20796 4.96149 0
M  V30 3312 C 320.335 -4.56052 3.76524 0
M  V30 3313 C 319.697 -5.04141 4.91956 0
M  V30 3314 H 315.796 -0.768343 0.145511 0
M  V30 3315 H 318.38 -1.70287 0.943959 0
M  V30 3316 H 316.551 -3.86868 -0.344578 0
M  V30 3317 H 318.283 -4.04346 -0.169254 0
M  V30 3318 H 315.038 -4.37101 1.82318 0
M  V30 3319 H 315.462 -5.22923 4.29977 0
M  V30 3320 H 320.104 -3.85158 1.74393 0
M  V30 3321 H 317.822 -5.57672 5.84831 0
M  V30 3322 H 321.408 -4.43796 3.76213 0
M  V30 3323 H 320.288 -5.29142 5.78774 0
M  V30 3324 N 317.792 -0.46758 -1.50504 0
M  V30 3325 C 318.702 0.33382 -2.32213 0
M  V30 3326 C 319.718 0.999323 -1.42441 0
M  V30 3327 O 320.894 0.988068 -1.75497 0
M  V30 3328 C 317.959 1.4035 -3.17022 0
M  V30 3329 C 317.02 0.754961 -4.2261 0
M  V30 3330 C 316.253 1.77367 -5.03365 0
M  V30 3331 O 316.476 2.99976 -4.8515 0
M  V30 3332 O 315.41 1.34744 -5.86624 0
M  V30 3333 H 319.236 -0.334067 -3.01857 0
M  V30 3334 H 316.821 -0.229496 -1.47627 0
M  V30 3335 H 318.703 2.02318 -3.69656 0
M  V30 3336 H 317.378 2.05492 -2.5011 0
M  V30 3337 H 316.285 0.0964244 -3.73976 0
M  V30 3338 H 317.618 0.146545 -4.91982 0
M  V30 3339 N 319.27 1.56325 -0.20005 0
M  V30 3340 C 320.498 2.02105 0.442874 0
M  V30 3341 C 320.913 1.08014 1.5485 0
M  V30 3342 O 320.27 0.0858797 1.82298 0
M  V30 3343 C 320.321 3.47549 0.994583 0
M  V30 3344 O 320.042 4.38049 -0.0669322 0
M  V30 3345 C 321.543 4.0887 1.7129 0
M  V30 3346 H 318.763 0.661807 0.110691 0
M  V30 3347 H 321.307 2.02134 -0.310207 0
M  V30 3348 H 319.462 3.48204 1.69803 0
M  V30 3349 H 319.876 5.23368 0.344462 0
M  V30 3350 H 321.35 5.12475 2.05118 0
M  V30 3351 H 321.827 3.52615 2.61838 0
M  V30 3352 H 322.433 4.12002 1.05518 0
M  V30 3353 N 320.748 -0.0735177 1.57428 0
M  V30 3354 C 321.997 -0.771809 1.86349 0
M  V30 3355 C 322.31 -1.78828 0.792452 0
M  V30 3356 O 323.516 -2.53602 0.96945 0
M  V30 3357 C 321.972 -1.42358 3.30548 0
M  V30 3358 C 321.58 -0.445761 4.45777 0
M  V30 3359 C 323.324 -2.10434 3.6867 0
M  V30 3360 C 321.231 -1.10335 5.81016 0
M  V30 3361 H 320.161 -0.291999 0.695164 0
M  V30 3362 H 322.812 -0.0250749 1.83483 0
M  V30 3363 H 321.194 -2.21852 3.28021 0
M  V30 3364 H 322.368 0.319239 4.59693 0
M  V30 3365 H 320.683 0.130457 4.16196 0
M  V30 3366 H 323.28 -2.60405 4.67004 0
M  V30 3367 H 323.623 -2.90298 2.98383 0
M  V30 3368 H 324.156 -1.37773 3.7318 0
M  V30 3369 H 320.895 -0.345061 6.54591 0
M  V30 3370 H 320.415 -1.83925 5.70904 0
M  V30 3371 H 322.094 -1.62367 6.26295 0
M  V30 3372 N 322.226 -1.5378 -0.344866 0
M  V30 3373 C 323.637 -1.62428 -0.920552 0
M  V30 3374 C 323.988 -0.504747 -1.89596 0
M  V30 3375 O 323.113 0.365711 -2.13287 0
M  V30 3376 C 323.708 -2.94419 -1.67639 0
M  V30 3377 C 322.267 -3.05333 -2.20111 0
M  V30 3378 C 321.414 -2.57866 -1.01982 0
M  V30 3379 H 324.365 -1.58222 -0.123042 0
M  V30 3380 H 324.386 -2.83384 -2.53917 0
M  V30 3381 H 323.898 -3.7588 -0.966224 0
M  V30 3382 H 321.999 -2.28502 -2.94308 0
M  V30 3383 H 322.112 -4.10778 -2.46573 0
M  V30 3384 H 320.476 -2.13241 -1.39285 0
M  V30 3385 H 321.259 -3.41765 -0.324308 0
M  V30 3386 N 323.704 0.605807 -1.45491 0
M  V30 3387 C 324.654 1.71074 -1.50724 0
M  V30 3388 C 325.638 1.5658 -0.37033 0
M  V30 3389 O 326.83 1.65887 -0.617299 0
M  V30 3390 C 323.959 3.0983 -1.47852 0
M  V30 3391 C 323.045 3.29704 -2.66751 0
M  V30 3392 N 323.436 3.19831 -3.91844 0
M  V30 3393 C 321.734 3.60579 -2.62486 0
M  V30 3394 C 322.435 3.41083 -4.71208 0
M  V30 3395 N 321.411 3.65157 -4.02693 0
M  V30 3396 H 325.213 1.61937 -2.45263 0
M  V30 3397 H 322.727 0.80912 -1.40808 0
M  V30 3398 H 324.724 3.89101 -1.49686 0
M  V30 3399 H 323.384 3.20115 -0.543714 0
M  V30 3400 H 324.395 2.98194 -4.23439 0
M  V30 3401 H 321.072 3.7769 -1.77922 0
M  V30 3402 H 322.462 3.38828 -5.80211 0
M  V30 3403 N 325.182 1.32811 0.848464 0
M  V30 3404 C 326.593 1.21315 1.41914 0
M  V30 3405 C 326.944 -0.171847 1.95446 0
M  V30 3406 O 326.069 -1.07093 1.88043 0
M  V30 3407 C 326.664 2.19631 2.57968 0
M  V30 3408 C 325.223 2.12003 3.11017 0
M  V30 3409 C 324.37 2.07651 1.83783 0
M  V30 3410 H 327.321 1.44549 0.655071 0
M  V30 3411 H 327.342 1.79845 3.35315 0
M  V30 3412 H 326.854 3.20423 2.18976 0
M  V30 3413 H 324.955 1.14481 3.54577 0
M  V30 3414 H 325.068 3.02111 3.71841 0
M  V30 3415 H 323.432 1.52983 2.03638 0
M  V30 3416 H 324.215 3.10235 1.47 0
M  V30 3417 N 326.66 -1.06551 1.16123 0
M  V30 3418 C 327.885 -1.83544 0.965735 0
M  V30 3419 C 328.31 -1.81843 -0.481102 0
M  V30 3420 O 327.668 -1.21732 -1.34354 0
M  V30 3421 C 327.716 -3.28169 1.49457 0
M  V30 3422 O 326.82 -4.0643 0.699157 0
M  V30 3423 H 326.161 -0.568026 0.343864 0
M  V30 3424 H 328.691 -1.34362 1.54299 0
M  V30 3425 H 328.701 -3.78992 1.51092 0
M  V30 3426 H 327.376 -3.28722 2.54784 0
M  V30 3427 H 325.953 -3.65216 0.7531 0
M  V30 3428 N 328.138 -0.959301 -1.25041 0
M  V30 3429 C 329.387 -0.612254 -1.92183 0
M  V30 3430 C 329.7 0.855347 -1.75907 0
M  V30 3431 O 330.906 1.31256 -2.37664 0
M  V30 3432 C 329.362 -1.04435 -3.44414 0
M  V30 3433 C 328.97 -2.53482 -3.69393 0
M  V30 3434 C 330.714 -0.770055 -4.17457 0
M  V30 3435 C 328.621 -2.90468 -5.15153 0
M  V30 3436 H 327.551 -0.225279 -0.719559 0
M  V30 3437 H 330.202 -1.16438 -1.41825 0
M  V30 3438 H 328.584 -0.4206 -3.9376 0
M  V30 3439 H 329.758 -3.20916 -3.30681 0
M  V30 3440 H 328.073 -2.78432 -3.0962 0
M  V30 3441 H 330.67 -1.02249 -5.24832 0
M  V30 3442 H 331.013 0.293611 -4.15263 0
M  V30 3443 H 331.546 -1.35437 -3.74034 0
M  V30 3444 H 328.285 -3.95871 -5.22462 0
M  V30 3445 H 327.805 -2.27711 -5.54894 0
M  V30 3446 H 329.484 -2.79914 -5.83315 0
M  V30 3447 N 329.616 1.39756 -0.72842 0
M  V30 3448 C 330.526 2.34444 -0.0855374 0
M  V30 3449 C 331.542 1.57976 0.729356 0
M  V30 3450 O 332.718 1.90301 0.659346 0
M  V30 3451 C 329.783 3.36965 0.815798 0
M  V30 3452 C 328.844 4.29299 -0.0105996 0
M  V30 3453 C 328.077 5.26923 0.84781 0
M  V30 3454 O 328.3 5.30859 2.08673 0
M  V30 3455 O 327.234 6.01249 0.279969 0
M  V30 3456 H 331.06 2.91065 -0.866892 0
M  V30 3457 H 328.645 1.4117 -0.48902 0
M  V30 3458 H 330.527 3.99804 1.33171 0
M  V30 3459 H 329.202 2.82739 1.57608 0
M  V30 3460 H 328.109 3.69703 -0.571877 0
M  V30 3461 H 329.442 4.86712 -0.73295 0
M  V30 3462 N 331.094 0.475555 1.50254 0
M  V30 3463 C 332.004 -0.321501 2.32387 0
M  V30 3464 C 333.02 -0.991755 1.42969 0
M  V30 3465 O 334.196 -0.978747 1.76018 0
M  V30 3466 C 331.261 -1.38667 3.17762 0
M  V30 3467 C 330.322 -0.732538 4.23004 0
M  V30 3468 C 329.555 -1.74695 5.04299 0
M  V30 3469 O 329.778 -2.97399 4.86734 0
M  V30 3470 O 328.712 -1.31631 5.8733 0
M  V30 3471 H 332.538 0.350071 3.01676 0
M  V30 3472 H 330.123 0.237321 1.47503 0
M  V30 3473 H 332.005 -2.00354 3.70724 0
M  V30 3474 H 330.68 -2.04163 2.51196 0
M  V30 3475 H 329.587 -0.0765902 3.74022 0
M  V30 3476 H 330.92 -0.120452 4.92053 0
M  V30 3477 N 332.573 -1.56217 0.208337 0
M  V30 3478 C 333.82 -1.97949 -0.42692 0
M  V30 3479 C 334.148 -1.09562 -1.60706 0
M  V30 3480 O 333.403 -0.137616 -1.95216 0
M  V30 3481 C 333.702 -3.45441 -0.916797 0
M  V30 3482 C 333.368 -4.50646 0.151391 0
M  V30 3483 C 332.03 -4.79139 0.444867 0
M  V30 3484 C 334.382 -5.13811 0.874492 0
M  V30 3485 C 331.71 -5.68084 1.46619 0
M  V30 3486 C 334.062 -6.03861 1.88506 0
M  V30 3487 C 332.726 -6.30704 2.18559 0
M  V30 3488 H 331.996 -0.724345 -0.156221 0
M  V30 3489 H 334.643 -1.89006 0.308084 0
M  V30 3490 H 332.948 -3.51521 -1.73032 0
M  V30 3491 H 334.645 -3.75094 -1.41794 0
M  V30 3492 H 331.235 -4.28511 -0.0875068 0
M  V30 3493 H 335.419 -4.91879 0.660996 0
M  V30 3494 H 330.675 -5.87151 1.7048 0
M  V30 3495 H 334.849 -6.51861 2.45051 0
M  V30 3496 H 332.476 -6.99424 2.97843 0
M  V30 3497 N 334.051 0.0651679 -1.57465 0
M  V30 3498 C 334.998 1.07675 -2.04144 0
M  V30 3499 C 335.968 1.38071 -0.923335 0
M  V30 3500 O 337.153 1.49026 -1.19146 0
M  V30 3501 C 334.293 2.38337 -2.49579 0
M  V30 3502 C 333.406 2.14413 -3.75035 0
M  V30 3503 C 332.541 3.38686 -4.09225 0
M  V30 3504 C 331.58 3.10156 -5.27702 0
M  V30 3505 N 330.717 4.26778 -5.57499 0
M  V30 3506 H 335.557 0.671716 -2.90331 0
M  V30 3507 H 333.094 0.3201 -1.43575 0
M  V30 3508 H 335.052 3.14632 -2.73975 0
M  V30 3509 H 333.682 2.7663 -1.6636 0
M  V30 3510 H 332.734 1.2878 -3.57939 0
M  V30 3511 H 334.046 1.89344 -4.61466 0
M  V30 3512 H 333.2 4.23373 -4.34558 0
M  V30 3513 H 331.939 3.66837 -3.21374 0
M  V30 3514 H 330.944 2.23866 -5.02159 0
M  V30 3515 H 332.169 2.8332 -6.17176 0
M  V30 3516 H 330.115 4.54948 -4.72608 0
M  V30 3517 H 330.032 4.05005 -6.38362 0
M  V30 3518 H 331.3 5.12443 -5.87386 0
M  V30 3519 N 335.529 1.53961 0.336706 0
M  V30 3520 C 336.759 1.75229 1.09446 0
M  V30 3521 C 337.167 0.494602 1.82621 0
M  V30 3522 O 336.51 -0.543764 1.75468 0
M  V30 3523 C 336.572 2.88288 2.1478 0
M  V30 3524 C 336.236 4.27656 1.6112 0
M  V30 3525 C 337.233 5.08981 1.0599 0
M  V30 3526 C 334.918 4.74161 1.6576 0
M  V30 3527 C 336.912 6.34916 0.562129 0
M  V30 3528 C 334.599 6.00067 1.15595 0
M  V30 3529 C 335.597 6.80278 0.609147 0
M  V30 3530 O 335.285 8.03818 0.114999 0
M  V30 3531 H 335.017 0.588881 0.331956 0
M  V30 3532 H 337.571 2.01614 0.392566 0
M  V30 3533 H 335.801 2.57443 2.88548 0
M  V30 3534 H 337.49 2.97461 2.76174 0
M  V30 3535 H 338.256 4.74213 1.01722 0
M  V30 3536 H 334.135 4.11781 2.07261 0
M  V30 3537 H 337.679 6.9747 0.134668 0
M  V30 3538 H 333.576 6.3433 1.19566 0
M  V30 3539 H 334.344 8.18172 0.231651 0
M  V30 3540 N 337.007 -0.598083 1.45811 0
M  V30 3541 C 338.255 -1.35413 1.50026 0
M  V30 3542 C 338.576 -1.94444 0.147177 0
M  V30 3543 O 337.846 -1.77701 -0.824571 0
M  V30 3544 H 336.426 -0.502727 0.552517 0
M  V30 3545 H 339.088 -0.701606 1.81834 0
M  V30 3546 H 338.184 -2.16871 2.2444 0
M  V30 3547 N 338.485 -1.33259 -0.841409 0
M  V30 3548 C 339.733 -1.24326 -1.59334 0
M  V30 3549 C 340.054 0.191564 -1.94057 0
M  V30 3550 O 339.324 1.11967 -1.60749 0
M  V30 3551 H 337.904 -0.457174 -0.590763 0
M  V30 3552 H 340.566 -1.66947 -1.00571 0
M  V30 3553 H 339.662 -1.8352 -2.52442 0
M  V30 3554 N 339.963 1.05934 -1.16686 0
M  V30 3555 C 341.374 1.60263 -0.957745 0
M  V30 3556 C 341.725 1.89789 0.49745 0
M  V30 3557 O 340.85 1.67401 1.37135 0
M  V30 3558 C 341.445 2.91172 -1.73218 0
M  V30 3559 C 340.004 3.42188 -1.56794 0
M  V30 3560 C 339.151 2.16028 -1.73859 0
M  V30 3561 H 342.102 0.888392 -1.31504 0
M  V30 3562 H 342.123 3.60744 -1.21014 0
M  V30 3563 H 341.635 2.6965 -2.79124 0
M  V30 3564 H 339.736 3.68762 -0.533437 0
M  V30 3565 H 339.849 4.17273 -2.35414 0
M  V30 3566 H 338.213 2.26426 -1.16633 0
M  V30 3567 H 338.996 1.96985 -2.81161 0
M  V30 3568 N 341.441 0.965919 1.2453 0
M  V30 3569 C 342.389 0.486506 2.27455 0
M  V30 3570 C 343.383 -0.449041 1.6334 0
M  V30 3571 O 344.589 -0.324527 1.7705 0
M  V30 3572 H 340.964 0.138857 0.739069 0
M  V30 3573 H 342.935 1.3666 2.65267 0
M  V30 3574 C 341.684 -0.209481 3.47068 0
M  V30 3575 H 341.007 0.50129 3.96645 0
M  V30 3576 H 342.447 -0.508775 4.20936 0
M  V30 3577 C 340.906 -1.43586 3.0477 0
M  V30 3578 O 341.436 -2.53299 3.11773 0
M  V30 3579 N 339.642 -1.30126 2.59838 0
M  V30 3580 H 339.189 -0.408583 2.54339 0
M  V30 3581 H 339.147 -2.12294 2.31902 0
M  V30 3582 N 342.919 -1.39368 0.735821 0
M  V30 3583 C 344.167 -2.00101 0.283562 0
M  V30 3584 C 344.488 -1.5868 -1.13338 0
M  V30 3585 O 343.758 -0.835423 -1.77193 0
M  V30 3586 H 342.338 -0.740024 0.101851 0
M  V30 3587 H 345 -1.70404 0.945962 0
M  V30 3588 H 344.096 -3.10323 0.332604 0
M  V30 3589 N 344.397 -0.483516 -1.5 0
M  V30 3590 C 345.644 0.0671597 -2.02389 0
M  V30 3591 C 345.972 1.38597 -1.36459 0
M  V30 3592 O 345.227 1.89634 -0.483458 0
M  V30 3593 C 345.526 0.286226 -3.56252 0
M  V30 3594 C 345.192 -0.952416 -4.40726 0
M  V30 3595 C 343.854 -1.29199 -4.63531 0
M  V30 3596 C 346.206 -1.77655 -4.89988 0
M  V30 3597 C 343.534 -2.45553 -5.32842 0
M  V30 3598 C 345.886 -2.93147 -5.60578 0
M  V30 3599 C 344.55 -3.27505 -5.81633 0
M  V30 3600 H 343.82 0.0245755 -0.740592 0
M  V30 3601 H 346.467 -0.640124 -1.80485 0
M  V30 3602 H 344.772 1.07587 -3.76739 0
M  V30 3603 H 346.469 0.726473 -3.94365 0
M  V30 3604 H 343.059 -0.677881 -4.23205 0
M  V30 3605 H 347.243 -1.52737 -4.72213 0
M  V30 3606 H 342.499 -2.72431 -5.47349 0
M  V30 3607 H 346.673 -3.57344 -5.97727 0
M  V30 3608 H 344.3 -4.1777 -6.35116 0
M  V30 3609 N 345.875 1.56104 -0.216619 0
M  V30 3610 C 346.805 2.23063 0.690296 0
M  V30 3611 C 347.786 1.20072 1.20485 0
M  V30 3612 O 348.971 1.48643 1.24976 0
M  V30 3613 C 346.101 2.90672 1.90072 0
M  V30 3614 C 345.055 4.00092 1.5202 0
M  V30 3615 C 344.381 4.54972 2.80899 0
M  V30 3616 C 345.681 5.17398 0.71391 0
M  V30 3617 H 347.375 2.99109 0.132038 0
M  V30 3618 H 344.921 1.43866 0.0620664 0
M  V30 3619 H 346.874 3.36204 2.54057 0
M  V30 3620 H 345.598 2.12066 2.48386 0
M  V30 3621 H 344.257 3.55283 0.903839 0
M  V30 3622 H 343.905 3.73102 3.37348 0
M  V30 3623 H 343.605 5.28817 2.56176 0
M  V30 3624 H 345.129 5.0322 3.45836 0
M  V30 3625 H 346.543 5.59342 1.25735 0
M  V30 3626 H 344.94 5.97444 0.563951 0
M  V30 3627 H 346.01 4.84088 -0.280527 0
M  V30 3628 N 347.353 -0.0568162 1.57498 0
M  V30 3629 C 348.63 -0.786954 1.79071 0
M  V30 3630 C 349.01 -1.95028 0.80792 0
M  V30 3631 O 348.358 -2.27968 -0.155858 0
M  V30 3632 C 348.568 -1.24594 3.26002 0
M  V30 3633 C 349.916 -1.67323 3.90241 0
M  V30 3634 O 350.94 -1.34124 3.29984 0
M  V30 3635 O 349.799 -2.28842 4.9628 0
M  V30 3636 H 346.893 -0.378262 0.735423 0
M  V30 3637 H 349.439 -0.035734 1.69662 0
M  V30 3638 H 348.211 -0.41423 3.89101 0
M  V30 3639 H 347.834 -2.05803 3.40192 0
M  V30 3640 N 348.832 -1.54138 -0.328536 0
M  V30 3641 C 349.762 -1.86167 -1.40939 0
M  V30 3642 C 350.743 -0.718044 -1.54202 0
M  V30 3643 O 351.928 -0.971328 -1.68163 0
M  V30 3644 C 349.058 -2.08461 -2.77779 0
M  V30 3645 C 348.012 -3.24299 -2.7931 0
M  V30 3646 C 347.338 -3.31955 -4.19178 0
M  V30 3647 C 348.638 -4.62065 -2.43502 0
M  V30 3648 H 350.332 -2.76689 -1.14383 0
M  V30 3649 H 347.878 -1.33132 -0.548806 0
M  V30 3650 H 349.831 -2.29453 -3.53454 0
M  V30 3651 H 348.555 -1.14684 -3.05802 0
M  V30 3652 H 347.214 -3.03187 -2.0609 0
M  V30 3653 H 346.862 -2.35745 -4.44335 0
M  V30 3654 H 346.562 -4.09805 -4.2111 0
M  V30 3655 H 348.086 -3.55175 -4.96672 0
M  V30 3656 H 349.5 -4.8297 -3.08889 0
M  V30 3657 H 347.897 -5.42429 -2.56693 0
M  V30 3658 H 348.967 -4.64652 -1.38659 0
M  V30 3659 N 350.31 0.590341 -1.46126 0
M  V30 3660 C 351.557 1.34882 -1.5104 0
M  V30 3661 C 351.885 1.93849 -0.159021 0
M  V30 3662 O 351.14 1.76544 0.844436 0
M  V30 3663 C 351.439 2.5032 -2.55097 0
M  V30 3664 C 351.105 2.09394 -3.99331 0
M  V30 3665 C 349.767 1.97947 -4.38601 0
M  V30 3666 C 352.119 1.77712 -4.89967 0
M  V30 3667 C 349.447 1.53065 -5.66381 0
M  V30 3668 C 351.799 1.34312 -6.18177 0
M  V30 3669 C 350.463 1.21436 -6.56361 0
M  V30 3670 H 349.733 0.493568 -0.552695 0
M  V30 3671 H 352.38 0.665539 -1.79563 0
M  V30 3672 H 350.685 3.24062 -2.20207 0
M  V30 3673 H 352.382 3.08541 -2.56132 0
M  V30 3674 H 348.972 2.19235 -3.68285 0
M  V30 3675 H 353.156 1.85445 -4.60352 0
M  V30 3676 H 348.412 1.41733 -5.94745 0
M  V30 3677 H 352.586 1.08849 -6.87841 0
M  V30 3678 H 350.213 0.864345 -7.5527 0
M  V30 3679 N 351.788 1.33704 0.83433 0
M  V30 3680 C 353.016 1.28467 1.62185 0
M  V30 3681 C 353.431 -0.143526 1.88254 0
M  V30 3682 O 352.788 -1.08709 1.4659 0
M  V30 3683 C 352.839 2.06174 2.96942 0
M  V30 3684 O 352.56 3.43422 2.72016 0
M  V30 3685 C 354.061 2.08201 3.91366 0
M  V30 3686 H 351.281 0.4424 0.504503 0
M  V30 3687 H 353.825 1.76145 1.03891 0
M  V30 3688 H 351.98 1.62167 3.51825 0
M  V30 3689 H 352.394 3.83453 3.57861 0
M  V30 3690 H 353.868 2.67017 4.83121 0
M  V30 3691 H 354.345 1.07343 4.2588 0
M  V30 3692 H 354.951 2.52246 3.42421 0
M  V30 3693 N 353.266 -1.05314 1.17247 0
M  V30 3694 C 354.213 -2.13031 0.888058 0
M  V30 3695 C 355.183 -1.65253 -0.167537 0
M  V30 3696 O 356.368 -1.90775 -0.0305974 0
M  V30 3697 C 353.508 -3.42702 0.406147 0
M  V30 3698 C 352.621 -4.04161 1.52572 0
M  V30 3699 C 351.756 -5.21744 0.997808 0
M  V30 3700 C 350.795 -5.75207 2.09291 0
M  V30 3701 N 349.932 -6.84094 1.57986 0
M  V30 3702 H 354.772 -2.36698 1.81048 0
M  V30 3703 H 352.309 -1.16121 0.903013 0
M  V30 3704 H 354.267 -4.17059 0.108305 0
M  V30 3705 H 352.897 -3.19222 -0.479313 0
M  V30 3706 H 351.949 -3.27253 1.93931 0
M  V30 3707 H 353.261 -4.39881 2.35172 0
M  V30 3708 H 352.415 -6.03168 0.653739 0
M  V30 3709 H 351.154 -4.87495 0.141232 0
M  V30 3710 H 350.159 -4.92414 2.44557 0
M  V30 3711 H 351.384 -6.11505 2.95362 0
M  V30 3712 H 349.33 -6.51745 0.74598 0
M  V30 3713 H 349.247 -7.18811 2.34195 0
M  V30 3714 H 350.515 -7.69172 1.26468 0
M  V30 3715 N 354.744 -0.972509 -1.24016 0
M  V30 3716 C 356.021 -0.553733 -1.87598 0
M  V30 3717 C 356.401 0.969158 -1.87538 0
M  V30 3718 O 355.749 1.84255 -1.35139 0
M  V30 3719 C 355.959 -1.15076 -3.29482 0
M  V30 3720 C 357.307 -1.23862 -4.06132 0
M  V30 3721 O 358.331 -1.10363 -3.38672 0
M  V30 3722 O 357.19 -1.45252 -5.26844 0
M  V30 3723 H 354.284 -0.185331 -0.805966 0
M  V30 3724 H 356.83 -1.06709 -1.31952 0
M  V30 3725 H 355.602 -2.19333 -3.2405 0
M  V30 3726 H 355.225 -0.621746 -3.92709 0
M  V30 3727 N 356.222 1.38976 -0.743202 0
M  V30 3728 C 357.638 1.53984 -0.419664 0
M  V30 3729 C 357.838 1.70837 1.0685 0
M  V30 3730 O 356.894 1.7135 1.8546 0
M  V30 3731 C 358.207 2.75287 -1.20985 0
M  V30 3732 C 359.755 2.89129 -1.19889 0
M  V30 3733 C 360.23 4.13381 -1.97181 0
M  V30 3734 N 361.721 4.20437 -1.94389 0
M  V30 3735 C 362.456 5.15547 -2.50996 0
M  V30 3736 N 361.952 6.16395 -3.16274 0
M  V30 3737 N 363.745 5.07822 -2.40984 0
M  V30 3738 H 355.896 1.26285 -1.7078 0
M  V30 3739 H 358.159 0.612689 -0.723406 0
M  V30 3740 H 357.865 2.69204 -2.26323 0
M  V30 3741 H 357.739 3.68184 -0.819759 0
M  V30 3742 H 360.126 2.947 -0.153606 0
M  V30 3743 H 360.207 1.97272 -1.62841 0
M  V30 3744 H 359.851 4.08572 -3.01714 0
M  V30 3745 H 359.781 5.04298 -1.51629 0
M  V30 3746 H 362.272 3.48205 -1.46839 0
M  V30 3747 H 362.585 6.85443 -3.56915 0
M  V30 3748 H 360.93 6.16758 -3.20367 0
M  V30 3749 H 364.121 4.27973 -1.89622 0
M  V30 3750 H 364.294 5.81767 -2.85397 0
M  V30 3751 N 357.7 0.491464 1.49741 0
M  V30 3752 C 358.925 -0.0557177 2.07325 0
M  V30 3753 C 359.35 -1.30925 1.35056 0
M  V30 3754 O 358.708 -1.76733 0.404365 0
M  V30 3755 C 358.756 -0.302074 3.59333 0
M  V30 3756 O 357.86 -1.37868 3.88672 0
M  V30 3757 H 357.201 0.0219956 0.663636 0
M  V30 3758 H 359.731 0.688352 1.92673 0
M  V30 3759 H 359.741 -0.536464 4.04458 0
M  V30 3760 H 358.416 0.61383 4.11345 0
M  V30 3761 H 356.993 -1.12999 3.55367 0
M  V30 3762 N 359.178 -1.55987 0.224894 0
M  V30 3763 C 360.408 -2.02489 -0.41007 0
M  V30 3764 C 360.816 -1.10391 -1.53657 0
M  V30 3765 O 360.159 -0.106458 -1.83391 0
M  V30 3766 C 360.221 -3.45319 -0.999757 0
M  V30 3767 C 359.885 -4.56999 -0.00827976 0
M  V30 3768 C 360.882 -5.13812 0.793314 0
M  V30 3769 C 358.567 -5.02176 0.111442 0
M  V30 3770 C 360.561 -6.14276 1.7013 0
M  V30 3771 C 358.248 -6.02477 1.02296 0
M  V30 3772 C 359.246 -6.58403 1.81643 0
M  V30 3773 O 358.934 -7.56751 2.71262 0
M  V30 3774 H 358.666 -0.667915 -0.104235 0
M  V30 3775 H 361.22 -2.0257 0.339782 0
M  V30 3776 H 359.45 -3.42318 -1.79876 0
M  V30 3777 H 361.139 -3.7545 -1.54248 0
M  V30 3778 H 361.905 -4.79756 0.711288 0
M  V30 3779 H 357.784 -4.58323 -0.49605 0
M  V30 3780 H 361.328 -6.57854 2.32107 0
M  V30 3781 H 357.225 -6.35954 1.10599 0
M  V30 3782 H 357.993 -7.74286 2.65375 0
M  V30 3783 N 360.656 0.0484629 -1.57525 0
M  V30 3784 C 361.619 1.03956 -2.04269 0
M  V30 3785 C 362.619 1.30211 -0.943496 0
M  V30 3786 O 363.809 1.25539 -1.20771 0
M  V30 3787 C 360.941 2.37742 -2.44319 0
M  V30 3788 H 362.134 0.636182 -2.93075 0
M  V30 3789 H 359.687 0.294811 -1.53494 0
M  V30 3790 H 360.422 2.82866 -1.5861 0
M  V30 3791 H 360.207 2.20021 -3.24551 0
M  V30 3792 H 361.697 3.08936 -2.80978 0
M  V30 3793 N 362.134 1.5431 0.320358 0
M  V30 3794 C 363.081 1.83918 1.39438 0
M  V30 3795 C 364.051 0.686525 1.51248 0
M  V30 3796 O 365.236 0.933269 1.66417 0
M  V30 3797 C 362.376 2.075 2.75749 0
M  V30 3798 C 361.489 3.35177 2.72544 0
M  V30 3799 C 360.624 3.48704 4.00723 0
M  V30 3800 C 359.663 4.70244 3.91838 0
M  V30 3801 N 358.8 4.80679 5.11754 0
M  V30 3802 H 363.64 2.75544 1.13489 0
M  V30 3803 H 361.177 1.36459 0.549309 0
M  V30 3804 H 363.135 2.19166 3.54996 0
M  V30 3805 H 361.765 1.19163 3 0
M  V30 3806 H 360.817 3.32233 1.85271 0
M  V30 3807 H 362.129 4.24534 2.61863 0
M  V30 3808 H 361.283 3.59928 4.88402 0
M  V30 3809 H 360.022 2.57445 4.14214 0
M  V30 3810 H 359.027 4.59072 3.02544 0
M  V30 3811 H 360.252 5.6289 3.7991 0
M  V30 3812 H 358.198 3.92337 5.25745 0
M  V30 3813 H 358.115 5.64007 5.0342 0
M  V30 3814 H 359.383 4.96239 6.01138 0
M  V30 3815 N 363.613 -0.582584 1.46437 0
M  V30 3816 C 364.545 -1.70618 1.53043 0
M  V30 3817 C 365.558 -1.57322 0.418769 0
M  V30 3818 O 366.747 -1.64744 0.687136 0
M  V30 3819 C 363.847 -3.08869 1.39474 0
M  V30 3820 C 363.02 -3.48166 2.64762 0
M  V30 3821 C 362.079 -4.65478 2.4539 0
M  V30 3822 O 361.105 -4.71333 3.19114 0
M  V30 3823 N 362.307 -5.60365 1.51564 0
M  V30 3824 H 365.072 -1.65405 2.49923 0
M  V30 3825 H 362.633 -0.768567 1.42494 0
M  V30 3826 H 364.625 -3.85143 1.24287 0
M  V30 3827 H 363.195 -3.08449 0.507758 0
M  V30 3828 H 362.415 -2.61598 2.9489 0
M  V30 3829 H 363.703 -3.71188 3.4799 0
M  V30 3830 H 363.101 -5.5837 0.907705 0
M  V30 3831 H 361.658 -6.36068 1.4234 0
M  V30 3832 N 365.091 -1.34144 -0.827227 0
M  V30 3833 C 366.337 -1.27455 -1.58515 0
M  V30 3834 C 366.692 0.155271 -1.91772 0
M  V30 3835 O 365.985 1.10042 -1.56848 0
M  V30 3836 C 366.179 -2.09464 -2.89585 0
M  V30 3837 C 366.008 -3.60276 -2.69131 0
M  V30 3838 C 364.778 -4.29565 -2.66087 0
M  V30 3839 C 366.976 -4.54367 -2.40947 0
M  V30 3840 N 364.958 -5.66252 -2.37132 0
M  V30 3841 C 366.329 -5.79027 -2.21648 0
M  V30 3842 C 368.384 -4.43327 -2.26639 0
M  V30 3843 C 367.087 -6.93891 -1.89492 0
M  V30 3844 C 369.113 -5.58019 -1.95878 0
M  V30 3845 C 368.475 -6.81695 -1.774 0
M  V30 3846 H 364.574 -0.521614 -0.582617 0
M  V30 3847 H 367.158 -1.68811 -0.970105 0
M  V30 3848 H 365.329 -1.70411 -3.49019 0
M  V30 3849 H 367.061 -1.94453 -3.54923 0
M  V30 3850 H 363.816 -3.81959 -2.80008 0
M  V30 3851 H 364.24 -6.38338 -2.25507 0
M  V30 3852 H 368.882 -3.48333 -2.39633 0
M  V30 3853 H 366.6 -7.88871 -1.75236 0
M  V30 3854 H 370.186 -5.5142 -1.85546 0
M  V30 3855 H 369.066 -7.68942 -1.53941 0
M  V30 3856 N 366.569 1.04691 -1.17803 0
M  V30 3857 C 367.985 1.29963 -0.926379 0
M  V30 3858 C 368.185 1.97251 0.411635 0
M  V30 3859 O 367.241 2.24922 1.14744 0
M  V30 3860 C 368.554 2.16447 -2.08737 0
M  V30 3861 C 370.102 2.29814 -2.12496 0
M  V30 3862 C 370.577 3.19661 -3.27995 0
M  V30 3863 N 372.068 3.27247 -3.27816 0
M  V30 3864 C 372.803 3.96906 -4.13827 0
M  V30 3865 N 372.299 4.6895 -5.09959 0
M  V30 3866 N 374.092 3.93122 -4.01761 0
M  V30 3867 H 366.243 0.594182 -2.0392 0
M  V30 3868 H 368.506 0.324649 -0.890678 0
M  V30 3869 H 368.212 1.74304 -3.05469 0
M  V30 3870 H 368.086 3.17103 -2.04268 0
M  V30 3871 H 370.473 2.71196 -1.16347 0
M  V30 3872 H 370.554 1.2877 -2.21025 0
M  V30 3873 H 370.198 2.78991 -4.24413 0
M  V30 3874 H 370.128 4.20722 -3.16703 0
M  V30 3875 H 372.619 2.75921 -2.58217 0
M  V30 3876 H 372.932 5.19679 -5.71974 0
M  V30 3877 H 371.277 4.67875 -5.13924 0
M  V30 3878 H 374.468 3.35967 -3.2595 0
M  V30 3879 H 374.641 4.47139 -4.6901 0
M  V30 3880 N 368.047 0.979072 1.23499 0
M  V30 3881 C 369.277 0.664237 1.95631 0
M  V30 3882 C 369.685 -0.772653 1.72704 0
M  V30 3883 O 369.028 -1.53141 1.01457 0
M  V30 3884 C 369.09 0.873115 3.48736 0
M  V30 3885 C 368.754 2.29182 3.95379 0
M  V30 3886 C 369.751 3.2704 4.04155 0
M  V30 3887 C 367.436 2.62256 4.28401 0
M  V30 3888 C 369.43 4.56052 4.45304 0
M  V30 3889 C 367.117 3.91491 4.69231 0
M  V30 3890 C 368.115 4.88201 4.77649 0
M  V30 3891 O 367.803 6.15129 5.17563 0
M  V30 3892 H 367.535 0.245915 0.629684 0
M  V30 3893 H 370.089 1.3127 1.57979 0
M  V30 3894 H 368.319 0.167476 3.86337 0
M  V30 3895 H 370.008 0.555642 4.02079 0
M  V30 3896 H 370.774 3.02819 3.78848 0
M  V30 3897 H 366.653 1.87692 4.21061 0
M  V30 3898 H 370.197 5.31538 4.51789 0
M  V30 3899 H 366.094 4.15508 4.93987 0
M  V30 3900 H 366.862 6.18862 5.35679 0
M  V30 3901 N 369.525 -1.3858 0.750561 0
M  V30 3902 C 370.753 -2.04471 0.316098 0
M  V30 3903 C 371.168 -1.56606 -1.05452 0
M  V30 3904 O 370.525 -0.737784 -1.66922 0
M  V30 3905 C 370.576 -3.60025 0.326275 0
M  V30 3906 O 370.297 -4.06133 1.6428 0
M  V30 3907 C 371.798 -4.43131 -0.122429 0
M  V30 3908 H 369.018 -0.65717 0.135528 0
M  V30 3909 H 371.562 -1.77329 1.01857 0
M  V30 3910 H 369.717 -3.86014 -0.327431 0
M  V30 3911 H 370.131 -5.00547 1.56693 0
M  V30 3912 H 371.605 -5.51963 -0.0641473 0
M  V30 3913 H 372.082 -4.23333 -1.16988 0
M  V30 3914 H 372.688 -4.22323 0.50229 0
M  V30 3915 N 371.003 -0.499398 -1.49478 0
M  V30 3916 C 371.951 0.293604 -2.3074 0
M  V30 3917 C 372.945 0.96427 -1.39277 0
M  V30 3918 O 374.151 0.892141 -1.56336 0
M  V30 3919 H 370.526 0.113541 -0.743379 0
M  V30 3920 H 372.497 -0.411772 -2.95545 0
M  V30 3921 C 371.246 1.3462 -3.20582 0
M  V30 3922 H 370.569 0.83954 -3.90886 0
M  V30 3923 H 372.009 1.87308 -3.80384 0
M  V30 3924 C 370.468 2.36351 -2.40083 0
M  V30 3925 O 370.998 3.422 -2.10385 0
M  V30 3926 N 369.204 2.0878 -2.02137 0
M  V30 3927 H 368.751 1.22723 -2.26488 0
M  V30 3928 H 368.709 2.77075 -1.48583 0
M  V30 3929 N 372.481 1.55866 -0.233164 0
M  V30 3930 C 373.444 2.1953 0.658715 0
M  V30 3931 C 374.444 1.16053 1.11303 0
M  V30 3932 O 375.634 1.41218 1.01996 0
M  V30 3933 C 372.766 2.82791 1.90373 0
M  V30 3934 H 373.959 2.99721 0.10347 0
M  V30 3935 H 371.512 1.56291 0.0164245 0
M  V30 3936 H 372.247 2.06501 2.50056 0
M  V30 3937 H 372.032 3.58578 1.58632 0
M  V30 3938 H 373.522 3.31556 2.53891 0
M  V30 3939 N 373.959 -0.0401083 1.57549 0
M  V30 3940 C 375.37 -0.588097 1.77196 0
M  V30 3941 C 375.721 -1.76209 0.862832 0
M  V30 3942 O 374.846 -2.16331 0.0548389 0
M  V30 3943 C 375.441 -1.07363 3.21339 0
M  V30 3944 C 374 -1.56723 3.42221 0
M  V30 3945 C 373.147 -0.50041 2.72747 0
M  V30 3946 H 376.098 0.186119 1.57605 0
M  V30 3947 H 376.119 -1.94143 3.27244 0
M  V30 3948 H 375.631 -0.218975 3.87482 0
M  V30 3949 H 373.732 -2.4441 2.81237 0
M  V30 3950 H 373.845 -1.62234 4.50796 0
M  V30 3951 H 372.209 -0.952894 2.36203 0
M  V30 3952 H 372.992 0.344599 3.41566 0
M  V30 3953 N 375.437 -1.54477 -0.31217 0
M  V30 3954 C 376.714 -1.63891 -1.06767 0
M  V30 3955 C 377.094 -0.480028 -2.0557 0
M  V30 3956 O 376.442 0.524487 -2.22399 0
M  V30 3957 C 376.652 -3.01402 -1.75948 0
M  V30 3958 C 378 -3.57838 -2.28554 0
M  V30 3959 O 379.024 -3.03782 -1.85998 0
M  V30 3960 O 377.883 -4.52462 -3.06497 0
M  V30 3961 H 374.977 -0.664125 -0.492816 0
M  V30 3962 H 377.523 -1.66823 -0.311149 0
M  V30 3963 H 376.295 -3.77187 -1.04144 0
M  V30 3964 H 375.918 -3.02199 -2.58383 0
M  V30 3965 N 376.915 0.57481 -1.46744 0
M  V30 3966 C 377.878 1.66533 -1.57478 0
M  V30 3967 C 378.878 1.54338 -0.451263 0
M  V30 3968 O 380.068 1.58814 -0.715813 0
M  V30 3969 C 377.2 3.05999 -1.50259 0
M  V30 3970 H 378.393 1.58372 -2.54673 0
M  V30 3971 H 375.946 0.793301 -1.34672 0
M  V30 3972 H 376.681 3.19709 -0.543725 0
M  V30 3973 H 376.466 3.16259 -2.31781 0
M  V30 3974 H 377.956 3.8537 -1.60872 0
M  V30 3975 N 378.394 1.34581 0.820102 0
M  V30 3976 C 379.304 1.28471 1.96297 0
M  V30 3977 C 380.32 0.191902 1.72939 0
M  V30 3978 O 381.496 0.418879 1.96996 0
M  V30 3979 C 378.561 1.04281 3.30645 0
M  V30 3980 C 377.622 2.22745 3.66992 0
M  V30 3981 C 376.855 1.997 4.9493 0
M  V30 3982 O 377.078 0.956656 5.6232 0
M  V30 3983 O 376.012 2.86723 5.2922 0
M  V30 3984 H 379.838 2.24624 2.04396 0
M  V30 3985 H 377.423 1.14816 0.955913 0
M  V30 3986 H 379.305 0.925841 4.11104 0
M  V30 3987 H 377.98 0.111697 3.23507 0
M  V30 3988 H 376.887 2.40003 2.86966 0
M  V30 3989 H 378.22 3.14257 3.78819 0
M  V30 3990 N 379.872 -1.04064 1.18357 0
M  V30 3991 C 381.12 -1.76915 0.977013 0
M  V30 3992 C 381.441 -1.88624 -0.494577 0
M  V30 3993 O 380.711 -1.41125 -1.3587 0
M  V30 3994 H 379.291 -0.65535 0.358504 0
M  V30 3995 H 381.953 -1.25592 1.49039 0
M  V30 3996 H 381.049 -2.78178 1.41504 0
M  V30 3997 N 381.35 -0.985608 -1.22978 0
M  V30 3998 C 382.766 -0.695104 -1.43668 0
M  V30 3999 C 382.966 0.736866 -1.87543 0
M  V30 4000 O 382.022 1.50868 -2.02473 0
M  V30 4001 C 383.335 -1.69447 -2.48412 0
M  V30 4002 C 384.883 -1.70909 -2.62219 0
M  V30 4003 C 385.358 -2.6969 -3.70178 0
M  V30 4004 N 386.849 -2.6824 -3.77626 0
M  V30 4005 C 387.584 -3.41339 -4.60733 0
M  V30 4006 N 387.08 -4.24015 -5.4789 0
M  V30 4007 N 388.873 -3.30079 -4.54977 0
M  V30 4008 H 381.024 -1.91054 -0.928016 0
M  V30 4009 H 383.287 -0.823553 -0.469536 0
M  V30 4010 H 382.993 -2.7188 -2.23102 0
M  V30 4011 H 382.867 -1.48147 -3.46889 0
M  V30 4012 H 385.254 -0.691785 -2.86877 0
M  V30 4013 H 385.335 -1.96276 -1.6404 0
M  V30 4014 H 384.979 -3.71566 -3.46268 0
M  V30 4015 H 384.909 -2.41595 -4.67909 0
M  V30 4016 H 387.4 -2.08243 -3.15346 0
M  V30 4017 H 387.713 -4.76636 -6.08308 0
M  V30 4018 H 386.058 -4.28104 -5.47496 0
M  V30 4019 H 389.249 -2.64937 -3.85909 0
M  V30 4020 H 389.422 -3.87308 -5.19516 0
M  V30 4021 N 382.828 1.3818 -0.7579 0
M  V30 4022 C 383.791 2.28764 -0.141286 0
M  V30 4023 C 384.791 1.47388 0.642907 0
M  V30 4024 O 385.981 1.67781 0.468536 0
M  V30 4025 C 383.113 3.31184 0.808069 0
M  V30 4026 H 384.306 2.848 -0.939633 0
M  V30 4027 H 381.859 1.47212 -0.525191 0
M  V30 4028 H 382.594 2.80247 1.63193 0
M  V30 4029 H 382.379 3.91314 0.248104 0
M  V30 4030 H 383.869 3.98909 1.23536 0
M  V30 4031 N 384.306 0.507319 1.49211 0
M  V30 4032 C 385.555 -0.0368315 2.01666 0
M  V30 4033 C 385.868 -1.37459 1.39156 0
M  V30 4034 O 387.074 -2.00579 1.82976 0
M  V30 4035 C 385.53 -0.116089 3.59713 0
M  V30 4036 C 385.138 1.2154 4.31198 0
M  V30 4037 C 386.882 -0.610268 4.2009 0
M  V30 4038 C 384.789 1.09796 5.81119 0
M  V30 4039 H 383.719 -0.0175376 0.753796 0
M  V30 4040 H 386.37 0.647691 1.71689 0
M  V30 4041 H 384.752 -0.8652 3.86433 0
M  V30 4042 H 385.926 1.9783 4.16173 0
M  V30 4043 H 384.241 1.64352 3.82593 0
M  V30 4044 H 386.838 -0.715742 5.29888 0
M  V30 4045 H 387.181 -1.61064 3.8388 0
M  V30 4046 H 387.714 0.0824916 3.97714 0
M  V30 4047 H 384.453 2.0728 6.21864 0
M  V30 4048 H 383.973 0.376058 5.9862 0
M  V30 4049 H 385.652 0.779281 6.4229 0
M  V30 4050 N 385.784 -1.5574 0.241426 0
M  V30 4051 C 386.716 -2.18469 -0.693091 0
M  V30 4052 C 387.729 -1.15942 -1.14286 0
M  V30 4053 O 388.918 -1.42832 -1.07058 0
M  V30 4054 C 386.018 -2.7696 -1.95311 0
M  V30 4055 C 385.191 -4.04853 -1.65568 0
M  V30 4056 C 384.25 -4.47715 -2.76474 0
M  V30 4057 O 383.276 -5.14205 -2.44094 0
M  V30 4058 N 384.478 -4.15044 -4.05855 0
M  V30 4059 H 387.243 -2.99292 -0.156388 0
M  V30 4060 H 384.804 -1.61784 0.0611752 0
M  V30 4061 H 386.796 -3.02594 -2.68736 0
M  V30 4062 H 385.366 -2.00326 -2.39975 0
M  V30 4063 H 384.586 -3.86865 -0.756886 0
M  V30 4064 H 385.874 -4.88246 -1.43153 0
M  V30 4065 H 385.272 -3.61654 -4.34998 0
M  V30 4066 H 383.829 -4.45526 -4.75762 0
M  V30 4067 N 387.262 0.0317525 -1.57568 0
M  V30 4068 C 388.225 1.01783 -2.0536 0
M  V30 4069 C 389.225 1.29203 -0.957253 0
M  V30 4070 O 390.415 1.24251 -1.22095 0
M  V30 4071 C 387.547 2.35137 -2.46827 0
M  V30 4072 H 388.74 0.605062 -2.93733 0
M  V30 4073 H 386.293 0.278514 -1.53799 0
M  V30 4074 H 387.028 2.81168 -1.61602 0
M  V30 4075 H 386.813 2.16566 -3.26866 0
M  V30 4076 H 388.303 3.05938 -2.84239 0
M  V30 4077 N 388.74 1.54641 0.303973 0
M  V30 4078 C 389.986 1.74038 1.04109 0
M  V30 4079 C 390.319 0.523051 1.87024 0
M  V30 4080 O 389.594 -0.479874 1.88487 0
M  V30 4081 C 389.877 3.02761 1.94955 0
M  V30 4082 C 389.73 4.34787 1.1524 0
M  V30 4083 C 391.049 3.27336 2.94175 0
M  V30 4084 H 388.168 0.63323 0.377079 0
M  V30 4085 H 390.81 1.87354 0.316001 0
M  V30 4086 H 388.96 2.9154 2.56782 0
M  V30 4087 H 390.632 4.57922 0.557236 0
M  V30 4088 H 388.875 4.31407 0.455053 0
M  V30 4089 H 389.546 5.21116 1.8205 0
M  V30 4090 H 392.022 3.38148 2.42477 0
M  V30 4091 H 390.898 4.18726 3.54908 0
M  V30 4092 H 391.159 2.45491 3.67677 0
M  V30 4093 N 390.218 -0.567019 1.47046 0
M  V30 4094 C 391.448 -1.34831 1.56538 0
M  V30 4095 C 391.856 -1.8802 0.21101 0
M  V30 4096 O 391.199 -1.65152 -0.804387 0
M  V30 4097 C 391.261 -2.56139 2.52256 0
M  V30 4098 C 390.925 -2.24307 3.98165 0
M  V30 4099 C 391.922 -1.82192 4.86931 0
M  V30 4100 C 389.607 -2.35968 4.43423 0
M  V30 4101 C 391.601 -1.52153 6.18973 0
M  V30 4102 C 389.288 -2.05542 5.75496 0
M  V30 4103 C 390.286 -1.63701 6.63092 0
M  V30 4104 O 389.974 -1.33657 7.92711 0
M  V30 4105 H 389.706 -0.417683 0.531523 0
M  V30 4106 H 392.26 -0.694726 1.93294 0
M  V30 4107 H 390.49 -3.24356 2.10548 0
M  V30 4108 H 392.179 -3.18214 2.51982 0
M  V30 4109 H 392.945 -1.72684 4.53217 0
M  V30 4110 H 388.824 -2.67495 3.75456 0
M  V30 4111 H 392.368 -1.19421 6.87302 0
M  V30 4112 H 388.265 -2.14679 6.08755 0
M  V30 4113 H 389.033 -1.4737 8.05124 0
M  V30 4114 N 391.696 -1.35014 -0.812953 0
M  V30 4115 C 392.942 -1.29129 -1.57154 0
M  V30 4116 C 393.297 0.134922 -1.91926 0
M  V30 4117 O 392.59 1.08373 -1.58006 0
M  V30 4118 C 392.784 -2.12524 -2.87347 0
M  V30 4119 C 392.613 -3.6311 -2.65294 0
M  V30 4120 C 391.383 -4.32363 -2.61516 0
M  V30 4121 C 393.581 -4.56897 -2.36114 0
M  V30 4122 N 391.563 -5.68735 -2.31113 0
M  V30 4123 C 392.934 -5.81345 -2.15494 0
M  V30 4124 C 394.989 -4.45706 -2.21925 0
M  V30 4125 C 393.692 -6.95862 -1.82122 0
M  V30 4126 C 395.718 -5.60066 -1.89948 0
M  V30 4127 C 395.08 -6.83539 -1.7016 0
M  V30 4128 H 391.179 -0.527764 -0.577052 0
M  V30 4129 H 393.763 -1.6983 -0.952146 0
M  V30 4130 H 391.934 -1.74104 -3.47192 0
M  V30 4131 H 393.666 -1.98207 -3.5284 0
M  V30 4132 H 390.421 -3.84907 -2.75941 0
M  V30 4133 H 390.845 -6.40694 -2.18724 0
M  V30 4134 H 395.487 -3.50855 -2.35925 0
M  V30 4135 H 393.205 -7.90685 -1.6686 0
M  V30 4136 H 396.791 -5.53357 -1.79687 0
M  V30 4137 H 395.671 -7.70531 -1.45777 0
M  V30 4138 N 393.175 1.03435 -1.18907 0
M  V30 4139 C 394.138 2.09756 -0.923844 0
M  V30 4140 C 395.138 1.60528 0.093416 0
M  V30 4141 O 396.328 1.73631 -0.140727 0
M  V30 4142 C 393.46 3.38692 -0.387354 0
M  V30 4143 H 394.653 2.34719 -1.86674 0
M  V30 4144 H 392.206 1.19959 -1.00197 0
M  V30 4145 H 392.941 3.19396 0.561845 0
M  V30 4146 H 392.726 3.75742 -1.12074 0
M  V30 4147 H 394.216 4.17016 -0.220694 0
M  V30 4148 N 394.653 0.992116 1.22453 0
M  V30 4149 C 395.601 0.534644 2.26372 0
M  V30 4150 C 396.595 -0.414293 1.64256 0
M  V30 4151 O 397.801 -0.286899 1.77699 0
M  V30 4152 H 394.176 0.154502 0.735957 0
M  V30 4153 H 396.147 1.42256 2.62309 0
M  V30 4154 C 394.896 -0.135815 3.47435 0
M  V30 4155 H 394.219 0.585311 3.95492 0
M  V30 4156 H 395.659 -0.419374 4.21921 0
M  V30 4157 C 394.118 -1.37089 3.07747 0
M  V30 4158 O 394.648 -2.46629 3.17076 0
M  V30 4159 N 392.854 -1.24585 2.62539 0
M  V30 4160 H 392.401 -0.354542 2.55149 0
M  V30 4161 H 392.359 -2.07327 2.36353 0
M  V30 4162 N 396.131 -1.37776 0.765217 0
M  V30 4163 C 397.078 -2.30342 0.145274 0
M  V30 4164 C 398.048 -1.5077 -0.696971 0
M  V30 4165 O 399.233 -1.79362 -0.650689 0
M  V30 4166 C 396.373 -3.37227 -0.732939 0
M  V30 4167 C 395.486 -4.31819 0.125199 0
M  V30 4168 C 394.621 -5.25777 -0.757107 0
M  V30 4169 C 393.66 -6.12012 0.103963 0
M  V30 4170 N 392.797 -6.98232 -0.735953 0
M  V30 4171 H 397.637 -2.8278 0.940195 0
M  V30 4172 H 395.174 -1.39211 0.475255 0
M  V30 4173 H 397.132 -3.97818 -1.25686 0
M  V30 4174 H 395.762 -2.86171 -1.49353 0
M  V30 4175 H 394.814 -3.7259 0.766865 0
M  V30 4176 H 396.126 -4.92509 0.789683 0
M  V30 4177 H 395.28 -5.91541 -1.34776 0
M  V30 4178 H 394.019 -4.65481 -1.45529 0
M  V30 4179 H 393.024 -5.45233 0.707197 0
M  V30 4180 H 394.249 -6.74379 0.799381 0
M  V30 4181 H 392.195 -6.40472 -1.41887 0
M  V30 4182 H 392.112 -7.55891 -0.128624 0
M  V30 4183 H 393.38 -7.68393 -1.31121 0
M  V30 4184 N 397.609 -0.515225 -1.4894 0
M  V30 4185 C 398.855 0.016187 -2.03394 0
M  V30 4186 C 399.21 1.33377 -1.38666 0
M  V30 4187 O 398.503 1.84461 -0.518141 0
M  V30 4188 C 398.697 0.210595 -3.56779 0
M  V30 4189 C 398.526 -1.08659 -4.36375 0
M  V30 4190 C 397.296 -1.64237 -4.77864 0
M  V30 4191 C 399.494 -1.9935 -4.74093 0
M  V30 4192 N 397.476 -2.88398 -5.41941 0
M  V30 4193 C 398.847 -3.08088 -5.38035 0
M  V30 4194 C 400.902 -1.99856 -4.56029 0
M  V30 4195 C 399.605 -4.17377 -5.85823 0
M  V30 4196 C 401.631 -3.08129 -5.04787 0
M  V30 4197 C 400.993 -4.15586 -5.68742 0
M  V30 4198 H 397.092 -0.0352107 -0.781207 0
M  V30 4199 H 399.676 -0.693237 -1.8194 0
M  V30 4200 H 397.847 0.889088 -3.78087 0
M  V30 4201 H 399.579 0.740287 -3.97872 0
M  V30 4202 H 396.334 -1.18566 -4.58518 0
M  V30 4203 H 396.758 -3.51572 -5.78555 0
M  V30 4204 H 401.4 -1.18079 -4.05977 0
M  V30 4205 H 399.118 -4.99943 -6.34888 0
M  V30 4206 H 402.704 -3.09557 -4.92611 0
M  V30 4207 H 401.584 -4.97987 -6.05787 0
M  V30 4208 N 399.087 1.5561 -0.249682 0
M  V30 4209 C 400.05 2.20217 0.635394 0
M  V30 4210 C 401.05 1.17227 1.10066 0
M  V30 4211 O 402.24 1.42292 1.00492 0
M  V30 4212 C 399.372 2.84794 1.87363 0
M  V30 4213 H 400.565 2.99814 0.0716752 0
M  V30 4214 H 398.118 1.563 -0.000153234 0
M  V30 4215 H 398.853 2.09142 2.47851 0
M  V30 4216 H 398.638 3.60241 1.5482 0
M  V30 4217 H 400.128 3.3423 2.5036 0
M  V30 4218 N 400.565 -0.0233959 1.57583 0
M  V30 4219 C 401.512 -1.02224 2.06927 0
M  V30 4220 C 402.482 -1.35575 0.959617 0
M  V30 4221 O 403.667 -1.45815 1.23055 0
M  V30 4222 C 400.807 -2.31636 2.5581 0
M  V30 4223 C 399.92 -2.04394 3.80588 0
M  V30 4224 C 399.055 -3.27717 4.18061 0
M  V30 4225 C 398.094 -2.96056 5.3574 0
M  V30 4226 N 397.231 -4.11847 5.68618 0
M  V30 4227 H 402.071 -0.594504 2.9201 0
M  V30 4228 H 399.608 -0.281921 1.44373 0
M  V30 4229 H 401.566 -3.07258 2.82221 0
M  V30 4230 H 400.196 -2.72122 1.73636 0
M  V30 4231 H 399.248 -1.19244 3.61227 0
M  V30 4232 H 400.56 -1.77042 4.66323 0
M  V30 4233 H 399.714 -4.11702 4.4563 0
M  V30 4234 H 398.453 -3.58188 3.30988 0
M  V30 4235 H 397.458 -2.10474 5.07918 0
M  V30 4236 H 398.683 -2.66857 6.24471 0
M  V30 4237 H 396.629 -4.42258 4.84504 0
M  V30 4238 H 396.546 -3.87938 6.48876 0
M  V30 4239 H 397.814 -4.96689 6.00766 0
M  V30 4240 N 402.043 -1.548 -0.295768 0
M  V30 4241 C 402.953 -1.89177 -1.38742 0
M  V30 4242 C 403.969 -0.786481 -1.55211 0
M  V30 4243 O 405.145 -1.08344 -1.69775 0
M  V30 4244 C 402.21 -2.13663 -2.73036 0
M  V30 4245 C 401.271 -3.37349 -2.65508 0
M  V30 4246 C 400.504 -3.60658 -3.93398 0
M  V30 4247 O 400.727 -2.86882 -4.93006 0
M  V30 4248 O 399.661 -4.54179 -3.94975 0
M  V30 4249 H 403.487 -2.82059 -1.12589 0
M  V30 4250 H 401.072 -1.41056 -0.492295 0
M  V30 4251 H 402.954 -2.3094 -3.52484 0
M  V30 4252 H 401.629 -1.23967 -2.99022 0
M  V30 4253 H 400.536 -3.25431 -1.84514 0
M  V30 4254 H 401.869 -4.27192 -2.44474 0
M  V30 4255 N 403.521 0.559213 -1.47345 0
M  V30 4256 C 404.453 1.68161 -1.55738 0
M  V30 4257 C 405.466 1.56636 -0.443744 0
M  V30 4258 O 406.655 1.6363 -0.713258 0
M  V30 4259 C 403.755 3.06611 -1.4437 0
M  V30 4260 C 402.928 3.4391 -2.70268 0
M  V30 4261 C 401.987 4.61515 -2.52765 0
M  V30 4262 O 401.013 4.66197 -3.26572 0
M  V30 4263 N 402.215 5.57883 -1.6046 0
M  V30 4264 H 404.98 1.61408 -2.52522 0
M  V30 4265 H 402.541 0.7458 -1.43699 0
M  V30 4266 H 404.533 3.83117 -1.30398 0
M  V30 4267 H 403.103 3.07602 -0.556766 0
M  V30 4268 H 402.323 2.56873 -2.99015 0
M  V30 4269 H 403.611 3.65605 -3.53851 0
M  V30 4270 H 403.009 5.56855 -0.996422 0
M  V30 4271 H 401.566 6.33723 -1.52441 0
M  V30 4272 N 404.999 1.35443 0.805782 0
M  V30 4273 C 406.247 1.28507 1.55982 0
M  V30 4274 C 406.568 -0.140046 1.94496 0
M  V30 4275 O 405.838 -1.07666 1.63661 0
M  V30 4276 H 404.418 0.472676 0.578434 0
M  V30 4277 H 407.08 1.69555 0.961098 0
M  V30 4278 H 406.176 1.90148 2.47488 0
M  V30 4279 N 406.477 -1.02803 1.19454 0
M  V30 4280 C 407.424 -2.11099 0.933046 0
M  V30 4281 C 408.394 -1.65571 -0.132447 0
M  V30 4282 O 409.579 -1.90797 0.00987576 0
M  V30 4283 C 406.719 -3.41763 0.478747 0
M  V30 4284 C 405.832 -4.00833 1.6111 0
M  V30 4285 C 404.967 -5.19511 1.10825 0
M  V30 4286 C 404.006 -5.70639 2.21445 0
M  V30 4287 N 403.143 -6.80589 1.72461 0
M  V30 4288 H 407.983 -2.32804 1.86028 0
M  V30 4289 H 405.52 -1.14179 0.927441 0
M  V30 4290 H 407.478 -4.16736 0.196745 0
M  V30 4291 H 406.108 -3.20166 -0.411493 0
M  V30 4292 H 405.16 -3.23066 2.00829 0
M  V30 4293 H 406.472 -4.34794 2.4445 0
M  V30 4294 H 405.626 -6.01645 0.781533 0
M  V30 4295 H 404.365 -4.87086 0.244606 0
M  V30 4296 H 403.37 -4.87116 2.54947 0
M  V30 4297 H 404.595 -6.05102 3.08267 0
M  V30 4298 H 402.541 -6.50016 0.884056 0
M  V30 4299 H 402.458 -7.13681 2.49389 0
M  V30 4300 H 403.726 -7.66317 1.42755 0
M  V30 4301 N 407.956 -0.998596 -1.21925 0
M  V30 4302 C 409.204 -0.676325 -1.90448 0
M  V30 4303 C 409.525 0.794719 -1.78071 0
M  V30 4304 O 408.795 1.5701 -1.17152 0
M  V30 4305 H 407.375 -0.247165 -0.704925 0
M  V30 4306 H 410.037 -1.26633 -1.48156 0
M  V30 4307 H 409.133 -0.943858 -2.97486 0
M  V30 4308 N 409.434 1.37368 -0.772513 0
M  V30 4309 C 410.659 2.0447 -0.347386 0
M  V30 4310 C 411.084 1.57882 1.0225 0
M  V30 4311 O 410.442 0.73941 1.65537 0
M  V30 4312 C 410.49 3.58369 -0.400479 0
M  V30 4313 O 409.594 4.0803 0.598789 0
M  V30 4314 H 408.935 0.646773 -0.15027 0
M  V30 4315 H 411.465 1.75667 -1.04892 0
M  V30 4316 H 411.475 4.07183 -0.258045 0
M  V30 4317 H 410.15 3.91633 -1.39986 0
M  V30 4318 H 408.727 3.70534 0.419411 0
M  V30 4319 N 410.912 0.523116 1.48665 0
M  V30 4320 C 411.875 -0.232592 2.28017 0
M  V30 4321 C 412.875 -0.874021 1.34972 0
M  V30 4322 O 414.065 -0.735132 1.57929 0
M  V30 4323 C 411.197 -1.33586 3.13636 0
M  V30 4324 H 412.39 0.464008 2.96289 0
M  V30 4325 H 409.943 0.278816 1.53793 0
M  V30 4326 H 410.678 -2.06593 2.4998 0
M  V30 4327 H 410.463 -0.881125 3.82071 0
M  V30 4328 H 411.953 -1.86759 3.73511 0
M  V30 4329 N 412.39 -1.55475 0.257931 0
M  V30 4330 C 413.636 -1.99502 -0.364266 0
M  V30 4331 C 413.969 -1.146 -1.56782 0
M  V30 4332 O 413.244 -0.211968 -1.93342 0
M  V30 4333 C 413.527 -3.51917 -0.763333 0
M  V30 4334 C 413.38 -4.4758 0.446371 0
M  V30 4335 C 414.699 -4.09742 -1.60623 0
M  V30 4336 H 411.818 -0.725277 -0.130929 0
M  V30 4337 H 414.46 -1.8653 0.361446 0
M  V30 4338 H 412.61 -3.63101 -1.38166 0
M  V30 4339 H 414.282 -4.48362 1.08487 0
M  V30 4340 H 412.525 -4.19947 1.08753 0
M  V30 4341 H 413.196 -5.51862 0.123645 0
M  V30 4342 H 415.672 -4.01727 -1.08418 0
M  V30 4343 H 414.548 -5.16631 -1.85429 0
M  V30 4344 H 414.809 -3.58889 -2.58169 0
M  V30 4345 N 413.868 0.0150385 -1.57593 0
M  V30 4346 C 414.831 0.995996 -2.06428 0
M  V30 4347 C 415.831 1.2818 -0.970903 0
M  V30 4348 O 417.021 1.22949 -1.23406 0
M  V30 4349 C 414.153 2.32506 -2.49307 0
M  V30 4350 H 415.346 0.573873 -2.94358 0
M  V30 4351 H 412.899 0.262186 -1.54085 0
M  V30 4352 H 413.634 2.79438 -1.64575 0
M  V30 4353 H 413.419 2.13087 -3.29145 0
M  V30 4354 H 414.909 3.02906 -2.87468 0
M  V30 4355 N 415.346 1.54954 0.287554 0
M  V30 4356 C 416.571 1.79209 1.04397 0
M  V30 4357 C 416.996 0.556431 1.79682 0
M  V30 4358 O 416.354 -0.493518 1.74454 0
M  V30 4359 C 416.402 3.00739 1.98969 0
M  V30 4360 O 415.506 2.74805 3.075 0
M  V30 4361 H 414.847 0.592755 0.299227 0
M  V30 4362 H 417.377 2.02068 0.320886 0
M  V30 4363 H 417.387 3.29077 2.4119 0
M  V30 4364 H 416.062 3.90329 1.43582 0
M  V30 4365 H 414.639 2.57523 2.69697 0
M  V30 4366 N 416.824 -0.551391 1.4764 0
M  V30 4367 C 418.07 -1.31024 1.54792 0
M  V30 4368 C 418.403 -1.9304 0.211967 0
M  V30 4369 O 417.678 -1.78175 -0.77999 0
M  V30 4370 C 417.961 -2.41593 2.67029 0
M  V30 4371 C 417.814 -1.84408 4.10261 0
M  V30 4372 C 419.133 -3.43488 2.75143 0
M  V30 4373 H 416.252 -0.475031 0.563485 0
M  V30 4374 H 418.894 -0.616454 1.79722 0
M  V30 4375 H 417.044 -3.00772 2.45904 0
M  V30 4376 H 418.716 -1.29445 4.42766 0
M  V30 4377 H 416.959 -1.15051 4.18265 0
M  V30 4378 H 417.63 -2.64367 4.84576 0
M  V30 4379 H 420.106 -2.94236 2.94218 0
M  V30 4380 H 418.982 -4.18274 3.55441 0
M  V30 4381 H 419.243 -4.02703 1.82435 0
M  V30 4382 N 418.302 -1.35869 -0.798587 0
M  V30 4383 C 419.548 -1.2978 -1.55836 0
M  V30 4384 C 419.881 0.125322 -1.93795 0
M  V30 4385 O 419.156 1.07658 -1.61987 0
M  V30 4386 C 419.439 -2.21188 -2.84162 0
M  V30 4387 C 419.292 -3.72155 -2.52628 0
M  V30 4388 C 420.611 -2.11545 -3.85923 0
M  V30 4389 H 417.73 -0.472769 -0.565383 0
M  V30 4390 H 420.372 -1.66341 -0.918192 0
M  V30 4391 H 418.522 -1.90139 -3.38791 0
M  V30 4392 H 420.194 -4.13682 -2.04121 0
M  V30 4393 H 418.437 -3.92042 -1.85704 0
M  V30 4394 H 419.108 -4.31511 -3.44242 0
M  V30 4395 H 421.584 -2.38855 -3.40716 0
M  V30 4396 H 420.46 -2.77688 -4.73477 0
M  V30 4397 H 420.721 -1.09987 -4.282 0
M  V30 4398 N 419.78 1.02168 -1.19998 0
M  V30 4399 C 421.005 1.79833 -1.03319 0
M  V30 4400 C 421.43 1.83504 0.413281 0
M  V30 4401 O 420.788 1.26635 1.29743 0
M  V30 4402 C 420.836 3.22396 -1.61533 0
M  V30 4403 O 419.94 4.03555 -0.849519 0
M  V30 4404 H 419.281 0.554872 -0.364709 0
M  V30 4405 H 421.811 1.28542 -1.59179 0
M  V30 4406 H 421.821 3.73124 -1.65054 0
M  V30 4407 H 420.496 3.19039 -2.66809 0
M  V30 4408 H 419.073 3.62169 -0.888129 0
M  V30 4409 N 421.258 1.00505 1.21394 0
M  V30 4410 C 422.205 0.565496 2.23765 0
M  V30 4411 C 423.175 -0.408466 1.60999 0
M  V30 4412 O 424.36 -0.310503 1.88257 0
M  V30 4413 C 421.5 -0.101667 3.4495 0
M  V30 4414 C 420.613 0.915479 4.22188 0
M  V30 4415 C 419.748 0.220574 5.30742 0
M  V30 4416 C 418.787 1.22527 5.99711 0
M  V30 4417 N 417.924 0.557831 6.9988 0
M  V30 4418 H 422.764 1.44314 2.60725 0
M  V30 4419 H 420.301 0.722643 1.28126 0
M  V30 4420 H 422.259 -0.505504 4.14126 0
M  V30 4421 H 420.889 -0.94303 3.08718 0
M  V30 4422 H 419.941 1.43756 3.52191 0
M  V30 4423 H 421.253 1.68005 4.69655 0
M  V30 4424 H 420.407 -0.239368 6.06228 0
M  V30 4425 H 419.146 -0.576401 4.84282 0
M  V30 4426 H 418.151 1.69571 5.22997 0
M  V30 4427 H 419.376 2.02332 6.48258 0
M  V30 4428 H 417.322 -0.219486 6.55633 0
M  V30 4429 H 417.239 1.26065 7.45415 0
M  V30 4430 H 418.507 0.121095 7.79406 0
M  V30 4431 N 422.737 -1.36956 0.779787 0
M  V30 4432 C 423.7 -2.2851 0.177662 0
M  V30 4433 C 424.7 -1.48393 -0.619377 0
M  V30 4434 O 425.89 -1.68505 -0.441785 0
M  V30 4435 C 423.022 -3.32428 -0.755279 0
M  V30 4436 H 424.215 -2.83269 0.984823 0
M  V30 4437 H 421.768 -1.46358 0.548544 0
M  V30 4438 H 422.503 -2.82808 -1.58714 0
M  V30 4439 H 422.288 -3.91659 -0.185817 0
M  V30 4440 H 423.778 -4.00824 -1.17174 0
M  V30 4441 N 424.215 -0.530993 -1.48385 0
M  V30 4442 C 425.178 0.220497 -2.28137 0
M  V30 4443 C 426.178 0.866851 -1.35434 0
M  V30 4444 O 427.368 0.726746 -1.58316 0
M  V30 4445 C 424.5 1.31921 -3.1434 0
M  V30 4446 H 425.693 -0.479714 -2.96038 0
M  V30 4447 H 423.246 -0.286968 -1.53643 0
M  V30 4448 H 423.981 2.05264 -2.51072 0
M  V30 4449 H 423.766 0.86085 -3.82533 0
M  V30 4450 H 425.256 1.84776 -3.74497 0
M  V30 4451 N 425.693 1.55336 -0.266172 0
M  V30 4452 C 426.64 2.22172 0.625165 0
M  V30 4453 C 427.61 1.19211 1.15663 0
M  V30 4454 O 428.795 1.47723 1.20758 0
M  V30 4455 C 425.935 2.93972 1.8076 0
M  V30 4456 C 425.048 4.11632 1.31084 0
M  V30 4457 C 424.183 4.71099 2.45436 0
M  V30 4458 C 423.222 5.8097 1.92718 0
M  V30 4459 N 422.359 6.34538 3.00509 0
M  V30 4460 H 427.199 2.9796 0.0485582 0
M  V30 4461 H 424.736 1.47095 0.0122024 0
M  V30 4462 H 426.694 3.33811 2.50251 0
M  V30 4463 H 425.324 2.20623 2.35638 0
M  V30 4464 H 424.376 3.76975 0.509326 0
M  V30 4465 H 425.688 4.90893 0.884633 0
M  V30 4466 H 424.842 5.13612 3.22936 0
M  V30 4467 H 423.581 3.91096 2.91368 0
M  V30 4468 H 422.586 5.37916 1.13695 0
M  V30 4469 H 423.811 6.62836 1.47733 0
M  V30 4470 H 421.757 5.57433 3.45839 0
M  V30 4471 H 421.674 7.09046 2.62279 0
M  V30 4472 H 422.942 6.81709 3.78011 0
M  V30 4473 N 427.171 -0.0066808 1.57599 0
M  V30 4474 C 428.104 -1.03397 2.03431 0
M  V30 4475 C 429.082 -1.33872 0.922877 0
M  V30 4476 O 430.266 -1.4615 1.19048 0
M  V30 4477 C 427.393 -2.36325 2.42628 0
M  V30 4478 C 426.439 -2.21557 3.64438 0
M  V30 4479 S 427.272 -1.54789 5.12641 0
M  V30 4480 C 428.428 -2.8916 5.55101 0
M  V30 4481 H 428.661 -0.643687 2.90248 0
M  V30 4482 H 426.194 -0.217349 1.52863 0
M  V30 4483 H 428.152 -3.12759 2.65879 0
M  V30 4484 H 426.813 -2.72495 1.56222 0
M  V30 4485 H 426.006 -3.1974 3.89592 0
M  V30 4486 H 425.608 -1.53267 3.41153 0
M  V30 4487 H 427.9 -3.8547 5.57153 0
M  V30 4488 H 428.843 -2.68713 6.55133 0
M  V30 4489 H 429.251 -2.92762 4.82649 0
M  V30 4490 N 428.649 -1.55105 -0.279332 0
M  V30 4491 C 429.897 -1.75066 -1.00977 0
M  V30 4492 C 430.218 -0.551276 -1.87045 0
M  V30 4493 O 429.488 0.433984 -1.91032 0
M  V30 4494 H 428.068 -0.645578 -0.375816 0
M  V30 4495 H 430.73 -1.92497 -0.305089 0
M  V30 4496 H 429.826 -2.64894 -1.65038 0
M  V30 4497 N 430.127 0.543554 -1.4793 0
M  V30 4498 C 431.404 1.30458 -1.4574 0
M  V30 4499 C 431.784 2.1048 -0.161692 0
M  V30 4500 O 431.132 2.11831 0.856734 0
M  V30 4501 C 431.342 2.19754 -2.71126 0
M  V30 4502 C 432.69 2.80334 -3.18901 0
M  V30 4503 O 433.714 2.30049 -2.71948 0
M  V30 4504 O 432.573 3.71766 -4.00565 0
M  V30 4505 H 429.667 0.588117 -0.581418 0
M  V30 4506 H 432.213 0.561328 -1.60147 0
M  V30 4507 H 430.985 1.60316 -3.56952 0
M  V30 4508 H 430.608 3.01351 -2.59371 0
M  V30 4509 N 431.605 1.3629 0.791371 0
M  V30 4510 C 432.852 1.30412 1.54916 0
M  V30 4511 C 433.18 -0.117162 1.94147 0
M  V30 4512 O 432.435 -1.08599 1.62803 0
M  V30 4513 C 432.734 2.17068 2.8393 0
M  V30 4514 C 432.4 3.65645 2.63846 0
M  V30 4515 C 431.062 4.0614 2.58077 0
M  V30 4516 C 433.414 4.59855 2.45322 0
M  V30 4517 C 430.742 5.3899 2.31748 0
M  V30 4518 C 433.094 5.9292 2.2052 0
M  V30 4519 C 431.758 6.32542 2.13183 0
M  V30 4520 H 431.028 0.47721 0.566879 0
M  V30 4521 H 433.675 1.68325 0.913172 0
M  V30 4522 H 431.98 1.72085 3.51986 0
M  V30 4523 H 433.677 2.09846 3.4171 0
M  V30 4524 H 430.267 3.33518 2.69191 0
M  V30 4525 H 434.451 4.29443 2.48782 0
M  V30 4526 H 429.707 5.68672 2.24548 0
M  V30 4527 H 433.881 6.65487 2.05182 0
M  V30 4528 H 431.508 7.35412 1.92544 0
M  V30 4529 N 433.083 -1.0153 1.20538 0
M  V30 4530 C 434.013 -2.11972 0.979295 0
M  V30 4531 C 434.994 -1.6985 -0.0921787 0
M  V30 4532 O 436.179 -1.94089 0.0655932 0
M  V30 4533 C 433.309 -3.43201 0.531984 0
M  V30 4534 C 432.263 -3.9907 1.54685 0
M  V30 4535 C 431.589 -5.26082 0.956127 0
M  V30 4536 C 432.889 -4.32313 2.93092 0
M  V30 4537 H 434.583 -2.31143 1.90298 0
M  V30 4538 H 432.129 -1.11079 0.916372 0
M  V30 4539 H 434.082 -4.1985 0.361044 0
M  V30 4540 H 432.806 -3.23792 -0.427327 0
M  V30 4541 H 431.465 -3.2453 1.70517 0
M  V30 4542 H 431.113 -5.02999 -0.0111538 0
M  V30 4543 H 430.813 -5.64426 1.63393 0
M  V30 4544 H 432.337 -6.05386 0.796284 0
M  V30 4545 H 433.751 -4.99845 2.80763 0
M  V30 4546 H 432.148 -4.81774 3.57791 0
M  V30 4547 H 433.218 -3.41025 3.44717 0
M  V30 4548 N 434.561 -1.01147 -1.20859 0
M  V30 4549 C 435.977 -0.725422 -1.42161 0
M  V30 4550 C 436.177 0.696919 -1.89064 0
M  V30 4551 O 435.233 1.46539 -2.05627 0
M  V30 4552 C 436.546 -1.74678 -2.44761 0
M  V30 4553 C 438.094 -1.76433 -2.58535 0
M  V30 4554 C 438.569 -2.77481 -3.64374 0
M  V30 4555 N 440.06 -2.76189 -3.71852 0
M  V30 4556 C 440.795 -3.51035 -4.53389 0
M  V30 4557 N 440.291 -4.35541 -5.38773 0
M  V30 4558 N 442.084 -3.39655 -4.47873 0
M  V30 4559 H 434.235 -1.92979 -0.887282 0
M  V30 4560 H 436.498 -0.833327 -0.451962 0
M  V30 4561 H 436.204 -2.76551 -2.17285 0
M  V30 4562 H 436.078 -1.55472 -3.43669 0
M  V30 4563 H 438.465 -0.75248 -2.85345 0
M  V30 4564 H 438.546 -1.99712 -1.5984 0
M  V30 4565 H 438.19 -3.78827 -3.38308 0
M  V30 4566 H 438.12 -2.51466 -4.6268 0
M  V30 4567 H 440.611 -2.14885 -3.10858 0
M  V30 4568 H 440.924 -4.89432 -5.98061 0
M  V30 4569 H 439.269 -4.39621 -5.38292 0
M  V30 4570 H 442.46 -2.73063 -3.80203 0
M  V30 4571 H 442.633 -3.9824 -5.11184 0
M  V30 4572 N 436.039 1.36541 -0.78704 0
M  V30 4573 C 436.987 2.31965 -0.171724 0
M  V30 4574 C 437.981 1.55689 0.667631 0
M  V30 4575 O 439.187 1.70969 0.562981 0
M  V30 4576 H 435.562 0.751101 -0.0367545 0
M  V30 4577 H 437.533 2.81428 -0.992017 0
M  V30 4578 C 436.282 3.40968 0.680904 0
M  V30 4579 H 435.605 3.99775 0.0443961 0
M  V30 4580 H 437.045 4.10063 1.07815 0
M  V30 4581 C 435.504 2.82338 1.83813 0
M  V30 4582 O 436.034 2.74311 2.93456 0
M  V30 4583 N 434.24 2.39661 1.6435 0
M  V30 4584 H 433.787 2.46389 0.751668 0
M  V30 4585 H 433.745 2.00779 2.4194 0
M  V30 4586 N 437.518 0.538854 1.48102 0
M  V30 4587 C 438.795 -0.0568108 1.95517 0
M  V30 4588 C 439.175 -1.50408 1.48124 0
M  V30 4589 O 438.523 -2.17133 0.711727 0
M  V30 4590 C 438.733 0.0696262 3.48931 0
M  V30 4591 C 440.081 -0.0851202 4.24515 0
M  V30 4592 O 441.105 -0.0037347 3.562 0
M  V30 4593 O 439.964 -0.257025 5.45895 0
M  V30 4594 H 437.058 -0.0743695 0.823649 0
M  V30 4595 H 439.604 0.604081 1.58584 0
M  V30 4596 H 438.376 1.07744 3.76174 0
M  V30 4597 H 437.999 -0.629714 3.92582 0
M  V30 4598 N 438.996 -1.55193 0.274407 0
M  V30 4599 C 439.929 -2.18606 -0.654712 0
M  V30 4600 C 440.907 -1.14677 -1.15273 0
M  V30 4601 O 442.091 -1.43198 -1.22583 0
M  V30 4602 C 439.218 -2.80875 -1.89281 0
M  V30 4603 C 438.264 -3.981 -1.53032 0
M  V30 4604 S 439.097 -5.32025 -0.609107 0
M  V30 4605 C 440.253 -5.97761 -1.85559 0
M  V30 4606 H 440.486 -2.97074 -0.115894 0
M  V30 4607 H 438.019 -1.54288 0.05867 0
M  V30 4608 H 439.977 -3.17381 -2.60345 0
M  V30 4609 H 438.638 -2.02302 -2.40277 0
M  V30 4610 H 437.831 -4.40356 -2.45158 0
M  V30 4611 H 437.433 -3.63013 -0.899874 0
M  V30 4612 H 439.725 -6.16951 -2.7996 0
M  V30 4613 H 440.668 -6.92545 -1.47605 0
M  V30 4614 H 441.076 -5.27113 -2.02021 0
M  V30 4615 N 440.474 -0.00167713 -1.576 0
M  V30 4616 C 441.721 0.68282 -1.90641 0
M  V30 4617 C 442.049 1.73686 -0.875415 0
M  V30 4618 O 441.304 1.95334 0.119575 0
M  V30 4619 C 441.603 1.36189 -3.30435 0
M  V30 4620 C 441.269 0.440887 -4.48739 0
M  V30 4621 C 439.931 0.187312 -4.80835 0
M  V30 4622 C 442.283 -0.193134 -5.20842 0
M  V30 4623 C 439.611 -0.70855 -5.82406 0
M  V30 4624 C 441.963 -1.07688 -6.23367 0
M  V30 4625 C 440.627 -1.33962 -6.53919 0
M  V30 4626 H 439.897 0.249862 -0.697603 0
M  V30 4627 H 442.544 -0.0575642 -1.91413 0
M  V30 4628 H 440.849 2.17636 -3.25794 0
M  V30 4629 H 442.546 1.89759 -3.5326 0
M  V30 4630 H 439.136 0.648694 -4.23663 0
M  V30 4631 H 443.32 -0.0102445 -4.96299 0
M  V30 4632 H 438.576 -0.920097 -6.04437 0
M  V30 4633 H 442.75 -1.57451 -6.78367 0
M  V30 4634 H 440.377 -2.03549 -7.32442 0
M  V30 4635 N 441.952 1.55251 0.271103 0
M  V30 4636 C 443.229 1.66664 1.02384 0
M  V30 4637 C 443.609 0.534363 2.04225 0
M  V30 4638 O 442.957 -0.465337 2.23712 0
M  V30 4639 C 443.167 3.05961 1.67895 0
M  V30 4640 C 444.515 3.63772 2.18986 0
M  V30 4641 O 445.539 3.08606 1.77878 0
M  V30 4642 O 444.398 4.60429 2.94393 0
M  V30 4643 H 441.492 0.676957 0.475035 0
M  V30 4644 H 444.038 1.67589 0.26681 0
M  V30 4645 H 442.81 3.79815 0.941071 0
M  V30 4646 H 442.433 3.08943 2.5028 0
M  V30 4647 N 443.43 -0.535701 1.48216 0
M  V30 4648 C 444.377 -1.64083 1.62312 0
M  V30 4649 C 445.347 -1.59448 0.465365 0
M  V30 4650 O 446.532 -1.77959 0.688135 0
M  V30 4651 C 443.672 -3.0236 1.66349 0
M  V30 4652 C 442.785 -3.17273 2.93193 0
M  V30 4653 C 441.92 -4.46075 2.88427 0
M  V30 4654 C 440.959 -4.54496 4.1 0
M  V30 4655 N 440.096 -5.7468 4.03345 0
M  V30 4656 H 444.936 -1.51374 2.5669 0
M  V30 4657 H 442.473 -0.737059 1.27302 0
M  V30 4658 H 444.431 -3.82461 1.66672 0
M  V30 4659 H 443.061 -3.13854 0.754672 0
M  V30 4660 H 442.113 -2.30462 3.02641 0
M  V30 4661 H 443.425 -3.19357 3.83162 0
M  V30 4662 H 442.579 -5.3446 2.87119 0
M  V30 4663 H 441.318 -4.46504 1.96177 0
M  V30 4664 H 440.323 -3.64519 4.11589 0
M  V30 4665 H 441.548 -4.5581 5.03402 0
M  V30 4666 H 439.494 -5.76017 3.13912 0
M  V30 4667 H 439.411 -5.78234 4.87013 0
M  V30 4668 H 440.679 -6.65367 4.06087 0
M  V30 4669 N 444.908 -1.36708 -0.784132 0
M  V30 4670 C 446.138 -1.34203 -1.57077 0
M  V30 4671 C 446.546 0.0774945 -1.89041 0
M  V30 4672 O 445.889 1.04628 -1.50992 0
M  V30 4673 C 445.951 -2.10351 -2.91535 0
M  V30 4674 C 445.615 -3.59405 -2.82272 0
M  V30 4675 C 446.612 -4.53545 -2.54151 0
M  V30 4676 C 444.297 -4.02362 -3.00683 0
M  V30 4677 C 446.291 -5.8862 -2.44551 0
M  V30 4678 C 443.978 -5.37526 -2.90704 0
M  V30 4679 C 444.976 -6.30468 -2.62677 0
M  V30 4680 O 444.664 -7.63149 -2.52702 0
M  V30 4681 H 444.396 -0.461791 -0.493685 0
M  V30 4682 H 446.95 -1.80475 -0.980712 0
M  V30 4683 H 445.18 -1.5875 -3.52612 0
M  V30 4684 H 446.869 -2.00636 -3.52845 0
M  V30 4685 H 447.635 -4.21669 -2.39625 0
M  V30 4686 H 443.514 -3.30389 -3.21503 0
M  V30 4687 H 447.058 -6.61133 -2.22596 0
M  V30 4688 H 442.955 -5.69008 -3.04795 0
M  V30 4689 H 443.723 -7.73331 -2.68144 0
M  V30 4690 N 446.386 1.0089 -1.21074 0
M  V30 4691 C 447.633 1.74607 -1.0256 0
M  V30 4692 C 447.961 1.89426 0.44136 0
M  V30 4693 O 447.216 1.42266 1.34384 0
M  V30 4694 C 447.515 3.16335 -1.66334 0
M  V30 4695 C 447.181 3.21474 -3.16173 0
M  V30 4696 C 445.843 3.22583 -3.57062 0
M  V30 4697 C 448.195 3.19025 -4.12156 0
M  V30 4698 C 445.523 3.18925 -4.92446 0
M  V30 4699 C 447.875 3.16909 -5.47496 0
M  V30 4700 C 446.539 3.16326 -5.87787 0
M  V30 4701 H 445.809 0.638933 -0.375294 0
M  V30 4702 H 448.456 1.18274 -1.50611 0
M  V30 4703 H 446.761 3.75876 -1.10566 0
M  V30 4704 H 448.458 3.72083 -1.49516 0
M  V30 4705 H 445.048 3.2135 -2.83605 0
M  V30 4706 H 449.232 3.17332 -3.81595 0
M  V30 4707 H 444.488 3.16809 -5.22917 0
M  V30 4708 H 448.662 3.13968 -6.21609 0
M  V30 4709 H 446.289 3.13246 -6.92662 0
M  V30 4710 N 447.864 1.01787 1.20321 0
M  V30 4711 C 448.797 0.533882 2.21867 0
M  V30 4712 C 449.775 -0.419361 1.57099 0
M  V30 4713 O 450.959 -0.339062 1.85426 0
M  V30 4714 C 448.086 -0.222899 3.37966 0
M  V30 4715 C 447.132 0.680091 4.21043 0
M  V30 4716 S 447.965 2.14997 4.90445 0
M  V30 4717 C 449.121 1.40339 6.09964 0
M  V30 4718 H 449.354 1.39429 2.62577 0
M  V30 4719 H 446.887 0.826867 1.30393 0
M  V30 4720 H 448.845 -0.653425 4.05266 0
M  V30 4721 H 447.506 -1.0589 2.95713 0
M  V30 4722 H 446.699 0.0964704 5.03908 0
M  V30 4723 H 446.301 1.04845 3.59004 0
M  V30 4724 H 448.593 0.68407 6.74038 0
M  V30 4725 H 449.536 2.20823 6.72787 0
M  V30 4726 H 449.944 0.905716 5.57187 0
M  V30 4727 N 449.342 -1.36122 0.79427 0
M  V30 4728 C 450.289 -2.29982 0.194101 0
M  V30 4729 C 451.259 -1.52214 -0.664833 0
M  V30 4730 O 452.444 -1.80702 -0.612498 0
M  V30 4731 C 449.584 -3.38706 -0.661244 0
M  V30 4732 C 448.697 -4.31456 0.216766 0
M  V30 4733 C 447.832 -5.27265 -0.645411 0
M  V30 4734 C 446.871 -6.11653 0.233756 0
M  V30 4735 N 446.008 -6.99636 -0.587682 0
M  V30 4736 H 450.848 -2.80722 0.999965 0
M  V30 4737 H 448.385 -1.38172 0.504677 0
M  V30 4738 H 450.343 -4.00394 -1.17219 0
M  V30 4739 H 448.973 -2.89274 -1.43249 0
M  V30 4740 H 448.025 -3.7088 0.845724 0
M  V30 4741 H 449.337 -4.90724 0.893973 0
M  V30 4742 H 448.491 -5.94266 -1.22198 0
M  V30 4743 H 447.23 -4.68463 -1.35623 0
M  V30 4744 H 446.235 -5.4361 0.82269 0
M  V30 4745 H 447.46 -6.72531 0.942247 0
M  V30 4746 H 445.406 -6.43337 -1.2827 0
M  V30 4747 H 445.323 -7.55993 0.0317402 0
M  V30 4748 H 446.591 -7.71001 -1.14792 0
M  V30 4749 N 450.82 -0.546701 -1.47814 0
M  V30 4750 C 452.069 -0.0166497 -2.01693 0
M  V30 4751 C 452.382 1.33721 -1.42752 0
M  V30 4752 O 453.588 1.95658 -1.8823 0
M  V30 4753 C 452.044 0.0206769 -3.59894 0
M  V30 4754 C 451.652 -1.3293 -4.27824 0
M  V30 4755 C 453.396 0.498674 -4.21561 0
M  V30 4756 C 451.303 -1.25165 -5.78003 0
M  V30 4757 H 450.233 -0.0024541 -0.753996 0
M  V30 4758 H 452.884 -0.692984 -1.69912 0
M  V30 4759 H 451.266 0.76244 -3.88591 0
M  V30 4760 H 452.44 -2.08795 -4.10781 0
M  V30 4761 H 450.755 -1.74438 -3.78101 0
M  V30 4762 H 453.352 0.575 -5.31599 0
M  V30 4763 H 453.695 1.5083 -3.88016 0
M  V30 4764 H 454.228 -0.18791 -3.97356 0
M  V30 4765 H 450.967 -2.23695 -6.1615 0
M  V30 4766 H 450.487 -0.53464 -5.97412 0
M  V30 4767 H 452.166 -0.949299 -6.39998 0
M  V30 4768 N 452.299 1.55045 -0.282633 0
M  V30 4769 C 453.547 1.99365 0.331334 0
M  V30 4770 C 453.868 1.1725 1.55812 0
M  V30 4771 O 453.138 0.263871 1.94115 0
M  V30 4772 H 451.718 0.736397 0.125414 0
M  V30 4773 H 454.38 1.90964 -0.389711 0
M  V30 4774 H 453.476 3.0596 0.616036 0
M  V30 4775 N 453.777 0.010035 1.57597 0
M  V30 4776 C 454.74 -0.963029 2.07986 0
M  V30 4777 C 455.74 -1.26619 0.991173 0
M  V30 4778 O 456.93 -1.2097 1.25347 0
M  V30 4779 C 454.062 -2.2851 2.52974 0
M  V30 4780 H 455.255 -0.526971 2.95234 0
M  V30 4781 H 452.808 -0.237639 1.54483 0
M  V30 4782 H 453.543 -2.76784 1.69 0
M  V30 4783 H 453.328 -2.07824 3.32493 0
M  V30 4784 H 454.818 -2.98294 2.9225 0
M  V30 4785 N 455.255 -1.55392 -0.262866 0
M  V30 4786 C 456.187 -1.85392 -1.34768 0
M  V30 4787 C 457.2 -0.739069 -1.45057 0
M  V30 4788 O 458.389 -1.01703 -1.46693 0
M  V30 4789 C 455.489 -2.01088 -2.72795 0
M  V30 4790 C 454.662 -3.31828 -2.84972 0
M  V30 4791 C 453.721 -3.37464 -4.03738 0
M  V30 4792 O 452.747 -4.10778 -3.94018 0
M  V30 4793 N 453.949 -2.65599 -5.16176 0
M  V30 4794 H 456.714 -2.79029 -1.09375 0
M  V30 4795 H 454.275 -1.55434 -0.452981 0
M  V30 4796 H 456.267 -2.02217 -3.50557 0
M  V30 4797 H 454.837 -1.1427 -2.90966 0
M  V30 4798 H 454.057 -3.43152 -1.94012 0
M  V30 4799 H 455.345 -4.18032 -2.90045 0
M  V30 4800 H 454.743 -2.05736 -5.26962 0
M  V30 4801 H 453.3 -2.72439 -5.92132 0
M  V30 4802 N 456.733 0.527833 -1.48498 0
M  V30 4803 C 458.01 1.28905 -1.47115 0
M  V30 4804 C 458.39 2.10297 -0.184007 0
M  V30 4805 O 457.738 2.12728 0.834218 0
M  V30 4806 C 457.948 2.16866 -2.73441 0
M  V30 4807 C 459.296 2.76936 -3.21857 0
M  V30 4808 O 460.32 2.27152 -2.74373 0
M  V30 4809 O 459.179 3.67496 -4.04486 0
M  V30 4810 H 456.273 0.581918 -0.587623 0
M  V30 4811 H 458.819 0.544311 -1.60734 0
M  V30 4812 H 457.591 1.56521 -3.58632 0
M  V30 4813 H 457.214 2.98583 -2.62553 0
M  V30 4814 N 458.211 1.37122 0.776871 0
M  V30 4815 C 459.158 1.3247 1.88998 0
M  V30 4816 C 460.128 0.191143 1.64997 0
M  V30 4817 O 461.313 0.379683 1.86984 0
M  V30 4818 C 458.453 1.13241 3.25992 0
M  V30 4819 C 457.566 2.35782 3.61982 0
M  V30 4820 C 456.701 2.09465 4.88158 0
M  V30 4821 C 455.74 3.279 5.16864 0
M  V30 4822 N 454.877 3.01167 6.34226 0
M  V30 4823 H 459.717 2.27642 1.9231 0
M  V30 4824 H 457.254 1.13125 0.94027 0
M  V30 4825 H 459.212 1.00115 4.0501 0
M  V30 4826 H 457.842 0.217186 3.22069 0
M  V30 4827 H 456.894 2.59666 2.77989 0
M  V30 4828 H 458.206 3.24125 3.79137 0
M  V30 4829 H 457.36 1.93341 5.75069 0
M  V30 4830 H 456.099 1.18452 4.73097 0
M  V30 4831 H 455.104 3.44569 4.2843 0
M  V30 4832 H 456.329 4.19757 5.33836 0
M  V30 4833 H 454.275 2.12779 6.20533 0
M  V30 4834 H 454.192 3.83052 6.51772 0
M  V30 4835 H 455.46 2.88649 7.24087 0
M  V30 4836 N 459.689 -1.00246 1.21608 0
M  V30 4837 C 460.917 -1.77631 1.06089 0
M  V30 4838 C 461.332 -1.84746 -0.38916 0
M  V30 4839 O 460.689 -1.31068 -1.26994 0
M  V30 4840 C 460.74 -3.21415 1.65453 0
M  V30 4841 O 460.461 -3.14703 3.04785 0
M  V30 4842 C 461.962 -4.15289 1.55079 0
M  V30 4843 H 459.182 -0.558162 0.37242 0
M  V30 4844 H 461.726 -1.26093 1.60999 0
M  V30 4845 H 459.881 -3.70053 1.14629 0
M  V30 4846 H 460.295 -4.05056 3.33212 0
M  V30 4847 H 461.769 -5.13965 2.01355 0
M  V30 4848 H 462.246 -4.36279 0.505665 0
M  V30 4849 H 462.852 -3.72543 2.05163 0
M  V30 4850 N 461.167 -1.02423 -1.1978 0
M  V30 4851 C 462.578 -0.748389 -1.71044 0
M  V30 4852 C 462.929 0.732398 -1.82017 0
M  V30 4853 O 462.054 1.57116 -1.48807 0
M  V30 4854 C 462.649 -1.35187 -3.1066 0
M  V30 4855 C 461.208 -1.12472 -3.59203 0
M  V30 4856 C 460.355 -1.45283 -2.36195 0
M  V30 4857 H 463.306 -1.19275 -1.04686 0
M  V30 4858 H 463.327 -0.746408 -3.73107 0
M  V30 4859 H 462.839 -2.4296 -3.02642 0
M  V30 4860 H 460.94 -0.0649983 -3.72543 0
M  V30 4861 H 461.053 -1.81016 -4.43588 0
M  V30 4862 H 459.417 -0.872034 -2.39307 0
M  V30 4863 H 460.2 -2.54129 -2.30811 0
M  V30 4864 N 462.645 1.35699 -0.801477 0
M  V30 4865 C 463.608 2.28199 -0.213994 0
M  V30 4866 C 464.608 1.49359 0.595691 0
M  V30 4867 O 465.798 1.69186 0.414921 0
M  V30 4868 C 462.93 3.33587 0.702297 0
M  V30 4869 H 464.123 2.81666 -1.02976 0
M  V30 4870 H 461.676 1.45467 -0.571759 0
M  V30 4871 H 462.411 2.85297 1.54195 0
M  V30 4872 H 462.196 3.91906 0.123484 0
M  V30 4873 H 463.686 4.02638 1.10783 0
M  V30 4874 N 464.123 0.554532 1.47522 0
M  V30 4875 C 465.351 0.034257 2.06872 0
M  V30 4876 C 465.766 -1.25826 1.40759 0
M  V30 4877 O 465.123 -1.75425 0.503217 0
M  V30 4878 C 465.174 -0.167827 3.6111 0
M  V30 4879 O 464.895 1.07351 4.24744 0
M  V30 4880 C 466.396 -0.72569 4.3732 0
M  V30 4881 H 463.616 0.0446275 0.669514 0
M  V30 4882 H 466.16 0.767181 1.89564 0
M  V30 4883 H 464.315 -0.850872 3.7794 0
M  V30 4884 H 464.729 0.869563 5.17242 0
M  V30 4885 H 466.203 -0.816394 5.45929 0
M  V30 4886 H 466.68 -1.73635 4.0342 0
M  V30 4887 H 467.286 -0.0784292 4.25228 0
M  V30 4888 N 465.601 -1.54893 0.290851 0
M  V30 4889 C 466.849 -1.99538 -0.320756 0
M  V30 4890 C 467.17 -1.18075 -1.55188 0
M  V30 4891 O 466.44 -0.274162 -1.93972 0
M  V30 4892 H 465.02 -0.737052 -0.121507 0
M  V30 4893 H 467.682 -1.90755 0.399832 0
M  V30 4894 H 466.778 -3.06282 -0.599802 0
M  V30 4895 N 467.08 -0.0183926 -1.57589 0
M  V30 4896 C 468.31 0.67207 -1.95363 0
M  V30 4897 C 468.718 1.66807 -0.892872 0
M  V30 4898 O 468.061 1.83204 0.134958 0
M  V30 4899 C 468.123 1.44397 -3.29226 0
M  V30 4900 C 467.787 0.607511 -4.52944 0
M  V30 4901 C 468.784 -0.112657 -5.19778 0
M  V30 4902 C 466.469 0.548068 -4.99301 0
M  V30 4903 C 468.463 -0.881057 -6.31281 0
M  V30 4904 C 466.15 -0.224044 -6.10689 0
M  V30 4905 C 467.148 -0.937323 -6.76538 0
M  V30 4906 O 466.836 -1.6968 -7.85789 0
M  V30 4907 H 466.568 0.190925 -0.648478 0
M  V30 4908 H 469.122 -0.0711994 -2.05277 0
M  V30 4909 H 467.352 2.23214 -3.15773 0
M  V30 4910 H 469.041 2.02152 -3.51979 0
M  V30 4911 H 469.807 -0.0759998 -4.8494 0
M  V30 4912 H 465.686 1.09281 -4.4786 0
M  V30 4913 H 469.23 -1.43832 -6.82611 0
M  V30 4914 H 465.127 -0.262457 -6.44966 0
M  V30 4915 H 465.895 -1.61544 -8.024 0
M  V30 4916 N 468.558 1.5553 0.254621 0
M  V30 4917 C 469.835 1.6774 1.00611 0
M  V30 4918 C 470.215 0.555993 2.03647 0
M  V30 4919 O 469.563 -0.441583 2.24193 0
M  V30 4920 C 469.773 3.07725 1.6464 0
M  V30 4921 C 471.121 3.66074 2.15116 0
M  V30 4922 O 472.145 3.10476 1.74595 0
M  V30 4923 O 471.004 4.63526 2.89493 0
M  V30 4924 H 468.098 0.681958 0.467828 0
M  V30 4925 H 470.644 1.67863 0.24902 0
M  V30 4926 H 469.416 3.80792 0.900734 0
M  V30 4927 H 469.039 3.1158 2.46989 0
M  V30 4928 N 470.036 -0.519951 1.48776 0
M  V30 4929 C 471.261 -1.30447 1.6124 0
M  V30 4930 C 471.686 -1.86055 0.276591 0
M  V30 4931 O 471.044 -1.64915 -0.753183 0
M  V30 4932 C 471.092 -2.42406 2.66967 0
M  V30 4933 O 470.196 -3.45728 2.24824 0
M  V30 4934 H 469.537 -0.385924 0.540332 0
M  V30 4935 H 472.067 -0.624572 1.94834 0
M  V30 4936 H 472.077 -2.88447 2.88552 0
M  V30 4937 H 470.752 -2.01294 3.63941 0
M  V30 4938 H 469.329 -3.05737 2.13494 0
M  V30 4939 N 471.514 -1.37532 -0.769588 0
M  V30 4940 C 472.477 -1.33292 -1.86456 0
M  V30 4941 C 473.477 -0.236537 -1.59051 0
M  V30 4942 O 474.667 -0.492511 -1.67093 0
M  V30 4943 C 471.799 -1.07118 -3.23633 0
M  V30 4944 H 472.992 -2.30692 -1.91628 0
M  V30 4945 H 470.545 -1.22593 -0.969572 0
M  V30 4946 H 471.28 -0.102578 -3.24138 0
M  V30 4947 H 471.065 -1.86479 -3.44917 0
M  V30 4948 H 472.555 -1.06806 -4.03711 0
M  V30 4949 N 472.992 0.995999 -1.22138 0
M  V30 4950 C 473.942 2.06988 -0.956042 0
M  V30 4951 C 474.926 1.60636 0.0921576 0
M  V30 4952 O 476.118 1.76607 -0.117958 0
M  V30 4953 C 473.247 3.39148 -0.532335 0
M  V30 4954 C 472.333 3.92142 -1.61509 0
M  V30 4955 N 472.724 4.18397 -2.84214 0
M  V30 4956 C 471.022 4.20514 -1.48606 0
M  V30 4957 C 471.723 4.61425 -3.54206 0
M  V30 4958 N 470.699 4.64934 -2.81669 0
M  V30 4959 H 474.501 2.25223 -1.88816 0
M  V30 4960 H 472.015 1.17748 -1.11845 0
M  V30 4961 H 474.012 4.15642 -0.323574 0
M  V30 4962 H 472.672 3.22314 0.392921 0
M  V30 4963 H 473.683 4.06682 -3.20671 0
M  V30 4964 H 470.36 4.12769 -0.626762 0
M  V30 4965 H 471.75 4.90387 -4.59315 0
M  V30 4966 N 474.47 1.03057 1.19235 0
M  V30 4967 C 475.7 0.746613 1.92638 0
M  V30 4968 C 476.108 -0.698708 1.75826 0
M  V30 4969 O 475.451 -1.487 1.07861 0
M  V30 4970 C 475.513 1.02024 3.44719 0
M  V30 4971 C 475.177 2.45745 3.85303 0
M  V30 4972 C 476.174 3.43887 3.8992 0
M  V30 4973 C 473.859 2.8019 4.16892 0
M  V30 4974 C 475.853 4.74529 4.2556 0
M  V30 4975 C 473.54 4.1104 4.52205 0
M  V30 4976 C 474.538 5.0802 4.56513 0
M  V30 4977 O 474.226 6.36527 4.91008 0
M  V30 4978 H 473.958 0.272401 0.618687 0
M  V30 4979 H 476.512 1.37853 1.52269 0
M  V30 4980 H 474.742 0.331184 3.85279 0
M  V30 4981 H 476.431 0.725677 3.9936 0
M  V30 4982 H 477.197 3.18614 3.65664 0
M  V30 4983 H 473.076 2.05382 4.12722 0
M  V30 4984 H 476.62 5.50222 4.28838 0
M  V30 4985 H 472.517 4.36086 4.7592 0
M  V30 4986 H 473.285 6.41025 5.08949 0
M  V30 4987 N 475.948 -1.35272 0.808662 0
M  V30 4988 C 476.878 -2.32315 0.234981 0
M  V30 4989 C 477.859 -1.57572 -0.64071 0
M  V30 4990 O 479.044 -1.8563 -0.570551 0
M  V30 4991 C 476.174 -3.41801 -0.615601 0
M  V30 4992 C 475.128 -4.27694 0.161767 0
M  V30 4993 C 474.454 -5.28519 -0.810649 0
M  V30 4994 C 475.754 -5.04231 1.36193 0
M  V30 4995 H 477.448 -2.80543 1.04575 0
M  V30 4996 H 474.994 -1.3488 0.504315 0
M  V30 4997 H 476.947 -4.08693 -1.02702 0
M  V30 4998 H 475.671 -2.92186 -1.45928 0
M  V30 4999 H 474.33 -3.62384 0.554382 0
M  V30 5000 H 473.978 -4.75171 -1.64988 0
M  V30 5001 H 473.678 -5.8686 -0.294822 0
M  V30 5002 H 475.202 -5.98283 -1.22023 0
M  V30 5003 H 476.616 -5.64058 1.02528 0
M  V30 5004 H 475.013 -5.72077 1.81239 0
M  V30 5005 H 476.083 -4.34753 2.14751 0
M  V30 5006 N 477.426 -0.562348 -1.47226 0
M  V30 5007 C 478.359 0.230405 -2.27034 0
M  V30 5008 C 479.337 0.915609 -1.3437 0
M  V30 5009 O 480.521 0.933573 -1.63758 0
M  V30 5010 C 477.648 1.32874 -3.11548 0
M  V30 5011 C 476.694 0.751552 -4.19826 0
M  V30 5012 S 477.527 -0.405848 -5.3396 0
M  V30 5013 C 478.683 0.694186 -6.22038 0
M  V30 5014 H 478.916 -0.446811 -2.93923 0
M  V30 5015 H 476.449 -0.348781 -1.50409 0
M  V30 5016 H 478.407 1.95773 -3.60809 0
M  V30 5017 H 477.068 1.97782 -2.44011 0
M  V30 5018 H 476.261 1.57651 -4.78709 0
M  V30 5019 H 475.863 0.198645 -3.73472 0
M  V30 5020 H 478.155 1.58501 -6.58698 0
M  V30 5021 H 479.098 0.142592 -7.07956 0
M  V30 5022 H 479.506 0.989169 -5.55766 0
M  V30 5023 N 478.904 1.54736 -0.299062 0
M  V30 5024 C 479.867 2.22127 0.565012 0
M  V30 5025 C 480.867 1.20669 1.06281 0
M  V30 5026 O 482.057 1.45417 0.959145 0
M  V30 5027 C 479.189 2.90611 1.78208 0
M  V30 5028 H 480.382 2.99891 -0.0237448 0
M  V30 5029 H 477.935 1.5622 -0.0498788 0
M  V30 5030 H 478.67 2.16921 2.41072 0
M  V30 5031 H 478.455 3.64984 1.43281 0
M  V30 5032 H 479.945 3.42026 2.396 0
M  V30 5033 N 480.382 0.0267497 1.57577 0
M  V30 5034 C 481.628 -0.647596 1.92815 0
M  V30 5035 C 481.983 -1.69872 0.903396 0
M  V30 5036 O 481.276 -1.91429 -0.0808881 0
M  V30 5037 C 481.47 -1.30914 3.3256 0
M  V30 5038 C 481.299 -0.323621 4.48534 0
M  V30 5039 C 480.069 0.0756607 5.05243 0
M  V30 5040 C 482.267 0.42112 5.12573 0
M  V30 5041 N 480.249 1.0566 6.04739 0
M  V30 5042 C 481.62 1.25589 6.07147 0
M  V30 5043 C 483.675 0.482077 4.95561 0
M  V30 5044 C 482.378 2.1461 6.86538 0
M  V30 5045 C 484.404 1.35962 5.75559 0
M  V30 5046 C 483.766 2.18217 6.69747 0
M  V30 5047 H 479.865 -0.209357 0.753454 0
M  V30 5048 H 482.449 0.0933695 1.94476 0
M  V30 5049 H 480.62 -2.02026 3.31723 0
M  V30 5050 H 482.352 -1.94033 3.55153 0
M  V30 5051 H 479.107 -0.298294 4.7266 0
M  V30 5052 H 479.531 1.54324 6.59176 0
M  V30 5053 H 484.173 -0.139609 4.22569 0
M  V30 5054 H 481.891 2.77835 7.58837 0
M  V30 5055 H 485.477 1.41105 5.6443 0
M  V30 5056 H 484.357 2.85022 7.3057 0
M  V30 5057 N 481.861 -1.55662 -0.24637 0
M  V30 5058 C 483.091 -1.81312 -0.990438 0
M  V30 5059 C 483.499 -0.600234 -1.79426 0
M  V30 5060 O 482.842 0.440537 -1.78339 0
M  V30 5061 C 482.904 -3.0032 -1.97607 0
M  V30 5062 C 482.568 -4.36322 -1.35912 0
M  V30 5063 C 483.565 -5.14295 -0.761348 0
M  V30 5064 C 481.25 -4.83019 -1.37833 0
M  V30 5065 C 483.244 -6.37114 -0.190998 0
M  V30 5066 C 480.931 -6.05786 -0.804128 0
M  V30 5067 C 481.929 -6.82672 -0.211489 0
M  V30 5068 O 481.617 -8.03121 0.353845 0
M  V30 5069 H 481.349 -0.607233 -0.297058 0
M  V30 5070 H 483.903 -2.0356 -0.274351 0
M  V30 5071 H 482.133 -2.73829 -2.73047 0
M  V30 5072 H 483.822 -3.13057 -2.58361 0
M  V30 5073 H 484.588 -4.79337 -0.739013 0
M  V30 5074 H 480.467 -4.23165 -1.829 0
M  V30 5075 H 484.011 -6.97069 0.272206 0
M  V30 5076 H 479.908 -6.40222 -0.823792 0
M  V30 5077 H 480.676 -8.18131 0.245761 0
M  V30 5078 N 483.339 0.512053 -1.4905 0
M  V30 5079 C 484.567 1.29116 -1.61669 0
M  V30 5080 C 484.982 1.86655 -0.283787 0
M  V30 5081 O 484.339 1.67293 0.729331 0
M  V30 5082 C 484.39 2.4293 -2.67707 0
M  V30 5083 O 484.111 1.87758 -3.95826 0
M  V30 5084 C 485.612 3.34476 -2.90931 0
M  V30 5085 H 482.832 0.392009 -0.544583 0
M  V30 5086 H 485.376 0.615881 -1.95006 0
M  V30 5087 H 483.531 3.06308 -2.37179 0
M  V30 5088 H 483.945 2.62393 -4.54148 0
M  V30 5089 H 485.419 4.10642 -3.68886 0
M  V30 5090 H 485.896 3.90801 -2.00427 0
M  V30 5091 H 486.502 2.76874 -3.22832 0
M  V30 5092 N 484.817 1.37938 0.762283 0
M  V30 5093 C 485.78 1.34279 1.85747 0
M  V30 5094 C 486.78 0.244969 1.58923 0
M  V30 5095 O 487.97 0.501365 1.66829 0
M  V30 5096 C 485.102 1.08833 3.23061 0
M  V30 5097 H 486.295 2.31705 1.90401 0
M  V30 5098 H 483.848 1.23105 0.963057 0
M  V30 5099 H 484.583 0.119767 3.24079 0
M  V30 5100 H 484.368 1.88306 3.43923 0
M  V30 5101 H 485.858 1.08946 4.03138 0
M  V30 5102 N 486.295 -0.989507 1.22664 0
M  V30 5103 C 487.541 -1.73298 1.06487 0
M  V30 5104 C 487.896 -1.88292 -0.395438 0
M  V30 5105 O 487.189 -1.41748 -1.28911 0
M  V30 5106 C 487.383 -3.13649 1.71345 0
M  V30 5107 C 487.212 -3.12341 3.23532 0
M  V30 5108 C 485.982 -3.18044 3.92653 0
M  V30 5109 C 488.18 -2.96226 4.20422 0
M  V30 5110 N 486.162 -3.06526 5.31898 0
M  V30 5111 C 487.533 -2.92773 5.4652 0
M  V30 5112 C 489.588 -2.80642 4.11271 0
M  V30 5113 C 488.291 -2.75332 6.64519 0
M  V30 5114 C 490.317 -2.64563 5.28924 0
M  V30 5115 C 489.679 -2.618 6.53942 0
M  V30 5116 H 485.778 -0.643643 0.444126 0
M  V30 5117 H 488.362 -1.17489 1.55256 0
M  V30 5118 H 486.533 -3.67694 1.25122 0
M  V30 5119 H 488.265 -3.76577 1.48229 0
M  V30 5120 H 485.02 -3.25861 3.43673 0
M  V30 5121 H 485.444 -3.04067 6.04874 0
M  V30 5122 H 490.086 -2.81574 3.15398 0
M  V30 5123 H 487.804 -2.73145 7.60538 0
M  V30 5124 H 491.39 -2.53482 5.23677 0
M  V30 5125 H 490.27 -2.49511 7.43447 0
M  V30 5126 N 487.773 -1.03688 -1.18687 0
M  V30 5127 C 489.021 -0.736572 -1.88199 0
M  V30 5128 C 489.342 0.737665 -1.80509 0
M  V30 5129 O 488.612 1.53204 -1.22088 0
M  V30 5130 H 487.192 -0.269466 -0.696704 0
M  V30 5131 H 489.854 -1.31282 -1.44052 0
M  V30 5132 H 488.95 -1.03802 -2.94332 0
M  V30 5133 N 489.251 1.34841 -0.815825 0
M  V30 5134 C 490.499 1.98107 -0.399744 0
M  V30 5135 C 490.82 1.65019 1.03894 0
M  V30 5136 O 490.09 0.937311 1.72021 0
M  V30 5137 H 488.67 0.732827 -0.144823 0
M  V30 5138 H 491.332 1.64599 -1.0437 0
M  V30 5139 H 490.428 3.07856 -0.512965 0
M  V30 5140 N 490.729 0.570148 1.46925 0
M  V30 5141 C 491.977 0.0508523 2.02036 0
M  V30 5142 C 492.298 -1.30885 1.44548 0
M  V30 5143 O 491.568 -1.85647 0.625453 0
M  V30 5144 H 490.148 0.0158088 0.746833 0
M  V30 5145 H 492.81 0.743086 1.80178 0
M  V30 5146 H 491.906 -0.027575 3.12088 0
M  V30 5147 N 492.207 -1.54576 0.307264 0
M  V30 5148 C 493.456 -1.99442 -0.300976 0
M  V30 5149 C 493.769 -1.19928 -1.5452 0
M  V30 5150 O 494.975 -1.55092 -2.22842 0
M  V30 5151 C 493.431 -3.55084 -0.586809 0
M  V30 5152 C 493.039 -4.43413 0.639438 0
M  V30 5153 C 494.783 -4.0846 -1.1559 0
M  V30 5154 C 492.69 -5.90499 0.326411 0
M  V30 5155 H 491.62 -0.744986 -0.116238 0
M  V30 5156 H 494.271 -1.787 0.416947 0
M  V30 5157 H 492.653 -3.71749 -1.36449 0
M  V30 5158 H 493.827 -4.38522 1.41545 0
M  V30 5159 H 492.142 -4.00842 1.1276 0
M  V30 5160 H 494.739 -5.15926 -1.40445 0
M  V30 5161 H 495.082 -3.59443 -2.10015 0
M  V30 5162 H 495.615 -3.95362 -0.439778 0
M  V30 5163 H 492.354 -6.43676 1.23939 0
M  V30 5164 H 491.874 -5.98382 -0.412212 0
M  V30 5165 H 493.553 -6.46962 -0.0697393 0
M  V30 5166 N 493.685 -0.035106 -1.57561 0
M  V30 5167 C 494.933 0.64096 -1.91667 0
M  V30 5168 C 495.254 1.72323 -0.912681 0
M  V30 5169 O 494.524 1.95849 0.0449089 0
M  V30 5170 H 493.104 0.239743 -0.707483 0
M  V30 5171 H 495.766 -0.084321 -1.94718 0
M  V30 5172 H 494.862 1.08987 -2.92452 0
M  V30 5173 N 495.163 1.55791 0.238111 0
M  V30 5174 C 496.126 1.90239 1.27835 0
M  V30 5175 C 497.126 0.779552 1.4064 0
M  V30 5176 O 498.316 1.04747 1.3919 0
M  V30 5177 C 495.448 2.13859 2.65475 0
M  V30 5178 H 496.641 2.83262 0.985034 0
M  V30 5179 H 494.194 1.48818 0.477799 0
M  V30 5180 H 494.929 1.23334 2.99932 0
M  V30 5181 H 494.714 2.95643 2.57561 0
M  V30 5182 H 496.204 2.41664 3.40571 0
M  V30 5183 N 496.642 -0.504142 1.49319 0
M  V30 5184 C 497.867 -1.28729 1.62615 0
M  V30 5185 C 498.292 -1.85752 0.296309 0
M  V30 5186 O 497.65 -1.65704 -0.735649 0
M  V30 5187 C 497.698 -2.39561 2.69524 0
M  V30 5188 O 496.802 -3.43324 2.28478 0
M  V30 5189 H 496.143 -0.380172 0.544395 0
M  V30 5190 H 498.673 -0.603872 1.95485 0
M  V30 5191 H 498.683 -2.8537 2.91595 0
M  V30 5192 H 497.358 -1.97423 3.66056 0
M  V30 5193 H 495.935 -3.03455 2.16725 0
M  V30 5194 N 498.12 -1.38341 -0.754957 0
M  V30 5195 C 499.366 -1.35678 -1.51536 0
M  V30 5196 C 499.721 0.0533985 -1.92326 0
M  V30 5197 O 499.014 1.01573 -1.6246 0
M  V30 5198 C 499.208 -2.2452 -2.78075 0
M  V30 5199 C 499.037 -3.74035 -2.49655 0
M  V30 5200 C 497.807 -4.43066 -2.42942 0
M  V30 5201 C 500.005 -4.665 -2.16523 0
M  V30 5202 N 497.987 -5.78026 -2.06783 0
M  V30 5203 C 499.358 -5.89962 -1.90644 0
M  V30 5204 C 501.413 -4.54718 -2.02821 0
M  V30 5205 C 500.116 -7.0296 -1.52444 0
M  V30 5206 C 502.142 -5.67618 -1.66023 0
M  V30 5207 C 501.504 -6.90141 -1.41015 0
M  V30 5208 H 497.603 -0.551764 -0.554148 0
M  V30 5209 H 500.187 -1.73716 -0.879258 0
M  V30 5210 H 498.358 -1.88673 -3.39496 0
M  V30 5211 H 500.09 -2.12993 -3.44116 0
M  V30 5212 H 496.845 -3.96264 -2.59367 0
M  V30 5213 H 497.269 -6.49394 -1.91353 0
M  V30 5214 H 501.911 -3.60546 -2.20831 0
M  V30 5215 H 499.629 -7.97051 -1.33174 0
M  V30 5216 H 503.215 -5.6048 -1.56055 0
M  V30 5217 H 502.095 -7.76021 -1.12965 0
M  V30 5218 N 499.598 0.982988 -1.23187 0
M  V30 5219 C 500.561 2.05649 -1.01198 0
M  V30 5220 C 501.561 1.6078 0.0252464 0
M  V30 5221 O 502.751 1.72878 -0.214243 0
M  V30 5222 C 499.883 3.36744 -0.530656 0
M  V30 5223 H 501.076 2.2659 -1.96461 0
M  V30 5224 H 498.629 1.15602 -1.05195 0
M  V30 5225 H 499.364 3.21492 0.425873 0
M  V30 5226 H 499.149 3.7065 -1.2791 0
M  V30 5227 H 500.639 4.15705 -0.397366 0
M  V30 5228 N 501.076 1.04316 1.18135 0
M  V30 5229 C 502.322 0.758899 1.88712 0
M  V30 5230 C 502.677 -0.705863 1.78984 0
M  V30 5231 O 501.97 -1.50874 1.18101 0
M  V30 5232 C 502.164 1.16271 3.37958 0
M  V30 5233 C 501.993 2.66518 3.62213 0
M  V30 5234 C 500.763 3.33702 3.79436 0
M  V30 5235 C 502.961 3.64739 3.62588 0
M  V30 5236 N 500.943 4.72904 3.91452 0
M  V30 5237 C 502.314 4.89627 3.80348 0
M  V30 5238 C 504.369 3.58333 3.4569 0
M  V30 5239 C 503.072 6.08879 3.8296 0
M  V30 5240 C 505.098 4.77016 3.49586 0
M  V30 5241 C 504.46 6.00724 3.67845 0
M  V30 5242 H 500.559 0.329795 0.709055 0
M  V30 5243 H 503.143 1.33334 1.4188 0
M  V30 5244 H 501.314 0.616319 3.83479 0
M  V30 5245 H 503.046 0.829205 3.96114 0
M  V30 5246 H 499.801 2.84105 3.78921 0
M  V30 5247 H 500.225 5.45258 4.01277 0
M  V30 5248 H 504.867 2.63663 3.30517 0
M  V30 5249 H 502.585 7.03903 3.96921 0
M  V30 5250 H 506.171 4.73703 3.37782 0
M  V30 5251 H 505.051 6.91022 3.70753 0
M  V30 5252 N 502.554 -1.34406 0.822964 0
M  V30 5253 C 503.501 -2.29519 0.24284 0
M  V30 5254 C 504.471 -1.5359 -0.632397 0
M  V30 5255 O 505.656 -1.8196 -0.57403 0
M  V30 5256 C 502.796 -3.40032 -0.58925 0
M  V30 5257 C 501.909 -4.30899 0.308236 0
M  V30 5258 C 501.044 -5.28515 -0.533425 0
M  V30 5259 C 500.083 -6.1102 0.363444 0
M  V30 5260 N 499.22 -7.00725 -0.439147 0
M  V30 5261 H 504.06 -2.78537 1.05929 0
M  V30 5262 H 501.597 -1.3707 0.533872 0
M  V30 5263 H 503.555 -4.0279 -1.087 0
M  V30 5264 H 502.185 -2.92248 -1.37081 0
M  V30 5265 H 501.237 -3.69002 0.924203 0
M  V30 5266 H 502.549 -4.88717 0.997862 0
M  V30 5267 H 501.703 -5.96725 -1.09565 0
M  V30 5268 H 500.442 -4.71235 -1.25656 0
M  V30 5269 H 499.447 -5.41743 0.937812 0
M  V30 5270 H 500.672 -6.70381 1.08469 0
M  V30 5271 H 498.618 -6.45913 -1.14595 0
M  V30 5272 H 498.535 -7.55756 0.19209 0
M  V30 5273 H 499.803 -7.73263 -0.984124 0
M  V30 5274 N 504.032 -0.577932 -1.46621 0
M  V30 5275 C 505.281 -0.0594281 -2.01612 0
M  V30 5276 C 505.594 1.30663 -1.45556 0
M  V30 5277 O 506.8 1.91621 -1.92337 0
M  V30 5278 C 505.256 -0.0556666 -3.59857 0
M  V30 5279 C 504.864 -1.41975 -4.24908 0
M  V30 5280 C 506.608 0.409143 -4.22524 0
M  V30 5281 C 504.515 -1.37397 -5.75218 0
M  V30 5282 H 503.445 -0.0184469 -0.753774 0
M  V30 5283 H 506.096 -0.728869 -1.68404 0
M  V30 5284 H 504.478 0.679843 -3.90121 0
M  V30 5285 H 505.652 -2.17461 -4.0626 0
M  V30 5286 H 503.967 -1.82419 -3.74316 0
M  V30 5287 H 506.564 0.46211 -5.32699 0
M  V30 5288 H 506.907 1.42565 -3.91128 0
M  V30 5289 H 507.44 -0.272152 -3.96868 0
M  V30 5290 H 504.179 -2.36714 -6.11267 0
M  V30 5291 H 503.699 -0.661239 -5.96144 0
M  V30 5292 H 505.378 -1.08484 -6.3784 0
M  V30 5293 N 505.51 1.54411 -0.315457 0
M  V30 5294 C 506.758 2.00023 0.288971 0
M  V30 5295 C 507.079 1.20529 1.5329 0
M  V30 5296 O 506.349 0.304986 1.93511 0
M  V30 5297 H 504.929 0.738891 0.109766 0
M  V30 5298 H 507.591 1.90094 -0.430129 0
M  V30 5299 H 506.687 3.07198 0.550999 0
M  V30 5300 N 506.988 0.0434614 1.5754 0
M  V30 5301 C 508.228 -0.636023 1.94253 0
M  V30 5302 C 508.592 -1.68461 0.921132 0
M  V30 5303 O 509.793 -2.41762 1.17494 0
M  V30 5304 C 508.064 -1.22357 3.35803 0
M  V30 5305 S 509.623 -1.92213 3.94461 0
M  V30 5306 H 506.441 -0.209041 0.679575 0
M  V30 5307 H 509.043 0.110556 1.95187 0
M  V30 5308 H 507.747 -0.448162 4.07946 0
M  V30 5309 H 507.278 -2.00713 3.38346 0
M  V30 5310 H 509.293 -3.20199 3.79061 0
M  V30 5311 N 508.466 -1.55915 -0.229846 0
M  V30 5312 C 509.691 -1.8296 -0.976743 0
M  V30 5313 C 510.116 -0.622735 -1.77493 0
M  V30 5314 O 509.474 0.428431 -1.76165 0
M  V30 5315 C 509.522 -3.07916 -1.8767 0
M  V30 5316 O 508.626 -2.86028 -2.97088 0
M  V30 5317 H 507.967 -0.603453 -0.277021 0
M  V30 5318 H 510.497 -2.0312 -0.245669 0
M  V30 5319 H 510.507 -3.37802 -2.2881 0
M  V30 5320 H 509.182 -3.95389 -1.28996 0
M  V30 5321 H 507.759 -2.67355 -2.59954 0
M  V30 5322 N 509.944 0.496216 -1.49584 0
M  V30 5323 C 510.894 1.59422 -1.62999 0
M  V30 5324 C 511.878 1.53402 -0.485457 0
M  V30 5325 O 513.07 1.60851 -0.738649 0
M  V30 5326 C 510.199 2.98009 -1.70427 0
M  V30 5327 C 509.285 3.09008 -2.90473 0
M  V30 5328 N 509.676 2.89884 -4.14489 0
M  V30 5329 C 507.974 3.40115 -2.8851 0
M  V30 5330 C 508.675 3.0519 -4.95211 0
M  V30 5331 N 507.651 3.3428 -4.2867 0
M  V30 5332 H 511.453 1.43297 -2.56599 0
M  V30 5333 H 508.967 0.702443 -1.46422 0
M  V30 5334 H 510.964 3.76926 -1.78136 0
M  V30 5335 H 509.624 3.152 -0.77967 0
M  V30 5336 H 510.635 2.65963 -4.44392 0
M  V30 5337 H 507.312 3.63452 -2.05448 0
M  V30 5338 H 508.702 2.94856 -6.03746 0
M  V30 5339 N 511.423 1.38739 0.74761 0
M  V30 5340 C 512.386 1.36241 1.84312 0
M  V30 5341 C 513.386 0.261811 1.58654 0
M  V30 5342 O 514.576 0.519031 1.66288 0
M  V30 5343 C 511.708 1.12253 3.21888 0
M  V30 5344 H 512.901 2.33712 1.87933 0
M  V30 5345 H 510.454 1.2412 0.949946 0
M  V30 5346 H 511.189 0.154133 3.23934 0
M  V30 5347 H 510.974 1.91943 3.41907 0
M  V30 5348 H 512.464 1.13215 4.0196 0
M  V30 5349 N 512.901 -0.976442 1.23707 0
M  V30 5350 C 513.851 -2.0544 0.988851 0
M  V30 5351 C 514.835 -1.60762 -0.0665901 0
M  V30 5352 O 516.027 -1.76396 0.14604 0
M  V30 5353 C 513.156 -3.38258 0.586223 0
M  V30 5354 C 512.242 -3.89523 1.67728 0
M  V30 5355 N 512.633 -4.13823 2.90834 0
M  V30 5356 C 510.931 -4.18097 1.55277 0
M  V30 5357 C 511.632 -4.55731 3.61502 0
M  V30 5358 N 510.608 -4.60394 2.8903 0
M  V30 5359 H 514.41 -2.22191 1.92376 0
M  V30 5360 H 511.924 -1.15954 1.13704 0
M  V30 5361 H 513.921 -4.15075 0.389658 0
M  V30 5362 H 512.581 -3.22898 -0.341594 0
M  V30 5363 H 513.592 -4.01529 3.271 0
M  V30 5364 H 510.269 -4.11719 0.692351 0
M  V30 5365 H 511.659 -4.83018 4.67059 0
M  V30 5366 N 514.379 -1.04941 -1.1758 0
M  V30 5367 C 515.626 -0.757989 -1.87779 0
M  V30 5368 C 515.954 0.714827 -1.80888 0
M  V30 5369 O 515.209 1.53824 -1.20982 0
M  V30 5370 C 515.508 -1.18062 -3.37337 0
M  V30 5371 C 515.174 -2.65521 -3.6443 0
M  V30 5372 C 513.836 -3.05804 -3.71534 0
M  V30 5373 C 516.188 -3.60822 -3.76108 0
M  V30 5374 C 513.516 -4.40256 -3.87803 0
M  V30 5375 C 515.868 -4.95005 -3.93895 0
M  V30 5376 C 514.532 -5.34945 -3.99237 0
M  V30 5377 H 513.802 -0.277368 -0.68713 0
M  V30 5378 H 516.449 -1.31603 -1.39115 0
M  V30 5379 H 514.754 -0.541525 -3.8804 0
M  V30 5380 H 516.451 -0.932368 -3.9001 0
M  V30 5381 H 513.041 -2.33324 -3.59524 0
M  V30 5382 H 517.225 -3.30841 -3.69943 0
M  V30 5383 H 512.481 -4.70707 -3.90186 0
M  V30 5384 H 516.655 -5.68746 -4.01872 0
M  V30 5385 H 514.282 -6.39135 -4.11596 0
M  V30 5386 N 515.857 1.33968 -0.830081 0
M  V30 5387 C 517.105 1.97672 -0.420734 0
M  V30 5388 C 517.426 1.66111 1.02138 0
M  V30 5389 O 516.696 0.955503 1.71017 0
M  V30 5390 H 515.276 0.73125 -0.152587 0
M  V30 5391 H 517.938 1.63483 -1.0611 0
M  V30 5392 H 517.034 3.07294 -0.545588 0
M  V30 5393 N 517.335 0.585699 1.46312 0
M  V30 5394 C 518.565 0.0780166 2.06453 0
M  V30 5395 C 518.973 -1.2336 1.43454 0
M  V30 5396 O 518.316 -1.75734 0.535086 0
M  V30 5397 C 518.378 -0.158951 3.59148 0
M  V30 5398 C 518.042 1.06752 4.44357 0
M  V30 5399 C 519.039 1.98031 4.80708 0
M  V30 5400 C 516.724 1.2902 4.85447 0
M  V30 5401 C 518.718 3.09924 5.5698 0
M  V30 5402 C 516.405 2.41218 5.61478 0
M  V30 5403 C 517.403 3.31499 5.97158 0
M  V30 5404 O 517.091 4.41747 6.71651 0
M  V30 5405 H 516.823 0.0558894 0.673686 0
M  V30 5406 H 519.377 0.806994 1.88883 0
M  V30 5407 H 517.607 -0.942575 3.75037 0
M  V30 5408 H 519.296 -0.615513 4.01206 0
M  V30 5409 H 520.062 1.82043 4.49539 0
M  V30 5410 H 515.941 0.596567 4.57124 0
M  V30 5411 H 519.485 3.80415 5.84748 0
M  V30 5412 H 515.382 2.57167 5.9206 0
M  V30 5413 H 516.15 4.40152 6.90079 0
M  V30 5414 N 518.813 -1.54241 0.323641 0
M  V30 5415 C 519.745 -2.21836 -0.576311 0
M  V30 5416 C 520.758 -1.21837 -1.07979 0
M  V30 5417 O 521.947 -1.48306 -0.99336 0
M  V30 5418 C 519.047 -2.86923 -1.80356 0
M  V30 5419 C 518.22 -4.1306 -1.43875 0
M  V30 5420 C 517.279 -4.6174 -2.52353 0
M  V30 5421 O 516.305 -5.26421 -2.16494 0
M  V30 5422 N 517.507 -4.35974 -3.83284 0
M  V30 5423 H 520.272 -2.997 0.00247987 0
M  V30 5424 H 517.833 -1.61233 0.146848 0
M  V30 5425 H 519.825 -3.16414 -2.52318 0
M  V30 5426 H 518.395 -2.12765 -2.29019 0
M  V30 5427 H 517.615 -3.90334 -0.550752 0
M  V30 5428 H 518.903 -4.95148 -1.17071 0
M  V30 5429 H 518.301 -3.84203 -4.15216 0
M  V30 5430 H 516.858 -4.70119 -4.51477 0
M  V30 5431 N 520.291 -0.0518155 -1.57515 0
M  V30 5432 C 521.239 0.940195 -2.12751 0
M  V30 5433 C 522.233 1.3218 -1.05948 0
M  V30 5434 O 523.439 1.30138 -1.24355 0
M  V30 5435 H 519.814 0.321066 -0.680015 0
M  V30 5436 H 521.785 0.449217 -2.94999 0
M  V30 5437 C 520.534 2.2055 -2.68799 0
M  V30 5438 H 519.857 1.92066 -3.50643 0
M  V30 5439 H 521.297 2.88119 -3.11068 0
M  V30 5440 C 519.756 2.95061 -1.62605 0
M  V30 5441 O 520.286 3.88025 -1.03921 0
M  V30 5442 N 518.492 2.57804 -1.34111 0
M  V30 5443 H 518.039 1.82281 -1.8202 0
M  V30 5444 H 517.997 3.07964 -0.632872 0
M  V30 5445 N 521.769 1.56035 0.221574 0
M  V30 5446 C 523.18 1.69229 0.788567 0
M  V30 5447 C 523.531 0.653814 1.84986 0
M  V30 5448 O 522.656 -0.195065 2.15519 0
M  V30 5449 C 523.251 3.06809 1.43713 0
M  V30 5450 C 521.81 3.21858 1.95152 0
M  V30 5451 C 520.957 2.65155 0.811685 0
M  V30 5452 H 523.908 1.587 -0.00307894 0
M  V30 5453 H 523.929 3.02666 2.30594 0
M  V30 5454 H 523.441 3.82369 0.664475 0
M  V30 5455 H 521.542 2.51167 2.7522 0
M  V30 5456 H 521.655 4.29073 2.1315 0
M  V30 5457 H 520.019 2.23635 1.21899 0
M  V30 5458 H 520.802 3.43261 0.0516987 0
M  V30 5459 N 523.247 -0.488276 1.49845 0
M  V30 5460 C 524.494 -1.24157 1.59973 0
M  V30 5461 C 524.822 -1.92293 0.292182 0
M  V30 5462 O 524.077 -1.81942 -0.720813 0
M  V30 5463 C 524.376 -2.32152 2.71735 0
M  V30 5464 C 524.042 -1.81387 4.12807 0
M  V30 5465 C 522.704 -1.67262 4.51195 0
M  V30 5466 C 525.056 -1.43537 5.01045 0
M  V30 5467 C 522.384 -1.13685 5.7558 0
M  V30 5468 C 524.736 -0.914081 6.25961 0
M  V30 5469 C 523.4 -0.759327 6.63167 0
M  V30 5470 H 522.67 -0.454322 0.585383 0
M  V30 5471 H 525.317 -0.540261 1.83721 0
M  V30 5472 H 523.622 -3.08122 2.42008 0
M  V30 5473 H 525.319 -2.90164 2.76778 0
M  V30 5474 H 521.909 -1.93344 3.82513 0
M  V30 5475 H 526.093 -1.53292 4.72033 0
M  V30 5476 H 521.349 -1.00426 6.03096 0
M  V30 5477 H 525.523 -0.612066 6.93705 0
M  V30 5478 H 523.15 -0.342002 7.5943 0
M  V30 5479 N 524.725 -1.39134 -0.740242 0
M  V30 5480 C 525.657 -1.33332 -1.86428 0
M  V30 5481 C 526.67 -0.243042 -1.60976 0
M  V30 5482 O 527.859 -0.501608 -1.71307 0
M  V30 5483 C 524.959 -1.04626 -3.22346 0
M  V30 5484 C 524.132 -2.24826 -3.75196 0
M  V30 5485 C 523.191 -1.92659 -4.89662 0
M  V30 5486 O 522.217 -2.6529 -5.03597 0
M  V30 5487 N 523.419 -0.889575 -5.73643 0
M  V30 5488 H 526.184 -2.30196 -1.91911 0
M  V30 5489 H 523.745 -1.33168 -0.920756 0
M  V30 5490 H 525.737 -0.811347 -3.96484 0
M  V30 5491 H 524.307 -0.165129 -3.12164 0
M  V30 5492 H 523.527 -2.64301 -2.9247 0
M  V30 5493 H 524.815 -3.05015 -4.07239 0
M  V30 5494 H 524.213 -0.287529 -5.64969 0
M  V30 5495 H 522.77 -0.714557 -6.47871 0
M  V30 5496 N 526.204 0.969867 -1.24223 0
M  V30 5497 C 527.452 1.70918 -1.0785 0
M  V30 5498 C 527.773 1.91186 0.383763 0
M  V30 5499 O 527.043 1.48806 1.27411 0
M  V30 5500 H 525.623 0.633334 -0.396103 0
M  V30 5501 H 528.285 1.16689 -1.56108 0
M  V30 5502 H 527.381 2.69455 -1.57482 0
M  V30 5503 N 527.682 1.05563 1.17022 0
M  V30 5504 C 528.928 0.778872 1.87897 0
M  V30 5505 C 529.283 -0.686839 1.79723 0
M  V30 5506 O 528.576 -1.49612 1.19694 0
M  V30 5507 C 528.77 1.19849 3.36706 0
M  V30 5508 C 528.599 2.70345 3.59366 0
M  V30 5509 C 527.369 3.37707 3.75875 0
M  V30 5510 C 529.567 3.68564 3.58699 0
M  V30 5511 N 527.549 4.7703 3.86414 0
M  V30 5512 C 528.92 4.93634 3.75134 0
M  V30 5513 C 530.975 3.6198 3.4187 0
M  V30 5514 C 529.678 6.12907 3.76481 0
M  V30 5515 C 531.704 4.80697 3.44507 0
M  V30 5516 C 531.066 6.04592 3.61453 0
M  V30 5517 H 527.165 0.337297 0.705517 0
M  V30 5518 H 529.749 1.34832 1.40458 0
M  V30 5519 H 527.92 0.656958 3.82804 0
M  V30 5520 H 529.652 0.871172 3.95212 0
M  V30 5521 H 526.407 2.88108 3.75887 0
M  V30 5522 H 526.831 5.49483 3.95471 0
M  V30 5523 H 531.473 2.67154 3.27702 0
M  V30 5524 H 529.191 7.08073 3.89432 0
M  V30 5525 H 532.777 4.77259 3.32738 0
M  V30 5526 H 531.657 6.94916 3.63403 0
M  V30 5527 N 529.16 -1.33526 0.837174 0
M  V30 5528 C 530.406 -1.9813 0.432704 0
M  V30 5529 C 530.739 -1.66168 -1.00508 0
M  V30 5530 O 530.014 -0.94069 -1.70239 0
M  V30 5531 C 530.297 -3.54151 0.651834 0
M  V30 5532 C 530.15 -3.95806 2.13676 0
M  V30 5533 C 531.469 -4.39993 0.0968937 0
M  V30 5534 H 528.588 -0.719713 0.15869 0
M  V30 5535 H 531.23 -1.58193 1.05237 0
M  V30 5536 H 529.38 -3.88301 0.124369 0
M  V30 5537 H 531.052 -3.71921 2.72896 0
M  V30 5538 H 529.295 -3.45599 2.62191 0
M  V30 5539 H 529.966 -5.0447 2.24084 0
M  V30 5540 H 532.442 -4.12479 0.547733 0
M  V30 5541 H 531.318 -5.48186 0.279917 0
M  V30 5542 H 531.579 -4.3066 -0.9992 0
M  V30 5543 N 530.638 -0.59345 -1.46 0
M  V30 5544 C 531.863 -0.0872365 -2.07216 0
M  V30 5545 C 532.288 1.2131 -1.43755 0
M  V30 5546 O 531.646 1.73528 -0.525152 0
M  V30 5547 C 531.694 0.0538197 -3.6056 0
M  V30 5548 O 530.798 1.10765 -3.97247 0
M  V30 5549 H 530.139 -0.0676598 -0.660544 0
M  V30 5550 H 532.669 -0.819445 -1.87473 0
M  V30 5551 H 532.679 0.256567 -4.07193 0
M  V30 5552 H 531.354 -0.895739 -4.0614 0
M  V30 5553 H 529.931 0.882501 -3.62307 0
M  V30 5554 N 532.116 1.54067 -0.331816 0
M  V30 5555 C 533.079 2.23275 0.517768 0
M  V30 5556 C 534.079 1.22897 1.03697 0
M  V30 5557 O 535.269 1.47419 0.928084 0
M  V30 5558 C 532.401 2.94326 1.72004 0
M  V30 5559 H 533.594 2.99773 -0.0873507 0
M  V30 5560 H 531.147 1.56079 -0.0830042 0
M  V30 5561 H 531.882 2.21986 2.36417 0
M  V30 5562 H 531.667 3.67941 1.35507 0
M  V30 5563 H 533.157 3.47031 2.32291 0
M  V30 5564 N 533.594 0.0601682 1.57485 0
M  V30 5565 C 534.822 -0.620937 1.97363 0
M  V30 5566 C 535.237 -1.63846 0.938082 0
M  V30 5567 O 534.594 -1.82339 -0.0766578 0
M  V30 5568 C 534.645 -1.29987 3.37321 0
M  V30 5569 O 534.366 -0.323081 4.36907 0
M  V30 5570 C 535.867 -2.06989 3.92008 0
M  V30 5571 H 533.087 -0.169135 0.649334 0
M  V30 5572 H 535.631 0.129132 2.04092 0
M  V30 5573 H 533.786 -2.0011 3.31715 0
M  V30 5574 H 534.2 -0.808754 5.18227 0
M  V30 5575 H 535.674 -2.49901 4.92192 0
M  V30 5576 H 536.151 -2.92173 3.2792 0
M  V30 5577 H 536.757 -1.41757 4.0098 0
M  V30 5578 N 535.072 -1.5615 -0.213296 0
M  V30 5579 C 536.004 -1.89586 -1.28802 0
M  V30 5580 C 537.017 -0.784844 -1.42633 0
M  V30 5581 O 538.206 -1.06319 -1.43383 0
M  V30 5582 C 535.306 -2.09665 -2.66259 0
M  V30 5583 C 534.479 -3.40726 -2.7427 0
M  V30 5584 C 533.538 -3.50137 -3.92798 0
M  V30 5585 O 532.564 -4.23105 -3.8075 0
M  V30 5586 N 533.766 -2.81886 -5.07465 0
M  V30 5587 H 536.531 -2.82368 -1.00442 0
M  V30 5588 H 534.092 -1.56796 -0.403302 0
M  V30 5589 H 536.084 -2.13268 -3.43946 0
M  V30 5590 H 534.654 -1.23469 -2.87183 0
M  V30 5591 H 533.874 -3.4915 -1.82997 0
M  V30 5592 H 535.162 -4.27048 -2.76599 0
M  V30 5593 H 534.56 -2.22397 -5.2015 0
M  V30 5594 H 533.117 -2.91139 -5.83165 0
M  V30 5595 N 536.55 0.480323 -1.50102 0
M  V30 5596 C 537.775 1.26126 -1.64642 0
M  V30 5597 C 538.2 1.85257 -0.325823 0
M  V30 5598 O 537.558 1.66854 0.709194 0
M  V30 5599 C 537.606 2.35243 -2.73301 0
M  V30 5600 O 536.71 3.39646 -2.33911 0
M  V30 5601 H 536.051 0.371463 -0.550374 0
M  V30 5602 H 538.581 0.572696 -1.96421 0
M  V30 5603 H 538.591 2.80695 -2.96098 0
M  V30 5604 H 537.266 1.91574 -3.6915 0
M  V30 5605 H 535.843 2.99969 -2.21525 0
M  V30 5606 N 538.028 1.39524 0.732853 0
M  V30 5607 C 539.305 1.27373 1.48444 0
M  V30 5608 C 539.685 -0.115725 2.10783 0
M  V30 5609 O 539.033 -1.12713 1.98766 0
M  V30 5610 C 539.243 2.39966 2.53412 0
M  V30 5611 C 540.591 2.79384 3.19733 0
M  V30 5612 O 541.615 2.39431 2.63725 0
M  V30 5613 O 540.474 3.48353 4.21085 0
M  V30 5614 H 537.568 0.499272 0.659285 0
M  V30 5615 H 540.114 1.51403 0.766496 0
M  V30 5616 H 538.886 3.32845 2.05742 0
M  V30 5617 H 538.509 2.17612 3.32762 0
M  V30 5618 N 539.506 -0.963266 1.24736 0
M  V30 5619 C 540.753 -1.7068 1.0897 0
M  V30 5620 C 541.081 -1.90934 -0.370751 0
M  V30 5621 O 540.336 -1.47155 -1.29011 0
M  V30 5622 C 540.635 -3.09944 1.7796 0
M  V30 5623 C 540.301 -3.09518 3.27887 0
M  V30 5624 C 538.963 -3.09109 3.68789 0
M  V30 5625 C 541.315 -3.03509 4.23712 0
M  V30 5626 C 538.643 -3.00429 5.03944 0
M  V30 5627 C 540.995 -2.96371 5.5888 0
M  V30 5628 C 539.659 -2.94293 5.99123 0
M  V30 5629 H 538.929 -0.624564 0.398749 0
M  V30 5630 H 541.576 -1.12603 1.54896 0
M  V30 5631 H 539.881 -3.71513 1.2444 0
M  V30 5632 H 541.578 -3.66278 1.63222 0
M  V30 5633 H 538.168 -3.10603 2.95337 0
M  V30 5634 H 542.352 -3.0295 3.93109 0
M  V30 5635 H 537.608 -2.97183 5.34314 0
M  V30 5636 H 541.782 -2.90681 6.32833 0
M  V30 5637 H 539.409 -2.87322 7.03811 0
M  V30 5638 N 540.985 -1.06182 -1.16461 0
M  V30 5639 C 541.948 -0.675723 -2.19013 0
M  V30 5640 C 542.948 0.277963 -1.58379 0
M  V30 5641 O 544.138 0.0604962 -1.74095 0
M  V30 5642 C 541.27 0.00591459 -3.40899 0
M  V30 5643 H 542.463 -1.58353 -2.54685 0
M  V30 5644 H 540.016 -0.856908 -1.30716 0
M  V30 5645 H 540.751 0.92652 -3.10783 0
M  V30 5646 H 540.536 -0.67984 -3.86161 0
M  V30 5647 H 542.026 0.26181 -4.16778 0
M  V30 5648 N 542.463 1.3308 -0.844243 0
M  V30 5649 C 543.874 1.7992 -0.498566 0
M  V30 5650 C 544.225 1.69808 0.982834 0
M  V30 5651 O 543.35 1.25051 1.7661 0
M  V30 5652 C 543.945 3.26677 -0.898204 0
M  V30 5653 C 542.504 3.71513 -0.604583 0
M  V30 5654 C 541.651 2.54393 -1.10362 0
M  V30 5655 H 544.602 1.20526 -1.03244 0
M  V30 5656 H 544.623 3.79918 -0.21039 0
M  V30 5657 H 544.135 3.34004 -1.97643 0
M  V30 5658 H 542.236 3.69708 0.46335 0
M  V30 5659 H 542.349 4.64755 -1.16358 0
M  V30 5660 H 540.713 2.49246 -0.524273 0
M  V30 5661 H 541.496 2.6448 -2.18873 0
M  V30 5662 N 543.941 0.601185 1.45683 0
M  V30 5663 C 544.888 -0.121396 2.30481 0
M  V30 5664 C 545.858 -0.866232 1.41724 0
M  V30 5665 O 547.043 -0.85324 1.70659 0
M  V30 5666 C 544.183 -1.11704 3.26521 0
M  V30 5667 C 543.296 -0.373741 4.3038 0
M  V30 5668 C 542.431 -1.35854 5.13534 0
M  V30 5669 C 541.47 -0.602689 6.09126 0
M  V30 5670 N 540.607 -1.53645 6.85082 0
M  V30 5671 H 545.447 0.607732 2.91737 0
M  V30 5672 H 542.984 0.311502 1.43764 0
M  V30 5673 H 544.942 -1.70735 3.80664 0
M  V30 5674 H 543.572 -1.81366 2.67032 0
M  V30 5675 H 542.624 0.331962 3.78949 0
M  V30 5676 H 543.936 0.2163 4.98331 0
M  V30 5677 H 543.09 -2.02111 5.72046 0
M  V30 5678 H 541.829 -1.98251 4.45587 0
M  V30 5679 H 540.834 0.0735482 5.49751 0
M  V30 5680 H 542.059 0.0161467 6.79098 0
M  V30 5681 H 540.005 -2.14819 6.1983 0
M  V30 5682 H 539.922 -0.999688 7.49361 0
M  V30 5683 H 541.19 -2.1888 7.48139 0
M  V30 5684 N 545.419 -1.53889 0.339982 0
M  V30 5685 C 546.644 -2.05741 -0.261798 0
M  V30 5686 C 547.069 -1.21354 -1.43718 0
M  V30 5687 O 546.427 -0.22645 -1.7988 0
M  V30 5688 C 546.475 -3.54542 -0.658228 0
M  V30 5689 O 545.579 -3.7302 -1.75869 0
M  V30 5690 H 544.92 -0.662529 -0.0441672 0
M  V30 5691 H 547.45 -1.98568 0.493161 0
M  V30 5692 H 547.46 -3.9711 -0.936368 0
M  V30 5693 H 546.135 -4.15412 0.201358 0
M  V30 5694 H 544.712 -3.42355 -1.47809 0
M  V30 5695 N 546.897 -0.0685191 -1.57451 0
M  V30 5696 C 548.122 0.613919 -1.98106 0
M  V30 5697 C 548.547 1.62551 -0.946501 0
M  V30 5698 O 547.905 1.81085 0.0882824 0
M  V30 5699 C 547.953 1.26189 -3.378 0
M  V30 5700 O 547.057 2.37773 -3.36954 0
M  V30 5701 H 546.398 0.158163 -0.644888 0
M  V30 5702 H 548.928 -0.142063 -2.04106 0
M  V30 5703 H 548.938 1.60951 -3.74912 0
M  V30 5704 H 547.613 0.520625 -4.12629 0
M  V30 5705 H 546.19 2.04829 -3.11608 0
M  V30 5706 N 548.375 1.56261 0.205012 0
M  V30 5707 C 549.323 1.94631 1.27364 0
M  V30 5708 C 550.317 0.830434 1.47649 0
M  V30 5709 O 551.523 1.01538 1.48627 0
M  V30 5710 H 547.898 0.618755 0.427371 0
M  V30 5711 H 549.869 2.83768 0.922941 0
M  V30 5712 C 548.618 2.29358 2.61324 0
M  V30 5713 H 547.941 3.14744 2.46528 0
M  V30 5714 H 549.381 2.60076 3.34868 0
M  V30 5715 C 547.84 1.12461 3.17575 0
M  V30 5716 O 548.37 0.394407 3.99759 0
M  V30 5717 N 546.576 0.904036 2.7618 0
M  V30 5718 H 546.123 1.49956 2.09454 0
M  V30 5719 H 546.081 0.123662 3.14157 0
M  V30 5720 N 549.853 -0.472356 1.50355 0
M  V30 5721 C 551.101 -1.22211 1.60962 0
M  V30 5722 C 551.422 -1.92497 0.311439 0
M  V30 5723 O 550.692 -1.8405 -0.671002 0
M  V30 5724 H 549.272 -0.454092 0.593135 0
M  V30 5725 H 551.934 -0.544977 1.87126 0
M  V30 5726 H 551.03 -1.9707 2.42012 0
M  V30 5727 N 551.331 -1.39911 -0.725443 0
M  V30 5728 C 552.278 -1.39393 -1.83952 0
M  V30 5729 C 553.248 -0.252249 -1.64173 0
M  V30 5730 O 554.433 -0.44882 -1.85446 0
M  V30 5731 C 551.573 -1.25262 -3.21564 0
M  V30 5732 C 550.686 -2.49054 -3.52982 0
M  V30 5733 C 549.821 -2.27439 -4.80047 0
M  V30 5734 C 548.86 -3.46857 -5.04338 0
M  V30 5735 N 547.997 -3.24499 -6.22611 0
M  V30 5736 H 552.837 -2.34622 -1.83729 0
M  V30 5737 H 550.374 -1.16537 -0.897636 0
M  V30 5738 H 552.332 -1.15077 -4.01015 0
M  V30 5739 H 550.962 -0.33657 -3.21041 0
M  V30 5740 H 550.014 -2.69805 -2.6816 0
M  V30 5741 H 551.326 -3.37973 -3.66846 0
M  V30 5742 H 550.48 -2.14551 -5.67497 0
M  V30 5743 H 549.219 -1.35929 -4.68374 0
M  V30 5744 H 548.224 -3.60232 -4.15346 0
M  V30 5745 H 549.449 -4.3928 -5.17889 0
M  V30 5746 H 547.395 -2.35663 -6.12208 0
M  V30 5747 H 547.312 -4.06978 -6.37106 0
M  V30 5748 H 548.58 -3.15325 -7.12875 0
M  V30 5749 N 552.809 0.956637 -1.25245 0
M  V30 5750 C 554.225 1.22733 -1.02023 0
M  V30 5751 C 554.425 1.99761 0.264186 0
M  V30 5752 O 553.481 2.32814 0.977436 0
M  V30 5753 C 554.794 2.00367 -2.24217 0
M  V30 5754 C 556.342 2.13418 -2.28958 0
M  V30 5755 C 556.817 2.9445 -3.50803 0
M  V30 5756 N 558.308 3.02029 -3.51187 0
M  V30 5757 C 559.043 3.65116 -4.42129 0
M  V30 5758 N 558.539 4.2983 -5.43339 0
M  V30 5759 N 560.332 3.62237 -4.29815 0
M  V30 5760 H 552.483 0.441282 -2.07765 0
M  V30 5761 H 554.746 0.257686 -0.912306 0
M  V30 5762 H 554.452 1.51165 -3.17556 0
M  V30 5763 H 554.326 3.01077 -2.27228 0
M  V30 5764 H 556.713 2.61819 -1.36143 0
M  V30 5765 H 556.794 1.1202 -2.29968 0
M  V30 5766 H 556.438 2.46741 -4.43939 0
M  V30 5767 H 556.368 3.9607 -3.47039 0
M  V30 5768 H 558.859 2.56007 -2.77973 0
M  V30 5769 H 559.172 4.75819 -6.08947 0
M  V30 5770 H 557.517 4.28465 -5.47214 0
M  V30 5771 H 560.708 3.10863 -3.49974 0
M  V30 5772 H 560.881 4.11117 -5.00886 0
M  V30 5773 N 554.287 1.06798 1.15896 0
M  V30 5774 C 555.564 0.701057 1.82605 0
M  V30 5775 C 555.944 -0.817066 1.94646 0
M  V30 5776 O 555.292 -1.72933 1.49353 0
M  V30 5777 C 555.502 1.40895 3.19296 0
M  V30 5778 C 556.85 1.55744 3.95005 0
M  V30 5779 O 557.874 1.36927 3.28831 0
M  V30 5780 O 556.733 1.86658 5.13635 0
M  V30 5781 H 553.827 0.248791 0.78869 0
M  V30 5782 H 556.373 1.16857 1.23055 0
M  V30 5783 H 555.145 2.4439 3.05596 0
M  V30 5784 H 554.768 0.931847 3.86526 0
M  V30 5785 N 555.766 -1.3263 0.851289 0
M  V30 5786 C 557.012 -1.98061 0.462963 0
M  V30 5787 C 557.367 -1.66162 -0.969948 0
M  V30 5788 O 556.66 -0.937723 -1.67085 0
M  V30 5789 C 556.854 -3.51713 0.635015 0
M  V30 5790 C 556.683 -3.98544 2.0831 0
M  V30 5791 C 555.453 -4.25787 2.72091 0
M  V30 5792 C 557.651 -4.13858 3.0533 0
M  V30 5793 N 555.633 -4.58842 4.07845 0
M  V30 5794 C 557.004 -4.50412 4.26063 0
M  V30 5795 C 559.059 -3.96182 3.0157 0
M  V30 5796 C 557.762 -4.71136 5.43529 0
M  V30 5797 C 559.788 -4.18088 4.18278 0
M  V30 5798 C 559.15 -4.54956 5.37768 0
M  V30 5799 H 555.249 -0.750976 0.218082 0
M  V30 5800 H 557.833 -1.60514 1.10197 0
M  V30 5801 H 556.004 -3.88391 0.0257298 0
M  V30 5802 H 557.736 -4.04118 0.216915 0
M  V30 5803 H 554.491 -4.17734 2.23149 0
M  V30 5804 H 554.915 -4.7956 4.77862 0
M  V30 5805 H 559.557 -3.66783 2.1031 0
M  V30 5806 H 557.275 -4.9939 6.35323 0
M  V30 5807 H 560.861 -4.05918 4.168 0
M  V30 5808 H 559.741 -4.71567 6.26573 0
M  V30 5809 N 557.244 -0.608902 -1.45362 0
M  V30 5810 C 558.472 -0.111013 -2.06602 0
M  V30 5811 C 558.887 1.20516 -1.45332 0
M  V30 5812 O 558.244 1.73437 -0.567978 0
M  V30 5813 C 558.295 0.033688 -3.61484 0
M  V30 5814 O 558.016 -1.23041 -4.20467 0
M  V30 5815 C 559.517 0.562882 -4.39712 0
M  V30 5816 H 556.737 -0.0694453 -0.667397 0
M  V30 5817 H 559.281 -0.837008 -1.86586 0
M  V30 5818 H 557.436 0.710016 -3.80838 0
M  V30 5819 H 557.85 -1.06094 -5.13658 0
M  V30 5820 H 559.324 0.613213 -5.48583 0
M  V30 5821 H 559.801 1.58543 -4.09586 0
M  V30 5822 H 560.407 -0.0794454 -4.25226 0
M  V30 5823 N 558.722 1.53707 -0.348139 0
M  V30 5824 C 559.95 2.05406 0.248224 0
M  V30 5825 C 560.365 1.22282 1.43849 0
M  V30 5826 O 559.722 0.259244 1.80649 0
M  V30 5827 C 559.773 3.55446 0.658793 0
M  V30 5828 O 559.494 4.35417 -0.484149 0
M  V30 5829 C 560.995 4.23335 1.31539 0
M  V30 5830 H 558.215 0.669344 0.0471075 0
M  V30 5831 H 560.759 1.98257 -0.501456 0
M  V30 5832 H 558.914 3.62803 1.35841 0
M  V30 5833 H 559.328 5.24268 -0.155949 0
M  V30 5834 H 560.802 5.29692 1.55338 0
M  V30 5835 H 561.279 3.75967 2.27036 0
M  V30 5836 H 561.885 4.20184 0.657683 0
M  V30 5837 N 560.2 0.0768682 1.57412 0
M  V30 5838 C 561.425 -0.603404 1.98428 0
M  V30 5839 C 561.85 -1.62047 0.955108 0
M  V30 5840 O 561.208 -1.81129 -0.0786778 0
M  V30 5841 C 561.256 -1.24396 3.38464 0
M  V30 5842 O 560.36 -2.35982 3.3821 0
M  V30 5843 H 559.701 -0.154741 0.645718 0
M  V30 5844 H 562.231 0.152885 2.04028 0
M  V30 5845 H 562.241 -1.5896 3.7576 0
M  V30 5846 H 560.916 -0.498735 4.12899 0
M  V30 5847 H 559.493 -2.03173 3.1269 0
M  V30 5848 N 561.678 -1.56367 -0.196722 0
M  V30 5849 C 562.908 -1.84371 -0.932254 0
M  V30 5850 C 563.316 -0.657013 -1.77426 0
M  V30 5851 O 562.659 0.383576 -1.79651 0
M  V30 5852 C 562.721 -3.06454 -1.87952 0
M  V30 5853 C 562.385 -4.40425 -1.21962 0
M  V30 5854 C 563.382 -5.16457 -0.597343 0
M  V30 5855 C 561.067 -4.8716 -1.22396 0
M  V30 5856 C 563.061 -6.37399 0.0117913 0
M  V30 5857 C 560.748 -6.08038 -0.610995 0
M  V30 5858 C 561.746 -6.83 0.00580487 0
M  V30 5859 O 561.434 -8.01589 0.609173 0
M  V30 5860 H 561.166 -0.616377 -0.277589 0
M  V30 5861 H 563.72 -2.04329 -0.209452 0
M  V30 5862 H 561.95 -2.82377 -2.64197 0
M  V30 5863 H 563.639 -3.21118 -2.48271 0
M  V30 5864 H 564.405 -4.81445 -0.586142 0
M  V30 5865 H 560.284 -4.2877 -1.69345 0
M  V30 5866 H 563.828 -6.9585 0.493836 0
M  V30 5867 H 559.725 -6.42519 -0.619693 0
M  V30 5868 H 560.493 -8.16935 0.505919 0
M  V30 5869 N 563.156 0.464375 -1.50603 0
M  V30 5870 C 564.103 1.56152 -1.69956 0
M  V30 5871 C 565.073 1.57046 -0.54091 0
M  V30 5872 O 566.258 1.74473 -0.772258 0
M  V30 5873 C 563.398 2.94079 -1.80586 0
M  V30 5874 C 562.511 3.02923 -3.07996 0
M  V30 5875 C 561.646 4.31806 -3.09382 0
M  V30 5876 C 560.685 4.34417 -4.31218 0
M  V30 5877 N 559.822 5.54782 -4.30304 0
M  V30 5878 H 564.662 1.38955 -2.6362 0
M  V30 5879 H 562.199 0.675482 -1.30674 0
M  V30 5880 H 564.157 3.74073 -1.8473 0
M  V30 5881 H 562.787 3.09896 -0.903556 0
M  V30 5882 H 561.839 2.1576 -3.13292 0
M  V30 5883 H 563.151 3.00712 -3.97962 0
M  V30 5884 H 562.305 5.20153 -3.12292 0
M  V30 5885 H 561.044 4.36636 -2.17257 0
M  V30 5886 H 560.049 3.44467 -4.28512 0
M  V30 5887 H 561.274 4.31273 -5.24576 0
M  V30 5888 H 559.22 5.60384 -3.41037 0
M  V30 5889 H 559.137 5.54339 -5.14047 0
M  V30 5890 H 560.405 6.45235 -4.3737 0
M  V30 5891 N 564.634 1.40294 0.718013 0
M  V30 5892 C 566.05 1.2227 1.02577 0
M  V30 5893 C 566.25 0.0961976 2.0127 0
M  V30 5894 O 565.306 -0.546695 2.46511 0
M  V30 5895 C 566.619 2.56348 1.57182 0
M  V30 5896 C 568.167 2.6334 1.69178 0
M  V30 5897 C 568.642 3.9768 2.27188 0
M  V30 5898 N 570.133 3.99409 2.34578 0
M  V30 5899 C 570.868 5.00141 2.8044 0
M  V30 5900 N 570.364 6.11268 3.26073 0
M  V30 5901 N 572.157 4.87511 2.79802 0
M  V30 5902 H 564.308 2.12304 0.0637899 0
M  V30 5903 H 566.571 0.943632 0.0909036 0
M  V30 5904 H 566.277 3.3942 0.921262 0
M  V30 5905 H 566.151 2.77266 2.55741 0
M  V30 5906 H 568.538 1.80641 2.33351 0
M  V30 5907 H 568.619 2.46255 0.692247 0
M  V30 5908 H 568.263 4.80817 1.63638 0
M  V30 5909 H 568.193 4.12093 3.27852 0
M  V30 5910 H 570.684 3.19162 2.02346 0
M  V30 5911 H 570.997 6.84023 3.59628 0
M  V30 5912 H 569.342 6.14837 3.24038 0
M  V30 5913 H 572.533 3.9979 2.43487 0
M  V30 5914 H 572.706 5.66158 3.15228 0
M  V30 5915 N 566.112 -0.949982 1.2575 0
M  V30 5916 C 567.044 -2.05088 1.02331 0
M  V30 5917 C 568.057 -1.62795 -0.0133247 0
M  V30 5918 O 569.246 -1.77067 0.225759 0
M  V30 5919 C 566.346 -3.34794 0.525924 0
M  V30 5920 C 565.519 -4.05903 1.62978 0
M  V30 5921 C 564.578 -5.1388 1.13196 0
M  V30 5922 O 563.604 -5.39072 1.82729 0
M  V30 5923 N 564.806 -5.80495 -0.0242926 0
M  V30 5924 H 567.571 -2.25747 1.97125 0
M  V30 5925 H 565.132 -1.11886 1.17018 0
M  V30 5926 H 567.124 -4.04312 0.177263 0
M  V30 5927 H 565.694 -3.10872 -0.328202 0
M  V30 5928 H 564.914 -3.3042 2.1498 0
M  V30 5929 H 566.202 -4.50166 2.37124 0
M  V30 5930 H 565.6 -5.62454 -0.605184 0
M  V30 5931 H 564.157 -6.51043 -0.313947 0
M  V30 5932 N 567.59 -1.07411 -1.15328 0
M  V30 5933 C 568.52 -0.716472 -2.22236 0
M  V30 5934 C 569.501 0.296373 -1.67498 0
M  V30 5935 O 570.686 0.168989 -1.93463 0
M  V30 5936 C 567.816 -0.114142 -3.47112 0
M  V30 5937 C 566.77 -1.05421 -4.14814 0
M  V30 5938 C 566.096 -0.314604 -5.33774 0
M  V30 5939 C 567.396 -2.38808 -4.64508 0
M  V30 5940 H 569.09 -1.61029 -2.52408 0
M  V30 5941 H 566.636 -0.775702 -1.21321 0
M  V30 5942 H 568.589 0.148001 -4.2114 0
M  V30 5943 H 567.313 0.814755 -3.16274 0
M  V30 5944 H 565.972 -1.30128 -3.42728 0
M  V30 5945 H 565.62 0.617772 -4.99192 0
M  V30 5946 H 565.32 -0.941209 -5.80013 0
M  V30 5947 H 566.844 -0.0602747 -6.1057 0
M  V30 5948 H 568.258 -2.18424 -5.3006 0
M  V30 5949 H 566.655 -2.97069 -5.21412 0
M  V30 5950 H 567.725 -3.01067 -3.80114 0
M  V30 5951 N 569.068 1.32177 -0.85831 0
M  V30 5952 C 569.978 2.32561 -0.308606 0
M  V30 5953 C 570.994 1.64209 0.575462 0
M  V30 5954 O 572.17 1.95719 0.474961 0
M  V30 5955 C 569.235 3.43207 0.490909 0
M  V30 5956 C 568.296 4.27243 -0.419733 0
M  V30 5957 C 567.529 5.32605 0.341719 0
M  V30 5958 O 567.752 5.48332 1.57125 0
M  V30 5959 O 566.686 6.0118 -0.294379 0
M  V30 5960 H 570.512 2.81477 -1.14037 0
M  V30 5961 H 568.097 1.35866 -0.621349 0
M  V30 5962 H 569.979 4.10677 0.944574 0
M  V30 5963 H 568.654 2.96474 1.29941 0
M  V30 5964 H 567.561 3.62569 -0.921652 0
M  V30 5965 H 568.894 4.7751 -1.19352 0
M  V30 5966 N 570.547 0.616602 1.45037 0
M  V30 5967 C 571.794 0.115331 2.02171 0
M  V30 5968 C 572.122 -1.25748 1.48383 0
M  V30 5969 O 571.377 -1.84511 0.652229 0
M  V30 5970 C 571.676 0.0356829 3.57382 0
M  V30 5971 C 571.342 1.34535 4.30362 0
M  V30 5972 C 570.004 1.70408 4.50016 0
M  V30 5973 C 572.356 2.21049 4.72003 0
M  V30 5974 C 569.684 2.92529 5.0857 0
M  V30 5975 C 572.036 3.42427 5.31908 0
M  V30 5976 C 570.7 3.78541 5.49784 0
M  V30 5977 H 569.97 0.0422024 0.739797 0
M  V30 5978 H 572.617 0.80002 1.73988 0
M  V30 5979 H 570.922 -0.732314 3.84895 0
M  V30 5980 H 572.619 -0.368463 3.99304 0
M  V30 5981 H 569.209 1.05615 4.15383 0
M  V30 5982 H 573.393 1.94632 4.56544 0
M  V30 5983 H 568.649 3.20605 5.20598 0
M  V30 5984 H 572.823 4.09709 5.63127 0
M  V30 5985 H 570.45 4.73255 5.94923 0
M  V30 5986 N 572.025 -1.5352 0.356285 0
M  V30 5987 C 573.255 -2.05236 -0.236983 0
M  V30 5988 C 573.663 -1.23016 -1.43749 0
M  V30 5989 O 573.006 -0.2615 -1.81829 0
M  V30 5990 C 573.068 -3.52549 -0.7035 0
M  V30 5991 C 572.732 -4.55425 0.379059 0
M  V30 5992 C 573.729 -5.0524 1.22592 0
M  V30 5993 C 571.414 -4.99425 0.536638 0
M  V30 5994 C 573.408 -5.97647 2.21578 0
M  V30 5995 C 571.095 -5.9164 1.52988 0
M  V30 5996 C 572.093 -6.4064 2.3679 0
M  V30 5997 O 571.781 -7.31039 3.34421 0
M  V30 5998 H 571.513 -0.674346 -0.047254 0
M  V30 5999 H 574.067 -1.98962 0.510238 0
M  V30 6000 H 572.297 -3.56331 -1.50217 0
M  V30 6001 H 573.986 -3.87171 -1.21873 0
M  V30 6002 H 574.752 -4.72002 1.11532 0
M  V30 6003 H 570.631 -4.60879 -0.105834 0
M  V30 6004 H 574.175 -6.35816 2.87025 0
M  V30 6005 H 570.072 -6.24293 1.64099 0
M  V30 6006 H 570.84 -7.49009 3.30041 0
M  V30 6007 N 573.503 -0.0852151 -1.57369 0
M  V30 6008 C 574.435 0.907099 -2.10486 0
M  V30 6009 C 575.448 1.25259 -1.03991 0
M  V30 6010 O 576.637 1.20743 -1.31467 0
M  V30 6011 C 573.737 2.21908 -2.56145 0
M  V30 6012 C 572.91 2.05042 -3.86363 0
M  V30 6013 C 571.969 3.19664 -4.17973 0
M  V30 6014 O 570.995 2.94062 -4.87356 0
M  V30 6015 N 572.197 4.45151 -3.72587 0
M  V30 6016 H 574.962 0.453505 -2.96249 0
M  V30 6017 H 572.523 0.100157 -1.6159 0
M  V30 6018 H 574.515 2.97519 -2.74343 0
M  V30 6019 H 573.085 2.58723 -1.75446 0
M  V30 6020 H 572.305 1.13819 -3.77411 0
M  V30 6021 H 573.593 1.91039 -4.71574 0
M  V30 6022 H 572.991 4.68834 -3.16561 0
M  V30 6023 H 571.548 5.17744 -3.9596 0
M  V30 6024 N 574.981 1.5647 0.188427 0
M  V30 6025 C 576.227 1.82181 0.904534 0
M  V30 6026 C 576.582 0.663258 1.80606 0
M  V30 6027 O 575.875 -0.341231 1.88537 0
M  V30 6028 C 576.069 3.11596 1.7505 0
M  V30 6029 C 575.898 4.39928 0.932372 0
M  V30 6030 C 574.668 5.01554 0.61417 0
M  V30 6031 C 576.866 5.13527 0.281936 0
M  V30 6032 N 574.848 6.13499 -0.221896 0
M  V30 6033 C 576.219 6.18603 -0.416037 0
M  V30 6034 C 578.274 4.97505 0.198345 0
M  V30 6035 C 576.977 7.09394 -1.18965 0
M  V30 6036 C 579.003 5.88725 -0.561887 0
M  V30 6037 C 578.365 6.93251 -1.24828 0
M  V30 6038 H 574.464 0.717858 0.310168 0
M  V30 6039 H 577.048 1.93932 0.172757 0
M  V30 6040 H 575.219 3.01068 2.45383 0
M  V30 6041 H 576.951 3.25369 2.4066 0
M  V30 6042 H 573.706 4.64174 0.940187 0
M  V30 6043 H 574.13 6.74065 -0.629735 0
M  V30 6044 H 578.772 4.16716 0.714665 0
M  V30 6045 H 576.49 7.8964 -1.71737 0
M  V30 6046 H 580.076 5.78401 -0.628009 0
M  V30 6047 H 578.956 7.62618 -1.82712 0
M  V30 6048 N 576.459 -0.456382 1.50847 0
M  V30 6049 C 577.389 -1.56025 1.73719 0
M  V30 6050 C 578.37 -1.5967 0.586473 0
M  V30 6051 O 579.555 -1.75702 0.827185 0
M  V30 6052 C 576.685 -2.94251 1.84483 0
M  V30 6053 C 575.639 -3.05471 2.99786 0
M  V30 6054 C 574.965 -4.45489 2.95709 0
M  V30 6055 C 576.265 -2.81318 4.40065 0
M  V30 6056 H 577.959 -1.37138 2.66146 0
M  V30 6057 H 575.505 -0.658299 1.28072 0
M  V30 6058 H 577.458 -3.71417 1.99067 0
M  V30 6059 H 576.182 -3.14328 0.886891 0
M  V30 6060 H 574.841 -2.30741 2.84876 0
M  V30 6061 H 574.489 -4.62505 1.97732 0
M  V30 6062 H 574.189 -4.53929 3.73125 0
M  V30 6063 H 575.713 -5.24655 3.12362 0
M  V30 6064 H 577.127 -3.48226 4.55425 0
M  V30 6065 H 575.524 -3.01188 5.19043 0
M  V30 6066 H 576.594 -1.7706 4.51418 0
M  V30 6067 N 577.937 -1.40673 -0.710563 0
M  V30 6068 C 578.869 -1.37256 -1.83558 0
M  V30 6069 C 579.882 -0.277133 -1.60424 0
M  V30 6070 O 581.071 -0.537831 -1.70205 0
M  V30 6071 C 578.171 -1.1144 -3.20054 0
M  V30 6072 C 577.344 -2.32734 -3.70342 0
M  V30 6073 C 576.403 -2.03002 -4.85465 0
M  V30 6074 O 575.429 -2.75912 -4.97857 0
M  V30 6075 N 576.631 -1.01105 -5.71627 0
M  V30 6076 H 579.396 -2.34215 -1.86985 0
M  V30 6077 H 576.957 -1.35091 -0.892301 0
M  V30 6078 H 578.949 -0.895265 -3.94673 0
M  V30 6079 H 577.519 -0.231307 -3.11743 0
M  V30 6080 H 576.739 -2.70446 -2.86798 0
M  V30 6081 H 578.027 -3.13584 -4.00678 0
M  V30 6082 H 577.425 -0.407303 -5.64232 0
M  V30 6083 H 575.982 -0.85182 -6.4621 0
M  V30 6084 N 579.415 0.9433 -1.26252 0
M  V30 6085 C 580.64 1.72898 -1.14547 0
M  V30 6086 C 581.065 1.85761 0.295743 0
M  V30 6087 O 580.423 1.3463 1.21427 0
M  V30 6088 C 580.471 3.11471 -1.8171 0
M  V30 6089 O 579.575 3.97336 -1.10445 0
M  V30 6090 H 578.916 0.530555 -0.399259 0
M  V30 6091 H 581.446 1.18159 -1.67032 0
M  V30 6092 H 581.456 3.61872 -1.88449 0
M  V30 6093 H 580.131 3.01425 -2.86558 0
M  V30 6094 H 578.708 3.55788 -1.11666 0
M  V30 6095 N 580.893 1.08022 1.14757 0
M  V30 6096 C 581.856 0.71048 2.1791 0
M  V30 6097 C 582.856 -0.252731 1.58801 0
M  V30 6098 O 584.046 -0.0327915 1.74169 0
M  V30 6099 C 581.178 0.0483203 3.40866 0
M  V30 6100 H 582.371 1.62384 2.52134 0
M  V30 6101 H 579.924 0.877595 1.29337 0
M  V30 6102 H 580.659 -0.876959 3.12218 0
M  V30 6103 H 580.444 0.741189 3.85031 0
M  V30 6104 H 581.934 -0.195471 4.17142 0
M  V30 6105 N 582.371 -1.3172 0.865308 0
M  V30 6106 C 583.281 -2.32394 0.320935 0
M  V30 6107 C 584.297 -1.64511 -0.566746 0
M  V30 6108 O 585.473 -1.95969 -0.464575 0
M  V30 6109 C 582.538 -3.43462 -0.472701 0
M  V30 6110 C 581.599 -4.27015 0.442385 0
M  V30 6111 C 580.832 -5.32779 -0.313469 0
M  V30 6112 O 581.055 -5.49158 -1.54214 0
M  V30 6113 O 579.989 -6.01015 0.326257 0
M  V30 6114 H 583.815 -2.80868 1.15528 0
M  V30 6115 H 581.4 -1.35535 0.628545 0
M  V30 6116 H 583.282 -4.11172 -0.922781 0
M  V30 6117 H 581.957 -2.97159 -1.28367 0
M  V30 6118 H 580.864 -3.62075 0.940866 0
M  V30 6119 H 582.197 -4.76871 1.21882 0
M  V30 6120 N 583.85 -0.624285 -1.44708 0
M  V30 6121 C 585.098 -0.125802 -2.01708 0
M  V30 6122 C 585.418 1.2543 -1.49306 0
M  V30 6123 O 584.689 1.83198 -0.693924 0
M  V30 6124 H 583.269 -0.0435161 -0.745731 0
M  V30 6125 H 585.931 -0.809446 -1.77296 0
M  V30 6126 H 585.027 -0.0882734 -3.11975 0
M  V30 6127 N 585.328 1.53329 -0.364422 0
M  V30 6128 C 586.576 2.00842 0.225189 0
M  V30 6129 C 586.897 1.25345 1.49378 0
M  V30 6130 O 586.167 0.366396 1.92443 0
M  V30 6131 H 584.747 0.742009 0.0862027 0
M  V30 6132 H 587.409 1.8863 -0.490389 0
M  V30 6133 H 586.505 3.08795 0.452987 0
M  V30 6134 N 586.806 0.0935595 1.57322 0
M  V30 6135 C 588.055 -0.570191 1.93473 0
M  V30 6136 C 588.368 -1.69434 0.977318 0
M  V30 6137 O 589.574 -2.41914 1.23248 0
M  V30 6138 C 588.03 -1.06564 3.43762 0
M  V30 6139 C 587.638 0.0286723 4.47991 0
M  V30 6140 C 589.382 -1.70221 3.88877 0
M  V30 6141 C 587.289 -0.482046 5.89432 0
M  V30 6142 H 586.219 -0.216764 0.72217 0
M  V30 6143 H 588.87 0.169313 1.82717 0
M  V30 6144 H 587.252 -1.85878 3.49664 0
M  V30 6145 H 588.426 0.804106 4.5373 0
M  V30 6146 H 586.741 0.570336 4.12476 0
M  V30 6147 H 589.338 -2.09502 4.91948 0
M  V30 6148 H 589.681 -2.57078 3.27439 0
M  V30 6149 H 590.214 -0.974919 3.85668 0
M  V30 6150 H 586.953 0.349871 6.54566 0
M  V30 6151 H 586.473 -1.22452 5.87167 0
M  V30 6152 H 588.152 -0.951508 6.39965 0
M  V30 6153 N 588.284 -1.56567 -0.180126 0
M  V30 6154 C 589.247 -1.94852 -1.20686 0
M  V30 6155 C 590.247 -0.831212 -1.3765 0
M  V30 6156 O 591.437 -1.09841 -1.35206 0
M  V30 6157 C 588.569 -2.23565 -2.57355 0
M  V30 6158 H 589.762 -2.86722 -0.879225 0
M  V30 6159 H 587.315 -1.50489 -0.422237 0
M  V30 6160 H 588.05 -1.34381 -2.95148 0
M  V30 6161 H 587.835 -3.04999 -2.46411 0
M  V30 6162 H 589.325 -2.54137 -3.31367 0
M  V30 6163 N 589.762 0.448376 -1.51087 0
M  V30 6164 C 591.01 1.19635 -1.62886 0
M  V30 6165 C 591.331 1.91977 -0.342024 0
M  V30 6166 O 590.601 1.85094 0.641636 0
M  V30 6167 H 589.181 0.444598 -0.600285 0
M  V30 6168 H 591.843 0.515138 -1.87969 0
M  V30 6169 H 590.939 1.93194 -2.45117 0
M  V30 6170 N 591.24 1.41047 0.703093 0
M  V30 6171 C 592.488 1.39723 1.4602 0
M  V30 6172 C 592.809 0.00461257 1.94999 0
M  V30 6173 O 592.079 -0.952292 1.71196 0
M  V30 6174 H 590.659 0.514281 0.541779 0
M  V30 6175 H 593.321 1.76217 0.832678 0
M  V30 6176 H 592.417 2.07982 2.32701 0
M  V30 6177 N 592.718 -0.936591 1.26751 0
M  V30 6178 C 593.681 -2.01752 1.08761 0
M  V30 6179 C 594.681 -1.60763 0.0344435 0
M  V30 6180 O 595.871 -1.71963 0.278258 0
M  V30 6181 C 593.003 -3.34543 0.655271 0
M  V30 6182 H 594.196 -2.19143 2.04735 0
M  V30 6183 H 591.749 -1.11618 1.09413 0
M  V30 6184 H 592.484 -3.22851 -0.30626 0
M  V30 6185 H 592.269 -3.65647 1.41578 0
M  V30 6186 H 593.759 -4.13944 0.551378 0
M  V30 6187 N 594.196 -1.08629 -1.14182 0
M  V30 6188 C 595.424 -0.838889 -1.8913 0
M  V30 6189 C 595.839 0.609153 -1.78703 0
M  V30 6190 O 595.196 1.41876 -1.14794 0
M  V30 6191 C 595.247 -1.25477 -3.39025 0
M  V30 6192 O 594.968 -2.64601 -3.49167 0
M  V30 6193 C 596.469 -1.03856 -4.30963 0
M  V30 6194 H 593.689 -0.302377 -0.599007 0
M  V30 6195 H 596.233 -1.44615 -1.44592 0
M  V30 6196 H 594.388 -0.691571 -3.81177 0
M  V30 6197 H 594.802 -2.81922 -4.42289 0
M  V30 6198 H 596.276 -1.37892 -5.345 0
M  V30 6199 H 596.753 0.0242522 -4.39193 0
M  V30 6200 H 597.359 -1.58731 -3.94569 0
M  V30 6201 N 595.674 1.31259 -0.872281 0
M  V30 6202 C 596.622 2.30404 -0.318897 0
M  V30 6203 C 597.616 1.5962 0.567267 0
M  V30 6204 O 598.822 1.74204 0.453111 0
M  V30 6205 H 595.197 0.747243 -0.0844474 0
M  V30 6206 H 597.168 2.74549 -1.16899 0
M  V30 6207 C 595.917 3.44608 0.462683 0
M  V30 6208 H 595.24 3.99248 -0.209936 0
M  V30 6209 H 596.68 4.1609 0.815187 0
M  V30 6210 C 595.139 2.93456 1.65485 0
M  V30 6211 O 595.669 2.92418 2.75417 0
M  V30 6212 N 593.875 2.49628 1.48776 0
M  V30 6213 H 593.422 2.50671 0.593452 0
M  V30 6214 H 593.38 2.15759 2.28682 0
M  V30 6215 N 597.152 0.631951 1.44375 0
M  V30 6216 C 598.377 0.142146 2.06912 0
M  V30 6217 C 598.802 -1.17456 1.4692 0
M  V30 6218 O 598.16 -1.72074 0.570975 0
M  V30 6219 C 598.208 0.0417952 3.60576 0
M  V30 6220 O 597.312 -1.00194 4.00044 0
M  V30 6221 H 596.653 0.0851491 0.658518 0
M  V30 6222 H 599.183 0.868863 1.85235 0
M  V30 6223 H 599.193 -0.148517 4.0773 0
M  V30 6224 H 597.868 1.0031 4.03622 0
M  V30 6225 H 596.445 -0.786131 3.64519 0
M  V30 6226 N 598.631 -1.53133 0.372548 0
M  V30 6227 C 599.877 -2.02336 -0.207823 0
M  V30 6228 C 600.232 -1.25477 -1.45853 0
M  V30 6229 O 599.525 -0.341971 -1.88524 0
M  V30 6230 C 599.719 -3.53206 -0.545938 0
M  V30 6231 C 599.548 -4.44674 0.670454 0
M  V30 6232 C 598.318 -4.91217 1.18465 0
M  V30 6233 C 600.516 -4.90772 1.53777 0
M  V30 6234 N 598.498 -5.66711 2.36034 0
M  V30 6235 C 599.869 -5.64678 2.56004 0
M  V30 6236 C 601.924 -4.72836 1.55983 0
M  V30 6237 C 600.627 -6.22555 3.60303 0
M  V30 6238 C 602.653 -5.31583 2.59179 0
M  V30 6239 C 602.015 -6.05381 3.6013 0
M  V30 6240 H 598.114 -0.781048 -0.0385783 0
M  V30 6241 H 600.698 -1.87665 0.518664 0
M  V30 6242 H 598.869 -3.68024 -1.24149 0
M  V30 6243 H 600.601 -3.89123 -1.112 0
M  V30 6244 H 597.356 -4.67652 0.748205 0
M  V30 6245 H 597.78 -6.09117 2.95475 0
M  V30 6246 H 602.422 -4.15299 0.792877 0
M  V30 6247 H 600.14 -6.79183 4.37876 0
M  V30 6248 H 603.726 -5.19595 2.61749 0
M  V30 6249 H 602.606 -6.50028 4.38672 0
M  V30 6250 N 600.109 -0.101901 -1.5727 0
M  V30 6251 C 601.057 0.872034 -2.15635 0
M  V30 6252 C 602.051 1.28742 -1.10099 0
M  V30 6253 O 603.257 1.26116 -1.28432 0
M  V30 6254 H 599.632 0.299269 -0.689886 0
M  V30 6255 H 601.603 0.355137 -2.96279 0
M  V30 6256 C 600.352 2.11886 -2.7568 0
M  V30 6257 H 599.675 1.80813 -3.56576 0
M  V30 6258 H 601.115 2.78077 -3.20077 0
M  V30 6259 C 599.574 2.89739 -1.7191 0
M  V30 6260 O 600.104 3.84522 -1.16213 0
M  V30 6261 N 598.31 2.53407 -1.42245 0
M  V30 6262 H 597.857 1.76398 -1.87727 0
M  V30 6263 H 597.815 3.05795 -0.730529 0
M  V30 6264 N 601.587 1.56661 0.17182 0
M  V30 6265 C 602.835 1.81606 0.886774 0
M  V30 6266 C 603.156 0.678818 1.82803 0
M  V30 6267 O 602.426 -0.301354 1.93568 0
M  V30 6268 H 601.006 0.669934 0.330451 0
M  V30 6269 H 603.668 1.94142 0.171757 0
M  V30 6270 H 602.764 2.75634 1.46398 0
M  V30 6271 N 603.065 -0.440357 1.51323 0
M  V30 6272 C 604.481 -0.7766 1.39431 0
M  V30 6273 C 604.681 -1.95838 0.474296 0
M  V30 6274 O 603.737 -2.52398 -0.0716692 0
M  V30 6275 C 605.05 -1.05981 2.81405 0
M  V30 6276 C 606.598 -1.16442 2.90534 0
M  V30 6277 C 607.073 -1.48058 4.33408 0
M  V30 6278 N 608.564 -1.54988 4.36501 0
M  V30 6279 C 609.299 -1.81017 5.44078 0
M  V30 6280 N 608.795 -2.04858 6.61819 0
M  V30 6281 N 610.588 -1.82774 5.31554 0
M  V30 6282 H 602.739 0.338006 2.09693 0
M  V30 6283 H 605.002 0.0888072 0.943831 0
M  V30 6284 H 604.708 -0.264173 3.50706 0
M  V30 6285 H 604.582 -1.98822 3.20546 0
M  V30 6286 H 606.969 -1.95068 2.21432 0
M  V30 6287 H 607.05 -0.215088 2.54894 0
M  V30 6288 H 606.694 -0.699605 5.03059 0
M  V30 6289 H 606.624 -2.44192 4.66559 0
M  V30 6290 H 609.115 -1.38479 3.51613 0
M  V30 6291 H 609.428 -2.2408 7.396 0
M  V30 6292 H 607.773 -2.02187 6.6494 0
M  V30 6293 H 610.964 -1.63665 4.38556 0
M  V30 6294 H 611.137 -2.02722 6.15474 0
M  V30 6295 N 604.543 -1.41418 -0.695603 0
M  V30 6296 C 605.773 -1.43921 -1.48224 0
M  V30 6297 C 606.181 -0.0428855 -1.89151 0
M  V30 6298 O 605.524 0.948138 -1.5734 0
M  V30 6299 C 605.586 -2.28466 -2.77567 0
M  V30 6300 C 605.25 -3.76629 -2.58844 0
M  V30 6301 C 606.247 -4.6879 -2.24793 0
M  V30 6302 C 603.932 -4.2067 -2.74485 0
M  V30 6303 C 605.926 -6.02981 -2.06622 0
M  V30 6304 C 603.613 -5.54926 -2.55931 0
M  V30 6305 C 604.611 -6.45897 -2.2205 0
M  V30 6306 O 604.299 -7.77675 -2.03657 0
M  V30 6307 H 604.031 -0.492252 -0.463318 0
M  V30 6308 H 606.585 -1.86347 -0.863952 0
M  V30 6309 H 604.815 -1.80853 -3.41802 0
M  V30 6310 H 606.504 -2.2267 -3.39371 0
M  V30 6311 H 607.27 -4.36055 -2.12323 0
M  V30 6312 H 603.149 -3.50167 -2.9984 0
M  V30 6313 H 606.693 -6.73951 -1.80099 0
M  V30 6314 H 602.59 -5.8724 -2.67991 0
M  V30 6315 H 603.358 -7.88819 -2.1842 0
M  V30 6316 N 606.021 0.929856 -1.27246 0
M  V30 6317 C 606.931 2.0636 -1.11592 0
M  V30 6318 C 607.947 1.73938 -0.046496 0
M  V30 6319 O 609.123 1.9981 -0.252544 0
M  V30 6320 C 606.188 3.38213 -0.762437 0
M  V30 6321 C 605.249 3.84346 -1.9125 0
M  V30 6322 C 604.482 5.09906 -1.57579 0
M  V30 6323 O 604.705 5.68354 -0.482694 0
M  V30 6324 O 603.639 5.51359 -2.41426 0
M  V30 6325 H 607.465 2.22478 -2.0673 0
M  V30 6326 H 605.05 1.04865 -1.06413 0
M  V30 6327 H 606.932 4.1741 -0.57854 0
M  V30 6328 H 605.607 3.23307 0.159439 0
M  V30 6329 H 604.514 3.06045 -2.15144 0
M  V30 6330 H 605.847 4.0379 -2.81451 0
M  V30 6331 N 607.499 1.09233 1.13605 0
M  V30 6332 C 608.446 0.729921 2.18954 0
M  V30 6333 C 609.416 -0.287916 1.63586 0
M  V30 6334 O 610.601 -0.170003 1.90041 0
M  V30 6335 C 607.741 0.154489 3.44754 0
M  V30 6336 C 606.854 1.22613 4.14234 0
M  V30 6337 C 605.989 0.613657 5.27644 0
M  V30 6338 C 605.028 1.66674 5.8897 0
M  V30 6339 N 604.165 1.07545 6.93814 0
M  V30 6340 H 609.005 1.63257 2.49302 0
M  V30 6341 H 606.542 0.815693 1.22413 0
M  V30 6342 H 608.5 -0.196923 4.16735 0
M  V30 6343 H 607.13 -0.711433 3.14863 0
M  V30 6344 H 606.182 1.69485 3.40557 0
M  V30 6345 H 607.494 2.0238 4.55899 0
M  V30 6346 H 606.648 0.210976 6.06333 0
M  V30 6347 H 605.387 -0.215584 4.87223 0
M  V30 6348 H 604.392 2.07899 5.08978 0
M  V30 6349 H 605.617 2.49861 6.31464 0
M  V30 6350 H 603.563 0.267451 6.55455 0
M  V30 6351 H 603.48 1.81011 7.3401 0
M  V30 6352 H 604.748 0.698906 7.7636 0
M  V30 6353 N 608.977 -1.30795 0.87923 0
M  V30 6354 C 610.207 -2.00237 0.50881 0
M  V30 6355 C 610.615 -1.66115 -0.905682 0
M  V30 6356 O 609.958 -0.89138 -1.60624 0
M  V30 6357 C 610.02 -3.54508 0.597003 0
M  V30 6358 C 609.684 -4.12131 1.97477 0
M  V30 6359 C 610.681 -4.28552 2.94346 0
M  V30 6360 C 608.366 -4.47644 2.2786 0
M  V30 6361 C 610.36 -4.79689 4.19735 0
M  V30 6362 C 608.047 -4.98481 3.53496 0
M  V30 6363 C 609.045 -5.14456 4.49248 0
M  V30 6364 O 608.733 -5.64199 5.72656 0
M  V30 6365 H 608.465 -0.647026 0.195788 0
M  V30 6366 H 611.019 -1.67785 1.1848 0
M  V30 6367 H 609.249 -3.86461 -0.135945 0
M  V30 6368 H 610.938 -4.05198 0.238684 0
M  V30 6369 H 611.704 -4.01424 2.72183 0
M  V30 6370 H 607.583 -4.34481 1.54102 0
M  V30 6371 H 611.127 -4.92073 4.9448 0
M  V30 6372 H 607.024 -5.25044 3.75498 0
M  V30 6373 H 607.792 -5.82551 5.74957 0
M  V30 6374 N 610.455 -0.639598 -1.44038 0
M  V30 6375 C 611.866 -0.228866 -1.85292 0
M  V30 6376 C 612.217 1.22161 -1.53529 0
M  V30 6377 O 611.342 1.93064 -0.977518 0
M  V30 6378 C 611.937 -0.408592 -3.36327 0
M  V30 6379 C 610.496 -0.0522953 -3.76364 0
M  V30 6380 C 609.643 -0.717959 -2.67844 0
M  V30 6381 H 612.594 -0.844194 -1.34384 0
M  V30 6382 H 612.615 0.349968 -3.78887 0
M  V30 6383 H 612.127 -1.46435 -3.59414 0
M  V30 6384 H 610.228 1.0014 -3.58891 0
M  V30 6385 H 610.341 -0.468261 -4.76806 0
M  V30 6386 H 608.705 -0.152459 -2.54243 0
M  V30 6387 H 609.488 -1.77648 -2.93762 0
M  V30 6388 N 611.933 1.52934 -0.380664 0
M  V30 6389 C 612.896 2.24809 0.446473 0
M  V30 6390 C 613.896 1.26133 0.997347 0
M  V30 6391 O 615.086 1.50297 0.880714 0
M  V30 6392 C 612.218 2.99649 1.62553 0
M  V30 6393 H 613.411 2.99343 -0.182677 0
M  V30 6394 H 610.964 1.55736 -0.132618 0
M  V30 6395 H 611.699 2.29395 2.29235 0
M  V30 6396 H 611.484 3.72066 1.23732 0
M  V30 6397 H 612.974 3.54246 2.21133 0
M  V30 6398 N 613.412 0.11024 1.57214 0
M  V30 6399 C 614.66 -0.548783 1.94506 0
M  V30 6400 C 614.981 -1.67772 0.99386 0
M  V30 6401 O 614.251 -1.9584 0.0485841 0
M  V30 6402 H 612.831 -0.205715 0.718116 0
M  V30 6403 H 615.493 0.177127 1.94093 0
M  V30 6404 H 614.589 -0.949096 2.97319 0
M  V30 6405 N 614.89 -1.56749 -0.16351 0
M  V30 6406 C 616.118 -1.86577 -0.894233 0
M  V30 6407 C 616.533 -0.696543 -1.75481 0
M  V30 6408 O 615.89 0.334161 -1.79415 0
M  V30 6409 C 615.941 -3.15508 -1.76456 0
M  V30 6410 O 615.662 -4.27926 -0.938685 0
M  V30 6411 C 617.163 -3.58737 -2.60428 0
M  V30 6412 H 614.383 -0.618829 -0.259405 0
M  V30 6413 H 616.927 -2.03863 -0.161259 0
M  V30 6414 H 615.082 -3.00025 -2.45079 0
M  V30 6415 H 615.496 -5.01546 -1.53465 0
M  V30 6416 H 616.97 -4.51832 -3.17099 0
M  V30 6417 H 617.447 -2.83229 -3.35675 0
M  V30 6418 H 618.053 -3.76858 -1.97125 0
M  V30 6419 N 616.368 0.432326 -1.51554 0
M  V30 6420 C 617.593 1.20824 -1.68571 0
M  V30 6421 C 618.018 1.84126 -0.384596 0
M  V30 6422 O 617.376 1.69025 0.655751 0
M  V30 6423 C 617.424 2.26429 -2.80646 0
M  V30 6424 O 616.528 3.32032 -2.44598 0
M  V30 6425 H 615.869 0.353765 -0.561913 0
M  V30 6426 H 618.399 0.509916 -1.98144 0
M  V30 6427 H 618.409 2.71133 -3.04878 0
M  V30 6428 H 617.084 1.79733 -3.75058 0
M  V30 6429 H 615.661 2.92769 -2.30956 0
M  V30 6430 N 617.846 1.41785 0.688094 0
M  V30 6431 C 619.074 1.44915 1.47673 0
M  V30 6432 C 619.489 0.0565786 1.88715 0
M  V30 6433 O 618.846 -0.92579 1.57275 0
M  V30 6434 C 618.897 2.36452 2.73446 0
M  V30 6435 O 618.618 3.7029 2.34131 0
M  V30 6436 C 620.119 2.48463 3.67125 0
M  V30 6437 H 617.339 0.493324 0.454832 0
M  V30 6438 H 619.883 1.86153 0.846594 0
M  V30 6439 H 618.038 1.98502 3.3268 0
M  V30 6440 H 618.452 4.19183 3.15255 0
M  V30 6441 H 619.926 3.16662 4.52138 0
M  V30 6442 H 620.403 1.51826 4.12123 0
M  V30 6443 H 621.009 2.8708 3.13792 0
M  V30 6444 N 619.324 -0.923095 1.27737 0
M  V30 6445 C 620.571 -1.67127 1.14345 0
M  V30 6446 C 620.899 -1.92017 -0.30982 0
M  V30 6447 O 620.154 -1.51185 -1.24264 0
M  V30 6448 C 620.453 -3.04125 1.8773 0
M  V30 6449 C 620.119 -2.98929 3.37568 0
M  V30 6450 C 618.781 -2.9722 3.78436 0
M  V30 6451 C 621.133 -2.89875 4.33154 0
M  V30 6452 C 618.461 -2.84244 5.13247 0
M  V30 6453 C 620.813 -2.7844 5.68026 0
M  V30 6454 C 619.477 -2.75083 6.08182 0
M  V30 6455 H 618.747 -0.611562 0.418417 0
M  V30 6456 H 621.394 -1.07618 1.584 0
M  V30 6457 H 619.699 -3.67366 1.36196 0
M  V30 6458 H 621.396 -3.609 1.74792 0
M  V30 6459 H 617.986 -3.0105 3.05069 0
M  V30 6460 H 622.17 -2.9029 4.02548 0
M  V30 6461 H 617.426 -2.80034 5.43499 0
M  V30 6462 H 621.6 -2.70401 6.4176 0
M  V30 6463 H 619.227 -2.64786 7.12596 0
M  V30 6464 N 620.802 -1.09834 -1.13024 0
M  V30 6465 C 622.032 -0.857657 -1.87957 0
M  V30 6466 C 622.44 0.595008 -1.796 0
M  V30 6467 O 621.783 1.42158 -1.16347 0
M  V30 6468 C 621.845 -1.21949 -3.38185 0
M  V30 6469 C 621.509 -2.67791 -3.7032 0
M  V30 6470 C 622.506 -3.66036 -3.69207 0
M  V30 6471 C 620.191 -3.04019 -3.99847 0
M  V30 6472 C 622.185 -4.98533 -3.9717 0
M  V30 6473 C 619.872 -4.36706 -4.27471 0
M  V30 6474 C 620.87 -5.33772 -4.26118 0
M  V30 6475 O 620.558 -6.64072 -4.53061 0
M  V30 6476 H 620.29 -0.308009 -0.601753 0
M  V30 6477 H 622.844 -1.46496 -1.43973 0
M  V30 6478 H 621.074 -0.555249 -3.82693 0
M  V30 6479 H 622.763 -0.957281 -3.9445 0
M  V30 6480 H 623.529 -3.39392 -3.46465 0
M  V30 6481 H 619.408 -2.29096 -4.00045 0
M  V30 6482 H 622.952 -5.74288 -3.96029 0
M  V30 6483 H 618.849 -4.63091 -4.49685 0
M  V30 6484 H 619.617 -6.69608 -4.7071 0
M  V30 6485 N 622.28 1.30327 -0.886154 0
M  V30 6486 C 623.528 1.9571 -0.504195 0
M  V30 6487 C 623.849 1.70294 0.950003 0
M  V30 6488 O 623.119 1.02718 1.66811 0
M  V30 6489 H 621.699 0.72412 -0.183465 0
M  V30 6490 H 624.361 1.58835 -1.12949 0
M  V30 6491 H 623.457 3.04704 -0.675431 0
M  V30 6492 N 623.758 0.647228 1.43697 0
M  V30 6493 C 624.691 -0.097646 2.27991 0
M  V30 6494 C 625.669 -0.83571 1.3948 0
M  V30 6495 O 626.853 -0.836509 1.68922 0
M  V30 6496 C 623.98 -1.14484 3.18765 0
M  V30 6497 C 623.026 -0.505503 4.23494 0
M  V30 6498 S 623.859 0.716471 5.30685 0
M  V30 6499 C 625.015 -0.330339 6.25028 0
M  V30 6500 H 625.248 0.617417 2.90818 0
M  V30 6501 H 622.781 0.435881 1.4812 0
M  V30 6502 H 624.739 -1.74403 3.7161 0
M  V30 6503 H 623.4 -1.83219 2.55127 0
M  V30 6504 H 622.593 -1.29473 4.87086 0
M  V30 6505 H 622.195 0.0194377 3.73995 0
M  V30 6506 H 624.487 -1.19828 6.66819 0
M  V30 6507 H 625.43 0.270409 7.07583 0
M  V30 6508 H 625.838 -0.663459 5.60588 0
M  V30 6509 N 625.236 -1.5273 0.388769 0
M  V30 6510 C 626.199 -2.25043 -0.434544 0
M  V30 6511 C 627.199 -1.26661 -0.990644 0
M  V30 6512 O 628.389 -1.50762 -0.872731 0
M  V30 6513 C 625.521 -3.00507 -1.60961 0
M  V30 6514 H 626.714 -2.99242 0.198549 0
M  V30 6515 H 624.267 -1.55664 0.140875 0
M  V30 6516 H 625.002 -2.30607 -2.28015 0
M  V30 6517 H 624.787 -3.72716 -1.21757 0
M  V30 6518 H 626.277 -3.55413 -2.19251 0
M  V30 6519 N 626.714 -0.118576 -1.57153 0
M  V30 6520 C 627.944 0.546466 -1.99242 0
M  V30 6521 C 628.352 1.60791 -0.997148 0
M  V30 6522 O 627.695 1.83691 0.0181745 0
M  V30 6523 C 627.757 1.23167 -3.37743 0
M  V30 6524 C 627.421 0.318226 -4.55891 0
M  V30 6525 C 628.418 -0.442988 -5.18009 0
M  V30 6526 C 626.103 0.229421 -5.01776 0
M  V30 6527 C 628.097 -1.28074 -6.244 0
M  V30 6528 C 625.784 -0.611966 -6.08028 0
M  V30 6529 C 626.782 -1.36568 -6.69207 0
M  V30 6530 O 626.47 -2.1931 -7.73407 0
M  V30 6531 H 626.202 0.149297 -0.659307 0
M  V30 6532 H 628.756 -0.201603 -2.04408 0
M  V30 6533 H 626.986 2.0268 -3.29329 0
M  V30 6534 H 628.675 1.79358 -3.64123 0
M  V30 6535 H 629.441 -0.38425 -4.83475 0
M  V30 6536 H 625.32 0.805771 -4.53903 0
M  V30 6537 H 628.864 -1.86952 -6.72082 0
M  V30 6538 H 624.761 -0.6721 -6.41991 0
M  V30 6539 H 625.529 -2.12247 -7.90502 0
M  V30 6540 N 628.193 1.56834 0.155195 0
M  V30 6541 C 629.439 1.83169 0.870467 0
M  V30 6542 C 629.772 0.698929 1.81187 0
M  V30 6543 O 629.047 -0.298035 1.92203 0
M  V30 6544 C 629.33 3.19965 1.65211 0
M  V30 6545 C 629.183 4.43792 0.732744 0
M  V30 6546 C 630.502 3.53885 2.61636 0
M  V30 6547 H 627.621 0.666288 0.315006 0
M  V30 6548 H 630.263 1.89513 0.135988 0
M  V30 6549 H 628.413 3.14687 2.27825 0
M  V30 6550 H 630.085 4.61148 0.118236 0
M  V30 6551 H 628.328 4.3378 0.0417906 0
M  V30 6552 H 628.999 5.36095 1.31552 0
M  V30 6553 H 631.475 3.5972 2.09143 0
M  V30 6554 H 630.351 4.50648 3.13381 0
M  V30 6555 H 630.612 2.79418 3.42605 0
M  V30 6556 N 629.671 -0.424282 1.51781 0
M  V30 6557 C 631.082 -1.00368 1.57427 0
M  V30 6558 C 631.433 -1.91962 0.40558 0
M  V30 6559 O 630.558 -2.111 -0.47601 0
M  V30 6560 C 631.153 -1.82707 2.85313 0
M  V30 6561 C 629.712 -2.35675 2.93487 0
M  V30 6562 C 628.859 -1.1524 2.5222 0
M  V30 6563 H 631.81 -0.205064 1.5737 0
M  V30 6564 H 631.831 -2.68294 2.69812 0
M  V30 6565 H 631.343 -1.16017 3.70353 0
M  V30 6566 H 629.444 -3.05781 2.12906 0
M  V30 6567 H 629.557 -2.67578 3.97415 0
M  V30 6568 H 627.921 -1.50174 2.05718 0
M  V30 6569 H 628.704 -0.5014 3.39619 0
M  V30 6570 N 631.149 -1.42148 -0.680565 0
M  V30 6571 C 632.099 -1.41634 -1.78672 0
M  V30 6572 C 633.083 -0.288494 -1.58293 0
M  V30 6573 O 634.275 -0.530295 -1.68869 0
M  V30 6574 C 631.404 -1.31558 -3.17092 0
M  V30 6575 C 630.49 -2.49265 -3.43115 0
M  V30 6576 N 630.881 -3.74702 -3.39753 0
M  V30 6577 C 629.179 -2.43401 -3.73727 0
M  V30 6578 C 629.88 -4.52854 -3.651 0
M  V30 6579 N 628.856 -3.83181 -3.85582 0
M  V30 6580 H 632.658 -2.3652 -1.74458 0
M  V30 6581 H 630.172 -1.36415 -0.881171 0
M  V30 6582 H 632.169 -1.29272 -3.96351 0
M  V30 6583 H 630.829 -0.376696 -3.22508 0
M  V30 6584 H 631.84 -4.07378 -3.19787 0
M  V30 6585 H 628.517 -1.58062 -3.86423 0
M  V30 6586 H 629.907 -5.61827 -3.6851 0
M  V30 6587 N 632.627 0.916307 -1.28225 0
M  V30 6588 C 634.038 1.48024 -1.13779 0
M  V30 6589 C 634.389 1.94289 0.273139 0
M  V30 6590 O 633.514 1.82226 1.16716 0
M  V30 6591 C 634.109 2.69029 -2.05935 0
M  V30 6592 C 632.668 3.2161 -1.95561 0
M  V30 6593 C 631.815 1.94321 -1.97825 0
M  V30 6594 H 634.766 0.729272 -1.40951 0
M  V30 6595 H 634.787 3.44204 -1.62184 0
M  V30 6596 H 634.299 2.35325 -3.08616 0
M  V30 6597 H 632.4 3.60045 -0.959076 0
M  V30 6598 H 632.513 3.87032 -2.82388 0
M  V30 6599 H 630.877 2.1131 -1.42198 0
M  V30 6600 H 631.66 1.62917 -3.0218 0
M  V30 6601 N 634.105 1.10431 1.1244 0
M  V30 6602 C 635.351 0.847972 1.84221 0
M  V30 6603 C 635.684 -0.624903 1.83871 0
M  V30 6604 O 634.959 -1.46074 1.28423 0
M  V30 6605 C 635.242 1.39695 3.319 0
M  V30 6606 C 635.095 2.93668 3.40704 0
M  V30 6607 C 636.414 1.03924 4.27654 0
M  V30 6608 H 633.533 0.309502 0.668863 0
M  V30 6609 H 636.175 1.36745 1.31912 0
M  V30 6610 H 634.325 0.955095 3.76577 0
M  V30 6611 H 635.997 3.46379 3.04662 0
M  V30 6612 H 634.24 3.30272 2.81252 0
M  V30 6613 H 634.911 3.27162 4.446 0
M  V30 6614 H 637.387 1.42049 3.91102 0
M  V30 6615 H 636.263 1.45027 5.29394 0
M  V30 6616 H 636.524 -0.051336 4.4207 0
M  V30 6617 N 635.583 -1.29855 0.893053 0
M  V30 6618 C 636.813 -1.99686 0.530019 0
M  V30 6619 C 637.221 -1.67066 -0.888012 0
M  V30 6620 O 636.564 -0.908366 -1.5967 0
M  V30 6621 C 636.626 -3.53855 0.63457 0
M  V30 6622 C 636.29 -4.10013 2.01837 0
M  V30 6623 C 637.287 -4.25406 2.98874 0
M  V30 6624 C 634.972 -4.45202 2.32595 0
M  V30 6625 C 636.966 -4.7521 4.24799 0
M  V30 6626 C 634.653 -4.94704 3.58763 0
M  V30 6627 C 635.651 -5.09662 4.5468 0
M  V30 6628 O 635.339 -5.58093 5.78608 0
M  V30 6629 H 635.071 -0.644913 0.20264 0
M  V30 6630 H 637.625 -1.66518 1.20253 0
M  V30 6631 H 635.855 -3.86583 -0.0949477 0
M  V30 6632 H 637.544 -4.04922 0.281648 0
M  V30 6633 H 638.31 -3.98515 2.76425 0
M  V30 6634 H 634.189 -4.32822 1.58701 0
M  V30 6635 H 637.733 -4.86801 4.99671 0
M  V30 6636 H 633.63 -5.21032 3.81046 0
M  V30 6637 H 634.398 -5.7642 5.81104 0
M  V30 6638 N 637.061 -0.65484 -1.43351 0
M  V30 6639 C 638.024 0.0263562 -2.29185 0
M  V30 6640 C 639.024 0.748951 -1.42293 0
M  V30 6641 O 640.214 0.589957 -1.63906 0
M  V30 6642 C 637.346 1.04806 -3.2439 0
M  V30 6643 H 638.539 -0.728883 -2.90908 0
M  V30 6644 H 636.092 -0.416149 -1.50658 0
M  V30 6645 H 636.827 1.83247 -2.67565 0
M  V30 6646 H 636.612 0.533554 -3.88453 0
M  V30 6647 H 638.102 1.52372 -3.88809 0
M  V30 6648 N 638.539 1.52521 -0.396863 0
M  V30 6649 C 639.816 1.94112 0.240842 0
M  V30 6650 C 640.196 1.33288 1.637 0
M  V30 6651 O 639.544 0.503901 2.22875 0
M  V30 6652 C 639.754 3.48033 0.259567 0
M  V30 6653 C 641.102 4.21822 0.484866 0
M  V30 6654 O 642.126 3.54579 0.339453 0
M  V30 6655 O 640.985 5.41042 0.770412 0
M  V30 6656 H 638.079 0.812973 0.151671 0
M  V30 6657 H 640.625 1.63572 -0.451918 0
M  V30 6658 H 639.397 3.84655 -0.718078 0
M  V30 6659 H 639.02 3.84899 0.996937 0
M  V30 6660 N 640.017 0.126909 1.57088 0
M  V30 6661 C 641.428 -0.397201 1.82426 0
M  V30 6662 C 641.779 -1.66084 1.04453 0
M  V30 6663 O 640.904 -2.14534 0.283552 0
M  V30 6664 C 641.499 -0.727411 3.30899 0
M  V30 6665 C 640.058 -1.19612 3.56889 0
M  V30 6666 C 639.205 -0.20885 2.76512 0
M  V30 6667 H 642.156 0.351924 1.54749 0
M  V30 6668 H 642.177 -1.58407 3.45959 0
M  V30 6669 H 641.689 0.19247 3.87622 0
M  V30 6670 H 639.79 -2.13263 3.05532 0
M  V30 6671 H 639.903 -1.13598 4.65438 0
M  V30 6672 H 638.267 -0.697479 2.44964 0
M  V30 6673 H 639.05 0.704267 3.35998 0
M  V30 6674 N 641.495 -1.56914 -0.146875 0
M  V30 6675 C 642.743 -1.82994 -0.85777 0
M  V30 6676 C 643.064 -0.707814 -1.817 0
M  V30 6677 O 642.334 0.270521 -1.94023 0
M  V30 6678 H 640.914 -0.675106 -0.319751 0
M  V30 6679 H 643.576 -1.9439 -0.140849 0
M  V30 6680 H 642.672 -2.77928 -1.41994 0
M  V30 6681 N 642.974 0.416227 -1.52004 0
M  V30 6682 C 644.199 1.19029 -1.69843 0
M  V30 6683 C 644.624 1.83708 -0.404103 0
M  V30 6684 O 643.982 1.69711 0.637787 0
M  V30 6685 C 644.03 2.23439 -2.83032 0
M  V30 6686 O 643.134 3.29419 -2.48106 0
M  V30 6687 H 642.475 0.347785 -0.565634 0
M  V30 6688 H 645.005 0.488871 -1.98674 0
M  V30 6689 H 645.015 2.67884 -3.07737 0
M  V30 6690 H 643.69 1.75745 -3.76944 0
M  V30 6691 H 642.267 2.90303 -2.34048 0
M  V30 6692 N 644.452 1.42507 0.673017 0
M  V30 6693 C 645.4 1.46362 1.80779 0
M  V30 6694 C 646.394 0.339166 1.6597 0
M  V30 6695 O 647.6 0.512262 1.72557 0
M  V30 6696 H 643.975 0.458433 0.596107 0
M  V30 6697 H 645.946 2.41953 1.74646 0
M  V30 6698 C 644.695 1.38462 3.18941 0
M  V30 6699 H 644.018 2.24283 3.30964 0
M  V30 6700 H 645.458 1.45221 3.98355 0
M  V30 6701 C 643.917 0.0996354 3.36753 0
M  V30 6702 O 644.447 -0.846894 3.92671 0
M  V30 6703 N 642.653 0.016211 2.90595 0
M  V30 6704 H 642.2 0.78725 2.45276 0
M  V30 6705 H 642.158 -0.84291 3.0289 0
M  V30 6706 N 645.93 -0.909495 1.28709 0
M  V30 6707 C 646.862 -2.01729 1.08804 0
M  V30 6708 C 647.875 -1.62755 0.0384739 0
M  V30 6709 O 649.064 -1.76259 0.281977 0
M  V30 6710 C 646.164 -3.32952 0.63217 0
M  V30 6711 C 645.337 -4.00512 1.75809 0
M  V30 6712 C 644.396 -5.10019 1.29488 0
M  V30 6713 O 643.422 -5.32986 1.99787 0
M  V30 6714 N 644.624 -5.80278 0.1604 0
M  V30 6715 H 647.389 -2.19362 2.04207 0
M  V30 6716 H 644.95 -1.08106 1.20518 0
M  V30 6717 H 646.942 -4.03543 0.305802 0
M  V30 6718 H 645.512 -3.11759 -0.229134 0
M  V30 6719 H 644.732 -3.23413 2.25383 0
M  V30 6720 H 646.02 -4.42395 2.51325 0
M  V30 6721 H 645.418 -5.64094 -0.425937 0
M  V30 6722 H 643.975 -6.51713 -0.106663 0
M  V30 6723 N 647.408 -1.11026 -1.11852 0
M  V30 6724 C 648.654 -0.867633 -1.83967 0
M  V30 6725 C 649.009 0.600309 -1.82795 0
M  V30 6726 O 648.302 1.43731 -1.26696 0
M  V30 6727 C 648.496 -1.35777 -3.30604 0
M  V30 6728 C 648.325 -2.87183 -3.46058 0
M  V30 6729 C 647.095 -3.55256 -3.59334 0
M  V30 6730 C 649.293 -3.85258 -3.40706 0
M  V30 6731 N 647.275 -4.94923 -3.63215 0
M  V30 6732 C 648.646 -5.1097 -3.51155 0
M  V30 6733 C 650.701 -3.77879 -3.2421 0
M  V30 6734 C 649.404 -6.30171 -3.46809 0
M  V30 6735 C 651.43 -4.96586 -3.2118 0
M  V30 6736 C 650.792 -6.21149 -3.32196 0
M  V30 6737 H 646.891 -0.370574 -0.688621 0
M  V30 6738 H 649.475 -1.41379 -1.33865 0
M  V30 6739 H 647.646 -0.83885 -3.79233 0
M  V30 6740 H 649.378 -1.05874 -3.90606 0
M  V30 6741 H 646.133 -3.05714 -3.61713 0
M  V30 6742 H 646.557 -5.67726 -3.68804 0
M  V30 6743 H 651.199 -2.82485 -3.14582 0
M  V30 6744 H 648.917 -7.25847 -3.55206 0
M  V30 6745 H 652.503 -4.92591 -3.09589 0
M  V30 6746 H 651.383 -7.11463 -3.29834 0
M  V30 6747 N 648.886 1.2938 -0.899927 0
M  V30 6748 C 650.133 1.9555 -0.525963 0
M  V30 6749 C 650.461 1.70945 0.927789 0
M  V30 6750 O 649.716 1.01545 1.67293 0
M  V30 6751 C 650.015 3.49114 -0.765113 0
M  V30 6752 C 649.681 3.93796 -2.19626 0
M  V30 6753 C 648.343 4.05707 -2.58758 0
M  V30 6754 C 650.695 4.16883 -3.12823 0
M  V30 6755 C 648.023 4.38074 -3.90267 0
M  V30 6756 C 650.375 4.50725 -4.4388 0
M  V30 6757 C 649.039 4.60845 -4.82885 0
M  V30 6758 H 648.309 0.715569 -0.192463 0
M  V30 6759 H 650.956 1.53972 -1.13863 0
M  V30 6760 H 649.261 3.91738 -0.069531 0
M  V30 6761 H 650.958 3.98409 -0.455144 0
M  V30 6762 H 647.548 3.85042 -1.88256 0
M  V30 6763 H 651.732 4.07147 -2.83804 0
M  V30 6764 H 646.988 4.44112 -4.20207 0
M  V30 6765 H 651.162 4.67538 -5.16121 0
M  V30 6766 H 648.789 4.85681 -5.84823 0
M  V30 6767 N 650.364 0.662433 1.43002 0
M  V30 6768 C 651.612 0.179237 2.01304 0
M  V30 6769 C 651.933 -1.21428 1.52579 0
M  V30 6770 O 651.203 -1.81294 0.742252 0
M  V30 6771 H 649.783 0.0632725 0.744316 0
M  V30 6772 H 652.445 0.856169 1.75088 0
M  V30 6773 H 651.541 0.170957 3.11631 0
M  V30 6774 N 651.842 -1.52309 0.404946 0
M  V30 6775 C 653.089 -2.01767 -0.1722 0
M  V30 6776 C 653.417 -1.29075 -1.45498 0
M  V30 6777 O 652.672 -0.3843 -1.9189 0
M  V30 6778 C 652.971 -3.54284 -0.470895 0
M  V30 6779 C 652.637 -4.45079 0.722194 0
M  V30 6780 C 651.299 -4.69617 1.04946 0
M  V30 6781 C 653.651 -4.98555 1.51962 0
M  V30 6782 C 650.979 -5.44878 2.17543 0
M  V30 6783 C 653.331 -5.75049 2.63632 0
M  V30 6784 C 651.995 -5.9786 2.9685 0
M  V30 6785 H 651.265 -0.738316 -0.0630125 0
M  V30 6786 H 653.912 -1.83566 0.545506 0
M  V30 6787 H 652.217 -3.70642 -1.27012 0
M  V30 6788 H 653.914 -3.90058 -0.930346 0
M  V30 6789 H 650.504 -4.26155 0.457131 0
M  V30 6790 H 654.688 -4.79509 1.28002 0
M  V30 6791 H 649.944 -5.60762 2.43631 0
M  V30 6792 H 654.118 -6.15483 3.25813 0
M  V30 6793 H 651.745 -6.5596 3.84215 0
M  V30 6794 N 653.32 -0.135238 -1.57019 0
M  V30 6795 C 654.252 0.839675 -2.13265 0
M  V30 6796 C 655.265 1.21887 -1.07923 0
M  V30 6797 O 656.454 1.16499 -1.35241 0
M  V30 6798 C 653.554 2.13647 -2.63075 0
M  V30 6799 C 652.727 1.92646 -3.92691 0
M  V30 6800 C 651.786 3.06205 -4.27931 0
M  V30 6801 O 650.812 2.78409 -4.96465 0
M  V30 6802 N 652.014 4.33072 -3.86561 0
M  V30 6803 H 654.779 0.359026 -2.97542 0
M  V30 6804 H 652.34 0.0486979 -1.61827 0
M  V30 6805 H 654.332 2.88641 -2.8367 0
M  V30 6806 H 652.902 2.5301 -1.83588 0
M  V30 6807 H 652.122 1.01754 -3.80841 0
M  V30 6808 H 653.41 1.75939 -4.77413 0
M  V30 6809 H 652.808 4.58526 -3.31316 0
M  V30 6810 H 651.365 5.04885 -4.12231 0
M  V30 6811 N 654.798 1.5699 0.138552 0
M  V30 6812 C 655.761 1.97984 1.15478 0
M  V30 6813 C 656.761 0.867416 1.35398 0
M  V30 6814 O 657.951 1.13387 1.32246 0
M  V30 6815 C 655.083 2.3031 2.51337 0
M  V30 6816 H 656.276 2.88953 0.802896 0
M  V30 6817 H 653.829 1.51555 0.382189 0
M  V30 6818 H 654.564 1.42159 2.91481 0
M  V30 6819 H 654.349 3.11425 2.38237 0
M  V30 6820 H 655.839 2.62834 3.24512 0
M  V30 6821 N 656.276 -0.40816 1.52223 0
M  V30 6822 C 657.522 -1.15347 1.67531 0
M  V30 6823 C 657.877 -1.8818 0.400748 0
M  V30 6824 O 657.17 -1.81803 -0.604845 0
M  V30 6825 C 657.364 -2.17422 2.83659 0
M  V30 6826 C 657.193 -1.54611 4.22286 0
M  V30 6827 C 655.963 -1.31841 4.87797 0
M  V30 6828 C 658.161 -1.00648 5.04355 0
M  V30 6829 N 656.143 -0.649338 6.10456 0
M  V30 6830 C 657.514 -0.464384 6.18258 0
M  V30 6831 C 659.569 -0.901041 4.89679 0
M  V30 6832 C 658.272 0.172825 7.19092 0
M  V30 6833 C 660.298 -0.277684 5.90748 0
M  V30 6834 C 659.66 0.253734 7.03943 0
M  V30 6835 H 655.759 -0.408722 0.666686 0
M  V30 6836 H 658.343 -0.445713 1.8953 0
M  V30 6837 H 656.514 -2.85554 2.63274 0
M  V30 6838 H 658.246 -2.84321 2.87999 0
M  V30 6839 H 655.001 -1.58819 4.46176 0
M  V30 6840 H 655.425 -0.3314 6.76188 0
M  V30 6841 H 660.067 -1.29772 4.02392 0
M  V30 6842 H 657.785 0.581564 8.06005 0
M  V30 6843 H 661.371 -0.197605 5.81464 0
M  V30 6844 H 660.251 0.728482 7.80809 0
M  V30 6845 N 657.755 -1.42862 -0.66545 0
M  V30 6846 C 658.98 -1.47456 -1.45848 0
M  V30 6847 C 659.405 -0.0900312 -1.87884 0
M  V30 6848 O 658.763 0.913587 -1.56599 0
M  V30 6849 C 658.811 -2.41514 -2.67774 0
M  V30 6850 O 657.915 -1.89296 -3.66389 0
M  V30 6851 H 657.256 -0.499236 -0.437789 0
M  V30 6852 H 659.786 -1.8765 -0.815394 0
M  V30 6853 H 659.796 -2.58409 -3.15735 0
M  V30 6854 H 658.471 -3.42099 -2.36519 0
M  V30 6855 H 657.048 -1.82003 -3.25468 0
M  V30 6856 N 659.233 0.902656 -1.29189 0
M  V30 6857 C 660.166 2.00816 -1.0839 0
M  V30 6858 C 661.144 1.626 0.00335266 0
M  V30 6859 O 662.328 1.87928 -0.146765 0
M  V30 6860 C 659.455 3.32415 -0.649435 0
M  V30 6861 C 658.501 3.89617 -1.73496 0
M  V30 6862 S 659.334 4.19091 -3.33351 0
M  V30 6863 C 660.49 5.53736 -2.91766 0
M  V30 6864 H 660.723 2.18151 -2.01984 0
M  V30 6865 H 658.256 1.0489 -1.13303 0
M  V30 6866 H 660.214 4.08492 -0.405479 0
M  V30 6867 H 658.875 3.12964 0.266857 0
M  V30 6868 H 658.068 4.84658 -1.38284 0
M  V30 6869 H 657.67 3.20217 -1.93229 0
M  V30 6870 H 659.962 6.34085 -2.38627 0
M  V30 6871 H 660.905 5.93871 -3.85647 0
M  V30 6872 H 661.313 5.15453 -2.30149 0
M  V30 6873 N 660.711 1.11618 1.11262 0
M  V30 6874 C 661.643 0.734015 2.17129 0
M  V30 6875 C 662.656 -0.235243 1.61091 0
M  V30 6876 O 663.845 -0.0178597 1.78491 0
M  V30 6877 C 660.945 0.0643682 3.38839 0
M  V30 6878 C 660.118 1.06092 4.24339 0
M  V30 6879 C 659.177 0.420482 5.24517 0
M  V30 6880 O 658.203 1.07495 5.58957 0
M  V30 6881 N 659.405 -0.815828 5.74739 0
M  V30 6882 H 662.17 1.64492 2.50524 0
M  V30 6883 H 659.731 1.00664 1.26801 0
M  V30 6884 H 661.723 -0.375851 4.02951 0
M  V30 6885 H 660.293 -0.749147 3.03491 0
M  V30 6886 H 659.513 1.67903 3.56654 0
M  V30 6887 H 660.801 1.73507 4.78302 0
M  V30 6888 H 660.199 -1.36668 5.48943 0
M  V30 6889 H 658.756 -1.199 6.40677 0
M  V30 6890 N 662.189 -1.289 0.906776 0
M  V30 6891 C 663.605 -1.47733 0.603902 0
M  V30 6892 C 663.805 -1.82568 -0.852702 0
M  V30 6893 O 662.861 -1.92642 -1.63234 0
M  V30 6894 C 664.174 -2.58522 1.53581 0
M  V30 6895 C 665.722 -2.72394 1.54177 0
M  V30 6896 C 666.197 -3.86318 2.46013 0
M  V30 6897 N 667.688 -3.93661 2.441 0
M  V30 6898 C 668.423 -4.81177 3.11859 0
M  V30 6899 N 667.919 -5.73333 3.88923 0
M  V30 6900 N 669.712 -4.74728 3.00981 0
M  V30 6901 H 661.863 -1.04567 1.84877 0
M  V30 6902 H 664.126 -0.520118 0.792579 0
M  V30 6903 H 663.832 -2.39667 2.57396 0
M  V30 6904 H 663.706 -3.55475 1.26165 0
M  V30 6905 H 666.093 -2.90641 0.511034 0
M  V30 6906 H 666.174 -1.75993 1.85634 0
M  V30 6907 H 665.818 -3.68826 3.49185 0
M  V30 6908 H 665.748 -4.82102 2.11862 0
M  V30 6909 H 668.239 -3.27751 1.88115 0
M  V30 6910 H 668.552 -6.36923 4.37663 0
M  V30 6911 H 666.897 -5.73196 3.93029 0
M  V30 6912 H 670.088 -4.01722 2.40286 0
M  V30 6913 H 670.261 -5.42719 3.54062 0
M  V30 6914 N 663.667 -0.670007 -1.42649 0
M  V30 6915 C 664.913 -0.190568 -2.01903 0
M  V30 6916 C 665.246 1.19817 -1.52832 0
M  V30 6917 O 664.521 1.80342 -0.728485 0
M  V30 6918 C 664.804 -0.21991 -3.59428 0
M  V30 6919 C 664.657 -1.64376 -4.18689 0
M  V30 6920 C 665.976 0.434519 -4.3795 0
M  V30 6921 H 663.095 -0.0707219 -0.733599 0
M  V30 6922 H 665.737 -0.853883 -1.69732 0
M  V30 6923 H 663.887 0.344894 -3.86966 0
M  V30 6924 H 665.559 -2.26044 -4.02122 0
M  V30 6925 H 663.802 -2.18591 -3.747 0
M  V30 6926 H 664.473 -1.61601 -5.27815 0
M  V30 6927 H 666.949 -0.0462156 -4.16074 0
M  V30 6928 H 665.825 0.38333 -5.4756 0
M  V30 6929 H 666.086 1.51135 -4.15464 0
M  V30 6930 N 665.145 1.52092 -0.413018 0
M  V30 6931 C 666.078 2.23613 0.455234 0
M  V30 6932 C 667.056 1.2459 1.04481 0
M  V30 6933 O 668.24 1.53653 1.09193 0
M  V30 6934 C 665.367 2.96775 1.63224 0
M  V30 6935 C 664.413 4.10261 1.16568 0
M  V30 6936 S 665.246 5.35348 0.127633 0
M  V30 6937 C 666.402 6.1204 1.30987 0
M  V30 6938 H 666.635 2.96911 -0.152042 0
M  V30 6939 H 664.168 1.53134 -0.197343 0
M  V30 6940 H 666.126 3.39532 2.30713 0
M  V30 6941 H 664.787 2.23113 2.21087 0
M  V30 6942 H 663.98 4.6064 2.04515 0
M  V30 6943 H 663.582 3.6964 0.569386 0
M  V30 6944 H 665.874 6.39651 2.23276 0
M  V30 6945 H 666.817 7.03022 0.846533 0
M  V30 6946 H 667.225 5.43161 1.53743 0
M  V30 6947 N 666.623 0.143563 1.56945 0
M  V30 6948 C 667.533 -0.810562 2.20152 0
M  V30 6949 C 668.549 -1.27431 1.1848 0
M  V30 6950 O 669.725 -1.33221 1.51044 0
M  V30 6951 C 666.79 -2.03353 2.80799 0
M  V30 6952 C 665.851 -1.61936 3.97587 0
M  V30 6953 C 665.084 -2.78403 4.55332 0
M  V30 6954 O 665.307 -3.94521 4.11958 0
M  V30 6955 O 664.241 -2.54073 5.45647 0
M  V30 6956 H 668.067 -0.30253 3.02189 0
M  V30 6957 H 665.652 -0.0832925 1.49168 0
M  V30 6958 H 667.534 -2.74932 3.19359 0
M  V30 6959 H 666.209 -2.53116 2.01777 0
M  V30 6960 H 665.116 -0.873904 3.6375 0
M  V30 6961 H 666.449 -1.16892 4.78118 0
M  V30 6962 N 668.101 -1.57061 -0.130224 0
M  V30 6963 C 669.331 -1.88159 -0.853217 0
M  V30 6964 C 669.739 -0.731675 -1.7448 0
M  V30 6965 O 669.082 0.307035 -1.81116 0
M  V30 6966 C 669.144 -3.1415 -1.74785 0
M  V30 6967 C 668.808 -4.45202 -1.03173 0
M  V30 6968 C 669.805 -5.18526 -0.377759 0
M  V30 6969 C 667.49 -4.91912 -1.01624 0
M  V30 6970 C 669.484 -6.36775 0.282123 0
M  V30 6971 C 667.171 -6.10082 -0.352555 0
M  V30 6972 C 668.169 -6.82361 0.295483 0
M  V30 6973 O 667.857 -7.98284 0.948606 0
M  V30 6974 H 667.589 -0.627596 -0.251197 0
M  V30 6975 H 670.143 -2.05034 -0.1226 0
M  V30 6976 H 668.373 -2.93328 -2.51983 0
M  V30 6977 H 670.062 -3.31359 -2.34427 0
M  V30 6978 H 670.828 -4.83498 -0.381417 0
M  V30 6979 H 666.707 -4.35566 -1.51007 0
M  V30 6980 H 670.251 -6.93129 0.788525 0
M  V30 6981 H 666.148 -6.44569 -0.346621 0
M  V30 6982 H 666.916 -8.14054 0.851954 0
M  V30 6983 N 669.579 0.400081 -1.52437 0
M  V30 6984 C 670.809 1.16598 -1.70553 0
M  V30 6985 C 671.217 1.8451 -0.418665 0
M  V30 6986 O 670.56 1.73069 0.615855 0
M  V30 6987 C 670.622 2.26517 -2.7916 0
M  V30 6988 C 670.286 1.78666 -4.20628 0
M  V30 6989 C 671.283 1.26946 -5.04163 0
M  V30 6990 C 668.968 1.85225 -4.66902 0
M  V30 6991 C 670.962 0.824187 -6.32049 0
M  V30 6992 C 668.649 1.40309 -5.94774 0
M  V30 6993 C 669.647 0.889922 -6.77178 0
M  V30 6994 O 669.335 0.447281 -8.02655 0
M  V30 6995 H 669.067 0.356023 -0.574651 0
M  V30 6996 H 671.621 0.475598 -1.99818 0
M  V30 6997 H 669.851 2.98946 -2.45292 0
M  V30 6998 H 671.54 2.88237 -2.85787 0
M  V30 6999 H 672.306 1.21244 -4.69601 0
M  V30 7000 H 668.185 2.24111 -4.02859 0
M  V30 7001 H 671.729 0.422958 -6.96317 0
M  V30 7002 H 667.626 1.45693 -6.28843 0
M  V30 7003 H 668.394 0.569768 -8.16514 0
M  V30 7004 N 671.057 1.43213 0.657864 0
M  V30 7005 C 671.987 1.50815 1.78262 0
M  V30 7006 C 672.968 0.363211 1.66177 0
M  V30 7007 O 674.153 0.579806 1.85343 0
M  V30 7008 C 671.283 1.42625 3.16663 0
M  V30 7009 C 670.237 2.5532 3.43505 0
M  V30 7010 C 669.563 2.32184 4.81658 0
M  V30 7011 C 670.863 3.97583 3.38711 0
M  V30 7012 H 672.557 2.44954 1.72157 0
M  V30 7013 H 670.103 1.17896 0.82683 0
M  V30 7014 H 672.056 1.46548 3.95097 0
M  V30 7015 H 670.78 0.449877 3.23487 0
M  V30 7016 H 669.439 2.50742 2.6744 0
M  V30 7017 H 669.087 1.32801 4.85153 0
M  V30 7018 H 668.787 3.07724 5.00579 0
M  V30 7019 H 670.311 2.37883 5.62356 0
M  V30 7020 H 671.725 4.03673 4.07089 0
M  V30 7021 H 670.122 4.73112 3.69168 0
M  V30 7022 H 671.192 4.23049 2.36976 0
M  V30 7023 N 672.536 -0.895792 1.29666 0
M  V30 7024 C 673.446 -2.03329 1.17024 0
M  V30 7025 C 674.462 -1.73753 0.0925962 0
M  V30 7026 O 675.638 -1.99071 0.305431 0
M  V30 7027 C 672.703 -3.36072 0.851841 0
M  V30 7028 C 671.764 -3.7914 2.01373 0
M  V30 7029 C 670.997 -5.05549 1.71043 0
M  V30 7030 O 671.22 -5.66874 0.633213 0
M  V30 7031 O 670.154 -5.44764 2.5596 0
M  V30 7032 H 673.98 -2.16918 2.12556 0
M  V30 7033 H 671.565 -1.02007 1.09156 0
M  V30 7034 H 673.447 -4.15729 0.689006 0
M  V30 7035 H 672.122 -3.23616 -0.0736634 0
M  V30 7036 H 671.029 -3.00233 2.23183 0
M  V30 7037 H 672.362 -3.96186 2.92058 0
M  V30 7038 N 674.014 -1.12206 -1.10668 0
M  V30 7039 C 675.242 -0.898635 -1.86366 0
M  V30 7040 C 675.657 0.551991 -1.80551 0
M  V30 7041 O 675.014 1.38152 -1.19249 0
M  V30 7042 C 675.065 -1.36199 -3.34861 0
M  V30 7043 O 674.786 -2.75576 -3.40573 0
M  V30 7044 C 676.287 -1.17515 -4.2744 0
M  V30 7045 H 673.507 -0.321281 -0.589084 0
M  V30 7046 H 676.051 -1.49142 -1.39918 0
M  V30 7047 H 674.206 -0.81249 -3.78784 0
M  V30 7048 H 674.62 -2.95851 -4.33096 0
M  V30 7049 H 676.094 -1.54827 -5.29842 0
M  V30 7050 H 676.571 -0.115486 -4.39048 0
M  V30 7051 H 677.177 -1.71203 -3.89319 0
M  V30 7052 N 675.492 1.28418 -0.913599 0
M  V30 7053 C 676.74 1.94596 -0.545594 0
M  V30 7054 C 677.061 1.7227 0.913668 0
M  V30 7055 O 676.331 1.06233 1.64595 0
M  V30 7056 H 674.911 0.720065 -0.198783 0
M  V30 7057 H 677.573 1.56404 -1.16292 0
M  V30 7058 H 676.669 3.03202 -0.739911 0
M  V30 7059 N 676.97 0.677563 1.42291 0
M  V30 7060 C 678.247 0.129803 1.95169 0
M  V30 7061 C 678.627 -1.35605 1.61786 0
M  V30 7062 O 677.975 -2.09361 0.915444 0
M  V30 7063 C 678.185 0.401889 3.46678 0
M  V30 7064 C 679.533 0.319889 4.23393 0
M  V30 7065 O 680.557 0.33579 3.54614 0
M  V30 7066 O 679.416 0.264459 5.4586 0
M  V30 7067 H 676.51 0.00447433 0.826988 0
M  V30 7068 H 679.056 0.752483 1.52105 0
M  V30 7069 H 677.828 1.43108 3.64192 0
M  V30 7070 H 677.451 -0.252662 3.96796 0
M  V30 7071 N 678.448 -1.51871 0.421078 0
M  V30 7072 C 679.673 -2.0684 -0.152371 0
M  V30 7073 C 680.098 -1.28802 -1.37083 0
M  V30 7074 O 679.456 -0.321482 -1.78427 0
M  V30 7075 C 679.504 -3.57532 -0.469368 0
M  V30 7076 O 678.608 -3.81818 -1.55848 0
M  V30 7077 H 677.949 -0.663939 -0.00898586 0
M  V30 7078 H 680.479 -1.95674 0.597724 0
M  V30 7079 H 680.489 -4.01515 -0.724553 0
M  V30 7080 H 679.164 -4.13761 0.421276 0
M  V30 7081 H 677.741 -3.49709 -1.29453 0
M  V30 7082 N 679.926 -0.151884 -1.56866 0
M  V30 7083 C 681.151 0.508044 -2.01081 0
M  V30 7084 C 681.576 1.57306 -1.03134 0
M  V30 7085 O 680.934 1.81298 -0.0078309 0
M  V30 7086 C 680.982 1.08106 -3.44014 0
M  V30 7087 O 680.086 2.19577 -3.49084 0
M  V30 7088 H 679.427 0.123757 -0.652365 0
M  V30 7089 H 681.957 -0.250055 -2.03066 0
M  V30 7090 H 681.967 1.40851 -3.82916 0
M  V30 7091 H 680.642 0.301168 -4.14808 0
M  V30 7092 H 679.219 1.88023 -3.22027 0
M  V30 7093 N 681.404 1.57128 0.121893 0
M  V30 7094 C 682.65 1.84974 0.831418 0
M  V30 7095 C 682.983 0.737204 1.79663 0
M  V30 7096 O 682.258 -0.257199 1.92792 0
M  V30 7097 C 682.541 3.23397 1.58386 0
M  V30 7098 C 682.394 4.45246 0.638445 0
M  V30 7099 C 683.713 3.59355 2.54071 0
M  V30 7100 H 680.832 0.67282 0.300803 0
M  V30 7101 H 683.474 1.89759 0.0957587 0
M  V30 7102 H 681.624 3.19449 2.21098 0
M  V30 7103 H 683.296 4.61295 0.0203925 0
M  V30 7104 H 681.539 4.33771 -0.05023 0
M  V30 7105 H 682.21 5.38765 1.20151 0
M  V30 7106 H 684.686 3.64075 2.01465 0
M  V30 7107 H 683.562 4.57193 3.03752 0
M  V30 7108 H 683.823 2.86622 3.36601 0
M  V30 7109 N 682.882 -0.391992 1.52647 0
M  V30 7110 C 683.829 -1.47866 1.77213 0
M  V30 7111 C 684.799 -1.54286 0.615223 0
M  V30 7112 O 685.984 -1.7059 0.854622 0
M  V30 7113 C 683.124 -2.85129 1.94411 0
M  V30 7114 C 682.237 -2.87883 3.22098 0
M  V30 7115 C 681.372 -4.16553 3.29631 0
M  V30 7116 C 680.411 -4.13348 4.51453 0
M  V30 7117 N 679.548 -5.33619 4.56284 0
M  V30 7118 H 684.388 -1.26219 2.6995 0
M  V30 7119 H 681.925 -0.612367 1.33748 0
M  V30 7120 H 683.883 -3.64833 2.02367 0
M  V30 7121 H 682.513 -3.05232 1.05038 0
M  V30 7122 H 681.565 -2.00567 3.23229 0
M  V30 7123 H 682.877 -2.81382 4.11856 0
M  V30 7124 H 682.031 -5.0466 3.36753 0
M  V30 7125 H 680.77 -4.25773 2.37842 0
M  V30 7126 H 679.775 -3.23629 4.44459 0
M  V30 7127 H 681 -4.05754 5.44555 0
M  V30 7128 H 678.946 -5.43474 3.67385 0
M  V30 7129 H 678.863 -5.29182 5.3991 0
M  V30 7130 H 680.131 -6.23632 4.67657 0
M  V30 7131 N 684.36 -1.4356 -0.65026 0
M  V30 7132 C 685.308 -1.49219 -1.78427 0
M  V30 7133 C 686.302 -0.365528 -1.65409 0
M  V30 7134 O 687.508 -0.539649 -1.7172 0
M  V30 7135 H 683.883 -0.467858 -0.588738 0
M  V30 7136 H 685.854 -2.44701 -1.70774 0
M  V30 7137 C 684.603 -1.43519 -3.16698 0
M  V30 7138 H 683.926 -2.2952 -3.27354 0
M  V30 7139 H 685.366 -1.5154 -3.95995 0
M  V30 7140 C 683.825 -0.153197 -3.36552 0
M  V30 7141 O 684.355 0.784317 -3.93969 0
M  V30 7142 N 682.561 -0.0624402 -2.90533 0
M  V30 7143 H 682.108 -0.826172 -2.43992 0
M  V30 7144 H 682.066 0.794616 -3.04193 0
M  V30 7145 N 685.838 0.888903 -1.30139 0
M  V30 7146 C 686.768 2.01046 -1.18755 0
M  V30 7147 C 687.749 1.69916 -0.0791438 0
M  V30 7148 O 688.934 1.92445 -0.260498 0
M  V30 7149 C 686.064 3.36109 -0.874518 0
M  V30 7150 C 685.018 3.81486 -1.94043 0
M  V30 7151 C 684.344 5.13796 -1.48047 0
M  V30 7152 C 685.644 4.00637 -3.35093 0
M  V30 7153 H 687.338 2.10828 -2.12584 0
M  V30 7154 H 684.884 1.01298 -1.02346 0
M  V30 7155 H 686.837 4.14089 -0.781548 0
M  V30 7156 H 685.561 3.26449 0.0994519 0
M  V30 7157 H 684.22 3.05731 -2.02297 0
M  V30 7158 H 683.868 5.0056 -0.494878 0
M  V30 7159 H 683.568 5.45127 -2.19341 0
M  V30 7160 H 685.092 5.94305 -1.40121 0
M  V30 7161 H 686.506 4.69067 -3.2962 0
M  V30 7162 H 684.903 4.43339 -4.04438 0
M  V30 7163 H 685.973 3.0462 -3.77273 0
M  V30 7164 N 687.317 1.12792 1.10072 0
M  V30 7165 C 688.566 0.880232 1.81479 0
M  V30 7166 C 688.879 -0.595575 1.86312 0
M  V30 7167 O 690.085 -0.959979 2.53962 0
M  V30 7168 C 688.541 1.52514 3.25987 0
M  V30 7169 C 688.149 3.036 3.29441 0
M  V30 7170 C 689.893 1.35788 4.02196 0
M  V30 7171 C 687.8 3.61007 4.68431 0
M  V30 7172 H 686.73 0.325654 0.680048 0
M  V30 7173 H 689.381 1.35485 1.23758 0
M  V30 7174 H 687.763 0.978188 3.83728 0
M  V30 7175 H 688.937 3.64819 2.81502 0
M  V30 7176 H 687.252 3.19765 2.66719 0
M  V30 7177 H 689.849 1.76096 5.0487 0
M  V30 7178 H 690.192 0.301972 4.15203 0
M  V30 7179 H 690.725 1.87426 3.50879 0
M  V30 7180 H 687.464 4.66375 4.60625 0
M  V30 7181 H 686.984 3.04564 5.16721 0
M  V30 7182 H 688.663 3.60289 5.37402 0
M  V30 7183 N 688.795 -1.27931 0.920396 0
M  V30 7184 C 689.742 -2.27085 0.412422 0
M  V30 7185 C 690.712 -1.57858 -0.516725 0
M  V30 7186 O 691.897 -1.85717 -0.437475 0
M  V30 7187 C 689.037 -3.43466 -0.335399 0
M  V30 7188 C 688.15 -4.27425 0.627017 0
M  V30 7189 C 687.285 -5.31016 -0.139916 0
M  V30 7190 C 686.324 -6.06641 0.815683 0
M  V30 7191 N 685.461 -7.02052 0.0818439 0
M  V30 7192 H 690.301 -2.69913 1.26298 0
M  V30 7193 H 687.838 -1.32732 0.634076 0
M  V30 7194 H 689.796 -4.09744 -0.785226 0
M  V30 7195 H 688.426 -3.01611 -1.15025 0
M  V30 7196 H 687.478 -3.6113 1.19537 0
M  V30 7197 H 688.79 -4.79969 1.35763 0
M  V30 7198 H 687.944 -6.03208 -0.649998 0
M  V30 7199 H 686.683 -4.79257 -0.903543 0
M  V30 7200 H 685.688 -5.33294 1.33708 0
M  V30 7201 H 686.913 -6.60489 1.57897 0
M  V30 7202 H 684.859 -6.52634 -0.663671 0
M  V30 7203 H 684.776 -7.52249 0.752163 0
M  V30 7204 H 686.044 -7.78432 -0.407825 0
M  V30 7205 N 690.273 -0.685099 -1.4193 0
M  V30 7206 C 691.22 -0.0131869 -2.30796 0
M  V30 7207 C 692.19 0.782129 -1.46533 0
M  V30 7208 O 693.375 0.75229 -1.75343 0
M  V30 7209 C 690.515 0.924768 -3.32479 0
M  V30 7210 C 689.628 0.122181 -4.31827 0
M  V30 7211 C 688.763 1.05682 -5.20581 0
M  V30 7212 C 687.802 0.246526 -6.11603 0
M  V30 7213 N 686.939 1.13442 -6.92875 0
M  V30 7214 H 691.779 -0.776789 -2.87698 0
M  V30 7215 H 689.316 -0.394791 -1.41703 0
M  V30 7216 H 691.274 1.48251 -3.89971 0
M  V30 7217 H 689.904 1.65488 -2.77152 0
M  V30 7218 H 688.956 -0.552335 -3.76369 0
M  V30 7219 H 690.268 -0.506473 -4.96222 0
M  V30 7220 H 689.422 1.68415 -5.82856 0
M  V30 7221 H 688.161 1.71935 -4.56388 0
M  V30 7222 H 687.166 -0.393944 -5.48387 0
M  V30 7223 H 688.391 -0.412053 -6.77849 0
M  V30 7224 H 686.337 1.78316 -6.313 0
M  V30 7225 H 686.254 0.561089 -7.53915 0
M  V30 7226 H 687.522 1.74889 -7.59628 0
M  V30 7227 N 691.751 1.51645 -0.429126 0
M  V30 7228 C 692.997 2.02967 0.132584 0
M  V30 7229 C 693.352 1.30804 1.41096 0
M  V30 7230 O 692.645 0.411705 1.87124 0
M  V30 7231 C 692.839 3.54989 0.414472 0
M  V30 7232 C 692.668 4.41879 -0.83503 0
M  V30 7233 C 691.438 4.86482 -1.36614 0
M  V30 7234 C 693.636 4.84727 -1.71886 0
M  V30 7235 N 691.618 5.5756 -2.56904 0
M  V30 7236 C 692.989 5.54788 -2.76786 0
M  V30 7237 C 695.044 4.66721 -1.73425 0
M  V30 7238 C 693.747 6.08753 -3.8316 0
M  V30 7239 C 695.773 5.21597 -2.7873 0
M  V30 7240 C 695.135 5.91598 -3.8235 0
M  V30 7241 H 691.234 0.781942 0.00956367 0
M  V30 7242 H 693.818 1.8561 -0.587957 0
M  V30 7243 H 691.989 3.72378 1.10405 0
M  V30 7244 H 693.721 3.92982 0.966817 0
M  V30 7245 H 690.476 4.64553 -0.921255 0
M  V30 7246 H 690.9 5.97731 -3.17879 0
M  V30 7247 H 695.542 4.1207 -0.946467 0
M  V30 7248 H 693.26 6.62464 -4.62782 0
M  V30 7249 H 696.846 5.09522 -2.80853 0
M  V30 7250 H 695.726 6.33299 -4.62495 0
M  V30 7251 N 693.229 0.160201 1.56784 0
M  V30 7252 C 694.475 -0.48831 1.96833 0
M  V30 7253 C 694.808 -1.63641 1.04571 0
M  V30 7254 O 694.083 -1.94289 0.0906481 0
M  V30 7255 C 694.366 -0.981908 3.46454 0
M  V30 7256 C 694.219 0.165607 4.49495 0
M  V30 7257 C 695.538 -1.85931 3.98896 0
M  V30 7258 H 692.657 -0.176027 0.71567 0
M  V30 7259 H 695.299 0.244093 1.88426 0
M  V30 7260 H 693.449 -1.60602 3.5375 0
M  V30 7261 H 695.121 0.802372 4.54268 0
M  V30 7262 H 693.364 0.822789 4.25926 0
M  V30 7263 H 694.035 -0.221699 5.51555 0
M  V30 7264 H 696.511 -1.33327 3.94161 0
M  V30 7265 H 695.387 -2.17373 5.04024 0
M  V30 7266 H 695.648 -2.80106 3.42042 0
M  V30 7267 N 694.707 -1.5719 -0.113559 0
M  V30 7268 C 695.984 -1.76117 -0.850999 0
M  V30 7269 C 696.364 -0.737085 -1.97814 0
M  V30 7270 O 695.712 0.237942 -2.27258 0
M  V30 7271 C 695.922 -3.21298 -1.36266 0
M  V30 7272 C 697.27 -3.83955 -1.81283 0
M  V30 7273 O 698.294 -3.24934 -1.45933 0
M  V30 7274 O 697.153 -4.87707 -2.46585 0
M  V30 7275 H 694.247 -0.721308 -0.404529 0
M  V30 7276 H 696.793 -1.69423 -0.0968756 0
M  V30 7277 H 695.565 -3.87355 -0.554235 0
M  V30 7278 H 695.188 -3.32552 -2.17933 0
M  V30 7279 N 696.185 0.383891 -1.52853 0
M  V30 7280 C 697.431 1.12667 -1.69345 0
M  V30 7281 C 697.786 1.87519 -0.430635 0
M  V30 7282 O 697.079 1.82742 0.575846 0
M  V30 7283 C 697.273 2.12881 -2.87082 0
M  V30 7284 C 697.102 1.47873 -4.24692 0
M  V30 7285 C 695.872 1.24064 -4.89833 0
M  V30 7286 C 698.07 0.926118 -5.05893 0
M  V30 7287 N 696.052 0.552138 -6.11412 0
M  V30 7288 C 697.423 0.365966 -6.18919 0
M  V30 7289 C 699.478 0.823023 -4.91051 0
M  V30 7290 C 698.181 -0.287204 -7.18726 0
M  V30 7291 C 700.207 0.183666 -5.91115 0
M  V30 7292 C 699.569 -0.365693 -7.0345 0
M  V30 7293 H 695.668 0.398064 -0.673104 0
M  V30 7294 H 698.252 0.415504 -1.90215 0
M  V30 7295 H 696.423 2.81329 -2.67784 0
M  V30 7296 H 698.155 2.79703 -2.92486 0
M  V30 7297 H 694.91 1.51701 -4.48647 0
M  V30 7298 H 695.334 0.223783 -6.7663 0
M  V30 7299 H 699.976 1.23354 -4.04405 0
M  V30 7300 H 697.694 -0.709719 -8.04977 0
M  V30 7301 H 701.28 0.105074 -5.81705 0
M  V30 7302 H 700.16 -0.85261 -7.79551 0
M  V30 7303 N 697.663 1.43903 0.642637 0
M  V30 7304 C 698.909 1.46296 1.40447 0
M  V30 7305 C 699.242 0.0908361 1.93987 0
M  V30 7306 O 698.517 -0.889884 1.72949 0
M  V30 7307 C 698.8 2.51399 2.57819 0
M  V30 7308 C 698.653 3.97926 2.09702 0
M  V30 7309 C 699.972 2.53125 3.60022 0
M  V30 7310 H 697.091 0.532676 0.509338 0
M  V30 7311 H 699.733 1.75515 0.727635 0
M  V30 7312 H 697.883 2.26614 3.1556 0
M  V30 7313 H 699.555 4.33804 1.5688 0
M  V30 7314 H 697.798 4.10252 1.40982 0
M  V30 7315 H 698.469 4.67096 2.94152 0
M  V30 7316 H 700.945 2.75242 3.12059 0
M  V30 7317 H 699.821 3.28589 4.39682 0
M  V30 7318 H 700.082 1.56895 4.13324 0
M  V30 7319 N 699.141 -0.881989 1.30609 0
M  V30 7320 C 700.074 -1.99066 1.11571 0
M  V30 7321 C 701.052 -1.62584 0.022516 0
M  V30 7322 O 702.236 -1.87671 0.176644 0
M  V30 7323 C 699.363 -3.3134 0.702237 0
M  V30 7324 C 698.409 -3.86807 1.79673 0
M  V30 7325 S 699.242 -4.13735 3.39976 0
M  V30 7326 C 700.398 -5.49024 3.00538 0
M  V30 7327 H 700.631 -2.1491 2.05429 0
M  V30 7328 H 698.164 -1.03074 1.14957 0
M  V30 7329 H 700.122 -4.07796 0.470415 0
M  V30 7330 H 698.783 -3.13349 -0.217034 0
M  V30 7331 H 697.976 -4.82397 1.45977 0
M  V30 7332 H 697.578 -3.17102 1.98298 0
M  V30 7333 H 699.87 -6.30208 2.48684 0
M  V30 7334 H 700.813 -5.8766 3.95046 0
M  V30 7335 H 701.221 -5.11726 2.3832 0
M  V30 7336 N 700.619 -1.13374 -1.09472 0
M  V30 7337 C 701.844 -0.918711 -1.85942 0
M  V30 7338 C 702.269 0.527225 -1.8056 0
M  V30 7339 O 701.627 1.37408 -1.18274 0
M  V30 7340 C 701.675 -1.41056 -3.31867 0
M  V30 7341 O 700.779 -0.595496 -4.08078 0
M  V30 7342 H 700.12 -0.329297 -0.576593 0
M  V30 7343 H 702.65 -1.50829 -1.38245 0
M  V30 7344 H 702.66 -1.41398 -3.82715 0
M  V30 7345 H 701.335 -2.46335 -3.35099 0
M  V30 7346 H 699.912 -0.659911 -3.67014 0
M  V30 7347 N 702.098 1.27442 -0.927168 0
M  V30 7348 C 703.008 2.30599 -0.431448 0
M  V30 7349 C 704.024 1.67028 0.48761 0
M  V30 7350 O 705.2 1.97962 0.370546 0
M  V30 7351 C 702.265 3.45327 0.308292 0
M  V30 7352 C 701.326 4.24418 -0.645615 0
M  V30 7353 C 700.559 5.33667 0.0589164 0
M  V30 7354 O 700.782 5.5589 1.27838 0
M  V30 7355 O 699.716 5.98774 -0.612638 0
M  V30 7356 H 703.542 2.75036 -1.28797 0
M  V30 7357 H 701.127 1.32382 -0.692495 0
M  V30 7358 H 703.009 4.15107 0.725555 0
M  V30 7359 H 701.684 3.02945 1.14043 0
M  V30 7360 H 700.591 3.57174 -1.11255 0
M  V30 7361 H 701.924 4.70512 -1.44496 0
M  V30 7362 N 703.576 0.692616 1.41565 0
M  V30 7363 C 704.825 0.219452 2.00503 0
M  V30 7364 C 705.138 -1.18683 1.55479 0
M  V30 7365 O 706.344 -1.75731 2.06956 0
M  V30 7366 C 704.8 0.341451 3.58277 0
M  V30 7367 C 704.408 1.75291 4.12283 0
M  V30 7368 C 706.152 -0.0720899 4.24439 0
M  V30 7369 C 704.059 1.82673 5.62481 0
M  V30 7370 H 702.989 0.0782874 0.749925 0
M  V30 7371 H 705.64 0.860386 1.62079 0
M  V30 7372 H 704.022 -0.367683 3.94289 0
M  V30 7373 H 705.196 2.49057 3.87695 0
M  V30 7374 H 703.511 2.11587 3.58636 0
M  V30 7375 H 706.108 -0.0373385 5.34687 0
M  V30 7376 H 706.451 -1.11034 4.0122 0
M  V30 7377 H 706.984 0.586663 3.9345 0
M  V30 7378 H 703.723 2.84539 5.90523 0
M  V30 7379 H 703.243 1.13288 5.89004 0
M  V30 7380 H 704.922 1.58827 6.27203 0
M  V30 7381 N 705.054 -1.51416 0.437162 0
M  V30 7382 C 706.001 -2.27743 -0.374374 0
M  V30 7383 C 706.971 -1.31327 -1.01698 0
M  V30 7384 O 708.156 -1.60229 -1.03592 0
M  V30 7385 C 705.296 -3.12241 -1.46969 0
M  V30 7386 C 704.409 -4.23651 -0.845236 0
M  V30 7387 C 703.544 -4.95458 -1.91559 0
M  V30 7388 C 702.583 -5.98789 -1.26956 0
M  V30 7389 N 701.72 -6.64005 -2.28126 0
M  V30 7390 H 706.56 -2.96654 0.282892 0
M  V30 7391 H 704.097 -1.46319 0.151352 0
M  V30 7392 H 706.055 -3.59556 -2.11602 0
M  V30 7393 H 704.685 -2.45445 -2.09659 0
M  V30 7394 H 703.737 -3.803 -0.0872059 0
M  V30 7395 H 705.049 -4.97683 -0.333582 0
M  V30 7396 H 704.203 -5.46321 -2.63854 0
M  V30 7397 H 702.942 -4.21055 -2.46097 0
M  V30 7398 H 701.947 -5.47219 -0.53207 0
M  V30 7399 H 703.172 -6.75149 -0.731509 0
M  V30 7400 H 701.118 -5.92415 -2.81745 0
M  V30 7401 H 701.035 -7.33802 -1.81852 0
M  V30 7402 H 702.303 -7.19498 -2.99905 0
M  V30 7403 N 706.532 -0.168513 -1.56696 0
M  V30 7404 C 707.462 0.758563 -2.20835 0
M  V30 7405 C 708.443 1.24121 -1.1631 0
M  V30 7406 O 709.628 1.29487 -1.4473 0
M  V30 7407 C 706.758 1.9892 -2.8469 0
M  V30 7408 C 705.712 1.64252 -3.95228 0
M  V30 7409 C 705.038 2.94757 -4.46119 0
M  V30 7410 C 706.338 0.872675 -5.14958 0
M  V30 7411 H 708.032 0.223953 -2.98561 0
M  V30 7412 H 705.578 0.106277 -1.43607 0
M  V30 7413 H 707.531 2.64275 -3.28233 0
M  V30 7414 H 706.255 2.5479 -2.04327 0
M  V30 7415 H 704.914 1.01266 -3.52336 0
M  V30 7416 H 704.562 3.48662 -3.62552 0
M  V30 7417 H 704.262 2.72316 -5.2069 0
M  V30 7418 H 705.786 3.61147 -4.92347 0
M  V30 7419 H 707.2 1.42875 -5.55211 0
M  V30 7420 H 705.597 0.747402 -5.95428 0
M  V30 7421 H 706.667 -0.131535 -4.84722 0
M  V30 7422 N 708.01 1.57248 0.105221 0
M  V30 7423 C 709.24 1.89492 0.823175 0
M  V30 7424 C 709.648 0.75934 1.73294 0
M  V30 7425 O 708.991 -0.278182 1.81581 0
M  V30 7426 C 709.053 3.16891 1.69765 0
M  V30 7427 C 708.717 4.46787 0.960769 0
M  V30 7428 C 709.714 5.19061 0.295218 0
M  V30 7429 C 707.399 4.93467 0.937854 0
M  V30 7430 C 709.393 6.36246 -0.383393 0
M  V30 7431 C 707.08 6.10566 0.255452 0
M  V30 7432 C 708.078 6.81804 -0.404003 0
M  V30 7433 O 707.766 7.96673 -1.07549 0
M  V30 7434 H 707.498 0.631512 0.24118 0
M  V30 7435 H 710.052 2.05203 0.0899655 0
M  V30 7436 H 708.282 2.973 2.47285 0
M  V30 7437 H 709.971 3.35046 2.29126 0
M  V30 7438 H 710.737 4.84044 0.304448 0
M  V30 7439 H 706.616 4.37913 1.44058 0
M  V30 7440 H 710.16 6.91787 -0.898696 0
M  V30 7441 H 706.057 6.45039 0.244032 0
M  V30 7442 H 706.825 8.12596 -0.981355 0
M  V30 7443 N 709.488 -0.375779 1.53054 0
M  V30 7444 C 710.765 -1.13453 1.59336 0
M  V30 7445 C 711.145 -2.07379 0.394614 0
M  V30 7446 O 710.493 -2.2004 -0.616 0
M  V30 7447 C 710.703 -1.8826 2.93869 0
M  V30 7448 C 712.051 -2.43155 3.48081 0
M  V30 7449 O 713.075 -1.984 2.95831 0
M  V30 7450 O 711.934 -3.24944 4.39401 0
M  V30 7451 H 709.028 -0.519856 0.643179 0
M  V30 7452 H 711.574 -0.379865 1.65394 0
M  V30 7453 H 710.346 -1.19652 3.72558 0
M  V30 7454 H 709.969 -2.70658 2.91256 0
M  V30 7455 N 710.966 -1.44241 -0.634997 0
M  V30 7456 C 712.243 -1.37296 -1.39317 0
M  V30 7457 C 712.623 -0.0297532 -2.11079 0
M  V30 7458 O 711.971 0.987524 -2.06059 0
M  V30 7459 C 712.181 -2.56853 -2.36279 0
M  V30 7460 C 713.529 -3.00747 -2.99728 0
M  V30 7461 O 714.553 -2.5703 -2.46605 0
M  V30 7462 O 713.412 -3.76533 -3.96087 0
M  V30 7463 H 710.506 -0.543503 -0.623325 0
M  V30 7464 H 713.052 -1.56324 -0.660376 0
M  V30 7465 H 711.824 -3.46228 -1.82324 0
M  V30 7466 H 711.447 -2.40019 -3.16981 0
M  V30 7467 N 712.444 0.87505 -1.31075 0
M  V30 7468 C 713.692 1.62447 -1.20231 0
M  V30 7469 C 714.013 1.93506 0.240888 0
M  V30 7470 O 713.283 1.57847 1.16022 0
M  V30 7471 H 711.863 0.602207 -0.441991 0
M  V30 7472 H 714.525 1.04788 -1.64334 0
M  V30 7473 H 713.621 2.57031 -1.77036 0
M  V30 7474 N 713.922 1.13953 1.08869 0
M  V30 7475 C 715.15 0.92817 1.84912 0
M  V30 7476 C 715.565 -0.523197 1.81406 0
M  V30 7477 O 714.922 -1.36237 1.21432 0
M  V30 7478 C 714.973 1.41509 3.32652 0
M  V30 7479 O 714.694 2.80959 3.36145 0
M  V30 7480 C 716.195 1.243 4.25517 0
M  V30 7481 H 713.415 0.330612 0.583898 0
M  V30 7482 H 715.959 1.51349 1.37527 0
M  V30 7483 H 714.114 0.872648 3.77444 0
M  V30 7484 H 714.528 3.02704 4.28335 0
M  V30 7485 H 716.002 1.63237 5.27312 0
M  V30 7486 H 716.479 0.18532 4.38809 0
M  V30 7487 H 717.085 1.77375 3.86546 0
M  V30 7488 N 715.4 -1.26948 0.933913 0
M  V30 7489 C 716.647 -1.94087 0.577625 0
M  V30 7490 C 716.975 -1.73345 -0.88214 0
M  V30 7491 O 716.23 -1.05945 -1.64542 0
M  V30 7492 C 716.529 -3.46963 0.857406 0
M  V30 7493 C 716.195 -3.87834 2.2999 0
M  V30 7494 C 714.857 -3.98704 2.69423 0
M  V30 7495 C 717.209 -4.08442 3.23766 0
M  V30 7496 C 714.537 -4.27573 4.01744 0
M  V30 7497 C 716.889 -4.38798 4.55675 0
M  V30 7498 C 715.553 -4.47881 4.94934 0
M  V30 7499 H 714.823 -0.710215 0.211368 0
M  V30 7500 H 717.47 -1.50899 1.17905 0
M  V30 7501 H 715.775 -3.91416 0.173369 0
M  V30 7502 H 717.472 -3.97062 0.560615 0
M  V30 7503 H 714.062 -3.79916 1.98399 0
M  V30 7504 H 718.246 -3.99479 2.94499 0
M  V30 7505 H 713.502 -4.32815 4.31834 0
M  V30 7506 H 717.676 -4.5369 5.28335 0
M  V30 7507 H 715.303 -4.70005 5.97495 0
M  V30 7508 N 716.879 -0.700114 -1.41195 0
M  V30 7509 C 717.842 -0.0465706 -2.29153 0
M  V30 7510 C 718.842 0.703302 -1.44604 0
M  V30 7511 O 720.032 0.537513 -1.657 0
M  V30 7512 C 717.164 0.944324 -3.2756 0
M  V30 7513 H 718.357 -0.821064 -2.88442 0
M  V30 7514 H 715.91 -0.463869 -1.49258 0
M  V30 7515 H 716.645 1.74642 -2.73259 0
M  V30 7516 H 716.43 0.409701 -3.89954 0
M  V30 7517 H 717.92 1.39925 -3.9346 0
M  V30 7518 N 718.357 1.51182 -0.445186 0
M  V30 7519 C 719.606 2.01342 0.120189 0
M  V30 7520 C 719.919 1.33353 1.43095 0
M  V30 7521 O 721.125 1.74525 2.07974 0
M  V30 7522 C 719.581 3.58925 0.264732 0
M  V30 7523 C 719.189 4.35855 -1.03606 0
M  V30 7524 C 720.933 4.17208 0.783455 0
M  V30 7525 C 718.84 5.85162 -0.856731 0
M  V30 7526 H 717.77 0.752426 0.0486922 0
M  V30 7527 H 720.421 1.74221 -0.576143 0
M  V30 7528 H 718.803 3.82525 1.02425 0
M  V30 7529 H 719.977 4.23997 -1.80452 0
M  V30 7530 H 718.292 3.89062 -1.48391 0
M  V30 7531 H 720.889 5.26475 0.934239 0
M  V30 7532 H 721.232 3.76892 1.768 0
M  V30 7533 H 721.765 3.97715 0.0820346 0
M  V30 7534 H 718.504 6.29904 -1.81388 0
M  V30 7535 H 718.024 5.99663 -0.128206 0
M  V30 7536 H 719.703 6.44963 -0.513027 0
M  V30 7537 N 719.835 0.176821 1.56605 0
M  V30 7538 C 721.246 -0.338963 1.83597 0
M  V30 7539 C 721.597 -1.62677 1.09684 0
M  V30 7540 O 720.722 -2.13524 0.351661 0
M  V30 7541 C 721.317 -0.62177 3.33046 0
M  V30 7542 C 719.876 -1.08198 3.60514 0
M  V30 7543 C 719.023 -0.120774 2.77037 0
M  V30 7544 H 721.974 0.400978 1.53551 0
M  V30 7545 H 721.995 -1.47321 3.50823 0
M  V30 7546 H 721.507 0.315692 3.86814 0
M  V30 7547 H 719.608 -2.03435 3.12162 0
M  V30 7548 H 719.721 -0.987329 4.68816 0
M  V30 7549 H 718.085 -0.619192 2.47059 0
M  V30 7550 H 718.868 0.810806 3.33588 0
M  V30 7551 N 721.313 -1.57302 -0.09688 0
M  V30 7552 C 722.538 -1.9058 -0.818169 0
M  V30 7553 C 722.963 -0.770921 -1.71576 0
M  V30 7554 O 722.321 0.277588 -1.79162 0
M  V30 7555 C 722.369 -3.22714 -1.60898 0
M  V30 7556 O 721.473 -3.10178 -2.71779 0
M  V30 7557 H 720.814 -0.624759 -0.224882 0
M  V30 7558 H 723.344 -2.04471 -0.07264 0
M  V30 7559 H 723.354 -3.55978 -1.99358 0
M  V30 7560 H 722.029 -4.04899 -0.950227 0
M  V30 7561 H 720.606 -2.88424 -2.3636 0
M  V30 7562 N 722.791 0.367657 -1.53252 0
M  V30 7563 C 724.068 1.12606 -1.59935 0
M  V30 7564 C 724.448 2.07167 -0.405606 0
M  V30 7565 O 723.796 2.20364 0.604323 0
M  V30 7566 C 724.006 1.86699 -2.94863 0
M  V30 7567 C 725.354 2.41306 -3.49366 0
M  V30 7568 O 726.378 1.96828 -2.96879 0
M  V30 7569 O 725.237 3.2261 -4.41118 0
M  V30 7570 H 722.331 0.516438 -0.645926 0
M  V30 7571 H 724.877 0.371088 -1.65593 0
M  V30 7572 H 723.649 1.17674 -3.73187 0
M  V30 7573 H 723.272 2.6911 -2.92687 0
M  V30 7574 N 724.269 1.44576 0.627338 0
M  V30 7575 C 725.199 1.54562 1.75022 0
M  V30 7576 C 726.18 0.398378 1.65369 0
M  V30 7577 O 727.365 0.61899 1.84071 0
M  V30 7578 C 724.495 1.49309 3.13567 0
M  V30 7579 C 723.449 2.62549 3.38012 0
M  V30 7580 C 722.775 2.42348 4.76625 0
M  V30 7581 C 724.075 4.04678 3.30202 0
M  V30 7582 H 725.769 2.4855 1.66922 0
M  V30 7583 H 723.315 1.19624 0.801636 0
M  V30 7584 H 725.268 1.54895 3.919 0
M  V30 7585 H 723.992 0.518392 3.2246 0
M  V30 7586 H 722.651 2.56358 2.62061 0
M  V30 7587 H 722.299 1.43062 4.82226 0
M  V30 7588 H 721.999 3.18273 4.93939 0
M  V30 7589 H 723.523 2.49758 5.57183 0
M  V30 7590 H 724.937 4.12217 3.98435 0
M  V30 7591 H 723.334 4.80836 3.5905 0
M  V30 7592 H 724.404 4.2798 2.27949 0
M  V30 7593 N 725.747 -0.868086 1.31537 0
M  V30 7594 C 726.657 -2.00801 1.21311 0
M  V30 7595 C 727.673 -1.73518 0.129431 0
M  V30 7596 O 728.849 -1.98378 0.347588 0
M  V30 7597 C 725.914 -3.3419 0.922935 0
M  V30 7598 C 724.975 -3.74783 2.0937 0
M  V30 7599 C 724.208 -5.01807 1.81728 0
M  V30 7600 O 724.431 -5.65404 0.753313 0
M  V30 7601 O 723.365 -5.39213 2.67457 0
M  V30 7602 H 727.191 -2.12361 2.17109 0
M  V30 7603 H 724.776 -0.996684 1.11295 0
M  V30 7604 H 726.658 -4.14174 0.777033 0
M  V30 7605 H 725.333 -3.237 -0.00500301 0
M  V30 7606 H 724.24 -2.95432 2.29501 0
M  V30 7607 H 725.573 -3.89902 3.00396 0
M  V30 7608 N 727.225 -1.14528 -1.08264 0
M  V30 7609 C 728.471 -0.925721 -1.81113 0
M  V30 7610 C 728.826 0.54185 -1.84612 0
M  V30 7611 O 728.119 1.39628 -1.31205 0
M  V30 7612 C 728.313 -1.46226 -3.26117 0
M  V30 7613 C 728.142 -2.98047 -3.36746 0
M  V30 7614 C 726.912 -3.66508 -3.4785 0
M  V30 7615 C 729.11 -3.95903 -3.28277 0
M  V30 7616 N 727.092 -5.06227 -3.47285 0
M  V30 7617 C 728.463 -5.21883 -3.34721 0
M  V30 7618 C 730.518 -3.88002 -3.12024 0
M  V30 7619 C 729.221 -6.40886 -3.26585 0
M  V30 7620 C 731.247 -5.06553 -3.05219 0
M  V30 7621 C 730.609 -6.31403 -3.12266 0
M  V30 7622 H 726.708 -0.392294 -0.676483 0
M  V30 7623 H 729.292 -1.45567 -1.293 0
M  V30 7624 H 727.463 -0.959076 -3.76373 0
M  V30 7625 H 729.195 -1.18247 -3.8704 0
M  V30 7626 H 725.95 -3.17067 -3.51804 0
M  V30 7627 H 726.374 -5.79172 -3.50555 0
M  V30 7628 H 731.016 -2.9235 -3.05436 0
M  V30 7629 H 728.734 -7.36781 -3.31934 0
M  V30 7630 H 732.32 -5.02191 -2.93761 0
M  V30 7631 H 731.2 -7.21596 -3.07032 0
M  V30 7632 N 728.703 1.26451 -0.940633 0
M  V30 7633 C 729.928 1.98407 -0.60412 0
M  V30 7634 C 730.353 1.69584 0.81382 0
M  V30 7635 O 729.711 0.943553 1.54812 0
M  V30 7636 C 729.759 3.50387 -0.852136 0
M  V30 7637 O 728.863 4.1233 0.076013 0
M  V30 7638 H 728.204 0.622466 -0.231153 0
M  V30 7639 H 730.734 1.60932 -1.26342 0
M  V30 7640 H 730.744 4.00614 -0.772816 0
M  V30 7641 H 729.419 3.70696 -1.88566 0
M  V30 7642 H 727.996 3.7286 -0.0543187 0
M  V30 7643 N 730.181 0.707592 1.40822 0
M  V30 7644 C 731.429 0.243189 2.00632 0
M  V30 7645 C 731.75 -1.16512 1.56365 0
M  V30 7646 O 731.02 -1.78841 0.799553 0
M  V30 7647 H 729.6 0.0869203 0.741926 0
M  V30 7648 H 732.262 0.911438 1.72275 0
M  V30 7649 H 731.358 0.270014 3.1093 0
M  V30 7650 N 731.66 -1.50943 0.453197 0
M  V30 7651 C 732.592 -2.25922 -0.38623 0
M  V30 7652 C 733.605 -1.3055 -0.972652 0
M  V30 7653 O 734.794 -1.56191 -0.864097 0
M  V30 7654 C 731.894 -3.01176 -1.5539 0
M  V30 7655 C 731.067 -4.23768 -1.0835 0
M  V30 7656 C 730.126 -4.81466 -2.12313 0
M  V30 7657 O 729.152 -5.42875 -1.71101 0
M  V30 7658 N 730.354 -4.66889 -3.44956 0
M  V30 7659 H 733.119 -2.98601 0.256468 0
M  V30 7660 H 730.68 -1.59408 0.282965 0
M  V30 7661 H 732.672 -3.36659 -2.24594 0
M  V30 7662 H 731.242 -2.31409 -2.10163 0
M  V30 7663 H 730.462 -3.93597 -0.217961 0
M  V30 7664 H 731.75 -5.03289 -0.746857 0
M  V30 7665 H 731.148 -4.18011 -3.81161 0
M  V30 7666 H 729.705 -5.06691 -4.1001 0
M  V30 7667 N 733.138 -0.185124 -1.56509 0
M  V30 7668 C 734.549 0.329221 -1.83774 0
M  V30 7669 C 734.9 1.62093 -1.10545 0
M  V30 7670 O 734.025 2.13334 -0.36298 0
M  V30 7671 C 734.62 0.604099 -3.33371 0
M  V30 7672 C 733.179 1.06284 -3.61083 0
M  V30 7673 C 732.326 0.10608 -2.77097 0
M  V30 7674 H 735.277 -0.409116 -1.53336 0
M  V30 7675 H 735.298 1.45458 -3.51599 0
M  V30 7676 H 734.81 -0.336201 -3.86641 0
M  V30 7677 H 732.911 2.01777 -3.13236 0
M  V30 7678 H 733.024 0.962453 -4.69333 0
M  V30 7679 H 731.388 0.606082 -2.47384 0
M  V30 7680 H 732.171 -0.828486 -3.33153 0
M  V30 7681 N 734.616 1.57351 0.0885366 0
M  V30 7682 C 735.893 1.77449 0.822873 0
M  V30 7683 C 736.273 0.768463 1.96616 0
M  V30 7684 O 735.621 -0.201757 2.27608 0
M  V30 7685 C 735.831 3.23425 1.31137 0
M  V30 7686 C 737.179 3.86791 1.75152 0
M  V30 7687 O 738.203 3.27215 1.40745 0
M  V30 7688 O 737.062 4.91568 2.38794 0
M  V30 7689 H 734.156 0.727653 0.393002 0
M  V30 7690 H 736.702 1.69556 0.0699095 0
M  V30 7691 H 735.474 3.88188 0.49254 0
M  V30 7692 H 735.097 3.35977 2.12615 0
M  V30 7693 N 736.094 -0.359525 1.53444 0
M  V30 7694 C 737.322 -1.12198 1.73837 0
M  V30 7695 C 737.737 -1.82854 0.470107 0
M  V30 7696 O 737.094 -1.73781 -0.557349 0
M  V30 7697 C 737.145 -2.14769 2.90786 0
M  V30 7698 O 736.866 -1.46989 4.12706 0
M  V30 7699 C 738.367 -3.03514 3.231 0
M  V30 7700 H 735.587 -0.33524 0.581253 0
M  V30 7701 H 738.131 -0.416598 2.00212 0
M  V30 7702 H 736.286 -2.80896 2.66788 0
M  V30 7703 H 736.7 -2.15378 4.78239 0
M  V30 7704 H 738.174 -3.71453 4.08322 0
M  V30 7705 H 738.651 -3.68658 2.38721 0
M  V30 7706 H 739.257 -2.42996 3.49046 0
M  V30 7707 N 737.572 -1.44907 -0.619662 0
M  V30 7708 C 738.818 -1.49504 -1.37914 0
M  V30 7709 C 739.173 -0.130158 -1.91959 0
M  V30 7710 O 738.466 0.856263 -1.71402 0
M  V30 7711 C 738.66 -2.50002 -2.55409 0
M  V30 7712 C 738.489 -3.96128 -2.12867 0
M  V30 7713 C 737.259 -4.64204 -1.99606 0
M  V30 7714 C 739.457 -4.85014 -1.71074 0
M  V30 7715 N 737.439 -5.95104 -1.50748 0
M  V30 7716 C 738.81 -6.05447 -1.33544 0
M  V30 7717 C 740.865 -4.71979 -1.58557 0
M  V30 7718 C 739.568 -7.1429 -0.847484 0
M  V30 7719 C 741.594 -5.80858 -1.11165 0
M  V30 7720 C 740.956 -7.00439 -0.745932 0
M  V30 7721 H 737.055 -0.60207 -0.499034 0
M  V30 7722 H 739.639 -1.81305 -0.70968 0
M  V30 7723 H 737.81 -2.20172 -3.19967 0
M  V30 7724 H 739.542 -2.44823 -3.22248 0
M  V30 7725 H 736.297 -4.19182 -2.20417 0
M  V30 7726 H 736.721 -6.64676 -1.28585 0
M  V30 7727 H 741.363 -3.79953 -1.85461 0
M  V30 7728 H 739.081 -8.06116 -0.565974 0
M  V30 7729 H 742.667 -5.72803 -1.01923 0
M  V30 7730 H 741.547 -7.83255 -0.384848 0
M  V30 7731 N 739.05 0.861098 -1.31996 0
M  V30 7732 C 740.278 1.6474 -1.25173 0
M  V30 7733 C 740.693 1.87926 0.181425 0
M  V30 7734 O 740.05 1.4437 1.1164 0
M  V30 7735 C 740.101 3.01036 -2.0015 0
M  V30 7736 O 739.822 2.7888 -3.37872 0
M  V30 7737 C 741.323 3.95481 -2.00273 0
M  V30 7738 H 738.543 0.513314 -0.432146 0
M  V30 7739 H 741.087 1.07419 -1.74016 0
M  V30 7740 H 739.242 3.55021 -1.55046 0
M  V30 7741 H 739.656 3.65514 -3.76165 0
M  V30 7742 H 741.13 4.88403 -2.57229 0
M  V30 7743 H 741.607 4.27957 -0.987407 0
M  V30 7744 H 742.213 3.47433 -2.45296 0
M  V30 7745 N 740.528 1.15101 1.07655 0
M  V30 7746 C 741.776 0.922149 1.79836 0
M  V30 7747 C 742.097 -0.552346 1.87014 0
M  V30 7748 O 741.367 -1.40145 1.3688 0
M  V30 7749 H 739.947 0.338182 0.666064 0
M  V30 7750 H 742.609 1.45107 1.30115 0
M  V30 7751 H 741.705 1.32883 2.82398 0
M  V30 7752 N 742.006 -1.2595 0.947325 0
M  V30 7753 C 743.234 -1.97544 0.615127 0
M  V30 7754 C 743.649 -1.70484 -0.811221 0
M  V30 7755 O 743.006 -0.97662 -1.5417 0
M  V30 7756 C 743.057 -3.51236 0.855328 0
M  V30 7757 O 742.778 -3.77359 2.22558 0
M  V30 7758 C 744.279 -4.40066 0.534515 0
M  V30 7759 H 741.499 -0.629888 0.231263 0
M  V30 7760 H 744.043 -1.60308 1.26971 0
M  V30 7761 H 742.198 -3.8661 0.247266 0
M  V30 7762 H 742.612 -4.71857 2.29022 0
M  V30 7763 H 744.086 -5.46838 0.753168 0
M  V30 7764 H 744.563 -4.35982 -0.530701 0
M  V30 7765 H 745.169 -4.10245 1.12158 0
M  V30 7766 N 743.484 -0.715051 -1.40445 0
M  V30 7767 C 744.714 -0.263576 -2.04912 0
M  V30 7768 C 745.122 1.09943 -1.53978 0
M  V30 7769 O 744.465 1.70203 -0.691133 0
M  V30 7770 C 744.527 -0.165048 -3.59121 0
M  V30 7771 C 744.191 -1.46325 -4.32941 0
M  V30 7772 C 745.188 -2.40506 -4.60926 0
M  V30 7773 C 742.873 -1.72203 -4.7186 0
M  V30 7774 C 744.867 -3.58812 -5.26814 0
M  V30 7775 C 742.554 -2.9079 -5.3748 0
M  V30 7776 C 743.552 -3.83917 -5.64887 0
M  V30 7777 O 743.24 -5.00424 -6.29151 0
M  V30 7778 H 742.972 -0.116317 -0.665918 0
M  V30 7779 H 745.526 -0.973774 -1.8085 0
M  V30 7780 H 743.756 0.601088 -3.82 0
M  V30 7781 H 745.445 0.251794 -4.05118 0
M  V30 7782 H 746.211 -2.21778 -4.31323 0
M  V30 7783 H 742.09 -1.00571 -4.49896 0
M  V30 7784 H 745.634 -4.31517 -5.48123 0
M  V30 7785 H 741.531 -3.09428 -5.66502 0
M  V30 7786 H 742.299 -5.00494 -6.47648 0
M  V30 7787 N 744.962 1.50701 -0.461195 0
M  V30 7788 C 746.19 2.06681 0.0951756 0
M  V30 7789 C 746.605 1.32615 1.34382 0
M  V30 7790 O 745.962 0.392531 1.78229 0
M  V30 7791 C 746.013 3.59354 0.393316 0
M  V30 7792 O 745.734 4.30626 -0.805797 0
M  V30 7793 C 747.235 4.31926 0.997744 0
M  V30 7794 H 744.455 0.670995 -0.00267259 0
M  V30 7795 H 746.999 1.93991 -0.647137 0
M  V30 7796 H 745.154 3.7188 1.08555 0
M  V30 7797 H 745.568 5.21667 -0.544409 0
M  V30 7798 H 747.042 5.39756 1.15619 0
M  V30 7799 H 747.519 3.91772 1.98523 0
M  V30 7800 H 748.125 4.23905 0.344188 0
M  V30 7801 N 746.441 0.193421 1.56409 0
M  V30 7802 C 747.689 -0.444908 1.97142 0
M  V30 7803 C 748.01 -1.62268 1.08139 0
M  V30 7804 O 747.28 -1.95307 0.152326 0
M  V30 7805 H 745.86 -0.16736 0.728011 0
M  V30 7806 H 748.522 0.279763 1.92882 0
M  V30 7807 H 747.618 -0.790159 3.01932 0
M  V30 7808 N 747.919 -1.57396 -0.0801906 0
M  V30 7809 C 748.867 -2.04136 -1.11495 0
M  V30 7810 C 749.861 -0.945137 -1.40583 0
M  V30 7811 O 751.067 -1.13028 -1.40088 0
M  V30 7812 H 747.442 -0.65076 -0.37685 0
M  V30 7813 H 749.413 -2.90205 -0.694526 0
M  V30 7814 C 748.162 -2.49399 -2.42272 0
M  V30 7815 H 747.485 -3.33339 -2.20737 0
M  V30 7816 H 748.925 -2.85864 -3.13142 0
M  V30 7817 C 747.384 -1.37341 -3.07635 0
M  V30 7818 O 747.914 -0.710829 -3.95361 0
M  V30 7819 N 746.12 -1.12064 -2.68123 0
M  V30 7820 H 745.667 -1.66126 -1.96875 0
M  V30 7821 H 745.625 -0.372916 -3.12181 0
M  V30 7822 N 749.397 0.351382 -1.53633 0
M  V30 7823 C 750.808 0.927429 -1.62036 0
M  V30 7824 C 751.159 1.89809 -0.496706 0
M  V30 7825 O 750.284 2.1313 0.374749 0
M  V30 7826 C 750.879 1.68886 -2.93706 0
M  V30 7827 C 749.438 2.21404 -3.04397 0
M  V30 7828 C 748.585 1.03075 -2.57431 0
M  V30 7829 H 751.536 0.129748 -1.58169 0
M  V30 7830 H 751.557 2.55116 -2.82305 0
M  V30 7831 H 751.069 0.982149 -3.75467 0
M  V30 7832 H 749.17 2.95274 -2.27253 0
M  V30 7833 H 749.283 2.48312 -4.09729 0
M  V30 7834 H 747.647 1.40188 -2.12649 0
M  V30 7835 H 748.43 0.338793 -3.41624 0
M  V30 7836 N 750.875 1.45233 0.611969 0
M  V30 7837 C 751.823 1.53898 1.74408 0
M  V30 7838 C 752.817 0.409254 1.64382 0
M  V30 7839 O 754.023 0.584988 1.70229 0
M  V30 7840 H 750.398 0.483303 0.576127 0
M  V30 7841 H 752.369 2.49143 1.64227 0
M  V30 7842 C 751.118 1.51865 3.12782 0
M  V30 7843 H 750.441 2.38118 3.21154 0
M  V30 7844 H 751.881 1.61986 3.91838 0
M  V30 7845 C 750.34 0.242374 3.36027 0
M  V30 7846 O 750.87 -0.679587 3.9591 0
M  V30 7847 N 749.076 0.139448 2.90265 0
M  V30 7848 H 748.623 0.890571 2.41716 0
M  V30 7849 H 748.581 -0.713686 3.06193 0
M  V30 7850 N 752.353 -0.854086 1.3245 0
M  V30 7851 C 753.283 -1.97827 1.24044 0
M  V30 7852 C 754.264 -1.69646 0.124166 0
M  V30 7853 O 755.449 -1.91687 0.31143 0
M  V30 7854 C 752.579 -3.33673 0.963324 0
M  V30 7855 C 751.533 -3.76207 2.04089 0
M  V30 7856 C 750.859 -5.0969 1.61618 0
M  V30 7857 C 752.159 -3.91612 3.45597 0
M  V30 7858 H 753.853 -2.05118 2.18099 0
M  V30 7859 H 751.399 -0.985489 1.04996 0
M  V30 7860 H 753.352 -4.11871 0.891061 0
M  V30 7861 H 752.076 -3.26597 -0.0128649 0
M  V30 7862 H 750.735 -3.0026 2.10332 0
M  V30 7863 H 750.383 -4.99072 0.627418 0
M  V30 7864 H 750.083 -5.3912 2.33717 0
M  V30 7865 H 751.607 -5.90381 1.55829 0
M  V30 7866 H 753.021 -4.60163 3.4194 0
M  V30 7867 H 751.418 -4.3246 4.16051 0
M  V30 7868 H 752.488 -2.9451 3.85217 0
M  V30 7869 N 753.831 -1.1567 -1.07043 0
M  V30 7870 C 754.781 -0.824733 -2.12561 0
M  V30 7871 C 755.765 0.19243 -1.59745 0
M  V30 7872 O 756.957 -0.00728759 -1.76998 0
M  V30 7873 C 754.086 -0.31921 -3.41813 0
M  V30 7874 C 753.172 -1.36671 -4.01475 0
M  V30 7875 N 753.563 -2.57493 -4.35351 0
M  V30 7876 C 751.861 -1.22018 -4.28984 0
M  V30 7877 C 752.562 -3.24658 -4.82672 0
M  V30 7878 N 751.538 -2.52043 -4.81638 0
M  V30 7879 H 755.34 -1.74363 -2.3659 0
M  V30 7880 H 752.854 -1.04262 -1.24511 0
M  V30 7881 H 754.851 -0.0630216 -4.16852 0
M  V30 7882 H 753.511 0.593708 -3.19226 0
M  V30 7883 H 754.522 -2.94612 -4.25939 0
M  V30 7884 H 751.199 -0.367414 -4.1588 0
M  V30 7885 H 752.589 -4.2775 -5.1815 0
M  V30 7886 N 755.309 1.25446 -0.953992 0
M  V30 7887 C 756.555 1.9343 -0.60933 0
M  V30 7888 C 756.888 1.74542 0.851388 0
M  V30 7889 O 756.163 1.09014 1.61078 0
M  V30 7890 C 756.446 3.46844 -0.968041 0
M  V30 7891 C 756.299 3.74961 -2.48444 0
M  V30 7892 C 757.618 4.37334 -0.492641 0
M  V30 7893 H 754.737 0.702502 -0.222844 0
M  V30 7894 H 757.379 1.48076 -1.19053 0
M  V30 7895 H 755.529 3.85604 -0.473465 0
M  V30 7896 H 757.201 3.45841 -3.05273 0
M  V30 7897 H 755.444 3.20589 -2.92241 0
M  V30 7898 H 756.115 4.82246 -2.68594 0
M  V30 7899 H 758.591 4.05873 -0.916878 0
M  V30 7900 H 757.467 5.43439 -0.772331 0
M  V30 7901 H 757.728 4.37908 0.607403 0
M  V30 7902 N 756.787 0.722489 1.40064 0
M  V30 7903 C 758.203 0.396758 1.5459 0
M  V30 7904 C 758.403 -1.09375 1.69232 0
M  V30 7905 O 757.459 -1.87984 1.68578 0
M  V30 7906 C 758.772 1.16885 2.77053 0
M  V30 7907 C 760.32 1.15583 2.90877 0
M  V30 7908 C 760.795 1.91023 4.16262 0
M  V30 7909 N 762.286 1.88126 4.23276 0
M  V30 7910 C 763.021 2.43315 5.19216 0
M  V30 7911 N 762.517 3.07089 6.21022 0
M  V30 7912 N 764.31 2.33418 5.11344 0
M  V30 7913 H 756.461 1.68887 1.28806 0
M  V30 7914 H 758.724 0.714231 0.62336 0
M  V30 7915 H 758.43 2.22301 2.72534 0
M  V30 7916 H 758.304 0.765011 3.69361 0
M  V30 7917 H 760.691 0.10984 2.94896 0
M  V30 7918 H 760.772 1.59895 1.99668 0
M  V30 7919 H 760.416 2.95616 4.13006 0
M  V30 7920 H 760.346 1.44126 5.06493 0
M  V30 7921 H 762.837 1.41654 3.50346 0
M  V30 7922 H 763.15 3.467 6.90666 0
M  V30 7923 H 761.495 3.11175 6.21446 0
M  V30 7924 H 764.686 1.83248 4.30741 0
M  V30 7925 H 764.859 2.7673 5.85939 0
M  V30 7926 N 758.265 -1.50454 0.469181 0
M  V30 7927 C 759.511 -2.02615 -0.0865971 0
M  V30 7928 C 759.844 -1.35062 -1.39542 0
M  V30 7929 O 759.119 -0.475701 -1.88593 0
M  V30 7930 C 759.402 -3.59068 -0.272385 0
M  V30 7931 C 759.255 -4.37196 1.05733 0
M  V30 7932 C 760.574 -4.2793 -1.0278 0
M  V30 7933 H 757.693 -0.736389 -0.0299977 0
M  V30 7934 H 760.335 -1.79792 0.614399 0
M  V30 7935 H 758.485 -3.78646 -0.869471 0
M  V30 7936 H 760.157 -4.29195 1.69084 0
M  V30 7937 H 758.4 -4.01013 1.65442 0
M  V30 7938 H 759.071 -5.44924 0.880997 0
M  V30 7939 H 761.547 -4.12816 -0.521718 0
M  V30 7940 H 760.423 -5.37214 -1.12659 0
M  V30 7941 H 760.684 -3.90968 -2.0639 0
M  V30 7942 N 759.743 -0.201713 -1.56304 0
M  V30 7943 C 760.971 0.440723 -2.02152 0
M  V30 7944 C 761.386 1.54735 -1.08179 0
M  V30 7945 O 760.743 1.82289 -0.0878196 0
M  V30 7946 C 760.794 0.990884 -3.47655 0
M  V30 7947 O 760.515 -0.0715937 -4.38041 0
M  V30 7948 C 762.016 1.70854 -4.09052 0
M  V30 7949 H 759.236 0.109987 -0.661924 0
M  V30 7950 H 761.78 -0.312358 -2.021 0
M  V30 7951 H 759.935 1.69432 -3.48384 0
M  V30 7952 H 760.349 0.338892 -5.23404 0
M  V30 7953 H 761.823 2.04572 -5.12693 0
M  V30 7954 H 762.3 2.61462 -3.52894 0
M  V30 7955 H 762.906 1.0508 -4.12114 0
M  V30 7956 N 761.222 1.57436 0.0718424 0
M  V30 7957 C 762.447 1.91858 0.787745 0
M  V30 7958 C 762.872 0.798119 1.70328 0
M  V30 7959 O 762.23 -0.24905 1.79581 0
M  V30 7960 C 762.278 3.25232 1.55744 0
M  V30 7961 O 761.382 3.14462 2.6681 0
M  V30 7962 H 760.723 0.628258 0.214914 0
M  V30 7963 H 763.253 2.04561 0.0401012 0
M  V30 7964 H 763.263 3.59105 1.9367 0
M  V30 7965 H 761.938 4.0636 0.885691 0
M  V30 7966 H 760.515 2.92148 2.31741 0
M  V30 7967 N 762.7 -0.34323 1.53817 0
M  V30 7968 C 763.93 -1.10188 1.74763 0
M  V30 7969 C 764.338 -1.82829 0.486856 0
M  V30 7970 O 763.681 -1.75236 -0.551198 0
M  V30 7971 C 763.743 -2.16 2.87375 0
M  V30 7972 C 763.407 -1.62931 4.26969 0
M  V30 7973 C 764.404 -1.08147 5.08528 0
M  V30 7974 C 762.089 -1.67769 4.73454 0
M  V30 7975 C 764.083 -0.589039 6.34672 0
M  V30 7976 C 761.77 -1.18138 5.99572 0
M  V30 7977 C 762.768 -0.637979 6.80014 0
M  V30 7978 O 762.456 -0.149073 8.03762 0
M  V30 7979 H 762.188 -0.33445 0.587469 0
M  V30 7980 H 764.742 -0.401109 2.01445 0
M  V30 7981 H 762.972 -2.89637 2.56218 0
M  V30 7982 H 764.661 -2.77432 2.96287 0
M  V30 7983 H 765.427 -1.03732 4.73777 0
M  V30 7984 H 761.306 -2.09004 4.10899 0
M  V30 7985 H 764.85 -0.164233 6.97407 0
M  V30 7986 H 760.747 -1.22254 6.33817 0
M  V30 7987 H 761.515 -0.266332 8.18067 0
M  V30 7988 N 764.178 -1.45556 -0.604258 0
M  V30 7989 C 765.426 -1.4945 -1.36048 0
M  V30 7990 C 765.747 -0.138933 -1.94504 0
M  V30 7991 O 765.017 0.832097 -1.7735 0
M  V30 7992 H 763.597 -0.550381 -0.505064 0
M  V30 7993 H 766.259 -1.81535 -0.709308 0
M  V30 7994 H 765.355 -2.23519 -2.17821 0
M  V30 7995 N 765.656 0.84705 -1.32902 0
M  V30 7996 C 766.884 1.63403 -1.26913 0
M  V30 7997 C 767.299 1.88108 0.161483 0
M  V30 7998 O 766.656 1.45546 1.10103 0
M  V30 7999 C 766.707 2.98896 -2.03331 0
M  V30 8000 O 766.428 2.75281 -3.40811 0
M  V30 8001 C 767.929 3.93335 -2.04457 0
M  V30 8002 H 765.149 0.508701 -0.437566 0
M  V30 8003 H 767.693 1.05567 -1.75145 0
M  V30 8004 H 765.848 3.53356 -1.58802 0
M  V30 8005 H 766.262 3.61504 -3.8002 0
M  V30 8006 H 767.736 4.85647 -2.62394 0
M  V30 8007 H 768.213 4.26885 -1.03274 0
M  V30 8008 H 768.819 3.44812 -2.48967 0
M  V30 8009 N 767.134 1.16236 1.06428 0
M  V30 8010 C 768.411 0.853294 1.76006 0
M  V30 8011 C 768.791 -0.649162 2.00871 0
M  V30 8012 O 768.139 -1.59653 1.63472 0
M  V30 8013 C 768.349 1.67448 3.06206 0
M  V30 8014 C 769.697 1.8866 3.80385 0
M  V30 8015 O 770.721 1.64303 3.16043 0
M  V30 8016 O 769.58 2.29518 4.95968 0
M  V30 8017 H 766.674 0.314737 0.764767 0
M  V30 8018 H 769.22 1.26865 1.12709 0
M  V30 8019 H 767.992 2.69411 2.83784 0
M  V30 8020 H 767.615 1.25608 3.77238 0
M  V30 8021 N 768.612 -1.24939 0.960631 0
M  V30 8022 C 769.542 -2.28 0.503815 0
M  V30 8023 C 770.523 -1.63959 -0.452928 0
M  V30 8024 O 771.708 -1.91009 -0.350585 0
M  V30 8025 C 768.838 -3.46643 -0.213535 0
M  V30 8026 C 767.792 -4.22903 0.658535 0
M  V30 8027 C 767.118 -5.34363 -0.189902 0
M  V30 8028 C 768.418 -4.84949 1.93963 0
M  V30 8029 H 770.112 -2.66462 1.36521 0
M  V30 8030 H 767.658 -1.28093 0.657897 0
M  V30 8031 H 769.611 -4.1787 -0.544286 0
M  V30 8032 H 768.335 -3.07187 -1.10923 0
M  V30 8033 H 766.994 -3.53467 0.972455 0
M  V30 8034 H 766.642 -4.91147 -1.08553 0
M  V30 8035 H 766.342 -5.86302 0.390331 0
M  V30 8036 H 767.866 -6.0842 -0.515484 0
M  V30 8037 H 769.28 -5.48288 1.67491 0
M  V30 8038 H 767.677 -5.47091 2.46601 0
M  V30 8039 H 768.747 -4.06799 2.639 0
M  V30 8040 N 770.09 -0.729906 -1.39679 0
M  V30 8041 C 771.338 -0.275077 -2.00219 0
M  V30 8042 C 771.659 1.1401 -1.58199 0
M  V30 8043 O 770.929 1.77546 -0.827904 0
M  V30 8044 H 769.509 -0.0987127 -0.740449 0
M  V30 8045 H 772.171 -0.93873 -1.70804 0
M  V30 8046 H 771.267 -0.319446 -3.10461 0
M  V30 8047 N 771.568 1.50203 -0.477153 0
M  V30 8048 C 772.814 2.02658 0.0758507 0
M  V30 8049 C 773.147 1.358 1.38824 0
M  V30 8050 O 772.422 0.485696 1.88338 0
M  V30 8051 C 772.705 3.59208 0.253339 0
M  V30 8052 C 772.558 4.36629 -1.0805 0
M  V30 8053 C 773.877 4.28469 1.00509 0
M  V30 8054 H 770.996 0.736538 0.0260921 0
M  V30 8055 H 773.638 1.79464 -0.623925 0
M  V30 8056 H 771.788 3.79101 0.849378 0
M  V30 8057 H 773.46 4.28292 -1.71358 0
M  V30 8058 H 771.703 4.0013 -1.67566 0
M  V30 8059 H 772.374 5.44449 -0.909883 0
M  V30 8060 H 774.85 4.13087 0.499818 0
M  V30 8061 H 773.726 5.37804 1.09808 0
M  V30 8062 H 773.987 3.92057 2.04314 0
M  V30 8063 N 773.046 0.209999 1.56195 0
M  V30 8064 C 774.009 -0.691232 2.18528 0
M  V30 8065 C 775.009 -1.13013 1.14388 0
M  V30 8066 O 776.199 -1.04081 1.39688 0
M  V30 8067 C 773.331 -1.94551 2.79934 0
M  V30 8068 H 774.524 -0.147953 2.99535 0
M  V30 8069 H 772.077 -0.0396243 1.5625 0
M  V30 8070 H 772.812 -2.53094 2.02766 0
M  V30 8071 H 772.597 -1.63938 3.56184 0
M  V30 8072 H 774.087 -2.58785 3.2775 0
M  V30 8073 N 774.524 -1.57472 -0.0634922 0
M  V30 8074 C 775.772 -1.87283 -0.759563 0
M  V30 8075 C 776.093 -0.803135 -1.77693 0
M  V30 8076 O 775.363 0.167293 -1.95184 0
M  V30 8077 H 773.943 -0.691106 -0.283516 0
M  V30 8078 H 776.605 -1.94864 -0.0376091 0
M  V30 8079 H 775.701 -2.85064 -1.27062 0
M  V30 8080 N 776.003 0.335068 -1.53997 0
M  V30 8081 C 777.228 1.09859 -1.75914 0
M  V30 8082 C 777.653 1.81308 -0.500915 0
M  V30 8083 O 777.011 1.72854 0.54693 0
M  V30 8084 C 777.059 2.08122 -2.94478 0
M  V30 8085 O 776.163 3.15805 -2.65219 0
M  V30 8086 H 775.504 0.317313 -0.583274 0
M  V30 8087 H 778.034 0.382872 -2.00986 0
M  V30 8088 H 778.044 2.51195 -3.21504 0
M  V30 8089 H 776.719 1.55517 -3.8573 0
M  V30 8090 H 775.296 2.77489 -2.49107 0
M  V30 8091 N 777.481 1.45874 0.596531 0
M  V30 8092 C 778.411 1.5824 1.71705 0
M  V30 8093 C 779.392 0.433366 1.64487 0
M  V30 8094 O 780.577 0.657895 1.82717 0
M  V30 8095 C 777.707 1.55927 3.10329 0
M  V30 8096 C 776.661 2.69659 3.32367 0
M  V30 8097 C 775.987 2.52403 4.71377 0
M  V30 8098 C 777.287 4.11591 3.21544 0
M  V30 8099 H 778.981 2.52035 1.61613 0
M  V30 8100 H 776.527 1.21297 0.776082 0
M  V30 8101 H 778.48 1.63173 3.88526 0
M  V30 8102 H 777.204 0.586674 3.21288 0
M  V30 8103 H 775.863 2.61859 2.56564 0
M  V30 8104 H 775.511 1.53258 4.79083 0
M  V30 8105 H 775.211 3.28679 4.87077 0
M  V30 8106 H 776.735 2.6152 5.5176 0
M  V30 8107 H 778.149 4.20576 3.89601 0
M  V30 8108 H 776.546 4.88344 3.4877 0
M  V30 8109 H 777.616 4.32719 2.1882 0
M  V30 8110 N 778.959 -0.83999 1.33349 0
M  V30 8111 C 779.922 -1.93128 1.23426 0
M  V30 8112 C 780.922 -1.60065 0.153599 0
M  V30 8113 O 782.112 -1.69425 0.405049 0
M  V30 8114 C 779.244 -3.28761 0.901622 0
M  V30 8115 H 780.437 -2.03352 2.20427 0
M  V30 8116 H 777.99 -1.03194 1.17391 0
M  V30 8117 H 778.725 -3.24233 -0.0659337 0
M  V30 8118 H 778.51 -3.54138 1.68311 0
M  V30 8119 H 780 -4.08714 0.856913 0
M  V30 8120 N 780.437 -1.16799 -1.0581 0
M  V30 8121 C 781.385 -0.875111 -2.1551 0
M  V30 8122 C 782.379 0.157781 -1.68664 0
M  V30 8123 O 783.585 0.011297 -1.79996 0
M  V30 8124 H 779.96 -0.26542 -0.703602 0
M  V30 8125 H 781.931 -1.8076 -2.37421 0
M  V30 8126 C 780.68 -0.39802 -3.45414 0
M  V30 8127 H 780.003 -1.18425 -3.81858 0
M  V30 8128 H 781.443 -0.231913 -4.23365 0
M  V30 8129 C 779.902 0.88327 -3.25115 0
M  V30 8130 O 780.432 1.95145 -3.51114 0
M  V30 8131 N 778.638 0.828961 -2.78526 0
M  V30 8132 H 778.185 -0.0405029 -2.57568 0
M  V30 8133 H 778.143 1.68673 -2.65324 0
M  V30 8134 N 781.915 1.24427 -0.967243 0
M  V30 8135 C 782.878 2.23637 -0.501927 0
M  V30 8136 C 783.878 1.55712 0.401283 0
M  V30 8137 O 785.068 1.73085 0.196808 0
M  V30 8138 C 782.2 3.39804 0.273176 0
M  V30 8139 H 783.393 2.66317 -1.37897 0
M  V30 8140 H 780.946 1.37033 -0.751783 0
M  V30 8141 H 781.681 3.02562 1.16733 0
M  V30 8142 H 781.466 3.90303 -0.37498 0
M  V30 8143 H 782.956 4.13443 0.587776 0
M  V30 8144 N 783.393 0.737304 1.3929 0
M  V30 8145 C 784.323 0.113988 2.33222 0
M  V30 8146 C 785.304 -0.721695 1.54031 0
M  V30 8147 O 786.489 -0.666206 1.82415 0
M  V30 8148 C 783.619 -0.792319 3.38141 0
M  V30 8149 C 782.573 -0.0606178 4.27957 0
M  V30 8150 C 781.899 -1.08409 5.23595 0
M  V30 8151 C 783.199 1.09817 5.10625 0
M  V30 8152 H 784.893 0.898611 2.85596 0
M  V30 8153 H 782.439 0.433571 1.37318 0
M  V30 8154 H 784.392 -1.23793 4.02807 0
M  V30 8155 H 783.116 -1.60908 2.84211 0
M  V30 8156 H 781.775 0.365393 3.64775 0
M  V30 8157 H 781.423 -1.89449 4.6596 0
M  V30 8158 H 781.123 -0.599269 5.84536 0
M  V30 8159 H 782.647 -1.52936 5.91137 0
M  V30 8160 H 784.061 0.730892 5.68622 0
M  V30 8161 H 782.458 1.51278 5.80719 0
M  V30 8162 H 783.528 1.91878 4.45321 0
M  V30 8163 N 784.871 -1.49948 0.485112 0
M  V30 8164 C 785.834 -2.27351 -0.290546 0
M  V30 8165 C 786.834 -1.32704 -0.908087 0
M  V30 8166 O 788.024 -1.56007 -0.775085 0
M  V30 8167 C 785.156 -3.10135 -1.41524 0
M  V30 8168 H 786.349 -2.97374 0.388454 0
M  V30 8169 H 783.902 -1.54453 0.239586 0
M  V30 8170 H 784.637 -2.44641 -2.12888 0
M  V30 8171 H 784.422 -3.79705 -0.978074 0
M  V30 8172 H 785.912 -3.68638 -1.96204 0
M  V30 8173 N 786.349 -0.21828 -1.56081 0
M  V30 8174 C 787.577 0.419258 -2.02608 0
M  V30 8175 C 787.992 1.53578 -1.09814 0
M  V30 8176 O 787.349 1.82185 -0.107149 0
M  V30 8177 C 787.4 0.953955 -3.48686 0
M  V30 8178 O 787.121 -0.11805 -4.37941 0
M  V30 8179 C 788.622 1.66506 -4.10841 0
M  V30 8180 H 785.842 0.10296 -0.663054 0
M  V30 8181 H 788.386 -0.333776 -2.01758 0
M  V30 8182 H 786.541 1.65727 -3.50162 0
M  V30 8183 H 786.955 0.283359 -5.23734 0
M  V30 8184 H 788.429 1.99123 -5.14834 0
M  V30 8185 H 788.906 2.57705 -3.55647 0
M  V30 8186 H 789.512 1.00703 -4.13206 0
M  V30 8187 N 787.827 1.57504 0.0551401 0
M  V30 8188 C 789.057 1.92015 0.762472 0
M  V30 8189 C 789.465 0.814088 1.7079 0
M  V30 8190 O 788.808 -0.220273 1.82375 0
M  V30 8191 C 788.87 3.22132 1.59598 0
M  V30 8192 C 788.534 4.49617 0.818141 0
M  V30 8193 C 789.531 5.19738 0.129933 0
M  V30 8194 C 787.216 4.96201 0.780387 0
M  V30 8195 C 789.21 6.34704 -0.585616 0
M  V30 8196 C 786.897 6.11069 0.0610756 0
M  V30 8197 C 787.895 6.80174 -0.62071 0
M  V30 8198 O 787.583 7.92849 -1.3284 0
M  V30 8199 H 787.315 0.638866 0.220967 0
M  V30 8200 H 789.869 2.05385 0.0246362 0
M  V30 8201 H 788.099 3.05016 2.37701 0
M  V30 8202 H 789.788 3.42166 2.18351 0
M  V30 8203 H 790.554 4.84767 0.150299 0
M  V30 8204 H 786.433 4.42275 1.30054 0
M  V30 8205 H 789.977 6.88578 -1.11833 0
M  V30 8206 H 785.874 6.45488 0.0386945 0
M  V30 8207 H 786.642 8.09062 -1.23938 0
M  V30 8208 N 789.305 -0.326896 1.54172 0
M  V30 8209 C 790.268 -1.38515 1.8261 0
M  V30 8210 C 791.268 -1.44872 0.697771 0
M  V30 8211 O 792.458 -1.44957 0.966078 0
M  V30 8212 C 789.59 -2.77281 1.98313 0
M  V30 8213 H 790.783 -1.14556 2.77159 0
M  V30 8214 H 788.336 -0.562199 1.45839 0
M  V30 8215 H 789.071 -3.065 1.05964 0
M  V30 8216 H 788.856 -2.74061 2.80416 0
M  V30 8217 H 790.346 -3.53845 2.21773 0
M  V30 8218 N 790.784 -1.46188 -0.588786 0
M  V30 8219 C 791.747 -1.55882 -1.68029 0
M  V30 8220 C 792.747 -0.436515 -1.54762 0
M  V30 8221 O 793.937 -0.700626 -1.59489 0
M  V30 8222 C 791.069 -1.47332 -3.07418 0
M  V30 8223 H 792.262 -2.5315 -1.60795 0
M  V30 8224 H 789.815 -1.33908 -0.806116 0
M  V30 8225 H 790.55 -0.513193 -3.20214 0
M  V30 8226 H 790.335 -2.28753 -3.18456 0
M  V30 8227 H 791.825 -1.57187 -3.86887 0
M  V30 8228 N 792.262 0.832906 -1.33792 0
M  V30 8229 C 793.225 1.92471 -1.24449 0
M  V30 8230 C 794.225 1.59981 -0.162085 0
M  V30 8231 O 795.415 1.69208 -0.414029 0
M  V30 8232 C 792.547 3.28278 -0.919044 0
M  V30 8233 H 793.74 2.0218 -2.21502 0
M  V30 8234 H 791.293 1.0257 -1.17936 0
M  V30 8235 H 792.028 3.24263 0.048738 0
M  V30 8236 H 791.813 3.53241 -1.70187 0
M  V30 8237 H 793.303 4.08253 -0.878576 0
M  V30 8238 N 793.74 1.17359 1.05189 0
M  V30 8239 C 794.968 0.986529 1.81866 0
M  V30 8240 C 795.383 -0.46522 1.82979 0
M  V30 8241 O 794.74 -1.32305 1.25705 0
M  V30 8242 C 794.791 1.52021 3.27982 0
M  V30 8243 O 794.512 2.91511 3.27037 0
M  V30 8244 C 796.013 1.37774 4.21347 0
M  V30 8245 H 793.233 0.349021 0.573084 0
M  V30 8246 H 795.777 1.55648 1.32643 0
M  V30 8247 H 793.932 0.992287 3.74476 0
M  V30 8248 H 794.346 3.16178 4.18488 0
M  V30 8249 H 795.82 1.7993 5.21852 0
M  V30 8250 H 796.297 0.32483 4.37997 0
M  V30 8251 H 796.903 1.89583 3.80708 0
M  V30 8252 N 795.218 -1.23913 0.973828 0
M  V30 8253 C 796.128 -2.28838 0.516735 0
M  V30 8254 C 797.144 -1.68723 -0.425282 0
M  V30 8255 O 798.32 -1.99201 -0.296819 0
M  V30 8256 C 795.385 -3.46233 -0.179914 0
M  V30 8257 C 794.446 -4.21729 0.80269 0
M  V30 8258 C 793.679 -5.33518 0.139191 0
M  V30 8259 O 793.902 -5.60252 -1.07118 0
M  V30 8260 O 792.836 -5.96088 0.834447 0
M  V30 8261 H 796.662 -2.70067 1.38916 0
M  V30 8262 H 794.247 -1.2972 0.74115 0
M  V30 8263 H 796.129 -4.17514 -0.570991 0
M  V30 8264 H 794.804 -3.06969 -1.02721 0
M  V30 8265 H 793.711 -3.52799 1.24434 0
M  V30 8266 H 795.044 -4.64825 1.61859 0
M  V30 8267 N 796.696 -0.74468 -1.38897 0
M  V30 8268 C 798.112 -0.421302 -1.53939 0
M  V30 8269 C 798.312 1.06668 -1.70951 0
M  V30 8270 O 797.368 1.85278 -1.71547 0
M  V30 8271 C 798.681 -1.21278 -2.75159 0
M  V30 8272 C 800.229 -1.20196 -2.89001 0
M  V30 8273 C 800.704 -1.97621 -4.13171 0
M  V30 8274 N 802.195 -1.94836 -4.2023 0
M  V30 8275 C 802.93 -2.51545 -5.15279 0
M  V30 8276 N 802.426 -3.1693 -6.16058 0
M  V30 8277 N 804.219 -2.41524 -5.07565 0
M  V30 8278 H 796.37 -1.70914 -1.26103 0
M  V30 8279 H 798.633 -0.724058 -0.611919 0
M  V30 8280 H 798.339 -2.26609 -2.68963 0
M  V30 8281 H 798.213 -0.823677 -3.68097 0
M  V30 8282 H 800.6 -0.156742 -2.94683 0
M  V30 8283 H 800.681 -1.63051 -1.97099 0
M  V30 8284 H 800.325 -3.02149 -4.0825 0
M  V30 8285 H 800.255 -1.52166 -5.04136 0
M  V30 8286 H 802.746 -1.4721 -3.48048 0
M  V30 8287 H 803.059 -3.57644 -6.85062 0
M  V30 8288 H 801.404 -3.21023 -6.16417 0
M  V30 8289 H 804.595 -1.90077 -4.27771 0
M  V30 8290 H 804.768 -2.86016 -5.81462 0
M  V30 8291 N 798.174 1.49689 -0.493057 0
M  V30 8292 C 799.42 2.03347 0.0463792 0
M  V30 8293 C 799.775 1.36671 1.35421 0
M  V30 8294 O 799.068 0.4907 1.8521 0
M  V30 8295 C 799.262 3.56427 0.263536 0
M  V30 8296 C 799.091 4.3794 -1.02169 0
M  V30 8297 C 797.861 4.8025 -1.57125 0
M  V30 8298 C 800.059 4.77 -1.9229 0
M  V30 8299 N 798.041 5.46162 -2.80321 0
M  V30 8300 C 799.412 5.42549 -3.00067 0
M  V30 8301 C 801.467 4.58945 -1.93064 0
M  V30 8302 C 800.17 5.91954 -4.08635 0
M  V30 8303 C 802.196 5.09306 -3.00602 0
M  V30 8304 C 801.558 5.74849 -4.07097 0
M  V30 8305 H 797.657 0.781644 -0.0236097 0
M  V30 8306 H 800.241 1.82949 -0.666151 0
M  V30 8307 H 798.412 3.76725 0.945118 0
M  V30 8308 H 800.144 3.96729 0.79927 0
M  V30 8309 H 796.899 4.60228 -1.11746 0
M  V30 8310 H 797.323 5.83711 -3.42944 0
M  V30 8311 H 801.965 4.07685 -1.12039 0
M  V30 8312 H 799.683 6.4224 -4.90463 0
M  V30 8313 H 803.269 4.97152 -3.0221 0
M  V30 8314 H 802.149 6.13113 -4.88939 0
M  V30 8315 N 799.652 0.226554 1.55963 0
M  V30 8316 C 800.562 -0.692725 2.24139 0
M  V30 8317 C 801.578 -1.20971 1.25068 0
M  V30 8318 O 802.754 -1.25027 1.57893 0
M  V30 8319 C 799.819 -1.88183 2.91184 0
M  V30 8320 C 798.88 -1.40633 4.05612 0
M  V30 8321 C 798.113 -2.53875 4.6945 0
M  V30 8322 O 798.336 -3.72129 4.32292 0
M  V30 8323 O 797.27 -2.24792 5.58348 0
M  V30 8324 H 801.096 -0.141921 3.03368 0
M  V30 8325 H 798.681 -0.0041049 1.49399 0
M  V30 8326 H 800.563 -2.57617 3.33484 0
M  V30 8327 H 799.238 -2.42064 2.14911 0
M  V30 8328 H 798.145 -0.67986 3.67871 0
M  V30 8329 H 799.478 -0.913838 4.83642 0
M  V30 8330 N 801.13 -1.57531 -0.0467866 0
M  V30 8331 C 802.378 -1.88078 -0.739656 0
M  V30 8332 C 802.699 -0.821936 -1.76831 0
M  V30 8333 O 801.969 0.146582 -1.95351 0
M  V30 8334 H 800.549 -0.694075 -0.276169 0
M  V30 8335 H 803.211 -1.94893 -0.0169391 0
M  V30 8336 H 802.307 -2.86396 -1.24031 0
M  V30 8337 N 802.608 0.318715 -1.54344 0
M  V30 8338 C 803.555 1.39242 -1.84066 0
M  V30 8339 C 804.525 1.51175 -0.688134 0
M  V30 8340 O 805.71 1.66318 -0.935039 0
M  V30 8341 C 802.85 2.75528 -2.07794 0
M  V30 8342 C 801.963 2.72187 -3.35467 0
M  V30 8343 C 801.098 4.00352 -3.4913 0
M  V30 8344 C 800.137 3.91338 -4.7066 0
M  V30 8345 N 799.274 5.11242 -4.81224 0
M  V30 8346 H 804.114 1.13196 -2.75664 0
M  V30 8347 H 801.651 0.547857 -1.36517 0
M  V30 8348 H 803.609 3.54763 -2.19543 0
M  V30 8349 H 802.239 2.99873 -1.19482 0
M  V30 8350 H 801.291 1.84917 -3.3243 0
M  V30 8351 H 802.603 2.61411 -4.24812 0
M  V30 8352 H 801.757 4.88019 -3.60448 0
M  V30 8353 H 800.496 4.1394 -2.57886 0
M  V30 8354 H 799.501 3.02055 -4.59394 0
M  V30 8355 H 800.726 3.7931 -5.63294 0
M  V30 8356 H 798.672 5.25327 -3.92897 0
M  V30 8357 H 798.589 5.0282 -5.64543 0
M  V30 8358 H 799.857 6.0061 -4.96879 0
M  V30 8359 N 804.086 1.46499 0.581025 0
M  V30 8360 C 805.016 1.60052 1.70017 0
M  V30 8361 C 805.997 0.450788 1.64018 0
M  V30 8362 O 807.182 0.677237 1.82009 0
M  V30 8363 C 804.312 1.5921 3.08658 0
M  V30 8364 C 803.266 2.73169 3.29488 0
M  V30 8365 C 802.592 2.57389 4.68674 0
M  V30 8366 C 803.892 4.14978 3.1716 0
M  V30 8367 H 805.586 2.53735 1.5893 0
M  V30 8368 H 803.132 1.22113 0.763173 0
M  V30 8369 H 805.085 1.67285 3.86773 0
M  V30 8370 H 803.809 0.620718 3.20647 0
M  V30 8371 H 802.468 2.64566 2.53773 0
M  V30 8372 H 802.116 1.58331 4.77431 0
M  V30 8373 H 801.816 3.33826 4.83564 0
M  V30 8374 H 803.34 2.67358 5.48956 0
M  V30 8375 H 804.754 4.24684 3.85119 0
M  V30 8376 H 803.151 4.92016 3.4357 0
M  V30 8377 H 804.221 4.35016 2.14218 0
M  V30 8378 N 805.565 -0.825799 1.34232 0
M  V30 8379 C 806.842 -1.56741 1.17011 0
M  V30 8380 C 807.222 -2.09512 -0.258425 0
M  V30 8381 O 806.57 -1.90664 -1.25935 0
M  V30 8382 C 806.78 -2.69104 2.22225 0
M  V30 8383 C 808.128 -3.37947 2.57055 0
M  V30 8384 O 809.152 -2.79358 2.20992 0
M  V30 8385 O 808.011 -4.43743 3.1899 0
M  V30 8386 H 805.105 -0.69163 0.453405 0
M  V30 8387 H 807.651 -0.867422 1.45856 0
M  V30 8388 H 806.423 -2.27844 3.18124 0
M  V30 8389 H 806.046 -3.46756 1.94541 0
M  V30 8390 N 807.043 -1.17915 -1.04565 0
M  V30 8391 C 808.271 -0.99616 -1.8134 0
M  V30 8392 C 808.686 0.455509 -1.83223 0
M  V30 8393 O 808.043 1.31636 -1.26405 0
M  V30 8394 C 808.094 -1.53758 -3.27171 0
M  V30 8395 O 807.815 -2.93241 -3.25486 0
M  V30 8396 C 809.316 -1.40007 -4.2061 0
M  V30 8397 H 806.536 -0.352055 -0.571225 0
M  V30 8398 H 809.08 -1.56349 -1.31815 0
M  V30 8399 H 807.235 -1.01213 -3.73945 0
M  V30 8400 H 807.649 -3.18392 -4.16805 0
M  V30 8401 H 809.123 -1.82695 -5.2089 0
M  V30 8402 H 809.6 -0.348054 -4.37819 0
M  V30 8403 H 810.206 -1.916 -3.79697 0
M  V30 8404 N 808.521 1.23394 -0.980386 0
M  V30 8405 C 809.468 2.24859 -0.520298 0
M  V30 8406 C 810.438 1.60144 0.440821 0
M  V30 8407 O 811.623 1.87593 0.348369 0
M  V30 8408 C 808.763 3.44675 0.171145 0
M  V30 8409 C 807.876 4.23947 -0.830233 0
M  V30 8410 C 807.011 5.31079 -0.113597 0
M  V30 8411 C 806.05 6.02058 -1.10419 0
M  V30 8412 N 805.187 7.00862 -0.416709 0
M  V30 8413 H 810.027 2.63579 -1.39032 0
M  V30 8414 H 807.564 1.29556 -0.696682 0
M  V30 8415 H 809.522 4.13024 0.588838 0
M  V30 8416 H 808.152 3.06755 1.00504 0
M  V30 8417 H 807.204 3.55016 -1.36631 0
M  V30 8418 H 808.516 4.72945 -1.58508 0
M  V30 8419 H 807.67 6.05622 0.36146 0
M  V30 8420 H 806.409 4.83022 0.673854 0
M  V30 8421 H 805.414 5.26307 -1.59 0
M  V30 8422 H 806.639 6.52203 -1.8923 0
M  V30 8423 H 804.585 6.55057 0.351535 0
M  V30 8424 H 804.502 7.47804 -1.11021 0
M  V30 8425 H 805.77 7.79492 0.0359606 0
M  V30 8426 N 809.999 0.752036 1.385 0
M  V30 8427 C 810.962 0.131587 2.28822 0
M  V30 8428 C 811.962 -0.649149 1.47115 0
M  V30 8429 O 813.152 -0.475645 1.67581 0
M  V30 8430 C 810.284 -0.822101 3.30839 0
M  V30 8431 H 811.477 0.927551 2.85196 0
M  V30 8432 H 809.03 0.518945 1.47434 0
M  V30 8433 H 809.765 -1.6438 2.79553 0
M  V30 8434 H 809.55 -0.264689 3.91206 0
M  V30 8435 H 811.04 -1.25226 3.98382 0
M  V30 8436 N 811.477 -1.49425 0.500989 0
M  V30 8437 C 812.893 -1.58826 0.156951 0
M  V30 8438 C 813.093 -1.50622 -1.33848 0
M  V30 8439 O 812.149 -1.38016 -2.11442 0
M  V30 8440 C 813.462 -2.91611 0.73374 0
M  V30 8441 C 815.01 -3.05076 0.699846 0
M  V30 8442 C 815.485 -4.40479 1.2547 0
M  V30 8443 N 816.976 -4.4697 1.2154 0
M  V30 8444 C 817.711 -5.50189 1.6149 0
M  V30 8445 N 817.207 -6.60512 2.09034 0
M  V30 8446 N 819 -5.40903 1.52907 0
M  V30 8447 H 811.151 -1.53001 1.47324 0
M  V30 8448 H 813.414 -0.724765 0.61108 0
M  V30 8449 H 813.12 -3.03182 1.78251 0
M  V30 8450 H 812.994 -3.767 0.19417 0
M  V30 8451 H 815.381 -2.93134 -0.340085 0
M  V30 8452 H 815.462 -2.2167 1.27656 0
M  V30 8453 H 815.106 -4.53172 2.29341 0
M  V30 8454 H 815.036 -5.22524 0.653921 0
M  V30 8455 H 817.527 -3.67819 0.867043 0
M  V30 8456 H 817.84 -7.35372 2.37588 0
M  V30 8457 H 816.185 -6.61553 2.13008 0
M  V30 8458 H 819.376 -4.53606 1.15583 0
M  V30 8459 H 819.549 -6.21219 1.84365 0
M  V30 8460 N 812.955 -0.234822 -1.55841 0
M  V30 8461 C 814.232 0.442961 -1.90518 0
M  V30 8462 C 814.612 1.76768 -1.15397 0
M  V30 8463 O 813.96 2.26928 -0.267534 0
M  V30 8464 C 814.17 0.622905 -3.43396 0
M  V30 8465 C 815.518 0.9243 -4.14417 0
M  V30 8466 O 816.542 0.709211 -3.49068 0
M  V30 8467 O 815.401 1.33323 -5.29988 0
M  V30 8468 H 812.495 0.236042 -0.792599 0
M  V30 8469 H 815.041 -0.277992 -1.67408 0
M  V30 8470 H 813.813 -0.310973 -3.90062 0
M  V30 8471 H 813.436 1.39485 -3.7233 0
M  V30 8472 N 814.433 1.57553 0.0384317 0
M  V30 8473 C 815.366 2.01307 1.07475 0
M  V30 8474 C 816.344 0.895717 1.35704 0
M  V30 8475 O 817.528 1.16079 1.48519 0
M  V30 8476 C 814.655 2.37817 2.41165 0
M  V30 8477 C 813.701 3.599 2.28855 0
M  V30 8478 S 814.534 5.09418 1.65086 0
M  V30 8479 C 815.69 5.49162 3.00286 0
M  V30 8480 H 815.923 2.88892 0.702034 0
M  V30 8481 H 813.456 1.52394 0.248103 0
M  V30 8482 H 815.414 2.59524 3.18053 0
M  V30 8483 H 814.075 1.507 2.75587 0
M  V30 8484 H 813.268 3.83071 3.27525 0
M  V30 8485 H 812.87 3.37996 1.60109 0
M  V30 8486 H 815.162 5.49274 3.96617 0
M  V30 8487 H 816.105 6.49586 2.81858 0
M  V30 8488 H 816.513 4.76653 3.02427 0
M  V30 8489 N 815.911 -0.310526 1.54511 0
M  V30 8490 C 816.874 -1.3657 1.84068 0
M  V30 8491 C 817.874 -1.44123 0.713097 0
M  V30 8492 O 819.064 -1.43924 0.981399 0
M  V30 8493 C 816.196 -2.75162 2.01243 0
M  V30 8494 H 817.389 -1.1161 2.78358 0
M  V30 8495 H 814.942 -0.546699 1.46427 0
M  V30 8496 H 815.677 -3.05359 1.09208 0
M  V30 8497 H 815.462 -2.71071 2.83307 0
M  V30 8498 H 816.952 -3.51473 2.25514 0
M  V30 8499 N 817.389 -1.46805 -0.573248 0
M  V30 8500 C 818.352 -1.57655 -1.66366 0
M  V30 8501 C 819.352 -0.452905 -1.5429 0
M  V30 8502 O 820.542 -0.717502 -1.58737 0
M  V30 8503 C 817.674 -1.50584 -3.05839 0
M  V30 8504 H 818.867 -2.54842 -1.581 0
M  V30 8505 H 816.42 -1.34756 -0.791868 0
M  V30 8506 H 817.155 -0.547127 -3.19651 0
M  V30 8507 H 816.94 -2.32118 -3.16012 0
M  V30 8508 H 818.43 -1.61282 -3.85199 0
M  V30 8509 N 818.867 0.818669 -1.34668 0
M  V30 8510 C 819.777 1.9616 -1.2868 0
M  V30 8511 C 820.793 1.72918 -0.193742 0
M  V30 8512 O 821.969 1.96951 -0.420975 0
M  V30 8513 C 819.034 3.30534 -1.04633 0
M  V30 8514 C 818.095 3.66755 -2.23136 0
M  V30 8515 C 817.328 4.94717 -2.00227 0
M  V30 8516 O 817.551 5.62218 -0.96264 0
M  V30 8517 O 816.485 5.28915 -2.87286 0
M  V30 8518 H 820.311 2.04157 -2.24842 0
M  V30 8519 H 817.896 0.954691 -1.14917 0
M  V30 8520 H 819.778 4.11005 -0.930216 0
M  V30 8521 H 818.453 3.23495 -0.115139 0
M  V30 8522 H 817.36 2.8671 -2.40308 0
M  V30 8523 H 818.693 3.78484 -3.1466 0
M  V30 8524 N 820.346 1.18468 1.03938 0
M  V30 8525 C 821.276 0.936389 2.13902 0
M  V30 8526 C 822.257 -0.126381 1.6963 0
M  V30 8527 O 823.442 0.0264757 1.94182 0
M  V30 8528 C 820.572 0.462729 3.44204 0
M  V30 8529 C 819.526 1.46613 4.02105 0
M  V30 8530 C 818.852 0.84994 5.27902 0
M  V30 8531 C 820.152 2.84323 4.3813 0
M  V30 8532 H 821.846 1.85602 2.3493 0
M  V30 8533 H 819.392 0.893806 1.12903 0
M  V30 8534 H 821.345 0.276382 4.20493 0
M  V30 8535 H 820.069 -0.492477 3.22866 0
M  V30 8536 H 818.728 1.63944 3.27899 0
M  V30 8537 H 818.376 -0.112493 5.02874 0
M  V30 8538 H 818.076 1.51988 5.67603 0
M  V30 8539 H 819.6 0.674152 6.06867 0
M  V30 8540 H 821.014 2.70636 5.054 0
M  V30 8541 H 819.411 3.48012 4.88884 0
M  V30 8542 H 820.481 3.37776 3.47901 0
M  V30 8543 N 821.824 -1.22873 0.986916 0
M  V30 8544 C 823.07 -1.91746 0.660401 0
M  V30 8545 C 823.403 -1.76738 -0.804812 0
M  V30 8546 O 822.678 -1.13246 -1.58131 0
M  V30 8547 C 822.961 -3.44156 1.05966 0
M  V30 8548 C 822.814 -3.68242 2.58298 0
M  V30 8549 C 824.133 -4.35874 0.60842 0
M  V30 8550 H 821.252 -0.696347 0.241391 0
M  V30 8551 H 823.894 -1.44867 1.22937 0
M  V30 8552 H 822.044 -3.84213 0.575534 0
M  V30 8553 H 823.716 -3.37626 3.14335 0
M  V30 8554 H 821.959 -3.12728 3.00638 0
M  V30 8555 H 822.63 -4.74956 2.81285 0
M  V30 8556 H 825.106 -4.03299 1.02417 0
M  V30 8557 H 823.982 -5.41201 0.916142 0
M  V30 8558 H 824.243 -4.39364 -0.491086 0
M  V30 8559 N 823.302 -0.75937 -1.38099 0
M  V30 8560 C 824.25 -0.124954 -2.32264 0
M  V30 8561 C 825.244 0.698863 -1.54312 0
M  V30 8562 O 826.45 0.597312 -1.698 0
M  V30 8563 H 822.825 -0.0216142 -0.751689 0
M  V30 8564 H 824.796 -0.935115 -2.83369 0
M  V30 8565 C 823.545 0.749463 -3.39527 0
M  V30 8566 H 822.868 0.124932 -3.99605 0
M  V30 8567 H 824.308 1.16055 -4.07808 0
M  V30 8568 C 822.767 1.89464 -2.78577 0
M  V30 8569 O 823.297 2.98923 -2.68343 0
M  V30 8570 N 821.503 1.69145 -2.36301 0
M  V30 8571 H 821.05 0.801157 -2.44825 0
M  V30 8572 H 821.008 2.45936 -1.95864 0
M  V30 8573 N 824.78 1.49157 -0.508906 0
M  V30 8574 C 826.196 1.58741 -0.165372 0
M  V30 8575 C 826.396 1.5133 1.33047 0
M  V30 8576 O 825.452 1.39135 2.10707 0
M  V30 8577 C 826.765 2.91217 -0.749194 0
M  V30 8578 C 828.313 3.047 -0.716015 0
M  V30 8579 C 828.788 4.39807 -1.27804 0
M  V30 8580 N 830.279 4.46319 -1.23908 0
M  V30 8581 C 831.014 5.49325 -1.64406 0
M  V30 8582 N 830.51 6.59395 -2.12534 0
M  V30 8583 N 832.303 5.40084 -1.55773 0
M  V30 8584 H 824.454 1.52217 -1.48134 0
M  V30 8585 H 826.717 0.721514 -0.614915 0
M  V30 8586 H 826.423 3.02233 -1.79856 0
M  V30 8587 H 826.297 3.76592 -0.214144 0
M  V30 8588 H 828.684 2.9331 0.324535 0
M  V30 8589 H 828.765 2.2099 -1.2883 0
M  V30 8590 H 828.409 4.5195 -2.31741 0
M  V30 8591 H 828.339 5.2217 -0.681623 0
M  V30 8592 H 830.83 3.67354 -0.886537 0
M  V30 8593 H 831.143 7.34102 -2.41485 0
M  V30 8594 H 829.488 6.60414 -2.16513 0
M  V30 8595 H 832.679 4.52986 -1.17987 0
M  V30 8596 H 832.852 6.20233 -1.87657 0
M  V30 8597 N 826.258 0.243083 1.55714 0
M  V30 8598 C 827.221 -0.644723 2.19945 0
M  V30 8599 C 828.221 -1.10562 1.16759 0
M  V30 8600 O 829.411 -1.01095 1.41865 0
M  V30 8601 C 826.543 -1.88569 2.83997 0
M  V30 8602 H 827.736 -0.0843839 2.99781 0
M  V30 8603 H 825.289 -0.00647246 1.56299 0
M  V30 8604 H 826.024 -2.48736 2.08089 0
M  V30 8605 H 825.809 -1.56345 3.59581 0
M  V30 8606 H 827.299 -2.51774 3.33166 0
M  V30 8607 N 827.736 -1.57571 -0.0300757 0
M  V30 8608 C 828.982 -1.90355 -0.716687 0
M  V30 8609 C 829.337 -0.841568 -1.73018 0
M  V30 8610 O 828.63 0.149847 -1.91013 0
M  V30 8611 C 828.824 -3.27624 -1.42818 0
M  V30 8612 C 828.653 -4.47076 -0.485111 0
M  V30 8613 C 827.423 -5.05188 -0.106533 0
M  V30 8614 C 829.621 -5.13758 0.236059 0
M  V30 8615 N 827.603 -6.08155 0.837899 0
M  V30 8616 C 828.974 -6.1128 1.03619 0
M  V30 8617 C 831.029 -4.96977 0.30311 0
M  V30 8618 C 829.732 -6.93829 1.89721 0
M  V30 8619 C 831.758 -5.80086 1.15125 0
M  V30 8620 C 831.12 -6.77178 1.9393 0
M  V30 8621 H 827.219 -0.745417 -0.236384 0
M  V30 8622 H 829.803 -1.94686 0.0231985 0
M  V30 8623 H 827.974 -3.24224 -2.13854 0
M  V30 8624 H 829.706 -3.47927 -2.0671 0
M  V30 8625 H 826.461 -4.71277 -0.468498 0
M  V30 8626 H 826.885 -6.64311 1.30459 0
M  V30 8627 H 831.527 -4.21791 -0.291858 0
M  V30 8628 H 829.245 -7.6836 2.50298 0
M  V30 8629 H 832.831 -5.6915 1.20665 0
M  V30 8630 H 831.711 -7.4037 2.58499 0
M  V30 8631 N 829.214 0.302327 -1.54673 0
M  V30 8632 C 830.444 1.05516 -1.77623 0
M  V30 8633 C 830.852 1.81474 -0.535159 0
M  V30 8634 O 830.195 1.76635 0.504543 0
M  V30 8635 C 830.257 2.08305 -2.93001 0
M  V30 8636 C 829.921 1.51554 -4.31139 0
M  V30 8637 C 830.918 0.946261 -5.11216 0
M  V30 8638 C 828.603 1.55157 -4.77736 0
M  V30 8639 C 830.597 0.420559 -6.36011 0
M  V30 8640 C 828.284 1.022 -6.02494 0
M  V30 8641 C 829.282 0.457461 -6.81466 0
M  V30 8642 O 828.97 -0.064083 -8.03874 0
M  V30 8643 H 828.702 0.318756 -0.59613 0
M  V30 8644 H 831.256 0.347558 -2.02438 0
M  V30 8645 H 829.486 2.82742 -2.63807 0
M  V30 8646 H 831.175 2.69479 -3.03539 0
M  V30 8647 H 831.941 0.911338 -4.76361 0
M  V30 8648 H 827.82 1.98037 -4.16296 0
M  V30 8649 H 831.364 -0.0207298 -6.97597 0
M  V30 8650 H 827.261 1.05406 -6.36836 0
M  V30 8651 H 828.029 0.0493422 -8.18485 0
M  V30 8652 N 830.692 1.47107 0.565454 0
M  V30 8653 C 831.64 1.59368 1.69424 0
M  V30 8654 C 832.634 0.461344 1.62997 0
M  V30 8655 O 833.84 0.638849 1.68282 0
M  V30 8656 H 830.215 0.501387 0.560459 0
M  V30 8657 H 832.186 2.54242 1.56217 0
M  V30 8658 C 830.935 1.61739 3.07792 0
M  V30 8659 H 830.258 2.48215 3.13416 0
M  V30 8660 H 831.698 1.7437 3.86486 0
M  V30 8661 C 830.157 0.349156 3.35086 0
M  V30 8662 O 830.687 -0.553287 3.97871 0
M  V30 8663 N 828.893 0.231723 2.89675 0
M  V30 8664 H 828.44 0.967021 2.3876 0
M  V30 8665 H 828.398 -0.615911 3.08308 0
M  V30 8666 N 832.17 -0.811516 1.35101 0
M  V30 8667 C 833.417 -1.56835 1.28098 0
M  V30 8668 C 833.745 -1.93951 -0.14597 0
M  V30 8669 O 833 -1.61173 -1.11004 0
M  V30 8670 C 833.299 -2.87121 2.1283 0
M  V30 8671 C 832.965 -2.69245 3.61688 0
M  V30 8672 C 831.627 -2.64078 4.02264 0
M  V30 8673 C 833.979 -2.52122 4.56162 0
M  V30 8674 C 831.307 -2.39724 5.3549 0
M  V30 8675 C 833.659 -2.29298 5.89581 0
M  V30 8676 C 832.323 -2.2255 6.29307 0
M  V30 8677 H 831.593 -0.5739 0.468742 0
M  V30 8678 H 834.24 -0.93806 1.66951 0
M  V30 8679 H 832.545 -3.54502 1.66841 0
M  V30 8680 H 834.242 -3.44788 2.0475 0
M  V30 8681 H 830.832 -2.74112 3.29485 0
M  V30 8682 H 835.016 -2.5513 4.25702 0
M  V30 8683 H 830.272 -2.32965 5.65276 0
M  V30 8684 H 834.446 -2.15038 6.62368 0
M  V30 8685 H 832.073 -2.0344 7.32473 0
M  V30 8686 N 833.648 -1.19017 -1.03309 0
M  V30 8687 C 834.878 -1.01387 -1.80012 0
M  V30 8688 C 835.286 0.440655 -1.83997 0
M  V30 8689 O 834.629 1.31786 -1.27977 0
M  V30 8690 C 834.691 -1.50171 -3.26633 0
M  V30 8691 C 834.355 -2.98213 -3.46292 0
M  V30 8692 C 835.352 -3.96009 -3.36857 0
M  V30 8693 C 833.037 -3.36812 -3.72643 0
M  V30 8694 C 835.031 -5.30399 -3.5349 0
M  V30 8695 C 832.718 -4.71363 -3.88922 0
M  V30 8696 C 833.716 -5.67966 -3.79347 0
M  V30 8697 O 833.404 -7.00079 -3.95151 0
M  V30 8698 H 833.136 -0.357899 -0.573484 0
M  V30 8699 H 835.69 -1.58171 -1.31039 0
M  V30 8700 H 833.92 -0.877586 -3.7661 0
M  V30 8701 H 835.609 -1.28814 -3.84918 0
M  V30 8702 H 836.375 -3.67534 -3.16455 0
M  V30 8703 H 832.254 -2.62175 -3.7919 0
M  V30 8704 H 835.798 -6.05786 -3.45933 0
M  V30 8705 H 831.695 -4.99536 -4.0882 0
M  V30 8706 H 832.463 -7.07092 -4.12266 0
M  V30 8707 N 835.127 1.22348 -0.993418 0
M  V30 8708 C 836.367 1.92835 -0.677779 0
M  V30 8709 C 836.731 1.75624 0.775893 0
M  V30 8710 O 837.932 2.40379 1.20297 0
M  V30 8711 C 836.203 3.40906 -1.07322 0
M  V30 8712 S 837.762 4.29966 -0.876032 0
M  V30 8713 H 834.58 0.666421 -0.247799 0
M  V30 8714 H 837.182 1.48133 -1.27581 0
M  V30 8715 H 835.886 3.50946 -2.12756 0
M  V30 8716 H 835.417 3.90618 -0.467015 0
M  V30 8717 H 837.432 4.95652 0.233162 0
M  V30 8718 N 836.605 0.766683 1.37694 0
M  V30 8719 C 837.83 0.338715 2.04615 0
M  V30 8720 C 838.255 -1.02918 1.57447 0
M  V30 8721 O 837.613 -1.65849 0.732386 0
M  V30 8722 C 837.661 0.385284 3.58536 0
M  V30 8723 O 836.765 -0.616081 4.07772 0
M  V30 8724 H 836.106 0.147527 0.647404 0
M  V30 8725 H 838.636 1.04146 1.7611 0
M  V30 8726 H 838.646 0.240782 4.07289 0
M  V30 8727 H 837.321 1.38325 3.92223 0
M  V30 8728 H 835.898 -0.435115 3.70353 0
M  V30 8729 N 838.083 -1.48885 0.516809 0
M  V30 8730 C 838.993 -2.33185 -0.257293 0
M  V30 8731 C 840.009 -1.4565 -0.951952 0
M  V30 8732 O 841.185 -1.78651 -0.929834 0
M  V30 8733 C 838.25 -3.21465 -1.29851 0
M  V30 8734 C 837.311 -4.24863 -0.615608 0
M  V30 8735 C 836.544 -5.08925 -1.60722 0
M  V30 8736 O 836.767 -4.9475 -2.83863 0
M  V30 8737 O 835.701 -5.90737 -1.15384 0
M  V30 8738 H 839.527 -3.00596 0.433131 0
M  V30 8739 H 837.112 -1.46792 0.277908 0
M  V30 8740 H 838.994 -3.76108 -1.90055 0
M  V30 8741 H 837.669 -2.5673 -1.97158 0
M  V30 8742 H 836.576 -3.74091 0.0265829 0
M  V30 8743 H 837.909 -4.92198 0.0152871 0
M  V30 8744 N 839.561 -0.251338 -1.55583 0
M  V30 8745 C 840.809 0.371434 -1.98657 0
M  V30 8746 C 841.13 1.58143 -1.14087 0
M  V30 8747 O 840.4 1.94607 -0.224708 0
M  V30 8748 H 838.98 0.140225 -0.733721 0
M  V30 8749 H 841.642 -0.351157 -1.9171 0
M  V30 8750 H 840.738 0.677554 -3.04657 0
M  V30 8751 N 841.039 1.57585 0.0217189 0
M  V30 8752 C 841.986 2.07036 1.02004 0
M  V30 8753 C 842.956 0.96106 1.35473 0
M  V30 8754 O 844.141 1.23211 1.45684 0
M  V30 8755 C 841.281 2.56056 2.31364 0
M  V30 8756 C 840.394 3.80805 2.03989 0
M  V30 8757 C 839.529 4.18409 3.27272 0
M  V30 8758 C 838.568 5.36055 2.95486 0
M  V30 8759 N 837.705 5.69056 4.11242 0
M  V30 8760 H 842.545 2.92073 0.591396 0
M  V30 8761 H 840.082 1.44403 0.280384 0
M  V30 8762 H 842.04 2.82548 3.06957 0
M  V30 8763 H 840.67 1.73925 2.71937 0
M  V30 8764 H 839.722 3.61354 1.1886 0
M  V30 8765 H 841.034 4.66512 1.76546 0
M  V30 8766 H 840.188 4.46068 4.11228 0
M  V30 8767 H 838.927 3.31369 3.57835 0
M  V30 8768 H 837.932 5.08142 2.09933 0
M  V30 8769 H 839.157 6.24755 2.66193 0
M  V30 8770 H 837.103 4.84974 4.41742 0
M  V30 8771 H 837.02 6.49288 3.87247 0
M  V30 8772 H 838.288 6.01295 4.96049 0
M  V30 8773 N 842.517 -0.29412 1.54831 0
M  V30 8774 C 843.765 -1.02643 1.74094 0
M  V30 8775 C 844.086 -1.87563 0.533402 0
M  V30 8776 O 843.356 -1.9061 -0.452192 0
M  V30 8777 H 841.936 -0.381959 0.641963 0
M  V30 8778 H 844.598 -0.323444 1.92197 0
M  V30 8779 H 843.694 -1.67558 2.63307 0
M  V30 8780 N 843.995 -1.47404 -0.557645 0
M  V30 8781 C 845.241 -1.54235 -1.31679 0
M  V30 8782 C 845.574 -0.203782 -1.93128 0
M  V30 8783 O 844.849 0.787536 -1.77843 0
M  V30 8784 C 845.132 -2.66003 -2.42723 0
M  V30 8785 C 844.985 -4.09475 -1.86145 0
M  V30 8786 C 846.304 -2.73685 -3.44652 0
M  V30 8787 H 843.423 -0.561466 -0.477415 0
M  V30 8788 H 846.065 -1.79459 -0.624067 0
M  V30 8789 H 844.215 -2.44627 -3.01811 0
M  V30 8790 H 845.887 -4.42213 -1.31321 0
M  V30 8791 H 844.13 -4.17774 -1.16823 0
M  V30 8792 H 844.801 -4.83451 -2.66418 0
M  V30 8793 H 847.277 -2.92968 -2.95481 0
M  V30 8794 H 846.153 -3.53665 -4.19777 0
M  V30 8795 H 846.414 -1.80726 -4.03473 0
M  V30 8796 N 845.473 0.80434 -1.35529 0
M  V30 8797 C 846.719 1.56385 -1.29118 0
M  V30 8798 C 847.052 1.9374 0.133536 0
M  V30 8799 O 846.327 1.6153 1.08344 0
M  V30 8800 C 846.61 2.85097 -2.19981 0
M  V30 8801 C 846.463 2.54204 -3.7108 0
M  V30 8802 C 847.782 3.86817 -2.09907 0
M  V30 8803 H 844.901 0.567382 -0.470368 0
M  V30 8804 H 847.543 0.925235 -1.6595 0
M  V30 8805 H 845.693 3.39594 -1.88701 0
M  V30 8806 H 847.365 2.05872 -4.12813 0
M  V30 8807 H 845.608 1.87364 -3.91251 0
M  V30 8808 H 846.279 3.46068 -4.30048 0
M  V30 8809 H 848.755 3.41725 -2.37409 0
M  V30 8810 H 847.631 4.7465 -2.75678 0
M  V30 8811 H 847.892 4.28663 -1.08171 0
M  V30 8812 N 846.951 1.19563 1.02676 0
M  V30 8813 C 848.179 1.02488 1.79732 0
M  V30 8814 C 848.594 -0.426302 1.83924 0
M  V30 8815 O 847.951 -1.29609 1.28483 0
M  V30 8816 C 848.002 1.58944 3.24683 0
M  V30 8817 O 847.723 2.98382 3.2078 0
M  V30 8818 C 849.224 1.46681 4.1833 0
M  V30 8819 H 846.444 0.361098 0.565552 0
M  V30 8820 H 848.988 1.58426 1.29311 0
M  V30 8821 H 847.143 1.0715 3.72287 0
M  V30 8822 H 847.557 3.24983 4.11687 0
M  V30 8823 H 849.031 1.90959 5.17918 0
M  V30 8824 H 849.508 0.417663 4.3721 0
M  V30 8825 H 850.114 1.97616 3.76601 0
M  V30 8826 N 848.429 -1.21819 0.999893 0
M  V30 8827 C 849.339 -2.27691 0.565159 0
M  V30 8828 C 850.355 -1.69587 -0.389398 0
M  V30 8829 O 851.531 -1.99786 -0.254499 0
M  V30 8830 C 848.596 -3.46537 -0.106432 0
M  V30 8831 C 847.657 -4.19932 0.891964 0
M  V30 8832 C 846.89 -5.33103 0.252327 0
M  V30 8833 O 847.113 -5.62398 -0.952103 0
M  V30 8834 O 846.047 -5.94184 0.960698 0
M  V30 8835 H 849.873 -2.67059 1.44613 0
M  V30 8836 H 847.458 -1.28119 0.768499 0
M  V30 8837 H 849.34 -4.18631 -0.482301 0
M  V30 8838 H 848.015 -3.09079 -0.961865 0
M  V30 8839 H 846.922 -3.5008 1.3189 0
M  V30 8840 H 848.255 -4.61287 1.71682 0
M  V30 8841 N 849.908 -0.773975 -1.37286 0
M  V30 8842 C 850.818 -0.162571 -2.34036 0
M  V30 8843 C 851.834 0.677022 -1.60289 0
M  V30 8844 O 853.01 0.596423 -1.92366 0
M  V30 8845 C 850.075 0.70457 -3.39465 0
M  V30 8846 C 849.136 -0.151738 -4.29032 0
M  V30 8847 C 848.369 0.674111 -5.29426 0
M  V30 8848 O 848.592 1.91107 -5.37433 0
M  V30 8849 O 847.526 0.0821398 -6.01844 0
M  V30 8850 H 851.352 -0.962119 -2.88057 0
M  V30 8851 H 848.937 -0.53517 -1.39486 0
M  V30 8852 H 850.819 1.19954 -4.03967 0
M  V30 8853 H 849.494 1.48227 -2.87768 0
M  V30 8854 H 848.401 -0.693118 -3.67623 0
M  V30 8855 H 849.734 -0.892575 -4.84039 0
M  V30 8856 N 851.386 1.48609 -0.524698 0
M  V30 8857 C 852.349 2.28041 0.230166 0
M  V30 8858 C 853.349 1.35065 0.872584 0
M  V30 8859 O 854.539 1.58007 0.73345 0
M  V30 8860 C 851.671 3.13778 1.33252 0
M  V30 8861 H 852.864 2.96239 -0.467161 0
M  V30 8862 H 850.417 1.53763 -0.280452 0
M  V30 8863 H 851.152 2.502 2.06327 0
M  V30 8864 H 850.937 3.82165 0.877058 0
M  V30 8865 H 852.427 3.7371 1.86362 0
M  V30 8866 N 852.864 0.259585 1.55447 0
M  V30 8867 C 854.28 -0.094961 1.59317 0
M  V30 8868 C 854.48 -1.55884 1.2768 0
M  V30 8869 O 853.536 -2.30528 1.0302 0
M  V30 8870 C 854.849 0.265669 2.99524 0
M  V30 8871 C 856.397 0.211007 3.12288 0
M  V30 8872 C 856.872 0.545851 4.54736 0
M  V30 8873 N 858.363 0.496823 4.60528 0
M  V30 8874 C 859.098 0.728909 5.68748 0
M  V30 8875 N 858.594 1.02479 6.85179 0
M  V30 8876 N 860.387 0.658756 5.58226 0
M  V30 8877 H 852.538 1.2141 1.7428 0
M  V30 8878 H 854.801 0.489404 0.811904 0
M  V30 8879 H 854.507 1.28316 3.27457 0
M  V30 8880 H 854.381 -0.401089 3.75061 0
M  V30 8881 H 856.768 -0.797172 2.84129 0
M  V30 8882 H 856.849 0.911799 2.38998 0
M  V30 8883 H 856.493 1.55164 4.83618 0
M  V30 8884 H 856.423 -0.17656 5.26304 0
M  V30 8885 H 858.914 0.277376 3.76881 0
M  V30 8886 H 859.227 1.18897 7.63599 0
M  V30 8887 H 857.572 1.0624 6.86832 0
M  V30 8888 H 860.763 0.427553 4.66143 0
M  V30 8889 H 860.936 0.84302 6.42493 0
M  V30 8890 N 854.342 -1.57594 -0.0133615 0
M  V30 8891 C 855.305 -2.06534 -0.993799 0
M  V30 8892 C 856.305 -0.972267 -1.28077 0
M  V30 8893 O 857.495 -1.23537 -1.22818 0
M  V30 8894 C 854.627 -2.49554 -2.3224 0
M  V30 8895 H 855.82 -2.94419 -0.570741 0
M  V30 8896 H 853.373 -1.54113 -0.260546 0
M  V30 8897 H 854.108 -1.64872 -2.79263 0
M  V30 8898 H 853.893 -3.29371 -2.12737 0
M  V30 8899 H 855.383 -2.8779 -3.026 0
M  V30 8900 N 855.82 0.285905 -1.54985 0
M  V30 8901 C 857.097 1.0397 -1.65679 0
M  V30 8902 C 857.477 2.04725 -0.514851 0
M  V30 8903 O 856.825 2.23257 0.486663 0
M  V30 8904 C 857.035 1.70807 -3.04345 0
M  V30 8905 C 858.383 2.22447 -3.61666 0
M  V30 8906 O 859.407 1.80815 -3.06895 0
M  V30 8907 O 858.266 2.98773 -4.57599 0
M  V30 8908 H 855.36 0.481473 -0.672394 0
M  V30 8909 H 857.906 0.282789 -1.67327 0
M  V30 8910 H 856.678 0.977271 -3.789 0
M  V30 8911 H 856.301 2.53217 -3.06541 0
M  V30 8912 N 857.298 1.47698 0.54982 0
M  V30 8913 C 858.528 1.58101 1.32995 0
M  V30 8914 C 858.936 0.232939 1.87761 0
M  V30 8915 O 858.279 -0.785058 1.6608 0
M  V30 8916 C 858.341 2.55228 2.53178 0
M  V30 8917 C 858.005 4.00756 2.19645 0
M  V30 8918 C 859.002 4.89025 1.76496 0
M  V30 8919 C 856.687 4.46147 2.30777 0
M  V30 8920 C 858.681 6.20707 1.44919 0
M  V30 8921 C 856.368 5.77856 1.98812 0
M  V30 8922 C 857.366 6.64957 1.55952 0
M  V30 8923 O 857.054 7.94217 1.24396 0
M  V30 8924 H 856.786 0.536362 0.411451 0
M  V30 8925 H 859.34 1.94092 0.67212 0
M  V30 8926 H 857.57 2.14319 3.21876 0
M  V30 8927 H 859.259 2.55678 3.15251 0
M  V30 8928 H 860.025 4.55201 1.67383 0
M  V30 8929 H 855.904 3.78552 2.63096 0
M  V30 8930 H 859.448 6.88649 1.11392 0
M  V30 8931 H 855.345 6.11219 2.0756 0
M  V30 8932 H 856.113 8.06789 1.37964 0
M  V30 8933 N 858.776 -0.797141 1.35954 0
M  V30 8934 C 859.723 -1.90944 1.2965 0
M  V30 8935 C 860.693 -1.65262 0.166628 0
M  V30 8936 O 861.878 -1.87527 0.351883 0
M  V30 8937 C 859.018 -3.27637 1.08389 0
M  V30 8938 C 858.131 -3.65442 2.30382 0
M  V30 8939 C 857.266 -4.91213 2.02195 0
M  V30 8940 C 856.305 -5.21674 3.20191 0
M  V30 8941 N 855.442 -6.38627 2.91719 0
M  V30 8942 H 860.282 -1.95668 2.24762 0
M  V30 8943 H 857.819 -0.95696 1.11717 0
M  V30 8944 H 859.777 -4.06451 0.940912 0
M  V30 8945 H 858.407 -3.22355 0.169351 0
M  V30 8946 H 857.459 -2.81813 2.55511 0
M  V30 8947 H 858.771 -3.83907 3.18461 0
M  V30 8948 H 857.925 -5.77876 1.84783 0
M  V30 8949 H 856.664 -4.74803 1.11416 0
M  V30 8950 H 855.669 -4.33498 3.38171 0
M  V30 8951 H 856.894 -5.40009 4.11786 0
M  V30 8952 H 854.84 -6.23623 2.03543 0
M  V30 8953 H 854.757 -6.57387 3.73334 0
M  V30 8954 H 856.025 -7.28292 2.77868 0
M  V30 8955 N 860.254 -1.20106 -1.0204 0
M  V30 8956 C 861.67 -0.955099 -1.27867 0
M  V30 8957 C 861.87 0.367595 -1.98119 0
M  V30 8958 O 860.926 1.09705 -2.27423 0
M  V30 8959 C 862.239 -2.13507 -2.11744 0
M  V30 8960 C 863.787 -2.17563 -2.25023 0
M  V30 8961 C 864.262 -3.35035 -3.12275 0
M  V30 8962 N 865.753 -3.35024 -3.19864 0
M  V30 8963 C 866.488 -4.22566 -3.8759 0
M  V30 8964 N 865.984 -5.20278 -4.57474 0
M  V30 8965 N 867.777 -4.10418 -3.84075 0
M  V30 8966 H 859.928 -2.05193 -0.54861 0
M  V30 8967 H 862.191 -0.897689 -0.304728 0
M  V30 8968 H 861.897 -3.09275 -1.67456 0
M  V30 8969 H 861.771 -2.11281 -3.12474 0
M  V30 8970 H 864.158 -1.22359 -2.68537 0
M  V30 8971 H 864.239 -2.23838 -1.23815 0
M  V30 8972 H 863.883 -4.30522 -2.69468 0
M  V30 8973 H 863.813 -3.25996 -4.13563 0
M  V30 8974 H 866.304 -2.64299 -2.701 0
M  V30 8975 H 866.617 -5.83408 -5.06809 0
M  V30 8976 H 864.962 -5.24219 -4.56311 0
M  V30 8977 H 868.153 -3.33353 -3.28623 0
M  V30 8978 H 868.326 -4.78854 -4.36581 0
M  V30 8979 N 861.732 1.21287 -1.00634 0
M  V30 8980 C 862.979 1.90389 -0.6898 0
M  V30 8981 C 863.307 1.78193 0.779574 0
M  V30 8982 O 862.562 1.15358 1.58085 0
M  V30 8983 C 862.861 3.41374 -1.05824 0
M  V30 8984 C 862.527 3.73766 -2.5221 0
M  V30 8985 C 861.189 3.82317 -2.92211 0
M  V30 8986 C 863.541 3.88871 -3.47028 0
M  V30 8987 C 860.869 4.03423 -4.2599 0
M  V30 8988 C 863.221 4.11484 -4.80483 0
M  V30 8989 C 861.885 4.18263 -5.20204 0
M  V30 8990 H 861.155 0.696683 -0.252416 0
M  V30 8991 H 863.802 1.43769 -1.26502 0
M  V30 8992 H 862.107 3.8974 -0.401281 0
M  V30 8993 H 863.804 3.93118 -0.79116 0
M  V30 8994 H 860.394 3.67702 -2.20212 0
M  V30 8995 H 864.578 3.8163 -3.17289 0
M  V30 8996 H 859.834 4.06902 -4.56334 0
M  V30 8997 H 864.008 4.22115 -5.53888 0
M  V30 8998 H 861.635 4.34369 -6.23881 0
M  V30 8999 N 863.21 0.781244 1.36873 0
M  V30 9000 C 864.457 0.349889 1.99454 0
M  V30 9001 C 864.785 -1.07621 1.62013 0
M  V30 9002 O 864.04 -1.75665 0.86258 0
M  V30 9003 C 864.339 0.45146 3.54537 0
M  V30 9004 C 864.005 1.83718 4.11775 0
M  V30 9005 C 862.667 2.21634 4.2712 0
M  V30 9006 C 865.019 2.7449 4.43063 0
M  V30 9007 C 862.347 3.49742 4.7106 0
M  V30 9008 C 864.699 4.02017 4.88431 0
M  V30 9009 C 863.363 4.39967 5.01982 0
M  V30 9010 H 862.633 0.128033 0.729855 0
M  V30 9011 H 865.28 0.997117 1.63493 0
M  V30 9012 H 863.585 -0.279288 3.90803 0
M  V30 9013 H 865.282 0.0988609 4.00878 0
M  V30 9014 H 861.872 1.53251 4.00265 0
M  V30 9015 H 866.056 2.46453 4.30783 0
M  V30 9016 H 861.312 3.79026 4.79738 0
M  V30 9017 H 865.486 4.72475 5.11605 0
M  V30 9018 H 863.113 5.39291 5.35788 0
M  V30 9019 N 864.689 -1.48329 0.532571 0
M  V30 9020 C 865.599 -2.33445 -0.232546 0
M  V30 9021 C 866.615 -1.46651 -0.93645 0
M  V30 9022 O 867.791 -1.79627 -0.910834 0
M  V30 9023 C 864.856 -3.22824 -1.26434 0
M  V30 9024 C 863.917 -4.25492 -0.570511 0
M  V30 9025 C 863.15 -5.10601 -1.55315 0
M  V30 9026 O 863.373 -4.97733 -2.78599 0
M  V30 9027 O 862.307 -5.91927 -1.09112 0
M  V30 9028 H 866.133 -3.00119 0.464988 0
M  V30 9029 H 863.718 -1.46489 0.293462 0
M  V30 9030 H 865.6 -3.78103 -1.86055 0
M  V30 9031 H 864.275 -2.58807 -1.94424 0
M  V30 9032 H 863.182 -3.74041 0.0662587 0
M  V30 9033 H 864.515 -4.92154 0.0674904 0
M  V30 9034 N 866.167 -0.267825 -1.55308 0
M  V30 9035 C 867.099 0.65591 -2.19614 0
M  V30 9036 C 868.112 1.12302 -1.17865 0
M  V30 9037 O 869.301 1.04618 -1.44628 0
M  V30 9038 C 866.401 1.90582 -2.80235 0
M  V30 9039 C 865.574 1.58673 -4.07605 0
M  V30 9040 C 864.633 2.68836 -4.52343 0
M  V30 9041 O 863.659 2.35331 -5.18274 0
M  V30 9042 N 864.861 3.98752 -4.21873 0
M  V30 9043 H 867.626 0.105566 -2.99514 0
M  V30 9044 H 865.187 -0.0886263 -1.61657 0
M  V30 9045 H 867.179 2.63561 -3.07112 0
M  V30 9046 H 865.749 2.3654 -2.04371 0
M  V30 9047 H 864.969 0.691113 -3.88094 0
M  V30 9048 H 866.257 1.34845 -4.90606 0
M  V30 9049 H 865.655 4.28797 -3.68985 0
M  V30 9050 H 864.212 4.68131 -4.53537 0
M  V30 9051 N 867.645 1.57599 0.00500368 0
M  V30 9052 C 868.555 2.11532 1.01446 0
M  V30 9053 C 869.571 1.05941 1.3803 0
M  V30 9054 O 870.747 1.37815 1.46864 0
M  V30 9055 C 867.812 2.60382 2.28915 0
M  V30 9056 C 866.873 3.80554 1.98689 0
M  V30 9057 C 866.106 4.27064 3.20081 0
M  V30 9058 O 866.329 3.72939 4.31593 0
M  V30 9059 O 865.263 5.1927 3.04371 0
M  V30 9060 H 869.089 2.97993 0.586011 0
M  V30 9061 H 866.674 1.47718 0.223519 0
M  V30 9062 H 868.556 2.92024 3.03809 0
M  V30 9063 H 867.231 1.77022 2.71007 0
M  V30 9064 H 866.138 3.53893 1.21286 0
M  V30 9065 H 867.471 4.64972 1.61437 0
M  V30 9066 N 869.123 -0.277682 1.55134 0
M  V30 9067 C 870.369 -1.0114 1.7578 0
M  V30 9068 C 870.702 -1.86109 0.554719 0
M  V30 9069 O 869.977 -1.89275 -0.447813 0
M  V30 9070 C 870.26 -1.89789 3.06027 0
M  V30 9071 C 870.113 -1.07844 4.3668 0
M  V30 9072 C 871.432 -2.88577 3.32282 0
M  V30 9073 H 868.551 -0.366277 0.639539 0
M  V30 9074 H 871.193 -0.284155 1.87863 0
M  V30 9075 H 869.343 -2.51796 2.95856 0
M  V30 9076 H 871.015 -0.479432 4.58802 0
M  V30 9077 H 869.258 -0.381764 4.32117 0
M  V30 9078 H 869.929 -1.73179 5.24131 0
M  V30 9079 H 872.405 -2.36702 3.42215 0
M  V30 9080 H 871.281 -3.47749 4.2469 0
M  V30 9081 H 871.542 -3.63458 2.51696 0
M  V30 9082 N 870.601 -1.47988 -0.541979 0
M  V30 9083 C 871.831 -1.58804 -1.32155 0
M  V30 9084 C 872.239 -0.242893 -1.87634 0
M  V30 9085 O 871.582 0.776239 -1.66494 0
M  V30 9086 C 871.644 -2.56567 -2.51821 0
M  V30 9087 C 871.308 -4.01915 -2.17517 0
M  V30 9088 C 872.305 -4.89954 -1.73901 0
M  V30 9089 C 869.99 -4.47365 -2.28408 0
M  V30 9090 C 871.984 -6.21467 -1.41625 0
M  V30 9091 C 869.671 -5.78902 -1.95745 0
M  V30 9092 C 870.669 -6.65775 -1.52423 0
M  V30 9093 O 870.357 -7.94866 -1.20183 0
M  V30 9094 H 870.089 -0.538536 -0.408601 0
M  V30 9095 H 872.643 -1.94446 -0.661818 0
M  V30 9096 H 870.873 -2.16023 -3.20735 0
M  V30 9097 H 872.562 -2.57347 -3.13891 0
M  V30 9098 H 873.328 -4.56082 -1.64966 0
M  V30 9099 H 869.207 -3.79942 -2.61084 0
M  V30 9100 H 872.751 -6.8923 -1.07738 0
M  V30 9101 H 868.648 -6.12311 -2.04316 0
M  V30 9102 H 869.416 -8.07509 -1.33683 0
M  V30 9103 N 872.079 0.78992 -1.36375 0
M  V30 9104 C 873.325 1.55007 -1.3077 0
M  V30 9105 C 873.658 1.93871 0.112979 0
M  V30 9106 O 872.933 1.6267 1.06625 0
M  V30 9107 C 873.216 2.82748 -2.22993 0
M  V30 9108 C 873.069 2.50253 -3.73756 0
M  V30 9109 C 874.388 3.84569 -2.13998 0
M  V30 9110 H 871.507 0.562362 -0.476359 0
M  V30 9111 H 874.149 0.907582 -1.66922 0
M  V30 9112 H 872.299 3.37573 -1.92292 0
M  V30 9113 H 873.971 2.01482 -4.14973 0
M  V30 9114 H 872.214 1.83203 -3.93216 0
M  V30 9115 H 872.885 3.41487 -4.33694 0
M  V30 9116 H 875.361 3.39188 -2.4102 0
M  V30 9117 H 874.237 4.717 -2.80697 0
M  V30 9118 H 874.498 4.27491 -1.12711 0
M  V30 9119 N 873.557 1.20646 1.01402 0
M  V30 9120 C 874.968 1.01823 1.56489 0
M  V30 9121 C 875.319 -0.42463 1.9155 0
M  V30 9122 O 874.444 -1.30644 1.72514 0
M  V30 9123 C 875.039 1.84208 2.84347 0
M  V30 9124 C 873.598 1.69743 3.35953 0
M  V30 9125 C 872.745 1.8198 2.09233 0
M  V30 9126 H 875.696 1.348 0.837539 0
M  V30 9127 H 875.717 1.34698 3.55861 0
M  V30 9128 H 875.229 2.89215 2.58798 0
M  V30 9129 H 873.33 0.673833 3.66456 0
M  V30 9130 H 873.443 2.51173 4.07981 0
M  V30 9131 H 871.807 1.25193 2.21808 0
M  V30 9132 H 872.59 2.88477 1.86107 0
M  V30 9133 N 875.035 -1.20752 1.01276 0
M  V30 9134 C 875.998 -2.2162 0.584583 0
M  V30 9135 C 876.998 -1.57094 -0.343215 0
M  V30 9136 O 878.188 -1.73696 -0.132433 0
M  V30 9137 C 875.32 -3.40583 -0.146872 0
M  V30 9138 H 876.513 -2.61015 1.47686 0
M  V30 9139 H 874.066 -1.34148 0.802123 0
M  V30 9140 H 874.801 -3.06686 -1.05424 0
M  V30 9141 H 874.586 -3.88642 0.51958 0
M  V30 9142 H 876.076 -4.15339 -0.433924 0
M  V30 9143 N 876.513 -0.788492 -1.36457 0
M  V30 9144 C 877.761 -0.359749 -1.98872 0
M  V30 9145 C 878.082 1.07197 -1.62892 0
M  V30 9146 O 877.352 1.73875 -0.902463 0
M  V30 9147 H 875.932 -0.130029 -0.735596 0
M  V30 9148 H 878.594 -1.01033 -1.66668 0
M  V30 9149 H 877.69 -0.450835 -3.08827 0
M  V30 9150 N 877.991 1.48044 -0.54043 0
M  V30 9151 C 879.237 2.03392 -0.0183377 0
M  V30 9152 C 879.592 1.4091 1.31004 0
M  V30 9153 O 878.885 0.549375 1.83555 0
M  V30 9154 C 879.079 3.57085 0.150008 0
M  V30 9155 C 878.908 4.34468 -1.1605 0
M  V30 9156 C 877.678 4.75008 -1.72324 0
M  V30 9157 C 879.876 4.70641 -2.07368 0
M  V30 9158 N 877.858 5.36968 -2.97555 0
M  V30 9159 C 879.229 5.32728 -3.17176 0
M  V30 9160 C 881.284 4.52571 -2.07567 0
M  V30 9161 C 879.987 5.78654 -4.27261 0
M  V30 9162 C 882.013 4.99485 -3.16653 0
M  V30 9163 C 881.375 5.61606 -4.2518 0
M  V30 9164 H 877.474 0.780497 -0.0484652 0
M  V30 9165 H 880.058 1.80738 -0.724018 0
M  V30 9166 H 878.229 3.79542 0.824787 0
M  V30 9167 H 879.961 3.99071 0.672649 0
M  V30 9168 H 876.716 4.5644 -1.26331 0
M  V30 9169 H 877.14 5.72505 -3.61341 0
M  V30 9170 H 881.782 4.03914 -1.24952 0
M  V30 9171 H 879.5 6.26311 -5.10647 0
M  V30 9172 H 883.086 4.87286 -3.17874 0
M  V30 9173 H 881.966 5.97248 -5.08197 0
M  V30 9174 N 879.47 0.276058 1.55163 0
M  V30 9175 C 880.695 -0.346648 2.04483 0
M  V30 9176 C 881.12 -1.48613 1.15308 0
M  V30 9177 O 880.478 -1.80663 0.151875 0
M  V30 9178 C 880.526 -0.804268 3.51517 0
M  V30 9179 O 879.63 -1.91143 3.65429 0
M  V30 9180 H 878.971 -0.0715251 0.660136 0
M  V30 9181 H 881.501 0.410631 2.00437 0
M  V30 9182 H 881.511 -1.09977 3.92898 0
M  V30 9183 H 880.186 0.0294123 4.1589 0
M  V30 9184 H 878.763 -1.61839 3.3595 0
M  V30 9185 N 880.948 -1.576 0.00335426 0
M  V30 9186 C 882.196 -1.90336 -0.679446 0
M  V30 9187 C 882.517 -0.877777 -1.74127 0
M  V30 9188 O 881.787 0.0843585 -1.95718 0
M  V30 9189 H 880.367 -0.702509 -0.253948 0
M  V30 9190 H 883.029 -1.94848 0.0450731 0
M  V30 9191 H 882.125 -2.90197 -1.14857 0
M  V30 9192 N 882.426 0.269451 -1.5528 0
M  V30 9193 C 883.654 1.01872 -1.80082 0
M  V30 9194 C 884.069 1.79802 -0.575917 0
M  V30 9195 O 883.426 1.76735 0.455081 0
M  V30 9196 C 883.477 1.9745 -3.02813 0
M  V30 9197 O 883.198 1.22677 -4.20573 0
M  V30 9198 C 884.699 2.8416 -3.40247 0
M  V30 9199 H 881.919 0.300781 -0.59981 0
M  V30 9200 H 884.463 0.29916 -2.023 0
M  V30 9201 H 882.618 2.64864 -2.82712 0
M  V30 9202 H 883.032 1.87129 -4.89982 0
M  V30 9203 H 884.506 3.47014 -4.29284 0
M  V30 9204 H 884.983 3.54113 -2.59809 0
M  V30 9205 H 885.589 2.22232 -3.6262 0
M  V30 9206 N 883.904 1.48273 0.534124 0
M  V30 9207 C 884.837 1.57053 1.65559 0
M  V30 9208 C 885.815 0.421213 1.5705 0
M  V30 9209 O 886.999 0.632242 1.77581 0
M  V30 9210 C 884.126 1.49465 3.03937 0
M  V30 9211 C 883.172 2.69186 3.30819 0
M  V30 9212 S 884.005 4.31192 3.17543 0
M  V30 9213 C 885.161 4.26197 4.58375 0
M  V30 9214 H 885.394 2.51927 1.57861 0
M  V30 9215 H 882.927 1.36755 0.716763 0
M  V30 9216 H 884.885 1.45775 3.83745 0
M  V30 9217 H 883.546 0.559357 3.09079 0
M  V30 9218 H 882.739 2.60005 4.31756 0
M  V30 9219 H 882.341 2.70118 2.58674 0
M  V30 9220 H 884.633 3.95874 5.49809 0
M  V30 9221 H 885.576 5.27299 4.72611 0
M  V30 9222 H 885.984 3.56723 4.37503 0
M  V30 9223 N 885.382 -0.782676 1.36792 0
M  V30 9224 C 886.793 -1.35828 1.28092 0
M  V30 9225 C 887.144 -1.96052 -0.076315 0
M  V30 9226 O 886.269 -1.93042 -0.977935 0
M  V30 9227 C 886.864 -2.46949 2.31952 0
M  V30 9228 C 885.423 -3.00307 2.2692 0
M  V30 9229 C 884.57 -1.73436 2.16368 0
M  V30 9230 H 887.521 -0.583788 1.47572 0
M  V30 9231 H 887.542 -3.26144 1.95986 0
M  V30 9232 H 887.054 -2.03087 3.30722 0
M  V30 9233 H 885.155 -3.48571 1.31639 0
M  V30 9234 H 885.268 -3.56663 3.19887 0
M  V30 9235 H 883.632 -1.95934 1.62733 0
M  V30 9236 H 884.415 -1.31693 3.17036 0
M  V30 9237 N 886.86 -1.21182 -1.00761 0
M  V30 9238 C 887.808 -0.965728 -2.11604 0
M  V30 9239 C 888.802 0.0861028 -1.69181 0
M  V30 9240 O 890.008 -0.0650558 -1.79882 0
M  V30 9241 H 886.383 -0.295023 -0.691712 0
M  V30 9242 H 888.354 -1.90667 -2.2954 0
M  V30 9243 C 887.103 -0.544164 -3.43415 0
M  V30 9244 H 886.426 -1.34515 -3.76491 0
M  V30 9245 H 887.866 -0.411268 -4.22001 0
M  V30 9246 C 886.325 0.744583 -3.28569 0
M  V30 9247 O 886.855 1.80078 -3.59075 0
M  V30 9248 N 885.061 0.710083 -2.81791 0
M  V30 9249 H 884.608 -0.14971 -2.57165 0
M  V30 9250 H 884.566 1.57268 -2.72239 0
M  V30 9251 N 888.338 1.20213 -1.01915 0
M  V30 9252 C 889.586 1.89272 -0.708552 0
M  V30 9253 C 889.907 1.79394 0.76438 0
M  V30 9254 O 889.177 1.198 1.54999 0
M  V30 9255 H 887.757 0.700628 -0.259094 0
M  V30 9256 H 890.419 1.45985 -1.29129 0
M  V30 9257 H 889.515 2.95841 -0.994215 0
M  V30 9258 N 889.816 0.795718 1.36037 0
M  V30 9259 C 891.093 0.294743 1.93367 0
M  V30 9260 C 891.473 -1.21406 1.72696 0
M  V30 9261 O 890.821 -2.00849 1.08959 0
M  V30 9262 C 891.031 0.694254 3.42025 0
M  V30 9263 C 892.379 0.677566 4.19159 0
M  V30 9264 O 893.403 0.635119 3.50492 0
M  V30 9265 O 892.262 0.726127 5.41655 0
M  V30 9266 H 889.356 0.0745459 0.823633 0
M  V30 9267 H 891.902 0.878685 1.4518 0
M  V30 9268 H 890.674 1.73458 3.50753 0
M  V30 9269 H 890.297 0.0845338 3.9751 0
M  V30 9270 N 891.294 -1.47756 0.548274 0
M  V30 9271 C 892.241 -2.29893 -0.204408 0
M  V30 9272 C 893.211 -1.38509 -0.916761 0
M  V30 9273 O 894.396 -1.67472 -0.91421 0
M  V30 9274 C 891.536 -3.22282 -1.23403 0
M  V30 9275 C 890.649 -4.28753 -0.528654 0
M  V30 9276 C 889.784 -5.08303 -1.54279 0
M  V30 9277 C 888.823 -6.06557 -0.821893 0
M  V30 9278 N 887.96 -6.79098 -1.78243 0
M  V30 9279 H 892.8 -2.93739 0.502163 0
M  V30 9280 H 890.337 -1.44793 0.259471 0
M  V30 9281 H 892.295 -3.74262 -1.84348 0
M  V30 9282 H 890.925 -2.6032 -1.90875 0
M  V30 9283 H 889.977 -3.79899 0.195132 0
M  V30 9284 H 891.289 -4.98787 0.0365066 0
M  V30 9285 H 890.443 -5.64388 -2.22602 0
M  V30 9286 H 889.182 -4.3815 -2.14186 0
M  V30 9287 H 888.187 -5.49659 -0.12469 0
M  V30 9288 H 889.412 -6.78715 -0.228685 0
M  V30 9289 H 887.358 -6.11682 -2.37025 0
M  V30 9290 H 887.275 -7.4527 -1.26919 0
M  V30 9291 H 888.543 -7.39762 -2.45709 0
M  V30 9292 N 892.772 -0.284283 -1.55015 0
M  V30 9293 C 894.021 0.33055 -1.98973 0
M  V30 9294 C 894.334 1.56284 -1.17621 0
M  V30 9295 O 895.54 2.2512 -1.51767 0
M  V30 9296 C 893.996 0.639457 -3.54174 0
M  V30 9297 C 893.604 -0.573543 -4.44313 0
M  V30 9298 C 895.348 1.21641 -4.06699 0
M  V30 9299 C 893.255 -0.238715 -5.90918 0
M  V30 9300 H 892.185 0.127285 -0.743179 0
M  V30 9301 H 894.836 -0.390372 -1.793 0
M  V30 9302 H 893.218 1.41953 -3.69683 0
M  V30 9303 H 894.392 -1.3502 -4.40575 0
M  V30 9304 H 892.707 -1.06797 -4.02472 0
M  V30 9305 H 895.304 1.48088 -5.13784 0
M  V30 9306 H 895.647 2.15328 -3.56286 0
M  V30 9307 H 896.18 0.498422 -3.94665 0
M  V30 9308 H 892.919 -1.1437 -6.45445 0
M  V30 9309 H 892.439 0.500997 -5.97704 0
M  V30 9310 H 894.118 0.165774 -6.46788 0
M  V30 9311 N 894.251 1.57596 -0.0117121 0
M  V30 9312 C 895.183 2.06025 1.0043 0
M  V30 9313 C 896.196 0.980348 1.29973 0
M  V30 9314 O 897.385 1.25691 1.26744 0
M  V30 9315 C 894.485 2.45514 2.33615 0
M  V30 9316 C 893.658 3.76378 2.22842 0
M  V30 9317 C 892.717 4.02606 3.38814 0
M  V30 9318 O 891.743 4.73108 3.16477 0
M  V30 9319 N 892.945 3.51416 4.62047 0
M  V30 9320 H 895.71 2.93811 0.591206 0
M  V30 9321 H 893.271 1.60947 0.175427 0
M  V30 9322 H 895.263 2.60166 3.09993 0
M  V30 9323 H 893.833 1.63186 2.66625 0
M  V30 9324 H 893.053 3.71691 1.313 0
M  V30 9325 H 894.341 4.62149 2.12829 0
M  V30 9326 H 893.739 2.94346 4.83091 0
M  V30 9327 H 892.296 3.71377 5.35651 0
M  V30 9328 N 895.729 -0.261212 1.5542 0
M  V30 9329 C 897.14 -0.83138 1.67167 0
M  V30 9330 C 897.491 -1.8659 0.606525 0
M  V30 9331 O 896.616 -2.14953 -0.24985 0
M  V30 9332 C 897.211 -1.51475 3.03052 0
M  V30 9333 C 895.77 -2.0328 3.16787 0
M  V30 9334 C 894.917 -0.878903 2.63003 0
M  V30 9335 H 897.868 -0.0373102 1.58656 0
M  V30 9336 H 897.889 -2.38222 2.96699 0
M  V30 9337 H 897.401 -0.76157 3.80554 0
M  V30 9338 H 895.502 -2.81523 2.44082 0
M  V30 9339 H 895.615 -2.24001 4.2351 0
M  V30 9340 H 893.979 -1.27551 2.2046 0
M  V30 9341 H 894.762 -0.13904 3.43018 0
M  V30 9342 N 897.207 -1.48554 -0.526253 0
M  V30 9343 C 898.455 -1.56452 -1.27935 0
M  V30 9344 C 898.776 -0.24184 -1.93495 0
M  V30 9345 O 898.046 0.736917 -1.81511 0
M  V30 9346 H 896.626 -0.576379 -0.47518 0
M  V30 9347 H 899.288 -1.85039 -0.612083 0
M  V30 9348 H 898.384 -2.34751 -2.05666 0
M  V30 9349 N 898.685 0.775411 -1.37205 0
M  V30 9350 C 899.934 1.52909 -1.31536 0
M  V30 9351 C 900.247 1.9535 0.0989374 0
M  V30 9352 O 901.453 2.70072 0.278079 0
M  V30 9353 C 899.909 2.761 -2.30861 0
M  V30 9354 C 899.517 2.40773 -3.77799 0
M  V30 9355 C 901.261 3.54052 -2.34195 0
M  V30 9356 C 899.168 3.60444 -4.68865 0
M  V30 9357 H 898.098 0.574061 -0.488845 0
M  V30 9358 H 900.749 0.849642 -1.62645 0
M  V30 9359 H 899.131 3.45916 -1.92764 0
M  V30 9360 H 900.305 1.78764 -4.24712 0
M  V30 9361 H 898.62 1.76004 -3.77375 0
M  V30 9362 H 901.217 4.42992 -2.99437 0
M  V30 9363 H 901.56 3.93649 -1.35449 0
M  V30 9364 H 902.093 2.91229 -2.7098 0
M  V30 9365 H 898.832 3.25932 -5.68725 0
M  V30 9366 H 898.352 4.21571 -4.26659 0
M  V30 9367 H 900.031 4.27302 -4.85821 0
M  V30 9368 N 900.163 1.21714 1.00117 0
M  V30 9369 C 901.11 0.979837 2.08968 0
M  V30 9370 C 902.08 -0.0955324 1.65825 0
M  V30 9371 O 903.265 0.0523742 1.90728 0
M  V30 9372 C 900.405 0.554758 3.40612 0
M  V30 9373 C 899.518 1.69999 3.97145 0
M  V30 9374 C 898.653 1.2237 5.16913 0
M  V30 9375 C 897.692 2.34101 5.65564 0
M  V30 9376 N 896.829 1.87579 6.76579 0
M  V30 9377 H 901.669 1.91167 2.28602 0
M  V30 9378 H 899.206 0.952645 1.12085 0
M  V30 9379 H 901.164 0.289526 4.16194 0
M  V30 9380 H 899.794 -0.340073 3.21004 0
M  V30 9381 H 898.846 2.07976 3.18512 0
M  V30 9382 H 900.158 2.54074 4.29241 0
M  V30 9383 H 899.312 0.915358 5.99755 0
M  V30 9384 H 898.051 0.353045 4.8642 0
M  V30 9385 H 897.056 2.65734 4.81316 0
M  V30 9386 H 898.281 3.21669 5.98085 0
M  V30 9387 H 896.227 1.02863 6.47885 0
M  V30 9388 H 896.144 2.65225 7.07949 0
M  V30 9389 H 897.412 1.5979 7.62947 0
M  V30 9390 N 901.641 -1.19671 1.02551 0
M  V30 9391 C 902.888 -1.89268 0.720002 0
M  V30 9392 C 903.216 -1.79411 -0.751127 0
M  V30 9393 O 902.471 -1.17859 -1.5623 0
M  V30 9394 C 902.77 -3.39647 1.11241 0
M  V30 9395 C 902.436 -3.69706 2.58125 0
M  V30 9396 C 901.098 -3.7762 2.98256 0
M  V30 9397 C 903.45 -3.83301 3.53171 0
M  V30 9398 C 900.778 -3.96594 4.32354 0
M  V30 9399 C 903.13 -4.03788 4.86968 0
M  V30 9400 C 901.794 -4.09934 5.26793 0
M  V30 9401 H 901.064 -0.692579 0.263467 0
M  V30 9402 H 903.711 -1.41738 1.28774 0
M  V30 9403 H 902.016 -3.89052 0.463234 0
M  V30 9404 H 903.713 -3.91809 0.853602 0
M  V30 9405 H 900.303 -3.64152 2.26033 0
M  V30 9406 H 904.487 -3.76534 3.2332 0
M  V30 9407 H 899.743 -3.9959 4.6275 0
M  V30 9408 H 903.917 -4.1325 5.60533 0
M  V30 9409 H 901.544 -4.24389 6.30712 0
M  V30 9410 N 903.119 -0.802921 -1.35613 0
M  V30 9411 C 904.368 -0.378087 -1.98125 0
M  V30 9412 C 904.681 1.05953 -1.64418 0
M  V30 9413 O 905.887 1.58729 -2.20266 0
M  V30 9414 C 904.343 -0.625077 -3.5443 0
M  V30 9415 C 903.951 -2.07499 -3.97049 0
M  V30 9416 C 905.695 -0.265419 -4.23669 0
M  V30 9417 C 903.602 -2.26793 -5.46186 0
M  V30 9418 H 902.532 -0.137633 -0.741332 0
M  V30 9419 H 905.183 -0.986461 -1.54729 0
M  V30 9420 H 903.565 0.0531975 -3.95964 0
M  V30 9421 H 904.739 -2.79077 -3.66678 0
M  V30 9422 H 903.054 -2.39417 -3.40688 0
M  V30 9423 H 905.651 -0.387669 -5.33293 0
M  V30 9424 H 905.994 0.787994 -4.08774 0
M  V30 9425 H 906.527 -0.897464 -3.87544 0
M  V30 9426 H 903.266 -3.30566 -5.66045 0
M  V30 9427 H 902.786 -1.59735 -5.78139 0
M  V30 9428 H 904.465 -2.08165 -6.12598 0
M  V30 9429 N 904.597 1.47463 -0.556102 0
M  V30 9430 C 905.874 1.9557 0.0339892 0
M  V30 9431 C 906.254 1.49869 1.48669 0
M  V30 9432 O 905.602 0.737019 2.16288 0
M  V30 9433 C 905.812 3.48826 -0.110343 0
M  V30 9434 C 907.16 4.24585 0.0355716 0
M  V30 9435 O 908.184 3.5618 -0.0378356 0
M  V30 9436 O 907.043 5.46158 0.193299 0
M  V30 9437 H 904.137 0.824461 0.0647521 0
M  V30 9438 H 906.683 1.57868 -0.622547 0
M  V30 9439 H 905.455 3.74891 -1.12126 0
M  V30 9440 H 905.078 3.9329 0.583855 0
M  V30 9441 N 906.075 0.2925 1.54862 0
M  V30 9442 C 907.324 -0.319994 1.99146 0
M  V30 9443 C 907.637 -1.55658 1.18448 0
M  V30 9444 O 908.843 -2.24312 1.52959 0
M  V30 9445 C 907.299 -0.620665 3.54508 0
M  V30 9446 C 906.907 0.597098 4.44003 0
M  V30 9447 C 908.651 -1.19482 4.07338 0
M  V30 9448 C 906.558 0.270049 5.90783 0
M  V30 9449 H 905.488 -0.123342 0.743843 0
M  V30 9450 H 908.139 0.399876 1.7909 0
M  V30 9451 H 906.521 -1.3999 3.7043 0
M  V30 9452 H 907.695 1.37354 4.39853 0
M  V30 9453 H 906.01 1.0893 4.019 0
M  V30 9454 H 908.607 -1.45362 5.14562 0
M  V30 9455 H 908.95 -2.13435 3.57423 0
M  V30 9456 H 909.483 -0.477485 3.94924 0
M  V30 9457 H 906.222 1.17791 6.4483 0
M  V30 9458 H 905.742 -0.469292 5.97961 0
M  V30 9459 H 907.421 -0.131471 6.46866 0
M  V30 9460 N 907.553 -1.57587 0.0200696 0
M  V30 9461 C 908.969 -1.56018 -0.336237 0
M  V30 9462 C 909.169 -1.02478 -1.73495 0
M  V30 9463 O 908.225 -0.667487 -2.43518 0
M  V30 9464 C 909.538 -3.00079 -0.193112 0
M  V30 9465 C 911.086 -3.11863 -0.266557 0
M  V30 9466 C 911.561 -4.57747 -0.152326 0
M  V30 9467 N 913.052 -4.62726 -0.209596 0
M  V30 9468 C 913.787 -5.73217 -0.144855 0
M  V30 9469 N 913.283 -6.92794 -0.0295487 0
M  V30 9470 N 915.076 -5.61751 -0.198184 0
M  V30 9471 H 907.227 -1.90722 0.93482 0
M  V30 9472 H 909.49 -0.876909 0.360186 0
M  V30 9473 H 909.196 -3.43167 0.770036 0
M  V30 9474 H 909.07 -3.64593 -0.967029 0
M  V30 9475 H 911.457 -2.68693 -1.22016 0
M  V30 9476 H 911.538 -2.50087 0.53758 0
M  V30 9477 H 911.182 -5.01595 0.797817 0
M  V30 9478 H 911.112 -5.17491 -0.97521 0
M  V30 9479 H 913.603 -3.76713 -0.299229 0
M  V30 9480 H 913.916 -7.72799 0.0134071 0
M  V30 9481 H 912.261 -6.95 0.00510737 0
M  V30 9482 H 915.452 -4.67222 -0.286603 0
M  V30 9483 H 915.625 -6.47839 -0.144266 0
M  V30 9484 N 909.032 0.252966 -1.55557 0
M  V30 9485 C 910.26 0.999565 -1.81153 0
M  V30 9486 C 910.675 1.79181 -0.594955 0
M  V30 9487 O 910.032 1.77208 0.436311 0
M  V30 9488 C 910.083 1.94227 -3.04891 0
M  V30 9489 O 909.804 1.18209 -4.21851 0
M  V30 9490 C 911.305 2.80536 -3.43241 0
M  V30 9491 H 908.525 0.294402 -0.602966 0
M  V30 9492 H 911.069 0.277686 -2.02606 0
M  V30 9493 H 909.224 2.6185 -2.85505 0
M  V30 9494 H 909.638 1.81922 -4.9194 0
M  V30 9495 H 911.112 3.42442 -4.32941 0
M  V30 9496 H 911.589 3.51337 -2.6355 0
M  V30 9497 H 912.195 2.18373 -3.64956 0
M  V30 9498 N 910.51 1.48831 0.518367 0
M  V30 9499 C 911.457 1.64216 1.62178 0
M  V30 9500 C 912.427 0.483942 1.58894 0
M  V30 9501 O 913.612 0.708857 1.77144 0
M  V30 9502 C 910.752 1.69867 3.00399 0
M  V30 9503 C 909.865 2.96875 3.1383 0
M  V30 9504 C 909 2.93613 4.42679 0
M  V30 9505 C 908.039 4.15276 4.4968 0
M  V30 9506 N 907.176 4.10024 5.69934 0
M  V30 9507 H 912.016 2.58439 1.48368 0
M  V30 9508 H 909.553 1.28154 0.722152 0
M  V30 9509 H 911.511 1.71124 3.8049 0
M  V30 9510 H 910.141 0.791249 3.12952 0
M  V30 9511 H 909.193 3.0531 2.26914 0
M  V30 9512 H 910.505 3.86863 3.14863 0
M  V30 9513 H 909.659 2.93337 5.31073 0
M  V30 9514 H 908.398 2.01375 4.44184 0
M  V30 9515 H 907.403 4.15816 3.59691 0
M  V30 9516 H 908.628 5.08687 4.49904 0
M  V30 9517 H 906.574 3.20613 5.72314 0
M  V30 9518 H 906.491 4.93728 5.72511 0
M  V30 9519 H 907.759 4.13824 6.60583 0
M  V30 9520 N 911.988 -0.768124 1.37614 0
M  V30 9521 C 913.218 -1.555 1.36027 0
M  V30 9522 C 913.626 -1.89119 -0.0554273 0
M  V30 9523 O 912.969 -1.52203 -1.02859 0
M  V30 9524 C 913.031 -2.8906 2.13739 0
M  V30 9525 C 912.695 -2.78058 3.62674 0
M  V30 9526 C 913.692 -2.48841 4.5648 0
M  V30 9527 C 911.377 -2.95966 4.05844 0
M  V30 9528 C 913.371 -2.37665 5.91434 0
M  V30 9529 C 911.058 -2.84411 5.40882 0
M  V30 9530 C 912.056 -2.55301 6.33491 0
M  V30 9531 O 911.744 -2.43779 7.66046 0
M  V30 9532 H 911.476 -0.488263 0.467521 0
M  V30 9533 H 914.03 -0.959583 1.81607 0
M  V30 9534 H 912.26 -3.50735 1.62854 0
M  V30 9535 H 913.949 -3.5048 2.04741 0
M  V30 9536 H 914.715 -2.34687 4.24437 0
M  V30 9537 H 910.594 -3.17625 3.34119 0
M  V30 9538 H 914.138 -2.14865 6.63686 0
M  V30 9539 H 910.035 -2.98134 5.72527 0
M  V30 9540 H 910.803 -2.59101 7.76408 0
M  V30 9541 N 913.466 -1.22244 -0.994698 0
M  V30 9542 C 914.882 -0.982006 -1.25813 0
M  V30 9543 C 915.082 0.325488 -1.98854 0
M  V30 9544 O 914.138 1.04857 -2.29698 0
M  V30 9545 C 915.451 -2.1795 -2.07167 0
M  V30 9546 C 916.999 -2.22287 -2.20358 0
M  V30 9547 C 917.474 -3.41583 -3.05098 0
M  V30 9548 N 918.965 -3.41734 -3.12686 0
M  V30 9549 C 919.7 -4.30692 -3.78539 0
M  V30 9550 N 919.196 -5.29865 -4.46335 0
M  V30 9551 N 920.989 -4.18473 -3.75283 0
M  V30 9552 H 913.14 -2.0631 -0.504963 0
M  V30 9553 H 915.403 -0.90395 -0.285618 0
M  V30 9554 H 915.109 -3.12758 -1.60858 0
M  V30 9555 H 914.983 -2.17862 -3.07922 0
M  V30 9556 H 917.37 -1.28028 -2.65881 0
M  V30 9557 H 917.451 -2.26414 -1.19039 0
M  V30 9558 H 917.095 -4.36141 -2.60275 0
M  V30 9559 H 917.025 -3.34695 -4.06555 0
M  V30 9560 H 919.516 -2.69969 -2.64433 0
M  V30 9561 H 919.829 -5.94027 -4.9432 0
M  V30 9562 H 918.174 -5.3378 -4.45089 0
M  V30 9563 H 921.365 -3.40249 -3.21478 0
M  V30 9564 H 921.538 -4.88007 -4.26326 0
M  V30 9565 N 914.944 1.19125 -1.03184 0
M  V30 9566 C 915.876 2.21914 -0.573294 0
M  V30 9567 C 916.889 1.5894 0.352397 0
M  V30 9568 O 918.078 1.77883 0.148318 0
M  V30 9569 C 915.178 3.38403 0.18355 0
M  V30 9570 C 914.351 4.3096 -0.747817 0
M  V30 9571 C 913.41 5.26188 -0.0358489 0
M  V30 9572 O 912.436 5.65321 -0.663388 0
M  V30 9573 N 913.638 5.67235 1.23387 0
M  V30 9574 H 916.403 2.61881 -1.45734 0
M  V30 9575 H 913.964 1.33821 -0.911231 0
M  V30 9576 H 915.956 3.99124 0.669468 0
M  V30 9577 H 914.526 2.97201 0.969043 0
M  V30 9578 H 913.746 3.67976 -1.41377 0
M  V30 9579 H 915.034 4.89708 -1.38071 0
M  V30 9580 H 914.432 5.37481 1.76439 0
M  V30 9581 H 912.989 6.30196 1.66423 0
M  V30 9582 N 916.422 0.810101 1.35185 0
M  V30 9583 C 917.699 0.315235 1.93043 0
M  V30 9584 C 918.079 -1.19567 1.73974 0
M  V30 9585 O 917.427 -1.99682 1.11083 0
M  V30 9586 C 917.637 0.730492 3.41269 0
M  V30 9587 C 918.985 0.721985 4.18417 0
M  V30 9588 O 920.009 0.672258 3.49799 0
M  V30 9589 O 918.868 0.783535 5.40854 0
M  V30 9590 H 915.962 0.0832774 0.822796 0
M  V30 9591 H 918.508 0.894034 1.4424 0
M  V30 9592 H 917.28 1.77169 3.48894 0
M  V30 9593 H 916.903 0.12669 3.97398 0
M  V30 9594 N 917.9 -1.47166 0.563914 0
M  V30 9595 C 919.311 -1.86231 0.132307 0
M  V30 9596 C 919.662 -1.46976 -1.29971 0
M  V30 9597 O 918.787 -0.875911 -1.97881 0
M  V30 9598 C 919.382 -3.37996 0.233335 0
M  V30 9599 C 917.941 -3.76127 -0.143278 0
M  V30 9600 C 917.088 -2.71212 0.577857 0
M  V30 9601 H 920.039 -1.38588 0.773249 0
M  V30 9602 H 920.06 -3.76558 -0.546309 0
M  V30 9603 H 919.572 -3.66535 1.27568 0
M  V30 9604 H 917.673 -3.53205 -1.18648 0
M  V30 9605 H 917.786 -4.78595 0.219952 0
M  V30 9606 H 916.15 -2.54692 0.020186 0
M  V30 9607 H 916.933 -3.02593 1.62149 0
M  V30 9608 N 919.378 -0.300708 -1.54705 0
M  V30 9609 C 920.608 0.310819 -2.04249 0
M  V30 9610 C 921.016 1.4809 -1.17754 0
M  V30 9611 O 920.359 1.82654 -0.195779 0
M  V30 9612 C 920.421 0.83014 -3.49784 0
M  V30 9613 C 920.085 -0.214628 -4.56496 0
M  V30 9614 C 921.082 -1.04298 -5.09331 0
M  V30 9615 C 918.767 -0.356242 -5.01035 0
M  V30 9616 C 920.761 -1.99889 -6.05246 0
M  V30 9617 C 918.448 -1.3156 -5.96771 0
M  V30 9618 C 919.446 -2.1354 -6.4876 0
M  V30 9619 O 919.134 -3.07849 -7.4262 0
M  V30 9620 H 918.866 0.0715341 -0.672204 0
M  V30 9621 H 921.42 -0.438179 -2.00672 0
M  V30 9622 H 919.65 1.62966 -3.50684 0
M  V30 9623 H 921.339 1.35752 -3.82526 0
M  V30 9624 H 922.105 -0.944439 -4.75716 0
M  V30 9625 H 917.984 0.271916 -4.60197 0
M  V30 9626 H 921.528 -2.63917 -6.45751 0
M  V30 9627 H 917.425 -1.41486 -6.29803 0
M  V30 9628 H 918.193 -3.02824 -7.60421 0
M  V30 9629 N 920.856 1.57574 -0.0284266 0
M  V30 9630 C 922.086 1.95787 0.659617 0
M  V30 9631 C 922.494 0.903475 1.66235 0
M  V30 9632 O 921.837 -0.12329 1.83286 0
M  V30 9633 C 921.899 3.30139 1.42298 0
M  V30 9634 C 921.563 4.53322 0.578658 0
M  V30 9635 C 922.56 5.19696 -0.145751 0
M  V30 9636 C 920.245 4.9964 0.516264 0
M  V30 9637 C 922.239 6.30708 -0.921235 0
M  V30 9638 C 919.926 6.10534 -0.262925 0
M  V30 9639 C 920.924 6.75927 -0.980382 0
M  V30 9640 O 920.612 7.84692 -1.7468 0
M  V30 9641 H 920.344 0.649681 0.186792 0
M  V30 9642 H 922.898 2.05227 -0.0842687 0
M  V30 9643 H 921.128 3.17188 2.21199 0
M  V30 9644 H 922.817 3.53259 1.99906 0
M  V30 9645 H 923.583 4.84882 -0.106876 0
M  V30 9646 H 919.462 4.48547 1.06427 0
M  V30 9647 H 923.006 6.81682 -1.48176 0
M  V30 9648 H 918.903 6.44786 -0.303519 0
M  V30 9649 H 919.671 8.01355 -1.6665 0
M  V30 9650 N 922.334 -0.244713 1.55689 0
M  V30 9651 C 923.611 -0.995407 1.68378 0
M  V30 9652 C 923.991 -2.03288 0.568949 0
M  V30 9653 O 923.339 -2.24469 -0.427299 0
M  V30 9654 C 923.549 -1.62678 3.08767 0
M  V30 9655 C 924.897 -2.1278 3.67437 0
M  V30 9656 O 925.921 -1.72614 3.11581 0
M  V30 9657 O 924.78 -2.86536 4.65359 0
M  V30 9658 H 921.874 -0.463476 0.684923 0
M  V30 9659 H 924.42 -0.238326 1.68018 0
M  V30 9660 H 923.192 -0.876469 3.81358 0
M  V30 9661 H 922.815 -2.45 3.13146 0
M  V30 9662 N 923.813 -1.49104 -0.510467 0
M  V30 9663 C 925.062 -1.57362 -1.26175 0
M  V30 9664 C 925.375 -0.261218 -1.93848 0
M  V30 9665 O 926.581 -0.222238 -2.70589 0
M  V30 9666 C 925.037 -2.77606 -2.29048 0
M  V30 9667 C 924.645 -4.15567 -1.67357 0
M  V30 9668 C 926.389 -2.95188 -3.05064 0
M  V30 9669 C 924.296 -5.27046 -2.68285 0
M  V30 9670 H 923.226 -0.585887 -0.474608 0
M  V30 9671 H 925.877 -1.75474 -0.536753 0
M  V30 9672 H 924.259 -2.52968 -3.04669 0
M  V30 9673 H 925.433 -4.50304 -0.977924 0
M  V30 9674 H 923.748 -4.03264 -1.03765 0
M  V30 9675 H 926.345 -3.75643 -3.80521 0
M  V30 9676 H 926.688 -2.05385 -3.62108 0
M  V30 9677 H 927.221 -3.19821 -2.36558 0
M  V30 9678 H 923.96 -6.18878 -2.16034 0
M  V30 9679 H 923.48 -4.96774 -3.36118 0
M  V30 9680 H 925.159 -5.55983 -3.30896 0
M  V30 9681 N 925.291 0.760815 -1.38019 0
M  V30 9682 C 926.537 1.52198 -1.34028 0
M  V30 9683 C 926.87 1.94067 0.0718309 0
M  V30 9684 O 926.145 1.64895 1.0315 0
M  V30 9685 C 926.428 2.77954 -2.2894 0
M  V30 9686 C 926.281 2.42269 -3.7898 0
M  V30 9687 C 927.6 3.79943 -2.22107 0
M  V30 9688 H 924.719 0.552131 -0.488181 0
M  V30 9689 H 927.361 0.871971 -1.6881 0
M  V30 9690 H 925.511 3.33419 -1.9941 0
M  V30 9691 H 927.183 1.92635 -4.19153 0
M  V30 9692 H 925.426 1.74822 -3.97014 0
M  V30 9693 H 926.097 3.32211 -4.4084 0
M  V30 9694 H 928.573 3.34 -2.4816 0
M  V30 9695 H 927.449 4.6564 -2.90639 0
M  V30 9696 H 927.71 4.25004 -1.21753 0
M  V30 9697 N 926.769 1.22769 0.988202 0
M  V30 9698 C 927.999 1.07998 1.76125 0
M  V30 9699 C 928.407 -0.372062 1.85506 0
M  V30 9700 O 927.75 -1.26946 1.3278 0
M  V30 9701 C 927.812 1.6219 3.20834 0
M  V30 9702 C 927.476 3.1086 3.34986 0
M  V30 9703 C 928.473 4.08239 3.21927 0
M  V30 9704 C 926.158 3.50411 3.59886 0
M  V30 9705 C 928.152 5.43154 3.33561 0
M  V30 9706 C 925.839 4.85473 3.71159 0
M  V30 9707 C 926.837 5.81653 3.58006 0
M  V30 9708 O 926.525 7.14263 3.68895 0
M  V30 9709 H 926.257 0.378937 0.559806 0
M  V30 9710 H 928.811 1.62925 1.25078 0
M  V30 9711 H 927.041 1.01676 3.73094 0
M  V30 9712 H 928.73 1.43011 3.79872 0
M  V30 9713 H 929.496 3.79025 3.02597 0
M  V30 9714 H 925.375 2.76068 3.69198 0
M  V30 9715 H 928.919 6.18207 3.23211 0
M  V30 9716 H 924.816 5.14365 3.89998 0
M  V30 9717 H 925.584 7.21906 3.85739 0
M  V30 9718 N 928.247 -1.18576 1.03814 0
M  V30 9719 C 929.179 -2.21607 0.585055 0
M  V30 9720 C 930.192 -1.59125 -0.343963 0
M  V30 9721 O 931.381 -1.77959 -0.138882 0
M  V30 9722 C 928.481 -3.38495 -0.165602 0
M  V30 9723 C 927.654 -4.30557 0.770662 0
M  V30 9724 C 926.713 -5.26161 0.0637534 0
M  V30 9725 O 925.739 -5.64961 0.693359 0
M  V30 9726 N 926.941 -5.67882 -1.20377 0
M  V30 9727 H 929.706 -2.61104 1.47121 0
M  V30 9728 H 927.267 -1.33336 0.918316 0
M  V30 9729 H 929.259 -3.99474 -0.648292 0
M  V30 9730 H 927.829 -2.97711 -0.953268 0
M  V30 9731 H 927.049 -3.67221 1.43326 0
M  V30 9732 H 928.337 -4.88969 1.40667 0
M  V30 9733 H 927.735 -5.38409 -1.73586 0
M  V30 9734 H 926.292 -6.31069 -1.63079 0
M  V30 9735 N 929.725 -0.817259 -1.34754 0
M  V30 9736 C 930.688 -0.240611 -2.27934 0
M  V30 9737 C 931.688 0.578219 -1.50044 0
M  V30 9738 O 932.878 0.395148 -1.69659 0
M  V30 9739 C 930.01 0.663318 -3.34384 0
M  V30 9740 H 931.203 -1.06257 -2.80445 0
M  V30 9741 H 928.756 -0.588697 -1.4479 0
M  V30 9742 H 929.491 1.50855 -2.87077 0
M  V30 9743 H 929.276 0.0777388 -3.92023 0
M  V30 9744 H 930.766 1.06076 -4.03903 0
M  V30 9745 N 931.203 1.46865 -0.571711 0
M  V30 9746 C 932.433 2.06518 -0.0583129 0
M  V30 9747 C 932.841 1.4227 1.24723 0
M  V30 9748 O 932.184 0.518293 1.76237 0
M  V30 9749 C 932.246 3.5898 0.193214 0
M  V30 9750 C 931.91 4.45355 -1.02507 0
M  V30 9751 C 932.907 4.82575 -1.93435 0
M  V30 9752 C 930.592 4.86656 -1.24382 0
M  V30 9753 C 932.586 5.59912 -3.04595 0
M  V30 9754 C 930.273 5.63754 -2.35849 0
M  V30 9755 C 931.271 6.00294 -3.25785 0
M  V30 9756 O 930.959 6.75836 -4.35318 0
M  V30 9757 H 930.691 0.674188 -0.0494584 0
M  V30 9758 H 933.245 1.89644 -0.788934 0
M  V30 9759 H 931.475 3.7412 0.978319 0
M  V30 9760 H 933.164 4.006 0.653769 0
M  V30 9761 H 933.93 4.51256 -1.77745 0
M  V30 9762 H 929.809 4.57672 -0.55292 0
M  V30 9763 H 933.353 5.88351 -3.74818 0
M  V30 9764 H 929.25 5.94487 -2.51506 0
M  V30 9765 H 930.018 6.94247 -4.33547 0
M  V30 9766 N 932.681 0.308908 1.54543 0
M  V30 9767 C 933.611 -0.556657 2.26768 0
M  V30 9768 C 934.592 -1.13145 1.27013 0
M  V30 9769 O 935.777 -1.15931 1.558 0
M  V30 9770 C 932.907 -1.72481 3.01443 0
M  V30 9771 C 931.861 -1.28001 4.08411 0
M  V30 9772 C 931.187 -2.53395 4.70845 0
M  V30 9773 C 932.487 -0.405497 5.20724 0
M  V30 9774 H 934.181 0.0457618 2.99365 0
M  V30 9775 H 931.727 0.0234495 1.43981 0
M  V30 9776 H 933.68 -2.3365 3.50693 0
M  V30 9777 H 932.404 -2.35359 2.26437 0
M  V30 9778 H 931.063 -0.69133 3.60022 0
M  V30 9779 H 930.711 -3.14604 3.92471 0
M  V30 9780 H 930.411 -2.2433 5.43093 0
M  V30 9781 H 931.935 -3.15352 5.22863 0
M  V30 9782 H 933.349 -0.923076 5.6582 0
M  V30 9783 H 931.746 -0.208282 5.99738 0
M  V30 9784 H 932.816 0.567412 4.81569 0
M  V30 9785 N 934.159 -1.57557 0.0367827 0
M  V30 9786 C 935.575 -1.56366 -0.31967 0
M  V30 9787 C 935.775 -1.04313 -1.72398 0
M  V30 9788 O 934.831 -0.693278 -2.42796 0
M  V30 9789 C 936.144 -3.00267 -0.161274 0
M  V30 9790 C 937.692 -3.12128 -0.233464 0
M  V30 9791 C 938.167 -4.57882 -0.103767 0
M  V30 9792 N 939.658 -4.62922 -0.160506 0
M  V30 9793 C 940.393 -5.73338 -0.0840493 0
M  V30 9794 N 939.889 -6.92786 0.043933 0
M  V30 9795 N 941.682 -5.61929 -0.138592 0
M  V30 9796 H 933.833 -1.8972 0.954996 0
M  V30 9797 H 936.096 -0.87304 0.369467 0
M  V30 9798 H 935.802 -3.42331 0.80639 0
M  V30 9799 H 935.676 -3.65599 -0.928304 0
M  V30 9800 H 938.063 -2.69972 -1.19159 0
M  V30 9801 H 938.144 -2.49503 0.564075 0
M  V30 9802 H 937.788 -5.0072 0.850973 0
M  V30 9803 H 937.718 -5.18496 -0.920268 0
M  V30 9804 H 940.209 -3.7701 -0.259257 0
M  V30 9805 H 940.522 -7.72741 0.095372 0
M  V30 9806 H 938.867 -6.94955 0.0788211 0
M  V30 9807 H 942.058 -4.67499 -0.237031 0
M  V30 9808 H 942.231 -6.47956 -0.075546 0
M  V30 9809 N 935.637 0.236453 -1.55816 0
M  V30 9810 C 936.885 0.96111 -1.77784 0
M  V30 9811 C 937.206 1.85454 -0.602648 0
M  V30 9812 O 936.476 1.92157 0.381137 0
M  V30 9813 H 935.056 0.35787 -0.655697 0
M  V30 9814 H 937.718 0.251888 -1.93265 0
M  V30 9815 H 936.814 1.5767 -2.69345 0
M  V30 9816 N 937.115 1.49373 0.502552 0
M  V30 9817 C 938.025 1.68659 1.63068 0
M  V30 9818 C 939.041 0.569182 1.64427 0
M  V30 9819 O 940.217 0.843695 1.82876 0
M  V30 9820 C 937.282 1.74745 2.99441 0
M  V30 9821 C 936.343 2.98311 3.08721 0
M  V30 9822 C 935.576 3.04097 4.38589 0
M  V30 9823 O 935.799 2.17519 5.27297 0
M  V30 9824 O 934.733 3.96544 4.52809 0
M  V30 9825 H 938.559 2.64226 1.49727 0
M  V30 9826 H 936.144 1.33096 0.67867 0
M  V30 9827 H 938.026 1.8111 3.80496 0
M  V30 9828 H 936.701 0.823565 3.13048 0
M  V30 9829 H 935.608 2.97465 2.2686 0
M  V30 9830 H 936.941 3.90174 3.00041 0
M  V30 9831 N 938.594 -0.753485 1.38421 0
M  V30 9832 C 939.557 -1.84888 1.35459 0
M  V30 9833 C 940.557 -1.58764 0.255083 0
M  V30 9834 O 941.747 -1.66507 0.511978 0
M  V30 9835 C 938.879 -3.22361 1.10888 0
M  V30 9836 H 940.072 -1.88922 2.32913 0
M  V30 9837 H 937.625 -0.955199 1.23716 0
M  V30 9838 H 938.36 -3.23996 0.1404 0
M  V30 9839 H 938.145 -3.42717 1.90492 0
M  V30 9840 H 939.635 -4.02437 1.1151 0
M  V30 9841 N 940.072 -1.23292 -0.981677 0
M  V30 9842 C 941.483 -1.05936 -1.53735 0
M  V30 9843 C 941.834 0.373695 -1.92608 0
M  V30 9844 O 940.959 1.26024 -1.75917 0
M  V30 9845 C 941.554 -1.91682 -2.79363 0
M  V30 9846 C 940.113 -1.78591 -3.31334 0
M  V30 9847 C 939.26 -1.87463 -2.04335 0
M  V30 9848 H 942.211 -1.36973 -0.801505 0
M  V30 9849 H 942.232 -1.44085 -3.52164 0
M  V30 9850 H 941.744 -2.95975 -2.51039 0
M  V30 9851 H 939.845 -0.770755 -3.64541 0
M  V30 9852 H 939.958 -2.61902 -4.01179 0
M  V30 9853 H 938.322 -1.3103 -2.18411 0
M  V30 9854 H 939.105 -2.9331 -1.78394 0
M  V30 9855 N 941.55 1.18024 -1.04442 0
M  V30 9856 C 942.796 1.88377 -0.751133 0
M  V30 9857 C 943.129 1.80377 0.719571 0
M  V30 9858 O 942.404 1.20662 1.52548 0
M  V30 9859 C 942.687 3.38708 -1.22265 0
M  V30 9860 C 942.54 3.55499 -2.75574 0
M  V30 9861 C 943.859 4.32475 -0.815688 0
M  V30 9862 H 940.978 0.684037 -0.27434 0
M  V30 9863 H 943.62 1.38837 -1.29709 0
M  V30 9864 H 941.77 3.8103 -0.758192 0
M  V30 9865 H 943.442 3.22244 -3.30086 0
M  V30 9866 H 941.685 2.98028 -3.15217 0
M  V30 9867 H 942.356 4.60994 -3.03625 0
M  V30 9868 H 944.832 3.97953 -1.21542 0
M  V30 9869 H 943.708 5.36213 -1.17331 0
M  V30 9870 H 943.969 4.41207 0.280901 0
M  V30 9871 N 943.028 0.824394 1.34319 0
M  V30 9872 C 943.958 0.262077 2.32025 0
M  V30 9873 C 944.939 -0.622277 1.58309 0
M  V30 9874 O 946.124 -0.548848 1.86283 0
M  V30 9875 C 943.254 -0.57567 3.42496 0
M  V30 9876 C 942.208 0.21167 4.27476 0
M  V30 9877 C 941.534 -0.748913 5.29429 0
M  V30 9878 C 942.834 1.42068 5.02607 0
M  V30 9879 H 944.528 1.07842 2.79304 0
M  V30 9880 H 942.074 0.520022 1.34282 0
M  V30 9881 H 944.027 -0.979251 4.09864 0
M  V30 9882 H 942.751 -1.42508 2.93869 0
M  V30 9883 H 941.41 0.596636 3.61712 0
M  V30 9884 H 941.058 -1.59432 4.77064 0
M  V30 9885 H 940.758 -0.226313 5.87164 0
M  V30 9886 H 942.282 -1.15032 5.99667 0
M  V30 9887 H 943.696 1.09103 5.62823 0
M  V30 9888 H 942.093 1.87903 5.69923 0
M  V30 9889 H 943.163 2.1981 4.32217 0
M  V30 9890 N 944.506 -1.46559 0.579492 0
M  V30 9891 C 945.454 -2.3199 -0.168413 0
M  V30 9892 C 946.448 -1.44288 -0.887551 0
M  V30 9893 O 947.654 -1.60931 -0.806305 0
M  V30 9894 H 944.029 -0.748431 -0.0731799 0
M  V30 9895 H 946 -2.92886 0.570973 0
M  V30 9896 C 944.749 -3.27392 -1.1709 0
M  V30 9897 H 944.072 -3.94853 -0.626958 0
M  V30 9898 H 945.512 -3.89955 -1.66467 0
M  V30 9899 C 943.971 -2.52511 -2.23024 0
M  V30 9900 O 944.501 -2.2858 -3.30324 0
M  V30 9901 N 942.707 -2.1313 -1.97545 0
M  V30 9902 H 942.254 -2.32793 -1.10297 0
M  V30 9903 H 942.212 -1.63348 -2.68635 0
M  V30 9904 N 945.984 -0.3171 -1.54377 0
M  V30 9905 C 947.214 0.289138 -2.04567 0
M  V30 9906 C 947.622 1.46833 -1.19318 0
M  V30 9907 O 946.965 1.82436 -0.215141 0
M  V30 9908 C 947.027 0.792994 -3.50645 0
M  V30 9909 C 946.691 -0.263033 -4.56242 0
M  V30 9910 C 947.688 -1.09694 -5.08196 0
M  V30 9911 C 945.373 -0.409364 -5.00629 0
M  V30 9912 C 947.367 -2.06297 -6.03092 0
M  V30 9913 C 945.054 -1.37882 -5.95342 0
M  V30 9914 C 946.052 -2.20409 -6.46459 0
M  V30 9915 O 945.74 -3.15708 -7.39313 0
M  V30 9916 H 945.472 0.0644005 -0.672925 0
M  V30 9917 H 948.026 -0.459438 -2.00196 0
M  V30 9918 H 946.256 1.59237 -3.52392 0
M  V30 9919 H 947.945 1.31687 -3.83944 0
M  V30 9920 H 948.711 -0.994842 -4.74687 0
M  V30 9921 H 944.59 0.223091 -4.6046 0
M  V30 9922 H 948.134 -2.70751 -6.42915 0
M  V30 9923 H 944.031 -1.48158 -6.28267 0
M  V30 9924 H 944.799 -3.10873 -7.57166 0
M  V30 9925 N 947.462 1.57535 -0.0451378 0
M  V30 9926 C 948.412 2.07683 0.940829 0
M  V30 9927 C 949.396 0.9807 1.27558 0
M  V30 9928 O 950.588 1.2441 1.25901 0
M  V30 9929 C 947.717 2.62049 2.21778 0
M  V30 9930 C 946.803 3.78621 1.91068 0
M  V30 9931 N 947.194 4.88623 1.30694 0
M  V30 9932 C 945.492 3.87411 2.20972 0
M  V30 9933 C 946.193 5.69714 1.17478 0
M  V30 9934 N 945.169 5.17129 1.67566 0
M  V30 9935 H 948.971 2.90129 0.469267 0
M  V30 9936 H 946.485 1.61615 0.159472 0
M  V30 9937 H 948.482 2.96276 2.93302 0
M  V30 9938 H 947.142 1.81039 2.69546 0
M  V30 9939 H 948.153 5.08545 0.979907 0
M  V30 9940 H 944.83 3.17335 2.71302 0
M  V30 9941 H 946.22 6.68174 0.706574 0
M  V30 9942 N 948.94 -0.228186 1.55939 0
M  V30 9943 C 950.356 -0.577583 1.48782 0
M  V30 9944 C 950.556 -1.87461 0.738972 0
M  V30 9945 O 949.612 -2.50988 0.275929 0
M  V30 9946 C 950.925 -0.662961 2.93301 0
M  V30 9947 C 952.473 -0.754035 3.03782 0
M  V30 9948 C 952.948 -0.870815 4.49645 0
M  V30 9949 N 954.439 -0.935208 4.53661 0
M  V30 9950 C 955.174 -1.04516 5.63794 0
M  V30 9951 N 954.67 -1.11948 6.83696 0
M  V30 9952 N 956.463 -1.07978 5.51631 0
M  V30 9953 H 948.614 0.623018 2.03057 0
M  V30 9954 H 950.877 0.217692 0.922667 0
M  V30 9955 H 950.583 0.220375 3.51009 0
M  V30 9956 H 950.457 -1.52876 3.44831 0
M  V30 9957 H 952.844 -1.62782 2.46143 0
M  V30 9958 H 952.925 0.137301 2.55431 0
M  V30 9959 H 952.569 -0.0015186 5.079 0
M  V30 9960 H 952.499 -1.77747 4.95695 0
M  V30 9961 H 954.99 -0.88836 3.6731 0
M  V30 9962 H 955.303 -1.20297 7.6338 0
M  V30 9963 H 953.648 -1.08873 6.8642 0
M  V30 9964 H 956.839 -1.01833 4.56889 0
M  V30 9965 H 957.012 -1.16202 6.37496 0
M  V30 9966 N 950.418 -1.49637 -0.494624 0
M  V30 9967 C 951.665 -1.59445 -1.24834 0
M  V30 9968 C 951.993 -0.284028 -1.92415 0
M  V30 9969 O 951.248 0.728519 -1.81634 0
M  V30 9970 C 951.547 -2.70749 -2.33302 0
M  V30 9971 C 951.213 -4.12034 -1.83135 0
M  V30 9972 C 949.875 -4.50482 -1.69173 0
M  V30 9973 C 952.227 -5.00432 -1.4566 0
M  V30 9974 C 949.555 -5.75093 -1.16124 0
M  V30 9975 C 951.907 -6.25568 -0.940608 0
M  V30 9976 C 950.571 -6.62839 -0.787432 0
M  V30 9977 H 949.841 -0.583451 -0.456799 0
M  V30 9978 H 952.488 -1.8349 -0.548044 0
M  V30 9979 H 950.793 -2.407 -3.09145 0
M  V30 9980 H 952.49 -2.75546 -2.91334 0
M  V30 9981 H 949.08 -3.8169 -1.94964 0
M  V30 9982 H 953.264 -4.71379 -1.55291 0
M  V30 9983 H 948.52 -6.02665 -1.02982 0
M  V30 9984 H 952.694 -6.93439 -0.641467 0
M  V30 9985 H 950.321 -7.59279 -0.374191 0
M  V30 9986 N 951.896 0.746133 -1.38819 0
M  V30 9987 C 953.142 1.50669 -1.3664 0
M  V30 9988 C 953.497 1.92356 0.0411513 0
M  V30 9989 O 952.79 1.63104 1.00537 0
M  V30 9990 C 952.984 2.76639 -2.26286 0
M  V30 9991 C 952.813 2.47268 -3.75618 0
M  V30 9992 C 951.583 2.40116 -4.44603 0
M  V30 9993 C 953.781 2.13548 -4.67869 0
M  V30 9994 N 951.763 2.03098 -5.79331 0
M  V30 9995 C 953.134 1.86883 -5.91164 0
M  V30 9996 C 955.189 1.99922 -4.56 0
M  V30 9997 C 953.892 1.47965 -7.03917 0
M  V30 9998 C 955.918 1.62406 -5.68664 0
M  V30 9999 C 955.28 1.36618 -6.91025 0
M  V30 10000 H 951.379 0.550624 -0.555282 0
M  V30 10001 H 953.963 0.868179 -1.74272 0
M  V30 10002 H 952.134 3.38287 -1.9083 0
M  V30 10003 H 953.866 3.42753 -2.1518 0
M  V30 10004 H 950.621 2.56839 -3.97908 0
M  V30 10005 H 951.045 1.87214 -6.506 0
M  V30 10006 H 955.687 2.18531 -3.61945 0
M  V30 10007 H 953.405 1.28096 -7.97883 0
M  V30 10008 H 956.991 1.52483 -5.61462 0
M  V30 10009 H 955.871 1.08021 -7.76725 0
M  V30 10010 N 953.375 1.23811 0.975125 0
M  V30 10011 C 954.325 0.991036 2.05335 0
M  V30 10012 C 955.309 -0.0648793 1.60769 0
M  V30 10013 O 956.501 0.147917 1.76381 0
M  V30 10014 C 953.63 0.589822 3.38195 0
M  V30 10015 C 952.716 1.68142 3.89344 0
M  V30 10016 N 953.107 2.91274 4.13513 0
M  V30 10017 C 951.405 1.55722 4.17931 0
M  V30 10018 C 952.106 3.61987 4.55347 0
M  V30 10019 N 951.082 2.8952 4.60086 0
M  V30 10020 H 954.884 1.92612 2.21986 0
M  V30 10021 H 952.398 1.13827 1.15832 0
M  V30 10022 H 954.395 0.394075 4.15033 0
M  V30 10023 H 953.055 -0.338157 3.22934 0
M  V30 10024 H 954.066 3.27528 4.01181 0
M  V30 10025 H 950.743 0.696732 4.11645 0
M  V30 10026 H 952.133 4.67572 4.8252 0
M  V30 10027 N 954.853 -1.17469 1.05066 0
M  V30 10028 C 955.763 -2.25089 0.661222 0
M  V30 10029 C 956.779 -1.71086 -0.31712 0
M  V30 10030 O 957.955 -2.00685 -0.169534 0
M  V30 10031 C 955.02 -3.46676 0.0406415 0
M  V30 10032 C 954.081 -4.15771 1.06927 0
M  V30 10033 C 953.314 -5.31553 0.478208 0
M  V30 10034 O 953.537 -5.6593 -0.712714 0
M  V30 10035 O 952.471 -5.89574 1.21185 0
M  V30 10036 H 956.297 -2.60685 1.5581 0
M  V30 10037 H 953.882 -1.24744 0.822147 0
M  V30 10038 H 955.764 -4.203 -0.304312 0
M  V30 10039 H 954.439 -3.1288 -0.829909 0
M  V30 10040 H 953.346 -3.44171 1.46619 0
M  V30 10041 H 954.679 -4.53591 1.91092 0
M  V30 10042 N 956.331 -0.831506 -1.3388 0
M  V30 10043 C 957.577 -0.424302 -1.98312 0
M  V30 10044 C 957.91 1.01211 -1.65741 0
M  V30 10045 O 957.185 1.70636 -0.933464 0
M  V30 10046 C 957.468 -0.636815 -3.54424 0
M  V30 10047 C 957.321 -2.11997 -3.96708 0
M  V30 10048 C 958.64 -0.0782411 -4.4003 0
M  V30 10049 H 955.759 -0.155637 -0.720379 0
M  V30 10050 H 958.401 -1.04566 -1.58638 0
M  V30 10051 H 956.551 -0.107907 -3.8835 0
M  V30 10052 H 958.223 -2.71317 -3.73075 0
M  V30 10053 H 956.466 -2.60723 -3.46707 0
M  V30 10054 H 957.137 -2.21944 -5.05416 0
M  V30 10055 H 959.613 -0.530243 -4.12708 0
M  V30 10056 H 958.489 -0.256676 -5.483 0
M  V30 10057 H 958.75 1.01745 -4.30233 0
M  V30 10058 N 957.809 1.4625 -0.587256 0
M  V30 10059 C 959.086 1.95599 -0.00750181 0
M  V30 10060 C 959.466 1.52989 1.45457 0
M  V30 10061 O 958.814 0.782731 2.14676 0
M  V30 10062 C 959.024 3.48513 -0.184309 0
M  V30 10063 C 960.372 4.24565 -0.0544972 0
M  V30 10064 O 961.396 3.5602 -0.113378 0
M  V30 10065 O 960.255 5.46445 0.0774075 0
M  V30 10066 H 957.349 0.825649 0.0472495 0
M  V30 10067 H 959.895 1.56512 -0.655893 0
M  V30 10068 H 958.667 3.72428 -1.20053 0
M  V30 10069 H 958.29 3.9444 0.500301 0
M  V30 10070 N 959.287 0.325282 1.54207 0
M  V30 10071 C 960.217 -0.532574 2.27345 0
M  V30 10072 C 961.198 -1.11791 1.28206 0
M  V30 10073 O 962.383 -1.14272 1.57021 0
M  V30 10074 C 959.513 -1.69274 3.03255 0
M  V30 10075 C 958.467 -1.23662 4.09746 0
M  V30 10076 C 957.793 -2.48386 4.73506 0
M  V30 10077 C 959.093 -0.350244 5.21124 0
M  V30 10078 H 960.787 0.0775108 2.993 0
M  V30 10079 H 958.333 0.0387193 1.43948 0
M  V30 10080 H 960.286 -2.29917 3.53152 0
M  V30 10081 H 959.01 -2.32944 2.28921 0
M  V30 10082 H 957.669 -0.653106 3.60735 0
M  V30 10083 H 957.317 -3.10424 3.95786 0
M  V30 10084 H 957.017 -2.18558 5.45441 0
M  V30 10085 H 958.541 -3.09789 5.26178 0
M  V30 10086 H 959.955 -0.863011 5.66767 0
M  V30 10087 H 958.352 -0.14466 5.99926 0
M  V30 10088 H 959.422 0.618457 4.8094 0
M  V30 10089 N 960.765 -1.57509 0.0534917 0
M  V30 10090 C 961.728 -2.10563 -0.905307 0
M  V30 10091 C 962.728 -1.02571 -1.23838 0
M  V30 10092 O 963.918 -1.28635 -1.17468 0
M  V30 10093 C 961.05 -2.5918 -2.21447 0
M  V30 10094 H 962.243 -2.96575 -0.445354 0
M  V30 10095 H 959.796 -1.55079 -0.194947 0
M  V30 10096 H 960.531 -1.76568 -2.72019 0
M  V30 10097 H 960.316 -3.38098 -1.98575 0
M  V30 10098 H 961.806 -3.00365 -2.90122 0
M  V30 10099 N 962.243 0.219913 -1.56058 0
M  V30 10100 C 963.489 0.945463 -1.79412 0
M  V30 10101 C 963.822 1.83922 -0.62341 0
M  V30 10102 O 963.097 1.90806 0.377256 0
M  V30 10103 C 963.38 1.783 -3.1286 0
M  V30 10104 C 963.233 0.915626 -4.40382 0
M  V30 10105 C 964.552 2.76045 -3.42764 0
M  V30 10106 H 961.671 0.342288 -0.652693 0
M  V30 10107 H 964.313 0.214235 -1.88788 0
M  V30 10108 H 962.463 2.40642 -3.04998 0
M  V30 10109 H 964.135 0.30882 -4.60265 0
M  V30 10110 H 962.378 0.221124 -4.33236 0
M  V30 10111 H 963.049 1.53607 -5.30197 0
M  V30 10112 H 965.525 2.23838 -3.50764 0
M  V30 10113 H 964.401 3.31748 -4.37304 0
M  V30 10114 H 964.662 3.53866 -2.65012 0
M  V30 10115 N 963.721 1.49897 0.486681 0
M  V30 10116 C 964.684 1.67086 1.56891 0
M  V30 10117 C 965.684 0.54209 1.51387 0
M  V30 10118 O 966.874 0.80883 1.54284 0
M  V30 10119 C 964.006 1.68159 2.96539 0
M  V30 10120 H 965.199 2.63626 1.42974 0
M  V30 10121 H 962.752 1.39143 0.711954 0
M  V30 10122 H 963.487 0.732562 3.15918 0
M  V30 10123 H 963.272 2.50147 3.01942 0
M  V30 10124 H 964.762 1.83466 3.7514 0
M  V30 10125 N 965.199 -0.738761 1.39212 0
M  V30 10126 C 966.132 -1.86135 1.32018 0
M  V30 10127 C 967.11 -1.61432 0.194512 0
M  V30 10128 O 968.294 -1.84746 0.374331 0
M  V30 10129 C 965.421 -3.22044 1.04907 0
M  V30 10130 C 964.467 -3.65612 2.19613 0
M  V30 10131 S 965.3 -3.75418 3.81866 0
M  V30 10132 C 966.456 -5.14122 3.56972 0
M  V30 10133 H 966.689 -1.91954 2.27027 0
M  V30 10134 H 964.222 -0.903244 1.25223 0
M  V30 10135 H 966.18 -4.00524 0.899491 0
M  V30 10136 H 964.841 -3.13886 0.115918 0
M  V30 10137 H 964.034 -4.64232 1.96227 0
M  V30 10138 H 963.636 -2.94327 2.30755 0
M  V30 10139 H 965.928 -6.00339 3.14005 0
M  V30 10140 H 966.871 -5.42535 4.55039 0
M  V30 10141 H 967.279 -4.8362 2.91156 0
M  V30 10142 N 966.677 -1.24326 -0.968545 0
M  V30 10143 C 967.925 -1.08032 -1.70803 0
M  V30 10144 C 968.246 0.381728 -1.91227 0
M  V30 10145 O 967.516 1.27253 -1.48942 0
M  V30 10146 H 966.096 -0.396777 -0.632912 0
M  V30 10147 H 968.758 -1.56232 -1.16523 0
M  V30 10148 H 967.854 -1.57769 -2.69287 0
M  V30 10149 N 968.156 1.1691 -1.05688 0
M  V30 10150 C 969.402 1.8757 -0.771071 0
M  V30 10151 C 969.735 1.8113 0.700399 0
M  V30 10152 O 969.01 1.22273 1.5126 0
M  V30 10153 C 969.293 3.37392 -1.25851 0
M  V30 10154 C 969.146 3.52556 -2.79329 0
M  V30 10155 C 970.465 4.31585 -0.861512 0
M  V30 10156 H 967.584 0.681089 -0.281579 0
M  V30 10157 H 970.226 1.37453 -1.31174 0
M  V30 10158 H 968.376 3.80204 -0.798563 0
M  V30 10159 H 970.048 3.18725 -3.33485 0
M  V30 10160 H 968.291 2.94668 -3.1836 0
M  V30 10161 H 968.962 4.57748 -3.08498 0
M  V30 10162 H 971.438 3.96642 -1.25756 0
M  V30 10163 H 970.314 5.34939 -1.23012 0
M  V30 10164 H 970.575 4.4148 0.234089 0
M  V30 10165 N 969.634 0.838594 1.33437 0
M  V30 10166 C 970.564 0.286672 2.31734 0
M  V30 10167 C 971.545 -0.605451 1.5896 0
M  V30 10168 O 972.73 -0.529059 1.86854 0
M  V30 10169 C 969.86 -0.539311 3.43087 0
M  V30 10170 C 968.814 0.256997 4.27228 0
M  V30 10171 C 968.14 -0.692718 5.30194 0
M  V30 10172 C 969.44 1.47391 5.01072 0
M  V30 10173 H 971.134 1.10798 2.78144 0
M  V30 10174 H 968.68 0.534235 1.33723 0
M  V30 10175 H 970.633 -0.935724 4.1088 0
M  V30 10176 H 969.357 -1.39383 2.95364 0
M  V30 10177 H 968.016 0.634967 3.61059 0
M  V30 10178 H 967.664 -1.54363 4.78729 0
M  V30 10179 H 967.364 -0.164023 5.87371 0
M  V30 10180 H 968.888 -1.08665 6.00853 0
M  V30 10181 H 970.302 1.15067 5.61634 0
M  V30 10182 H 968.699 1.93937 5.67898 0
M  V30 10183 H 969.769 2.24382 4.29861 0
M  V30 10184 N 971.112 -1.45937 0.595003 0
M  V30 10185 C 972.075 -2.2888 -0.121102 0
M  V30 10186 C 973.075 -1.39075 -0.807149 0
M  V30 10187 O 974.265 -1.61326 -0.657228 0
M  V30 10188 C 971.397 -3.19778 -1.1813 0
M  V30 10189 H 972.59 -2.93673 0.607968 0
M  V30 10190 H 970.143 -1.5225 0.353495 0
M  V30 10191 H 970.878 -2.59759 -1.94154 0
M  V30 10192 H 970.663 -3.85914 -0.693724 0
M  V30 10193 H 972.153 -3.82176 -1.68319 0
M  V30 10194 N 972.59 -0.333456 -1.54032 0
M  V30 10195 C 973.818 0.267813 -2.05159 0
M  V30 10196 C 974.233 1.4501 -1.20903 0
M  V30 10197 O 973.59 1.80888 -0.241994 0
M  V30 10198 C 973.641 0.69268 -3.54802 0
M  V30 10199 O 973.362 -0.442579 -4.35859 0
M  V30 10200 C 974.863 1.35572 -4.2206 0
M  V30 10201 H 972.083 0.0534924 -0.668864 0
M  V30 10202 H 974.627 -0.482515 -1.98726 0
M  V30 10203 H 972.782 1.39297 -3.6149 0
M  V30 10204 H 973.196 -0.105915 -5.24393 0
M  V30 10205 H 974.67 1.60385 -5.28186 0
M  V30 10206 H 975.147 2.30614 -3.73783 0
M  V30 10207 H 975.753 0.697748 -4.19537 0
M  V30 10208 N 974.068 1.57479 -0.061844 0
M  V30 10209 C 975.298 1.97142 0.61794 0
M  V30 10210 C 975.706 0.938533 1.64281 0
M  V30 10211 O 975.049 -0.084385 1.83506 0
M  V30 10212 C 975.111 3.33083 1.35263 0
M  V30 10213 C 974.775 4.54447 0.482372 0
M  V30 10214 C 975.772 5.1927 -0.255954 0
M  V30 10215 C 973.457 5.00623 0.410167 0
M  V30 10216 C 975.451 6.28612 -1.05481 0
M  V30 10217 C 973.138 6.09839 -0.392369 0
M  V30 10218 C 974.136 6.73696 -1.12354 0
M  V30 10219 O 973.824 7.80811 -1.91285 0
M  V30 10220 H 973.556 0.653497 0.172969 0
M  V30 10221 H 976.11 2.05002 -0.127781 0
M  V30 10222 H 974.34 3.21808 2.14421 0
M  V30 10223 H 976.029 3.5742 1.92368 0
M  V30 10224 H 976.795 4.84546 -0.209703 0
M  V30 10225 H 972.674 4.50704 0.968883 0
M  V30 10226 H 976.218 6.78385 -1.62602 0
M  V30 10227 H 972.115 6.43997 -0.44022 0
M  V30 10228 H 972.883 7.9764 -1.83611 0
M  V30 10229 N 975.546 -0.211634 1.56173 0
M  V30 10230 C 976.793 -0.93455 1.79645 0
M  V30 10231 C 977.121 -1.83936 0.632294 0
M  V30 10232 O 976.376 -1.91919 -0.382841 0
M  V30 10233 C 976.675 -1.79657 3.08963 0
M  V30 10234 C 976.341 -1.04415 4.38644 0
M  V30 10235 C 975.003 -0.836351 4.73876 0
M  V30 10236 C 977.355 -0.51355 5.18664 0
M  V30 10237 C 974.683 -0.0861976 5.86637 0
M  V30 10238 C 977.035 0.223309 6.32206 0
M  V30 10239 C 975.699 0.442279 6.66033 0
M  V30 10240 H 974.969 -0.341976 0.657368 0
M  V30 10241 H 977.616 -0.202024 1.90431 0
M  V30 10242 H 975.921 -2.59726 2.93342 0
M  V30 10243 H 977.618 -2.35823 3.24328 0
M  V30 10244 H 974.208 -1.21611 4.10985 0
M  V30 10245 H 978.392 -0.661541 4.91871 0
M  V30 10246 H 973.648 0.0935866 6.11328 0
M  V30 10247 H 977.822 0.641917 6.93435 0
M  V30 10248 H 975.449 1.02547 7.53252 0
M  V30 10249 N 977.024 -1.50153 -0.478725 0
M  V30 10250 C 978.435 -1.53706 -1.05978 0
M  V30 10251 C 978.786 -0.336112 -1.933 0
M  V30 10252 O 977.911 0.551803 -2.09246 0
M  V30 10253 C 978.506 -2.78541 -1.92874 0
M  V30 10254 C 977.065 -2.848 -2.46102 0
M  V30 10255 C 976.212 -2.47902 -1.24257 0
M  V30 10256 H 979.163 -1.56528 -0.261664 0
M  V30 10257 H 979.184 -2.59964 -2.77847 0
M  V30 10258 H 978.696 -3.6593 -1.29293 0
M  V30 10259 H 976.797 -2.01744 -3.13257 0
M  V30 10260 H 976.91 -3.87511 -2.81731 0
M  V30 10261 H 975.274 -2.0017 -1.57493 0
M  V30 10262 H 976.057 -3.3759 -0.62351 0
M  V30 10263 N 978.502 0.731368 -1.39602 0
M  V30 10264 C 979.779 1.48308 -1.27531 0
M  V30 10265 C 980.159 2.10795 0.113482 0
M  V30 10266 O 979.507 1.98886 1.12501 0
M  V30 10267 C 979.717 2.53156 -2.40235 0
M  V30 10268 C 981.065 3.19436 -2.79725 0
M  V30 10269 O 982.089 2.6347 -2.39712 0
M  V30 10270 O 980.948 4.20714 -3.48801 0
M  V30 10271 H 978.042 0.658753 -0.499973 0
M  V30 10272 H 980.588 0.764884 -1.51485 0
M  V30 10273 H 979.36 2.05387 -3.33064 0
M  V30 10274 H 978.983 3.3253 -2.17966 0
M  V30 10275 N 979.98 1.24838 0.961938 0
M  V30 10276 C 980.913 0.989041 2.05653 0
M  V30 10277 C 981.891 -0.079199 1.62407 0
M  V30 10278 O 983.075 0.0589397 1.88408 0
M  V30 10279 C 980.202 0.493661 3.35083 0
M  V30 10280 C 979.248 1.55132 3.97286 0
M  V30 10281 S 980.081 3.13438 4.34185 0
M  V30 10282 C 981.237 2.65617 5.66744 0
M  V30 10283 H 981.47 1.91588 2.27335 0
M  V30 10284 H 979.003 1.08287 1.10061 0
M  V30 10285 H 980.961 0.214482 4.09939 0
M  V30 10286 H 979.622 -0.412559 3.11379 0
M  V30 10287 H 978.815 1.15525 4.90581 0
M  V30 10288 H 978.417 1.78081 3.28882 0
M  V30 10289 H 980.709 2.08788 6.44526 0
M  V30 10290 H 981.652 3.57524 6.11214 0
M  V30 10291 H 982.06 2.05853 5.25628 0
M  V30 10292 N 981.458 -1.16348 1.06306 0
M  V30 10293 C 982.686 -1.90782 0.800614 0
M  V30 10294 C 983.101 -1.77439 -0.645033 0
M  V30 10295 O 982.458 -1.11912 -1.4416 0
M  V30 10296 C 982.509 -3.41484 1.18621 0
M  V30 10297 O 982.23 -3.54428 2.57512 0
M  V30 10298 C 983.731 -4.32968 0.951525 0
M  V30 10299 H 980.951 -0.604977 0.290247 0
M  V30 10300 H 983.495 -1.47476 1.41672 0
M  V30 10301 H 981.65 -3.82493 0.614633 0
M  V30 10302 H 982.064 -4.4788 2.72954 0
M  V30 10303 H 983.538 -5.37169 1.27095 0
M  V30 10304 H 984.015 -4.39055 -0.112734 0
M  V30 10305 H 984.621 -3.97687 1.50749 0
M  V30 10306 N 982.937 -0.845659 -1.3299 0
M  V30 10307 C 984.167 -0.457686 -2.01467 0
M  V30 10308 C 984.575 0.947664 -1.63756 0
M  V30 10309 O 983.918 1.62841 -0.850213 0
M  V30 10310 C 983.98 -0.506589 -3.55913 0
M  V30 10311 C 983.644 -1.86924 -4.17023 0
M  V30 10312 C 984.641 -2.83344 -4.35904 0
M  V30 10313 C 982.326 -2.16394 -4.53298 0
M  V30 10314 C 984.32 -4.07391 -4.90216 0
M  V30 10315 C 982.007 -3.40695 -5.07316 0
M  V30 10316 C 983.005 -4.3601 -5.25722 0
M  V30 10317 O 982.693 -5.58112 -5.7859 0
M  V30 10318 H 982.425 -0.179258 -0.651799 0
M  V30 10319 H 984.979 -1.14172 -1.70745 0
M  V30 10320 H 983.209 0.234253 -3.8599 0
M  V30 10321 H 984.898 -0.135487 -4.05674 0
M  V30 10322 H 985.664 -2.61879 -4.08221 0
M  V30 10323 H 981.543 -1.42994 -4.38262 0
M  V30 10324 H 985.087 -4.81796 -5.04498 0
M  V30 10325 H 980.984 -3.62014 -5.3443 0
M  V30 10326 H 981.752 -5.59946 -5.96995 0
M  V30 10327 N 984.415 1.45619 -0.602734 0
M  V30 10328 C 985.362 2.30493 0.118944 0
M  V30 10329 C 986.332 1.41816 0.864723 0
M  V30 10330 O 987.517 1.7075 0.851424 0
M  V30 10331 C 984.657 3.2664 1.11356 0
M  V30 10332 C 983.77 4.3042 0.369161 0
M  V30 10333 C 982.905 5.13678 1.35307 0
M  V30 10334 C 981.944 6.09189 0.596207 0
M  V30 10335 N 981.081 6.85245 1.52916 0
M  V30 10336 H 985.921 2.91672 -0.610836 0
M  V30 10337 H 983.458 1.43731 -0.313032 0
M  V30 10338 H 985.416 3.80846 1.7033 0
M  V30 10339 H 984.046 2.67225 1.81081 0
M  V30 10340 H 983.098 3.78913 -0.335994 0
M  V30 10341 H 984.41 4.98307 -0.221603 0
M  V30 10342 H 983.564 5.7226 2.01502 0
M  V30 10343 H 982.303 4.45798 1.97777 0
M  V30 10344 H 981.308 5.49743 -0.0793984 0
M  V30 10345 H 982.533 6.79096 -0.0233734 0
M  V30 10346 H 980.479 6.20058 2.14159 0
M  V30 10347 H 980.396 7.49467 0.991713 0
M  V30 10348 H 981.664 7.48371 2.18083 0
M  V30 10349 N 985.893 0.34162 1.53853 0
M  V30 10350 C 987.139 -0.255862 2.01179 0
M  V30 10351 C 987.472 -1.50356 1.22909 0
M  V30 10352 O 986.747 -1.91913 0.316198 0
M  V30 10353 C 987.03 -0.571934 3.55529 0
M  V30 10354 C 986.883 0.687727 4.44511 0
M  V30 10355 C 988.202 -1.38233 4.17827 0
M  V30 10356 H 985.321 -0.091521 0.731295 0
M  V30 10357 H 987.963 0.461775 1.84303 0
M  V30 10358 H 986.113 -1.18331 3.70041 0
M  V30 10359 H 987.785 1.32572 4.4184 0
M  V30 10360 H 986.028 1.313 4.13452 0
M  V30 10361 H 986.699 0.421858 5.50386 0
M  V30 10362 H 989.175 -0.865374 4.07002 0
M  V30 10363 H 988.051 -1.57223 5.25901 0
M  V30 10364 H 988.312 -2.38386 3.72323 0
M  V30 10365 N 987.371 -1.57444 0.0701946 0
M  V30 10366 C 988.782 -1.80875 -0.462709 0
M  V30 10367 C 989.133 -0.983975 -1.69742 0
M  V30 10368 O 988.258 -0.206027 -2.15417 0
M  V30 10369 C 988.853 -3.28062 -0.84623 0
M  V30 10370 C 987.412 -3.52345 -1.32401 0
M  V30 10371 C 986.559 -2.7558 -0.308399 0
M  V30 10372 H 989.51 -1.55917 0.295907 0
M  V30 10373 H 989.531 -3.40023 -1.70776 0
M  V30 10374 H 989.043 -3.88064 0.0526033 0
M  V30 10375 H 987.144 -2.97645 -2.24139 0
M  V30 10376 H 987.257 -4.6104 -1.30304 0
M  V30 10377 H 985.621 -2.4229 -0.785337 0
M  V30 10378 H 986.404 -3.38319 0.582679 0
M  V30 10379 N 988.849 0.203349 -1.56283 0
M  V30 10380 C 990.097 0.923183 -1.79782 0
M  V30 10381 C 990.418 1.84134 -0.64185 0
M  V30 10382 O 989.688 1.92922 0.340292 0
M  V30 10383 H 988.268 0.343881 -0.66314 0
M  V30 10384 H 990.93 0.210837 -1.93756 0
M  V30 10385 H 990.026 1.51921 -2.72629 0
M  V30 10386 N 990.327 1.50405 0.470755 0
M  V30 10387 C 991.555 1.65168 1.24608 0
M  V30 10388 C 991.97 0.335153 1.85801 0
M  V30 10389 O 991.327 -0.682919 1.69241 0
M  V30 10390 C 991.378 2.74305 2.35455 0
M  V30 10391 O 991.099 4.00854 1.76771 0
M  V30 10392 C 992.6 3.00044 3.26326 0
M  V30 10393 H 989.82 0.555186 0.376842 0
M  V30 10394 H 992.364 1.9663 0.56187 0
M  V30 10395 H 990.519 2.45536 2.99651 0
M  V30 10396 H 990.933 4.61211 2.49769 0
M  V30 10397 H 992.407 3.8007 4.00313 0
M  V30 10398 H 992.884 2.11128 3.85126 0
M  V30 10399 H 993.49 3.30345 2.67866 0
M  V30 10400 N 991.805 -0.723954 1.39988 0
M  V30 10401 C 993.216 -1.30273 1.33738 0
M  V30 10402 C 993.567 -1.96199 0.00690581 0
M  V30 10403 O 992.692 -1.97016 -0.895179 0
M  V30 10404 C 993.287 -2.36889 2.42217 0
M  V30 10405 C 991.846 -2.90412 2.39453 0
M  V30 10406 C 990.993 -1.64103 2.2353 0
M  V30 10407 H 993.944 -0.520672 1.49916 0
M  V30 10408 H 993.965 -3.17538 2.09642 0
M  V30 10409 H 993.477 -1.88878 3.39038 0
M  V30 10410 H 991.578 -3.42674 1.46304 0
M  V30 10411 H 991.691 -3.42775 3.34727 0
M  V30 10412 H 990.055 -1.88855 1.70897 0
M  V30 10413 H 990.838 -1.18128 3.22336 0
M  V30 10414 N 993.283 -1.25346 -0.955304 0
M  V30 10415 C 994.508 -1.12892 -1.73983 0
M  V30 10416 C 994.933 0.313455 -1.8547 0
M  V30 10417 O 994.291 1.22706 -1.33465 0
M  V30 10418 C 994.339 -1.78729 -3.1319 0
M  V30 10419 O 993.443 -1.06648 -3.98372 0
M  V30 10420 H 992.784 -0.394178 -0.534341 0
M  V30 10421 H 995.314 -1.65897 -1.19747 0
M  V30 10422 H 995.324 -1.84987 -3.63653 0
M  V30 10423 H 993.999 -2.83669 -3.04146 0
M  V30 10424 H 992.576 -1.08266 -3.56837 0
M  V30 10425 N 994.761 1.15782 -1.06922 0
M  V30 10426 C 995.989 1.90355 -0.81072 0
M  V30 10427 C 996.404 1.77779 0.635614 0
M  V30 10428 O 995.761 1.12675 1.43564 0
M  V30 10429 C 995.812 3.4085 -1.2043 0
M  V30 10430 O 995.533 3.53057 -2.59388 0
M  V30 10431 C 997.034 4.32457 -0.974473 0
M  V30 10432 H 994.254 0.60343 -0.293451 0
M  V30 10433 H 996.798 1.46723 -1.42452 0
M  V30 10434 H 994.953 3.82162 -0.634909 0
M  V30 10435 H 995.367 4.46426 -2.75326 0
M  V30 10436 H 996.841 5.36488 -1.29942 0
M  V30 10437 H 997.318 4.39109 0.0894481 0
M  V30 10438 H 997.924 3.96882 -1.52856 0
M  V30 10439 N 996.239 0.8527 1.3254 0
M  V30 10440 C 997.186 0.293905 2.28921 0
M  V30 10441 C 998.156 -0.598027 1.54961 0
M  V30 10442 O 999.341 -0.533355 1.83194 0
M  V30 10443 C 996.481 -0.513361 3.4126 0
M  V30 10444 C 995.594 0.404144 4.30105 0
M  V30 10445 C 994.729 -0.415564 5.29572 0
M  V30 10446 C 993.768 0.499461 6.10059 0
M  V30 10447 N 992.905 -0.282949 7.0153 0
M  V30 10448 H 997.745 1.12107 2.76109 0
M  V30 10449 H 995.282 0.564272 1.35847 0
M  V30 10450 H 997.24 -0.997008 4.05112 0
M  V30 10451 H 995.87 -1.30537 2.95229 0
M  V30 10452 H 994.922 1.00617 3.66852 0
M  V30 10453 H 996.234 1.10648 4.86373 0
M  V30 10454 H 995.388 -0.962458 5.99017 0
M  V30 10455 H 994.127 -1.15127 4.73917 0
M  V30 10456 H 993.132 1.05825 5.39519 0
M  V30 10457 H 994.357 1.23375 6.67799 0
M  V30 10458 H 992.303 -1.00179 6.48306 0
M  V30 10459 H 992.22 0.36039 7.55141 0
M  V30 10460 H 993.488 -0.811632 7.75263 0
M  V30 10461 N 997.718 -1.45297 0.610449 0
M  V30 10462 C 998.648 -2.33311 -0.0939698 0
M  V30 10463 C 999.629 -1.46999 -0.85588 0
M  V30 10464 O 1000.81 -1.75764 -0.825865 0
M  V30 10465 C 997.944 -3.29751 -1.09003 0
M  V30 10466 C 996.898 -4.2572 -0.441146 0
M  V30 10467 C 996.224 -5.11873 -1.54566 0
M  V30 10468 C 997.524 -5.1837 0.639489 0
M  V30 10469 H 999.218 -2.92459 0.640941 0
M  V30 10470 H 996.764 -1.40631 0.309675 0
M  V30 10471 H 998.717 -3.90195 -1.59141 0
M  V30 10472 H 997.441 -2.68768 -1.85557 0
M  V30 10473 H 996.1 -3.66579 0.0393908 0
M  V30 10474 H 995.748 -4.47256 -2.30155 0
M  V30 10475 H 995.448 -5.76886 -1.11698 0
M  V30 10476 H 996.972 -5.75185 -2.04925 0
M  V30 10477 H 998.386 -5.7287 0.22207 0
M  V30 10478 H 996.783 -5.91876 0.990089 0
M  V30 10479 H 997.853 -4.60627 1.51495 0
M  V30 10480 N 999.196 -0.349774 -1.5367 0
M  V30 10481 C 1000.43 0.245682 -2.05134 0
M  V30 10482 C 1000.83 1.44269 -1.22406 0
M  V30 10483 O 1000.18 1.81938 -0.25379 0
M  V30 10484 C 1000.24 0.718439 -3.52248 0
M  V30 10485 C 999.903 -0.35975 -4.55582 0
M  V30 10486 C 1000.9 -1.20449 -5.05755 0
M  V30 10487 C 998.585 -0.515463 -4.99648 0
M  V30 10488 C 1000.58 -2.19043 -5.98581 0
M  V30 10489 C 998.266 -1.50479 -5.92283 0
M  V30 10490 C 999.264 -2.34072 -6.41638 0
M  V30 10491 O 998.952 -3.31319 -7.3245 0
M  V30 10492 H 998.684 0.0501122 -0.67414 0
M  V30 10493 H 1001.24 -0.5018 -1.99176 0
M  V30 10494 H 999.468 1.51727 -3.55691 0
M  V30 10495 H 1001.16 1.23513 -3.86651 0
M  V30 10496 H 1001.92 -1.09531 -4.7247 0
M  V30 10497 H 997.802 0.12537 -4.60829 0
M  V30 10498 H 1001.35 -2.84327 -6.37027 0
M  V30 10499 H 997.243 -1.61451 -6.24983 0
M  V30 10500 H 998.011 -3.26863 -7.50402 0
M  V30 10501 N 1000.67 1.57404 -0.0785433 0
M  V30 10502 C 1001.92 1.93361 0.58786 0
M  V30 10503 C 1002.24 0.959856 1.6974 0
M  V30 10504 O 1001.51 0.0091173 1.95898 0
M  V30 10505 H 1000.09 0.713825 0.220141 0
M  V30 10506 H 1002.75 1.94411 -0.137986 0
M  V30 10507 H 1001.85 2.95346 1.00881 0
M  V30 10508 N 1002.15 -0.195058 1.56388 0
M  V30 10509 C 1003.43 -0.941335 1.71459 0
M  V30 10510 C 1003.81 -2.01375 0.633336 0
M  V30 10511 O 1003.16 -2.25715 -0.35567 0
M  V30 10512 C 1003.37 -1.52772 3.13786 0
M  V30 10513 C 1004.71 -2.00983 3.7402 0
M  V30 10514 O 1005.74 -1.62614 3.16915 0
M  V30 10515 O 1004.6 -2.71586 4.7424 0
M  V30 10516 H 1001.69 -0.441451 0.699321 0
M  V30 10517 H 1004.24 -0.184752 1.68691 0
M  V30 10518 H 1003.01 -0.754699 3.83953 0
M  V30 10519 H 1002.63 -2.34914 3.20782 0
M  V30 10520 N 1003.63 -1.50653 -0.462772 0
M  V30 10521 C 1004.88 -1.62297 -1.21603 0
M  V30 10522 C 1005.21 -0.326191 -1.91441 0
M  V30 10523 O 1004.48 0.67284 -1.82491 0
M  V30 10524 C 1004.77 -2.80901 -2.25315 0
M  V30 10525 C 1004.62 -4.20484 -1.59728 0
M  V30 10526 C 1005.94 -2.95049 -3.26549 0
M  V30 10527 H 1003.06 -0.590691 -0.440741 0
M  V30 10528 H 1005.7 -1.83064 -0.508675 0
M  V30 10529 H 1003.85 -2.63325 -2.85643 0
M  V30 10530 H 1005.52 -4.49669 -1.02932 0
M  V30 10531 H 1003.76 -4.24357 -0.900181 0
M  V30 10532 H 1004.44 -4.99416 -2.35133 0
M  V30 10533 H 1006.91 -3.11166 -2.76251 0
M  V30 10534 H 1005.79 -3.79645 -3.96435 0
M  V30 10535 H 1006.05 -2.06019 -3.91163 0
M  V30 10536 N 1005.11 0.71652 -1.4037 0
M  V30 10537 C 1006.06 1.85194 -1.40734 0
M  V30 10538 C 1007.05 1.66934 -0.287969 0
M  V30 10539 O 1008.26 1.74051 -0.458957 0
M  V30 10540 H 1004.63 0.609922 -0.439885 0
M  V30 10541 H 1006.6 1.82003 -2.36468 0
M  V30 10542 C 1005.35 3.23048 -1.28589 0
M  V30 10543 H 1004.67 3.37704 -2.13999 0
M  V30 10544 H 1006.11 4.02633 -1.32902 0
M  V30 10545 C 1004.57 3.369 0.00396512 0
M  V30 10546 O 1005.1 3.89881 0.967243 0
M  V30 10547 N 1003.31 2.90508 0.0731565 0
M  V30 10548 H 1002.86 2.4758 -0.711454 0
M  V30 10549 H 1002.81 3.00155 0.935652 0
M  V30 10550 N 1006.59 1.25851 0.948643 0
M  V30 10551 C 1007.86 1.01717 1.67072 0
M  V30 10552 C 1008.24 -0.454749 2.06144 0
M  V30 10553 O 1007.59 -1.43345 1.77945 0
M  V30 10554 C 1007.8 1.95872 2.88852 0
M  V30 10555 C 1009.15 2.24057 3.60671 0
M  V30 10556 O 1010.17 1.93678 2.98944 0
M  V30 10557 O 1009.03 2.75745 4.71833 0
M  V30 10558 H 1006.13 0.386198 0.731287 0
M  V30 10559 H 1008.67 1.37031 1.00104 0
M  V30 10560 H 1007.44 2.95233 2.56814 0
M  V30 10561 H 1007.07 1.60992 3.63548 0
M  V30 10562 N 1008.06 -1.15214 1.07534 0
M  V30 10563 C 1009.34 -1.82155 0.71267 0
M  V30 10564 C 1009.72 -1.95163 -0.804655 0
M  V30 10565 O 1009.07 -1.50451 -1.71979 0
M  V30 10566 C 1009.28 -3.18392 1.42925 0
M  V30 10567 C 1010.63 -3.94005 1.58256 0
M  V30 10568 O 1011.65 -3.27952 1.39018 0
M  V30 10569 O 1010.51 -5.12436 1.89925 0
M  V30 10570 H 1007.6 -0.78709 0.253808 0
M  V30 10571 H 1010.15 -1.22309 1.17638 0
M  V30 10572 H 1008.92 -3.04034 2.46331 0
M  V30 10573 H 1008.55 -3.85925 0.956439 0
M  V30 10574 N 1009.54 -0.859717 -1.32086 0
M  V30 10575 C 1010.79 -0.464662 -1.96686 0
M  V30 10576 C 1011.11 0.98412 -1.68345 0
M  V30 10577 O 1010.38 1.68847 -0.993361 0
M  V30 10578 H 1008.96 -0.168838 -0.727669 0
M  V30 10579 H 1011.62 -1.09726 -1.61079 0
M  V30 10580 H 1010.72 -0.613904 -3.06003 0
M  V30 10581 N 1011.02 1.44971 -0.618145 0
M  V30 10582 C 1011.97 2.30606 0.09449 0
M  V30 10583 C 1012.94 1.42725 0.849633 0
M  V30 10584 O 1014.12 1.71643 0.833266 0
M  V30 10585 C 1011.26 3.27803 1.07886 0
M  V30 10586 C 1010.38 4.30787 0.323488 0
M  V30 10587 C 1009.51 5.15085 1.29851 0
M  V30 10588 C 1008.55 6.09788 0.531561 0
M  V30 10589 N 1007.69 6.86829 1.4564 0
M  V30 10590 H 1012.53 2.91008 -0.641738 0
M  V30 10591 H 1010.06 1.43391 -0.328259 0
M  V30 10592 H 1012.02 3.82631 1.66281 0
M  V30 10593 H 1010.65 2.69131 1.78237 0
M  V30 10594 H 1009.7 3.78536 -0.376164 0
M  V30 10595 H 1011.02 4.98044 -0.274443 0
M  V30 10596 H 1010.17 5.74365 1.95421 0
M  V30 10597 H 1008.91 4.4787 1.93037 0
M  V30 10598 H 1007.91 5.49628 -0.137702 0
M  V30 10599 H 1009.14 6.79033 -0.0953993 0
M  V30 10600 H 1007.08 6.22295 2.07571 0
M  V30 10601 H 1007 7.50477 0.912167 0
M  V30 10602 H 1008.27 7.50642 2.10134 0
M  V30 10603 N 1012.5 0.357919 1.53482 0
M  V30 10604 C 1013.74 -0.23451 2.0144 0
M  V30 10605 C 1014.08 -1.49044 1.24497 0
M  V30 10606 O 1013.35 -1.91566 0.336535 0
M  V30 10607 C 1013.64 -0.534193 3.56116 0
M  V30 10608 C 1013.49 0.734834 4.43757 0
M  V30 10609 C 1014.81 -1.33793 4.1927 0
M  V30 10610 H 1011.93 -0.0837595 0.732225 0
M  V30 10611 H 1014.57 0.481297 1.83803 0
M  V30 10612 H 1012.72 -1.144 3.71275 0
M  V30 10613 H 1014.39 1.37251 4.40409 0
M  V30 10614 H 1012.63 1.35678 4.12036 0
M  V30 10615 H 1013.3 0.48021 5.49907 0
M  V30 10616 H 1015.78 -0.822158 4.07897 0
M  V30 10617 H 1014.66 -1.51636 5.27539 0
M  V30 10618 H 1014.92 -2.34423 3.74831 0
M  V30 10619 N 1013.98 -1.5736 0.0868897 0
M  V30 10620 C 1014.92 -2.14793 -0.892571 0
M  V30 10621 C 1015.92 -1.08866 -1.29787 0
M  V30 10622 O 1017.12 -1.27223 -1.27335 0
M  V30 10623 H 1013.5 -0.686998 -0.305838 0
M  V30 10624 H 1015.47 -2.95927 -0.383393 0
M  V30 10625 C 1014.22 -2.73646 -2.14507 0
M  V30 10626 H 1013.54 -3.54835 -1.84207 0
M  V30 10627 H 1014.98 -3.17409 -2.81118 0
M  V30 10628 C 1013.44 -1.69138 -2.91366 0
M  V30 10629 O 1013.97 -1.12539 -3.85614 0
M  V30 10630 N 1012.18 -1.3982 -2.54752 0
M  V30 10631 H 1011.72 -1.86035 -1.78182 0
M  V30 10632 H 1011.68 -0.701316 -3.06478 0
M  V30 10633 N 1015.45 0.186762 -1.56489 0
M  V30 10634 C 1016.68 0.925916 -1.85584 0
M  V30 10635 C 1017.1 1.75708 -0.671446 0
M  V30 10636 O 1016.46 1.7728 0.379687 0
M  V30 10637 C 1016.51 1.79107 -3.12975 0
M  V30 10638 O 1015.61 2.89088 -2.94112 0
M  V30 10639 H 1014.96 0.260275 -0.610863 0
M  V30 10640 H 1017.49 0.189561 -2.0372 0
M  V30 10641 H 1017.5 2.19408 -3.43983 0
M  V30 10642 H 1016.17 1.18044 -3.98796 0
M  V30 10643 H 1014.75 2.52482 -2.74422 0
M  V30 10644 N 1016.93 1.50896 0.454776 0
M  V30 10645 C 1018.16 1.6648 1.22849 0
M  V30 10646 C 1018.58 0.354841 1.85435 0
M  V30 10647 O 1017.93 -0.664931 1.69956 0
M  V30 10648 C 1017.98 2.76787 2.32532 0
M  V30 10649 O 1017.7 4.02706 1.72509 0
M  V30 10650 C 1019.21 3.03488 3.23125 0
M  V30 10651 H 1016.43 0.559152 0.370932 0
M  V30 10652 H 1018.97 1.97215 0.540983 0
M  V30 10653 H 1017.12 2.48701 2.9703 0
M  V30 10654 H 1017.54 4.63834 2.44863 0
M  V30 10655 H 1019.01 3.84294 3.9626 0
M  V30 10656 H 1019.49 2.152 3.82865 0
M  V30 10657 H 1020.1 3.33167 2.64347 0
M  V30 10658 N 1018.41 -0.709066 1.40748 0
M  V30 10659 C 1019.69 -1.4626 1.29874 0
M  V30 10660 C 1020.07 -2.10949 -0.0799322 0
M  V30 10661 O 1019.42 -2.00651 -1.09323 0
M  V30 10662 C 1019.63 -2.49302 2.44232 0
M  V30 10663 C 1020.97 -3.14945 2.84771 0
M  V30 10664 O 1022 -2.59623 2.43873 0
M  V30 10665 O 1020.86 -4.15111 3.5545 0
M  V30 10666 H 1017.95 -0.650716 0.51039 0
M  V30 10667 H 1020.5 -0.740687 1.52682 0
M  V30 10668 H 1019.27 -2.00063 3.36289 0
M  V30 10669 H 1018.89 -3.29021 2.23229 0
M  V30 10670 N 1019.89 -1.26353 -0.941956 0
M  V30 10671 C 1020.85 -1.07904 -2.02211 0
M  V30 10672 C 1021.85 -0.0276283 -1.60776 0
M  V30 10673 O 1023.04 -0.270965 -1.7208 0
M  V30 10674 C 1020.17 -0.641084 -3.34818 0
M  V30 10675 H 1021.37 -2.03804 -2.20009 0
M  V30 10676 H 1018.92 -1.08939 -1.12081 0
M  V30 10677 H 1019.66 0.319943 -3.22718 0
M  V30 10678 H 1019.44 -1.40027 -3.66244 0
M  V30 10679 H 1020.93 -0.533826 -4.14174 0
M  V30 10680 N 1021.37 1.14642 -1.08144 0
M  V30 10681 C 1022.61 1.85892 -0.810683 0
M  V30 10682 C 1022.95 1.82575 0.661821 0
M  V30 10683 O 1022.22 1.25454 1.48632 0
M  V30 10684 C 1022.5 3.34647 -1.32979 0
M  V30 10685 C 1022.36 3.46551 -2.86744 0
M  V30 10686 C 1023.68 4.29661 -0.952864 0
M  V30 10687 H 1020.8 0.674963 -0.295963 0
M  V30 10688 H 1023.44 1.3464 -1.3406 0
M  V30 10689 H 1021.59 3.78425 -0.87903 0
M  V30 10690 H 1023.26 3.11579 -3.40171 0
M  V30 10691 H 1021.5 2.87849 -3.24539 0
M  V30 10692 H 1022.17 4.51101 -3.18138 0
M  V30 10693 H 1024.65 3.93885 -1.34141 0
M  V30 10694 H 1023.53 5.32209 -1.34331 0
M  V30 10695 H 1023.79 4.41877 0.140392 0
M  V30 10696 N 1022.85 0.866709 1.31628 0
M  V30 10697 C 1023.81 0.325041 2.26883 0
M  V30 10698 C 1024.81 -0.522133 1.52087 0
M  V30 10699 O 1026 -0.331908 1.71009 0
M  V30 10700 C 1023.13 -0.538756 3.36616 0
M  V30 10701 H 1024.32 1.16592 2.76308 0
M  V30 10702 H 1021.88 0.642029 1.42505 0
M  V30 10703 H 1022.61 -1.40096 2.92478 0
M  V30 10704 H 1022.4 0.0678115 3.92041 0
M  V30 10705 H 1023.89 -0.910123 4.07562 0
M  V30 10706 N 1024.32 -1.44642 0.625825 0
M  V30 10707 C 1025.25 -2.33397 -0.0692188 0
M  V30 10708 C 1026.23 -1.47898 -0.840241 0
M  V30 10709 O 1027.42 -1.7663 -0.807176 0
M  V30 10710 C 1024.55 -3.30888 -1.055 0
M  V30 10711 C 1023.5 -4.26164 -0.395968 0
M  V30 10712 C 1022.83 -5.13483 -1.49128 0
M  V30 10713 C 1024.13 -5.17663 0.694433 0
M  V30 10714 H 1025.82 -2.91763 0.671925 0
M  V30 10715 H 1023.37 -1.40294 0.324573 0
M  V30 10716 H 1025.32 -3.91861 -1.54993 0
M  V30 10717 H 1024.05 -2.7072 -1.82696 0
M  V30 10718 H 1022.71 -3.66516 0.0782691 0
M  V30 10719 H 1022.35 -4.49672 -2.25399 0
M  V30 10720 H 1022.05 -5.78038 -1.05573 0
M  V30 10721 H 1023.58 -5.77327 -1.98813 0
M  V30 10722 H 1024.99 -5.72602 0.282818 0
M  V30 10723 H 1023.39 -5.90793 1.05281 0
M  V30 10724 H 1024.46 -4.58994 1.56372 0
M  V30 10725 N 1025.8 -0.366053 -1.5329 0
M  V30 10726 C 1026.75 0.480205 -2.25749 0
M  V30 10727 C 1027.72 1.07713 -1.2644 0
M  V30 10728 O 1028.9 1.10953 -1.55222 0
M  V30 10729 C 1026.04 1.61374 -3.05045 0
M  V30 10730 C 1025.16 1.04194 -4.19246 0
M  V30 10731 C 1024.29 2.14462 -4.85983 0
M  V30 10732 C 1023.33 1.5475 -5.92215 0
M  V30 10733 N 1022.47 2.58852 -6.52641 0
M  V30 10734 H 1027.31 -0.144199 -2.97651 0
M  V30 10735 H 1024.84 -0.0829321 -1.46866 0
M  V30 10736 H 1026.8 2.28144 -3.49294 0
M  V30 10737 H 1025.43 2.2088 -2.35397 0
M  V30 10738 H 1024.48 0.264514 -3.79479 0
M  V30 10739 H 1025.8 0.565379 -4.95585 0
M  V30 10740 H 1024.95 2.89051 -5.33418 0
M  V30 10741 H 1023.69 2.6547 -4.09117 0
M  V30 10742 H 1022.69 0.786759 -5.44142 0
M  V30 10743 H 1023.92 1.04566 -6.71001 0
M  V30 10744 H 1021.87 3.09073 -5.78627 0
M  V30 10745 H 1021.78 2.15884 -7.24521 0
M  V30 10746 H 1023.05 3.33142 -7.04724 0
M  V30 10747 N 1027.28 1.57312 -0.0952337 0
M  V30 10748 C 1028.7 1.57445 0.261416 0
M  V30 10749 C 1028.9 1.10639 1.68408 0
M  V30 10750 O 1027.95 0.782912 2.40056 0
M  V30 10751 C 1029.26 3.00659 0.0497206 0
M  V30 10752 C 1030.81 3.1278 0.117459 0
M  V30 10753 C 1031.29 4.57952 -0.0662441 0
M  V30 10754 N 1032.78 4.63199 -0.0114146 0
M  V30 10755 C 1033.51 5.73255 -0.128799 0
M  V30 10756 N 1033.01 6.92146 -0.301026 0
M  V30 10757 N 1034.8 5.62056 -0.0700599 0
M  V30 10758 H 1026.95 1.86045 -1.02475 0
M  V30 10759 H 1029.22 0.858726 -0.401614 0
M  V30 10760 H 1028.92 3.39102 -0.932888 0
M  V30 10761 H 1028.8 3.68792 0.791975 0
M  V30 10762 H 1031.18 2.74209 1.09057 0
M  V30 10763 H 1031.26 2.47238 -0.656288 0
M  V30 10764 H 1030.91 4.97217 -1.03623 0
M  V30 10765 H 1030.84 5.21555 0.727198 0
M  V30 10766 H 1033.33 3.77712 0.119154 0
M  V30 10767 H 1033.64 7.71855 -0.382104 0
M  V30 10768 H 1031.99 6.94184 -0.336695 0
M  V30 10769 H 1035.18 4.68057 0.0633587 0
M  V30 10770 H 1035.35 6.4779 -0.164991 0
M  V30 10771 N 1028.76 -0.17846 1.56586 0
M  V30 10772 C 1029.99 -0.910674 1.85446 0
M  V30 10773 C 1030.4 -1.76647 0.677675 0
M  V30 10774 O 1029.74 -1.80086 -0.362584 0
M  V30 10775 C 1029.8 -1.84363 3.08627 0
M  V30 10776 C 1029.46 -1.16814 4.41818 0
M  V30 10777 C 1030.46 -0.53703 5.17119 0
M  V30 10778 C 1028.15 -1.16703 4.88555 0
M  V30 10779 C 1030.14 0.0861778 6.37342 0
M  V30 10780 C 1027.83 -0.539992 6.0871 0
M  V30 10781 C 1028.83 0.0855135 6.82946 0
M  V30 10782 O 1028.51 0.70268 8.00823 0
M  V30 10783 H 1028.25 -0.270377 0.619574 0
M  V30 10784 H 1030.8 -0.185591 2.0456 0
M  V30 10785 H 1029.03 -2.60884 2.85441 0
M  V30 10786 H 1030.72 -2.44506 3.23993 0
M  V30 10787 H 1031.48 -0.529915 4.82096 0
M  V30 10788 H 1027.36 -1.64329 4.30717 0
M  V30 10789 H 1030.91 0.575011 6.95226 0
M  V30 10790 H 1026.8 -0.544666 6.43198 0
M  V30 10791 H 1027.57 0.601224 8.16289 0
M  V30 10792 N 1030.24 -1.51135 -0.446768 0
M  V30 10793 C 1031.48 -1.63578 -1.19875 0
M  V30 10794 C 1031.81 -0.346478 -1.91084 0
M  V30 10795 O 1031.09 0.653447 -1.83195 0
M  V30 10796 C 1031.37 -2.83275 -2.22323 0
M  V30 10797 C 1031.23 -4.22155 -1.55259 0
M  V30 10798 C 1032.54 -2.98496 -3.23401 0
M  V30 10799 H 1029.66 -0.595333 -0.434452 0
M  V30 10800 H 1032.31 -1.83593 -0.48923 0
M  V30 10801 H 1030.46 -2.6634 -2.82834 0
M  V30 10802 H 1032.13 -4.50736 -0.981571 0
M  V30 10803 H 1030.37 -4.25288 -0.855122 0
M  V30 10804 H 1031.04 -5.01882 -2.29823 0
M  V30 10805 H 1033.52 -3.14079 -2.72935 0
M  V30 10806 H 1032.39 -3.83828 -3.92386 0
M  V30 10807 H 1032.65 -2.10157 -3.88956 0
M  V30 10808 N 1031.71 0.701592 -1.41122 0
M  V30 10809 C 1032.64 1.82815 -1.45262 0
M  V30 10810 C 1033.62 1.67215 -0.311939 0
M  V30 10811 O 1034.81 1.87038 -0.522538 0
M  V30 10812 C 1031.94 3.20899 -1.32819 0
M  V30 10813 C 1030.89 3.51194 -2.44636 0
M  V30 10814 C 1030.22 4.8857 -2.17263 0
M  V30 10815 C 1031.52 3.50777 -3.86979 0
M  V30 10816 H 1033.21 1.79608 -2.39544 0
M  V30 10817 H 1030.76 0.862693 -1.15298 0
M  V30 10818 H 1032.71 3.99417 -1.34329 0
M  V30 10819 H 1031.44 3.24717 -0.350191 0
M  V30 10820 H 1030.1 2.75024 -2.42399 0
M  V30 10821 H 1029.74 4.89007 -1.17819 0
M  V30 10822 H 1029.44 5.09805 -2.92186 0
M  V30 10823 H 1030.97 5.69405 -2.20478 0
M  V30 10824 H 1032.38 4.19309 -3.90964 0
M  V30 10825 H 1030.78 3.83542 -4.61536 0
M  V30 10826 H 1031.85 2.49873 -4.15562 0
M  V30 10827 N 1033.19 1.2685 0.935242 0
M  V30 10828 C 1034.61 1.04091 1.20984 0
M  V30 10829 C 1034.81 -0.230242 2.0018 0
M  V30 10830 O 1033.86 -0.93778 2.3444 0
M  V30 10831 C 1035.18 2.27586 1.96533 0
M  V30 10832 C 1036.72 2.32547 2.09501 0
M  V30 10833 C 1037.2 3.55751 2.88454 0
M  V30 10834 N 1038.69 3.56263 2.96025 0
M  V30 10835 C 1039.43 4.48262 3.57559 0
M  V30 10836 N 1038.92 5.50557 4.20546 0
M  V30 10837 N 1040.71 4.35901 3.5489 0
M  V30 10838 H 1032.87 2.08484 0.405954 0
M  V30 10839 H 1035.13 0.916548 0.242164 0
M  V30 10840 H 1034.83 3.20076 1.45753 0
M  V30 10841 H 1034.71 2.32305 2.97177 0
M  V30 10842 H 1037.1 1.40568 2.5947 0
M  V30 10843 H 1037.18 2.31836 1.08101 0
M  V30 10844 H 1036.82 4.48063 2.3917 0
M  V30 10845 H 1036.75 3.53711 3.90123 0
M  V30 10846 H 1039.24 2.82278 2.51252 0
M  V30 10847 H 1039.55 6.16935 4.65415 0
M  V30 10848 H 1037.9 5.54407 4.19115 0
M  V30 10849 H 1041.09 3.552 3.04879 0
M  V30 10850 H 1041.26 5.07792 4.02557 0
M  V30 10851 N 1034.67 -1.14067 1.0875 0
M  V30 10852 C 1035.9 -1.89582 0.841038 0
M  V30 10853 C 1036.32 -1.78226 -0.601436 0
M  V30 10854 O 1035.68 -1.12491 -1.42181 0
M  V30 10855 C 1035.73 -3.37415 1.27213 0
M  V30 10856 O 1034.83 -4.10191 0.426246 0
M  V30 10857 H 1034.17 -0.589716 0.305173 0
M  V30 10858 H 1036.7 -1.44364 1.44984 0
M  V30 10859 H 1036.71 -3.88234 1.25451 0
M  V30 10860 H 1035.39 -3.44999 2.32268 0
M  V30 10861 H 1033.96 -3.69429 0.507585 0
M  V30 10862 N 1036.15 -0.873678 -1.31166 0
M  V30 10863 C 1037.4 -0.485497 -1.96182 0
M  V30 10864 C 1037.72 0.96621 -1.69379 0
M  V30 10865 O 1036.99 1.67783 -1.01121 0
M  V30 10866 H 1035.57 -0.176547 -0.725838 0
M  V30 10867 H 1038.23 -1.11428 -1.59906 0
M  V30 10868 H 1037.33 -0.646325 -3.05334 0
M  V30 10869 N 1037.63 1.44308 -0.633487 0
M  V30 10870 C 1038.88 2.01239 -0.136356 0
M  V30 10871 C 1039.19 1.50438 1.25011 0
M  V30 10872 O 1040.39 1.99513 1.84138 0
M  V30 10873 C 1038.85 3.59382 -0.193011 0
M  V30 10874 C 1038.46 4.19178 -1.58093 0
M  V30 10875 C 1040.2 4.23778 0.247534 0
M  V30 10876 C 1038.11 5.69553 -1.59258 0
M  V30 10877 H 1037.04 0.752521 -0.0472109 0
M  V30 10878 H 1039.69 1.65498 -0.79263 0
M  V30 10879 H 1038.07 3.92432 0.530408 0
M  V30 10880 H 1039.25 3.97662 -2.32813 0
M  V30 10881 H 1037.56 3.67079 -1.96576 0
M  V30 10882 H 1040.16 5.34075 0.258401 0
M  V30 10883 H 1040.5 3.96285 1.27529 0
M  V30 10884 H 1041.03 3.9554 -0.423469 0
M  V30 10885 H 1037.77 6.01784 -2.59878 0
M  V30 10886 H 1037.29 5.93185 -0.888352 0
M  V30 10887 H 1038.97 6.33234 -1.32756 0
M  V30 10888 N 1039.1 0.374177 1.53094 0
M  V30 10889 C 1040.33 -0.215903 2.06273 0
M  V30 10890 C 1040.75 -1.40979 1.24526 0
M  V30 10891 O 1040.11 -1.79331 0.266462 0
M  V30 10892 C 1040.16 -0.579089 3.5592 0
M  V30 10893 O 1039.26 -1.67516 3.76845 0
M  V30 10894 H 1038.61 -0.0293981 0.663349 0
M  V30 10895 H 1041.14 0.537271 1.9742 0
M  V30 10896 H 1041.15 -0.847678 3.99097 0
M  V30 10897 H 1039.82 0.293843 4.14861 0
M  V30 10898 H 1038.4 -1.40146 3.45563 0
M  V30 10899 N 1040.58 -1.57259 0.103575 0
M  V30 10900 C 1041.83 -1.93832 -0.55786 0
M  V30 10901 C 1042.14 -0.988087 -1.68808 0
M  V30 10902 O 1043.35 -1.24786 -2.41124 0
M  V30 10903 C 1041.81 -3.44433 -1.04373 0
M  V30 10904 C 1041.41 -4.47963 0.0571971 0
M  V30 10905 C 1043.16 -3.89953 -1.67742 0
M  V30 10906 C 1041.07 -5.89727 -0.444505 0
M  V30 10907 H 1040 -0.723536 -0.212161 0
M  V30 10908 H 1042.65 -1.82606 0.180944 0
M  V30 10909 H 1041.03 -3.50841 -1.83648 0
M  V30 10910 H 1042.2 -4.53209 0.83298 0
M  V30 10911 H 1040.52 -4.12104 0.596588 0
M  V30 10912 H 1043.11 -4.93272 -2.06365 0
M  V30 10913 H 1043.46 -3.2907 -2.54988 0
M  V30 10914 H 1043.99 -3.86281 -0.950342 0
M  V30 10915 H 1040.73 -6.5433 0.391543 0
M  V30 10916 H 1040.25 -5.87935 -1.18711 0
M  V30 10917 H 1041.93 -6.40558 -0.910739 0
M  V30 10918 N 1042.06 0.170153 -1.56679 0
M  V30 10919 C 1043.01 1.22997 -1.9742 0
M  V30 10920 C 1044 1.45762 -0.863117 0
M  V30 10921 O 1045.21 1.46328 -1.04824 0
M  V30 10922 H 1041.58 0.413482 -0.628122 0
M  V30 10923 H 1043.55 0.859502 -2.85754 0
M  V30 10924 C 1042.3 2.5615 -2.35122 0
M  V30 10925 H 1041.63 2.39456 -3.20158 0
M  V30 10926 H 1043.07 3.28991 -2.67471 0
M  V30 10927 C 1041.53 3.14992 -1.19507 0
M  V30 10928 O 1042.06 3.98781 -0.483357 0
M  V30 10929 N 1040.26 2.74098 -0.965332 0
M  V30 10930 H 1039.81 2.06062 -1.54585 0
M  V30 10931 H 1039.77 3.13803 -0.193611 0
M  V30 10932 N 1043.54 1.5137 0.438746 0
M  V30 10933 C 1044.77 1.67774 1.21077 0
M  V30 10934 C 1045.18 0.374489 1.85049 0
M  V30 10935 O 1044.54 -0.646867 1.70651 0
M  V30 10936 C 1044.59 2.79238 2.29584 0
M  V30 10937 O 1044.31 4.04513 1.68228 0
M  V30 10938 C 1045.81 3.06898 3.19888 0
M  V30 10939 H 1043.03 0.563054 0.364981 0
M  V30 10940 H 1045.58 1.97777 0.520035 0
M  V30 10941 H 1043.73 2.51837 2.94375 0
M  V30 10942 H 1044.14 4.66405 2.3993 0
M  V30 10943 H 1045.62 3.88476 3.92162 0
M  V30 10944 H 1046.1 2.19249 3.80561 0
M  V30 10945 H 1046.7 3.35952 2.60799 0
M  V30 10946 N 1045.02 -0.694098 1.41492 0
M  V30 10947 C 1046.29 -1.44875 1.31418 0
M  V30 10948 C 1046.67 -2.11022 -0.0575538 0
M  V30 10949 O 1046.02 -2.01799 -1.07188 0
M  V30 10950 C 1046.23 -2.46698 2.46863 0
M  V30 10951 C 1047.58 -3.11907 2.88095 0
M  V30 10952 O 1048.6 -2.57022 2.46613 0
M  V30 10953 O 1047.46 -4.11318 3.59833 0
M  V30 10954 H 1044.56 -0.645266 0.517263 0
M  V30 10955 H 1047.1 -0.724452 1.53459 0
M  V30 10956 H 1045.87 -1.96485 3.38392 0
M  V30 10957 H 1045.5 -3.26634 2.26706 0
M  V30 10958 N 1046.49 -1.27344 -0.928501 0
M  V30 10959 C 1047.44 -1.09835 -2.05034 0
M  V30 10960 C 1048.44 -0.0216643 -1.69386 0
M  V30 10961 O 1049.64 -0.179323 -1.79105 0
M  V30 10962 H 1046.02 -0.338416 -0.671549 0
M  V30 10963 H 1047.99 -2.04879 -2.1695 0
M  V30 10964 C 1046.74 -0.761462 -3.3926 0
M  V30 10965 H 1046.06 -1.58186 -3.67175 0
M  V30 10966 H 1047.5 -0.678812 -4.18531 0
M  V30 10967 C 1045.96 0.534118 -3.32639 0
M  V30 10968 O 1046.49 1.56877 -3.69801 0
M  V30 10969 N 1044.7 0.529437 -2.85736 0
M  V30 10970 H 1044.24 -0.312954 -2.55692 0
M  V30 10971 H 1044.2 1.39637 -2.81689 0
M  V30 10972 N 1047.97 1.13488 -1.09353 0
M  V30 10973 C 1048.94 2.17066 -0.735863 0
M  V30 10974 C 1049.94 1.59086 0.234181 0
M  V30 10975 O 1051.13 1.74196 0.012463 0
M  V30 10976 C 1048.26 3.40786 -0.0880975 0
M  V30 10977 H 1049.45 2.50221 -1.65316 0
M  V30 10978 H 1047 1.28304 -0.89263 0
M  V30 10979 H 1047.74 3.1322 0.840462 0
M  V30 10980 H 1047.52 3.8414 -0.786073 0
M  V30 10981 H 1049.01 4.17342 0.146775 0
M  V30 10982 N 1049.45 0.880621 1.30701 0
M  V30 10983 C 1050.73 0.41712 1.91101 0
M  V30 10984 C 1051.11 -1.10177 1.80067 0
M  V30 10985 O 1050.46 -1.93513 1.21511 0
M  V30 10986 C 1050.67 0.910364 3.36917 0
M  V30 10987 C 1052.01 0.942764 4.14001 0
M  V30 10988 O 1053.04 0.856733 3.45743 0
M  V30 10989 O 1051.9 1.06913 5.3594 0
M  V30 10990 H 1048.99 0.126775 0.817225 0
M  V30 10991 H 1051.54 0.969236 1.39298 0
M  V30 10992 H 1050.31 1.95414 3.39012 0
M  V30 10993 H 1049.93 0.337164 3.96168 0
M  V30 10994 N 1050.93 -1.4397 0.641131 0
M  V30 10995 C 1051.86 -2.33458 -0.04446 0
M  V30 10996 C 1052.84 -1.48781 -0.824507 0
M  V30 10997 O 1054.03 -1.77477 -0.788397 0
M  V30 10998 C 1051.16 -3.31989 -1.01984 0
M  V30 10999 C 1050.11 -4.2656 -0.350745 0
M  V30 11000 C 1049.44 -5.15036 -1.43673 0
M  V30 11001 C 1050.74 -5.16897 0.749299 0
M  V30 11002 H 1052.43 -2.91034 0.702832 0
M  V30 11003 H 1049.98 -1.39942 0.339435 0
M  V30 11004 H 1051.93 -3.93483 -1.50828 0
M  V30 11005 H 1050.65 -2.72643 -1.79815 0
M  V30 11006 H 1049.31 -3.66413 0.117139 0
M  V30 11007 H 1048.96 -4.52037 -2.20617 0
M  V30 11008 H 1048.66 -5.79125 -0.994358 0
M  V30 11009 H 1050.18 -5.79403 -1.92678 0
M  V30 11010 H 1051.6 -5.7227 0.343534 0
M  V30 11011 H 1049.99 -5.89643 1.11541 0
M  V30 11012 H 1051.06 -4.5731 1.61232 0
M  V30 11013 N 1052.41 -0.382291 -1.52893 0
M  V30 11014 C 1053.36 0.471187 -2.27778 0
M  V30 11015 C 1054.35 1.0691 -1.31402 0
M  V30 11016 O 1055.56 1.01038 -1.48967 0
M  V30 11017 H 1051.93 0.170696 -0.732371 0
M  V30 11018 H 1053.9 -0.181954 -2.97845 0
M  V30 11019 C 1052.65 1.59012 -3.09209 0
M  V30 11020 H 1051.97 1.13935 -3.83222 0
M  V30 11021 H 1053.41 2.16167 -3.64757 0
M  V30 11022 C 1051.87 2.54212 -2.21084 0
M  V30 11023 O 1052.4 3.57447 -1.83288 0
M  V30 11024 N 1050.61 2.23789 -1.85383 0
M  V30 11025 H 1050.16 1.39872 -2.16318 0
M  V30 11026 H 1050.11 2.87737 -1.26708 0
M  V30 11027 N 1053.89 1.57202 -0.111913 0
M  V30 11028 C 1054.8 2.18475 0.854753 0
M  V30 11029 C 1055.81 1.15888 1.29792 0
M  V30 11030 O 1056.99 1.48329 1.36237 0
M  V30 11031 C 1054.05 2.76645 2.0897 0
M  V30 11032 C 1053.11 3.94244 1.69913 0
M  V30 11033 C 1052.35 4.49631 2.8752 0
M  V30 11034 O 1052.57 4.03926 4.02741 0
M  V30 11035 O 1051.5 5.40417 2.65015 0
M  V30 11036 H 1055.33 3.01519 0.363352 0
M  V30 11037 H 1052.91 1.4897 0.113329 0
M  V30 11038 H 1054.8 3.13755 2.81311 0
M  V30 11039 H 1053.47 1.96637 2.5713 0
M  V30 11040 H 1052.38 3.61915 0.947013 0
M  V30 11041 H 1053.71 4.75666 1.26501 0
M  V30 11042 N 1055.36 -0.161842 1.56767 0
M  V30 11043 C 1056.64 -0.904754 1.73417 0
M  V30 11044 C 1057.02 -1.99987 0.675908 0
M  V30 11045 O 1056.37 -2.26419 -0.307712 0
M  V30 11046 C 1056.58 -1.46082 3.16956 0
M  V30 11047 C 1057.93 -1.93004 3.78199 0
M  V30 11048 O 1058.95 -1.55856 3.20293 0
M  V30 11049 O 1057.81 -2.61465 4.79894 0
M  V30 11050 H 1054.9 -0.426518 0.708528 0
M  V30 11051 H 1057.45 -0.148928 1.69045 0
M  V30 11052 H 1056.22 -0.673087 3.85468 0
M  V30 11053 H 1055.84 -2.28056 3.25693 0
M  V30 11054 N 1056.84 -1.516 -0.430713 0
M  V30 11055 C 1058.09 -1.64271 -1.17726 0
M  V30 11056 C 1058.41 -0.364406 -1.91565 0
M  V30 11057 O 1057.68 0.619991 -1.8583 0
M  V30 11058 H 1056.26 -0.605432 -0.437562 0
M  V30 11059 H 1058.92 -1.88557 -0.493166 0
M  V30 11060 H 1058.02 -2.47355 -1.90321 0
M  V30 11061 N 1058.32 0.686584 -1.41858 0
M  V30 11062 C 1059.74 0.998283 -1.24525 0
M  V30 11063 C 1059.94 2.01006 -0.141007 0
M  V30 11064 O 1058.99 2.47667 0.491648 0
M  V30 11065 C 1060.3 1.51432 -2.59786 0
M  V30 11066 C 1061.85 1.6327 -2.67043 0
M  V30 11067 C 1062.33 2.18274 -4.02642 0
M  V30 11068 N 1063.82 2.25622 -4.04535 0
M  V30 11069 C 1064.55 2.69229 -5.06264 0
M  V30 11070 N 1064.05 3.12375 -6.1838 0
M  V30 11071 N 1065.84 2.68873 -4.93623 0
M  V30 11072 H 1057.99 0.0164825 -2.12394 0
M  V30 11073 H 1060.26 0.0698613 -0.945422 0
M  V30 11074 H 1059.96 0.845426 -3.41388 0
M  V30 11075 H 1059.84 2.49502 -2.82894 0
M  V30 11076 H 1062.22 2.29269 -1.85794 0
M  V30 11077 H 1062.3 0.637221 -2.47736 0
M  V30 11078 H 1061.95 1.52887 -4.84343 0
M  V30 11079 H 1061.88 3.18591 -4.19294 0
M  V30 11080 H 1064.37 1.95186 -3.23591 0
M  V30 11081 H 1064.68 3.44301 -6.91864 0
M  V30 11082 H 1063.03 3.10262 -6.21902 0
M  V30 11083 H 1066.22 2.34521 -4.05114 0
M  V30 11084 H 1066.39 3.02539 -5.7304 0
M  V30 11085 N 1059.8 1.27835 0.921735 0
M  V30 11086 C 1061.04 1.14692 1.67253 0
M  V30 11087 C 1061.38 -0.305384 1.91784 0
M  V30 11088 O 1060.65 -1.22286 1.51249 0
M  V30 11089 C 1060.93 1.93743 3.03539 0
M  V30 11090 C 1060.79 3.46991 2.86212 0
M  V30 11091 C 1062.11 1.74658 4.03959 0
M  V30 11092 H 1059.23 0.418021 0.606983 0
M  V30 11093 H 1061.87 1.5706 1.06922 0
M  V30 11094 H 1060.02 1.57738 3.55037 0
M  V30 11095 H 1061.69 3.92858 2.41785 0
M  V30 11096 H 1059.93 3.73029 2.21432 0
M  V30 11097 H 1060.6 3.97551 3.82958 0
M  V30 11098 H 1063.08 2.06063 3.61493 0
M  V30 11099 H 1061.96 2.32353 4.97296 0
M  V30 11100 H 1062.22 0.696019 4.36587 0
M  V30 11101 N 1061.28 -1.12907 1.09954 0
M  V30 11102 C 1062.22 -2.20561 0.73863 0
M  V30 11103 C 1063.22 -1.67347 -0.262944 0
M  V30 11104 O 1064.42 -1.79574 -0.123834 0
M  V30 11105 H 1060.8 -0.718823 0.220901 0
M  V30 11106 H 1062.77 -2.4826 1.65559 0
M  V30 11107 C 1061.52 -3.47227 0.181239 0
M  V30 11108 H 1060.84 -3.88516 0.943144 0
M  V30 11109 H 1062.28 -4.23987 -0.0332888 0
M  V30 11110 C 1060.74 -3.18956 -1.08485 0
M  V30 11111 O 1061.27 -3.38224 -2.1672 0
M  V30 11112 N 1059.48 -2.72797 -1.00151 0
M  V30 11113 H 1059.02 -2.57317 -0.120645 0
M  V30 11114 H 1058.98 -2.54256 -1.84935 0
M  V30 11115 N 1062.75 -0.88754 -1.30232 0
M  V30 11116 C 1063.98 -0.521562 -2.00735 0
M  V30 11117 C 1064.4 0.883247 -1.66073 0
M  V30 11118 O 1063.76 1.58581 -0.878731 0
M  V30 11119 C 1063.81 -0.706521 -3.53611 0
M  V30 11120 O 1062.91 0.246447 -4.11663 0
M  V30 11121 H 1062.25 -0.205216 -0.631492 0
M  V30 11122 H 1064.78 -1.19579 -1.66018 0
M  V30 11123 H 1064.79 -0.606501 -4.03467 0
M  V30 11124 H 1063.47 -1.73076 -3.78177 0
M  V30 11125 H 1062.05 0.0999062 -3.72766 0
M  V30 11126 N 1064.23 1.43628 -0.648757 0
M  V30 11127 C 1065.46 2.06217 -0.167945 0
M  V30 11128 C 1065.88 1.486 1.16462 0
M  V30 11129 O 1065.23 0.61559 1.71804 0
M  V30 11130 C 1065.28 3.6144 -0.0660114 0
M  V30 11131 O 1065 4.16914 -1.34589 0
M  V30 11132 C 1066.51 4.41097 0.441408 0
M  V30 11133 H 1063.73 0.665228 -0.0878237 0
M  V30 11134 H 1066.27 1.84207 -0.888144 0
M  V30 11135 H 1064.42 3.82651 0.604722 0
M  V30 11136 H 1064.84 5.10537 -1.20218 0
M  V30 11137 H 1066.31 5.50066 0.461697 0
M  V30 11138 H 1066.79 4.13803 1.47187 0
M  V30 11139 H 1067.4 4.24845 -0.19668 0
M  V30 11140 N 1065.71 0.390394 1.52688 0
M  V30 11141 C 1066.99 -0.249068 1.94008 0
M  V30 11142 C 1067.37 -1.64263 1.32593 0
M  V30 11143 O 1066.72 -2.23086 0.494448 0
M  V30 11144 C 1066.93 -0.274318 3.4792 0
M  V30 11145 C 1068.27 -0.502743 4.21613 0
M  V30 11146 O 1069.3 -0.35448 3.54432 0
M  V30 11147 O 1068.16 -0.79334 5.40711 0
M  V30 11148 H 1065.25 -0.155116 0.812323 0
M  V30 11149 H 1067.8 0.44498 1.63762 0
M  V30 11150 H 1066.57 0.701766 3.84956 0
M  V30 11151 H 1066.19 -1.01324 3.84473 0
M  V30 11152 N 1067.19 -1.57141 0.120249 0
M  V30 11153 C 1068.12 -2.18398 -0.826112 0
M  V30 11154 C 1069.1 -1.12439 -1.27638 0
M  V30 11155 O 1070.28 -1.40679 -1.33877 0
M  V30 11156 C 1067.41 -2.78438 -2.0758 0
M  V30 11157 C 1066.37 -3.89991 -1.76327 0
M  V30 11158 C 1065.69 -4.36844 -3.08336 0
M  V30 11159 C 1066.99 -5.12031 -1.03062 0
M  V30 11160 H 1068.69 -2.97731 -0.315656 0
M  V30 11161 H 1066.23 -1.43213 -0.150387 0
M  V30 11162 H 1068.19 -3.19951 -2.74243 0
M  V30 11163 H 1066.91 -1.96396 -2.60953 0
M  V30 11164 H 1065.57 -3.49055 -1.12053 0
M  V30 11165 H 1065.22 -3.51659 -3.59646 0
M  V30 11166 H 1064.92 -5.1207 -2.88199 0
M  V30 11167 H 1066.44 -4.81009 -3.76116 0
M  V30 11168 H 1067.86 -5.50555 -1.59881 0
M  V30 11169 H 1066.25 -5.92848 -0.930146 0
M  V30 11170 H 1067.32 -4.84897 -0.017582 0
M  V30 11171 N 1068.67 0.153526 -1.5685 0
M  V30 11172 C 1069.91 0.865519 -1.82629 0
M  V30 11173 C 1070.24 1.81999 -0.700105 0
M  V30 11174 O 1069.51 1.93907 0.278744 0
M  V30 11175 H 1068.09 0.32261 -0.673745 0
M  V30 11176 H 1070.75 0.149088 -1.94329 0
M  V30 11177 H 1069.84 1.43171 -2.77324 0
M  V30 11178 N 1070.14 1.51827 0.422667 0
M  V30 11179 C 1071.39 1.6445 1.16786 0
M  V30 11180 C 1071.71 0.373792 1.91995 0
M  V30 11181 O 1072.91 0.379621 2.68833 0
M  V30 11182 C 1071.37 2.90488 2.12473 0
M  V30 11183 C 1070.98 4.24617 1.42844 0
M  V30 11184 C 1072.72 3.12472 2.87335 0
M  V30 11185 C 1070.63 5.41791 2.371 0
M  V30 11186 H 1069.56 0.612561 0.439641 0
M  V30 11187 H 1072.21 1.78305 0.433534 0
M  V30 11188 H 1070.59 2.703 2.89402 0
M  V30 11189 H 1071.76 4.55239 0.71372 0
M  V30 11190 H 1070.08 4.08628 0.800769 0
M  V30 11191 H 1072.68 3.9719 3.57973 0
M  V30 11192 H 1073.02 2.26148 3.49518 0
M  V30 11193 H 1073.55 3.33069 2.17509 0
M  V30 11194 H 1070.29 6.3042 1.79584 0
M  V30 11195 H 1069.81 5.15526 3.06583 0
M  V30 11196 H 1071.49 5.74329 2.97918 0
M  V30 11197 N 1071.62 -0.679052 1.4222 0
M  V30 11198 C 1072.55 -1.80481 1.48152 0
M  V30 11199 C 1073.53 -1.66698 0.338502 0
M  V30 11200 O 1074.72 -1.86183 0.552228 0
M  V30 11201 C 1071.85 -3.18746 1.37908 0
M  V30 11202 C 1070.8 -3.47258 2.50192 0
M  V30 11203 C 1070.13 -4.85052 2.25008 0
M  V30 11204 C 1071.43 -3.44576 3.92511 0
M  V30 11205 H 1073.12 -1.75774 2.42371 0
M  V30 11206 H 1070.67 -0.844241 1.16656 0
M  V30 11207 H 1072.62 -3.97229 1.40666 0
M  V30 11208 H 1071.35 -3.24119 0.401806 0
M  V30 11209 H 1070 -2.71133 2.46744 0
M  V30 11210 H 1069.65 -4.8707 1.25584 0
M  V30 11211 H 1069.35 -5.05092 3.00259 0
M  V30 11212 H 1070.88 -5.65825 2.29508 0
M  V30 11213 H 1072.29 -4.13036 3.97585 0
M  V30 11214 H 1070.69 -3.76151 4.67579 0
M  V30 11215 H 1071.76 -2.4323 4.19484 0
M  V30 11216 N 1073.1 -1.28322 -0.914942 0
M  V30 11217 C 1074.05 -1.12146 -2.01722 0
M  V30 11218 C 1075.02 -0.0189279 -1.66089 0
M  V30 11219 O 1076.2 -0.183638 -1.89914 0
M  V30 11220 C 1073.34 -0.78808 -3.35981 0
M  V30 11221 C 1072.46 -1.96954 -3.84491 0
M  V30 11222 C 1071.59 -1.57688 -5.07255 0
M  V30 11223 C 1070.63 -2.72506 -5.48094 0
M  V30 11224 N 1069.77 -2.33741 -6.62049 0
M  V30 11225 H 1074.61 -2.06461 -2.1489 0
M  V30 11226 H 1072.14 -1.0276 -1.05256 0
M  V30 11227 H 1074.1 -0.575546 -4.13211 0
M  V30 11228 H 1072.73 0.118132 -3.22584 0
M  V30 11229 H 1071.78 -2.29423 -3.03429 0
M  V30 11230 H 1073.1 -2.8304 -4.10719 0
M  V30 11231 H 1072.25 -1.32634 -5.92025 0
M  V30 11232 H 1070.99 -0.687291 -4.82833 0
M  V30 11233 H 1069.99 -2.9826 -4.61867 0
M  V30 11234 H 1071.22 -3.62106 -5.74505 0
M  V30 11235 H 1069.16 -1.4725 -6.3926 0
M  V30 11236 H 1069.08 -3.13364 -6.87997 0
M  V30 11237 H 1070.35 -2.11968 -7.50127 0
M  V30 11238 N 1074.58 1.12322 -1.10551 0
M  V30 11239 C 1075.99 1.35858 -0.837543 0
M  V30 11240 C 1076.19 1.94062 0.54241 0
M  V30 11241 O 1075.25 2.1676 1.29505 0
M  V30 11242 C 1076.56 2.299 -1.9382 0
M  V30 11243 C 1078.11 2.43488 -1.96679 0
M  V30 11244 C 1078.59 3.40846 -3.05922 0
M  V30 11245 N 1080.08 3.48404 -3.05236 0
M  V30 11246 C 1080.81 4.2365 -3.86405 0
M  V30 11247 N 1080.31 5.01951 -4.77512 0
M  V30 11248 N 1082.1 4.19068 -3.74618 0
M  V30 11249 H 1074.25 0.729002 -1.99498 0
M  V30 11250 H 1076.52 0.38339 -0.867016 0
M  V30 11251 H 1076.22 1.94309 -2.9315 0
M  V30 11252 H 1076.1 3.30033 -1.82641 0
M  V30 11253 H 1078.48 2.78359 -0.979813 0
M  V30 11254 H 1078.56 1.43239 -2.11934 0
M  V30 11255 H 1078.21 3.06704 -4.04839 0
M  V30 11256 H 1078.14 4.40927 -2.87907 0
M  V30 11257 H 1080.63 2.92545 -2.39219 0
M  V30 11258 H 1080.94 5.56707 -5.36002 0
M  V30 11259 H 1079.29 5.01143 -4.8154 0
M  V30 11260 H 1082.48 3.5698 -3.02792 0
M  V30 11261 H 1082.65 4.77455 -4.38111 0
M  V30 11262 N 1076.06 0.894434 1.2976 0
M  V30 11263 C 1077.29 0.532143 1.99629 0
M  V30 11264 C 1077.69 -0.886234 1.6716 0
M  V30 11265 O 1077.04 -1.59573 0.910065 0
M  V30 11266 C 1077.1 0.638335 3.53787 0
M  V30 11267 C 1076.76 2.02273 4.09798 0
M  V30 11268 C 1077.76 2.99327 4.25087 0
M  V30 11269 C 1075.45 2.33069 4.44954 0
M  V30 11270 C 1077.44 4.25304 4.74758 0
M  V30 11271 C 1075.13 3.59289 4.94322 0
M  V30 11272 C 1076.12 4.55222 5.09178 0
M  V30 11273 O 1075.81 5.79202 5.57477 0
M  V30 11274 H 1075.54 0.203326 0.644697 0
M  V30 11275 H 1078.1 1.2043 1.6639 0
M  V30 11276 H 1076.33 -0.0908338 3.86593 0
M  V30 11277 H 1078.02 0.285956 4.04891 0
M  V30 11278 H 1078.78 2.76849 3.9822 0
M  V30 11279 H 1074.66 1.59162 4.32653 0
M  V30 11280 H 1078.21 5.00189 4.86269 0
M  V30 11281 H 1074.1 3.816 5.20626 0
M  V30 11282 H 1074.87 5.81717 5.75802 0
M  V30 11283 N 1077.53 -1.43282 0.656365 0
M  V30 11284 C 1078.78 -2.00996 0.168354 0
M  V30 11285 C 1079.1 -1.52408 -1.22601 0
M  V30 11286 O 1080.3 -2.02417 -1.80941 0
M  V30 11287 C 1078.76 -3.5903 0.250161 0
M  V30 11288 C 1078.37 -4.1661 1.64742 0
M  V30 11289 C 1080.11 -4.24118 -0.180084 0
M  V30 11290 C 1078.02 -5.66948 1.68299 0
M  V30 11291 H 1076.95 -0.751674 0.0591769 0
M  V30 11292 H 1079.6 -1.64216 0.818859 0
M  V30 11293 H 1077.98 -3.93226 -0.467908 0
M  V30 11294 H 1079.15 -3.93908 2.3911 0
M  V30 11295 H 1077.47 -3.63905 2.02391 0
M  V30 11296 H 1080.07 -5.34419 -0.173401 0
M  V30 11297 H 1080.41 -3.98264 -1.21208 0
M  V30 11298 H 1080.94 -3.94816 0.486343 0
M  V30 11299 H 1077.68 -5.97573 2.69419 0
M  V30 11300 H 1077.2 -5.91697 0.98261 0
M  V30 11301 H 1078.88 -6.31041 1.42813 0
M  V30 11302 N 1079.01 -0.398486 -1.52479 0
M  V30 11303 C 1079.94 0.423498 -2.29627 0
M  V30 11304 C 1080.92 1.05547 -1.33394 0
M  V30 11305 O 1082.11 1.0665 -1.62294 0
M  V30 11306 C 1079.24 1.54612 -3.10986 0
M  V30 11307 C 1078.19 1.03971 -4.15179 0
M  V30 11308 C 1077.52 2.25512 -4.84818 0
M  V30 11309 C 1078.82 0.10121 -5.22202 0
M  V30 11310 H 1080.51 -0.220222 -2.98589 0
M  V30 11311 H 1078.06 -0.107355 -1.43599 0
M  V30 11312 H 1080.01 2.12806 -3.63719 0
M  V30 11313 H 1078.74 2.21756 -2.39774 0
M  V30 11314 H 1077.4 0.480251 -3.63441 0
M  V30 11315 H 1077.04 2.91187 -4.10145 0
M  V30 11316 H 1076.74 1.92285 -5.55248 0
M  V30 11317 H 1078.27 2.84331 -5.40359 0
M  V30 11318 H 1079.68 0.591617 -5.70239 0
M  V30 11319 H 1078.08 -0.141737 -5.99933 0
M  V30 11320 H 1079.15 -0.847216 -4.77441 0
M  V30 11321 N 1080.49 1.57075 -0.12858 0
M  V30 11322 C 1081.44 2.15816 0.818064 0
M  V30 11323 C 1082.41 1.08581 1.25696 0
M  V30 11324 O 1083.59 1.36535 1.33277 0
M  V30 11325 C 1080.73 2.76943 2.05905 0
M  V30 11326 C 1079.85 3.98514 1.66764 0
M  V30 11327 C 1078.98 4.47698 2.85902 0
M  V30 11328 C 1078.02 5.61778 2.43047 0
M  V30 11329 N 1077.16 6.05662 3.5513 0
M  V30 11330 H 1082 2.9638 0.310318 0
M  V30 11331 H 1079.53 1.46418 0.141472 0
M  V30 11332 H 1081.49 3.10519 2.78629 0
M  V30 11333 H 1080.12 1.99053 2.54122 0
M  V30 11334 H 1079.17 3.71038 0.838766 0
M  V30 11335 H 1080.49 4.81215 1.31277 0
M  V30 11336 H 1079.64 4.83233 3.66839 0
M  V30 11337 H 1078.38 3.63967 3.24622 0
M  V30 11338 H 1077.38 5.25838 1.60544 0
M  V30 11339 H 1078.61 6.47282 2.05433 0
M  V30 11340 H 1076.56 5.2487 3.93506 0
M  V30 11341 H 1076.47 6.83242 3.23598 0
M  V30 11342 H 1077.74 6.45838 4.36479 0
M  V30 11343 N 1081.97 -0.145205 1.5693 0
M  V30 11344 C 1082.88 -1.19864 2.01667 0
M  V30 11345 C 1083.9 -1.46909 0.932402 0
M  V30 11346 O 1085.07 -1.58543 1.24201 0
M  V30 11347 C 1082.14 -2.51174 2.38982 0
M  V30 11348 C 1081.2 -2.3176 3.61366 0
M  V30 11349 C 1080.43 -3.56809 3.96892 0
M  V30 11350 O 1080.65 -4.63063 3.33059 0
M  V30 11351 O 1079.59 -3.49366 4.9013 0
M  V30 11352 H 1083.41 -0.848821 2.91597 0
M  V30 11353 H 1081 -0.354063 1.45144 0
M  V30 11354 H 1082.88 -3.28587 2.63835 0
M  V30 11355 H 1081.56 -2.85683 1.52207 0
M  V30 11356 H 1080.46 -1.52293 3.41698 0
M  V30 11357 H 1081.8 -2.02167 4.48764 0
M  V30 11358 N 1083.45 -1.52049 -0.414609 0
M  V30 11359 C 1084.7 -1.65067 -1.15912 0
M  V30 11360 C 1085.01 -0.383969 -1.91794 0
M  V30 11361 O 1086.22 -0.393872 -2.68628 0
M  V30 11362 C 1084.67 -2.91611 -2.1093 0
M  V30 11363 C 1084.28 -4.25369 -1.4059 0
M  V30 11364 C 1086.02 -3.13992 -2.85674 0
M  V30 11365 C 1083.93 -5.43041 -2.34223 0
M  V30 11366 H 1082.86 -0.614884 -0.436387 0
M  V30 11367 H 1085.51 -1.78533 -0.424072 0
M  V30 11368 H 1083.89 -2.71831 -2.87965 0
M  V30 11369 H 1085.07 -4.55611 -0.689568 0
M  V30 11370 H 1083.38 -4.09047 -0.779088 0
M  V30 11371 H 1085.98 -3.99082 -3.55861 0
M  V30 11372 H 1086.32 -2.27998 -3.48314 0
M  V30 11373 H 1086.86 -3.34217 -2.1574 0
M  V30 11374 H 1083.59 -6.31364 -1.76238 0
M  V30 11375 H 1083.11 -5.17144 -3.03845 0
M  V30 11376 H 1084.79 -5.75901 -2.94868 0
M  V30 11377 N 1084.93 0.6715 -1.42579 0
M  V30 11378 C 1086.2 1.42766 -1.33706 0
M  V30 11379 C 1086.58 2.11086 0.0239748 0
M  V30 11380 O 1085.93 2.03479 1.03964 0
M  V30 11381 C 1086.14 2.42739 -2.50756 0
M  V30 11382 C 1087.49 3.07284 -2.93021 0
M  V30 11383 O 1088.51 2.53066 -2.50671 0
M  V30 11384 O 1087.37 4.05541 -3.66331 0
M  V30 11385 H 1084.47 0.636955 -0.527463 0
M  V30 11386 H 1087.01 0.699946 -1.54593 0
M  V30 11387 H 1085.78 1.91076 -3.41476 0
M  V30 11388 H 1085.41 3.22986 -2.31874 0
M  V30 11389 N 1086.4 1.28806 0.908124 0
M  V30 11390 C 1087.63 1.19153 1.69146 0
M  V30 11391 C 1088.05 -0.249056 1.8715 0
M  V30 11392 O 1087.4 -1.16772 1.40251 0
M  V30 11393 C 1087.45 1.89167 3.08055 0
M  V30 11394 O 1087.18 3.27599 2.90879 0
M  V30 11395 C 1088.68 1.85886 4.02444 0
M  V30 11396 H 1085.9 0.413359 0.528559 0
M  V30 11397 H 1088.44 1.7003 1.13622 0
M  V30 11398 H 1086.6 1.42146 3.60379 0
M  V30 11399 H 1087.01 3.62743 3.78837 0
M  V30 11400 H 1088.48 2.39454 4.97359 0
M  V30 11401 H 1088.96 0.832483 4.31238 0
M  V30 11402 H 1089.57 2.32612 3.5605 0
M  V30 11403 N 1087.88 -1.11734 1.11145 0
M  V30 11404 C 1088.81 -2.1976 0.789152 0
M  V30 11405 C 1089.79 -1.68382 -0.241143 0
M  V30 11406 O 1090.98 -1.93914 -0.105292 0
M  V30 11407 C 1088.11 -3.46549 0.228204 0
M  V30 11408 C 1087.06 -4.11123 1.19002 0
M  V30 11409 C 1086.39 -5.32451 0.489928 0
M  V30 11410 C 1087.69 -4.56406 2.53951 0
M  V30 11411 H 1089.38 -2.46978 1.69241 0
M  V30 11412 H 1086.93 -1.18705 0.81517 0
M  V30 11413 H 1088.88 -4.21399 -0.00945908 0
M  V30 11414 H 1087.6 -3.18782 -0.71033 0
M  V30 11415 H 1086.26 -3.38264 1.41326 0
M  V30 11416 H 1085.91 -5.00953 -0.453315 0
M  V30 11417 H 1085.61 -5.76605 1.1314 0
M  V30 11418 H 1087.14 -6.10042 0.260984 0
M  V30 11419 H 1088.55 -5.22592 2.35733 0
M  V30 11420 H 1086.95 -5.11363 3.14051 0
M  V30 11421 H 1088.02 -3.7001 3.13402 0
M  V30 11422 N 1089.36 -0.901303 -1.29284 0
M  V30 11423 C 1090.77 -0.576317 -1.77582 0
M  V30 11424 C 1091.12 0.908078 -1.73921 0
M  V30 11425 O 1090.25 1.71006 -1.32611 0
M  V30 11426 C 1090.84 -1.03938 -3.22463 0
M  V30 11427 C 1089.4 -0.765533 -3.68533 0
M  V30 11428 C 1088.55 -1.21318 -2.49354 0
M  V30 11429 H 1091.5 -1.08386 -1.15923 0
M  V30 11430 H 1091.52 -0.375367 -3.78644 0
M  V30 11431 H 1091.03 -2.11977 -3.25096 0
M  V30 11432 H 1089.13 0.302176 -3.71373 0
M  V30 11433 H 1089.25 -1.36454 -4.59257 0
M  V30 11434 H 1087.61 -0.632141 -2.46731 0
M  V30 11435 H 1088.39 -2.30165 -2.54714 0
M  V30 11436 N 1090.84 1.42931 -0.663954 0
M  V30 11437 C 1092.07 2.05729 -0.189532 0
M  V30 11438 C 1092.48 1.49914 1.15423 0
M  V30 11439 O 1091.82 0.629324 1.72584 0
M  V30 11440 C 1091.88 3.59482 -0.0354748 0
M  V30 11441 C 1091.54 4.37935 -1.30622 0
M  V30 11442 C 1092.54 4.69297 -2.23733 0
M  V30 11443 C 1090.23 4.77761 -1.5508 0
M  V30 11444 C 1092.22 5.39407 -3.39586 0
M  V30 11445 C 1089.91 5.47613 -2.71224 0
M  V30 11446 C 1090.91 5.7836 -3.63302 0
M  V30 11447 O 1090.59 6.46783 -4.77417 0
M  V30 11448 H 1090.33 0.669678 -0.0922342 0
M  V30 11449 H 1092.88 1.84243 -0.907943 0
M  V30 11450 H 1091.11 3.79584 0.738412 0
M  V30 11451 H 1092.8 4.03947 0.397679 0
M  V30 11452 H 1093.56 4.39038 -2.06084 0
M  V30 11453 H 1089.44 4.53229 -0.842863 0
M  V30 11454 H 1092.99 5.63323 -4.11476 0
M  V30 11455 H 1088.88 5.77289 -2.88804 0
M  V30 11456 H 1089.65 6.6527 -4.76821 0
M  V30 11457 N 1092.32 0.406567 1.52266 0
M  V30 11458 C 1093.26 -0.420182 2.26943 0
M  V30 11459 C 1094.23 -1.04323 1.29251 0
M  V30 11460 O 1095.42 -1.06799 1.5811 0
M  V30 11461 C 1092.56 -1.5323 3.09216 0
M  V30 11462 C 1091.67 -0.930419 4.21862 0
M  V30 11463 C 1090.81 -2.01502 4.91498 0
M  V30 11464 C 1089.84 -1.38994 5.9611 0
M  V30 11465 N 1088.98 -2.41458 6.59274 0
M  V30 11466 H 1093.82 0.223066 2.97164 0
M  V30 11467 H 1091.36 0.121842 1.46595 0
M  V30 11468 H 1093.32 -2.18803 3.5522 0
M  V30 11469 H 1091.95 -2.14561 2.41171 0
M  V30 11470 H 1091 -0.163809 3.80047 0
M  V30 11471 H 1092.31 -0.433785 4.9691 0
M  V30 11472 H 1091.46 -2.74807 5.40894 0
M  V30 11473 H 1090.2 -2.5453 4.16012 0
M  V30 11474 H 1089.21 -0.642213 5.46036 0
M  V30 11475 H 1090.43 -0.867386 6.73538 0
M  V30 11476 H 1088.38 -2.93623 5.86619 0
M  V30 11477 H 1088.3 -1.96599 7.2999 0
M  V30 11478 H 1089.56 -3.14341 7.13309 0
M  V30 11479 N 1093.79 -1.57004 0.136909 0
M  V30 11480 C 1094.74 -2.17524 -0.823784 0
M  V30 11481 C 1095.74 -1.1294 -1.26258 0
M  V30 11482 O 1096.94 -1.3121 -1.23223 0
M  V30 11483 H 1093.32 -0.696381 -0.283827 0
M  V30 11484 H 1095.29 -2.96997 -0.289052 0
M  V30 11485 C 1094.04 -2.80331 -2.05693 0
M  V30 11486 H 1093.36 -3.60515 -1.72825 0
M  V30 11487 H 1094.8 -3.26192 -2.70878 0
M  V30 11488 C 1093.26 -1.78322 -2.85837 0
M  V30 11489 O 1093.79 -1.2475 -3.81838 0
M  V30 11490 N 1092 -1.47854 -2.50175 0
M  V30 11491 H 1091.54 -1.9161 -1.72173 0
M  V30 11492 H 1091.5 -0.798464 -3.04092 0
M  V30 11493 O 1095.31 0.00197522 -1.615 0
M  V30 11494 H 1096 0.618911 -1.83546 0
M  V30 END ATOM
M  V30 BEGIN BOND
M  V30 END BOND
M  V30 END CTAB
M  END
$$$$
