448925
  -OEChem-10051720013D

 45 46  0     1  0  0  0  0  0999 V2000
    0.4286   -0.5827    0.0902 O   0  0  0  0  0  0  0  0  0  0  0  0
   -1.5109    0.6151   -0.4125 O   0  0  0  0  0  0  0  0  0  0  0  0
    2.6340    0.9468    1.0676 O   0  0  0  0  0  0  0  0  0  0  0  0
    1.8651   -1.7244   -1.9984 O   0  0  0  0  0  0  0  0  0  0  0  0
   -1.1439   -2.9122    0.5018 O   0  0  0  0  0  0  0  0  0  0  0  0
   -3.8634   -2.3299    1.2963 O   0  0  0  0  0  0  0  0  0  0  0  0
   -3.7039    0.4433    1.4095 O   0  0  0  0  0  0  0  0  0  0  0  0
    4.5312   -1.4892   -0.9018 O   0  0  0  0  0  0  0  0  0  0  0  0
    4.5959   -0.1896    1.6231 O   0  0  0  0  0  0  0  0  0  0  0  0
    1.2471    3.2828    1.4674 O   0  0  0  0  0  0  0  0  0  0  0  0
   -2.4897    2.7128   -1.8896 O   0  0  0  0  0  0  0  0  0  0  0  0
    1.2038    0.2557   -0.7690 C   0  0  2  0  0  0  0  0  0  0  0  0
    2.3604   -0.5488   -1.3634 C   0  0  1  0  0  0  0  0  0  0  0  0
   -0.9210   -0.6833   -0.3633 C   0  0  2  0  0  0  0  0  0  0  0  0
    1.7548    1.4315    0.0450 C   0  0  1  0  0  0  0  0  0  0  0  0
   -1.6765   -1.5920    0.6089 C   0  0  1  0  0  0  0  0  0  0  0  0
   -3.1674   -1.6224    0.2737 C   0  0  2  0  0  0  0  0  0  0  0  0
   -3.7288   -0.2068    0.1373 C   0  0  2  0  0  0  0  0  0  0  0  0
    3.3650   -0.9466   -0.2825 C   0  0  2  0  0  0  0  0  0  0  0  0
   -2.8752    0.5963   -0.8505 C   0  0  1  0  0  0  0  0  0  0  0  0
    3.7780    0.2708    0.5478 C   0  0  1  0  0  0  0  0  0  0  0  0
    0.6521    2.2281    0.7327 C   0  0  0  0  0  0  0  0  0  0  0  0
   -3.3350    2.0446   -0.9702 C   0  0  0  0  0  0  0  0  0  0  0  0
    0.5994    0.6377   -1.6027 H   0  0  0  0  0  0  0  0  0  0  0  0
    2.8636    0.0447   -2.1372 H   0  0  0  0  0  0  0  0  0  0  0  0
   -0.9124   -1.1281   -1.3679 H   0  0  0  0  0  0  0  0  0  0  0  0
    2.3325    2.1066   -0.6000 H   0  0  0  0  0  0  0  0  0  0  0  0
   -1.5225   -1.2740    1.6471 H   0  0  0  0  0  0  0  0  0  0  0  0
   -3.3276   -2.1735   -0.6614 H   0  0  0  0  0  0  0  0  0  0  0  0
   -4.7763   -0.2442   -0.1799 H   0  0  0  0  0  0  0  0  0  0  0  0
   -2.9013    0.1346   -1.8464 H   0  0  0  0  0  0  0  0  0  0  0  0
    2.9455   -1.7345    0.3551 H   0  0  0  0  0  0  0  0  0  0  0  0
    4.3825    0.9645   -0.0503 H   0  0  0  0  0  0  0  0  0  0  0  0
    0.1005    1.6198    1.4554 H   0  0  0  0  0  0  0  0  0  0  0  0
   -0.0437    2.6652    0.0135 H   0  0  0  0  0  0  0  0  0  0  0  0
   -3.2618    2.5772   -0.0167 H   0  0  0  0  0  0  0  0  0  0  0  0
   -4.3654    2.1070   -1.3320 H   0  0  0  0  0  0  0  0  0  0  0  0
    2.6310   -2.2140   -2.3436 H   0  0  0  0  0  0  0  0  0  0  0  0
   -0.1916   -2.8576    0.6917 H   0  0  0  0  0  0  0  0  0  0  0  0
   -3.4640   -3.2142    1.3624 H   0  0  0  0  0  0  0  0  0  0  0  0
   -2.7776    0.6252    1.6416 H   0  0  0  0  0  0  0  0  0  0  0  0
    5.1588   -1.7135   -0.1936 H   0  0  0  0  0  0  0  0  0  0  0  0
    5.1584    0.5561    1.8929 H   0  0  0  0  0  0  0  0  0  0  0  0
    1.7182    3.8537    0.8368 H   0  0  0  0  0  0  0  0  0  0  0  0
   -1.5724    2.5935   -1.5922 H   0  0  0  0  0  0  0  0  0  0  0  0
  1 12  1  0  0  0  0
  1 14  1  0  0  0  0
  2 14  1  0  0  0  0
  2 20  1  0  0  0  0
  3 15  1  0  0  0  0
  3 21  1  0  0  0  0
  4 13  1  0  0  0  0
  4 38  1  0  0  0  0
  5 16  1  0  0  0  0
  5 39  1  0  0  0  0
  6 17  1  0  0  0  0
  6 40  1  0  0  0  0
  7 18  1  0  0  0  0
  7 41  1  0  0  0  0
  8 19  1  0  0  0  0
  8 42  1  0  0  0  0
  9 21  1  0  0  0  0
  9 43  1  0  0  0  0
 10 22  1  0  0  0  0
 10 44  1  0  0  0  0
 11 23  1  0  0  0  0
 11 45  1  0  0  0  0
 12 13  1  0  0  0  0
 12 15  1  0  0  0  0
 12 24  1  0  0  0  0
 13 19  1  0  0  0  0
 13 25  1  0  0  0  0
 14 16  1  0  0  0  0
 14 26  1  0  0  0  0
 15 22  1  0  0  0  0
 15 27  1  0  0  0  0
 16 17  1  0  0  0  0
 16 28  1  0  0  0  0
 17 18  1  0  0  0  0
 17 29  1  0  0  0  0
 18 20  1  0  0  0  0
 18 30  1  0  0  0  0
 19 21  1  0  0  0  0
 19 32  1  0  0  0  0
 20 23  1  0  0  0  0
 20 31  1  0  0  0  0
 21 33  1  0  0  0  0
 22 34  1  0  0  0  0
 22 35  1  0  0  0  0
 23 36  1  0  0  0  0
 23 37  1  0  0  0  0
M  END
> <DATABASE_ID>
DB02743

> <DATABASE_NAME>
drugbank

> <ORIGINAL_SOURCE>
PUBCHEM

> <ORIGINAL_SOURCE_URL>
https://pubchem.ncbi.nlm.nih.gov/rest/pug/compound/inchikey/GUBGYTABKSRVRQ-WWZHPTPQSA-N/SDF?record_type=3d

> <SMILES>
OC[C@H]1O[C@@H](O[C@@H]2[C@H](O)[C@@H](O)[C@H](O)O[C@@H]2CO)[C@H](O)[C@@H](O)[C@H]1O

> <INCHI_IDENTIFIER>
InChI=1S/C12H22O11/c13-1-3-5(15)6(16)9(19)12(22-3)23-10-4(2-14)21-11(20)8(18)7(10)17/h3-20H,1-2H2/t3-,4-,5+,6+,7-,8-,9-,10+,11-,12+/m1/s1

> <INCHI_KEY>
GUBGYTABKSRVRQ-WWZHPTPQSA-N

> <FORMULA>
C12H22O11

> <MOLECULAR_WEIGHT>
342.297

> <EXACT_MASS>
342.116211528

> <JCHEM_ACCEPTOR_COUNT>
11

> <JCHEM_ATOM_COUNT>
45

> <JCHEM_AVERAGE_POLARIZABILITY>
30.942948106364117

> <JCHEM_BIOAVAILABILITY>
0

> <JCHEM_DONOR_COUNT>
8

> <JCHEM_FORMAL_CHARGE>
0

> <JCHEM_GHOSE_FILTER>
0

> <JCHEM_IUPAC>
(2R,3R,4R,5R,6R)-6-(hydroxymethyl)-5-{[(2S,3R,4S,5R,6R)-3,4,5-trihydroxy-6-(hydroxymethyl)oxan-2-yl]oxy}oxane-2,3,4-triol

> <ALOGPS_LOGP>
-3.01

> <JCHEM_LOGP>
-4.703374863666666

> <ALOGPS_LOGS>
0.23

> <JCHEM_MDDR_LIKE_RULE>
0

> <JCHEM_NUMBER_OF_RINGS>
2

> <JCHEM_PHYSIOLOGICAL_CHARGE>
0

> <JCHEM_PKA>
12.17368931723461

> <JCHEM_PKA_STRONGEST_ACIDIC>
11.254374125721942

> <JCHEM_PKA_STRONGEST_BASIC>
-2.9810835652988272

> <JCHEM_POLAR_SURFACE_AREA>
189.52999999999997

> <JCHEM_REFRACTIVITY>
68.3367

> <JCHEM_ROTATABLE_BOND_COUNT>
4

> <JCHEM_RULE_OF_FIVE>
0

> <ALOGPS_SOLUBILITY>
5.86e+02 g/l

> <JCHEM_TRADITIONAL_IUPAC>
(2R,3R,4R,5R,6R)-6-(hydroxymethyl)-5-{[(2S,3R,4S,5R,6R)-3,4,5-trihydroxy-6-(hydroxymethyl)oxan-2-yl]oxy}oxane-2,3,4-triol

> <JCHEM_VEBER_RULE>
0

> <DRUGBANK_ID>
DB02743

> <SECONDARY_ACCESSION_NUMBERS>
EXPT00610

> <DRUG_GROUPS>
experimental

> <GENERIC_NAME>
beta-D-galactopyranosyl-(1->4)-beta-D-galactopyranose

> <SYNONYMS>
4-O-β-D-galactopyranosyl-β-D-galactopyranose; Galactobiose; β-D-galactopyranosyl-(1→4)-β-D-galactopyranose; β-D-Galp-(1→4)-β-D-Galp

$$$$