drugbank_target|Q08289 Voltage-dependent L-type calcium channel subunit beta-2 (DB00270; DB00393; DB00401; DB00622; DB01023; DB01054; DB01115; DB01388; DB04855; DB06712)
 OpenBabel12092120093D

  0  0  0     0  0            999 V3000
M  V30 BEGIN CTAB
M  V30 COUNTS 10222 10326 0 0 0
M  V30 BEGIN ATOM
M  V30 1 H -0.908 1.98254 -0.117106 0
M  V30 2 N 0 1.576 0 0
M  V30 3 C 0.933 2.03868 1.02534 0
M  V30 4 C 1.911 0.928543 1.3348 0
M  V30 5 O 3.095 1.19667 1.45644 0
M  V30 6 C 0.222 2.43627 2.35294 0
M  V30 7 C -0.732 3.65373 2.2001 0
M  V30 8 S 0.101 5.13292 1.52614 0
M  V30 9 C 1.257 5.56322 2.86805 0
M  V30 10 H 1.49 2.90518 0.631377 0
M  V30 11 H -0.977 1.52953 0.210867 0
M  V30 12 H 0.981 2.67203 3.11629 0
M  V30 13 H -0.358 1.57376 2.7183 0
M  V30 14 H -1.165 3.90944 3.18086 0
M  V30 15 H -1.563 3.418 1.51819 0
M  V30 16 H 0.729 5.58782 3.83104 0
M  V30 17 H 1.672 6.56266 2.65933 0
M  V30 18 H 2.08 4.83886 2.90714 0
M  V30 19 N 1.4781 -0.272755 1.55222 0
M  V30 20 C 2.7241 -1.00581 1.761 0
M  V30 21 C 3.0571 -1.85932 0.560625 0
M  V30 22 O 2.3321 -1.89416 -0.441801 0
M  V30 23 C 2.6151 -1.88816 3.06628 0
M  V30 24 C 2.4681 -1.06457 4.37021 0
M  V30 25 C 3.7871 -2.8752 3.33197 0
M  V30 26 H 0.9061 -0.364244 0.640699 0
M  V30 27 H 3.5481 -0.278189 1.87952 0
M  V30 28 H 1.6981 -2.50856 2.96654 0
M  V30 29 H 3.3701 -0.464863 4.58952 0
M  V30 30 H 1.6131 -0.368043 4.32236 0
M  V30 31 H 2.2841 -1.71514 5.24678 0
M  V30 32 H 4.7601 -2.35615 3.42965 0
M  V30 33 H 3.6361 -3.46399 4.25792 0
M  V30 34 H 3.8971 -3.62657 2.52849 0
M  V30 35 N 2.9562 -1.48159 -0.537278 0
M  V30 36 C 3.8882 -1.58218 -1.65831 0
M  V30 37 C 4.9012 -0.466948 -1.5596 0
M  V30 38 O 6.0902 -0.73747 -1.62553 0
M  V30 39 C 3.1902 -1.48906 -3.04434 0
M  V30 40 C 2.3632 -2.75343 -3.3986 0
M  V30 41 C 1.4222 -2.59588 -4.57712 0
M  V30 42 O 0.4482 -3.33457 -4.61297 0
M  V30 43 N 1.6502 -1.68724 -5.55439 0
M  V30 44 H 4.4152 -2.54891 -1.57641 0
M  V30 45 H 1.9762 -1.4479 -0.724386 0
M  V30 46 H 3.9682 -1.36072 -3.81139 0
M  V30 47 H 2.5382 -0.602368 -3.06741 0
M  V30 48 H 1.7582 -3.02795 -2.52406 0
M  V30 49 H 3.0462 -3.5924 -3.60311 0
M  V30 50 H 2.4442 -1.07898 -5.55315 0
M  V30 51 H 1.0012 -1.61832 -6.3139 0
M  V30 52 N 4.4343 0.785586 -1.36625 0
M  V30 53 C 5.8503 1.08419 -1.17122 0
M  V30 54 C 6.0503 2.015 0.00208491 0
M  V30 55 O 5.1063 2.43551 0.666278 0
M  V30 56 C 6.4193 1.69498 -2.48377 0
M  V30 57 C 7.9673 1.81821 -2.54775 0
M  V30 58 C 8.4423 2.46315 -3.86126 0
M  V30 59 N 9.9333 2.53779 -3.87492 0
M  V30 60 C 10.6683 3.045 -4.85868 0
M  V30 61 N 10.1643 3.55499 -5.94637 0
M  V30 62 N 11.9573 3.03247 -4.73284 0
M  V30 63 H 4.1083 0.167264 -2.1174 0
M  V30 64 H 6.3713 0.13682 -0.938075 0
M  V30 65 H 6.0773 1.08571 -3.34522 0
M  V30 66 H 5.9513 2.6896 -2.64462 0
M  V30 67 H 8.3383 2.41884 -1.69045 0
M  V30 68 H 8.4193 0.811532 -2.42586 0
M  V30 69 H 8.0633 1.86895 -4.72263 0
M  V30 70 H 7.9933 3.47561 -3.95612 0
M  V30 71 H 10.4843 2.17672 -3.08913 0
M  V30 72 H 10.7973 3.92562 -6.65669 0
M  V30 73 H 9.1423 3.5364 -5.98301 0
M  V30 74 H 12.3333 2.62696 -3.87438 0
M  V30 75 H 12.5063 3.42467 -5.50109 0
M  V30 76 N 5.9124 1.20967 1.01018 0
M  V30 77 C 7.1894 0.93264 1.71934 0
M  V30 78 C 7.5694 -0.55692 2.03621 0
M  V30 79 O 6.9174 -1.52035 1.7058 0
M  V30 80 C 7.1274 1.81233 2.98254 0
M  V30 81 C 8.4754 2.05804 3.71389 0
M  V30 82 O 9.4994 1.78539 3.08225 0
M  V30 83 O 8.3584 2.51888 4.84989 0
M  V30 84 H 5.4524 0.349272 0.749625 0
M  V30 85 H 7.9984 1.31871 1.06808 0
M  V30 86 H 6.7704 2.82067 2.71208 0
M  V30 87 H 6.3934 1.42674 3.7112 0
M  V30 88 N 7.3905 -1.2043 1.01659 0
M  V30 89 C 8.3235 -2.21924 0.531521 0
M  V30 90 C 9.3015 -1.57054 -0.421032 0
M  V30 91 O 10.4855 -1.85389 -0.341035 0
M  V30 92 C 7.6125 -3.37942 -0.226496 0
M  V30 93 C 6.6585 -4.21115 0.67561 0
M  V30 94 S 7.4915 -4.90674 2.14475 0
M  V30 95 C 8.6475 -6.10113 1.3969 0
M  V30 96 H 8.8805 -2.62725 1.3915 0
M  V30 97 H 6.4135 -1.30481 0.825479 0
M  V30 98 H 8.3715 -4.05196 -0.657738 0
M  V30 99 H 7.0325 -2.956 -1.06205 0
M  V30 100 H 6.2255 -5.03918 0.091108 0
M  V30 101 H 5.8275 -3.59115 1.04463 0
M  V30 102 H 8.1195 -6.7411 0.676897 0
M  V30 103 H 9.0625 -6.73022 2.20107 0
M  V30 104 H 9.4705 -5.57283 0.899786 0
M  V30 105 N 8.8686 -0.792821 -1.36206 0
M  V30 106 C 10.0936 -0.377701 -2.03932 0
M  V30 107 C 10.5186 0.998947 -1.59382 0
M  V30 108 O 9.8766 1.64421 -0.763903 0
M  V30 109 C 9.9246 -0.453635 -3.57735 0
M  V30 110 O 9.0286 0.538151 -4.08874 0
M  V30 111 H 8.3696 -0.159855 -0.644471 0
M  V30 112 H 10.8996 -1.07488 -1.7409 0
M  V30 113 H 10.9096 -0.318464 -4.06755 0
M  V30 114 H 9.5846 -1.45784 -3.89512 0
M  V30 115 H 8.1616 0.364359 -3.71116 0
M  V30 116 N 10.3467 1.47872 -0.545128 0
M  V30 117 C 11.2937 2.29849 0.2093 0
M  V30 118 C 12.2637 1.38313 0.919707 0
M  V30 119 O 13.4487 1.67277 0.917772 0
M  V30 120 C 10.5887 3.22019 1.24088 0
M  V30 121 C 9.7017 4.2864 0.537778 0
M  V30 122 C 8.8367 5.07973 1.5536 0
M  V30 123 C 7.8757 6.06381 0.8348 0
M  V30 124 N 7.0127 6.78717 1.79688 0
M  V30 125 H 11.8527 2.93845 -0.49591 0
M  V30 126 H 9.3897 1.44848 -0.256389 0
M  V30 127 H 11.3477 3.73868 1.85144 0
M  V30 128 H 9.9777 2.59914 1.91428 0
M  V30 129 H 9.0297 3.7994 -0.187046 0
M  V30 130 H 10.3417 4.98793 -0.0258907 0
M  V30 131 H 9.4957 5.63912 2.23803 0
M  V30 132 H 8.2347 4.37693 2.15118 0
M  V30 133 H 7.2397 5.49631 0.136388 0
M  V30 134 H 8.4647 6.78665 0.24313 0
M  V30 135 H 6.4107 6.11177 2.38326 0
M  V30 136 H 6.3277 7.44998 1.28505 0
M  V30 137 H 7.5957 7.39237 2.47282 0
M  V30 138 N 11.8248 0.280983 1.55075 0
M  V30 139 C 13.0498 -0.340154 2.04592 0
M  V30 140 C 13.4748 -1.48246 1.15779 0
M  V30 141 O 12.8328 -1.80614 0.15761 0
M  V30 142 C 12.8808 -0.793104 3.5177 0
M  V30 143 O 11.9848 -1.89981 3.66034 0
M  V30 144 H 11.3258 -0.0694289 0.66036 0
M  V30 145 H 13.8558 0.416993 2.00306 0
M  V30 146 H 13.8658 -1.08729 3.93245 0
M  V30 147 H 12.5408 0.0426163 4.15878 0
M  V30 148 H 11.1178 -1.60771 3.36463 0
M  V30 149 N 13.3029 -1.57598 0.00835791 0
M  V30 150 C 14.7139 -1.7892 -0.53333 0
M  V30 151 C 15.0649 -0.916609 -1.73473 0
M  V30 152 O 14.1899 -0.121336 -2.1606 0
M  V30 153 C 14.7849 -3.24488 -0.974313 0
M  V30 154 C 13.3439 -3.46878 -1.46125 0
M  V30 155 C 12.4909 -2.74157 -0.416302 0
M  V30 156 H 15.4419 -1.56958 0.234495 0
M  V30 157 H 15.4629 -3.3306 -1.83988 0
M  V30 158 H 14.9749 -3.87972 -0.099718 0
M  V30 159 H 13.0759 -2.8862 -2.35646 0
M  V30 160 H 13.1889 -4.55572 -1.48295 0
M  V30 161 H 11.5529 -2.39022 -0.87981 0
M  V30 162 H 12.3359 -3.40345 0.44947 0
M  V30 163 N 14.781 0.264519 -1.55364 0
M  V30 164 C 16.192 0.834936 -1.6699 0
M  V30 165 C 16.543 1.86718 -0.602552 0
M  V30 166 O 15.668 2.14899 0.254425 0
M  V30 167 C 16.263 1.5212 -3.02729 0
M  V30 168 C 14.822 2.03954 -3.16354 0
M  V30 169 C 13.969 0.884498 -2.62815 0
M  V30 170 H 16.92 0.0406869 -1.58648 0
M  V30 171 H 16.941 2.38853 -2.96191 0
M  V30 172 H 16.453 0.769668 -3.80392 0
M  V30 173 H 14.554 2.82041 -2.43482 0
M  V30 174 H 14.667 2.24902 -4.23032 0
M  V30 175 H 13.031 1.2802 -2.20188 0
M  V30 176 H 13.814 0.14634 -3.42988 0
M  V30 177 N 16.2591 1.48442 0.529413 0
M  V30 178 C 17.4871 1.60151 1.30994 0
M  V30 179 C 17.9021 0.261985 1.86973 0
M  V30 180 O 17.2591 -0.748805 1.66431 0
M  V30 181 C 17.3101 2.64854 2.46038 0
M  V30 182 O 17.0311 3.93608 1.92365 0
M  V30 183 C 18.5321 2.87007 3.37849 0
M  V30 184 H 15.7521 0.539971 0.398338 0
M  V30 185 H 18.2961 1.94273 0.638597 0
M  V30 186 H 16.4511 2.33589 3.09055 0
M  V30 187 H 16.8651 4.51055 2.67675 0
M  V30 188 H 18.3391 3.64068 4.14919 0
M  V30 189 H 18.8161 1.95852 3.93114 0
M  V30 190 H 19.4221 3.19579 2.80623 0
M  V30 191 N 17.7372 -0.778329 1.37039 0
M  V30 192 C 18.7002 -1.87301 1.32102 0
M  V30 193 C 19.7002 -1.59198 0.226405 0
M  V30 194 O 20.8902 -1.67403 0.481861 0
M  V30 195 C 18.0222 -3.24309 1.05055 0
M  V30 196 H 19.2152 -1.93093 2.29467 0
M  V30 197 H 16.7682 -0.977358 1.21973 0
M  V30 198 H 17.5032 -3.24196 0.0819373 0
M  V30 199 H 17.2882 -3.46098 1.84279 0
M  V30 200 H 18.7782 -4.04382 1.04234 0
M  V30 201 N 19.2153 -1.21501 -1.00376 0
M  V30 202 C 20.1783 -0.976927 -2.07337 0
M  V30 203 C 21.1783 0.0525322 -1.60714 0
M  V30 204 O 22.3683 -0.184869 -1.73216 0
M  V30 205 C 19.5003 -0.473423 -3.37597 0
M  V30 206 H 20.6933 -1.92587 -2.29892 0
M  V30 207 H 18.2463 -1.03217 -1.17371 0
M  V30 208 H 18.9813 0.480379 -3.20722 0
M  V30 209 H 18.7663 -1.216 -3.72768 0
M  V30 210 H 20.2563 -0.32675 -4.1632 0
M  V30 211 N 20.6934 1.19889 -1.02296 0
M  V30 212 C 21.6564 2.21116 -0.603351 0
M  V30 213 C 22.6564 1.5738 0.329884 0
M  V30 214 O 23.8464 1.73802 0.117702 0
M  V30 215 C 20.9784 3.40696 0.117992 0
M  V30 216 H 22.1714 2.59754 -1.49893 0
M  V30 217 H 19.7244 1.33463 -0.813468 0
M  V30 218 H 20.4594 3.07569 1.0282 0
M  V30 219 H 20.2444 3.88188 -0.552511 0
M  V30 220 H 21.7344 4.15692 0.398696 0
M  V30 221 N 22.1715 0.800033 1.35784 0
M  V30 222 C 23.1345 0.211565 2.28221 0
M  V30 223 C 24.1345 -0.59728 1.49296 0
M  V30 224 O 25.3245 -0.416721 1.69142 0
M  V30 225 C 22.4565 -0.705846 3.33513 0
M  V30 226 H 23.6495 1.02677 2.81776 0
M  V30 227 H 21.2025 0.570211 1.45528 0
M  V30 228 H 21.9375 -1.54498 2.85133 0
M  V30 229 H 21.7225 -0.127655 3.91892 0
M  V30 230 H 23.2125 -1.11211 4.02519 0
M  V30 231 N 23.6496 -1.47581 0.552962 0
M  V30 232 C 24.8956 -2.02782 0.0273648 0
M  V30 233 C 25.2286 -1.42687 -1.31734 0
M  V30 234 O 24.5036 -0.580897 -1.85623 0
M  V30 235 C 24.7866 -3.60031 -0.0702371 0
M  V30 236 C 24.6396 -4.30566 1.30126 0
M  V30 237 C 25.9586 -4.33028 -0.785771 0
M  V30 238 H 23.0776 -0.736912 0.0114185 0
M  V30 239 H 25.7196 -1.76056 0.714432 0
M  V30 240 H 23.8696 -3.82932 -0.655382 0
M  V30 241 H 25.5416 -4.19018 1.92929 0
M  V30 242 H 23.7846 -3.91086 1.87709 0
M  V30 243 H 24.4556 -5.39114 1.18573 0
M  V30 244 H 26.9316 -4.15095 -0.288982 0
M  V30 245 H 25.8076 -5.42695 -0.823013 0
M  V30 246 H 26.0686 -4.01945 -1.841 0
M  V30 247 N 25.1277 -0.289203 -1.54924 0
M  V30 248 C 26.0907 0.579144 -2.21762 0
M  V30 249 C 27.0907 1.07047 -1.1999 0
M  V30 250 O 28.2807 0.968384 -1.44803 0
M  V30 251 C 25.4127 1.80055 -2.8947 0
M  V30 252 H 26.6057 -0.00464908 -2.999 0
M  V30 253 H 24.1587 -0.0399306 -1.56249 0
M  V30 254 H 24.8937 2.42449 -2.15381 0
M  V30 255 H 24.6787 1.45602 -3.64064 0
M  V30 256 H 26.1687 2.41773 -3.40493 0
M  V30 257 N 26.6058 1.57591 -0.0167156 0
M  V30 258 C 27.5378 2.06343 0.997753 0
M  V30 259 C 28.5508 0.984469 1.29661 0
M  V30 260 O 29.7398 1.26093 1.26344 0
M  V30 261 C 26.8398 2.46255 2.32834 0
M  V30 262 C 26.0128 3.77083 2.21646 0
M  V30 263 C 25.0718 4.0368 3.37534 0
M  V30 264 O 24.0978 4.7411 3.14973 0
M  V30 265 N 25.2998 3.52881 4.60929 0
M  V30 266 H 28.0648 2.93997 0.581875 0
M  V30 267 H 25.6258 1.61002 0.170316 0
M  V30 268 H 27.6178 2.61149 3.09166 0
M  V30 269 H 26.1878 1.64032 2.66106 0
M  V30 270 H 25.4078 3.72106 1.30119 0
M  V30 271 H 26.6958 4.62822 2.11361 0
M  V30 272 H 26.0938 2.95878 4.82154 0
M  V30 273 H 24.6508 3.73076 5.34469 0
M  V30 274 N 28.0839 -0.256276 1.55502 0
M  V30 275 C 28.9939 -1.33882 1.92647 0
M  V30 276 C 30.0099 -1.53159 0.825727 0
M  V30 277 O 31.1859 -1.66963 1.12629 0
M  V30 278 C 28.2509 -2.6751 2.20543 0
M  V30 279 C 27.3119 -2.56836 3.43997 0
M  V30 280 C 26.5449 -3.84092 3.70553 0
M  V30 281 O 26.7679 -4.85545 2.99336 0
M  V30 282 O 25.7019 -3.83288 4.64084 0
M  V30 283 H 29.5279 -1.05374 2.84833 0
M  V30 284 H 27.1129 -0.456237 1.42263 0
M  V30 285 H 28.9949 -3.46492 2.39835 0
M  V30 286 H 27.6699 -2.9577 1.31536 0
M  V30 287 H 26.5769 -1.76172 3.30021 0
M  V30 288 H 27.9099 -2.33523 4.33275 0
M  V30 289 N 29.562 -1.4872 -0.521534 0
M  V30 290 C 30.811 -1.56419 -1.27341 0
M  V30 291 C 31.124 -0.246805 -1.94037 0
M  V30 292 O 32.33 -0.202122 -2.70747 0
M  V30 293 C 30.786 -2.75896 -2.31105 0
M  V30 294 C 30.394 -4.14311 -1.70441 0
M  V30 295 C 32.138 -2.92913 -3.07249 0
M  V30 296 C 30.045 -5.25038 -2.72194 0
M  V30 297 H 28.975 -0.582344 -0.478949 0
M  V30 298 H 31.626 -1.75071 -0.549779 0
M  V30 299 H 30.008 -2.50697 -3.06541 0
M  V30 300 H 31.182 -4.49564 -1.01136 0
M  V30 301 H 29.497 -4.02482 -1.06759 0
M  V30 302 H 32.094 -3.72805 -3.83302 0
M  V30 303 H 32.437 -2.02689 -3.63625 0
M  V30 304 H 32.97 -3.18054 -2.38928 0
M  V30 305 H 29.709 -6.17255 -2.20627 0
M  V30 306 H 29.229 -4.94263 -3.39801 0
M  V30 307 H 30.908 -5.53508 -3.35019 0
M  V30 308 N 31.0401 0.771051 -1.3745 0
M  V30 309 C 31.9721 1.89352 -1.29146 0
M  V30 310 C 32.9851 1.61477 -0.207124 0
M  V30 311 O 34.1741 1.72382 -0.463324 0
M  V30 312 C 31.2741 3.24596 -0.974195 0
M  V30 313 C 30.4471 3.80111 -2.16413 0
M  V30 314 C 29.5061 4.93832 -1.81703 0
M  V30 315 O 28.5321 5.09382 -2.54006 0
M  V30 316 N 29.7341 5.75483 -0.761573 0
M  V30 317 H 32.4991 1.96991 -2.25864 0
M  V30 318 H 30.0601 0.950191 -1.31084 0
M  V30 319 H 32.0521 3.98193 -0.722828 0
M  V30 320 H 30.6221 3.12454 -0.0955527 0
M  V30 321 H 29.8421 2.98284 -2.57721 0
M  V30 322 H 31.1301 4.13932 -2.95867 0
M  V30 323 H 30.5281 5.65469 -0.161609 0
M  V30 324 H 29.0851 6.49302 -0.570064 0
M  V30 325 N 32.5182 1.22032 0.997298 0
M  V30 326 C 33.4512 0.929735 2.08401 0
M  V30 327 C 34.4292 -0.125681 1.62114 0
M  V30 328 O 35.6132 0.00495409 1.88499 0
M  V30 329 C 32.7402 0.397488 3.3636 0
M  V30 330 C 31.7862 1.4369 4.01566 0
M  V30 331 S 32.6192 3.00874 4.42984 0
M  V30 332 C 33.7752 2.49276 5.74119 0
M  V30 333 H 34.0082 1.84998 2.32729 0
M  V30 334 H 31.5412 1.0509 1.13117 0
M  V30 335 H 33.4992 0.0969846 4.10385 0
M  V30 336 H 32.1602 -0.501571 3.10069 0
M  V30 337 H 31.3532 1.01427 4.93689 0
M  V30 338 H 30.9552 1.68588 3.33847 0
M  V30 339 H 33.2472 1.90242 6.50242 0
M  V30 340 H 34.1902 3.39872 6.21203 0
M  V30 341 H 34.5982 1.90714 5.31308 0
M  V30 342 N 33.9963 -1.19345 1.0293 0
M  V30 343 C 34.9063 -2.26245 0.620515 0
M  V30 344 C 35.9223 -1.70486 -0.347928 0
M  V30 345 O 37.0983 -2.00347 -0.205704 0
M  V30 346 C 34.1633 -3.46693 -0.0218957 0
M  V30 347 C 33.2243 -4.17632 0.994102 0
M  V30 348 C 32.4573 -5.32329 0.382253 0
M  V30 349 O 32.6803 -5.64552 -0.814676 0
M  V30 350 O 31.6143 -5.91664 1.10531 0
M  V30 351 H 35.4403 -2.63453 1.51083 0
M  V30 352 H 33.0253 -1.26207 0.799513 0
M  V30 353 H 34.9073 -4.19683 -0.380072 0
M  V30 354 H 33.5823 -3.11333 -0.886209 0
M  V30 355 H 32.4893 -3.4676 1.40387 0
M  V30 356 H 33.8223 -4.56964 1.8288 0
M  V30 357 N 35.4744 -0.807222 -1.35358 0
M  V30 358 C 36.4044 -0.232509 -2.3234 0
M  V30 359 C 37.3854 0.642386 -1.57504 0
M  V30 360 O 38.5704 0.572526 -1.85569 0
M  V30 361 C 35.7004 0.619238 -3.41735 0
M  V30 362 C 34.6544 -0.157215 -4.27711 0
M  V30 363 C 33.9804 0.816273 -5.28433 0
M  V30 364 C 35.2804 -1.35656 -5.04376 0
M  V30 365 H 36.9744 -1.04276 -2.80654 0
M  V30 366 H 34.5204 -0.50288 -1.34934 0
M  V30 367 H 36.4734 1.03137 -4.08584 0
M  V30 368 H 35.1974 1.46239 -2.92031 0
M  V30 369 H 33.8564 -0.550525 -3.62443 0
M  V30 370 H 33.5044 1.65494 -4.74996 0
M  V30 371 H 33.2044 0.301067 -5.86828 0
M  V30 372 H 34.7284 1.22659 -5.98153 0
M  V30 373 H 36.1424 -1.01927 -5.64166 0
M  V30 374 H 34.5394 -1.8063 -5.7227 0
M  V30 375 H 35.6094 -2.14288 -4.34981 0
M  V30 376 N 36.9525 1.47285 -0.560781 0
M  V30 377 C 37.8825 2.32857 0.173105 0
M  V30 378 C 38.8635 1.44009 0.905281 0
M  V30 379 O 40.0485 1.7286 0.885046 0
M  V30 380 C 37.1785 3.25861 1.20133 0
M  V30 381 C 36.1325 4.23978 0.585388 0
M  V30 382 C 35.4585 5.06332 1.7185 0
M  V30 383 C 36.7585 5.20242 -0.463178 0
M  V30 384 H 38.4525 2.94466 -0.541307 0
M  V30 385 H 35.9985 1.41601 -0.261764 0
M  V30 386 H 37.9515 3.84569 1.72293 0
M  V30 387 H 36.6755 2.62315 1.94573 0
M  V30 388 H 35.3345 3.66501 0.085054 0
M  V30 389 H 34.9825 4.39186 2.45203 0
M  V30 390 H 34.6825 5.72762 1.31213 0
M  V30 391 H 36.2065 5.67899 2.24329 0
M  V30 392 H 37.6205 5.73293 -0.027502 0
M  V30 393 H 36.0175 5.94896 -0.788627 0
M  V30 394 H 37.0875 4.65504 -1.35773 0
M  V30 395 N 38.4306 0.297415 1.54768 0
M  V30 396 C 39.3406 -0.58983 2.27064 0
M  V30 397 C 40.3566 -1.15144 1.30453 0
M  V30 398 O 41.5326 -1.17699 1.63428 0
M  V30 399 C 38.5976 -1.74714 2.9946 0
M  V30 400 C 37.6586 -1.21997 4.11601 0
M  V30 401 C 36.8916 -2.32212 4.80535 0
M  V30 402 O 37.1146 -3.52036 4.48806 0
M  V30 403 O 36.0486 -1.99106 5.68014 0
M  V30 404 H 39.8746 -0.00348199 3.037 0
M  V30 405 H 37.4596 0.0640035 1.49263 0
M  V30 406 H 39.3416 -2.42147 3.44881 0
M  V30 407 H 38.0166 -2.32016 2.25722 0
M  V30 408 H 36.9236 -0.511458 3.70587 0
M  V30 409 H 38.2566 -0.692419 4.87305 0
M  V30 410 N 39.9087 -1.5758 0.0250728 0
M  V30 411 C 40.8567 -2.11125 -0.97617 0
M  V30 412 C 41.8507 -1.03689 -1.33959 0
M  V30 413 O 43.0567 -1.22128 -1.3223 0
M  V30 414 H 39.4317 -0.674468 -0.332561 0
M  V30 415 H 41.4027 -2.94194 -0.499223 0
M  V30 416 C 40.1517 -2.65017 -2.2508 0
M  V30 417 H 39.4747 -3.47333 -1.9799 0
M  V30 418 H 40.9147 -3.06133 -2.93357 0
M  V30 419 C 39.3737 -1.57574 -2.97779 0
M  V30 420 O 39.9037 -0.973203 -3.89733 0
M  V30 421 N 38.1097 -1.29716 -2.60043 0
M  V30 422 H 37.6567 -1.789 -1.85345 0
M  V30 423 H 37.6147 -0.58051 -3.08994 0
M  V30 424 N 41.3868 0.248026 -1.55636 0
M  V30 425 C 42.6328 0.97767 -1.77678 0
M  V30 426 C 42.9658 1.85016 -0.590135 0
M  V30 427 O 42.2408 1.90095 0.411611 0
M  V30 428 C 42.5238 1.83914 -3.09593 0
M  V30 429 C 42.3768 0.99491 -4.38659 0
M  V30 430 C 43.6958 2.82183 -3.37729 0
M  V30 431 H 40.8148 0.354005 -0.646413 0
M  V30 432 H 43.4568 0.248253 -1.88371 0
M  V30 433 H 41.6068 2.46104 -3.00608 0
M  V30 434 H 43.2788 0.391789 -4.59633 0
M  V30 435 H 41.5218 0.299231 -4.32767 0
M  V30 436 H 42.1928 1.63145 -5.2734 0
M  V30 437 H 44.6688 2.30129 -3.4667 0
M  V30 438 H 43.5448 3.39582 -4.31249 0
M  V30 439 H 43.8058 3.58588 -2.58586 0
M  V30 440 N 42.8649 1.48995 0.513639 0
M  V30 441 C 43.8279 1.64229 1.59879 0
M  V30 442 C 44.8279 0.514696 1.5234 0
M  V30 443 O 46.0179 0.78087 1.55718 0
M  V30 444 C 43.1499 1.62783 2.99524 0
M  V30 445 H 44.3429 2.61004 1.47705 0
M  V30 446 H 41.8959 1.37837 0.736936 0
M  V30 447 H 42.6309 0.675461 3.17188 0
M  V30 448 H 42.4159 2.4466 3.06404 0
M  V30 449 H 43.9059 1.76669 3.78388 0
M  V30 450 N 44.343 -0.763751 1.37857 0
M  V30 451 C 45.754 -1.3405 1.29952 0
M  V30 452 C 46.105 -1.96138 -0.0492898 0
M  V30 453 O 45.23 -1.94372 -0.951239 0
M  V30 454 C 45.825 -2.43729 2.35333 0
M  V30 455 C 44.384 -2.97151 2.31037 0
M  V30 456 C 43.531 -1.70438 2.18738 0
M  V30 457 H 46.482 -0.563396 1.48363 0
M  V30 458 H 46.503 -3.23412 2.00462 0
M  V30 459 H 46.015 -1.9851 3.33489 0
M  V30 460 H 44.116 -3.46724 1.3643 0
M  V30 461 H 44.229 -3.52221 3.24772 0
M  V30 462 H 42.593 -1.93673 1.65418 0
M  V30 463 H 43.376 -1.27312 3.18821 0
M  V30 464 N 45.8211 -1.22559 -0.990812 0
M  V30 465 C 46.7841 -0.998863 -2.0629 0
M  V30 466 C 47.7841 0.0354834 -1.60761 0
M  V30 467 O 48.9741 -0.203231 -1.7301 0
M  V30 468 C 46.1061 -0.509203 -3.37076 0
M  V30 469 H 47.2991 -1.95014 -2.27837 0
M  V30 470 H 44.8521 -1.04456 -1.16269 0
M  V30 471 H 45.5871 0.446335 -3.21214 0
M  V30 472 H 45.3721 -1.25547 -3.71457 0
M  V30 473 H 46.8621 -0.370888 -4.1595 0
M  V30 474 N 47.2992 1.18797 -1.03562 0
M  V30 475 C 48.5472 1.88278 -0.734569 0
M  V30 476 C 48.8682 1.8043 0.739586 0
M  V30 477 O 48.1382 1.21925 1.53333 0
M  V30 478 H 46.7182 0.696991 -0.268725 0
M  V30 479 H 49.3802 1.44192 -1.31129 0
M  V30 480 H 48.4762 2.94443 -1.03489 0
M  V30 481 N 48.7773 0.814389 1.34928 0
M  V30 482 C 49.7403 0.235759 2.27984 0
M  V30 483 C 50.7403 -0.581412 1.49921 0
M  V30 484 O 51.9303 -0.398758 1.69575 0
M  V30 485 C 49.0623 -0.670433 3.34242 0
M  V30 486 H 50.2553 1.05659 2.80671 0
M  V30 487 H 47.8083 0.585614 1.44915 0
M  V30 488 H 48.5433 -1.51466 2.86755 0
M  V30 489 H 48.3283 -0.0860822 3.92005 0
M  V30 490 H 49.8183 -1.06935 4.03676 0
M  V30 491 N 50.2554 -1.46986 0.568584 0
M  V30 492 C 51.1854 -2.32946 -0.160753 0
M  V30 493 C 52.1664 -1.44487 -0.897631 0
M  V30 494 O 53.3514 -1.73327 -0.875867 0
M  V30 495 C 50.4814 -3.26494 -1.18403 0
M  V30 496 C 49.4354 -4.24282 -0.562895 0
M  V30 497 C 48.7614 -5.07236 -1.69163 0
M  V30 498 C 50.0614 -5.19989 0.490761 0
M  V30 499 H 51.7554 -2.94175 0.556916 0
M  V30 500 H 49.3014 -1.4146 0.26927 0
M  V30 501 H 51.2544 -3.85477 -1.70251 0
M  V30 502 H 49.9784 -2.63343 -1.93179 0
M  V30 503 H 48.6374 -3.66541 -0.0656164 0
M  V30 504 H 48.2854 -4.4048 -2.42871 0
M  V30 505 H 47.9854 -5.7345 -1.28174 0
M  V30 506 H 49.5094 -5.6908 -2.21314 0
M  V30 507 H 50.9234 -5.73271 0.0579047 0
M  V30 508 H 49.3204 -5.94469 0.820165 0
M  V30 509 H 50.3904 -4.64777 1.3824 0
M  V30 510 N 51.7335 -0.305618 -1.54608 0
M  V30 511 C 52.9815 0.301701 -1.99835 0
M  V30 512 C 53.3025 1.54054 -1.19551 0
M  V30 513 O 52.5725 1.93702 -0.292658 0
M  V30 514 H 51.1525 0.114468 -0.738178 0
M  V30 515 H 53.8145 -0.418016 -1.90364 0
M  V30 516 H 52.9105 0.570548 -3.06841 0
M  V30 517 N 53.2116 1.57565 -0.0334293 0
M  V30 518 C 54.1746 2.09393 0.932048 0
M  V30 519 C 55.1746 1.00986 1.25134 0
M  V30 520 O 56.3646 1.27129 1.19096 0
M  V30 521 C 53.4966 2.56338 2.2473 0
M  V30 522 H 54.6896 2.95984 0.483085 0
M  V30 523 H 52.2426 1.54819 0.21468 0
M  V30 524 H 52.9776 1.7309 2.74245 0
M  V30 525 H 52.7626 3.35542 2.02865 0
M  V30 526 H 54.2526 2.96646 2.93923 0
M  V30 527 N 54.6897 -0.239769 1.55765 0
M  V30 528 C 55.6527 -1.28038 1.90103 0
M  V30 529 C 56.6527 -1.40723 0.778055 0
M  V30 530 O 57.8427 -1.39301 1.04599 0
M  V30 531 C 54.9747 -2.65702 2.13577 0
M  V30 532 H 56.1677 -0.988048 2.83157 0
M  V30 533 H 53.7207 -0.479382 1.48767 0
M  V30 534 H 54.4557 -3.00063 1.23015 0
M  V30 535 H 54.2407 -2.57875 2.95369 0
M  V30 536 H 55.7307 -3.40828 2.41301 0
M  V30 537 N 56.1678 -1.49265 -0.50573 0
M  V30 538 C 57.1308 -1.65075 -1.59006 0
M  V30 539 C 58.1308 -0.522768 -1.52065 0
M  V30 540 O 59.3208 -0.789117 -1.55302 0
M  V30 541 C 56.4528 -1.64369 -2.98656 0
M  V30 542 H 57.6458 -2.61784 -1.46319 0
M  V30 543 H 55.1988 -1.38226 -0.729616 0
M  V30 544 H 55.9338 -0.692272 -3.16825 0
M  V30 545 H 55.7188 -2.46282 -3.05103 0
M  V30 546 H 57.2088 -1.78674 -3.77446 0
M  V30 547 N 57.6459 0.756429 -1.3826 0
M  V30 548 C 58.5779 1.87971 -1.31147 0
M  V30 549 C 59.5909 1.61248 -0.224239 0
M  V30 550 O 60.7799 1.71881 -0.481581 0
M  V30 551 C 57.8799 3.23545 -1.00857 0
M  V30 552 C 57.0529 3.77794 -2.20432 0
M  V30 553 C 56.1119 4.91877 -1.86931 0
M  V30 554 O 55.1379 5.06659 -2.59395 0
M  V30 555 N 56.3399 5.74643 -0.822568 0
M  V30 556 H 59.1049 1.94585 -2.2794 0
M  V30 557 H 56.6659 0.936234 -1.32084 0
M  V30 558 H 58.6579 3.97403 -0.765021 0
M  V30 559 H 57.2279 3.12335 -0.128687 0
M  V30 560 H 56.4479 2.95534 -2.6087 0
M  V30 561 H 57.7359 4.10771 -3.00241 0
M  V30 562 H 57.1339 5.65266 -0.221575 0
M  V30 563 H 55.6909 6.48661 -0.638899 0
M  V30 564 N 59.124 1.23083 0.984299 0
M  V30 565 C 60.349 1.088 1.76571 0
M  V30 566 C 60.774 -0.356657 1.84688 0
M  V30 567 O 60.132 -1.25788 1.30565 0
M  V30 568 C 60.18 1.71371 3.17277 0
M  V30 569 O 59.284 0.973213 4.00752 0
M  V30 570 H 58.625 0.381599 0.543395 0
M  V30 571 H 61.155 1.63057 1.23587 0
M  V30 572 H 61.165 1.76449 3.67872 0
M  V30 573 H 59.84 2.76493 3.10684 0
M  V30 574 H 58.417 0.999078 3.59267 0
M  V30 575 N 60.6021 -1.18246 1.0419 0
M  V30 576 C 61.8321 -1.91916 0.764961 0
M  V30 577 C 62.2401 -1.76485 -0.681898 0
M  V30 578 O 61.5831 -1.09275 -1.47664 0
M  V30 579 C 61.6451 -3.4373 1.05309 0
M  V30 580 C 61.3091 -3.8294 2.4941 0
M  V30 581 C 62.3061 -3.86621 3.47592 0
M  V30 582 C 59.9911 -4.142 2.84155 0
M  V30 583 C 61.9851 -4.21013 4.78568 0
M  V30 584 C 59.6721 -4.48262 4.15337 0
M  V30 585 C 60.6701 -4.51645 5.12353 0
M  V30 586 O 60.3581 -4.84911 6.41183 0
M  V30 587 H 60.0901 -0.61606 0.278292 0
M  V30 588 H 62.6441 -1.50947 1.39299 0
M  V30 589 H 60.8741 -3.84946 0.367933 0
M  V30 590 H 62.5631 -3.9865 0.763752 0
M  V30 591 H 63.3291 -3.62607 3.22089 0
M  V30 592 H 59.2081 -4.10743 2.09311 0
M  V30 593 H 62.7521 -4.23568 5.54289 0
M  V30 594 H 58.6491 -4.71737 4.40607 0
M  V30 595 H 59.4171 -5.02809 6.45852 0
M  V30 596 N 62.0802 -0.821533 -1.34494 0
M  V30 597 C 63.3282 -0.408139 -1.97936 0
M  V30 598 C 63.6492 1.03193 -1.65457 0
M  V30 599 O 62.9192 1.71622 -0.944595 0
M  V30 600 H 61.4992 -0.147928 -0.732206 0
M  V30 601 H 64.1612 -1.05067 -1.64155 0
M  V30 602 H 63.2572 -0.52601 -3.07635 0
M  V30 603 N 63.5583 1.46682 -0.576371 0
M  V30 604 C 64.5053 2.30241 0.160499 0
M  V30 605 C 65.4753 1.40233 0.890162 0
M  V30 606 O 66.6603 1.69186 0.882084 0
M  V30 607 C 63.8003 3.24578 1.1723 0
M  V30 608 C 62.9133 4.29684 0.446736 0
M  V30 609 C 62.0483 5.11154 1.44551 0
M  V30 610 C 61.0873 6.08015 0.70599 0
M  V30 611 N 60.2243 6.82376 1.65251 0
M  V30 612 H 65.0643 2.92727 -0.558127 0
M  V30 613 H 62.6013 1.44272 -0.287056 0
M  V30 614 H 64.5593 3.77711 1.77172 0
M  V30 615 H 63.1893 2.63916 1.85872 0
M  V30 616 H 62.2413 3.79458 -0.267594 0
M  V30 617 H 63.5533 4.98626 -0.131686 0
M  V30 618 H 62.7073 5.68533 2.11791 0
M  V30 619 H 61.4463 4.42158 2.05786 0
M  V30 620 H 60.4513 5.49796 0.0197725 0
M  V30 621 H 61.6763 6.79028 0.09912 0
M  V30 622 H 59.6223 6.16094 2.25308 0
M  V30 623 H 59.5393 7.47556 1.12673 0
M  V30 624 H 60.8073 7.44316 2.31546 0
M  V30 625 N 65.0364 0.313813 1.54444 0
M  V30 626 C 66.2844 -0.291099 1.99993 0
M  V30 627 C 66.6054 -1.53418 1.20366 0
M  V30 628 O 65.8754 -1.93544 0.302927 0
M  V30 629 H 64.4554 -0.110552 0.738774 0
M  V30 630 H 67.1174 0.428106 1.9014 0
M  V30 631 H 66.2134 -0.554268 3.07139 0
M  V30 632 N 66.5145 -1.57545 0.0417849 0
M  V30 633 C 67.4775 -2.09885 -0.92093 0
M  V30 634 C 68.4775 -1.01648 -1.24596 0
M  V30 635 O 69.6675 -1.27759 -1.1842 0
M  V30 636 C 66.7995 -2.57527 -2.23367 0
M  V30 637 H 67.9925 -2.96236 -0.467382 0
M  V30 638 H 65.5455 -1.5493 -0.206467 0
M  V30 639 H 66.2805 -1.74542 -2.73323 0
M  V30 640 H 66.0655 -3.36613 -2.01083 0
M  V30 641 H 67.5555 -2.98201 -2.92346 0
M  V30 642 N 67.9926 0.231505 -1.5589 0
M  V30 643 C 69.4086 0.580748 -1.48659 0
M  V30 644 C 69.6086 1.87617 -0.73498 0
M  V30 645 O 68.6646 2.51046 -0.270586 0
M  V30 646 C 69.9776 0.669202 -2.93159 0
M  V30 647 C 71.5256 0.760499 -3.03621 0
M  V30 648 C 72.0006 0.880383 -4.49459 0
M  V30 649 N 73.4916 0.944861 -4.53461 0
M  V30 650 C 74.2266 1.05716 -5.63571 0
M  V30 651 N 73.7226 1.13403 -6.83456 0
M  V30 652 N 75.5156 1.09152 -5.514 0
M  V30 653 H 67.6666 -0.618695 -2.03189 0
M  V30 654 H 69.9296 -0.215728 -0.923128 0
M  V30 655 H 69.6356 -0.212904 -3.51055 0
M  V30 656 H 69.5096 1.5361 -3.44505 0
M  V30 657 H 71.8966 1.63305 -2.45796 0
M  V30 658 H 71.9776 -0.131864 -2.5546 0
M  V30 659 H 71.6216 0.0123284 -5.07899 0
M  V30 660 H 71.5516 1.78802 -4.95316 0
M  V30 661 H 74.0426 0.896176 -3.6712 0
M  V30 662 H 74.3556 1.21921 -7.63122 0
M  V30 663 H 72.7006 1.10333 -6.86186 0
M  V30 664 H 75.8916 1.02805 -4.56671 0
M  V30 665 H 76.0646 1.17558 -6.37247 0
M  V30 666 N 69.4707 1.49531 0.497807 0
M  V30 667 C 70.8867 1.36365 0.829266 0
M  V30 668 C 71.0867 0.399184 1.97506 0
M  V30 669 O 70.1427 -0.167977 2.51941 0
M  V30 670 C 71.4557 2.77153 1.16647 0
M  V30 671 C 73.0037 2.85877 1.27449 0
M  V30 672 C 73.4787 4.2744 1.64497 0
M  V30 673 N 74.9697 4.30265 1.7154 0
M  V30 674 C 75.7047 5.3677 2.01656 0
M  V30 675 N 75.2007 6.53516 2.29976 0
M  V30 676 N 76.9937 5.24189 2.02934 0
M  V30 677 H 69.1447 2.10831 -0.257703 0
M  V30 678 H 71.4077 0.946534 -0.0527091 0
M  V30 679 H 71.1137 3.49442 0.397872 0
M  V30 680 H 70.9877 3.12722 2.10915 0
M  V30 681 H 73.3747 2.13824 2.0338 0
M  V30 682 H 73.4557 2.53887 0.312244 0
M  V30 683 H 73.0997 5.00021 0.891151 0
M  V30 684 H 73.0297 4.56896 2.61827 0
M  V30 685 H 75.5207 3.4607 1.51802 0
M  V30 686 H 75.8337 7.30506 2.52153 0
M  V30 687 H 74.1787 6.56737 2.27425 0
M  V30 688 H 77.3697 4.31988 1.80289 0
M  V30 689 H 77.5427 6.07286 2.26071 0
M  V30 690 N 70.9488 -0.749086 1.3866 0
M  V30 691 C 71.8958 -1.86291 1.36251 0
M  V30 692 C 72.8658 -1.64578 0.224347 0
M  V30 693 O 74.0508 -1.86181 0.417279 0
M  V30 694 C 71.1908 -3.23644 1.19786 0
M  V30 695 C 70.3038 -3.57158 2.43027 0
M  V30 696 C 69.4388 -4.83838 2.19258 0
M  V30 697 C 68.4778 -5.10152 3.38247 0
M  V30 698 N 67.6148 -6.28029 3.13884 0
M  V30 699 H 72.4548 -1.87685 2.3147 0
M  V30 700 H 69.9918 -0.917287 1.14997 0
M  V30 701 H 71.9498 -4.0291 1.08254 0
M  V30 702 H 70.5798 -3.21566 0.282031 0
M  V30 703 H 69.6318 -2.72701 2.65214 0
M  V30 704 H 70.9438 -3.7253 3.31697 0
M  V30 705 H 70.0978 -5.71057 2.04888 0
M  V30 706 H 68.8368 -4.70614 1.2796 0
M  V30 707 H 67.8418 -4.21401 3.53131 0
M  V30 708 H 69.0668 -5.25271 4.30427 0
M  V30 709 H 67.0128 -6.1612 2.25238 0
M  V30 710 H 66.9298 -6.43922 3.96106 0
M  V30 711 H 68.1978 -7.18124 3.03179 0
M  V30 712 N 72.4269 -1.23603 -0.977757 0
M  V30 713 C 73.3749 -1.01704 -2.09187 0
M  V30 714 C 74.3689 0.0448214 -1.69341 0
M  V30 715 O 75.5749 -0.108902 -1.7967 0
M  V30 716 H 71.9499 -0.311803 -0.684312 0
M  V30 717 H 73.9209 -1.96207 -2.24823 0
M  V30 718 C 72.6699 -0.627746 -3.41986 0
M  V30 719 H 71.9929 -1.43656 -3.73099 0
M  V30 720 H 73.4329 -0.514053 -4.20872 0
M  V30 721 C 71.8919 0.664238 -3.30287 0
M  V30 722 O 72.4219 1.71268 -3.6336 0
M  V30 723 N 70.6279 0.641156 -2.83439 0
M  V30 724 H 70.1749 -0.212376 -2.56723 0
M  V30 725 H 70.1329 1.50583 -2.75993 0
M  V30 726 N 73.905 1.17692 -1.04816 0
M  V30 727 C 75.321 1.39863 -0.768794 0
M  V30 728 C 75.521 1.91118 0.638451 0
M  V30 729 O 74.577 2.10036 1.40146 0
M  V30 730 C 75.89 2.39274 -1.82122 0
M  V30 731 C 77.438 2.52987 -1.843 0
M  V30 732 C 77.913 3.55669 -2.88555 0
M  V30 733 N 79.404 3.63183 -2.87493 0
M  V30 734 C 80.139 4.42381 -3.64811 0
M  V30 735 N 79.635 5.25125 -4.51903 0
M  V30 736 N 81.428 4.37217 -3.53267 0
M  V30 737 H 73.579 0.82752 -1.95617 0
M  V30 738 H 75.842 0.426123 -0.846831 0
M  V30 739 H 75.548 2.08678 -2.83102 0
M  V30 740 H 75.422 3.38725 -1.65967 0
M  V30 741 H 77.809 2.82896 -0.839869 0
M  V30 742 H 77.89 1.53623 -2.04532 0
M  V30 743 H 77.534 3.26499 -3.89051 0
M  V30 744 H 77.464 4.54728 -2.65575 0
M  V30 745 H 79.955 3.04103 -2.24343 0
M  V30 746 H 80.268 5.82728 -5.07591 0
M  V30 747 H 78.613 5.24519 -4.55966 0
M  V30 748 H 81.804 3.71626 -2.84625 0
M  V30 749 H 81.977 4.98696 -4.13771 0
M  V30 750 N 75.3831 0.828654 1.34056 0
M  V30 751 C 76.6301 0.419458 1.98108 0
M  V30 752 C 76.9581 -1.01886 1.65679 0
M  V30 753 O 76.2131 -1.72539 0.923512 0
M  V30 754 C 76.5121 0.575226 3.52741 0
M  V30 755 C 76.1781 1.98012 4.05095 0
M  V30 756 C 74.8401 2.36442 4.19104 0
M  V30 757 C 77.1921 2.89824 4.33188 0
M  V30 758 C 74.5201 3.66009 4.58535 0
M  V30 759 C 76.8721 4.1886 4.74066 0
M  V30 760 C 75.5361 4.5726 4.86281 0
M  V30 761 H 74.8061 0.153491 0.724929 0
M  V30 762 H 77.4531 1.05371 1.59904 0
M  V30 763 H 75.7581 -0.142385 3.91541 0
M  V30 764 H 77.4551 0.239057 4.00287 0
M  V30 765 H 74.0451 1.67162 3.94658 0
M  V30 766 H 78.2291 2.61375 4.21897 0
M  V30 767 H 73.4851 3.95579 4.66184 0
M  V30 768 H 77.6591 4.90086 4.94761 0
M  V30 769 H 75.2861 5.57707 5.16592 0
M  V30 770 N 76.8612 -1.46375 0.584142 0
M  V30 771 C 77.8082 -2.30323 -0.148286 0
M  V30 772 C 78.7782 -1.40703 -0.882713 0
M  V30 773 O 79.9632 -1.69651 -0.873099 0
M  V30 774 C 77.1032 -3.25196 -1.15507 0
M  V30 775 C 76.2162 -4.29915 -0.423943 0
M  V30 776 C 75.3512 -5.11914 -1.41838 0
M  V30 777 C 74.3902 -6.08381 -0.673736 0
M  V30 778 N 73.5272 -6.83242 -1.6163 0
M  V30 779 H 78.3672 -2.92427 0.573644 0
M  V30 780 H 75.9042 -1.44118 0.294703 0
M  V30 781 H 77.8622 -3.78646 -1.75166 0
M  V30 782 H 76.4922 -2.64898 -1.8447 0
M  V30 783 H 75.5442 -3.7931 0.287714 0
M  V30 784 H 76.8562 -4.98549 0.158128 0
M  V30 785 H 76.0102 -5.69648 -2.08773 0
M  V30 786 H 74.7492 -4.43243 -2.03438 0
M  V30 787 H 73.7542 -5.49799 0.00938483 0
M  V30 788 H 74.9792 -6.79071 -0.0631082 0
M  V30 789 H 72.9252 -6.1728 -2.22038 0
M  V30 790 H 72.8422 -7.48144 -1.08707 0
M  V30 791 H 74.1102 -7.45534 -2.27596 0
M  V30 792 N 78.3393 -0.321999 -1.54275 0
M  V30 793 C 79.5873 0.280489 -2.00144 0
M  V30 794 C 79.9083 1.52777 -1.21178 0
M  V30 795 O 79.1783 1.9338 -0.313187 0
M  V30 796 H 77.7583 0.106632 -0.73935 0
M  V30 797 H 80.4203 -0.438184 -1.8991 0
M  V30 798 H 79.5163 0.537972 -3.07428 0
M  V30 799 N 79.8174 1.5752 -0.0501392 0
M  V30 800 C 81.0424 1.97376 0.636997 0
M  V30 801 C 81.4674 0.927466 1.63645 0
M  V30 802 O 80.8254 -0.10941 1.8097 0
M  V30 803 C 80.8734 3.36304 1.30123 0
M  V30 804 O 79.9774 3.34156 2.41689 0
M  V30 805 H 79.3184 0.642998 0.165679 0
M  V30 806 H 81.8484 2.04258 -0.118233 0
M  V30 807 H 81.8584 3.73008 1.65315 0
M  V30 808 H 80.5334 4.11993 0.568746 0
M  V30 809 H 79.1104 3.09196 2.08451 0
M  V30 810 N 81.2955 -0.223234 1.56011 0
M  V30 811 C 82.5725 -0.972108 1.69733 0
M  V30 812 C 82.9525 -2.02485 0.59691 0
M  V30 813 O 82.3005 -2.25037 -0.396324 0
M  V30 814 C 82.5105 -1.58407 3.10979 0
M  V30 815 C 83.8585 -2.07696 3.70334 0
M  V30 816 O 84.8825 -1.68304 3.1393 0
M  V30 817 O 83.7415 -2.80096 4.69264 0
M  V30 818 H 80.8355 -0.453993 0.691245 0
M  V30 819 H 83.3815 -0.215149 1.68331 0
M  V30 820 H 82.1535 -0.823831 3.82529 0
M  V30 821 H 81.7765 -2.40661 3.16493 0
M  V30 822 N 82.7736 -1.49793 -0.48987 0
M  V30 823 C 84.0216 -1.59525 -1.24081 0
M  V30 824 C 84.3426 -0.288953 -1.92847 0
M  V30 825 O 83.6126 0.692436 -1.83254 0
M  V30 826 H 82.1926 -0.587796 -0.460983 0
M  V30 827 H 84.8546 -1.86477 -0.566778 0
M  V30 828 H 83.9506 -2.39696 -1.99881 0
M  V30 829 N 84.2517 0.741722 -1.39055 0
M  V30 830 C 85.4767 1.53607 -1.39354 0
M  V30 831 C 85.9017 1.88096 0.0116905 0
M  V30 832 O 85.2597 1.5143 0.996924 0
M  V30 833 C 85.3077 2.80441 -2.26682 0
M  V30 834 O 84.4117 3.76088 -1.69208 0
M  V30 835 H 83.7527 0.464142 -0.474835 0
M  V30 836 H 86.2827 0.915665 -1.82967 0
M  V30 837 H 86.2927 3.29246 -2.40959 0
M  V30 838 H 84.9677 2.5467 -3.2881 0
M  V30 839 H 83.5447 3.34833 -1.64138 0
M  V30 840 N 85.7298 1.2412 0.971189 0
M  V30 841 C 86.9578 1.10575 1.74874 0
M  V30 842 C 87.3728 -0.342017 1.85676 0
M  V30 843 O 86.7298 -1.23617 1.34258 0
M  V30 844 C 86.7808 1.73579 3.171 0
M  V30 845 O 86.5018 3.12695 3.06844 0
M  V30 846 C 88.0028 1.65598 4.11208 0
M  V30 847 H 85.2228 0.386504 0.548503 0
M  V30 848 H 87.7668 1.64156 1.21955 0
M  V30 849 H 85.9218 1.24009 3.67016 0
M  V30 850 H 86.3358 3.43412 3.96445 0
M  V30 851 H 87.8098 2.1437 5.08674 0
M  V30 852 H 88.2868 0.616532 4.34851 0
M  V30 853 H 88.8928 2.14578 3.67201 0
M  V30 854 N 87.2079 -1.17134 1.05439 0
M  V30 855 C 88.4329 -1.91913 0.786396 0
M  V30 856 C 88.8579 -1.7643 -0.652234 0
M  V30 857 O 88.2159 -1.08372 -1.45345 0
M  V30 858 C 88.2639 -3.40921 1.17497 0
M  V30 859 O 87.3679 -4.11244 0.308589 0
M  V30 860 H 86.7089 -0.598215 0.288158 0
M  V30 861 H 89.2389 -1.48457 1.4079 0
M  V30 862 H 89.2489 -3.91668 1.14281 0
M  V30 863 H 87.9239 -3.5151 2.22292 0
M  V30 864 H 86.5009 -3.70731 0.40157 0
M  V30 865 N 88.686 -0.835752 -1.33615 0
M  V30 866 C 89.911 -0.442389 -2.02627 0
M  V30 867 C 90.336 0.947735 -1.62479 0
M  V30 868 O 89.694 1.61907 -0.815826 0
M  V30 869 C 89.742 -0.567216 -3.56111 0
M  V30 870 O 88.846 0.407799 -4.10379 0
M  V30 871 H 88.187 -0.180278 -0.639059 0
M  V30 872 H 90.717 -1.12972 -1.70583 0
M  V30 873 H 90.727 -0.447708 -4.05536 0
M  V30 874 H 89.402 -1.58103 -3.84677 0
M  V30 875 H 87.979 0.246107 -3.72087 0
M  V30 876 N 90.1641 1.46063 -0.591896 0
M  V30 877 C 91.4411 1.95595 -0.0137119 0
M  V30 878 C 91.8211 1.5345 1.4497 0
M  V30 879 O 91.1691 0.789543 2.14426 0
M  V30 880 C 91.3791 3.48453 -0.195373 0
M  V30 881 C 92.7271 4.24546 -0.0679765 0
M  V30 882 O 93.7511 3.55982 -0.124681 0
M  V30 883 O 92.6101 5.46467 0.0600579 0
M  V30 884 H 89.7041 0.825795 0.0446279 0
M  V30 885 H 92.2501 1.56303 -0.660859 0
M  V30 886 H 91.0221 3.72045 -1.21235 0
M  V30 887 H 90.6451 3.94597 0.487775 0
M  V30 888 N 91.6422 0.330177 1.54103 0
M  V30 889 C 92.8702 -0.272179 2.05102 0
M  V30 890 C 93.2852 -1.45267 1.20595 0
M  V30 891 O 92.6422 -1.8094 0.238144 0
M  V30 892 C 92.6932 -0.70023 3.54653 0
M  V30 893 O 92.4142 0.433301 4.35952 0
M  V30 894 C 93.9152 -1.3647 4.21771 0
M  V30 895 H 91.1352 -0.0549159 0.668749 0
M  V30 896 H 93.6792 0.478285 1.98828 0
M  V30 897 H 91.8342 -1.40066 3.61193 0
M  V30 898 H 92.2482 0.0947539 5.24414 0
M  V30 899 H 93.7222 -1.61509 5.27843 0
M  V30 900 H 94.1992 -2.31409 3.73292 0
M  V30 901 H 94.8052 -0.706675 4.19388 0
M  V30 902 N 93.1203 -1.57491 0.0584922 0
M  V30 903 C 94.3483 -1.97296 -0.623037 0
M  V30 904 C 94.7633 -0.936338 -1.63946 0
M  V30 905 O 94.1203 0.0785981 -1.82331 0
M  V30 906 C 94.1713 -3.37183 -1.30345 0
M  V30 907 O 93.8923 -4.36872 -0.32773 0
M  V30 908 C 95.3933 -3.91788 -2.07406 0
M  V30 909 H 92.6133 -0.649153 -0.169826 0
M  V30 910 H 95.1573 -2.04106 0.12696 0
M  V30 911 H 93.3123 -3.31502 -2.00463 0
M  V30 912 H 93.7263 -5.18141 -0.814269 0
M  V30 913 H 95.2003 -4.91926 -2.50425 0
M  V30 914 H 95.6773 -3.27609 -2.92521 0
M  V30 915 H 96.2833 -4.00829 -1.42184 0
M  V30 916 N 94.5984 0.214957 -1.56127 0
M  V30 917 C 95.8234 0.95924 -1.83884 0
M  V30 918 C 96.2484 1.7689 -0.639644 0
M  V30 919 O 95.6064 1.76566 0.411601 0
M  V30 920 C 95.6544 1.84723 -3.09693 0
M  V30 921 O 94.7584 2.94346 -2.8885 0
M  V30 922 H 94.0994 0.27125 -0.606069 0
M  V30 923 H 96.6294 0.226276 -2.03345 0
M  V30 924 H 96.6394 2.25576 -3.39969 0
M  V30 925 H 95.3144 1.25218 -3.96602 0
M  V30 926 H 93.8914 2.57391 -2.69823 0
M  V30 927 N 96.0765 1.50051 0.48192 0
M  V30 928 C 97.0245 1.68635 1.60203 0
M  V30 929 C 98.0185 0.552184 1.60148 0
M  V30 930 O 99.2245 0.732377 1.64427 0
M  V30 931 H 95.5995 0.532081 0.531407 0
M  V30 932 H 97.5705 2.62616 1.41688 0
M  V30 933 C 96.3195 1.78775 2.9822 0
M  V30 934 H 95.6425 2.6543 2.98976 0
M  V30 935 H 97.0825 1.95806 3.7608 0
M  V30 936 C 95.5415 0.536849 3.32595 0
M  V30 937 O 96.0715 -0.328897 4.00351 0
M  V30 938 N 94.2775 0.394091 2.87915 0
M  V30 939 H 93.8245 1.09962 2.32951 0
M  V30 940 H 93.7825 -0.441737 3.11281 0
M  V30 941 N 97.5546 -0.734337 1.39446 0
M  V30 942 C 98.7796 -1.52866 1.40167 0
M  V30 943 C 99.2046 -1.881 -0.00171513 0
M  V30 944 O 98.5626 -1.51957 -0.988879 0
M  V30 945 C 98.6106 -2.79235 2.28167 0
M  V30 946 O 97.7146 -3.75185 1.71201 0
M  V30 947 H 97.0556 -0.461618 0.477289 0
M  V30 948 H 99.5856 -0.905949 1.8345 0
M  V30 949 H 99.5956 -3.27963 2.42702 0
M  V30 950 H 98.2706 -2.52923 3.30156 0
M  V30 951 H 96.8476 -3.33958 1.65912 0
M  V30 952 N 99.0327 -1.24633 -0.964593 0
M  V30 953 C 100.28 -1.08788 -1.70796 0
M  V30 954 C 100.608 0.372783 -1.90894 0
M  V30 955 O 99.8627 1.29167 -1.47018 0
M  V30 956 C 100.162 -1.7763 -3.10133 0
M  V30 957 C 99.8277 -3.27557 -3.09866 0
M  V30 958 C 98.4897 -3.6846 -3.09501 0
M  V30 959 C 100.842 -4.23389 -3.03959 0
M  V30 960 C 98.1697 -5.03624 -3.00965 0
M  V30 961 C 100.522 -5.58565 -2.96965 0
M  V30 962 C 99.1857 -5.98809 -2.9493 0
M  V30 963 H 98.4557 -0.398084 -0.624988 0
M  V30 964 H 101.103 -1.54777 -1.12767 0
M  V30 965 H 99.4077 -1.24044 -3.71645 0
M  V30 966 H 101.105 -1.62832 -3.66451 0
M  V30 967 H 97.6947 -2.95006 -3.10917 0
M  V30 968 H 101.879 -3.92787 -3.03368 0
M  V30 969 H 97.1347 -5.33998 -2.97752 0
M  V30 970 H 101.309 -6.32523 -2.91354 0
M  V30 971 H 98.9357 -7.03505 -2.88071 0
M  V30 972 N 100.511 1.16574 -1.06058 0
M  V30 973 C 101.757 1.87324 -0.777022 0
M  V30 974 C 102.09 1.81351 0.694645 0
M  V30 975 O 101.365 1.22753 1.50871 0
M  V30 976 C 101.648 3.36991 -1.26922 0
M  V30 977 C 101.501 3.51667 -2.80447 0
M  V30 978 C 102.82 4.3131 -0.87521 0
M  V30 979 H 99.9388 0.680191 -0.28374 0
M  V30 980 H 102.581 1.37036 -1.3161 0
M  V30 981 H 100.731 3.79949 -0.81063 0
M  V30 982 H 102.403 3.17664 -3.34495 0
M  V30 983 H 100.646 2.93656 -3.19294 0
M  V30 984 H 101.317 4.56766 -3.0995 0
M  V30 985 H 103.793 3.9624 -1.27014 0
M  V30 986 H 102.669 5.34545 -1.2471 0
M  V30 987 H 102.93 4.41552 0.220071 0
M  V30 988 N 101.989 0.842826 1.3317 0
M  V30 989 C 103.405 0.531128 1.50503 0
M  V30 990 C 103.605 -0.940734 1.78192 0
M  V30 991 O 102.661 -1.72436 1.84451 0
M  V30 992 C 103.974 1.40789 2.65705 0
M  V30 993 C 105.522 1.40708 2.79589 0
M  V30 994 C 105.997 2.26878 3.97857 0
M  V30 995 N 107.488 2.24609 4.05099 0
M  V30 996 C 108.223 2.88019 4.95815 0
M  V30 997 N 107.719 3.60496 5.9162 0
M  V30 998 N 109.512 2.77469 4.88843 0
M  V30 999 H 101.663 1.79557 1.1346 0
M  V30 1000 H 103.926 0.766267 0.558156 0
M  V30 1001 H 103.632 2.454 2.51936 0
M  V30 1002 H 103.506 1.08677 3.61205 0
M  V30 1003 H 105.893 0.368668 2.92788 0
M  V30 1004 H 105.974 1.76829 1.84838 0
M  V30 1005 H 105.618 3.3078 3.85418 0
M  V30 1006 H 105.548 1.88096 4.91861 0
M  V30 1007 H 108.039 1.71906 3.36536 0
M  V30 1008 H 108.352 4.06076 6.57512 0
M  V30 1009 H 106.697 3.64604 5.91683 0
M  V30 1010 H 109.888 2.20406 4.12963 0
M  V30 1011 H 110.061 3.2717 5.59342 0
M  V30 1012 N 103.467 -1.45747 0.599634 0
M  V30 1013 C 104.399 -2.28628 -0.161879 0
M  V30 1014 C 105.412 -1.39494 -0.839367 0
M  V30 1015 O 106.601 -1.63941 -0.706089 0
M  V30 1016 C 103.701 -3.15014 -1.24976 0
M  V30 1017 C 102.874 -4.32378 -0.660935 0
M  V30 1018 C 101.933 -5.00033 -1.63869 0
M  V30 1019 O 100.959 -5.57085 -1.1681 0
M  V30 1020 N 102.161 -4.98589 -2.97303 0
M  V30 1021 H 104.926 -2.94624 0.549265 0
M  V30 1022 H 102.487 -1.55847 0.438565 0
M  V30 1023 H 104.479 -3.5714 -1.9035 0
M  V30 1024 H 103.049 -2.5098 -1.86354 0
M  V30 1025 H 102.269 -3.9383 0.170688 0
M  V30 1026 H 103.557 -5.08197 -0.247619 0
M  V30 1027 H 102.955 -4.53514 -3.38145 0
M  V30 1028 H 101.512 -5.44603 -3.58121 0
M  V30 1029 N 104.945 -0.338344 -1.53925 0
M  V30 1030 C 106.193 0.259245 -2.0043 0
M  V30 1031 C 106.514 1.51484 -1.22791 0
M  V30 1032 O 105.784 1.93037 -0.33368 0
M  V30 1033 H 104.364 0.0987845 -0.740439 0
M  V30 1034 H 107.026 -0.458302 -1.89435 0
M  V30 1035 H 106.122 0.505334 -3.07982 0
M  V30 1036 N 106.423 1.57458 -0.0668435 0
M  V30 1037 C 107.648 1.9804 0.616027 0
M  V30 1038 C 108.073 0.944771 1.62652 0
M  V30 1039 O 107.431 -0.0902094 1.81075 0
M  V30 1040 C 107.479 3.37665 1.26549 0
M  V30 1041 O 106.583 3.36701 2.38131 0
M  V30 1042 H 105.924 0.644719 0.158849 0
M  V30 1043 H 108.454 2.04121 -0.139891 0
M  V30 1044 H 108.464 3.7474 1.6135 0
M  V30 1045 H 107.139 4.12573 0.525016 0
M  V30 1046 H 105.716 3.1139 2.0516 0
M  V30 1047 N 107.901 -0.206675 1.56239 0
M  V30 1048 C 108.864 -1.23976 1.92776 0
M  V30 1049 C 109.864 -1.39041 0.807729 0
M  V30 1050 O 111.054 -1.37051 1.0753 0
M  V30 1051 C 108.186 -2.61112 2.19165 0
M  V30 1052 H 109.379 -0.927764 2.85189 0
M  V30 1053 H 106.932 -0.447718 1.4975 0
M  V30 1054 H 107.667 -2.97386 1.29352 0
M  V30 1055 H 107.452 -2.51552 3.00772 0
M  V30 1056 H 108.942 -3.35633 2.48476 0
M  V30 1057 N 109.379 -1.50304 -0.473955 0
M  V30 1058 C 110.656 -1.51667 -1.23518 0
M  V30 1059 C 111.036 -0.259701 -2.09496 0
M  V30 1060 O 110.384 0.756986 -2.15597 0
M  V30 1061 C 110.594 -2.81082 -2.06868 0
M  V30 1062 C 111.942 -3.31631 -2.65153 0
M  V30 1063 O 112.966 -2.82384 -2.17113 0
M  V30 1064 O 111.825 -4.17471 -3.52675 0
M  V30 1065 H 108.919 -0.60822 -0.560355 0
M  V30 1066 H 111.465 -1.62592 -0.486011 0
M  V30 1067 H 110.237 -3.64041 -1.4349 0
M  V30 1068 H 109.86 -2.73146 -2.88924 0
M  V30 1069 N 110.857 0.726932 -1.39834 0
M  V30 1070 C 112.082 1.52121 -1.40976 0
M  V30 1071 C 112.507 1.88098 -0.00826029 0
M  V30 1072 O 111.865 1.52479 0.980807 0
M  V30 1073 C 111.913 2.78021 -2.29644 0
M  V30 1074 O 111.017 3.74272 -1.73188 0
M  V30 1075 H 110.358 0.45908 -0.479731 0
M  V30 1076 H 112.888 0.896207 -1.83927 0
M  V30 1077 H 112.898 3.26671 -2.44438 0
M  V30 1078 H 111.573 2.51169 -3.31492 0
M  V30 1079 H 110.15 3.33073 -1.6768 0
M  V30 1080 N 112.336 1.25143 0.95797 0
M  V30 1081 C 113.566 1.12261 1.73439 0
M  V30 1082 C 113.974 -0.326715 1.86358 0
M  V30 1083 O 113.317 -1.2367 1.35836 0
M  V30 1084 C 113.379 1.69966 3.16784 0
M  V30 1085 C 113.043 3.18936 3.27305 0
M  V30 1086 C 114.04 4.15968 3.11877 0
M  V30 1087 C 111.725 3.59083 3.51234 0
M  V30 1088 C 113.719 5.51126 3.20217 0
M  V30 1089 C 111.406 4.9438 3.5921 0
M  V30 1090 C 112.404 5.90211 3.43716 0
M  V30 1091 O 112.092 7.23046 3.51368 0
M  V30 1092 H 111.824 0.392476 0.550399 0
M  V30 1093 H 114.378 1.65927 1.21068 0
M  V30 1094 H 112.608 1.10744 3.70503 0
M  V30 1095 H 114.297 1.52232 3.76272 0
M  V30 1096 H 115.063 3.86292 2.93264 0
M  V30 1097 H 110.942 2.84989 3.62356 0
M  V30 1098 H 114.486 6.25905 3.0804 0
M  V30 1099 H 110.383 5.23723 3.77339 0
M  V30 1100 H 111.151 7.31097 3.6802 0
M  V30 1101 N 113.814 -1.1601 1.06675 0
M  V30 1102 C 115.042 -1.90527 0.806667 0
M  V30 1103 C 115.457 -1.77643 -0.639396 0
M  V30 1104 O 114.814 -1.12369 -1.43803 0
M  V30 1105 C 114.865 -3.41106 1.19705 0
M  V30 1106 O 114.586 -3.53608 2.58636 0
M  V30 1107 C 116.087 -4.32663 0.965266 0
M  V30 1108 H 113.307 -0.604053 0.292166 0
M  V30 1109 H 115.851 -1.47026 1.4214 0
M  V30 1110 H 114.006 -3.82296 0.626774 0
M  V30 1111 H 114.42 -4.47011 2.74375 0
M  V30 1112 H 115.894 -5.36763 1.288 0
M  V30 1113 H 116.371 -4.39089 -0.0987936 0
M  V30 1114 H 116.977 -3.97206 1.52011 0
M  V30 1115 N 115.292 -0.849877 -1.32721 0
M  V30 1116 C 116.517 -0.463856 -2.02146 0
M  V30 1117 C 116.942 0.930449 -1.63476 0
M  V30 1118 O 116.3 1.61033 -0.832952 0
M  V30 1119 C 116.348 -0.604955 -3.55489 0
M  V30 1120 O 115.452 0.36425 -4.10788 0
M  V30 1121 H 114.793 -0.187046 -0.637111 0
M  V30 1122 H 117.323 -1.14775 -1.69375 0
M  V30 1123 H 117.333 -0.490696 -4.05038 0
M  V30 1124 H 116.008 -1.62174 -3.82978 0
M  V30 1125 H 114.585 0.206628 -3.72327 0
M  V30 1126 N 116.77 1.45427 -0.607355 0
M  V30 1127 C 118.186 1.57283 -0.270985 0
M  V30 1128 C 118.386 1.59875 1.22647 0
M  V30 1129 O 117.442 1.52893 2.00948 0
M  V30 1130 C 118.755 2.85566 -0.941952 0
M  V30 1131 C 120.303 2.9924 -0.917849 0
M  V30 1132 C 120.778 4.30293 -1.56882 0
M  V30 1133 N 122.269 4.37051 -1.5343 0
M  V30 1134 C 123.004 5.37123 -2.00715 0
M  V30 1135 N 122.5 6.43734 -2.56084 0
M  V30 1136 N 124.293 5.28479 -1.91484 0
M  V30 1137 H 116.444 1.41988 -1.57966 0
M  V30 1138 H 118.707 0.67885 -0.661715 0
M  V30 1139 H 118.413 2.8955 -1.99633 0
M  V30 1140 H 118.287 3.74322 -0.465096 0
M  V30 1141 H 120.674 2.94822 0.127984 0
M  V30 1142 H 120.755 2.11895 -1.43297 0
M  V30 1143 H 120.399 4.35469 -2.61398 0
M  V30 1144 H 120.329 5.16454 -1.02873 0
M  V30 1145 H 122.82 3.60615 -1.12982 0
M  V30 1146 H 123.133 7.16341 -2.89958 0
M  V30 1147 H 121.478 6.44485 -2.60122 0
M  V30 1148 H 124.669 4.44098 -1.47967 0
M  V30 1149 H 124.842 6.0632 -2.28648 0
M  V30 1150 N 118.248 0.346503 1.53744 0
M  V30 1151 C 119.659 -0.136779 1.86198 0
M  V30 1152 C 120.01 -1.49749 1.26766 0
M  V30 1153 O 119.135 -2.08417 0.582355 0
M  V30 1154 C 119.73 -0.254966 3.37839 0
M  V30 1155 C 118.289 -0.682482 3.70161 0
M  V30 1156 C 117.436 0.181981 2.76702 0
M  V30 1157 H 120.387 0.565994 1.48264 0
M  V30 1158 H 120.408 -1.08195 3.64793 0
M  V30 1159 H 119.92 0.735526 3.81066 0
M  V30 1160 H 118.021 -1.68189 3.3248 0
M  V30 1161 H 118.134 -0.470326 4.76786 0
M  V30 1162 H 116.498 -0.34615 2.52337 0
M  V30 1163 H 117.281 1.16966 3.2276 0
M  V30 1164 N 119.726 -1.57421 0.075193 0
M  V30 1165 C 120.951 -1.98364 -0.605515 0
M  V30 1166 C 121.376 -0.953383 -1.62149 0
M  V30 1167 O 120.734 0.0806053 -1.81121 0
M  V30 1168 C 120.782 -3.38332 -1.24756 0
M  V30 1169 O 119.886 -3.37959 -2.36342 0
M  V30 1170 H 119.227 -0.645553 -0.155428 0
M  V30 1171 H 121.757 -2.04044 0.150714 0
M  V30 1172 H 121.767 -3.75591 -1.5936 0
M  V30 1173 H 120.442 -4.12846 -0.503129 0
M  V30 1174 H 119.019 -3.12474 -2.03506 0
M  V30 1175 N 121.204 0.198386 -1.56346 0
M  V30 1176 C 122.481 0.944982 -1.71258 0
M  V30 1177 C 122.861 2.0151 -0.629048 0
M  V30 1178 O 122.209 2.25639 0.360473 0
M  V30 1179 C 122.419 1.5344 -3.1346 0
M  V30 1180 C 123.767 2.01778 -3.73591 0
M  V30 1181 O 124.791 1.63288 -3.16568 0
M  V30 1182 O 123.65 2.72594 -4.73661 0
M  V30 1183 H 120.744 0.442939 -0.69838 0
M  V30 1184 H 123.29 0.188342 -1.68652 0
M  V30 1185 H 122.062 0.762869 -3.83792 0
M  V30 1186 H 121.685 2.35596 -3.20282 0
M  V30 1187 N 122.682 1.50554 0.465978 0
M  V30 1188 C 123.907 1.65838 1.24549 0
M  V30 1189 C 124.332 0.343486 1.84937 0
M  V30 1190 O 123.69 -0.69324 1.67523 0
M  V30 1191 C 123.738 2.75533 2.32624 0
M  V30 1192 O 122.842 2.37142 3.37398 0
M  V30 1193 H 122.183 0.553893 0.366194 0
M  V30 1194 H 124.713 1.96959 0.553927 0
M  V30 1195 H 124.723 2.98763 2.77857 0
M  V30 1196 H 123.398 3.70962 1.88043 0
M  V30 1197 H 121.975 2.24377 2.97841 0
M  V30 1198 N 124.16 -0.719506 1.40217 0
M  V30 1199 C 125.437 -1.47221 1.28784 0
M  V30 1200 C 125.817 -2.10883 -0.0956067 0
M  V30 1201 O 125.165 -1.99833 -1.10811 0
M  V30 1202 C 125.375 -2.5111 2.42373 0
M  V30 1203 C 126.723 -3.17053 2.82423 0
M  V30 1204 O 127.747 -2.61429 2.41937 0
M  V30 1205 O 126.606 -4.17742 3.52355 0
M  V30 1206 H 123.7 -0.654491 0.50554 0
M  V30 1207 H 126.246 -0.752014 1.52128 0
M  V30 1208 H 125.018 -2.02556 3.34793 0
M  V30 1209 H 124.641 -3.3067 2.20778 0
M  V30 1210 N 125.638 -1.25649 -0.95132 0
M  V30 1211 C 126.884 -1.10757 -1.69884 0
M  V30 1212 C 127.217 0.350061 -1.91019 0
M  V30 1213 O 126.492 1.25783 -1.48354 0
M  V30 1214 C 126.775 -1.86606 -3.07978 0
M  V30 1215 C 126.628 -3.40217 -2.94232 0
M  V30 1216 C 127.947 -1.65182 -4.07925 0
M  V30 1217 H 125.066 -0.40374 -0.616574 0
M  V30 1218 H 127.708 -1.54521 -1.10558 0
M  V30 1219 H 125.858 -1.49409 -3.58621 0
M  V30 1220 H 127.53 -3.87108 -2.50889 0
M  V30 1221 H 125.773 -3.67759 -2.30078 0
M  V30 1222 H 126.444 -3.88505 -3.92133 0
M  V30 1223 H 128.92 -1.9757 -3.66204 0
M  V30 1224 H 127.796 -2.20683 -5.02583 0
M  V30 1225 H 128.057 -0.593933 -4.38092 0
M  V30 1226 N 127.117 1.15442 -1.07289 0
M  V30 1227 C 128.342 1.90638 -0.816828 0
M  V30 1228 C 128.767 1.77445 0.624083 0
M  V30 1229 O 128.125 1.10671 1.43602 0
M  V30 1230 C 128.173 3.39008 -1.22906 0
M  V30 1231 O 127.277 4.10701 -0.373975 0
M  V30 1232 H 126.618 0.593555 -0.297638 0
M  V30 1233 H 129.148 1.46198 -1.43134 0
M  V30 1234 H 129.158 3.89801 -1.20497 0
M  V30 1235 H 127.833 3.47929 -2.27856 0
M  V30 1236 H 126.41 3.70046 -0.460499 0
M  V30 1237 N 128.595 0.856903 1.32268 0
M  V30 1238 C 129.525 0.31858 2.31316 0
M  V30 1239 C 130.506 -0.583487 1.59779 0
M  V30 1240 O 131.691 -0.503259 1.87566 0
M  V30 1241 C 128.821 -0.491979 3.43798 0
M  V30 1242 C 127.775 0.315849 4.26833 0
M  V30 1243 C 127.101 -0.619586 5.31098 0
M  V30 1244 C 128.401 1.54282 4.98993 0
M  V30 1245 H 130.095 1.14621 2.76591 0
M  V30 1246 H 127.641 0.552613 1.32974 0
M  V30 1247 H 129.594 -0.879012 4.1213 0
M  V30 1248 H 128.318 -1.35299 2.97257 0
M  V30 1249 H 126.977 0.684664 3.6015 0
M  V30 1250 H 126.625 -1.47751 4.8081 0
M  V30 1251 H 126.325 -0.0830621 5.87541 0
M  V30 1252 H 127.849 -1.00375 6.02293 0
M  V30 1253 H 129.263 1.22796 5.59995 0
M  V30 1254 H 127.66 2.01745 5.65172 0
M  V30 1255 H 128.73 2.30285 4.26728 0
M  V30 1256 N 130.073 -1.45103 0.615059 0
M  V30 1257 C 130.983 -2.34382 -0.101034 0
M  V30 1258 C 131.999 -1.51681 -0.852585 0
M  V30 1259 O 133.175 -1.8446 -0.808484 0
M  V30 1260 C 130.24 -3.29417 -1.08099 0
M  V30 1261 C 129.301 -4.28025 -0.330577 0
M  V30 1262 C 128.534 -5.1852 -1.26385 0
M  V30 1263 O 128.757 -5.12598 -2.50198 0
M  V30 1264 O 127.691 -5.97122 -0.756866 0
M  V30 1265 H 131.517 -2.97033 0.632855 0
M  V30 1266 H 129.102 -1.4461 0.375293 0
M  V30 1267 H 130.984 -3.87958 -1.6452 0
M  V30 1268 H 129.659 -2.69321 -1.79577 0
M  V30 1269 H 128.566 -3.73078 0.276283 0
M  V30 1270 H 129.899 -4.90997 0.343866 0
M  V30 1271 N 131.551 -0.354651 -1.53558 0
M  V30 1272 C 132.461 0.50515 -2.29097 0
M  V30 1273 C 133.477 1.10223 -1.34636 0
M  V30 1274 O 134.653 1.11553 -1.67684 0
M  V30 1275 C 131.718 1.63479 -3.05738 0
M  V30 1276 C 130.779 1.06636 -4.15845 0
M  V30 1277 C 130.012 2.14217 -4.88822 0
M  V30 1278 O 130.235 3.35137 -4.61562 0
M  V30 1279 O 129.169 1.77887 -5.75013 0
M  V30 1280 H 132.995 -0.109237 -3.03503 0
M  V30 1281 H 130.58 -0.119357 -1.48922 0
M  V30 1282 H 132.462 2.2918 -3.5363 0
M  V30 1283 H 131.137 2.23478 -2.34178 0
M  V30 1284 H 130.044 0.373565 -3.7223 0
M  V30 1285 H 131.377 0.511081 -4.89539 0
M  V30 1286 N 133.029 1.57378 -0.0835403 0
M  V30 1287 C 134.306 1.85363 0.624507 0
M  V30 1288 C 134.686 0.978239 1.87066 0
M  V30 1289 O 134.034 0.0475908 2.2845 0
M  V30 1290 C 134.244 3.35795 0.950947 0
M  V30 1291 C 135.592 4.03581 1.31939 0
M  V30 1292 O 136.616 3.40609 1.04232 0
M  V30 1293 O 135.475 5.14672 1.83779 0
M  V30 1294 H 132.569 0.766162 0.311329 0
M  V30 1295 H 135.115 1.69307 -0.115362 0
M  V30 1296 H 133.887 3.91244 0.0663899 0
M  V30 1297 H 133.51 3.57154 1.74719 0
M  V30 1298 N 134.507 -0.190092 1.56449 0
M  V30 1299 C 135.923 -0.54113 1.50146 0
M  V30 1300 C 136.123 -1.85603 0.784465 0
M  V30 1301 O 135.179 -2.5024 0.337051 0
M  V30 1302 C 136.492 -0.591241 2.9483 0
M  V30 1303 C 138.04 -0.679732 3.0553 0
M  V30 1304 C 138.515 -0.760908 4.51635 0
M  V30 1305 N 140.006 -0.824302 4.55806 0
M  V30 1306 C 140.741 -0.907365 5.66175 0
M  V30 1307 N 140.237 -0.952422 6.86222 0
M  V30 1308 N 142.03 -0.94494 5.541 0
M  V30 1309 H 134.181 0.67235 2.01478 0
M  V30 1310 H 136.444 0.240127 0.917084 0
M  V30 1311 H 136.15 0.305905 3.50367 0
M  V30 1312 H 136.024 -1.44422 3.48457 0
M  V30 1313 H 138.411 -1.56731 2.50039 0
M  V30 1314 H 138.492 0.199549 2.5502 0
M  V30 1315 H 138.136 0.122336 5.07753 0
M  V30 1316 H 138.066 -1.65606 4.99882 0
M  V30 1317 H 140.557 -0.798526 3.69367 0
M  V30 1318 H 140.87 -1.01645 7.66086 0
M  V30 1319 H 139.215 -0.921014 6.8887 0
M  V30 1320 H 142.406 -0.906612 4.59236 0
M  V30 1321 H 142.579 -1.00622 6.4014 0
M  V30 1322 N 135.985 -1.50799 -0.457987 0
M  V30 1323 C 136.895 -1.73426 -1.57989 0
M  V30 1324 C 137.911 -0.617745 -1.62665 0
M  V30 1325 O 139.087 -0.897614 -1.80291 0
M  V30 1326 C 136.152 -1.83557 -2.94122 0
M  V30 1327 C 135.213 -3.07345 -2.99729 0
M  V30 1328 C 134.446 -3.16983 -4.29368 0
M  V30 1329 O 134.669 -2.33077 -5.20607 0
M  V30 1330 O 133.603 -4.09812 -4.40837 0
M  V30 1331 H 137.429 -2.68555 -1.41817 0
M  V30 1332 H 135.014 -1.35052 -0.638859 0
M  V30 1333 H 136.896 -1.92326 -3.74952 0
M  V30 1334 H 135.571 -0.916137 -3.10465 0
M  V30 1335 H 134.478 -3.04068 -2.1793 0
M  V30 1336 H 135.811 -3.9891 -2.88326 0
M  V30 1337 N 137.463 0.71206 -1.40597 0
M  V30 1338 C 138.426 1.80785 -1.40888 0
M  V30 1339 C 139.426 1.57937 -0.302103 0
M  V30 1340 O 140.616 1.64913 -0.561182 0
M  V30 1341 C 137.748 3.18927 -1.20409 0
M  V30 1342 H 138.941 1.81924 -2.38419 0
M  V30 1343 H 136.494 0.91805 -1.26497 0
M  V30 1344 H 137.229 3.23436 -0.236522 0
M  V30 1345 H 137.014 3.36911 -2.00582 0
M  V30 1346 H 138.504 3.98949 -1.23408 0
M  V30 1347 N 138.941 1.26152 0.944643 0
M  V30 1348 C 140.187 1.11657 1.69294 0
M  V30 1349 C 140.52 -0.339926 1.91202 0
M  V30 1350 O 139.795 -1.24994 1.49019 0
M  V30 1351 C 140.078 1.88236 3.06984 0
M  V30 1352 C 139.931 3.41772 2.92424 0
M  V30 1353 C 141.25 1.67343 4.07043 0
M  V30 1354 H 138.369 0.407004 0.614424 0
M  V30 1355 H 141.011 1.55106 1.09737 0
M  V30 1356 H 139.161 1.51308 3.57824 0
M  V30 1357 H 140.833 3.88433 2.48832 0
M  V30 1358 H 139.076 3.68974 2.28124 0
M  V30 1359 H 139.747 3.90579 3.90067 0
M  V30 1360 H 142.223 1.99509 3.65151 0
M  V30 1361 H 141.099 2.23346 5.01406 0
M  V30 1362 H 141.36 0.617158 4.37771 0
M  V30 1363 N 140.419 -1.14872 1.07899 0
M  V30 1364 C 141.835 -1.37776 0.805606 0
M  V30 1365 C 142.035 -1.92743 -0.587555 0
M  V30 1366 O 141.091 -2.13678 -1.34528 0
M  V30 1367 C 142.404 -2.34361 1.88402 0
M  V30 1368 C 143.952 -2.48012 1.90942 0
M  V30 1369 C 144.427 -3.47893 2.97883 0
M  V30 1370 N 145.918 -3.55433 2.97021 0
M  V30 1371 C 146.653 -4.32553 3.76412 0
M  V30 1372 N 146.149 -5.12959 4.65666 0
M  V30 1373 N 147.942 -4.27697 3.64735 0
M  V30 1374 H 140.093 -0.775365 1.97742 0
M  V30 1375 H 142.356 -0.403521 0.857831 0
M  V30 1376 H 142.062 -2.01098 2.88535 0
M  V30 1377 H 141.936 -3.34206 1.74889 0
M  V30 1378 H 144.323 -2.8057 0.914579 0
M  V30 1379 H 144.404 -1.48147 2.08534 0
M  V30 1380 H 144.048 -3.16069 3.97571 0
M  V30 1381 H 143.978 -4.47527 2.77538 0
M  V30 1382 H 146.469 -2.98048 2.32326 0
M  V30 1383 H 146.782 -5.69065 5.22862 0
M  V30 1384 H 145.127 -5.12245 4.69712 0
M  V30 1385 H 148.318 -3.63949 2.94378 0
M  V30 1386 H 148.491 -4.8755 4.26848 0
M  V30 1387 N 141.898 -0.863906 -1.31812 0
M  V30 1388 C 143.314 -0.555004 -1.49639 0
M  V30 1389 C 143.514 0.912266 -1.79666 0
M  V30 1390 O 142.57 1.69479 -1.87171 0
M  V30 1391 C 143.883 -1.44998 -2.63431 0
M  V30 1392 C 145.431 -1.45138 -2.77316 0
M  V30 1393 C 145.906 -2.33179 -3.94197 0
M  V30 1394 N 147.397 -2.31025 -4.01474 0
M  V30 1395 C 148.132 -2.95871 -4.9117 0
M  V30 1396 N 147.628 -3.69863 -5.8581 0
M  V30 1397 N 149.421 -2.85211 -4.84367 0
M  V30 1398 H 141.572 -1.81339 -1.10589 0
M  V30 1399 H 143.835 -0.77505 -0.545895 0
M  V30 1400 H 143.541 -2.49377 -2.48 0
M  V30 1401 H 143.415 -1.14409 -3.59431 0
M  V30 1402 H 145.802 -0.415201 -2.92164 0
M  V30 1403 H 145.883 -1.79747 -1.82001 0
M  V30 1404 H 145.527 -3.3687 -3.80107 0
M  V30 1405 H 145.457 -1.95897 -4.88807 0
M  V30 1406 H 147.948 -1.77238 -3.33759 0
M  V30 1407 H 148.261 -4.16486 -6.50968 0
M  V30 1408 H 146.606 -3.73971 -5.85808 0
M  V30 1409 H 149.797 -2.26948 -4.09405 0
M  V30 1410 H 149.97 -3.36027 -5.54066 0
M  V30 1411 N 143.376 1.44774 -0.622745 0
M  V30 1412 C 144.286 2.34433 0.0886031 0
M  V30 1413 C 145.302 1.52131 0.844529 0
M  V30 1414 O 146.478 1.84886 0.798691 0
M  V30 1415 C 143.543 3.29986 1.0635 0
M  V30 1416 C 142.604 4.28195 0.307873 0
M  V30 1417 C 141.837 5.19183 1.23633 0
M  V30 1418 O 142.06 5.13918 2.47476 0
M  V30 1419 O 140.994 5.97515 0.725189 0
M  V30 1420 H 144.82 2.96693 -0.648599 0
M  V30 1421 H 142.405 1.44408 -0.382957 0
M  V30 1422 H 144.287 3.88825 1.6246 0
M  V30 1423 H 142.962 2.70269 1.78146 0
M  V30 1424 H 141.869 3.72927 -0.296064 0
M  V30 1425 H 143.202 4.90808 -0.3699 0
M  V30 1426 N 144.854 0.36279 1.53368 0
M  V30 1427 C 145.817 -0.472679 2.24273 0
M  V30 1428 C 146.817 -1.012 1.24961 0
M  V30 1429 O 148.007 -0.898194 1.49259 0
M  V30 1430 C 145.139 -1.66039 2.97731 0
M  V30 1431 H 146.332 0.14773 2.99536 0
M  V30 1432 H 143.885 0.114434 1.55881 0
M  V30 1433 H 144.62 -2.31896 2.26704 0
M  V30 1434 H 144.405 -1.28066 3.70596 0
M  V30 1435 H 145.895 -2.25252 3.51641 0
M  V30 1436 N 146.332 -1.57332 0.0918853 0
M  V30 1437 C 147.242 -2.17368 -0.882505 0
M  V30 1438 C 148.258 -1.14226 -1.31257 0
M  V30 1439 O 149.434 -1.46582 -1.38115 0
M  V30 1440 C 146.499 -2.73962 -2.12476 0
M  V30 1441 C 145.56 -3.92048 -1.7492 0
M  V30 1442 C 144.793 -4.45933 -2.93223 0
M  V30 1443 O 145.016 -3.98764 -4.07852 0
M  V30 1444 O 143.95 -5.36999 -2.71875 0
M  V30 1445 H 147.776 -3.01031 -0.40172 0
M  V30 1446 H 145.361 -1.48813 -0.132291 0
M  V30 1447 H 147.243 -3.10147 -2.85283 0
M  V30 1448 H 145.918 -1.93347 -2.59613 0
M  V30 1449 H 144.825 -3.6068 -0.993025 0
M  V30 1450 H 146.158 -4.74017 -1.32548 0
M  V30 1451 N 147.81 0.181792 -1.56548 0
M  V30 1452 C 149.226 0.53316 -1.50431 0
M  V30 1453 C 149.426 1.85184 -0.794297 0
M  V30 1454 O 148.482 2.50058 -0.350318 0
M  V30 1455 C 149.795 0.575597 -2.9514 0
M  V30 1456 C 151.343 0.663519 -3.05886 0
M  V30 1457 C 151.818 0.736946 -4.52032 0
M  V30 1458 N 153.309 0.800118 -4.56237 0
M  V30 1459 C 154.044 0.877327 -5.66649 0
M  V30 1460 N 153.54 0.916016 -6.86718 0
M  V30 1461 N 155.333 0.915542 -5.54594 0
M  V30 1462 H 147.484 -0.683025 -2.01118 0
M  V30 1463 H 149.747 -0.244988 -0.915797 0
M  V30 1464 H 149.453 -0.324482 -3.502 0
M  V30 1465 H 149.327 1.42572 -3.49218 0
M  V30 1466 H 151.714 1.55403 -2.50867 0
M  V30 1467 H 151.795 -0.21307 -2.54911 0
M  V30 1468 H 151.439 -0.149262 -5.07681 0
M  V30 1469 H 151.369 1.62953 -5.00753 0
M  V30 1470 H 153.86 0.778926 -3.69785 0
M  V30 1471 H 154.173 0.975813 -7.66614 0
M  V30 1472 H 152.518 0.884469 -6.89349 0
M  V30 1473 H 155.709 0.882245 -4.59711 0
M  V30 1474 H 155.882 0.972253 -6.40665 0
M  V30 1475 N 149.288 1.51039 0.449983 0
M  V30 1476 C 150.22 1.67617 1.56324 0
M  V30 1477 C 151.233 0.557083 1.52972 0
M  V30 1478 O 152.422 0.830989 1.57977 0
M  V30 1479 C 149.522 1.66402 2.95235 0
M  V30 1480 C 148.695 2.9469 3.23229 0
M  V30 1481 C 147.754 2.85832 4.41799 0
M  V30 1482 O 146.78 3.59785 4.41071 0
M  V30 1483 N 147.982 2.00821 5.44657 0
M  V30 1484 H 150.747 2.63648 1.42512 0
M  V30 1485 H 148.308 1.48767 0.638737 0
M  V30 1486 H 150.3 1.58062 3.72557 0
M  V30 1487 H 148.87 0.780182 3.02708 0
M  V30 1488 H 148.09 3.16996 2.34323 0
M  V30 1489 H 149.378 3.79636 3.38754 0
M  V30 1490 H 148.776 1.40091 5.48079 0
M  V30 1491 H 147.333 1.98368 6.20881 0
M  V30 1492 N 150.766 -0.704594 1.40972 0
M  V30 1493 C 151.729 -1.80035 1.41845 0
M  V30 1494 C 152.729 -1.57774 0.310474 0
M  V30 1495 O 153.919 -1.64613 0.56992 0
M  V30 1496 C 151.051 -3.18284 1.22098 0
M  V30 1497 H 152.244 -1.80658 2.3938 0
M  V30 1498 H 149.797 -0.911329 1.26982 0
M  V30 1499 H 150.532 -3.23306 0.253672 0
M  V30 1500 H 150.317 -3.35843 2.02366 0
M  V30 1501 H 151.807 -3.98289 1.25522 0
M  V30 1502 N 152.244 -1.26651 -0.937939 0
M  V30 1503 C 153.176 -1.04283 -2.04102 0
M  V30 1504 C 154.189 -0.00221014 -1.628 0
M  V30 1505 O 155.378 -0.242645 -1.76843 0
M  V30 1506 C 152.478 -0.557846 -3.34277 0
M  V30 1507 C 151.651 -1.66843 -4.04329 0
M  V30 1508 C 150.71 -1.18095 -5.12777 0
M  V30 1509 O 149.736 -1.87865 -5.37304 0
M  V30 1510 N 150.938 -0.0311006 -5.80492 0
M  V30 1511 H 153.703 -1.9927 -2.23856 0
M  V30 1512 H 151.264 -1.1808 -1.10764 0
M  V30 1513 H 153.256 -0.215836 -4.04124 0
M  V30 1514 H 151.826 0.298523 -3.11171 0
M  V30 1515 H 151.046 -2.18123 -3.28353 0
M  V30 1516 H 152.334 -2.41408 -4.47883 0
M  V30 1517 H 151.732 0.551486 -5.63005 0
M  V30 1518 H 150.289 0.251809 -6.51313 0
M  V30 1519 N 153.722 1.14298 -1.08507 0
M  V30 1520 C 154.685 2.17607 -0.719711 0
M  V30 1521 C 155.685 1.58907 0.245997 0
M  V30 1522 O 156.875 1.74181 0.0254081 0
M  V30 1523 C 154.007 3.40842 -0.0627695 0
M  V30 1524 H 155.2 2.51443 -1.63452 0
M  V30 1525 H 152.753 1.28963 -0.88307 0
M  V30 1526 H 153.488 3.12587 0.863716 0
M  V30 1527 H 153.273 3.84713 -0.757504 0
M  V30 1528 H 154.763 4.17221 0.177786 0
M  V30 1529 N 155.201 0.870884 1.31352 0
M  V30 1530 C 156.133 0.28455 2.27427 0
M  V30 1531 C 157.146 -0.552927 1.53123 0
M  V30 1532 O 158.335 -0.374771 1.74521 0
M  V30 1533 C 155.435 -0.615164 3.3327 0
M  V30 1534 C 154.608 0.190079 4.36987 0
M  V30 1535 C 153.667 -0.637917 5.22319 0
M  V30 1536 O 152.693 -0.065626 5.69162 0
M  V30 1537 N 153.895 -1.94973 5.46778 0
M  V30 1538 H 156.66 1.11017 2.7838 0
M  V30 1539 H 154.221 0.732458 1.44384 0
M  V30 1540 H 156.213 -1.1748 3.87273 0
M  V30 1541 H 154.783 -1.34146 2.82354 0
M  V30 1542 H 154.003 0.931165 3.83044 0
M  V30 1543 H 155.291 0.742579 5.03352 0
M  V30 1544 H 154.689 -2.4378 5.10478 0
M  V30 1545 H 153.246 -2.45713 6.03712 0
M  V30 1546 N 156.679 -1.44442 0.630414 0
M  V30 1547 C 157.609 -2.33418 -0.0618083 0
M  V30 1548 C 158.59 -1.48165 -0.835541 0
M  V30 1549 O 159.775 -1.76886 -0.801564 0
M  V30 1550 C 156.905 -3.31222 -1.04449 0
M  V30 1551 C 155.859 -4.26288 -0.382436 0
M  V30 1552 C 155.185 -5.13954 -1.47497 0
M  V30 1553 C 156.485 -5.1744 0.710865 0
M  V30 1554 H 158.179 -2.91548 0.681184 0
M  V30 1555 H 155.725 -1.40191 0.329026 0
M  V30 1556 H 157.678 -3.92351 -1.53748 0
M  V30 1557 H 156.402 -2.71299 -1.81836 0
M  V30 1558 H 155.061 -3.6649 0.0899054 0
M  V30 1559 H 154.709 -4.50385 -2.2397 0
M  V30 1560 H 154.409 -5.7837 -1.03737 0
M  V30 1561 H 155.933 -5.77955 -1.96979 0
M  V30 1562 H 157.347 -5.72509 0.300996 0
M  V30 1563 H 155.744 -5.90455 1.07156 0
M  V30 1564 H 156.814 -4.58496 1.57829 0
M  V30 1565 N 158.157 -0.370918 -1.53173 0
M  V30 1566 C 159.067 0.480823 -2.2962 0
M  V30 1567 C 160.083 1.08789 -1.35798 0
M  V30 1568 O 161.259 1.09768 -1.68858 0
M  V30 1569 C 158.324 1.60227 -3.07454 0
M  V30 1570 C 157.385 1.0222 -4.16953 0
M  V30 1571 C 156.618 2.0902 -4.91066 0
M  V30 1572 O 156.841 3.30222 -4.65091 0
M  V30 1573 O 155.775 1.71778 -5.76867 0
M  V30 1574 H 159.601 -0.141421 -3.03371 0
M  V30 1575 H 157.186 -0.135146 -1.48787 0
M  V30 1576 H 159.068 2.25417 -3.56041 0
M  V30 1577 H 157.743 2.20982 -2.36535 0
M  V30 1578 H 156.65 0.334064 -3.72605 0
M  V30 1579 H 157.983 0.459131 -4.90054 0
M  V30 1580 N 159.635 1.57281 -0.100228 0
M  V30 1581 C 160.582 2.14305 0.856858 0
M  V30 1582 C 161.552 1.06296 1.27634 0
M  V30 1583 O 162.737 1.34109 1.35718 0
M  V30 1584 C 159.877 2.73184 2.10866 0
M  V30 1585 C 158.99 3.95442 1.73925 0
M  V30 1586 C 158.125 4.42468 2.93931 0
M  V30 1587 C 157.164 5.57303 2.5314 0
M  V30 1588 N 156.301 5.99158 3.65997 0
M  V30 1589 H 161.141 2.95772 0.363726 0
M  V30 1590 H 158.678 1.46139 0.167858 0
M  V30 1591 H 160.636 3.05442 2.84185 0
M  V30 1592 H 159.266 1.94437 2.57671 0
M  V30 1593 H 158.318 3.69464 0.905554 0
M  V30 1594 H 159.63 4.78769 1.39935 0
M  V30 1595 H 158.784 4.76537 3.75496 0
M  V30 1596 H 157.523 3.58052 3.31134 0
M  V30 1597 H 156.528 5.22857 1.70003 0
M  V30 1598 H 157.753 6.43471 2.17075 0
M  V30 1599 H 155.699 5.17687 4.02909 0
M  V30 1600 H 155.616 6.77295 3.35869 0
M  V30 1601 H 156.884 6.3786 4.48057 0
M  V30 1602 N 161.113 -0.173488 1.56642 0
M  V30 1603 C 162.076 -1.19859 1.95362 0
M  V30 1604 C 163.076 -1.37296 0.83704 0
M  V30 1605 O 164.266 -1.34739 1.10413 0
M  V30 1606 C 161.398 -2.56405 2.24654 0
M  V30 1607 H 162.591 -0.867062 2.87092 0
M  V30 1608 H 160.144 -0.415853 1.50666 0
M  V30 1609 H 160.879 -2.94576 1.35631 0
M  V30 1610 H 160.664 -2.45115 3.06041 0
M  V30 1611 H 162.154 -3.30287 2.5554 0
M  V30 1612 N 162.591 -1.51276 -0.441967 0
M  V30 1613 C 163.538 -1.72256 -1.53612 0
M  V30 1614 C 164.508 -0.564164 -1.56225 0
M  V30 1615 O 165.693 -0.798074 -1.73307 0
M  V30 1616 C 162.833 -1.84932 -2.91366 0
M  V30 1617 C 161.946 -3.12459 -2.98317 0
M  V30 1618 C 161.081 -3.15758 -4.27166 0
M  V30 1619 C 160.12 -4.37619 -4.27967 0
M  V30 1620 N 159.257 -4.38493 -5.48333 0
M  V30 1621 H 164.097 -2.65654 -1.35026 0
M  V30 1622 H 161.634 -1.31662 -0.656009 0
M  V30 1623 H 163.592 -1.90263 -3.7129 0
M  V30 1624 H 162.222 -0.949461 -3.08521 0
M  V30 1625 H 161.274 -3.1646 -2.11086 0
M  V30 1626 H 162.586 -4.02382 -2.94771 0
M  V30 1627 H 161.74 -3.19979 -5.15459 0
M  V30 1628 H 160.479 -2.23715 -4.33362 0
M  V30 1629 H 159.484 -4.33579 -3.38067 0
M  V30 1630 H 160.709 -5.30921 -4.23438 0
M  V30 1631 H 158.655 -3.49318 -5.55259 0
M  V30 1632 H 158.572 -5.22219 -5.46647 0
M  V30 1633 H 159.84 -4.469 -6.38671 0
M  V30 1634 N 164.069 0.697108 -1.41344 0
M  V30 1635 C 165.297 1.48593 -1.43972 0
M  V30 1636 C 165.712 1.88747 -0.0445612 0
M  V30 1637 O 165.069 1.56682 0.935785 0
M  V30 1638 C 165.12 2.74946 -2.34706 0
M  V30 1639 O 164.841 2.36484 -3.68791 0
M  V30 1640 C 166.342 3.687 -2.46121 0
M  V30 1641 H 163.562 0.457964 -0.490418 0
M  V30 1642 H 166.106 0.858429 -1.8561 0
M  V30 1643 H 164.261 3.33937 -1.9638 0
M  V30 1644 H 164.675 3.17918 -4.17167 0
M  V30 1645 H 166.149 4.54145 -3.13777 0
M  V30 1646 H 166.626 4.13081 -1.49199 0
M  V30 1647 H 167.232 3.15613 -2.85076 0
M  V30 1648 N 165.547 1.27147 0.931209 0
M  V30 1649 C 166.494 1.09568 2.03134 0
M  V30 1650 C 167.464 -0.00222433 1.661 0
M  V30 1651 O 168.649 0.159439 1.90133 0
M  V30 1652 C 165.789 0.745231 3.36957 0
M  V30 1653 C 164.902 1.92041 3.86968 0
M  V30 1654 C 164.037 1.51216 5.09222 0
M  V30 1655 C 163.076 2.65504 5.5152 0
M  V30 1656 N 162.213 2.25291 6.64972 0
M  V30 1657 H 167.053 2.03708 2.17502 0
M  V30 1658 H 164.59 1.01411 1.06556 0
M  V30 1659 H 166.548 0.522878 4.1391 0
M  V30 1660 H 165.178 -0.159202 3.22407 0
M  V30 1661 H 164.23 2.25541 3.06326 0
M  V30 1662 H 165.542 2.77787 4.1429 0
M  V30 1663 H 164.696 1.25084 5.93666 0
M  V30 1664 H 163.435 0.625749 4.83669 0
M  V30 1665 H 162.44 2.92354 4.65628 0
M  V30 1666 H 163.665 3.54761 5.7907 0
M  V30 1667 H 161.611 1.39098 6.41083 0
M  V30 1668 H 161.528 3.04577 6.91931 0
M  V30 1669 H 162.796 2.02398 7.52765 0
M  V30 1670 N 167.025 -1.13721 1.09112 0
M  V30 1671 C 168.436 -1.6648 0.845068 0
M  V30 1672 C 168.787 -1.85911 -0.62701 0
M  V30 1673 O 167.912 -1.57556 -1.48341 0
M  V30 1674 C 168.507 -3.02413 1.52748 0
M  V30 1675 C 167.066 -3.52176 1.32849 0
M  V30 1676 C 166.213 -2.27492 1.58564 0
M  V30 1677 H 169.164 -0.976872 1.25072 0
M  V30 1678 H 169.185 -3.68223 0.958752 0
M  V30 1679 H 168.697 -2.88238 2.59885 0
M  V30 1680 H 166.798 -3.7156 0.278137 0
M  V30 1681 H 166.911 -4.32499 2.0611 0
M  V30 1682 H 165.275 -2.33923 1.00758 0
M  V30 1683 H 166.058 -2.15886 2.66924 0
M  V30 1684 N 168.503 -0.877838 -1.30888 0
M  V30 1685 C 169.749 -0.493426 -1.96706 0
M  V30 1686 C 170.082 0.953504 -1.6918 0
M  V30 1687 O 169.357 1.67266 -0.992594 0
M  V30 1688 C 169.64 -0.760429 -3.51979 0
M  V30 1689 C 169.493 -2.25747 -3.89048 0
M  V30 1690 C 170.812 -0.232148 -4.39487 0
M  V30 1691 H 167.931 -0.180746 -0.714493 0
M  V30 1692 H 170.573 -1.10052 -1.54882 0
M  V30 1693 H 168.723 -0.243715 -3.87735 0
M  V30 1694 H 170.395 -2.84204 -3.63354 0
M  V30 1695 H 168.638 -2.72694 -3.37373 0
M  V30 1696 H 169.309 -2.39491 -4.97341 0
M  V30 1697 H 171.785 -0.674314 -4.106 0
M  V30 1698 H 170.661 -0.448355 -5.47066 0
M  V30 1699 H 170.922 0.866297 -4.33529 0
M  V30 1700 N 169.982 1.44106 -0.638065 0
M  V30 1701 C 170.945 2.29138 0.0531013 0
M  V30 1702 C 171.945 1.41409 0.765506 0
M  V30 1703 O 173.135 1.63206 0.609046 0
M  V30 1704 C 170.267 3.23144 1.08584 0
M  V30 1705 H 171.46 2.91739 -0.694883 0
M  V30 1706 H 169.013 1.51134 -0.398538 0
M  V30 1707 H 169.748 2.65408 1.86357 0
M  V30 1708 H 169.533 3.87804 0.578852 0
M  V30 1709 H 171.023 3.87004 1.56899 0
M  V30 1710 N 171.46 0.379036 1.52974 0
M  V30 1711 C 172.707 -0.206421 2.01445 0
M  V30 1712 C 173.035 -1.47668 1.26587 0
M  V30 1713 O 172.29 -1.92514 0.351675 0
M  V30 1714 C 172.589 -0.53096 3.53434 0
M  V30 1715 C 172.255 0.646546 4.46241 0
M  V30 1716 C 170.917 0.969604 4.7133 0
M  V30 1717 C 173.269 1.43479 5.01062 0
M  V30 1718 C 170.597 2.08263 5.48492 0
M  V30 1719 C 172.949 2.53834 5.7944 0
M  V30 1720 C 171.613 2.86659 6.02812 0
M  V30 1721 H 170.883 -0.0755349 0.73714 0
M  V30 1722 H 173.53 0.514271 1.84465 0
M  V30 1723 H 171.835 -1.33285 3.68432 0
M  V30 1724 H 173.532 -0.996417 3.88423 0
M  V30 1725 H 170.122 0.384734 4.2687 0
M  V30 1726 H 174.306 1.19844 4.81613 0
M  V30 1727 H 169.562 2.34078 5.64816 0
M  V30 1728 H 173.736 3.15319 6.20924 0
M  V30 1729 H 171.363 3.73026 6.62387 0
M  V30 1730 N 172.938 -1.57226 0.108567 0
M  V30 1731 C 173.901 -2.13602 -0.831082 0
M  V30 1732 C 174.901 -1.06841 -1.20173 0
M  V30 1733 O 176.091 -1.32666 -1.12895 0
M  V30 1734 C 173.223 -2.66769 -2.12243 0
M  V30 1735 H 174.416 -2.97951 -0.341317 0
M  V30 1736 H 171.969 -1.55667 -0.14057 0
M  V30 1737 H 172.704 -1.85977 -2.65675 0
M  V30 1738 H 172.489 -3.44839 -1.86625 0
M  V30 1739 H 173.979 -3.10332 -2.79435 0
M  V30 1740 N 174.416 0.165178 -1.56732 0
M  V30 1741 C 175.662 0.882112 -1.82611 0
M  V30 1742 C 175.995 1.81628 -0.687378 0
M  V30 1743 O 175.27 1.92009 0.310267 0
M  V30 1744 C 175.553 1.67245 -3.18906 0
M  V30 1745 C 175.406 0.760987 -4.43316 0
M  V30 1746 C 176.725 2.63884 -3.52212 0
M  V30 1747 H 173.844 0.319242 -0.664269 0
M  V30 1748 H 176.486 0.148052 -1.89422 0
M  V30 1749 H 174.636 2.29824 -3.1323 0
M  V30 1750 H 176.308 0.147596 -4.61064 0
M  V30 1751 H 174.551 0.0694102 -4.33744 0
M  V30 1752 H 175.222 1.34962 -5.35247 0
M  V30 1753 H 177.698 2.11429 -3.58381 0
M  V30 1754 H 176.574 3.16245 -4.48643 0
M  V30 1755 H 176.835 3.44377 -2.77231 0
M  V30 1756 N 175.894 1.51508 0.433938 0
M  V30 1757 C 177.31 1.39759 0.770682 0
M  V30 1758 C 177.51 0.482594 1.95636 0
M  V30 1759 O 176.566 -0.0609691 2.52426 0
M  V30 1760 C 177.879 2.81851 1.04787 0
M  V30 1761 C 179.427 2.91025 1.1521 0
M  V30 1762 C 179.902 4.34032 1.46219 0
M  V30 1763 N 181.393 4.37154 1.53136 0
M  V30 1764 C 182.128 5.4484 1.78709 0
M  V30 1765 N 181.624 6.62682 2.02051 0
M  V30 1766 N 183.417 5.32324 1.80519 0
M  V30 1767 H 175.568 2.09548 -0.346892 0
M  V30 1768 H 177.831 0.943446 -0.0928074 0
M  V30 1769 H 177.537 3.50815 0.249304 0
M  V30 1770 H 177.411 3.21386 1.97461 0
M  V30 1771 H 179.798 2.22257 1.94128 0
M  V30 1772 H 179.879 2.54983 0.204281 0
M  V30 1773 H 179.523 5.03351 0.678274 0
M  V30 1774 H 179.453 4.6759 2.42212 0
M  V30 1775 H 181.944 3.52197 1.36987 0
M  V30 1776 H 182.257 7.40543 2.20943 0
M  V30 1777 H 180.602 6.65791 1.99366 0
M  V30 1778 H 183.793 4.39246 1.61805 0
M  V30 1779 H 183.966 6.16328 2.00111 0
M  V30 1780 N 177.372 -0.689602 1.41712 0
M  V30 1781 C 178.6 -1.47827 1.44758 0
M  V30 1782 C 179.015 -1.88721 0.0545703 0
M  V30 1783 O 178.372 -1.57176 -0.927463 0
M  V30 1784 C 178.423 -2.73698 2.3616 0
M  V30 1785 O 178.144 -2.34524 3.7004 0
M  V30 1786 C 179.645 -3.67389 2.48072 0
M  V30 1787 H 176.865 -0.455357 0.49284 0
M  V30 1788 H 179.409 -0.848574 1.86063 0
M  V30 1789 H 177.564 -3.32891 1.98148 0
M  V30 1790 H 177.978 -3.15701 4.18847 0
M  V30 1791 H 179.452 -4.52475 3.16181 0
M  V30 1792 H 179.929 -4.12284 1.51388 0
M  V30 1793 H 180.535 -3.14097 2.86746 0
M  V30 1794 N 178.85 -1.27639 -0.924453 0
M  V30 1795 C 179.798 -1.10485 -2.04685 0
M  V30 1796 C 180.792 -0.0270421 -1.69378 0
M  V30 1797 O 181.998 -0.185008 -1.79047 0
M  V30 1798 H 178.373 -0.340546 -0.670472 0
M  V30 1799 H 180.344 -2.05566 -2.16298 0
M  V30 1800 C 179.093 -0.772229 -3.39016 0
M  V30 1801 H 178.416 -1.59351 -3.66671 0
M  V30 1802 H 179.856 -0.692097 -4.18313 0
M  V30 1803 C 178.315 0.523554 -3.32807 0
M  V30 1804 O 178.845 1.55702 -3.70297 0
M  V30 1805 N 177.051 0.520363 -2.85903 0
M  V30 1806 H 176.598 -0.32107 -2.55591 0
M  V30 1807 H 176.556 1.38742 -2.82131 0
M  V30 1808 N 180.328 1.1314 -1.09713 0
M  V30 1809 C 181.574 1.84757 -0.836224 0
M  V30 1810 C 181.907 1.8347 0.636598 0
M  V30 1811 O 181.182 1.27491 1.46889 0
M  V30 1812 C 181.465 3.32782 -1.37578 0
M  V30 1813 C 181.318 3.42567 -2.91493 0
M  V30 1814 C 182.637 4.28307 -1.01198 0
M  V30 1815 H 179.756 0.67082 -0.305236 0
M  V30 1816 H 182.398 1.3278 -1.35903 0
M  V30 1817 H 180.548 3.77177 -0.931097 0
M  V30 1818 H 182.22 3.06862 -3.44432 0
M  V30 1819 H 180.463 2.83349 -3.28475 0
M  V30 1820 H 181.134 4.46674 -3.24324 0
M  V30 1821 H 183.61 3.91999 -1.39556 0
M  V30 1822 H 182.486 5.30307 -1.41653 0
M  V30 1823 H 182.747 4.42029 0.0794833 0
M  V30 1824 N 181.806 0.884767 1.30421 0
M  V30 1825 C 183.031 0.517288 2.00845 0
M  V30 1826 C 183.456 -0.886779 1.65885 0
M  V30 1827 O 182.814 -1.58768 0.875354 0
M  V30 1828 C 182.862 0.698994 3.5376 0
M  V30 1829 O 181.966 -0.255208 4.1161 0
M  V30 1830 H 181.307 0.203872 0.631927 0
M  V30 1831 H 183.837 1.19225 1.66272 0
M  V30 1832 H 183.847 0.597912 4.03595 0
M  V30 1833 H 182.522 1.72271 3.78544 0
M  V30 1834 H 181.099 -0.10784 3.72744 0
M  V30 1835 N 183.284 -1.43765 0.645699 0
M  V30 1836 C 184.514 -2.05953 0.163318 0
M  V30 1837 C 184.922 -1.48432 -1.17322 0
M  V30 1838 O 184.265 -0.607295 -1.73371 0
M  V30 1839 C 184.327 -3.59499 -0.0103065 0
M  V30 1840 C 183.991 -4.39563 1.25035 0
M  V30 1841 C 184.988 -4.72108 2.17739 0
M  V30 1842 C 182.673 -4.79697 1.48983 0
M  V30 1843 C 184.667 -5.43688 3.3269 0
M  V30 1844 C 182.354 -5.51023 2.64229 0
M  V30 1845 C 183.352 -5.8294 3.55908 0
M  V30 1846 O 183.04 -6.5281 4.69142 0
M  V30 1847 H 182.772 -0.670798 0.0836986 0
M  V30 1848 H 185.326 -1.85384 0.884407 0
M  V30 1849 H 183.556 -3.78613 -0.78669 0
M  V30 1850 H 185.245 -4.03408 -0.449087 0
M  V30 1851 H 186.011 -4.41627 2.00476 0
M  V30 1852 H 181.89 -4.54266 0.785078 0
M  V30 1853 H 185.434 -5.68517 4.04269 0
M  V30 1854 H 181.331 -5.8092 2.81429 0
M  V30 1855 H 182.099 -6.71288 4.6831 0
M  V30 1856 N 184.763 -0.387143 -1.52771 0
M  V30 1857 C 185.988 0.198407 -2.06449 0
M  V30 1858 C 186.413 1.39918 -1.25716 0
M  V30 1859 O 185.771 1.79099 -0.281657 0
M  V30 1860 C 185.819 0.548893 -3.56398 0
M  V30 1861 O 184.923 1.64315 -3.78252 0
M  V30 1862 H 184.264 0.0237731 -0.663574 0
M  V30 1863 H 186.794 -0.553989 -1.96957 0
M  V30 1864 H 186.804 0.813812 -3.99801 0
M  V30 1865 H 185.479 -0.329005 -4.14597 0
M  V30 1866 H 184.056 1.37211 -3.46738 0
M  V30 1867 N 186.241 1.57166 -0.116904 0
M  V30 1868 C 187.204 2.14039 0.819742 0
M  V30 1869 C 188.204 1.07477 1.19605 0
M  V30 1870 O 189.394 1.33263 1.1219 0
M  V30 1871 C 186.526 2.67891 2.10826 0
M  V30 1872 H 187.719 2.98128 0.325511 0
M  V30 1873 H 185.272 1.55739 0.132312 0
M  V30 1874 H 186.007 1.87384 2.64685 0
M  V30 1875 H 185.792 3.45823 1.84793 0
M  V30 1876 H 187.282 3.11809 2.77785 0
M  V30 1877 N 187.719 -0.156864 1.56817 0
M  V30 1878 C 188.682 -1.17781 1.96622 0
M  V30 1879 C 189.682 -1.36401 0.851555 0
M  V30 1880 O 190.872 -1.33561 1.11836 0
M  V30 1881 C 188.004 -2.54008 2.27361 0
M  V30 1882 H 189.197 -0.836564 2.87996 0
M  V30 1883 H 186.75 -0.39985 1.51099 0
M  V30 1884 H 187.485 -2.9312 1.38748 0
M  V30 1885 H 187.27 -2.41856 3.08623 0
M  V30 1886 H 188.76 -3.27558 2.59029 0
M  V30 1887 N 189.197 -1.51736 -0.425897 0
M  V30 1888 C 190.147 -1.70258 -1.51645 0
M  V30 1889 C 191.131 -0.556488 -1.5097 0
M  V30 1890 O 192.323 -0.812879 -1.5723 0
M  V30 1891 C 189.452 -1.84143 -2.89735 0
M  V30 1892 C 188.538 -3.04572 -2.95122 0
M  V30 1893 N 188.929 -4.2756 -2.70233 0
M  V30 1894 C 187.227 -3.04061 -3.26286 0
M  V30 1895 C 187.928 -5.08908 -2.81757 0
M  V30 1896 N 186.904 -4.43797 -3.13919 0
M  V30 1897 H 190.706 -2.63004 -1.31172 0
M  V30 1898 H 188.22 -1.4954 -0.633375 0
M  V30 1899 H 190.217 -1.95525 -3.68206 0
M  V30 1900 H 188.877 -0.925857 -3.1122 0
M  V30 1901 H 189.888 -4.56315 -2.44943 0
M  V30 1902 H 186.565 -2.22179 -3.53473 0
M  V30 1903 H 187.955 -6.16843 -2.66372 0
M  V30 1904 N 190.675 0.682077 -1.42076 0
M  V30 1905 C 191.585 1.82535 -1.47371 0
M  V30 1906 C 192.601 1.7017 -0.363079 0
M  V30 1907 O 193.777 1.91848 -0.612875 0
M  V30 1908 C 190.842 3.18624 -1.36674 0
M  V30 1909 C 189.903 3.42999 -2.58167 0
M  V30 1910 C 189.136 4.72595 -2.4797 0
M  V30 1911 O 189.359 5.50006 -1.5116 0
M  V30 1912 O 188.293 4.98054 -3.37974 0
M  V30 1913 H 192.119 1.81023 -2.43853 0
M  V30 1914 H 189.704 0.836887 -1.2376 0
M  V30 1915 H 191.586 3.99847 -1.33043 0
M  V30 1916 H 190.261 3.20789 -0.433138 0
M  V30 1917 H 189.168 2.61653 -2.67373 0
M  V30 1918 H 190.501 3.45659 -3.50401 0
M  V30 1919 N 192.153 1.28127 0.917671 0
M  V30 1920 C 193.43 1.05761 1.64542 0
M  V30 1921 C 193.81 -0.404344 2.07191 0
M  V30 1922 O 193.158 -1.38963 1.81388 0
M  V30 1923 C 193.368 2.02857 2.83989 0
M  V30 1924 C 194.716 2.32786 3.551 0
M  V30 1925 O 195.74 2.0091 2.94132 0
M  V30 1926 O 194.599 2.87169 4.64969 0
M  V30 1927 H 191.693 0.403916 0.721652 0
M  V30 1928 H 194.239 1.39431 0.967322 0
M  V30 1929 H 193.011 3.01407 2.49538 0
M  V30 1930 H 192.634 1.69809 3.59514 0
M  V30 1931 N 193.631 -1.12557 1.10312 0
M  V30 1932 C 194.908 -1.80363 0.756878 0
M  V30 1933 C 195.288 -1.97067 -0.756824 0
M  V30 1934 O 194.636 -1.54601 -1.68259 0
M  V30 1935 C 194.846 -3.14812 1.50647 0
M  V30 1936 C 196.194 -3.90029 1.67817 0
M  V30 1937 O 197.218 -3.24464 1.46974 0
M  V30 1938 O 196.077 -5.07652 2.02365 0
M  V30 1939 H 193.171 -0.780667 0.272926 0
M  V30 1940 H 195.717 -1.19404 1.20586 0
M  V30 1941 H 194.489 -2.97936 2.53672 0
M  V30 1942 H 194.112 -3.83478 1.05026 0
M  V30 1943 N 195.109 -0.891671 -1.2995 0
M  V30 1944 C 196.355 -0.514261 -1.96171 0
M  V30 1945 C 196.688 0.935506 -1.70182 0
M  V30 1946 O 195.963 1.66204 -1.01028 0
M  V30 1947 C 196.246 -0.797719 -3.51153 0
M  V30 1948 C 196.099 -2.2986 -3.86632 0
M  V30 1949 C 197.418 -0.278749 -4.39216 0
M  V30 1950 H 194.537 -0.188314 -0.712535 0
M  V30 1951 H 197.179 -1.11689 -1.53706 0
M  V30 1952 H 195.329 -0.284826 -3.87455 0
M  V30 1953 H 197.001 -2.88042 -3.60319 0
M  V30 1954 H 195.244 -2.76257 -3.34462 0
M  V30 1955 H 195.915 -2.44753 -4.94773 0
M  V30 1956 H 198.391 -0.717825 -4.09862 0
M  V30 1957 H 197.267 -0.506353 -5.46559 0
M  V30 1958 H 197.528 0.820266 -4.34424 0
M  V30 1959 N 196.587 1.43421 -0.653314 0
M  V30 1960 C 197.998 1.85065 -0.246537 0
M  V30 1961 C 198.349 1.54688 1.2069 0
M  V30 1962 O 197.474 0.995896 1.92122 0
M  V30 1963 C 198.069 3.35922 -0.440666 0
M  V30 1964 C 196.628 3.76297 -0.0882064 0
M  V30 1965 C 195.775 2.67147 -0.743484 0
M  V30 1966 H 198.726 1.33572 -0.856979 0
M  V30 1967 H 198.747 3.79204 0.313798 0
M  V30 1968 H 198.259 3.58 -1.49858 0
M  V30 1969 H 196.36 3.5983 0.96711 0
M  V30 1970 H 196.473 4.76338 -0.513738 0
M  V30 1971 H 194.837 2.54086 -0.176712 0
M  V30 1972 H 195.62 2.92053 -1.80443 0
M  V30 1973 N 198.065 0.39524 1.52563 0
M  V30 1974 C 199.311 -0.185318 2.01952 0
M  V30 1975 C 199.644 -1.45964 1.28095 0
M  V30 1976 O 198.919 -1.90689 0.38315 0
M  V30 1977 C 199.202 -0.447193 3.57312 0
M  V30 1978 C 199.055 0.842828 4.41833 0
M  V30 1979 C 200.374 -1.23529 4.22408 0
M  V30 1980 H 197.493 -0.0658788 0.73405 0
M  V30 1981 H 200.135 0.525975 1.82575 0
M  V30 1982 H 198.285 -1.05312 3.73954 0
M  V30 1983 H 199.957 1.4795 4.36931 0
M  V30 1984 H 198.2 1.45686 4.08605 0
M  V30 1985 H 198.871 0.614165 5.48573 0
M  V30 1986 H 201.347 -0.722445 4.0978 0
M  V30 1987 H 200.223 -1.38727 5.3108 0
M  V30 1988 H 200.484 -2.25213 3.80436 0
M  V30 1989 N 199.544 -1.57102 0.125237 0
M  V30 1990 C 200.955 -1.82384 -0.399142 0
M  V30 1991 C 201.306 -1.04276 -1.66195 0
M  V30 1992 O 200.431 -0.281269 -2.14564 0
M  V30 1993 C 201.026 -3.30821 -0.730932 0
M  V30 1994 C 199.585 -3.56762 -1.19992 0
M  V30 1995 C 198.732 -2.7649 -0.211792 0
M  V30 1996 H 201.683 -1.54786 0.350277 0
M  V30 1997 H 201.704 -3.4579 -1.58775 0
M  V30 1998 H 201.216 -3.87643 0.188345 0
M  V30 1999 H 199.317 -3.05305 -2.13588 0
M  V30 2000 H 199.43 -4.65317 -1.14093 0
M  V30 2001 H 197.794 -2.4489 -0.700085 0
M  V30 2002 H 198.577 -3.36073 0.700691 0
M  V30 2003 N 201.022 0.148545 -1.56898 0
M  V30 2004 C 202.27 0.859717 -1.82902 0
M  V30 2005 C 202.591 1.81775 -0.70588 0
M  V30 2006 O 201.861 1.93994 0.272586 0
M  V30 2007 H 200.441 0.320469 -0.674766 0
M  V30 2008 H 203.103 0.142918 -1.94375 0
M  V30 2009 H 202.199 1.4229 -2.77777 0
M  V30 2010 N 202.5 1.5196 0.417844 0
M  V30 2011 C 203.433 1.69387 1.52916 0
M  V30 2012 C 204.411 0.541419 1.53321 0
M  V30 2013 O 205.595 0.767695 1.72159 0
M  V30 2014 C 202.722 1.72525 2.91467 0
M  V30 2015 C 201.768 2.93967 3.09008 0
M  V30 2016 S 202.601 4.54461 2.83242 0
M  V30 2017 C 203.757 4.60372 4.24038 0
M  V30 2018 H 203.99 2.63382 1.37903 0
M  V30 2019 H 201.523 1.41889 0.608845 0
M  V30 2020 H 203.481 1.75018 3.7132 0
M  V30 2021 H 202.142 0.796733 3.03827 0
M  V30 2022 H 201.335 2.92619 4.10353 0
M  V30 2023 H 200.937 2.89316 2.37007 0
M  V30 2024 H 203.229 4.37213 5.17544 0
M  V30 2025 H 204.172 5.62273 4.30412 0
M  V30 2026 H 204.58 3.89492 4.08602 0
M  V30 2027 N 203.978 -0.674533 1.42435 0
M  V30 2028 C 204.941 -1.76986 1.45632 0
M  V30 2029 C 205.941 -1.5708 0.343871 0
M  V30 2030 O 207.131 -1.63367 0.604709 0
M  V30 2031 C 204.263 -3.15623 1.28822 0
M  V30 2032 H 205.456 -1.75539 2.43158 0
M  V30 2033 H 203.009 -0.884189 1.28887 0
M  V30 2034 H 203.744 -3.22696 0.322193 0
M  V30 2035 H 203.529 -3.31475 2.09444 0
M  V30 2036 H 205.019 -3.95537 1.33942 0
M  V30 2037 N 205.456 -1.28612 -0.910864 0
M  V30 2038 C 206.705 -1.15311 -1.65488 0
M  V30 2039 C 207.018 0.296999 -1.93332 0
M  V30 2040 O 208.224 0.551168 -2.65847 0
M  V30 2041 C 206.68 -2.01599 -2.98137 0
M  V30 2042 C 206.288 -3.51367 -2.7793 0
M  V30 2043 C 208.032 -1.96993 -3.76024 0
M  V30 2044 C 205.939 -4.29797 -4.06237 0
M  V30 2045 H 204.869 -0.42796 -0.620779 0
M  V30 2046 H 207.52 -1.53166 -1.01057 0
M  V30 2047 H 205.902 -1.56603 -3.63719 0
M  V30 2048 H 207.076 -4.0434 -2.21011 0
M  V30 2049 H 205.391 -3.57529 -2.13452 0
M  V30 2050 H 207.988 -2.52856 -4.71135 0
M  V30 2051 H 208.331 -0.94733 -4.05378 0
M  V30 2052 H 208.864 -2.39973 -3.17266 0
M  V30 2053 H 205.603 -5.32648 -3.82055 0
M  V30 2054 H 205.123 -3.81596 -4.62757 0
M  V30 2055 H 206.802 -4.39869 -4.74473 0
M  V30 2056 N 206.934 1.1197 -1.10907 0
M  V30 2057 C 208.159 1.87942 -0.877064 0
M  V30 2058 C 208.584 1.79341 0.567314 0
M  V30 2059 O 207.942 1.15184 1.40009 0
M  V30 2060 C 207.99 3.34926 -1.33629 0
M  V30 2061 O 207.094 4.09303 -0.504447 0
M  V30 2062 H 206.435 0.583785 -0.316371 0
M  V30 2063 H 208.965 1.4157 -1.47712 0
M  V30 2064 H 208.975 3.8577 -1.32837 0
M  V30 2065 H 207.65 3.40504 -2.3881 0
M  V30 2066 H 206.227 3.68393 -0.577993 0
M  V30 2067 N 208.412 0.89855 1.29475 0
M  V30 2068 C 209.659 0.523882 1.95606 0
M  V30 2069 C 209.987 -0.929608 1.70847 0
M  V30 2070 O 209.242 -1.67401 1.01367 0
M  V30 2071 C 209.541 0.761398 3.49195 0
M  V30 2072 C 209.207 2.19207 3.94029 0
M  V30 2073 C 207.869 2.58326 4.05982 0
M  V30 2074 C 210.221 3.12379 4.17216 0
M  V30 2075 C 207.549 3.898 4.38489 0
M  V30 2076 C 209.901 4.43401 4.51197 0
M  V30 2077 C 208.565 4.82394 4.61359 0
M  V30 2078 H 207.835 0.191702 0.715773 0
M  V30 2079 H 210.482 1.13699 1.54094 0
M  V30 2080 H 208.787 0.0653622 3.91745 0
M  V30 2081 H 210.484 0.450904 3.98457 0
M  V30 2082 H 207.074 1.87846 3.85242 0
M  V30 2083 H 211.258 2.83371 4.07449 0
M  V30 2084 H 206.514 4.19734 4.44559 0
M  V30 2085 H 210.688 5.15623 4.68087 0
M  V30 2086 H 208.315 5.84306 4.86303 0
M  V30 2087 N 209.89 -1.43072 0.660911 0
M  V30 2088 C 210.8 -2.34585 -0.0264163 0
M  V30 2089 C 211.816 -1.54316 -0.803898 0
M  V30 2090 O 212.992 -1.86939 -0.749391 0
M  V30 2091 C 210.057 -3.32689 -0.975639 0
M  V30 2092 C 209.118 -4.2886 -0.194236 0
M  V30 2093 C 208.351 -5.22278 -1.09825 0
M  V30 2094 O 208.574 -5.20299 -2.33763 0
M  V30 2095 O 207.508 -5.99228 -0.566513 0
M  V30 2096 H 211.334 -2.94869 0.727034 0
M  V30 2097 H 208.919 -1.43342 0.42111 0
M  V30 2098 H 210.801 -3.92995 -1.52094 0
M  V30 2099 H 209.476 -2.74898 -1.70918 0
M  V30 2100 H 208.383 -3.72011 0.394835 0
M  V30 2101 H 209.716 -4.89655 0.499899 0
M  V30 2102 N 211.368 -0.403325 -1.52352 0
M  V30 2103 C 212.331 0.413051 -2.25447 0
M  V30 2104 C 213.331 0.978513 -1.276 0
M  V30 2105 O 214.521 0.858305 -1.51587 0
M  V30 2106 C 211.653 1.58087 -3.02029 0
M  V30 2107 H 212.846 -0.227094 -2.99039 0
M  V30 2108 H 210.399 -0.155722 -1.55522 0
M  V30 2109 H 211.134 2.25804 -2.32772 0
M  V30 2110 H 210.919 1.18195 -3.73861 0
M  V30 2111 H 212.409 2.1585 -3.57489 0
M  V30 2112 N 212.846 1.57033 -0.133567 0
M  V30 2113 C 213.793 2.16074 0.811208 0
M  V30 2114 C 214.763 1.08979 1.2535 0
M  V30 2115 O 215.948 1.36958 1.32843 0
M  V30 2116 C 213.088 2.77595 2.05024 0
M  V30 2117 C 212.201 3.99042 1.65498 0
M  V30 2118 C 211.336 4.48603 2.84479 0
M  V30 2119 C 210.375 5.62547 2.41262 0
M  V30 2120 N 209.512 6.06787 3.53206 0
M  V30 2121 H 214.352 2.96477 0.300906 0
M  V30 2122 H 211.889 1.46462 0.136822 0
M  V30 2123 H 213.847 3.11402 2.77642 0
M  V30 2124 H 212.477 1.99859 2.53488 0
M  V30 2125 H 211.529 3.71302 0.826981 0
M  V30 2126 H 212.841 4.81629 1.29748 0
M  V30 2127 H 211.995 4.84395 3.65303 0
M  V30 2128 H 210.734 3.64995 3.23465 0
M  V30 2129 H 209.739 5.26345 1.58874 0
M  V30 2130 H 210.964 6.47931 2.03377 0
M  V30 2131 H 208.91 5.26117 3.91838 0
M  V30 2132 H 208.827 6.84266 3.21427 0
M  V30 2133 H 210.095 6.4722 4.34427 0
M  V30 2134 N 214.325 -0.140222 1.56975 0
M  V30 2135 C 215.602 -0.880769 1.74648 0
M  V30 2136 C 215.982 -1.99036 0.703404 0
M  V30 2137 O 215.33 -2.26821 -0.27648 0
M  V30 2138 C 215.54 -1.417 3.18939 0
M  V30 2139 C 216.888 -1.87774 3.80823 0
M  V30 2140 O 217.912 -1.51427 3.2241 0
M  V30 2141 O 216.771 -2.54827 4.83452 0
M  V30 2142 H 213.865 -0.416713 0.714338 0
M  V30 2143 H 216.411 -0.125618 1.69234 0
M  V30 2144 H 215.183 -0.619902 3.86359 0
M  V30 2145 H 214.806 -2.23546 3.28805 0
M  V30 2146 N 215.803 -1.52179 -0.40978 0
M  V30 2147 C 217.05 -1.66206 -1.15679 0
M  V30 2148 C 217.378 -0.391674 -1.90516 0
M  V30 2149 O 216.633 0.62533 -1.8544 0
M  V30 2150 C 216.932 -2.83428 -2.17723 0
M  V30 2151 C 216.598 -4.21672 -1.59699 0
M  V30 2152 C 215.26 -4.59274 -1.43599 0
M  V30 2153 C 217.612 -5.07825 -1.17317 0
M  V30 2154 C 214.94 -5.80709 -0.836328 0
M  V30 2155 C 217.292 -6.29864 -0.587691 0
M  V30 2156 C 215.956 -6.66216 -0.413818 0
M  V30 2157 H 215.226 -0.608192 -0.423301 0
M  V30 2158 H 217.873 -1.86279 -0.444097 0
M  V30 2159 H 216.178 -2.57687 -2.95135 0
M  V30 2160 H 217.875 -2.91477 -2.75394 0
M  V30 2161 H 214.465 -3.9204 -1.73213 0
M  V30 2162 H 218.649 -4.79359 -1.28565 0
M  V30 2163 H 213.905 -6.07498 -0.689626 0
M  V30 2164 H 218.079 -6.95948 -0.250894 0
M  V30 2165 H 215.706 -7.60182 0.0529471 0
M  V30 2166 N 217.281 0.66697 -1.42791 0
M  V30 2167 C 218.211 1.79218 -1.49677 0
M  V30 2168 C 219.192 1.66405 -0.352623 0
M  V30 2169 O 220.377 1.85708 -0.567993 0
M  V30 2170 C 217.507 3.17565 -1.40605 0
M  V30 2171 C 216.461 3.45124 -2.53127 0
M  V30 2172 C 215.787 4.83127 -2.29112 0
M  V30 2173 C 217.087 3.41236 -3.95418 0
M  V30 2174 H 218.781 1.73713 -2.43853 0
M  V30 2175 H 216.327 0.83432 -1.17367 0
M  V30 2176 H 218.28 3.96022 -1.44029 0
M  V30 2177 H 217.004 3.23767 -0.429271 0
M  V30 2178 H 215.663 2.69031 -2.49034 0
M  V30 2179 H 215.311 4.85988 -1.29709 0
M  V30 2180 H 215.011 5.02528 -3.04531 0
M  V30 2181 H 216.535 5.63859 -2.34297 0
M  V30 2182 H 217.949 4.09651 -4.01073 0
M  V30 2183 H 216.346 3.72173 -4.70752 0
M  V30 2184 H 217.416 2.39665 -4.21532 0
M  V30 2185 N 218.759 1.29093 0.90403 0
M  V30 2186 C 219.709 1.10482 1.99443 0
M  V30 2187 C 220.693 0.0255401 1.6088 0
M  V30 2188 O 221.885 0.24677 1.75271 0
M  V30 2189 C 219.014 0.778882 3.34348 0
M  V30 2190 C 218.1 1.89749 3.79284 0
M  V30 2191 N 218.491 3.14045 3.96497 0
M  V30 2192 C 216.789 1.78955 4.08523 0
M  V30 2193 C 217.49 3.86996 4.34292 0
M  V30 2194 N 216.466 3.14909 4.43095 0
M  V30 2195 H 220.268 2.04778 2.10815 0
M  V30 2196 H 217.782 1.20155 1.09255 0
M  V30 2197 H 219.779 0.62661 4.12164 0
M  V30 2198 H 218.439 -0.156205 3.24324 0
M  V30 2199 H 219.45 3.49548 3.82148 0
M  V30 2200 H 216.127 0.926886 4.07081 0
M  V30 2201 H 217.517 4.93941 4.55491 0
M  V30 2202 N 220.237 -1.11381 1.11499 0
M  V30 2203 C 221.483 -1.83403 0.865512 0
M  V30 2204 C 221.816 -1.84459 -0.607329 0
M  V30 2205 O 221.091 -1.29811 -1.44842 0
M  V30 2206 C 221.374 -3.30552 1.42855 0
M  V30 2207 C 221.227 -3.37886 2.96906 0
M  V30 2208 C 222.546 -4.26643 1.08 0
M  V30 2209 H 219.665 -0.665879 0.31587 0
M  V30 2210 H 222.307 -1.30601 1.37998 0
M  V30 2211 H 220.457 -3.75648 0.990985 0
M  V30 2212 H 222.129 -3.01343 3.49271 0
M  V30 2213 H 220.372 -2.78088 3.32941 0
M  V30 2214 H 221.043 -4.41458 3.31389 0
M  V30 2215 H 223.519 -3.89729 1.45775 0
M  V30 2216 H 222.395 -5.27986 1.50072 0
M  V30 2217 H 222.656 -4.42099 -0.00915037 0
M  V30 2218 N 221.715 -0.905404 -1.28997 0
M  V30 2219 C 222.662 -0.385892 -2.27551 0
M  V30 2220 C 223.632 0.535113 -1.57244 0
M  V30 2221 O 224.817 0.459119 -1.85194 0
M  V30 2222 C 221.957 0.375461 -3.43051 0
M  V30 2223 C 221.07 -0.577092 -4.28128 0
M  V30 2224 C 220.205 0.201879 -5.30816 0
M  V30 2225 C 219.244 -0.744829 -6.07551 0
M  V30 2226 N 218.381 9.42587e-05 -7.021 0
M  V30 2227 H 223.221 -1.23139 -2.71368 0
M  V30 2228 H 220.758 -0.618542 -1.33463 0
M  V30 2229 H 222.716 0.832992 -4.088 0
M  V30 2230 H 221.346 1.18537 -3.00248 0
M  V30 2231 H 220.398 -1.15315 -3.62501 0
M  V30 2232 H 221.71 -1.30152 -4.8152 0
M  V30 2233 H 220.864 0.720351 -6.02408 0
M  V30 2234 H 219.603 0.959413 -4.7817 0
M  V30 2235 H 218.608 -1.27475 -5.34818 0
M  V30 2236 H 219.833 -1.50178 -6.62286 0
M  V30 2237 H 217.779 0.739791 -6.51815 0
M  V30 2238 H 217.696 -0.664321 -7.53076 0
M  V30 2239 H 218.964 0.498644 -7.77903 0
M  V30 2240 N 223.193 1.4272 -0.668489 0
M  V30 2241 C 224.103 2.34596 0.0139753 0
M  V30 2242 C 225.119 1.5474 0.795703 0
M  V30 2243 O 226.295 1.87334 0.739466 0
M  V30 2244 C 223.36 3.33202 0.957982 0
M  V30 2245 C 222.421 4.28957 0.17149 0
M  V30 2246 C 221.654 5.22853 1.07053 0
M  V30 2247 O 221.877 5.21531 2.31001 0
M  V30 2248 O 220.811 5.9952 0.534727 0
M  V30 2249 H 224.637 2.9448 -0.742661 0
M  V30 2250 H 222.222 1.43117 -0.428705 0
M  V30 2251 H 224.104 3.93796 1.50008 0
M  V30 2252 H 222.779 2.758 1.69458 0
M  V30 2253 H 221.686 3.71796 -0.414558 0
M  V30 2254 H 223.019 4.89383 -0.52586 0
M  V30 2255 N 224.671 0.411399 1.52136 0
M  V30 2256 C 225.618 -0.412975 2.27075 0
M  V30 2257 C 226.588 -1.03912 1.29582 0
M  V30 2258 O 227.773 -1.06296 1.58448 0
M  V30 2259 C 224.913 -1.52247 3.09701 0
M  V30 2260 C 224.026 -0.917021 4.22155 0
M  V30 2261 C 223.161 -1.9994 4.92135 0
M  V30 2262 C 222.2 -1.37101 5.96548 0
M  V30 2263 N 221.337 -2.39364 6.60038 0
M  V30 2264 H 226.177 0.232499 2.97092 0
M  V30 2265 H 223.714 0.126496 1.46555 0
M  V30 2266 H 225.672 -2.17674 3.55913 0
M  V30 2267 H 224.302 -2.13794 2.41851 0
M  V30 2268 H 223.354 -0.151742 3.80097 0
M  V30 2269 H 224.666 -0.418006 4.97045 0
M  V30 2270 H 223.82 -2.73088 5.41763 0
M  V30 2271 H 222.559 -2.53208 4.16818 0
M  V30 2272 H 221.564 -0.624873 5.46237 0
M  V30 2273 H 222.789 -0.845998 6.7381 0
M  V30 2274 H 220.735 -2.91759 5.87548 0
M  V30 2275 H 220.652 -1.9428 7.3061 0
M  V30 2276 H 221.92 -3.12074 7.14304 0
M  V30 2277 N 226.149 -1.5696 0.141893 0
M  V30 2278 C 227.396 -1.9596 -0.510492 0
M  V30 2279 C 227.724 -1.02648 -1.65208 0
M  V30 2280 O 226.979 -0.0546947 -1.95624 0
M  V30 2281 C 227.278 -3.41242 -1.06249 0
M  V30 2282 C 226.944 -4.50882 -0.0398791 0
M  V30 2283 C 225.606 -4.80595 0.241247 0
M  V30 2284 C 227.958 -5.17058 0.65578 0
M  V30 2285 C 225.286 -5.73792 1.22393 0
M  V30 2286 C 227.638 -6.11313 1.62724 0
M  V30 2287 C 226.302 -6.39407 1.91612 0
M  V30 2288 H 225.572 -0.717068 -0.186802 0
M  V30 2289 H 228.219 -1.90142 0.227643 0
M  V30 2290 H 226.524 -3.43866 -1.87785 0
M  V30 2291 H 228.221 -3.68742 -1.57576 0
M  V30 2292 H 224.811 -4.27754 -0.269174 0
M  V30 2293 H 228.995 -4.94239 0.451779 0
M  V30 2294 H 224.251 -5.93853 1.45424 0
M  V30 2295 H 228.425 -6.61668 2.17183 0
M  V30 2296 H 226.052 -7.11427 2.6791 0
M  V30 2297 N 227.627 0.131896 -1.57047 0
M  V30 2298 C 228.575 1.18146 -2.0036 0
M  V30 2299 C 229.569 1.43614 -0.898406 0
M  V30 2300 O 230.775 1.43729 -1.08361 0
M  V30 2301 H 227.15 0.398042 -0.638018 0
M  V30 2302 H 229.121 0.789564 -2.87765 0
M  V30 2303 C 227.87 2.50341 -2.41298 0
M  V30 2304 H 227.193 2.31578 -3.25902 0
M  V30 2305 H 228.633 3.22371 -2.75414 0
M  V30 2306 C 227.092 3.11984 -1.27153 0
M  V30 2307 O 227.622 3.97484 -0.580459 0
M  V30 2308 N 225.828 2.71662 -1.03189 0
M  V30 2309 H 225.375 2.02231 -1.59564 0
M  V30 2310 H 225.333 3.13238 -0.270077 0
M  V30 2311 N 229.106 1.52395 0.401703 0
M  V30 2312 C 230.054 1.7689 1.51039 0
M  V30 2313 C 231.048 0.636298 1.56996 0
M  V30 2314 O 232.254 0.818507 1.60314 0
M  V30 2315 H 228.629 0.559502 0.502456 0
M  V30 2316 H 230.6 2.69757 1.27568 0
M  V30 2317 C 229.349 1.94331 2.88324 0
M  V30 2318 H 228.672 2.80905 2.84486 0
M  V30 2319 H 230.112 2.15466 3.65172 0
M  V30 2320 C 228.571 0.712396 3.29282 0
M  V30 2321 O 229.101 -0.116218 4.01532 0
M  V30 2322 N 227.307 0.546154 2.85422 0
M  V30 2323 H 226.854 1.22156 2.26794 0
M  V30 2324 H 226.812 -0.276113 3.13185 0
M  V30 2325 N 230.584 -0.659388 1.43143 0
M  V30 2326 C 231.861 -1.41627 1.34912 0
M  V30 2327 C 232.241 -2.11099 -0.00607785 0
M  V30 2328 O 231.589 -2.04353 -1.02236 0
M  V30 2329 C 231.799 -2.40604 2.52805 0
M  V30 2330 C 233.147 -3.04789 2.95616 0
M  V30 2331 O 234.171 -2.50932 2.52807 0
M  V30 2332 O 233.03 -4.02421 3.69756 0
M  V30 2333 H 230.124 -0.63246 0.532844 0
M  V30 2334 H 232.67 -0.686814 1.5518 0
M  V30 2335 H 231.442 -1.88174 3.43083 0
M  V30 2336 H 231.065 -3.21009 2.34604 0
M  V30 2337 N 232.062 -1.29571 -0.897171 0
M  V30 2338 C 233.308 -1.18873 -1.65048 0
M  V30 2339 C 233.663 0.256707 -1.9068 0
M  V30 2340 O 232.956 1.18202 -1.50794 0
M  V30 2341 C 233.15 -1.9382 -3.00281 0
M  V30 2342 C 232.979 -3.45503 -2.8785 0
M  V30 2343 C 231.749 -4.14856 -2.88483 0
M  V30 2344 C 233.947 -4.40956 -2.64693 0
M  V30 2345 N 231.929 -5.52886 -2.66815 0
M  V30 2346 C 233.3 -5.66464 -2.5203 0
M  V30 2347 C 235.355 -4.3069 -2.49821 0
M  V30 2348 C 234.058 -6.82871 -2.26008 0
M  V30 2349 C 236.084 -5.46852 -2.25182 0
M  V30 2350 C 235.446 -6.71333 -2.13286 0
M  V30 2351 H 231.545 -0.489998 -0.609447 0
M  V30 2352 H 234.129 -1.63431 -1.05822 0
M  V30 2353 H 232.3 -1.51671 -3.57562 0
M  V30 2354 H 234.032 -1.75366 -3.64731 0
M  V30 2355 H 230.787 -3.66579 -2.99861 0
M  V30 2356 H 231.211 -6.25487 -2.59027 0
M  V30 2357 H 235.853 -3.35141 -2.5776 0
M  V30 2358 H 233.571 -7.78473 -2.16806 0
M  V30 2359 H 237.157 -5.40809 -2.14515 0
M  V30 2360 H 236.037 -7.59701 -1.94485 0
M  V30 2361 N 233.54 1.10788 -1.12088 0
M  V30 2362 C 234.786 1.8313 -0.885148 0
M  V30 2363 C 235.141 1.8336 0.582839 0
M  V30 2364 O 234.434 1.28062 1.42516 0
M  V30 2365 C 234.628 3.29294 -1.38926 0
M  V30 2366 C 234.457 3.43302 -2.90472 0
M  V30 2367 C 233.227 3.55928 -3.58669 0
M  V30 2368 C 235.425 3.37014 -3.88492 0
M  V30 2369 N 233.407 3.58475 -4.98366 0
M  V30 2370 C 234.778 3.46263 -5.14298 0
M  V30 2371 C 236.833 3.20589 -3.80955 0
M  V30 2372 C 235.536 3.4078 -6.33452 0
M  V30 2373 C 237.562 3.16427 -4.99628 0
M  V30 2374 C 236.924 3.26253 -6.2429 0
M  V30 2375 H 233.023 0.685054 -0.377128 0
M  V30 2376 H 235.607 1.3251 -1.4265 0
M  V30 2377 H 233.778 3.78416 -0.874999 0
M  V30 2378 H 235.51 3.89578 -1.09596 0
M  V30 2379 H 232.265 3.58779 -3.09151 0
M  V30 2380 H 232.689 3.6337 -5.71219 0
M  V30 2381 H 237.331 3.11873 -2.85474 0
M  V30 2382 H 235.049 3.48263 -7.29204 0
M  V30 2383 H 238.635 3.04874 -4.95523 0
M  V30 2384 H 237.515 3.2303 -7.14578 0
M  V30 2385 N 235.018 0.912232 1.28515 0
M  V30 2386 C 236.267 0.540504 1.94323 0
M  V30 2387 C 236.58 -0.920044 1.72611 0
M  V30 2388 O 237.786 -1.39986 2.32629 0
M  V30 2389 C 236.242 0.915803 3.48053 0
M  V30 2390 C 235.85 2.39598 3.78546 0
M  V30 2391 C 237.594 0.614588 4.20027 0
M  V30 2392 C 235.501 2.71148 5.25578 0
M  V30 2393 H 234.431 0.198418 0.727424 0
M  V30 2394 H 237.082 1.11094 1.46049 0
M  V30 2395 H 235.464 0.274168 3.9505 0
M  V30 2396 H 236.638 3.08422 3.42364 0
M  V30 2397 H 234.953 2.66749 3.1974 0
M  V30 2398 H 237.55 0.827002 5.28266 0
M  V30 2399 H 237.893 -0.447531 4.13887 0
M  V30 2400 H 238.426 1.21462 3.78803 0
M  V30 2401 H 235.165 3.76207 5.36794 0
M  V30 2402 H 234.685 2.0696 5.62963 0
M  V30 2403 H 236.364 2.58072 5.93302 0
M  V30 2404 N 236.496 -1.42363 0.676048 0
M  V30 2405 C 237.744 -2.01123 0.198437 0
M  V30 2406 C 238.065 -1.53731 -1.19966 0
M  V30 2407 O 237.335 -0.759518 -1.80577 0
M  V30 2408 H 235.915 -0.743678 0.0703721 0
M  V30 2409 H 238.577 -1.74263 0.872837 0
M  V30 2410 H 237.673 -3.11454 0.200686 0
M  V30 2411 N 237.974 -0.419461 -1.51915 0
M  V30 2412 C 239.39 -0.0708431 -1.59443 0
M  V30 2413 C 239.59 1.41796 -1.43164 0
M  V30 2414 O 238.646 2.18596 -1.26381 0
M  V30 2415 C 239.959 -0.574991 -2.95151 0
M  V30 2416 C 241.507 -0.533867 -3.08413 0
M  V30 2417 C 241.982 -1.01469 -4.46618 0
M  V30 2418 N 243.473 -0.971939 -4.52888 0
M  V30 2419 C 244.208 -1.31505 -5.58116 0
M  V30 2420 N 243.704 -1.73014 -6.70849 0
M  V30 2421 N 245.497 -1.23436 -5.48379 0
M  V30 2422 H 237.648 -1.38836 -1.60743 0
M  V30 2423 H 239.911 -0.570998 -0.756747 0
M  V30 2424 H 239.617 -1.61597 -3.12377 0
M  V30 2425 H 239.491 0.00979777 -3.77199 0
M  V30 2426 H 241.878 0.498086 -2.90866 0
M  V30 2427 H 241.959 -1.15484 -2.28248 0
M  V30 2428 H 241.603 -2.04502 -4.6491 0
M  V30 2429 H 241.533 -0.370433 -5.25295 0
M  V30 2430 H 244.024 -0.666893 -3.71969 0
M  V30 2431 H 244.337 -1.97479 -7.47143 0
M  V30 2432 H 242.682 -1.76926 -6.72103 0
M  V30 2433 H 245.873 -0.908869 -4.59192 0
M  V30 2434 H 246.046 -1.50506 -6.30279 0
M  V30 2435 N 239.452 1.56882 -0.150215 0
M  V30 2436 C 240.382 2.19935 0.784284 0
M  V30 2437 C 241.363 1.14854 1.25469 0
M  V30 2438 O 242.548 1.43209 1.31168 0
M  V30 2439 C 239.678 2.82349 2.02229 0
M  V30 2440 C 238.632 3.93285 1.68853 0
M  V30 2441 C 237.958 4.42649 2.99944 0
M  V30 2442 C 239.258 5.13904 0.932714 0
M  V30 2443 H 240.952 2.9828 0.258781 0
M  V30 2444 H 238.498 1.43473 0.123029 0
M  V30 2445 H 240.451 3.25126 2.68088 0
M  V30 2446 H 239.175 2.0134 2.57157 0
M  V30 2447 H 237.834 3.5113 1.05371 0
M  V30 2448 H 237.482 3.58458 3.52869 0
M  V30 2449 H 237.182 5.17476 2.78374 0
M  V30 2450 H 238.706 4.88099 3.66868 0
M  V30 2451 H 240.12 5.53506 1.49345 0
M  V30 2452 H 238.517 5.94515 0.81684 0
M  V30 2453 H 239.587 4.84842 -0.0749568 0
M  V30 2454 N 240.93 -0.123565 1.57115 0
M  V30 2455 C 242.176 -0.833386 1.84885 0
M  V30 2456 C 242.509 -1.79742 0.735292 0
M  V30 2457 O 241.784 -1.92764 -0.25925 0
M  V30 2458 C 242.067 -1.5873 3.23228 0
M  V30 2459 C 241.92 -0.643183 4.45178 0
M  V30 2460 C 243.239 -2.54453 3.59085 0
M  V30 2461 H 240.358 -0.301518 0.6725 0
M  V30 2462 H 243 -0.097778 1.89748 0
M  V30 2463 H 241.15 -2.21438 3.19214 0
M  V30 2464 H 242.822 -0.0253015 4.61293 0
M  V30 2465 H 241.065 0.0456139 4.33776 0
M  V30 2466 H 241.736 -1.20724 5.38637 0
M  V30 2467 H 244.212 -2.01853 3.63861 0
M  V30 2468 H 243.088 -3.04238 4.5687 0
M  V30 2469 H 243.349 -3.36906 2.86264 0
M  V30 2470 N 242.408 -1.52605 -0.393616 0
M  V30 2471 C 243.355 -1.77055 -1.48054 0
M  V30 2472 C 244.325 -0.61358 -1.54352 0
M  V30 2473 O 245.51 -0.852806 -1.70681 0
M  V30 2474 C 242.65 -1.94108 -2.85335 0
M  V30 2475 C 241.763 -3.21792 -2.88226 0
M  V30 2476 C 240.898 -3.29188 -4.16904 0
M  V30 2477 C 239.937 -4.51013 -4.13828 0
M  V30 2478 N 239.074 -4.55716 -5.34105 0
M  V30 2479 H 243.914 -2.69815 -1.26506 0
M  V30 2480 H 241.451 -1.33683 -0.61379 0
M  V30 2481 H 243.409 -2.01979 -3.65049 0
M  V30 2482 H 242.039 -1.04713 -3.05344 0
M  V30 2483 H 241.091 -3.23015 -2.00911 0
M  V30 2484 H 242.403 -4.11557 -2.8182 0
M  V30 2485 H 241.557 -3.36216 -5.05018 0
M  V30 2486 H 240.296 -2.37389 -4.26026 0
M  V30 2487 H 239.301 -4.44115 -3.24102 0
M  V30 2488 H 240.526 -5.44123 -4.06333 0
M  V30 2489 H 238.472 -3.66807 -5.43865 0
M  V30 2490 H 238.389 -5.39346 -5.29756 0
M  V30 2491 H 239.657 -4.66993 -6.2413 0
M  V30 2492 N 243.887 0.651787 -1.4349 0
M  V30 2493 C 244.797 1.79368 -1.5121 0
M  V30 2494 C 245.813 1.69361 -0.399093 0
M  V30 2495 O 246.989 1.90505 -0.653431 0
M  V30 2496 C 244.054 3.15653 -1.43401 0
M  V30 2497 C 243.115 3.37446 -2.65384 0
M  V30 2498 C 242.348 4.67229 -2.57939 0
M  V30 2499 O 242.571 5.46676 -1.62792 0
M  V30 2500 O 241.505 4.90773 -3.48462 0
M  V30 2501 H 245.331 1.7581 -2.47638 0
M  V30 2502 H 242.916 0.810447 -1.25507 0
M  V30 2503 H 244.798 3.96935 -1.41494 0
M  V30 2504 H 243.473 3.19798 -0.501085 0
M  V30 2505 H 242.38 2.55923 -2.72863 0
M  V30 2506 H 243.713 3.38148 -3.57654 0
M  V30 2507 N 245.365 1.30045 0.890287 0
M  V30 2508 C 246.613 1.18327 1.63839 0
M  V30 2509 C 246.934 -0.263455 1.93212 0
M  V30 2510 O 246.204 -1.17856 1.56482 0
M  V30 2511 H 244.784 0.434933 0.607324 0
M  V30 2512 H 247.446 1.631 1.06698 0
M  V30 2513 H 246.542 1.74024 2.59079 0
M  V30 2514 N 246.843 -1.10192 1.12674 0
M  V30 2515 C 248.083 -1.83825 0.893736 0
M  V30 2516 C 248.447 -1.83341 -0.570082 0
M  V30 2517 O 249.648 -2.52553 -0.920354 0
M  V30 2518 C 247.919 -3.26405 1.45582 0
M  V30 2519 S 249.478 -4.17136 1.36171 0
M  V30 2520 H 246.296 -0.633732 0.322342 0
M  V30 2521 H 248.898 -1.32581 1.43675 0
M  V30 2522 H 247.602 -3.24329 2.51473 0
M  V30 2523 H 247.133 -3.82721 0.910405 0
M  V30 2524 H 249.148 -4.95069 0.334863 0
M  V30 2525 N 248.321 -0.919034 -1.28029 0
M  V30 2526 C 249.231 -0.416756 -2.30869 0
M  V30 2527 C 250.247 0.498235 -1.66714 0
M  V30 2528 O 251.423 0.383144 -1.97722 0
M  V30 2529 C 248.488 0.330274 -3.45123 0
M  V30 2530 C 247.549 -0.618578 -4.2482 0
M  V30 2531 C 246.782 0.0928959 -5.33619 0
M  V30 2532 O 247.005 1.31375 -5.55065 0
M  V30 2533 O 245.939 -0.574499 -5.99152 0
M  V30 2534 H 249.765 -1.27043 -2.75851 0
M  V30 2535 H 247.35 -0.684052 -1.3282 0
M  V30 2536 H 249.232 0.751972 -4.14636 0
M  V30 2537 H 247.907 1.1597 -3.02213 0
M  V30 2538 H 246.814 -1.08978 -3.57875 0
M  V30 2539 H 248.147 -1.41497 -4.71423 0
M  V30 2540 N 249.799 1.42003 -0.683588 0
M  V30 2541 C 251.048 2.00638 -0.206681 0
M  V30 2542 C 251.361 1.5472 1.19671 0
M  V30 2543 O 252.567 2.05833 1.77045 0
M  V30 2544 C 251.023 3.58487 -0.318632 0
M  V30 2545 C 250.631 4.1339 -1.72663 0
M  V30 2546 C 252.375 4.24384 0.0991141 0
M  V30 2547 C 250.282 5.63633 -1.79087 0
M  V30 2548 H 249.212 0.750408 -0.0735107 0
M  V30 2549 H 251.863 1.62624 -0.850048 0
M  V30 2550 H 250.245 3.94047 0.392781 0
M  V30 2551 H 251.419 3.89273 -2.46583 0
M  V30 2552 H 249.734 3.59976 -2.09299 0
M  V30 2553 H 252.331 5.34652 0.0713833 0
M  V30 2554 H 252.674 4.00505 1.13586 0
M  V30 2555 H 253.207 3.93816 -0.561599 0
M  V30 2556 H 249.946 5.92323 -2.80774 0
M  V30 2557 H 249.466 5.89714 -1.09535 0
M  V30 2558 H 251.145 6.28201 -1.5483 0
M  V30 2559 N 251.277 0.427512 1.51691 0
M  V30 2560 C 252.525 -0.141948 2.01601 0
M  V30 2561 C 252.846 -1.44067 1.31414 0
M  V30 2562 O 252.116 -1.90763 0.445658 0
M  V30 2563 H 250.696 -0.0554468 0.744939 0
M  V30 2564 H 253.358 0.567968 1.86441 0
M  V30 2565 H 252.454 -0.324913 3.10404 0
M  V30 2566 N 252.755 -1.56801 0.158532 0
M  V30 2567 C 254.002 -1.9649 -0.489679 0
M  V30 2568 C 254.33 -1.04394 -1.6411 0
M  V30 2569 O 253.585 -0.0754401 -1.95555 0
M  V30 2570 C 253.884 -3.4235 -1.02623 0
M  V30 2571 C 253.55 -4.50899 0.00794526 0
M  V30 2572 C 252.212 -4.80312 0.292207 0
M  V30 2573 C 254.564 -5.16333 0.710584 0
M  V30 2574 C 251.892 -5.72461 1.28472 0
M  V30 2575 C 254.244 -6.09553 1.69199 0
M  V30 2576 C 252.908 -6.37339 1.98383 0
M  V30 2577 H 252.178 -0.719009 -0.179186 0
M  V30 2578 H 254.825 -1.8989 0.247798 0
M  V30 2579 H 253.13 -3.45838 -1.84128 0
M  V30 2580 H 254.827 -3.70393 -1.53656 0
M  V30 2581 H 251.417 -4.28015 -0.22379 0
M  V30 2582 H 255.601 -4.93732 0.504174 0
M  V30 2583 H 250.857 -5.92278 1.51714 0
M  V30 2584 H 255.031 -6.59327 2.24189 0
M  V30 2585 H 252.658 -7.08546 2.7544 0
M  V30 2586 N 254.233 0.115231 -1.57178 0
M  V30 2587 C 255.482 0.820945 -1.84237 0
M  V30 2588 C 255.795 1.80866 -0.744761 0
M  V30 2589 O 257.001 2.56083 -0.901871 0
M  V30 2590 C 255.457 1.51072 -3.26658 0
M  V30 2591 C 255.065 0.563795 -4.44438 0
M  V30 2592 C 256.809 2.20134 -3.62962 0
M  V30 2593 C 254.716 1.25701 -5.77887 0
M  V30 2594 H 253.646 0.310328 -0.687177 0
M  V30 2595 H 256.297 0.0737134 -1.83352 0
M  V30 2596 H 254.679 2.30471 -3.22024 0
M  V30 2597 H 255.853 -0.197247 -4.60378 0
M  V30 2598 H 254.168 -0.0200638 -4.16395 0
M  V30 2599 H 256.765 2.72696 -4.59936 0
M  V30 2600 H 257.108 2.98107 -2.90582 0
M  V30 2601 H 257.641 1.47619 -3.69396 0
M  V30 2602 H 254.38 0.518493 -6.53446 0
M  V30 2603 H 253.9 1.98997 -5.65827 0
M  V30 2604 H 255.579 1.78915 -6.2177 0
M  V30 2605 N 255.711 1.52812 0.385517 0
M  V30 2606 C 257.122 1.5993 0.963293 0
M  V30 2607 C 257.473 0.454302 1.90868 0
M  V30 2608 O 256.598 -0.422132 2.12243 0
M  V30 2609 C 257.193 2.89871 1.75387 0
M  V30 2610 C 255.752 2.99389 2.28129 0
M  V30 2611 C 254.899 2.55071 1.08783 0
M  V30 2612 H 257.85 1.5784 0.164948 0
M  V30 2613 H 257.871 2.76553 2.61341 0
M  V30 2614 H 257.383 3.73186 1.06554 0
M  V30 2615 H 255.484 2.20619 3.00263 0
M  V30 2616 H 255.597 4.04096 2.57377 0
M  V30 2617 H 253.961 2.09473 1.4489 0
M  V30 2618 H 254.744 3.40785 0.414807 0
M  V30 2619 N 257.189 -0.644168 1.43834 0
M  V30 2620 C 258.414 -1.43642 1.49605 0
M  V30 2621 C 258.839 -1.8773 0.117913 0
M  V30 2622 O 258.197 -1.57938 -0.890239 0
M  V30 2623 C 258.245 -2.6416 2.45463 0
M  V30 2624 O 257.349 -3.63538 1.94714 0
M  V30 2625 H 256.69 -0.430329 0.50568 0
M  V30 2626 H 259.22 -0.787448 1.8884 0
M  V30 2627 H 259.23 -3.11864 2.63068 0
M  V30 2628 H 257.905 -2.31414 3.45572 0
M  V30 2629 H 256.482 -3.2273 1.86814 0
M  V30 2630 N 258.668 -1.30515 -0.883378 0
M  V30 2631 C 260.079 -1.17509 -1.45081 0
M  V30 2632 C 260.43 0.223605 -1.94922 0
M  V30 2633 O 259.555 1.12041 -1.85137 0
M  V30 2634 C 260.15 -2.12715 -2.63701 0
M  V30 2635 C 258.709 -2.03682 -3.16529 0
M  V30 2636 C 257.856 -2.02706 -1.89224 0
M  V30 2637 H 260.807 -1.42762 -0.693165 0
M  V30 2638 H 260.828 -1.70891 -3.39965 0
M  V30 2639 H 260.34 -3.14505 -2.27395 0
M  V30 2640 H 258.441 -1.05039 -3.57488 0
M  V30 2641 H 258.554 -2.92146 -3.7972 0
M  V30 2642 H 256.918 -1.4753 -2.07622 0
M  V30 2643 H 257.701 -3.06229 -1.55174 0
M  V30 2644 N 260.146 1.09593 -1.13257 0
M  V30 2645 C 261.392 1.82003 -0.89458 0
M  V30 2646 C 261.725 1.85402 0.577906 0
M  V30 2647 O 261 1.32099 1.42759 0
M  V30 2648 C 261.283 3.28237 -1.48096 0
M  V30 2649 C 261.136 3.3312 -3.02244 0
M  V30 2650 C 262.455 4.24871 -1.14774 0
M  V30 2651 H 259.574 0.66077 -0.326424 0
M  V30 2652 H 262.216 1.28389 -1.40058 0
M  V30 2653 H 260.366 3.74024 -1.05062 0
M  V30 2654 H 262.038 2.95748 -3.54021 0
M  V30 2655 H 260.281 2.72756 -3.37323 0
M  V30 2656 H 260.952 4.3613 -3.38371 0
M  V30 2657 H 263.428 3.87361 -1.51957 0
M  V30 2658 H 262.304 5.25532 -1.58452 0
M  V30 2659 H 262.565 4.42058 -0.0611849 0
M  V30 2660 N 261.624 0.925811 1.2754 0
M  V30 2661 C 262.571 0.422045 2.26908 0
M  V30 2662 C 263.541 -0.510029 1.58076 0
M  V30 2663 O 264.726 -0.429599 1.85901 0
M  V30 2664 C 261.866 -0.320837 3.43605 0
M  V30 2665 C 260.979 0.64513 4.27156 0
M  V30 2666 C 260.114 -0.117405 5.3107 0
M  V30 2667 C 259.153 0.841391 6.0629 0
M  V30 2668 N 258.29 0.111604 7.02011 0
M  V30 2669 H 263.13 1.27441 2.69375 0
M  V30 2670 H 260.667 0.639697 1.32462 0
M  V30 2671 H 262.625 -0.76785 4.10073 0
M  V30 2672 H 261.255 -1.13745 3.02096 0
M  V30 2673 H 260.307 1.21067 3.6062 0
M  V30 2674 H 261.619 1.37797 4.79389 0
M  V30 2675 H 260.773 -0.624422 6.03478 0
M  V30 2676 H 259.512 -0.883219 4.79636 0
M  V30 2677 H 258.517 1.35967 5.32722 0
M  V30 2678 H 259.742 1.60696 6.59813 0
M  V30 2679 H 257.688 -0.635999 6.5291 0
M  V30 2680 H 257.605 0.784044 7.51923 0
M  V30 2681 H 258.873 -0.374823 7.78598 0
M  V30 2682 N 263.102 -1.41638 0.69111 0
M  V30 2683 C 264.032 -2.3347 0.037248 0
M  V30 2684 C 265.013 -1.51575 -0.771947 0
M  V30 2685 O 266.198 -1.80126 -0.72582 0
M  V30 2686 C 263.328 -3.35354 -0.903064 0
M  V30 2687 C 262.282 -4.27526 -0.201288 0
M  V30 2688 C 261.608 -5.19747 -1.25565 0
M  V30 2689 C 262.908 -5.13959 0.929689 0
M  V30 2690 H 264.602 -2.88397 0.804227 0
M  V30 2691 H 262.148 -1.38669 0.388189 0
M  V30 2692 H 264.101 -3.98519 -1.36969 0
M  V30 2693 H 262.825 -2.78767 -1.70166 0
M  V30 2694 H 261.484 -3.65779 0.245265 0
M  V30 2695 H 261.132 -4.59479 -2.04666 0
M  V30 2696 H 260.832 -5.8225 -0.791128 0
M  V30 2697 H 262.356 -5.85789 -1.72288 0
M  V30 2698 H 263.77 -5.70718 0.543546 0
M  V30 2699 H 262.167 -5.85379 1.32103 0
M  V30 2700 H 263.237 -4.51389 1.77133 0
M  V30 2701 N 264.58 -0.43555 -1.51462 0
M  V30 2702 C 265.49 0.383001 -2.31453 0
M  V30 2703 C 266.506 1.02931 -1.4029 0
M  V30 2704 O 267.682 1.02507 -1.73362 0
M  V30 2705 C 264.747 1.47043 -3.13973 0
M  V30 2706 C 263.808 0.844433 -4.20913 0
M  V30 2707 C 263.041 1.88004 -4.9949 0
M  V30 2708 O 263.264 3.10199 -4.78678 0
M  V30 2709 O 262.198 1.47157 -5.83634 0
M  V30 2710 H 266.024 -0.269964 -3.02498 0
M  V30 2711 H 263.609 -0.19813 -1.4808 0
M  V30 2712 H 265.491 2.10113 -3.65281 0
M  V30 2713 H 264.166 2.10751 -2.45695 0
M  V30 2714 H 263.073 0.175729 -3.73687 0
M  V30 2715 H 264.406 0.250869 -4.9156 0
M  V30 2716 N 266.058 1.56714 -0.166846 0
M  V30 2717 C 267.006 2.19056 0.782123 0
M  V30 2718 C 268 1.15328 1.24079 0
M  V30 2719 O 269.206 1.33537 1.20697 0
M  V30 2720 H 265.581 0.70167 0.270486 0
M  V30 2721 H 267.552 2.97494 0.232322 0
M  V30 2722 C 266.301 2.84206 2.00306 0
M  V30 2723 H 265.624 3.63748 1.65914 0
M  V30 2724 H 267.064 3.31302 2.64604 0
M  V30 2725 C 265.523 1.83744 2.82382 0
M  V30 2726 O 266.053 1.32014 3.79388 0
M  V30 2727 N 264.259 1.52601 2.47308 0
M  V30 2728 H 263.806 1.9486 1.68485 0
M  V30 2729 H 263.764 0.856351 3.02513 0
M  V30 2730 N 267.536 -0.106894 1.57237 0
M  V30 2731 C 268.469 -1.16125 1.96444 0
M  V30 2732 C 269.447 -1.3947 0.835871 0
M  V30 2733 O 270.631 -1.53425 1.09513 0
M  V30 2734 C 267.758 -2.51277 2.27107 0
M  V30 2735 C 266.804 -2.44285 3.4961 0
M  V30 2736 S 267.637 -1.87077 5.01759 0
M  V30 2737 C 268.793 -3.23877 5.35588 0
M  V30 2738 H 269.026 -0.826971 2.85567 0
M  V30 2739 H 266.559 -0.314124 1.51171 0
M  V30 2740 H 268.517 -3.29035 2.45451 0
M  V30 2741 H 267.178 -2.81879 1.38576 0
M  V30 2742 H 266.371 -3.4387 3.68469 0
M  V30 2743 H 265.973 -1.74652 3.30715 0
M  V30 2744 H 268.265 -4.20122 5.31511 0
M  V30 2745 H 269.208 -3.09833 6.36717 0
M  V30 2746 H 269.616 -3.22864 4.63054 0
M  V30 2747 N 269.014 -1.53014 -0.377408 0
M  V30 2748 C 270.43 -1.42523 -0.718281 0
M  V30 2749 C 270.63 -0.55487 -1.9371 0
M  V30 2750 O 269.686 -0.0327593 -2.52479 0
M  V30 2751 C 270.999 -2.85546 -0.942539 0
M  V30 2752 C 272.547 -2.95101 -1.04329 0
M  V30 2753 C 273.022 -4.3916 -1.3001 0
M  V30 2754 N 274.513 -4.42536 -1.36806 0
M  V30 2755 C 275.248 -5.51097 -1.58364 0
M  V30 2756 N 274.744 -6.69724 -1.77317 0
M  V30 2757 N 276.537 -5.38657 -1.60638 0
M  V30 2758 H 268.688 -2.08116 0.424426 0
M  V30 2759 H 270.951 -0.939352 0.127759 0
M  V30 2760 H 270.657 -3.51499 -0.118929 0
M  V30 2761 H 270.531 -3.28493 -1.85397 0
M  V30 2762 H 272.918 -2.29309 -1.85745 0
M  V30 2763 H 272.999 -2.55566 -0.109505 0
M  V30 2764 H 272.643 -5.05521 -0.490991 0
M  V30 2765 H 272.573 -4.76258 -2.24691 0
M  V30 2766 H 275.064 -3.57039 -1.23821 0
M  V30 2767 H 275.377 -7.48233 -1.93306 0
M  V30 2768 H 273.722 -6.72732 -1.74518 0
M  V30 2769 H 276.913 -4.44948 -1.45391 0
M  V30 2770 H 277.086 -6.2333 -1.77098 0
M  V30 2771 N 270.492 0.636531 -1.44174 0
M  V30 2772 C 271.422 1.76003 -1.53444 0
M  V30 2773 C 272.403 1.65619 -0.387841 0
M  V30 2774 O 273.588 1.84461 -0.607257 0
M  V30 2775 C 270.718 3.14511 -1.4731 0
M  V30 2776 C 269.672 3.39677 -2.60391 0
M  V30 2777 C 268.998 4.78159 -2.39308 0
M  V30 2778 C 270.298 3.32772 -4.02567 0
M  V30 2779 H 271.992 1.68501 -2.47483 0
M  V30 2780 H 269.538 0.809237 -1.19111 0
M  V30 2781 H 271.491 3.92878 -1.52397 0
M  V30 2782 H 270.215 3.22783 -0.49785 0
M  V30 2783 H 268.874 2.63688 -2.54684 0
M  V30 2784 H 268.522 4.83128 -1.39988 0
M  V30 2785 H 268.222 4.95956 -3.15122 0
M  V30 2786 H 269.746 5.58762 -2.46205 0
M  V30 2787 H 271.16 4.01051 -4.09672 0
M  V30 2788 H 269.557 3.62104 -4.7854 0
M  V30 2789 H 270.627 2.30669 -4.2652 0
M  V30 2790 N 271.97 1.30982 0.876444 0
M  V30 2791 C 272.902 1.13902 1.98894 0
M  V30 2792 C 273.915 0.0798815 1.62604 0
M  V30 2793 O 275.104 0.326743 1.75484 0
M  V30 2794 C 272.204 0.716699 3.31235 0
M  V30 2795 C 271.377 1.85945 3.95908 0
M  V30 2796 C 270.436 1.42426 5.06558 0
M  V30 2797 O 269.462 2.13287 5.27729 0
M  V30 2798 N 270.664 0.308025 5.79682 0
M  V30 2799 H 273.429 2.09724 2.14094 0
M  V30 2800 H 270.99 1.2323 1.05004 0
M  V30 2801 H 272.982 0.408403 4.02634 0
M  V30 2802 H 271.552 -0.149719 3.12241 0
M  V30 2803 H 270.772 2.33541 3.17573 0
M  V30 2804 H 272.06 2.62503 4.35855 0
M  V30 2805 H 271.458 -0.282241 5.64995 0
M  V30 2806 H 270.015 0.0592282 6.51773 0
M  V30 2807 N 273.449 -1.08991 1.13837 0
M  V30 2808 C 274.399 -2.1393 0.788535 0
M  V30 2809 C 275.383 -1.59396 -0.219516 0
M  V30 2810 O 276.575 -1.76985 -0.0227557 0
M  V30 2811 C 273.704 -3.42305 0.261147 0
M  V30 2812 C 272.79 -4.03736 1.29837 0
M  V30 2813 N 273.181 -4.39659 2.50067 0
M  V30 2814 C 271.479 -4.30993 1.1472 0
M  V30 2815 C 272.18 -4.88113 3.16419 0
M  V30 2816 N 271.156 -4.85846 2.43832 0
M  V30 2817 H 274.958 -2.39516 1.70322 0
M  V30 2818 H 272.472 -1.26263 1.02134 0
M  V30 2819 H 274.469 -4.16899 -0.0077405 0
M  V30 2820 H 273.129 -3.18172 -0.647805 0
M  V30 2821 H 274.14 -4.30878 2.8734 0
M  V30 2822 H 270.817 -4.16444 0.296773 0
M  V30 2823 H 272.207 -5.25336 4.18894 0
M  V30 2824 N 274.927 -0.932562 -1.27047 0
M  V30 2825 C 275.837 -0.441219 -2.30414 0
M  V30 2826 C 276.853 0.480525 -1.67233 0
M  V30 2827 O 278.029 0.362151 -1.98117 0
M  V30 2828 C 275.094 0.293651 -3.45454 0
M  V30 2829 C 274.155 -0.663601 -4.2414 0
M  V30 2830 C 273.388 0.0362932 -5.33688 0
M  V30 2831 O 273.611 1.2548 -5.56427 0
M  V30 2832 O 272.545 -0.638015 -5.98509 0
M  V30 2833 H 276.371 -1.29962 -2.74488 0
M  V30 2834 H 273.956 -0.6981 -1.32087 0
M  V30 2835 H 275.838 0.707951 -4.15411 0
M  V30 2836 H 274.513 1.12758 -3.03426 0
M  V30 2837 H 273.42 -1.12768 -3.56699 0
M  V30 2838 H 274.753 -1.46489 -4.69896 0
M  V30 2839 N 276.405 1.4127 -0.698611 0
M  V30 2840 C 277.337 2.292 0.00399731 0
M  V30 2841 C 278.35 1.44944 0.741279 0
M  V30 2842 O 279.539 1.68416 0.591477 0
M  V30 2843 C 276.639 3.22875 1.02979 0
M  V30 2844 C 275.812 4.35904 0.36151 0
M  V30 2845 C 274.871 5.10134 1.29033 0
M  V30 2846 O 273.897 5.63809 0.781562 0
M  V30 2847 N 275.099 5.17885 2.6225 0
M  V30 2848 H 277.864 2.9014 -0.750921 0
M  V30 2849 H 275.425 1.52455 -0.544882 0
M  V30 2850 H 277.417 3.69404 1.65296 0
M  V30 2851 H 275.987 2.63221 1.68622 0
M  V30 2852 H 275.207 3.91719 -0.441584 0
M  V30 2853 H 276.495 5.08696 -0.103055 0
M  V30 2854 H 275.893 4.7573 3.061 0
M  V30 2855 H 274.45 5.6798 3.19754 0
M  V30 2856 N 277.883 0.443576 1.51229 0
M  V30 2857 C 279.299 0.0962001 1.5931 0
M  V30 2858 C 279.499 -1.39501 1.45402 0
M  V30 2859 O 278.555 -2.16557 1.29843 0
M  V30 2860 C 279.868 0.621875 2.94199 0
M  V30 2861 C 281.416 0.582865 3.07525 0
M  V30 2862 C 281.891 1.08562 4.44948 0
M  V30 2863 N 283.382 1.04387 4.51284 0
M  V30 2864 C 284.117 1.40368 5.55954 0
M  V30 2865 N 283.613 1.83664 6.68011 0
M  V30 2866 N 285.406 1.32145 5.46346 0
M  V30 2867 H 277.557 1.41376 1.58514 0
M  V30 2868 H 279.82 0.582965 0.747567 0
M  V30 2869 H 279.526 1.66546 3.09767 0
M  V30 2870 H 279.4 0.0502125 3.77167 0
M  V30 2871 H 281.787 -0.451749 2.91622 0
M  V30 2872 H 281.868 1.191 2.26382 0
M  V30 2873 H 281.512 2.11873 4.61598 0
M  V30 2874 H 281.442 0.453956 5.2464 0
M  V30 2875 H 283.933 0.725986 3.70861 0
M  V30 2876 H 284.246 2.0934 7.43906 0
M  V30 2877 H 282.591 1.87596 6.69203 0
M  V30 2878 H 285.782 0.981808 4.57688 0
M  V30 2879 H 285.955 1.60514 6.27805 0
M  V30 2880 N 279.361 -1.56624 0.175154 0
M  V30 2881 C 280.324 -2.16934 -0.739738 0
M  V30 2882 C 281.324 -1.11842 -1.15533 0
M  V30 2883 O 282.514 -1.37335 -1.07167 0
M  V30 2884 C 279.646 -2.75531 -2.00738 0
M  V30 2885 H 280.839 -2.99131 -0.214639 0
M  V30 2886 H 278.392 -1.56123 -0.0744197 0
M  V30 2887 H 279.127 -1.97078 -2.57548 0
M  V30 2888 H 278.912 -3.52444 -1.71831 0
M  V30 2889 H 280.402 -3.21904 -2.66021 0
M  V30 2890 N 280.839 0.0985539 -1.57292 0
M  V30 2891 C 281.786 1.11981 -2.01814 0
M  V30 2892 C 282.756 1.39999 -0.89384 0
M  V30 2893 O 283.941 1.5152 -1.15958 0
M  V30 2894 C 281.081 2.43577 -2.44467 0
M  V30 2895 C 280.194 2.2232 -3.70402 0
M  V30 2896 C 279.329 3.4729 -4.01949 0
M  V30 2897 C 278.368 3.2128 -5.21005 0
M  V30 2898 N 277.505 4.38507 -5.48321 0
M  V30 2899 H 282.345 0.733149 -2.88841 0
M  V30 2900 H 279.882 0.350482 -1.42864 0
M  V30 2901 H 281.84 3.20373 -2.6724 0
M  V30 2902 H 280.47 2.80097 -1.60455 0
M  V30 2903 H 279.522 1.36343 -3.55126 0
M  V30 2904 H 280.834 1.99089 -4.57345 0
M  V30 2905 H 279.988 4.32495 -4.25479 0
M  V30 2906 H 278.727 3.73572 -3.13521 0
M  V30 2907 H 277.732 2.34468 -4.97298 0
M  V30 2908 H 278.957 2.96348 -6.11028 0
M  V30 2909 H 276.903 4.64871 -4.62851 0
M  V30 2910 H 276.82 4.18455 -6.29628 0
M  V30 2911 H 278.088 5.24787 -5.76385 0
M  V30 2912 N 282.317 1.53212 0.369288 0
M  V30 2913 C 283.249 1.75668 1.47219 0
M  V30 2914 C 284.262 0.637387 1.49804 0
M  V30 2915 O 285.451 0.913561 1.5335 0
M  V30 2916 C 282.551 1.81818 2.85999 0
M  V30 2917 C 281.724 3.11409 3.07153 0
M  V30 2918 C 280.783 3.08849 4.26026 0
M  V30 2919 O 279.809 3.82659 4.2138 0
M  V30 2920 N 281.011 2.29409 5.33246 0
M  V30 2921 H 283.776 2.70832 1.28337 0
M  V30 2922 H 281.337 1.51944 0.55898 0
M  V30 2923 H 283.329 1.77588 3.63655 0
M  V30 2924 H 281.899 0.939544 2.98146 0
M  V30 2925 H 281.119 3.28971 2.1719 0
M  V30 2926 H 282.407 3.97059 3.18154 0
M  V30 2927 H 281.805 1.68946 5.39883 0
M  V30 2928 H 280.362 2.31001 6.09493 0
M  V30 2929 N 283.795 -0.628877 1.44509 0
M  V30 2930 C 285.043 -1.38565 1.4712 0
M  V30 2931 C 285.364 -1.94712 0.105899 0
M  V30 2932 O 284.634 -1.75912 -0.862079 0
M  V30 2933 H 283.214 -0.514333 0.541729 0
M  V30 2934 H 285.876 -0.740018 1.80305 0
M  V30 2935 H 284.972 -2.21583 2.19789 0
M  V30 2936 N 285.273 -1.31445 -0.869486 0
M  V30 2937 C 286.22 -1.19135 -1.97675 0
M  V30 2938 C 287.19 -0.0770266 -1.65921 0
M  V30 2939 O 288.375 -0.249972 -1.89155 0
M  V30 2940 C 285.515 -0.905149 -3.33018 0
M  V30 2941 C 284.628 -2.10285 -3.77365 0
M  V30 2942 C 283.763 -1.75339 -5.01427 0
M  V30 2943 C 282.802 -2.91515 -5.38224 0
M  V30 2944 N 281.939 -2.56762 -6.53466 0
M  V30 2945 H 286.779 -2.13853 -2.07535 0
M  V30 2946 H 284.316 -1.06379 -1.01597 0
M  V30 2947 H 286.274 -0.719765 -4.10944 0
M  V30 2948 H 284.904 0.00519624 -3.228 0
M  V30 2949 H 283.956 -2.39899 -2.95216 0
M  V30 2950 H 285.268 -2.97237 -4.00564 0
M  V30 2951 H 284.422 -1.53266 -5.87022 0
M  V30 2952 H 283.161 -0.855801 -4.80133 0
M  V30 2953 H 282.166 -3.14237 -4.51149 0
M  V30 2954 H 283.391 -3.81985 -5.61484 0
M  V30 2955 H 281.337 -1.69526 -6.33717 0
M  V30 2956 H 281.254 -3.37243 -6.76612 0
M  V30 2957 H 282.522 -2.38083 -7.42251 0
M  V30 2958 N 286.751 1.08385 -1.14413 0
M  V30 2959 C 287.998 1.80776 -0.912482 0
M  V30 2960 C 288.326 1.86236 0.560934 0
M  V30 2961 O 287.581 1.33431 1.43159 0
M  V30 2962 C 287.88 3.26273 -1.45879 0
M  V30 2963 C 287.546 3.4093 -2.95089 0
M  V30 2964 C 286.208 3.44638 -3.35824 0
M  V30 2965 C 288.56 3.44591 -3.91033 0
M  V30 2966 C 285.888 3.49597 -4.71167 0
M  V30 2967 C 288.24 3.51086 -5.26233 0
M  V30 2968 C 286.904 3.53067 -5.6648 0
M  V30 2969 H 286.174 0.661507 -0.333901 0
M  V30 2970 H 288.821 1.27613 -1.42784 0
M  V30 2971 H 287.126 3.82146 -0.864376 0
M  V30 2972 H 288.823 3.80839 -1.2555 0
M  V30 2973 H 285.413 3.38736 -2.62594 0
M  V30 2974 H 289.597 3.40957 -3.60641 0
M  V30 2975 H 284.853 3.49424 -5.0171 0
M  V30 2976 H 289.027 3.52864 -6.00383 0
M  V30 2977 H 286.654 3.56662 -6.71339 0
M  V30 2978 N 288.23 0.939286 1.26551 0
M  V30 2979 C 289.46 0.601663 1.97645 0
M  V30 2980 C 289.868 -0.827206 1.70159 0
M  V30 2981 O 289.211 -1.56291 0.965338 0
M  V30 2982 C 289.273 0.761725 3.51337 0
M  V30 2983 C 288.937 2.16487 4.0247 0
M  V30 2984 C 289.934 3.14016 4.14355 0
M  V30 2985 C 287.619 2.48494 4.36527 0
M  V30 2986 C 289.613 4.41654 4.59587 0
M  V30 2987 C 287.3 3.76364 4.81449 0
M  V30 2988 C 288.298 4.72758 4.92939 0
M  V30 2989 O 287.986 5.98352 5.36871 0
M  V30 2990 H 287.718 0.225758 0.637189 0
M  V30 2991 H 290.272 1.26178 1.62075 0
M  V30 2992 H 288.502 0.0444808 3.86674 0
M  V30 2993 H 290.191 0.427442 4.03643 0
M  V30 2994 H 290.957 2.90613 3.8829 0
M  V30 2995 H 286.836 1.74202 4.26819 0
M  V30 2996 H 290.38 5.16896 4.68471 0
M  V30 2997 H 286.277 3.99582 5.06956 0
M  V30 2998 H 287.045 6.01507 5.55096 0
M  V30 2999 N 289.708 -1.40897 0.706093 0
M  V30 3000 C 290.933 -2.05895 0.249435 0
M  V30 3001 C 291.358 -1.52823 -1.09666 0
M  V30 3002 O 290.716 -0.659589 -1.68876 0
M  V30 3003 C 290.764 -3.59872 0.22904 0
M  V30 3004 O 289.868 -4.04708 -0.792784 0
M  V30 3005 H 289.209 -0.653206 0.119241 0
M  V30 3006 H 291.739 -1.80471 0.96391 0
M  V30 3007 H 291.749 -4.07951 0.0634791 0
M  V30 3008 H 290.424 -3.97866 1.21141 0
M  V30 3009 H 289.001 -3.68111 -0.59572 0
M  V30 3010 N 291.186 -0.45159 -1.50991 0
M  V30 3011 C 292.411 0.110667 -2.07105 0
M  V30 3012 C 292.836 1.3446 -1.31538 0
M  V30 3013 O 292.194 1.77743 -0.357365 0
M  V30 3014 C 292.242 0.397238 -3.58405 0
M  V30 3015 O 291.346 1.48124 -3.84881 0
M  V30 3016 H 290.687 -0.00439271 -0.663985 0
M  V30 3017 H 293.217 -0.637026 -1.9443 0
M  V30 3018 H 293.227 0.64351 -4.02893 0
M  V30 3019 H 291.902 -0.504553 -4.12828 0
M  V30 3020 H 290.479 1.22381 -3.52246 0
M  V30 3021 N 292.664 1.56529 -0.183458 0
M  V30 3022 C 293.611 2.18546 0.742055 0
M  V30 3023 C 294.581 1.12912 1.2182 0
M  V30 3024 O 295.766 1.41115 1.28418 0
M  V30 3025 C 292.906 2.83977 1.96089 0
M  V30 3026 C 292.019 4.04105 1.52719 0
M  V30 3027 C 291.154 4.57427 2.70063 0
M  V30 3028 C 290.193 5.69938 2.23243 0
M  V30 3029 N 289.33 6.17717 3.33722 0
M  V30 3030 H 294.17 2.97284 0.206432 0
M  V30 3031 H 291.707 1.46823 0.0901571 0
M  V30 3032 H 293.665 3.20077 2.67594 0
M  V30 3033 H 292.295 2.07822 2.47002 0
M  V30 3034 H 291.347 3.73745 0.708436 0
M  V30 3035 H 292.659 4.85513 1.1436 0
M  V30 3036 H 291.813 4.95772 3.49708 0
M  V30 3037 H 290.552 3.75101 3.11689 0
M  V30 3038 H 289.557 5.31133 1.42048 0
M  V30 3039 H 290.782 6.54073 1.82661 0
M  V30 3040 H 288.728 5.38317 3.74902 0
M  V30 3041 H 288.645 6.94146 2.99495 0
M  V30 3042 H 289.913 6.60713 4.13616 0
M  V30 3043 N 294.142 -0.090211 1.57342 0
M  V30 3044 C 295.367 -0.810082 1.90925 0
M  V30 3045 C 295.792 -1.71248 0.778187 0
M  V30 3046 O 295.15 -1.79278 -0.269991 0
M  V30 3047 C 295.198 -1.59529 3.23393 0
M  V30 3048 O 294.302 -2.70461 3.11327 0
M  V30 3049 H 293.643 -0.222231 0.625707 0
M  V30 3050 H 296.173 -0.0639716 2.045 0
M  V30 3051 H 296.183 -1.97847 3.5682 0
M  V30 3052 H 294.858 -0.933055 4.05299 0
M  V30 3053 H 293.435 -2.35135 2.89423 0
M  V30 3054 N 295.62 -1.53406 -0.361157 0
M  V30 3055 C 296.868 -1.69467 -1.10115 0
M  V30 3056 C 297.189 -0.451352 -1.89705 0
M  V30 3057 O 296.459 0.534636 -1.88463 0
M  V30 3058 H 295.039 -0.624749 -0.409508 0
M  V30 3059 H 297.701 -1.90609 -0.406699 0
M  V30 3060 H 296.797 -2.55774 -1.78847 0
M  V30 3061 N 297.098 0.621204 -1.44841 0
M  V30 3062 C 298.346 1.37783 -1.47852 0
M  V30 3063 C 298.667 1.94653 -0.116224 0
M  V30 3064 O 297.937 1.76367 0.852737 0
M  V30 3065 H 296.517 0.511453 -0.544449 0
M  V30 3066 H 299.179 0.730446 -1.80694 0
M  V30 3067 H 298.275 2.20414 -2.20961 0
M  V30 3068 N 298.576 1.31904 0.862503 0
M  V30 3069 C 299.524 1.20125 1.9918 0
M  V30 3070 C 300.518 0.107824 1.69056 0
M  V30 3071 O 301.724 0.270223 1.7796 0
M  V30 3072 H 298.099 0.372148 0.65346 0
M  V30 3073 H 300.07 2.15652 2.06244 0
M  V30 3074 C 298.819 0.933099 3.34946 0
M  V30 3075 H 298.142 1.76664 3.5865 0
M  V30 3076 H 299.582 0.890892 4.14535 0
M  V30 3077 C 298.041 -0.364172 3.34926 0
M  V30 3078 O 298.571 -1.37858 3.77304 0
M  V30 3079 N 296.777 -0.383362 2.8806 0
M  V30 3080 H 296.324 0.442651 2.53768 0
M  V30 3081 H 296.282 -1.25123 2.8843 0
M  V30 3082 N 300.054 -1.07777 1.14986 0
M  V30 3083 C 301.279 -1.84558 0.946213 0
M  V30 3084 C 301.704 -1.81323 -0.500362 0
M  V30 3085 O 301.062 -1.20301 -1.35637 0
M  V30 3086 C 301.11 -3.29736 1.45968 0
M  V30 3087 O 300.214 -4.07149 0.65601 0
M  V30 3088 H 299.555 -0.571641 0.33782 0
M  V30 3089 H 302.085 -1.35991 1.52865 0
M  V30 3090 H 302.095 -3.80574 1.47063 0
M  V30 3091 H 300.77 -3.31406 2.51283 0
M  V30 3092 H 299.347 -3.65994 0.714322 0
M  V30 3093 N 301.532 -0.945985 -1.26051 0
M  V30 3094 C 302.757 -0.612525 -1.98149 0
M  V30 3095 C 303.182 0.806623 -1.69927 0
M  V30 3096 O 302.54 1.54411 -0.950108 0
M  V30 3097 C 302.588 -0.866981 -3.50023 0
M  V30 3098 O 301.692 0.0585333 -4.12358 0
M  V30 3099 H 301.033 -0.23379 -0.621481 0
M  V30 3100 H 303.563 -1.27023 -1.60395 0
M  V30 3101 H 303.573 -0.789792 -4.00283 0
M  V30 3102 H 302.248 -1.90135 -3.69894 0
M  V30 3103 H 300.825 -0.0701241 -3.72834 0
M  V30 3104 N 303.011 1.40521 -0.713556 0
M  V30 3105 C 304.236 2.05759 -0.26035 0
M  V30 3106 C 304.661 1.53403 1.08854 0
M  V30 3107 O 304.019 0.668535 1.68524 0
M  V30 3108 C 304.067 3.59745 -0.248122 0
M  V30 3109 O 303.171 4.05123 0.77131 0
M  V30 3110 H 302.512 0.652564 -0.122703 0
M  V30 3111 H 305.042 1.79958 -0.973467 0
M  V30 3112 H 305.052 4.07911 -0.0851129 0
M  V30 3113 H 303.727 3.97218 -1.2325 0
M  V30 3114 H 302.304 3.68422 0.57619 0
M  V30 3115 N 304.489 0.459591 1.5075 0
M  V30 3116 C 305.714 -0.0996819 2.0716 0
M  V30 3117 C 306.139 -1.33761 1.32249 0
M  V30 3118 O 305.497 -1.77551 0.366786 0
M  V30 3119 C 305.545 -0.378226 3.58611 0
M  V30 3120 O 304.649 -1.46081 3.85661 0
M  V30 3121 H 303.99 0.00791392 0.663953 0
M  V30 3122 H 306.52 0.647329 1.9409 0
M  V30 3123 H 306.53 -0.622135 4.03229 0
M  V30 3124 H 305.205 0.526439 4.12555 0
M  V30 3125 H 303.782 -1.20511 3.5289 0
M  V30 3126 N 305.967 -1.56429 0.191757 0
M  V30 3127 C 306.897 -2.21937 -0.725696 0
M  V30 3128 C 307.878 -1.1814 -1.2238 0
M  V30 3129 O 309.063 -1.46636 -1.27325 0
M  V30 3130 C 306.193 -2.87611 -1.94672 0
M  V30 3131 C 305.147 -3.97623 -1.58366 0
M  V30 3132 C 304.473 -4.50446 -2.88102 0
M  V30 3133 C 305.773 -5.16197 -0.796133 0
M  V30 3134 H 307.467 -2.98861 -0.179606 0
M  V30 3135 H 305.013 -1.43749 -0.0849464 0
M  V30 3136 H 306.966 -3.3212 -2.59373 0
M  V30 3137 H 305.69 -2.08087 -2.51728 0
M  V30 3138 H 304.349 -3.53801 -0.960247 0
M  V30 3139 H 303.997 -3.67688 -3.43241 0
M  V30 3140 H 303.697 -5.24675 -2.64556 0
M  V30 3141 H 305.221 -4.97654 -3.53798 0
M  V30 3142 H 306.635 -5.57271 -1.34618 0
M  V30 3143 H 305.032 -5.96471 -0.658928 0
M  V30 3144 H 306.102 -4.84473 0.203478 0
M  V30 3145 N 307.445 0.0818655 -1.57387 0
M  V30 3146 C 308.693 0.781368 -1.86384 0
M  V30 3147 C 309.014 1.78618 -0.782342 0
M  V30 3148 O 308.284 1.94976 0.190061 0
M  V30 3149 H 306.864 0.291562 -0.687751 0
M  V30 3150 H 309.526 0.060348 -1.94807 0
M  V30 3151 H 308.622 1.3038 -2.83562 0
M  V30 3152 N 308.923 1.53595 0.353017 0
M  V30 3153 C 310.2 1.61002 1.11075 0
M  V30 3154 C 310.58 0.425356 2.0677 0
M  V30 3155 O 309.928 -0.583267 2.2093 0
M  V30 3156 C 310.138 2.96631 1.83877 0
M  V30 3157 C 311.486 3.51653 2.37961 0
M  V30 3158 O 312.51 2.98743 1.93987 0
M  V30 3159 O 311.369 4.44177 3.18386 0
M  V30 3160 H 308.463 0.650825 0.510251 0
M  V30 3161 H 311.009 1.6594 0.35527 0
M  V30 3162 H 309.781 3.74293 1.14108 0
M  V30 3163 H 309.404 2.95242 2.66304 0
M  V30 3164 N 310.401 -0.613514 1.45168 0
M  V30 3165 C 311.65 -1.36874 1.4815 0
M  V30 3166 C 311.963 -1.952 0.124982 0
M  V30 3167 O 313.169 -2.71481 0.0324176 0
M  V30 3168 C 311.625 -2.47905 2.60904 0
M  V30 3169 C 311.233 -1.96016 4.02842 0
M  V30 3170 C 312.977 -3.24965 2.73126 0
M  V30 3171 C 310.884 -3.04494 5.06988 0
M  V30 3172 H 309.814 -0.514428 0.551253 0
M  V30 3173 H 312.465 -0.658182 1.7129 0
M  V30 3174 H 310.847 -3.21618 2.31037 0
M  V30 3175 H 312.021 -1.29051 4.4236 0
M  V30 3176 H 310.336 -1.31719 3.95018 0
M  V30 3177 H 312.933 -4.05865 3.48106 0
M  V30 3178 H 313.276 -3.75588 1.79553 0
M  V30 3179 H 313.809 -2.5835 3.0249 0
M  V30 3180 H 310.548 -2.58795 6.0225 0
M  V30 3181 H 310.068 -3.70044 4.72046 0
M  V30 3182 H 311.747 -3.68976 5.31475 0
M  V30 3183 N 311.879 -1.3236 -0.855495 0
M  V30 3184 C 313.125 -1.23054 -1.612 0
M  V30 3185 C 313.458 0.207404 -1.93089 0
M  V30 3186 O 312.733 1.14432 -1.57275 0
M  V30 3187 C 313.016 -2.08937 -2.93287 0
M  V30 3188 C 312.869 -3.61105 -2.68185 0
M  V30 3189 C 314.188 -1.94986 -3.94549 0
M  V30 3190 H 311.307 -0.448364 -0.584926 0
M  V30 3191 H 313.949 -1.62297 -0.987917 0
M  V30 3192 H 312.099 -1.75599 -3.46551 0
M  V30 3193 H 313.771 -4.04652 -2.21483 0
M  V30 3194 H 312.014 -3.83813 -2.02164 0
M  V30 3195 H 312.685 -4.16522 -3.62234 0
M  V30 3196 H 315.161 -2.24189 -3.5054 0
M  V30 3197 H 314.037 -2.57356 -4.84829 0
M  V30 3198 H 314.298 -0.917263 -4.3248 0
M  V30 3199 N 313.357 1.07166 -1.15556 0
M  V30 3200 C 314.768 1.6127 -0.940693 0
M  V30 3201 C 315.119 1.89251 0.517551 0
M  V30 3202 O 314.244 1.65937 1.38903 0
M  V30 3203 C 314.839 2.92993 -1.7012 0
M  V30 3204 C 313.398 3.43832 -1.53156 0
M  V30 3205 C 312.545 2.1786 -1.71558 0
M  V30 3206 H 315.496 0.90229 -1.30554 0
M  V30 3207 H 315.517 3.62007 -1.17181 0
M  V30 3208 H 315.029 2.72596 -2.76248 0
M  V30 3209 H 313.13 3.69307 -0.494294 0
M  V30 3210 H 313.243 4.19747 -2.30975 0
M  V30 3211 H 311.607 2.2765 -1.14225 0
M  V30 3212 H 312.39 1.99956 -2.79056 0
M  V30 3213 N 314.835 0.952656 1.25548 0
M  V30 3214 C 316.06 0.623025 1.97821 0
M  V30 3215 C 316.485 -0.7976 1.70352 0
M  V30 3216 O 315.843 -1.53905 0.958283 0
M  V30 3217 C 315.891 0.885532 3.49558 0
M  V30 3218 O 314.995 -0.0366641 4.12384 0
M  V30 3219 H 314.336 0.237082 0.620232 0
M  V30 3220 H 316.866 1.27871 1.59719 0
M  V30 3221 H 316.876 0.811009 3.99858 0
M  V30 3222 H 315.551 1.92094 3.6888 0
M  V30 3223 H 314.128 0.0898954 3.72792 0
M  V30 3224 N 316.313 -1.40141 0.720998 0
M  V30 3225 C 317.538 -2.05618 0.271258 0
M  V30 3226 C 317.963 -1.53978 -1.08039 0
M  V30 3227 O 317.321 -0.677463 -1.68167 0
M  V30 3228 C 317.369 -3.59609 0.267197 0
M  V30 3229 O 316.473 -4.05526 -0.749814 0
M  V30 3230 H 315.814 -0.651904 0.126162 0
M  V30 3231 H 318.344 -1.79439 0.982997 0
M  V30 3232 H 318.354 -4.0786 0.106744 0
M  V30 3233 H 317.029 -3.96559 1.25354 0
M  V30 3234 H 315.606 -3.68722 -0.556644 0
M  V30 3235 N 317.792 -0.46758 -1.50504 0
M  V30 3236 C 319.208 -0.121533 -1.59137 0
M  V30 3237 C 319.408 1.3717 -1.47603 0
M  V30 3238 O 318.464 2.14464 -1.33272 0
M  V30 3239 C 319.777 -0.6686 -2.93173 0
M  V30 3240 C 321.325 -0.631716 -3.06559 0
M  V30 3241 C 321.8 -1.15627 -4.43164 0
M  V30 3242 N 323.291 -1.11553 -4.49567 0
M  V30 3243 C 324.026 -1.49195 -5.5365 0
M  V30 3244 N 323.522 -1.94269 -6.65005 0
M  V30 3245 N 325.315 -1.4082 -5.44175 0
M  V30 3246 H 317.466 -1.4388 -1.56245 0
M  V30 3247 H 319.729 -0.594784 -0.738198 0
M  V30 3248 H 319.435 -1.71453 -3.07078 0
M  V30 3249 H 319.309 -0.11021 -3.77039 0
M  V30 3250 H 321.696 0.405297 -2.92304 0
M  V30 3251 H 321.777 -1.22687 -2.24458 0
M  V30 3252 H 321.421 -2.1919 -4.58168 0
M  V30 3253 H 321.351 -0.537365 -5.23851 0
M  V30 3254 H 323.842 -0.784895 -3.69659 0
M  V30 3255 H 324.155 -2.21148 -7.40482 0
M  V30 3256 H 322.5 -1.98219 -6.66134 0
M  V30 3257 H 325.691 -1.0545 -4.56068 0
M  V30 3258 H 325.864 -1.70481 -6.25172 0
M  V30 3259 N 319.27 1.56325 -0.20005 0
M  V30 3260 C 320.217 2.1932 0.718833 0
M  V30 3261 C 321.187 1.14198 1.20615 0
M  V30 3262 O 322.372 1.42469 1.26914 0
M  V30 3263 C 319.512 2.86041 1.93066 0
M  V30 3264 C 318.625 4.05702 1.48425 0
M  V30 3265 C 317.76 4.60266 2.65196 0
M  V30 3266 C 316.799 5.72273 2.17185 0
M  V30 3267 N 315.936 6.21221 3.27152 0
M  V30 3268 H 320.776 2.97486 0.17489 0
M  V30 3269 H 318.313 1.46911 0.0745794 0
M  V30 3270 H 320.271 3.22897 2.64184 0
M  V30 3271 H 318.901 2.1043 2.44783 0
M  V30 3272 H 317.953 3.74475 0.668755 0
M  V30 3273 H 319.265 4.86699 1.09204 0
M  V30 3274 H 318.419 4.99453 3.4443 0
M  V30 3275 H 317.158 3.78386 3.07693 0
M  V30 3276 H 316.163 5.3261 1.36407 0
M  V30 3277 H 317.388 6.55974 1.75713 0
M  V30 3278 H 315.334 5.42263 3.69171 0
M  V30 3279 H 315.251 6.97284 2.92116 0
M  V30 3280 H 316.519 6.65063 4.06585 0
M  V30 3281 N 320.748 -0.0735177 1.57428 0
M  V30 3282 C 321.973 -0.789787 1.91774 0
M  V30 3283 C 322.398 -1.70413 0.796306 0
M  V30 3284 O 321.756 -1.79555 -0.250961 0
M  V30 3285 C 321.804 -1.5609 3.25067 0
M  V30 3286 O 320.908 -2.67144 3.14178 0
M  V30 3287 H 320.249 -0.215582 0.628029 0
M  V30 3288 H 322.779 -0.0422781 2.04556 0
M  V30 3289 H 322.789 -1.94052 3.58898 0
M  V30 3290 H 321.464 -0.890015 4.06265 0
M  V30 3291 H 320.041 -2.32052 2.91901 0
M  V30 3292 N 322.226 -1.5378 -0.344866 0
M  V30 3293 C 323.454 -1.74899 -1.10534 0
M  V30 3294 C 323.869 -0.487534 -1.82397 0
M  V30 3295 O 323.226 0.540741 -1.74305 0
M  V30 3296 C 323.277 -2.92822 -2.11984 0
M  V30 3297 O 322.998 -4.14089 -1.43044 0
M  V30 3298 C 324.499 -3.25982 -3.00417 0
M  V30 3299 H 321.719 -0.584426 -0.329678 0
M  V30 3300 H 324.263 -2.006 -0.397474 0
M  V30 3301 H 322.418 -2.69457 -2.78338 0
M  V30 3302 H 322.832 -4.80272 -2.10805 0
M  V30 3303 H 324.306 -4.11848 -3.67539 0
M  V30 3304 H 324.783 -2.42228 -3.66363 0
M  V30 3305 H 325.389 -3.51349 -2.39654 0
M  V30 3306 N 323.704 0.605807 -1.45491 0
M  V30 3307 C 325.115 1.18777 -1.44045 0
M  V30 3308 C 325.466 1.95471 -0.169001 0
M  V30 3309 O 324.591 2.0374 0.729324 0
M  V30 3310 C 325.186 2.16064 -2.60963 0
M  V30 3311 C 323.745 2.69633 -2.62631 0
M  V30 3312 C 322.892 1.45072 -2.36325 0
M  V30 3313 H 325.843 0.395017 -1.53705 0
M  V30 3314 H 325.864 2.9913 -2.35163 0
M  V30 3315 H 325.376 1.60217 -3.53486 0
M  V30 3316 H 323.477 3.29414 -1.74119 0
M  V30 3317 H 323.59 3.13944 -3.61906 0
M  V30 3318 H 321.954 1.74089 -1.85917 0
M  V30 3319 H 322.737 0.910899 -3.30995 0
M  V30 3320 N 325.182 1.32811 0.848464 0
M  V30 3321 C 326.593 1.21315 1.41914 0
M  V30 3322 C 326.944 -0.171847 1.95446 0
M  V30 3323 O 326.069 -1.07093 1.88043 0
M  V30 3324 C 326.664 2.19631 2.57968 0
M  V30 3325 C 325.223 2.12003 3.11017 0
M  V30 3326 C 324.37 2.07651 1.83783 0
M  V30 3327 H 327.321 1.44549 0.655071 0
M  V30 3328 H 327.342 1.79845 3.35315 0
M  V30 3329 H 326.854 3.20423 2.18976 0
M  V30 3330 H 324.955 1.14481 3.54577 0
M  V30 3331 H 325.068 3.02111 3.71841 0
M  V30 3332 H 323.432 1.52983 2.03638 0
M  V30 3333 H 324.215 3.10235 1.47 0
M  V30 3334 N 326.66 -1.06551 1.16123 0
M  V30 3335 C 327.885 -1.83544 0.965735 0
M  V30 3336 C 328.31 -1.81843 -0.481102 0
M  V30 3337 O 327.668 -1.21732 -1.34354 0
M  V30 3338 C 327.716 -3.28169 1.49457 0
M  V30 3339 O 326.82 -4.0643 0.699157 0
M  V30 3340 H 326.161 -0.568026 0.343864 0
M  V30 3341 H 328.691 -1.34362 1.54299 0
M  V30 3342 H 328.701 -3.78992 1.51092 0
M  V30 3343 H 327.376 -3.28722 2.54784 0
M  V30 3344 H 325.953 -3.65216 0.7531 0
M  V30 3345 N 328.138 -0.959301 -1.25041 0
M  V30 3346 C 329.363 -0.633507 -1.97488 0
M  V30 3347 C 329.788 0.788555 -1.70773 0
M  V30 3348 O 329.146 1.53394 -0.966431 0
M  V30 3349 C 329.194 -0.904057 -3.49083 0
M  V30 3350 O 328.298 0.0147939 -4.12397 0
M  V30 3351 H 327.639 -0.240368 -0.618966 0
M  V30 3352 H 330.169 -1.28717 -1.59038 0
M  V30 3353 H 330.179 -0.832203 -3.99423 0
M  V30 3354 H 328.854 -1.94048 -3.67856 0
M  V30 3355 H 327.431 -0.109664 -3.72739 0
M  V30 3356 N 329.616 1.39756 -0.72842 0
M  V30 3357 C 330.579 2.29012 -0.0927297 0
M  V30 3358 C 331.579 1.45992 0.674025 0
M  V30 3359 O 332.769 1.66749 0.50402 0
M  V30 3360 C 329.901 3.29396 0.878137 0
M  V30 3361 H 331.094 2.86729 -0.879011 0
M  V30 3362 H 328.647 1.48293 -0.493847 0
M  V30 3363 H 329.382 2.76722 1.69101 0
M  V30 3364 H 329.167 3.907 0.331051 0
M  V30 3365 H 330.657 3.96199 1.3197 0
M  V30 3366 N 331.094 0.475555 1.50254 0
M  V30 3367 C 332.343 -0.0795996 2.01543 0
M  V30 3368 C 332.656 -1.4038 1.36209 0
M  V30 3369 O 333.862 -2.04415 1.7868 0
M  V30 3370 C 332.318 -0.192363 3.59386 0
M  V30 3371 C 331.926 1.12367 4.33679 0
M  V30 3372 C 333.67 -0.699238 4.18701 0
M  V30 3373 C 331.577 0.974453 5.83317 0
M  V30 3374 H 330.507 -0.0335228 0.753254 0
M  V30 3375 H 333.158 0.611128 1.73025 0
M  V30 3376 H 331.54 -0.946974 3.84511 0
M  V30 3377 H 332.714 1.88958 4.20276 0
M  V30 3378 H 331.029 1.562 3.85993 0
M  V30 3379 H 333.626 -0.827978 5.28251 0
M  V30 3380 H 333.969 -1.69171 3.80377 0
M  V30 3381 H 334.502 -0.00188807 3.978 0
M  V30 3382 H 331.241 1.94042 6.26121 0
M  V30 3383 H 330.761 0.248998 5.99283 0
M  V30 3384 H 332.44 0.642867 6.43798 0
M  V30 3385 N 332.573 -1.56217 0.208337 0
M  V30 3386 C 333.85 -1.89739 -0.475234 0
M  V30 3387 C 334.23 -1.1238 -1.78701 0
M  V30 3388 O 333.578 -0.228979 -2.2735 0
M  V30 3389 C 333.788 -3.42289 -0.681101 0
M  V30 3390 C 335.136 -4.12789 -0.994507 0
M  V30 3391 O 336.16 -3.47814 -0.768357 0
M  V30 3392 O 335.019 -5.27649 -1.42299 0
M  V30 3393 H 332.113 -0.788478 -0.249461 0
M  V30 3394 H 334.659 -1.67855 0.249538 0
M  V30 3395 H 333.431 -3.90534 0.244722 0
M  V30 3396 H 333.054 -3.69909 -1.45785 0
M  V30 3397 N 334.051 0.0651679 -1.57465 0
M  V30 3398 C 335.3 0.761916 -1.86756 0
M  V30 3399 C 335.613 1.78406 -0.801925 0
M  V30 3400 O 336.819 2.53084 -0.982885 0
M  V30 3401 C 335.275 1.40603 -3.31299 0
M  V30 3402 C 334.883 0.422115 -4.46007 0
M  V30 3403 C 336.627 2.08476 -3.69781 0
M  V30 3404 C 334.534 1.07252 -5.81593 0
M  V30 3405 H 333.464 0.288308 -0.696702 0
M  V30 3406 H 336.115 0.015344 -1.83494 0
M  V30 3407 H 334.497 2.20109 -3.29193 0
M  V30 3408 H 335.671 -0.343613 -4.59517 0
M  V30 3409 H 333.986 -0.152527 -4.16121 0
M  V30 3410 H 336.583 2.57925 -4.68379 0
M  V30 3411 H 336.926 2.88712 -2.99919 0
M  V30 3412 H 337.459 1.35792 -3.73905 0
M  V30 3413 H 334.198 0.310342 -6.54765 0
M  V30 3414 H 333.718 1.80895 -5.71872 0
M  V30 3415 H 335.397 1.59043 -6.27148 0
M  V30 3416 N 335.529 1.53961 0.336706 0
M  V30 3417 C 336.806 1.62171 1.09361 0
M  V30 3418 C 337.186 0.447263 2.06307 0
M  V30 3419 O 336.534 -0.559802 2.21537 0
M  V30 3420 C 336.744 2.98565 1.80721 0
M  V30 3421 C 338.092 3.54157 2.34218 0
M  V30 3422 O 339.116 3.00784 1.90807 0
M  V30 3423 O 337.975 4.47528 3.13657 0
M  V30 3424 H 335.069 0.6562 0.503319 0
M  V30 3425 H 337.615 1.66307 0.33765 0
M  V30 3426 H 336.387 3.75482 1.10132 0
M  V30 3427 H 336.01 2.9805 2.63158 0
M  V30 3428 N 337.007 -0.598083 1.45811 0
M  V30 3429 C 337.97 -1.69018 1.54808 0
M  V30 3430 C 338.97 -1.55037 0.426652 0
M  V30 3431 O 340.16 -1.59932 0.690456 0
M  V30 3432 C 337.292 -3.0835 1.45371 0
M  V30 3433 H 338.485 -1.62403 2.52121 0
M  V30 3434 H 336.038 -0.814626 1.33392 0
M  V30 3435 H 336.773 -3.20534 0.492793 0
M  V30 3436 H 336.558 -3.19907 2.26721 0
M  V30 3437 H 338.048 -3.8788 1.54721 0
M  V30 3438 N 338.485 -1.33259 -0.841409 0
M  V30 3439 C 339.713 -1.27605 -1.62864 0
M  V30 3440 C 340.128 0.153507 -1.88175 0
M  V30 3441 O 339.485 1.09485 -1.46011 0
M  V30 3442 C 339.536 -2.04596 -2.98031 0
M  V30 3443 O 339.257 -3.41975 -2.73834 0
M  V30 3444 C 340.758 -2.06122 -3.92465 0
M  V30 3445 H 337.978 -0.439718 -0.506842 0
M  V30 3446 H 340.522 -1.75591 -1.04824 0
M  V30 3447 H 338.677 -1.60299 -3.5268 0
M  V30 3448 H 339.091 -3.81549 -3.59889 0
M  V30 3449 H 340.565 -2.64451 -4.84531 0
M  V30 3450 H 341.042 -1.05083 -4.26444 0
M  V30 3451 H 341.648 -2.50427 -3.43753 0
M  V30 3452 N 339.963 1.05934 -1.16686 0
M  V30 3453 C 341.211 1.78447 -0.948744 0
M  V30 3454 C 341.532 1.87813 0.524523 0
M  V30 3455 O 340.802 1.38945 1.38098 0
M  V30 3456 H 339.382 0.660971 -0.348033 0
M  V30 3457 H 342.044 1.27947 -1.47022 0
M  V30 3458 H 341.14 2.80394 -1.37061 0
M  V30 3459 N 341.441 0.965919 1.2453 0
M  V30 3460 C 342.371 0.513476 2.27784 0
M  V30 3461 C 343.352 -0.445974 1.6415 0
M  V30 3462 O 344.537 -0.342485 1.91156 0
M  V30 3463 C 341.667 -0.198839 3.4673 0
M  V30 3464 C 340.621 0.676456 4.2262 0
M  V30 3465 C 339.947 -0.167248 5.34438 0
M  V30 3466 C 341.247 1.96017 4.84123 0
M  V30 3467 H 342.941 1.3765 2.65881 0
M  V30 3468 H 340.487 0.663321 1.27813 0
M  V30 3469 H 342.44 -0.526567 4.18097 0
M  V30 3470 H 341.164 -1.0962 3.07654 0
M  V30 3471 H 339.823 0.98743 3.53052 0
M  V30 3472 H 339.471 -1.0647 4.91603 0
M  V30 3473 H 339.171 0.415181 5.86131 0
M  V30 3474 H 340.695 -0.489688 6.08633 0
M  V30 3475 H 342.109 1.69814 5.47573 0
M  V30 3476 H 340.506 2.48918 5.4604 0
M  V30 3477 H 341.576 2.65622 4.05676 0
M  V30 3478 N 342.919 -1.39368 0.735821 0
M  V30 3479 C 344.196 -1.94465 0.210395 0
M  V30 3480 C 344.576 -1.67254 -1.28799 0
M  V30 3481 O 343.924 -1.00123 -2.05396 0
M  V30 3482 C 344.134 -3.4472 0.544897 0
M  V30 3483 C 345.482 -4.21708 0.494689 0
M  V30 3484 O 346.506 -3.52922 0.482136 0
M  V30 3485 O 345.365 -5.44299 0.489947 0
M  V30 3486 H 342.459 -0.826096 0.0386666 0
M  V30 3487 H 345.005 -1.48863 0.814735 0
M  V30 3488 H 343.777 -3.57963 1.58045 0
M  V30 3489 H 343.4 -3.97502 -0.08837 0
M  V30 3490 N 344.397 -0.483516 -1.5 0
M  V30 3491 C 345.36 0.292965 -2.2732 0
M  V30 3492 C 346.36 0.909499 -1.32608 0
M  V30 3493 O 347.55 0.776745 -1.55924 0
M  V30 3494 C 344.682 1.41854 -3.09984 0
M  V30 3495 H 345.875 -0.385289 -2.97415 0
M  V30 3496 H 343.428 -0.237942 -1.54478 0
M  V30 3497 H 344.163 2.13148 -2.44414 0
M  V30 3498 H 343.948 0.982114 -3.79601 0
M  V30 3499 H 345.438 1.96597 -3.68429 0
M  V30 3500 N 345.875 1.56104 -0.216619 0
M  V30 3501 C 346.785 2.23694 0.706982 0
M  V30 3502 C 347.801 1.24295 1.21765 0
M  V30 3503 O 348.977 1.57094 1.2603 0
M  V30 3504 C 346.042 2.8998 1.90033 0
M  V30 3505 C 345.103 4.04708 1.43213 0
M  V30 3506 C 344.336 4.67824 2.56859 0
M  V30 3507 O 344.559 4.29913 3.74874 0
M  V30 3508 O 343.493 5.56905 2.28343 0
M  V30 3509 H 347.319 3.03272 0.161235 0
M  V30 3510 H 344.904 1.49394 0.0136177 0
M  V30 3511 H 346.786 3.31837 2.59735 0
M  V30 3512 H 345.461 2.13365 2.43428 0
M  V30 3513 H 344.368 3.6743 0.70327 0
M  V30 3514 H 345.701 4.83051 0.944615 0
M  V30 3515 N 347.353 -0.0568162 1.57498 0
M  V30 3516 C 348.263 -1.08346 2.08083 0
M  V30 3517 C 349.279 -1.41439 1.01346 0
M  V30 3518 O 350.455 -1.51316 1.32912 0
M  V30 3519 C 347.52 -2.37352 2.52715 0
M  V30 3520 C 346.581 -2.11093 3.73816 0
M  V30 3521 C 345.814 -3.33949 4.1631 0
M  V30 3522 O 346.037 -4.43622 3.58547 0
M  V30 3523 O 344.971 -3.21279 5.08983 0
M  V30 3524 H 348.797 -0.683667 2.95905 0
M  V30 3525 H 346.382 -0.271965 1.46904 0
M  V30 3526 H 348.264 -3.13246 2.81877 0
M  V30 3527 H 346.939 -2.76681 1.68016 0
M  V30 3528 H 345.846 -1.32856 3.49714 0
M  V30 3529 H 347.179 -1.76637 4.59413 0
M  V30 3530 N 348.832 -1.54138 -0.328536 0
M  V30 3531 C 349.78 -1.83894 -1.42428 0
M  V30 3532 C 350.774 -0.710478 -1.53781 0
M  V30 3533 O 351.98 -0.894062 -1.56226 0
M  V30 3534 H 348.355 -0.582837 -0.475189 0
M  V30 3535 H 350.326 -2.75537 -1.14552 0
M  V30 3536 C 349.075 -2.07866 -2.78724 0
M  V30 3537 H 348.398 -2.94158 -2.7076 0
M  V30 3538 H 349.838 -2.32644 -3.54476 0
M  V30 3539 C 348.297 -0.868689 -3.25508 0
M  V30 3540 O 348.827 -0.0754908 -4.01629 0
M  V30 3541 N 347.033 -0.681711 -2.82491 0
M  V30 3542 H 346.58 -1.32838 -2.20708 0
M  V30 3543 H 346.538 0.126374 -3.14146 0
M  V30 3544 N 350.31 0.590341 -1.46126 0
M  V30 3545 C 351.587 1.35029 -1.41515 0
M  V30 3546 C 351.967 2.10888 -0.0946472 0
M  V30 3547 O 351.315 2.08998 0.923693 0
M  V30 3548 C 351.525 2.28269 -2.63997 0
M  V30 3549 C 352.873 2.90338 -3.09821 0
M  V30 3550 O 353.897 2.38585 -2.64492 0
M  V30 3551 O 352.756 3.84321 -3.88535 0
M  V30 3552 H 349.85 0.606317 -0.562413 0
M  V30 3553 H 352.396 0.611994 -1.58281 0
M  V30 3554 H 351.168 1.71591 -3.51671 0
M  V30 3555 H 350.791 3.0945 -2.49652 0
M  V30 3556 N 351.788 1.33704 0.83433 0
M  V30 3557 C 353.037 1.24763 1.58484 0
M  V30 3558 C 353.35 -0.183775 1.94735 0
M  V30 3559 O 354.556 -0.395234 2.68608 0
M  V30 3560 C 353.012 2.18638 2.85876 0
M  V30 3561 C 352.62 3.66974 2.56971 0
M  V30 3562 C 354.364 2.18581 3.63899 0
M  V30 3563 C 352.271 4.5275 3.80488 0
M  V30 3564 H 351.201 0.463425 0.594772 0
M  V30 3565 H 353.852 1.58797 0.919551 0
M  V30 3566 H 352.234 1.77542 3.5397 0
M  V30 3567 H 353.408 4.16538 1.9706 0
M  V30 3568 H 351.723 3.69366 1.92244 0
M  V30 3569 H 354.32 2.79894 4.55591 0
M  V30 3570 H 354.663 1.18207 3.99165 0
M  V30 3571 H 355.196 2.58062 3.02735 0
M  V30 3572 H 351.935 5.54017 3.5035 0
M  V30 3573 H 351.455 4.07927 4.39722 0
M  V30 3574 H 353.134 4.66784 4.4802 0
M  V30 3575 N 353.266 -1.05314 1.17247 0
M  V30 3576 C 354.677 -1.59753 0.96623 0
M  V30 3577 C 355.028 -1.9005 -0.487378 0
M  V30 3578 O 354.153 -1.68126 -1.36245 0
M  V30 3579 C 354.748 -2.90249 1.74759 0
M  V30 3580 C 353.307 -3.41352 1.58606 0
M  V30 3581 C 352.454 -2.15103 1.75002 0
M  V30 3582 H 355.405 -0.881406 1.31973 0
M  V30 3583 H 355.426 -3.60097 1.22925 0
M  V30 3584 H 354.938 -2.68166 2.8055 0
M  V30 3585 H 353.039 -3.68474 0.552985 0
M  V30 3586 H 353.152 -4.16019 2.37624 0
M  V30 3587 H 351.516 -2.25804 1.17833 0
M  V30 3588 H 352.299 -1.95491 2.82202 0
M  V30 3589 N 354.744 -0.972509 -1.24016 0
M  V30 3590 C 355.707 -0.511403 -2.23422 0
M  V30 3591 C 356.707 0.394679 -1.55881 0
M  V30 3592 O 357.897 0.189469 -1.73167 0
M  V30 3593 C 355.029 0.258769 -3.39916 0
M  V30 3594 H 356.222 -1.39024 -2.6573 0
M  V30 3595 H 353.775 -0.757585 -1.36713 0
M  V30 3596 H 354.51 1.1545 -3.03054 0
M  V30 3597 H 354.295 -0.391522 -3.9014 0
M  V30 3598 H 355.785 0.570244 -4.13688 0
M  V30 3599 N 356.222 1.38976 -0.743202 0
M  V30 3600 C 357.17 2.32394 -0.0978389 0
M  V30 3601 C 358.164 1.53486 0.716824 0
M  V30 3602 O 359.37 1.69092 0.617088 0
M  V30 3603 H 355.745 0.75189 -0.0128402 0
M  V30 3604 H 357.716 2.84441 -0.901981 0
M  V30 3605 C 356.465 3.38629 0.789036 0
M  V30 3606 H 355.788 3.99432 0.171559 0
M  V30 3607 H 357.228 4.06426 1.20807 0
M  V30 3608 C 355.687 2.76347 1.92702 0
M  V30 3609 O 356.217 2.64836 3.02034 0
M  V30 3610 N 354.423 2.34311 1.71891 0
M  V30 3611 H 353.97 2.43873 0.829675 0
M  V30 3612 H 353.928 1.9298 2.48205 0
M  V30 3613 N 357.7 0.491464 1.49741 0
M  V30 3614 C 358.65 -0.311086 2.25868 0
M  V30 3615 C 359.634 -0.943857 1.30308 0
M  V30 3616 O 360.826 -0.853035 1.55088 0
M  V30 3617 C 357.955 -1.38059 3.14316 0
M  V30 3618 C 357.041 -0.754541 4.17334 0
M  V30 3619 N 357.432 0.137216 5.05614 0
M  V30 3620 C 355.73 -1.01621 4.34269 0
M  V30 3621 C 356.431 0.494614 5.79593 0
M  V30 3622 N 355.407 -0.135169 5.43432 0
M  V30 3623 H 359.209 0.37555 2.91491 0
M  V30 3624 H 356.723 0.306917 1.59473 0
M  V30 3625 H 358.72 -1.96891 3.67477 0
M  V30 3626 H 357.38 -2.06901 2.50244 0
M  V30 3627 H 358.391 0.50741 5.15408 0
M  V30 3628 H 355.068 -1.69808 3.81407 0
M  V30 3629 H 356.458 1.2236 6.60665 0
M  V30 3630 N 359.178 -1.55987 0.224894 0
M  V30 3631 C 360.594 -1.59066 -0.130426 0
M  V30 3632 C 360.794 -1.24176 -1.5869 0
M  V30 3633 O 359.85 -0.978592 -2.32766 0
M  V30 3634 C 361.163 -3.00042 0.198883 0
M  V30 3635 C 362.711 -3.1268 0.141391 0
M  V30 3636 C 363.186 -4.55839 0.444422 0
M  V30 3637 N 364.677 -4.6152 0.394115 0
M  V30 3638 C 365.412 -5.70231 0.602038 0
M  V30 3639 N 364.908 -6.87291 0.871914 0
M  V30 3640 N 366.701 -5.59555 0.534245 0
M  V30 3641 H 358.852 -1.76941 1.17497 0
M  V30 3642 H 361.115 -0.822604 0.471197 0
M  V30 3643 H 360.821 -3.30234 1.2099 0
M  V30 3644 H 360.695 -3.74075 -0.484535 0
M  V30 3645 H 363.082 -2.82283 -0.860265 0
M  V30 3646 H 363.163 -2.40969 0.858335 0
M  V30 3647 H 362.807 -4.86954 1.44353 0
M  V30 3648 H 362.737 -5.2578 -0.293752 0
M  V30 3649 H 365.228 -3.77405 0.193356 0
M  V30 3650 H 365.541 -7.66058 1.01858 0
M  V30 3651 H 363.886 -6.89028 0.909145 0
M  V30 3652 H 367.077 -4.6698 0.323612 0
M  V30 3653 H 367.25 -6.44211 0.699693 0
M  V30 3654 N 360.656 0.0484629 -1.57525 0
M  V30 3655 C 361.881 0.759177 -1.93006 0
M  V30 3656 C 362.306 1.69125 -0.823317 0
M  V30 3657 O 361.664 1.79931 0.222364 0
M  V30 3658 C 361.712 1.50899 -3.27509 0
M  V30 3659 O 360.816 2.62112 -3.18388 0
M  V30 3660 H 360.157 0.205564 -0.631379 0
M  V30 3661 H 362.687 0.00972959 -2.04598 0
M  V30 3662 H 362.697 1.88317 -3.6194 0
M  V30 3663 H 361.372 0.825269 -4.0763 0
M  V30 3664 H 359.949 2.27379 -2.95556 0
M  V30 3665 N 362.134 1.5431 0.320358 0
M  V30 3666 C 363.545 1.63872 0.894594 0
M  V30 3667 C 363.896 0.534847 1.88769 0
M  V30 3668 O 363.021 -0.331732 2.13842 0
M  V30 3669 C 363.616 2.97049 1.62934 0
M  V30 3670 C 362.175 3.08796 2.15226 0
M  V30 3671 C 361.322 2.59456 0.978671 0
M  V30 3672 H 364.273 1.58398 0.0978544 0
M  V30 3673 H 364.294 2.87388 2.49376 0
M  V30 3674 H 363.806 3.7737 0.906302 0
M  V30 3675 H 361.907 2.33156 2.90636 0
M  V30 3676 H 362.02 4.14649 2.40006 0
M  V30 3677 H 360.384 2.1543 1.35875 0
M  V30 3678 H 361.167 3.42237 0.269895 0
M  V30 3679 N 363.613 -0.582584 1.46437 0
M  V30 3680 C 364.56 -1.69164 1.5701 0
M  V30 3681 C 365.53 -1.60847 0.414403 0
M  V30 3682 O 366.715 -1.80058 0.631171 0
M  V30 3683 C 363.855 -3.075 1.56646 0
M  V30 3684 C 362.968 -3.2644 2.82951 0
M  V30 3685 C 362.103 -4.55026 2.7409 0
M  V30 3686 C 361.142 -4.6731 3.95333 0
M  V30 3687 N 360.279 -5.87221 3.84858 0
M  V30 3688 H 365.119 -1.59464 2.51744 0
M  V30 3689 H 362.656 -0.777186 1.24893 0
M  V30 3690 H 364.614 -3.8757 1.5442 0
M  V30 3691 H 363.244 -3.16096 0.654439 0
M  V30 3692 H 362.296 -2.39974 2.95155 0
M  V30 3693 H 363.608 -3.31385 3.72808 0
M  V30 3694 H 362.762 -5.43324 2.6997 0
M  V30 3695 H 361.501 -4.52519 1.81873 0
M  V30 3696 H 360.506 -3.77429 3.99784 0
M  V30 3697 H 361.731 -4.71595 4.88646 0
M  V30 3698 H 359.677 -5.85712 2.95427 0
M  V30 3699 H 359.594 -5.93435 4.6837 0
M  V30 3700 H 360.862 -6.7795 3.84713 0
M  V30 3701 N 365.091 -1.34144 -0.827227 0
M  V30 3702 C 366.502 -1.23557 -1.39966 0
M  V30 3703 C 366.853 0.140731 -1.95695 0
M  V30 3704 O 365.978 1.04087 -1.89723 0
M  V30 3705 C 366.573 -2.23708 -2.54441 0
M  V30 3706 C 365.132 -2.16924 -3.07605 0
M  V30 3707 C 364.279 -2.10549 -1.80456 0
M  V30 3708 H 367.23 -1.45573 -0.631991 0
M  V30 3709 H 367.251 -1.85157 -3.32411 0
M  V30 3710 H 366.763 -3.23866 -2.13851 0
M  V30 3711 H 364.864 -1.20107 -3.52711 0
M  V30 3712 H 364.977 -3.07988 -3.66988 0
M  V30 3713 H 363.341 -1.56203 -2.01178 0
M  V30 3714 H 364.124 -3.12535 -1.42046 0
M  V30 3715 N 366.569 1.04691 -1.17803 0
M  V30 3716 C 367.794 1.81984 -0.994813 0
M  V30 3717 C 368.219 1.82586 0.452112 0
M  V30 3718 O 367.577 1.23854 1.324 0
M  V30 3719 C 367.625 3.2575 -1.54659 0
M  V30 3720 O 366.729 4.05267 -0.763728 0
M  V30 3721 H 366.07 0.562483 -0.352857 0
M  V30 3722 H 368.6 1.3189 -1.56417 0
M  V30 3723 H 368.61 3.76541 -1.57102 0
M  V30 3724 H 367.285 3.24627 -2.59981 0
M  V30 3725 H 365.862 3.63972 -0.811108 0
M  V30 3726 N 368.047 0.979072 1.23499 0
M  V30 3727 C 369.01 0.523244 2.23147 0
M  V30 3728 C 370.01 -0.386406 1.56088 0
M  V30 3729 O 371.2 -0.180283 1.73265 0
M  V30 3730 C 368.332 -0.240739 3.40049 0
M  V30 3731 H 369.525 1.40432 2.64989 0
M  V30 3732 H 367.078 0.764824 1.36309 0
M  V30 3733 H 367.813 -1.13841 3.03662 0
M  V30 3734 H 367.598 0.412207 3.89927 0
M  V30 3735 H 369.088 -0.548297 4.13985 0
M  V30 3736 N 369.525 -1.3858 0.750561 0
M  V30 3737 C 370.473 -2.32339 0.110162 0
M  V30 3738 C 371.467 -1.53864 -0.708674 0
M  V30 3739 O 372.673 -1.69417 -0.608112 0
M  V30 3740 H 369.048 -0.751812 0.0168275 0
M  V30 3741 H 371.019 -2.83959 0.917053 0
M  V30 3742 C 369.768 -3.39043 -0.771067 0
M  V30 3743 H 369.091 -3.99517 -0.150374 0
M  V30 3744 H 370.531 -4.07061 -1.1865 0
M  V30 3745 C 368.99 -2.77365 -1.91234 0
M  V30 3746 O 369.52 -2.66434 -3.00626 0
M  V30 3747 N 367.726 -2.35219 -1.70646 0
M  V30 3748 H 367.273 -2.4431 -0.81673 0
M  V30 3749 H 367.231 -1.94294 -2.47178 0
M  V30 3750 N 371.003 -0.499398 -1.49478 0
M  V30 3751 C 372.228 0.044722 -2.07352 0
M  V30 3752 C 372.653 1.30207 -1.35749 0
M  V30 3753 O 372.011 1.76516 -0.413732 0
M  V30 3754 C 372.059 0.283013 -3.59488 0
M  V30 3755 O 371.163 1.35804 -3.89398 0
M  V30 3756 H 370.504 -0.0255147 -0.66351 0
M  V30 3757 H 373.034 -0.698561 -1.92305 0
M  V30 3758 H 373.044 0.515007 -4.04737 0
M  V30 3759 H 371.719 -0.635636 -4.11014 0
M  V30 3760 H 370.296 1.11113 -3.55961 0
M  V30 3761 N 372.481 1.55866 -0.233164 0
M  V30 3762 C 373.727 1.98897 0.395959 0
M  V30 3763 C 374.06 1.12091 1.58585 0
M  V30 3764 O 373.335 0.181182 1.93654 0
M  V30 3765 C 373.618 3.50658 0.819224 0
M  V30 3766 C 373.471 4.48233 -0.375109 0
M  V30 3767 C 374.79 4.07135 1.67121 0
M  V30 3768 H 371.909 0.723102 0.142451 0
M  V30 3769 H 374.551 1.87082 -0.331725 0
M  V30 3770 H 372.701 3.60857 1.43925 0
M  V30 3771 H 374.373 4.50031 -1.01341 0
M  V30 3772 H 372.616 4.21624 -1.02058 0
M  V30 3773 H 373.287 5.51988 -0.0358328 0
M  V30 3774 H 375.763 3.99952 1.14795 0
M  V30 3775 H 374.639 5.13615 1.93625 0
M  V30 3776 H 374.9 3.54736 2.63846 0
M  V30 3777 N 373.959 -0.0401083 1.57549 0
M  V30 3778 C 375.187 -0.745196 1.93014 0
M  V30 3779 C 375.602 -1.6948 0.831984 0
M  V30 3780 O 374.959 -1.81482 -0.192463 0
M  V30 3781 C 375.01 -1.51176 3.28372 0
M  V30 3782 O 374.731 -0.600284 4.33968 0
M  V30 3783 C 376.232 -2.315 3.78051 0
M  V30 3784 H 373.452 -0.210088 0.637263 0
M  V30 3785 H 375.996 -0.000924689 2.045 0
M  V30 3786 H 374.151 -2.20801 3.18317 0
M  V30 3787 H 374.565 -1.13669 5.12035 0
M  V30 3788 H 376.039 -2.80697 4.75303 0
M  V30 3789 H 376.516 -3.12436 3.08675 0
M  V30 3790 H 377.122 -1.66971 3.91153 0
M  V30 3791 N 375.437 -1.54477 -0.31217 0
M  V30 3792 C 376.662 -1.77526 -1.07235 0
M  V30 3793 C 377.087 -0.527775 -1.80544 0
M  V30 3794 O 376.445 0.52121 -1.73646 0
M  V30 3795 C 376.493 -2.97535 -2.03728 0
M  V30 3796 O 375.597 -2.69878 -3.11833 0
M  V30 3797 H 374.938 -0.58792 -0.30862 0
M  V30 3798 H 377.468 -2.01532 -0.352993 0
M  V30 3799 H 377.478 -3.25198 -2.46395 0
M  V30 3800 H 376.153 -3.87996 -1.49774 0
M  V30 3801 H 374.73 -2.53199 -2.7376 0
M  V30 3802 N 376.915 0.57481 -1.46744 0
M  V30 3803 C 378.326 1.15695 -1.46532 0
M  V30 3804 C 378.677 1.95068 -0.210425 0
M  V30 3805 O 377.802 2.05241 0.685944 0
M  V30 3806 C 378.397 2.1048 -2.65487 0
M  V30 3807 C 376.956 2.64002 -2.68291 0
M  V30 3808 C 376.103 1.40026 -2.39349 0
M  V30 3809 H 379.054 0.362325 -1.54509 0
M  V30 3810 H 379.075 2.94074 -2.41455 0
M  V30 3811 H 378.587 1.52683 -3.56805 0
M  V30 3812 H 376.688 3.25646 -1.81067 0
M  V30 3813 H 376.801 3.06197 -3.68483 0
M  V30 3814 H 375.165 1.70106 -1.89568 0
M  V30 3815 H 375.948 0.840485 -3.32852 0
M  V30 3816 N 378.394 1.34581 0.820102 0
M  V30 3817 C 379.344 1.22943 1.92013 0
M  V30 3818 C 380.328 0.127802 1.60392 0
M  V30 3819 O 381.52 0.357737 1.73347 0
M  V30 3820 C 378.649 0.989938 3.28717 0
M  V30 3821 C 377.735 2.13486 3.66449 0
M  V30 3822 N 378.126 3.38625 3.75722 0
M  V30 3823 C 376.424 2.04573 3.96315 0
M  V30 3824 C 377.125 4.13832 4.08801 0
M  V30 3825 N 376.101 3.42451 4.22171 0
M  V30 3826 H 379.903 2.17771 1.97365 0
M  V30 3827 H 377.417 1.2686 1.01392 0
M  V30 3828 H 379.414 0.887462 4.07345 0
M  V30 3829 H 378.074 0.0503691 3.24661 0
M  V30 3830 H 379.085 3.73143 3.59144 0
M  V30 3831 H 375.762 1.1839 4.00362 0
M  V30 3832 H 377.152 5.21909 4.23156 0
M  V30 3833 N 379.872 -1.04064 1.18357 0
M  V30 3834 C 381.097 -1.81454 1.00445 0
M  V30 3835 C 381.522 -1.82823 -0.442423 0
M  V30 3836 O 380.88 -1.24555 -1.31741 0
M  V30 3837 C 380.928 -3.24925 1.56384 0
M  V30 3838 O 380.032 -4.04856 0.785209 0
M  V30 3839 H 379.373 -0.560604 0.355835 0
M  V30 3840 H 381.903 -1.31059 1.57114 0
M  V30 3841 H 381.913 -3.75702 1.59097 0
M  V30 3842 H 380.588 -3.23244 2.61699 0
M  V30 3843 H 379.165 -3.63537 0.830399 0
M  V30 3844 N 381.35 -0.985608 -1.22978 0
M  V30 3845 C 382.297 -0.529825 -2.24636 0
M  V30 3846 C 383.267 0.434028 -1.60329 0
M  V30 3847 O 384.452 0.340414 -1.87739 0
M  V30 3848 C 381.592 0.156533 -3.44745 0
M  V30 3849 C 380.705 -0.848197 -4.23591 0
M  V30 3850 C 379.84 -0.136109 -5.31026 0
M  V30 3851 C 378.879 -1.1297 -6.01585 0
M  V30 3852 N 378.016 -0.446415 -7.00679 0
M  V30 3853 H 382.856 -1.40148 -2.62988 0
M  V30 3854 H 380.393 -0.702168 -1.29259 0
M  V30 3855 H 382.351 0.571324 -4.1327 0
M  V30 3856 H 380.981 0.992025 -3.07179 0
M  V30 3857 H 380.033 -1.38135 -3.54433 0
M  V30 3858 H 381.345 -1.60512 -4.72268 0
M  V30 3859 H 380.499 0.335784 -6.0577 0
M  V30 3860 H 379.238 0.653373 -4.83304 0
M  V30 3861 H 378.243 -1.6123 -5.25628 0
M  V30 3862 H 379.468 -1.91993 -6.51395 0
M  V30 3863 H 377.414 0.323763 -6.55201 0
M  V30 3864 H 377.331 -1.1419 -7.47326 0
M  V30 3865 H 378.599 0.00291697 -7.795 0
M  V30 3866 N 382.828 1.3818 -0.7579 0
M  V30 3867 C 383.738 2.3421 -0.135247 0
M  V30 3868 C 384.754 1.59487 0.695683 0
M  V30 3869 O 385.93 1.91657 0.618832 0
M  V30 3870 C 382.995 3.3862 0.744139 0
M  V30 3871 C 382.056 4.2918 -0.101658 0
M  V30 3872 C 381.289 5.28603 0.735851 0
M  V30 3873 O 381.512 5.35166 1.97366 0
M  V30 3874 O 380.446 6.01707 0.152372 0
M  V30 3875 H 384.272 2.8916 -0.928436 0
M  V30 3876 H 381.857 1.40101 -0.518855 0
M  V30 3877 H 383.739 4.02539 1.2466 0
M  V30 3878 H 382.414 2.86019 1.51575 0
M  V30 3879 H 381.321 3.68407 -0.650167 0
M  V30 3880 H 382.654 4.85048 -0.836024 0
M  V30 3881 N 384.306 0.507319 1.49211 0
M  V30 3882 C 385.253 -0.267728 2.29242 0
M  V30 3883 C 386.223 -0.954609 1.35928 0
M  V30 3884 O 387.408 -0.960046 1.64887 0
M  V30 3885 C 384.548 -1.32243 3.18756 0
M  V30 3886 C 383.661 -0.64669 4.27132 0
M  V30 3887 C 382.796 -1.68238 5.03855 0
M  V30 3888 C 381.835 -0.98885 6.0406 0
M  V30 3889 N 380.972 -1.96903 6.73924 0
M  V30 3890 H 385.812 0.420968 2.95012 0
M  V30 3891 H 383.349 0.219443 1.45454 0
M  V30 3892 H 385.307 -1.94599 3.69036 0
M  V30 3893 H 383.937 -1.97981 2.54958 0
M  V30 3894 H 382.989 0.0902926 3.80293 0
M  V30 3895 H 384.301 -0.101058 4.98698 0
M  V30 3896 H 383.455 -2.38081 5.58034 0
M  V30 3897 H 382.194 -2.26187 4.32077 0
M  V30 3898 H 381.199 -0.276222 5.49106 0
M  V30 3899 H 382.424 -0.415767 6.77826 0
M  V30 3900 H 380.37 -2.53803 6.04913 0
M  V30 3901 H 380.287 -1.47423 7.41487 0
M  V30 3902 H 381.555 -2.66015 7.32705 0
M  V30 3903 N 385.784 -1.5574 0.241426 0
M  V30 3904 C 387.2 -1.59196 -0.113548 0
M  V30 3905 C 387.4 -1.25852 -1.57364 0
M  V30 3906 O 386.456 -1.00322 -2.31715 0
M  V30 3907 C 387.769 -2.99814 0.230695 0
M  V30 3908 C 389.317 -3.12513 0.174547 0
M  V30 3909 C 389.792 -4.55342 0.492744 0
M  V30 3910 N 391.283 -4.61076 0.443043 0
M  V30 3911 C 392.018 -5.6956 0.662484 0
M  V30 3912 N 391.514 -6.86328 0.944761 0
M  V30 3913 N 393.307 -5.58957 0.593564 0
M  V30 3914 H 385.458 -1.75685 1.19368 0
M  V30 3915 H 387.721 -0.81756 0.479896 0
M  V30 3916 H 387.427 -3.28932 1.24485 0
M  V30 3917 H 387.301 -3.74568 -0.444833 0
M  V30 3918 H 389.688 -2.83179 -0.830277 0
M  V30 3919 H 389.769 -2.40045 0.883845 0
M  V30 3920 H 389.413 -4.85396 1.4951 0
M  V30 3921 H 389.343 -5.26062 -0.23797 0
M  V30 3922 H 391.834 -3.77179 0.233374 0
M  V30 3923 H 392.147 -7.64935 1.09977 0
M  V30 3924 H 390.492 -6.88025 0.982175 0
M  V30 3925 H 393.683 -4.66611 0.373123 0
M  V30 3926 H 393.856 -6.43433 0.767981 0
M  V30 3927 N 387.262 0.0317525 -1.57568 0
M  V30 3928 C 388.195 1.06621 -2.0176 0
M  V30 3929 C 389.173 1.35323 -0.901462 0
M  V30 3930 O 390.357 1.48025 -1.16708 0
M  V30 3931 C 387.484 2.40155 -2.38837 0
M  V30 3932 C 386.53 2.27327 -3.60867 0
M  V30 3933 S 387.363 1.62925 -5.10113 0
M  V30 3934 C 388.519 2.97955 -5.5043 0
M  V30 3935 H 388.752 0.689781 -2.89187 0
M  V30 3936 H 386.285 0.24164 -1.52497 0
M  V30 3937 H 388.243 3.1695 -2.6087 0
M  V30 3938 H 386.904 2.74946 -1.51867 0
M  V30 3939 H 386.097 3.25898 -3.84456 0
M  V30 3940 H 385.699 1.58675 -3.38671 0
M  V30 3941 H 387.991 3.94285 -5.5095 0
M  V30 3942 H 388.934 2.79102 -6.50775 0
M  V30 3943 H 389.342 3.00404 -4.77931 0
M  V30 3944 N 388.74 1.54641 0.303973 0
M  V30 3945 C 390.151 1.64811 0.877163 0
M  V30 3946 C 390.502 0.554838 1.88191 0
M  V30 3947 O 389.627 -0.309033 2.14182 0
M  V30 3948 C 390.222 2.9876 1.59775 0
M  V30 3949 C 388.781 3.11061 2.11938 0
M  V30 3950 C 387.928 2.60479 0.951097 0
M  V30 3951 H 390.879 1.58493 0.0810486 0
M  V30 3952 H 390.9 2.90017 2.46314 0
M  V30 3953 H 390.412 3.7831 0.866226 0
M  V30 3954 H 388.513 2.36225 2.88146 0
M  V30 3955 H 388.626 4.17171 2.35595 0
M  V30 3956 H 386.99 2.16859 1.33583 0
M  V30 3957 H 387.773 3.42504 0.233581 0
M  V30 3958 N 390.218 -0.567019 1.47046 0
M  V30 3959 C 391.465 -1.32462 1.53167 0
M  V30 3960 C 391.793 -1.93571 0.189841 0
M  V30 3961 O 391.048 -1.77865 -0.816243 0
M  V30 3962 C 391.347 -2.4623 2.59047 0
M  V30 3963 C 391.013 -2.03014 4.02612 0
M  V30 3964 C 389.675 -1.90944 4.41694 0
M  V30 3965 C 392.027 -1.69895 4.92732 0
M  V30 3966 C 389.355 -1.44035 5.68745 0
M  V30 3967 C 391.707 -1.2446 6.20236 0
M  V30 3968 C 390.371 -1.10979 6.5821 0
M  V30 3969 H 389.641 -0.484713 0.560477 0
M  V30 3970 H 392.288 -0.636888 1.80599 0
M  V30 3971 H 390.593 -3.20517 2.25335 0
M  V30 3972 H 392.29 -3.04427 2.61008 0
M  V30 3973 H 388.88 -2.13348 3.71726 0
M  V30 3974 H 393.064 -1.78098 4.63244 0
M  V30 3975 H 388.32 -1.32254 5.96925 0
M  V30 3976 H 392.494 -0.978924 6.89485 0
M  V30 3977 H 390.121 -0.744078 7.5655 0
M  V30 3978 N 391.696 -1.35014 -0.812953 0
M  V30 3979 C 392.943 -1.27931 -1.56971 0
M  V30 3980 C 393.271 0.148034 -1.93936 0
M  V30 3981 O 392.526 1.11175 -1.61054 0
M  V30 3982 C 392.825 -2.12524 -2.87347 0
M  V30 3983 C 392.491 -3.61401 -2.6963 0
M  V30 3984 C 391.153 -4.01983 -2.64506 0
M  V30 3985 C 393.505 -4.55894 -2.52607 0
M  V30 3986 C 390.833 -5.35235 -2.40293 0
M  V30 3987 C 393.185 -5.89336 -2.29925 0
M  V30 3988 C 391.849 -6.2907 -2.23219 0
M  V30 3989 H 391.119 -0.468131 -0.574399 0
M  V30 3990 H 393.766 -1.66851 -0.939836 0
M  V30 3991 H 392.071 -1.66463 -3.54679 0
M  V30 3992 H 393.768 -2.04383 -3.45005 0
M  V30 3993 H 390.358 -3.29193 -2.74463 0
M  V30 3994 H 394.542 -4.25431 -2.55583 0
M  V30 3995 H 389.798 -5.65028 -2.33566 0
M  V30 3996 H 393.972 -6.62139 -2.15743 0
M  V30 3997 H 391.599 -7.32256 -2.04219 0
M  V30 3998 N 393.175 1.03435 -1.18907 0
M  V30 3999 C 394.122 2.11591 -0.921837 0
M  V30 4000 C 395.092 1.65499 0.141226 0
M  V30 4001 O 396.277 1.908 0.000242829 0
M  V30 4002 C 393.417 3.42012 -0.460616 0
M  V30 4003 C 392.53 4.01682 -1.58982 0
M  V30 4004 C 391.665 5.20091 -1.08069 0
M  V30 4005 C 390.704 5.71805 -2.18416 0
M  V30 4006 N 389.841 6.81494 -1.68849 0
M  V30 4007 H 394.681 2.33787 -1.8479 0
M  V30 4008 H 392.218 1.1467 -0.921373 0
M  V30 4009 H 394.176 4.16834 -0.174642 0
M  V30 4010 H 392.806 3.19944 0.428467 0
M  V30 4011 H 391.858 3.24127 -1.99113 0
M  V30 4012 H 393.17 4.36084 -2.4214 0
M  V30 4013 H 392.324 6.02051 -0.749615 0
M  V30 4014 H 391.063 4.87209 -0.218771 0
M  V30 4015 H 390.068 4.88461 -2.5236 0
M  V30 4016 H 391.293 6.06728 -3.05054 0
M  V30 4017 H 389.239 6.50475 -0.849572 0
M  V30 4018 H 389.156 7.14994 -2.45601 0
M  V30 4019 H 390.424 7.67063 -1.38689 0
M  V30 4020 N 394.653 0.992116 1.22453 0
M  V30 4021 C 395.6 0.541731 2.24352 0
M  V30 4022 C 396.57 -0.425519 1.60557 0
M  V30 4023 O 397.755 -0.330453 1.87917 0
M  V30 4024 C 394.895 -0.138248 3.44823 0
M  V30 4025 C 394.008 0.870649 4.23136 0
M  V30 4026 C 393.143 0.164269 5.30946 0
M  V30 4027 C 392.182 1.16159 6.00977 0
M  V30 4028 N 391.319 0.483568 7.00433 0
M  V30 4029 H 396.159 1.41541 2.62241 0
M  V30 4030 H 393.696 0.709013 1.28885 0
M  V30 4031 H 395.654 -0.5494 4.13567 0
M  V30 4032 H 394.284 -0.975721 3.077 0
M  V30 4033 H 393.336 1.40013 3.53696 0
M  V30 4034 H 394.648 1.63014 4.7141 0
M  V30 4035 H 393.802 -0.303653 6.0594 0
M  V30 4036 H 392.541 -0.627733 4.83643 0
M  V30 4037 H 391.546 1.64015 5.24766 0
M  V30 4038 H 392.771 1.95445 6.50368 0
M  V30 4039 H 390.717 -0.289012 6.55363 0
M  V30 4040 H 390.634 1.18152 7.4671 0
M  V30 4041 H 391.902 0.0384219 7.79491 0
M  V30 4042 N 396.131 -1.37776 0.765217 0
M  V30 4043 C 397.359 -2.04124 0.337767 0
M  V30 4044 C 397.774 -1.57715 -1.03785 0
M  V30 4045 O 397.131 -0.755447 -1.6613 0
M  V30 4046 C 397.182 -3.59658 0.364442 0
M  V30 4047 O 396.903 -4.04367 1.68579 0
M  V30 4048 C 398.404 -4.43236 -0.0754221 0
M  V30 4049 H 395.624 -0.655696 0.142491 0
M  V30 4050 H 398.168 -1.76238 1.03732 0
M  V30 4051 H 396.323 -3.86339 -0.286471 0
M  V30 4052 H 396.737 -4.98857 1.61993 0
M  V30 4053 H 398.211 -5.52 -0.00560067 0
M  V30 4054 H 398.688 -4.2455 -1.12491 0
M  V30 4055 H 399.294 -4.21767 0.547055 0
M  V30 4056 N 397.609 -0.515225 -1.4894 0
M  V30 4057 C 398.519 0.259774 -2.33157 0
M  V30 4058 C 399.535 0.953501 -1.45548 0
M  V30 4059 O 400.711 0.931735 -1.78552 0
M  V30 4060 C 397.776 1.30193 -3.21326 0
M  V30 4061 C 396.837 0.620129 -4.24797 0
M  V30 4062 C 396.07 1.61263 -5.08753 0
M  V30 4063 O 396.293 2.84389 -4.94448 0
M  V30 4064 O 395.227 1.16013 -5.90614 0
M  V30 4065 H 399.053 -0.429932 -3.00641 0
M  V30 4066 H 396.638 -0.276346 -1.46822 0
M  V30 4067 H 398.52 1.90455 -3.75905 0
M  V30 4068 H 397.195 1.97431 -2.56521 0
M  V30 4069 H 396.102 -0.0226019 -3.74093 0
M  V30 4070 H 397.435 -0.0100493 -4.92199 0
M  V30 4071 N 399.087 1.5561 -0.249682 0
M  V30 4072 C 400.037 2.18157 0.662673 0
M  V30 4073 C 401.021 1.1383 1.13717 0
M  V30 4074 O 402.213 1.39731 1.08648 0
M  V30 4075 C 399.342 2.88672 1.85805 0
M  V30 4076 C 398.428 4.00258 1.40193 0
M  V30 4077 N 398.819 5.01473 0.660213 0
M  V30 4078 C 397.117 4.12864 1.68698 0
M  V30 4079 C 397.818 5.80155 0.423695 0
M  V30 4080 N 396.794 5.34533 0.988721 0
M  V30 4081 H 400.596 2.93769 0.0878688 0
M  V30 4082 H 398.11 1.62316 -0.0521183 0
M  V30 4083 H 400.107 3.31912 2.5227 0
M  V30 4084 H 398.767 2.14564 2.43705 0
M  V30 4085 H 399.778 5.16971 0.310047 0
M  V30 4086 H 396.455 3.4993 2.27717 0
M  V30 4087 H 397.845 6.71688 -0.168616 0
M  V30 4088 N 400.565 -0.0233959 1.57583 0
M  V30 4089 C 401.793 -0.724682 1.93794 0
M  V30 4090 C 402.208 -1.68588 0.849912 0
M  V30 4091 O 401.565 -1.81676 -0.173204 0
M  V30 4092 C 401.616 -1.47684 3.29957 0
M  V30 4093 O 401.337 -0.554222 4.3458 0
M  V30 4094 C 402.838 -2.27477 3.80485 0
M  V30 4095 H 400.058 -0.203317 0.639455 0
M  V30 4096 H 402.602 0.0207653 2.04489 0
M  V30 4097 H 400.757 -2.17412 3.20641 0
M  V30 4098 H 401.171 -1.08232 5.13212 0
M  V30 4099 H 402.645 -2.7564 4.78254 0
M  V30 4100 H 403.122 -3.09144 3.11972 0
M  V30 4101 H 403.728 -1.62813 3.92902 0
M  V30 4102 N 402.043 -1.548 -0.295768 0
M  V30 4103 C 403.454 -1.65274 -0.868411 0
M  V30 4104 C 403.805 -0.56481 -1.87894 0
M  V30 4105 O 402.93 0.29767 -2.14343 0
M  V30 4106 C 403.525 -2.99603 -1.58188 0
M  V30 4107 C 402.084 -3.12181 -2.10286 0
M  V30 4108 C 401.231 -2.6098 -0.93727 0
M  V30 4109 H 404.182 -1.58534 -0.0726422 0
M  V30 4110 H 404.203 -2.91319 -2.44772 0
M  V30 4111 H 403.715 -3.78764 -0.846151 0
M  V30 4112 H 401.816 -2.3775 -2.8689 0
M  V30 4113 H 401.929 -4.18415 -2.33379 0
M  V30 4114 H 400.293 -2.17564 -1.32431 0
M  V30 4115 H 401.076 -3.42623 -0.215414 0
M  V30 4116 N 403.521 0.559213 -1.47345 0
M  V30 4117 C 404.932 1.14134 -1.47751 0
M  V30 4118 C 405.283 1.94834 -0.231103 0
M  V30 4119 O 404.408 2.05957 0.664137 0
M  V30 4120 C 405.003 2.07653 -2.67705 0
M  V30 4121 C 403.562 2.61141 -2.71076 0
M  V30 4122 C 402.709 1.3748 -2.40821 0
M  V30 4123 H 405.66 0.345917 -1.54884 0
M  V30 4124 H 405.681 2.91497 -2.44561 0
M  V30 4125 H 405.193 1.4889 -3.58404 0
M  V30 4126 H 403.294 3.23707 -1.84511 0
M  V30 4127 H 403.407 3.02272 -3.7171 0
M  V30 4128 H 401.771 1.68086 -1.91362 0
M  V30 4129 H 402.554 0.805135 -3.33725 0
M  V30 4130 N 404.999 1.35443 0.805782 0
M  V30 4131 C 406.229 1.31687 1.59192 0
M  V30 4132 C 406.637 -0.10756 1.88894 0
M  V30 4133 O 405.98 -1.07017 1.49309 0
M  V30 4134 C 406.042 2.05686 2.94845 0
M  V30 4135 C 405.706 3.54868 2.87954 0
M  V30 4136 C 406.703 4.49444 2.61335 0
M  V30 4137 C 404.388 3.97528 3.07046 0
M  V30 4138 C 406.382 5.84655 2.53885 0
M  V30 4139 C 404.069 5.32833 2.99219 0
M  V30 4140 C 405.067 6.26209 2.72674 0
M  V30 4141 O 404.755 7.59032 2.64811 0
M  V30 4142 H 404.487 0.453878 0.50097 0
M  V30 4143 H 407.041 1.78892 1.0093 0
M  V30 4144 H 405.271 1.5312 3.55093 0
M  V30 4145 H 406.96 1.94998 3.55993 0
M  V30 4146 H 407.726 4.17804 2.46303 0
M  V30 4147 H 403.605 3.25233 3.26718 0
M  V30 4148 H 407.149 6.57508 2.33086 0
M  V30 4149 H 403.046 5.64087 3.13809 0
M  V30 4150 H 403.814 7.68967 2.80413 0
M  V30 4151 N 406.477 -1.02803 1.19454 0
M  V30 4152 C 407.754 -1.73299 0.907013 0
M  V30 4153 C 408.134 -2.02772 -0.587086 0
M  V30 4154 O 407.482 -1.68304 -1.54551 0
M  V30 4155 C 407.692 -3.00912 1.76785 0
M  V30 4156 C 409.04 -3.74403 2.00268 0
M  V30 4157 O 410.064 -3.10841 1.73943 0
M  V30 4158 O 408.923 -4.88675 2.4466 0
M  V30 4159 H 406.017 -0.754727 0.338106 0
M  V30 4160 H 408.563 -1.08754 1.30271 0
M  V30 4161 H 407.335 -2.75366 2.7801 0
M  V30 4162 H 406.958 -3.73197 1.37149 0
M  V30 4163 N 407.956 -0.998596 -1.21925 0
M  V30 4164 C 409.202 -0.678667 -1.91107 0
M  V30 4165 C 409.535 0.78791 -1.77498 0
M  V30 4166 O 408.81 1.57043 -1.1475 0
M  V30 4167 C 409.093 -1.09245 -3.43129 0
M  V30 4168 C 408.946 -2.61801 -3.6576 0
M  V30 4169 C 410.265 -0.649984 -4.35274 0
M  V30 4170 H 407.384 -0.248025 -0.694012 0
M  V30 4171 H 410.026 -1.24314 -1.43688 0
M  V30 4172 H 408.176 -0.612171 -3.83647 0
M  V30 4173 H 409.848 -3.17543 -3.34611 0
M  V30 4174 H 408.091 -3.03609 -3.09845 0
M  V30 4175 H 408.762 -2.85804 -4.7225 0
M  V30 4176 H 411.238 -1.0626 -4.02303 0
M  V30 4177 H 410.114 -0.967743 -5.40302 0
M  V30 4178 H 410.375 0.449139 -4.39813 0
M  V30 4179 N 409.434 1.37368 -0.772513 0
M  V30 4180 C 410.68 1.99969 -0.337681 0
M  V30 4181 C 411.013 1.61184 1.08321 0
M  V30 4182 O 410.288 0.858395 1.74533 0
M  V30 4183 C 410.571 3.56858 -0.482121 0
M  V30 4184 C 410.424 4.0555 -1.94549 0
M  V30 4185 C 411.743 4.39955 0.113143 0
M  V30 4186 H 408.862 0.726464 -0.124171 0
M  V30 4187 H 411.504 1.63034 -0.975699 0
M  V30 4188 H 409.654 3.88452 0.0610361 0
M  V30 4189 H 411.326 3.84518 -2.54841 0
M  V30 4190 H 409.569 3.57715 -2.45403 0
M  V30 4191 H 410.24 5.14587 -1.9976 0
M  V30 4192 H 412.716 4.14623 -0.35031 0
M  V30 4193 H 411.592 5.48897 -0.0180514 0
M  V30 4194 H 411.853 4.25403 1.20354 0
M  V30 4195 N 410.912 0.523116 1.48665 0
M  V30 4196 C 412.323 0.0808997 1.86525 0
M  V30 4197 C 412.674 -1.33975 1.43336 0
M  V30 4198 O 411.799 -2.00221 0.821009 0
M  V30 4199 C 412.394 0.140037 3.3851 0
M  V30 4200 C 410.953 -0.246948 3.75589 0
M  V30 4201 C 410.1 0.502845 2.72703 0
M  V30 4202 H 413.051 0.734736 1.40667 0
M  V30 4203 H 413.072 -0.649945 3.74908 0
M  V30 4204 H 412.584 1.17412 3.69914 0
M  V30 4205 H 410.685 -1.28343 3.49798 0
M  V30 4206 H 410.798 0.0878859 4.79019 0
M  V30 4207 H 409.162 -0.0500581 2.54651 0
M  V30 4208 H 409.945 1.53743 3.0695 0
M  V30 4209 N 412.39 -1.55475 0.257931 0
M  V30 4210 C 413.615 -2.04064 -0.370488 0
M  V30 4211 C 414.04 -1.13565 -1.49948 0
M  V30 4212 O 413.398 -0.130781 -1.80828 0
M  V30 4213 C 413.446 -3.50554 -0.845237 0
M  V30 4214 O 412.55 -3.63173 -1.95394 0
M  V30 4215 H 411.891 -0.659257 -0.0792243 0
M  V30 4216 H 414.421 -2.00903 0.387212 0
M  V30 4217 H 414.431 -3.91588 -1.14555 0
M  V30 4218 H 413.106 -4.15896 -0.0191259 0
M  V30 4219 H 411.683 -3.34039 -1.65748 0
M  V30 4220 N 413.868 0.0150385 -1.57593 0
M  V30 4221 C 414.801 1.04475 -2.0288 0
M  V30 4222 C 415.779 1.3436 -0.915764 0
M  V30 4223 O 416.963 1.46779 -1.18271 0
M  V30 4224 C 414.09 2.37608 -2.41371 0
M  V30 4225 C 413.136 2.23487 -3.63257 0
M  V30 4226 S 413.969 1.57505 -5.11813 0
M  V30 4227 C 415.125 2.921 -5.5356 0
M  V30 4228 H 415.358 0.65907 -2.89903 0
M  V30 4229 H 412.891 0.225452 -1.52745 0
M  V30 4230 H 414.849 3.14165 -2.64217 0
M  V30 4231 H 413.51 2.7332 -1.54775 0
M  V30 4232 H 412.703 3.21802 -3.87891 0
M  V30 4233 H 412.305 1.55074 -3.40335 0
M  V30 4234 H 414.597 3.88419 -5.55101 0
M  V30 4235 H 415.54 2.72184 -6.53698 0
M  V30 4236 H 415.948 2.95318 -4.8109 0
M  V30 4237 N 415.346 1.54954 0.287554 0
M  V30 4238 C 416.762 1.46469 0.633964 0
M  V30 4239 C 416.962 0.666865 1.90145 0
M  V30 4240 O 416.018 0.179906 2.51858 0
M  V30 4241 C 417.331 2.90556 0.774454 0
M  V30 4242 C 418.879 3.00681 0.869462 0
M  V30 4243 C 419.354 4.45993 1.04184 0
M  V30 4244 N 420.845 4.4976 1.10772 0
M  V30 4245 C 421.58 5.59393 1.25964 0
M  V30 4246 N 421.076 6.78923 1.37968 0
M  V30 4247 N 422.869 5.47107 1.28959 0
M  V30 4248 H 415.02 2.05288 -0.545041 0
M  V30 4249 H 417.283 0.930305 -0.182308 0
M  V30 4250 H 416.989 3.51594 -0.086207 0
M  V30 4251 H 416.863 3.38743 1.6593 0
M  V30 4252 H 419.25 2.39749 1.7206 0
M  V30 4253 H 419.331 2.55769 -0.0396831 0
M  V30 4254 H 418.975 5.07524 0.195422 0
M  V30 4255 H 418.905 4.88548 1.96542 0
M  V30 4256 H 421.396 3.63651 1.02794 0
M  V30 4257 H 421.709 7.58231 1.49353 0
M  V30 4258 H 420.054 6.81763 1.34999 0
M  V30 4259 H 423.245 4.52668 1.19202 0
M  V30 4260 H 423.418 6.32595 1.40455 0
M  V30 4261 N 416.824 -0.551391 1.4764 0
M  V30 4262 C 418.235 -1.13349 1.48354 0
M  V30 4263 C 418.586 -1.94709 0.241432 0
M  V30 4264 O 417.711 -2.06306 -0.653205 0
M  V30 4265 C 418.306 -2.0623 2.68802 0
M  V30 4266 C 416.865 -2.597 2.72457 0
M  V30 4267 C 416.012 -1.36201 2.41546 0
M  V30 4268 H 418.963 -0.337698 1.55065 0
M  V30 4269 H 418.984 -2.90196 2.46103 0
M  V30 4270 H 418.496 -1.46987 3.59188 0
M  V30 4271 H 416.597 -3.22724 1.86225 0
M  V30 4272 H 416.71 -3.00296 3.73308 0
M  V30 4273 H 415.074 -1.67068 1.9225 0
M  V30 4274 H 415.857 -0.787425 3.34147 0
M  V30 4275 N 418.302 -1.35869 -0.798587 0
M  V30 4276 C 419.548 -1.2978 -1.55836 0
M  V30 4277 C 419.881 0.125322 -1.93795 0
M  V30 4278 O 419.156 1.07658 -1.61987 0
M  V30 4279 C 419.439 -2.21188 -2.84162 0
M  V30 4280 C 419.292 -3.72155 -2.52628 0
M  V30 4281 C 420.611 -2.11545 -3.85923 0
M  V30 4282 H 417.73 -0.472769 -0.565383 0
M  V30 4283 H 420.372 -1.66341 -0.918192 0
M  V30 4284 H 418.522 -1.90139 -3.38791 0
M  V30 4285 H 420.194 -4.13682 -2.04121 0
M  V30 4286 H 418.437 -3.92042 -1.85704 0
M  V30 4287 H 419.108 -4.31511 -3.44242 0
M  V30 4288 H 421.584 -2.38855 -3.40716 0
M  V30 4289 H 420.46 -2.77688 -4.73477 0
M  V30 4290 H 420.721 -1.09987 -4.282 0
M  V30 4291 N 419.78 1.02168 -1.19998 0
M  V30 4292 C 421.026 1.75945 -1.00852 0
M  V30 4293 C 421.359 1.88702 0.458828 0
M  V30 4294 O 420.634 1.40911 1.34069 0
M  V30 4295 C 420.917 3.18154 -1.68671 0
M  V30 4296 C 420.77 3.13224 -3.22817 0
M  V30 4297 C 422.089 4.16711 -1.41561 0
M  V30 4298 H 419.208 0.638673 -0.367785 0
M  V30 4299 H 421.85 1.19222 -1.4794 0
M  V30 4300 H 420 3.66586 -1.28636 0
M  V30 4301 H 421.672 2.72635 -3.72112 0
M  V30 4302 H 419.915 2.50751 -3.53986 0
M  V30 4303 H 420.586 4.13728 -3.65422 0
M  V30 4304 H 423.062 3.76913 -1.76284 0
M  V30 4305 H 421.938 5.14391 -1.91553 0
M  V30 4306 H 422.199 4.40774 -0.342193 0
M  V30 4307 N 421.258 1.00505 1.21394 0
M  V30 4308 C 422.188 0.585684 2.26035 0
M  V30 4309 C 423.169 -0.393525 1.65485 0
M  V30 4310 O 424.354 -0.281497 1.92149 0
M  V30 4311 C 421.484 -0.0884283 3.47187 0
M  V30 4312 C 420.438 0.810567 4.20254 0
M  V30 4313 C 419.764 0.00286382 5.347 0
M  V30 4314 C 421.064 2.1132 4.77641 0
M  V30 4315 H 422.758 1.46039 2.61368 0
M  V30 4316 H 420.304 0.703648 1.25638 0
M  V30 4317 H 422.257 -0.393286 4.19561 0
M  V30 4318 H 420.981 -0.997766 3.10986 0
M  V30 4319 H 419.64 1.09925 3.49731 0
M  V30 4320 H 419.288 -0.907765 4.94741 0
M  V30 4321 H 418.988 0.601444 5.84514 0
M  V30 4322 H 420.512 -0.295808 6.09883 0
M  V30 4323 H 421.926 1.87148 5.41893 0
M  V30 4324 H 420.323 2.66164 5.37845 0
M  V30 4325 H 421.393 2.78393 3.9702 0
M  V30 4326 N 422.737 -1.36956 0.779787 0
M  V30 4327 C 423.983 -1.99787 0.348281 0
M  V30 4328 C 424.316 -1.61756 -1.07465 0
M  V30 4329 O 423.591 -0.867639 -1.74075 0
M  V30 4330 C 423.874 -3.56597 0.50104 0
M  V30 4331 C 423.727 -4.04513 1.96697 0
M  V30 4332 C 425.046 -4.40008 -0.0898097 0
M  V30 4333 H 422.165 -0.725796 0.128022 0
M  V30 4334 H 424.807 -1.62514 0.984331 0
M  V30 4335 H 422.957 -3.88479 -0.0404347 0
M  V30 4336 H 424.629 -3.83161 2.56876 0
M  V30 4337 H 422.872 -3.56408 2.47297 0
M  V30 4338 H 423.543 -5.1352 2.02486 0
M  V30 4339 H 426.019 -4.14431 0.372293 0
M  V30 4340 H 424.895 -5.4888 0.0471605 0
M  V30 4341 H 425.156 -4.26035 -1.18096 0
M  V30 4342 N 424.215 -0.530993 -1.48385 0
M  V30 4343 C 425.463 0.00273189 -2.021 0
M  V30 4344 C 425.784 1.34672 -1.41027 0
M  V30 4345 O 425.054 1.8724 -0.576012 0
M  V30 4346 H 423.634 0.00399774 -0.746989 0
M  V30 4347 H 426.296 -0.695054 -1.82085 0
M  V30 4348 H 425.392 0.11031 -3.11905 0
M  V30 4349 N 425.693 1.55336 -0.266172 0
M  V30 4350 C 427.104 1.85236 0.233315 0
M  V30 4351 C 427.455 1.18816 1.56132 0
M  V30 4352 O 426.58 0.473307 2.11161 0
M  V30 4353 C 427.175 3.36059 0.430113 0
M  V30 4354 C 425.734 3.66116 0.873842 0
M  V30 4355 C 424.881 2.77274 -0.0380016 0
M  V30 4356 H 427.832 1.51004 -0.488214 0
M  V30 4357 H 427.853 3.58681 1.26998 0
M  V30 4358 H 427.365 3.84373 -0.536588 0
M  V30 4359 H 425.466 3.23295 1.85233 0
M  V30 4360 H 425.579 4.73699 0.717358 0
M  V30 4361 H 423.943 2.50198 0.476759 0
M  V30 4362 H 424.726 3.284 -1.00042 0
M  V30 4363 N 427.171 -0.0066808 1.57599 0
M  V30 4364 C 428.396 -0.707738 1.94951 0
M  V30 4365 C 428.821 -1.66882 0.867868 0
M  V30 4366 O 428.179 -1.80457 -0.17458 0
M  V30 4367 C 428.227 -1.42162 3.31394 0
M  V30 4368 O 427.331 -2.53578 3.25226 0
M  V30 4369 H 426.672 -0.188752 0.636607 0
M  V30 4370 H 429.202 0.0445193 2.04552 0
M  V30 4371 H 429.212 -1.78655 3.66806 0
M  V30 4372 H 427.887 -0.716903 4.09675 0
M  V30 4373 H 426.464 -2.19463 3.01481 0
M  V30 4374 N 428.649 -1.55105 -0.279332 0
M  V30 4375 C 429.579 -1.90557 -1.34945 0
M  V30 4376 C 430.56 -0.766738 -1.51839 0
M  V30 4377 O 431.745 -1.02434 -1.64988 0
M  V30 4378 C 428.875 -2.17193 -2.71006 0
M  V30 4379 C 427.829 -3.33021 -2.68851 0
M  V30 4380 C 427.155 -3.45123 -4.08405 0
M  V30 4381 C 428.455 -4.69578 -2.28678 0
M  V30 4382 H 430.149 -2.80188 -1.05522 0
M  V30 4383 H 427.695 -1.34811 -0.506173 0
M  V30 4384 H 429.648 -2.40581 -3.45975 0
M  V30 4385 H 428.372 -1.24355 -3.01999 0
M  V30 4386 H 427.031 -3.0959 -1.9634 0
M  V30 4387 H 426.679 -2.49762 -4.3661 0
M  V30 4388 H 426.379 -4.22995 -4.07859 0
M  V30 4389 H 427.903 -3.70796 -4.85121 0
M  V30 4390 H 429.317 -4.92553 -2.93368 0
M  V30 4391 H 427.714 -5.5032 -2.39306 0
M  V30 4392 H 428.784 -4.68828 -1.23807 0
M  V30 4393 N 430.127 0.543554 -1.4793 0
M  V30 4394 C 431.074 1.64942 -1.6144 0
M  V30 4395 C 432.044 1.59692 -0.456903 0
M  V30 4396 O 433.229 1.78321 -0.678688 0
M  V30 4397 C 430.369 3.03238 -1.64744 0
M  V30 4398 C 429.482 3.18823 -2.91506 0
M  V30 4399 C 428.617 4.47599 -2.86057 0
M  V30 4400 C 427.656 4.56664 -4.07584 0
M  V30 4401 N 426.793 5.76811 -4.00292 0
M  V30 4402 H 431.633 1.52733 -2.55884 0
M  V30 4403 H 429.17 0.7438 -1.2691 0
M  V30 4404 H 431.128 3.83339 -1.64641 0
M  V30 4405 H 429.758 3.1425 -0.738017 0
M  V30 4406 H 428.81 2.32064 -3.01414 0
M  V30 4407 H 430.122 3.21384 -3.81463 0
M  V30 4408 H 429.276 5.35975 -2.84281 0
M  V30 4409 H 428.015 4.47538 -1.93807 0
M  V30 4410 H 427.02 3.66697 -4.09651 0
M  V30 4411 H 428.245 4.58474 -5.00978 0
M  V30 4412 H 426.191 5.77673 -3.10853 0
M  V30 4413 H 426.108 5.80808 -4.8394 0
M  V30 4414 H 427.376 6.67512 -4.02553 0
M  V30 4415 N 431.605 1.3629 0.791371 0
M  V30 4416 C 432.853 1.30154 1.5461 0
M  V30 4417 C 433.174 -0.119409 1.94634 0
M  V30 4418 O 432.444 -1.05924 1.64794 0
M  V30 4419 H 431.024 0.478784 0.573389 0
M  V30 4420 H 433.686 1.70565 0.94306 0
M  V30 4421 H 432.782 1.92762 2.45457 0
M  V30 4422 N 433.083 -1.0153 1.20538 0
M  V30 4423 C 434.313 -1.78487 1.04048 0
M  V30 4424 C 434.721 -1.84631 -0.413292 0
M  V30 4425 O 434.064 -1.29919 -1.29872 0
M  V30 4426 C 434.126 -3.24367 1.55003 0
M  V30 4427 C 433.79 -3.41827 3.0332 0
M  V30 4428 C 434.787 -3.30941 4.00966 0
M  V30 4429 C 432.472 -3.67602 3.42307 0
M  V30 4430 C 434.466 -3.45577 5.35589 0
M  V30 4431 C 432.153 -3.81881 4.77085 0
M  V30 4432 C 433.151 -3.70874 5.73534 0
M  V30 4433 O 432.839 -3.84714 7.05868 0
M  V30 4434 H 432.571 -0.568108 0.366373 0
M  V30 4435 H 435.125 -1.28677 1.60098 0
M  V30 4436 H 433.355 -3.75266 0.933397 0
M  V30 4437 H 435.044 -3.82963 1.34514 0
M  V30 4438 H 435.81 -3.10964 3.72191 0
M  V30 4439 H 431.689 -3.75256 2.67776 0
M  V30 4440 H 435.233 -3.36902 6.10854 0
M  V30 4441 H 431.13 -4.01359 5.0555 0
M  V30 4442 H 431.898 -4.01724 7.13134 0
M  V30 4443 N 434.561 -1.01147 -1.20859 0
M  V30 4444 C 435.471 -0.58686 -2.27141 0
M  V30 4445 C 436.487 0.373198 -1.69951 0
M  V30 4446 O 437.663 0.235423 -2.00019 0
M  V30 4447 C 434.728 0.0733602 -3.46622 0
M  V30 4448 C 433.789 -0.931995 -4.19061 0
M  V30 4449 C 433.022 -0.303186 -5.32838 0
M  V30 4450 O 433.245 0.898395 -5.63281 0
M  V30 4451 O 432.179 -1.01735 -5.9324 0
M  V30 4452 H 436.005 -1.47155 -2.65667 0
M  V30 4453 H 433.59 -0.780689 -1.2738 0
M  V30 4454 H 435.472 0.442333 -4.19072 0
M  V30 4455 H 434.147 0.932329 -3.09983 0
M  V30 4456 H 433.054 -1.35224 -3.48805 0
M  V30 4457 H 434.387 -1.76076 -4.59628 0
M  V30 4458 N 436.039 1.36541 -0.78704 0
M  V30 4459 C 437.285 1.99599 -0.358872 0
M  V30 4460 C 437.618 1.62323 1.06606 0
M  V30 4461 O 436.893 0.876858 1.73613 0
M  V30 4462 C 437.176 3.56327 -0.519944 0
M  V30 4463 C 437.029 4.03464 -1.98839 0
M  V30 4464 C 438.348 4.4005 0.0664737 0
M  V30 4465 H 435.467 0.725107 -0.131869 0
M  V30 4466 H 438.109 1.6199 -0.992936 0
M  V30 4467 H 436.259 3.88495 0.0198321 0
M  V30 4468 H 437.931 3.81793 -2.58905 0
M  V30 4469 H 436.174 3.55092 -2.49183 0
M  V30 4470 H 436.845 5.12439 -2.05207 0
M  V30 4471 H 439.321 4.14228 -0.394267 0
M  V30 4472 H 438.197 5.48847 -0.0762682 0
M  V30 4473 H 438.458 4.26655 1.15835 0
M  V30 4474 N 437.518 0.538854 1.48102 0
M  V30 4475 C 438.746 0.0123136 2.06896 0
M  V30 4476 C 439.161 -1.27312 1.39417 0
M  V30 4477 O 438.518 -1.75949 0.484582 0
M  V30 4478 C 438.569 -0.206118 3.60912 0
M  V30 4479 O 438.29 1.0284 4.25859 0
M  V30 4480 C 439.791 -0.772033 4.36526 0
M  V30 4481 H 437.011 0.0375239 0.66995 0
M  V30 4482 H 439.555 0.747032 1.90367 0
M  V30 4483 H 437.71 -0.89091 3.77017 0
M  V30 4484 H 438.124 0.814654 5.18135 0
M  V30 4485 H 439.598 -0.874251 5.45033 0
M  V30 4486 H 440.075 -1.77904 4.01555 0
M  V30 4487 H 440.681 -0.123526 4.25121 0
M  V30 4488 N 438.996 -1.55193 0.274407 0
M  V30 4489 C 440.273 -1.91584 -0.394331 0
M  V30 4490 C 440.653 -1.19858 -1.73774 0
M  V30 4491 O 440.001 -0.3252 -2.26174 0
M  V30 4492 C 440.211 -3.4487 -0.535311 0
M  V30 4493 C 441.559 -4.16636 -0.818534 0
M  V30 4494 O 442.583 -3.5076 -0.620146 0
M  V30 4495 O 441.442 -5.33209 -1.19792 0
M  V30 4496 H 438.536 -0.798349 -0.215794 0
M  V30 4497 H 441.082 -1.66646 0.320507 0
M  V30 4498 H 439.854 -3.89145 0.410141 0
M  V30 4499 H 439.477 -3.75759 -1.29964 0
M  V30 4500 N 440.474 -0.00167713 -1.576 0
M  V30 4501 C 441.407 1.02317 -2.03977 0
M  V30 4502 C 442.385 1.33381 -0.929963 0
M  V30 4503 O 443.569 1.45517 -1.19822 0
M  V30 4504 C 440.696 2.35035 -2.43878 0
M  V30 4505 C 439.742 2.19621 -3.65607 0
M  V30 4506 S 440.575 1.52068 -5.13455 0
M  V30 4507 C 441.731 2.86212 -5.56627 0
M  V30 4508 H 441.964 0.628285 -2.90585 0
M  V30 4509 H 439.497 0.209239 -1.52976 0
M  V30 4510 H 441.455 3.11345 -2.67534 0
M  V30 4511 H 440.116 2.71663 -1.57665 0
M  V30 4512 H 439.309 3.1767 -3.91282 0
M  V30 4513 H 438.911 1.51455 -3.41961 0
M  V30 4514 H 441.203 3.82509 -5.59189 0
M  V30 4515 H 442.146 2.65235 -6.56549 0
M  V30 4516 H 442.554 2.90199 -4.84195 0
M  V30 4517 N 441.952 1.55251 0.271103 0
M  V30 4518 C 442.885 1.83191 1.36075 0
M  V30 4519 C 443.863 0.685091 1.47463 0
M  V30 4520 O 445.047 0.928292 1.64058 0
M  V30 4521 C 442.174 1.99521 2.73696 0
M  V30 4522 C 441.22 3.22081 2.79582 0
M  V30 4523 S 442.053 4.79388 2.38636 0
M  V30 4524 C 443.209 4.98693 3.78228 0
M  V30 4525 H 443.442 2.75327 1.12171 0
M  V30 4526 H 440.975 1.47046 0.470833 0
M  V30 4527 H 442.933 2.09613 3.52948 0
M  V30 4528 H 441.594 1.0827 2.9485 0
M  V30 4529 H 440.787 3.304 3.80594 0
M  V30 4530 H 440.389 3.10589 2.08352 0
M  V30 4531 H 442.681 4.84551 4.73515 0
M  V30 4532 H 443.624 6.00738 3.7486 0
M  V30 4533 H 444.032 4.26665 3.69618 0
M  V30 4534 N 443.43 -0.535701 1.48216 0
M  V30 4535 C 444.362 -1.65662 1.58394 0
M  V30 4536 C 445.375 -1.5591 0.468607 0
M  V30 4537 O 446.564 -1.62475 0.7392 0
M  V30 4538 C 443.664 -3.04276 1.4923 0
M  V30 4539 C 442.837 -3.39567 2.75705 0
M  V30 4540 C 441.896 -4.57436 2.60075 0
M  V30 4541 O 440.922 -4.60942 3.33948 0
M  V30 4542 N 442.124 -5.55259 1.69315 0
M  V30 4543 H 444.889 -1.5737 2.55058 0
M  V30 4544 H 442.45 -0.722845 1.44867 0
M  V30 4545 H 444.442 -3.80994 1.36477 0
M  V30 4546 H 443.012 -3.06677 0.605632 0
M  V30 4547 H 442.232 -2.52083 3.03064 0
M  V30 4548 H 443.52 -3.59929 3.59623 0
M  V30 4549 H 442.918 -5.552 1.08489 0
M  V30 4550 H 441.475 -6.31218 1.62504 0
M  V30 4551 N 444.908 -1.36708 -0.784132 0
M  V30 4552 C 445.855 -1.31466 -1.89698 0
M  V30 4553 C 446.825 -0.18239 -1.65096 0
M  V30 4554 O 448.01 -0.369762 -1.87183 0
M  V30 4555 C 445.15 -1.1151 -3.26588 0
M  V30 4556 C 444.263 -2.33859 -3.63227 0
M  V30 4557 C 443.398 -2.06873 -4.89262 0
M  V30 4558 C 442.437 -3.25154 -5.18595 0
M  V30 4559 N 441.574 -2.978 -6.35814 0
M  V30 4560 H 446.414 -2.26619 -1.93515 0
M  V30 4561 H 443.951 -1.12625 -0.946256 0
M  V30 4562 H 445.909 -0.979653 -4.05535 0
M  V30 4563 H 444.539 -0.200103 -3.22179 0
M  V30 4564 H 443.591 -2.58188 -2.79362 0
M  V30 4565 H 444.903 -3.22109 -3.8085 0
M  V30 4566 H 444.057 -1.90289 -5.76086 0
M  V30 4567 H 442.796 -1.15942 -4.73718 0
M  V30 4568 H 441.801 -3.42292 -4.30251 0
M  V30 4569 H 443.026 -4.1692 -5.36055 0
M  V30 4570 H 440.972 -2.09485 -6.21653 0
M  V30 4571 H 440.889 -3.7959 -6.53794 0
M  V30 4572 H 442.157 -2.84805 -7.25607 0
M  V30 4573 N 446.386 1.0089 -1.21074 0
M  V30 4574 C 447.349 2.0775 -0.968129 0
M  V30 4575 C 448.349 1.6069 0.0593445 0
M  V30 4576 O 449.539 1.73293 -0.177525 0
M  V30 4577 C 446.671 3.37794 -0.459108 0
M  V30 4578 H 447.864 2.30707 -1.9161 0
M  V30 4579 H 445.417 1.17807 -1.02719 0
M  V30 4580 H 446.152 3.20516 0.49397 0
M  V30 4581 H 445.937 3.7328 -1.20019 0
M  V30 4582 H 447.427 4.16454 -0.309099 0
M  V30 4583 N 447.864 1.01787 1.20321 0
M  V30 4584 C 448.794 0.609625 2.25401 0
M  V30 4585 C 449.775 -0.375951 1.65893 0
M  V30 4586 O 450.96 -0.261101 1.92437 0
M  V30 4587 C 448.09 -0.0515995 3.47262 0
M  V30 4588 C 447.044 0.855095 4.19371 0
M  V30 4589 C 446.37 0.0595757 5.34667 0
M  V30 4590 C 447.67 2.16374 4.75373 0
M  V30 4591 H 449.364 1.48803 2.59804 0
M  V30 4592 H 446.91 0.716934 1.24884 0
M  V30 4593 H 448.863 -0.348764 4.19954 0
M  V30 4594 H 447.587 -0.964726 3.12027 0
M  V30 4595 H 446.246 1.13628 3.48546 0
M  V30 4596 H 445.894 -0.85524 4.95676 0
M  V30 4597 H 445.594 0.663406 5.83843 0
M  V30 4598 H 447.118 -0.231105 6.10162 0
M  V30 4599 H 448.532 1.92885 5.39878 0
M  V30 4600 H 446.929 2.71853 5.34991 0
M  V30 4601 H 447.999 2.82589 3.94045 0
M  V30 4602 N 449.342 -1.36122 0.79427 0
M  V30 4603 C 450.589 -1.99111 0.368905 0
M  V30 4604 C 450.917 -1.63032 -1.0607 0
M  V30 4605 O 450.172 -0.879303 -1.74833 0
M  V30 4606 C 450.471 -3.5409 0.48527 0
M  V30 4607 C 450.137 -4.10003 1.87638 0
M  V30 4608 C 448.799 -4.24986 2.257 0
M  V30 4609 C 451.151 -4.40423 2.78706 0
M  V30 4610 C 448.479 -4.67701 3.54221 0
M  V30 4611 C 450.831 -4.84573 4.0666 0
M  V30 4612 C 449.495 -4.97761 4.44737 0
M  V30 4613 H 448.765 -0.7286 0.134992 0
M  V30 4614 H 451.412 -1.62534 1.01267 0
M  V30 4615 H 449.717 -3.91052 -0.241984 0
M  V30 4616 H 451.414 -4.00766 0.137109 0
M  V30 4617 H 448.004 -3.98784 1.57064 0
M  V30 4618 H 452.188 -4.28412 2.50553 0
M  V30 4619 H 447.444 -4.761 3.83587 0
M  V30 4620 H 451.618 -5.07074 4.77336 0
M  V30 4621 H 449.245 -5.30618 5.44379 0
M  V30 4622 N 450.82 -0.546701 -1.47814 0
M  V30 4623 C 452.097 0.0464413 -1.95545 0
M  V30 4624 C 452.477 1.4962 -1.48919 0
M  V30 4625 O 451.825 2.16752 -0.723232 0
M  V30 4626 C 452.035 -0.0881298 -3.48889 0
M  V30 4627 C 453.383 0.0626059 -4.24554 0
M  V30 4628 O 454.407 -0.0151555 -3.56197 0
M  V30 4629 O 453.266 0.228071 -5.46024 0
M  V30 4630 H 450.36 0.0700004 -0.824032 0
M  V30 4631 H 452.906 -0.612482 -1.58262 0
M  V30 4632 H 451.678 -1.09737 -3.75597 0
M  V30 4633 H 451.301 0.608886 -3.9291 0
M  V30 4634 N 452.299 1.55045 -0.282633 0
M  V30 4635 C 453.546 1.9976 0.33199 0
M  V30 4636 C 453.874 1.17105 1.55295 0
M  V30 4637 O 453.129 0.230599 1.94337 0
M  V30 4638 C 453.428 3.49422 0.750938 0
M  V30 4639 C 453.094 4.4941 -0.366228 0
M  V30 4640 C 451.756 4.76471 -0.672964 0
M  V30 4641 C 454.108 5.09054 -1.11864 0
M  V30 4642 C 451.436 5.60442 -1.73556 0
M  V30 4643 C 453.788 5.9418 -2.17102 0
M  V30 4644 C 452.452 6.19558 -2.48402 0
M  V30 4645 H 451.722 0.730974 0.121484 0
M  V30 4646 H 454.369 1.8732 -0.39791 0
M  V30 4647 H 452.674 3.59377 1.56063 0
M  V30 4648 H 454.371 3.81432 1.23736 0
M  V30 4649 H 450.961 4.2844 -0.117041 0
M  V30 4650 H 455.145 4.88165 -0.894925 0
M  V30 4651 H 450.401 5.78349 -1.983 0
M  V30 4652 H 454.575 6.39427 -2.75873 0
M  V30 4653 H 452.202 6.84417 -3.30874 0
M  V30 4654 N 453.777 0.010035 1.57597 0
M  V30 4655 C 454.707 -0.976857 2.12084 0
M  V30 4656 C 455.688 -1.35191 1.03235 0
M  V30 4657 O 456.873 -1.43389 1.3097 0
M  V30 4658 C 454.003 -2.26548 2.63236 0
M  V30 4659 C 452.957 -2.03175 3.76701 0
M  V30 4660 C 452.283 -3.38138 4.14206 0
M  V30 4661 C 453.583 -1.38625 5.03568 0
M  V30 4662 H 455.277 -0.523145 2.94794 0
M  V30 4663 H 452.823 -0.250195 1.4181 0
M  V30 4664 H 454.776 -2.95952 2.99984 0
M  V30 4665 H 453.5 -2.74051 1.77661 0
M  V30 4666 H 452.159 -1.36195 3.40362 0
M  V30 4667 H 451.807 -3.83363 3.25641 0
M  V30 4668 H 451.507 -3.23312 4.90656 0
M  V30 4669 H 453.031 -4.08841 4.53521 0
M  V30 4670 H 454.445 -1.98 5.38023 0
M  V30 4671 H 452.842 -1.34256 5.84889 0
M  V30 4672 H 453.912 -0.356722 4.83586 0
M  V30 4673 N 455.255 -1.55392 -0.262866 0
M  V30 4674 C 456.202 -1.88966 -1.32516 0
M  V30 4675 C 457.172 -0.742187 -1.48596 0
M  V30 4676 O 458.357 -0.99439 -1.62839 0
M  V30 4677 C 455.497 -2.17592 -2.67858 0
M  V30 4678 C 454.61 -3.45061 -2.59917 0
M  V30 4679 C 453.745 -3.63336 -3.87505 0
M  V30 4680 C 452.784 -4.84462 -3.74116 0
M  V30 4681 N 451.921 -4.99342 -4.93561 0
M  V30 4682 H 456.761 -2.79566 -1.03184 0
M  V30 4683 H 454.298 -1.38404 -0.498285 0
M  V30 4684 H 456.256 -2.3219 -3.46617 0
M  V30 4685 H 454.886 -1.30215 -2.95371 0
M  V30 4686 H 453.938 -3.38881 -1.72812 0
M  V30 4687 H 455.25 -4.3396 -2.45926 0
M  V30 4688 H 454.404 -3.77807 -4.74707 0
M  V30 4689 H 453.143 -2.72641 -4.04374 0
M  V30 4690 H 452.148 -4.69985 -2.85297 0
M  V30 4691 H 453.373 -5.76603 -3.58757 0
M  V30 4692 H 451.319 -4.1158 -5.10821 0
M  V30 4693 H 451.236 -5.82303 -4.82141 0
M  V30 4694 H 452.504 -5.18208 -5.82306 0
M  V30 4695 N 456.733 0.527833 -1.48498 0
M  V30 4696 C 457.683 1.62844 -1.5958 0
M  V30 4697 C 458.667 1.54397 -0.452809 0
M  V30 4698 O 459.859 1.62381 -0.704364 0
M  V30 4699 C 456.988 3.01557 -1.64067 0
M  V30 4700 C 456.074 3.151 -2.83853 0
M  V30 4701 N 456.465 2.9861 -4.08247 0
M  V30 4702 C 454.763 3.46158 -2.8123 0
M  V30 4703 C 455.464 3.15626 -4.88626 0
M  V30 4704 N 454.44 3.43298 -4.21483 0
M  V30 4705 H 458.242 1.48708 -2.53502 0
M  V30 4706 H 455.756 0.733343 -1.44899 0
M  V30 4707 H 457.753 3.8062 -1.70101 0
M  V30 4708 H 456.413 3.16783 -0.712636 0
M  V30 4709 H 457.424 2.75329 -4.3865 0
M  V30 4710 H 454.101 3.67728 -1.97692 0
M  V30 4711 H 455.491 3.07596 -5.97356 0
M  V30 4712 N 458.211 1.37122 0.776871 0
M  V30 4713 C 459.627 1.1781 1.07671 0
M  V30 4714 C 459.827 0.0107454 2.01497 0
M  V30 4715 O 458.883 -0.650756 2.4397 0
M  V30 4716 C 460.196 2.49451 1.67913 0
M  V30 4717 C 461.744 2.55927 1.80195 0
M  V30 4718 C 462.219 3.87686 2.43851 0
M  V30 4719 N 463.71 3.891 2.51307 0
M  V30 4720 C 464.445 4.87797 3.014 0
M  V30 4721 N 463.941 5.96888 3.51705 0
M  V30 4722 N 465.734 4.75205 3.00227 0
M  V30 4723 H 457.885 2.11843 0.153778 0
M  V30 4724 H 460.148 0.938927 0.130844 0
M  V30 4725 H 459.854 3.35207 1.06439 0
M  V30 4726 H 459.728 2.66169 2.67271 0
M  V30 4727 H 462.115 1.70582 2.40803 0
M  V30 4728 H 462.196 2.43097 0.796069 0
M  V30 4729 H 461.84 4.73444 1.83884 0
M  V30 4730 H 461.77 3.97817 3.45035 0
M  V30 4731 H 464.261 3.10293 2.157 0
M  V30 4732 H 464.574 6.68155 3.88316 0
M  V30 4733 H 462.919 6.0054 3.49824 0
M  V30 4734 H 466.11 3.89103 2.60224 0
M  V30 4735 H 466.283 5.52279 3.38957 0
M  V30 4736 N 459.689 -1.00246 1.21608 0
M  V30 4737 C 460.936 -1.74061 1.03485 0
M  V30 4738 C 461.264 -1.89658 -0.431308 0
M  V30 4739 O 460.519 -1.42976 -1.33627 0
M  V30 4740 C 460.818 -3.15448 1.68009 0
M  V30 4741 C 460.484 -3.19792 3.17874 0
M  V30 4742 C 459.146 -3.20685 3.58768 0
M  V30 4743 C 461.498 -3.16835 4.13842 0
M  V30 4744 C 458.826 -3.16309 4.94131 0
M  V30 4745 C 461.178 -3.14001 5.49169 0
M  V30 4746 C 459.842 -3.13204 5.89457 0
M  V30 4747 H 459.112 -0.636934 0.378677 0
M  V30 4748 H 461.759 -1.17473 1.51236 0
M  V30 4749 H 460.064 -3.75284 1.12557 0
M  V30 4750 H 461.761 -3.71285 1.51487 0
M  V30 4751 H 458.351 -3.19842 2.85305 0
M  V30 4752 H 462.535 -3.15303 3.83272 0
M  V30 4753 H 457.791 -3.14032 5.24589 0
M  V30 4754 H 461.965 -3.10667 6.23265 0
M  V30 4755 H 459.592 -3.09568 6.94314 0
M  V30 4756 N 461.167 -1.02423 -1.1978 0
M  V30 4757 C 462.077 -0.610919 -2.26506 0
M  V30 4758 C 463.093 0.355152 -1.70337 0
M  V30 4759 O 464.269 0.214195 -2.00258 0
M  V30 4760 C 461.334 0.0365921 -3.46681 0
M  V30 4761 C 460.395 -0.976389 -4.18049 0
M  V30 4762 C 459.628 -0.359683 -5.32487 0
M  V30 4763 O 459.851 0.838601 -5.64202 0
M  V30 4764 O 458.785 -1.08022 -5.92127 0
M  V30 4765 H 462.611 -1.49965 -2.64091 0
M  V30 4766 H 460.196 -0.794156 -1.26545 0
M  V30 4767 H 462.078 0.39786 -4.19518 0
M  V30 4768 H 460.753 0.899398 -3.10954 0
M  V30 4769 H 459.66 -1.38916 -3.47352 0
M  V30 4770 H 460.993 -1.80941 -4.57735 0
M  V30 4771 N 462.645 1.35699 -0.801477 0
M  V30 4772 C 463.893 1.9852 -0.37871 0
M  V30 4773 C 464.214 1.63907 1.05638 0
M  V30 4774 O 463.484 0.919013 1.73006 0
M  V30 4775 H 462.064 0.734322 -0.137042 0
M  V30 4776 H 464.726 1.65697 -1.02619 0
M  V30 4777 H 463.822 3.08382 -0.480284 0
M  V30 4778 N 464.123 0.554532 1.47522 0
M  V30 4779 C 465.539 0.214107 1.58157 0
M  V30 4780 C 465.739 -1.28331 1.55349 0
M  V30 4781 O 464.795 -2.06329 1.45549 0
M  V30 4782 C 466.108 0.838391 2.88776 0
M  V30 4783 C 467.656 0.809374 3.02354 0
M  V30 4784 C 468.131 1.41268 4.35669 0
M  V30 4785 N 469.622 1.37574 4.42298 0
M  V30 4786 C 470.357 1.8122 5.4401 0
M  V30 4787 N 469.853 2.3271 6.52547 0
M  V30 4788 N 471.646 1.72307 5.35039 0
M  V30 4789 H 463.797 1.52744 1.4759 0
M  V30 4790 H 466.06 0.636812 0.702264 0
M  V30 4791 H 465.766 1.89065 2.96559 0
M  V30 4792 H 465.64 0.329847 3.75755 0
M  V30 4793 H 468.027 -0.234187 2.94169 0
M  V30 4794 H 468.108 1.35565 2.16924 0
M  V30 4795 H 467.752 2.45529 4.4461 0
M  V30 4796 H 467.682 0.841871 5.19827 0
M  V30 4797 H 470.173 0.999081 3.64454 0
M  V30 4798 H 470.486 2.63944 7.26329 0
M  V30 4799 H 468.831 2.36719 6.53444 0
M  V30 4800 H 472.022 1.3186 4.49144 0
M  V30 4801 H 472.195 2.06641 6.14169 0
M  V30 4802 N 465.601 -1.54893 0.290851 0
M  V30 4803 C 466.85 -1.99111 -0.322113 0
M  V30 4804 C 467.163 -1.18283 -1.55784 0
M  V30 4805 O 468.369 -1.5272 -2.24475 0
M  V30 4806 C 466.825 -3.54442 -0.624438 0
M  V30 4807 C 466.433 -4.44066 0.592373 0
M  V30 4808 C 468.177 -4.07211 -1.19916 0
M  V30 4809 C 466.084 -5.90812 0.263762 0
M  V30 4810 H 465.014 -0.743712 -0.124133 0
M  V30 4811 H 467.665 -1.79132 0.39797 0
M  V30 4812 H 466.047 -3.70281 -1.40384 0
M  V30 4813 H 467.221 -4.39999 1.36886 0
M  V30 4814 H 465.536 -4.02015 1.08502 0
M  V30 4815 H 468.133 -5.14407 -1.45909 0
M  V30 4816 H 468.476 -3.57196 -2.13815 0
M  V30 4817 H 469.009 -3.94873 -0.481687 0
M  V30 4818 H 465.748 -6.44955 1.17105 0
M  V30 4819 H 465.268 -5.97911 -0.475655 0
M  V30 4820 H 466.947 -6.46852 -0.138354 0
M  V30 4821 N 467.08 -0.0183926 -1.57589 0
M  V30 4822 C 468.305 0.676634 -1.96052 0
M  V30 4823 C 468.73 1.6548 -0.894307 0
M  V30 4824 O 468.088 1.80712 0.145849 0
M  V30 4825 C 468.136 1.36872 -3.33614 0
M  V30 4826 O 467.24 2.48372 -3.29219 0
M  V30 4827 H 466.581 0.1786 -0.63953 0
M  V30 4828 H 469.111 -0.077056 -2.04455 0
M  V30 4829 H 469.121 1.72797 -3.69601 0
M  V30 4830 H 467.796 0.651636 -4.10763 0
M  V30 4831 H 466.373 2.14639 -3.04934 0
M  V30 4832 N 468.558 1.5553 0.254621 0
M  V30 4833 C 469.807 1.76202 0.981612 0
M  V30 4834 C 470.12 0.580883 1.86776 0
M  V30 4835 O 471.326 0.670448 2.63092 0
M  V30 4836 C 469.782 3.11921 1.79537 0
M  V30 4837 C 469.39 4.37659 0.956991 0
M  V30 4838 C 471.134 3.41936 2.51555 0
M  V30 4839 C 469.041 5.64411 1.76619 0
M  V30 4840 H 467.971 0.656841 0.370237 0
M  V30 4841 H 470.622 1.81969 0.236556 0
M  V30 4842 H 469.004 3.00241 2.58208 0
M  V30 4843 H 470.178 4.60307 0.21315 0
M  V30 4844 H 468.493 4.14922 0.350497 0
M  V30 4845 H 471.09 4.33849 3.12536 0
M  V30 4846 H 471.433 2.62905 3.22779 0
M  V30 4847 H 471.966 3.54797 1.799 0
M  V30 4848 H 468.705 6.46241 1.09783 0
M  V30 4849 H 468.225 5.45877 2.48551 0
M  V30 4850 H 469.904 6.03386 2.33527 0
M  V30 4851 N 470.036 -0.519951 1.48776 0
M  V30 4852 C 471.264 -1.29971 1.60982 0
M  V30 4853 C 471.679 -1.86803 0.273885 0
M  V30 4854 O 471.036 -1.66904 -0.738193 0
M  V30 4855 C 471.087 -2.44346 2.66415 0
M  V30 4856 O 470.808 -1.89855 3.94825 0
M  V30 4857 C 472.309 -3.36014 2.89153 0
M  V30 4858 H 469.529 -0.394891 0.542496 0
M  V30 4859 H 472.073 -0.626214 1.94676 0
M  V30 4860 H 470.228 -3.07562 2.35552 0
M  V30 4861 H 470.642 -2.64798 4.5275 0
M  V30 4862 H 472.116 -4.12593 3.66703 0
M  V30 4863 H 472.593 -3.91859 1.98351 0
M  V30 4864 H 473.199 -2.78582 3.21359 0
M  V30 4865 N 471.514 -1.37532 -0.769588 0
M  V30 4866 C 472.93 -1.18379 -1.07045 0
M  V30 4867 C 473.13 -0.0214312 -2.01489 0
M  V30 4868 O 472.186 0.637809 -2.44312 0
M  V30 4869 C 473.499 -2.50338 -1.66588 0
M  V30 4870 C 475.047 -2.56879 -1.78835 0
M  V30 4871 C 475.522 -3.88974 -2.41792 0
M  V30 4872 N 477.013 -3.90428 -2.4924 0
M  V30 4873 C 477.748 -4.89388 -2.98809 0
M  V30 4874 N 477.244 -5.98745 -3.48535 0
M  V30 4875 N 479.037 -4.76791 -2.97703 0
M  V30 4876 H 471.188 -2.11921 -0.142541 0
M  V30 4877 H 473.451 -0.939608 -0.125863 0
M  V30 4878 H 473.157 -3.35767 -1.0466 0
M  V30 4879 H 473.031 -2.67583 -2.65856 0
M  V30 4880 H 475.418 -1.71856 -2.39895 0
M  V30 4881 H 475.499 -2.43516 -0.783166 0
M  V30 4882 H 475.143 -4.74412 -1.81371 0
M  V30 4883 H 475.073 -3.99641 -3.4292 0
M  V30 4884 H 477.564 -3.11433 -2.14052 0
M  V30 4885 H 477.877 -6.70205 -3.84767 0
M  V30 4886 H 476.222 -6.02387 -3.46634 0
M  V30 4887 H 479.413 -3.90478 -2.58157 0
M  V30 4888 H 479.586 -5.54069 -3.36024 0
M  V30 4889 N 472.992 0.995999 -1.22138 0
M  V30 4890 C 474.238 1.73767 -1.04561 0
M  V30 4891 C 474.571 1.89633 0.418698 0
M  V30 4892 O 473.846 1.43723 1.3105 0
M  V30 4893 C 474.129 3.14505 -1.75382 0
M  V30 4894 C 473.982 3.06306 -3.29388 0
M  V30 4895 C 475.301 4.13615 -1.50369 0
M  V30 4896 H 472.42 0.630728 -0.38125 0
M  V30 4897 H 475.062 1.16057 -1.50435 0
M  V30 4898 H 473.212 3.63775 -1.36383 0
M  V30 4899 H 474.884 2.64681 -3.77812 0
M  V30 4900 H 473.127 2.43186 -3.59226 0
M  V30 4901 H 473.798 4.05884 -3.74116 0
M  V30 4902 H 476.274 3.73089 -1.84239 0
M  V30 4903 H 475.15 5.10212 -2.02421 0
M  V30 4904 H 475.411 4.39949 -0.435611 0
M  V30 4905 N 474.47 1.03057 1.19235 0
M  V30 4906 C 475.698 0.747697 1.92917 0
M  V30 4907 C 476.113 -0.69372 1.75593 0
M  V30 4908 O 475.47 -1.47191 1.07894 0
M  V30 4909 C 475.521 1.09159 3.44625 0
M  V30 4910 O 475.242 2.47641 3.61394 0
M  V30 4911 C 476.743 0.831763 4.35427 0
M  V30 4912 H 473.963 0.273453 0.612751 0
M  V30 4913 H 476.507 1.37552 1.51327 0
M  V30 4914 H 474.662 0.508919 3.84043 0
M  V30 4915 H 475.076 2.60499 4.55237 0
M  V30 4916 H 476.55 1.12233 5.4047 0
M  V30 4917 H 477.027 -0.233769 4.38577 0
M  V30 4918 H 477.633 1.39725 4.01693 0
M  V30 4919 N 475.948 -1.35272 0.808662 0
M  V30 4920 C 476.911 -2.28082 0.226093 0
M  V30 4921 C 477.911 -1.49673 -0.587762 0
M  V30 4922 O 479.101 -1.69404 -0.405943 0
M  V30 4923 C 476.233 -3.33955 -0.684596 0
M  V30 4924 H 477.426 -2.81116 1.04469 0
M  V30 4925 H 474.979 -1.45162 0.579466 0
M  V30 4926 H 475.714 -2.86111 -1.5268 0
M  V30 4927 H 475.499 -3.91965 -0.102699 0
M  V30 4928 H 476.989 -4.03219 -1.08646 0
M  V30 4929 N 477.426 -0.562348 -1.47226 0
M  V30 4930 C 478.703 0.0256985 -1.95583 0
M  V30 4931 C 479.083 1.48032 -1.50498 0
M  V30 4932 O 478.431 2.15973 -0.746181 0
M  V30 4933 C 478.641 -0.125129 -3.48776 0
M  V30 4934 C 479.989 0.0175728 -4.24596 0
M  V30 4935 O 481.013 -0.0529341 -3.56161 0
M  V30 4936 O 479.872 0.170145 -5.46235 0
M  V30 4937 H 476.966 0.0612565 -0.824728 0
M  V30 4938 H 479.512 -0.629233 -1.57603 0
M  V30 4939 H 478.284 -1.13715 -3.74412 0
M  V30 4940 H 477.907 0.567178 -3.93534 0
M  V30 4941 N 478.904 1.54736 -0.299062 0
M  V30 4942 C 480.153 1.99279 0.311549 0
M  V30 4943 C 480.466 1.19107 1.55154 0
M  V30 4944 O 481.672 1.53908 2.23662 0
M  V30 4945 C 480.128 3.54768 0.605632 0
M  V30 4946 C 479.736 4.43746 -0.615914 0
M  V30 4947 C 481.48 4.07841 1.17754 0
M  V30 4948 C 479.387 5.90663 -0.29509 0
M  V30 4949 H 478.317 0.744359 0.120187 0
M  V30 4950 H 480.968 1.78919 -0.407464 0
M  V30 4951 H 479.35 3.71021 1.38419 0
M  V30 4952 H 480.524 4.39267 -1.39218 0
M  V30 4953 H 478.839 4.01434 -1.10633 0
M  V30 4954 H 481.436 5.15174 1.43179 0
M  V30 4955 H 481.779 3.58324 2.11918 0
M  V30 4956 H 482.312 3.95123 0.460739 0
M  V30 4957 H 479.051 6.44325 -1.20524 0
M  V30 4958 H 478.571 5.98155 0.44394 0
M  V30 4959 H 480.25 6.46916 0.104048 0
M  V30 4960 N 480.382 0.0267497 1.57577 0
M  V30 4961 C 481.607 -0.666227 1.96408 0
M  V30 4962 C 482.032 -1.65004 0.903071 0
M  V30 4963 O 481.39 -1.80787 -0.136263 0
M  V30 4964 C 481.438 -1.35101 3.34335 0
M  V30 4965 O 480.542 -2.46623 3.30531 0
M  V30 4966 H 479.883 -0.175206 0.640468 0
M  V30 4967 H 482.413 0.0878977 2.04411 0
M  V30 4968 H 482.423 -1.70834 3.70513 0
M  V30 4969 H 481.098 -0.629844 4.11103 0
M  V30 4970 H 479.675 -2.13019 3.06068 0
M  V30 4971 N 481.861 -1.55662 -0.24637 0
M  V30 4972 C 482.791 -1.93377 -1.30873 0
M  V30 4973 C 483.772 -0.798773 -1.50179 0
M  V30 4974 O 484.957 -1.0591 -1.62778 0
M  V30 4975 C 482.087 -2.22893 -2.66338 0
M  V30 4976 C 481.041 -3.38649 -2.61727 0
M  V30 4977 C 480.367 -3.53708 -4.00992 0
M  V30 4978 C 481.667 -4.74323 -2.18666 0
M  V30 4979 H 483.361 -2.82363 -0.995552 0
M  V30 4980 H 480.907 -1.35854 -0.477464 0
M  V30 4981 H 482.86 -2.47866 -3.40794 0
M  V30 4982 H 481.584 -1.30733 -2.99293 0
M  V30 4983 H 480.243 -3.13685 -1.89729 0
M  V30 4984 H 479.891 -2.58967 -4.31214 0
M  V30 4985 H 479.591 -4.31551 -3.98795 0
M  V30 4986 H 481.115 -3.81003 -4.77147 0
M  V30 4987 H 482.529 -4.98665 -2.82854 0
M  V30 4988 H 480.926 -5.55273 -2.27579 0
M  V30 4989 H 481.996 -4.71349 -1.13834 0
M  V30 4990 N 483.339 0.512053 -1.4905 0
M  V30 4991 C 484.302 1.59704 -1.64399 0
M  V30 4992 C 485.302 1.52285 -0.516317 0
M  V30 4993 O 486.492 1.55635 -0.782527 0
M  V30 4994 C 483.624 2.9935 -1.63102 0
M  V30 4995 H 484.817 1.47428 -2.61161 0
M  V30 4996 H 482.37 0.735469 -1.37915 0
M  V30 4997 H 483.105 3.17116 -0.678836 0
M  V30 4998 H 482.89 3.06144 -2.44986 0
M  V30 4999 H 484.38 3.782 -1.77072 0
M  V30 5000 N 484.817 1.37938 0.762283 0
M  V30 5001 C 485.764 1.34467 1.87583 0
M  V30 5002 C 486.734 0.208633 1.64785 0
M  V30 5003 O 487.919 0.399494 1.86571 0
M  V30 5004 C 485.059 1.16692 3.24772 0
M  V30 5005 C 484.172 2.39608 3.59461 0
M  V30 5006 C 483.307 2.14631 4.85908 0
M  V30 5007 C 482.346 3.33364 5.13357 0
M  V30 5008 N 481.483 3.07877 6.30996 0
M  V30 5009 H 486.323 2.29669 1.89885 0
M  V30 5010 H 483.86 1.14116 0.928219 0
M  V30 5011 H 485.818 1.04405 4.03925 0
M  V30 5012 H 484.448 0.251333 3.2182 0
M  V30 5013 H 483.5 2.626 2.75219 0
M  V30 5014 H 484.812 3.28128 3.75678 0
M  V30 5015 H 483.966 1.99429 5.72986 0
M  V30 5016 H 482.705 1.23463 4.71814 0
M  V30 5017 H 481.71 3.49094 4.24751 0
M  V30 5018 H 482.935 4.25395 5.29354 0
M  V30 5019 H 480.881 2.19348 6.18241 0
M  V30 5020 H 480.798 3.89944 6.47673 0
M  V30 5021 H 482.066 2.96313 7.20985 0
M  V30 5022 N 486.295 -0.989507 1.22664 0
M  V30 5023 C 487.711 -1.25395 0.987331 0
M  V30 5024 C 487.911 -1.9899 -0.317056 0
M  V30 5025 O 486.967 -2.30141 -1.03882 0
M  V30 5026 C 488.28 -2.06242 2.18826 0
M  V30 5027 C 489.828 -2.19413 2.23219 0
M  V30 5028 C 490.303 -3.03648 3.42873 0
M  V30 5029 N 491.794 -3.11234 3.43056 0
M  V30 5030 C 492.529 -3.7671 4.32293 0
M  V30 5031 N 492.025 -4.44085 5.31752 0
M  V30 5032 N 493.818 -3.73505 4.2006 0
M  V30 5033 H 485.969 -0.496212 2.06522 0
M  V30 5034 H 488.232 -0.281784 0.905153 0
M  V30 5035 H 487.938 -1.59531 3.13437 0
M  V30 5036 H 487.812 -3.06996 2.19165 0
M  V30 5037 H 490.199 -2.65336 1.29154 0
M  V30 5038 H 490.28 -1.18078 2.26917 0
M  V30 5039 H 489.924 -2.58424 4.37241 0
M  V30 5040 H 489.854 -4.05132 3.36416 0
M  V30 5041 H 492.345 -2.63287 2.71088 0
M  V30 5042 H 492.658 -4.91797 5.96117 0
M  V30 5043 H 491.003 -4.42822 5.35662 0
M  V30 5044 H 494.194 -3.20033 3.41609 0
M  V30 5045 H 494.367 -4.24253 4.8981 0
M  V30 5046 N 487.773 -1.03688 -1.18687 0
M  V30 5047 C 488.998 -0.757819 -1.93059 0
M  V30 5048 C 489.423 0.678353 -1.75442 0
M  V30 5049 O 488.781 1.46938 -1.06203 0
M  V30 5050 C 488.829 -1.12423 -3.42627 0
M  V30 5051 O 487.933 -0.247505 -4.11657 0
M  V30 5052 H 487.274 -0.279245 -0.602427 0
M  V30 5053 H 489.804 -1.3857 -1.5053 0
M  V30 5054 H 489.814 -1.08454 -3.93322 0
M  V30 5055 H 488.489 -2.17049 -3.54771 0
M  V30 5056 H 487.066 -0.34649 -3.71287 0
M  V30 5057 N 489.251 1.34841 -0.815825 0
M  V30 5058 C 490.497 1.98793 -0.401129 0
M  V30 5059 C 490.83 1.64548 1.03139 0
M  V30 5060 O 490.105 0.913487 1.71714 0
M  V30 5061 C 490.388 3.55143 -0.595409 0
M  V30 5062 C 490.241 3.99155 -2.07352 0
M  V30 5063 C 491.56 4.40092 -0.0268823 0
M  V30 5064 H 488.679 0.722146 -0.14722 0
M  V30 5065 H 491.321 1.59847 -1.02707 0
M  V30 5066 H 489.471 3.8845 -0.0625779 0
M  V30 5067 H 491.143 3.76216 -2.66945 0
M  V30 5068 H 489.386 3.49726 -2.56659 0
M  V30 5069 H 490.057 5.07971 -2.1603 0
M  V30 5070 H 492.533 4.13298 -0.482042 0
M  V30 5071 H 491.409 5.48562 -0.19267 0
M  V30 5072 H 491.67 4.29016 1.06759 0
M  V30 5073 N 490.729 0.570148 1.46925 0
M  V30 5074 C 491.659 -0.158274 2.32963 0
M  V30 5075 C 492.64 -0.896093 1.44583 0
M  V30 5076 O 493.825 -0.874022 1.7342 0
M  V30 5077 C 490.955 -1.18055 3.26619 0
M  V30 5078 C 489.909 -0.558379 4.24342 0
M  V30 5079 C 489.235 -1.68623 5.07415 0
M  V30 5080 C 490.535 0.496295 5.19937 0
M  V30 5081 H 492.229 0.560046 2.94115 0
M  V30 5082 H 489.775 0.270775 1.41431 0
M  V30 5083 H 491.728 -1.69841 3.85658 0
M  V30 5084 H 490.452 -1.92899 2.63548 0
M  V30 5085 H 489.111 -0.0617157 3.66548 0
M  V30 5086 H 488.759 -2.42402 4.40738 0
M  V30 5087 H 488.459 -1.27564 5.73586 0
M  V30 5088 H 489.983 -2.20709 5.69315 0
M  V30 5089 H 491.397 0.0640052 5.73264 0
M  V30 5090 H 489.794 0.82649 5.94381 0
M  V30 5091 H 490.864 1.38735 4.6463 0
M  V30 5092 N 492.207 -1.54576 0.307264 0
M  V30 5093 C 493.155 -2.25208 -0.581723 0
M  V30 5094 C 494.149 -1.26031 -1.13192 0
M  V30 5095 O 495.355 -1.43862 -1.08184 0
M  V30 5096 H 491.73 -0.723173 -0.206214 0
M  V30 5097 H 493.701 -2.98378 0.0364663 0
M  V30 5098 C 492.45 -3.01086 -1.73904 0
M  V30 5099 H 491.773 -3.77208 -1.32491 0
M  V30 5100 H 493.213 -3.5378 -2.33701 0
M  V30 5101 C 491.672 -2.08422 -2.64692 0
M  V30 5102 O 492.202 -1.65636 -3.65961 0
M  V30 5103 N 490.408 -1.74247 -2.32564 0
M  V30 5104 H 489.955 -2.09238 -1.50257 0
M  V30 5105 H 489.913 -1.12524 -2.93574 0
M  V30 5106 N 493.685 -0.035106 -1.57561 0
M  V30 5107 C 494.633 0.962707 -2.11742 0
M  V30 5108 C 495.627 1.33296 -1.0454 0
M  V30 5109 O 496.833 1.31449 -1.22968 0
M  V30 5110 H 493.208 0.32826 -0.676572 0
M  V30 5111 H 495.179 0.48048 -2.94506 0
M  V30 5112 C 493.928 2.23388 -2.66445 0
M  V30 5113 H 493.251 1.95774 -3.48587 0
M  V30 5114 H 494.691 2.91402 -3.07995 0
M  V30 5115 C 493.15 2.96769 -1.59467 0
M  V30 5116 O 493.68 3.89105 -0.998 0
M  V30 5117 N 491.886 2.59212 -1.31369 0
M  V30 5118 H 491.433 1.84202 -1.80076 0
M  V30 5119 H 491.391 3.08618 -0.600173 0
M  V30 5120 N 495.163 1.55791 0.238111 0
M  V30 5121 C 496.574 1.68383 0.806472 0
M  V30 5122 C 496.925 0.634157 1.85669 0
M  V30 5123 O 496.05 -0.217913 2.153 0
M  V30 5124 C 496.645 3.05268 1.46959 0
M  V30 5125 C 495.204 3.1977 1.98555 0
M  V30 5126 C 494.351 2.64279 0.839763 0
M  V30 5127 H 497.302 1.58694 0.0137535 0
M  V30 5128 H 497.323 3.00203 2.33792 0
M  V30 5129 H 496.835 3.81643 0.704993 0
M  V30 5130 H 494.936 2.48234 2.77868 0
M  V30 5131 H 495.049 4.26788 2.17689 0
M  V30 5132 H 493.413 2.22329 1.24265 0
M  V30 5133 H 494.196 3.43187 0.0881032 0
M  V30 5134 N 496.642 -0.504142 1.49319 0
M  V30 5135 C 497.867 -1.28729 1.62615 0
M  V30 5136 C 498.292 -1.85752 0.296309 0
M  V30 5137 O 497.65 -1.65704 -0.735649 0
M  V30 5138 C 497.698 -2.39561 2.69524 0
M  V30 5139 O 496.802 -3.43324 2.28478 0
M  V30 5140 H 496.143 -0.380172 0.544395 0
M  V30 5141 H 498.673 -0.603872 1.95485 0
M  V30 5142 H 498.683 -2.8537 2.91595 0
M  V30 5143 H 497.358 -1.97423 3.66056 0
M  V30 5144 H 495.935 -3.03455 2.16725 0
M  V30 5145 N 498.12 -1.38341 -0.754957 0
M  V30 5146 C 499.067 -1.3546 -1.86867 0
M  V30 5147 C 500.037 -0.217369 -1.64672 0
M  V30 5148 O 501.222 -0.409383 -1.86356 0
M  V30 5149 C 498.362 -1.18413 -3.24149 0
M  V30 5150 C 497.475 -2.41511 -3.58185 0
M  V30 5151 C 496.61 -2.17205 -4.84763 0
M  V30 5152 C 495.649 -3.36081 -5.11582 0
M  V30 5153 N 494.786 -3.11219 -6.29354 0
M  V30 5154 H 499.626 -2.30672 -1.88664 0
M  V30 5155 H 497.163 -1.14607 -0.922154 0
M  V30 5156 H 499.121 -1.06545 -4.03366 0
M  V30 5157 H 497.751 -0.268397 -3.21682 0
M  V30 5158 H 496.803 -2.64056 -2.73822 0
M  V30 5159 H 498.115 -3.30115 -3.73932 0
M  V30 5160 H 497.269 -2.02465 -5.7192 0
M  V30 5161 H 496.008 -1.25964 -4.71152 0
M  V30 5162 H 495.013 -3.51341 -4.22894 0
M  V30 5163 H 496.238 -4.28196 -5.27091 0
M  V30 5164 H 494.184 -2.22624 -6.17069 0
M  V30 5165 H 494.101 -3.93373 -6.45596 0
M  V30 5166 H 495.369 -3.00132 -7.19403 0
M  V30 5167 N 499.598 0.982988 -1.23187 0
M  V30 5168 C 500.548 2.05962 -0.977942 0
M  V30 5169 C 501.532 1.60725 0.0751148 0
M  V30 5170 O 502.724 1.76471 -0.136683 0
M  V30 5171 C 499.853 3.38564 -0.568276 0
M  V30 5172 C 498.939 3.90407 -1.6566 0
M  V30 5173 N 499.33 4.15359 -2.88635 0
M  V30 5174 C 497.628 4.18915 -1.53058 0
M  V30 5175 C 498.329 4.57642 -3.5908 0
M  V30 5176 N 497.305 4.6192 -2.86584 0
M  V30 5177 H 501.107 2.23208 -1.91195 0
M  V30 5178 H 498.621 1.16555 -1.13087 0
M  V30 5179 H 500.618 4.15276 -0.36764 0
M  V30 5180 H 499.278 3.22712 0.358713 0
M  V30 5181 H 500.289 4.03258 -3.24966 0
M  V30 5182 H 496.966 4.12081 -0.670506 0
M  V30 5183 H 498.356 4.85488 -4.6449 0
M  V30 5184 N 501.076 1.04316 1.18135 0
M  V30 5185 C 502.039 0.640794 2.2006 0
M  V30 5186 C 503.039 -0.303124 1.57917 0
M  V30 5187 O 504.229 -0.0881855 1.73977 0
M  V30 5188 C 501.361 -0.060148 3.40847 0
M  V30 5189 H 502.554 1.54281 2.57172 0
M  V30 5190 H 500.107 0.836004 1.32063 0
M  V30 5191 H 500.842 -0.975845 3.0927 0
M  V30 5192 H 500.627 0.618319 3.87194 0
M  V30 5193 H 502.117 -0.328082 4.16309 0
M  V30 5194 N 502.554 -1.34406 0.822964 0
M  V30 5195 C 503.803 -1.97542 0.407458 0
M  V30 5196 C 504.116 -1.65973 -1.035 0
M  V30 5197 O 505.322 -2.22598 -1.55442 0
M  V30 5198 C 503.778 -3.53463 0.677623 0
M  V30 5199 C 503.386 -3.93925 2.1337 0
M  V30 5200 C 505.13 -4.23229 0.328284 0
M  V30 5201 C 503.037 -5.42759 2.34876 0
M  V30 5202 H 501.967 -0.739207 0.148623 0
M  V30 5203 H 504.618 -1.53248 1.00932 0
M  V30 5204 H 503 -3.96 0.00558965 0
M  V30 5205 H 504.174 -3.62494 2.8449 0
M  V30 5206 H 502.489 -3.37097 2.44448 0
M  V30 5207 H 505.086 -5.32659 0.466794 0
M  V30 5208 H 505.429 -4.09899 -0.727224 0
M  V30 5209 H 505.962 -3.86169 0.954896 0
M  V30 5210 H 502.701 -5.61075 3.38932 0
M  V30 5211 H 502.221 -5.75704 1.68299 0
M  V30 5212 H 503.9 -6.0944 2.17236 0
M  V30 5213 N 504.032 -0.577932 -1.46621 0
M  V30 5214 C 505.281 -0.0594281 -2.01612 0
M  V30 5215 C 505.594 1.30663 -1.45556 0
M  V30 5216 O 506.8 1.91621 -1.92337 0
M  V30 5217 C 505.256 -0.0556666 -3.59857 0
M  V30 5218 C 504.864 -1.41975 -4.24908 0
M  V30 5219 C 506.608 0.409143 -4.22524 0
M  V30 5220 C 504.515 -1.37397 -5.75218 0
M  V30 5221 H 503.445 -0.0184469 -0.753774 0
M  V30 5222 H 506.096 -0.728869 -1.68404 0
M  V30 5223 H 504.478 0.679843 -3.90121 0
M  V30 5224 H 505.652 -2.17461 -4.0626 0
M  V30 5225 H 503.967 -1.82419 -3.74316 0
M  V30 5226 H 506.564 0.46211 -5.32699 0
M  V30 5227 H 506.907 1.42565 -3.91128 0
M  V30 5228 H 507.44 -0.272152 -3.96868 0
M  V30 5229 H 504.179 -2.36714 -6.11267 0
M  V30 5230 H 503.699 -0.661239 -5.96144 0
M  V30 5231 H 505.378 -1.08484 -6.3784 0
M  V30 5232 N 505.51 1.54411 -0.315457 0
M  V30 5233 C 506.42 2.27737 0.56329 0
M  V30 5234 C 507.436 1.31787 1.13614 0
M  V30 5235 O 508.612 1.64791 1.15784 0
M  V30 5236 C 505.677 3.01478 1.71207 0
M  V30 5237 C 504.738 4.12997 1.17185 0
M  V30 5238 C 503.971 4.83212 2.26588 0
M  V30 5239 O 504.194 4.52884 3.46775 0
M  V30 5240 O 503.128 5.70299 1.92463 0
M  V30 5241 H 506.954 3.03683 -0.0319614 0
M  V30 5242 H 504.539 1.49178 -0.0814188 0
M  V30 5243 H 506.421 3.47683 2.38106 0
M  V30 5244 H 505.096 2.28414 2.29366 0
M  V30 5245 H 504.003 3.71159 0.468174 0
M  V30 5246 H 505.336 4.8808 0.635501 0
M  V30 5247 N 506.988 0.0434614 1.5754 0
M  V30 5248 C 508.404 -0.313039 1.565 0
M  V30 5249 C 508.604 -1.71954 1.05043 0
M  V30 5250 O 507.66 -2.425 0.703564 0
M  V30 5251 C 508.973 -0.148544 3.00333 0
M  V30 5252 C 510.521 -0.220231 3.12224 0
M  V30 5253 C 510.996 -0.0843565 4.57922 0
M  V30 5254 N 512.487 -0.140881 4.62986 0
M  V30 5255 C 513.222 -0.0597443 5.73369 0
M  V30 5256 N 512.718 0.0733004 6.92761 0
M  V30 5257 N 514.511 -0.11477 5.61983 0
M  V30 5258 H 506.662 0.96303 1.89313 0
M  V30 5259 H 508.925 0.373164 0.871466 0
M  V30 5260 H 508.631 0.820894 3.41986 0
M  V30 5261 H 508.505 -0.912798 3.65989 0
M  V30 5262 H 510.892 -1.18014 2.70475 0
M  V30 5263 H 510.973 0.574646 2.49262 0
M  V30 5264 H 510.617 0.872192 5.00355 0
M  V30 5265 H 510.547 -0.898281 5.18882 0
M  V30 5266 H 513.038 -0.243273 3.77116 0
M  V30 5267 H 513.351 0.128128 7.72694 0
M  V30 5268 H 511.696 0.10828 6.94916 0
M  V30 5269 H 514.887 -0.217212 4.67596 0
M  V30 5270 H 515.06 -0.0480779 6.47982 0
M  V30 5271 N 508.466 -1.55915 -0.229846 0
M  V30 5272 C 509.691 -1.8296 -0.976743 0
M  V30 5273 C 510.116 -0.622735 -1.77493 0
M  V30 5274 O 509.474 0.428431 -1.76165 0
M  V30 5275 C 509.522 -3.07916 -1.8767 0
M  V30 5276 O 508.626 -2.86028 -2.97088 0
M  V30 5277 H 507.967 -0.603453 -0.277021 0
M  V30 5278 H 510.497 -2.0312 -0.245669 0
M  V30 5279 H 510.507 -3.37802 -2.2881 0
M  V30 5280 H 509.182 -3.95389 -1.28996 0
M  V30 5281 H 507.759 -2.67355 -2.59954 0
M  V30 5282 N 509.944 0.496216 -1.49584 0
M  V30 5283 C 510.892 1.61805 -1.67098 0
M  V30 5284 C 511.886 1.60667 -0.536877 0
M  V30 5285 O 513.092 1.65118 -0.716654 0
M  V30 5286 H 509.467 0.53646 -0.526986 0
M  V30 5287 H 511.438 1.44187 -2.61252 0
M  V30 5288 C 510.187 2.99912 -1.75921 0
M  V30 5289 H 509.51 3.01496 -2.62565 0
M  V30 5290 H 510.95 3.77931 -1.92209 0
M  V30 5291 C 509.409 3.33092 -0.505088 0
M  V30 5292 O 509.939 4.00019 0.367085 0
M  V30 5293 N 508.145 2.88278 -0.366599 0
M  V30 5294 H 507.692 2.33989 -1.07735 0
M  V30 5295 H 507.65 3.10846 0.47142 0
M  V30 5296 N 511.423 1.38739 0.74761 0
M  V30 5297 C 512.651 1.38521 1.53686 0
M  V30 5298 C 513.066 -0.0235129 1.88785 0
M  V30 5299 O 512.423 -0.991662 1.53207 0
M  V30 5300 C 512.474 2.24641 2.83229 0
M  V30 5301 O 512.195 3.60026 2.49625 0
M  V30 5302 C 513.696 2.32669 3.77333 0
M  V30 5303 H 510.916 0.473589 0.475347 0
M  V30 5304 H 513.46 1.82395 0.924786 0
M  V30 5305 H 511.615 1.84213 3.40799 0
M  V30 5306 H 512.029 4.05435 3.3275 0
M  V30 5307 H 513.503 2.97201 4.65162 0
M  V30 5308 H 513.98 1.3421 4.18192 0
M  V30 5309 H 514.586 2.73512 3.25685 0
M  V30 5310 N 512.901 -0.976442 1.23707 0
M  V30 5311 C 514.317 -1.24341 1.00058 0
M  V30 5312 C 514.517 -1.99315 -0.295932 0
M  V30 5313 O 513.573 -2.3123 -1.01435 0
M  V30 5314 C 514.886 -2.03909 2.21001 0
M  V30 5315 C 516.434 -2.17034 2.25534 0
M  V30 5316 C 516.909 -2.99994 3.46075 0
M  V30 5317 N 518.4 -3.07578 3.46338 0
M  V30 5318 C 519.135 -3.72104 4.36264 0
M  V30 5319 N 518.631 -4.3842 5.36432 0
M  V30 5320 N 520.424 -3.69029 4.23998 0
M  V30 5321 H 512.575 -0.47428 2.07037 0
M  V30 5322 H 514.838 -0.272167 0.908091 0
M  V30 5323 H 514.544 -1.56198 3.15111 0
M  V30 5324 H 514.418 -3.04654 2.22409 0
M  V30 5325 H 516.805 -2.63951 1.31961 0
M  V30 5326 H 516.886 -1.15664 2.28156 0
M  V30 5327 H 516.53 -2.53772 4.39957 0
M  V30 5328 H 516.46 -4.01541 3.40694 0
M  V30 5329 H 518.951 -2.60397 2.73865 0
M  V30 5330 H 519.264 -4.85447 6.013 0
M  V30 5331 H 517.609 -4.37116 5.40328 0
M  V30 5332 H 520.8 -3.16392 3.44984 0
M  V30 5333 H 520.973 -4.19034 4.94282 0
M  V30 5334 N 514.379 -1.04941 -1.1758 0
M  V30 5335 C 515.604 -0.778253 -1.92245 0
M  V30 5336 C 516.029 0.659707 -1.76152 0
M  V30 5337 O 515.387 1.45803 -1.07755 0
M  V30 5338 C 515.435 -1.16051 -3.41416 0
M  V30 5339 O 514.539 -0.291153 -4.11371 0
M  V30 5340 H 513.88 -0.285619 -0.599431 0
M  V30 5341 H 516.41 -1.40159 -1.49052 0
M  V30 5342 H 516.42 -1.12619 -3.92149 0
M  V30 5343 H 515.095 -2.208 -3.52449 0
M  V30 5344 H 513.672 -0.385851 -3.70898 0
M  V30 5345 N 515.857 1.33968 -0.830081 0
M  V30 5346 C 517.082 2.02813 -0.433796 0
M  V30 5347 C 517.507 1.62076 0.954614 0
M  V30 5348 O 516.865 0.808955 1.62252 0
M  V30 5349 C 516.913 3.56348 -0.552115 0
M  V30 5350 O 516.017 4.10202 0.425191 0
M  V30 5351 H 515.358 0.639817 -0.177567 0
M  V30 5352 H 517.888 1.7106 -1.12248 0
M  V30 5353 H 517.898 4.05722 -0.430513 0
M  V30 5354 H 516.573 3.85344 -1.56471 0
M  V30 5355 H 515.15 3.71979 0.261878 0
M  V30 5356 N 517.335 0.585699 1.46312 0
M  V30 5357 C 518.265 -0.133556 2.33118 0
M  V30 5358 C 519.246 -0.880707 1.45525 0
M  V30 5359 O 520.431 -0.855579 1.74337 0
M  V30 5360 C 517.561 -1.14585 3.27853 0
M  V30 5361 C 516.515 -0.513341 4.2491 0
M  V30 5362 C 515.841 -1.63231 5.09175 0
M  V30 5363 C 517.141 0.551413 5.19381 0
M  V30 5364 H 518.835 0.59121 2.93505 0
M  V30 5365 H 516.381 0.285761 1.41136 0
M  V30 5366 H 518.334 -1.65741 3.87438 0
M  V30 5367 H 517.058 -1.90093 2.65579 0
M  V30 5368 H 515.717 -0.0228349 3.66593 0
M  V30 5369 H 515.365 -2.37713 4.43285 0
M  V30 5370 H 515.065 -1.21473 5.74907 0
M  V30 5371 H 516.589 -2.14658 5.71624 0
M  V30 5372 H 518.003 0.124804 5.73164 0
M  V30 5373 H 516.4 0.889486 5.93471 0
M  V30 5374 H 517.47 1.43655 4.63132 0
M  V30 5375 N 518.813 -1.54241 0.323641 0
M  V30 5376 C 519.776 -2.22997 -0.529602 0
M  V30 5377 C 520.776 -1.22345 -1.04347 0
M  V30 5378 O 521.966 -1.46924 -0.935889 0
M  V30 5379 C 519.098 -2.93409 -1.73562 0
M  V30 5380 H 520.291 -2.99815 0.0714518 0
M  V30 5381 H 517.844 -1.56121 0.0747258 0
M  V30 5382 H 518.579 -2.20729 -2.37591 0
M  V30 5383 H 518.364 -3.67217 -1.37456 0
M  V30 5384 H 519.854 -3.45794 -2.34128 0
M  V30 5385 N 520.291 -0.0518155 -1.57515 0
M  V30 5386 C 521.201 0.937539 -2.15052 0
M  V30 5387 C 522.217 1.34121 -1.10849 0
M  V30 5388 O 523.393 1.418 -1.4302 0
M  V30 5389 C 520.458 2.19379 -2.68466 0
M  V30 5390 C 519.519 1.84841 -3.87469 0
M  V30 5391 C 518.752 3.04477 -4.38326 0
M  V30 5392 O 518.975 4.17868 -3.88256 0
M  V30 5393 O 517.909 2.85453 -5.29906 0
M  V30 5394 H 521.735 0.478201 -2.99912 0
M  V30 5395 H 519.32 0.17012 -1.48428 0
M  V30 5396 H 521.202 2.93084 -3.02787 0
M  V30 5397 H 519.877 2.64449 -1.86677 0
M  V30 5398 H 518.784 1.08449 -3.58036 0
M  V30 5399 H 520.117 1.44569 -4.7049 0
M  V30 5400 N 521.769 1.56035 0.221574 0
M  V30 5401 C 523.015 1.79312 0.947372 0
M  V30 5402 C 523.348 0.621453 1.83988 0
M  V30 5403 O 522.623 -0.379287 1.90766 0
M  V30 5404 C 522.906 3.1267 1.78633 0
M  V30 5405 C 522.759 4.40284 0.920312 0
M  V30 5406 C 524.078 3.4247 2.7641 0
M  V30 5407 H 521.197 0.652328 0.342982 0
M  V30 5408 H 523.839 1.88765 0.216244 0
M  V30 5409 H 521.989 3.04741 2.40967 0
M  V30 5410 H 523.661 4.60232 0.313718 0
M  V30 5411 H 521.904 4.33212 0.225734 0
M  V30 5412 H 522.575 5.30033 1.54171 0
M  V30 5413 H 525.051 3.50526 2.24211 0
M  V30 5414 H 523.927 4.3695 3.32213 0
M  V30 5415 H 524.188 2.64635 3.54148 0
M  V30 5416 N 523.247 -0.488276 1.49845 0
M  V30 5417 C 524.179 -1.60539 1.63584 0
M  V30 5418 C 525.192 -1.5434 0.517972 0
M  V30 5419 O 526.381 -1.60041 0.790516 0
M  V30 5420 C 523.481 -2.99374 1.58835 0
M  V30 5421 C 522.654 -3.30624 2.86368 0
M  V30 5422 C 521.713 -4.4893 2.74496 0
M  V30 5423 O 520.739 -4.50085 3.48443 0
M  V30 5424 N 521.941 -5.49591 1.86894 0
M  V30 5425 H 524.706 -1.49176 2.59936 0
M  V30 5426 H 522.267 -0.67639 1.47094 0
M  V30 5427 H 524.259 -3.76459 1.48529 0
M  V30 5428 H 522.829 -3.04595 0.702892 0
M  V30 5429 H 522.049 -2.42314 3.1093 0
M  V30 5430 H 523.337 -3.48305 3.70892 0
M  V30 5431 H 522.735 -5.51467 1.26097 0
M  V30 5432 H 521.292 -6.25728 1.82503 0
M  V30 5433 N 524.725 -1.39134 -0.740242 0
M  V30 5434 C 525.95 -1.39518 -1.53459 0
M  V30 5435 C 526.375 0.00968883 -1.88098 0
M  V30 5436 O 525.733 0.995312 -1.51536 0
M  V30 5437 C 525.781 -2.26981 -2.802 0
M  V30 5438 O 524.885 -1.69609 -3.75908 0
M  V30 5439 H 524.226 -0.475328 -0.463637 0
M  V30 5440 H 526.756 -1.83064 -0.913717 0
M  V30 5441 H 526.766 -2.41309 -3.28989 0
M  V30 5442 H 525.441 -3.29081 -2.5432 0
M  V30 5443 H 524.018 -1.64495 -3.34658 0
M  V30 5444 N 526.204 0.969867 -1.24223 0
M  V30 5445 C 527.114 2.09806 -1.0497 0
M  V30 5446 C 528.13 1.73998 0.00886455 0
M  V30 5447 O 529.306 2.00513 -0.188848 0
M  V30 5448 C 526.371 3.40467 -0.654452 0
M  V30 5449 C 525.432 3.90236 -1.78926 0
M  V30 5450 C 524.665 5.14662 -1.41277 0
M  V30 5451 O 524.888 5.69602 -0.301632 0
M  V30 5452 O 523.822 5.58761 -2.23763 0
M  V30 5453 H 527.648 2.28942 -1.99548 0
M  V30 5454 H 525.233 1.08197 -1.03023 0
M  V30 5455 H 527.115 4.19039 -0.445452 0
M  V30 5456 H 525.79 3.22636 0.262216 0
M  V30 5457 H 524.697 3.12735 -2.05299 0
M  V30 5458 H 526.03 4.1254 -2.68462 0
M  V30 5459 N 527.682 1.05563 1.17022 0
M  V30 5460 C 528.931 0.763036 1.8671 0
M  V30 5461 C 529.244 -0.712857 1.82147 0
M  V30 5462 O 530.45 -1.11955 2.47343 0
M  V30 5463 C 528.906 1.31474 3.35026 0
M  V30 5464 C 528.514 2.82034 3.48081 0
M  V30 5465 C 530.258 1.09935 4.10018 0
M  V30 5466 C 528.165 3.30486 4.90442 0
M  V30 5467 H 527.095 0.281747 0.699382 0
M  V30 5468 H 529.746 1.2734 1.32124 0
M  V30 5469 H 528.128 0.732171 3.89173 0
M  V30 5470 H 529.302 3.46178 3.04133 0
M  V30 5471 H 527.617 3.02156 2.86515 0
M  V30 5472 H 530.214 1.43632 5.15048 0
M  V30 5473 H 530.557 0.0373072 4.16283 0
M  V30 5474 H 531.09 1.64732 3.62089 0
M  V30 5475 H 527.829 4.36137 4.89352 0
M  V30 5476 H 527.349 2.71086 5.35044 0
M  V30 5477 H 529.028 3.25382 5.59227 0
M  V30 5478 N 529.16 -1.33526 0.837174 0
M  V30 5479 C 530.07 -2.33023 0.271568 0
M  V30 5480 C 531.086 -1.63272 -0.601514 0
M  V30 5481 O 532.262 -1.94939 -0.506038 0
M  V30 5482 C 529.327 -3.42382 -0.545448 0
M  V30 5483 C 528.388 -4.27857 0.351709 0
M  V30 5484 C 527.621 -5.31994 -0.426409 0
M  V30 5485 O 527.844 -5.45763 -1.65828 0
M  V30 5486 O 526.778 -6.01572 0.1987 0
M  V30 5487 H 530.604 -2.83256 1.09545 0
M  V30 5488 H 528.189 -1.36837 0.599655 0
M  V30 5489 H 530.071 -4.09122 -1.00979 0
M  V30 5490 H 528.746 -2.94369 -1.34641 0
M  V30 5491 H 527.653 -3.6399 0.863853 0
M  V30 5492 H 528.986 -4.79349 1.1174 0
M  V30 5493 N 530.638 -0.59345 -1.46 0
M  V30 5494 C 532.054 -0.255965 -1.57534 0
M  V30 5495 C 532.254 1.24167 -1.58697 0
M  V30 5496 O 531.31 2.02398 -1.50968 0
M  V30 5497 C 532.623 -0.91466 -2.86451 0
M  V30 5498 C 534.171 -0.889253 -3.00102 0
M  V30 5499 C 534.646 -1.52769 -4.3177 0
M  V30 5500 N 536.137 -1.49253 -4.38495 0
M  V30 5501 C 536.872 -1.9558 -5.39014 0
M  V30 5502 N 536.368 -2.49929 -6.46148 0
M  V30 5503 N 538.161 -1.86432 -5.30282 0
M  V30 5504 H 530.312 -1.56604 -1.43489 0
M  V30 5505 H 532.575 -0.655207 -0.685133 0
M  V30 5506 H 532.281 -1.96861 -2.91442 0
M  V30 5507 H 532.155 -0.429356 -3.74748 0
M  V30 5508 H 534.542 0.156111 -2.94687 0
M  V30 5509 H 534.623 -1.41268 -2.13253 0
M  V30 5510 H 534.267 -2.57231 -4.37944 0
M  V30 5511 H 534.197 -0.979398 -5.17412 0
M  V30 5512 H 536.688 -1.09536 -3.61677 0
M  V30 5513 H 537.001 -2.83109 -7.19075 0
M  V30 5514 H 535.346 -2.53961 -6.46938 0
M  V30 5515 H 538.537 -1.43722 -4.4549 0
M  V30 5516 H 538.71 -2.22852 -6.08474 0
M  V30 5517 N 532.116 1.54067 -0.331816 0
M  V30 5518 C 533.365 1.99895 0.269209 0
M  V30 5519 C 533.678 1.22371 1.52593 0
M  V30 5520 O 534.884 1.58618 2.20347 0
M  V30 5521 C 533.34 3.55972 0.530244 0
M  V30 5522 C 532.948 4.4234 -0.709901 0
M  V30 5523 C 534.692 4.10247 1.09077 0
M  V30 5524 C 532.599 5.89905 -0.420312 0
M  V30 5525 H 531.529 0.746741 0.104371 0
M  V30 5526 H 534.18 1.78014 -0.445324 0
M  V30 5527 H 532.562 3.73873 1.30518 0
M  V30 5528 H 533.736 4.36215 -1.48504 0
M  V30 5529 H 532.051 3.98997 -1.19123 0
M  V30 5530 H 534.648 5.18095 1.32219 0
M  V30 5531 H 534.991 3.62739 2.0427 0
M  V30 5532 H 535.524 3.96011 0.376824 0
M  V30 5533 H 532.263 6.41623 -1.34164 0
M  V30 5534 H 531.783 5.98962 0.316962 0
M  V30 5535 H 533.462 6.46991 -0.0331956 0
M  V30 5536 N 533.594 0.0601682 1.57485 0
M  V30 5537 C 534.841 -0.611594 1.93043 0
M  V30 5538 C 535.169 -1.70317 0.939274 0
M  V30 5539 O 534.424 -1.95644 -0.046996 0
M  V30 5540 C 534.723 -1.23831 3.35262 0
M  V30 5541 C 534.389 -0.274037 4.50066 0
M  V30 5542 C 533.051 -0.00872394 4.81199 0
M  V30 5543 C 535.403 0.386308 5.19766 0
M  V30 5544 C 532.731 0.924218 5.79375 0
M  V30 5545 C 535.083 1.3075 6.1894 0
M  V30 5546 C 533.747 1.58139 6.48497 0
M  V30 5547 H 533.017 -0.223798 0.706396 0
M  V30 5548 H 535.664 0.128566 1.91068 0
M  V30 5549 H 533.969 -2.05394 3.33647 0
M  V30 5550 H 535.666 -1.76517 3.60059 0
M  V30 5551 H 532.256 -0.491008 4.25778 0
M  V30 5552 H 536.44 0.194436 4.95919 0
M  V30 5553 H 531.696 1.1438 6.00606 0
M  V30 5554 H 535.87 1.82519 6.72056 0
M  V30 5555 H 533.497 2.30593 7.24383 0
M  V30 5556 N 535.072 -1.5615 -0.213296 0
M  V30 5557 C 535.982 -1.96265 -1.28519 0
M  V30 5558 C 536.998 -0.86765 -1.50824 0
M  V30 5559 O 538.174 -1.17191 -1.63793 0
M  V30 5560 C 535.239 -2.27836 -2.61327 0
M  V30 5561 C 534.3 -3.50949 -2.47252 0
M  V30 5562 C 533.533 -3.81004 -3.73727 0
M  V30 5563 O 533.756 -3.12612 -4.77106 0
M  V30 5564 O 532.69 -4.74477 -3.70344 0
M  V30 5565 H 536.516 -2.87631 -0.974795 0
M  V30 5566 H 534.101 -1.43467 -0.416832 0
M  V30 5567 H 535.983 -2.49299 -3.39747 0
M  V30 5568 H 534.658 -1.39643 -2.9203 0
M  V30 5569 H 533.565 -3.34754 -1.67004 0
M  V30 5570 H 534.898 -4.39551 -2.21486 0
M  V30 5571 N 536.55 0.480323 -1.50102 0
M  V30 5572 C 537.48 1.58769 -1.71215 0
M  V30 5573 C 538.461 1.60583 -0.560997 0
M  V30 5574 O 539.646 1.76996 -0.799127 0
M  V30 5575 C 536.776 2.97148 -1.79778 0
M  V30 5576 C 535.73 3.10201 -2.94888 0
M  V30 5577 C 535.056 4.50137 -2.88584 0
M  V30 5578 C 536.356 2.88283 -4.35534 0
M  V30 5579 H 538.05 1.41354 -2.6393 0
M  V30 5580 H 535.596 0.678591 -1.27008 0
M  V30 5581 H 537.549 3.74536 -1.93133 0
M  V30 5582 H 536.273 3.15699 -0.836772 0
M  V30 5583 H 534.932 2.35244 -2.81169 0
M  V30 5584 H 534.58 4.65593 -1.90349 0
M  V30 5585 H 534.28 4.59808 -3.65856 0
M  V30 5586 H 535.804 5.29558 -3.03976 0
M  V30 5587 H 537.218 3.55427 -4.49827 0
M  V30 5588 H 535.615 3.09408 -5.14186 0
M  V30 5589 H 536.685 1.84219 -4.48544 0
M  V30 5590 N 538.028 1.39524 0.732853 0
M  V30 5591 C 538.991 1.38189 1.82857 0
M  V30 5592 C 539.991 0.278624 1.58368 0
M  V30 5593 O 541.181 0.536639 1.65728 0
M  V30 5594 C 538.313 1.15661 3.2068 0
M  V30 5595 H 539.506 2.35692 1.85444 0
M  V30 5596 H 537.059 1.2512 0.936728 0
M  V30 5597 H 537.794 0.188482 3.23752 0
M  V30 5598 H 537.579 1.95559 3.39852 0
M  V30 5599 H 539.069 1.17472 4.00737 0
M  V30 5600 N 539.506 -0.963266 1.24736 0
M  V30 5601 C 540.922 -1.23273 1.01371 0
M  V30 5602 C 541.122 -1.99618 -0.274776 0
M  V30 5603 O 540.178 -2.32293 -0.989769 0
M  V30 5604 C 541.491 -2.01554 2.23152 0
M  V30 5605 C 543.039 -2.14629 2.27823 0
M  V30 5606 C 543.514 -2.96307 3.49237 0
M  V30 5607 N 545.005 -3.03887 3.49581 0
M  V30 5608 C 545.74 -3.67456 4.40186 0
M  V30 5609 N 545.236 -4.32706 5.41052 0
M  V30 5610 N 547.029 -3.64511 4.27888 0
M  V30 5611 H 539.18 -0.452294 2.07528 0
M  V30 5612 H 541.443 -0.262521 0.910926 0
M  V30 5613 H 541.149 -1.52847 3.1675 0
M  V30 5614 H 541.023 -3.02278 2.25628 0
M  V30 5615 H 543.41 -2.62537 1.34753 0
M  V30 5616 H 543.491 -1.13238 2.2937 0
M  V30 5617 H 543.135 -2.49091 4.42624 0
M  V30 5618 H 543.065 -3.97905 3.44933 0
M  V30 5619 H 545.556 -2.57477 2.76611 0
M  V30 5620 H 545.869 -4.79042 6.06415 0
M  V30 5621 H 544.214 -4.31361 5.44934 0
M  V30 5622 H 547.405 -3.12715 3.4832 0
M  V30 5623 H 547.578 -4.13768 4.98698 0
M  V30 5624 N 540.985 -1.06182 -1.16461 0
M  V30 5625 C 542.213 -0.798583 -1.90867 0
M  V30 5626 C 542.628 0.646921 -1.77371 0
M  V30 5627 O 541.985 1.44279 -1.11758 0
M  V30 5628 C 542.036 -1.18258 -3.4161 0
M  V30 5629 O 541.757 -2.57135 -3.54701 0
M  V30 5630 C 543.258 -0.946917 -4.33069 0
M  V30 5631 H 540.478 -0.289603 -0.605286 0
M  V30 5632 H 543.022 -1.41515 -1.47627 0
M  V30 5633 H 541.177 -0.610562 -3.82558 0
M  V30 5634 H 541.591 -2.72477 -4.4817 0
M  V30 5635 H 543.065 -1.26523 -5.37304 0
M  V30 5636 H 543.542 0.117406 -4.39043 0
M  V30 5637 H 544.148 -1.50326 -3.97847 0
M  V30 5638 N 542.463 1.3308 -0.844243 0
M  V30 5639 C 543.393 2.3161 -0.296493 0
M  V30 5640 C 544.374 1.59215 0.598707 0
M  V30 5641 O 545.559 1.87077 0.521134 0
M  V30 5642 C 542.689 3.43313 0.524762 0
M  V30 5643 C 541.643 4.27115 -0.275106 0
M  V30 5644 C 540.969 5.30483 0.670236 0
M  V30 5645 C 542.269 5.00443 -1.49514 0
M  V30 5646 H 543.963 2.77672 -1.11976 0
M  V30 5647 H 541.509 1.33496 -0.539899 0
M  V30 5648 H 543.462 4.11273 0.918298 0
M  V30 5649 H 542.186 2.95952 1.3813 0
M  V30 5650 H 540.845 3.60787 -0.650267 0
M  V30 5651 H 540.493 4.79379 1.52332 0
M  V30 5652 H 540.193 5.87435 0.139123 0
M  V30 5653 H 541.717 6.01308 1.06117 0
M  V30 5654 H 543.131 5.61141 -1.17447 0
M  V30 5655 H 541.528 5.67071 -1.96343 0
M  V30 5656 H 542.598 4.28906 -2.26202 0
M  V30 5657 N 543.941 0.601185 1.45683 0
M  V30 5658 C 544.873 -0.159446 2.28645 0
M  V30 5659 C 545.886 -0.837882 1.39583 0
M  V30 5660 O 547.075 -0.704344 1.64016 0
M  V30 5661 C 544.175 -1.24641 3.15147 0
M  V30 5662 C 543.348 -0.656334 4.32448 0
M  V30 5663 C 542.407 -1.63337 5.00208 0
M  V30 5664 O 541.433 -1.16217 5.57209 0
M  V30 5665 N 542.635 -2.96773 4.98905 0
M  V30 5666 H 545.4 0.5524 2.94565 0
M  V30 5667 H 542.961 0.440223 1.558 0
M  V30 5668 H 544.953 -1.8997 3.57342 0
M  V30 5669 H 543.523 -1.86087 2.51178 0
M  V30 5670 H 542.743 0.174879 3.93812 0
M  V30 5671 H 544.031 -0.242211 5.08223 0
M  V30 5672 H 543.429 -3.37662 4.53873 0
M  V30 5673 H 541.986 -3.57541 5.44984 0
M  V30 5674 N 545.419 -1.53889 0.339982 0
M  V30 5675 C 546.349 -2.27843 -0.510856 0
M  V30 5676 C 547.33 -1.29267 -1.10563 0
M  V30 5677 O 548.515 -1.58104 -1.12768 0
M  V30 5678 C 545.645 -3.04857 -1.66372 0
M  V30 5679 C 544.599 -4.10907 -1.19746 0
M  V30 5680 C 543.925 -4.75855 -2.43857 0
M  V30 5681 C 545.225 -5.21435 -0.300501 0
M  V30 5682 H 546.919 -2.99212 0.106067 0
M  V30 5683 H 544.465 -1.43904 0.0524533 0
M  V30 5684 H 546.418 -3.5533 -2.26537 0
M  V30 5685 H 545.142 -2.31133 -2.30749 0
M  V30 5686 H 543.801 -3.61342 -0.618654 0
M  V30 5687 H 543.449 -3.9873 -3.06633 0
M  V30 5688 H 543.149 -5.47502 -2.13343 0
M  V30 5689 H 544.673 -5.2911 -3.04754 0
M  V30 5690 H 546.087 -5.67565 -0.80889 0
M  V30 5691 H 544.484 -6.00036 -0.0874076 0
M  V30 5692 H 545.554 -4.80328 0.664321 0
M  V30 5693 N 546.897 -0.0685191 -1.57451 0
M  V30 5694 C 548.143 0.602239 -1.93652 0
M  V30 5695 C 548.476 1.6946 -0.948526 0
M  V30 5696 O 547.751 1.94487 0.022782 0
M  V30 5697 C 548.034 1.18223 -3.4014 0
M  V30 5698 C 547.887 0.0967431 -4.49696 0
M  V30 5699 C 549.206 2.08872 -3.87377 0
M  V30 5700 H 546.325 0.217453 -0.70419 0
M  V30 5701 H 548.967 -0.133821 -1.89528 0
M  V30 5702 H 547.117 1.80953 -3.43785 0
M  V30 5703 H 548.789 -0.536155 -4.58174 0
M  V30 5704 H 547.032 -0.573063 -4.29998 0
M  V30 5705 H 547.703 0.542894 -5.49324 0
M  V30 5706 H 550.179 1.56081 -3.85717 0
M  V30 5707 H 549.055 2.46389 -4.90493 0
M  V30 5708 H 549.316 2.99572 -3.25129 0
M  V30 5709 N 548.375 1.56261 0.205012 0
M  V30 5710 C 549.621 1.80306 0.9283 0
M  V30 5711 C 549.954 0.640932 1.83319 0
M  V30 5712 O 549.229 -0.359032 1.91158 0
M  V30 5713 C 549.512 3.14547 1.75306 0
M  V30 5714 C 549.365 4.41236 0.873562 0
M  V30 5715 C 550.684 3.45382 2.72762 0
M  V30 5716 H 547.803 0.655929 0.336044 0
M  V30 5717 H 550.445 1.88984 0.196211 0
M  V30 5718 H 548.595 3.0728 2.37721 0
M  V30 5719 H 550.267 4.60539 0.264887 0
M  V30 5720 H 548.51 4.33427 0.179773 0
M  V30 5721 H 549.181 5.31639 1.48541 0
M  V30 5722 H 551.657 3.52884 2.20481 0
M  V30 5723 H 550.533 4.40449 3.2756 0
M  V30 5724 H 550.794 2.68377 3.51321 0
M  V30 5725 N 549.853 -0.472356 1.50355 0
M  V30 5726 C 550.783 -1.57859 1.72055 0
M  V30 5727 C 551.764 -1.60283 0.569505 0
M  V30 5728 O 552.949 -1.7657 0.808503 0
M  V30 5729 C 550.079 -2.96191 1.81351 0
M  V30 5730 C 549.033 -3.08633 2.96529 0
M  V30 5731 C 548.359 -4.486 2.90968 0
M  V30 5732 C 549.659 -2.85969 4.37057 0
M  V30 5733 H 551.353 -1.39953 2.64676 0
M  V30 5734 H 548.899 -0.671846 1.27367 0
M  V30 5735 H 550.852 -3.73507 1.95117 0
M  V30 5736 H 549.576 -3.15251 0.853502 0
M  V30 5737 H 548.235 -2.33749 2.82413 0
M  V30 5738 H 547.883 -4.64577 1.92815 0
M  V30 5739 H 547.583 -4.57861 3.68289 0
M  V30 5740 H 549.107 -5.27938 3.0678 0
M  V30 5741 H 550.521 -3.53036 4.51706 0
M  V30 5742 H 548.918 -3.06677 5.15819 0
M  V30 5743 H 549.988 -1.81838 4.49514 0
M  V30 5744 N 551.331 -1.39911 -0.725443 0
M  V30 5745 C 552.608 -1.28158 -1.47766 0
M  V30 5746 C 552.988 0.104545 -2.10841 0
M  V30 5747 O 552.336 1.11657 -1.99361 0
M  V30 5748 C 552.546 -2.41306 -2.52135 0
M  V30 5749 C 553.894 -2.81076 -3.18247 0
M  V30 5750 O 554.918 -2.40827 -2.62452 0
M  V30 5751 O 553.777 -3.50581 -4.19231 0
M  V30 5752 H 550.871 -0.502761 -0.656628 0
M  V30 5753 H 553.417 -1.51808 -0.758456 0
M  V30 5754 H 552.189 -3.33932 -2.03974 0
M  V30 5755 H 551.812 -2.19374 -3.31603 0
M  V30 5756 N 552.809 0.956637 -1.25245 0
M  V30 5757 C 553.772 2.03457 -1.05537 0
M  V30 5758 C 554.772 1.60798 -0.00886317 0
M  V30 5759 O 555.962 1.72384 -0.250865 0
M  V30 5760 C 553.094 3.35543 -0.601965 0
M  V30 5761 H 554.287 2.22372 -2.01223 0
M  V30 5762 H 551.84 1.13344 -1.07623 0
M  V30 5763 H 552.575 3.22323 0.357584 0
M  V30 5764 H 552.36 3.67854 -1.35743 0
M  V30 5765 H 553.85 4.14769 -0.485454 0
M  V30 5766 N 554.287 1.06798 1.15896 0
M  V30 5767 C 555.564 0.701057 1.82605 0
M  V30 5768 C 555.944 -0.817066 1.94646 0
M  V30 5769 O 555.292 -1.72933 1.49353 0
M  V30 5770 C 555.502 1.40895 3.19296 0
M  V30 5771 C 556.85 1.55744 3.95005 0
M  V30 5772 O 557.874 1.36927 3.28831 0
M  V30 5773 O 556.733 1.86658 5.13635 0
M  V30 5774 H 553.827 0.248791 0.78869 0
M  V30 5775 H 556.373 1.16857 1.23055 0
M  V30 5776 H 555.145 2.4439 3.05596 0
M  V30 5777 H 554.768 0.931847 3.86526 0
M  V30 5778 N 555.766 -1.3263 0.851289 0
M  V30 5779 C 556.994 -2.01563 0.466899 0
M  V30 5780 C 557.409 -1.63996 -0.935447 0
M  V30 5781 O 556.766 -0.85957 -1.6099 0
M  V30 5782 C 556.817 -3.56613 0.592433 0
M  V30 5783 O 556.538 -3.92828 1.93954 0
M  V30 5784 C 558.039 -4.42818 0.206612 0
M  V30 5785 H 555.259 -0.645307 0.183902 0
M  V30 5786 H 557.803 -1.69285 1.1473 0
M  V30 5787 H 555.958 -3.87379 -0.0401936 0
M  V30 5788 H 556.372 -4.87545 1.9339 0
M  V30 5789 H 557.846 -5.50918 0.345462 0
M  V30 5790 H 558.323 -4.30844 -0.85264 0
M  V30 5791 H 558.929 -4.17434 0.814176 0
M  V30 5792 N 557.244 -0.608902 -1.45362 0
M  V30 5793 C 558.493 -0.10218 -2.01441 0
M  V30 5794 C 558.806 1.27546 -1.48295 0
M  V30 5795 O 560.012 1.87498 -1.96359 0
M  V30 5796 C 558.468 -0.131985 -3.59658 0
M  V30 5797 C 558.076 -1.50956 -4.21801 0
M  V30 5798 C 559.82 0.319427 -4.23296 0
M  V30 5799 C 557.727 -1.49568 -5.72174 0
M  V30 5800 H 556.657 -0.0344314 -0.753213 0
M  V30 5801 H 559.308 -0.764426 -1.6682 0
M  V30 5802 H 557.69 0.596939 -3.91475 0
M  V30 5803 H 558.864 -2.26029 -4.01556 0
M  V30 5804 H 557.179 -1.90318 -3.70362 0
M  V30 5805 H 559.776 0.349013 -5.3356 0
M  V30 5806 H 560.119 1.34237 -3.94064 0
M  V30 5807 H 560.652 -0.356273 -3.96201 0
M  V30 5808 H 557.391 -2.49626 -6.06108 0
M  V30 5809 H 556.911 -0.787542 -5.94607 0
M  V30 5810 H 558.59 -1.21989 -6.35396 0
M  V30 5811 N 558.722 1.53707 -0.348139 0
M  V30 5812 C 559.67 2.26671 0.521808 0
M  V30 5813 C 560.664 1.28988 1.09811 0
M  V30 5814 O 561.87 1.4668 1.04332 0
M  V30 5815 H 558.245 0.728387 0.186968 0
M  V30 5816 H 560.216 2.98176 -0.115563 0
M  V30 5817 C 558.965 3.05591 1.6586 0
M  V30 5818 H 558.288 3.80589 1.22443 0
M  V30 5819 H 559.728 3.59851 2.24239 0
M  V30 5820 C 558.187 2.15366 2.59073 0
M  V30 5821 O 558.717 1.7528 3.61441 0
M  V30 5822 N 556.923 1.80352 2.27863 0
M  V30 5823 H 556.47 2.13149 1.44656 0
M  V30 5824 H 556.428 1.20268 2.90488 0
M  V30 5825 N 560.2 0.0768682 1.57412 0
M  V30 5826 C 561.15 -0.898795 2.09537 0
M  V30 5827 C 562.134 -1.25556 1.0062 0
M  V30 5828 O 563.326 -1.23369 1.26921 0
M  V30 5829 C 560.455 -2.16453 2.66464 0
M  V30 5830 C 559.541 -1.83401 3.82393 0
M  V30 5831 N 559.932 -1.20823 4.91157 0
M  V30 5832 C 558.23 -2.13121 3.91785 0
M  V30 5833 C 558.931 -1.05976 5.71965 0
M  V30 5834 N 557.907 -1.57113 5.204 0
M  V30 5835 H 561.709 -0.410718 2.91016 0
M  V30 5836 H 559.223 -0.126878 1.61904 0
M  V30 5837 H 561.22 -2.87274 3.02125 0
M  V30 5838 H 559.88 -2.65844 1.86433 0
M  V30 5839 H 560.891 -0.877249 5.10416 0
M  V30 5840 H 557.568 -2.64854 3.22736 0
M  V30 5841 H 558.958 -0.571809 6.69462 0
M  V30 5842 N 561.678 -1.56367 -0.196722 0
M  V30 5843 C 563.089 -1.70462 -0.761545 0
M  V30 5844 C 563.44 -0.683161 -1.83922 0
M  V30 5845 O 562.565 0.160753 -2.15802 0
M  V30 5846 C 563.16 -3.09057 -1.38814 0
M  V30 5847 C 561.719 -3.24922 -1.90007 0
M  V30 5848 C 560.866 -2.66412 -0.769399 0
M  V30 5849 H 563.817 -1.58675 0.0283263 0
M  V30 5850 H 563.838 -3.06296 -2.2575 0
M  V30 5851 H 563.35 -3.83378 -0.603559 0
M  V30 5852 H 561.451 -2.55514 -2.71189 0
M  V30 5853 H 561.564 -4.3241 -2.06297 0
M  V30 5854 H 559.928 -2.25546 -1.18326 0
M  V30 5855 H 560.711 -3.433 0.00291773 0
M  V30 5856 N 563.156 0.464375 -1.50603 0
M  V30 5857 C 564.119 1.54393 -1.69397 0
M  V30 5858 C 565.119 1.50566 -0.564504 0
M  V30 5859 O 566.309 1.53066 -0.831645 0
M  V30 5860 C 563.441 2.9401 -1.72543 0
M  V30 5861 H 564.634 1.39044 -2.65719 0
M  V30 5862 H 562.187 0.69122 -1.40185 0
M  V30 5863 H 562.922 3.14795 -0.77938 0
M  V30 5864 H 562.707 2.98195 -2.54602 0
M  V30 5865 H 564.197 3.72375 -1.89015 0
M  V30 5866 N 564.634 1.40294 0.718013 0
M  V30 5867 C 565.566 1.36281 1.84283 0
M  V30 5868 C 566.579 0.268621 1.60569 0
M  V30 5869 O 567.768 0.528798 1.70487 0
M  V30 5870 C 564.868 1.09741 3.2064 0
M  V30 5871 C 564.041 2.30767 3.71571 0
M  V30 5872 C 563.1 2.00424 4.86535 0
M  V30 5873 O 562.126 2.73268 4.99313 0
M  V30 5874 N 563.328 0.980724 5.72156 0
M  V30 5875 H 566.093 2.3322 1.88225 0
M  V30 5876 H 563.654 1.34616 0.899453 0
M  V30 5877 H 565.646 0.874322 3.95143 0
M  V30 5878 H 564.216 0.214771 3.11861 0
M  V30 5879 H 563.436 2.68921 2.88228 0
M  V30 5880 H 564.724 3.11455 4.02335 0
M  V30 5881 H 564.122 0.377375 5.6444 0
M  V30 5882 H 562.679 0.817538 6.46653 0
M  V30 5883 N 566.112 -0.949982 1.2575 0
M  V30 5884 C 567.042 -2.06483 1.09028 0
M  V30 5885 C 568.023 -1.701 -0.00201532 0
M  V30 5886 O 569.208 -1.93469 0.168383 0
M  V30 5887 C 566.338 -3.39899 0.71316 0
M  V30 5888 C 565.292 -3.90309 1.75621 0
M  V30 5889 C 564.618 -5.20274 1.23365 0
M  V30 5890 C 565.918 -4.16169 3.15596 0
M  V30 5891 H 567.612 -2.20731 2.02283 0
M  V30 5892 H 565.158 -1.06066 0.973964 0
M  V30 5893 H 567.111 -4.17346 0.58309 0
M  V30 5894 H 565.835 -3.25602 -0.255091 0
M  V30 5895 H 564.494 -3.15035 1.8748 0
M  V30 5896 H 564.142 -5.02351 0.255491 0
M  V30 5897 H 563.842 -5.54971 1.93082 0
M  V30 5898 H 565.366 -6.00314 1.11607 0
M  V30 5899 H 566.78 -4.84259 3.06864 0
M  V30 5900 H 565.177 -4.62131 3.82825 0
M  V30 5901 H 566.247 -3.22273 3.6231 0
M  V30 5902 N 567.59 -1.07411 -1.15328 0
M  V30 5903 C 568.815 -0.818856 -1.90551 0
M  V30 5904 C 569.24 0.622194 -1.77512 0
M  V30 5905 O 568.598 1.43484 -1.10824 0
M  V30 5906 C 568.646 -1.23267 -3.38877 0
M  V30 5907 O 567.75 -0.378345 -4.10661 0
M  V30 5908 H 567.091 -0.29827 -0.593238 0
M  V30 5909 H 569.621 -1.43289 -1.46046 0
M  V30 5910 H 569.631 -1.20912 -3.89672 0
M  V30 5911 H 568.306 -2.28226 -3.47686 0
M  V30 5912 H 566.883 -0.464437 -3.69996 0
M  V30 5913 N 569.068 1.32177 -0.85831 0
M  V30 5914 C 570.015 2.28794 -0.303607 0
M  V30 5915 C 570.985 1.55213 0.591453 0
M  V30 5916 O 572.17 1.83418 0.525585 0
M  V30 5917 C 569.31 3.41475 0.49889 0
M  V30 5918 C 568.423 4.2993 -0.422373 0
M  V30 5919 C 567.558 5.29743 0.393111 0
M  V30 5920 C 566.597 6.09842 -0.525317 0
M  V30 5921 N 565.734 7.01643 0.253208 0
M  V30 5922 H 570.574 2.75631 -1.13276 0
M  V30 5923 H 568.111 1.35606 -0.570026 0
M  V30 5924 H 570.069 4.05531 0.979826 0
M  V30 5925 H 568.699 2.95779 1.29284 0
M  V30 5926 H 567.751 3.66422 -1.02171 0
M  V30 5927 H 569.063 4.85899 -1.12709 0
M  V30 5928 H 568.217 5.9942 0.937056 0
M  V30 5929 H 566.956 4.744 1.13117 0
M  V30 5930 H 565.961 5.39066 -1.08112 0
M  V30 5931 H 567.186 6.6727 -1.26205 0
M  V30 5932 H 565.132 6.48725 0.974295 0
M  V30 5933 H 565.049 7.54981 -0.392398 0
M  V30 5934 H 566.317 7.756 0.778761 0
M  V30 5935 N 570.547 0.616602 1.45037 0
M  V30 5936 C 571.775 0.121968 2.0654 0
M  V30 5937 C 572.19 -1.19743 1.45969 0
M  V30 5938 O 571.547 -1.73133 0.577168 0
M  V30 5939 C 571.598 -0.0145171 3.61497 0
M  V30 5940 O 571.319 1.25269 4.19809 0
M  V30 5941 C 572.82 -0.539555 4.40004 0
M  V30 5942 H 570.04 0.0729837 0.667019 0
M  V30 5943 H 572.584 0.846891 1.8614 0
M  V30 5944 H 570.739 -0.689809 3.81209 0
M  V30 5945 H 571.153 1.08816 5.13088 0
M  V30 5946 H 572.627 -0.584112 5.48901 0
M  V30 5947 H 573.104 -1.56368 4.10421 0
M  V30 5948 H 573.71 0.101995 4.25178 0
M  V30 5949 N 572.025 -1.5352 0.356285 0
M  V30 5950 C 573.25 -2.06007 -0.239961 0
M  V30 5951 C 573.675 -1.22872 -1.42422 0
M  V30 5952 O 573.033 -0.245516 -1.7963 0
M  V30 5953 C 573.081 -3.5522 -0.620587 0
M  V30 5954 O 572.185 -3.74864 -1.71902 0
M  V30 5955 H 571.526 -0.662961 -0.0371377 0
M  V30 5956 H 574.056 -1.98033 0.514194 0
M  V30 5957 H 574.066 -3.98081 -0.894197 0
M  V30 5958 H 572.741 -4.15175 0.245407 0
M  V30 5959 H 571.318 -3.43904 -1.44169 0
M  V30 5960 N 573.503 -0.0852151 -1.57369 0
M  V30 5961 C 574.433 0.874556 -2.16503 0
M  V30 5962 C 575.414 1.30111 -1.09568 0
M  V30 5963 O 576.599 1.36977 -1.37662 0
M  V30 5964 C 573.729 2.13731 -2.73745 0
M  V30 5965 C 572.683 1.84971 -3.85966 0
M  V30 5966 C 572.009 3.17991 -4.29867 0
M  V30 5967 C 573.309 1.14442 -5.09608 0
M  V30 5968 H 575.003 0.381899 -2.96954 0
M  V30 5969 H 572.549 0.18225 -1.42842 0
M  V30 5970 H 574.502 2.81302 -3.13763 0
M  V30 5971 H 573.226 2.65263 -1.90534 0
M  V30 5972 H 571.885 1.19801 -3.46473 0
M  V30 5973 H 571.533 3.6739 -3.4356 0
M  V30 5974 H 571.233 2.99534 -5.05523 0
M  V30 5975 H 572.757 3.86737 -4.72511 0
M  V30 5976 H 574.171 1.72105 -5.46857 0
M  V30 5977 H 572.568 1.06197 -5.90629 0
M  V30 5978 H 573.638 0.12559 -4.84737 0
M  V30 5979 N 574.981 1.5647 0.188427 0
M  V30 5980 C 575.944 1.9421 1.21718 0
M  V30 5981 C 576.944 0.823901 1.38089 0
M  V30 5982 O 578.134 1.09122 1.35787 0
M  V30 5983 C 575.266 2.22197 2.58537 0
M  V30 5984 H 576.459 2.86252 0.894418 0
M  V30 5985 H 574.012 1.50263 0.430211 0
M  V30 5986 H 574.747 1.32814 2.95856 0
M  V30 5987 H 574.532 3.03688 2.48025 0
M  V30 5988 H 576.022 2.52376 3.3271 0
M  V30 5989 N 576.459 -0.456382 1.50847 0
M  V30 5990 C 577.87 -1.03685 1.55262 0
M  V30 5991 C 578.221 -1.92779 0.364771 0
M  V30 5992 O 577.346 -2.10043 -0.52068 0
M  V30 5993 C 577.941 -1.88718 2.81374 0
M  V30 5994 C 576.5 -2.41847 2.88422 0
M  V30 5995 C 575.647 -1.20564 2.49719 0
M  V30 5996 H 578.598 -0.238399 1.56899 0
M  V30 5997 H 578.619 -2.73957 2.6406 0
M  V30 5998 H 578.131 -1.23847 3.67809 0
M  V30 5999 H 576.232 -3.10228 2.06372 0
M  V30 6000 H 576.345 -2.75947 3.9165 0
M  V30 6001 H 574.709 -1.54504 2.02486 0
M  V30 6002 H 575.492 -0.573326 3.38479 0
M  V30 6003 N 577.937 -1.40673 -0.710563 0
M  V30 6004 C 579.186 -1.38525 -1.46607 0
M  V30 6005 C 579.499 0.0077024 -1.95598 0
M  V30 6006 O 580.705 0.151792 -2.71075 0
M  V30 6007 C 579.161 -2.43489 -2.6503 0
M  V30 6008 C 578.769 -3.88619 -2.22888 0
M  V30 6009 C 580.513 -2.50456 -3.42742 0
M  V30 6010 C 578.42 -4.85168 -3.3818 0
M  V30 6011 H 577.35 -0.515092 -0.550632 0
M  V30 6012 H 580.001 -1.66431 -0.772846 0
M  V30 6013 H 578.383 -2.0869 -3.36548 0
M  V30 6014 H 579.557 -4.32588 -1.58758 0
M  V30 6015 H 577.872 -3.85174 -1.58208 0
M  V30 6016 H 580.469 -3.19776 -4.28541 0
M  V30 6017 H 580.812 -1.53665 -3.86902 0
M  V30 6018 H 581.345 -2.84271 -2.78271 0
M  V30 6019 H 578.084 -5.8331 -2.99047 0
M  V30 6020 H 577.604 -4.4586 -4.01209 0
M  V30 6021 H 579.283 -5.05225 -4.04174 0
M  V30 6022 N 579.415 0.9433 -1.26252 0
M  V30 6023 C 580.664 1.68369 -1.11062 0
M  V30 6024 C 580.977 1.92514 0.346104 0
M  V30 6025 O 582.183 2.64358 0.618646 0
M  V30 6026 C 580.639 3.03171 -1.93946 0
M  V30 6027 C 580.247 2.86782 -3.4418 0
M  V30 6028 C 581.991 3.80916 -1.87359 0
M  V30 6029 C 579.898 4.17044 -4.19319 0
M  V30 6030 H 578.828 0.631469 -0.412023 0
M  V30 6031 H 581.479 1.04922 -1.50544 0
M  V30 6032 H 579.861 3.67587 -1.47296 0
M  V30 6033 H 581.035 2.31229 -3.98585 0
M  V30 6034 H 579.35 2.22482 -3.51981 0
M  V30 6035 H 581.947 4.77417 -2.40784 0
M  V30 6036 H 582.29 4.07658 -0.843857 0
M  V30 6037 H 582.823 3.2327 -2.31821 0
M  V30 6038 H 579.562 3.95487 -5.22753 0
M  V30 6039 H 579.082 4.72319 -3.69696 0
M  V30 6040 H 580.761 4.85513 -4.27651 0
M  V30 6041 N 580.893 1.08022 1.14757 0
M  V30 6042 C 582.139 0.808705 1.85978 0
M  V30 6043 C 582.472 -0.663764 1.82504 0
M  V30 6044 O 581.747 -1.48765 1.25296 0
M  V30 6045 C 582.03 1.32623 3.34788 0
M  V30 6046 C 581.883 2.86375 3.46856 0
M  V30 6047 C 583.202 0.948291 4.29762 0
M  V30 6048 H 580.321 0.295244 0.675278 0
M  V30 6049 H 582.963 1.33917 1.34783 0
M  V30 6050 H 581.113 0.875002 3.78518 0
M  V30 6051 H 582.785 3.39839 3.11941 0
M  V30 6052 H 581.028 3.24232 2.88194 0
M  V30 6053 H 581.699 3.17658 4.51439 0
M  V30 6054 H 584.175 1.33722 3.94028 0
M  V30 6055 H 583.051 1.33765 5.32352 0
M  V30 6056 H 583.312 -0.145094 4.41862 0
M  V30 6057 N 582.371 -1.3172 0.865308 0
M  V30 6058 C 583.601 -2.00765 0.487543 0
M  V30 6059 C 584.009 -1.65145 -0.92325 0
M  V30 6060 O 583.352 -0.874294 -1.61561 0
M  V30 6061 C 583.414 -3.55122 0.559369 0
M  V30 6062 C 583.078 -4.14202 1.93095 0
M  V30 6063 C 584.075 -4.3165 2.89784 0
M  V30 6064 C 581.76 -4.50036 2.23099 0
M  V30 6065 C 583.754 -4.84114 4.14623 0
M  V30 6066 C 581.441 -5.02203 3.48189 0
M  V30 6067 C 582.439 -5.19192 4.43767 0
M  V30 6068 O 582.127 -5.70241 5.6664 0
M  V30 6069 H 581.859 -0.649066 0.188915 0
M  V30 6070 H 584.413 -1.69032 1.16694 0
M  V30 6071 H 582.643 -3.86295 -0.176926 0
M  V30 6072 H 584.332 -4.05428 0.195694 0
M  V30 6073 H 585.098 -4.04288 2.6791 0
M  V30 6074 H 580.977 -4.36091 1.49485 0
M  V30 6075 H 584.521 -4.9729 4.89233 0
M  V30 6076 H 580.418 -5.28997 3.69908 0
M  V30 6077 H 581.186 -5.88617 5.68746 0
M  V30 6078 N 583.85 -0.624285 -1.44708 0
M  V30 6079 C 585.096 -0.126237 -2.02407 0
M  V30 6080 C 585.428 1.24618 -1.48943 0
M  V30 6081 O 584.704 1.82569 -0.670742 0
M  V30 6082 C 584.986 -0.105449 -3.59946 0
M  V30 6083 C 584.84 -1.50972 -4.23707 0
M  V30 6084 C 586.159 0.573629 -4.36346 0
M  V30 6085 H 583.278 -0.0473472 -0.735478 0
M  V30 6086 H 585.92 -0.799452 -1.72362 0
M  V30 6087 H 584.07 0.46783 -3.85673 0
M  V30 6088 H 585.742 -2.13136 -4.0911 0
M  V30 6089 H 583.985 -2.0656 -3.81465 0
M  V30 6090 H 584.656 -1.44727 -5.32689 0
M  V30 6091 H 587.132 0.0861787 -4.16011 0
M  V30 6092 H 586.008 0.557338 -5.46063 0
M  V30 6093 H 586.269 1.64276 -4.10446 0
M  V30 6094 N 585.328 1.53329 -0.364422 0
M  V30 6095 C 586.275 2.25698 0.482607 0
M  V30 6096 C 587.245 1.26325 1.07848 0
M  V30 6097 O 588.43 1.55104 1.11119 0
M  V30 6098 C 585.57 3.04873 1.61699 0
M  V30 6099 C 584.683 4.19135 1.0464 0
M  V30 6100 C 583.818 4.85754 2.14979 0
M  V30 6101 C 582.857 5.9205 1.5538 0
M  V30 6102 N 581.994 6.52365 2.59547 0
M  V30 6103 H 586.834 2.97666 -0.141032 0
M  V30 6104 H 584.371 1.46875 -0.0813692 0
M  V30 6105 H 586.329 3.49051 2.28516 0
M  V30 6106 H 584.959 2.35162 2.2113 0
M  V30 6107 H 584.011 3.79451 0.268553 0
M  V30 6108 H 585.323 4.95525 0.570653 0
M  V30 6109 H 584.477 5.3311 2.89619 0
M  V30 6110 H 583.216 4.08834 2.65906 0
M  V30 6111 H 582.221 5.44058 0.792549 0
M  V30 6112 H 583.446 6.7089 1.0528 0
M  V30 6113 H 581.392 5.78298 3.09689 0
M  V30 6114 H 581.309 7.2429 2.16655 0
M  V30 6115 H 582.577 7.0437 3.33892 0
M  V30 6116 N 586.806 0.0935595 1.57322 0
M  V30 6117 C 588.055 -0.570191 1.93473 0
M  V30 6118 C 588.368 -1.69434 0.977318 0
M  V30 6119 O 589.574 -2.41914 1.23248 0
M  V30 6120 C 588.03 -1.06564 3.43762 0
M  V30 6121 C 587.638 0.0286723 4.47991 0
M  V30 6122 C 589.382 -1.70221 3.88877 0
M  V30 6123 C 587.289 -0.482046 5.89432 0
M  V30 6124 H 586.219 -0.216764 0.72217 0
M  V30 6125 H 588.87 0.169313 1.82717 0
M  V30 6126 H 587.252 -1.85878 3.49664 0
M  V30 6127 H 588.426 0.804106 4.5373 0
M  V30 6128 H 586.741 0.570336 4.12476 0
M  V30 6129 H 589.338 -2.09502 4.91948 0
M  V30 6130 H 589.681 -2.57078 3.27439 0
M  V30 6131 H 590.214 -0.974919 3.85668 0
M  V30 6132 H 586.953 0.349871 6.54566 0
M  V30 6133 H 586.473 -1.22452 5.87167 0
M  V30 6134 H 588.152 -0.951508 6.39965 0
M  V30 6135 N 588.284 -1.56567 -0.180126 0
M  V30 6136 C 589.509 -1.85975 -0.918041 0
M  V30 6137 C 589.934 -0.678888 -1.75422 0
M  V30 6138 O 589.292 0.372168 -1.77439 0
M  V30 6139 C 589.34 -3.13731 -1.77779 0
M  V30 6140 O 588.444 -2.95335 -2.87838 0
M  V30 6141 H 587.785 -0.61196 -0.257683 0
M  V30 6142 H 590.315 -2.03798 -0.180923 0
M  V30 6143 H 590.325 -3.4491 -2.17948 0
M  V30 6144 H 589 -3.99293 -1.16352 0
M  V30 6145 H 587.577 -2.7549 -2.51316 0
M  V30 6146 N 589.762 0.448376 -1.51087 0
M  V30 6147 C 590.987 1.22605 -1.6728 0
M  V30 6148 C 591.412 1.84524 -0.365045 0
M  V30 6149 O 590.77 1.6832 0.673642 0
M  V30 6150 C 590.818 2.29393 -2.78229 0
M  V30 6151 O 589.922 3.34608 -2.41063 0
M  V30 6152 H 589.263 0.359705 -0.558129 0
M  V30 6153 H 591.793 0.530903 -1.97592 0
M  V30 6154 H 591.803 2.74352 -3.01986 0
M  V30 6155 H 590.478 1.83701 -3.73131 0
M  V30 6156 H 589.055 2.95202 -2.27838 0
M  V30 6157 N 591.24 1.41047 0.703093 0
M  V30 6158 C 592.651 1.35657 1.28274 0
M  V30 6159 C 593.002 0.0360309 1.96167 0
M  V30 6160 O 592.127 -0.865833 1.98324 0
M  V30 6161 C 592.722 2.45707 2.33267 0
M  V30 6162 C 591.281 2.43738 2.86825 0
M  V30 6163 C 590.428 2.25941 1.60767 0
M  V30 6164 H 593.379 1.50672 0.49836 0
M  V30 6165 H 593.4 2.14333 3.14391 0
M  V30 6166 H 592.912 3.41805 1.83824 0
M  V30 6167 H 591.013 1.51375 3.40465 0
M  V30 6168 H 591.126 3.39779 3.37768 0
M  V30 6169 H 589.49 1.73681 1.86298 0
M  V30 6170 H 590.273 3.24054 1.1333 0
M  V30 6171 N 592.718 -0.936591 1.26751 0
M  V30 6172 C 593.665 -2.03597 1.08706 0
M  V30 6173 C 594.635 -1.66097 -0.00926542 0
M  V30 6174 O 595.82 -1.90199 0.151377 0
M  V30 6175 C 592.96 -3.3727 0.73094 0
M  V30 6176 C 592.073 -3.87778 1.90399 0
M  V30 6177 C 591.208 -5.09859 1.49056 0
M  V30 6178 C 590.247 -5.5264 2.63164 0
M  V30 6179 N 589.384 -6.65921 2.22471 0
M  V30 6180 H 594.224 -2.18364 2.02784 0
M  V30 6181 H 591.761 -1.06985 1.00958 0
M  V30 6182 H 593.719 -4.14128 0.505328 0
M  V30 6183 H 592.349 -3.22337 -0.172868 0
M  V30 6184 H 591.401 -3.07279 2.2424 0
M  V30 6185 H 592.713 -4.15464 2.76028 0
M  V30 6186 H 591.867 -5.9419 1.22567 0
M  V30 6187 H 590.606 -4.8393 0.60524 0
M  V30 6188 H 589.611 -4.66863 2.90377 0
M  V30 6189 H 590.836 -5.80568 3.52303 0
M  V30 6190 H 588.782 -6.41667 1.36379 0
M  V30 6191 H 588.699 -6.93216 3.01641 0
M  V30 6192 H 589.967 -7.53616 1.99205 0
M  V30 6193 N 594.196 -1.08629 -1.14182 0
M  V30 6194 C 595.442 -0.818556 -1.85546 0
M  V30 6195 C 595.775 0.654076 -1.82854 0
M  V30 6196 O 595.05 1.48099 -1.26083 0
M  V30 6197 C 595.333 -1.34397 -3.3408 0
M  V30 6198 C 595.186 -2.8821 -3.45333 0
M  V30 6199 C 596.505 -0.971069 -4.29253 0
M  V30 6200 H 593.624 -0.298821 -0.673702 0
M  V30 6201 H 596.266 -1.34629 -1.34071 0
M  V30 6202 H 594.416 -0.895064 -3.78049 0
M  V30 6203 H 596.088 -3.41488 -3.10134 0
M  V30 6204 H 594.331 -3.25756 -2.86471 0
M  V30 6205 H 595.002 -3.20047 -4.49749 0
M  V30 6206 H 597.478 -1.35809 -3.93313 0
M  V30 6207 H 596.354 -1.36586 -5.31635 0
M  V30 6208 H 596.615 0.121659 -4.41933 0
M  V30 6209 N 595.674 1.31259 -0.872281 0
M  V30 6210 C 596.604 2.30929 -0.345554 0
M  V30 6211 C 597.585 1.60449 0.5648 0
M  V30 6212 O 598.77 1.8814 0.481335 0
M  V30 6213 C 595.9 3.44348 0.451823 0
M  V30 6214 C 594.854 4.26435 -0.365641 0
M  V30 6215 C 594.18 5.31785 0.557562 0
M  V30 6216 C 595.48 4.97159 -1.60095 0
M  V30 6217 H 597.174 2.75234 -1.17841 0
M  V30 6218 H 594.72 1.3232 -0.568094 0
M  V30 6219 H 596.673 4.13128 0.830854 0
M  V30 6220 H 595.397 2.98816 1.31821 0
M  V30 6221 H 594.056 3.59326 -0.726649 0
M  V30 6222 H 593.704 4.82502 1.4213 0
M  V30 6223 H 593.404 5.87598 0.0144878 0
M  V30 6224 H 594.928 6.03424 0.933387 0
M  V30 6225 H 596.342 5.58523 -1.29323 0
M  V30 6226 H 594.739 5.62779 -2.08327 0
M  V30 6227 H 595.809 4.24012 -2.35249 0
M  V30 6228 N 597.152 0.631951 1.44375 0
M  V30 6229 C 598.084 -0.110911 2.28931 0
M  V30 6230 C 599.097 -0.808086 1.41329 0
M  V30 6231 O 600.286 -0.669396 1.65473 0
M  V30 6232 C 597.386 -1.17928 3.1772 0
M  V30 6233 C 596.559 -0.564458 4.33743 0
M  V30 6234 C 595.618 -1.5269 5.0356 0
M  V30 6235 O 594.644 -1.04372 5.59549 0
M  V30 6236 N 595.846 -2.86123 5.05088 0
M  V30 6237 H 598.611 0.614758 2.93327 0
M  V30 6238 H 596.172 0.473171 1.54831 0
M  V30 6239 H 598.164 -1.82348 3.61291 0
M  V30 6240 H 596.734 -1.80717 2.55069 0
M  V30 6241 H 595.954 0.258373 3.93352 0
M  V30 6242 H 597.242 -0.134355 5.08623 0
M  V30 6243 H 596.64 -3.27959 4.60933 0
M  V30 6244 H 595.197 -3.45901 5.52445 0
M  V30 6245 N 598.631 -1.53133 0.372548 0
M  V30 6246 C 600.047 -1.59585 0.02178 0
M  V30 6247 C 600.247 -1.38736 -1.46132 0
M  V30 6248 O 599.303 -1.19599 -2.22379 0
M  V30 6249 C 600.616 -2.9678 0.483959 0
M  V30 6250 C 602.164 -3.09909 0.438775 0
M  V30 6251 C 602.639 -4.49527 0.876876 0
M  V30 6252 N 604.13 -4.55663 0.832214 0
M  V30 6253 C 604.865 -5.61896 1.14281 0
M  V30 6254 N 604.361 -6.75852 1.52303 0
M  V30 6255 N 606.154 -5.51916 1.06515 0
M  V30 6256 H 598.305 -1.64936 1.33827 0
M  V30 6257 H 600.568 -0.773947 0.547458 0
M  V30 6258 H 600.274 -3.17198 1.51915 0
M  V30 6259 H 600.148 -3.7699 -0.125784 0
M  V30 6260 H 602.535 -2.89197 -0.587294 0
M  V30 6261 H 602.616 -2.31691 1.0841 0
M  V30 6262 H 602.26 -4.70979 1.90109 0
M  V30 6263 H 602.19 -5.26186 0.208727 0
M  V30 6264 H 604.681 -3.73844 0.552195 0
M  V30 6265 H 604.994 -7.52862 1.7441 0
M  V30 6266 H 603.339 -6.77226 1.56175 0
M  V30 6267 H 606.53 -4.6177 0.767235 0
M  V30 6268 H 606.703 -6.34609 1.31053 0
M  V30 6269 N 600.109 -0.101901 -1.5727 0
M  V30 6270 C 601.039 0.851544 -2.17419 0
M  V30 6271 C 602.02 1.28942 -1.10941 0
M  V30 6272 O 603.205 1.35509 -1.39107 0
M  V30 6273 C 600.335 2.10816 -2.75996 0
M  V30 6274 C 599.289 1.80867 -3.87906 0
M  V30 6275 C 598.615 3.13413 -4.33216 0
M  V30 6276 C 599.915 1.0903 -5.10793 0
M  V30 6277 H 601.609 0.350381 -2.97343 0
M  V30 6278 H 599.155 0.16709 -1.43027 0
M  V30 6279 H 601.108 2.77959 -3.16729 0
M  V30 6280 H 599.832 2.63227 -1.93337 0
M  V30 6281 H 598.491 1.16119 -3.47724 0
M  V30 6282 H 598.139 3.63725 -3.47438 0
M  V30 6283 H 597.839 2.94155 -5.08671 0
M  V30 6284 H 599.363 3.81704 -4.76586 0
M  V30 6285 H 600.777 1.66295 -5.48652 0
M  V30 6286 H 599.174 0.99927 -5.91722 0
M  V30 6287 H 600.244 0.0741704 -4.84843 0
M  V30 6288 N 601.587 1.56661 0.17182 0
M  V30 6289 C 602.836 1.81158 0.886831 0
M  V30 6290 C 603.149 0.679072 1.83434 0
M  V30 6291 O 604.355 0.808964 2.59168 0
M  V30 6292 C 602.811 3.20999 1.6275 0
M  V30 6293 C 602.419 4.42117 0.723652 0
M  V30 6294 C 604.163 3.5479 2.33076 0
M  V30 6295 C 602.07 5.7298 1.46452 0
M  V30 6296 H 601 0.675543 0.334899 0
M  V30 6297 H 603.651 1.82967 0.139765 0
M  V30 6298 H 602.033 3.13506 2.4193 0
M  V30 6299 H 603.207 4.60789 -0.0311485 0
M  V30 6300 H 601.522 4.16197 0.130063 0
M  V30 6301 H 604.119 4.49806 2.89099 0
M  V30 6302 H 604.462 2.79646 3.08389 0
M  V30 6303 H 604.995 3.63834 1.6084 0
M  V30 6304 H 601.734 6.51152 0.753729 0
M  V30 6305 H 601.254 5.58285 2.19266 0
M  V30 6306 H 602.933 6.14916 2.01214 0
M  V30 6307 N 603.065 -0.440357 1.51323 0
M  V30 6308 C 604.012 -1.53429 1.72419 0
M  V30 6309 C 604.982 -1.56165 0.565826 0
M  V30 6310 O 606.167 -1.73222 0.799917 0
M  V30 6311 C 603.307 -2.91169 1.85242 0
M  V30 6312 C 602.42 -2.97985 3.12777 0
M  V30 6313 C 601.555 -4.26829 3.16212 0
M  V30 6314 C 600.594 -4.27501 4.38074 0
M  V30 6315 N 599.731 -5.47866 4.39076 0
M  V30 6316 H 604.571 -1.34743 2.65797 0
M  V30 6317 H 602.108 -0.654608 1.31732 0
M  V30 6318 H 604.066 -3.71087 1.90658 0
M  V30 6319 H 602.696 -3.0842 0.952744 0
M  V30 6320 H 601.748 -2.10749 3.16685 0
M  V30 6321 H 603.06 -2.94342 4.02696 0
M  V30 6322 H 602.214 -5.15118 3.20527 0
M  V30 6323 H 600.953 -4.33124 2.24176 0
M  V30 6324 H 599.958 -3.37606 4.33938 0
M  V30 6325 H 601.183 -4.22873 5.31371 0
M  V30 6326 H 599.129 -5.54887 3.49909 0
M  V30 6327 H 599.046 -5.46091 5.22801 0
M  V30 6328 H 600.314 -6.38195 4.4758 0
M  V30 6329 N 604.543 -1.41418 -0.695603 0
M  V30 6330 C 605.768 -1.44329 -1.48942 0
M  V30 6331 C 606.193 -0.0501579 -1.88033 0
M  V30 6332 O 605.551 0.946598 -1.54626 0
M  V30 6333 C 605.599 -2.3578 -2.72837 0
M  V30 6334 O 604.703 -1.81482 -3.70322 0
M  V30 6335 H 604.044 -0.489838 -0.44828 0
M  V30 6336 H 606.574 -1.85878 -0.855014 0
M  V30 6337 H 606.584 -2.51654 -3.21145 0
M  V30 6338 H 605.259 -3.37005 -2.43722 0
M  V30 6339 H 603.836 -1.75058 -3.29255 0
M  V30 6340 N 606.021 0.929856 -1.27246 0
M  V30 6341 C 607.437 1.20542 -1.04603 0
M  V30 6342 C 607.637 2.00276 0.221754 0
M  V30 6343 O 606.693 2.34835 0.927833 0
M  V30 6344 C 608.006 1.95566 -2.28417 0
M  V30 6345 C 609.554 2.08513 -2.33433 0
M  V30 6346 C 610.029 2.86943 -3.5697 0
M  V30 6347 N 611.52 2.94512 -3.57515 0
M  V30 6348 C 612.255 3.55656 -4.49774 0
M  V30 6349 N 611.751 4.18209 -5.52334 0
M  V30 6350 N 613.544 3.53038 -4.37402 0
M  V30 6351 H 605.695 0.397113 -2.08655 0
M  V30 6352 H 607.958 0.238277 -0.917566 0
M  V30 6353 H 607.664 1.44395 -3.20691 0
M  V30 6354 H 607.538 2.9619 -2.33563 0
M  V30 6355 H 609.925 2.58872 -1.41666 0
M  V30 6356 H 610.006 1.07117 -2.32292 0
M  V30 6357 H 609.65 2.37268 -4.49072 0
M  V30 6358 H 609.58 3.8862 -3.55362 0
M  V30 6359 H 612.071 2.50053 -2.83341 0
M  V30 6360 H 612.384 4.62796 -6.18902 0
M  V30 6361 H 610.729 4.16761 -5.56179 0
M  V30 6362 H 613.92 3.0337 -3.56489 0
M  V30 6363 H 614.093 4.004 -5.09493 0
M  V30 6364 N 607.499 1.09233 1.13605 0
M  V30 6365 C 608.747 0.825525 1.84471 0
M  V30 6366 C 609.068 -0.650702 1.83823 0
M  V30 6367 O 608.338 -1.47204 1.29259 0
M  V30 6368 H 606.918 0.3024 0.683054 0
M  V30 6369 H 609.58 1.38006 1.37624 0
M  V30 6370 H 608.676 1.17727 2.89045 0
M  V30 6371 N 608.977 -1.30795 0.87923 0
M  V30 6372 C 609.924 -2.28282 0.339968 0
M  V30 6373 C 610.894 -1.56134 -0.566685 0
M  V30 6374 O 612.079 -1.84231 -0.496338 0
M  V30 6375 C 609.219 -3.42225 -0.444501 0
M  V30 6376 C 608.332 -4.29204 0.490717 0
M  V30 6377 C 607.467 -5.30302 -0.308784 0
M  V30 6378 C 606.506 -6.08929 0.622272 0
M  V30 6379 N 605.643 -7.01957 -0.14155 0
M  V30 6380 H 610.483 -2.73794 1.17647 0
M  V30 6381 H 608.02 -1.34682 0.591527 0
M  V30 6382 H 609.978 -4.07038 -0.915186 0
M  V30 6383 H 608.608 -2.97799 -1.24562 0
M  V30 6384 H 607.66 -3.6475 1.07988 0
M  V30 6385 H 608.972 -4.84045 1.20425 0
M  V30 6386 H 608.126 -6.00835 -0.841575 0
M  V30 6387 H 606.865 -4.7614 -1.05556 0
M  V30 6388 H 605.87 -5.37278 1.16674 0
M  V30 6389 H 607.095 -6.65178 1.36804 0
M  V30 6390 H 605.041 -6.50192 -0.870966 0
M  V30 6391 H 604.958 -7.54261 0.51246 0
M  V30 6392 H 606.226 -7.76741 -0.655271 0
M  V30 6393 N 610.455 -0.639598 -1.44038 0
M  V30 6394 C 611.68 -0.153117 -2.06834 0
M  V30 6395 C 612.105 1.16676 -1.47541 0
M  V30 6396 O 611.463 1.71769 -0.580093 0
M  V30 6397 C 611.511 -0.0609169 -3.60549 0
M  V30 6398 O 610.615 0.98071 -4.00569 0
M  V30 6399 H 609.956 -0.0886402 -0.658057 0
M  V30 6400 H 612.486 -0.878674 -1.84771 0
M  V30 6401 H 612.496 0.126892 -4.07803 0
M  V30 6402 H 611.171 -1.0245 -4.03084 0
M  V30 6403 H 609.748 0.766789 -3.64931 0
M  V30 6404 N 611.933 1.52934 -0.380664 0
M  V30 6405 C 612.865 2.23822 0.493581 0
M  V30 6406 C 613.878 1.25761 1.03383 0
M  V30 6407 O 615.067 1.5189 0.937633 0
M  V30 6408 C 612.167 2.9342 1.69582 0
M  V30 6409 C 611.34 4.18115 1.28445 0
M  V30 6410 C 610.399 4.70788 2.35042 0
M  V30 6411 O 609.425 5.34093 1.96807 0
M  V30 6412 N 610.627 4.49899 3.66839 0
M  V30 6413 H 613.392 2.99484 -0.11371 0
M  V30 6414 H 610.953 1.60577 -0.206587 0
M  V30 6415 H 612.945 3.2556 2.40401 0
M  V30 6416 H 611.515 2.21119 2.20965 0
M  V30 6417 H 610.735 3.92109 0.405503 0
M  V30 6418 H 612.023 4.99152 0.986132 0
M  V30 6419 H 611.421 3.99349 4.0067 0
M  V30 6420 H 609.978 4.86551 4.33718 0
M  V30 6421 N 613.412 0.11024 1.57214 0
M  V30 6422 C 614.375 -0.828808 2.1369 0
M  V30 6423 C 615.375 -1.20059 1.06969 0
M  V30 6424 O 616.565 -1.12754 1.32786 0
M  V30 6425 C 613.697 -2.11959 2.66994 0
M  V30 6426 H 614.89 -0.338146 2.97988 0
M  V30 6427 H 612.443 -0.138913 1.55681 0
M  V30 6428 H 613.178 -2.65476 1.8626 0
M  V30 6429 H 612.963 -1.86258 3.45037 0
M  V30 6430 H 614.453 -2.79105 3.10629 0
M  V30 6431 N 614.89 -1.56749 -0.16351 0
M  V30 6432 C 615.837 -1.97011 -1.2023 0
M  V30 6433 C 616.807 -0.835186 -1.43575 0
M  V30 6434 O 617.992 -1.09594 -1.56185 0
M  V30 6435 C 615.132 -2.34186 -2.53478 0
M  V30 6436 C 614.245 -3.60893 -2.37446 0
M  V30 6437 C 613.38 -3.87245 -3.63614 0
M  V30 6438 C 612.419 -5.07274 -3.42548 0
M  V30 6439 N 611.556 -5.29719 -4.60806 0
M  V30 6440 H 616.396 -2.85562 -0.851958 0
M  V30 6441 H 613.933 -1.41292 -0.409257 0
M  V30 6442 H 615.891 -2.53764 -3.31149 0
M  V30 6443 H 614.521 -1.48736 -2.86492 0
M  V30 6444 H 613.573 -3.49185 -1.50911 0
M  V30 6445 H 614.885 -4.48722 -2.1783 0
M  V30 6446 H 614.039 -4.07232 -4.49719 0
M  V30 6447 H 612.778 -2.97806 -3.86216 0
M  V30 6448 H 611.783 -4.87177 -2.5483 0
M  V30 6449 H 613.008 -5.98251 -3.2136 0
M  V30 6450 H 610.954 -4.43233 -4.83612 0
M  V30 6451 H 610.871 -6.11786 -4.44132 0
M  V30 6452 H 612.139 -5.54192 -5.48171 0
M  V30 6453 N 616.368 0.432326 -1.51554 0
M  V30 6454 C 617.318 1.52366 -1.69614 0
M  V30 6455 C 618.302 1.51205 -0.550083 0
M  V30 6456 O 619.494 1.57573 -0.806206 0
M  V30 6457 C 616.623 2.90513 -1.82913 0
M  V30 6458 C 615.709 2.9641 -3.03318 0
M  V30 6459 N 616.1 2.72043 -4.26411 0
M  V30 6460 C 614.398 3.27572 -3.02675 0
M  V30 6461 C 615.099 2.83912 -5.07709 0
M  V30 6462 N 614.075 3.15798 -4.42462 0
M  V30 6463 H 617.877 1.32285 -2.62446 0
M  V30 6464 H 615.391 0.639708 -1.4927 0
M  V30 6465 H 617.388 3.69032 -1.93962 0
M  V30 6466 H 616.048 3.1161 -0.912655 0
M  V30 6467 H 617.059 2.46876 -4.55272 0
M  V30 6468 H 613.736 3.54411 -2.20678 0
M  V30 6469 H 615.126 2.68984 -6.15709 0
M  V30 6470 N 617.846 1.41785 0.688094 0
M  V30 6471 C 618.776 1.47 1.8142 0
M  V30 6472 C 619.757 0.327881 1.6691 0
M  V30 6473 O 620.942 0.540362 1.86531 0
M  V30 6474 C 618.072 1.35876 3.19617 0
M  V30 6475 C 617.026 2.47976 3.48844 0
M  V30 6476 C 616.352 2.21915 4.86475 0
M  V30 6477 C 617.652 3.90309 3.47068 0
M  V30 6478 H 619.346 2.41247 1.77314 0
M  V30 6479 H 616.892 1.16116 0.851651 0
M  V30 6480 H 618.845 1.38134 3.98117 0
M  V30 6481 H 617.569 0.38116 3.24368 0
M  V30 6482 H 616.228 2.45013 2.72698 0
M  V30 6483 H 615.876 1.2248 4.8786 0
M  V30 6484 H 615.576 2.97037 5.06994 0
M  V30 6485 H 617.1 2.25901 5.67275 0
M  V30 6486 H 618.514 3.94947 4.1556 0
M  V30 6487 H 616.911 4.65175 3.7912 0
M  V30 6488 H 617.981 4.17927 2.45896 0
M  V30 6489 N 619.324 -0.923095 1.27737 0
M  V30 6490 C 620.272 -2.04567 1.10703 0
M  V30 6491 C 621.266 -1.69375 0.0288445 0
M  V30 6492 O 622.472 -1.79027 0.186913 0
M  V30 6493 H 618.847 -0.670109 0.34126 0
M  V30 6494 H 620.818 -2.1608 2.05796 0
M  V30 6495 C 619.567 -3.38934 0.775837 0
M  V30 6496 H 618.89 -3.66501 1.59741 0
M  V30 6497 H 620.33 -4.18239 0.696548 0
M  V30 6498 C 618.789 -3.32863 -0.520012 0
M  V30 6499 O 619.319 -3.70462 -1.55308 0
M  V30 6500 N 617.525 -2.85958 -0.51732 0
M  V30 6501 H 617.072 -2.55557 0.32379 0
M  V30 6502 H 617.03 -2.82279 -1.38441 0
M  V30 6503 N 620.802 -1.09834 -1.13024 0
M  V30 6504 C 622.048 -0.83819 -1.84668 0
M  V30 6505 C 622.381 0.634645 -1.83537 0
M  V30 6506 O 621.656 1.46753 -1.27647 0
M  V30 6507 C 621.939 -1.37933 -3.32636 0
M  V30 6508 C 621.792 -2.91857 -3.42257 0
M  V30 6509 C 623.111 -1.01654 -4.28199 0
M  V30 6510 H 620.23 -0.30595 -0.670495 0
M  V30 6511 H 622.872 -1.36044 -1.32635 0
M  V30 6512 H 621.022 -0.935111 -3.77078 0
M  V30 6513 H 622.694 -3.44759 -3.06495 0
M  V30 6514 H 620.937 -3.28776 -2.83 0
M  V30 6515 H 621.608 -3.24799 -4.46329 0
M  V30 6516 H 624.084 -1.39973 -3.9185 0
M  V30 6517 H 622.96 -1.42217 -5.30156 0
M  V30 6518 H 623.221 0.0747794 -4.42037 0
M  V30 6519 N 622.28 1.30327 -0.886154 0
M  V30 6520 C 623.212 2.27079 -0.311072 0
M  V30 6521 C 624.225 1.53758 0.53502 0
M  V30 6522 O 625.414 1.74947 0.354378 0
M  V30 6523 C 622.514 3.33965 0.576228 0
M  V30 6524 C 621.687 4.36735 -0.241064 0
M  V30 6525 C 620.746 5.23028 0.576916 0
M  V30 6526 O 619.772 5.692 -0.000802231 0
M  V30 6527 N 620.974 5.49016 1.88579 0
M  V30 6528 H 623.739 2.77065 -1.14259 0
M  V30 6529 H 621.3 1.43519 -0.749258 0
M  V30 6530 H 623.292 3.88618 1.12953 0
M  V30 6531 H 621.862 2.839 1.30842 0
M  V30 6532 H 621.082 3.81932 -0.975805 0
M  V30 6533 H 622.37 5.02451 -0.801272 0
M  V30 6534 H 621.768 5.13288 2.37806 0
M  V30 6535 H 620.325 6.06539 2.38651 0
M  V30 6536 N 623.758 0.647228 1.43697 0
M  V30 6537 C 624.691 -0.097646 2.27991 0
M  V30 6538 C 625.669 -0.83571 1.3948 0
M  V30 6539 O 626.853 -0.836509 1.68922 0
M  V30 6540 C 623.98 -1.14484 3.18765 0
M  V30 6541 C 623.026 -0.505503 4.23494 0
M  V30 6542 S 623.859 0.716471 5.30685 0
M  V30 6543 C 625.015 -0.330339 6.25028 0
M  V30 6544 H 625.248 0.617417 2.90818 0
M  V30 6545 H 622.781 0.435881 1.4812 0
M  V30 6546 H 624.739 -1.74403 3.7161 0
M  V30 6547 H 623.4 -1.83219 2.55127 0
M  V30 6548 H 622.593 -1.29473 4.87086 0
M  V30 6549 H 622.195 0.0194377 3.73995 0
M  V30 6550 H 624.487 -1.19828 6.66819 0
M  V30 6551 H 625.43 0.270409 7.07583 0
M  V30 6552 H 625.838 -0.663459 5.60588 0
M  V30 6553 N 625.236 -1.5273 0.388769 0
M  V30 6554 C 626.482 -2.01871 -0.193877 0
M  V30 6555 C 626.815 -1.27475 -1.46505 0
M  V30 6556 O 626.09 -0.375063 -1.90849 0
M  V30 6557 C 626.373 -3.5712 -0.462336 0
M  V30 6558 C 626.226 -4.42186 0.824091 0
M  V30 6559 C 627.545 -4.21881 -1.25319 0
M  V30 6560 H 624.664 -0.733764 -0.0689899 0
M  V30 6561 H 627.306 -1.82796 0.518231 0
M  V30 6562 H 625.456 -3.73504 -1.06896 0
M  V30 6563 H 627.128 -4.37554 1.46096 0
M  V30 6564 H 625.371 -4.09219 1.43952 0
M  V30 6565 H 626.042 -5.48828 0.590905 0
M  V30 6566 H 628.518 -4.0947 -0.73981 0
M  V30 6567 H 627.394 -5.30487 -1.40977 0
M  V30 6568 H 627.655 -3.79478 -2.26824 0
M  V30 6569 N 626.714 -0.118576 -1.57153 0
M  V30 6570 C 627.677 0.817464 -2.14127 0
M  V30 6571 C 628.677 1.1949 -1.07604 0
M  V30 6572 O 629.867 1.12048 -1.33382 0
M  V30 6573 C 626.999 2.10541 -2.68115 0
M  V30 6574 H 628.192 0.322339 -2.98163 0
M  V30 6575 H 625.745 0.130655 -1.55753 0
M  V30 6576 H 626.48 2.64485 -1.87665 0
M  V30 6577 H 626.265 1.84425 -3.4602 0
M  V30 6578 H 627.755 2.77453 -3.12105 0
M  V30 6579 N 628.193 1.56834 0.155195 0
M  V30 6580 C 629.156 1.96748 1.17571 0
M  V30 6581 C 630.156 0.853006 1.3631 0
M  V30 6582 O 631.346 1.11978 1.33441 0
M  V30 6583 C 628.478 2.27631 2.53765 0
M  V30 6584 H 629.671 2.88085 0.833498 0
M  V30 6585 H 627.224 1.51141 0.398242 0
M  V30 6586 H 627.959 1.39059 2.92973 0
M  V30 6587 H 627.744 3.0888 2.41527 0
M  V30 6588 H 629.234 2.59377 3.27282 0
M  V30 6589 N 629.671 -0.424282 1.51781 0
M  V30 6590 C 630.948 -1.18464 1.55646 0
M  V30 6591 C 631.328 -2.08529 0.328438 0
M  V30 6592 O 630.676 -2.17969 -0.685693 0
M  V30 6593 C 630.886 -1.97514 2.87731 0
M  V30 6594 C 632.234 -2.54106 3.40169 0
M  V30 6595 O 633.258 -2.07711 2.89369 0
M  V30 6596 O 632.117 -3.38759 4.28841 0
M  V30 6597 H 629.211 -0.540055 0.626314 0
M  V30 6598 H 631.757 -0.432291 1.64102 0
M  V30 6599 H 630.529 -1.31444 3.68562 0
M  V30 6600 H 630.152 -2.79787 2.82498 0
M  V30 6601 N 631.149 -1.42148 -0.680565 0
M  V30 6602 C 632.096 -1.45175 -1.79424 0
M  V30 6603 C 633.066 -0.304352 -1.63288 0
M  V30 6604 O 634.251 -0.507591 -1.83924 0
M  V30 6605 C 631.391 -1.35429 -3.17416 0
M  V30 6606 C 630.504 -2.60158 -3.4488 0
M  V30 6607 C 629.639 -2.42596 -4.72568 0
M  V30 6608 C 628.678 -3.62727 -4.93047 0
M  V30 6609 N 627.815 -3.44143 -6.11973 0
M  V30 6610 H 632.655 -2.40349 -1.76172 0
M  V30 6611 H 630.192 -1.19334 -0.860107 0
M  V30 6612 H 632.15 -1.27777 -3.97151 0
M  V30 6613 H 630.78 -0.438536 -3.19807 0
M  V30 6614 H 629.832 -2.78199 -2.5944 0
M  V30 6615 H 631.144 -3.49473 -3.55908 0
M  V30 6616 H 630.298 -2.32497 -5.60384 0
M  V30 6617 H 629.037 -1.50761 -4.63813 0
M  V30 6618 H 628.042 -3.73264 -4.03676 0
M  V30 6619 H 629.267 -4.55534 -5.03652 0
M  V30 6620 H 627.213 -2.5502 -6.04401 0
M  V30 6621 H 627.13 -4.27041 -6.23836 0
M  V30 6622 H 628.398 -3.37845 -7.02482 0
M  V30 6623 N 632.627 0.916307 -1.28225 0
M  V30 6624 C 633.557 2.0352 -1.14464 0
M  V30 6625 C 634.538 1.70045 -0.0430844 0
M  V30 6626 O 635.723 1.92954 -0.219619 0
M  V30 6627 C 632.853 3.37889 -0.803027 0
M  V30 6628 C 631.807 3.85516 -1.85908 0
M  V30 6629 C 631.133 5.1682 -1.37116 0
M  V30 6630 C 632.433 4.07655 -3.26519 0
M  V30 6631 H 634.127 2.1529 -2.08064 0
M  V30 6632 H 631.673 1.03446 -1.00174 0
M  V30 6633 H 633.626 4.15654 -0.693537 0
M  V30 6634 H 632.35 3.26164 0.168674 0
M  V30 6635 H 631.009 3.09953 -1.95767 0
M  V30 6636 H 630.657 5.01497 -0.38859 0
M  V30 6637 H 630.357 5.49657 -2.07728 0
M  V30 6638 H 631.881 5.97143 -1.27484 0
M  V30 6639 H 633.295 4.75953 -3.19596 0
M  V30 6640 H 631.692 4.51818 -3.94943 0
M  V30 6641 H 632.762 3.12553 -3.70727 0
M  V30 6642 N 634.105 1.10431 1.1244 0
M  V30 6643 C 635.068 0.756542 2.16354 0
M  V30 6644 C 636.068 -0.21899 1.59302 0
M  V30 6645 O 637.258 0.00415969 1.742 0
M  V30 6646 C 634.39 0.120612 3.40687 0
M  V30 6647 H 635.583 1.67696 2.48632 0
M  V30 6648 H 633.136 0.904832 1.27446 0
M  V30 6649 H 633.871 -0.810536 3.14008 0
M  V30 6650 H 633.656 0.822693 3.83372 0
M  V30 6651 H 635.146 -0.106945 4.17463 0
M  V30 6652 N 635.583 -1.29855 0.893053 0
M  V30 6653 C 636.515 -2.26911 0.32311 0
M  V30 6654 C 637.528 -1.54039 -0.526858 0
M  V30 6655 O 638.717 -1.75132 -0.345095 0
M  V30 6656 C 635.817 -3.34266 -0.558509 0
M  V30 6657 C 634.99 -4.36601 0.264222 0
M  V30 6658 C 634.049 -5.23326 -0.549171 0
M  V30 6659 O 633.075 -5.69192 0.0309883 0
M  V30 6660 N 634.277 -5.50008 -1.85664 0
M  V30 6661 H 637.042 -2.76455 1.15726 0
M  V30 6662 H 634.603 -1.4312 0.756859 0
M  V30 6663 H 636.595 -3.89211 -1.1089 0
M  V30 6664 H 635.165 -2.8459 -1.29334 0
M  V30 6665 H 634.385 -3.81409 0.996046 0
M  V30 6666 H 635.673 -5.02019 0.827906 0
M  V30 6667 H 635.071 -5.14542 -2.35081 0
M  V30 6668 H 633.628 -6.07796 -2.35431 0
M  V30 6669 N 637.061 -0.65484 -1.43351 0
M  V30 6670 C 638.301 -0.172514 -2.03671 0
M  V30 6671 C 638.665 1.19154 -1.50553 0
M  V30 6672 O 639.866 1.76737 -2.02528 0
M  V30 6673 C 638.137 -0.183982 -3.56926 0
M  V30 6674 S 639.696 0.230262 -4.38195 0
M  V30 6675 H 636.514 -0.0727503 -0.707268 0
M  V30 6676 H 639.116 -0.863537 -1.75395 0
M  V30 6677 H 637.82 -1.17945 -3.93087 0
M  V30 6678 H 637.351 0.527527 -3.89847 0
M  V30 6679 H 639.366 1.46874 -4.73965 0
M  V30 6680 N 638.539 1.52521 -0.396863 0
M  V30 6681 C 639.95 1.86547 0.0754868 0
M  V30 6682 C 640.301 1.31621 1.45501 0
M  V30 6683 O 639.426 0.650563 2.0639 0
M  V30 6684 C 640.021 3.38495 0.143754 0
M  V30 6685 C 638.58 3.72205 0.560413 0
M  V30 6686 C 637.727 2.75954 -0.272856 0
M  V30 6687 H 640.678 1.46323 -0.614434 0
M  V30 6688 H 640.699 3.68153 0.961425 0
M  V30 6689 H 640.211 3.78442 -0.860415 0
M  V30 6690 H 638.312 3.3783 1.57167 0
M  V30 6691 H 638.425 4.78074 0.313314 0
M  V30 6692 H 636.789 2.53339 0.263 0
M  V30 6693 H 637.572 3.1874 -1.27515 0
M  V30 6694 N 640.017 0.126909 1.57088 0
M  V30 6695 C 641.428 -0.397201 1.82426 0
M  V30 6696 C 641.779 -1.66084 1.04453 0
M  V30 6697 O 640.904 -2.14534 0.283552 0
M  V30 6698 C 641.499 -0.727411 3.30899 0
M  V30 6699 C 640.058 -1.19612 3.56889 0
M  V30 6700 C 639.205 -0.20885 2.76512 0
M  V30 6701 H 642.156 0.351924 1.54749 0
M  V30 6702 H 642.177 -1.58407 3.45959 0
M  V30 6703 H 641.689 0.19247 3.87622 0
M  V30 6704 H 639.79 -2.13263 3.05532 0
M  V30 6705 H 639.903 -1.13598 4.65438 0
M  V30 6706 H 638.267 -0.697479 2.44964 0
M  V30 6707 H 639.05 0.704267 3.35998 0
M  V30 6708 N 641.495 -1.56914 -0.146875 0
M  V30 6709 C 642.405 -2.0154 -1.20079 0
M  V30 6710 C 643.421 -0.930838 -1.47008 0
M  V30 6711 O 644.597 -1.24032 -1.58676 0
M  V30 6712 C 641.662 -2.38715 -2.51428 0
M  V30 6713 C 640.723 -3.6112 -2.32145 0
M  V30 6714 C 639.956 -3.96512 -3.57231 0
M  V30 6715 O 640.179 -3.32566 -4.63418 0
M  V30 6716 O 639.113 -4.89758 -3.49887 0
M  V30 6717 H 642.939 -2.91506 -0.851924 0
M  V30 6718 H 640.524 -1.45106 -0.355607 0
M  V30 6719 H 642.406 -2.63485 -3.28867 0
M  V30 6720 H 641.081 -1.51903 -2.85845 0
M  V30 6721 H 639.988 -3.41536 -1.52656 0
M  V30 6722 H 641.321 -4.48549 -2.02644 0
M  V30 6723 N 642.974 0.416227 -1.52004 0
M  V30 6724 C 643.904 1.51365 -1.77795 0
M  V30 6725 C 644.885 1.58059 -0.628601 0
M  V30 6726 O 646.07 1.73447 -0.873478 0
M  V30 6727 C 643.2 2.89256 -1.92219 0
M  V30 6728 C 642.154 2.97415 -3.0778 0
M  V30 6729 C 641.48 4.37492 -3.07417 0
M  V30 6730 C 642.78 2.69551 -4.47369 0
M  V30 6731 H 644.474 1.30033 -2.69688 0
M  V30 6732 H 642.02 0.624112 -1.29772 0
M  V30 6733 H 643.973 3.66008 -2.08845 0
M  V30 6734 H 642.697 3.11866 -0.969917 0
M  V30 6735 H 641.356 2.23107 -2.90893 0
M  V30 6736 H 641.004 4.571 -2.09925 0
M  V30 6737 H 640.704 4.43877 -3.85029 0
M  V30 6738 H 642.228 5.16188 -3.26162 0
M  V30 6739 H 643.642 3.36028 -4.64497 0
M  V30 6740 H 642.039 2.87321 -5.26846 0
M  V30 6741 H 643.109 1.65029 -4.55953 0
M  V30 6742 N 644.452 1.42507 0.673017 0
M  V30 6743 C 645.699 1.43072 1.43306 0
M  V30 6744 C 646.027 0.0478004 1.94441 0
M  V30 6745 O 645.282 -0.944106 1.71421 0
M  V30 6746 C 645.581 2.40351 2.64511 0
M  V30 6747 C 645.247 3.8669 2.31908 0
M  V30 6748 C 643.909 4.26551 2.22728 0
M  V30 6749 C 646.261 4.78991 2.05467 0
M  V30 6750 C 643.589 5.56691 1.85234 0
M  V30 6751 C 645.941 6.09476 1.69477 0
M  V30 6752 C 644.605 6.48334 1.58808 0
M  V30 6753 H 643.875 0.523536 0.524395 0
M  V30 6754 H 646.522 1.75459 0.76723 0
M  V30 6755 H 644.827 2.01297 3.36135 0
M  V30 6756 H 646.524 2.38051 3.22696 0
M  V30 6757 H 643.114 3.55132 2.39956 0
M  V30 6758 H 647.298 4.48982 2.11492 0
M  V30 6759 H 642.554 5.85657 1.75545 0
M  V30 6760 H 646.728 6.80482 1.48043 0
M  V30 6761 H 644.355 7.49084 1.29525 0
M  V30 6762 N 645.93 -0.909495 1.28709 0
M  V30 6763 C 647.207 -1.63865 1.06806 0
M  V30 6764 C 647.587 -2.07445 -0.391143 0
M  V30 6765 O 646.935 -1.82269 -1.37805 0
M  V30 6766 C 647.145 -2.82692 2.04661 0
M  V30 6767 C 648.493 -3.5361 2.35042 0
M  V30 6768 O 649.517 -2.92847 2.02779 0
M  V30 6769 O 648.376 -4.63131 2.90124 0
M  V30 6770 H 645.47 -0.719065 0.408502 0
M  V30 6771 H 648.016 -0.958424 1.40044 0
M  V30 6772 H 646.788 -2.47614 3.0299 0
M  V30 6773 H 646.411 -3.58426 1.72095 0
M  V30 6774 N 647.408 -1.11026 -1.11852 0
M  V30 6775 C 648.654 -0.857729 -1.83768 0
M  V30 6776 C 648.987 0.615143 -1.842 0
M  V30 6777 O 648.262 1.45391 -1.29196 0
M  V30 6778 C 648.545 -1.41453 -3.31154 0
M  V30 6779 C 648.398 -2.95471 -3.39142 0
M  V30 6780 C 649.717 -1.0619 -4.27097 0
M  V30 6781 H 646.836 -0.313044 -0.667212 0
M  V30 6782 H 649.478 -1.37443 -1.31185 0
M  V30 6783 H 647.628 -0.975052 -3.76065 0
M  V30 6784 H 649.3 -3.4799 -3.02821 0
M  V30 6785 H 647.543 -3.31759 -2.79497 0
M  V30 6786 H 648.214 -3.29515 -4.42859 0
M  V30 6787 H 650.69 -1.44122 -3.90344 0
M  V30 6788 H 649.566 -1.47832 -5.28618 0
M  V30 6789 H 649.827 0.0278912 -4.42091 0
M  V30 6790 N 648.886 1.2938 -0.899927 0
M  V30 6791 C 650.135 1.9483 -0.521937 0
M  V30 6792 C 650.448 1.71725 0.936473 0
M  V30 6793 O 651.654 2.31282 1.42199 0
M  V30 6794 C 650.11 3.48911 -0.88255 0
M  V30 6795 C 649.718 3.80815 -2.35974 0
M  V30 6796 C 651.462 4.20595 -0.57448 0
M  V30 6797 C 649.369 5.28142 -2.66121 0
M  V30 6798 H 648.299 0.729285 -0.191468 0
M  V30 6799 H 650.95 1.47103 -1.09695 0
M  V30 6800 H 649.332 3.95293 -0.236459 0
M  V30 6801 H 650.506 3.45291 -3.05141 0
M  V30 6802 H 648.821 3.22271 -2.63686 0
M  V30 6803 H 651.418 5.29031 -0.776556 0
M  V30 6804 H 651.761 4.13442 0.487005 0
M  V30 6805 H 652.294 3.79945 -1.17842 0
M  V30 6806 H 649.033 5.4036 -3.71068 0
M  V30 6807 H 648.553 5.64913 -2.01578 0
M  V30 6808 H 650.232 5.95738 -2.52399 0
M  V30 6809 N 650.364 0.662433 1.43002 0
M  V30 6810 C 651.294 -0.00979809 2.33498 0
M  V30 6811 C 652.275 -0.802329 1.49989 0
M  V30 6812 O 653.46 -0.761964 1.78627 0
M  V30 6813 C 650.59 -0.970446 3.33466 0
M  V30 6814 C 649.544 -0.287383 4.27034 0
M  V30 6815 C 648.87 -1.36012 5.17112 0
M  V30 6816 C 650.17 0.82595 5.15728 0
M  V30 6817 H 651.864 0.745959 2.89958 0
M  V30 6818 H 649.41 0.360172 1.39423 0
M  V30 6819 H 651.363 -1.44971 3.95679 0
M  V30 6820 H 650.087 -1.75748 2.75282 0
M  V30 6821 H 648.746 0.17152 3.66199 0
M  V30 6822 H 648.394 -2.13882 4.55262 0
M  V30 6823 H 648.094 -0.908276 5.80538 0
M  V30 6824 H 649.618 -1.84056 5.82199 0
M  V30 6825 H 651.032 0.42845 5.71697 0
M  V30 6826 H 649.429 1.20282 5.87922 0
M  V30 6827 H 650.499 1.68003 4.54866 0
M  V30 6828 N 651.842 -1.52309 0.404946 0
M  V30 6829 C 653.119 -1.94237 -0.230544 0
M  V30 6830 C 653.499 -1.34154 -1.6299 0
M  V30 6831 O 652.847 -0.515713 -2.22604 0
M  V30 6832 C 653.057 -3.48166 -0.241106 0
M  V30 6833 C 654.405 -4.22074 -0.462488 0
M  V30 6834 O 655.429 -3.54754 -0.320644 0
M  V30 6835 O 654.288 -5.41443 -0.741708 0
M  V30 6836 H 651.382 -0.813766 -0.147358 0
M  V30 6837 H 653.928 -1.6333 0.460587 0
M  V30 6838 H 652.7 -3.84269 0.738467 0
M  V30 6839 H 652.323 -3.85422 -0.97651 0
M  V30 6840 N 653.32 -0.135238 -1.57019 0
M  V30 6841 C 654.23 0.822226 -2.19719 0
M  V30 6842 C 655.246 1.28057 -1.17802 0
M  V30 6843 O 656.422 1.3402 -1.50335 0
M  V30 6844 C 653.487 2.0484 -2.79717 0
M  V30 6845 C 652.548 1.64042 -3.96723 0
M  V30 6846 C 651.781 2.80814 -4.53849 0
M  V30 6847 O 652.004 3.967 -4.0986 0
M  V30 6848 O 650.938 2.56963 -5.44292 0
M  V30 6849 H 654.764 0.318552 -3.02025 0
M  V30 6850 H 652.349 0.0912021 -1.49121 0
M  V30 6851 H 654.231 2.76622 -3.17897 0
M  V30 6852 H 652.906 2.54182 -2.00432 0
M  V30 6853 H 651.813 0.893182 -3.63281 0
M  V30 6854 H 653.146 1.19426 -4.77492 0
M  V30 6855 N 654.798 1.5699 0.138552 0
M  V30 6856 C 655.746 1.99858 1.18994 0
M  V30 6857 C 656.74 0.89231 1.43994 0
M  V30 6858 O 657.946 1.0775 1.44187 0
M  V30 6859 H 654.321 0.636325 0.400743 0
M  V30 6860 H 656.292 2.87427 0.801755 0
M  V30 6861 C 655.041 2.40235 2.51361 0
M  V30 6862 H 654.364 3.24917 2.32957 0
M  V30 6863 H 655.804 2.74045 3.23535 0
M  V30 6864 C 654.263 1.25829 3.1252 0
M  V30 6865 O 654.793 0.563604 3.97727 0
M  V30 6866 N 652.999 1.02036 2.72097 0
M  V30 6867 H 652.546 1.58705 2.02905 0
M  V30 6868 H 652.504 0.256796 3.1335 0
M  V30 6869 N 656.276 -0.40816 1.52223 0
M  V30 6870 C 657.208 -1.51642 1.71864 0
M  V30 6871 C 658.221 -1.51378 0.599056 0
M  V30 6872 O 659.41 -1.55626 0.874239 0
M  V30 6873 C 656.51 -2.90534 1.74481 0
M  V30 6874 C 655.683 -3.14979 3.03491 0
M  V30 6875 C 654.742 -4.33749 2.97907 0
M  V30 6876 O 653.768 -4.30982 3.71811 0
M  V30 6877 N 654.97 -5.38912 2.15764 0
M  V30 6878 H 657.735 -1.35188 2.67478 0
M  V30 6879 H 655.296 -0.597468 1.50472 0
M  V30 6880 H 657.288 -3.68056 1.68275 0
M  V30 6881 H 655.858 -3.00441 0.863363 0
M  V30 6882 H 655.078 -2.25492 3.23337 0
M  V30 6883 H 656.366 -3.28156 3.88833 0
M  V30 6884 H 655.764 -5.44008 1.55152 0
M  V30 6885 H 654.321 -6.15174 2.15415 0
M  V30 6886 N 657.755 -1.42862 -0.66545 0
M  V30 6887 C 658.685 -1.49867 -1.79059 0
M  V30 6888 C 659.666 -0.354394 -1.66367 0
M  V30 6889 O 660.851 -0.569969 -1.85647 0
M  V30 6890 C 657.981 -1.40943 -3.17415 0
M  V30 6891 C 656.935 -2.53495 -3.44854 0
M  V30 6892 C 656.261 -2.29626 -4.82883 0
M  V30 6893 C 657.561 -3.95781 -3.40815 0
M  V30 6894 H 659.255 -2.44037 -1.73453 0
M  V30 6895 H 656.801 -1.17456 -0.833071 0
M  V30 6896 H 658.754 -1.4445 -3.95869 0
M  V30 6897 H 657.478 -0.432716 -3.23721 0
M  V30 6898 H 656.137 -2.4932 -2.68766 0
M  V30 6899 H 655.785 -1.30226 -4.8585 0
M  V30 6900 H 655.485 -3.05065 -5.02204 0
M  V30 6901 H 657.009 -2.34897 -5.63609 0
M  V30 6902 H 658.423 -4.01508 -4.09224 0
M  V30 6903 H 656.82 -4.71148 -3.71672 0
M  V30 6904 H 657.89 -4.21786 -2.39216 0
M  V30 6905 N 659.233 0.902656 -1.29189 0
M  V30 6906 C 660.143 2.03946 -1.15944 0
M  V30 6907 C 661.159 1.738 -0.0833803 0
M  V30 6908 O 662.335 1.9923 -0.29487 0
M  V30 6909 C 659.4 3.36519 -0.834006 0
M  V30 6910 C 658.461 3.80203 -1.9936 0
M  V30 6911 C 657.694 5.06449 -1.68359 0
M  V30 6912 O 657.917 5.67202 -0.603141 0
M  V30 6913 O 656.851 5.46114 -2.53067 0
M  V30 6914 H 660.677 2.18043 -2.11403 0
M  V30 6915 H 658.262 1.02584 -1.08613 0
M  V30 6916 H 660.144 4.16089 -0.666949 0
M  V30 6917 H 658.819 3.23573 0.0908245 0
M  V30 6918 H 657.726 3.01413 -2.21588 0
M  V30 6919 H 659.059 3.97729 -2.89952 0
M  V30 6920 N 660.711 1.11618 1.11262 0
M  V30 6921 C 661.988 0.777876 1.79467 0
M  V30 6922 C 662.368 -0.733774 1.97937 0
M  V30 6923 O 661.716 -1.66443 1.56554 0
M  V30 6924 C 661.926 1.5431 3.13032 0
M  V30 6925 C 663.274 1.72357 3.88044 0
M  V30 6926 O 664.298 1.5075 3.22727 0
M  V30 6927 O 663.157 2.08276 5.05256 0
M  V30 6928 H 660.251 0.282018 0.777428 0
M  V30 6929 H 662.797 1.21971 1.17988 0
M  V30 6930 H 661.569 2.57132 2.94956 0
M  V30 6931 H 661.192 1.09495 3.82226 0
M  V30 6932 N 662.189 -1.289 0.906776 0
M  V30 6933 C 663.152 -2.25777 0.394656 0
M  V30 6934 C 664.152 -1.53621 -0.475119 0
M  V30 6935 O 665.342 -1.71949 -0.279165 0
M  V30 6936 C 662.474 -3.38113 -0.43499 0
M  V30 6937 H 663.667 -2.72592 1.25033 0
M  V30 6938 H 661.22 -1.40463 0.685547 0
M  V30 6939 H 661.955 -2.96648 -1.31036 0
M  V30 6940 H 661.74 -3.91647 0.188334 0
M  V30 6941 H 663.23 -4.10168 -0.784365 0
M  V30 6942 N 663.667 -0.670007 -1.42649 0
M  V30 6943 C 664.907 -0.194106 -2.03476 0
M  V30 6944 C 665.271 1.1755 -1.51809 0
M  V30 6945 O 666.472 1.74579 -2.04391 0
M  V30 6946 C 664.743 -0.221828 -3.56711 0
M  V30 6947 S 666.302 0.183772 -4.38415 0
M  V30 6948 H 663.12 -0.0802478 -0.706457 0
M  V30 6949 H 665.722 -0.882092 -1.74469 0
M  V30 6950 H 664.426 -1.22107 -3.91814 0
M  V30 6951 H 663.957 0.486149 -3.90385 0
M  V30 6952 H 665.972 1.41839 -4.75496 0
M  V30 6953 N 665.145 1.52092 -0.413018 0
M  V30 6954 C 666.055 2.30858 0.417318 0
M  V30 6955 C 667.071 1.38746 1.05003 0
M  V30 6956 O 668.247 1.71821 1.05069 0
M  V30 6957 C 665.312 3.11756 1.51687 0
M  V30 6958 C 664.373 4.19613 0.906825 0
M  V30 6959 C 663.606 4.96644 1.95399 0
M  V30 6960 O 663.829 4.7402 3.17271 0
M  V30 6961 O 662.763 5.81385 1.55805 0
M  V30 6962 H 666.589 3.02865 -0.225028 0
M  V30 6963 H 664.174 1.48358 -0.176126 0
M  V30 6964 H 666.056 3.62122 2.15512 0
M  V30 6965 H 664.731 2.42539 2.14375 0
M  V30 6966 H 663.638 3.73385 0.231183 0
M  V30 6967 H 664.971 4.91134 0.323814 0
M  V30 6968 N 666.623 0.143563 1.56945 0
M  V30 6969 C 667.573 -0.809115 2.1316 0
M  V30 6970 C 668.557 -1.21176 1.05855 0
M  V30 6971 O 669.749 -1.17875 1.3204 0
M  V30 6972 C 666.878 -2.04957 2.75405 0
M  V30 6973 C 665.964 -1.67018 3.89828 0
M  V30 6974 N 666.355 -0.998822 4.9584 0
M  V30 6975 C 664.653 -1.96313 4.00471 0
M  V30 6976 C 665.354 -0.816217 5.75945 0
M  V30 6977 N 664.33 -1.349 5.26596 0
M  V30 6978 H 668.132 -0.286919 2.92496 0
M  V30 6979 H 665.646 -0.0580948 1.62296 0
M  V30 6980 H 667.643 -2.74201 3.14037 0
M  V30 6981 H 666.303 -2.57697 1.97541 0
M  V30 6982 H 667.314 -0.659975 5.13678 0
M  V30 6983 H 663.991 -2.50927 3.33679 0
M  V30 6984 H 665.381 -0.287353 6.71285 0
M  V30 6985 N 668.101 -1.57061 -0.130224 0
M  V30 6986 C 669.031 -2.02552 -1.16168 0
M  V30 6987 C 670.012 -0.907971 -1.4384 0
M  V30 6988 O 671.197 -1.17693 -1.54473 0
M  V30 6989 C 668.327 -2.42035 -2.49071 0
M  V30 6990 C 667.281 -3.5713 -2.35886 0
M  V30 6991 C 666.607 -3.82478 -3.7365 0
M  V30 6992 C 667.907 -4.89236 -1.8288 0
M  V30 6993 H 669.601 -2.8897 -0.783359 0
M  V30 6994 H 667.147 -1.39021 -0.375376 0
M  V30 6995 H 669.1 -2.72462 -3.21469 0
M  V30 6996 H 667.824 -1.52573 -2.88771 0
M  V30 6997 H 666.483 -3.26895 -1.65938 0
M  V30 6998 H 666.131 -2.9024 -4.10816 0
M  V30 6999 H 665.831 -4.59944 -3.65685 0
M  V30 7000 H 667.355 -4.15347 -4.47571 0
M  V30 7001 H 668.769 -5.18272 -2.45085 0
M  V30 7002 H 667.166 -5.70624 -1.85763 0
M  V30 7003 H 668.236 -4.78494 -0.785571 0
M  V30 7004 N 669.579 0.400081 -1.52437 0
M  V30 7005 C 670.542 1.4707 -1.75793 0
M  V30 7006 C 671.542 1.48036 -0.627856 0
M  V30 7007 O 672.732 1.49401 -0.895817 0
M  V30 7008 C 669.864 2.86427 -1.84858 0
M  V30 7009 H 671.057 1.27649 -2.71377 0
M  V30 7010 H 668.61 0.631141 -1.42991 0
M  V30 7011 H 669.345 3.11207 -0.912194 0
M  V30 7012 H 669.13 2.87128 -2.6702 0
M  V30 7013 H 670.62 3.64023 -2.04638 0
M  V30 7014 N 671.057 1.43213 0.657864 0
M  V30 7015 C 672.334 1.35063 1.41483 0
M  V30 7016 C 672.714 -0.0038314 2.111 0
M  V30 7017 O 672.062 -1.02018 2.04462 0
M  V30 7018 C 672.272 2.53061 2.40335 0
M  V30 7019 C 673.62 2.9594 3.04474 0
M  V30 7020 O 674.644 2.53074 2.50663 0
M  V30 7021 O 673.503 3.70184 4.02027 0
M  V30 7022 H 670.597 0.533517 0.631893 0
M  V30 7023 H 673.143 1.55253 0.685162 0
M  V30 7024 H 671.915 3.43283 1.87809 0
M  V30 7025 H 671.538 2.34945 3.20759 0
M  V30 7026 N 672.536 -0.895792 1.29666 0
M  V30 7027 C 673.766 -1.67757 1.20586 0
M  V30 7028 C 674.174 -1.87729 -0.235432 0
M  V30 7029 O 673.517 -1.41706 -1.16898 0
M  V30 7030 C 673.579 -3.08117 1.85215 0
M  V30 7031 C 673.243 -3.1136 3.3452 0
M  V30 7032 C 674.24 -2.91217 4.30684 0
M  V30 7033 C 671.925 -3.33302 3.75786 0
M  V30 7034 C 673.919 -2.92955 5.66089 0
M  V30 7035 C 671.606 -3.3467 5.11311 0
M  V30 7036 C 672.604 -3.14519 6.06273 0
M  V30 7037 O 672.292 -3.15684 7.39323 0
M  V30 7038 H 672.024 -0.530601 0.418854 0
M  V30 7039 H 674.578 -1.12831 1.71634 0
M  V30 7040 H 672.808 -3.64661 1.28683 0
M  V30 7041 H 674.497 -3.68399 1.70403 0
M  V30 7042 H 675.263 -2.74074 4.00136 0
M  V30 7043 H 671.142 -3.48025 3.02324 0
M  V30 7044 H 674.686 -2.77145 6.40185 0
M  V30 7045 H 670.583 -3.51346 5.41504 0
M  V30 7046 H 671.351 -3.31924 7.48177 0
M  V30 7047 N 674.014 -1.12206 -1.10668 0
M  V30 7048 C 674.944 -0.810086 -2.18997 0
M  V30 7049 C 675.925 0.225065 -1.68604 0
M  V30 7050 O 677.11 0.086783 -1.94006 0
M  V30 7051 C 674.24 -0.261262 -3.46316 0
M  V30 7052 C 673.194 -1.2292 -4.09969 0
M  V30 7053 C 672.52 -0.540713 -5.31959 0
M  V30 7054 C 673.82 -2.58295 -4.53962 0
M  V30 7055 H 675.514 -1.7159 -2.45352 0
M  V30 7056 H 673.06 -0.82646 -1.17922 0
M  V30 7057 H 675.013 -0.0307522 -4.21389 0
M  V30 7058 H 673.737 0.679879 -3.19445 0
M  V30 7059 H 672.396 -1.44548 -3.369 0
M  V30 7060 H 672.044 0.405492 -5.01363 0
M  V30 7061 H 671.744 -1.18637 -5.75499 0
M  V30 7062 H 673.268 -0.319184 -6.09765 0
M  V30 7063 H 674.682 -2.40709 -5.20319 0
M  V30 7064 H 673.079 -3.18916 -5.08343 0
M  V30 7065 H 674.149 -3.16918 -3.67002 0
M  V30 7066 N 675.492 1.28418 -0.913599 0
M  V30 7067 C 676.402 2.31043 -0.406965 0
M  V30 7068 C 677.418 1.66501 0.505298 0
M  V30 7069 O 678.594 1.97558 0.391522 0
M  V30 7070 C 675.659 3.4498 0.344901 0
M  V30 7071 C 674.72 4.25078 -0.600563 0
M  V30 7072 C 673.953 5.33575 0.115516 0
M  V30 7073 O 674.176 5.54503 1.33727 0
M  V30 7074 O 673.11 5.9939 -0.549095 0
M  V30 7075 H 676.936 2.76387 -1.25873 0
M  V30 7076 H 674.521 1.33109 -0.678415 0
M  V30 7077 H 676.403 4.14314 0.769542 0
M  V30 7078 H 675.078 3.01719 1.1725 0
M  V30 7079 H 673.985 3.58334 -1.0746 0
M  V30 7080 H 675.318 4.72018 -1.39497 0
M  V30 7081 N 676.97 0.677563 1.42291 0
M  V30 7082 C 677.933 0.0101085 2.29198 0
M  V30 7083 C 678.933 -0.726219 1.43467 0
M  V30 7084 O 680.123 -0.563807 1.64824 0
M  V30 7085 C 677.255 -0.996316 3.26016 0
M  V30 7086 H 678.448 0.775071 2.89711 0
M  V30 7087 H 676.001 0.440065 1.49977 0
M  V30 7088 H 676.736 -1.78967 2.70446 0
M  V30 7089 H 676.521 -0.471687 3.89253 0
M  V30 7090 H 678.011 -1.46167 3.91184 0
M  V30 7091 N 678.448 -1.51871 0.421078 0
M  V30 7092 C 679.678 -2.06057 -0.149723 0
M  V30 7093 C 680.086 -1.29002 -1.38402 0
M  V30 7094 O 679.429 -0.338385 -1.80556 0
M  V30 7095 C 679.491 -3.55216 -0.553339 0
M  V30 7096 C 679.155 -4.53408 0.571879 0
M  V30 7097 C 680.152 -4.99586 1.4391 0
M  V30 7098 C 677.837 -4.967 0.747979 0
M  V30 7099 C 679.831 -5.87711 2.46727 0
M  V30 7100 C 677.518 -5.84619 1.77944 0
M  V30 7101 C 678.516 -6.30021 2.63748 0
M  V30 7102 O 678.204 -7.16197 3.65126 0
M  V30 7103 H 677.936 -0.675744 -0.0186102 0
M  V30 7104 H 680.49 -1.96618 0.594166 0
M  V30 7105 H 678.72 -3.62381 -1.34969 0
M  V30 7106 H 680.409 -3.91992 -1.05342 0
M  V30 7107 H 681.175 -4.66846 1.31451 0
M  V30 7108 H 677.054 -4.60913 0.0897357 0
M  V30 7109 H 680.598 -6.2307 3.13734 0
M  V30 7110 H 676.495 -6.16771 1.90429 0
M  V30 7111 H 677.263 -7.34337 3.61512 0
M  V30 7112 N 679.926 -0.151884 -1.56866 0
M  V30 7113 C 681.172 0.492327 -1.97352 0
M  V30 7114 C 681.527 1.62156 -1.03553 0
M  V30 7115 O 680.82 1.91467 -0.0714872 0
M  V30 7116 C 681.014 1.04074 -3.41911 0
M  V30 7117 C 680.843 -0.0338306 -4.49687 0
M  V30 7118 C 679.613 -0.476914 -5.03044 0
M  V30 7119 C 681.811 -0.827105 -5.07606 0
M  V30 7120 N 679.793 -1.53382 -5.9443 0
M  V30 7121 C 681.164 -1.73439 -5.95247 0
M  V30 7122 C 683.219 -0.874351 -4.90163 0
M  V30 7123 C 681.922 -2.68488 -6.67313 0
M  V30 7124 C 683.948 -1.81269 -5.62935 0
M  V30 7125 C 683.31 -2.70749 -6.50288 0
M  V30 7126 H 679.409 0.148822 -0.767708 0
M  V30 7127 H 681.993 -0.247615 -1.93119 0
M  V30 7128 H 680.164 1.75027 -3.46728 0
M  V30 7129 H 681.896 1.65197 -3.69448 0
M  V30 7130 H 678.651 -0.0782493 -4.73535 0
M  V30 7131 H 679.075 -2.06217 -6.44828 0
M  V30 7132 H 683.717 -0.196628 -4.22343 0
M  V30 7133 H 681.435 -3.37257 -7.34359 0
M  V30 7134 H 685.021 -1.85511 -5.51432 0
M  V30 7135 H 683.901 -3.42175 -7.0561 0
M  V30 7136 N 681.404 1.57128 0.121893 0
M  V30 7137 C 682.351 2.0013 1.14964 0
M  V30 7138 C 683.321 0.872959 1.4131 0
M  V30 7139 O 684.506 1.13696 1.53225 0
M  V30 7140 C 681.646 2.40824 2.4718 0
M  V30 7141 C 680.759 3.67061 2.27794 0
M  V30 7142 C 679.894 3.96749 3.53219 0
M  V30 7143 C 678.933 5.16178 3.28978 0
M  V30 7144 N 678.07 5.41751 4.46599 0
M  V30 7145 H 682.91 2.8772 0.775947 0
M  V30 7146 H 680.447 1.42328 0.371652 0
M  V30 7147 H 682.405 2.62454 3.24305 0
M  V30 7148 H 681.035 1.56279 2.82448 0
M  V30 7149 H 680.087 3.53063 1.416 0
M  V30 7150 H 681.399 4.5434 2.05857 0
M  V30 7151 H 680.553 4.19012 4.38764 0
M  V30 7152 H 679.292 3.07941 3.78185 0
M  V30 7153 H 678.297 4.93762 2.41824 0
M  V30 7154 H 679.522 6.06561 3.05386 0
M  V30 7155 H 677.468 4.55899 4.71691 0
M  V30 7156 H 677.385 6.23347 4.27756 0
M  V30 7157 H 678.653 5.68531 5.33285 0
M  V30 7158 N 682.882 -0.391992 1.52647 0
M  V30 7159 C 683.845 -1.46135 1.7657 0
M  V30 7160 C 684.845 -1.47701 0.635698 0
M  V30 7161 O 686.035 -1.48924 0.903728 0
M  V30 7162 C 683.167 -2.85443 1.86374 0
M  V30 7163 H 684.36 -1.26208 2.72051 0
M  V30 7164 H 681.913 -0.623549 1.43323 0
M  V30 7165 H 682.648 -3.10718 0.928685 0
M  V30 7166 H 682.433 -2.85708 2.68539 0
M  V30 7167 H 683.923 -3.62933 2.06566 0
M  V30 7168 N 684.36 -1.4356 -0.65026 0
M  V30 7169 C 685.588 -1.48779 -1.43779 0
M  V30 7170 C 686.003 -0.106593 -1.88499 0
M  V30 7171 O 685.36 0.883766 -1.59674 0
M  V30 7172 C 685.411 -2.43618 -2.67081 0
M  V30 7173 O 685.132 -3.76367 -2.24231 0
M  V30 7174 C 686.633 -2.5811 -3.60409 0
M  V30 7175 H 683.853 -0.50521 -0.441593 0
M  V30 7176 H 686.397 -1.88332 -0.796941 0
M  V30 7177 H 684.552 -2.07253 -3.273 0
M  V30 7178 H 684.966 -4.27394 -3.0403 0
M  V30 7179 H 686.44 -3.28539 -4.43583 0
M  V30 7180 H 686.917 -1.627 -4.07953 0
M  V30 7181 H 687.523 -2.95298 -3.0607 0
M  V30 7182 N 685.838 0.888903 -1.30139 0
M  V30 7183 C 686.788 1.9814 -1.12803 0
M  V30 7184 C 687.772 1.60839 -0.0443137 0
M  V30 7185 O 688.964 1.74971 -0.267208 0
M  V30 7186 C 686.093 3.33416 -0.817849 0
M  V30 7187 C 685.179 3.77043 -1.94163 0
M  V30 7188 N 685.57 3.92805 -3.18651 0
M  V30 7189 C 683.868 4.06407 -1.8371 0
M  V30 7190 C 684.569 4.29746 -3.92038 0
M  V30 7191 N 683.545 4.3939 -3.20059 0
M  V30 7192 H 687.347 2.08411 -2.07225 0
M  V30 7193 H 684.861 1.07845 -1.21421 0
M  V30 7194 H 686.858 4.11405 -0.674668 0
M  V30 7195 H 685.518 3.24484 0.118344 0
M  V30 7196 H 686.529 3.78042 -3.53984 0
M  V30 7197 H 683.206 4.05972 -0.974331 0
M  V30 7198 H 684.596 4.49695 -4.99223 0
M  V30 7199 N 687.317 1.12792 1.10072 0
M  V30 7200 C 688.728 0.899346 1.63611 0
M  V30 7201 C 689.079 -0.565547 1.87872 0
M  V30 7202 O 688.204 -1.43081 1.62348 0
M  V30 7203 C 688.799 1.62608 2.97227 0
M  V30 7204 C 687.358 1.44356 3.47618 0
M  V30 7205 C 686.505 1.65958 2.22156 0
M  V30 7206 H 689.456 1.28216 0.935223 0
M  V30 7207 H 689.477 1.0793 3.64872 0
M  V30 7208 H 688.989 2.69221 2.79538 0
M  V30 7209 H 687.09 0.400148 3.70445 0
M  V30 7210 H 687.203 2.20218 4.25489 0
M  V30 7211 H 685.567 1.08395 2.30484 0
M  V30 7212 H 686.35 2.73877 2.06993 0
M  V30 7213 N 688.795 -1.27931 0.920396 0
M  V30 7214 C 690.206 -1.76707 0.602616 0
M  V30 7215 C 690.557 -1.75249 -0.882159 0
M  V30 7216 O 689.682 -1.35135 -1.69019 0
M  V30 7217 C 690.277 -3.20884 1.08714 0
M  V30 7218 C 688.836 -3.67356 0.820157 0
M  V30 7219 C 687.983 -2.47525 1.25006 0
M  V30 7220 H 690.934 -1.14301 1.10095 0
M  V30 7221 H 690.955 -3.78045 0.431535 0
M  V30 7222 H 690.467 -3.21913 2.1678 0
M  V30 7223 H 688.568 -3.7178 -0.247012 0
M  V30 7224 H 688.681 -4.57181 1.43257 0
M  V30 7225 H 687.045 -2.45765 0.668698 0
M  V30 7226 H 687.828 -2.51269 2.3392 0
M  V30 7227 N 690.273 -0.685099 -1.4193 0
M  V30 7228 C 691.498 -0.218842 -2.06242 0
M  V30 7229 C 691.923 1.11923 -1.51178 0
M  V30 7230 O 691.281 1.69837 -0.634446 0
M  V30 7231 C 691.329 -0.175592 -3.60172 0
M  V30 7232 O 690.433 0.852776 -4.03487 0
M  V30 7233 H 689.774 -0.109531 -0.654904 0
M  V30 7234 H 692.304 -0.937013 -1.81882 0
M  V30 7235 H 692.314 -0.00291151 -4.08 0
M  V30 7236 H 690.989 -1.15222 -3.99621 0
M  V30 7237 H 689.566 0.650301 -3.67186 0
M  V30 7238 N 691.751 1.51645 -0.429126 0
M  V30 7239 C 692.976 2.06917 0.141399 0
M  V30 7240 C 693.401 1.29527 1.36398 0
M  V30 7241 O 692.759 0.33094 1.78254 0
M  V30 7242 C 692.807 3.57776 0.4504 0
M  V30 7243 O 691.911 3.82639 1.53821 0
M  V30 7244 H 691.252 0.663978 0.0054647 0
M  V30 7245 H 693.782 1.95355 -0.608093 0
M  V30 7246 H 693.792 4.01894 0.703249 0
M  V30 7247 H 692.467 4.13532 -0.443213 0
M  V30 7248 H 691.044 3.5039 1.27597 0
M  V30 7249 N 693.229 0.160201 1.56784 0
M  V30 7250 C 694.454 -0.497373 2.01348 0
M  V30 7251 C 694.879 -1.56757 1.03966 0
M  V30 7252 O 694.237 -1.81292 0.0174455 0
M  V30 7253 C 694.285 -1.0628 3.44582 0
M  V30 7254 O 693.389 -2.17723 3.50244 0
M  V30 7255 H 692.73 -0.120295 0.653012 0
M  V30 7256 H 695.26 0.260821 2.02931 0
M  V30 7257 H 695.27 -1.38819 3.83658 0
M  V30 7258 H 693.945 -0.279166 4.14962 0
M  V30 7259 H 692.522 -1.86313 3.2302 0
M  V30 7260 N 694.707 -1.5719 -0.113559 0
M  V30 7261 C 695.637 -2.03772 -1.14013 0
M  V30 7262 C 696.618 -0.923176 -1.42869 0
M  V30 7263 O 697.803 -1.19325 -1.53216 0
M  V30 7264 C 694.933 -2.44663 -2.4649 0
M  V30 7265 C 693.887 -3.59612 -2.32085 0
M  V30 7266 C 693.213 -3.8642 -3.69573 0
M  V30 7267 C 694.513 -4.91149 -1.7768 0
M  V30 7268 H 696.207 -2.89785 -0.752665 0
M  V30 7269 H 693.753 -1.39412 -0.360609 0
M  V30 7270 H 695.706 -2.75857 -3.18561 0
M  V30 7271 H 694.43 -1.55628 -2.87137 0
M  V30 7272 H 693.089 -3.28636 -1.62461 0
M  V30 7273 H 692.737 -2.94581 -4.07715 0
M  V30 7274 H 692.437 -4.63797 -3.60786 0
M  V30 7275 H 693.961 -4.2007 -4.4314 0
M  V30 7276 H 695.375 -5.20843 -2.39574 0
M  V30 7277 H 693.772 -5.72562 -1.79701 0
M  V30 7278 H 694.842 -4.79301 -0.734776 0
M  V30 7279 N 696.185 0.383891 -1.52853 0
M  V30 7280 C 697.596 0.961591 -1.60032 0
M  V30 7281 C 697.947 1.90819 -0.456333 0
M  V30 7282 O 697.072 2.12288 0.419873 0
M  V30 7283 C 697.667 1.75078 -2.90057 0
M  V30 7284 C 696.226 2.2781 -2.99632 0
M  V30 7285 C 695.373 1.08512 -2.55187 0
M  V30 7286 H 698.324 0.163269 -1.57858 0
M  V30 7287 H 698.345 2.61046 -2.7683 0
M  V30 7288 H 697.857 1.06157 -3.73299 0
M  V30 7289 H 695.958 3.00028 -2.20939 0
M  V30 7290 H 696.071 2.56947 -4.0437 0
M  V30 7291 H 694.435 1.44667 -2.09627 0
M  V30 7292 H 695.218 0.41118 -3.40829 0
M  V30 7293 N 697.663 1.43903 0.642637 0
M  V30 7294 C 698.611 1.50164 1.77634 0
M  V30 7295 C 699.605 0.374294 1.65213 0
M  V30 7296 O 700.811 0.548748 1.71431 0
M  V30 7297 H 697.186 0.470974 0.586249 0
M  V30 7298 H 699.157 2.45603 1.69474 0
M  V30 7299 C 697.906 1.45196 3.15933 0
M  V30 7300 H 697.229 2.31253 3.26132 0
M  V30 7301 H 698.669 1.53638 3.95185 0
M  V30 7302 C 697.128 0.171043 3.36466 0
M  V30 7303 O 697.658 -0.763413 3.94379 0
M  V30 7304 N 695.864 0.077847 2.90496 0
M  V30 7305 H 695.411 0.8391 2.43551 0
M  V30 7306 H 695.369 -0.778473 3.0461 0
M  V30 7307 N 699.141 -0.881989 1.30609 0
M  V30 7308 C 700.552 -1.44956 1.17664 0
M  V30 7309 C 700.903 -1.94945 -0.221531 0
M  V30 7310 O 700.028 -1.85257 -1.11844 0
M  V30 7311 C 700.623 -2.63474 2.12995 0
M  V30 7312 C 699.182 -3.16312 2.04019 0
M  V30 7313 C 698.329 -1.89008 2.02907 0
M  V30 7314 H 701.28 -0.691645 1.42835 0
M  V30 7315 H 701.301 -3.39783 1.71253 0
M  V30 7316 H 700.813 -2.2706 3.14746 0
M  V30 7317 H 698.914 -3.57376 1.0542 0
M  V30 7318 H 699.027 -3.79409 2.9255 0
M  V30 7319 H 697.391 -2.07465 1.47751 0
M  V30 7320 H 698.174 -1.54848 3.06394 0
M  V30 7321 N 700.619 -1.13374 -1.09472 0
M  V30 7322 C 701.549 -0.833268 -2.18126 0
M  V30 7323 C 702.53 0.207169 -1.68834 0
M  V30 7324 O 703.715 0.0662012 -1.94087 0
M  V30 7325 C 700.845 -0.297979 -3.46019 0
M  V30 7326 C 699.799 -1.27261 -4.08642 0
M  V30 7327 C 699.125 -0.597104 -5.31356 0
M  V30 7328 C 700.425 -2.63095 -4.51197 0
M  V30 7329 H 702.119 -1.74182 -2.43518 0
M  V30 7330 H 699.665 -0.838921 -1.17039 0
M  V30 7331 H 701.618 -0.0754444 -4.21332 0
M  V30 7332 H 700.342 0.645959 -3.20148 0
M  V30 7333 H 699.001 -1.48113 -3.35348 0
M  V30 7334 H 698.649 0.352293 -5.01765 0
M  V30 7335 H 698.349 -1.24734 -5.74208 0
M  V30 7336 H 699.873 -0.38384 -6.09392 0
M  V30 7337 H 701.287 -2.46214 -5.17737 0
M  V30 7338 H 699.684 -3.2429 -5.04932 0
M  V30 7339 H 700.754 -3.20793 -3.6362 0
M  V30 7340 N 702.098 1.27442 -0.927168 0
M  V30 7341 C 703.028 2.29256 -0.443188 0
M  V30 7342 C 704.009 1.62701 0.49624 0
M  V30 7343 O 705.194 1.90013 0.401105 0
M  V30 7344 C 702.324 3.45955 0.305366 0
M  V30 7345 C 701.278 4.24501 -0.546178 0
M  V30 7346 C 700.604 5.33671 0.331512 0
M  V30 7347 C 701.904 4.89921 -1.81037 0
M  V30 7348 H 703.598 2.69988 -1.29409 0
M  V30 7349 H 701.144 1.29792 -0.623705 0
M  V30 7350 H 703.097 4.1628 0.654885 0
M  V30 7351 H 701.821 3.04138 1.19029 0
M  V30 7352 H 700.48 3.55921 -0.878398 0
M  V30 7353 H 700.128 4.88096 1.21537 0
M  V30 7354 H 699.828 5.87131 -0.234746 0
M  V30 7355 H 701.352 6.0684 0.676614 0
M  V30 7356 H 702.766 5.52536 -1.52895 0
M  V30 7357 H 701.163 5.53436 -2.32009 0
M  V30 7358 H 702.233 4.13652 -2.53021 0
M  V30 7359 N 703.576 0.692616 1.41565 0
M  V30 7360 C 704.801 0.229776 2.06123 0
M  V30 7361 C 705.226 -1.11119 1.5177 0
M  V30 7362 O 704.584 -1.69498 0.643444 0
M  V30 7363 C 704.632 0.19469 3.60074 0
M  V30 7364 O 703.736 -0.831366 4.03933 0
M  V30 7365 H 703.077 0.113002 0.654314 0
M  V30 7366 H 705.607 0.946645 1.81383 0
M  V30 7367 H 705.617 0.0245487 4.07993 0
M  V30 7368 H 704.292 1.17339 3.99004 0
M  V30 7369 H 702.869 -0.630819 3.67526 0
M  V30 7370 N 705.054 -1.51416 0.437162 0
M  V30 7371 C 706.47 -1.59349 0.0894459 0
M  V30 7372 C 706.67 -1.44809 -1.40116 0
M  V30 7373 O 705.726 -1.28924 -2.17106 0
M  V30 7374 C 707.039 -2.9446 0.609398 0
M  V30 7375 C 708.587 -3.07769 0.569824 0
M  V30 7376 C 709.062 -4.45404 1.06675 0
M  V30 7377 N 710.553 -4.51723 1.02473 0
M  V30 7378 C 711.288 -5.56544 1.3801 0
M  V30 7379 N 710.784 -6.68784 1.80831 0
M  V30 7380 N 712.577 -5.46901 1.29828 0
M  V30 7381 H 704.728 -1.59112 1.40703 0
M  V30 7382 H 706.991 -0.750031 0.579791 0
M  V30 7383 H 706.697 -3.1047 1.65231 0
M  V30 7384 H 706.571 -3.77184 0.0342236 0
M  V30 7385 H 708.958 -2.91428 -0.464107 0
M  V30 7386 H 709.039 -2.26885 1.1814 0
M  V30 7387 H 708.683 -4.62492 2.09914 0
M  V30 7388 H 708.613 -5.24827 0.431712 0
M  V30 7389 H 711.104 -3.71165 0.710258 0
M  V30 7390 H 711.417 -7.44787 2.06185 0
M  V30 7391 H 709.762 -6.69992 1.84757 0
M  V30 7392 H 712.953 -4.581 0.962397 0
M  V30 7393 H 713.126 -6.2848 1.57851 0
M  V30 7394 N 706.532 -0.168513 -1.56696 0
M  V30 7395 C 707.76 0.483503 -2.01171 0
M  V30 7396 C 708.175 1.56994 -1.04872 0
M  V30 7397 O 707.532 1.82434 -0.0491337 0
M  V30 7398 C 707.583 1.0644 -3.45475 0
M  V30 7399 O 707.304 0.0213375 -4.38095 0
M  V30 7400 C 708.805 1.79493 -4.05336 0
M  V30 7401 H 706.025 0.124002 -0.659443 0
M  V30 7402 H 708.569 -0.269419 -2.02717 0
M  V30 7403 H 706.724 1.76784 -3.44712 0
M  V30 7404 H 707.138 0.449837 -5.22567 0
M  V30 7405 H 708.612 2.15401 -5.08238 0
M  V30 7406 H 709.089 2.68889 -3.47269 0
M  V30 7407 H 709.695 1.13798 -4.09793 0
M  V30 7408 N 708.01 1.57248 0.105221 0
M  V30 7409 C 708.94 2.04374 1.12931 0
M  V30 7410 C 709.921 0.93074 1.42377 0
M  V30 7411 O 711.106 1.20136 1.52581 0
M  V30 7412 C 708.236 2.45967 2.45189 0
M  V30 7413 C 707.19 3.60838 2.30174 0
M  V30 7414 C 706.516 3.88374 3.67518 0
M  V30 7415 C 707.816 4.92084 1.75073 0
M  V30 7416 H 709.51 2.9018 0.737287 0
M  V30 7417 H 707.056 1.39601 0.353211 0
M  V30 7418 H 709.009 2.77542 3.17094 0
M  V30 7419 H 707.733 1.57148 2.86308 0
M  V30 7420 H 706.392 3.29493 1.60716 0
M  V30 7421 H 706.04 2.96739 4.06147 0
M  V30 7422 H 705.74 4.65703 3.58321 0
M  V30 7423 H 707.264 4.22415 4.40906 0
M  V30 7424 H 708.678 5.22106 2.36809 0
M  V30 7425 H 707.075 5.73507 1.76662 0
M  V30 7426 H 708.145 4.79684 0.709347 0
M  V30 7427 N 709.488 -0.375779 1.53054 0
M  V30 7428 C 710.451 -1.44254 1.7811 0
M  V30 7429 C 711.451 -1.47018 0.651328 0
M  V30 7430 O 712.641 -1.47957 0.919472 0
M  V30 7431 C 709.773 -2.8345 1.89391 0
M  V30 7432 H 710.966 -1.23316 2.73374 0
M  V30 7433 H 708.519 -0.608312 1.43977 0
M  V30 7434 H 709.254 -3.09716 0.961589 0
M  V30 7435 H 709.039 -2.82844 2.71555 0
M  V30 7436 H 710.529 -3.60722 2.10404 0
M  V30 7437 N 710.966 -1.44241 -0.634997 0
M  V30 7438 C 712.194 -1.50296 -1.42193 0
M  V30 7439 C 712.609 -0.12658 -1.88375 0
M  V30 7440 O 711.966 0.86678 -1.60603 0
M  V30 7441 C 712.017 -2.46437 -2.64482 0
M  V30 7442 O 711.738 -3.78724 -2.20226 0
M  V30 7443 C 713.239 -2.61918 -3.57651 0
M  V30 7444 H 710.459 -0.509865 -0.43621 0
M  V30 7445 H 713.003 -1.89167 -0.776921 0
M  V30 7446 H 711.158 -2.10712 -3.25083 0
M  V30 7447 H 711.572 -4.30595 -2.9948 0
M  V30 7448 H 713.046 -3.33225 -4.40074 0
M  V30 7449 H 713.523 -1.67017 -4.06204 0
M  V30 7450 H 714.129 -2.98528 -3.02921 0
M  V30 7451 N 712.444 0.87505 -1.31075 0
M  V30 7452 C 713.669 1.66583 -1.23551 0
M  V30 7453 C 714.094 1.87067 0.19686 0
M  V30 7454 O 713.452 1.40877 1.1412 0
M  V30 7455 C 713.5 3.01401 -1.97965 0
M  V30 7456 O 712.604 3.90923 -1.31351 0
M  V30 7457 H 711.945 0.508645 -0.426821 0
M  V30 7458 H 714.475 1.09139 -1.7306 0
M  V30 7459 H 714.485 3.51374 -2.07366 0
M  V30 7460 H 713.16 2.85812 -3.02133 0
M  V30 7461 H 711.737 3.49369 -1.30368 0
M  V30 7462 N 713.922 1.13953 1.08869 0
M  V30 7463 C 715.147 0.928559 1.85452 0
M  V30 7464 C 715.572 -0.517642 1.80837 0
M  V30 7465 O 714.93 -1.36779 1.19001 0
M  V30 7466 C 714.978 1.42814 3.31114 0
M  V30 7467 O 714.082 0.617129 4.07756 0
M  V30 7468 H 713.423 0.33235 0.574839 0
M  V30 7469 H 715.953 1.5156 1.37443 0
M  V30 7470 H 715.963 1.43425 3.8196 0
M  V30 7471 H 714.638 2.48109 3.33788 0
M  V30 7472 H 713.215 0.679365 3.66659 0
M  V30 7473 N 715.4 -1.26948 0.933913 0
M  V30 7474 C 716.33 -2.29017 0.45534 0
M  V30 7475 C 717.311 -1.62961 -0.487605 0
M  V30 7476 O 718.496 -1.90223 -0.391022 0
M  V30 7477 C 715.626 -3.46112 -0.287015 0
M  V30 7478 C 714.58 -4.24205 0.568682 0
M  V30 7479 C 713.906 -5.3384 -0.303206 0
M  V30 7480 C 715.206 -4.88954 1.83633 0
M  V30 7481 H 716.9 -2.69298 1.30839 0
M  V30 7482 H 714.446 -1.29459 0.630579 0
M  V30 7483 H 716.399 -4.16622 -0.6328 0
M  V30 7484 H 715.123 -3.04765 -1.17414 0
M  V30 7485 H 713.782 -3.5545 0.897261 0
M  V30 7486 H 713.43 -4.88734 -1.18947 0
M  V30 7487 H 713.13 -5.86998 0.265879 0
M  V30 7488 H 714.654 -6.0719 -0.644423 0
M  V30 7489 H 716.068 -5.51717 1.55823 0
M  V30 7490 H 714.465 -5.52198 2.34941 0
M  V30 7491 H 715.535 -4.12305 2.55211 0
M  V30 7492 N 716.879 -0.700114 -1.41195 0
M  V30 7493 C 718.29 -0.307249 -1.84154 0
M  V30 7494 C 718.641 1.15539 -1.58572 0
M  V30 7495 O 717.766 1.88744 -1.05852 0
M  V30 7496 C 718.361 -0.550872 -3.34292 0
M  V30 7497 C 716.92 -0.211877 -3.75803 0
M  V30 7498 C 716.067 -0.830915 -2.64558 0
M  V30 7499 H 719.018 -0.900431 -1.30683 0
M  V30 7500 H 719.039 0.188954 -3.80031 0
M  V30 7501 H 718.551 -1.61548 -3.5288 0
M  V30 7502 H 716.652 0.848283 -3.62815 0
M  V30 7503 H 716.765 -0.67007 -4.74391 0
M  V30 7504 H 715.129 -0.260155 -2.53368 0
M  V30 7505 H 715.912 -1.89948 -2.85963 0
M  V30 7506 N 718.357 1.51182 -0.445186 0
M  V30 7507 C 719.287 2.30821 0.352686 0
M  V30 7508 C 720.268 1.36576 1.01395 0
M  V30 7509 O 721.453 1.65497 1.01609 0
M  V30 7510 C 718.583 3.15593 1.44976 0
M  V30 7511 C 717.537 4.1818 0.911553 0
M  V30 7512 C 716.863 4.91523 2.10497 0
M  V30 7513 C 718.163 5.22266 -0.059418 0
M  V30 7514 H 719.857 2.97771 -0.311936 0
M  V30 7515 H 717.403 1.43201 -0.151461 0
M  V30 7516 H 719.356 3.70091 2.01521 0
M  V30 7517 H 718.08 2.4648 2.14278 0
M  V30 7518 H 716.739 3.64746 0.368264 0
M  V30 7519 H 716.387 4.18906 2.78437 0
M  V30 7520 H 716.087 5.60898 1.7512 0
M  V30 7521 H 717.611 5.48847 2.6758 0
M  V30 7522 H 719.025 5.71789 0.415985 0
M  V30 7523 H 717.422 5.99213 -0.326152 0
M  V30 7524 H 718.492 4.7461 -0.993631 0
M  V30 7525 N 719.835 0.176821 1.56605 0
M  V30 7526 C 721.06 -0.47599 2.01864 0
M  V30 7527 C 721.485 -1.55645 1.05623 0
M  V30 7528 O 720.843 -1.81263 0.0366729 0
M  V30 7529 C 720.891 -1.02619 3.4569 0
M  V30 7530 O 719.995 -2.13996 3.52533 0
M  V30 7531 H 719.336 -0.113363 0.654251 0
M  V30 7532 H 721.866 0.28233 2.02643 0
M  V30 7533 H 721.876 -1.34742 3.85109 0
M  V30 7534 H 720.551 -0.235138 4.15235 0
M  V30 7535 H 719.128 -1.82876 3.24978 0
M  V30 7536 N 721.313 -1.57302 -0.09688 0
M  V30 7537 C 722.724 -1.7496 -0.651595 0
M  V30 7538 C 723.075 -0.798746 -1.79205 0
M  V30 7539 O 722.2 0.0231858 -2.16388 0
M  V30 7540 C 722.795 -3.17259 -1.18878 0
M  V30 7541 C 721.354 -3.36348 -1.68958 0
M  V30 7542 C 720.501 -2.70766 -0.598413 0
M  V30 7543 H 723.452 -1.58173 0.12918 0
M  V30 7544 H 723.473 -3.20033 -2.05814 0
M  V30 7545 H 722.985 -3.8644 -0.358523 0
M  V30 7546 H 721.086 -2.72243 -2.5439 0
M  V30 7547 H 721.199 -4.44654 -1.7838 0
M  V30 7548 H 719.563 -2.32615 -1.03743 0
M  V30 7549 H 720.346 -3.42586 0.221238 0
M  V30 7550 N 722.791 0.367657 -1.53252 0
M  V30 7551 C 724.019 1.13119 -1.73239 0
M  V30 7552 C 724.434 1.831 -0.460404 0
M  V30 7553 O 723.791 1.73483 0.566557 0
M  V30 7554 C 723.842 2.16308 -2.89643 0
M  V30 7555 O 723.563 1.49175 -4.1192 0
M  V30 7556 C 725.064 3.05224 -3.21486 0
M  V30 7557 H 722.284 0.338318 -0.579467 0
M  V30 7558 H 724.828 0.42721 -1.99988 0
M  V30 7559 H 722.983 2.82307 -2.65295 0
M  V30 7560 H 723.397 2.17912 -4.7709 0
M  V30 7561 H 724.871 3.73613 -4.06346 0
M  V30 7562 H 725.348 3.69919 -2.36763 0
M  V30 7563 H 725.954 2.44843 -3.47753 0
M  V30 7564 N 724.269 1.44576 0.627338 0
M  V30 7565 C 725.199 1.54562 1.75022 0
M  V30 7566 C 726.18 0.398378 1.65369 0
M  V30 7567 O 727.365 0.61899 1.84071 0
M  V30 7568 C 724.495 1.49309 3.13567 0
M  V30 7569 C 723.449 2.62549 3.38012 0
M  V30 7570 C 722.775 2.42348 4.76625 0
M  V30 7571 C 724.075 4.04678 3.30202 0
M  V30 7572 H 725.769 2.4855 1.66922 0
M  V30 7573 H 723.315 1.19624 0.801636 0
M  V30 7574 H 725.268 1.54895 3.919 0
M  V30 7575 H 723.992 0.518392 3.2246 0
M  V30 7576 H 722.651 2.56358 2.62061 0
M  V30 7577 H 722.299 1.43062 4.82226 0
M  V30 7578 H 721.999 3.18273 4.93939 0
M  V30 7579 H 723.523 2.49758 5.57183 0
M  V30 7580 H 724.937 4.12217 3.98435 0
M  V30 7581 H 723.334 4.80836 3.5905 0
M  V30 7582 H 724.404 4.2798 2.27949 0
M  V30 7583 N 725.747 -0.868086 1.31537 0
M  V30 7584 C 726.71 -1.95703 1.19302 0
M  V30 7585 C 727.71 -1.60355 0.119612 0
M  V30 7586 O 728.9 -1.70247 0.36902 0
M  V30 7587 C 726.032 -3.30599 0.831684 0
M  V30 7588 H 727.225 -2.07982 2.16064 0
M  V30 7589 H 724.778 -1.05661 1.15176 0
M  V30 7590 H 725.513 -3.2402 -0.134694 0
M  V30 7591 H 725.298 -3.57629 1.60761 0
M  V30 7592 H 726.788 -4.10439 0.770026 0
M  V30 7593 N 727.225 -1.14528 -1.08264 0
M  V30 7594 C 728.45 -0.938381 -1.84957 0
M  V30 7595 C 728.875 0.508044 -1.81109 0
M  V30 7596 O 728.233 1.36146 -1.19724 0
M  V30 7597 C 728.281 -1.44568 -3.30352 0
M  V30 7598 O 727.385 -0.638745 -4.07423 0
M  V30 7599 H 726.726 -0.335394 -0.573068 0
M  V30 7600 H 729.256 -1.52287 -1.36637 0
M  V30 7601 H 729.266 -1.45449 -3.81194 0
M  V30 7602 H 727.941 -2.49876 -3.32468 0
M  V30 7603 H 726.518 -0.698801 -3.66294 0
M  V30 7604 N 728.703 1.26451 -0.940633 0
M  V30 7605 C 729.651 2.28389 -0.440581 0
M  V30 7606 C 730.645 1.62402 0.481859 0
M  V30 7607 O 731.851 1.76361 0.360132 0
M  V30 7608 H 728.226 0.741716 -0.123938 0
M  V30 7609 H 730.197 2.67967 -1.31288 0
M  V30 7610 C 728.946 3.46576 0.279364 0
M  V30 7611 H 728.269 3.97574 -0.421274 0
M  V30 7612 H 729.709 4.19826 0.59348 0
M  V30 7613 C 728.168 3.01815 1.49697 0
M  V30 7614 O 728.698 3.06607 2.59529 0
M  V30 7615 N 726.904 2.57163 1.35334 0
M  V30 7616 H 726.451 2.53464 0.459743 0
M  V30 7617 H 726.409 2.27578 2.16923 0
M  V30 7618 N 730.181 0.707592 1.40822 0
M  V30 7619 C 731.406 0.251626 2.05868 0
M  V30 7620 C 731.831 -1.09503 1.5294 0
M  V30 7621 O 731.189 -1.68806 0.661385 0
M  V30 7622 C 731.237 0.23287 3.59847 0
M  V30 7623 O 730.341 -0.788477 4.04792 0
M  V30 7624 H 729.682 0.119936 0.653078 0
M  V30 7625 H 732.212 0.96583 1.80369 0
M  V30 7626 H 732.222 0.0678204 4.07944 0
M  V30 7627 H 730.897 1.21565 3.97737 0
M  V30 7628 H 729.474 -0.591802 3.68174 0
M  V30 7629 N 731.66 -1.50943 0.453197 0
M  V30 7630 C 732.592 -2.25922 -0.38623 0
M  V30 7631 C 733.605 -1.3055 -0.972652 0
M  V30 7632 O 734.794 -1.56191 -0.864097 0
M  V30 7633 C 731.894 -3.01176 -1.5539 0
M  V30 7634 C 731.067 -4.23768 -1.0835 0
M  V30 7635 C 730.126 -4.81466 -2.12313 0
M  V30 7636 O 729.152 -5.42875 -1.71101 0
M  V30 7637 N 730.354 -4.66889 -3.44956 0
M  V30 7638 H 733.119 -2.98601 0.256468 0
M  V30 7639 H 730.68 -1.59408 0.282965 0
M  V30 7640 H 732.672 -3.36659 -2.24594 0
M  V30 7641 H 731.242 -2.31409 -2.10163 0
M  V30 7642 H 730.462 -3.93597 -0.217961 0
M  V30 7643 H 731.75 -5.03289 -0.746857 0
M  V30 7644 H 731.148 -4.18011 -3.81161 0
M  V30 7645 H 729.705 -5.06691 -4.1001 0
M  V30 7646 N 733.138 -0.185124 -1.56509 0
M  V30 7647 C 734.386 0.455357 -1.96903 0
M  V30 7648 C 734.707 1.62839 -1.07277 0
M  V30 7649 O 733.977 1.95385 -0.141966 0
M  V30 7650 H 732.557 0.171218 -0.727113 0
M  V30 7651 H 735.219 -0.26953 -1.93027 0
M  V30 7652 H 734.315 0.80616 -3.01509 0
M  V30 7653 N 734.616 1.57351 0.0885366 0
M  V30 7654 C 735.841 1.91011 0.80805 0
M  V30 7655 C 736.266 0.780009 1.71165 0
M  V30 7656 O 735.624 -0.268083 1.79307 0
M  V30 7657 C 735.672 3.23562 1.59185 0
M  V30 7658 O 734.776 3.11615 2.7013 0
M  V30 7659 H 734.117 0.625943 0.221565 0
M  V30 7660 H 736.647 2.04507 0.0617954 0
M  V30 7661 H 736.657 3.5703 1.97468 0
M  V30 7662 H 735.332 4.05398 0.928741 0
M  V30 7663 H 733.909 2.89673 2.34827 0
M  V30 7664 N 736.094 -0.359525 1.53444 0
M  V30 7665 C 737.026 -1.46098 1.76602 0
M  V30 7666 C 738.039 -1.49395 0.646912 0
M  V30 7667 O 739.228 -1.52765 0.923307 0
M  V30 7668 C 736.328 -2.84836 1.83635 0
M  V30 7669 C 735.501 -3.05164 3.13358 0
M  V30 7670 C 734.56 -4.24051 3.11556 0
M  V30 7671 O 733.586 -4.18935 3.85334 0
M  V30 7672 N 734.788 -5.31775 2.328 0
M  V30 7673 H 737.553 -1.2661 2.71643 0
M  V30 7674 H 735.114 -0.549294 1.52297 0
M  V30 7675 H 737.106 -3.62516 1.799 0
M  V30 7676 H 735.676 -2.97542 0.958509 0
M  V30 7677 H 734.896 -2.15091 3.30348 0
M  V30 7678 H 736.184 -3.15619 3.99076 0
M  V30 7679 H 735.582 -5.38796 1.7238 0
M  V30 7680 H 734.139 -6.0801 2.34877 0
M  V30 7681 N 737.572 -1.44907 -0.619662 0
M  V30 7682 C 738.82 -1.47999 -1.37625 0
M  V30 7683 C 739.141 -0.118295 -1.94641 0
M  V30 7684 O 738.411 0.85086 -1.76457 0
M  V30 7685 H 736.991 -0.544993 -0.510873 0
M  V30 7686 H 739.653 -1.80772 -0.728522 0
M  V30 7687 H 738.749 -2.21196 -2.20179 0
M  V30 7688 N 739.05 0.861098 -1.31996 0
M  V30 7689 C 740.327 1.59788 -1.12814 0
M  V30 7690 C 740.707 2.08753 0.313882 0
M  V30 7691 O 740.055 1.87258 1.30946 0
M  V30 7692 C 740.265 2.74901 -2.15012 0
M  V30 7693 C 741.613 3.44643 -2.48004 0
M  V30 7694 O 742.637 2.85119 -2.13508 0
M  V30 7695 O 741.496 4.52044 -3.07113 0
M  V30 7696 H 738.59 0.703408 -0.434909 0
M  V30 7697 H 741.136 0.905788 -1.43505 0
M  V30 7698 H 739.908 2.36198 -3.11971 0
M  V30 7699 H 739.531 3.51792 -1.85279 0
M  V30 7700 N 740.528 1.15101 1.07655 0
M  V30 7701 C 741.46 0.802722 2.14684 0
M  V30 7702 C 742.473 -0.183874 1.61758 0
M  V30 7703 O 743.662 0.0389349 1.78458 0
M  V30 7704 C 740.762 0.172135 3.38463 0
M  V30 7705 C 739.935 1.19538 4.20749 0
M  V30 7706 C 738.994 0.58714 5.22914 0
M  V30 7707 O 738.02 1.25224 5.55255 0
M  V30 7708 N 739.222 -0.632566 5.77043 0
M  V30 7709 H 741.987 1.72379 2.45164 0
M  V30 7710 H 739.548 1.04647 1.23534 0
M  V30 7711 H 741.54 -0.247465 4.03943 0
M  V30 7712 H 740.11 -0.652214 3.0572 0
M  V30 7713 H 739.33 1.79165 3.51132 0
M  V30 7714 H 740.618 1.88636 4.7254 0
M  V30 7715 H 740.016 -1.19135 5.53013 0
M  V30 7716 H 738.573 -0.994566 6.44167 0
M  V30 7717 N 742.006 -1.2595 0.947325 0
M  V30 7718 C 743.422 -1.45737 0.650597 0
M  V30 7719 C 743.622 -1.85189 -0.794188 0
M  V30 7720 O 742.678 -1.97738 -1.57022 0
M  V30 7721 C 743.991 -2.53505 1.61728 0
M  V30 7722 C 745.539 -2.67351 1.62765 0
M  V30 7723 C 746.014 -3.78296 2.58179 0
M  V30 7724 N 747.505 -3.85696 2.56501 0
M  V30 7725 C 748.24 -4.71012 3.2701 0
M  V30 7726 N 747.736 -5.60669 4.06966 0
M  V30 7727 N 749.529 -4.64912 3.15932 0
M  V30 7728 H 741.68 -0.986327 1.8811 0
M  V30 7729 H 743.943 -0.494639 0.808725 0
M  V30 7730 H 743.649 -2.31357 2.6489 0
M  V30 7731 H 743.523 -3.51281 1.3741 0
M  V30 7732 H 745.91 -2.88869 0.603241 0
M  V30 7733 H 745.991 -1.69998 1.91139 0
M  V30 7734 H 745.635 -3.5753 3.60742 0
M  V30 7735 H 745.565 -4.75117 2.27093 0
M  V30 7736 H 748.056 -3.21601 1.98447 0
M  V30 7737 H 748.369 -6.22677 4.57704 0
M  V30 7738 H 746.714 -5.60402 4.11066 0
M  V30 7739 H 749.905 -3.93874 2.52945 0
M  V30 7740 H 750.078 -5.3118 3.71149 0
M  V30 7741 N 743.484 -0.715051 -1.40445 0
M  V30 7742 C 744.712 -0.263959 -2.05209 0
M  V30 7743 C 745.127 1.09403 -1.53871 0
M  V30 7744 O 744.484 1.68746 -0.695064 0
M  V30 7745 C 744.535 -0.234545 -3.60738 0
M  V30 7746 O 744.256 -1.53891 -4.10182 0
M  V30 7747 C 745.757 0.235164 -4.42676 0
M  V30 7748 H 742.977 -0.11876 -0.660407 0
M  V30 7749 H 745.521 -0.973107 -1.79864 0
M  V30 7750 H 743.676 0.425563 -3.85055 0
M  V30 7751 H 744.09 -1.43903 -5.04373 0
M  V30 7752 H 745.564 0.204598 -5.51621 0
M  V30 7753 H 746.041 1.27724 -4.20218 0
M  V30 7754 H 746.647 -0.394649 -4.23465 0
M  V30 7755 N 744.962 1.50701 -0.461195 0
M  V30 7756 C 746.239 1.94958 0.158296 0
M  V30 7757 C 746.619 1.40111 1.57899 0
M  V30 7758 O 745.967 0.597976 2.20537 0
M  V30 7759 C 746.177 3.48821 0.11172 0
M  V30 7760 C 747.525 4.23499 0.30552 0
M  V30 7761 O 748.549 3.557 0.188758 0
M  V30 7762 O 747.408 5.43823 0.540244 0
M  V30 7763 H 744.502 0.818674 0.117054 0
M  V30 7764 H 747.048 1.61508 -0.520888 0
M  V30 7765 H 745.82 3.81263 -0.880577 0
M  V30 7766 H 745.443 3.88781 0.832791 0
M  V30 7767 N 746.441 0.193421 1.56409 0
M  V30 7768 C 747.857 -0.162447 1.58771 0
M  V30 7769 C 748.057 -1.6116 1.20954 0
M  V30 7770 O 747.113 -2.3469 0.931497 0
M  V30 7771 C 748.426 0.138391 3.00381 0
M  V30 7772 C 749.974 0.0783649 3.12902 0
M  V30 7773 C 750.449 0.352491 4.56642 0
M  V30 7774 N 751.94 0.30105 4.62221 0
M  V30 7775 C 752.675 0.487028 5.71328 0
M  V30 7776 N 752.171 0.733265 6.88909 0
M  V30 7777 N 753.964 0.4214 5.60518 0
M  V30 7778 H 746.115 1.13909 1.79272 0
M  V30 7779 H 748.378 0.454528 0.83193 0
M  V30 7780 H 748.084 1.14312 3.32604 0
M  V30 7781 H 747.958 -0.559804 3.73023 0
M  V30 7782 H 750.345 -0.916963 2.80492 0
M  V30 7783 H 750.426 0.809611 2.4265 0
M  V30 7784 H 750.07 1.34513 4.89764 0
M  V30 7785 H 750 -0.399624 5.25081 0
M  V30 7786 H 752.491 0.117279 3.77718 0
M  V30 7787 H 752.804 0.86403 7.67955 0
M  V30 7788 H 751.149 0.770138 6.9072 0
M  V30 7789 H 754.34 0.229461 4.67537 0
M  V30 7790 H 754.513 0.569758 6.4549 0
M  V30 7791 N 747.919 -1.57396 -0.0801906 0
M  V30 7792 C 749.144 -1.91437 -0.797909 0
M  V30 7793 C 749.569 -0.789075 -1.70749 0
M  V30 7794 O 748.927 0.25857 -1.79447 0
M  V30 7795 C 748.975 -3.24402 -1.57467 0
M  V30 7796 O 748.079 -3.13043 -2.68473 0
M  V30 7797 H 747.42 -0.627109 -0.218243 0
M  V30 7798 H 749.95 -2.04537 -0.050949 0
M  V30 7799 H 749.96 -3.58072 -1.95571 0
M  V30 7800 H 748.635 -4.05884 -0.907229 0
M  V30 7801 H 747.212 -2.90915 -2.33287 0
M  V30 7802 N 749.397 0.351382 -1.53633 0
M  V30 7803 C 750.36 1.41403 -1.80383 0
M  V30 7804 C 751.36 1.45963 -0.674635 0
M  V30 7805 O 752.55 1.46476 -0.942895 0
M  V30 7806 C 749.682 2.80401 -1.93876 0
M  V30 7807 H 750.875 1.18951 -2.75301 0
M  V30 7808 H 748.428 0.58533 -1.44926 0
M  V30 7809 H 749.163 3.08147 -1.01074 0
M  V30 7810 H 748.948 2.78488 -2.7602 0
M  V30 7811 H 750.438 3.57329 -2.16116 0
M  V30 7812 N 750.875 1.45233 0.611969 0
M  V30 7813 C 752.286 1.4354 1.19387 0
M  V30 7814 C 752.637 0.160713 1.95541 0
M  V30 7815 O 751.762 -0.737954 2.03429 0
M  V30 7816 C 752.357 2.60045 2.17169 0
M  V30 7817 C 750.916 2.61486 2.70744 0
M  V30 7818 C 750.063 2.35708 1.46072 0
M  V30 7819 H 753.014 1.53536 0.401529 0
M  V30 7820 H 753.035 2.33893 3.00124 0
M  V30 7821 H 752.547 3.52803 1.61714 0
M  V30 7822 H 750.648 1.72721 3.30149 0
M  V30 7823 H 750.761 3.60572 3.15476 0
M  V30 7824 H 749.125 1.85178 1.74875 0
M  V30 7825 H 749.908 3.30606 0.924922 0
M  V30 7826 N 752.353 -0.854086 1.3245 0
M  V30 7827 C 753.602 -1.60318 1.22397 0
M  V30 7828 C 753.915 -1.9444 -0.212664 0
M  V30 7829 O 755.121 -2.67991 -0.435066 0
M  V30 7830 C 753.577 -2.8909 2.1437 0
M  V30 7831 C 753.185 -2.62391 3.63119 0
M  V30 7832 C 754.929 -3.67104 2.13155 0
M  V30 7833 C 752.836 -3.87167 4.47052 0
M  V30 7834 H 751.766 -0.601586 0.454544 0
M  V30 7835 H 754.417 -0.943023 1.57415 0
M  V30 7836 H 752.799 -3.56567 1.72268 0
M  V30 7837 H 753.973 -2.03222 4.13567 0
M  V30 7838 H 752.288 -1.97706 3.66471 0
M  V30 7839 H 754.885 -4.59696 2.731 0
M  V30 7840 H 755.228 -4.00876 1.12268 0
M  V30 7841 H 755.761 -3.06533 2.5354 0
M  V30 7842 H 752.5 -3.58536 5.48755 0
M  V30 7843 H 752.02 -4.45729 4.01355 0
M  V30 7844 H 753.699 -4.549 4.60081 0
M  V30 7845 N 753.831 -1.1567 -1.07043 0
M  V30 7846 C 755.247 -0.900006 -1.31803 0
M  V30 7847 C 755.447 0.451293 -1.96381 0
M  V30 7848 O 754.503 1.19252 -2.22565 0
M  V30 7849 C 755.816 -2.04334 -2.20609 0
M  V30 7850 C 757.364 -2.07823 -2.34048 0
M  V30 7851 C 757.839 -3.21488 -3.26204 0
M  V30 7852 N 759.33 -3.21156 -3.33786 0
M  V30 7853 C 760.065 -4.05746 -4.05163 0
M  V30 7854 N 759.561 -5.00407 -4.79129 0
M  V30 7855 N 761.354 -3.93759 -4.01136 0
M  V30 7856 H 753.505 -2.02681 -0.635146 0
M  V30 7857 H 755.768 -0.883956 -0.342528 0
M  V30 7858 H 755.474 -3.01895 -1.80423 0
M  V30 7859 H 755.348 -1.97838 -3.21154 0
M  V30 7860 H 757.735 -1.1086 -2.73485 0
M  V30 7861 H 757.816 -2.18386 -1.33197 0
M  V30 7862 H 757.46 -4.18706 -2.87485 0
M  V30 7863 H 757.39 -3.08162 -4.27017 0
M  V30 7864 H 759.881 -2.52606 -2.81067 0
M  V30 7865 H 760.194 -5.61387 -5.31097 0
M  V30 7866 H 758.539 -5.04393 -4.78135 0
M  V30 7867 H 761.73 -3.19115 -3.42466 0
M  V30 7868 H 761.903 -4.59906 -4.56498 0
M  V30 7869 N 755.309 1.25446 -0.953992 0
M  V30 7870 C 756.534 1.97755 -0.625129 0
M  V30 7871 C 756.959 1.70437 0.795787 0
M  V30 7872 O 756.317 0.95992 1.53803 0
M  V30 7873 C 756.365 3.49463 -0.889251 0
M  V30 7874 O 755.469 4.12387 0.0322757 0
M  V30 7875 H 754.81 0.61998 -0.237742 0
M  V30 7876 H 757.34 1.59582 -1.28041 0
M  V30 7877 H 757.35 3.99772 -0.815263 0
M  V30 7878 H 756.025 3.68676 -1.92487 0
M  V30 7879 H 754.602 3.72782 -0.0938625 0
M  V30 7880 N 756.787 0.722489 1.40064 0
M  V30 7881 C 757.75 0.0830209 2.2905 0
M  V30 7882 C 758.75 -0.680208 1.45705 0
M  V30 7883 O 759.94 -0.511084 1.66534 0
M  V30 7884 C 757.072 -0.892092 3.29021 0
M  V30 7885 H 758.265 0.866848 2.87099 0
M  V30 7886 H 755.818 0.487556 1.48501 0
M  V30 7887 H 756.553 -1.70273 2.76003 0
M  V30 7888 H 756.338 -0.34761 3.90556 0
M  V30 7889 H 757.828 -1.33648 3.95636 0
M  V30 7890 N 758.265 -1.50454 0.469181 0
M  V30 7891 C 759.49 -2.0722 -0.0864892 0
M  V30 7892 C 759.915 -1.33098 -1.32916 0
M  V30 7893 O 759.273 -0.378084 -1.77314 0
M  V30 7894 C 759.321 -3.58845 -0.355384 0
M  V30 7895 O 758.425 -3.86583 -1.43622 0
M  V30 7896 H 757.766 -0.663889 0.0121414 0
M  V30 7897 H 760.296 -1.93674 0.659674 0
M  V30 7898 H 760.306 -4.03617 -0.596447 0
M  V30 7899 H 758.981 -4.12211 0.552698 0
M  V30 7900 H 757.558 -3.5365 -1.18262 0
M  V30 7901 N 759.743 -0.201713 -1.56304 0
M  V30 7902 C 760.675 0.748466 -2.16635 0
M  V30 7903 C 761.688 1.172 -1.12996 0
M  V30 7904 O 762.877 1.10658 -1.40061 0
M  V30 7905 C 759.977 2.02296 -2.719 0
M  V30 7906 C 759.15 1.75818 -4.00508 0
M  V30 7907 C 758.209 2.87779 -4.40533 0
M  V30 7908 O 757.235 2.57101 -5.07826 0
M  V30 7909 N 758.437 4.16287 -4.04581 0
M  V30 7910 H 761.202 0.232505 -2.98797 0
M  V30 7911 H 758.763 -0.0199822 -1.61888 0
M  V30 7912 H 760.755 2.7635 -2.95657 0
M  V30 7913 H 759.325 2.44996 -1.94154 0
M  V30 7914 H 758.545 0.855095 -3.84814 0
M  V30 7915 H 759.833 1.55532 -4.84445 0
M  V30 7916 H 759.231 4.44061 -3.50466 0
M  V30 7917 H 757.788 4.86946 -4.33274 0
M  V30 7918 N 761.222 1.57436 0.0718424 0
M  V30 7919 C 762.185 2.02703 1.06977 0
M  V30 7920 C 763.185 0.924062 1.31597 0
M  V30 7921 O 764.375 1.18894 1.27318 0
M  V30 7922 C 761.507 2.40763 2.41342 0
M  V30 7923 H 762.7 2.92098 0.679619 0
M  V30 7924 H 760.253 1.5304 0.317565 0
M  V30 7925 H 760.988 1.54394 2.8519 0
M  V30 7926 H 760.773 3.21249 2.24814 0
M  V30 7927 H 762.263 2.76361 3.13073 0
M  V30 7928 N 762.7 -0.34323 1.53817 0
M  V30 7929 C 763.61 -1.44493 1.84821 0
M  V30 7930 C 764.626 -1.57556 0.738381 0
M  V30 7931 O 765.802 -1.73026 1.03072 0
M  V30 7932 C 762.867 -2.79478 2.05166 0
M  V30 7933 C 761.928 -2.75756 3.29025 0
M  V30 7934 C 761.161 -4.04302 3.4839 0
M  V30 7935 O 761.384 -5.01595 2.71586 0
M  V30 7936 O 760.318 -4.08754 4.41819 0
M  V30 7937 H 764.144 -1.21209 2.78464 0
M  V30 7938 H 761.729 -0.535437 1.39476 0
M  V30 7939 H 763.611 -3.59419 2.19991 0
M  V30 7940 H 762.286 -3.02692 1.14713 0
M  V30 7941 H 761.193 -1.94434 3.19603 0
M  V30 7942 H 762.526 -2.57495 4.19472 0
M  V30 7943 N 764.178 -1.45556 -0.604258 0
M  V30 7944 C 765.088 -1.57025 -1.74299 0
M  V30 7945 C 766.104 -0.45456 -1.67958 0
M  V30 7946 O 767.28 -0.715711 -1.88254 0
M  V30 7947 C 764.345 -1.53702 -3.10768 0
M  V30 7948 C 763.406 -2.76335 -3.28538 0
M  V30 7949 C 762.639 -2.73161 -4.58496 0
M  V30 7950 O 762.862 -1.80678 -5.41028 0
M  V30 7951 O 761.796 -3.64409 -4.79051 0
M  V30 7952 H 765.622 -2.53284 -1.67573 0
M  V30 7953 H 763.207 -1.28104 -0.768745 0
M  V30 7954 H 765.089 -1.54468 -3.92068 0
M  V30 7955 H 763.764 -0.605957 -3.17978 0
M  V30 7956 H 762.671 -2.8113 -2.46813 0
M  V30 7957 H 764.004 -3.68578 -3.26207 0
M  V30 7958 N 765.656 0.84705 -1.32902 0
M  V30 7959 C 766.566 1.98845 -1.2449 0
M  V30 7960 C 767.582 1.7329 -0.15702 0
M  V30 7961 O 768.758 1.978 -0.379104 0
M  V30 7962 C 765.823 3.32679 -0.975985 0
M  V30 7963 C 764.884 3.71405 -2.15306 0
M  V30 7964 C 764.117 4.98853 -1.89688 0
M  V30 7965 O 764.34 5.64134 -0.843168 0
M  V30 7966 O 763.274 5.34889 -2.76002 0
M  V30 7967 H 767.1 2.0888 -2.2046 0
M  V30 7968 H 764.685 0.978852 -1.12867 0
M  V30 7969 H 766.567 4.12885 -0.842826 0
M  V30 7970 H 765.242 3.23667 -0.0464954 0
M  V30 7971 H 764.149 2.91743 -2.34172 0
M  V30 7972 H 765.482 3.85073 -3.06561 0
M  V30 7973 N 767.134 1.16236 1.06428 0
M  V30 7974 C 768.545 0.950942 1.60667 0
M  V30 7975 C 768.896 -0.505491 1.89576 0
M  V30 7976 O 768.021 -1.37843 1.66818 0
M  V30 7977 C 768.616 1.71982 2.91904 0
M  V30 7978 C 767.175 1.55342 3.4285 0
M  V30 7979 C 766.322 1.72942 2.16763 0
M  V30 7980 H 769.273 1.31126 0.893959 0
M  V30 7981 H 769.294 1.19483 3.61253 0
M  V30 7982 H 768.806 2.77978 2.70831 0
M  V30 7983 H 766.907 0.5178 3.68985 0
M  V30 7984 H 767.02 2.33643 4.18267 0
M  V30 7985 H 765.384 1.15673 2.26918 0
M  V30 7986 H 766.167 2.80324 1.98175 0
M  V30 7987 N 768.612 -1.24939 0.960631 0
M  V30 7988 C 769.837 -1.9742 0.635608 0
M  V30 7989 C 770.262 -1.70857 -0.786737 0
M  V30 7990 O 769.62 -0.968063 -1.53291 0
M  V30 7991 C 769.668 -3.48987 0.907771 0
M  V30 7992 O 768.772 -4.12399 -0.0104053 0
M  V30 7993 H 768.113 -0.61871 0.241027 0
M  V30 7994 H 770.643 -1.58901 1.28886 0
M  V30 7995 H 770.653 -3.99334 0.836453 0
M  V30 7996 H 769.328 -3.6765 1.94439 0
M  V30 7997 H 767.905 -3.72727 0.113631 0
M  V30 7998 N 770.09 -0.729906 -1.39679 0
M  V30 7999 C 771.336 -0.27603 -2.00913 0
M  V30 8000 C 771.669 1.13227 -1.57776 0
M  V30 8001 O 770.944 1.7709 -0.804319 0
M  V30 8002 C 771.227 -0.372157 -3.58172 0
M  V30 8003 C 771.08 -1.81986 -4.11341 0
M  V30 8004 C 772.399 0.248378 -4.39399 0
M  V30 8005 H 769.518 -0.101773 -0.729939 0
M  V30 8006 H 772.16 -0.925104 -1.65957 0
M  V30 8007 H 770.31 0.180459 -3.88081 0
M  V30 8008 H 771.982 -2.42896 -3.92172 0
M  V30 8009 H 770.225 -2.34287 -3.65092 0
M  V30 8010 H 770.896 -1.83842 -5.20486 0
M  V30 8011 H 773.372 -0.222645 -4.15504 0
M  V30 8012 H 772.248 0.150746 -5.48693 0
M  V30 8013 H 772.509 1.33378 -4.21501 0
M  V30 8014 N 771.568 1.50203 -0.477153 0
M  V30 8015 C 772.478 2.32421 0.319027 0
M  V30 8016 C 773.494 1.43075 0.990233 0
M  V30 8017 O 774.67 1.76123 0.976873 0
M  V30 8018 C 771.735 3.17909 1.38328 0
M  V30 8019 C 770.796 4.23082 0.728036 0
M  V30 8020 C 770.029 5.04484 1.74158 0
M  V30 8021 O 770.252 4.8705 2.96881 0
M  V30 8022 O 769.186 5.8747 1.31006 0
M  V30 8023 H 773.012 3.01638 -0.353281 0
M  V30 8024 H 770.597 1.47478 -0.238891 0
M  V30 8025 H 772.479 3.70937 1.9996 0
M  V30 8026 H 771.154 2.51413 2.03895 0
M  V30 8027 H 770.061 3.7403 0.07261 0
M  V30 8028 H 771.394 4.92065 0.115216 0
M  V30 8029 N 773.046 0.209999 1.56195 0
M  V30 8030 C 774.457 -0.299943 1.84275 0
M  V30 8031 C 774.808 -1.60314 1.1311 0
M  V30 8032 O 773.933 -2.1273 0.396874 0
M  V30 8033 C 774.528 -0.550986 3.3429 0
M  V30 8034 C 773.087 -1.00526 3.62728 0
M  V30 8035 C 772.234 -0.0619828 2.77231 0
M  V30 8036 H 775.185 0.433458 1.52666 0
M  V30 8037 H 775.206 -1.39846 3.53869 0
M  V30 8038 H 774.718 0.397669 3.86057 0
M  V30 8039 H 772.819 -1.96768 3.16407 0
M  V30 8040 H 772.932 -0.887664 4.70805 0
M  V30 8041 H 771.296 -0.566648 2.48317 0
M  V30 8042 H 772.079 0.881383 3.31793 0
M  V30 8043 N 774.524 -1.57472 -0.0634922 0
M  V30 8044 C 775.77 -1.87932 -0.762194 0
M  V30 8045 C 776.103 -0.803377 -1.76804 0
M  V30 8046 O 775.378 0.185468 -1.93614 0
M  V30 8047 C 775.661 -3.29053 -1.46275 0
M  V30 8048 C 775.514 -4.47309 -0.472755 0
M  V30 8049 C 776.833 -3.68537 -2.40558 0
M  V30 8050 H 773.952 -0.683521 -0.275624 0
M  V30 8051 H 776.594 -1.89983 -0.0252651 0
M  V30 8052 H 774.744 -3.27435 -2.0909 0
M  V30 8053 H 776.416 -4.61053 0.150828 0
M  V30 8054 H 774.659 -4.33286 0.211187 0
M  V30 8055 H 775.33 -5.42853 -1.00072 0
M  V30 8056 H 777.806 -3.71302 -1.87814 0
M  V30 8057 H 776.682 -4.68152 -2.86574 0
M  V30 8058 H 776.943 -2.98917 -3.25731 0
M  V30 8059 N 776.003 0.335068 -1.53997 0
M  V30 8060 C 776.95 1.41187 -1.82579 0
M  V30 8061 C 777.92 1.51897 -0.672061 0
M  V30 8062 O 779.105 1.673 -0.917346 0
M  V30 8063 C 776.245 2.77717 -2.0486 0
M  V30 8064 C 775.358 2.7573 -3.32561 0
M  V30 8065 C 774.493 4.04032 -3.44864 0
M  V30 8066 C 773.532 3.96308 -4.66483 0
M  V30 8067 N 772.669 5.16317 -4.75774 0
M  V30 8068 H 777.509 1.16113 -2.74448 0
M  V30 8069 H 775.046 0.562305 -1.35928 0
M  V30 8070 H 777.004 3.57071 -2.15768 0
M  V30 8071 H 775.634 3.01124 -1.16294 0
M  V30 8072 H 774.686 1.88432 -3.3045 0
M  V30 8073 H 775.998 2.65902 -4.22016 0
M  V30 8074 H 775.152 4.91814 -3.55251 0
M  V30 8075 H 773.891 4.16652 -2.53481 0
M  V30 8076 H 772.896 3.06911 -4.56164 0
M  V30 8077 H 774.121 3.85263 -5.5924 0
M  V30 8078 H 772.067 5.29464 -3.87303 0
M  V30 8079 H 771.984 5.08779 -5.59178 0
M  V30 8080 H 773.252 6.05846 -4.9048 0
M  V30 8081 N 777.481 1.45874 0.596531 0
M  V30 8082 C 778.428 1.55389 1.70655 0
M  V30 8083 C 779.398 0.399036 1.61236 0
M  V30 8084 O 780.583 0.61396 1.80652 0
M  V30 8085 C 777.723 1.53705 3.0898 0
M  V30 8086 C 776.836 2.79823 3.29125 0
M  V30 8087 C 775.971 2.69735 4.5762 0
M  V30 8088 C 775.01 3.90856 4.71061 0
M  V30 8089 N 774.147 3.79237 5.90867 0
M  V30 8090 H 778.987 2.50211 1.61859 0
M  V30 8091 H 776.524 1.24146 0.789069 0
M  V30 8092 H 778.482 1.50715 3.89026 0
M  V30 8093 H 777.112 0.624247 3.16706 0
M  V30 8094 H 776.164 2.92852 2.42779 0
M  V30 8095 H 777.476 3.69628 3.34927 0
M  V30 8096 H 776.63 2.64773 5.45875 0
M  V30 8097 H 775.369 1.77547 4.54234 0
M  V30 8098 H 774.374 3.96164 3.81227 0
M  V30 8099 H 775.599 4.84124 4.76236 0
M  V30 8100 H 773.545 2.89825 5.88504 0
M  V30 8101 H 773.462 4.62686 5.97877 0
M  V30 8102 H 774.73 3.78227 6.8159 0
M  V30 8103 N 778.959 -0.83999 1.33349 0
M  V30 8104 C 780.184 -1.63249 1.27924 0
M  V30 8105 C 780.609 -1.87523 -0.147193 0
M  V30 8106 O 779.967 -1.43853 -1.10345 0
M  V30 8107 C 780.015 -2.96046 2.05886 0
M  V30 8108 O 779.119 -3.87303 1.4167 0
M  V30 8109 H 778.46 -0.49715 0.440157 0
M  V30 8110 H 780.99 -1.04512 1.75893 0
M  V30 8111 H 781 -3.45752 2.16609 0
M  V30 8112 H 779.675 -2.77701 3.09605 0
M  V30 8113 H 778.252 -3.45789 1.39585 0
M  V30 8114 N 780.437 -1.16799 -1.0581 0
M  V30 8115 C 781.369 -0.836774 -2.13379 0
M  V30 8116 C 782.382 0.158116 -1.6203 0
M  V30 8117 O 783.571 -0.0673211 -1.78373 0
M  V30 8118 C 780.671 -0.225959 -3.38146 0
M  V30 8119 C 779.844 -1.26217 -4.18794 0
M  V30 8120 C 778.903 -0.670257 -5.21914 0
M  V30 8121 O 777.929 -1.34042 -5.53192 0
M  V30 8122 N 779.131 0.540683 -5.77977 0
M  V30 8123 H 781.896 -1.76257 -2.42391 0
M  V30 8124 H 779.457 -1.06599 -1.21853 0
M  V30 8125 H 781.449 0.18317 -4.04285 0
M  V30 8126 H 780.019 0.603494 -3.06719 0
M  V30 8127 H 779.239 -1.84729 -3.48237 0
M  V30 8128 H 780.527 -1.9613 -4.69479 0
M  V30 8129 H 779.925 1.10322 -5.54838 0
M  V30 8130 H 778.482 0.891958 -6.45668 0
M  V30 8131 N 781.915 1.24427 -0.967243 0
M  V30 8132 C 782.865 2.23143 -0.468106 0
M  V30 8133 C 783.849 1.5449 0.449633 0
M  V30 8134 O 785.041 1.74761 0.28063 0
M  V30 8135 C 782.17 3.42454 0.240867 0
M  V30 8136 C 781.256 4.18355 -0.695674 0
M  V30 8137 N 781.647 4.71428 -1.83273 0
M  V30 8138 C 779.945 4.43116 -0.506365 0
M  V30 8139 C 780.646 5.29041 -2.41849 0
M  V30 8140 N 779.622 5.16213 -1.70369 0
M  V30 8141 H 783.424 2.61795 -1.3357 0
M  V30 8142 H 780.938 1.39809 -0.826277 0
M  V30 8143 H 782.935 4.12329 0.615668 0
M  V30 8144 H 781.595 3.05323 1.10491 0
M  V30 8145 H 782.606 4.68177 -2.21428 0
M  V30 8146 H 779.283 4.16319 0.313747 0
M  V30 8147 H 780.673 5.80811 -3.37799 0
M  V30 8148 N 783.393 0.737304 1.3929 0
M  V30 8149 C 784.809 0.413132 1.5416 0
M  V30 8150 C 785.009 -1.07574 1.70382 0
M  V30 8151 O 784.065 -1.86185 1.70562 0
M  V30 8152 C 785.378 1.19817 2.75798 0
M  V30 8153 C 786.926 1.18662 2.89635 0
M  V30 8154 C 787.401 1.95427 4.14213 0
M  V30 8155 N 788.892 1.92605 4.21257 0
M  V30 8156 C 789.627 2.48808 5.16606 0
M  V30 8157 N 789.123 3.13659 6.1773 0
M  V30 8158 N 790.916 2.38829 5.08839 0
M  V30 8159 H 783.067 1.70243 1.27008 0
M  V30 8160 H 785.33 0.720802 0.61575 0
M  V30 8161 H 785.036 2.25179 2.70161 0
M  V30 8162 H 784.91 0.804144 3.68529 0
M  V30 8163 H 787.297 0.141112 2.94762 0
M  V30 8164 H 787.378 1.62003 1.97961 0
M  V30 8165 H 787.022 2.9998 4.09847 0
M  V30 8166 H 786.952 1.4949 5.04936 0
M  V30 8167 H 789.443 1.45362 3.48824 0
M  V30 8168 H 789.756 3.54006 6.8695 0
M  V30 8169 H 788.101 3.17749 6.1811 0
M  V30 8170 H 791.292 1.87806 4.28773 0
M  V30 8171 H 791.465 2.82929 5.82971 0
M  V30 8172 N 784.871 -1.49948 0.485112 0
M  V30 8173 C 786.096 -2.073 -0.0645059 0
M  V30 8174 C 786.521 -1.345 -1.31497 0
M  V30 8175 O 785.879 -0.39687 -1.76903 0
M  V30 8176 C 785.927 -3.59201 -0.317304 0
M  V30 8177 O 785.031 -3.88085 -1.39514 0
M  V30 8178 H 784.372 -0.663723 0.0191822 0
M  V30 8179 H 786.902 -1.92963 0.680179 0
M  V30 8180 H 786.912 -4.04227 -0.553604 0
M  V30 8181 H 785.587 -4.11602 0.596387 0
M  V30 8182 H 784.164 -3.54885 -1.14504 0
M  V30 8183 N 786.349 -0.21828 -1.56081 0
M  V30 8184 C 787.574 0.422302 -2.03055 0
M  V30 8185 C 787.999 1.5279 -1.09713 0
M  V30 8186 O 787.357 1.81102 -0.0847187 0
M  V30 8187 C 787.405 0.934177 -3.48289 0
M  V30 8188 O 786.509 2.04574 -3.58083 0
M  V30 8189 H 785.85 0.0959764 -0.657027 0
M  V30 8190 H 788.38 -0.335958 -2.01823 0
M  V30 8191 H 788.39 1.24484 -3.88546 0
M  V30 8192 H 787.065 0.124963 -4.15712 0
M  V30 8193 H 785.642 1.74196 -3.29712 0
M  V30 8194 N 787.827 1.57504 0.0551401 0
M  V30 8195 C 789.052 1.92682 0.767352 0
M  V30 8196 C 789.477 0.81614 1.69472 0
M  V30 8197 O 788.835 -0.229989 1.79835 0
M  V30 8198 C 788.883 3.26866 1.52286 0
M  V30 8199 O 787.987 3.17274 2.63459 0
M  V30 8200 H 787.328 0.630502 0.208238 0
M  V30 8201 H 789.858 2.04592 0.0184026 0
M  V30 8202 H 789.868 3.61138 1.8985 0
M  V30 8203 H 788.543 4.07276 0.842541 0
M  V30 8204 H 787.12 2.94589 2.2863 0
M  V30 8205 N 789.305 -0.326896 1.54172 0
M  V30 8206 C 790.53 -1.08924 1.76494 0
M  V30 8207 C 790.955 -1.81039 0.510523 0
M  V30 8208 O 790.313 -1.73141 -0.537756 0
M  V30 8209 C 790.361 -2.06558 2.95578 0
M  V30 8210 O 789.465 -3.14394 2.6689 0
M  V30 8211 H 788.806 -0.314216 0.584948 0
M  V30 8212 H 791.336 -0.372207 2.01186 0
M  V30 8213 H 791.346 -2.49487 3.22832 0
M  V30 8214 H 790.021 -1.53469 3.86549 0
M  V30 8215 H 788.598 -2.76164 2.50576 0
M  V30 8216 N 790.784 -1.46188 -0.588786 0
M  V30 8217 C 791.747 -1.55882 -1.68029 0
M  V30 8218 C 792.747 -0.436515 -1.54762 0
M  V30 8219 O 793.937 -0.700626 -1.59489 0
M  V30 8220 C 791.069 -1.47332 -3.07418 0
M  V30 8221 H 792.262 -2.5315 -1.60795 0
M  V30 8222 H 789.815 -1.33908 -0.806116 0
M  V30 8223 H 790.55 -0.513193 -3.20214 0
M  V30 8224 H 790.335 -2.28753 -3.18456 0
M  V30 8225 H 791.825 -1.57187 -3.86887 0
M  V30 8226 N 792.262 0.832906 -1.33792 0
M  V30 8227 C 793.673 1.40489 -1.22963 0
M  V30 8228 C 794.024 1.95633 0.149026 0
M  V30 8229 O 793.149 1.8928 1.04891 0
M  V30 8230 C 793.744 2.55387 -2.22627 0
M  V30 8231 C 792.303 3.08522 -2.15618 0
M  V30 8232 C 791.45 1.81347 -2.09782 0
M  V30 8233 H 794.401 0.638156 -1.45304 0
M  V30 8234 H 794.422 3.33193 -1.83746 0
M  V30 8235 H 793.934 2.15222 -3.22957 0
M  V30 8236 H 792.035 3.53217 -1.18611 0
M  V30 8237 H 792.148 3.6829 -3.0643 0
M  V30 8238 H 790.512 2.01839 -1.55349 0
M  V30 8239 H 791.295 1.43369 -3.1193 0
M  V30 8240 N 793.74 1.17359 1.05189 0
M  V30 8241 C 794.69 0.858445 2.11222 0
M  V30 8242 C 795.674 -0.166991 1.60031 0
M  V30 8243 O 796.866 0.0354456 1.76965 0
M  V30 8244 C 793.995 0.373549 3.41262 0
M  V30 8245 C 793.081 1.43041 3.99249 0
M  V30 8246 N 793.472 2.64387 4.312 0
M  V30 8247 C 791.77 1.28828 4.26989 0
M  V30 8248 C 792.471 3.32296 4.77446 0
M  V30 8249 N 791.447 2.59674 4.77567 0
M  V30 8250 H 795.249 1.78104 2.33786 0
M  V30 8251 H 792.763 1.0623 1.22837 0
M  V30 8252 H 794.76 0.129331 4.16699 0
M  V30 8253 H 793.42 -0.542847 3.2013 0
M  V30 8254 H 794.431 3.01351 4.21198 0
M  V30 8255 H 791.108 0.43353 4.15243 0
M  V30 8256 H 792.498 4.35939 5.11279 0
M  V30 8257 N 795.218 -1.23913 0.973828 0
M  V30 8258 C 796.168 -2.22892 0.479933 0
M  V30 8259 C 797.152 -1.54726 -0.441434 0
M  V30 8260 O 798.344 -1.74908 -0.271358 0
M  V30 8261 C 795.473 -3.42577 -0.222702 0
M  V30 8262 C 794.559 -4.17981 0.717851 0
M  V30 8263 N 794.95 -4.7045 1.8577 0
M  V30 8264 C 793.248 -4.42841 0.529858 0
M  V30 8265 C 793.949 -5.27751 2.44651 0
M  V30 8266 N 792.925 -5.15302 1.73104 0
M  V30 8267 H 796.727 -2.61083 1.34956 0
M  V30 8268 H 794.241 -1.39368 0.83368 0
M  V30 8269 H 796.238 -4.1265 -0.593793 0
M  V30 8270 H 794.898 -3.05904 -1.0887 0
M  V30 8271 H 795.909 -4.66997 2.23908 0
M  V30 8272 H 792.586 -4.1648 -0.291664 0
M  V30 8273 H 793.976 -5.79011 3.40875 0
M  V30 8274 N 796.696 -0.74468 -1.38897 0
M  V30 8275 C 797.644 -0.100312 -2.32384 0
M  V30 8276 C 798.638 0.715191 -1.53562 0
M  V30 8277 O 799.844 0.615288 -1.69157 0
M  V30 8278 H 796.219 -0.0136403 -0.751876 0
M  V30 8279 H 798.19 -0.905007 -2.84345 0
M  V30 8280 C 796.939 0.785432 -3.38713 0
M  V30 8281 H 796.262 0.167308 -3.9945 0
M  V30 8282 H 797.702 1.20374 -4.06554 0
M  V30 8283 C 796.161 1.92408 -2.76552 0
M  V30 8284 O 796.691 3.01752 -2.65157 0
M  V30 8285 N 794.897 1.71642 -2.34494 0
M  V30 8286 H 794.444 0.827079 -2.43961 0
M  V30 8287 H 794.402 2.48 -1.93244 0
M  V30 8288 N 798.174 1.49689 -0.493057 0
M  V30 8289 C 799.124 2.25901 0.308682 0
M  V30 8290 C 800.108 1.30408 0.94247 0
M  V30 8291 O 801.3 1.55179 0.851384 0
M  V30 8292 C 798.429 3.14463 1.37725 0
M  V30 8293 C 797.515 4.17414 0.7501 0
M  V30 8294 N 797.906 5.05599 -0.142597 0
M  V30 8295 C 796.204 4.34377 1.01159 0
M  V30 8296 C 796.905 5.7954 -0.500782 0
M  V30 8297 N 795.881 5.43446 0.129386 0
M  V30 8298 H 799.683 2.91451 -0.378652 0
M  V30 8299 H 797.197 1.59441 -0.308614 0
M  V30 8300 H 799.194 3.67687 1.965 0
M  V30 8301 H 797.854 2.50464 2.06635 0
M  V30 8302 H 798.865 5.15354 -0.512894 0
M  V30 8303 H 795.542 3.81588 1.69402 0
M  V30 8304 H 796.932 6.60534 -1.23063 0
M  V30 8305 N 799.652 0.226554 1.55963 0
M  V30 8306 C 801.068 -0.128733 1.5908 0
M  V30 8307 C 801.268 -1.58558 1.24345 0
M  V30 8308 O 800.324 -2.32661 0.981069 0
M  V30 8309 C 801.637 0.202076 3.0002 0
M  V30 8310 C 803.185 0.144718 3.12665 0
M  V30 8311 C 803.66 0.449272 4.55791 0
M  V30 8312 N 805.151 0.399026 4.61478 0
M  V30 8313 C 805.886 0.608106 5.70166 0
M  V30 8314 N 805.382 0.879227 6.87198 0
M  V30 8315 N 807.175 0.5402 5.59498 0
M  V30 8316 H 799.326 1.17686 1.76816 0
M  V30 8317 H 801.589 0.472072 0.822102 0
M  V30 8318 H 801.295 1.21341 3.30105 0
M  V30 8319 H 801.169 -0.480554 3.74126 0
M  V30 8320 H 803.556 -0.857261 2.82374 0
M  V30 8321 H 803.637 0.860899 2.40878 0
M  V30 8322 H 803.281 1.44871 4.86801 0
M  V30 8323 H 803.211 -0.288157 5.25811 0
M  V30 8324 H 805.702 0.197372 3.77384 0
M  V30 8325 H 806.015 1.02673 7.65949 0
M  V30 8326 H 804.36 0.916477 6.88931 0
M  V30 8327 H 807.551 0.328581 4.66945 0
M  V30 8328 H 807.724 0.706548 6.44137 0
M  V30 8329 N 801.13 -1.57531 -0.0467866 0
M  V30 8330 C 802.355 -1.93087 -0.757123 0
M  V30 8331 C 802.78 -0.825116 -1.69037 0
M  V30 8332 O 802.138 0.220449 -1.79955 0
M  V30 8333 C 802.186 -3.27669 -1.5055 0
M  V30 8334 O 801.29 -3.18667 -2.61773 0
M  V30 8335 H 800.631 -0.631597 -0.204892 0
M  V30 8336 H 803.161 -2.04599 -0.00755232 0
M  V30 8337 H 803.171 -3.6214 -1.87932 0
M  V30 8338 H 801.846 -4.07717 -0.820931 0
M  V30 8339 H 800.423 -2.95798 -2.27064 0
M  V30 8340 N 802.608 0.318715 -1.54344 0
M  V30 8341 C 803.856 1.054 -1.72439 0
M  V30 8342 C 804.177 1.88388 -0.503495 0
M  V30 8343 O 803.447 1.89866 0.48246 0
M  V30 8344 H 802.027 0.392124 -0.635805 0
M  V30 8345 H 804.689 0.35398 -1.91659 0
M  V30 8346 H 803.785 1.71726 -2.60608 0
M  V30 8347 N 804.086 1.46499 0.581025 0
M  V30 8348 C 805.314 1.5547 1.36517 0
M  V30 8349 C 805.729 0.196407 1.87776 0
M  V30 8350 O 805.086 -0.806577 1.63709 0
M  V30 8351 C 805.137 2.56084 2.55154 0
M  V30 8352 O 804.858 3.86637 2.06018 0
M  V30 8353 C 806.359 2.75011 3.47683 0
M  V30 8354 H 803.579 0.525703 0.416986 0
M  V30 8355 H 806.123 1.9192 0.706177 0
M  V30 8356 H 804.278 2.22633 3.17039 0
M  V30 8357 H 804.692 4.41413 2.83292 0
M  V30 8358 H 806.166 3.49329 4.27403 0
M  V30 8359 H 806.643 1.81978 3.99726 0
M  V30 8360 H 807.249 3.09565 2.91632 0
M  V30 8361 N 805.565 -0.825799 1.34232 0
M  V30 8362 C 806.79 -1.61883 1.29648 0
M  V30 8363 C 807.215 -1.87669 -0.127295 0
M  V30 8364 O 806.573 -1.45016 -1.08813 0
M  V30 8365 C 806.621 -2.93846 2.09014 0
M  V30 8366 O 805.725 -3.85778 1.4577 0
M  V30 8367 H 805.066 -0.492454 0.445405 0
M  V30 8368 H 807.596 -1.02641 1.76992 0
M  V30 8369 H 807.606 -3.43435 2.20264 0
M  V30 8370 H 806.281 -2.74401 3.12533 0
M  V30 8371 H 804.858 -3.4429 1.43245 0
M  V30 8372 N 807.043 -1.17915 -1.04565 0
M  V30 8373 C 808.459 -0.927761 -1.29864 0
M  V30 8374 C 808.659 0.409536 -1.97294 0
M  V30 8375 O 807.715 1.14505 -2.25044 0
M  V30 8376 C 809.028 -2.08967 -2.16225 0
M  V30 8377 C 810.576 -2.12741 -2.29587 0
M  V30 8378 C 811.051 -3.28335 -3.19312 0
M  V30 8379 N 812.542 -3.28164 -3.26898 0
M  V30 8380 C 813.277 -4.14249 -3.96466 0
M  V30 8381 N 812.773 -5.10457 -4.68407 0
M  V30 8382 N 814.566 -4.02179 -3.92694 0
M  V30 8383 H 806.717 -2.03983 -0.592011 0
M  V30 8384 H 808.98 -0.891023 -0.323701 0
M  V30 8385 H 808.686 -3.05654 -1.73979 0
M  V30 8386 H 808.56 -2.04606 -3.16885 0
M  V30 8387 H 810.947 -1.16636 -2.71072 0
M  V30 8388 H 811.028 -2.21162 -1.28535 0
M  V30 8389 H 810.672 -4.2471 -2.78539 0
M  V30 8390 H 810.602 -3.17151 -4.20384 0
M  V30 8391 H 813.093 -2.58511 -2.75646 0
M  V30 8392 H 813.406 -5.72526 -5.1907 0
M  V30 8393 H 811.751 -5.14422 -4.67328 0
M  V30 8394 H 814.942 -3.26308 -3.3562 0
M  V30 8395 H 815.115 -4.69486 -4.4664 0
M  V30 8396 N 808.521 1.23394 -0.980386 0
M  V30 8397 C 809.769 1.91431 -0.647978 0
M  V30 8398 C 810.09 1.76871 0.821066 0
M  V30 8399 O 809.36 1.14808 1.58732 0
M  V30 8400 H 807.94 0.708516 -0.236673 0
M  V30 8401 H 810.602 1.50019 -1.2442 0
M  V30 8402 H 809.698 2.98854 -0.899592 0
M  V30 8403 N 809.999 0.752036 1.385 0
M  V30 8404 C 810.929 0.138718 2.33088 0
M  V30 8405 C 811.91 -0.705318 1.54788 0
M  V30 8406 O 813.095 -0.646821 1.83112 0
M  V30 8407 C 810.225 -0.75641 3.38963 0
M  V30 8408 C 809.179 -0.0152239 4.27997 0
M  V30 8409 C 808.505 -1.0285 5.24715 0
M  V30 8410 C 809.805 1.15226 5.09431 0
M  V30 8411 H 811.499 0.928852 2.84627 0
M  V30 8412 H 809.045 0.448111 1.3685 0
M  V30 8413 H 810.998 -1.19513 4.04097 0
M  V30 8414 H 809.722 -1.57885 2.85902 0
M  V30 8415 H 808.381 0.404061 3.64366 0
M  V30 8416 H 808.029 -1.84496 4.67943 0
M  V30 8417 H 807.729 -0.537238 5.85139 0
M  V30 8418 H 809.253 -1.46657 5.92726 0
M  V30 8419 H 810.667 0.791161 5.67815 0
M  V30 8420 H 809.064 1.57428 5.79082 0
M  V30 8421 H 810.134 1.9659 4.43261 0
M  V30 8422 N 811.477 -1.49425 0.500989 0
M  V30 8423 C 812.702 -2.07356 -0.0425154 0
M  V30 8424 C 813.127 -1.35887 -1.30063 0
M  V30 8425 O 812.485 -0.41561 -1.76472 0
M  V30 8426 C 812.533 -3.59518 -0.279188 0
M  V30 8427 O 811.637 -3.89542 -1.3539 0
M  V30 8428 H 810.978 -0.663482 0.0262207 0
M  V30 8429 H 813.508 -1.92231 0.700607 0
M  V30 8430 H 813.518 -4.04791 -0.5107 0
M  V30 8431 H 812.193 -4.10946 0.640009 0
M  V30 8432 H 810.77 -3.56079 -1.10734 0
M  V30 8433 N 812.955 -0.234822 -1.55841 0
M  V30 8434 C 814.371 0.120295 -1.59146 0
M  V30 8435 C 814.571 1.57896 -1.25184 0
M  V30 8436 O 813.627 2.32138 -0.993393 0
M  V30 8437 C 814.94 -0.217984 -2.99909 0
M  V30 8438 C 816.488 -0.161298 -3.12584 0
M  V30 8439 C 816.963 -0.473438 -4.55546 0
M  V30 8440 N 818.454 -0.423494 -4.6126 0
M  V30 8441 C 819.189 -0.638334 -5.69836 0
M  V30 8442 N 818.685 -0.915659 -6.86722 0
M  V30 8443 N 820.478 -0.569864 -5.59204 0
M  V30 8444 H 812.629 -1.18622 -1.76189 0
M  V30 8445 H 814.892 -0.476426 -0.819587 0
M  V30 8446 H 814.598 -1.2309 -3.29457 0
M  V30 8447 H 814.472 0.460707 -3.74376 0
M  V30 8448 H 816.859 0.842274 -2.82825 0
M  V30 8449 H 816.94 -0.873661 -2.40418 0
M  V30 8450 H 816.584 -1.47451 -4.86025 0
M  V30 8451 H 816.514 0.260268 -5.25956 0
M  V30 8452 H 819.005 -0.217383 -3.77274 0
M  V30 8453 H 819.318 -1.06734 -7.65394 0
M  V30 8454 H 817.663 -0.953 -6.88435 0
M  V30 8455 H 820.854 -0.35334 -4.66765 0
M  V30 8456 H 821.027 -0.740698 -6.43753 0
M  V30 8457 N 814.433 1.57553 0.0384317 0
M  V30 8458 C 815.365 2.02726 1.06934 0
M  V30 8459 C 816.378 0.938502 1.33026 0
M  V30 8460 O 817.567 1.21595 1.30678 0
M  V30 8461 C 814.667 2.37958 2.41308 0
M  V30 8462 C 813.84 3.69098 2.34703 0
M  V30 8463 C 812.899 3.91623 3.51451 0
M  V30 8464 O 811.925 4.628 3.31368 0
M  V30 8465 N 813.127 3.36538 4.72993 0
M  V30 8466 H 815.892 2.91781 0.684381 0
M  V30 8467 H 813.453 1.60307 0.226542 0
M  V30 8468 H 815.445 2.50172 3.18113 0
M  V30 8469 H 814.015 1.54621 2.71682 0
M  V30 8470 H 813.235 3.67325 1.43059 0
M  V30 8471 H 814.523 4.55144 2.27424 0
M  V30 8472 H 813.921 2.78828 4.92211 0
M  V30 8473 H 812.478 3.54148 5.47195 0
M  V30 8474 N 815.911 -0.310526 1.54511 0
M  V30 8475 C 816.821 -1.4054 1.87844 0
M  V30 8476 C 817.837 -1.55954 0.771635 0
M  V30 8477 O 819.013 -1.70801 1.06719 0
M  V30 8478 C 816.078 -2.75063 2.11048 0
M  V30 8479 C 815.139 -2.68715 3.348 0
M  V30 8480 C 814.372 -3.96821 3.56887 0
M  V30 8481 O 814.595 -4.95721 2.82165 0
M  V30 8482 O 813.529 -3.99291 4.50389 0
M  V30 8483 H 817.355 -1.15275 2.80972 0
M  V30 8484 H 814.94 -0.505732 1.4058 0
M  V30 8485 H 816.822 -3.54671 2.27566 0
M  V30 8486 H 815.497 -3.00191 1.21108 0
M  V30 8487 H 814.404 -1.87611 3.23655 0
M  V30 8488 H 815.737 -2.4854 4.2484 0
M  V30 8489 N 817.389 -1.46805 -0.573248 0
M  V30 8490 C 818.617 -1.56191 -1.3569 0
M  V30 8491 C 819.032 -0.206362 -1.87669 0
M  V30 8492 O 818.389 0.797883 -1.64134 0
M  V30 8493 C 818.44 -2.57433 -2.53792 0
M  V30 8494 O 818.161 -3.87724 -2.03965 0
M  V30 8495 C 819.662 -2.76851 -3.4622 0
M  V30 8496 H 816.882 -0.527907 -0.414192 0
M  V30 8497 H 819.426 -1.92292 -0.695989 0
M  V30 8498 H 817.581 -2.24311 -3.15854 0
M  V30 8499 H 817.995 -4.42909 -2.80948 0
M  V30 8500 H 819.469 -3.5159 -4.25545 0
M  V30 8501 H 819.946 -1.84095 -3.98755 0
M  V30 8502 H 820.552 -3.11107 -2.89987 0
M  V30 8503 N 818.867 0.818669 -1.34668 0
M  V30 8504 C 820.114 1.57512 -1.27264 0
M  V30 8505 C 820.442 1.93871 0.156254 0
M  V30 8506 O 819.697 1.60582 1.11857 0
M  V30 8507 C 819.996 2.88245 -2.11304 0
M  V30 8508 C 819.662 2.71159 -3.60255 0
M  V30 8509 C 818.324 2.66207 -4.00858 0
M  V30 8510 C 820.676 2.54538 -4.54819 0
M  V30 8511 C 818.004 2.4256 -5.34211 0
M  V30 8512 C 820.356 2.32421 -5.88356 0
M  V30 8513 C 819.02 2.25884 -6.28118 0
M  V30 8514 H 818.29 0.576378 -0.465692 0
M  V30 8515 H 820.937 0.9469 -1.66451 0
M  V30 8516 H 819.242 3.55381 -1.64958 0
M  V30 8517 H 820.939 3.45869 -2.02919 0
M  V30 8518 H 817.529 2.75856 -3.28027 0
M  V30 8519 H 821.713 2.57384 -4.24343 0
M  V30 8520 H 816.969 2.35959 -5.64033 0
M  V30 8521 H 821.143 2.18548 -6.61218 0
M  V30 8522 H 818.77 2.07322 -7.31383 0
M  V30 8523 N 820.346 1.18468 1.03938 0
M  V30 8524 C 821.623 0.890435 1.74157 0
M  V30 8525 C 822.003 -0.606409 2.02203 0
M  V30 8526 O 821.351 -1.5615 1.66822 0
M  V30 8527 C 821.561 1.73906 3.02585 0
M  V30 8528 C 822.909 1.96686 3.76297 0
M  V30 8529 O 823.933 1.70969 3.12487 0
M  V30 8530 O 822.792 2.39986 4.90988 0
M  V30 8531 H 819.886 0.330889 0.757919 0
M  V30 8532 H 822.432 1.29228 1.09992 0
M  V30 8533 H 821.204 2.75369 2.78006 0
M  V30 8534 H 820.827 1.33581 3.74489 0
M  V30 8535 N 821.824 -1.22873 0.986916 0
M  V30 8536 C 823.049 -1.96028 0.677341 0
M  V30 8537 C 823.474 -1.72487 -0.750319 0
M  V30 8538 O 822.832 -1.00036 -1.51203 0
M  V30 8539 C 822.88 -3.46983 0.981593 0
M  V30 8540 O 821.984 -4.12328 0.0770729 0
M  V30 8541 H 821.325 -0.613458 0.254096 0
M  V30 8542 H 823.855 -1.56132 1.32227 0
M  V30 8543 H 823.865 -3.9747 0.920969 0
M  V30 8544 H 822.54 -3.63442 2.02194 0
M  V30 8545 H 821.117 -3.72402 0.192666 0
M  V30 8546 N 823.302 -0.75937 -1.38099 0
M  V30 8547 C 824.212 -0.13774 -2.34195 0
M  V30 8548 C 825.228 0.693985 -1.59561 0
M  V30 8549 O 826.404 0.616792 -1.91723 0
M  V30 8550 C 823.469 0.740535 -3.38699 0
M  V30 8551 C 822.53 -0.106225 -4.29169 0
M  V30 8552 C 821.763 0.730225 -5.28681 0
M  V30 8553 O 821.986 1.96796 -5.35376 0
M  V30 8554 O 820.92 0.145969 -6.01723 0
M  V30 8555 H 824.746 -0.931512 -2.89061 0
M  V30 8556 H 822.331 -0.520345 -1.40046 0
M  V30 8557 H 824.213 1.24232 -4.02672 0
M  V30 8558 H 822.888 1.51271 -2.8618 0
M  V30 8559 H 821.795 -0.654088 -3.68337 0
M  V30 8560 H 823.128 -0.841186 -4.84959 0
M  V30 8561 N 824.78 1.49157 -0.508906 0
M  V30 8562 C 826.008 2.06879 0.0293734 0
M  V30 8563 C 826.423 1.36823 1.30095 0
M  V30 8564 O 825.78 0.449034 1.7689 0
M  V30 8565 C 825.831 3.60423 0.278791 0
M  V30 8566 O 825.552 4.27844 -0.942389 0
M  V30 8567 C 827.053 4.34881 0.859825 0
M  V30 8568 H 824.273 0.67057 -0.0240184 0
M  V30 8569 H 826.817 1.91834 -0.708526 0
M  V30 8570 H 824.972 3.75145 0.966689 0
M  V30 8571 H 825.386 5.19671 -0.710097 0
M  V30 8572 H 826.86 5.43161 0.983884 0
M  V30 8573 H 827.337 3.9789 1.85958 0
M  V30 8574 H 827.943 4.24785 0.209152 0
M  V30 8575 N 826.258 0.243083 1.55714 0
M  V30 8576 C 827.19 -0.690766 2.18543 0
M  V30 8577 C 828.203 -1.14163 1.16064 0
M  V30 8578 O 829.392 -1.06906 1.42946 0
M  V30 8579 C 826.492 -1.95016 2.77168 0
M  V30 8580 C 825.665 -1.65137 4.05029 0
M  V30 8581 C 824.724 -2.75998 4.48009 0
M  V30 8582 O 823.75 -2.43547 5.14464 0
M  V30 8583 N 824.952 -4.05414 4.15476 0
M  V30 8584 H 827.717 -0.153203 2.99308 0
M  V30 8585 H 825.278 0.0628968 1.61778 0
M  V30 8586 H 827.27 -2.68414 3.0288 0
M  V30 8587 H 825.84 -2.39762 2.00582 0
M  V30 8588 H 825.06 -0.752768 3.86946 0
M  V30 8589 H 826.348 -1.42633 4.88399 0
M  V30 8590 H 825.746 -4.34613 3.62116 0
M  V30 8591 H 824.303 -4.75288 4.46032 0
M  V30 8592 N 827.736 -1.57571 -0.0300757 0
M  V30 8593 C 828.646 -2.09892 -1.04798 0
M  V30 8594 C 829.662 -1.03732 -1.39698 0
M  V30 8595 O 830.838 -1.35461 -1.49038 0
M  V30 8596 C 827.903 -2.56707 -2.33028 0
M  V30 8597 C 826.964 -3.77345 -2.04718 0
M  V30 8598 C 826.197 -4.21918 -3.26834 0
M  V30 8599 O 826.42 -3.66025 -4.37472 0
M  V30 8600 O 825.354 -5.14362 -3.12594 0
M  V30 8601 H 829.18 -2.97023 -0.633344 0
M  V30 8602 H 826.765 -1.47344 -0.246991 0
M  V30 8603 H 828.647 -2.87154 -3.08417 0
M  V30 8604 H 827.322 -1.72688 -2.73789 0
M  V30 8605 H 826.229 -3.51919 -1.26901 0
M  V30 8606 H 827.562 -4.62345 -1.68813 0
M  V30 8607 N 829.214 0.302327 -1.54673 0
M  V30 8608 C 830.439 1.06103 -1.78205 0
M  V30 8609 C 830.864 1.80204 -0.53926 0
M  V30 8610 O 830.222 1.73975 0.510142 0
M  V30 8611 C 830.27 2.01829 -2.98827 0
M  V30 8612 O 829.374 3.10108 -2.71858 0
M  V30 8613 H 828.715 0.30487 -0.589873 0
M  V30 8614 H 831.245 0.340153 -2.01753 0
M  V30 8615 H 831.255 2.44319 -3.2676 0
M  V30 8616 H 829.93 1.473 -3.88942 0
M  V30 8617 H 828.507 2.72142 -2.54937 0
M  V30 8618 N 830.692 1.47107 0.565454 0
M  V30 8619 C 832.108 1.32443 0.890566 0
M  V30 8620 C 832.308 0.308735 1.99121 0
M  V30 8621 O 831.364 -0.28265 2.50913 0
M  V30 8622 C 832.677 2.71548 1.2916 0
M  V30 8623 C 834.225 2.7977 1.40349 0
M  V30 8624 C 834.7 4.19497 1.83811 0
M  V30 8625 N 836.191 4.21998 1.90975 0
M  V30 8626 C 836.926 5.2702 2.25916 0
M  V30 8627 N 836.422 6.42353 2.59527 0
M  V30 8628 N 838.215 5.14393 2.26619 0
M  V30 8629 H 830.366 2.11786 -0.161328 0
M  V30 8630 H 832.629 0.947952 -0.00950631 0
M  V30 8631 H 832.335 3.47265 0.556753 0
M  V30 8632 H 832.209 3.02782 2.24951 0
M  V30 8633 H 834.596 2.0433 2.12916 0
M  V30 8634 H 834.677 2.522 0.427655 0
M  V30 8635 H 834.321 4.95439 1.11816 0
M  V30 8636 H 834.251 4.44486 2.82382 0
M  V30 8637 H 836.742 3.38791 1.6742 0
M  V30 8638 H 837.055 7.18252 2.85191 0
M  V30 8639 H 835.4 6.45687 2.57126 0
M  V30 8640 H 838.591 4.2332 1.99794 0
M  V30 8641 H 838.764 5.96349 2.5352 0
M  V30 8642 N 832.17 -0.811516 1.35101 0
M  V30 8643 C 833.447 -1.55491 1.18667 0
M  V30 8644 C 833.827 -2.09775 -0.236189 0
M  V30 8645 O 833.175 -1.91989 -1.23905 0
M  V30 8646 C 833.385 -2.66732 2.25067 0
M  V30 8647 C 834.733 -3.35201 2.60625 0
M  V30 8648 O 835.757 -2.76998 2.23943 0
M  V30 8649 O 834.616 -4.40334 3.23679 0
M  V30 8650 H 831.71 -0.686783 0.460716 0
M  V30 8651 H 834.256 -0.851903 1.46768 0
M  V30 8652 H 833.028 -2.24457 3.20523 0
M  V30 8653 H 832.651 -3.44673 1.98208 0
M  V30 8654 N 833.648 -1.19017 -1.03309 0
M  V30 8655 C 834.873 -1.01598 -1.80811 0
M  V30 8656 C 835.298 0.430773 -1.83101 0
M  V30 8657 O 834.656 1.30946 -1.25391 0
M  V30 8658 C 834.704 -1.5845 -3.23923 0
M  V30 8659 O 833.808 -0.810972 -4.04348 0
M  V30 8660 H 833.149 -0.359398 -0.558327 0
M  V30 8661 H 835.679 -1.57945 -1.30055 0
M  V30 8662 H 835.689 -1.61486 -3.74682 0
M  V30 8663 H 834.364 -2.63752 -3.21571 0
M  V30 8664 H 832.941 -0.85353 -3.63 0
M  V30 8665 N 835.127 1.22348 -0.993418 0
M  V30 8666 C 836.09 2.22522 -0.549251 0
M  V30 8667 C 837.09 1.56529 0.368164 0
M  V30 8668 O 838.28 1.73463 0.16005 0
M  V30 8669 C 835.412 3.40307 0.201037 0
M  V30 8670 H 836.605 2.63332 -1.43515 0
M  V30 8671 H 834.158 1.35407 -0.78068 0
M  V30 8672 H 834.893 3.0497 1.10289 0
M  V30 8673 H 834.678 3.8942 -0.457685 0
M  V30 8674 H 836.168 4.14597 0.499946 0
M  V30 8675 N 836.605 0.766683 1.37694 0
M  V30 8676 C 837.835 0.339446 2.03792 0
M  V30 8677 C 838.243 -1.04153 1.57952 0
M  V30 8678 O 837.586 -1.67521 0.753826 0
M  V30 8679 C 837.648 0.29822 3.58261 0
M  V30 8680 C 837.312 1.62293 4.27212 0
M  V30 8681 C 838.309 2.57447 4.51682 0
M  V30 8682 C 835.994 1.89597 4.65143 0
M  V30 8683 C 837.988 3.78117 5.13134 0
M  V30 8684 C 835.675 3.10538 5.26317 0
M  V30 8685 C 836.673 4.04617 5.50249 0
M  V30 8686 O 836.361 5.23429 6.10145 0
M  V30 8687 H 836.093 0.140952 0.661142 0
M  V30 8688 H 838.647 1.04022 1.77111 0
M  V30 8689 H 836.877 -0.458897 3.83967 0
M  V30 8690 H 838.566 -0.101263 4.05774 0
M  V30 8691 H 839.332 2.37633 4.22795 0
M  V30 8692 H 835.211 1.17199 4.45854 0
M  V30 8693 H 838.755 4.51563 5.3173 0
M  V30 8694 H 834.652 3.3024 5.54628 0
M  V30 8695 H 835.42 5.24187 6.28626 0
M  V30 8696 N 838.083 -1.48885 0.516809 0
M  V30 8697 C 839.329 -2.02788 -0.0220928 0
M  V30 8698 C 839.662 -1.39433 -1.35175 0
M  V30 8699 O 838.937 -0.535459 -1.86984 0
M  V30 8700 C 839.22 -3.59753 -0.158012 0
M  V30 8701 C 839.073 -4.33611 1.19588 0
M  V30 8702 C 840.392 -4.30984 -0.891133 0
M  V30 8703 H 837.511 -0.736971 -0.00655488 0
M  V30 8704 H 840.153 -1.77746 0.671287 0
M  V30 8705 H 838.303 -3.8122 -0.748568 0
M  V30 8706 H 839.975 -4.23598 1.82653 0
M  V30 8707 H 838.218 -3.95547 1.78116 0
M  V30 8708 H 838.889 -5.41846 1.05391 0
M  V30 8709 H 841.365 -4.14267 -0.39012 0
M  V30 8710 H 840.241 -5.40527 -0.955107 0
M  V30 8711 H 840.502 -3.97336 -1.93847 0
M  V30 8712 N 839.561 -0.251338 -1.55583 0
M  V30 8713 C 840.471 0.656978 -2.25213 0
M  V30 8714 C 841.487 1.18966 -1.26977 0
M  V30 8715 O 842.663 1.22499 -1.59862 0
M  V30 8716 C 839.728 1.83527 -2.94141 0
M  V30 8717 C 838.789 1.34162 -4.07798 0
M  V30 8718 C 838.022 2.46375 -4.73429 0
M  V30 8719 O 838.245 3.65205 -4.38157 0
M  V30 8720 O 837.179 2.15881 -5.61853 0
M  V30 8721 H 841.005 0.0936395 -3.03556 0
M  V30 8722 H 838.59 -0.0196638 -1.49387 0
M  V30 8723 H 840.472 2.52279 -3.3754 0
M  V30 8724 H 839.147 2.38614 -2.18735 0
M  V30 8725 H 838.054 0.621249 -3.68906 0
M  V30 8726 H 839.387 0.836779 -4.85035 0
M  V30 8727 N 841.039 1.57585 0.0217189 0
M  V30 8728 C 842.45 1.7787 0.567377 0
M  V30 8729 C 842.801 0.883337 1.7519 0
M  V30 8730 O 841.926 0.0800819 2.16252 0
M  V30 8731 C 842.521 3.2257 1.03606 0
M  V30 8732 C 841.08 3.44026 1.52718 0
M  V30 8733 C 840.227 2.73313 0.468545 0
M  V30 8734 H 843.178 1.57377 -0.2045 0
M  V30 8735 H 843.199 3.29488 1.9031 0
M  V30 8736 H 842.711 3.87711 0.173739 0
M  V30 8737 H 840.812 2.8407 2.41111 0
M  V30 8738 H 840.925 4.52659 1.56962 0
M  V30 8739 H 839.289 2.37299 0.925263 0
M  V30 8740 H 840.072 3.41141 -0.384438 0
M  V30 8741 N 842.517 -0.29412 1.54831 0
M  V30 8742 C 843.464 -1.36296 1.86258 0
M  V30 8743 C 844.434 -1.50061 0.712097 0
M  V30 8744 O 845.619 -1.64809 0.961381 0
M  V30 8745 C 842.759 -2.72187 2.12151 0
M  V30 8746 C 841.872 -2.66816 3.39755 0
M  V30 8747 C 841.007 -3.94747 3.55455 0
M  V30 8748 C 840.046 -3.838 4.76827 0
M  V30 8749 N 839.183 -5.03521 4.89296 0
M  V30 8750 H 844.023 -1.08796 2.7743 0
M  V30 8751 H 841.56 -0.526069 1.37371 0
M  V30 8752 H 843.518 -3.51225 2.25159 0
M  V30 8753 H 842.148 -2.97934 1.24237 0
M  V30 8754 H 841.2 -1.79605 3.3533 0
M  V30 8755 H 842.512 -2.5462 4.28917 0
M  V30 8756 H 841.666 -4.82223 3.68166 0
M  V30 8757 H 840.405 -4.09785 2.64438 0
M  V30 8758 H 839.41 -2.94708 4.64141 0
M  V30 8759 H 840.635 -3.70301 5.69258 0
M  V30 8760 H 838.581 -5.1901 4.01204 0
M  V30 8761 H 838.498 -4.93775 5.72471 0
M  V30 8762 H 839.766 -5.92629 5.06371 0
M  V30 8763 N 843.995 -1.47404 -0.557645 0
M  V30 8764 C 844.905 -1.62491 -1.69216 0
M  V30 8765 C 845.921 -0.507764 -1.66426 0
M  V30 8766 O 847.097 -0.775241 -1.85882 0
M  V30 8767 C 844.162 -1.63511 -3.05721 0
M  V30 8768 C 843.223 -2.86648 -3.1958 0
M  V30 8769 C 842.456 -2.87609 -4.49574 0
M  V30 8770 O 842.679 -1.97799 -5.35006 0
M  V30 8771 O 841.613 -3.79465 -4.67215 0
M  V30 8772 H 845.439 -2.58487 -1.59431 0
M  V30 8773 H 843.024 -1.30485 -0.7276 0
M  V30 8774 H 844.906 -1.66863 -3.86956 0
M  V30 8775 H 843.581 -0.706812 -3.15889 0
M  V30 8776 H 842.488 -2.8884 -2.37744 0
M  V30 8777 H 843.821 -3.7877 -3.14316 0
M  V30 8778 N 845.473 0.80434 -1.35529 0
M  V30 8779 C 846.75 1.5486 -1.1949 0
M  V30 8780 C 847.13 2.09897 0.22506 0
M  V30 8781 O 846.478 1.92643 1.22886 0
M  V30 8782 C 846.688 2.65535 -2.26478 0
M  V30 8783 C 848.036 3.33814 -2.62399 0
M  V30 8784 O 849.06 2.75807 -2.25409 0
M  V30 8785 O 847.919 4.38612 -3.26009 0
M  V30 8786 H 845.013 0.68433 -0.464351 0
M  V30 8787 H 847.559 0.844107 -1.47217 0
M  V30 8788 H 846.331 2.22754 -3.21709 0
M  V30 8789 H 845.954 3.43617 -2.00033 0
M  V30 8790 N 846.951 1.19563 1.02676 0
M  V30 8791 C 848.181 1.0234 1.79472 0
M  V30 8792 C 848.589 -0.430891 1.84228 0
M  V30 8793 O 847.932 -1.31106 1.28674 0
M  V30 8794 C 847.994 1.51901 3.25832 0
M  V30 8795 C 847.658 3.00045 3.44706 0
M  V30 8796 C 848.655 3.9779 3.34752 0
M  V30 8797 C 846.34 3.38784 3.70851 0
M  V30 8798 C 848.334 5.32267 3.50672 0
M  V30 8799 C 846.021 4.73419 3.86416 0
M  V30 8800 C 847.019 5.69969 3.7633 0
M  V30 8801 O 846.707 7.02165 3.91432 0
M  V30 8802 H 846.439 0.360936 0.571578 0
M  V30 8803 H 848.993 1.58863 1.30198 0
M  V30 8804 H 847.223 0.897546 3.7614 0
M  V30 8805 H 848.912 1.30853 3.84229 0
M  V30 8806 H 849.678 3.69207 3.14502 0
M  V30 8807 H 845.557 2.64183 3.77794 0
M  V30 8808 H 849.101 6.07612 3.42715 0
M  V30 8809 H 844.998 5.01697 4.06165 0
M  V30 8810 H 845.766 7.09268 4.08511 0
M  V30 8811 N 848.429 -1.21819 0.999893 0
M  V30 8812 C 849.654 -1.95298 0.698094 0
M  V30 8813 C 850.079 -1.73273 -0.731982 0
M  V30 8814 O 849.437 -1.01634 -1.50134 0
M  V30 8815 C 849.485 -3.45922 1.01834 0
M  V30 8816 O 848.589 -4.12223 0.120801 0
M  V30 8817 H 847.93 -0.610729 0.260588 0
M  V30 8818 H 850.46 -1.5472 1.33876 0
M  V30 8819 H 850.47 -3.96471 0.963074 0
M  V30 8820 H 849.145 -3.61278 2.06037 0
M  V30 8821 H 847.722 -3.72177 0.232153 0
M  V30 8822 N 849.908 -0.773975 -1.37286 0
M  V30 8823 C 850.858 -0.135245 -2.27599 0
M  V30 8824 C 851.842 0.671691 -1.46209 0
M  V30 8825 O 853.034 0.534299 -1.68743 0
M  V30 8826 C 850.163 0.741298 -3.35201 0
M  V30 8827 C 849.249 -0.0735896 -4.24036 0
M  V30 8828 N 849.64 -1.12035 -4.93236 0
M  V30 8829 C 847.938 0.150038 -4.45748 0
M  V30 8830 C 848.639 -1.61512 -5.58828 0
M  V30 8831 N 847.615 -0.926922 -5.35639 0
M  V30 8832 H 851.417 -0.936646 -2.78575 0
M  V30 8833 H 848.931 -0.611944 -1.50429 0
M  V30 8834 H 850.928 1.21468 -3.98812 0
M  V30 8835 H 849.588 1.54142 -2.8578 0
M  V30 8836 H 850.599 -1.50253 -4.95625 0
M  V30 8837 H 847.276 0.921891 -4.07195 0
M  V30 8838 H 848.666 -2.48818 -6.24131 0
M  V30 8839 N 851.386 1.48609 -0.524698 0
M  V30 8840 C 852.663 1.95454 0.075465 0
M  V30 8841 C 853.043 1.46682 1.51814 0
M  V30 8842 O 852.391 0.690975 2.17802 0
M  V30 8843 C 852.601 3.48981 -0.0363273 0
M  V30 8844 C 853.949 4.24414 0.125624 0
M  V30 8845 O 854.973 3.5618 0.0377239 0
M  V30 8846 O 853.832 5.45625 0.309104 0
M  V30 8847 H 850.926 0.822902 0.0822256 0
M  V30 8848 H 853.472 1.59153 -0.588921 0
M  V30 8849 H 852.244 3.77185 -1.04149 0
M  V30 8850 H 851.867 3.91963 0.667146 0
M  V30 8851 N 852.864 0.259585 1.55447 0
M  V30 8852 C 853.814 -0.648769 2.18575 0
M  V30 8853 C 854.798 -1.1299 1.14552 0
M  V30 8854 O 855.99 -1.07756 1.4042 0
M  V30 8855 C 853.119 -1.83963 2.89849 0
M  V30 8856 C 852.205 -1.37641 4.01143 0
M  V30 8857 N 852.596 -0.628269 5.01883 0
M  V30 8858 C 850.894 -1.66066 4.1393 0
M  V30 8859 C 851.595 -0.386746 5.80413 0
M  V30 8860 N 850.571 -0.954665 5.35151 0
M  V30 8861 H 854.373 -0.0691616 2.93819 0
M  V30 8862 H 851.887 0.0624525 1.6228 0
M  V30 8863 H 853.884 -2.50151 3.33512 0
M  V30 8864 H 852.544 -2.42334 2.16112 0
M  V30 8865 H 853.555 -0.277123 5.17158 0
M  V30 8866 H 850.232 -2.25484 3.51373 0
M  V30 8867 H 851.622 0.211382 6.71567 0
M  V30 8868 N 854.342 -1.57594 -0.0133615 0
M  V30 8869 C 855.588 -1.90262 -0.702019 0
M  V30 8870 C 855.921 -0.859219 -1.74158 0
M  V30 8871 O 855.196 0.123778 -1.94106 0
M  V30 8872 C 855.479 -3.3354 -1.35732 0
M  V30 8873 C 855.332 -4.48586 -0.330208 0
M  V30 8874 C 856.651 -3.76004 -2.28712 0
M  V30 8875 H 853.77 -0.691943 -0.253739 0
M  V30 8876 H 856.412 -1.89967 0.0351894 0
M  V30 8877 H 854.562 -3.33921 -1.98567 0
M  V30 8878 H 856.234 -4.6034 0.297433 0
M  V30 8879 H 854.477 -4.32394 0.348926 0
M  V30 8880 H 855.148 -5.45762 -0.827508 0
M  V30 8881 H 857.624 -3.77089 -1.75906 0
M  V30 8882 H 856.5 -4.77032 -2.71535 0
M  V30 8883 H 856.761 -3.09129 -3.16056 0
M  V30 8884 N 855.82 0.285905 -1.54985 0
M  V30 8885 C 857.097 1.0397 -1.65679 0
M  V30 8886 C 857.477 2.04725 -0.514851 0
M  V30 8887 O 856.825 2.23257 0.486663 0
M  V30 8888 C 857.035 1.70807 -3.04345 0
M  V30 8889 C 858.383 2.22447 -3.61666 0
M  V30 8890 O 859.407 1.80815 -3.06895 0
M  V30 8891 O 858.266 2.98773 -4.57599 0
M  V30 8892 H 855.36 0.481473 -0.672394 0
M  V30 8893 H 857.906 0.282789 -1.67327 0
M  V30 8894 H 856.678 0.977271 -3.789 0
M  V30 8895 H 856.301 2.53217 -3.06541 0
M  V30 8896 N 857.298 1.47698 0.54982 0
M  V30 8897 C 858.248 1.57145 1.65195 0
M  V30 8898 C 859.232 0.429839 1.55052 0
M  V30 8899 O 860.424 0.68018 1.63409 0
M  V30 8900 C 857.553 1.59573 3.0396 0
M  V30 8901 C 856.639 2.79144 3.19279 0
M  V30 8902 N 857.03 4.03769 3.04638 0
M  V30 8903 C 855.328 2.76061 3.50295 0
M  V30 8904 C 856.029 4.83887 3.22845 0
M  V30 8905 N 855.005 4.1634 3.49517 0
M  V30 8906 H 858.807 2.51266 1.52455 0
M  V30 8907 H 856.321 1.43795 0.754773 0
M  V30 8908 H 858.318 1.64431 3.83103 0
M  V30 8909 H 856.978 0.66553 3.17806 0
M  V30 8910 H 857.989 4.34515 2.81811 0
M  V30 8911 H 854.666 1.92211 3.70622 0
M  V30 8912 H 856.056 5.92724 3.1643 0
M  V30 8913 N 858.776 -0.797141 1.35954 0
M  V30 8914 C 860.006 -1.5835 1.32698 0
M  V30 8915 C 860.414 -1.88959 -0.0955298 0
M  V30 8916 O 859.757 -1.49987 -1.06064 0
M  V30 8917 C 859.819 -2.93529 2.0756 0
M  V30 8918 C 859.483 -2.85688 3.56695 0
M  V30 8919 C 860.48 -2.58467 4.51099 0
M  V30 8920 C 858.165 -3.04508 3.99475 0
M  V30 8921 C 860.159 -2.50157 5.8626 0
M  V30 8922 C 857.846 -2.9582 5.34728 0
M  V30 8923 C 858.844 -2.68681 6.27933 0
M  V30 8924 O 858.532 -2.59973 7.60703 0
M  V30 8925 H 858.264 -0.49807 0.457059 0
M  V30 8926 H 860.818 -0.997889 1.79531 0
M  V30 8927 H 859.048 -3.54111 1.55378 0
M  V30 8928 H 860.737 -3.54744 1.9726 0
M  V30 8929 H 861.503 -2.43638 4.19363 0
M  V30 8930 H 857.382 -3.24641 3.27306 0
M  V30 8931 H 860.926 -2.28894 6.58979 0
M  V30 8932 H 856.823 -3.10211 5.66074 0
M  V30 8933 H 857.591 -2.75511 7.70737 0
M  V30 8934 N 860.254 -1.20106 -1.0204 0
M  V30 8935 C 861.217 -0.948261 -2.08664 0
M  V30 8936 C 862.217 0.0746753 -1.60627 0
M  V30 8937 O 863.407 -0.160981 -1.73455 0
M  V30 8938 C 860.539 -0.426854 -3.38217 0
M  V30 8939 H 861.732 -1.894 -2.32524 0
M  V30 8940 H 859.285 -1.0159 -1.18782 0
M  V30 8941 H 860.02 0.524532 -3.2003 0
M  V30 8942 H 859.805 -1.16451 -3.74408 0
M  V30 8943 H 861.295 -0.269346 -4.1673 0
M  V30 8944 N 861.732 1.21287 -1.00634 0
M  V30 8945 C 862.957 1.94925 -0.708441 0
M  V30 8946 C 863.382 1.73659 0.722783 0
M  V30 8947 O 862.74 1.02429 1.49593 0
M  V30 8948 C 862.788 3.45377 -1.03667 0
M  V30 8949 O 861.892 4.12153 -0.142661 0
M  V30 8950 H 861.233 0.609338 -0.263824 0
M  V30 8951 H 863.763 1.54008 -1.34695 0
M  V30 8952 H 863.773 3.95954 -0.984086 0
M  V30 8953 H 862.448 3.6018 -2.0795 0
M  V30 8954 H 861.025 3.72048 -0.251888 0
M  V30 8955 N 863.21 0.781244 1.36873 0
M  V30 8956 C 864.16 0.147313 2.27524 0
M  V30 8957 C 865.144 -0.663928 1.46563 0
M  V30 8958 O 866.336 -0.525343 1.69024 0
M  V30 8959 C 863.465 -0.723511 3.35589 0
M  V30 8960 C 862.551 0.0960763 4.23991 0
M  V30 8961 N 862.942 1.14649 4.92635 0
M  V30 8962 C 861.24 -0.126397 4.45821 0
M  V30 8963 C 861.941 1.64474 5.57964 0
M  V30 8964 N 860.917 0.955316 5.3514 0
M  V30 8965 H 864.719 0.951406 2.78075 0
M  V30 8966 H 862.233 0.619913 1.50103 0
M  V30 8967 H 864.23 -1.19351 3.99451 0
M  V30 8968 H 862.89 -1.52624 2.86594 0
M  V30 8969 H 863.901 1.5288 4.94821 0
M  V30 8970 H 860.578 -0.900284 4.07678 0
M  V30 8971 H 861.968 2.52124 6.22803 0
M  V30 8972 N 864.689 -1.48329 0.532571 0
M  V30 8973 C 866.105 -1.58458 0.190605 0
M  V30 8974 C 866.305 -1.53427 -1.30623 0
M  V30 8975 O 865.361 -1.4247 -2.08467 0
M  V30 8976 C 866.674 -2.89989 0.79543 0
M  V30 8977 C 868.222 -3.03523 0.7644 0
M  V30 8978 C 868.697 -4.37718 1.34785 0
M  V30 8979 N 870.188 -4.44292 1.30993 0
M  V30 8980 C 870.923 -5.4664 1.73124 0
M  V30 8981 N 870.419 -6.5593 2.22997 0
M  V30 8982 N 872.212 -5.37538 1.64346 0
M  V30 8983 H 864.363 -1.49842 1.50537 0
M  V30 8984 H 866.626 -0.71164 0.626316 0
M  V30 8985 H 866.332 -2.99333 1.84642 0
M  V30 8986 H 866.206 -3.76203 0.27403 0
M  V30 8987 H 868.593 -2.93789 -0.277831 0
M  V30 8988 H 868.674 -2.18912 1.3233 0
M  V30 8989 H 868.318 -4.48206 2.38902 0
M  V30 8990 H 868.248 -5.21019 0.764609 0
M  V30 8991 H 870.739 -3.65897 0.944868 0
M  V30 8992 H 871.052 -7.30167 2.53133 0
M  V30 8993 H 869.397 -6.56886 2.26992 0
M  V30 8994 H 872.588 -4.51052 1.25178 0
M  V30 8995 H 872.761 -6.17169 1.97501 0
M  V30 8996 N 866.167 -0.267825 -1.55308 0
M  V30 8997 C 867.444 0.402449 -1.91415 0
M  V30 8998 C 867.824 1.7428 -1.1912 0
M  V30 8999 O 867.172 2.2631 -0.315609 0
M  V30 9000 C 867.382 0.549926 -3.4464 0
M  V30 9001 C 868.73 0.836188 -4.16285 0
M  V30 9002 O 869.754 0.635009 -3.50494 0
M  V30 9003 O 868.613 1.22051 -5.32697 0
M  V30 9004 H 865.707 0.219177 -0.797427 0
M  V30 9005 H 868.253 -0.313439 -1.6678 0
M  V30 9006 H 867.025 -0.393641 -3.89315 0
M  V30 9007 H 866.648 1.31556 -3.75205 0
M  V30 9008 N 867.645 1.57599 0.00500368 0
M  V30 9009 C 868.595 2.04585 1.00643 0
M  V30 9010 C 869.579 0.939622 1.30614 0
M  V30 9011 O 870.771 1.20342 1.29796 0
M  V30 9012 C 867.9 2.5486 2.30002 0
M  V30 9013 C 866.986 3.7235 2.03017 0
M  V30 9014 N 867.377 4.84218 1.46173 0
M  V30 9015 C 865.675 3.80185 2.33185 0
M  V30 9016 C 866.376 5.65688 1.35544 0
M  V30 9017 N 865.352 5.11536 1.83933 0
M  V30 9018 H 869.154 2.8849 0.561332 0
M  V30 9019 H 866.668 1.61026 0.210808 0
M  V30 9020 H 868.665 2.86794 3.0258 0
M  V30 9021 H 867.325 1.72372 2.75169 0
M  V30 9022 H 868.336 5.0517 1.1412 0
M  V30 9023 H 865.013 3.08543 2.81261 0
M  V30 9024 H 866.403 6.65588 0.918791 0
M  V30 9025 N 869.123 -0.277682 1.55134 0
M  V30 9026 C 870.071 -1.36305 1.88478 0
M  V30 9027 C 871.065 -1.51362 0.760654 0
M  V30 9028 O 872.271 -1.53202 0.944943 0
M  V30 9029 H 868.646 -0.45577 0.598146 0
M  V30 9030 H 870.617 -1.05431 2.79154 0
M  V30 9031 C 869.366 -2.71739 2.16918 0
M  V30 9032 H 868.689 -2.60942 3.02901 0
M  V30 9033 H 870.129 -3.46635 2.44172 0
M  V30 9034 C 868.588 -3.22476 0.975239 0
M  V30 9035 O 869.118 -4.01164 0.207497 0
M  V30 9036 N 867.324 -2.80097 0.774219 0
M  V30 9037 H 866.871 -2.16221 1.40022 0
M  V30 9038 H 866.829 -3.14392 -0.023021 0
M  V30 9039 N 870.601 -1.47988 -0.541979 0
M  V30 9040 C 871.551 -1.58019 -1.64359 0
M  V30 9041 C 872.535 -0.438056 -1.54822 0
M  V30 9042 O 873.727 -0.688837 -1.63046 0
M  V30 9043 C 870.856 -1.61182 -3.03109 0
M  V30 9044 C 869.942 -2.80834 -3.17794 0
M  V30 9045 N 870.333 -4.05379 -3.02492 0
M  V30 9046 C 868.631 -2.77914 -3.48826 0
M  V30 9047 C 869.332 -4.85592 -3.20274 0
M  V30 9048 N 868.308 -4.18188 -3.47304 0
M  V30 9049 H 872.11 -2.52071 -1.5112 0
M  V30 9050 H 869.624 -1.44193 -0.747137 0
M  V30 9051 H 871.621 -1.66461 -3.82226 0
M  V30 9052 H 870.281 -0.682375 -3.17449 0
M  V30 9053 H 871.292 -4.36003 -2.79503 0
M  V30 9054 H 867.969 -1.94174 -3.69598 0
M  V30 9055 H 869.359 -5.94394 -3.13282 0
M  V30 9056 N 872.079 0.78992 -1.36375 0
M  V30 9057 C 873.495 1.0879 -1.16777 0
M  V30 9058 C 873.695 2.01498 0.00848236 0
M  V30 9059 O 872.751 2.43338 0.674007 0
M  V30 9060 C 874.064 1.70285 -2.47837 0
M  V30 9061 C 875.612 1.82629 -2.54196 0
M  V30 9062 C 876.087 2.47539 -3.85342 0
M  V30 9063 N 877.578 2.55008 -3.86685 0
M  V30 9064 C 878.313 3.06041 -4.84898 0
M  V30 9065 N 877.809 3.57385 -5.93505 0
M  V30 9066 N 879.602 3.04748 -4.72319 0
M  V30 9067 H 871.753 0.173985 -2.11686 0
M  V30 9068 H 874.016 0.139798 -0.937636 0
M  V30 9069 H 873.722 1.09633 -3.34176 0
M  V30 9070 H 873.596 2.69799 -2.63607 0
M  V30 9071 H 875.983 2.42419 -1.68276 0
M  V30 9072 H 876.064 0.81923 -2.42327 0
M  V30 9073 H 875.708 1.88393 -4.71668 0
M  V30 9074 H 875.638 3.48815 -3.94507 0
M  V30 9075 H 878.129 2.18651 -3.08221 0
M  V30 9076 H 878.442 3.94674 -6.64419 0
M  V30 9077 H 876.787 3.55538 -5.97175 0
M  V30 9078 H 879.978 2.63925 -3.86602 0
M  V30 9079 H 880.151 3.44212 -5.49019 0
M  V30 9080 N 873.557 1.20646 1.01402 0
M  V30 9081 C 874.834 0.927176 1.72229 0
M  V30 9082 C 875.214 -0.563382 2.03443 0
M  V30 9083 O 874.562 -1.52576 1.70096 0
M  V30 9084 C 874.772 1.80285 2.98828 0
M  V30 9085 C 876.12 2.04624 3.72041 0
M  V30 9086 O 877.144 1.77559 3.0879 0
M  V30 9087 O 876.003 2.50347 4.85787 0
M  V30 9088 H 873.097 0.346891 0.75073 0
M  V30 9089 H 875.643 1.31532 1.07227 0
M  V30 9090 H 874.415 2.81204 2.72102 0
M  V30 9091 H 874.038 1.41495 3.71571 0
M  V30 9092 N 875.035 -1.20752 1.01276 0
M  V30 9093 C 875.945 -2.27079 0.589277 0
M  V30 9094 C 876.961 -1.6999 -0.371389 0
M  V30 9095 O 878.137 -2.00044 -0.233294 0
M  V30 9096 C 875.202 -3.4663 -0.0696715 0
M  V30 9097 C 874.263 -4.18962 0.936454 0
M  V30 9098 C 873.496 -5.32806 0.308856 0
M  V30 9099 O 873.719 -5.63376 -0.8924 0
M  V30 9100 O 872.653 -5.93131 1.02367 0
M  V30 9101 H 876.479 -2.6551 1.47438 0
M  V30 9102 H 874.064 -1.27297 0.782045 0
M  V30 9103 H 875.946 -4.19119 -0.437873 0
M  V30 9104 H 874.621 -3.10082 -0.929029 0
M  V30 9105 H 873.528 -3.48661 1.35595 0
M  V30 9106 H 874.861 -4.59441 1.76565 0
M  V30 9107 N 876.513 -0.788492 -1.36457 0
M  V30 9108 C 877.741 -0.372365 -2.03522 0
M  V30 9109 C 878.156 1.01093 -1.59454 0
M  V30 9110 O 877.513 1.64824 -0.783535 0
M  V30 9111 C 877.564 -0.425435 -3.58988 0
M  V30 9112 O 877.285 -1.75418 -4.01448 0
M  V30 9113 C 878.786 0.000180167 -4.433 0
M  V30 9114 H 876.006 -0.1536 -0.653183 0
M  V30 9115 H 878.55 -1.06708 -1.74452 0
M  V30 9116 H 876.705 0.220856 -3.8677 0
M  V30 9117 H 877.119 -1.70437 -4.96036 0
M  V30 9118 H 878.593 -0.0880919 -5.5193 0
M  V30 9119 H 879.07 1.05269 -4.26398 0
M  V30 9120 H 879.676 -0.618563 -4.20778 0
M  V30 9121 N 877.991 1.48044 -0.54043 0
M  V30 9122 C 878.941 2.26768 0.236657 0
M  V30 9123 C 879.925 1.33341 0.900505 0
M  V30 9124 O 881.117 1.57809 0.801584 0
M  V30 9125 C 878.246 3.18685 1.27651 0
M  V30 9126 C 877.332 4.19589 0.616923 0
M  V30 9127 N 877.723 5.04889 -0.303377 0
M  V30 9128 C 876.021 4.37375 0.872879 0
M  V30 9129 C 876.722 5.77654 -0.684905 0
M  V30 9130 N 875.698 5.43583 -0.0435728 0
M  V30 9131 H 879.5 2.90098 -0.471183 0
M  V30 9132 H 877.014 1.58378 -0.359183 0
M  V30 9133 H 879.011 3.73752 1.84702 0
M  V30 9134 H 877.671 2.56911 1.98562 0
M  V30 9135 H 878.682 5.13461 -0.676591 0
M  V30 9136 H 875.359 3.86784 1.57177 0
M  V30 9137 H 876.749 6.56285 -1.44015 0
M  V30 9138 N 879.47 0.276058 1.55163 0
M  V30 9139 C 880.718 -0.339782 1.99223 0
M  V30 9140 C 881.039 -1.56307 1.16589 0
M  V30 9141 O 880.309 -1.94225 0.25564 0
M  V30 9142 H 878.889 -0.128534 0.735859 0
M  V30 9143 H 881.551 0.381612 1.91128 0
M  V30 9144 H 880.647 -0.629 3.05696 0
M  V30 9145 N 880.948 -1.576 0.00335426 0
M  V30 9146 C 882.173 -1.95398 -0.695311 0
M  V30 9147 C 882.598 -0.878476 -1.66326 0
M  V30 9148 O 881.956 0.163086 -1.80565 0
M  V30 9149 C 882.004 -3.32293 -1.40049 0
M  V30 9150 O 881.108 -3.26834 -2.51502 0
M  V30 9151 H 880.449 -0.637796 -0.184694 0
M  V30 9152 H 882.979 -2.04519 0.057543 0
M  V30 9153 H 882.989 -3.67936 -1.76316 0
M  V30 9154 H 881.664 -4.10123 -0.690803 0
M  V30 9155 H 880.241 -3.02872 -2.17539 0
M  V30 9156 N 882.426 0.269451 -1.5528 0
M  V30 9157 C 883.651 1.02299 -1.80415 0
M  V30 9158 C 884.076 1.7902 -0.577363 0
M  V30 9159 O 883.434 1.75018 0.473125 0
M  V30 9160 C 883.482 1.95445 -3.0304 0
M  V30 9161 O 882.586 3.04271 -2.78375 0
M  V30 9162 H 881.927 0.292289 -0.596207 0
M  V30 9163 H 884.457 0.297282 -2.02429 0
M  V30 9164 H 884.467 2.37333 -3.31869 0
M  V30 9165 H 883.142 1.39017 -3.91978 0
M  V30 9166 H 881.719 2.66673 -2.60653 0
M  V30 9167 N 883.904 1.48273 0.534124 0
M  V30 9168 C 885.181 1.46567 1.29528 0
M  V30 9169 C 885.561 0.17509 2.10373 0
M  V30 9170 O 884.909 -0.843228 2.12372 0
M  V30 9171 C 885.119 2.72519 2.18023 0
M  V30 9172 C 886.467 3.2068 2.78298 0
M  V30 9173 O 887.491 2.73408 2.28313 0
M  V30 9174 O 886.35 4.02924 3.69208 0
M  V30 9175 H 883.444 0.585151 0.584403 0
M  V30 9176 H 885.99 1.60502 0.551119 0
M  V30 9177 H 884.762 3.57965 1.5804 0
M  V30 9178 H 884.385 2.61285 2.99693 0
M  V30 9179 N 885.382 -0.782676 1.36792 0
M  V30 9180 C 886.332 -1.8855 1.28191 0
M  V30 9181 C 887.316 -1.59978 0.171984 0
M  V30 9182 O 888.508 -1.72295 0.405405 0
M  V30 9183 C 885.637 -3.25862 1.08021 0
M  V30 9184 C 884.723 -3.60422 2.2351 0
M  V30 9185 N 885.114 -3.66241 3.48857 0
M  V30 9186 C 883.412 -3.90523 2.15424 0
M  V30 9187 C 884.113 -3.97233 4.24948 0
M  V30 9188 N 883.089 -4.12567 3.53963 0
M  V30 9189 H 886.891 -1.91285 2.23131 0
M  V30 9190 H 884.405 -0.978554 1.29607 0
M  V30 9191 H 886.402 -4.04742 0.999458 0
M  V30 9192 H 885.062 -3.24399 0.139882 0
M  V30 9193 H 886.073 -3.48717 3.82906 0
M  V30 9194 H 882.75 -3.96945 1.29386 0
M  V30 9195 H 884.14 -4.08602 5.33379 0
M  V30 9196 N 886.86 -1.21182 -1.00761 0
M  V30 9197 C 888.276 -0.968607 -1.26847 0
M  V30 9198 C 888.476 0.346561 -1.98497 0
M  V30 9199 O 887.532 1.07287 -2.28573 0
M  V30 9200 C 888.845 -2.1574 -2.09467 0
M  V30 9201 C 890.393 -2.19937 -2.22703 0
M  V30 9202 C 890.868 -3.38328 -3.08704 0
M  V30 9203 N 892.359 -3.38398 -3.16293 0
M  V30 9204 C 893.094 -4.26653 -3.83086 0
M  V30 9205 N 892.59 -5.25101 -4.5193 0
M  V30 9206 N 894.383 -4.14469 -3.797 0
M  V30 9207 H 886.534 -2.05763 -0.526816 0
M  V30 9208 H 888.797 -0.90087 -0.29519 0
M  V30 9209 H 888.503 -3.11034 -1.64167 0
M  V30 9210 H 888.377 -2.14584 -3.10216 0
M  V30 9211 H 890.764 -1.25201 -2.67224 0
M  V30 9212 H 890.845 -2.25139 -1.21433 0
M  V30 9213 H 890.489 -4.33356 -2.64886 0
M  V30 9214 H 890.419 -3.30364 -4.10082 0
M  V30 9215 H 892.91 -2.67149 -2.67282 0
M  V30 9216 H 893.223 -5.8875 -5.00592 0
M  V30 9217 H 891.568 -5.29029 -4.50726 0
M  V30 9218 H 894.759 -3.3682 -3.25069 0
M  V30 9219 H 894.932 -4.83458 -4.31477 0
M  V30 9220 N 888.338 1.20213 -1.01915 0
M  V30 9221 C 889.288 2.20957 -0.562327 0
M  V30 9222 C 890.272 1.56258 0.383704 0
M  V30 9223 O 891.464 1.75794 0.206255 0
M  V30 9224 C 888.593 3.43167 0.0954035 0
M  V30 9225 C 887.679 4.15028 -0.872487 0
M  V30 9226 N 888.07 4.63231 -2.03103 0
M  V30 9227 C 886.368 4.4057 -0.69385 0
M  V30 9228 C 887.069 5.18307 -2.64069 0
M  V30 9229 N 886.045 5.08522 -1.9211 0
M  V30 9230 H 889.847 2.55894 -1.44553 0
M  V30 9231 H 887.361 1.36178 -0.884831 0
M  V30 9232 H 889.358 4.14569 0.440232 0
M  V30 9233 H 888.018 3.09734 0.974413 0
M  V30 9234 H 889.029 4.58365 -2.41086 0
M  V30 9235 H 885.706 4.17276 0.136889 0
M  V30 9236 H 887.096 5.65961 -3.6213 0
M  V30 9237 N 889.816 0.795718 1.36037 0
M  V30 9238 C 891.232 0.478145 1.52269 0
M  V30 9239 C 891.432 -1.0025 1.74792 0
M  V30 9240 O 890.488 -1.78783 1.78305 0
M  V30 9241 C 891.801 1.31406 2.70468 0
M  V30 9242 C 893.349 1.3084 2.84341 0
M  V30 9243 C 893.824 2.12819 4.05551 0
M  V30 9244 N 895.315 2.10298 4.12709 0
M  V30 9245 C 896.05 2.70495 5.05589 0
M  V30 9246 N 895.546 3.39576 6.03871 0
M  V30 9247 N 897.339 2.60195 4.98252 0
M  V30 9248 H 889.49 1.75477 1.19673 0
M  V30 9249 H 891.753 0.74627 0.584624 0
M  V30 9250 H 891.459 2.36435 2.60368 0
M  V30 9251 H 891.333 0.959726 3.64786 0
M  V30 9252 H 893.72 0.266003 2.93899 0
M  V30 9253 H 893.801 1.70254 1.90912 0
M  V30 9254 H 893.445 3.17093 3.96755 0
M  V30 9255 H 893.375 1.70772 4.98141 0
M  V30 9256 H 895.866 1.60026 3.42345 0
M  V30 9257 H 896.179 3.82823 6.71317 0
M  V30 9258 H 894.524 3.43679 6.04077 0
M  V30 9259 H 897.715 2.05823 4.20422 0
M  V30 9260 H 897.888 3.074 5.70447 0
M  V30 9261 N 891.294 -1.47756 0.548274 0
M  V30 9262 C 892.204 -2.33678 -0.207773 0
M  V30 9263 C 893.22 -1.47636 -0.920843 0
M  V30 9264 O 894.396 -1.80583 -0.89173 0
M  V30 9265 C 891.461 -3.24147 -1.23003 0
M  V30 9266 C 890.522 -4.26073 -0.52535 0
M  V30 9267 C 889.755 -5.12219 -1.4989 0
M  V30 9268 O 889.978 -5.0066 -2.73305 0
M  V30 9269 O 888.912 -5.93051 -1.02828 0
M  V30 9270 H 892.738 -2.99609 0.496794 0
M  V30 9271 H 890.323 -1.4617 0.308982 0
M  V30 9272 H 892.205 -3.80055 -1.82034 0
M  V30 9273 H 890.88 -2.60855 -1.91668 0
M  V30 9274 H 889.787 -3.7395 0.105927 0
M  V30 9275 H 891.12 -4.92054 0.119686 0
M  V30 9276 N 892.772 -0.284283 -1.55015 0
M  V30 9277 C 893.997 0.335799 -2.04664 0
M  V30 9278 C 894.422 1.47999 -1.16094 0
M  V30 9279 O 893.78 1.8058 -0.161454 0
M  V30 9280 C 893.828 0.785615 -3.51938 0
M  V30 9281 O 892.932 1.89202 -3.66437 0
M  V30 9282 H 892.273 0.0680233 -0.660506 0
M  V30 9283 H 894.803 -0.421255 -2.00216 0
M  V30 9284 H 894.813 1.07892 -3.93476 0
M  V30 9285 H 893.488 -0.0514675 -4.15868 0
M  V30 9286 H 892.065 1.60055 -3.36804 0
M  V30 9287 N 894.251 1.57596 -0.0117121 0
M  V30 9288 C 895.667 1.55837 0.344506 0
M  V30 9289 C 895.867 1.01557 1.74036 0
M  V30 9290 O 894.923 0.654563 2.43868 0
M  V30 9291 C 896.236 2.99973 0.209023 0
M  V30 9292 C 897.784 3.11717 0.283092 0
M  V30 9293 C 898.259 4.57659 0.176599 0
M  V30 9294 N 899.75 4.62608 0.234133 0
M  V30 9295 C 900.485 5.73132 0.175252 0
M  V30 9296 N 899.981 6.92768 0.0662888 0
M  V30 9297 N 901.774 5.61638 0.227972 0
M  V30 9298 H 893.925 1.91215 -0.924692 0
M  V30 9299 H 896.188 0.878807 -0.355531 0
M  V30 9300 H 895.894 3.4357 -0.751826 0
M  V30 9301 H 895.768 3.64075 0.98635 0
M  V30 9302 H 898.155 2.68043 1.23439 0
M  V30 9303 H 898.236 2.50369 -0.52431 0
M  V30 9304 H 897.88 5.02011 -0.771205 0
M  V30 9305 H 897.81 5.16967 1.00264 0
M  V30 9306 H 900.301 3.76549 0.319203 0
M  V30 9307 H 900.614 7.72795 0.0275765 0
M  V30 9308 H 898.959 6.94993 0.0317502 0
M  V30 9309 H 902.15 4.67063 0.311377 0
M  V30 9310 H 902.323 6.47754 0.178621 0
M  V30 9311 N 895.729 -0.261212 1.5542 0
M  V30 9312 C 896.679 -1.32571 1.85496 0
M  V30 9313 C 897.663 -1.44155 0.714722 0
M  V30 9314 O 898.855 -1.47637 0.976336 0
M  V30 9315 C 895.984 -2.68384 2.14067 0
M  V30 9316 C 895.07 -2.60864 3.34381 0
M  V30 9317 N 895.461 -2.22967 4.54004 0
M  V30 9318 C 893.759 -2.91904 3.37206 0
M  V30 9319 C 894.46 -2.25727 5.36118 0
M  V30 9320 N 893.436 -2.64667 4.74818 0
M  V30 9321 H 897.238 -1.02298 2.75522 0
M  V30 9322 H 894.752 -0.469849 1.55455 0
M  V30 9323 H 896.749 -3.45189 2.33774 0
M  V30 9324 H 895.409 -2.99536 1.25332 0
M  V30 9325 H 896.42 -1.94748 4.79889 0
M  V30 9326 H 893.097 -3.2769 2.587 0
M  V30 9327 H 894.487 -1.98889 6.41789 0
M  V30 9328 N 897.207 -1.48554 -0.526253 0
M  V30 9329 C 898.623 -1.34757 -0.855138 0
M  V30 9330 C 898.823 -0.36142 -1.98232 0
M  V30 9331 O 897.879 0.216026 -2.51574 0
M  V30 9332 C 899.192 -2.74877 -1.21915 0
M  V30 9333 C 900.74 -2.83393 -1.32882 0
M  V30 9334 C 901.215 -4.24223 -1.72624 0
M  V30 9335 N 902.706 -4.26913 -1.7972 0
M  V30 9336 C 903.441 -5.32824 -2.11863 0
M  V30 9337 N 902.937 -6.49008 -2.42405 0
M  V30 9338 N 904.73 -5.20221 -2.12901 0
M  V30 9339 H 896.881 -2.11284 0.217422 0
M  V30 9340 H 899.144 -0.947367 0.0346362 0
M  V30 9341 H 898.85 -3.48619 -0.464486 0
M  V30 9342 H 898.724 -3.0864 -2.16844 0
M  V30 9343 H 901.111 -2.09904 -2.07424 0
M  V30 9344 H 901.192 -2.53245 -0.360638 0
M  V30 9345 H 900.836 -4.98229 -0.986411 0
M  V30 9346 H 900.766 -4.51817 -2.70498 0
M  V30 9347 H 903.257 -3.4311 -1.58379 0
M  V30 9348 H 903.57 -7.25561 -2.66048 0
M  V30 9349 H 901.915 -6.52277 -2.39917 0
M  V30 9350 H 905.106 -4.28469 -1.885 0
M  V30 9351 H 905.279 -6.02861 -2.37619 0
M  V30 9352 N 898.685 0.775411 -1.37205 0
M  V30 9353 C 899.91 1.5696 -1.35567 0
M  V30 9354 C 900.335 1.88012 0.0575554 0
M  V30 9355 O 899.693 1.48954 1.03355 0
M  V30 9356 C 899.741 2.85886 -2.19776 0
M  V30 9357 O 898.845 3.80103 -1.59987 0
M  V30 9358 H 898.186 0.475583 -0.463375 0
M  V30 9359 H 900.716 0.96001 -1.80679 0
M  V30 9360 H 900.726 3.35024 -2.32859 0
M  V30 9361 H 899.401 2.62613 -3.22502 0
M  V30 9362 H 897.978 3.38736 -1.55924 0
M  V30 9363 N 900.163 1.21714 1.00117 0
M  V30 9364 C 901.579 0.97532 1.26332 0
M  V30 9365 C 901.779 -0.336029 1.98678 0
M  V30 9366 O 900.835 -1.06073 2.29139 0
M  V30 9367 C 902.148 2.16848 2.0832 0
M  V30 9368 C 903.696 2.21115 2.21533 0
M  V30 9369 C 904.171 3.3996 3.06906 0
M  V30 9370 N 905.662 3.40071 3.14494 0
M  V30 9371 C 906.397 4.28678 3.80818 0
M  V30 9372 N 905.893 5.2749 4.49139 0
M  V30 9373 N 907.686 4.16476 3.77497 0
M  V30 9374 H 899.837 2.06039 0.515897 0
M  V30 9375 H 902.1 0.902423 0.290408 0
M  V30 9376 H 901.806 3.119 1.62515 0
M  V30 9377 H 901.68 2.16226 3.09073 0
M  V30 9378 H 904.067 1.26616 2.66557 0
M  V30 9379 H 904.148 2.2578 1.20238 0
M  V30 9380 H 903.792 4.34755 2.62585 0
M  V30 9381 H 903.722 3.32534 4.08324 0
M  V30 9382 H 906.213 2.68563 2.65861 0
M  V30 9383 H 906.526 5.91397 4.97463 0
M  V30 9384 H 904.871 5.31412 4.47914 0
M  V30 9385 H 908.062 3.38539 3.23278 0
M  V30 9386 H 908.235 4.85739 4.28908 0
M  V30 9387 N 901.641 -1.19671 1.02551 0
M  V30 9388 C 902.918 -1.85014 0.634771 0
M  V30 9389 C 903.298 -1.91574 -0.886706 0
M  V30 9390 O 902.646 -1.43022 -1.78205 0
M  V30 9391 C 902.856 -3.24167 1.29292 0
M  V30 9392 C 904.204 -4.00363 1.41402 0
M  V30 9393 O 905.228 -3.33553 1.24983 0
M  V30 9394 O 904.087 -5.2003 1.6802 0
M  V30 9395 H 901.181 -0.797147 0.220196 0
M  V30 9396 H 903.727 -1.27188 1.12345 0
M  V30 9397 H 902.499 -3.14208 2.33215 0
M  V30 9398 H 902.122 -3.89634 0.791895 0
M  V30 9399 N 903.119 -0.802921 -1.35613 0
M  V30 9400 C 904.365 -0.382141 -1.99167 0
M  V30 9401 C 904.698 1.04704 -1.63556 0
M  V30 9402 O 903.973 1.72578 -0.89706 0
M  V30 9403 C 904.256 -0.561493 -3.55695 0
M  V30 9404 C 904.109 -2.03534 -4.01116 0
M  V30 9405 C 905.428 0.0151135 -4.40097 0
M  V30 9406 H 902.547 -0.140322 -0.723518 0
M  V30 9407 H 905.189 -1.01177 -1.6082 0
M  V30 9408 H 903.339 -0.0255083 -3.88492 0
M  V30 9409 H 905.011 -2.63343 -3.78746 0
M  V30 9410 H 903.254 -2.5331 -3.52159 0
M  V30 9411 H 903.925 -2.11173 -5.1001 0
M  V30 9412 H 906.401 -0.442582 -4.1374 0
M  V30 9413 H 905.277 -0.140316 -5.48721 0
M  V30 9414 H 905.538 1.10848 -4.27978 0
M  V30 9415 N 904.597 1.47463 -0.556102 0
M  V30 9416 C 905.874 1.9557 0.0339892 0
M  V30 9417 C 906.254 1.49869 1.48669 0
M  V30 9418 O 905.602 0.737019 2.16288 0
M  V30 9419 C 905.812 3.48826 -0.110343 0
M  V30 9420 C 907.16 4.24585 0.0355716 0
M  V30 9421 O 908.184 3.5618 -0.0378356 0
M  V30 9422 O 907.043 5.46158 0.193299 0
M  V30 9423 H 904.137 0.824461 0.0647521 0
M  V30 9424 H 906.683 1.57868 -0.622547 0
M  V30 9425 H 905.455 3.74891 -1.12126 0
M  V30 9426 H 905.078 3.9329 0.583855 0
M  V30 9427 N 906.075 0.2925 1.54862 0
M  V30 9428 C 907.491 -0.0611461 1.59483 0
M  V30 9429 C 907.691 -1.53141 1.30958 0
M  V30 9430 O 906.747 -2.28291 1.07887 0
M  V30 9431 C 908.06 0.329143 2.98893 0
M  V30 9432 C 909.608 0.2772 3.1177 0
M  V30 9433 C 910.083 0.642185 4.53475 0
M  V30 9434 N 911.574 0.594396 4.5937 0
M  V30 9435 C 912.309 0.849385 5.67074 0
M  V30 9436 N 911.805 1.1699 6.82851 0
M  V30 9437 N 913.598 0.777016 5.56704 0
M  V30 9438 H 905.749 1.25079 1.71665 0
M  V30 9439 H 908.012 0.506516 0.80134 0
M  V30 9440 H 907.718 1.35233 3.24661 0
M  V30 9441 H 907.592 -0.321442 3.75828 0
M  V30 9442 H 909.979 -0.736725 2.85756 0
M  V30 9443 H 910.06 0.962289 2.3701 0
M  V30 9444 H 909.704 1.65388 4.80218 0
M  V30 9445 H 909.634 -0.0648831 5.2656 0
M  V30 9446 H 912.125 0.357256 3.76208 0
M  V30 9447 H 912.438 1.35067 7.60905 0
M  V30 9448 H 910.783 1.20785 6.84424 0
M  V30 9449 H 913.974 0.526333 4.65132 0
M  V30 9450 H 914.147 0.979113 6.4056 0
M  V30 9451 N 907.553 -1.57587 0.0200696 0
M  V30 9452 C 908.463 -2.13119 -0.980676 0
M  V30 9453 C 909.479 -1.08124 -1.36328 0
M  V30 9454 O 910.655 -1.40134 -1.44653 0
M  V30 9455 C 907.72 -2.63991 -2.24743 0
M  V30 9456 C 906.781 -3.83667 -1.9261 0
M  V30 9457 C 906.014 -4.32103 -3.13246 0
M  V30 9458 O 906.237 -3.79758 -4.25606 0
M  V30 9459 O 905.171 -5.24047 -2.96072 0
M  V30 9460 H 908.997 -2.98887 -0.538528 0
M  V30 9461 H 906.582 -1.48055 -0.19999 0
M  V30 9462 H 908.464 -2.9682 -2.99125 0
M  V30 9463 H 907.139 -1.81311 -2.68157 0
M  V30 9464 H 906.046 -3.55778 -1.15641 0
M  V30 9465 H 907.379 -4.67482 -1.54019 0
M  V30 9466 N 909.032 0.252966 -1.55557 0
M  V30 9467 C 909.964 1.33585 -1.86246 0
M  V30 9468 C 910.977 1.44584 -0.748291 0
M  V30 9469 O 912.166 1.46042 -1.02635 0
M  V30 9470 C 909.266 2.71509 -2.02821 0
M  V30 9471 C 908.439 2.82853 -3.33636 0
M  V30 9472 C 907.498 4.01581 -3.40028 0
M  V30 9473 O 906.524 3.91394 -4.13278 0
M  V30 9474 N 907.726 5.14474 -2.6888 0
M  V30 9475 H 910.491 1.07596 -2.7972 0
M  V30 9476 H 908.052 0.443075 -1.55719 0
M  V30 9477 H 910.044 3.49262 -2.04445 0
M  V30 9478 H 908.614 2.90232 -1.1612 0
M  V30 9479 H 907.834 1.91823 -3.4438 0
M  V30 9480 H 909.122 2.87378 -4.19871 0
M  V30 9481 H 908.52 5.25641 -2.09087 0
M  V30 9482 H 907.077 5.90385 -2.76204 0
M  V30 9483 N 910.51 1.48831 0.518367 0
M  V30 9484 C 911.787 1.47933 1.27966 0
M  V30 9485 C 912.167 0.197393 2.10175 0
M  V30 9486 O 911.515 -0.820656 2.13255 0
M  V30 9487 C 911.725 2.74816 2.15121 0
M  V30 9488 C 913.073 3.23613 2.74881 0
M  V30 9489 O 914.097 2.75814 2.254 0
M  V30 9490 O 912.956 4.06818 3.64913 0
M  V30 9491 H 910.05 0.591316 0.578164 0
M  V30 9492 H 912.596 1.61077 0.534065 0
M  V30 9493 H 911.368 3.59621 1.54234 0
M  V30 9494 H 910.991 2.64449 2.96905 0
M  V30 9495 N 911.988 -0.768124 1.37614 0
M  V30 9496 C 912.938 -1.8718 1.30184 0
M  V30 9497 C 913.922 -1.59787 0.188943 0
M  V30 9498 O 915.114 -1.71855 0.423656 0
M  V30 9499 C 912.243 -3.24698 1.11471 0
M  V30 9500 C 911.329 -3.58031 2.27321 0
M  V30 9501 N 911.72 -3.6252 3.52722 0
M  V30 9502 C 910.018 -3.88216 2.19554 0
M  V30 9503 C 910.719 -3.92704 4.29137 0
M  V30 9504 N 909.695 -4.08789 3.58319 0
M  V30 9505 H 913.497 -1.88907 2.25147 0
M  V30 9506 H 911.011 -0.964753 1.30638 0
M  V30 9507 H 913.008 -4.0366 1.04233 0
M  V30 9508 H 911.668 -3.24232 0.174281 0
M  V30 9509 H 912.679 -3.44636 3.86583 0
M  V30 9510 H 909.356 -3.95551 1.33588 0
M  V30 9511 H 910.746 -4.02922 5.37683 0
M  V30 9512 N 913.466 -1.22244 -0.994698 0
M  V30 9513 C 914.414 -0.988118 -2.10568 0
M  V30 9514 C 915.408 0.0681541 -1.69263 0
M  V30 9515 O 916.614 -0.0841311 -1.79803 0
M  V30 9516 H 912.989 -0.302343 -0.688544 0
M  V30 9517 H 914.96 -1.93091 -2.27505 0
M  V30 9518 C 913.709 -0.580557 -3.42819 0
M  V30 9519 H 913.032 -1.385 -3.75044 0
M  V30 9520 H 914.472 -0.456004 -4.21541 0
M  V30 9521 C 912.931 0.709692 -3.2934 0
M  V30 9522 O 913.461 1.76259 -3.60965 0
M  V30 9523 N 911.667 0.680155 -2.82528 0
M  V30 9524 H 911.214 -0.176977 -2.56991 0
M  V30 9525 H 911.172 1.54372 -2.73892 0
M  V30 9526 N 914.944 1.19125 -1.03184 0
M  V30 9527 C 915.854 2.26112 -0.625329 0
M  V30 9528 C 916.87 1.7056 0.344298 0
M  V30 9529 O 918.046 2.0039 0.20144 0
M  V30 9530 C 915.111 3.46697 0.0145169 0
M  V30 9531 C 914.172 4.17419 -1.00299 0
M  V30 9532 C 913.405 5.32247 -0.393581 0
M  V30 9533 O 913.628 5.64724 0.802659 0
M  V30 9534 O 912.562 5.91428 -1.1179 0
M  V30 9535 H 916.388 2.63131 -1.51643 0
M  V30 9536 H 913.973 1.26036 -0.802197 0
M  V30 9537 H 915.855 4.19762 0.371139 0
M  V30 9538 H 914.53 3.11521 0.879581 0
M  V30 9539 H 913.437 3.4646 -1.41125 0
M  V30 9540 H 914.77 4.56573 -1.83852 0
M  V30 9541 N 916.422 0.810101 1.35185 0
M  V30 9542 C 917.662 0.397802 2.00492 0
M  V30 9543 C 918.026 -1.01684 1.62863 0
M  V30 9544 O 919.227 -1.53133 2.20916 0
M  V30 9545 C 917.498 0.579524 3.5267 0
M  V30 9546 S 919.057 0.258169 4.3804 0
M  V30 9547 H 915.875 0.150904 0.694801 0
M  V30 9548 H 918.477 1.05312 1.64711 0
M  V30 9549 H 917.181 1.60901 3.77543 0
M  V30 9550 H 916.712 -0.0909886 3.93295 0
M  V30 9551 H 918.727 -0.932882 4.87352 0
M  V30 9552 N 917.9 -1.47166 0.563914 0
M  V30 9553 C 918.848 -2.31798 -0.193009 0
M  V30 9554 C 919.842 -1.43338 -0.902805 0
M  V30 9555 O 921.048 -1.60067 -0.823328 0
M  V30 9556 H 917.423 -0.747613 -0.0811139 0
M  V30 9557 H 919.394 -2.93476 0.539876 0
M  V30 9558 C 918.143 -3.26131 -1.20555 0
M  V30 9559 H 917.466 -3.94166 -0.668803 0
M  V30 9560 H 918.906 -3.88167 -1.70593 0
M  V30 9561 C 917.365 -2.50132 -2.25689 0
M  V30 9562 O 917.895 -2.25064 -3.3273 0
M  V30 9563 N 916.101 -2.11022 -1.99795 0
M  V30 9564 H 915.648 -2.3161 -1.1276 0
M  V30 9565 H 915.606 -1.60489 -2.70353 0
M  V30 9566 N 919.378 -0.300708 -1.54705 0
M  V30 9567 C 920.325 0.57552 -2.23509 0
M  V30 9568 C 921.295 1.12979 -1.21758 0
M  V30 9569 O 922.48 1.17437 -1.50377 0
M  V30 9570 C 919.62 1.74167 -2.97926 0
M  V30 9571 C 918.733 1.21882 -4.1445 0
M  V30 9572 C 917.868 2.34881 -4.7645 0
M  V30 9573 C 916.907 1.79729 -5.85119 0
M  V30 9574 N 916.044 2.863 -6.41075 0
M  V30 9575 H 920.884 -0.0178257 -2.97995 0
M  V30 9576 H 918.421 -0.0205666 -1.47086 0
M  V30 9577 H 920.379 2.42753 -3.39303 0
M  V30 9578 H 919.009 2.30665 -2.25817 0
M  V30 9579 H 918.061 0.425227 -3.78016 0
M  V30 9580 H 919.373 0.775065 -4.92741 0
M  V30 9581 H 918.527 3.11415 -5.20678 0
M  V30 9582 H 917.266 2.82584 -3.97489 0
M  V30 9583 H 916.271 1.01684 -5.40315 0
M  V30 9584 H 917.496 1.32931 -6.65963 0
M  V30 9585 H 915.442 3.33337 -5.64998 0
M  V30 9586 H 915.359 2.46419 -7.14712 0
M  V30 9587 H 916.627 3.62732 -6.89961 0
M  V30 9588 N 920.856 1.57574 -0.0284266 0
M  V30 9589 C 921.788 2.07079 0.982391 0
M  V30 9590 C 922.801 0.994078 1.28926 0
M  V30 9591 O 923.99 1.27028 1.25404 0
M  V30 9592 C 921.09 2.47978 2.30998 0
M  V30 9593 C 920.263 3.7872 2.18838 0
M  V30 9594 C 919.322 4.06177 3.34524 0
M  V30 9595 O 918.348 4.76438 3.11441 0
M  V30 9596 N 919.55 3.56297 4.58293 0
M  V30 9597 H 922.315 2.94421 0.560011 0
M  V30 9598 H 919.876 1.61124 0.158347 0
M  V30 9599 H 921.868 2.63439 3.07216 0
M  V30 9600 H 920.438 1.66005 2.64879 0
M  V30 9601 H 919.658 3.73062 1.27351 0
M  V30 9602 H 920.946 4.6438 2.07915 0
M  V30 9603 H 920.344 2.99453 4.79942 0
M  V30 9604 H 918.901 3.77038 5.31682 0
M  V30 9605 N 922.334 -0.244713 1.55689 0
M  V30 9606 C 923.75 -0.593331 1.48161 0
M  V30 9607 C 923.95 -1.88234 0.719047 0
M  V30 9608 O 923.006 -2.51266 0.249292 0
M  V30 9609 C 924.319 -0.694032 2.92581 0
M  V30 9610 C 925.867 -0.786213 3.02965 0
M  V30 9611 C 926.342 -0.918457 4.48696 0
M  V30 9612 N 927.833 -0.983272 4.52643 0
M  V30 9613 C 928.568 -1.1049 5.62654 0
M  V30 9614 N 928.064 -1.19193 6.8247 0
M  V30 9615 N 929.857 -1.13823 5.50455 0
M  V30 9616 H 922.008 0.601446 2.03707 0
M  V30 9617 H 924.271 0.207894 0.924924 0
M  V30 9618 H 923.977 0.183133 3.51223 0
M  V30 9619 H 923.851 -1.56525 3.4319 0
M  V30 9620 H 926.238 -1.65383 2.44402 0
M  V30 9621 H 926.319 0.110202 2.55563 0
M  V30 9622 H 925.963 -0.0553881 5.0787 0
M  V30 9623 H 925.893 -1.82994 4.93782 0
M  V30 9624 H 928.384 -0.927269 3.66347 0
M  V30 9625 H 928.697 -1.28387 7.62061 0
M  V30 9626 H 927.042 -1.16147 6.85226 0
M  V30 9627 H 930.233 -1.06673 4.55783 0
M  V30 9628 H 930.406 -1.22957 6.36228 0
M  V30 9629 N 923.813 -1.49104 -0.510467 0
M  V30 9630 C 925.038 -1.62068 -1.29417 0
M  V30 9631 C 925.463 -0.288432 -1.85875 0
M  V30 9632 O 924.821 0.742667 -1.65391 0
M  V30 9633 C 924.869 -2.68506 -2.40701 0
M  V30 9634 O 923.973 -2.27021 -3.4429 0
M  V30 9635 H 923.314 -0.542778 -0.382476 0
M  V30 9636 H 925.844 -1.95228 -0.612154 0
M  V30 9637 H 925.854 -2.90383 -2.86604 0
M  V30 9638 H 924.529 -3.65216 -1.98973 0
M  V30 9639 H 923.106 -2.15436 -3.04371 0
M  V30 9640 N 925.291 0.760815 -1.38019 0
M  V30 9641 C 926.707 1.06289 -1.19058 0
M  V30 9642 C 926.907 2.01471 -0.0342603 0
M  V30 9643 O 925.963 2.44713 0.62224 0
M  V30 9644 C 927.276 1.6499 -2.51394 0
M  V30 9645 C 928.824 1.77196 -2.58013 0
M  V30 9646 C 929.299 2.3931 -3.90506 0
M  V30 9647 N 930.79 2.46749 -3.92007 0
M  V30 9648 C 931.525 2.95687 -4.91281 0
M  V30 9649 N 931.021 3.44715 -6.00952 0
M  V30 9650 N 932.814 2.94661 -4.78677 0
M  V30 9651 H 924.965 0.129045 -2.12008 0
M  V30 9652 H 927.228 0.119878 -0.94039 0
M  V30 9653 H 926.934 1.0252 -3.36426 0
M  V30 9654 H 926.808 2.64146 -2.6927 0
M  V30 9655 H 929.195 2.38796 -1.7338 0
M  V30 9656 H 929.276 0.767645 -2.4401 0
M  V30 9657 H 928.92 1.78346 -4.75558 0
M  V30 9658 H 928.85 3.40369 -4.01817 0
M  V30 9659 H 931.341 2.12064 -3.12789 0
M  V30 9660 H 931.654 3.80492 -6.72641 0
M  V30 9661 H 929.999 3.42791 -6.04582 0
M  V30 9662 H 933.19 2.55665 -3.92113 0
M  V30 9663 H 933.363 3.32489 -5.56197 0
M  V30 9664 N 926.769 1.22769 0.988202 0
M  V30 9665 C 927.719 0.969202 2.06375 0
M  V30 9666 C 928.703 -0.0819274 1.60691 0
M  V30 9667 O 929.895 0.129201 1.76528 0
M  V30 9668 C 927.024 0.553919 3.38802 0
M  V30 9669 C 926.11 1.64003 3.91106 0
M  V30 9670 N 926.501 2.86872 4.16579 0
M  V30 9671 C 924.799 1.5128 4.1956 0
M  V30 9672 C 925.5 3.57137 4.5916 0
M  V30 9673 N 924.476 2.84624 4.63131 0
M  V30 9674 H 928.278 1.90247 2.24017 0
M  V30 9675 H 925.792 1.12592 1.17033 0
M  V30 9676 H 927.789 0.350033 4.15428 0
M  V30 9677 H 926.449 -0.37239 3.22558 0
M  V30 9678 H 927.46 3.23254 4.04632 0
M  V30 9679 H 924.137 0.653032 4.12361 0
M  V30 9680 H 925.527 4.62428 4.87452 0
M  V30 9681 N 928.247 -1.18576 1.03814 0
M  V30 9682 C 929.194 -2.2212 0.626988 0
M  V30 9683 C 930.164 -1.62064 -0.363912 0
M  V30 9684 O 931.349 -1.89041 -0.258469 0
M  V30 9685 C 928.489 -3.45099 -0.00650133 0
M  V30 9686 C 927.602 -4.19503 1.03156 0
M  V30 9687 C 926.737 -5.29932 0.366852 0
M  V30 9688 C 925.776 -5.96104 1.39018 0
M  V30 9689 N 924.913 -6.98076 0.750625 0
M  V30 9690 H 929.753 -2.56646 1.51449 0
M  V30 9691 H 927.29 -1.26084 0.757702 0
M  V30 9692 H 929.248 -4.15363 -0.391108 0
M  V30 9693 H 927.878 -3.11201 -0.857536 0
M  V30 9694 H 926.93 -3.48092 1.53414 0
M  V30 9695 H 928.242 -4.64843 1.80893 0
M  V30 9696 H 927.396 -6.06657 -0.0720979 0
M  V30 9697 H 926.135 -4.85687 -0.442631 0
M  V30 9698 H 925.14 -5.18122 1.8393 0
M  V30 9699 H 926.365 -6.42432 2.20132 0
M  V30 9700 H 924.311 -6.55989 -0.0385981 0
M  V30 9701 H 924.228 -7.41655 1.46574 0
M  V30 9702 H 925.496 -7.78776 0.335986 0
M  V30 9703 N 929.725 -0.817259 -1.34754 0
M  V30 9704 C 930.95 -0.414423 -2.03217 0
M  V30 9705 C 931.375 0.970037 -1.61158 0
M  V30 9706 O 930.733 1.63016 -0.793436 0
M  V30 9707 C 930.781 -0.518087 -3.56859 0
M  V30 9708 O 929.885 0.464314 -4.09778 0
M  V30 9709 H 929.226 -0.171454 -0.641482 0
M  V30 9710 H 931.756 -1.10611 -1.72123 0
M  V30 9711 H 931.766 -0.391779 -4.06115 0
M  V30 9712 H 930.441 -1.52786 -3.86819 0
M  V30 9713 H 929.018 0.297361 -3.71712 0
M  V30 9714 N 931.203 1.46865 -0.571711 0
M  V30 9715 C 932.15 2.30189 0.167808 0
M  V30 9716 C 933.12 1.3995 0.89461 0
M  V30 9717 O 934.305 1.68905 0.887451 0
M  V30 9718 C 931.445 3.24205 1.1826 0
M  V30 9719 C 930.558 4.2954 0.460376 0
M  V30 9720 C 929.693 5.10693 1.46173 0
M  V30 9721 C 928.732 6.07788 0.725291 0
M  V30 9722 N 927.869 6.81847 1.67417 0
M  V30 9723 H 932.709 2.92902 -0.548831 0
M  V30 9724 H 930.246 1.44362 -0.282474 0
M  V30 9725 H 932.204 3.77147 1.7837 0
M  V30 9726 H 930.834 2.63324 1.86709 0
M  V30 9727 H 929.886 3.79541 -0.255546 0
M  V30 9728 H 931.198 4.98665 -0.115855 0
M  V30 9729 H 930.352 5.67857 2.13595 0
M  V30 9730 H 929.091 4.41502 2.07188 0
M  V30 9731 H 928.096 5.49787 0.037228 0
M  V30 9732 H 929.321 6.78993 0.120678 0
M  V30 9733 H 927.267 6.15376 2.27263 0
M  V30 9734 H 927.184 7.47195 1.15046 0
M  V30 9735 H 928.452 7.43577 2.33908 0
M  V30 9736 N 932.681 0.308908 1.54543 0
M  V30 9737 C 933.958 -0.351558 1.92415 0
M  V30 9738 C 934.338 -1.71061 1.23699 0
M  V30 9739 O 933.686 -2.25394 0.3755 0
M  V30 9740 C 933.896 -0.458357 3.45977 0
M  V30 9741 C 935.244 -0.725524 4.18355 0
M  V30 9742 O 936.268 -0.541859 3.52054 0
M  V30 9743 O 935.127 -1.07884 5.35745 0
M  V30 9744 H 932.221 -0.197957 0.802958 0
M  V30 9745 H 934.767 0.357548 1.65891 0
M  V30 9746 H 933.539 0.496723 3.88134 0
M  V30 9747 H 933.162 -1.21562 3.78561 0
M  V30 9748 N 934.159 -1.57557 0.0367827 0
M  V30 9749 C 935.575 -1.56366 -0.31967 0
M  V30 9750 C 935.775 -1.04313 -1.72398 0
M  V30 9751 O 934.831 -0.693278 -2.42796 0
M  V30 9752 C 936.144 -3.00267 -0.161274 0
M  V30 9753 C 937.692 -3.12128 -0.233464 0
M  V30 9754 C 938.167 -4.57882 -0.103767 0
M  V30 9755 N 939.658 -4.62922 -0.160506 0
M  V30 9756 C 940.393 -5.73338 -0.0840493 0
M  V30 9757 N 939.889 -6.92786 0.043933 0
M  V30 9758 N 941.682 -5.61929 -0.138592 0
M  V30 9759 H 933.833 -1.8972 0.954996 0
M  V30 9760 H 936.096 -0.87304 0.369467 0
M  V30 9761 H 935.802 -3.42331 0.80639 0
M  V30 9762 H 935.676 -3.65599 -0.928304 0
M  V30 9763 H 938.063 -2.69972 -1.19159 0
M  V30 9764 H 938.144 -2.49503 0.564075 0
M  V30 9765 H 937.788 -5.0072 0.850973 0
M  V30 9766 H 937.718 -5.18496 -0.920268 0
M  V30 9767 H 940.209 -3.7701 -0.259257 0
M  V30 9768 H 940.522 -7.72741 0.095372 0
M  V30 9769 H 938.867 -6.94955 0.0788211 0
M  V30 9770 H 942.058 -4.67499 -0.237031 0
M  V30 9771 H 942.231 -6.47956 -0.075546 0
M  V30 9772 N 935.637 0.236453 -1.55816 0
M  V30 9773 C 936.867 0.978873 -1.81939 0
M  V30 9774 C 937.275 1.79041 -0.611647 0
M  V30 9775 O 936.618 1.78616 0.429172 0
M  V30 9776 C 936.68 1.9569 -3.01572 0
M  V30 9777 C 936.344 1.33131 -4.37178 0
M  V30 9778 C 937.341 0.728585 -5.1477 0
M  V30 9779 C 935.026 1.34755 -4.83887 0
M  V30 9780 C 937.02 0.150427 -6.37222 0
M  V30 9781 C 934.707 0.765539 -6.06286 0
M  V30 9782 C 935.705 0.168017 -6.82793 0
M  V30 9783 O 935.393 -0.404976 -8.02879 0
M  V30 9784 H 935.125 0.293186 -0.609113 0
M  V30 9785 H 937.679 0.261384 -2.0373 0
M  V30 9786 H 935.909 2.71298 -2.75562 0
M  V30 9787 H 937.598 2.56362 -3.14695 0
M  V30 9788 H 938.364 0.708477 -4.79797 0
M  V30 9789 H 934.243 1.80202 -4.24321 0
M  V30 9790 H 937.787 -0.316586 -6.96881 0
M  V30 9791 H 933.684 0.78301 -6.40733 0
M  V30 9792 H 934.452 -0.29785 -8.17958 0
M  V30 9793 N 937.115 1.49373 0.502552 0
M  V30 9794 C 938.355 1.60398 1.26696 0
M  V30 9795 C 938.719 0.283599 1.89894 0
M  V30 9796 O 939.92 0.269022 2.6745 0
M  V30 9797 C 938.191 2.72998 2.30666 0
M  V30 9798 S 939.75 3.03964 3.16466 0
M  V30 9799 H 936.568 0.565781 0.430596 0
M  V30 9800 H 939.17 1.87024 0.569418 0
M  V30 9801 H 937.874 3.67458 1.82765 0
M  V30 9802 H 937.405 2.4836 3.05091 0
M  V30 9803 H 939.42 2.45367 4.31288 0
M  V30 9804 N 938.594 -0.753485 1.38421 0
M  V30 9805 C 939.504 -1.89797 1.37892 0
M  V30 9806 C 940.52 -1.71797 0.276023 0
M  V30 9807 O 941.696 -1.94718 0.514464 0
M  V30 9808 C 938.761 -3.25166 1.20284 0
M  V30 9809 C 937.822 -3.55691 2.4038 0
M  V30 9810 C 937.055 -4.84601 2.23602 0
M  V30 9811 O 937.278 -5.56985 1.22979 0
M  V30 9812 O 936.212 -5.14605 3.12194 0
M  V30 9813 H 940.038 -1.93197 2.34326 0
M  V30 9814 H 937.623 -0.898775 1.19342 0
M  V30 9815 H 939.505 -4.06099 1.12525 0
M  V30 9816 H 938.18 -3.22577 0.269352 0
M  V30 9817 H 937.087 -2.74919 2.53714 0
M  V30 9818 H 938.42 -3.6304 3.32359 0
M  V30 9819 N 940.072 -1.23292 -0.981677 0
M  V30 9820 C 941.019 -1.01296 -2.07383 0
M  V30 9821 C 941.989 0.069139 -1.65956 0
M  V30 9822 O 943.174 -0.0827108 -1.90621 0
M  V30 9823 C 940.314 -0.608876 -3.39686 0
M  V30 9824 C 939.427 -1.76296 -3.9439 0
M  V30 9825 C 938.562 -1.30578 -5.14901 0
M  V30 9826 C 937.601 -2.4307 -5.61768 0
M  V30 9827 N 936.738 -1.98319 -6.73509 0
M  V30 9828 H 941.578 -1.9478 -2.25532 0
M  V30 9829 H 939.115 -0.970356 -1.10555 0
M  V30 9830 H 941.073 -0.355702 -4.15681 0
M  V30 9831 H 939.703 0.288961 -3.21504 0
M  V30 9832 H 938.755 -2.13017 -3.15163 0
M  V30 9833 H 940.067 -2.60871 -4.25145 0
M  V30 9834 H 939.221 -1.01066 -5.98223 0
M  V30 9835 H 937.96 -0.430386 -4.85797 0
M  V30 9836 H 936.965 -2.73358 -4.77028 0
M  V30 9837 H 938.19 -3.31144 -5.92892 0
M  V30 9838 H 936.136 -1.13157 -6.46167 0
M  V30 9839 H 936.053 -2.76454 -7.0364 0
M  V30 9840 H 937.321 -1.71907 -7.60308 0
M  V30 9841 N 941.55 1.18024 -1.04442 0
M  V30 9842 C 942.827 1.8398 -0.664125 0
M  V30 9843 C 943.207 1.92961 0.856116 0
M  V30 9844 O 942.555 1.45839 1.75907 0
M  V30 9845 C 942.765 3.22069 -1.34433 0
M  V30 9846 C 944.113 3.98063 -1.47754 0
M  V30 9847 O 945.137 3.31523 -1.30274 0
M  V30 9848 O 943.996 5.17291 -1.76272 0
M  V30 9849 H 941.09 0.793543 -0.23285 0
M  V30 9850 H 943.636 1.25385 -1.14354 0
M  V30 9851 H 942.408 3.10458 -2.38184 0
M  V30 9852 H 942.031 3.88325 -0.853782 0
M  V30 9853 N 943.028 0.824394 1.34319 0
M  V30 9854 C 944.276 0.41235 1.97849 0
M  V30 9855 C 944.597 -1.02841 1.65677 0
M  V30 9856 O 943.867 -1.71421 0.948245 0
M  V30 9857 H 942.447 0.149486 0.73189 0
M  V30 9858 H 945.109 1.05416 1.63931 0
M  V30 9859 H 944.205 0.532557 3.07523 0
M  V30 9860 N 944.506 -1.46559 0.579492 0
M  V30 9861 C 945.416 -2.34066 -0.15816 0
M  V30 9862 C 946.432 -1.49556 -0.88932 0
M  V30 9863 O 947.608 -1.82434 -0.853226 0
M  V30 9864 C 944.673 -3.26683 -1.161 0
M  V30 9865 C 943.734 -4.27092 -0.434855 0
M  V30 9866 C 942.967 -5.15283 -1.38992 0
M  V30 9867 O 943.19 -5.06345 -2.62623 0
M  V30 9868 O 942.124 -5.95099 -0.902253 0
M  V30 9869 H 945.95 -2.98488 0.560234 0
M  V30 9870 H 943.535 -1.45482 0.339918 0
M  V30 9871 H 945.417 -3.8383 -1.73932 0
M  V30 9872 H 944.092 -2.64862 -1.86091 0
M  V30 9873 H 942.999 -3.73641 0.185224 0
M  V30 9874 H 944.332 -4.9169 0.224031 0
M  V30 9875 N 945.984 -0.3171 -1.54377 0
M  V30 9876 C 947.23 0.287836 -2.00747 0
M  V30 9877 C 947.563 1.52292 -1.20502 0
M  V30 9878 O 946.838 1.92391 -0.285626 0
M  V30 9879 C 947.121 0.628423 -3.54574 0
M  V30 9880 C 946.974 -0.616922 -4.45549 0
M  V30 9881 C 948.293 1.44862 -4.15575 0
M  V30 9882 H 945.412 0.103144 -0.729747 0
M  V30 9883 H 948.054 -0.432396 -1.85014 0
M  V30 9884 H 946.204 1.24203 -3.68111 0
M  V30 9885 H 947.876 -1.25526 -4.43893 0
M  V30 9886 H 946.119 -1.24706 -4.15489 0
M  V30 9887 H 946.79 -0.334243 -5.50987 0
M  V30 9888 H 949.266 0.930015 -4.05574 0
M  V30 9889 H 948.142 1.6557 -5.23333 0
M  V30 9890 H 948.403 2.44279 -3.68484 0
M  V30 9891 N 947.462 1.57535 -0.0451378 0
M  V30 9892 C 948.711 1.91628 0.629415 0
M  V30 9893 C 949.024 0.924754 1.72359 0
M  V30 9894 O 950.23 1.15751 2.45589 0
M  V30 9895 C 948.686 3.40322 1.17084 0
M  V30 9896 C 948.294 4.47867 0.109101 0
M  V30 9897 C 950.038 3.83458 1.82099 0
M  V30 9898 C 947.945 5.87671 0.663072 0
M  V30 9899 H 946.875 0.715163 0.238868 0
M  V30 9900 H 949.526 1.83151 -0.113046 0
M  V30 9901 H 947.908 3.43783 1.96543 0
M  V30 9902 H 949.082 4.55988 -0.664201 0
M  V30 9903 H 947.397 4.14034 -0.443227 0
M  V30 9904 H 949.994 4.85273 2.2453 0
M  V30 9905 H 950.337 3.19379 2.67026 0
M  V30 9906 H 950.87 3.82488 1.09305 0
M  V30 9907 H 947.609 6.55332 -0.148423 0
M  V30 9908 H 947.129 5.83124 1.4045 0
M  V30 9909 H 948.808 6.36737 1.14785 0
M  V30 9910 N 948.94 -0.228186 1.55939 0
M  V30 9911 C 950.165 -0.974795 1.83064 0
M  V30 9912 C 950.59 -1.77426 0.624624 0
M  V30 9913 O 949.948 -1.76211 -0.426556 0
M  V30 9914 C 949.996 -1.87342 3.08116 0
M  V30 9915 O 949.1 -2.96784 2.86344 0
M  V30 9916 H 948.441 -0.276379 0.603747 0
M  V30 9917 H 950.971 -0.243507 2.03146 0
M  V30 9918 H 950.981 -2.28451 3.38045 0
M  V30 9919 H 949.656 -1.28575 3.95526 0
M  V30 9920 H 948.233 -2.59669 2.67631 0
M  V30 9921 N 950.418 -1.49637 -0.494624 0
M  V30 9922 C 951.365 -1.66776 -1.59545 0
M  V30 9923 C 952.335 -0.509159 -1.58104 0
M  V30 9924 O 953.52 -0.736949 -1.75993 0
M  V30 9925 C 950.66 -1.74624 -2.97658 0
M  V30 9926 C 949.773 -3.01831 -3.09067 0
M  V30 9927 C 948.908 -3.00619 -4.37952 0
M  V30 9928 C 947.947 -4.22378 -4.43016 0
M  V30 9929 N 947.084 -4.1904 -5.63339 0
M  V30 9930 H 951.924 -2.60767 -1.44238 0
M  V30 9931 H 949.461 -1.29286 -0.701673 0
M  V30 9932 H 951.419 -1.77156 -3.77719 0
M  V30 9933 H 950.049 -0.840936 -3.11654 0
M  V30 9934 H 949.101 -3.08881 -2.22029 0
M  V30 9935 H 950.413 -3.91823 -3.08669 0
M  V30 9936 H 949.567 -3.01749 -5.26339 0
M  V30 9937 H 948.306 -2.08416 -4.40924 0
M  V30 9938 H 947.311 -4.21485 -3.5303 0
M  V30 9939 H 948.536 -5.15781 -4.41755 0
M  V30 9940 H 946.482 -3.29677 -5.67141 0
M  V30 9941 H 946.399 -5.02774 -5.64583 0
M  V30 9942 H 947.667 -4.24281 -6.53916 0
M  V30 9943 N 951.896 0.746133 -1.38819 0
M  V30 9944 C 952.843 1.86001 -1.36647 0
M  V30 9945 C 953.813 1.6453 -0.227849 0
M  V30 9946 O 954.998 1.86092 -0.421241 0
M  V30 9947 C 952.138 3.23388 -1.20474 0
M  V30 9948 C 951.251 3.5664 -2.43786 0
M  V30 9949 C 950.386 4.8337 -2.20287 0
M  V30 9950 C 949.425 5.09431 -3.39332 0
M  V30 9951 N 948.562 6.2736 -3.1522 0
M  V30 9952 H 953.402 1.87192 -2.31869 0
M  V30 9953 H 950.939 0.914838 -1.15192 0
M  V30 9954 H 952.897 4.02679 -1.09112 0
M  V30 9955 H 951.527 3.21505 -0.288874 0
M  V30 9956 H 950.579 2.72135 -2.65794 0
M  V30 9957 H 951.891 3.71823 -3.3249 0
M  V30 9958 H 951.045 5.70619 -2.06103 0
M  V30 9959 H 949.784 4.70341 -1.28961 0
M  V30 9960 H 948.789 4.20648 -3.54027 0
M  V30 9961 H 950.014 5.24354 -4.31544 0
M  V30 9962 H 947.96 6.15639 -2.26549 0
M  V30 9963 H 947.877 6.43078 -3.97476 0
M  V30 9964 H 949.145 7.17477 -3.04707 0
M  V30 9965 N 953.375 1.23811 0.975125 0
M  V30 9966 C 954.791 1.0019 1.24234 0
M  V30 9967 C 954.991 -0.293811 1.99346 0
M  V30 9968 O 954.047 -1.01189 2.31337 0
M  V30 9969 C 955.36 2.21218 2.03674 0
M  V30 9970 C 956.908 2.25764 2.16793 0
M  V30 9971 C 957.383 3.46394 2.99626 0
M  V30 9972 N 958.874 3.46665 3.07209 0
M  V30 9973 C 959.609 4.3666 3.71639 0
M  V30 9974 N 959.105 5.36899 4.37849 0
M  V30 9975 N 960.898 4.2439 3.68578 0
M  V30 9976 H 953.049 2.07087 0.472076 0
M  V30 9977 H 955.312 0.90838 0.271201 0
M  V30 9978 H 955.018 3.15277 1.55862 0
M  V30 9979 H 954.892 2.22733 3.04417 0
M  V30 9980 H 957.279 1.32242 2.63811 0
M  V30 9981 H 957.36 2.28279 1.15422 0
M  V30 9982 H 957.004 4.40227 2.53304 0
M  V30 9983 H 956.934 3.41121 4.01178 0
M  V30 9984 H 959.425 2.74142 2.60105 0
M  V30 9985 H 959.738 6.01816 4.84807 0
M  V30 9986 H 958.083 5.40793 4.36541 0
M  V30 9987 H 961.274 3.4532 3.16025 0
M  V30 9988 H 961.447 4.94727 4.18508 0
M  V30 9989 N 954.853 -1.17469 1.05066 0
M  V30 9990 C 955.801 -2.23495 0.644418 0
M  V30 9991 C 956.795 -1.66081 -0.333685 0
M  V30 9992 O 958.001 -1.78887 -0.199886 0
M  V30 9993 H 954.376 -0.727546 0.190214 0
M  V30 9994 H 956.347 -2.55058 1.5488 0
M  V30 9995 C 955.096 -3.47684 0.0338051 0
M  V30 9996 H 954.419 -3.92167 0.777513 0
M  V30 9997 H 955.859 -4.23464 -0.213086 0
M  V30 9998 C 954.318 -3.14067 -1.21915 0
M  V30 9999 O 954.848 -3.28728 -2.3087 0
M  V30 10000 N 953.054 -2.68304 -1.11631 0
M  V30 10001 H 952.601 -2.56574 -0.229673 0
M  V30 10002 H 952.559 -2.46184 -1.95553 0
M  V30 10003 N 956.331 -0.831506 -1.3388 0
M  V30 10004 C 957.241 -0.261688 -2.33136 0
M  V30 10005 C 958.257 0.608429 -1.63016 0
M  V30 10006 O 959.433 0.514297 -1.94723 0
M  V30 10007 C 956.498 0.559957 -3.42148 0
M  V30 10008 C 955.559 -0.333569 -4.28002 0
M  V30 10009 C 954.792 0.448956 -5.31808 0
M  V30 10010 O 955.015 1.6814 -5.45055 0
M  V30 10011 O 953.949 -0.173197 -6.01651 0
M  V30 10012 H 957.775 -1.08343 -2.83717 0
M  V30 10013 H 955.36 -0.593849 -1.3709 0
M  V30 10014 H 957.242 1.02712 -4.08691 0
M  V30 10015 H 955.917 1.35888 -2.93796 0
M  V30 10016 H 954.824 -0.848416 -3.64352 0
M  V30 10017 H 956.157 -1.09707 -4.79818 0
M  V30 10018 N 957.809 1.4625 -0.587256 0
M  V30 10019 C 958.772 2.28812 0.133238 0
M  V30 10020 C 959.772 1.38645 0.814513 0
M  V30 10021 O 960.962 1.60975 0.665774 0
M  V30 10022 C 958.094 3.19147 1.19824 0
M  V30 10023 H 959.287 2.93991 -0.592386 0
M  V30 10024 H 956.84 1.52435 -0.345416 0
M  V30 10025 H 957.575 2.58725 1.95529 0
M  V30 10026 H 957.36 3.85541 0.71418 0
M  V30 10027 H 958.85 3.81278 1.70344 0
M  V30 10028 N 959.287 0.325282 1.54207 0
M  V30 10029 C 960.535 -0.276229 2.00203 0
M  V30 10030 C 960.856 -1.52519 1.21503 0
M  V30 10031 O 960.126 -1.93313 0.317302 0
M  V30 10032 H 958.706 -0.105059 0.739575 0
M  V30 10033 H 961.368 0.442225 1.89817 0
M  V30 10034 H 960.464 -0.531427 3.07542 0
M  V30 10035 N 960.765 -1.57509 0.0534917 0
M  V30 10036 C 961.675 -2.15152 -0.935249 0
M  V30 10037 C 962.691 -1.10991 -1.34003 0
M  V30 10038 O 963.867 -1.43171 -1.41648 0
M  V30 10039 C 960.932 -2.68699 -2.19093 0
M  V30 10040 C 959.993 -3.87666 -1.84428 0
M  V30 10041 C 959.226 -4.3865 -3.0401 0
M  V30 10042 O 959.449 -3.887 -4.17455 0
M  V30 10043 O 958.383 -5.30209 -2.84889 0
M  V30 10044 H 962.209 -2.99962 -0.475009 0
M  V30 10045 H 959.794 -1.48446 -0.16854 0
M  V30 10046 H 961.676 -3.03098 -2.92762 0
M  V30 10047 H 960.351 -1.86958 -2.6425 0
M  V30 10048 H 959.258 -3.58151 -1.08068 0
M  V30 10049 H 960.591 -4.70643 -1.44068 0
M  V30 10050 N 962.243 0.219913 -1.56058 0
M  V30 10051 C 963.489 0.941055 -1.80321 0
M  V30 10052 C 963.844 1.81906 -0.626735 0
M  V30 10053 O 963.137 1.87811 0.379147 0
M  V30 10054 C 963.331 1.81293 -3.08006 0
M  V30 10055 C 963.16 1.02082 -4.37961 0
M  V30 10056 C 961.93 0.715096 -5.00214 0
M  V30 10057 C 964.128 0.385342 -5.12854 0
M  V30 10058 N 962.11 -0.098246 -6.13821 0
M  V30 10059 C 963.481 -0.291319 -6.19315 0
M  V30 10060 C 965.536 0.29854 -4.97004 0
M  V30 10061 C 964.239 -1.04648 -7.11647 0
M  V30 10062 C 966.265 -0.443159 -5.89737 0
M  V30 10063 C 965.627 -1.10836 -6.95625 0
M  V30 10064 H 961.726 0.324568 -0.711463 0
M  V30 10065 H 964.31 0.211795 -1.93545 0
M  V30 10066 H 962.481 2.51399 -2.96063 0
M  V30 10067 H 964.213 2.47167 -3.20454 0
M  V30 10068 H 960.968 1.03352 -4.62185 0
M  V30 10069 H 961.392 -0.4938 -6.75197 0
M  V30 10070 H 966.034 0.798478 -4.15192 0
M  V30 10071 H 963.752 -1.55793 -7.9294 0
M  V30 10072 H 967.338 -0.511348 -5.79549 0
M  V30 10073 H 966.218 -1.6731 -7.66144 0
M  V30 10074 N 963.721 1.49897 0.486681 0
M  V30 10075 C 964.669 1.68125 1.60738 0
M  V30 10076 C 965.663 0.547097 1.60322 0
M  V30 10077 O 966.869 0.727153 1.64659 0
M  V30 10078 H 963.244 0.530391 0.533094 0
M  V30 10079 H 965.215 2.62165 1.42521 0
M  V30 10080 C 963.964 1.77827 2.98786 0
M  V30 10081 H 963.287 2.6448 2.99818 0
M  V30 10082 H 964.727 1.94611 3.76699 0
M  V30 10083 C 963.186 0.526287 3.32764 0
M  V30 10084 O 963.716 -0.341607 4.00245 0
M  V30 10085 N 961.922 0.384947 2.88039 0
M  V30 10086 H 961.469 1.09222 2.33299 0
M  V30 10087 H 961.427 -0.451618 3.11139 0
M  V30 10088 N 965.199 -0.738761 1.39212 0
M  V30 10089 C 966.615 -1.04381 1.20734 0
M  V30 10090 C 966.815 -2.01391 0.0663082 0
M  V30 10091 O 965.871 -2.45672 -0.583229 0
M  V30 10092 C 967.184 -1.6097 2.53987 0
M  V30 10093 C 968.732 -1.73069 2.60799 0
M  V30 10094 C 969.207 -2.33067 3.94264 0
M  V30 10095 N 970.698 -2.40481 3.95883 0
M  V30 10096 C 971.433 -2.87834 4.95923 0
M  V30 10097 N 970.929 -3.35111 6.0636 0
M  V30 10098 N 972.722 -2.87009 4.83304 0
M  V30 10099 H 964.873 -0.0952996 2.12186 0
M  V30 10100 H 967.136 -0.104902 0.942178 0
M  V30 10101 H 966.842 -0.971548 3.38015 0
M  V30 10102 H 966.716 -2.59829 2.73439 0
M  V30 10103 H 969.103 -2.36007 1.77157 0
M  V30 10104 H 969.184 -0.728728 2.452 0
M  V30 10105 H 968.828 -1.70758 4.78335 0
M  V30 10106 H 968.758 -3.33933 4.07181 0
M  V30 10107 H 971.249 -2.07061 3.16123 0
M  V30 10108 H 971.562 -3.69742 6.78609 0
M  V30 10109 H 969.907 -3.33129 6.09959 0
M  V30 10110 H 973.098 -2.49395 3.96131 0
M  V30 10111 H 973.271 -3.23598 5.61416 0
M  V30 10112 N 966.677 -1.24326 -0.968545 0
M  V30 10113 C 967.954 -0.990459 -1.68669 0
M  V30 10114 C 968.334 0.487487 -2.05394 0
M  V30 10115 O 967.682 1.46158 -1.75642 0
M  V30 10116 C 967.892 -1.91251 -2.91931 0
M  V30 10117 C 969.24 -2.18291 -3.6419 0
M  V30 10118 O 970.264 -1.88897 -3.01987 0
M  V30 10119 O 969.123 -2.68204 -4.76161 0
M  V30 10120 H 966.217 -0.374515 -0.737338 0
M  V30 10121 H 968.763 -1.35421 -1.02271 0
M  V30 10122 H 967.535 -2.9111 -2.61478 0
M  V30 10123 H 967.158 -1.55188 -3.66064 0
M  V30 10124 N 968.156 1.1691 -1.05688 0
M  V30 10125 C 969.402 1.8757 -0.771071 0
M  V30 10126 C 969.735 1.8113 0.700399 0
M  V30 10127 O 969.01 1.22273 1.5126 0
M  V30 10128 C 969.293 3.37392 -1.25851 0
M  V30 10129 C 969.146 3.52556 -2.79329 0
M  V30 10130 C 970.465 4.31585 -0.861512 0
M  V30 10131 H 967.584 0.681089 -0.281579 0
M  V30 10132 H 970.226 1.37453 -1.31174 0
M  V30 10133 H 968.376 3.80204 -0.798563 0
M  V30 10134 H 970.048 3.18725 -3.33485 0
M  V30 10135 H 968.291 2.94668 -3.1836 0
M  V30 10136 H 968.962 4.57748 -3.08498 0
M  V30 10137 H 971.438 3.96642 -1.25756 0
M  V30 10138 H 970.314 5.34939 -1.23012 0
M  V30 10139 H 970.575 4.4148 0.234089 0
M  V30 10140 N 969.634 0.838594 1.33437 0
M  V30 10141 C 970.864 0.446995 2.01707 0
M  V30 10142 C 971.272 -0.956335 1.63251 0
M  V30 10143 O 970.615 -1.63289 0.841566 0
M  V30 10144 C 970.677 0.487707 3.56176 0
M  V30 10145 C 970.341 1.8471 4.18009 0
M  V30 10146 C 971.338 2.81028 4.374 0
M  V30 10147 C 969.023 2.13987 4.54439 0
M  V30 10148 C 971.017 4.04785 4.92369 0
M  V30 10149 C 968.704 3.38 5.09116 0
M  V30 10150 C 969.702 4.33216 5.28027 0
M  V30 10151 O 969.39 5.55036 5.81541 0
M  V30 10152 H 969.122 0.175799 0.652741 0
M  V30 10153 H 971.676 1.13265 1.71348 0
M  V30 10154 H 969.906 -0.254719 3.8586 0
M  V30 10155 H 971.595 0.113971 4.0574 0
M  V30 10156 H 972.361 2.5971 4.09604 0
M  V30 10157 H 968.24 1.40668 4.39014 0
M  V30 10158 H 971.784 4.79114 5.07046 0
M  V30 10159 H 967.681 3.59175 5.36343 0
M  V30 10160 H 968.449 5.56772 5.99956 0
M  V30 10161 N 971.112 -1.45937 0.595003 0
M  V30 10162 C 972.361 -2.01529 0.0829531 0
M  V30 10163 C 972.674 -1.47071 -1.28955 0
M  V30 10164 O 973.88 -1.94561 -1.89363 0
M  V30 10165 C 972.336 -3.59767 0.0976597 0
M  V30 10166 C 971.944 -4.23223 1.46924 0
M  V30 10167 C 973.688 -4.22972 -0.359805 0
M  V30 10168 C 971.595 -5.73576 1.44101 0
M  V30 10169 H 970.525 -0.753508 0.0272425 0
M  V30 10170 H 973.176 -1.67541 0.748473 0
M  V30 10171 H 971.558 -3.90888 -0.634268 0
M  V30 10172 H 972.732 -4.03695 2.22187 0
M  V30 10173 H 971.047 -3.72161 1.86775 0
M  V30 10174 H 973.644 -5.33202 -0.39991 0
M  V30 10175 H 973.987 -3.92765 -1.37991 0
M  V30 10176 H 974.52 -3.96523 0.31845 0
M  V30 10177 H 971.259 -6.08462 2.43831 0
M  V30 10178 H 970.779 -5.95332 0.730767 0
M  V30 10179 H 972.458 -6.36531 1.1592 0
M  V30 10180 N 972.59 -0.333456 -1.54032 0
M  V30 10181 C 974.006 0.0188405 -1.59589 0
M  V30 10182 C 974.206 1.49615 -1.34972 0
M  V30 10183 O 973.262 2.2535 -1.13901 0
M  V30 10184 C 974.575 -0.408273 -2.97915 0
M  V30 10185 C 976.123 -0.359763 -3.10926 0
M  V30 10186 C 976.598 -0.76219 -4.51613 0
M  V30 10187 N 978.089 -0.715981 -4.57633 0
M  V30 10188 C 978.824 -0.999436 -5.64623 0
M  V30 10189 N 978.32 -1.35053 -6.79509 0
M  V30 10190 N 980.113 -0.924343 -5.54448 0
M  V30 10191 H 972.264 -1.29587 -1.68289 0
M  V30 10192 H 974.527 -0.527584 -0.787629 0
M  V30 10193 H 974.233 -1.43793 -3.20962 0
M  V30 10194 H 974.107 0.221685 -3.76548 0
M  V30 10195 H 976.494 0.660703 -2.87609 0
M  V30 10196 H 976.575 -1.02479 -2.34375 0
M  V30 10197 H 976.219 -1.78062 -4.75664 0
M  V30 10198 H 976.149 -0.0747478 -5.26547 0
M  V30 10199 H 978.64 -0.456875 -3.75128 0
M  V30 10200 H 978.953 -1.55194 -7.57057 0
M  V30 10201 H 977.298 -1.38889 -6.80981 0
M  V30 10202 H 980.489 -0.649469 -4.63573 0
M  V30 10203 H 980.662 -1.1486 -6.37739 0
M  V30 10204 N 974.068 1.57479 -0.061844 0
M  V30 10205 C 975 2.09116 0.938245 0
M  V30 10206 C 976.013 1.0212 1.26788 0
M  V30 10207 O 977.202 1.2966 1.22681 0
M  V30 10208 C 974.302 2.52822 2.25686 0
M  V30 10209 C 973.475 3.83277 2.10755 0
M  V30 10210 C 972.534 4.13182 3.25833 0
M  V30 10211 O 971.56 4.82937 3.01265 0
M  V30 10212 N 972.762 3.65938 4.50633 0
M  V30 10213 H 975.527 2.95543 0.497433 0
M  V30 10214 H 973.088 1.61423 0.124134 0
M  V30 10215 H 975.08 2.69896 3.01559 0
M  V30 10216 H 973.65 1.71586 2.61299 0
M  V30 10217 H 972.87 3.7568 1.19409 0
M  V30 10218 H 974.158 4.68686 1.98018 0
M  V30 10219 H 973.556 3.09566 4.73482 0
M  V30 10220 H 972.113 3.8823 5.23565 0
M  V30 10221 O 975.585 -0.0790267 1.61307 0
M  V30 10222 H 976.276 -0.705778 1.80384 0
M  V30 END ATOM
M  V30 BEGIN BOND
M  V30 END BOND
M  V30 END CTAB
M  END
$$$$
