drugbank_target|Q7L7X3 Serine/threonine-protein kinase TAO1 (DB12010)
 OpenBabel12092121133D

  0  0  0     0  0            999 V3000
M  V30 BEGIN CTAB
M  V30 COUNTS 16196 16342 0 0 0
M  V30 BEGIN ATOM
M  V30 1 H -0.908 1.98254 -0.117106 0
M  V30 2 N 0 1.576 0 0
M  V30 3 C 0.933 2.03868 1.02534 0
M  V30 4 C 1.911 0.928543 1.3348 0
M  V30 5 O 3.095 1.19667 1.45644 0
M  V30 6 C 0.222 2.43627 2.35294 0
M  V30 7 C -0.732 3.65373 2.2001 0
M  V30 8 S 0.101 5.13292 1.52614 0
M  V30 9 C 1.257 5.56322 2.86805 0
M  V30 10 H 1.49 2.90518 0.631377 0
M  V30 11 H -0.977 1.52953 0.210867 0
M  V30 12 H 0.981 2.67203 3.11629 0
M  V30 13 H -0.358 1.57376 2.7183 0
M  V30 14 H -1.165 3.90944 3.18086 0
M  V30 15 H -1.563 3.418 1.51819 0
M  V30 16 H 0.729 5.58782 3.83104 0
M  V30 17 H 1.672 6.56266 2.65933 0
M  V30 18 H 2.08 4.83886 2.90714 0
M  V30 19 N 1.4781 -0.272755 1.55222 0
M  V30 20 C 2.8891 -0.84378 1.66545 0
M  V30 21 C 3.2401 -1.87035 0.592641 0
M  V30 22 O 2.3651 -2.14761 -0.265818 0
M  V30 23 C 2.9601 -1.53723 3.01918 0
M  V30 24 C 1.5191 -2.05628 3.15268 0
M  V30 25 C 0.6661 -0.898424 2.62343 0
M  V30 26 H 3.6171 -0.0490998 1.58624 0
M  V30 27 H 3.6381 -2.40421 2.94921 0
M  V30 28 H 3.1501 -0.78983 3.79978 0
M  V30 29 H 1.2511 -2.83329 2.41983 0
M  V30 30 H 1.3641 -2.27142 4.21833 0
M  V30 31 H -0.2719 -1.29186 2.19506 0
M  V30 32 H 0.5111 -0.164528 3.42906 0
M  V30 33 N 2.9562 -1.48159 -0.537278 0
M  V30 34 C 4.1812 -1.59707 -1.32319 0
M  V30 35 C 4.6062 -0.254859 -1.86365 0
M  V30 36 O 3.9642 0.772378 -1.64024 0
M  V30 37 C 4.0122 -2.6412 -2.45505 0
M  V30 38 O 3.1162 -2.20774 -3.48328 0
M  V30 39 H 2.4572 -0.535791 -0.392204 0
M  V30 40 H 4.9872 -1.94092 -0.647268 0
M  V30 41 H 4.9972 -2.85166 -2.91795 0
M  V30 42 H 3.6722 -3.61567 -2.05528 0
M  V30 43 H 2.2492 -2.09911 -3.08207 0
M  V30 44 N 4.4343 0.785586 -1.36625 0
M  V30 45 C 5.6623 1.57448 -1.3423 0
M  V30 46 C 6.0773 1.88649 0.0755653 0
M  V30 47 O 5.4343 1.50414 1.03354 0
M  V30 48 C 5.4853 2.89316 -2.16745 0
M  V30 49 O 5.2063 2.59459 -3.53005 0
M  V30 50 C 6.7073 3.83606 -2.22174 0
M  V30 51 H 3.9273 0.488226 -0.4603 0
M  V30 52 H 6.4713 0.974733 -1.79775 0
M  V30 53 H 4.6263 3.4575 -1.74745 0
M  V30 54 H 5.0403 3.43804 -3.96105 0
M  V30 55 H 6.5143 4.73181 -2.8426 0
M  V30 56 H 6.9913 4.21734 -1.22627 0
M  V30 57 H 7.5973 3.33104 -2.64427 0
M  V30 58 N 5.9124 1.20967 1.01018 0
M  V30 59 C 6.8604 0.961223 2.1181 0
M  V30 60 C 7.8544 -0.0897034 1.69162 0
M  V30 61 O 9.0604 0.0612271 1.79896 0
M  V30 62 H 5.4354 0.29355 0.692338 0
M  V30 63 H 7.4064 1.90178 2.29946 0
M  V30 64 C 6.1554 0.536854 3.4353 0
M  V30 65 H 5.4784 1.33713 3.76777 0
M  V30 66 H 6.9184 0.402286 4.22087 0
M  V30 67 C 5.3774 -0.751574 3.2841 0
M  V30 68 O 5.9074 -1.80841 3.58691 0
M  V30 69 N 4.1134 -0.716079 2.81639 0
M  V30 70 H 3.6604 0.144236 2.57196 0
M  V30 71 H 3.6184 -1.57847 2.71904 0
M  V30 72 N 7.3905 -1.2043 1.01659 0
M  V30 73 C 8.8065 -1.41852 0.731442 0
M  V30 74 C 9.0065 -1.89358 -0.688898 0
M  V30 75 O 8.0625 -2.06247 -1.45666 0
M  V30 76 C 9.3755 -2.44019 1.75714 0
M  V30 77 C 10.9235 -2.57785 1.77527 0
M  V30 78 C 11.3985 -3.63194 2.79023 0
M  V30 79 N 12.8895 -3.70678 2.77763 0
M  V30 80 C 13.6245 -4.51897 3.52954 0
M  V30 81 N 13.1205 -5.36921 4.37821 0
M  V30 82 N 14.9135 -4.4643 3.41551 0
M  V30 83 H 7.0645 -0.879093 1.93354 0
M  V30 84 H 9.3275 -0.448425 0.835236 0
M  V30 85 H 9.0335 -2.1611 2.77469 0
M  V30 86 H 8.9075 -3.43007 1.56927 0
M  V30 87 H 11.2945 -2.85023 0.764569 0
M  V30 88 H 11.3755 -1.58992 2.00387 0
M  V30 89 H 11.0195 -3.36699 3.80258 0
M  V30 90 H 10.9495 -4.61609 2.53425 0
M  V30 91 H 13.4405 -3.09944 2.16201 0
M  V30 92 H 13.7535 -5.95981 4.91962 0
M  V30 93 H 12.0985 -5.36424 4.41899 0
M  V30 94 H 15.2895 -3.79042 2.74672 0
M  V30 95 H 15.4625 -5.09491 4.00404 0
M  V30 96 N 8.8686 -0.792821 -1.36206 0
M  V30 97 C 9.8316 -0.199459 -2.2833 0
M  V30 98 C 10.8316 0.605189 -1.48977 0
M  V30 99 O 12.0216 0.425685 -1.68919 0
M  V30 100 C 9.1536 0.723523 -3.33134 0
M  V30 101 H 10.3466 -1.01181 -2.82316 0
M  V30 102 H 7.8996 -0.562485 -1.45828 0
M  V30 103 H 8.6346 1.56008 -2.84309 0
M  V30 104 H 8.4196 0.148436 -3.91819 0
M  V30 105 H 9.9096 1.13344 -4.01924 0
M  V30 106 N 10.3467 1.47872 -0.545128 0
M  V30 107 C 11.5947 2.02093 -0.016553 0
M  V30 108 C 11.9157 1.42305 1.3332 0
M  V30 109 O 11.1857 0.593853 1.86682 0
M  V30 110 H 9.7657 0.746993 -0.00313038 0
M  V30 111 H 12.4277 1.81414 -0.712397 0
M  V30 112 H 11.5237 3.11996 0.0805422 0
M  V30 113 N 11.8248 0.280983 1.55075 0
M  V30 114 C 13.0498 -0.340154 2.04592 0
M  V30 115 C 13.4748 -1.48246 1.15779 0
M  V30 116 O 12.8328 -1.80614 0.15761 0
M  V30 117 C 12.8808 -0.793104 3.5177 0
M  V30 118 O 11.9848 -1.89981 3.66034 0
M  V30 119 H 11.3258 -0.0694289 0.66036 0
M  V30 120 H 13.8558 0.416993 2.00306 0
M  V30 121 H 13.8658 -1.08729 3.93245 0
M  V30 122 H 12.5408 0.0426163 4.15878 0
M  V30 123 H 11.1178 -1.60771 3.36463 0
M  V30 124 N 13.3029 -1.57598 0.00835791 0
M  V30 125 C 14.2329 -2.1198 -0.979113 0
M  V30 126 C 15.2139 -1.03091 -1.35301 0
M  V30 127 O 16.3989 -1.30818 -1.43528 0
M  V30 128 C 13.5289 -2.62995 -2.26828 0
M  V30 129 C 12.4829 -3.76485 -2.03576 0
M  V30 130 C 11.8089 -4.13846 -3.38579 0
M  V30 131 C 13.1089 -5.0342 -1.39161 0
M  V30 132 H 14.8029 -2.94738 -0.526281 0
M  V30 133 H 12.3489 -1.41783 -0.251704 0
M  V30 134 H 14.3019 -2.99669 -2.96271 0
M  V30 135 H 13.0259 -1.7737 -2.7424 0
M  V30 136 H 11.6849 -3.40217 -1.36557 0
M  V30 137 H 11.3329 -3.25232 -3.83709 0
M  V30 138 H 11.0329 -4.90312 -3.23834 0
M  V30 139 H 12.5569 -4.53086 -4.09323 0
M  V30 140 H 13.9709 -5.37812 -1.98573 0
M  V30 141 H 12.3679 -5.84746 -1.34878 0
M  V30 142 H 13.4379 -4.83548 -0.361868 0
M  V30 143 N 14.781 0.264519 -1.55364 0
M  V30 144 C 15.728 1.32717 -1.88825 0
M  V30 145 C 16.698 1.48675 -0.740605 0
M  V30 146 O 17.883 1.62945 -0.992657 0
M  V30 147 C 15.023 2.68089 -2.17307 0
M  V30 148 C 14.136 2.60284 -3.44785 0
M  V30 149 C 13.271 3.87892 -3.62924 0
M  V30 150 C 12.31 3.74631 -4.84064 0
M  V30 151 N 11.447 4.94092 -4.98816 0
M  V30 152 H 16.287 1.03481 -2.79456 0
M  V30 153 H 13.824 0.499757 -1.3835 0
M  V30 154 H 15.782 3.46864 -2.31821 0
M  V30 155 H 14.412 2.95509 -1.299 0
M  V30 156 H 13.464 1.73173 -3.38697 0
M  V30 157 H 14.776 2.46388 -4.33698 0
M  V30 158 H 13.93 4.75109 -3.77302 0
M  V30 159 H 12.669 4.04664 -2.7221 0
M  V30 160 H 11.674 2.85797 -4.69681 0
M  V30 161 H 12.899 3.5937 -5.76221 0
M  V30 162 H 10.845 5.11259 -4.11036 0
M  V30 163 H 10.762 4.8276 -5.81789 0
M  V30 164 H 12.03 5.82857 -5.17588 0
M  V30 165 N 16.2591 1.48442 0.529413 0
M  V30 166 C 17.5361 1.46978 1.29062 0
M  V30 167 C 17.9161 0.181769 2.10316 0
M  V30 168 O 17.2641 -0.836481 2.12639 0
M  V30 169 C 17.4741 2.7321 2.17157 0
M  V30 170 C 18.8221 3.21562 2.77278 0
M  V30 171 O 19.8461 2.74131 2.27444 0
M  V30 172 O 18.7051 4.04094 3.67927 0
M  V30 173 H 15.7991 0.587003 0.582543 0
M  V30 174 H 18.3451 1.60676 0.546021 0
M  V30 175 H 17.1171 3.58465 1.56903 0
M  V30 176 H 16.7401 2.62235 2.98862 0
M  V30 177 N 17.7372 -0.778329 1.37039 0
M  V30 178 C 19.1482 -1.35421 1.28523 0
M  V30 179 C 19.4992 -1.96075 -0.0700901 0
M  V30 180 O 18.6242 -1.93352 -0.971801 0
M  V30 181 C 19.2192 -2.46211 2.32735 0
M  V30 182 C 17.7782 -2.99585 2.27873 0
M  V30 183 C 16.9252 -1.72748 2.16918 0
M  V30 184 H 19.8762 -0.5791 1.47757 0
M  V30 185 H 19.8972 -3.2552 1.9702 0
M  V30 186 H 19.4092 -2.02036 3.31365 0
M  V30 187 H 17.5102 -3.48152 1.32745 0
M  V30 188 H 17.6232 -3.55646 3.21018 0
M  V30 189 H 15.9872 -1.95416 1.63354 0
M  V30 190 H 16.7702 -1.30686 3.17452 0
M  V30 191 N 19.2153 -1.21501 -1.00376 0
M  V30 192 C 20.1253 -0.991447 -2.12621 0
M  V30 193 C 21.1413 0.0568446 -1.73907 0
M  V30 194 O 22.3173 -0.13348 -2.00957 0
M  V30 195 C 19.3823 -0.560312 -3.42142 0
M  V30 196 C 18.4433 -1.68096 -3.95022 0
M  V30 197 C 17.6763 -1.2703 -5.18362 0
M  V30 198 O 17.8993 -0.144438 -5.70217 0
M  V30 199 O 16.8333 -2.08269 -5.64719 0
M  V30 200 H 20.6593 -1.93158 -2.34358 0
M  V30 201 H 18.2443 -0.999999 -1.10997 0
M  V30 202 H 20.1263 -0.329724 -4.20108 0
M  V30 203 H 18.8013 0.351089 -3.2179 0
M  V30 204 H 17.7083 -1.96597 -3.18278 0
M  V30 205 H 19.0413 -2.56983 -4.19786 0
M  V30 206 N 20.6934 1.19889 -1.02296 0
M  V30 207 C 21.9424 1.88743 -0.711257 0
M  V30 208 C 22.2554 1.80112 0.762817 0
M  V30 209 O 23.4614 2.44161 1.18733 0
M  V30 210 C 21.9174 3.38525 -1.22185 0
M  V30 211 C 21.5254 3.55727 -2.72328 0
M  V30 212 C 23.2694 4.12893 -0.985864 0
M  V30 213 C 21.1764 4.99369 -3.16835 0
M  V30 214 H 20.1064 0.706885 -0.262353 0
M  V30 215 H 22.7574 1.35586 -1.23648 0
M  V30 216 H 21.1394 3.91044 -0.624571 0
M  V30 217 H 22.3134 3.13564 -3.3766 0
M  V30 218 H 20.6284 2.94739 -2.9414 0
M  V30 219 H 23.2254 5.18813 -1.29374 0
M  V30 220 H 23.5684 4.16228 0.0775055 0
M  V30 221 H 24.1014 3.66494 -1.54684 0
M  V30 222 H 20.8404 5.01193 -4.22476 0
M  V30 223 H 20.3604 5.42317 -2.56228 0
M  V30 224 H 22.0394 5.67988 -3.09837 0
M  V30 225 N 22.1715 0.800033 1.35784 0
M  V30 226 C 23.1345 0.211565 2.28221 0
M  V30 227 C 24.1345 -0.59728 1.49296 0
M  V30 228 O 25.3245 -0.416721 1.69142 0
M  V30 229 C 22.4565 -0.705846 3.33513 0
M  V30 230 H 23.6495 1.02677 2.81776 0
M  V30 231 H 21.2025 0.570211 1.45528 0
M  V30 232 H 21.9375 -1.54498 2.85133 0
M  V30 233 H 21.7225 -0.127655 3.91892 0
M  V30 234 H 23.2125 -1.11211 4.02519 0
M  V30 235 N 23.6496 -1.47581 0.552962 0
M  V30 236 C 24.5596 -2.33743 -0.200353 0
M  V30 237 C 25.5756 -1.47928 -0.916151 0
M  V30 238 O 26.7516 -1.80865 -0.885993 0
M  V30 239 C 23.8166 -3.24536 -1.21973 0
M  V30 240 C 22.8776 -4.26238 -0.511819 0
M  V30 241 C 22.1106 -5.12693 -1.48263 0
M  V30 242 O 22.3336 -5.01525 -2.71714 0
M  V30 243 O 21.2676 -5.93375 -1.00945 0
M  V30 244 H 25.0936 -2.9945 0.506304 0
M  V30 245 H 22.6786 -1.46071 0.313622 0
M  V30 246 H 24.5606 -3.80631 -1.80827 0
M  V30 247 H 23.2356 -2.61462 -1.90839 0
M  V30 248 H 22.1426 -3.73914 0.117799 0
M  V30 249 H 23.4756 -4.92014 0.135308 0
M  V30 250 N 25.1277 -0.289203 -1.54924 0
M  V30 251 C 26.0577 0.58549 -2.2604 0
M  V30 252 C 27.0387 1.14753 -1.25562 0
M  V30 253 O 28.2237 1.17906 -1.54311 0
M  V30 254 C 25.3537 1.76305 -2.99222 0
M  V30 255 C 24.3077 1.33191 -4.06748 0
M  V30 256 C 23.6337 2.5937 -4.6758 0
M  V30 257 C 24.9337 0.471775 -5.20165 0
M  V30 258 H 26.6277 -0.00763532 -2.99399 0
M  V30 259 H 24.1737 -0.00511229 -1.43999 0
M  V30 260 H 26.1267 2.38097 -3.47689 0
M  V30 261 H 24.8507 2.38223 -2.23422 0
M  V30 262 H 23.5097 0.737121 -3.59113 0
M  V30 263 H 23.1577 3.19576 -3.88433 0
M  V30 264 H 22.8577 2.31228 -5.40192 0
M  V30 265 H 24.3817 3.21985 -5.18804 0
M  V30 266 H 25.7957 0.995056 -5.64599 0
M  V30 267 H 24.1927 0.284639 -5.99425 0
M  V30 268 H 25.2627 -0.506041 -4.82252 0
M  V30 269 N 26.6058 1.57591 -0.0167156 0
M  V30 270 C 27.8528 1.91283 0.664597 0
M  V30 271 C 28.1808 0.891949 1.72842 0
M  V30 272 O 27.4358 -0.100931 1.9544 0
M  V30 273 C 27.7348 3.3172 1.33029 0
M  V30 274 C 27.4008 4.4914 0.398047 0
M  V30 275 C 26.0628 4.80992 0.141421 0
M  V30 276 C 28.4148 5.20634 -0.242825 0
M  V30 277 C 25.7428 5.81703 -0.764092 0
M  V30 278 C 28.0948 6.22311 -1.13632 0
M  V30 279 C 26.7588 6.52611 -1.40196 0
M  V30 280 H 26.0288 0.699956 0.243193 0
M  V30 281 H 28.6758 1.9135 -0.0758267 0
M  V30 282 H 26.9808 3.27856 2.14517 0
M  V30 283 H 28.6778 3.55055 1.86379 0
M  V30 284 H 25.2678 4.24262 0.608238 0
M  V30 285 H 29.4518 4.96267 -0.0576019 0
M  V30 286 H 24.7078 6.03532 -0.977732 0
M  V30 287 H 28.8818 6.76834 -1.63917 0
M  V30 288 H 26.5088 7.30467 -2.10529 0
M  V30 289 N 28.0839 -0.256276 1.55502 0
M  V30 290 C 29.3309 -0.985619 1.76895 0
M  V30 291 C 29.6589 -1.85671 0.579355 0
M  V30 292 O 28.9139 -1.90744 -0.437651 0
M  V30 293 C 29.2129 -1.88432 3.03691 0
M  V30 294 C 28.8789 -1.16936 4.35473 0
M  V30 295 C 27.5409 -0.97173 4.71286 0
M  V30 296 C 29.8929 -0.661889 5.1698 0
M  V30 297 C 27.2209 -0.254179 5.86149 0
M  V30 298 C 29.5729 0.042149 6.32586 0
M  V30 299 C 28.2369 0.25134 6.67027 0
M  V30 300 H 27.5069 -0.360663 0.647304 0
M  V30 301 H 30.1539 -0.256483 1.89775 0
M  V30 302 H 28.4589 -2.68021 2.85783 0
M  V30 303 H 30.1559 -2.45015 3.1744 0
M  V30 304 H 26.7459 -1.33332 4.07333 0
M  V30 305 H 30.9299 -0.802145 4.89775 0
M  V30 306 H 26.1859 -0.0815408 6.11346 0
M  V30 307 H 30.3599 0.443049 6.94989 0
M  V30 308 H 27.9869 0.809314 7.5588 0
M  V30 309 N 29.562 -1.4872 -0.521534 0
M  V30 310 C 30.509 -1.63871 -1.62527 0
M  V30 311 C 31.479 -0.480559 -1.58996 0
M  V30 312 O 32.664 -0.705085 -1.77294 0
M  V30 313 C 29.804 -1.69227 -3.00759 0
M  V30 314 C 28.917 -2.96207 -3.14461 0
M  V30 315 C 28.052 -2.92671 -4.43303 0
M  V30 316 C 27.091 -4.14318 -4.50563 0
M  V30 317 N 26.228 -4.0881 -5.70805 0
M  V30 318 H 31.068 -2.58123 -1.48918 0
M  V30 319 H 28.605 -1.28 -0.724878 0
M  V30 320 H 30.563 -1.70314 -3.80853 0
M  V30 321 H 29.193 -0.784586 -3.1312 0
M  V30 322 H 28.245 -3.04826 -2.27564 0
M  V30 323 H 29.557 -3.86192 -3.15686 0
M  V30 324 H 28.711 -2.92206 -5.31696 0
M  V30 325 H 27.45 -2.00429 -4.44612 0
M  V30 326 H 26.455 -4.15049 -3.60575 0
M  V30 327 H 27.68 -5.07729 -4.50986 0
M  V30 328 H 25.626 -3.19394 -5.72995 0
M  V30 329 H 25.543 -4.92509 -5.7356 0
M  V30 330 H 26.811 -4.12418 -6.61462 0
M  V30 331 N 31.0401 0.771051 -1.3745 0
M  V30 332 C 31.9501 1.91538 -1.35464 0
M  V30 333 C 32.9661 1.72134 -0.254123 0
M  V30 334 O 34.1421 1.95358 -0.489626 0
M  V30 335 C 31.2071 3.26671 -1.16134 0
M  V30 336 C 30.2681 3.58723 -2.35831 0
M  V30 337 C 29.5011 4.87409 -2.17413 0
M  V30 338 O 29.7241 5.58506 -1.15876 0
M  V30 339 O 28.6581 5.18539 -3.05615 0
M  V30 340 H 32.4841 1.96165 -2.31847 0
M  V30 341 H 30.0691 0.9139 -1.18187 0
M  V30 342 H 31.9511 4.07499 -1.07345 0
M  V30 343 H 30.6261 3.22894 -0.228251 0
M  V30 344 H 29.5331 2.78127 -2.50192 0
M  V30 345 H 30.8661 3.67243 -3.27709 0
M  V30 346 N 32.5182 1.22032 0.997298 0
M  V30 347 C 33.7952 0.950823 1.70935 0
M  V30 348 C 34.1752 -0.535292 2.042 0
M  V30 349 O 33.5232 -1.50217 1.72183 0
M  V30 350 C 33.7332 1.84386 2.96315 0
M  V30 351 C 35.0812 2.09732 3.69185 0
M  V30 352 O 36.1052 1.81798 3.06314 0
M  V30 353 O 34.9642 2.57018 4.82291 0
M  V30 354 H 32.0582 0.357204 0.745878 0
M  V30 355 H 34.6042 1.32997 1.05404 0
M  V30 356 H 33.3762 2.84928 2.68201 0
M  V30 357 H 32.9992 1.46602 3.69586 0
M  V30 358 N 33.9963 -1.19345 1.0293 0
M  V30 359 C 35.4073 -1.70725 0.755633 0
M  V30 360 C 35.7583 -1.82326 -0.724676 0
M  V30 361 O 34.8833 -1.49471 -1.56484 0
M  V30 362 C 35.4783 -3.10084 1.36503 0
M  V30 363 C 34.0373 -3.58723 1.13994 0
M  V30 364 C 33.1843 -2.35577 1.46283 0
M  V30 365 H 36.1353 -1.0418 1.19718 0
M  V30 366 H 36.1563 -3.72787 0.762217 0
M  V30 367 H 35.6683 -3.01609 2.44241 0
M  V30 368 H 33.7693 -3.72512 0.0807901 0
M  V30 369 H 33.8823 -4.42816 1.82894 0
M  V30 370 H 32.2463 -2.38935 0.88217 0
M  V30 371 H 33.0293 -2.29731 2.55105 0
M  V30 372 N 35.4744 -0.807222 -1.35358 0
M  V30 373 C 36.3844 -0.219594 -2.3357 0
M  V30 374 C 37.4004 0.637734 -1.61892 0
M  V30 375 O 38.5764 0.549336 -1.93763 0
M  V30 376 C 35.6414 0.62158 -3.41083 0
M  V30 377 C 34.7024 -0.256315 -4.28534 0
M  V30 378 C 33.9354 0.544807 -5.30912 0
M  V30 379 O 34.1584 1.77944 -5.41934 0
M  V30 380 O 33.0924 -0.0646478 -6.01865 0
M  V30 381 H 36.9184 -1.03208 -2.85625 0
M  V30 382 H 34.5034 -0.569025 -1.38139 0
M  V30 383 H 36.3854 1.10067 -4.06772 0
M  V30 384 H 35.0604 1.41165 -2.91297 0
M  V30 385 H 33.9674 -0.782559 -3.65823 0
M  V30 386 H 35.3004 -1.01034 -4.81719 0
M  V30 387 N 36.9525 1.47285 -0.560781 0
M  V30 388 C 37.8995 2.30058 0.18491 0
M  V30 389 C 38.8695 1.39281 0.904986 0
M  V30 390 O 40.0545 1.68241 0.899979 0
M  V30 391 C 37.1945 3.23317 1.20666 0
M  V30 392 C 36.3075 4.29186 0.492285 0
M  V30 393 C 35.4425 5.09592 1.49964 0
M  V30 394 C 34.4815 6.07232 0.770439 0
M  V30 395 N 33.6185 6.80584 1.72479 0
M  V30 396 H 38.4585 2.93302 -0.527048 0
M  V30 397 H 35.9955 1.44568 -0.271738 0
M  V30 398 H 37.9535 3.75811 1.81168 0
M  V30 399 H 36.5835 2.61929 1.88661 0
M  V30 400 H 35.6355 3.7972 -0.227333 0
M  V30 401 H 36.9475 4.98738 -0.0787929 0
M  V30 402 H 36.1015 5.66254 2.17809 0
M  V30 403 H 34.8405 4.3995 2.10464 0
M  V30 404 H 33.8455 5.49745 0.0780846 0
M  V30 405 H 35.0705 6.78884 0.171134 0
M  V30 406 H 33.0165 6.1367 2.3183 0
M  V30 407 H 32.9335 7.46319 1.20596 0
M  V30 408 H 34.2015 7.41818 2.39428 0
M  V30 409 N 38.4306 0.297415 1.54768 0
M  V30 410 C 39.3606 -0.573494 2.26348 0
M  V30 411 C 40.3416 -1.14085 1.26169 0
M  V30 412 O 41.5266 -1.17086 1.54934 0
M  V30 413 C 38.6566 -1.74716 3.00153 0
M  V30 414 C 37.6106 -1.31032 4.07449 0
M  V30 415 C 36.9366 -2.56887 4.68949 0
M  V30 416 C 38.2366 -0.444183 5.20408 0
M  V30 417 H 39.9306 0.0235131 2.99391 0
M  V30 418 H 37.4766 0.0127488 1.43994 0
M  V30 419 H 39.4296 -2.3625 3.48947 0
M  V30 420 H 38.1536 -2.37035 2.24682 0
M  V30 421 H 36.8126 -0.718066 3.59499 0
M  V30 422 H 36.4606 -3.17512 3.90122 0
M  V30 423 H 36.1606 -2.2836 5.41411 0
M  V30 424 H 37.6846 -3.19229 5.20505 0
M  V30 425 H 39.0986 -0.9651 5.65118 0
M  V30 426 H 37.4956 -0.252846 5.99567 0
M  V30 427 H 38.5656 0.531609 4.81977 0
M  V30 428 N 39.9087 -1.5758 0.0250728 0
M  V30 429 C 41.1557 -1.91633 -0.654444 0
M  V30 430 C 41.4837 -0.901103 -1.72367 0
M  V30 431 O 40.7387 0.0905647 -1.9549 0
M  V30 432 C 41.0377 -3.32421 -1.31268 0
M  V30 433 C 40.7037 -4.49344 -0.374223 0
M  V30 434 C 39.3657 -4.8106 -0.115911 0
M  V30 435 C 41.7177 -5.20498 0.270432 0
M  V30 436 C 39.0457 -5.8129 0.79493 0
M  V30 437 C 41.3977 -6.21699 1.1693 0
M  V30 438 C 40.0617 -6.51859 1.43655 0
M  V30 439 H 39.3317 -0.701236 -0.239478 0
M  V30 440 H 41.9787 -1.91307 0.0859734 0
M  V30 441 H 40.2837 -3.28989 -2.12775 0
M  V30 442 H 41.9807 -3.56038 -1.84494 0
M  V30 443 H 38.5707 -4.24579 -0.58573 0
M  V30 444 H 42.7547 -4.96229 0.0839194 0
M  V30 445 H 38.0107 -6.03005 1.00973 0
M  V30 446 H 42.1847 -6.75955 1.67504 0
M  V30 447 H 39.8117 -7.2934 2.144 0
M  V30 448 N 41.3868 0.248026 -1.55636 0
M  V30 449 C 42.6148 0.993808 -1.81469 0
M  V30 450 C 43.0298 1.78991 -0.60064 0
M  V30 451 O 42.3868 1.77345 0.430682 0
M  V30 452 C 42.4378 1.93258 -3.05506 0
M  V30 453 O 42.1588 1.16869 -4.22224 0
M  V30 454 C 43.6598 2.79444 -3.4413 0
M  V30 455 H 40.8798 0.292486 -0.603898 0
M  V30 456 H 43.4238 0.271253 -2.02693 0
M  V30 457 H 41.5788 2.60943 -2.86335 0
M  V30 458 H 41.9928 1.80359 -4.92515 0
M  V30 459 H 43.4668 3.41066 -4.34026 0
M  V30 460 H 43.9438 3.50499 -2.64665 0
M  V30 461 H 44.5498 2.17214 -3.65648 0
M  V30 462 N 42.8649 1.48995 0.513639 0
M  V30 463 C 44.1419 1.48338 1.27495 0
M  V30 464 C 44.5219 0.204065 2.10111 0
M  V30 465 O 43.8699 -0.813881 2.13514 0
M  V30 466 C 44.0799 2.75498 2.14247 0
M  V30 467 C 45.4279 3.24484 2.73852 0
M  V30 468 O 46.4519 2.76528 2.24523 0
M  V30 469 O 45.3109 4.07974 3.6362 0
M  V30 470 H 42.4049 0.593149 0.576284 0
M  V30 471 H 44.9509 1.61246 0.528948 0
M  V30 472 H 43.7229 3.60109 1.53092 0
M  V30 473 H 43.3459 2.6539 2.96064 0
M  V30 474 N 44.343 -0.763751 1.37857 0
M  V30 475 C 45.273 -1.89103 1.36975 0
M  V30 476 C 46.254 -1.68439 0.237152 0
M  V30 477 O 47.439 -1.8918 0.438713 0
M  V30 478 C 44.569 -3.26496 1.18395 0
M  V30 479 C 43.523 -3.61741 2.28751 0
M  V30 480 C 42.849 -4.97762 1.95286 0
M  V30 481 C 44.149 -3.67665 3.70972 0
M  V30 482 H 45.843 -1.90099 2.31307 0
M  V30 483 H 43.389 -0.91319 1.11341 0
M  V30 484 H 45.342 -4.05003 1.16406 0
M  V30 485 H 44.066 -3.25955 0.205215 0
M  V30 486 H 42.725 -2.85547 2.29909 0
M  V30 487 H 42.373 -4.93769 0.959221 0
M  V30 488 H 42.073 -5.22313 2.69189 0
M  V30 489 H 43.597 -5.7866 1.94898 0
M  V30 490 H 45.011 -4.36307 3.719 0
M  V30 491 H 43.408 -4.03718 4.43995 0
M  V30 492 H 44.478 -2.68134 4.0402 0
M  V30 493 N 45.8211 -1.22559 -0.990812 0
M  V30 494 C 47.2371 -0.985996 -1.255 0
M  V30 495 C 47.4371 0.319173 -1.98956 0
M  V30 496 O 46.4931 1.04127 -2.3003 0
M  V30 497 C 47.8061 -2.18607 -2.06474 0
M  V30 498 C 49.3541 -2.22985 -2.19651 0
M  V30 499 C 49.8291 -3.4255 -3.04012 0
M  V30 500 N 51.3201 -3.42725 -3.11599 0
M  V30 501 C 52.0551 -4.31892 -3.7717 0
M  V30 502 N 51.5511 -5.31279 -4.44651 0
M  V30 503 N 53.3441 -4.19662 -3.73952 0
M  V30 504 H 45.4951 -2.06469 -0.49841 0
M  V30 505 H 47.7581 -0.904853 -0.282747 0
M  V30 506 H 47.4641 -3.13267 -1.59865 0
M  V30 507 H 47.3381 -2.18838 -3.07229 0
M  V30 508 H 49.7251 -1.28871 -2.65474 0
M  V30 509 H 49.8061 -2.26791 -1.18319 0
M  V30 510 H 49.4501 -4.36965 -2.58889 0
M  V30 511 H 49.3801 -3.35984 -4.0549 0
M  V30 512 H 51.8711 -2.70807 -2.63575 0
M  V30 513 H 52.1841 -5.95593 -4.92431 0
M  V30 514 H 50.5291 -5.3519 -4.43392 0
M  V30 515 H 53.7201 -3.41268 -3.20396 0
M  V30 516 H 53.8931 -4.89358 -4.24774 0
M  V30 517 N 47.2992 1.18797 -1.03562 0
M  V30 518 C 48.2092 2.25913 -0.632505 0
M  V30 519 C 49.2252 1.70668 0.338882 0
M  V30 520 O 50.4012 2.00453 0.195076 0
M  V30 521 C 47.4662 3.467 0.00350942 0
M  V30 522 C 46.5272 4.17098 -1.01624 0
M  V30 523 C 45.7602 5.32119 -0.410478 0
M  V30 524 O 45.9832 5.64976 0.784725 0
M  V30 525 O 44.9172 5.9107 -1.13667 0
M  V30 526 H 48.7432 2.62648 -1.52478 0
M  V30 527 H 46.3282 1.25781 -0.806195 0
M  V30 528 H 48.2102 4.19878 0.35781 0
M  V30 529 H 46.8852 3.11798 0.869686 0
M  V30 530 H 45.7922 3.4601 -1.42224 0
M  V30 531 H 47.1252 4.55987 -1.85301 0
M  V30 532 N 48.7773 0.814389 1.34928 0
M  V30 533 C 50.0263 0.394871 1.97797 0
M  V30 534 C 50.3393 -1.04555 1.65311 0
M  V30 535 O 51.5453 -1.56856 2.21604 0
M  V30 536 C 50.0013 0.655103 3.53888 0
M  V30 537 C 49.6093 2.10858 3.95276 0
M  V30 538 C 51.3533 0.301329 4.23429 0
M  V30 539 C 49.2603 2.31415 5.44244 0
M  V30 540 H 48.1903 0.143913 0.740139 0
M  V30 541 H 50.8413 0.999544 1.53888 0
M  V30 542 H 49.2233 -0.0196253 3.95995 0
M  V30 543 H 50.3973 2.82176 3.64298 0
M  V30 544 H 48.7123 2.42297 3.38646 0
M  V30 545 H 51.3093 0.432869 5.32945 0
M  V30 546 H 51.6523 -0.75331 4.09428 0
M  V30 547 H 52.1853 0.930288 3.86769 0
M  V30 548 H 48.9243 3.35353 5.63222 0
M  V30 549 H 48.4443 1.6463 5.76764 0
M  V30 550 H 50.1233 2.13352 6.10811 0
M  V30 551 N 50.2554 -1.46986 0.568584 0
M  V30 552 C 51.5034 -2.02041 0.0487022 0
M  V30 553 C 51.8244 -1.44408 -1.31039 0
M  V30 554 O 51.0944 -0.623477 -1.85714 0
M  V30 555 H 49.6744 -0.746849 0.015014 0
M  V30 556 H 52.3364 -1.80257 0.741168 0
M  V30 557 H 51.4324 -3.12085 -0.0308961 0
M  V30 558 N 51.7335 -0.305618 -1.54608 0
M  V30 559 C 52.6835 0.583595 -2.20405 0
M  V30 560 C 53.6675 1.09539 -1.17856 0
M  V30 561 O 54.8595 1.0354 -1.43557 0
M  V30 562 C 51.9885 1.75277 -2.95183 0
M  V30 563 C 51.0745 1.25672 -4.05052 0
M  V30 564 N 51.4655 0.478998 -5.03527 0
M  V30 565 C 49.7635 1.53704 -4.18678 0
M  V30 566 C 50.4645 0.214269 -5.81305 0
M  V30 567 N 49.4405 0.795374 -5.3775 0
M  V30 568 H 53.2425 -0.0180946 -2.93894 0
M  V30 569 H 50.7565 -0.110601 -1.62023 0
M  V30 570 H 52.7535 2.4014 -3.40791 0
M  V30 571 H 51.4135 2.35812 -2.23211 0
M  V30 572 H 52.4245 0.123473 -5.17753 0
M  V30 573 H 49.1015 2.14954 -3.57912 0
M  V30 574 H 50.4915 -0.410656 -6.70644 0
M  V30 575 N 53.2116 1.57565 -0.0334293 0
M  V30 576 C 54.4596 1.91598 0.642999 0
M  V30 577 C 54.7806 0.910847 1.7242 0
M  V30 578 O 54.0506 -0.0469931 1.95844 0
M  V30 579 H 52.6306 0.707228 0.240496 0
M  V30 580 H 55.2926 1.94726 -0.0822488 0
M  V30 581 H 54.3886 2.92336 1.09298 0
M  V30 582 N 54.6897 -0.239769 1.55765 0
M  V30 583 C 55.9147 -0.988373 1.82335 0
M  V30 584 C 56.3397 -1.77886 0.611421 0
M  V30 585 O 55.6977 -1.75889 -0.439639 0
M  V30 586 C 55.7457 -1.89627 3.06715 0
M  V30 587 O 54.8497 -2.98904 2.84131 0
M  V30 588 H 54.1907 -0.280858 0.601677 0
M  V30 589 H 56.7207 -0.258597 2.02959 0
M  V30 590 H 56.7307 -2.30957 3.36338 0
M  V30 591 H 55.4057 -1.31511 3.9456 0
M  V30 592 H 53.9827 -2.61651 2.65694 0
M  V30 593 N 56.1678 -1.49265 -0.50573 0
M  V30 594 C 57.4148 -1.58513 -1.26015 0
M  V30 595 C 57.7428 -0.26972 -1.92621 0
M  V30 596 O 56.9978 0.741997 -1.81088 0
M  V30 597 C 57.2968 -2.69008 -2.35308 0
M  V30 598 C 56.9628 -4.10662 -1.86192 0
M  V30 599 C 55.6248 -4.49212 -1.72516 0
M  V30 600 C 57.9768 -4.99336 -1.49375 0
M  V30 601 C 55.3048 -5.74214 -1.20394 0
M  V30 602 C 57.6568 -6.24852 -0.987072 0
M  V30 603 C 56.3208 -6.62236 -0.836669 0
M  V30 604 H 55.5908 -0.580041 -0.461122 0
M  V30 605 H 58.2378 -1.83078 -0.561665 0
M  V30 606 H 56.5428 -2.38396 -3.10926 0
M  V30 607 H 58.2398 -2.73373 -2.93374 0
M  V30 608 H 54.8298 -3.8023 -1.97795 0
M  V30 609 H 59.0138 -4.70212 -1.5879 0
M  V30 610 H 54.2698 -6.01883 -1.07458 0
M  V30 611 H 58.4438 -6.92944 -0.692983 0
M  V30 612 H 56.0708 -7.58979 -0.430607 0
M  V30 613 N 57.6459 0.756429 -1.3826 0
M  V30 614 C 58.8939 1.51248 -1.34047 0
M  V30 615 C 59.2149 1.94875 0.0698372 0
M  V30 616 O 58.4849 1.67436 1.01696 0
M  V30 617 H 57.0649 0.561018 -0.493222 0
M  V30 618 H 59.7269 0.899347 -1.7291 0
M  V30 619 H 58.8229 2.40472 -1.98947 0
M  V30 620 N 59.124 1.23083 0.984299 0
M  V30 621 C 60.087 1.00979 2.05757 0
M  V30 622 C 61.087 -0.0269573 1.60777 0
M  V30 623 O 62.277 0.212403 1.729 0
M  V30 624 C 59.409 0.527072 3.36801 0
M  V30 625 H 60.602 1.9622 2.26799 0
M  V30 626 H 58.155 1.05072 1.15714 0
M  V30 627 H 58.89 -0.429294 3.21446 0
M  V30 628 H 58.675 1.27515 3.70786 0
M  V30 629 H 60.165 0.392942 4.15747 0
M  V30 630 N 60.6021 -1.18246 1.0419 0
M  V30 631 C 61.8481 -1.88536 0.747122 0
M  V30 632 C 62.1811 -1.80223 -0.723409 0
M  V30 633 O 61.4561 -1.20337 -1.52804 0
M  V30 634 C 61.7391 -3.38968 1.21544 0
M  V30 635 C 61.5921 -3.56084 2.74816 0
M  V30 636 C 62.9111 -4.32648 0.806482 0
M  V30 637 H 60.0301 -0.684619 0.272883 0
M  V30 638 H 62.6721 -1.39113 1.29413 0
M  V30 639 H 60.8221 -3.8119 0.750081 0
M  V30 640 H 62.4941 -3.22946 3.29399 0
M  V30 641 H 60.7371 -2.98699 3.14582 0
M  V30 642 H 61.4081 -4.61639 3.02644 0
M  V30 643 H 63.8841 -3.98211 1.20695 0
M  V30 644 H 62.7601 -5.36462 1.1619 0
M  V30 645 H 63.0211 -4.41146 -0.29029 0
M  V30 646 N 62.0802 -0.821533 -1.34494 0
M  V30 647 C 63.3102 -0.421272 -2.02259 0
M  V30 648 C 63.7182 0.977047 -1.6202 0
M  V30 649 O 63.0612 1.64348 -0.820703 0
M  V30 650 C 63.1232 -0.44231 -3.56769 0
M  V30 651 C 62.7872 -1.79372 -4.20327 0
M  V30 652 C 63.7842 -2.75435 -4.40944 0
M  V30 653 C 61.4692 -2.08182 -4.57127 0
M  V30 654 C 63.4632 -3.98482 -4.97484 0
M  V30 655 C 61.1502 -3.31489 -5.13379 0
M  V30 656 C 62.1482 -4.26457 -5.33501 0
M  V30 657 O 61.8362 -5.47585 -5.88562 0
M  V30 658 H 61.5682 -0.167473 -0.654927 0
M  V30 659 H 64.1222 -1.11073 -1.72777 0
M  V30 660 H 62.3522 0.303836 -3.85505 0
M  V30 661 H 64.0412 -0.0622925 -4.05852 0
M  V30 662 H 64.8072 -2.54473 -4.12878 0
M  V30 663 H 60.6862 -1.35066 -4.4077 0
M  V30 664 H 64.2302 -4.72618 -5.13106 0
M  V30 665 H 60.1272 -3.52316 -5.40873 0
M  V30 666 H 60.8952 -5.49086 -6.06998 0
M  V30 667 N 63.5583 1.46682 -0.576371 0
M  V30 668 C 64.8053 2.02412 -0.0595339 0
M  V30 669 C 65.1333 1.44859 1.29793 0
M  V30 670 O 64.3883 0.601099 1.8624 0
M  V30 671 C 64.6873 3.57345 0.062886 0
M  V30 672 C 64.3533 4.33908 -1.22616 0
M  V30 673 C 63.0153 4.54544 -1.57933 0
M  V30 674 C 65.3673 4.77919 -2.07948 0
M  V30 675 C 62.6953 5.16444 -2.78393 0
M  V30 676 C 65.0473 5.41149 -3.27629 0
M  V30 677 C 63.7113 5.60014 -3.63236 0
M  V30 678 H 62.9813 0.74068 -0.021785 0
M  V30 679 H 65.6283 1.76128 -0.751735 0
M  V30 680 H 63.9333 3.82729 0.838178 0
M  V30 681 H 65.6303 3.98136 0.478439 0
M  V30 682 H 62.2203 4.18138 -0.941202 0
M  V30 683 H 66.4043 4.61738 -1.81967 0
M  V30 684 H 61.6603 5.29242 -3.06126 0
M  V30 685 H 65.8343 5.74211 -3.94023 0
M  V30 686 H 63.4613 6.07748 -4.56669 0
M  V30 687 N 65.0364 0.313813 1.54444 0
M  V30 688 C 65.9994 -0.54379 2.22656 0
M  V30 689 C 66.9994 -1.05124 1.21678 0
M  V30 690 O 68.1894 -0.945225 1.46325 0
M  V30 691 C 65.3214 -1.75427 2.92298 0
M  V30 692 H 66.5144 0.0523599 2.99854 0
M  V30 693 H 64.0674 0.0647834 1.56166 0
M  V30 694 H 64.8024 -2.38991 2.19211 0
M  V30 695 H 64.5874 -1.39791 3.66334 0
M  V30 696 H 66.0774 -2.36325 3.44297 0
M  V30 697 N 66.5145 -1.57545 0.0417849 0
M  V30 698 C 67.9305 -1.56467 -0.314704 0
M  V30 699 C 68.1305 -1.04859 -1.72066 0
M  V30 700 O 67.1865 -0.700983 -2.42575 0
M  V30 701 C 68.4995 -3.00317 -0.15174 0
M  V30 702 C 70.0475 -3.12201 -0.223553 0
M  V30 703 C 70.5225 -4.57913 -0.0892295 0
M  V30 704 N 72.0135 -4.6297 -0.145808 0
M  V30 705 C 72.7485 -5.73362 -0.0658459 0
M  V30 706 N 72.2445 -6.92769 0.0659282 0
M  V30 707 N 74.0375 -5.6197 -0.12075 0
M  V30 708 H 66.1885 -1.89416 0.961014 0
M  V30 709 H 68.4515 -0.871862 0.372237 0
M  V30 710 H 68.1575 -3.42073 0.817254 0
M  V30 711 H 68.0315 -3.65892 -0.916692 0
M  V30 712 H 70.4185 -2.70349 -1.18301 0
M  V30 713 H 70.4995 -2.49323 0.571994 0
M  V30 714 H 70.1435 -5.00448 0.866867 0
M  V30 715 H 70.0735 -5.18786 -0.903802 0
M  V30 716 H 72.5645 -3.7709 -0.247286 0
M  V30 717 H 72.8775 -7.72707 0.119905 0
M  V30 718 H 71.2225 -6.94927 0.100885 0
M  V30 719 H 74.4135 -4.67572 -0.222187 0
M  V30 720 H 74.5865 -6.47977 -0.0549735 0
M  V30 721 N 67.9926 0.231505 -1.5589 0
M  V30 722 C 69.2696 0.981096 -1.69215 0
M  V30 723 C 69.6496 2.02799 -0.586164 0
M  V30 724 O 68.9976 2.24823 0.408253 0
M  V30 725 C 69.2076 1.60054 -3.10135 0
M  V30 726 C 70.5556 2.09658 -3.69227 0
M  V30 727 O 71.5796 1.69967 -3.13033 0
M  V30 728 O 70.4386 2.8258 -4.67772 0
M  V30 729 H 67.5326 0.457653 -0.688827 0
M  V30 730 H 70.0786 0.224073 -1.68214 0
M  V30 731 H 68.8506 0.844105 -3.82087 0
M  V30 732 H 68.4736 2.42336 -3.15212 0
M  V30 733 N 69.4707 1.49531 0.497807 0
M  V30 734 C 70.7167 1.59415 1.25358 0
M  V30 735 C 71.0497 0.281422 1.9215 0
M  V30 736 O 70.3247 -0.715249 1.80871 0
M  V30 737 C 70.6077 2.75566 2.3181 0
M  V30 738 C 70.4607 4.16642 1.69498 0
M  V30 739 C 71.7797 2.87347 3.33346 0
M  V30 740 H 68.8987 0.580244 0.454408 0
M  V30 741 H 71.5407 1.81827 0.551262 0
M  V30 742 H 69.6907 2.56587 2.91711 0
M  V30 743 H 71.3627 4.47145 1.13399 0
M  V30 744 H 69.6057 4.22141 0.998978 0
M  V30 745 H 70.2767 4.93792 2.46725 0
M  V30 746 H 72.7527 3.04634 2.83438 0
M  V30 747 H 71.6287 3.70289 4.05188 0
M  V30 748 H 71.8897 1.96834 3.95865 0
M  V30 749 N 70.9488 -0.749086 1.3866 0
M  V30 750 C 72.3648 -1.05276 1.19955 0
M  V30 751 C 72.5648 -2.01435 0.05134 0
M  V30 752 O 71.6208 -2.45232 -0.60147 0
M  V30 753 C 72.9338 -1.62853 2.52783 0
M  V30 754 C 74.4818 -1.75002 2.59506 0
M  V30 755 C 74.9568 -2.35991 3.92521 0
M  V30 756 N 76.4478 -2.43416 3.94085 0
M  V30 757 C 77.1828 -2.91511 4.9377 0
M  V30 758 N 76.6788 -3.39608 6.03853 0
M  V30 759 N 78.4718 -2.90592 4.81157 0
M  V30 760 H 70.6228 -0.111066 2.12109 0
M  V30 761 H 72.8858 -0.111901 0.941373 0
M  V30 762 H 72.5918 -0.99664 3.37283 0
M  V30 763 H 72.4658 -2.61854 2.715 0
M  V30 764 H 74.8528 -2.37317 1.75398 0
M  V30 765 H 74.9338 -0.74693 2.44652 0
M  V30 766 H 74.5778 -1.74308 4.77053 0
M  V30 767 H 74.5078 -3.3695 4.04688 0
M  V30 768 H 76.9988 -2.09405 3.14576 0
M  V30 769 H 77.3118 -3.74775 6.75843 0
M  V30 770 H 75.6568 -3.37653 6.07466 0
M  V30 771 H 78.8478 -2.52332 3.94267 0
M  V30 772 H 79.0208 -3.27762 5.58996 0
M  V30 773 N 72.4269 -1.23603 -0.977757 0
M  V30 774 C 73.6549 -1.09646 -1.75458 0
M  V30 775 C 74.0699 0.351859 -1.85492 0
M  V30 776 O 73.4269 1.24327 -1.336 0
M  V30 777 C 73.4779 -1.71895 -3.18016 0
M  V30 778 O 73.1989 -3.11063 -3.08498 0
M  V30 779 C 74.6999 -1.63415 -4.12081 0
M  V30 780 H 71.9199 -0.38359 -0.550545 0
M  V30 781 H 74.4639 -1.63507 -1.22824 0
M  V30 782 H 72.6189 -1.22061 -3.67668 0
M  V30 783 H 73.0329 -3.41305 -3.9826 0
M  V30 784 H 74.5069 -2.11669 -5.09804 0
M  V30 785 H 74.9839 -0.593462 -4.35172 0
M  V30 786 H 75.5899 -2.12628 -3.68334 0
M  V30 787 N 73.905 1.17692 -1.04816 0
M  V30 788 C 74.853 2.23632 -0.63966 0
M  V30 789 C 75.847 1.6601 0.337219 0
M  V30 790 O 77.053 1.78844 0.203693 0
M  V30 791 H 73.428 0.727949 -0.188665 0
M  V30 792 H 75.399 2.55387 -1.54337 0
M  V30 793 C 74.148 3.4769 -0.0264051 0
M  V30 794 H 73.471 3.92331 -0.769164 0
M  V30 795 H 74.911 4.23418 0.222098 0
M  V30 796 C 73.37 3.13807 1.22584 0
M  V30 797 O 73.9 3.28236 2.31569 0
M  V30 798 N 72.106 2.68065 1.12202 0
M  V30 799 H 71.653 2.56525 0.235133 0
M  V30 800 H 71.611 2.45767 1.96076 0
M  V30 801 N 75.3831 0.828654 1.34056 0
M  V30 802 C 76.2931 0.256725 2.33191 0
M  V30 803 C 77.3091 -0.611898 1.62886 0
M  V30 804 O 78.4851 -0.51844 1.94613 0
M  V30 805 C 75.5501 -0.567238 3.42028 0
M  V30 806 C 74.6111 0.324458 4.28072 0
M  V30 807 C 73.8441 -0.460274 5.31712 0
M  V30 808 O 74.0671 -1.693 5.44696 0
M  V30 809 O 73.0011 0.160391 6.01686 0
M  V30 810 H 76.8271 1.07739 2.83947 0
M  V30 811 H 74.4121 0.59093 1.37217 0
M  V30 812 H 76.2941 -1.03582 4.08471 0
M  V30 813 H 74.9691 -1.36513 2.93506 0
M  V30 814 H 73.8761 0.840659 3.64532 0
M  V30 815 H 75.2091 1.08685 4.8005 0
M  V30 816 N 76.8612 -1.46375 0.584142 0
M  V30 817 C 78.1072 -2.02678 0.0703716 0
M  V30 818 C 78.4402 -1.4545 -1.28678 0
M  V30 819 O 77.7152 -0.62014 -1.84349 0
M  V30 820 C 77.9982 -3.60099 0.00614674 0
M  V30 821 C 77.8512 -4.27709 1.3923 0
M  V30 822 C 79.1702 -4.34598 -0.693742 0
M  V30 823 H 76.2892 -0.736504 0.027047 0
M  V30 824 H 78.9312 -1.74501 0.751615 0
M  V30 825 H 77.0812 -3.84236 -0.574009 0
M  V30 826 H 78.7532 -4.14832 2.01773 0
M  V30 827 H 76.9962 -3.87016 1.95962 0
M  V30 828 H 77.6672 -5.36478 1.29982 0
M  V30 829 H 80.1432 -4.15615 -0.200869 0
M  V30 830 H 79.0192 -5.44318 -0.707714 0
M  V30 831 H 79.2802 -4.05759 -1.75533 0
M  V30 832 N 78.3393 -0.321999 -1.54275 0
M  V30 833 C 79.5853 0.281461 -2.00837 0
M  V30 834 C 79.9183 1.51909 -1.20985 0
M  V30 835 O 79.1933 1.923 -0.291733 0
M  V30 836 C 79.4763 0.617162 -3.54772 0
M  V30 837 C 79.3293 -0.631064 -4.45351 0
M  V30 838 C 80.6483 1.43542 -4.16033 0
M  V30 839 H 77.7673 0.100826 -0.730071 0
M  V30 840 H 80.4093 -0.438268 -1.84876 0
M  V30 841 H 78.5593 1.23034 -3.68504 0
M  V30 842 H 80.2313 -1.26934 -4.43492 0
M  V30 843 H 78.4743 -1.26025 -4.15091 0
M  V30 844 H 79.1453 -0.351735 -5.50878 0
M  V30 845 H 81.6213 0.917134 -4.05867 0
M  V30 846 H 80.4973 1.63907 -5.23856 0
M  V30 847 H 80.7583 2.43108 -3.69257 0
M  V30 848 N 79.8174 1.5752 -0.0501392 0
M  V30 849 C 80.7804 2.1037 0.909786 0
M  V30 850 C 81.7804 1.02308 1.24056 0
M  V30 851 O 82.9704 1.28385 1.17741 0
M  V30 852 C 80.1024 2.58708 2.21998 0
M  V30 853 H 81.2954 2.96479 0.451665 0
M  V30 854 H 78.8484 1.55038 0.198248 0
M  V30 855 H 79.5834 1.75989 2.72394 0
M  V30 856 H 79.3684 3.37675 1.99295 0
M  V30 857 H 80.8584 2.99747 2.9076 0
M  V30 858 N 81.2955 -0.223234 1.56011 0
M  V30 859 C 82.5445 -0.945912 1.78144 0
M  V30 860 C 82.8575 -1.85567 0.618396 0
M  V30 861 O 84.0635 -2.61688 0.723318 0
M  V30 862 C 82.5195 -1.73216 3.15475 0
M  V30 863 C 82.1275 -0.868619 4.39499 0
M  V30 864 C 83.8715 -2.44615 3.46935 0
M  V30 865 C 81.7785 -1.65212 5.67855 0
M  V30 866 H 80.7085 -0.356929 0.664167 0
M  V30 867 H 83.3595 -0.199845 1.82409 0
M  V30 868 H 81.7415 -2.52107 3.05382 0
M  V30 869 H 82.9155 -0.120366 4.60643 0
M  V30 870 H 81.2305 -0.26683 4.15544 0
M  V30 871 H 83.8275 -3.03732 4.40058 0
M  V30 872 H 84.1705 -3.17417 2.69355 0
M  V30 873 H 84.7035 -1.72715 3.58349 0
M  V30 874 H 81.4425 -0.967407 6.48322 0
M  V30 875 H 80.9625 -2.37503 5.50774 0
M  V30 876 H 82.6415 -2.21322 6.07968 0
M  V30 877 N 82.7736 -1.49793 -0.48987 0
M  V30 878 C 83.7206 -1.67281 -1.59014 0
M  V30 879 C 84.6906 -0.514177 -1.57941 0
M  V30 880 O 85.8756 -0.742533 -1.75759 0
M  V30 881 C 83.0156 -1.75569 -2.97102 0
M  V30 882 C 82.1286 -3.0281 -3.08107 0
M  V30 883 C 81.2636 -3.02008 -4.36995 0
M  V30 884 C 80.3026 -4.23782 -4.41673 0
M  V30 885 N 79.4396 -4.20826 -5.62005 0
M  V30 886 H 84.2796 -2.61224 -1.43409 0
M  V30 887 H 81.8166 -1.29508 -0.697565 0
M  V30 888 H 83.7746 -1.78354 -3.77155 0
M  V30 889 H 82.4046 -0.850827 -3.11385 0
M  V30 890 H 81.4566 -3.09584 -2.21047 0
M  V30 891 H 82.7686 -3.92801 -3.07423 0
M  V30 892 H 81.9226 -3.03418 -5.25378 0
M  V30 893 H 80.6616 -2.09815 -4.4026 0
M  V30 894 H 79.6666 -4.22604 -3.5169 0
M  V30 895 H 80.8916 -5.17181 -4.40115 0
M  V30 896 H 78.8376 -3.31476 -5.66091 0
M  V30 897 H 78.7546 -5.04564 -5.62984 0
M  V30 898 H 80.0226 -4.26355 -6.52565 0
M  V30 899 N 84.2517 0.741722 -1.39055 0
M  V30 900 C 85.1987 1.85566 -1.37237 0
M  V30 901 C 86.1687 1.64457 -0.233072 0
M  V30 902 O 87.3537 1.85957 -0.427147 0
M  V30 903 C 84.4937 3.23004 -1.215 0
M  V30 904 C 83.6067 3.55864 -2.44918 0
M  V30 905 C 82.7417 4.82669 -2.21821 0
M  V30 906 C 81.7807 5.08351 -3.40948 0
M  V30 907 N 80.9177 6.26356 -3.17211 0
M  V30 908 H 85.7577 1.86455 -2.32462 0
M  V30 909 H 83.2947 0.911176 -1.15482 0
M  V30 910 H 85.2527 4.02331 -1.10389 0
M  V30 911 H 83.8827 3.21411 -0.29908 0
M  V30 912 H 82.9347 2.7129 -2.66657 0
M  V30 913 H 84.2467 3.70765 -3.33668 0
M  V30 914 H 83.4007 5.69962 -2.07914 0
M  V30 915 H 82.1397 4.69929 -1.30454 0
M  V30 916 H 81.1447 4.19522 -3.55361 0
M  V30 917 H 82.3697 5.22981 -4.33207 0
M  V30 918 H 80.3157 6.14917 -2.28502 0
M  V30 919 H 80.2327 6.41813 -3.99515 0
M  V30 920 H 81.5007 7.16506 -3.06984 0
M  V30 921 N 85.7298 1.2412 0.971189 0
M  V30 922 C 86.6628 0.97373 2.06382 0
M  V30 923 C 87.6408 -0.0912662 1.62344 0
M  V30 924 O 88.8248 0.0449365 1.88446 0
M  V30 925 C 85.9518 0.468746 3.35441 0
M  V30 926 C 84.9978 1.52176 3.98428 0
M  V30 927 S 85.8308 3.10203 4.36503 0
M  V30 928 C 86.9868 2.61398 5.68702 0
M  V30 929 H 87.2198 1.89893 2.28753 0
M  V30 930 H 84.7528 1.07466 1.10862 0
M  V30 931 H 86.7108 0.184012 4.10087 0
M  V30 932 H 85.3718 -0.435688 3.11064 0
M  V30 933 H 84.5648 1.11876 4.91426 0
M  V30 934 H 84.1668 1.75632 3.30196 0
M  V30 935 H 86.4588 2.03992 6.4606 0
M  V30 936 H 87.4018 3.52972 6.13854 0
M  V30 937 H 87.8098 2.01941 5.27143 0
M  V30 938 N 87.2079 -1.17134 1.05439 0
M  V30 939 C 88.4329 -1.91913 0.786396 0
M  V30 940 C 88.8579 -1.7643 -0.652234 0
M  V30 941 O 88.2159 -1.08372 -1.45345 0
M  V30 942 C 88.2639 -3.40921 1.17497 0
M  V30 943 O 87.3679 -4.11244 0.308589 0
M  V30 944 H 86.7089 -0.598215 0.288158 0
M  V30 945 H 89.2389 -1.48457 1.4079 0
M  V30 946 H 89.2489 -3.91668 1.14281 0
M  V30 947 H 87.9239 -3.5151 2.22292 0
M  V30 948 H 86.5009 -3.70731 0.40157 0
M  V30 949 N 88.686 -0.835752 -1.33615 0
M  V30 950 C 89.916 -0.442701 -2.01801 0
M  V30 951 C 90.324 0.959807 -1.63047 0
M  V30 952 O 89.667 1.63468 -0.838088 0
M  V30 953 C 89.729 -0.480125 -3.56279 0
M  V30 954 C 89.393 -1.8382 -4.18401 0
M  V30 955 C 90.39 -2.80097 -4.37998 0
M  V30 956 C 88.075 -2.13019 -4.54894 0
M  V30 957 C 90.069 -4.03736 -4.9323 0
M  V30 958 C 87.756 -3.36916 -5.09834 0
M  V30 959 C 88.754 -4.32091 -5.28948 0
M  V30 960 O 88.442 -5.53797 -5.82721 0
M  V30 961 H 88.174 -0.17441 -0.653114 0
M  V30 962 H 90.728 -1.129 -1.71589 0
M  V30 963 H 88.958 0.262931 -3.85805 0
M  V30 964 H 90.647 -0.105335 -4.05763 0
M  V30 965 H 91.413 -2.58838 -4.10156 0
M  V30 966 H 87.292 -1.39733 -4.39313 0
M  V30 967 H 90.836 -4.78034 -5.08064 0
M  V30 968 H 86.733 -3.58033 -5.37106 0
M  V30 969 H 87.501 -5.55494 -6.0114 0
M  V30 970 N 90.1641 1.46063 -0.591896 0
M  V30 971 C 91.3891 2.07226 -0.0850314 0
M  V30 972 C 91.8141 1.43625 1.21463 0
M  V30 973 O 91.1721 0.523305 1.73583 0
M  V30 974 C 91.2201 3.60554 0.0576567 0
M  V30 975 O 90.3241 3.97128 1.11188 0
M  V30 976 H 89.6651 0.660615 -0.0669568 0
M  V30 977 H 92.1951 1.8756 -0.81745 0
M  V30 978 H 92.2051 4.07165 0.2609 0
M  V30 979 H 90.8801 4.06235 -0.891416 0
M  V30 980 H 89.4571 3.62213 0.886356 0
M  V30 981 N 91.6422 0.330177 1.54103 0
M  V30 982 C 92.8902 -0.269871 2.0029 0
M  V30 983 C 93.2112 -1.52133 1.21986 0
M  V30 984 O 92.4812 -1.93212 0.323438 0
M  V30 985 H 91.0612 -0.10271 0.739905 0
M  V30 986 H 93.7232 0.448249 1.89675 0
M  V30 987 H 92.8192 -0.52166 3.07709 0
M  V30 988 N 93.1203 -1.57491 0.0584922 0
M  V30 989 C 94.0673 -2.11958 -0.913376 0
M  V30 990 C 95.0373 -1.02875 -1.30407 0
M  V30 991 O 96.2223 -1.30464 -1.39226 0
M  V30 992 C 93.3623 -2.67497 -2.18035 0
M  V30 993 C 92.4753 -3.90691 -1.84349 0
M  V30 994 C 91.6103 -4.3452 -3.05559 0
M  V30 995 C 90.6493 -5.50395 -2.67827 0
M  V30 996 N 89.7863 -5.89244 -3.81754 0
M  V30 997 H 94.6263 -2.94704 -0.442017 0
M  V30 998 H 92.1633 -1.45643 -0.206545 0
M  V30 999 H 94.1213 -2.978 -2.92183 0
M  V30 1000 H 92.7513 -1.87537 -2.62735 0
M  V30 1001 H 91.8033 -3.66934 -1.00319 0
M  V30 1002 H 93.1153 -4.7489 -1.5258 0
M  V30 1003 H 92.2693 -4.66414 -3.87998 0
M  V30 1004 H 91.0083 -3.49147 -3.40511 0
M  V30 1005 H 90.0133 -5.18165 -1.83806 0
M  V30 1006 H 91.2383 -6.3749 -2.34059 0
M  V30 1007 H 89.1843 -5.06823 -4.16493 0
M  V30 1008 H 89.1013 -6.68151 -3.53708 0
M  V30 1009 H 90.3693 -6.25756 -4.64811 0
M  V30 1010 N 94.5984 0.214957 -1.56127 0
M  V30 1011 C 95.5304 1.29004 -1.89448 0
M  V30 1012 C 96.5434 1.42716 -0.783326 0
M  V30 1013 O 97.7324 1.43496 -1.06166 0
M  V30 1014 C 94.8324 2.66482 -2.09381 0
M  V30 1015 C 94.0054 2.74633 -3.40434 0
M  V30 1016 C 93.0644 3.9317 -3.49719 0
M  V30 1017 O 92.0904 3.812 -4.227 0
M  V30 1018 N 93.2924 5.07765 -2.81346 0
M  V30 1019 H 96.0574 1.00743 -2.82261 0
M  V30 1020 H 93.6184 0.40497 -1.56753 0
M  V30 1021 H 95.6104 3.44173 -2.12901 0
M  V30 1022 H 94.1804 2.87314 -1.23163 0
M  V30 1023 H 93.4004 1.83368 -3.48955 0
M  V30 1024 H 94.6884 2.77054 -4.26754 0
M  V30 1025 H 94.0864 5.20386 -2.21843 0
M  V30 1026 H 92.6434 5.83474 -2.90519 0
M  V30 1027 N 96.0765 1.50051 0.48192 0
M  V30 1028 C 97.3015 1.64508 1.26301 0
M  V30 1029 C 97.7265 0.323851 1.85291 0
M  V30 1030 O 97.0845 -0.710969 1.66778 0
M  V30 1031 C 97.1325 2.7305 2.35533 0
M  V30 1032 O 96.2365 2.3355 3.39895 0
M  V30 1033 H 95.5775 0.549978 0.372048 0
M  V30 1034 H 98.1075 1.9636 0.574786 0
M  V30 1035 H 98.1175 2.95799 2.8101 0
M  V30 1036 H 96.7925 3.68946 1.91967 0
M  V30 1037 H 95.3695 2.21205 3.00204 0
M  V30 1038 N 97.5546 -0.734337 1.39446 0
M  V30 1039 C 98.7826 -1.52358 1.39981 0
M  V30 1040 C 99.1976 -1.88799 -0.0054975 0
M  V30 1041 O 98.5546 -1.54146 -0.976998 0
M  V30 1042 C 98.6056 -2.81072 2.27333 0
M  V30 1043 O 98.3266 -2.46178 3.62392 0
M  V30 1044 C 99.8276 -3.75096 2.36259 0
M  V30 1045 H 97.0476 -0.470806 0.478103 0
M  V30 1046 H 99.5916 -0.907339 1.83269 0
M  V30 1047 H 97.7466 -3.39026 1.87457 0
M  V30 1048 H 98.1606 -3.28866 4.08592 0
M  V30 1049 H 99.6346 -4.62305 3.01626 0
M  V30 1050 H 100.112 -4.16892 1.38194 0
M  V30 1051 H 100.718 -3.23061 2.76608 0
M  V30 1052 N 99.0327 -1.24633 -0.964593 0
M  V30 1053 C 99.9427 -1.05859 -2.09359 0
M  V30 1054 C 100.959 0.00148855 -1.74 0
M  V30 1055 O 102.135 -0.197346 -2.00431 0
M  V30 1056 C 99.1997 -0.668879 -3.40187 0
M  V30 1057 C 98.2607 -1.80578 -3.89474 0
M  V30 1058 C 97.4937 -1.43457 -5.14058 0
M  V30 1059 O 97.7167 -0.325775 -5.69469 0
M  V30 1060 O 96.6507 -2.2613 -5.57807 0
M  V30 1061 H 100.477 -2.00516 -2.28094 0
M  V30 1062 H 98.0617 -1.03481 -1.0776 0
M  V30 1063 H 99.9437 -0.463211 -4.18846 0
M  V30 1064 H 98.6187 0.248536 -3.22744 0
M  V30 1065 H 97.5257 -2.06623 -3.11862 0
M  V30 1066 H 98.8587 -2.70208 -4.11398 0
M  V30 1067 N 100.511 1.16574 -1.06058 0
M  V30 1068 C 101.458 2.20883 -0.669263 0
M  V30 1069 C 102.428 1.62729 0.332918 0
M  V30 1070 O 103.613 1.895 0.222346 0
M  V30 1071 C 100.753 3.45049 -0.0593572 0
M  V30 1072 C 99.8658 4.17458 -1.11143 0
M  V30 1073 C 99.0008 5.29135 -0.467916 0
M  V30 1074 C 98.0398 5.93343 -1.50369 0
M  V30 1075 N 97.1768 6.96516 -0.883706 0
M  V30 1076 H 102.017 2.53709 -1.5632 0
M  V30 1077 H 99.5538 1.24616 -0.781625 0
M  V30 1078 H 101.512 4.16033 0.311771 0
M  V30 1079 H 100.142 3.12781 0.797992 0
M  V30 1080 H 99.1938 3.45101 -1.60029 0
M  V30 1081 H 100.506 4.61307 -1.89731 0
M  V30 1082 H 99.6598 6.06684 -0.0436871 0
M  V30 1083 H 98.3988 4.86443 0.349864 0
M  V30 1084 H 97.4038 5.14517 -1.93784 0
M  V30 1085 H 98.6288 6.38114 -2.32352 0
M  V30 1086 H 96.5748 6.55943 -0.086595 0
M  V30 1087 H 96.4918 7.38723 -1.607 0
M  V30 1088 H 97.7598 7.77993 -0.484543 0
M  V30 1089 N 101.989 0.842826 1.3317 0
M  V30 1090 C 103.235 0.450342 1.98352 0
M  V30 1091 C 103.59 -0.980508 1.65541 0
M  V30 1092 O 102.883 -1.67678 0.927065 0
M  V30 1093 C 103.077 0.612607 3.52111 0
M  V30 1094 C 102.906 2.05768 3.99862 0
M  V30 1095 C 101.676 2.69374 4.27511 0
M  V30 1096 C 103.874 3.02688 4.15794 0
M  V30 1097 N 101.856 4.04915 4.61429 0
M  V30 1098 C 103.227 4.23186 4.53115 0
M  V30 1099 C 105.282 2.99041 3.98094 0
M  V30 1100 C 103.985 5.40518 4.74587 0
M  V30 1101 C 106.011 4.15607 4.20743 0
M  V30 1102 C 105.373 5.3486 4.58371 0
M  V30 1103 H 101.472 0.213296 0.752349 0
M  V30 1104 H 104.056 1.09173 1.61212 0
M  V30 1105 H 102.227 0.000998822 3.884 0
M  V30 1106 H 103.959 0.191179 4.04248 0
M  V30 1107 H 100.714 2.20485 4.19146 0
M  V30 1108 H 101.138 4.74798 4.82593 0
M  V30 1109 H 105.78 2.0797 3.68114 0
M  V30 1110 H 103.498 6.3213 5.03425 0
M  V30 1111 H 107.084 4.14207 4.08563 0
M  V30 1112 H 105.964 6.23558 4.75547 0
M  V30 1113 N 103.467 -1.45747 0.599634 0
M  V30 1114 C 104.399 -2.28628 -0.161879 0
M  V30 1115 C 105.412 -1.39494 -0.839367 0
M  V30 1116 O 106.601 -1.63941 -0.706089 0
M  V30 1117 C 103.701 -3.15014 -1.24976 0
M  V30 1118 C 102.874 -4.32378 -0.660935 0
M  V30 1119 C 101.933 -5.00033 -1.63869 0
M  V30 1120 O 100.959 -5.57085 -1.1681 0
M  V30 1121 N 102.161 -4.98589 -2.97303 0
M  V30 1122 H 104.926 -2.94624 0.549265 0
M  V30 1123 H 102.487 -1.55847 0.438565 0
M  V30 1124 H 104.479 -3.5714 -1.9035 0
M  V30 1125 H 103.049 -2.5098 -1.86354 0
M  V30 1126 H 102.269 -3.9383 0.170688 0
M  V30 1127 H 103.557 -5.08197 -0.247619 0
M  V30 1128 H 102.955 -4.53514 -3.38145 0
M  V30 1129 H 101.512 -5.44603 -3.58121 0
M  V30 1130 N 104.945 -0.338344 -1.53925 0
M  V30 1131 C 106.222 0.314774 -1.93051 0
M  V30 1132 C 106.602 1.68669 -1.26941 0
M  V30 1133 O 105.95 2.24636 -0.418445 0
M  V30 1134 C 106.16 0.392249 -3.46789 0
M  V30 1135 C 107.508 0.645554 -4.19664 0
M  V30 1136 O 108.532 0.474575 -3.53024 0
M  V30 1137 O 107.391 0.976408 -5.37707 0
M  V30 1138 H 104.485 0.182598 -0.80659 0
M  V30 1139 H 107.031 -0.389141 -1.65178 0
M  V30 1140 H 105.803 -0.570702 -3.87116 0
M  V30 1141 H 105.426 1.14316 -3.80812 0
M  V30 1142 N 106.423 1.57458 -0.0668435 0
M  V30 1143 C 107.672 1.92477 0.602947 0
M  V30 1144 C 107.985 0.948419 1.71068 0
M  V30 1145 O 109.191 1.19124 2.43971 0
M  V30 1146 C 107.647 3.41903 1.12383 0
M  V30 1147 C 107.255 4.47975 0.04737 0
M  V30 1148 C 108.999 3.85931 1.76797 0
M  V30 1149 C 106.906 5.88529 0.582022 0
M  V30 1150 H 105.836 0.718387 0.22899 0
M  V30 1151 H 108.487 1.82978 -0.138276 0
M  V30 1152 H 106.869 3.46459 1.91787 0
M  V30 1153 H 108.043 4.55029 -0.726978 0
M  V30 1154 H 106.358 4.13384 -0.500243 0
M  V30 1155 H 108.955 4.88322 2.17821 0
M  V30 1156 H 109.298 3.23029 2.62599 0
M  V30 1157 H 109.831 3.83958 1.04024 0
M  V30 1158 H 106.57 6.55065 -0.238721 0
M  V30 1159 H 106.09 5.85004 1.324 0
M  V30 1160 H 107.769 6.38258 1.05999 0
M  V30 1161 N 107.901 -0.206675 1.56239 0
M  V30 1162 C 109.15 -0.926964 1.79138 0
M  V30 1163 C 109.463 -1.84901 0.638043 0
M  V30 1164 O 110.669 -2.60906 0.751033 0
M  V30 1165 C 109.125 -1.6986 3.17294 0
M  V30 1166 C 108.733 -0.821956 4.40395 0
M  V30 1167 C 110.477 -2.40922 3.4951 0
M  V30 1168 C 108.384 -1.59179 5.69575 0
M  V30 1169 H 107.314 -0.349864 0.667915 0
M  V30 1170 H 109.965 -0.180487 1.8261 0
M  V30 1171 H 108.347 -2.48853 3.08039 0
M  V30 1172 H 109.521 -0.0715019 4.60745 0
M  V30 1173 H 107.836 -0.222741 4.15804 0
M  V30 1174 H 110.433 -2.99047 4.43255 0
M  V30 1175 H 110.776 -3.14542 2.72707 0
M  V30 1176 H 111.309 -1.68905 3.60161 0
M  V30 1177 H 108.048 -0.898589 6.49312 0
M  V30 1178 H 107.568 -2.31648 5.53262 0
M  V30 1179 H 109.247 -2.14862 6.10281 0
M  V30 1180 N 109.379 -1.50304 -0.473955 0
M  V30 1181 C 110.326 -1.68959 -1.57231 0
M  V30 1182 C 111.296 -0.530899 -1.57387 0
M  V30 1183 O 112.481 -0.761133 -1.74961 0
M  V30 1184 C 109.621 -1.7871 -2.95223 0
M  V30 1185 C 108.734 -3.06061 -3.04878 0
M  V30 1186 C 107.869 -3.06626 -4.33767 0
M  V30 1187 C 106.908 -4.28443 -4.37154 0
M  V30 1188 N 106.045 -4.26763 -5.5751 0
M  V30 1189 H 110.885 -2.6273 -1.40631 0
M  V30 1190 H 108.422 -1.30241 -0.683789 0
M  V30 1191 H 110.38 -1.82344 -3.75242 0
M  V30 1192 H 109.01 -0.883806 -3.10465 0
M  V30 1193 H 108.062 -3.11911 -2.17751 0
M  V30 1194 H 109.374 -3.96039 -3.0324 0
M  V30 1195 H 108.528 -3.08973 -5.22131 0
M  V30 1196 H 107.267 -2.14473 -4.3801 0
M  V30 1197 H 106.272 -4.2631 -3.47188 0
M  V30 1198 H 107.497 -5.2182 -4.34605 0
M  V30 1199 H 105.443 -3.37462 -5.62544 0
M  V30 1200 H 105.36 -5.10507 -5.57601 0
M  V30 1201 H 106.628 -4.33253 -6.48006 0
M  V30 1202 N 110.857 0.726932 -1.39834 0
M  V30 1203 C 111.767 1.87131 -1.41489 0
M  V30 1204 C 112.783 1.71239 -0.308757 0
M  V30 1205 O 113.959 1.93701 -0.551529 0
M  V30 1206 C 111.024 3.22811 -1.26468 0
M  V30 1207 C 110.085 3.51039 -2.47124 0
M  V30 1208 C 109.318 4.80245 -2.3281 0
M  V30 1209 O 109.541 5.54537 -1.33585 0
M  V30 1210 O 108.475 5.08554 -3.21957 0
M  V30 1211 H 112.301 1.8869 -2.3797 0
M  V30 1212 H 109.886 0.875837 -1.21035 0
M  V30 1213 H 111.768 4.03877 -1.20255 0
M  V30 1214 H 110.443 3.22005 -0.330862 0
M  V30 1215 H 109.35 2.70027 -2.58914 0
M  V30 1216 H 110.683 3.56632 -3.39227 0
M  V30 1217 N 112.336 1.25143 0.95797 0
M  V30 1218 C 113.582 1.09855 1.70469 0
M  V30 1219 C 113.915 -0.360187 1.90831 0
M  V30 1220 O 113.19 -1.26568 1.47685 0
M  V30 1221 C 113.473 1.8497 3.08963 0
M  V30 1222 C 113.326 3.38652 2.96032 0
M  V30 1223 C 114.645 1.63016 4.08795 0
M  V30 1224 H 111.764 0.400465 0.618706 0
M  V30 1225 H 114.406 1.53933 1.11376 0
M  V30 1226 H 112.556 1.47505 3.59409 0
M  V30 1227 H 114.228 3.85772 2.52938 0
M  V30 1228 H 112.471 3.66534 2.32025 0
M  V30 1229 H 113.142 3.8642 3.94187 0
M  V30 1230 H 115.618 1.95625 3.67247 0
M  V30 1231 H 114.494 2.18015 5.03747 0
M  V30 1232 H 114.755 0.570692 4.38401 0
M  V30 1233 N 113.814 -1.1601 1.06675 0
M  V30 1234 C 114.761 -2.20525 0.680967 0
M  V30 1235 C 115.731 -1.62904 -0.324283 0
M  V30 1236 O 116.916 -1.89615 -0.212294 0
M  V30 1237 C 114.056 -3.45013 0.0776551 0
M  V30 1238 C 113.169 -4.16863 1.13355 0
M  V30 1239 C 112.304 -5.2888 0.49597 0
M  V30 1240 C 111.343 -5.92537 1.53513 0
M  V30 1241 N 110.48 -6.96038 0.920631 0
M  V30 1242 H 115.32 -2.52876 1.57663 0
M  V30 1243 H 112.857 -1.24199 0.788223 0
M  V30 1244 H 114.815 -4.16193 -0.289704 0
M  V30 1245 H 113.445 -3.132 -0.781393 0
M  V30 1246 H 112.497 -3.44248 1.61857 0
M  V30 1247 H 113.809 -4.60294 1.92174 0
M  V30 1248 H 112.963 -6.06653 0.0758604 0
M  V30 1249 H 111.702 -4.86622 -0.324062 0
M  V30 1250 H 110.707 -5.13482 1.9651 0
M  V30 1251 H 111.932 -6.36873 2.35733 0
M  V30 1252 H 109.878 -6.55888 0.12138 0
M  V30 1253 H 109.795 -7.3786 1.64616 0
M  V30 1254 H 111.063 -7.77725 0.525795 0
M  V30 1255 N 115.292 -0.849877 -1.32721 0
M  V30 1256 C 116.539 -0.450923 -1.97416 0
M  V30 1257 C 116.867 0.992376 -1.67279 0
M  V30 1258 O 116.122 1.71048 -0.950845 0
M  V30 1259 C 116.421 -0.631272 -3.51781 0
M  V30 1260 C 116.087 -2.04432 -4.01894 0
M  V30 1261 C 114.749 -2.4308 -4.1529 0
M  V30 1262 C 117.101 -2.96679 -4.28522 0
M  V30 1263 C 114.429 -3.73257 -4.52654 0
M  V30 1264 C 116.781 -4.26349 -4.67343 0
M  V30 1265 C 115.445 -4.64939 -4.78945 0
M  V30 1266 H 114.715 -0.165004 -0.722395 0
M  V30 1267 H 117.362 -1.07901 -1.58207 0
M  V30 1268 H 115.667 0.0800767 -3.91718 0
M  V30 1269 H 117.364 -0.302709 -3.99856 0
M  V30 1270 H 113.954 -1.73419 -3.91949 0
M  V30 1271 H 118.138 -2.68054 -4.17685 0
M  V30 1272 H 113.394 -4.02946 -4.59831 0
M  V30 1273 H 117.568 -4.97895 -4.86902 0
M  V30 1274 H 115.195 -5.65855 -5.07654 0
M  V30 1275 N 116.77 1.45427 -0.607355 0
M  V30 1276 C 117.7 2.3329 0.0989352 0
M  V30 1277 C 118.681 1.46816 0.859007 0
M  V30 1278 O 119.866 1.75588 0.829604 0
M  V30 1279 C 116.996 3.29518 1.09705 0
M  V30 1280 C 115.95 4.25626 0.450206 0
M  V30 1281 C 115.276 5.11542 1.55655 0
M  V30 1282 C 116.576 5.18505 -0.628455 0
M  V30 1283 H 118.27 2.92595 -0.634716 0
M  V30 1284 H 115.816 1.40696 -0.306681 0
M  V30 1285 H 117.769 3.89855 1.59971 0
M  V30 1286 H 116.493 2.68372 1.86129 0
M  V30 1287 H 115.152 3.66586 -0.0315886 0
M  V30 1288 H 114.8 4.46765 2.31107 0
M  V30 1289 H 114.5 5.76647 1.12925 0
M  V30 1290 H 116.024 5.74748 2.06148 0
M  V30 1291 H 117.438 5.72916 -0.209877 0
M  V30 1292 H 115.835 5.92085 -0.977489 0
M  V30 1293 H 116.905 4.60948 -1.50514 0
M  V30 1294 N 118.248 0.346503 1.53744 0
M  V30 1295 C 119.18 -0.543316 2.22667 0
M  V30 1296 C 120.193 -1.06159 1.23427 0
M  V30 1297 O 121.382 -0.971235 1.49764 0
M  V30 1298 C 118.482 -1.76076 2.89569 0
M  V30 1299 C 117.655 -1.37727 4.15151 0
M  V30 1300 C 116.714 -2.45471 4.65436 0
M  V30 1301 O 115.74 -2.08655 5.29577 0
M  V30 1302 N 116.942 -3.7677 4.41616 0
M  V30 1303 H 119.707 0.0469703 2.99663 0
M  V30 1304 H 117.268 0.170766 1.60997 0
M  V30 1305 H 119.26 -2.47593 3.20125 0
M  V30 1306 H 117.83 -2.25835 2.16142 0
M  V30 1307 H 117.05 -0.492746 3.91108 0
M  V30 1308 H 118.338 -1.09708 4.96832 0
M  V30 1309 H 117.736 -4.09467 3.90325 0
M  V30 1310 H 116.293 -4.44448 4.7677 0
M  V30 1311 N 119.726 -1.57421 0.075193 0
M  V30 1312 C 121.142 -1.57099 -0.281444 0
M  V30 1313 C 121.342 -1.08486 -1.69803 0
M  V30 1314 O 120.398 -0.752279 -2.41033 0
M  V30 1315 C 121.711 -3.00571 -0.0880041 0
M  V30 1316 C 123.259 -3.12605 -0.157281 0
M  V30 1317 C 123.734 -4.57999 0.0079207 0
M  V30 1318 N 125.225 -4.63176 -0.0475725 0
M  V30 1319 C 125.96 -5.73373 0.0557876 0
M  V30 1320 N 125.456 -6.92473 0.21286 0
M  V30 1321 N 127.249 -5.621 -0.00152098 0
M  V30 1322 H 119.4 -1.87335 1.00098 0
M  V30 1323 H 121.663 -0.86377 0.390646 0
M  V30 1324 H 121.369 -3.40262 0.889629 0
M  V30 1325 H 121.243 -3.67754 -0.838875 0
M  V30 1326 H 123.63 -2.72798 -1.1254 0
M  V30 1327 H 123.711 -2.48053 0.62475 0
M  V30 1328 H 123.355 -4.98496 0.972824 0
M  V30 1329 H 123.285 -5.20586 -0.793556 0
M  V30 1330 H 125.776 -3.7753 -0.167244 0
M  V30 1331 H 126.089 -7.72279 0.283781 0
M  V30 1332 H 124.434 -6.94556 0.248267 0
M  V30 1333 H 127.625 -4.67938 -0.122958 0
M  V30 1334 H 127.798 -6.47948 0.0824844 0
M  V30 1335 N 121.204 0.198386 -1.56346 0
M  V30 1336 C 122.453 0.917451 -1.79627 0
M  V30 1337 C 122.766 1.8456 -0.64784 0
M  V30 1338 O 123.972 2.60504 -0.764859 0
M  V30 1339 C 122.428 1.68175 -3.18191 0
M  V30 1340 C 122.036 0.798589 -4.40825 0
M  V30 1341 C 123.78 2.39065 -3.50782 0
M  V30 1342 C 121.687 1.56157 -5.70411 0
M  V30 1343 H 120.617 0.346317 -0.669762 0
M  V30 1344 H 123.268 0.170801 -1.82703 0
M  V30 1345 H 121.65 2.47216 -3.09354 0
M  V30 1346 H 122.824 0.0470665 -4.60776 0
M  V30 1347 H 121.139 0.200686 -4.15916 0
M  V30 1348 H 123.736 2.96692 -4.44835 0
M  V30 1349 H 124.079 3.13091 -2.74371 0
M  V30 1350 H 124.612 1.66993 -3.61052 0
M  V30 1351 H 121.351 0.864142 -6.49779 0
M  V30 1352 H 120.871 2.2871 -5.54483 0
M  V30 1353 H 122.55 2.11622 -6.11412 0
M  V30 1354 N 122.682 1.50554 0.465978 0
M  V30 1355 C 123.629 1.6979 1.56333 0
M  V30 1356 C 124.599 0.539239 1.57103 0
M  V30 1357 O 125.784 0.770401 1.74555 0
M  V30 1358 C 122.924 1.80273 2.94271 0
M  V30 1359 C 122.037 3.07674 3.0325 0
M  V30 1360 C 121.172 3.08922 4.32135 0
M  V30 1361 C 120.211 4.30755 4.34875 0
M  V30 1362 N 119.348 4.29714 5.55239 0
M  V30 1363 H 124.188 2.63472 1.39235 0
M  V30 1364 H 121.725 1.30602 0.676873 0
M  V30 1365 H 123.683 1.84332 3.74269 0
M  V30 1366 H 122.313 0.900258 3.09992 0
M  V30 1367 H 121.365 3.13062 2.16094 0
M  V30 1368 H 122.677 3.97642 3.01135 0
M  V30 1369 H 121.831 3.11738 5.20485 0
M  V30 1370 H 120.57 2.16792 4.36866 0
M  V30 1371 H 119.575 4.28146 3.44922 0
M  V30 1372 H 120.8 5.24117 4.31831 0
M  V30 1373 H 118.746 3.4044 5.60746 0
M  V30 1374 H 118.663 5.13456 5.54886 0
M  V30 1375 H 119.931 4.36683 6.457 0
M  V30 1376 N 124.16 -0.719506 1.40217 0
M  V30 1377 C 125.11 -1.8251 1.36653 0
M  V30 1378 C 126.094 -1.59028 0.244732 0
M  V30 1379 O 127.286 -1.70268 0.483524 0
M  V30 1380 C 124.415 -3.20599 1.22763 0
M  V30 1381 C 123.501 -3.49858 2.39708 0
M  V30 1382 N 123.892 -3.49957 3.6519 0
M  V30 1383 C 122.19 -3.80297 2.33002 0
M  V30 1384 C 122.891 -3.77449 4.42614 0
M  V30 1385 N 121.867 -3.96002 3.72402 0
M  V30 1386 H 125.669 -1.80914 2.31619 0
M  V30 1387 H 123.183 -0.918455 1.33933 0
M  V30 1388 H 125.18 -3.99766 1.18292 0
M  V30 1389 H 123.84 -3.23424 0.287614 0
M  V30 1390 H 124.851 -3.309 3.98404 0
M  V30 1391 H 121.528 -3.90635 1.47346 0
M  V30 1392 H 122.918 -3.83863 5.51451 0
M  V30 1393 N 125.638 -1.25649 -0.95132 0
M  V30 1394 C 127.049 -1.09654 -1.51106 0
M  V30 1395 C 127.4 0.326615 -1.93462 0
M  V30 1396 O 126.525 1.21697 -1.78938 0
M  V30 1397 C 127.12 -1.98437 -2.74605 0
M  V30 1398 C 125.679 -1.86618 -3.2688 0
M  V30 1399 C 124.826 -1.9239 -1.99703 0
M  V30 1400 H 127.777 -1.38887 -0.767865 0
M  V30 1401 H 127.798 -1.5263 -3.48546 0
M  V30 1402 H 127.31 -3.02009 -2.43746 0
M  V30 1403 H 125.411 -0.859421 -3.62553 0
M  V30 1404 H 125.524 -2.71607 -3.94673 0
M  V30 1405 H 123.888 -1.36317 -2.15151 0
M  V30 1406 H 124.671 -2.97573 -1.71188 0
M  V30 1407 N 127.117 1.15442 -1.07289 0
M  V30 1408 C 128.065 2.22225 -0.686952 0
M  V30 1409 C 129.059 1.66688 0.30193 0
M  V30 1410 O 130.265 1.79236 0.165712 0
M  V30 1411 H 126.64 0.723783 -0.204064 0
M  V30 1412 H 128.611 2.52056 -1.5972 0
M  V30 1413 C 127.36 3.47556 -0.100149 0
M  V30 1414 H 126.683 3.90612 -0.852211 0
M  V30 1415 H 128.123 4.23794 0.132235 0
M  V30 1416 C 126.582 3.16337 1.159 0
M  V30 1417 O 127.112 3.33074 2.24555 0
M  V30 1418 N 125.318 2.70385 1.06491 0
M  V30 1419 H 124.865 2.56966 0.180668 0
M  V30 1420 H 124.823 2.49871 1.90819 0
M  V30 1421 N 128.595 0.856903 1.32268 0
M  V30 1422 C 129.82 0.474569 2.01897 0
M  V30 1423 C 130.245 -0.921766 1.63967 0
M  V30 1424 O 129.603 -1.60589 0.84148 0
M  V30 1425 C 129.651 0.623799 3.55164 0
M  V30 1426 O 128.755 -0.342459 4.10976 0
M  V30 1427 H 128.096 0.190422 0.63611 0
M  V30 1428 H 130.626 1.15672 1.68764 0
M  V30 1429 H 130.636 0.512169 4.04773 0
M  V30 1430 H 129.311 1.64202 3.82113 0
M  V30 1431 H 127.888 -0.18688 3.72431 0
M  V30 1432 N 130.073 -1.45103 0.615059 0
M  V30 1433 C 131.322 -2.01396 0.110718 0
M  V30 1434 C 131.635 -1.48834 -1.26916 0
M  V30 1435 O 132.841 -1.97152 -1.86664 0
M  V30 1436 C 131.297 -3.59599 0.14723 0
M  V30 1437 C 130.905 -4.21158 1.52743 0
M  V30 1438 C 132.649 -4.23428 -0.30148 0
M  V30 1439 C 130.556 -5.71535 1.51992 0
M  V30 1440 H 129.486 -0.753061 0.0376241 0
M  V30 1441 H 132.137 -1.66494 0.77149 0
M  V30 1442 H 130.519 -3.91724 -0.580339 0
M  V30 1443 H 131.693 -4.00594 2.2773 0
M  V30 1444 H 130.008 -3.69552 1.91886 0
M  V30 1445 H 132.605 -5.33703 -0.326392 0
M  V30 1446 H 132.948 -3.94629 -1.32565 0
M  V30 1447 H 133.481 -3.96047 0.373065 0
M  V30 1448 H 130.22 -6.05044 2.52193 0
M  V30 1449 H 129.74 -5.94268 0.81274 0
M  V30 1450 H 131.419 -6.34873 1.24681 0
M  V30 1451 N 131.551 -0.354651 -1.53558 0
M  V30 1452 C 132.461 0.50515 -2.29097 0
M  V30 1453 C 133.477 1.10223 -1.34636 0
M  V30 1454 O 134.653 1.11553 -1.67684 0
M  V30 1455 C 131.718 1.63479 -3.05738 0
M  V30 1456 C 130.779 1.06636 -4.15845 0
M  V30 1457 C 130.012 2.14217 -4.88822 0
M  V30 1458 O 130.235 3.35137 -4.61562 0
M  V30 1459 O 129.169 1.77887 -5.75013 0
M  V30 1460 H 132.995 -0.109237 -3.03503 0
M  V30 1461 H 130.58 -0.119357 -1.48922 0
M  V30 1462 H 132.462 2.2918 -3.5363 0
M  V30 1463 H 131.137 2.23478 -2.34178 0
M  V30 1464 H 130.044 0.373565 -3.7223 0
M  V30 1465 H 131.377 0.511081 -4.89539 0
M  V30 1466 N 133.029 1.57378 -0.0835403 0
M  V30 1467 C 134.259 1.97975 0.590713 0
M  V30 1468 C 134.667 0.961083 1.62972 0
M  V30 1469 O 134.01 -0.0590879 1.83605 0
M  V30 1470 C 134.072 3.34915 1.3066 0
M  V30 1471 C 133.736 4.55069 0.419698 0
M  V30 1472 C 134.733 5.18868 -0.32749 0
M  V30 1473 C 132.418 5.0114 0.341137 0
M  V30 1474 C 134.412 6.27098 -1.14134 0
M  V30 1475 C 132.099 6.0924 -0.476374 0
M  V30 1476 C 133.097 6.72083 -1.21627 0
M  V30 1477 O 132.785 7.781 -2.02028 0
M  V30 1478 H 132.517 0.655818 0.163947 0
M  V30 1479 H 135.071 2.04807 -0.156021 0
M  V30 1480 H 133.301 3.24733 2.09966 0
M  V30 1481 H 134.99 3.60037 1.87424 0
M  V30 1482 H 135.756 4.84211 -0.276459 0
M  V30 1483 H 131.635 4.51996 0.90668 0
M  V30 1484 H 135.179 6.7608 -1.71935 0
M  V30 1485 H 131.076 6.43329 -0.528927 0
M  V30 1486 H 131.844 7.95034 -1.94586 0
M  V30 1487 N 134.507 -0.190092 1.56449 0
M  V30 1488 C 135.454 -1.23557 1.94942 0
M  V30 1489 C 136.424 -1.44972 0.810696 0
M  V30 1490 O 137.609 -1.58023 1.06927 0
M  V30 1491 C 134.749 -2.57416 2.2985 0
M  V30 1492 C 133.862 -2.43537 3.5681 0
M  V30 1493 C 132.997 -3.70134 3.81017 0
M  V30 1494 C 132.036 -3.51109 5.01387 0
M  V30 1495 N 131.173 -4.6973 5.21822 0
M  V30 1496 H 136.013 -0.900304 2.84075 0
M  V30 1497 H 133.55 -0.43318 1.40577 0
M  V30 1498 H 135.508 -3.35409 2.48106 0
M  V30 1499 H 134.138 -2.88975 1.43852 0
M  V30 1500 H 133.19 -1.56816 3.46573 0
M  V30 1501 H 134.502 -2.25415 4.4496 0
M  V30 1502 H 133.656 -4.56566 3.9954 0
M  V30 1503 H 132.395 -3.91215 2.91207 0
M  V30 1504 H 131.4 -2.63063 4.82782 0
M  V30 1505 H 132.625 -3.31468 5.9271 0
M  V30 1506 H 130.571 -4.91065 4.34961 0
M  V30 1507 H 130.488 -4.54452 6.0416 0
M  V30 1508 H 131.756 -5.57499 5.44808 0
M  V30 1509 N 135.985 -1.50799 -0.457987 0
M  V30 1510 C 137.233 -1.62121 -1.2067 0
M  V30 1511 C 137.554 -0.329793 -1.92191 0
M  V30 1512 O 136.824 0.653409 -1.84682 0
M  V30 1513 H 135.404 -0.597441 -0.448411 0
M  V30 1514 H 138.066 -1.87637 -0.527096 0
M  V30 1515 H 137.162 -2.43882 -1.94751 0
M  V30 1516 N 137.463 0.71206 -1.40597 0
M  V30 1517 C 138.703 1.48438 -1.40519 0
M  V30 1518 C 139.067 1.91998 -0.00767611 0
M  V30 1519 O 140.268 2.6854 0.118239 0
M  V30 1520 C 138.539 2.67514 -2.37004 0
M  V30 1521 S 140.098 3.56875 -2.55315 0
M  V30 1522 H 136.916 0.507457 -0.498005 0
M  V30 1523 H 139.518 0.832355 -1.76896 0
M  V30 1524 H 138.222 2.33689 -3.37368 0
M  V30 1525 H 137.753 3.37625 -2.01923 0
M  V30 1526 H 139.768 4.62081 -1.8082 0
M  V30 1527 N 138.941 1.26152 0.944643 0
M  V30 1528 C 140.171 1.14094 1.72239 0
M  V30 1529 C 140.579 -0.306931 1.86694 0
M  V30 1530 O 139.922 -1.22222 1.3714 0
M  V30 1531 C 139.984 1.73316 3.14963 0
M  V30 1532 C 139.648 3.2239 3.23904 0
M  V30 1533 C 140.645 4.19252 3.07447 0
M  V30 1534 C 138.33 3.62788 3.47405 0
M  V30 1535 C 140.324 5.54491 3.14353 0
M  V30 1536 C 138.011 4.98162 3.53947 0
M  V30 1537 C 139.009 5.93823 3.37436 0
M  V30 1538 O 138.697 7.26732 3.43679 0
M  V30 1539 H 138.429 0.398292 0.546205 0
M  V30 1540 H 140.983 1.67201 1.19301 0
M  V30 1541 H 139.213 1.14667 3.69308 0
M  V30 1542 H 140.902 1.56214 3.74636 0
M  V30 1543 H 141.668 3.8938 2.8915 0
M  V30 1544 H 137.547 2.88816 3.59313 0
M  V30 1545 H 141.091 6.29137 3.01384 0
M  V30 1546 H 136.988 5.27695 3.71763 0
M  V30 1547 H 137.756 7.3496 3.60245 0
M  V30 1548 N 140.419 -1.14872 1.07899 0
M  V30 1549 C 141.349 -2.2193 0.725887 0
M  V30 1550 C 142.33 -1.67622 -0.28927 0
M  V30 1551 O 143.515 -1.93533 -0.160787 0
M  V30 1552 C 140.645 -3.47061 0.128856 0
M  V30 1553 C 139.599 -4.14363 1.07178 0
M  V30 1554 C 138.925 -5.33636 0.337229 0
M  V30 1555 C 140.225 -4.63492 2.40775 0
M  V30 1556 H 141.919 -2.51724 1.62097 0
M  V30 1557 H 139.465 -1.20991 0.780838 0
M  V30 1558 H 141.418 -4.21199 -0.130147 0
M  V30 1559 H 140.142 -3.16617 -0.80134 0
M  V30 1560 H 138.801 -3.42173 1.3158 0
M  V30 1561 H 138.449 -4.99449 -0.596606 0
M  V30 1562 H 138.149 -5.79609 0.965788 0
M  V30 1563 H 139.673 -6.10539 0.0861567 0
M  V30 1564 H 141.087 -5.2913 2.20669 0
M  V30 1565 H 139.484 -5.20148 2.99276 0
M  V30 1566 H 140.554 -3.78834 3.02676 0
M  V30 1567 N 141.898 -0.863906 -1.31812 0
M  V30 1568 C 143.314 -0.555004 -1.49639 0
M  V30 1569 C 143.514 0.912266 -1.79666 0
M  V30 1570 O 142.57 1.69479 -1.87171 0
M  V30 1571 C 143.883 -1.44998 -2.63431 0
M  V30 1572 C 145.431 -1.45138 -2.77316 0
M  V30 1573 C 145.906 -2.33179 -3.94197 0
M  V30 1574 N 147.397 -2.31025 -4.01474 0
M  V30 1575 C 148.132 -2.95871 -4.9117 0
M  V30 1576 N 147.628 -3.69863 -5.8581 0
M  V30 1577 N 149.421 -2.85211 -4.84367 0
M  V30 1578 H 141.572 -1.81339 -1.10589 0
M  V30 1579 H 143.835 -0.77505 -0.545895 0
M  V30 1580 H 143.541 -2.49377 -2.48 0
M  V30 1581 H 143.415 -1.14409 -3.59431 0
M  V30 1582 H 145.802 -0.415201 -2.92164 0
M  V30 1583 H 145.883 -1.79747 -1.82001 0
M  V30 1584 H 145.527 -3.3687 -3.80107 0
M  V30 1585 H 145.457 -1.95897 -4.88807 0
M  V30 1586 H 147.948 -1.77238 -3.33759 0
M  V30 1587 H 148.261 -4.16486 -6.50968 0
M  V30 1588 H 146.606 -3.73971 -5.85808 0
M  V30 1589 H 149.797 -2.26948 -4.09405 0
M  V30 1590 H 149.97 -3.36027 -5.54066 0
M  V30 1591 N 143.376 1.44774 -0.622745 0
M  V30 1592 C 144.286 2.34433 0.0886031 0
M  V30 1593 C 145.302 1.52131 0.844529 0
M  V30 1594 O 146.478 1.84886 0.798691 0
M  V30 1595 C 143.543 3.29986 1.0635 0
M  V30 1596 C 142.604 4.28195 0.307873 0
M  V30 1597 C 141.837 5.19183 1.23633 0
M  V30 1598 O 142.06 5.13918 2.47476 0
M  V30 1599 O 140.994 5.97515 0.725189 0
M  V30 1600 H 144.82 2.96693 -0.648599 0
M  V30 1601 H 142.405 1.44408 -0.382957 0
M  V30 1602 H 144.287 3.88825 1.6246 0
M  V30 1603 H 142.962 2.70269 1.78146 0
M  V30 1604 H 141.869 3.72927 -0.296064 0
M  V30 1605 H 143.202 4.90808 -0.3699 0
M  V30 1606 N 144.854 0.36279 1.53368 0
M  V30 1607 C 145.804 -0.501391 2.22419 0
M  V30 1608 C 146.788 -1.0509 1.2184 0
M  V30 1609 O 147.98 -0.981404 1.47301 0
M  V30 1610 C 145.109 -1.64201 3.01484 0
M  V30 1611 C 144.195 -1.10552 4.09438 0
M  V30 1612 N 144.586 -0.291788 5.04958 0
M  V30 1613 C 142.884 -1.3806 4.24094 0
M  V30 1614 C 143.585 0.00162655 5.817 0
M  V30 1615 N 142.561 -0.595244 5.40331 0
M  V30 1616 H 146.363 0.127159 2.93625 0
M  V30 1617 H 143.877 0.170658 1.61501 0
M  V30 1618 H 145.874 -2.27326 3.49469 0
M  V30 1619 H 144.534 -2.27365 2.31809 0
M  V30 1620 H 145.545 0.0687731 5.17854 0
M  V30 1621 H 142.222 -2.01522 3.65644 0
M  V30 1622 H 143.612 0.659278 6.68658 0
M  V30 1623 N 146.332 -1.57332 0.0918853 0
M  V30 1624 C 147.56 -1.98574 -0.581048 0
M  V30 1625 C 147.975 -0.970903 -1.61923 0
M  V30 1626 O 147.332 0.0399054 -1.82456 0
M  V30 1627 C 147.383 -3.39872 -1.23164 0
M  V30 1628 O 147.104 -4.37469 -0.234989 0
M  V30 1629 C 148.605 -3.96099 -1.99049 0
M  V30 1630 H 145.825 -0.65261 -0.156018 0
M  V30 1631 H 148.369 -2.0379 0.170225 0
M  V30 1632 H 146.524 -3.35679 -1.93386 0
M  V30 1633 H 146.938 -5.19751 -0.70418 0
M  V30 1634 H 148.412 -4.97127 -2.39934 0
M  V30 1635 H 148.889 -3.3374 -2.85507 0
M  V30 1636 H 149.495 -4.03755 -1.3365 0
M  V30 1637 N 147.81 0.181792 -1.56548 0
M  V30 1638 C 148.773 1.20894 -1.94724 0
M  V30 1639 C 149.773 1.37738 -0.829747 0
M  V30 1640 O 150.963 1.35323 -1.09697 0
M  V30 1641 C 148.095 2.57593 -2.23291 0
M  V30 1642 H 149.288 0.882275 -2.86629 0
M  V30 1643 H 146.841 0.423838 -1.50444 0
M  V30 1644 H 147.576 2.95291 -1.34067 0
M  V30 1645 H 147.361 2.46735 -3.04736 0
M  V30 1646 H 148.851 3.31637 -2.53785 0
M  V30 1647 N 149.288 1.51039 0.449983 0
M  V30 1648 C 150.534 1.64287 1.19923 0
M  V30 1649 C 150.889 0.348701 1.89214 0
M  V30 1650 O 150.182 -0.654751 1.80065 0
M  V30 1651 C 150.376 2.77556 2.25161 0
M  V30 1652 C 150.205 4.17862 1.66198 0
M  V30 1653 C 148.975 4.83976 1.45243 0
M  V30 1654 C 151.173 5.01388 1.14519 0
M  V30 1655 N 149.155 6.08433 0.817437 0
M  V30 1656 C 150.526 6.16743 0.634705 0
M  V30 1657 C 152.581 4.87008 1.03574 0
M  V30 1658 C 151.284 7.19295 0.0255452 0
M  V30 1659 C 153.31 5.89757 0.440489 0
M  V30 1660 C 152.672 7.04375 -0.0595112 0
M  V30 1661 H 148.771 0.655161 0.426952 0
M  V30 1662 H 151.355 1.88228 0.49781 0
M  V30 1663 H 149.526 2.553 2.92706 0
M  V30 1664 H 151.258 2.80049 2.92155 0
M  V30 1665 H 148.013 4.41627 1.71063 0
M  V30 1666 H 148.437 6.75017 0.517747 0
M  V30 1667 H 153.079 3.9866 1.4082 0
M  V30 1668 H 150.797 8.07302 -0.359071 0
M  V30 1669 H 154.383 5.80698 0.35788 0
M  V30 1670 H 153.263 7.82521 -0.512882 0
M  V30 1671 N 150.766 -0.704594 1.40972 0
M  V30 1672 C 151.696 -1.83124 1.44872 0
M  V30 1673 C 152.677 -1.67281 0.30838 0
M  V30 1674 O 153.862 -1.87149 0.518556 0
M  V30 1675 C 150.992 -3.21181 1.32136 0
M  V30 1676 C 149.946 -3.51714 2.43888 0
M  V30 1677 C 149.272 -4.89032 2.16222 0
M  V30 1678 C 150.572 -3.516 3.86232 0
M  V30 1679 H 152.266 -1.80117 2.39161 0
M  V30 1680 H 149.812 -0.865145 1.15114 0
M  V30 1681 H 151.765 -3.99702 1.33479 0
M  V30 1682 H 150.489 -3.24791 0.343279 0
M  V30 1683 H 149.148 -2.75539 2.41813 0
M  V30 1684 H 148.796 -4.89256 1.16778 0
M  V30 1685 H 148.496 -5.10426 2.911 0
M  V30 1686 H 150.02 -5.69873 2.19265 0
M  V30 1687 H 151.434 -4.2014 3.9007 0
M  V30 1688 H 149.831 -3.84523 4.60719 0
M  V30 1689 H 150.901 -2.50757 4.15029 0
M  V30 1690 N 152.244 -1.26651 -0.937939 0
M  V30 1691 C 153.49 -1.12553 -1.687 0
M  V30 1692 C 153.823 0.329782 -1.91379 0
M  V30 1693 O 153.098 1.24202 -1.4968 0
M  V30 1694 C 153.381 -1.89862 -3.05981 0
M  V30 1695 C 153.234 -3.43318 -2.90607 0
M  V30 1696 C 154.553 -1.69499 -4.0615 0
M  V30 1697 H 151.672 -0.410257 -0.612257 0
M  V30 1698 H 154.314 -1.55685 -1.08913 0
M  V30 1699 H 152.464 -1.53204 -3.57017 0
M  V30 1700 H 154.136 -3.89747 -2.46769 0
M  V30 1701 H 152.379 -3.70179 -2.26164 0
M  V30 1702 H 153.05 -3.92642 -3.8799 0
M  V30 1703 H 155.526 -2.01442 -3.64088 0
M  V30 1704 H 154.402 -2.26002 -5.00214 0
M  V30 1705 H 154.663 -0.640365 -4.37438 0
M  V30 1706 N 153.722 1.14298 -1.08507 0
M  V30 1707 C 154.655 2.18447 -0.660004 0
M  V30 1708 C 155.633 1.59242 0.328749 0
M  V30 1709 O 156.817 1.87062 0.232367 0
M  V30 1710 C 153.944 3.38688 0.0290807 0
M  V30 1711 C 152.99 4.1646 -0.919982 0
M  V30 1712 S 153.823 4.77334 -2.42718 0
M  V30 1713 C 154.979 6.00931 -1.75024 0
M  V30 1714 H 155.212 2.54166 -1.54231 0
M  V30 1715 H 152.745 1.25446 -0.900149 0
M  V30 1716 H 154.703 4.08342 0.420378 0
M  V30 1717 H 153.364 3.01289 0.887895 0
M  V30 1718 H 152.557 5.02529 -0.384751 0
M  V30 1719 H 152.159 3.52414 -1.25223 0
M  V30 1720 H 154.451 6.69017 -1.06877 0
M  V30 1721 H 155.394 6.59044 -2.58971 0
M  V30 1722 H 155.802 5.51089 -1.22317 0
M  V30 1723 N 155.201 0.870884 1.31352 0
M  V30 1724 C 156.111 0.330783 2.32256 0
M  V30 1725 C 157.127 -0.559767 1.6475 0
M  V30 1726 O 158.303 -0.456263 1.96164 0
M  V30 1727 C 155.368 -0.458137 3.4366 0
M  V30 1728 C 154.429 0.460482 4.26823 0
M  V30 1729 C 153.662 -0.290881 5.32907 0
M  V30 1730 O 153.885 -1.51885 5.49806 0
M  V30 1731 O 152.819 0.351732 6.00871 0
M  V30 1732 H 156.645 1.16718 2.80376 0
M  V30 1733 H 154.23 0.634285 1.35267 0
M  V30 1734 H 156.112 -0.905343 4.1156 0
M  V30 1735 H 154.787 -1.27106 2.97701 0
M  V30 1736 H 153.694 0.956207 3.61673 0
M  V30 1737 H 155.027 1.23903 4.7635 0
M  V30 1738 N 156.679 -1.44442 0.630414 0
M  V30 1739 C 157.909 -2.06115 0.141465 0
M  V30 1740 C 158.317 -1.47179 -1.1889 0
M  V30 1741 O 157.66 -0.588873 -1.74006 0
M  V30 1742 C 157.722 -3.59467 -0.0484355 0
M  V30 1743 C 157.386 -4.40864 1.20366 0
M  V30 1744 C 158.383 -4.74391 2.12719 0
M  V30 1745 C 156.068 -4.8125 1.43887 0
M  V30 1746 C 158.062 -5.47186 3.26904 0
M  V30 1747 C 155.749 -5.53795 2.5837 0
M  V30 1748 C 156.747 -5.86682 3.49705 0
M  V30 1749 O 156.435 -6.57749 4.62191 0
M  V30 1750 H 156.167 -0.671648 0.0765792 0
M  V30 1751 H 158.721 -1.86312 0.864695 0
M  V30 1752 H 156.951 -3.77758 -0.826803 0
M  V30 1753 H 158.64 -4.02909 -0.491849 0
M  V30 1754 H 159.406 -4.43728 1.95781 0
M  V30 1755 H 155.285 -4.55073 0.736853 0
M  V30 1756 H 158.829 -5.72773 3.98217 0
M  V30 1757 H 154.726 -5.83872 2.75251 0
M  V30 1758 H 155.494 -6.76217 4.61164 0
M  V30 1759 N 158.157 -0.370918 -1.53173 0
M  V30 1760 C 159.397 0.217106 -2.03244 0
M  V30 1761 C 159.761 1.45558 -1.25207 0
M  V30 1762 O 160.962 2.11957 -1.65311 0
M  V30 1763 C 159.233 0.496664 -3.53932 0
M  V30 1764 S 160.792 1.0576 -4.25864 0
M  V30 1765 H 157.61 0.0627827 -0.708223 0
M  V30 1766 H 160.212 -0.515019 -1.88594 0
M  V30 1767 H 158.916 -0.412096 -4.08326 0
M  V30 1768 H 158.447 1.25772 -3.72753 0
M  V30 1769 H 160.462 2.34145 -4.37482 0
M  V30 1770 N 159.635 1.57281 -0.100228 0
M  V30 1771 C 160.565 2.17328 0.853857 0
M  V30 1772 C 161.546 1.10804 1.2906 0
M  V30 1773 O 162.731 1.38963 1.35657 0
M  V30 1774 C 159.861 2.75772 2.11109 0
M  V30 1775 C 158.815 3.87713 1.81279 0
M  V30 1776 C 158.141 4.32882 3.13874 0
M  V30 1777 C 159.441 5.10677 1.09574 0
M  V30 1778 H 161.135 2.97305 0.353545 0
M  V30 1779 H 158.681 1.43009 0.168612 0
M  V30 1780 H 160.634 3.16433 2.78296 0
M  V30 1781 H 159.358 1.93057 2.63432 0
M  V30 1782 H 158.017 3.476 1.16489 0
M  V30 1783 H 157.665 3.47051 3.64095 0
M  V30 1784 H 157.365 5.08358 2.94696 0
M  V30 1785 H 158.889 4.7618 3.82211 0
M  V30 1786 H 160.303 5.48474 1.66879 0
M  V30 1787 H 158.7 5.91615 1.00557 0
M  V30 1788 H 159.77 4.84835 0.0793299 0
M  V30 1789 N 161.113 -0.173488 1.56642 0
M  V30 1790 C 162.361 -0.888706 1.81512 0
M  V30 1791 C 162.682 -1.82875 0.676872 0
M  V30 1792 O 161.952 -1.93536 -0.303414 0
M  V30 1793 H 160.532 -0.331164 0.669582 0
M  V30 1794 H 163.194 -0.173823 1.94123 0
M  V30 1795 H 162.29 -1.46691 2.75478 0
M  V30 1796 N 162.591 -1.51276 -0.441967 0
M  V30 1797 C 163.816 -1.67799 -1.21895 0
M  V30 1798 C 164.241 -0.372864 -1.84367 0
M  V30 1799 O 163.599 0.666501 -1.68604 0
M  V30 1800 C 163.647 -2.79199 -2.28211 0
M  V30 1801 O 162.751 -2.42479 -3.33583 0
M  V30 1802 H 162.092 -0.559649 -0.357336 0
M  V30 1803 H 164.622 -1.97815 -0.522522 0
M  V30 1804 H 164.632 -3.03146 -2.73069 0
M  V30 1805 H 163.307 -3.73906 -1.82118 0
M  V30 1806 H 161.884 -2.29087 -2.94234 0
M  V30 1807 N 164.069 0.697108 -1.41344 0
M  V30 1808 C 165.032 1.79281 -1.42797 0
M  V30 1809 C 166.032 1.57607 -0.318837 0
M  V30 1810 O 167.222 1.64309 -0.578642 0
M  V30 1811 C 164.354 3.17632 -1.23785 0
M  V30 1812 H 165.547 1.79385 -2.40335 0
M  V30 1813 H 163.1 0.904582 -1.27464 0
M  V30 1814 H 163.835 3.23167 -0.270814 0
M  V30 1815 H 163.62 3.34765 -2.04144 0
M  V30 1816 H 165.11 3.97617 -1.27633 0
M  V30 1817 N 165.547 1.27147 0.931209 0
M  V30 1818 C 166.772 1.16191 1.71797 0
M  V30 1819 C 167.197 -0.278004 1.86034 0
M  V30 1820 O 166.555 -1.20137 1.35782 0
M  V30 1821 C 166.603 1.84673 3.09723 0
M  V30 1822 O 165.707 1.14231 3.96264 0
M  V30 1823 H 165.048 0.404303 0.526721 0
M  V30 1824 H 167.578 1.68152 1.1656 0
M  V30 1825 H 167.588 1.91893 3.60057 0
M  V30 1826 H 166.263 2.89421 2.98677 0
M  V30 1827 H 164.84 1.15056 3.54706 0
M  V30 1828 N 167.025 -1.13721 1.09112 0
M  V30 1829 C 168.302 -1.81155 0.737706 0
M  V30 1830 C 168.682 -1.96253 -0.777683 0
M  V30 1831 O 168.03 -1.52807 -1.69889 0
M  V30 1832 C 168.24 -3.16392 1.47299 0
M  V30 1833 C 169.588 -3.91787 1.63671 0
M  V30 1834 O 170.612 -3.26005 1.43524 0
M  V30 1835 O 169.471 -5.0977 1.96969 0
M  V30 1836 H 166.565 -0.783518 0.26463 0
M  V30 1837 H 169.111 -1.20676 1.19312 0
M  V30 1838 H 167.883 -3.0061 2.50498 0
M  V30 1839 H 167.506 -3.8457 1.00953 0
M  V30 1840 N 168.503 -0.877838 -1.30888 0
M  V30 1841 C 169.433 -0.35534 -2.3078 0
M  V30 1842 C 170.414 0.557994 -1.60687 0
M  V30 1843 O 171.599 0.473355 -1.88343 0
M  V30 1844 C 168.729 0.437221 -3.44537 0
M  V30 1845 C 167.683 -0.383715 -4.26276 0
M  V30 1846 C 167.009 0.535014 -5.32017 0
M  V30 1847 C 168.309 -1.62201 -4.96476 0
M  V30 1848 H 170.003 -1.19007 -2.74732 0
M  V30 1849 H 167.549 -0.573698 -1.32078 0
M  V30 1850 H 169.502 0.813334 -4.13477 0
M  V30 1851 H 168.226 1.30553 -2.99372 0
M  V30 1852 H 166.885 -0.741874 -3.59015 0
M  V30 1853 H 166.533 1.40083 -4.831 0
M  V30 1854 H 166.233 -0.0104211 -5.87599 0
M  V30 1855 H 167.757 0.907799 -6.03814 0
M  V30 1856 H 169.171 -1.31689 -5.5797 0
M  V30 1857 H 167.568 -2.10711 -5.61891 0
M  V30 1858 H 168.638 -2.37044 -4.23011 0
M  V30 1859 N 169.982 1.44106 -0.638065 0
M  V30 1860 C 170.912 2.33448 0.0494287 0
M  V30 1861 C 171.893 1.48606 0.827672 0
M  V30 1862 O 173.078 1.77308 0.792173 0
M  V30 1863 C 170.208 3.31771 1.02691 0
M  V30 1864 C 169.162 4.26485 0.359823 0
M  V30 1865 C 168.488 5.14729 1.44769 0
M  V30 1866 C 169.788 5.17056 -0.738296 0
M  V30 1867 H 171.482 2.91183 -0.696636 0
M  V30 1868 H 169.028 1.40014 -0.336456 0
M  V30 1869 H 170.981 3.93161 1.51666 0
M  V30 1870 H 169.705 2.7226 1.80395 0
M  V30 1871 H 168.364 3.66437 -0.10934 0
M  V30 1872 H 168.012 4.51566 2.21578 0
M  V30 1873 H 167.712 5.78913 1.00668 0
M  V30 1874 H 169.236 5.78991 1.93911 0
M  V30 1875 H 170.65 5.72342 -0.331354 0
M  V30 1876 H 169.047 5.89879 -1.10286 0
M  V30 1877 H 170.117 4.57652 -1.60258 0
M  V30 1878 N 171.46 0.379036 1.52974 0
M  V30 1879 C 172.37 -0.468639 2.29872 0
M  V30 1880 C 173.386 -1.08067 1.36373 0
M  V30 1881 O 174.562 -1.08871 1.69438 0
M  V30 1882 C 171.627 -1.58594 3.083 0
M  V30 1883 C 170.688 -1.00007 4.17489 0
M  V30 1884 C 169.921 -2.06413 4.92168 0
M  V30 1885 O 170.144 -3.27751 4.66835 0
M  V30 1886 O 169.078 -1.68717 5.7777 0
M  V30 1887 H 172.904 0.157508 3.03291 0
M  V30 1888 H 170.489 0.143035 1.48714 0
M  V30 1889 H 172.371 -2.23525 3.57232 0
M  V30 1890 H 171.046 -2.19724 2.37703 0
M  V30 1891 H 169.953 -0.314299 3.72777 0
M  V30 1892 H 171.286 -0.433135 4.90291 0
M  V30 1893 N 172.938 -1.57226 0.108567 0
M  V30 1894 C 174.184 -1.95121 -0.552761 0
M  V30 1895 C 174.517 -0.991345 -1.66991 0
M  V30 1896 O 173.792 -0.0267211 -1.94482 0
M  V30 1897 C 174.075 -3.43039 -1.09528 0
M  V30 1898 C 173.928 -4.49797 0.0177332 0
M  V30 1899 C 175.247 -3.92567 -1.98945 0
M  V30 1900 H 172.366 -0.709496 -0.199461 0
M  V30 1901 H 175.008 -1.89126 0.182011 0
M  V30 1902 H 173.158 -3.48279 -1.72146 0
M  V30 1903 H 174.83 -4.56661 0.652584 0
M  V30 1904 H 173.073 -4.284 0.682309 0
M  V30 1905 H 173.744 -5.50528 -0.402919 0
M  V30 1906 H 176.22 -3.89565 -1.46214 0
M  V30 1907 H 175.096 -4.96605 -2.33827 0
M  V30 1908 H 175.357 -3.32648 -2.91201 0
M  V30 1909 N 174.416 0.165178 -1.56732 0
M  V30 1910 C 175.366 1.20917 -1.93295 0
M  V30 1911 C 176.35 1.39488 -0.801985 0
M  V30 1912 O 177.542 1.41356 -1.06525 0
M  V30 1913 C 174.671 2.54718 -2.3016 0
M  V30 1914 C 173.757 2.39815 -3.49785 0
M  V30 1915 N 174.148 1.94637 -4.66851 0
M  V30 1916 C 172.446 2.70623 -3.54513 0
M  V30 1917 C 173.147 1.92344 -5.4898 0
M  V30 1918 N 172.123 2.34978 -4.9019 0
M  V30 1919 H 175.925 0.851675 -2.81289 0
M  V30 1920 H 173.439 0.373399 -1.58049 0
M  V30 1921 H 175.436 3.30165 -2.54552 0
M  V30 1922 H 174.096 2.91265 -1.43508 0
M  V30 1923 H 175.107 1.6488 -4.90953 0
M  V30 1924 H 171.784 3.11167 -2.78354 0
M  V30 1925 H 173.174 1.5906 -6.52801 0
M  V30 1926 N 175.894 1.51508 0.433938 0
M  V30 1927 C 176.841 1.73068 1.52696 0
M  V30 1928 C 177.811 0.572441 1.55924 0
M  V30 1929 O 178.996 0.807253 1.72882 0
M  V30 1930 C 176.136 1.86474 2.90381 0
M  V30 1931 C 175.249 3.14037 2.96656 0
M  V30 1932 C 174.384 3.18019 4.25485 0
M  V30 1933 C 173.423 4.39882 4.2564 0
M  V30 1934 N 172.56 4.41394 5.45999 0
M  V30 1935 H 177.4 2.66366 1.33615 0
M  V30 1936 H 174.937 1.32008 0.649018 0
M  V30 1937 H 176.895 1.92229 3.70275 0
M  V30 1938 H 175.525 0.965809 3.08013 0
M  V30 1939 H 174.577 3.17575 2.09404 0
M  V30 1940 H 175.889 4.0394 2.92633 0
M  V30 1941 H 175.043 3.22708 5.13755 0
M  V30 1942 H 173.782 2.2601 4.3217 0
M  V30 1943 H 172.787 4.35366 3.35763 0
M  V30 1944 H 174.012 5.33159 4.20617 0
M  V30 1945 H 171.958 3.52258 5.53399 0
M  V30 1946 H 171.875 5.25111 5.4387 0
M  V30 1947 H 173.143 4.50281 6.36292 0
M  V30 1948 N 177.372 -0.689602 1.41712 0
M  V30 1949 C 178.319 -1.80345 1.44029 0
M  V30 1950 C 179.289 -1.63478 0.293948 0
M  V30 1951 O 180.474 -1.84244 0.495869 0
M  V30 1952 C 177.614 -3.18272 1.33405 0
M  V30 1953 C 176.727 -3.46529 2.57956 0
M  V30 1954 C 175.862 -4.74103 2.39582 0
M  V30 1955 C 174.901 -4.95347 3.5958 0
M  V30 1956 N 174.038 -6.14151 3.40239 0
M  V30 1957 H 178.878 -1.77698 2.39222 0
M  V30 1958 H 176.415 -0.867688 1.18784 0
M  V30 1959 H 178.373 -3.97956 1.25246 0
M  V30 1960 H 177.003 -3.2008 0.418164 0
M  V30 1961 H 176.055 -2.61207 2.76542 0
M  V30 1962 H 177.367 -3.58126 3.47199 0
M  V30 1963 H 176.521 -5.61853 2.28924 0
M  V30 1964 H 175.26 -4.64763 1.47805 0
M  V30 1965 H 174.265 -4.06044 3.70686 0
M  V30 1966 H 175.49 -5.06542 4.52318 0
M  V30 1967 H 173.436 -6.06013 2.51167 0
M  V30 1968 H 173.353 -6.26543 4.23061 0
M  V30 1969 H 174.621 -7.04619 3.33365 0
M  V30 1970 N 178.85 -1.27639 -0.924453 0
M  V30 1971 C 180.261 -1.12834 -1.48746 0
M  V30 1972 C 180.612 0.285505 -1.94112 0
M  V30 1973 O 179.737 1.17874 -1.81479 0
M  V30 1974 C 180.332 -2.04217 -2.70334 0
M  V30 1975 C 178.891 -1.93509 -3.22848 0
M  V30 1976 C 178.038 -1.96583 -1.95577 0
M  V30 1977 H 180.989 -1.40484 -0.738233 0
M  V30 1978 H 181.01 -1.59989 -3.4523 0
M  V30 1979 H 180.522 -3.07111 -2.37285 0
M  V30 1980 H 178.623 -0.936131 -3.60649 0
M  V30 1981 H 178.736 -2.79917 -3.88823 0
M  V30 1982 H 177.1 -1.4085 -2.12211 0
M  V30 1983 H 177.883 -3.01137 -1.64837 0
M  V30 1984 N 180.328 1.1314 -1.09713 0
M  V30 1985 C 181.258 2.20748 -0.761102 0
M  V30 1986 C 182.239 1.68061 0.262566 0
M  V30 1987 O 183.424 1.93765 0.129977 0
M  V30 1988 C 180.554 3.46812 -0.184054 0
M  V30 1989 C 179.508 4.12606 -1.13757 0
M  V30 1990 C 178.834 5.33031 -0.422083 0
M  V30 1991 C 180.134 4.59603 -2.48118 0
M  V30 1992 H 181.828 2.49113 -1.66082 0
M  V30 1993 H 179.374 1.19734 -0.799987 0
M  V30 1994 H 181.327 4.21353 0.0631215 0
M  V30 1995 H 180.051 3.17851 0.750868 0
M  V30 1996 H 178.71 3.40036 -1.37007 0
M  V30 1997 H 178.358 5.00335 0.517072 0
M  V30 1998 H 178.058 5.77999 -1.05788 0
M  V30 1999 H 179.582 6.10325 -0.183277 0
M  V30 2000 H 180.996 5.25552 -2.29059 0
M  V30 2001 H 179.393 5.15321 -3.07514 0
M  V30 2002 H 180.463 3.73971 -3.08665 0
M  V30 2003 N 181.806 0.884767 1.30421 0
M  V30 2004 C 182.738 0.308655 2.27112 0
M  V30 2005 C 183.751 -0.536655 1.53701 0
M  V30 2006 O 184.94 -0.35624 1.74909 0
M  V30 2007 C 182.04 -0.579782 3.33904 0
M  V30 2008 C 181.213 0.236417 4.36761 0
M  V30 2009 C 180.272 -0.582482 5.22966 0
M  V30 2010 O 179.298 -0.00525502 5.692 0
M  V30 2011 N 180.5 -1.89163 5.48815 0
M  V30 2012 H 183.265 1.13964 2.77186 0
M  V30 2013 H 180.826 0.747731 1.43599 0
M  V30 2014 H 182.818 -1.13366 3.88497 0
M  V30 2015 H 181.388 -1.31144 2.83761 0
M  V30 2016 H 180.608 0.97174 3.82035 0
M  V30 2017 H 181.896 0.795924 5.02536 0
M  V30 2018 H 181.294 -2.38352 5.13035 0
M  V30 2019 H 179.851 -2.39296 6.06284 0
M  V30 2020 N 183.284 -1.43765 0.645699 0
M  V30 2021 C 184.194 -2.34544 -0.0512957 0
M  V30 2022 C 185.21 -1.53455 -0.82022 0
M  V30 2023 O 186.386 -1.86133 -0.769176 0
M  V30 2024 C 183.451 -3.31636 -1.01087 0
M  V30 2025 C 182.512 -4.2863 -0.239712 0
M  V30 2026 C 181.745 -5.21084 -1.15358 0
M  V30 2027 O 181.968 -5.1779 -2.39269 0
M  V30 2028 O 180.902 -5.98593 -0.630038 0
M  V30 2029 H 184.728 -2.95624 0.695718 0
M  V30 2030 H 182.313 -1.43781 0.405882 0
M  V30 2031 H 184.195 -3.9136 -1.56254 0
M  V30 2032 H 182.87 -2.73069 -1.73824 0
M  V30 2033 H 181.777 -3.72408 0.355356 0
M  V30 2034 H 183.11 -4.90157 0.447936 0
M  V30 2035 N 184.763 -0.387143 -1.52771 0
M  V30 2036 C 186.009 0.196025 -2.0185 0
M  V30 2037 C 186.342 1.46641 -1.27319 0
M  V30 2038 O 185.617 1.90889 -0.373032 0
M  V30 2039 C 185.9 0.466136 -3.5707 0
M  V30 2040 C 185.753 -0.819385 -4.42274 0
M  V30 2041 C 187.072 1.25768 -4.21747 0
M  V30 2042 H 184.191 0.0697708 -0.73369 0
M  V30 2043 H 186.833 -0.516286 -1.82851 0
M  V30 2044 H 184.983 1.07293 -3.7339 0
M  V30 2045 H 186.655 -1.4563 -4.37709 0
M  V30 2046 H 184.898 -1.43517 -4.09372 0
M  V30 2047 H 185.569 -0.585065 -5.48891 0
M  V30 2048 H 188.045 0.744167 -4.09391 0
M  V30 2049 H 186.921 1.41541 -5.30337 0
M  V30 2050 H 187.182 2.27228 -3.79236 0
M  V30 2051 N 186.241 1.57166 -0.116904 0
M  V30 2052 C 187.151 2.18745 0.847812 0
M  V30 2053 C 188.167 1.163 1.29423 0
M  V30 2054 O 189.343 1.48761 1.35765 0
M  V30 2055 C 186.408 2.77307 2.0809 0
M  V30 2056 C 185.469 3.94781 1.68661 0
M  V30 2057 C 184.702 4.50541 2.86091 0
M  V30 2058 O 184.925 4.05202 4.01456 0
M  V30 2059 O 183.859 5.41256 2.63298 0
M  V30 2060 H 187.685 3.01632 0.353778 0
M  V30 2061 H 185.27 1.49005 0.108599 0
M  V30 2062 H 187.152 3.14647 2.80313 0
M  V30 2063 H 185.827 1.97452 2.56504 0
M  V30 2064 H 184.734 3.62214 0.935518 0
M  V30 2065 H 186.067 4.76065 1.24991 0
M  V30 2066 N 187.719 -0.156864 1.56817 0
M  V30 2067 C 188.968 -0.869504 1.81996 0
M  V30 2068 C 189.281 -1.82777 0.696545 0
M  V30 2069 O 190.487 -2.58384 0.833658 0
M  V30 2070 C 188.943 -1.59679 3.22538 0
M  V30 2071 C 188.551 -0.681431 4.42787 0
M  V30 2072 C 190.295 -2.2968 3.56997 0
M  V30 2073 C 188.202 -1.40978 5.74351 0
M  V30 2074 H 187.132 -0.328438 0.678708 0
M  V30 2075 H 189.783 -0.1223 1.83092 0
M  V30 2076 H 188.165 -2.38927 3.158 0
M  V30 2077 H 189.339 0.0751166 4.60739 0
M  V30 2078 H 187.654 -0.0903431 4.16302 0
M  V30 2079 H 190.251 -2.84794 4.52544 0
M  V30 2080 H 190.594 -3.05707 2.82576 0
M  V30 2081 H 191.127 -1.57361 3.65352 0
M  V30 2082 H 187.866 -0.691561 6.51842 0
M  V30 2083 H 187.386 -2.13929 5.60352 0
M  V30 2084 H 189.065 -1.95337 6.16808 0
M  V30 2085 N 189.197 -1.51736 -0.425897 0
M  V30 2086 C 190.16 -1.73271 -1.50032 0
M  V30 2087 C 191.16 -0.602639 -1.4908 0
M  V30 2088 O 192.35 -0.87033 -1.509 0
M  V30 2089 C 189.482 -1.79969 -2.89523 0
M  V30 2090 H 190.675 -2.69172 -1.32237 0
M  V30 2091 H 188.228 -1.41899 -0.65532 0
M  V30 2092 H 188.963 -0.859241 -3.1271 0
M  V30 2093 H 188.748 -2.62109 -2.91619 0
M  V30 2094 H 190.238 -1.9843 -3.67444 0
M  V30 2095 N 190.675 0.682077 -1.42076 0
M  V30 2096 C 191.638 1.77756 -1.44691 0
M  V30 2097 C 192.638 1.5726 -0.335535 0
M  V30 2098 O 193.828 1.63686 -0.596037 0
M  V30 2099 C 190.96 3.16301 -1.27146 0
M  V30 2100 H 192.153 1.76826 -2.42224 0
M  V30 2101 H 189.706 0.891012 -1.28416 0
M  V30 2102 H 190.441 3.22862 -0.305075 0
M  V30 2103 H 190.226 3.32581 -2.07683 0
M  V30 2104 H 191.716 3.96241 -1.31843 0
M  V30 2105 N 192.153 1.28127 0.917671 0
M  V30 2106 C 193.402 1.14432 1.66097 0
M  V30 2107 C 193.715 -0.307247 1.93172 0
M  V30 2108 O 194.921 -0.565259 2.65551 0
M  V30 2109 C 193.377 2.00015 2.99202 0
M  V30 2110 C 192.985 3.49889 2.79789 0
M  V30 2111 C 194.729 1.94996 3.77064 0
M  V30 2112 C 192.636 4.27636 4.08511 0
M  V30 2113 H 191.566 0.424662 0.62304 0
M  V30 2114 H 194.217 1.52628 1.01868 0
M  V30 2115 H 192.599 1.54672 3.64544 0
M  V30 2116 H 193.773 4.03162 2.23152 0
M  V30 2117 H 192.088 3.56392 2.15345 0
M  V30 2118 H 194.685 2.50354 4.72469 0
M  V30 2119 H 195.028 0.925819 4.05875 0
M  V30 2120 H 195.561 2.38287 3.18534 0
M  V30 2121 H 192.3 5.30615 3.84874 0
M  V30 2122 H 191.82 3.79137 4.64774 0
M  V30 2123 H 193.499 4.37346 4.76799 0
M  V30 2124 N 193.631 -1.12557 1.10312 0
M  V30 2125 C 194.859 -1.87864 0.866873 0
M  V30 2126 C 195.274 -1.79588 -0.582557 0
M  V30 2127 O 194.631 -1.16887 -1.40156 0
M  V30 2128 C 194.682 -3.37125 1.30496 0
M  V30 2129 O 194.403 -3.45201 2.69755 0
M  V30 2130 C 195.904 -4.29373 1.10243 0
M  V30 2131 H 193.124 -0.594452 0.311236 0
M  V30 2132 H 195.668 -1.42429 1.46745 0
M  V30 2133 H 193.823 -3.80109 0.748081 0
M  V30 2134 H 194.237 -4.38056 2.88457 0
M  V30 2135 H 195.711 -5.32394 1.45811 0
M  V30 2136 H 196.188 -4.39181 0.0409492 0
M  V30 2137 H 196.794 -3.92169 1.64571 0
M  V30 2138 N 195.109 -0.891671 -1.2995 0
M  V30 2139 C 196.059 -0.334811 -2.25528 0
M  V30 2140 C 197.043 0.540553 -1.51548 0
M  V30 2141 O 198.235 0.383882 -1.72787 0
M  V30 2142 C 195.364 0.44374 -3.4042 0
M  V30 2143 C 194.45 -0.44609 -4.21747 0
M  V30 2144 N 194.841 -1.54963 -4.81477 0
M  V30 2145 C 193.139 -0.242415 -4.45341 0
M  V30 2146 C 193.84 -2.10015 -5.42465 0
M  V30 2147 N 192.816 -1.39423 -5.25416 0
M  V30 2148 H 196.618 -1.17792 -2.69262 0
M  V30 2149 H 194.132 -0.741822 -1.44467 0
M  V30 2150 H 196.129 0.859362 -4.07947 0
M  V30 2151 H 194.789 1.28421 -2.98225 0
M  V30 2152 H 195.8 -1.93244 -4.80497 0
M  V30 2153 H 192.477 0.560342 -4.13723 0
M  V30 2154 H 193.867 -3.02724 -5.9984 0
M  V30 2155 N 196.587 1.43421 -0.653314 0
M  V30 2156 C 197.835 2.01414 -0.166415 0
M  V30 2157 C 198.156 1.51803 1.22397 0
M  V30 2158 O 197.426 0.730693 1.81763 0
M  V30 2159 H 196.006 0.744703 -0.0585319 0
M  V30 2160 H 198.668 1.75629 -0.845003 0
M  V30 2161 H 197.764 3.11734 -0.151111 0
M  V30 2162 N 198.065 0.39524 1.52563 0
M  V30 2163 C 199.028 -0.425001 2.25225 0
M  V30 2164 C 200.028 -0.985266 1.27079 0
M  V30 2165 O 201.218 -0.866332 1.5113 0
M  V30 2166 C 198.35 -1.59686 3.01186 0
M  V30 2167 H 199.543 0.211233 2.99155 0
M  V30 2168 H 197.096 0.147472 1.55603 0
M  V30 2169 H 197.831 -2.27035 2.31572 0
M  V30 2170 H 197.616 -1.20176 3.73229 0
M  V30 2171 H 199.106 -2.17743 3.5634 0
M  V30 2172 N 199.544 -1.57102 0.125237 0
M  V30 2173 C 200.474 -2.18659 -0.819174 0
M  V30 2174 C 201.455 -1.12843 -1.27281 0
M  V30 2175 O 202.64 -1.41104 -1.33429 0
M  V30 2176 C 199.77 -2.79096 -2.06695 0
M  V30 2177 C 198.724 -3.90548 -1.75088 0
M  V30 2178 C 198.05 -4.37821 -3.06948 0
M  V30 2179 C 199.35 -5.12356 -1.01435 0
M  V30 2180 H 201.044 -2.9783 -0.306202 0
M  V30 2181 H 198.59 -1.4326 -0.145839 0
M  V30 2182 H 200.543 -3.2082 -2.73226 0
M  V30 2183 H 199.267 -1.97223 -2.60328 0
M  V30 2184 H 197.926 -3.49409 -1.10944 0
M  V30 2185 H 197.574 -3.52799 -3.58527 0
M  V30 2186 H 197.274 -5.12982 -2.86571 0
M  V30 2187 H 198.798 -4.822 -3.74587 0
M  V30 2188 H 200.212 -5.5106 -1.58132 0
M  V30 2189 H 198.609 -5.9314 -0.911319 0
M  V30 2190 H 199.679 -4.849 -0.00218681 0
M  V30 2191 N 201.022 0.148545 -1.56898 0
M  V30 2192 C 201.954 1.20852 -1.9475 0
M  V30 2193 C 202.967 1.39265 -0.843152 0
M  V30 2194 O 204.156 1.38864 -1.12156 0
M  V30 2195 C 201.256 2.57362 -2.20495 0
M  V30 2196 C 200.429 2.59947 -3.51776 0
M  V30 2197 C 199.488 3.77984 -3.6608 0
M  V30 2198 O 198.514 3.62929 -4.38487 0
M  V30 2199 N 199.716 4.95375 -3.02629 0
M  V30 2200 H 202.481 0.886804 -2.86279 0
M  V30 2201 H 200.042 0.338121 -1.5833 0
M  V30 2202 H 202.034 3.34833 -2.27307 0
M  V30 2203 H 200.604 2.81832 -1.35238 0
M  V30 2204 H 199.824 1.68403 -3.56419 0
M  V30 2205 H 201.112 2.58704 -4.38121 0
M  V30 2206 H 200.51 5.10509 -2.43715 0
M  V30 2207 H 199.067 5.70627 -3.15004 0
M  V30 2208 N 202.5 1.5196 0.417844 0
M  V30 2209 C 203.748 1.65263 1.16329 0
M  V30 2210 C 204.069 0.380634 1.91249 0
M  V30 2211 O 203.339 -0.604214 1.86349 0
M  V30 2212 H 201.919 0.60912 0.432414 0
M  V30 2213 H 204.581 1.88969 0.477162 0
M  V30 2214 H 203.677 2.4896 1.88217 0
M  V30 2215 N 203.978 -0.674533 1.42435 0
M  V30 2216 C 204.908 -1.80009 1.48724 0
M  V30 2217 C 205.889 -1.6659 0.343793 0
M  V30 2218 O 207.074 -1.86007 0.558137 0
M  V30 2219 C 204.204 -3.18306 1.38919 0
M  V30 2220 C 203.158 -3.46461 2.51294 0
M  V30 2221 C 202.484 -4.84335 2.26547 0
M  V30 2222 C 203.784 -3.43328 3.93603 0
M  V30 2223 H 205.478 -1.75004 2.42928 0
M  V30 2224 H 203.024 -0.840533 1.16923 0
M  V30 2225 H 204.977 -3.9678 1.41927 0
M  V30 2226 H 203.701 -3.2399 0.412094 0
M  V30 2227 H 202.36 -2.70348 2.47604 0
M  V30 2228 H 202.008 -4.86669 1.2713 0
M  V30 2229 H 201.708 -5.04136 3.01861 0
M  V30 2230 H 203.232 -5.65094 2.31304 0
M  V30 2231 H 204.646 -4.11772 3.98894 0
M  V30 2232 H 203.043 -3.74664 4.68771 0
M  V30 2233 H 204.113 -2.41897 4.20255 0
M  V30 2234 N 205.456 -1.28612 -0.910864 0
M  V30 2235 C 206.419 -1.12803 -1.9952 0
M  V30 2236 C 207.419 -0.0668264 -1.60661 0
M  V30 2237 O 208.609 -0.312847 -1.71368 0
M  V30 2238 C 205.741 -0.72254 -3.33155 0
M  V30 2239 H 206.934 -2.09109 -2.14973 0
M  V30 2240 H 204.487 -1.11639 -1.09391 0
M  V30 2241 H 205.222 0.241152 -3.23402 0
M  V30 2242 H 205.007 -1.48916 -3.62721 0
M  V30 2243 H 206.497 -0.634666 -4.12749 0
M  V30 2244 N 206.934 1.1197 -1.10907 0
M  V30 2245 C 208.164 1.8713 -0.875553 0
M  V30 2246 C 208.572 1.8016 0.577843 0
M  V30 2247 O 207.915 1.17699 1.41042 0
M  V30 2248 C 207.977 3.37005 -1.2517 0
M  V30 2249 C 207.641 3.67748 -2.71313 0
M  V30 2250 C 208.638 3.65698 -3.69542 0
M  V30 2251 C 206.323 3.96928 -3.07821 0
M  V30 2252 C 208.317 3.92395 -5.023 0
M  V30 2253 C 206.004 4.23284 -4.40765 0
M  V30 2254 C 207.002 4.21005 -5.37814 0
M  V30 2255 O 206.69 4.46704 -6.68364 0
M  V30 2256 H 206.422 0.598786 -0.313737 0
M  V30 2257 H 208.976 1.42568 -1.47863 0
M  V30 2258 H 207.206 3.82146 -0.591741 0
M  V30 2259 H 208.895 3.93519 -0.994877 0
M  V30 2260 H 209.661 3.43211 -3.42682 0
M  V30 2261 H 205.54 3.97841 -2.32902 0
M  V30 2262 H 209.084 3.90531 -5.78041 0
M  V30 2263 H 204.981 4.45246 -4.67361 0
M  V30 2264 H 205.749 4.64299 -6.74069 0
M  V30 2265 N 208.412 0.89855 1.29475 0
M  V30 2266 C 209.342 0.39201 2.30186 0
M  V30 2267 C 210.323 -0.532359 1.61555 0
M  V30 2268 O 211.508 -0.443331 1.89072 0
M  V30 2269 C 208.638 -0.382353 3.45189 0
M  V30 2270 C 207.592 0.451483 4.25612 0
M  V30 2271 C 206.918 -0.450307 5.328 0
M  V30 2272 C 208.218 1.70079 4.93832 0
M  V30 2273 H 209.912 1.23362 2.72804 0
M  V30 2274 H 207.458 0.594638 1.31149 0
M  V30 2275 H 209.411 -0.747451 4.14718 0
M  V30 2276 H 208.135 -1.25774 3.01411 0
M  V30 2277 H 206.794 0.798897 3.57789 0
M  V30 2278 H 206.442 -1.32379 4.85268 0
M  V30 2279 H 206.142 0.103902 5.87508 0
M  V30 2280 H 207.666 -0.811623 6.05182 0
M  V30 2281 H 209.08 1.40549 5.55805 0
M  V30 2282 H 207.477 2.19623 5.58467 0
M  V30 2283 H 208.547 2.43744 4.19186 0
M  V30 2284 N 209.89 -1.43072 0.660911 0
M  V30 2285 C 210.84 -2.27948 -0.04847 0
M  V30 2286 C 211.824 -1.40325 -0.787246 0
M  V30 2287 O 213.016 -1.63893 -0.668446 0
M  V30 2288 C 210.145 -3.28143 -1.00881 0
M  V30 2289 C 209.231 -4.23252 -0.268108 0
M  V30 2290 N 209.622 -5.00656 0.719528 0
M  V30 2291 C 207.92 -4.43092 -0.508493 0
M  V30 2292 C 208.621 -5.70019 1.15988 0
M  V30 2293 N 207.597 -5.41364 0.492584 0
M  V30 2294 H 211.399 -2.85213 0.709279 0
M  V30 2295 H 208.913 -1.54869 0.488822 0
M  V30 2296 H 210.91 -3.87736 -1.53188 0
M  V30 2297 H 209.57 -2.7244 -1.76654 0
M  V30 2298 H 210.581 -5.06115 1.09855 0
M  V30 2299 H 207.258 -3.98449 -1.24679 0
M  V30 2300 H 208.648 -6.4214 1.97751 0
M  V30 2301 N 211.368 -0.403325 -1.52352 0
M  V30 2302 C 212.593 0.176499 -2.06648 0
M  V30 2303 C 213.018 1.38577 -1.27193 0
M  V30 2304 O 212.376 1.7879 -0.300637 0
M  V30 2305 C 212.424 0.511061 -3.5696 0
M  V30 2306 O 211.528 1.60294 -3.79973 0
M  V30 2307 H 210.869 0.0167337 -0.663789 0
M  V30 2308 H 213.399 -0.574848 -1.96359 0
M  V30 2309 H 213.409 0.771362 -4.00642 0
M  V30 2310 H 212.084 -0.37296 -4.14224 0
M  V30 2311 H 210.661 1.33526 -3.48174 0
M  V30 2312 N 212.846 1.57033 -0.133567 0
M  V30 2313 C 213.796 2.12641 0.822671 0
M  V30 2314 C 214.78 1.05081 1.21847 0
M  V30 2315 O 215.972 1.31287 1.18713 0
M  V30 2316 C 213.101 2.74094 2.06706 0
M  V30 2317 C 212.187 3.88757 1.69497 0
M  V30 2318 N 212.578 4.95194 1.03037 0
M  V30 2319 C 210.876 3.99213 1.98859 0
M  V30 2320 C 211.577 5.75414 0.852873 0
M  V30 2321 N 210.553 5.25726 1.3825 0
M  V30 2322 H 214.355 2.92308 0.305537 0
M  V30 2323 H 211.869 1.62256 0.0684276 0
M  V30 2324 H 213.866 3.12285 2.76195 0
M  V30 2325 H 212.526 1.95896 2.5895 0
M  V30 2326 H 213.537 5.13247 0.692669 0
M  V30 2327 H 210.214 3.32075 2.53047 0
M  V30 2328 H 211.604 6.71089 0.330091 0
M  V30 2329 N 214.325 -0.140222 1.56975 0
M  V30 2330 C 215.553 -0.866437 1.87884 0
M  V30 2331 C 215.968 -1.74428 0.722517 0
M  V30 2332 O 215.325 -1.79891 -0.30749 0
M  V30 2333 C 215.376 -1.71753 3.18093 0
M  V30 2334 O 215.097 -0.875056 4.29272 0
M  V30 2335 C 216.598 -2.55074 3.62563 0
M  V30 2336 H 213.818 -0.25019 0.622612 0
M  V30 2337 H 216.362 -0.130977 2.0408 0
M  V30 2338 H 214.517 -2.40598 3.03631 0
M  V30 2339 H 214.931 -1.46002 5.03769 0
M  V30 2340 H 216.405 -3.10356 4.5649 0
M  V30 2341 H 216.882 -3.31434 2.88181 0
M  V30 2342 H 217.488 -1.91509 3.79743 0
M  V30 2343 N 215.803 -1.52179 -0.40978 0
M  V30 2344 C 216.736 -1.70196 -1.52015 0
M  V30 2345 C 217.714 -0.549542 -1.53032 0
M  V30 2346 O 218.898 -0.776815 -1.71749 0
M  V30 2347 C 216.025 -1.74069 -2.90547 0
M  V30 2348 C 215.071 -2.95601 -3.07445 0
M  V30 2349 S 215.904 -4.55956 -2.80827 0
M  V30 2350 C 217.06 -4.62614 -4.21591 0
M  V30 2351 H 217.293 -2.64109 -1.36504 0
M  V30 2352 H 214.826 -1.4221 -0.601312 0
M  V30 2353 H 216.784 -1.76985 -3.70387 0
M  V30 2354 H 215.445 -0.812835 -3.034 0
M  V30 2355 H 214.638 -2.94791 -4.08796 0
M  V30 2356 H 214.24 -2.90569 -2.35469 0
M  V30 2357 H 216.532 -4.39951 -5.15218 0
M  V30 2358 H 217.475 -5.64548 -4.27424 0
M  V30 2359 H 217.883 -3.91654 -4.06531 0
M  V30 2360 N 217.281 0.66697 -1.42791 0
M  V30 2361 C 218.53 1.42278 -1.42968 0
M  V30 2362 C 218.843 1.9553 -0.0524489 0
M  V30 2363 O 220.049 2.71414 0.068363 0
M  V30 2364 C 218.505 2.57418 -2.51524 0
M  V30 2365 C 218.113 2.10832 -3.9529 0
M  V30 2366 C 219.857 3.34878 -2.60877 0
M  V30 2367 C 217.764 3.23101 -4.95338 0
M  V30 2368 H 216.694 0.534533 -0.531781 0
M  V30 2369 H 219.345 0.721302 -1.68729 0
M  V30 2370 H 217.727 3.29971 -2.18941 0
M  V30 2371 H 218.901 1.4538 -4.37266 0
M  V30 2372 H 217.216 1.46289 -3.89857 0
M  V30 2373 H 219.813 4.18505 -3.32802 0
M  V30 2374 H 220.156 3.81993 -1.6549 0
M  V30 2375 H 220.689 2.69398 -2.92693 0
M  V30 2376 H 217.428 2.80969 -5.9223 0
M  V30 2377 H 216.948 3.87309 -4.57987 0
M  V30 2378 H 218.627 3.88447 -5.17415 0
M  V30 2379 N 218.759 1.29093 0.90403 0
M  V30 2380 C 219.709 1.10482 1.99443 0
M  V30 2381 C 220.693 0.0255401 1.6088 0
M  V30 2382 O 221.885 0.24677 1.75271 0
M  V30 2383 C 219.014 0.778882 3.34348 0
M  V30 2384 C 218.1 1.89749 3.79284 0
M  V30 2385 N 218.491 3.14045 3.96497 0
M  V30 2386 C 216.789 1.78955 4.08523 0
M  V30 2387 C 217.49 3.86996 4.34292 0
M  V30 2388 N 216.466 3.14909 4.43095 0
M  V30 2389 H 220.268 2.04778 2.10815 0
M  V30 2390 H 217.782 1.20155 1.09255 0
M  V30 2391 H 219.779 0.62661 4.12164 0
M  V30 2392 H 218.439 -0.156205 3.24324 0
M  V30 2393 H 219.45 3.49548 3.82148 0
M  V30 2394 H 216.127 0.926886 4.07081 0
M  V30 2395 H 217.517 4.93941 4.55491 0
M  V30 2396 N 220.237 -1.11381 1.11499 0
M  V30 2397 C 221.653 -1.35143 0.849031 0
M  V30 2398 C 221.853 -1.94515 -0.525938 0
M  V30 2399 O 220.909 -2.1785 -1.27662 0
M  V30 2400 C 222.222 -2.28249 1.95762 0
M  V30 2401 C 223.77 -2.41812 1.98736 0
M  V30 2402 C 224.245 -3.3824 3.088 0
M  V30 2403 N 225.736 -3.45803 3.08179 0
M  V30 2404 C 226.471 -4.20358 3.89982 0
M  V30 2405 N 225.967 -4.97884 4.8175 0
M  V30 2406 N 227.76 -4.15877 3.78157 0
M  V30 2407 H 219.911 -0.712062 2.00109 0
M  V30 2408 H 222.174 -0.376025 0.870235 0
M  V30 2409 H 221.88 -1.91817 2.94787 0
M  V30 2410 H 221.754 -3.28473 1.85433 0
M  V30 2411 H 224.141 -2.77518 1.00338 0
M  V30 2412 H 224.222 -1.41437 2.13141 0
M  V30 2413 H 223.866 -3.03261 4.07425 0
M  V30 2414 H 223.796 -4.38471 2.91635 0
M  V30 2415 H 226.287 -2.90506 2.41691 0
M  V30 2416 H 226.6 -5.52142 5.40702 0
M  V30 2417 H 224.945 -4.97043 4.85771 0
M  V30 2418 H 228.136 -3.544 3.05808 0
M  V30 2419 H 228.309 -4.73723 4.42143 0
M  V30 2420 N 221.715 -0.905404 -1.28997 0
M  V30 2421 C 222.992 -0.453513 -1.9027 0
M  V30 2422 C 223.372 1.06721 -1.82137 0
M  V30 2423 O 222.72 1.91159 -1.25182 0
M  V30 2424 C 222.93 -0.974494 -3.35119 0
M  V30 2425 C 224.278 -1.0216 -4.12127 0
M  V30 2426 O 225.302 -0.922557 -3.44046 0
M  V30 2427 O 224.161 -1.17121 -5.33802 0
M  V30 2428 H 221.255 -0.142347 -0.814657 0
M  V30 2429 H 223.801 -0.995642 -1.37423 0
M  V30 2430 H 222.573 -2.01848 -3.35221 0
M  V30 2431 H 222.196 -0.412706 -3.95452 0
M  V30 2432 N 223.193 1.4272 -0.668489 0
M  V30 2433 C 224.442 2.00846 -0.185389 0
M  V30 2434 C 224.755 1.53442 1.21305 0
M  V30 2435 O 225.961 2.03944 1.79218 0
M  V30 2436 C 224.417 3.58805 -0.280591 0
M  V30 2437 C 224.025 4.15198 -1.68268 0
M  V30 2438 C 225.769 4.24255 0.14412 0
M  V30 2439 C 223.676 5.655 -1.73099 0
M  V30 2440 H 222.606 0.751145 -0.0655475 0
M  V30 2441 H 225.257 1.63516 -0.832752 0
M  V30 2442 H 223.639 3.93608 0.434553 0
M  V30 2443 H 224.813 3.91866 -2.42441 0
M  V30 2444 H 223.128 3.62176 -2.05469 0
M  V30 2445 H 225.725 5.34547 0.128086 0
M  V30 2446 H 226.068 3.99277 1.17827 0
M  V30 2447 H 226.601 3.94389 -0.519798 0
M  V30 2448 H 223.34 5.95268 -2.74475 0
M  V30 2449 H 222.86 5.90842 -1.03274 0
M  V30 2450 H 224.539 6.29808 -1.48158 0
M  V30 2451 N 224.671 0.411399 1.52136 0
M  V30 2452 C 225.618 -0.412975 2.27075 0
M  V30 2453 C 226.588 -1.03912 1.29582 0
M  V30 2454 O 227.773 -1.06296 1.58448 0
M  V30 2455 C 224.913 -1.52247 3.09701 0
M  V30 2456 C 224.026 -0.917021 4.22155 0
M  V30 2457 C 223.161 -1.9994 4.92135 0
M  V30 2458 C 222.2 -1.37101 5.96548 0
M  V30 2459 N 221.337 -2.39364 6.60038 0
M  V30 2460 H 226.177 0.232499 2.97092 0
M  V30 2461 H 223.714 0.126496 1.46555 0
M  V30 2462 H 225.672 -2.17674 3.55913 0
M  V30 2463 H 224.302 -2.13794 2.41851 0
M  V30 2464 H 223.354 -0.151742 3.80097 0
M  V30 2465 H 224.666 -0.418006 4.97045 0
M  V30 2466 H 223.82 -2.73088 5.41763 0
M  V30 2467 H 222.559 -2.53208 4.16818 0
M  V30 2468 H 221.564 -0.624873 5.46237 0
M  V30 2469 H 222.789 -0.845998 6.7381 0
M  V30 2470 H 220.735 -2.91759 5.87548 0
M  V30 2471 H 220.652 -1.9428 7.3061 0
M  V30 2472 H 221.92 -3.12074 7.14304 0
M  V30 2473 N 226.149 -1.5696 0.141893 0
M  V30 2474 C 227.112 -2.15316 -0.785587 0
M  V30 2475 C 228.112 -1.09366 -1.1788 0
M  V30 2476 O 229.302 -1.35031 -1.10056 0
M  V30 2477 C 226.434 -2.71211 -2.06537 0
M  V30 2478 H 227.627 -2.98608 -0.278041 0
M  V30 2479 H 225.18 -1.5593 -0.107519 0
M  V30 2480 H 225.915 -1.91571 -2.6167 0
M  V30 2481 H 225.7 -3.4872 -1.79268 0
M  V30 2482 H 227.19 -3.16189 -2.72789 0
M  V30 2483 N 227.627 0.131896 -1.57047 0
M  V30 2484 C 228.875 0.840269 -1.83804 0
M  V30 2485 C 229.196 1.81017 -0.72512 0
M  V30 2486 O 228.466 1.94272 0.251995 0
M  V30 2487 H 227.046 0.313294 -0.678127 0
M  V30 2488 H 229.708 0.122294 -1.94516 0
M  V30 2489 H 228.804 1.39335 -2.79271 0
M  V30 2490 N 229.106 1.52395 0.401703 0
M  V30 2491 C 230.054 1.7689 1.51039 0
M  V30 2492 C 231.048 0.636298 1.56996 0
M  V30 2493 O 232.254 0.818507 1.60314 0
M  V30 2494 H 228.629 0.559502 0.502456 0
M  V30 2495 H 230.6 2.69757 1.27568 0
M  V30 2496 C 229.349 1.94331 2.88324 0
M  V30 2497 H 228.672 2.80905 2.84486 0
M  V30 2498 H 230.112 2.15466 3.65172 0
M  V30 2499 C 228.571 0.712396 3.29282 0
M  V30 2500 O 229.101 -0.116218 4.01532 0
M  V30 2501 N 227.307 0.546154 2.85422 0
M  V30 2502 H 226.854 1.22156 2.26794 0
M  V30 2503 H 226.812 -0.276113 3.13185 0
M  V30 2504 N 230.584 -0.659388 1.43143 0
M  V30 2505 C 231.833 -1.41518 1.43721 0
M  V30 2506 C 232.146 -1.95499 0.0628176 0
M  V30 2507 O 233.352 -2.71446 -0.0539683 0
M  V30 2508 C 231.808 -2.5608 2.52885 0
M  V30 2509 C 231.416 -2.08733 3.96402 0
M  V30 2510 C 233.16 -3.3349 2.62649 0
M  V30 2511 C 231.067 -3.20469 4.97045 0
M  V30 2512 H 229.997 -0.531705 0.534608 0
M  V30 2513 H 232.648 -0.712343 1.69109 0
M  V30 2514 H 231.03 -3.28805 2.20688 0
M  V30 2515 H 232.204 -1.43059 4.3803 0
M  V30 2516 H 230.519 -1.44219 3.90627 0
M  V30 2517 H 233.116 -4.16734 3.35017 0
M  V30 2518 H 233.459 -3.8111 1.67513 0
M  V30 2519 H 233.992 -2.67842 2.94118 0
M  V30 2520 H 230.731 -2.77824 5.93712 0
M  V30 2521 H 230.251 -3.84874 4.60034 0
M  V30 2522 H 231.93 -3.85698 5.19467 0
M  V30 2523 N 232.062 -1.29571 -0.897171 0
M  V30 2524 C 232.992 -1.17473 -2.01798 0
M  V30 2525 C 233.973 -0.068323 -1.69963 0
M  V30 2526 O 235.158 -0.248239 -1.92607 0
M  V30 2527 C 232.288 -0.853099 -3.36659 0
M  V30 2528 C 231.242 -1.9161 -3.82713 0
M  V30 2529 C 230.568 -1.44773 -5.14728 0
M  V30 2530 C 231.868 -3.32535 -4.02763 0
M  V30 2531 H 233.562 -2.11237 -2.12177 0
M  V30 2532 H 231.108 -1.01699 -1.01948 0
M  V30 2533 H 233.061 -0.755165 -4.14578 0
M  V30 2534 H 231.785 0.120236 -3.26379 0
M  V30 2535 H 230.444 -2.00346 -3.07013 0
M  V30 2536 H 230.092 -0.462995 -5.00865 0
M  V30 2537 H 229.792 -2.15865 -5.46513 0
M  V30 2538 H 231.316 -1.36334 -5.95185 0
M  V30 2539 H 232.73 -3.26626 -4.71156 0
M  V30 2540 H 231.127 -4.01607 -4.45905 0
M  V30 2541 H 232.197 -3.75326 -3.07016 0
M  V30 2542 N 233.54 1.10788 -1.12088 0
M  V30 2543 C 234.47 2.19083 -0.807755 0
M  V30 2544 C 235.451 1.6858 0.226859 0
M  V30 2545 O 236.636 1.93997 0.0888475 0
M  V30 2546 C 233.766 3.46344 -0.257576 0
M  V30 2547 C 232.72 4.101 -1.22483 0
M  V30 2548 C 232.046 5.32016 -0.535052 0
M  V30 2549 C 233.346 4.54236 -2.57811 0
M  V30 2550 H 235.04 2.45534 -1.71328 0
M  V30 2551 H 232.586 1.1801 -0.825205 0
M  V30 2552 H 234.539 4.21392 -0.0262679 0
M  V30 2553 H 233.263 3.19373 0.683278 0
M  V30 2554 H 231.922 3.37054 -1.44189 0
M  V30 2555 H 231.57 5.01319 0.410827 0
M  V30 2556 H 231.27 5.75625 -1.18024 0
M  V30 2557 H 232.794 6.09799 -0.312695 0
M  V30 2558 H 234.208 5.20575 -2.40155 0
M  V30 2559 H 232.605 5.08682 -3.18375 0
M  V30 2560 H 233.675 3.6734 -3.16528 0
M  V30 2561 N 235.018 0.912232 1.28515 0
M  V30 2562 C 236.246 0.560416 1.99166 0
M  V30 2563 C 236.661 -0.857927 1.68182 0
M  V30 2564 O 236.018 -1.56805 0.933733 0
M  V30 2565 C 236.069 0.758142 3.53461 0
M  V30 2566 O 235.79 2.12067 3.83352 0
M  V30 2567 C 237.291 0.412954 4.41372 0
M  V30 2568 H 234.511 0.213805 0.636026 0
M  V30 2569 H 237.055 1.22502 1.63749 0
M  V30 2570 H 235.21 0.140556 3.87145 0
M  V30 2571 H 235.624 2.15923 4.77993 0
M  V30 2572 H 237.098 0.60208 5.48707 0
M  V30 2573 H 237.575 -0.65073 4.34353 0
M  V30 2574 H 238.181 1.00802 4.13182 0
M  V30 2575 N 236.496 -1.42363 0.676048 0
M  V30 2576 C 237.406 -2.346 -0.00153389 0
M  V30 2577 C 238.422 -1.5516 -0.787485 0
M  V30 2578 O 239.598 -1.87723 -0.729521 0
M  V30 2579 C 236.663 -3.33705 -0.940298 0
M  V30 2580 C 235.724 -4.29042 -0.148739 0
M  V30 2581 C 234.957 -5.23413 -1.04279 0
M  V30 2582 O 235.18 -5.22749 -2.28232 0
M  V30 2583 O 234.114 -5.99795 -0.502925 0
M  V30 2584 H 237.94 -2.94082 0.758268 0
M  V30 2585 H 235.525 -1.42888 0.436289 0
M  V30 2586 H 237.407 -3.94586 -1.47917 0
M  V30 2587 H 236.082 -2.76695 -1.67993 0
M  V30 2588 H 234.989 -3.71571 0.43427 0
M  V30 2589 H 236.322 -4.89097 0.551805 0
M  V30 2590 N 237.974 -0.419461 -1.51915 0
M  V30 2591 C 239.385 0.0477853 -1.86639 0
M  V30 2592 C 239.736 1.43531 -1.33766 0
M  V30 2593 O 238.861 2.05401 -0.68113 0
M  V30 2594 C 239.456 0.0934885 -3.38671 0
M  V30 2595 C 238.015 0.505097 -3.72996 0
M  V30 2596 C 237.162 -0.313792 -2.75519 0
M  V30 2597 H 240.113 -0.636088 -1.45395 0
M  V30 2598 H 240.134 0.906667 -3.6954 0
M  V30 2599 H 239.646 -0.916501 -3.77123 0
M  V30 2600 H 237.747 1.52135 -3.40126 0
M  V30 2601 H 237.86 0.242309 -4.78487 0
M  V30 2602 H 236.224 0.225363 -2.53701 0
M  V30 2603 H 237.007 -1.32232 -3.16812 0
M  V30 2604 N 239.452 1.56882 -0.150215 0
M  V30 2605 C 240.7 1.9584 0.499105 0
M  V30 2606 C 241.021 1.03623 1.65188 0
M  V30 2607 O 240.291 0.0984084 1.95653 0
M  V30 2608 H 238.871 0.723119 0.187373 0
M  V30 2609 H 241.533 1.9358 -0.226466 0
M  V30 2610 H 240.629 2.99638 0.873122 0
M  V30 2611 N 240.93 -0.123565 1.57115 0
M  V30 2612 C 241.862 -1.17739 1.96648 0
M  V30 2613 C 242.875 -1.37906 0.865201 0
M  V30 2614 O 244.064 -1.37062 1.14351 0
M  V30 2615 C 241.164 -2.53821 2.24562 0
M  V30 2616 C 240.337 -2.54317 3.55867 0
M  V30 2617 C 239.396 -3.72112 3.72047 0
M  V30 2618 O 238.422 -3.55907 4.44206 0
M  V30 2619 N 239.624 -4.90498 3.10471 0
M  V30 2620 H 242.389 -0.841147 2.87654 0
M  V30 2621 H 239.95 -0.31289 1.58848 0
M  V30 2622 H 241.942 -3.31175 2.32606 0
M  V30 2623 H 240.512 -2.79645 1.39705 0
M  V30 2624 H 239.732 -1.62711 3.59053 0
M  V30 2625 H 241.02 -2.51701 4.42181 0
M  V30 2626 H 240.418 -5.06567 2.51806 0
M  V30 2627 H 238.975 -5.65544 3.24043 0
M  V30 2628 N 242.408 -1.52605 -0.393616 0
M  V30 2629 C 243.654 -1.67672 -1.14079 0
M  V30 2630 C 243.987 -0.413121 -1.89755 0
M  V30 2631 O 243.262 0.588952 -1.85369 0
M  V30 2632 C 243.545 -2.9088 -2.12276 0
M  V30 2633 C 243.398 -4.27329 -1.40394 0
M  V30 2634 C 244.717 -3.09628 -3.12759 0
M  V30 2635 H 241.836 -0.610168 -0.413356 0
M  V30 2636 H 244.478 -1.85193 -0.424696 0
M  V30 2637 H 242.628 -2.76073 -2.73342 0
M  V30 2638 H 244.3 -4.53894 -0.82327 0
M  V30 2639 H 242.543 -4.2802 -0.705801 0
M  V30 2640 H 243.214 -5.09615 -2.12123 0
M  V30 2641 H 245.69 -3.23436 -2.61779 0
M  V30 2642 H 244.566 -3.97322 -3.78717 0
M  V30 2643 H 244.827 -2.23637 -3.81365 0
M  V30 2644 N 243.887 0.651787 -1.4349 0
M  V30 2645 C 244.834 1.76462 -1.4876 0
M  V30 2646 C 245.804 1.62641 -0.337189 0
M  V30 2647 O 246.989 1.82864 -0.544544 0
M  V30 2648 C 244.129 3.14623 -1.41796 0
M  V30 2649 C 243.242 3.39568 -2.67053 0
M  V30 2650 C 242.377 4.67585 -2.52068 0
M  V30 2651 C 241.416 4.85639 -3.72587 0
M  V30 2652 N 240.553 6.04915 -3.56402 0
M  V30 2653 H 245.393 1.71293 -2.43849 0
M  V30 2654 H 242.93 0.835889 -1.21043 0
M  V30 2655 H 244.888 3.94496 -1.35753 0
M  V30 2656 H 243.518 3.18859 -0.50288 0
M  V30 2657 H 242.57 2.53783 -2.8337 0
M  V30 2658 H 243.882 3.48795 -3.56572 0
M  V30 2659 H 243.036 5.55586 -2.4374 0
M  V30 2660 H 241.775 4.60681 -1.60075 0
M  V30 2661 H 240.78 3.96073 -3.81321 0
M  V30 2662 H 242.005 4.94372 -4.65589 0
M  V30 2663 H 239.951 5.9914 -2.67146 0
M  V30 2664 H 239.868 6.15106 -4.39524 0
M  V30 2665 H 241.136 6.95533 -3.51929 0
M  V30 2666 N 245.365 1.30045 0.890287 0
M  V30 2667 C 246.295 1.18541 2.01172 0
M  V30 2668 C 247.276 0.0773356 1.69924 0
M  V30 2669 O 248.461 0.25845 1.92473 0
M  V30 2670 C 245.591 0.870941 3.36202 0
M  V30 2671 C 244.545 1.93637 3.81692 0
M  V30 2672 C 243.871 1.475 5.13953 0
M  V30 2673 C 245.171 3.34666 4.00994 0
M  V30 2674 H 246.865 2.12359 2.11054 0
M  V30 2675 H 244.411 1.02238 1.01407 0
M  V30 2676 H 246.364 0.777141 4.14172 0
M  V30 2677 H 245.088 -0.102926 3.26438 0
M  V30 2678 H 243.747 2.01972 3.05946 0
M  V30 2679 H 243.395 0.489551 5.00612 0
M  V30 2680 H 243.095 2.1876 5.4536 0
M  V30 2681 H 244.619 1.39489 5.94454 0
M  V30 2682 H 246.033 3.2912 4.69417 0
M  V30 2683 H 244.43 4.03966 4.43769 0
M  V30 2684 H 245.5 3.76949 3.05021 0
M  V30 2685 N 246.843 -1.10192 1.12674 0
M  V30 2686 C 247.806 -2.14786 0.799979 0
M  V30 2687 C 248.806 -1.59711 -0.18685 0
M  V30 2688 O 249.996 -1.74156 0.0392558 0
M  V30 2689 C 247.128 -3.40374 0.189228 0
M  V30 2690 H 248.321 -2.45203 1.72671 0
M  V30 2691 H 245.874 -1.25597 0.930326 0
M  V30 2692 H 246.609 -3.15577 -0.747107 0
M  V30 2693 H 246.394 -3.81637 0.899766 0
M  V30 2694 H 247.884 -4.17594 -0.0228143 0
M  V30 2695 N 248.321 -0.919034 -1.28029 0
M  V30 2696 C 249.598 -0.473668 -1.89778 0
M  V30 2697 C 249.978 1.04783 -1.83259 0
M  V30 2698 O 249.326 1.8982 -1.27202 0
M  V30 2699 C 249.536 -1.00998 -3.34066 0
M  V30 2700 C 250.884 -1.06525 -4.1102 0
M  V30 2701 O 251.908 -0.958996 -3.43048 0
M  V30 2702 O 250.767 -1.22776 -5.3253 0
M  V30 2703 H 247.861 -0.15098 -0.813101 0
M  V30 2704 H 250.407 -1.01016 -1.36359 0
M  V30 2705 H 249.179 -2.05392 -3.33061 0
M  V30 2706 H 248.802 -0.454626 -3.94992 0
M  V30 2707 N 249.799 1.42003 -0.683588 0
M  V30 2708 C 251.046 2.01413 -0.209514 0
M  V30 2709 C 251.374 1.54088 1.1869 0
M  V30 2710 O 250.629 0.737591 1.81268 0
M  V30 2711 C 250.928 3.56827 -0.202357 0
M  V30 2712 C 250.594 4.23617 -1.54464 0
M  V30 2713 C 249.256 4.41577 -1.91215 0
M  V30 2714 C 251.608 4.61178 -2.42826 0
M  V30 2715 C 248.936 4.9437 -3.15935 0
M  V30 2716 C 251.288 5.15355 -3.66867 0
M  V30 2717 C 249.952 5.31528 -4.03776 0
M  V30 2718 H 249.222 0.737023 -0.0766668 0
M  V30 2719 H 251.869 1.70067 -0.880312 0
M  V30 2720 H 250.174 3.87892 0.551969 0
M  V30 2721 H 251.871 4.00588 0.181793 0
M  V30 2722 H 248.461 4.10004 -1.24877 0
M  V30 2723 H 252.645 4.46968 -2.15717 0
M  V30 2724 H 247.901 5.05076 -3.44541 0
M  V30 2725 H 252.075 5.43402 -4.35531 0
M  V30 2726 H 249.702 5.72199 -5.00492 0
M  V30 2727 N 251.277 0.427512 1.51691 0
M  V30 2728 C 252.525 -0.141948 2.01601 0
M  V30 2729 C 252.846 -1.44067 1.31414 0
M  V30 2730 O 252.116 -1.90763 0.445658 0
M  V30 2731 H 250.696 -0.0554468 0.744939 0
M  V30 2732 H 253.358 0.567968 1.86441 0
M  V30 2733 H 252.454 -0.324913 3.10404 0
M  V30 2734 N 252.755 -1.56801 0.158532 0
M  V30 2735 C 253.98 -2.01295 -0.499516 0
M  V30 2736 C 254.405 -1.03799 -1.56867 0
M  V30 2737 O 253.763 -0.0155162 -1.81293 0
M  V30 2738 C 253.811 -3.44469 -1.06647 0
M  V30 2739 O 252.915 -3.50012 -2.18095 0
M  V30 2740 H 252.256 -0.652884 -0.12099 0
M  V30 2741 H 254.786 -2.02958 0.258661 0
M  V30 2742 H 254.796 -3.8351 -1.39227 0
M  V30 2743 H 253.471 -4.14932 -0.283581 0
M  V30 2744 H 252.048 -3.22822 -1.86656 0
M  V30 2745 N 254.233 0.115231 -1.57178 0
M  V30 2746 C 255.196 1.12526 -1.99676 0
M  V30 2747 C 256.196 1.34095 -0.88742 0
M  V30 2748 O 257.386 1.30548 -1.15337 0
M  V30 2749 C 254.518 2.4789 -2.34015 0
M  V30 2750 H 255.711 0.759912 -2.90113 0
M  V30 2751 H 253.264 0.359648 -1.52106 0
M  V30 2752 H 253.999 2.89339 -1.4647 0
M  V30 2753 H 253.784 2.33588 -3.14927 0
M  V30 2754 H 255.274 3.20575 -2.67622 0
M  V30 2755 N 255.711 1.52812 0.385517 0
M  V30 2756 C 256.936 1.72207 1.15583 0
M  V30 2757 C 257.361 0.441034 1.82857 0
M  V30 2758 O 256.719 -0.603465 1.70962 0
M  V30 2759 C 256.767 2.87476 2.17692 0
M  V30 2760 O 255.871 2.54693 3.24354 0
M  V30 2761 H 255.212 0.572526 0.336319 0
M  V30 2762 H 257.742 1.99618 0.448744 0
M  V30 2763 H 257.752 3.13072 2.6163 0
M  V30 2764 H 256.427 3.80408 1.68115 0
M  V30 2765 H 255.004 2.3985 2.85529 0
M  V30 2766 N 257.189 -0.644168 1.43834 0
M  V30 2767 C 258.122 -1.76906 1.44151 0
M  V30 2768 C 259.1 -1.59774 0.301857 0
M  V30 2769 O 260.284 -1.81834 0.496841 0
M  V30 2770 C 257.411 -3.14321 1.26174 0
M  V30 2771 C 256.457 -3.50134 2.43533 0
M  V30 2772 S 257.29 -3.49085 4.06079 0
M  V30 2773 C 258.446 -4.89142 3.90501 0
M  V30 2774 H 258.679 -1.76368 2.39336 0
M  V30 2775 H 256.212 -0.817624 1.30974 0
M  V30 2776 H 258.17 -3.93625 1.16489 0
M  V30 2777 H 256.831 -3.12412 0.325224 0
M  V30 2778 H 256.024 -4.50095 2.26783 0
M  V30 2779 H 255.626 -2.78264 2.4989 0
M  V30 2780 H 257.918 -5.78036 3.53385 0
M  V30 2781 H 258.861 -5.10945 4.90246 0
M  V30 2782 H 259.269 -4.63102 3.22795 0
M  V30 2783 N 258.668 -1.30515 -0.883378 0
M  V30 2784 C 259.631 -1.1701 -1.97082 0
M  V30 2785 C 260.631 -0.10089 -1.60483 0
M  V30 2786 O 261.821 -0.349127 -1.70666 0
M  V30 2787 C 258.953 -0.793045 -3.31547 0
M  V30 2788 H 260.146 -2.13622 -2.10489 0
M  V30 2789 H 257.699 -1.13935 -1.06998 0
M  V30 2790 H 258.434 0.172499 -3.23841 0
M  V30 2791 H 258.219 -1.56576 -3.5948 0
M  V30 2792 H 259.709 -0.722073 -4.1131 0
M  V30 2793 N 260.146 1.09593 -1.13257 0
M  V30 2794 C 261.371 1.8604 -0.916732 0
M  V30 2795 C 261.796 1.80504 0.529146 0
M  V30 2796 O 261.154 1.18127 1.37534 0
M  V30 2797 C 261.202 3.32017 -1.40703 0
M  V30 2798 O 260.306 4.08141 -0.591153 0
M  V30 2799 H 259.647 0.576943 -0.328683 0
M  V30 2800 H 262.177 1.38405 -1.50682 0
M  V30 2801 H 262.187 3.82865 -1.4099 0
M  V30 2802 H 260.862 3.35361 -2.45979 0
M  V30 2803 H 259.439 3.67084 -0.656005 0
M  V30 2804 N 261.624 0.925811 1.2754 0
M  V30 2805 C 263.035 0.610102 1.7645 0
M  V30 2806 C 263.386 -0.874723 1.75622 0
M  V30 2807 O 262.511 -1.68444 1.35851 0
M  V30 2808 C 263.106 1.10073 3.20421 0
M  V30 2809 C 261.665 0.835723 3.67005 0
M  V30 2810 C 260.812 1.26054 2.46993 0
M  V30 2811 H 263.763 1.10579 1.13833 0
M  V30 2812 H 263.784 0.447557 3.77859 0
M  V30 2813 H 263.296 2.18143 3.20991 0
M  V30 2814 H 261.397 -0.231249 3.71882 0
M  V30 2815 H 261.51 1.45193 4.56569 0
M  V30 2816 H 259.874 0.679111 2.45479 0
M  V30 2817 H 260.657 2.34984 2.50275 0
M  V30 2818 N 263.102 -1.41638 0.69111 0
M  V30 2819 C 264.065 -2.29178 0.0319786 0
M  V30 2820 C 265.065 -1.44153 -0.712496 0
M  V30 2821 O 266.255 -1.65354 -0.548053 0
M  V30 2822 C 263.387 -3.26952 -0.965161 0
M  V30 2823 H 264.58 -2.88959 0.802681 0
M  V30 2824 H 262.133 -1.4955 0.454356 0
M  V30 2825 H 262.868 -2.72142 -1.76378 0
M  V30 2826 H 262.653 -3.89685 -0.434522 0
M  V30 2827 H 264.143 -3.92561 -1.42428 0
M  V30 2828 N 264.58 -0.43555 -1.51462 0
M  V30 2829 C 265.528 0.391205 -2.29287 0
M  V30 2830 C 266.522 1.02247 -1.35062 0
M  V30 2831 O 267.728 0.957646 -1.52411 0
M  V30 2832 H 264.103 0.144968 -0.737895 0
M  V30 2833 H 266.074 -0.286051 -2.97026 0
M  V30 2834 C 264.823 1.48096 -3.14583 0
M  V30 2835 H 264.146 1.00457 -3.86973 0
M  V30 2836 H 265.586 2.03273 -3.72097 0
M  V30 2837 C 264.045 2.46321 -2.29843 0
M  V30 2838 O 264.575 3.50815 -1.95682 0
M  V30 2839 N 262.781 2.17166 -1.931 0
M  V30 2840 H 262.328 1.32218 -2.21079 0
M  V30 2841 H 262.286 2.83127 -1.36698 0
M  V30 2842 N 266.058 1.56714 -0.166846 0
M  V30 2843 C 267.283 2.01557 0.488833 0
M  V30 2844 C 267.708 1.0463 1.56314 0
M  V30 2845 O 267.066 0.0251304 1.81283 0
M  V30 2846 C 267.114 3.4503 1.04818 0
M  V30 2847 O 266.218 3.51163 2.16236 0
M  V30 2848 H 265.559 0.653516 0.117526 0
M  V30 2849 H 268.089 2.02818 -0.269421 0
M  V30 2850 H 268.099 3.84243 1.37191 0
M  V30 2851 H 266.774 4.15077 0.261572 0
M  V30 2852 H 265.351 3.23807 1.84942 0
M  V30 2853 N 267.536 -0.106894 1.57237 0
M  V30 2854 C 268.783 -0.812526 1.85484 0
M  V30 2855 C 269.111 -1.79304 0.753687 0
M  V30 2856 O 268.366 -1.94047 -0.253853 0
M  V30 2857 C 268.665 -1.58628 3.20268 0
M  V30 2858 C 268.331 -0.748967 4.44636 0
M  V30 2859 C 266.993 -0.518104 4.78403 0
M  V30 2860 C 269.345 -0.166122 5.20935 0
M  V30 2861 C 266.673 0.305659 5.85903 0
M  V30 2862 C 269.025 0.644899 6.29304 0
M  V30 2863 C 267.689 0.885965 6.61594 0
M  V30 2864 H 266.959 -0.297324 0.678734 0
M  V30 2865 H 269.606 -0.0744332 1.91355 0
M  V30 2866 H 267.911 -2.39562 3.10028 0
M  V30 2867 H 269.608 -2.13643 3.39349 0
M  V30 2868 H 266.198 -0.939006 4.18187 0
M  V30 2869 H 270.382 -0.33167 4.95191 0
M  V30 2870 H 265.638 0.501528 6.0934 0
M  V30 2871 H 269.812 1.10345 6.87602 0
M  V30 2872 H 267.439 1.52609 7.44725 0
M  V30 2873 N 269.014 -1.53014 -0.377408 0
M  V30 2874 C 270.26 -1.68872 -1.12294 0
M  V30 2875 C 270.593 -0.433224 -1.89306 0
M  V30 2876 O 269.868 0.569258 -1.85983 0
M  V30 2877 C 270.151 -2.93115 -2.09179 0
M  V30 2878 C 270.004 -4.28794 -1.35853 0
M  V30 2879 C 271.323 -3.12928 -3.09458 0
M  V30 2880 H 268.442 -0.614518 -0.406862 0
M  V30 2881 H 271.084 -1.85633 -0.40503 0
M  V30 2882 H 269.234 -2.78956 -2.70399 0
M  V30 2883 H 270.906 -4.54742 -0.775082 0
M  V30 2884 H 269.149 -4.28744 -0.660364 0
M  V30 2885 H 269.82 -5.11837 -2.06706 0
M  V30 2886 H 272.296 -3.26194 -2.58334 0
M  V30 2887 H 271.172 -4.01316 -3.74482 0
M  V30 2888 H 271.433 -2.27669 -3.78971 0
M  V30 2889 N 270.492 0.636531 -1.44174 0
M  V30 2890 C 271.74 1.39343 -1.46383 0
M  V30 2891 C 272.061 1.94766 -0.0955715 0
M  V30 2892 O 271.331 1.75452 0.871395 0
M  V30 2893 H 269.911 0.517199 -0.538994 0
M  V30 2894 H 272.573 0.74957 -1.7991 0
M  V30 2895 H 271.669 2.22746 -2.18611 0
M  V30 2896 N 271.97 1.30982 0.876444 0
M  V30 2897 C 273.198 1.23242 1.6619 0
M  V30 2898 C 273.613 -0.203345 1.87702 0
M  V30 2899 O 272.97 -1.13317 1.43057 0
M  V30 2900 C 273.021 1.96623 3.03351 0
M  V30 2901 O 272.742 3.34594 2.82804 0
M  V30 2902 C 274.243 1.95644 3.97792 0
M  V30 2903 H 271.463 0.426126 0.518322 0
M  V30 2904 H 274.007 1.7275 1.09442 0
M  V30 2905 H 272.162 1.50892 3.56806 0
M  V30 2906 H 272.576 3.71873 3.69879 0
M  V30 2907 H 274.05 2.51511 4.91372 0
M  V30 2908 H 274.527 0.937395 4.2908 0
M  V30 2909 H 275.133 2.41225 3.50272 0
M  V30 2910 N 273.449 -1.08991 1.13837 0
M  V30 2911 C 274.86 -1.62746 0.914917 0
M  V30 2912 C 275.211 -1.88403 -0.547594 0
M  V30 2913 O 274.336 -1.63706 -1.41525 0
M  V30 2914 C 274.931 -2.95662 1.65437 0
M  V30 2915 C 273.49 -3.46225 1.47666 0
M  V30 2916 C 272.637 -2.20562 1.6807 0
M  V30 2917 H 275.588 -0.922946 1.29102 0
M  V30 2918 H 275.609 -3.63825 1.11407 0
M  V30 2919 H 275.121 -2.76956 2.71877 0
M  V30 2920 H 273.222 -3.70046 0.435478 0
M  V30 2921 H 273.335 -4.23368 2.24268 0
M  V30 2922 H 271.699 -2.29439 1.10589 0
M  V30 2923 H 272.482 -2.0437 2.7584 0
M  V30 2924 N 274.927 -0.932562 -1.27047 0
M  V30 2925 C 276.157 -0.591173 -1.97961 0
M  V30 2926 C 276.565 0.836219 -1.69717 0
M  V30 2927 O 275.908 1.56801 -0.957036 0
M  V30 2928 C 275.97 -0.743082 -3.51736 0
M  V30 2929 C 275.634 -2.1435 -4.03613 0
M  V30 2930 C 276.631 -3.11815 -4.16014 0
M  V30 2931 C 274.316 -2.46175 -4.37839 0
M  V30 2932 C 276.31 -4.39211 -4.61923 0
M  V30 2933 C 273.997 -3.73806 -4.83438 0
M  V30 2934 C 274.995 -4.70137 -4.95439 0
M  V30 2935 O 274.683 -5.95496 -5.40037 0
M  V30 2936 H 274.415 -0.222375 -0.638377 0
M  V30 2937 H 276.969 -1.25317 -1.62742 0
M  V30 2938 H 275.199 -0.0239739 -3.86693 0
M  V30 2939 H 276.888 -0.40603 -4.03864 0
M  V30 2940 H 277.654 -2.88549 -3.89826 0
M  V30 2941 H 273.533 -1.71936 -4.27737 0
M  V30 2942 H 277.077 -5.14404 -4.71205 0
M  V30 2943 H 272.974 -3.96888 -5.09068 0
M  V30 2944 H 273.742 -5.98554 -5.58279 0
M  V30 2945 N 276.405 1.4127 -0.698611 0
M  V30 2946 C 277.651 2.01979 -0.239972 0
M  V30 2947 C 278.006 1.54353 1.14861 0
M  V30 2948 O 277.299 0.746218 1.76471 0
M  V30 2949 C 277.493 3.56592 -0.240192 0
M  V30 2950 C 277.322 4.19226 -1.62726 0
M  V30 2951 C 276.092 4.53389 -2.23084 0
M  V30 2952 C 278.29 4.45228 -2.57443 0
M  V30 2953 N 276.272 5.01327 -3.54323 0
M  V30 2954 C 277.643 4.94973 -3.73365 0
M  V30 2955 C 279.698 4.27243 -2.55671 0
M  V30 2956 C 278.401 5.28624 -4.878 0
M  V30 2957 C 280.427 4.61985 -3.69221 0
M  V30 2958 C 279.789 5.11904 -4.83873 0
M  V30 2959 H 275.888 0.770561 -0.133269 0
M  V30 2960 H 278.472 1.71767 -0.916748 0
M  V30 2961 H 276.643 3.86271 0.406082 0
M  V30 2962 H 278.375 4.04025 0.23356 0
M  V30 2963 H 275.13 4.39946 -1.75341 0
M  V30 2964 H 275.554 5.29697 -4.21604 0
M  V30 2965 H 280.196 3.87884 -1.68243 0
M  V30 2966 H 277.914 5.66905 -5.75885 0
M  V30 2967 H 281.5 4.49725 -3.69105 0
M  V30 2968 H 280.38 5.38282 -5.70282 0
M  V30 2969 N 277.883 0.443576 1.51229 0
M  V30 2970 C 278.816 -0.410089 2.24485 0
M  V30 2971 C 279.794 -1.01949 1.26669 0
M  V30 2972 O 280.978 -1.06075 1.55821 0
M  V30 2973 C 278.105 -1.57211 3.00004 0
M  V30 2974 C 277.151 -1.08279 4.12526 0
M  V30 2975 S 277.984 -0.0197476 5.35496 0
M  V30 2976 C 279.14 -1.18629 6.14555 0
M  V30 2977 H 279.373 0.211832 2.96544 0
M  V30 2978 H 276.906 0.228156 1.52705 0
M  V30 2979 H 278.864 -2.23825 3.44111 0
M  V30 2980 H 277.525 -2.16547 2.27522 0
M  V30 2981 H 276.718 -1.95193 4.64667 0
M  V30 2982 H 276.32 -0.494797 3.70713 0
M  V30 2983 H 278.612 -2.10344 6.4402 0
M  V30 2984 H 279.555 -0.70472 7.04584 0
M  V30 2985 H 279.963 -1.42768 5.46148 0
M  V30 2986 N 279.361 -1.56624 0.175154 0
M  V30 2987 C 280.324 -2.16934 -0.739738 0
M  V30 2988 C 281.324 -1.11842 -1.15533 0
M  V30 2989 O 282.514 -1.37335 -1.07167 0
M  V30 2990 C 279.646 -2.75531 -2.00738 0
M  V30 2991 H 280.839 -2.99131 -0.214639 0
M  V30 2992 H 278.392 -1.56123 -0.0744197 0
M  V30 2993 H 279.127 -1.97078 -2.57548 0
M  V30 2994 H 278.912 -3.52444 -1.71831 0
M  V30 2995 H 280.402 -3.21904 -2.66021 0
M  V30 2996 N 280.839 0.0985539 -1.57292 0
M  V30 2997 C 282.25 0.653457 -1.74891 0
M  V30 2998 C 282.601 1.7929 -0.796838 0
M  V30 2999 O 281.726 2.16385 0.0254886 0
M  V30 3000 C 282.321 1.19216 -3.17133 0
M  V30 3001 C 280.88 1.69316 -3.36168 0
M  V30 3002 C 280.027 0.601294 -2.70702 0
M  V30 3003 H 282.978 -0.127497 -1.58187 0
M  V30 3004 H 282.999 2.06154 -3.19814 0
M  V30 3005 H 282.511 0.362635 -3.86402 0
M  V30 3006 H 280.612 2.5468 -2.71972 0
M  V30 3007 H 280.725 1.78853 -4.44464 0
M  V30 3008 H 279.089 1.0399 -2.32504 0
M  V30 3009 H 279.872 -0.217592 -3.4261 0
M  V30 3010 N 282.317 1.53212 0.369288 0
M  V30 3011 C 283.227 1.82342 1.47609 0
M  V30 3012 C 284.243 0.711532 1.58787 0
M  V30 3013 O 285.419 1.0012 1.74751 0
M  V30 3014 C 282.484 2.00393 2.8292 0
M  V30 3015 C 281.545 3.24297 2.81301 0
M  V30 3016 C 280.778 3.41478 4.10157 0
M  V30 3017 O 281.001 2.63033 5.06132 0
M  V30 3018 O 279.935 4.34817 4.16194 0
M  V30 3019 H 283.761 2.76366 1.25918 0
M  V30 3020 H 281.346 1.38547 0.559034 0
M  V30 3021 H 283.228 2.13859 3.63101 0
M  V30 3022 H 281.903 1.09559 3.04596 0
M  V30 3023 H 280.81 3.16257 1.99831 0
M  V30 3024 H 282.143 4.15041 2.64578 0
M  V30 3025 N 283.795 -0.628877 1.44509 0
M  V30 3026 C 285.041 -1.39045 1.47629 0
M  V30 3027 C 285.374 -1.93892 0.109343 0
M  V30 3028 O 284.649 -1.7379 -0.87334 0
M  V30 3029 C 284.932 -2.55408 2.53848 0
M  V30 3030 C 284.785 -2.05896 3.99909 0
M  V30 3031 C 286.104 -3.5759 2.56549 0
M  V30 3032 H 283.223 -0.504232 0.537512 0
M  V30 3033 H 285.865 -0.710854 1.76201 0
M  V30 3034 H 284.015 -3.13384 2.29615 0
M  V30 3035 H 285.687 -1.52734 4.35282 0
M  V30 3036 H 283.93 -1.37061 4.11578 0
M  V30 3037 H 284.601 -2.89681 4.69882 0
M  V30 3038 H 287.077 -3.09419 2.78207 0
M  V30 3039 H 285.953 -4.36527 3.32769 0
M  V30 3040 H 286.214 -4.11808 1.60832 0
M  V30 3041 N 285.273 -1.31445 -0.869486 0
M  V30 3042 C 286.522 -1.20517 -1.61736 0
M  V30 3043 C 286.835 0.235341 -1.94179 0
M  V30 3044 O 288.041 0.466312 -2.67465 0
M  V30 3045 C 286.497 -2.10982 -2.91573 0
M  V30 3046 C 286.105 -3.60032 -2.66611 0
M  V30 3047 C 287.849 -2.08856 -3.69567 0
M  V30 3048 C 285.756 -4.42503 -3.92358 0
M  V30 3049 H 284.686 -0.447493 -0.606849 0
M  V30 3050 H 287.337 -1.56303 -0.96133 0
M  V30 3051 H 285.719 -1.68095 -3.58553 0
M  V30 3052 H 286.893 -4.11167 -2.08035 0
M  V30 3053 H 285.208 -3.64139 -2.0197 0
M  V30 3054 H 287.805 -2.67716 -4.62852 0
M  V30 3055 H 288.148 -1.07582 -4.02159 0
M  V30 3056 H 288.681 -2.49945 -3.09471 0
M  V30 3057 H 285.42 -5.44533 -3.64916 0
M  V30 3058 H 284.94 -3.96125 -4.50383 0
M  V30 3059 H 286.619 -4.54741 -4.60238 0
M  V30 3060 N 286.751 1.08385 -1.14413 0
M  V30 3061 C 287.681 2.17321 -0.854044 0
M  V30 3062 C 288.662 1.69024 0.191049 0
M  V30 3063 O 289.847 1.94141 0.0476779 0
M  V30 3064 C 286.977 3.45719 -0.330983 0
M  V30 3065 C 285.931 4.07409 -1.31155 0
M  V30 3066 C 285.257 5.30762 -0.64778 0
M  V30 3067 C 286.557 4.48665 -2.67388 0
M  V30 3068 H 288.251 2.41845 -1.76498 0
M  V30 3069 H 285.797 1.16233 -0.850051 0
M  V30 3070 H 287.75 4.21241 -0.115645 0
M  V30 3071 H 286.474 3.2075 0.615381 0
M  V30 3072 H 285.133 3.33919 -1.51306 0
M  V30 3073 H 284.781 5.02078 0.304398 0
M  V30 3074 H 284.481 5.72992 -1.30207 0
M  V30 3075 H 286.005 6.08998 -0.441972 0
M  V30 3076 H 287.419 5.15364 -2.51143 0
M  V30 3077 H 285.816 5.01814 -3.29093 0
M  V30 3078 H 286.886 3.60543 -3.24248 0
M  V30 3079 N 288.23 0.939286 1.26551 0
M  V30 3080 C 289.193 0.451987 2.24699 0
M  V30 3081 C 290.193 -0.435869 1.5478 0
M  V30 3082 O 291.383 -0.235314 1.72603 0
M  V30 3083 C 288.515 -0.348801 3.39111 0
M  V30 3084 H 289.708 1.3193 2.69322 0
M  V30 3085 H 287.261 0.721072 1.38673 0
M  V30 3086 H 287.996 -1.23444 2.99887 0
M  V30 3087 H 287.781 0.287945 3.91041 0
M  V30 3088 H 289.271 -0.679726 4.12031 0
M  V30 3089 N 289.708 -1.40897 0.706093 0
M  V30 3090 C 290.641 -2.282 -0.00328781 0
M  V30 3091 C 291.619 -1.42816 -0.77732 0
M  V30 3092 O 292.803 -1.72237 -0.765944 0
M  V30 3093 C 289.93 -3.23226 -1.01205 0
M  V30 3094 C 288.976 -4.25222 -0.329955 0
M  V30 3095 S 289.809 -5.27269 0.935298 0
M  V30 3096 C 290.965 -6.25859 -0.0716061 0
M  V30 3097 H 291.198 -2.88016 0.737143 0
M  V30 3098 H 288.731 -1.46191 0.496756 0
M  V30 3099 H 290.689 -3.78503 -1.58888 0
M  V30 3100 H 289.35 -2.62485 -1.72513 0
M  V30 3101 H 288.543 -4.92023 -1.09221 0
M  V30 3102 H 288.145 -3.73595 0.174069 0
M  V30 3103 H 290.437 -6.71204 -0.921521 0
M  V30 3104 H 291.38 -7.0586 0.562765 0
M  V30 3105 H 291.788 -5.62852 -0.431088 0
M  V30 3106 N 291.186 -0.45159 -1.50991 0
M  V30 3107 C 292.463 0.170707 -1.94854 0
M  V30 3108 C 292.843 1.58788 -1.39103 0
M  V30 3109 O 292.191 2.20913 -0.583921 0
M  V30 3110 C 292.401 0.133929 -3.48743 0
M  V30 3111 C 293.749 0.33248 -4.23296 0
M  V30 3112 O 294.773 0.211403 -3.55572 0
M  V30 3113 O 293.632 0.57486 -5.43468 0
M  V30 3114 H 290.726 0.122264 -0.817912 0
M  V30 3115 H 293.272 -0.510594 -1.61836 0
M  V30 3116 H 292.044 -0.856283 -3.81816 0
M  V30 3117 H 291.667 0.857529 -3.88242 0
M  V30 3118 N 292.664 1.56529 -0.183458 0
M  V30 3119 C 293.574 2.22144 0.754272 0
M  V30 3120 C 294.59 1.21684 1.24374 0
M  V30 3121 O 295.766 1.54385 1.29333 0
M  V30 3122 C 292.831 2.85884 1.96141 0
M  V30 3123 C 291.892 4.01579 1.51765 0
M  V30 3124 C 291.125 4.6227 2.66725 0
M  V30 3125 O 291.348 4.21865 3.83909 0
M  V30 3126 O 290.282 5.51936 2.40104 0
M  V30 3127 H 294.108 3.02861 0.225527 0
M  V30 3128 H 291.693 1.49331 0.0453032 0
M  V30 3129 H 293.575 3.26253 2.66715 0
M  V30 3130 H 292.25 2.08154 2.47899 0
M  V30 3131 H 291.157 3.65856 0.781049 0
M  V30 3132 H 292.49 4.80938 1.04686 0
M  V30 3133 N 294.142 -0.090211 1.57342 0
M  V30 3134 C 295.39 -0.791241 1.85967 0
M  V30 3135 C 295.711 -1.7903 0.772859 0
M  V30 3136 O 294.981 -1.94872 -0.200398 0
M  V30 3137 H 293.561 -0.295205 0.686195 0
M  V30 3138 H 296.223 -0.0706782 1.94772 0
M  V30 3139 H 295.319 -1.31882 2.82867 0
M  V30 3140 N 295.62 -1.53406 -0.361157 0
M  V30 3141 C 296.552 -1.76446 -1.46286 0
M  V30 3142 C 297.565 -0.645322 -1.49464 0
M  V30 3143 O 298.754 -0.921681 -1.52864 0
M  V30 3144 C 295.854 -1.83332 -2.85031 0
M  V30 3145 C 295.027 -3.13033 -3.05498 0
M  V30 3146 C 294.086 -3.11104 -4.24383 0
M  V30 3147 O 293.112 -3.84888 -4.19344 0
M  V30 3148 N 294.314 -2.32234 -5.32022 0
M  V30 3149 H 297.079 -2.71508 -1.26899 0
M  V30 3150 H 294.64 -1.52238 -0.550915 0
M  V30 3151 H 296.632 -1.79514 -3.62708 0
M  V30 3152 H 295.202 -0.955342 -2.97644 0
M  V30 3153 H 294.422 -3.30119 -2.15442 0
M  V30 3154 H 295.71 -3.9874 -3.16044 0
M  V30 3155 H 295.108 -1.71807 -5.38979 0
M  V30 3156 H 293.665 -2.3423 -6.08259 0
M  V30 3157 N 297.098 0.621204 -1.44841 0
M  V30 3158 C 298.328 1.40548 -1.51426 0
M  V30 3159 C 298.736 1.88673 -0.141083 0
M  V30 3160 O 298.079 1.62053 0.865128 0
M  V30 3161 C 298.141 2.65325 -2.42576 0
M  V30 3162 C 297.805 2.3893 -3.89566 0
M  V30 3163 C 298.802 2.00138 -4.79834 0
M  V30 3164 C 296.487 2.52263 -4.3436 0
M  V30 3165 C 298.481 1.75021 -6.129 0
M  V30 3166 C 296.168 2.2676 -5.67471 0
M  V30 3167 C 297.166 1.88199 -6.56559 0
M  V30 3168 O 296.854 1.62986 -7.87204 0
M  V30 3169 H 296.586 0.437122 -0.515655 0
M  V30 3170 H 299.14 0.765987 -1.90583 0
M  V30 3171 H 297.37 3.31947 -1.98364 0
M  V30 3172 H 299.059 3.27347 -2.39998 0
M  V30 3173 H 299.825 1.89386 -4.46495 0
M  V30 3174 H 295.704 2.81246 -3.65269 0
M  V30 3175 H 299.248 1.44848 -6.82396 0
M  V30 3176 H 295.145 2.37125 -6.00368 0
M  V30 3177 H 295.913 1.7715 -7.991 0
M  V30 3178 N 298.576 1.31904 0.862503 0
M  V30 3179 C 299.853 1.12644 1.59908 0
M  V30 3180 C 300.233 -0.316104 2.0872 0
M  V30 3181 O 299.581 -1.31145 1.87118 0
M  V30 3182 C 299.791 2.1472 2.7513 0
M  V30 3183 C 301.139 2.47637 3.44907 0
M  V30 3184 O 302.163 2.13205 2.85346 0
M  V30 3185 O 301.022 3.06632 4.52371 0
M  V30 3186 H 298.116 0.43416 0.703871 0
M  V30 3187 H 300.662 1.43408 0.907314 0
M  V30 3188 H 299.434 3.1172 2.3653 0
M  V30 3189 H 299.057 1.84905 3.51989 0
M  V30 3190 N 300.054 -1.07777 1.14986 0
M  V30 3191 C 301.302 -1.79934 0.920235 0
M  V30 3192 C 301.623 -1.86955 -0.554336 0
M  V30 3193 O 300.893 -1.36731 -1.40291 0
M  V30 3194 H 299.473 -0.666424 0.337473 0
M  V30 3195 H 302.135 -1.3027 1.44968 0
M  V30 3196 H 301.231 -2.82539 1.32583 0
M  V30 3197 N 301.532 -0.945985 -1.26051 0
M  V30 3198 C 302.479 -0.45809 -2.26208 0
M  V30 3199 C 303.449 0.484816 -1.58867 0
M  V30 3200 O 304.634 0.399969 -1.86561 0
M  V30 3201 C 301.774 0.266131 -3.44072 0
M  V30 3202 C 300.887 -0.713005 -4.26075 0
M  V30 3203 C 300.022 0.0329013 -5.3119 0
M  V30 3204 C 299.061 -0.93774 -6.04874 0
M  V30 3205 N 298.198 -0.223274 -7.01745 0
M  V30 3206 H 303.038 -1.3171 -2.67313 0
M  V30 3207 H 300.575 -0.66069 -1.31428 0
M  V30 3208 H 302.533 0.702514 -4.11243 0
M  V30 3209 H 301.163 1.08925 -3.03867 0
M  V30 3210 H 300.215 -1.26789 -3.58648 0
M  V30 3211 H 301.527 -1.45406 -4.77136 0
M  V30 3212 H 300.681 0.528335 -6.04395 0
M  V30 3213 H 299.42 0.806801 -4.8098 0
M  V30 3214 H 298.425 -1.44425 -5.30492 0
M  V30 3215 H 299.65 -1.71172 -6.57173 0
M  V30 3216 H 297.596 0.532046 -6.53839 0
M  V30 3217 H 297.513 -0.90357 -7.50581 0
M  V30 3218 H 298.781 0.250907 -7.79096 0
M  V30 3219 N 303.011 1.40521 -0.713556 0
M  V30 3220 C 304.257 2.01221 -0.252564 0
M  V30 3221 C 304.59 1.56444 1.1506 0
M  V30 3222 O 303.865 0.783597 1.78017 0
M  V30 3223 C 304.148 3.58582 -0.330332 0
M  V30 3224 C 304.001 4.13437 -1.77173 0
M  V30 3225 C 305.32 4.39079 0.299641 0
M  V30 3226 H 302.439 0.731077 -0.0932471 0
M  V30 3227 H 305.081 1.67026 -0.905673 0
M  V30 3228 H 303.231 3.87844 0.225737 0
M  V30 3229 H 304.903 3.9498 -2.38303 0
M  V30 3230 H 303.146 3.67801 -2.3001 0
M  V30 3231 H 303.817 5.22597 -1.77755 0
M  V30 3232 H 306.293 4.15735 -0.174139 0
M  V30 3233 H 305.169 5.4848 0.214771 0
M  V30 3234 H 305.43 4.19915 1.38288 0
M  V30 3235 N 304.489 0.459591 1.5075 0
M  V30 3236 C 305.766 -0.160371 1.94941 0
M  V30 3237 C 306.146 -1.58048 1.39943 0
M  V30 3238 O 305.494 -2.206 0.595629 0
M  V30 3239 C 305.704 -0.115432 3.48809 0
M  V30 3240 C 307.052 -0.310026 4.23467 0
M  V30 3241 O 308.076 -0.192543 3.55679 0
M  V30 3242 O 306.935 -0.546031 5.43765 0
M  V30 3243 H 304.029 -0.117925 0.818549 0
M  V30 3244 H 306.575 0.519169 1.61563 0
M  V30 3245 H 305.347 0.87652 3.81357 0
M  V30 3246 H 304.97 -0.836928 3.88692 0
M  V30 3247 N 305.967 -1.56429 0.191757 0
M  V30 3248 C 307.213 -1.97777 -0.448554 0
M  V30 3249 C 307.546 -1.07847 -1.61501 0
M  V30 3250 O 306.821 -0.129774 -1.94067 0
M  V30 3251 C 307.104 -3.48362 -0.911906 0
M  V30 3252 C 306.957 -4.4907 0.256136 0
M  V30 3253 C 308.276 -4.02561 -1.77857 0
M  V30 3254 H 305.395 -0.719071 -0.161572 0
M  V30 3255 H 308.037 -1.87896 0.282007 0
M  V30 3256 H 306.187 -3.56914 -1.53442 0
M  V30 3257 H 307.859 -4.5256 0.893733 0
M  V30 3258 H 306.102 -4.24181 0.908436 0
M  V30 3259 H 306.773 -5.51889 -0.11053 0
M  V30 3260 H 309.249 -3.96767 -1.25359 0
M  V30 3261 H 308.125 -5.08301 -2.07174 0
M  V30 3262 H 308.386 -3.47616 -2.73158 0
M  V30 3263 N 307.445 0.0818655 -1.57387 0
M  V30 3264 C 308.691 0.778884 -1.87896 0
M  V30 3265 C 309.046 1.75692 -0.784229 0
M  V30 3266 O 308.339 1.90417 0.212567 0
M  V30 3267 C 308.533 1.53513 -3.22752 0
M  V30 3268 C 308.362 0.631838 -4.45239 0
M  V30 3269 C 307.132 0.272571 -5.04564 0
M  V30 3270 C 309.33 -0.0670191 -5.14256 0
M  V30 3271 N 307.312 -0.637498 -6.10581 0
M  V30 3272 C 308.683 -0.834653 -6.14356 0
M  V30 3273 C 310.738 -0.139551 -4.97704 0
M  V30 3274 C 309.441 -1.66806 -6.99691 0
M  V30 3275 C 311.467 -0.959903 -5.83558 0
M  V30 3276 C 310.829 -1.71561 -6.83188 0
M  V30 3277 H 306.928 0.260764 -0.737242 0
M  V30 3278 H 309.512 0.0408227 -1.94657 0
M  V30 3279 H 307.683 2.24398 -3.17018 0
M  V30 3280 H 309.415 2.18038 -3.40942 0
M  V30 3281 H 306.17 0.62319 -4.69482 0
M  V30 3282 H 306.594 -1.08548 -6.68241 0
M  V30 3283 H 311.236 0.430376 -4.20604 0
M  V30 3284 H 308.954 -2.249 -7.76174 0
M  V30 3285 H 312.54 -1.01887 -5.72809 0
M  V30 3286 H 311.42 -2.34017 -7.48469 0
M  V30 3287 N 308.923 1.53595 0.353017 0
M  V30 3288 C 310.148 1.7462 1.11904 0
M  V30 3289 C 310.573 0.479721 1.8188 0
M  V30 3290 O 309.931 -0.567066 1.72204 0
M  V30 3291 C 309.979 2.92029 2.11545 0
M  V30 3292 O 309.083 2.61516 3.18878 0
M  V30 3293 H 308.424 0.579531 0.324099 0
M  V30 3294 H 310.954 2.00525 0.406301 0
M  V30 3295 H 310.964 3.18551 2.5493 0
M  V30 3296 H 309.639 3.83888 1.60008 0
M  V30 3297 H 308.216 2.45852 2.80377 0
M  V30 3298 N 310.401 -0.613514 1.45168 0
M  V30 3299 C 311.331 -1.7354 1.56225 0
M  V30 3300 C 312.312 -1.64981 0.41414 0
M  V30 3301 O 313.497 -1.83472 0.636526 0
M  V30 3302 C 310.627 -3.12128 1.52295 0
M  V30 3303 C 309.581 -3.35491 2.65762 0
M  V30 3304 C 308.907 -4.74291 2.46885 0
M  V30 3305 C 310.207 -3.26325 4.0781 0
M  V30 3306 H 311.901 -1.64543 2.50132 0
M  V30 3307 H 309.447 -0.790185 1.20383 0
M  V30 3308 H 311.4 -3.90404 1.58628 0
M  V30 3309 H 310.124 -3.2195 0.549139 0
M  V30 3310 H 308.783 -2.59603 2.58847 0
M  V30 3311 H 308.431 -4.80839 1.47657 0
M  V30 3312 H 308.131 -4.9088 3.22972 0
M  V30 3313 H 309.655 -5.54775 2.55063 0
M  V30 3314 H 311.069 -3.94483 4.16 0
M  V30 3315 H 309.466 -3.54445 4.8424 0
M  V30 3316 H 310.536 -2.23855 4.30136 0
M  V30 3317 N 311.879 -1.3236 -0.855495 0
M  V30 3318 C 313.127 -1.22629 -1.60644 0
M  V30 3319 C 313.448 0.212136 -1.93843 0
M  V30 3320 O 312.718 1.13666 -1.59552 0
M  V30 3321 H 311.298 -0.450882 -0.595579 0
M  V30 3322 H 313.96 -1.65871 -1.02337 0
M  V30 3323 H 313.056 -1.80832 -2.54374 0
M  V30 3324 N 313.357 1.07166 -1.15556 0
M  V30 3325 C 314.606 1.79181 -0.926132 0
M  V30 3326 C 314.919 1.87768 0.547967 0
M  V30 3327 O 316.125 2.56323 0.895036 0
M  V30 3328 C 314.581 3.22 -1.60761 0
M  V30 3329 C 314.189 3.21607 -3.11886 0
M  V30 3330 C 315.933 3.9861 -1.4598 0
M  V30 3331 C 313.84 4.59092 -3.72812 0
M  V30 3332 H 312.77 0.67154 -0.342856 0
M  V30 3333 H 315.421 1.2027 -1.3859 0
M  V30 3334 H 313.803 3.81115 -1.07553 0
M  V30 3335 H 314.977 2.72127 -3.71865 0
M  V30 3336 H 313.292 2.58495 -3.2645 0
M  V30 3337 H 315.889 5.00225 -1.88888 0
M  V30 3338 H 316.232 4.143 -0.407541 0
M  V30 3339 H 316.765 3.45996 -1.96295 0
M  V30 3340 H 313.504 4.48606 -4.77946 0
M  V30 3341 H 313.024 5.08803 -3.17616 0
M  V30 3342 H 314.703 5.28059 -3.73848 0
M  V30 3343 N 314.835 0.952656 1.25548 0
M  V30 3344 C 316.063 0.623496 1.97282 0
M  V30 3345 C 316.478 -0.803987 1.70826 0
M  V30 3346 O 315.835 -1.53755 0.983147 0
M  V30 3347 C 315.886 0.870209 3.5087 0
M  V30 3348 O 315.607 2.24156 3.76412 0
M  V30 3349 C 317.108 0.553164 4.39835 0
M  V30 3350 H 314.328 0.233931 0.628902 0
M  V30 3351 H 316.872 1.27649 1.59768 0
M  V30 3352 H 315.027 0.263652 3.86502 0
M  V30 3353 H 315.441 2.31021 4.70882 0
M  V30 3354 H 316.915 0.776342 5.46513 0
M  V30 3355 H 317.392 -0.512215 4.36203 0
M  V30 3356 H 317.998 1.13896 4.09766 0
M  V30 3357 N 316.313 -1.40141 0.720998 0
M  V30 3358 C 317.553 -2.02644 0.267335 0
M  V30 3359 C 317.917 -1.55948 -1.12001 0
M  V30 3360 O 319.118 -2.10552 -1.67097 0
M  V30 3361 C 317.389 -3.55679 0.350281 0
M  V30 3362 S 318.948 -4.38793 -0.0256004 0
M  V30 3363 H 315.766 -0.703105 0.105664 0
M  V30 3364 H 318.368 -1.71175 0.944416 0
M  V30 3365 H 317.072 -3.87157 1.36153 0
M  V30 3366 H 316.603 -3.91883 -0.345096 0
M  V30 3367 H 318.618 -4.803 -1.24604 0
M  V30 3368 N 317.792 -0.46758 -1.50504 0
M  V30 3369 C 319.041 0.0902868 -2.01498 0
M  V30 3370 C 319.354 1.411 -1.35463 0
M  V30 3371 O 320.56 2.0536 -1.77594 0
M  V30 3372 C 319.016 0.21142 -3.59278 0
M  V30 3373 C 318.624 -1.10065 -4.34269 0
M  V30 3374 C 320.368 0.721433 -4.18325 0
M  V30 3375 C 318.275 -0.943505 -5.83825 0
M  V30 3376 H 317.205 0.037517 -0.753066 0
M  V30 3377 H 319.856 -0.601943 -1.73346 0
M  V30 3378 H 318.238 0.967352 -3.84003 0
M  V30 3379 H 319.412 -1.86726 -4.21272 0
M  V30 3380 H 317.727 -1.5415 -3.86816 0
M  V30 3381 H 320.324 0.85598 -5.27804 0
M  V30 3382 H 320.667 1.71186 -3.79475 0
M  V30 3383 H 321.2 0.0229843 -3.97793 0
M  V30 3384 H 317.939 -1.90719 -6.27141 0
M  V30 3385 H 317.459 -0.217213 -5.99407 0
M  V30 3386 H 319.138 -0.608715 -6.4413 0
M  V30 3387 N 319.27 1.56325 -0.20005 0
M  V30 3388 C 320.18 2.22931 0.730668 0
M  V30 3389 C 321.196 1.22997 1.23076 0
M  V30 3390 O 322.372 1.55748 1.27689 0
M  V30 3391 C 319.437 2.87948 1.93098 0
M  V30 3392 C 318.498 4.03166 1.47497 0
M  V30 3393 C 317.731 4.65073 2.61807 0
M  V30 3394 O 317.954 4.25913 3.79413 0
M  V30 3395 O 316.888 5.54452 2.34237 0
M  V30 3396 H 320.714 3.03084 0.193391 0
M  V30 3397 H 318.299 1.49371 0.0294621 0
M  V30 3398 H 320.181 3.29063 2.6324 0
M  V30 3399 H 318.856 2.10771 2.45677 0
M  V30 3400 H 317.763 3.66664 0.742201 0
M  V30 3401 H 319.096 4.82022 0.995796 0
M  V30 3402 N 320.748 -0.0735177 1.57428 0
M  V30 3403 C 321.678 -1.0879 2.06608 0
M  V30 3404 C 322.659 -1.40473 0.959237 0
M  V30 3405 O 323.844 -1.5013 1.23185 0
M  V30 3406 C 320.974 -2.40183 2.50857 0
M  V30 3407 C 319.928 -2.22858 3.65402 0
M  V30 3408 C 319.254 -3.59619 3.957 0
M  V30 3409 C 320.554 -1.65123 4.95511 0
M  V30 3410 H 322.248 -0.678673 2.91607 0
M  V30 3411 H 319.794 -0.325013 1.40284 0
M  V30 3412 H 321.747 -3.11437 2.83874 0
M  V30 3413 H 320.471 -2.83083 1.62885 0
M  V30 3414 H 319.13 -1.54045 3.32664 0
M  V30 3415 H 318.778 -4.00086 3.04861 0
M  V30 3416 H 318.478 -3.48866 4.72828 0
M  V30 3417 H 320.002 -4.32306 4.31212 0
M  V30 3418 H 321.416 -2.26241 5.26771 0
M  V30 3419 H 319.813 -1.65071 5.7695 0
M  V30 3420 H 320.883 -0.612559 4.81015 0
M  V30 3421 N 322.226 -1.5378 -0.344866 0
M  V30 3422 C 323.189 -1.80981 -1.40637 0
M  V30 3423 C 324.189 -0.680816 -1.45676 0
M  V30 3424 O 325.379 -0.949095 -1.46075 0
M  V30 3425 C 322.511 -1.95063 -2.79577 0
M  V30 3426 H 323.704 -2.75803 -1.17783 0
M  V30 3427 H 321.257 -1.45173 -0.579181 0
M  V30 3428 H 321.992 -1.02379 -3.07716 0
M  V30 3429 H 321.777 -2.77198 -2.77315 0
M  V30 3430 H 323.267 -2.17629 -3.56409 0
M  V30 3431 N 323.704 0.605807 -1.45491 0
M  V30 3432 C 324.614 1.74466 -1.56839 0
M  V30 3433 C 325.63 1.68006 -0.452772 0
M  V30 3434 O 326.806 1.8833 -0.713708 0
M  V30 3435 C 323.871 3.10931 -1.53371 0
M  V30 3436 C 322.932 3.28832 -2.75986 0
M  V30 3437 C 322.165 4.58787 -2.72673 0
M  V30 3438 O 322.388 5.4122 -1.80102 0
M  V30 3439 O 321.322 4.79438 -3.63899 0
M  V30 3440 H 325.148 1.67843 -2.53106 0
M  V30 3441 H 322.733 0.770108 -1.28022 0
M  V30 3442 H 324.615 3.92233 -1.54051 0
M  V30 3443 H 323.29 3.18042 -0.602572 0
M  V30 3444 H 322.197 2.47112 -2.80867 0
M  V30 3445 H 323.53 3.26599 -3.68231 0
M  V30 3446 N 325.182 1.32811 0.848464 0
M  V30 3447 C 326.598 1.11937 1.13764 0
M  V30 3448 C 326.798 -0.0960789 2.01271 0
M  V30 3449 O 325.854 -0.779165 2.40178 0
M  V30 3450 C 327.167 2.402 1.809 0
M  V30 3451 C 328.715 2.46016 1.93508 0
M  V30 3452 C 329.19 3.74215 2.64059 0
M  V30 3453 N 330.681 3.75232 2.71579 0
M  V30 3454 C 331.416 4.71134 3.26833 0
M  V30 3455 N 330.912 5.77406 3.8285 0
M  V30 3456 N 332.705 4.58623 3.24995 0
M  V30 3457 H 324.856 2.1073 0.265855 0
M  V30 3458 H 327.119 0.930671 0.180431 0
M  V30 3459 H 326.825 3.29093 1.24058 0
M  V30 3460 H 326.699 2.51628 2.81004 0
M  V30 3461 H 329.086 1.57577 2.49506 0
M  V30 3462 H 329.167 2.38536 0.923811 0
M  V30 3463 H 328.811 4.63031 2.08722 0
M  V30 3464 H 328.741 3.78968 3.65637 0
M  V30 3465 H 331.232 2.98423 2.31845 0
M  V30 3466 H 331.545 6.46632 4.23187 0
M  V30 3467 H 329.89 5.81152 3.81165 0
M  V30 3468 H 333.081 3.74762 2.80484 0
M  V30 3469 H 333.254 5.33535 3.67756 0
M  V30 3470 N 326.66 -1.06551 1.16123 0
M  V30 3471 C 327.607 -2.13961 0.865414 0
M  V30 3472 C 328.577 -1.65066 -0.185055 0
M  V30 3473 O 329.762 -1.90732 -0.05083 0
M  V30 3474 C 326.902 -3.43113 0.369776 0
M  V30 3475 C 326.015 -4.05756 1.48276 0
M  V30 3476 C 325.15 -5.22773 0.942414 0
M  V30 3477 C 324.189 -5.77395 2.03179 0
M  V30 3478 N 323.326 -6.85731 1.50721 0
M  V30 3479 H 328.166 -2.38605 1.78527 0
M  V30 3480 H 325.703 -1.17072 0.890646 0
M  V30 3481 H 327.661 -4.17151 0.0640643 0
M  V30 3482 H 326.291 -3.18695 -0.513143 0
M  V30 3483 H 325.343 -3.29292 1.9045 0
M  V30 3484 H 326.655 -4.42351 2.30493 0
M  V30 3485 H 325.809 -6.03827 0.589729 0
M  V30 3486 H 324.548 -4.87618 0.0895191 0
M  V30 3487 H 323.553 -4.94981 2.3932 0
M  V30 3488 H 324.778 -6.14603 2.8886 0
M  V30 3489 H 322.724 -6.52499 0.676811 0
M  V30 3490 H 322.641 -7.21254 2.26557 0
M  V30 3491 H 323.909 -7.7047 1.18303 0
M  V30 3492 N 328.138 -0.959301 -1.25041 0
M  V30 3493 C 329.549 -0.65667 -1.74771 0
M  V30 3494 C 329.9 0.827852 -1.77879 0
M  V30 3495 O 329.025 1.64783 -1.40269 0
M  V30 3496 C 329.62 -1.1853 -3.1739 0
M  V30 3497 C 328.179 -0.932734 -3.6466 0
M  V30 3498 C 327.326 -1.32558 -2.43564 0
M  V30 3499 H 330.277 -1.13558 -1.10862 0
M  V30 3500 H 330.298 -0.547582 -3.76539 0
M  V30 3501 H 329.81 -2.26576 -3.15095 0
M  V30 3502 H 327.911 0.13257 -3.72364 0
M  V30 3503 H 328.024 -1.57248 -4.52559 0
M  V30 3504 H 326.388 -0.743956 -2.43593 0
M  V30 3505 H 327.171 -2.41537 -2.43957 0
M  V30 3506 N 329.616 1.39756 -0.72842 0
M  V30 3507 C 331.027 1.83498 -0.344289 0
M  V30 3508 C 331.378 1.60868 1.12321 0
M  V30 3509 O 330.503 1.09634 1.86573 0
M  V30 3510 C 331.098 3.33114 -0.618112 0
M  V30 3511 C 329.657 3.753 -0.287549 0
M  V30 3512 C 328.804 2.62831 -0.884048 0
M  V30 3513 H 331.755 1.28842 -0.926578 0
M  V30 3514 H 331.776 3.80334 0.112349 0
M  V30 3515 H 331.288 3.49553 -1.68625 0
M  V30 3516 H 329.389 3.64451 0.775012 0
M  V30 3517 H 329.502 4.72945 -0.765512 0
M  V30 3518 H 327.866 2.52792 -0.311149 0
M  V30 3519 H 328.649 2.82078 -1.95671 0
M  V30 3520 N 331.094 0.475555 1.50254 0
M  V30 3521 C 332.024 -0.30611 2.31485 0
M  V30 3522 C 333.005 -0.986228 1.38591 0
M  V30 3523 O 334.19 -0.982541 1.67511 0
M  V30 3524 C 331.32 -1.38588 3.1845 0
M  V30 3525 C 330.274 -0.827115 4.19932 0
M  V30 3526 C 329.6 -2.00551 4.95665 0
M  V30 3527 C 330.9 0.16463 5.2204 0
M  V30 3528 H 332.594 0.371866 2.97082 0
M  V30 3529 H 330.14 0.180282 1.42867 0
M  V30 3530 H 332.093 -1.94023 3.74076 0
M  V30 3531 H 330.817 -2.09269 2.50747 0
M  V30 3532 H 329.476 -0.294702 3.65414 0
M  V30 3533 H 329.124 -2.6994 4.2443 0
M  V30 3534 H 328.824 -1.63784 5.64313 0
M  V30 3535 H 330.348 -2.56468 5.54127 0
M  V30 3536 H 331.762 -0.300699 5.72511 0
M  V30 3537 H 330.159 0.446813 5.98434 0
M  V30 3538 H 331.229 1.08905 4.72512 0
M  V30 3539 N 332.573 -1.56217 0.208337 0
M  V30 3540 C 333.82 -1.97949 -0.42692 0
M  V30 3541 C 334.148 -1.09562 -1.60706 0
M  V30 3542 O 333.403 -0.137616 -1.95216 0
M  V30 3543 C 333.702 -3.45441 -0.916797 0
M  V30 3544 C 333.368 -4.50646 0.151391 0
M  V30 3545 C 332.03 -4.79139 0.444867 0
M  V30 3546 C 334.382 -5.13811 0.874492 0
M  V30 3547 C 331.71 -5.68084 1.46619 0
M  V30 3548 C 334.062 -6.03861 1.88506 0
M  V30 3549 C 332.726 -6.30704 2.18559 0
M  V30 3550 H 331.996 -0.724345 -0.156221 0
M  V30 3551 H 334.643 -1.89006 0.308084 0
M  V30 3552 H 332.948 -3.51521 -1.73032 0
M  V30 3553 H 334.645 -3.75094 -1.41794 0
M  V30 3554 H 331.235 -4.28511 -0.0875068 0
M  V30 3555 H 335.419 -4.91879 0.660996 0
M  V30 3556 H 330.675 -5.87151 1.7048 0
M  V30 3557 H 334.849 -6.51861 2.45051 0
M  V30 3558 H 332.476 -6.99424 2.97843 0
M  V30 3559 N 334.051 0.0651679 -1.57465 0
M  V30 3560 C 334.999 1.09542 -2.05191 0
M  V30 3561 C 335.993 1.39675 -0.958509 0
M  V30 3562 O 337.199 1.39003 -1.14359 0
M  V30 3563 H 333.574 0.370623 -0.654326 0
M  V30 3564 H 335.545 0.666802 -2.90854 0
M  V30 3565 C 334.294 2.39881 -2.51699 0
M  V30 3566 H 333.617 2.17547 -3.3543 0
M  V30 3567 H 335.057 3.104 -2.88839 0
M  V30 3568 C 333.516 3.0631 -1.40271 0
M  V30 3569 O 334.046 3.94664 -0.748523 0
M  V30 3570 N 332.252 2.67041 -1.14618 0
M  V30 3571 H 331.799 1.95281 -1.67997 0
M  V30 3572 H 331.757 3.1181 -0.402688 0
M  V30 3573 N 335.529 1.53961 0.336706 0
M  V30 3574 C 336.462 1.77255 1.43722 0
M  V30 3575 C 337.44 0.62193 1.50236 0
M  V30 3576 O 338.624 0.857874 1.67847 0
M  V30 3577 C 335.751 1.87733 2.81912 0
M  V30 3578 C 334.797 3.09933 2.92991 0
M  V30 3579 S 335.63 4.68836 2.58753 0
M  V30 3580 C 336.786 4.82202 3.99039 0
M  V30 3581 H 337.019 2.70322 1.23748 0
M  V30 3582 H 334.552 1.44917 0.532777 0
M  V30 3583 H 336.51 1.94455 3.61521 0
M  V30 3584 H 335.171 0.956666 2.99177 0
M  V30 3585 H 334.364 3.1396 3.94265 0
M  V30 3586 H 333.966 3.01472 2.21338 0
M  V30 3587 H 336.258 4.64032 4.9364 0
M  V30 3588 H 337.201 5.84298 4.00002 0
M  V30 3589 H 337.609 4.10604 3.87382 0
M  V30 3590 N 337.007 -0.598083 1.45811 0
M  V30 3591 C 337.955 -1.72932 1.55555 0
M  V30 3592 C 338.949 -1.63984 0.424921 0
M  V30 3593 O 340.155 -1.69663 0.601205 0
M  V30 3594 H 336.53 -0.571489 0.488779 0
M  V30 3595 H 338.501 -1.61842 2.50699 0
M  V30 3596 C 337.25 -3.11318 1.54843 0
M  V30 3597 H 336.573 -3.18867 2.41172 0
M  V30 3598 H 338.013 -3.90274 1.65717 0
M  V30 3599 C 336.472 -3.3578 0.274427 0
M  V30 3600 O 337.002 -3.9654 -0.641778 0
M  V30 3601 N 335.208 -2.90119 0.167139 0
M  V30 3602 H 334.755 -2.40855 0.913596 0
M  V30 3603 H 334.713 -3.0686 -0.684435 0
M  V30 3604 N 338.485 -1.33259 -0.841409 0
M  V30 3605 C 339.448 -1.23221 -1.9326 0
M  V30 3606 C 340.448 -0.151895 -1.60081 0
M  V30 3607 O 341.638 -0.403246 -1.69468 0
M  V30 3608 C 338.77 -0.898123 -3.28856 0
M  V30 3609 H 339.963 -2.2021 -2.03587 0
M  V30 3610 H 337.516 -1.17281 -1.03319 0
M  V30 3611 H 338.251 0.0693841 -3.24226 0
M  V30 3612 H 338.036 -1.67934 -3.54317 0
M  V30 3613 H 339.526 -0.852563 -4.08805 0
M  V30 3614 N 339.963 1.05934 -1.16686 0
M  V30 3615 C 340.896 2.1295 -0.820225 0
M  V30 3616 C 341.874 1.61242 0.209722 0
M  V30 3617 O 343.058 1.88271 0.0929688 0
M  V30 3618 C 340.185 3.3797 -0.22223 0
M  V30 3619 C 339.231 4.08488 -1.22637 0
M  V30 3620 S 340.064 4.58015 -2.77457 0
M  V30 3621 C 341.22 5.86292 -2.19117 0
M  V30 3622 H 341.453 2.42025 -1.72659 0
M  V30 3623 H 338.986 1.18423 -0.990722 0
M  V30 3624 H 340.944 4.10335 0.116322 0
M  V30 3625 H 339.605 3.07045 0.66196 0
M  V30 3626 H 338.798 4.98291 -0.756455 0
M  V30 3627 H 338.4 3.42154 -1.51019 0
M  V30 3628 H 340.692 6.59246 -1.56209 0
M  V30 3629 H 341.635 6.38019 -3.07144 0
M  V30 3630 H 342.043 5.40497 -1.62858 0
M  V30 3631 N 341.441 0.965919 1.2453 0
M  V30 3632 C 342.666 0.643971 1.97149 0
M  V30 3633 C 343.091 -0.779487 1.71189 0
M  V30 3634 O 342.449 -1.5288 0.974553 0
M  V30 3635 C 342.497 0.922557 3.48599 0
M  V30 3636 O 341.601 0.00707672 4.12399 0
M  V30 3637 H 340.942 0.243647 0.617683 0
M  V30 3638 H 343.472 1.29558 1.58353 0
M  V30 3639 H 343.482 0.853373 3.98976 0
M  V30 3640 H 342.157 1.95996 3.66822 0
M  V30 3641 H 340.734 0.12943 3.72675 0
M  V30 3642 N 342.919 -1.39368 0.735821 0
M  V30 3643 C 343.882 -2.2896 0.104874 0
M  V30 3644 C 344.882 -1.46347 -0.666274 0
M  V30 3645 O 346.072 -1.67014 -0.49517 0
M  V30 3646 C 343.204 -3.29857 -0.860656 0
M  V30 3647 H 344.397 -2.86259 0.894205 0
M  V30 3648 H 341.95 -1.48029 0.501704 0
M  V30 3649 H 342.685 -2.77615 -1.67631 0
M  V30 3650 H 342.47 -3.9087 -0.310327 0
M  V30 3651 H 343.96 -3.96893 -1.29867 0
M  V30 3652 N 344.397 -0.483516 -1.5 0
M  V30 3653 C 345.327 0.293829 -2.31644 0
M  V30 3654 C 346.308 0.978864 -1.39112 0
M  V30 3655 O 347.493 0.973644 -1.68029 0
M  V30 3656 C 344.623 1.36897 -3.19181 0
M  V30 3657 C 343.577 0.804833 -4.20365 0
M  V30 3658 C 342.903 1.9792 -4.96721 0
M  V30 3659 C 344.203 -0.192313 -5.21946 0
M  V30 3660 H 345.897 -0.387616 -2.9688 0
M  V30 3661 H 343.443 -0.187856 -1.42769 0
M  V30 3662 H 345.396 1.92037 -3.751 0
M  V30 3663 H 344.12 2.07936 -2.51853 0
M  V30 3664 H 342.779 0.275319 -3.65565 0
M  V30 3665 H 342.427 2.67686 -4.25856 0
M  V30 3666 H 342.127 1.60789 -5.65173 0
M  V30 3667 H 343.651 2.53526 -5.55479 0
M  V30 3668 H 345.065 0.270333 -5.72662 0
M  V30 3669 H 343.462 -0.478543 -5.98189 0
M  V30 3670 H 344.532 -1.11409 -4.71928 0
M  V30 3671 N 345.875 1.56104 -0.216619 0
M  V30 3672 C 347.105 2.02269 0.420802 0
M  V30 3673 C 347.513 1.09575 1.5424 0
M  V30 3674 O 346.856 0.0967308 1.83445 0
M  V30 3675 C 346.918 3.44784 1.01806 0
M  V30 3676 C 346.582 4.56988 0.0325154 0
M  V30 3677 C 347.579 5.14225 -0.766055 0
M  V30 3678 C 345.264 5.02228 -0.0848092 0
M  V30 3679 C 347.258 6.15169 -1.6687 0
M  V30 3680 C 344.945 6.03011 -0.990994 0
M  V30 3681 C 345.943 6.59357 -1.78149 0
M  V30 3682 O 345.631 7.58179 -2.67245 0
M  V30 3683 H 345.363 0.667353 0.107776 0
M  V30 3684 H 347.917 2.02747 -0.329034 0
M  V30 3685 H 346.147 3.41359 1.81689 0
M  V30 3686 H 347.836 3.74626 1.56237 0
M  V30 3687 H 348.602 4.80126 -0.685836 0
M  V30 3688 H 344.481 4.58054 0.520349 0
M  V30 3689 H 348.025 6.59076 -2.28615 0
M  V30 3690 H 343.922 6.36532 -1.07225 0
M  V30 3691 H 344.69 7.75682 -2.61265 0
M  V30 3692 N 347.353 -0.0568162 1.57498 0
M  V30 3693 C 348.303 -1.07315 2.01166 0
M  V30 3694 C 349.287 -1.33632 0.896171 0
M  V30 3695 O 350.479 -1.33682 1.16009 0
M  V30 3696 C 347.608 -2.38257 2.47161 0
M  V30 3697 C 346.694 -2.1515 3.65474 0
M  V30 3698 N 347.085 -1.62014 4.7915 0
M  V30 3699 C 345.383 -2.45559 3.72313 0
M  V30 3700 C 346.084 -1.54069 5.60926 0
M  V30 3701 N 345.06 -2.00652 5.05213 0
M  V30 3702 H 348.862 -0.655878 2.86488 0
M  V30 3703 H 346.376 -0.263635 1.60246 0
M  V30 3704 H 348.373 -3.11845 2.76691 0
M  V30 3705 H 347.033 -2.80687 1.63232 0
M  V30 3706 H 348.044 -1.30667 5.01145 0
M  V30 3707 H 344.721 -2.91253 2.99129 0
M  V30 3708 H 346.111 -1.13712 6.62208 0
M  V30 3709 N 348.832 -1.54138 -0.328536 0
M  V30 3710 C 350.081 -1.71318 -1.06456 0
M  V30 3711 C 350.394 -0.491109 -1.89334 0
M  V30 3712 O 351.6 -0.54416 -2.65991 0
M  V30 3713 C 350.056 -3.03 -1.94214 0
M  V30 3714 C 349.664 -4.32595 -1.16471 0
M  V30 3715 C 351.408 -3.29544 -2.67583 0
M  V30 3716 C 349.315 -5.55341 -2.03347 0
M  V30 3717 H 348.245 -0.638429 -0.401155 0
M  V30 3718 H 350.896 -1.80633 -0.323106 0
M  V30 3719 H 349.278 -2.87579 -2.72239 0
M  V30 3720 H 350.452 -4.58766 -0.432525 0
M  V30 3721 H 348.767 -4.12777 -0.548063 0
M  V30 3722 H 351.364 -4.18444 -3.3288 0
M  V30 3723 H 351.707 -2.47206 -3.34955 0
M  V30 3724 H 352.24 -3.45809 -1.96623 0
M  V30 3725 H 348.979 -6.40268 -1.40491 0
M  V30 3726 H 348.499 -5.33397 -2.74313 0
M  V30 3727 H 350.178 -5.91557 -2.62049 0
M  V30 3728 N 350.31 0.590341 -1.46126 0
M  V30 3729 C 351.273 1.68194 -1.55703 0
M  V30 3730 C 352.273 1.54808 -0.434868 0
M  V30 3731 O 353.463 1.59564 -0.698928 0
M  V30 3732 C 350.595 3.07575 -1.47005 0
M  V30 3733 H 351.788 1.61064 -2.52979 0
M  V30 3734 H 349.341 0.807541 -1.33823 0
M  V30 3735 H 350.076 3.20268 -0.509785 0
M  V30 3736 H 349.861 3.187 -2.28414 0
M  V30 3737 H 351.351 3.87055 -1.56776 0
M  V30 3738 N 351.788 1.33704 0.83433 0
M  V30 3739 C 352.72 1.20172 1.9517 0
M  V30 3740 C 353.733 0.131572 1.62267 0
M  V30 3741 O 354.922 0.382406 1.74356 0
M  V30 3742 C 352.022 0.821716 3.28787 0
M  V30 3743 C 351.195 1.98446 3.89792 0
M  V30 3744 C 350.254 1.58469 5.01771 0
M  V30 3745 O 349.28 2.29968 5.20676 0
M  V30 3746 N 350.482 0.492291 5.78409 0
M  V30 3747 H 353.247 2.16429 2.07313 0
M  V30 3748 H 350.808 1.26509 1.0103 0
M  V30 3749 H 352.8 0.536291 4.01131 0
M  V30 3750 H 351.37 -0.0503058 3.1256 0
M  V30 3751 H 350.59 2.43526 3.09982 0
M  V30 3752 H 351.878 2.76236 4.27283 0
M  V30 3753 H 351.276 -0.102349 5.65607 0
M  V30 3754 H 349.833 0.266555 6.51255 0
M  V30 3755 N 353.266 -1.05314 1.17247 0
M  V30 3756 C 354.214 -2.15137 0.884238 0
M  V30 3757 C 355.208 -1.68729 -0.15063 0
M  V30 3758 O 356.414 -1.8 -0.00366673 0
M  V30 3759 H 352.789 -0.702471 0.2684 0
M  V30 3760 H 354.76 -2.36652 1.81764 0
M  V30 3761 C 353.509 -3.45243 0.412659 0
M  V30 3762 H 352.832 -3.81352 1.20043 0
M  V30 3763 H 354.272 -4.23263 0.249858 0
M  V30 3764 C 352.731 -3.25487 -0.86948 0
M  V30 3765 O 353.261 -3.51938 -1.93655 0
M  V30 3766 N 351.467 -2.78875 -0.817147 0
M  V30 3767 H 351.014 -2.57549 0.0514211 0
M  V30 3768 H 350.972 -2.66036 -1.67547 0
M  V30 3769 N 354.744 -0.972509 -1.24016 0
M  V30 3770 C 355.654 -0.5143 -2.28893 0
M  V30 3771 C 356.67 0.427078 -1.68677 0
M  V30 3772 O 357.846 0.298939 -1.99169 0
M  V30 3773 C 354.911 0.183598 -3.46214 0
M  V30 3774 C 353.972 -0.798202 -4.21814 0
M  V30 3775 C 353.205 -0.133514 -5.33533 0
M  V30 3776 O 353.428 1.07714 -5.60137 0
M  V30 3777 O 352.362 -0.828103 -5.96176 0
M  V30 3778 H 356.188 -1.38629 -2.70214 0
M  V30 3779 H 353.773 -0.739769 -1.29799 0
M  V30 3780 H 355.655 0.575433 -4.17453 0
M  V30 3781 H 354.33 1.03048 -3.0686 0
M  V30 3782 H 353.237 -1.24059 -3.52931 0
M  V30 3783 H 354.57 -1.61364 -4.64997 0
M  V30 3784 N 356.222 1.38976 -0.743202 0
M  V30 3785 C 357.447 2.05161 -0.303936 0
M  V30 3786 C 357.872 1.55677 1.05576 0
M  V30 3787 O 357.23 0.704131 1.67068 0
M  V30 3788 C 357.278 3.59138 -0.324373 0
M  V30 3789 O 356.382 4.06668 0.685204 0
M  V30 3790 H 355.723 0.649815 -0.136518 0
M  V30 3791 H 358.253 1.77852 -1.01142 0
M  V30 3792 H 358.263 4.07639 -0.171618 0
M  V30 3793 H 356.938 3.94515 -1.31647 0
M  V30 3794 H 355.515 3.69561 0.497913 0
M  V30 3795 N 357.7 0.491464 1.49741 0
M  V30 3796 C 359.111 0.0413169 1.86654 0
M  V30 3797 C 359.462 -1.36985 1.40462 0
M  V30 3798 O 358.587 -2.01917 0.778354 0
M  V30 3799 C 359.182 0.0682023 3.38731 0
M  V30 3800 C 357.741 -0.32656 3.74981 0
M  V30 3801 C 356.888 0.444888 2.73708 0
M  V30 3802 H 359.839 0.704733 1.42194 0
M  V30 3803 H 359.86 -0.729322 3.73445 0
M  V30 3804 H 359.372 1.09539 3.72321 0
M  V30 3805 H 357.473 -1.35734 3.46997 0
M  V30 3806 H 357.586 -0.013741 4.79098 0
M  V30 3807 H 355.95 -0.104062 2.54487 0
M  V30 3808 H 356.733 1.47197 3.10142 0
M  V30 3809 N 359.178 -1.55987 0.224894 0
M  V30 3810 C 360.406 -2.02784 -0.410665 0
M  V30 3811 C 360.821 -1.10464 -1.53112 0
M  V30 3812 O 360.178 -0.114871 -1.82138 0
M  V30 3813 C 360.229 -3.49087 -0.939165 0
M  V30 3814 O 359.95 -4.37887 0.136614 0
M  V30 3815 C 361.451 -4.11543 -1.64763 0
M  V30 3816 H 358.671 -0.663484 -0.100148 0
M  V30 3817 H 361.215 -2.01614 0.342326 0
M  V30 3818 H 359.37 -3.50861 -1.64242 0
M  V30 3819 H 359.784 -5.23849 -0.261155 0
M  V30 3820 H 361.258 -5.15673 -1.96939 0
M  V30 3821 H 361.735 -3.56736 -2.56195 0
M  V30 3822 H 362.341 -4.13629 -0.989503 0
M  V30 3823 N 360.656 0.0484629 -1.57525 0
M  V30 3824 C 361.586 1.0549 -2.08313 0
M  V30 3825 C 362.567 1.38929 -0.981463 0
M  V30 3826 O 363.752 1.48151 -1.25558 0
M  V30 3827 C 360.882 2.36162 -2.54646 0
M  V30 3828 C 359.836 2.17016 -3.68901 0
M  V30 3829 C 359.162 3.53278 -4.01371 0
M  V30 3830 C 360.462 1.57219 -4.98076 0
M  V30 3831 H 362.156 0.632195 -2.92649 0
M  V30 3832 H 359.702 0.302654 -1.40784 0
M  V30 3833 H 361.655 3.06882 -2.88793 0
M  V30 3834 H 360.379 2.80456 -1.67368 0
M  V30 3835 H 359.038 1.48733 -3.35073 0
M  V30 3836 H 358.686 3.95185 -3.11188 0
M  V30 3837 H 358.386 3.41299 -4.78318 0
M  V30 3838 H 359.91 4.25391 -4.38035 0
M  V30 3839 H 361.324 2.17832 -5.30304 0
M  V30 3840 H 359.721 1.55871 -5.79503 0
M  V30 3841 H 360.791 0.535956 -4.81929 0
M  V30 3842 N 362.134 1.5431 0.320358 0
M  V30 3843 C 363.066 1.80262 1.41556 0
M  V30 3844 C 364.079 0.684723 1.477 0
M  V30 3845 O 365.268 0.961886 1.50366 0
M  V30 3846 C 362.368 1.90825 2.8007 0
M  V30 3847 C 361.541 3.21023 2.97091 0
M  V30 3848 C 360.6 3.22247 4.15985 0
M  V30 3849 O 359.626 3.95871 4.08992 0
M  V30 3850 N 360.828 2.46258 5.25678 0
M  V30 3851 H 363.593 2.74778 1.19655 0
M  V30 3852 H 361.154 1.53646 0.510358 0
M  V30 3853 H 363.146 1.89067 3.57821 0
M  V30 3854 H 361.716 1.03392 2.95006 0
M  V30 3855 H 360.936 3.35715 2.06614 0
M  V30 3856 H 362.224 4.0698 3.05361 0
M  V30 3857 H 361.622 1.86037 5.34235 0
M  V30 3858 H 360.179 2.50275 6.01835 0
M  V30 3859 N 363.613 -0.582584 1.46437 0
M  V30 3860 C 364.838 -1.37168 1.55563 0
M  V30 3861 C 365.263 -1.87061 0.19743 0
M  V30 3862 O 364.621 -1.61572 -0.822451 0
M  V30 3863 C 364.669 -2.53511 2.56446 0
M  V30 3864 O 363.773 -3.54953 2.09958 0
M  V30 3865 H 363.114 -0.408494 0.523477 0
M  V30 3866 H 365.644 -0.706646 1.9201 0
M  V30 3867 H 365.654 -3.00426 2.76058 0
M  V30 3868 H 364.329 -2.16549 3.55076 0
M  V30 3869 H 362.906 -3.14516 2.00334 0
M  V30 3870 N 365.091 -1.34144 -0.827227 0
M  V30 3871 C 366.039 -1.25364 -1.95925 0
M  V30 3872 C 367.033 -0.152608 -1.68711 0
M  V30 3873 O 368.239 -0.317311 -1.77181 0
M  V30 3874 H 364.614 -0.389342 -0.643364 0
M  V30 3875 H 366.585 -2.21045 -2.00454 0
M  V30 3876 C 365.334 -1.02158 -3.32354 0
M  V30 3877 H 364.657 -1.86111 -3.5384 0
M  V30 3878 H 366.097 -1.00048 -4.12027 0
M  V30 3879 C 364.556 0.275244 -3.35774 0
M  V30 3880 O 365.086 1.27806 -3.80826 0
M  V30 3881 N 363.292 0.306853 -2.88975 0
M  V30 3882 H 362.839 -0.509777 -2.52506 0
M  V30 3883 H 362.797 1.17432 -2.91646 0
M  V30 3884 N 366.569 1.04691 -1.17803 0
M  V30 3885 C 367.479 2.16057 -0.914151 0
M  V30 3886 C 368.495 1.73589 0.119503 0
M  V30 3887 O 369.671 2.01308 -0.0609468 0
M  V30 3888 C 366.736 3.4394 -0.436603 0
M  V30 3889 C 365.797 4.00825 -1.53746 0
M  V30 3890 C 365.03 5.22604 -1.0826 0
M  V30 3891 O 365.253 5.70367 0.0612244 0
M  V30 3892 O 364.187 5.7186 -1.87775 0
M  V30 3893 H 368.013 2.41169 -1.84584 0
M  V30 3894 H 365.598 1.1453 -0.959334 0
M  V30 3895 H 367.48 4.21024 -0.178057 0
M  V30 3896 H 366.155 3.20316 0.466869 0
M  V30 3897 H 365.062 3.25158 -1.84995 0
M  V30 3898 H 366.395 4.28778 -2.41683 0
M  V30 3899 N 368.047 0.979072 1.23499 0
M  V30 3900 C 369.293 0.6578 1.9247 0
M  V30 3901 C 369.648 -0.799746 1.74991 0
M  V30 3902 O 368.941 -1.56922 1.09937 0
M  V30 3903 C 369.135 0.981932 3.43646 0
M  V30 3904 C 368.964 2.46944 3.75831 0
M  V30 3905 C 367.734 3.13119 3.96591 0
M  V30 3906 C 369.932 3.45006 3.81412 0
M  V30 3907 N 367.914 4.51489 4.15969 0
M  V30 3908 C 369.285 4.68778 4.05768 0
M  V30 3909 C 371.34 3.39505 3.64198 0
M  V30 3910 C 370.043 5.87723 4.14697 0
M  V30 3911 C 372.069 4.57814 3.7438 0
M  V30 3912 C 371.431 5.80381 3.99171 0
M  V30 3913 H 367.53 0.291746 0.72554 0
M  V30 3914 H 370.114 1.25626 1.48749 0
M  V30 3915 H 368.285 0.412179 3.86207 0
M  V30 3916 H 370.017 0.618068 3.99953 0
M  V30 3917 H 366.772 2.63619 3.93449 0
M  V30 3918 H 367.196 5.23221 4.29615 0
M  V30 3919 H 371.838 2.45773 3.44029 0
M  V30 3920 H 369.556 6.81874 4.33675 0
M  V30 3921 H 373.142 4.55132 3.62417 0
M  V30 3922 H 372.022 6.70398 4.06861 0
M  V30 3923 N 369.525 -1.3858 0.750561 0
M  V30 3924 C 370.75 -2.04997 0.314812 0
M  V30 3925 C 371.175 -1.56235 -1.04749 0
M  V30 3926 O 370.533 -0.712981 -1.66692 0
M  V30 3927 C 370.581 -3.58961 0.343415 0
M  V30 3928 O 369.685 -4.07025 -0.663628 0
M  V30 3929 H 369.026 -0.649081 0.139962 0
M  V30 3930 H 371.556 -1.77313 1.02084 0
M  V30 3931 H 371.566 -4.07542 0.193233 0
M  V30 3932 H 370.241 -3.93811 1.33738 0
M  V30 3933 H 368.818 -3.6982 -0.478307 0
M  V30 3934 N 371.003 -0.499398 -1.49478 0
M  V30 3935 C 372.28 0.108629 -1.95298 0
M  V30 3936 C 372.66 1.54282 -1.44084 0
M  V30 3937 O 372.008 2.18944 -0.653908 0
M  V30 3938 C 372.218 0.0229111 -3.48992 0
M  V30 3939 C 373.566 0.197643 -4.2414 0
M  V30 3940 O 374.59 0.0981735 -3.56065 0
M  V30 3941 O 373.449 0.401669 -5.45022 0
M  V30 3942 H 370.543 0.096181 -0.821388 0
M  V30 3943 H 373.089 -0.561822 -1.6013 0
M  V30 3944 H 371.861 -0.977321 -3.78899 0
M  V30 3945 H 371.484 0.733579 -3.90774 0
M  V30 3946 N 372.481 1.55866 -0.233164 0
M  V30 3947 C 373.711 2.02704 0.399325 0
M  V30 3948 C 374.119 1.11204 1.53069 0
M  V30 3949 O 373.462 0.116182 1.83332 0
M  V30 3950 C 373.524 3.45844 0.981429 0
M  V30 3951 C 373.188 4.56997 -0.0159561 0
M  V30 3952 C 374.185 5.13384 -0.820552 0
M  V30 3953 C 371.87 5.0211 -0.138072 0
M  V30 3954 C 373.864 6.13365 -1.73386 0
M  V30 3955 C 371.551 6.01926 -1.0549 0
M  V30 3956 C 372.549 6.57431 -1.85132 0
M  V30 3957 O 372.237 7.55302 -2.75272 0
M  V30 3958 H 371.969 0.668459 0.100692 0
M  V30 3959 H 374.523 2.02387 -0.35052 0
M  V30 3960 H 372.753 3.43267 1.78058 0
M  V30 3961 H 374.442 3.76262 1.52255 0
M  V30 3962 H 375.208 4.79372 -0.736721 0
M  V30 3963 H 371.087 4.5858 0.471737 0
M  V30 3964 H 374.631 6.56614 -2.35592 0
M  V30 3965 H 370.528 6.35359 -1.1397 0
M  V30 3966 H 371.296 7.72867 -2.69477 0
M  V30 3967 N 373.959 -0.0401083 1.57549 0
M  V30 3968 C 375.206 -0.733125 1.88763 0
M  V30 3969 C 375.534 -1.75946 0.829058 0
M  V30 3970 O 374.789 -1.94949 -0.171323 0
M  V30 3971 C 375.088 -1.44902 3.26708 0
M  V30 3972 C 374.754 -0.559707 4.47413 0
M  V30 3973 C 373.416 -0.314731 4.8017 0
M  V30 3974 C 375.768 0.0549743 5.21171 0
M  V30 3975 C 373.096 0.553886 5.8408 0
M  V30 3976 C 375.448 0.911229 6.26003 0
M  V30 3977 C 374.112 1.16577 6.57241 0
M  V30 3978 H 373.382 -0.268269 0.690733 0
M  V30 3979 H 376.029 0.00679408 1.91499 0
M  V30 3980 H 374.334 -2.26197 3.1991 0
M  V30 3981 H 376.031 -1.99058 3.48105 0
M  V30 3982 H 372.621 -0.760793 4.21794 0
M  V30 3983 H 376.805 -0.121344 4.96152 0
M  V30 3984 H 372.061 0.759518 6.06664 0
M  V30 3985 H 376.235 1.3941 6.82303 0
M  V30 3986 H 373.862 1.84058 7.37582 0
M  V30 3987 N 375.437 -1.54477 -0.31217 0
M  V30 3988 C 376.853 -1.45442 -0.657185 0
M  V30 3989 C 377.053 -0.63653 -1.91182 0
M  V30 3990 O 376.109 -0.139815 -2.52113 0
M  V30 3991 C 377.422 -2.89287 -0.82058 0
M  V30 3992 C 378.97 -2.9926 -0.917188 0
M  V30 3993 C 379.445 -4.44279 -1.11267 0
M  V30 3994 N 380.936 -4.4794 -1.17914 0
M  V30 3995 C 381.671 -5.57318 -1.34848 0
M  V30 3996 N 381.167 -6.76642 -1.48752 0
M  V30 3997 N 382.96 -5.44986 -1.37647 0
M  V30 3998 H 375.111 -2.06129 0.512313 0
M  V30 3999 H 377.374 -0.933088 0.167485 0
M  V30 4000 H 377.08 -3.51687 0.0302604 0
M  V30 4001 H 376.954 -3.36061 -1.71298 0
M  V30 4002 H 379.341 -2.36981 -1.75852 0
M  V30 4003 H 379.422 -2.558 -0.00101257 0
M  V30 4004 H 379.066 -5.07149 -0.27614 0
M  V30 4005 H 378.996 -4.85359 -2.04289 0
M  V30 4006 H 381.487 -3.61969 -1.08567 0
M  V30 4007 H 381.8 -7.55758 -1.61397 0
M  V30 4008 H 380.145 -6.79529 -1.45828 0
M  V30 4009 H 383.336 -4.50715 -1.26388 0
M  V30 4010 H 383.509 -6.3028 -1.50501 0
M  V30 4011 N 376.915 0.57481 -1.46744 0
M  V30 4012 C 377.863 1.70435 -1.58286 0
M  V30 4013 C 378.857 1.63287 -0.450956 0
M  V30 4014 O 380.063 1.68685 -0.628121 0
M  V30 4015 H 376.438 0.56364 -0.497809 0
M  V30 4016 H 378.409 1.57833 -2.53242 0
M  V30 4017 C 377.158 3.08815 -1.59776 0
M  V30 4018 H 376.481 3.1499 -2.46214 0
M  V30 4019 H 377.921 3.87588 -1.71905 0
M  V30 4020 C 376.38 3.35301 -0.327812 0
M  V30 4021 O 376.91 3.97511 0.57861 0
M  V30 4022 N 375.116 2.89816 -0.213274 0
M  V30 4023 H 374.663 2.39371 -0.951798 0
M  V30 4024 H 374.621 3.0791 0.63553 0
M  V30 4025 N 378.394 1.34581 0.820102 0
M  V30 4026 C 379.641 1.27096 1.57648 0
M  V30 4027 C 379.969 -0.158317 1.93855 0
M  V30 4028 O 379.224 -1.12028 1.60463 0
M  V30 4029 C 379.523 2.10997 2.8847 0
M  V30 4030 C 379.189 3.59966 2.71543 0
M  V30 4031 C 377.851 4.00575 2.66634 0
M  V30 4032 C 380.203 4.54548 2.55021 0
M  V30 4033 C 377.531 5.33953 2.43128 0
M  V30 4034 C 379.883 5.88109 2.33047 0
M  V30 4035 C 378.547 6.27878 2.26552 0
M  V30 4036 H 377.817 0.465078 0.576874 0
M  V30 4037 H 380.464 1.6635 0.948671 0
M  V30 4038 H 378.769 1.6458 3.55557 0
M  V30 4039 H 380.466 2.0255 3.46084 0
M  V30 4040 H 377.056 3.27733 2.76205 0
M  V30 4041 H 381.24 4.24069 2.57835 0
M  V30 4042 H 376.496 5.63781 2.3656 0
M  V30 4043 H 380.67 6.60985 2.19251 0
M  V30 4044 H 378.297 7.31162 2.081 0
M  V30 4045 N 379.872 -1.04064 1.18357 0
M  V30 4046 C 381.118 -1.77528 0.980397 0
M  V30 4047 C 381.451 -1.87948 -0.48879 0
M  V30 4048 O 380.726 -1.3876 -1.36293 0
M  V30 4049 C 381.009 -3.20797 1.63588 0
M  V30 4050 C 380.862 -3.1832 3.17793 0
M  V30 4051 C 382.181 -4.18911 1.34914 0
M  V30 4052 H 379.3 -0.644443 0.357578 0
M  V30 4053 H 381.942 -1.2156 1.46024 0
M  V30 4054 H 380.092 -3.68586 1.22788 0
M  V30 4055 H 381.764 -2.78521 3.67728 0
M  V30 4056 H 380.007 -2.56351 3.49952 0
M  V30 4057 H 380.678 -4.19489 3.58794 0
M  V30 4058 H 383.154 -3.7967 1.70265 0
M  V30 4059 H 382.03 -5.17374 1.83346 0
M  V30 4060 H 382.291 -4.41262 0.272027 0
M  V30 4061 N 381.35 -0.985608 -1.22978 0
M  V30 4062 C 382.627 -0.573599 -1.87001 0
M  V30 4063 C 383.007 0.949213 -1.88555 0
M  V30 4064 O 382.355 1.82811 -1.37086 0
M  V30 4065 C 382.565 -1.18564 -3.28243 0
M  V30 4066 C 383.913 -1.28163 -4.04796 0
M  V30 4067 O 384.937 -1.13949 -3.37482 0
M  V30 4068 O 383.796 -1.50832 -5.25273 0
M  V30 4069 H 380.89 -0.193868 -0.803955 0
M  V30 4070 H 383.436 -1.08102 -1.30813 0
M  V30 4071 H 382.208 -2.22758 -3.21706 0
M  V30 4072 H 381.831 -0.663363 -3.92027 0
M  V30 4073 N 382.828 1.3818 -0.7579 0
M  V30 4074 C 384.053 2.04827 -0.325679 0
M  V30 4075 C 384.478 1.56788 1.03919 0
M  V30 4076 O 383.836 0.721811 1.66312 0
M  V30 4077 C 383.884 3.58774 -0.362447 0
M  V30 4078 O 382.988 4.07372 0.642033 0
M  V30 4079 H 382.329 0.64833 -0.143402 0
M  V30 4080 H 384.859 1.7677 -1.03023 0
M  V30 4081 H 384.869 4.07434 -0.214844 0
M  V30 4082 H 383.544 3.93096 -1.35824 0
M  V30 4083 H 382.121 3.70068 0.458688 0
M  V30 4084 N 384.306 0.507319 1.49211 0
M  V30 4085 C 385.546 -0.0332372 2.04373 0
M  V30 4086 C 385.91 -1.33694 1.37804 0
M  V30 4087 O 387.111 -1.96213 1.83722 0
M  V30 4088 C 385.382 -0.17599 3.56966 0
M  V30 4089 S 386.941 -0.669882 4.33657 0
M  V30 4090 H 383.759 0.00123603 0.710999 0
M  V30 4091 H 386.361 0.682725 1.83191 0
M  V30 4092 H 385.065 0.778053 4.02957 0
M  V30 4093 H 384.596 -0.917005 3.82563 0
M  V30 4094 H 386.611 -1.93806 4.56786 0
M  V30 4095 N 385.784 -1.5574 0.241426 0
M  V30 4096 C 386.714 -2.24133 -0.654722 0
M  V30 4097 C 387.695 -1.21974 -1.1856 0
M  V30 4098 O 388.88 -1.50612 -1.22595 0
M  V30 4099 C 386.01 -2.93659 -1.85423 0
M  V30 4100 C 384.964 -4.0246 -1.45636 0
M  V30 4101 C 384.29 -4.59383 -2.73626 0
M  V30 4102 C 385.59 -5.18468 -0.631506 0
M  V30 4103 H 387.284 -2.99281 -0.0844353 0
M  V30 4104 H 384.83 -1.43947 -0.0391707 0
M  V30 4105 H 386.783 -3.40203 -2.48676 0
M  V30 4106 H 385.507 -2.15991 -2.44981 0
M  V30 4107 H 384.166 -3.56676 -0.847202 0
M  V30 4108 H 383.814 -3.78422 -3.3137 0
M  V30 4109 H 383.514 -5.32826 -2.4773 0
M  V30 4110 H 385.038 -5.08658 -3.37786 0
M  V30 4111 H 386.452 -5.61272 -1.1682 0
M  V30 4112 H 384.849 -5.98266 -0.468831 0
M  V30 4113 H 385.919 -4.8358 0.357506 0
M  V30 4114 N 387.262 0.0317525 -1.57568 0
M  V30 4115 C 388.194 1.06073 -2.03178 0
M  V30 4116 C 389.207 1.32627 -0.944132 0
M  V30 4117 O 390.396 1.30162 -1.22148 0
M  V30 4118 C 387.496 2.40297 -2.38978 0
M  V30 4119 C 386.669 2.33137 -3.70089 0
M  V30 4120 C 385.728 3.49787 -3.9311 0
M  V30 4121 O 384.754 3.29403 -4.64201 0
M  V30 4122 N 385.956 4.71562 -3.38541 0
M  V30 4123 H 388.721 0.672006 -2.92069 0
M  V30 4124 H 386.282 0.219745 -1.60402 0
M  V30 4125 H 388.274 3.1705 -2.51518 0
M  V30 4126 H 386.844 2.71024 -1.55771 0
M  V30 4127 H 386.064 1.415 -3.67928 0
M  V30 4128 H 387.352 2.25493 -4.56104 0
M  V30 4129 H 386.75 4.91024 -2.80912 0
M  V30 4130 H 385.307 5.45689 -3.56464 0
M  V30 4131 N 388.74 1.54641 0.303973 0
M  V30 4132 C 389.687 1.85386 1.37479 0
M  V30 4133 C 390.657 0.702528 1.50512 0
M  V30 4134 O 391.842 0.950867 1.65418 0
M  V30 4135 C 388.982 2.10413 2.73533 0
M  V30 4136 C 388.095 3.38049 2.68974 0
M  V30 4137 C 387.23 3.52934 3.97002 0
M  V30 4138 C 386.269 4.74373 3.86829 0
M  V30 4139 N 385.406 4.8608 5.06627 0
M  V30 4140 H 390.246 2.76732 1.1056 0
M  V30 4141 H 387.783 1.37034 0.534805 0
M  V30 4142 H 389.741 2.22919 3.52652 0
M  V30 4143 H 388.371 1.22338 2.98719 0
M  V30 4144 H 387.423 3.3418 1.81736 0
M  V30 4145 H 388.735 4.27288 2.57346 0
M  V30 4146 H 387.889 3.65088 4.84557 0
M  V30 4147 H 386.628 2.61824 4.1146 0
M  V30 4148 H 385.633 4.62255 2.97658 0
M  V30 4149 H 386.858 5.66888 3.73918 0
M  V30 4150 H 384.804 3.97891 5.21554 0
M  V30 4151 H 384.721 5.69315 4.9741 0
M  V30 4152 H 385.989 5.02587 5.95841 0
M  V30 4153 N 390.218 -0.567019 1.47046 0
M  V30 4154 C 391.467 -1.32091 1.5243 0
M  V30 4155 C 391.78 -1.94704 0.187021 0
M  V30 4156 O 392.986 -2.7124 0.118771 0
M  V30 4157 C 391.442 -2.39479 2.68659 0
M  V30 4158 C 391.05 -1.831 4.08874 0
M  V30 4159 C 392.794 -3.16111 2.83327 0
M  V30 4160 C 390.701 -2.8821 5.16419 0
M  V30 4161 H 389.631 -0.496629 0.56734 0
M  V30 4162 H 392.282 -0.603354 1.73297 0
M  V30 4163 H 390.664 -3.14105 2.41152 0
M  V30 4164 H 391.838 -1.14913 4.46242 0
M  V30 4165 H 390.153 -1.19085 3.99008 0
M  V30 4166 H 392.75 -3.94585 3.60842 0
M  V30 4167 H 393.093 -3.69686 1.91411 0
M  V30 4168 H 393.626 -2.48595 3.10556 0
M  V30 4169 H 390.365 -2.39504 6.10179 0
M  V30 4170 H 389.885 -3.54839 4.8358 0
M  V30 4171 H 391.564 -3.51881 5.42945 0
M  V30 4172 N 391.696 -1.35014 -0.812953 0
M  V30 4173 C 393.107 -1.25035 -1.38648 0
M  V30 4174 C 393.458 0.119967 -1.95833 0
M  V30 4175 O 392.583 1.02069 -1.90816 0
M  V30 4176 C 393.178 -2.26394 -2.52054 0
M  V30 4177 C 391.737 -2.20175 -3.05287 0
M  V30 4178 C 390.884 -2.12451 -1.78213 0
M  V30 4179 H 393.835 -1.46235 -0.616516 0
M  V30 4180 H 393.856 -1.88672 -3.30429 0
M  V30 4181 H 393.368 -3.26116 -2.10404 0
M  V30 4182 H 391.469 -1.23841 -3.51417 0
M  V30 4183 H 391.582 -3.11863 -3.63701 0
M  V30 4184 H 389.946 -1.58328 -1.9951 0
M  V30 4185 H 390.729 -3.14024 -1.38723 0
M  V30 4186 N 393.175 1.03435 -1.18907 0
M  V30 4187 C 394.107 2.1165 -0.879595 0
M  V30 4188 C 395.12 1.62316 0.125439 0
M  V30 4189 O 396.309 1.78201 -0.103245 0
M  V30 4190 C 393.409 3.37622 -0.294042 0
M  V30 4191 C 392.582 4.16166 -1.34629 0
M  V30 4192 C 391.641 5.20457 -0.775274 0
M  V30 4193 O 390.667 5.50379 -1.4516 0
M  V30 4194 N 391.869 5.78949 0.424126 0
M  V30 4195 H 394.634 2.38791 -1.81105 0
M  V30 4196 H 392.195 1.19681 -1.09032 0
M  V30 4197 H 394.187 4.04572 0.101679 0
M  V30 4198 H 392.757 3.07873 0.541575 0
M  V30 4199 H 391.977 3.44444 -1.91707 0
M  V30 4200 H 393.265 4.65432 -2.05549 0
M  V30 4201 H 392.663 5.56948 0.991209 0
M  V30 4202 H 391.22 6.47334 0.761691 0
M  V30 4203 N 394.653 0.992116 1.22453 0
M  V30 4204 C 395.93 0.583508 1.86694 0
M  V30 4205 C 396.31 -0.9392 1.89056 0
M  V30 4206 O 395.658 -1.82081 1.38053 0
M  V30 4207 C 395.868 1.20304 3.2761 0
M  V30 4208 C 397.216 1.30308 4.0411 0
M  V30 4209 O 398.24 1.15737 3.36873 0
M  V30 4210 O 397.099 1.53615 5.24466 0
M  V30 4211 H 394.193 0.198129 0.802916 0
M  V30 4212 H 396.739 1.08794 1.30238 0
M  V30 4213 H 395.511 2.24461 3.2052 0
M  V30 4214 H 395.134 0.684144 3.9167 0
M  V30 4215 N 396.131 -1.37776 0.765217 0
M  V30 4216 C 397.547 -1.53297 0.444108 0
M  V30 4217 C 397.747 -1.72515 -1.04119 0
M  V30 4218 O 396.803 -1.74278 -1.82711 0
M  V30 4219 C 398.116 -2.73328 1.25349 0
M  V30 4220 C 399.664 -2.87185 1.24473 0
M  V30 4221 C 400.139 -4.10191 2.03733 0
M  V30 4222 N 401.63 -4.17291 2.01053 0
M  V30 4223 C 402.365 -5.11488 2.59166 0
M  V30 4224 N 401.861 -6.11285 3.26041 0
M  V30 4225 N 403.654 -5.03924 2.49032 0
M  V30 4226 H 395.805 -1.23552 1.72768 0
M  V30 4227 H 398.068 -0.601103 0.733062 0
M  V30 4228 H 397.774 -2.6557 2.30577 0
M  V30 4229 H 397.648 -3.66834 0.87823 0
M  V30 4230 H 400.035 -2.94418 0.20047 0
M  V30 4231 H 400.116 -1.94657 1.65959 0
M  V30 4232 H 399.76 -4.0372 3.08176 0
M  V30 4233 H 399.69 -5.01821 1.59633 0
M  V30 4234 H 402.181 -3.45825 1.5236 0
M  V30 4235 H 402.494 -6.79678 3.67774 0
M  V30 4236 H 400.839 -6.11583 3.30138 0
M  V30 4237 H 404.03 -4.24902 1.96407 0
M  V30 4238 H 404.203 -5.77152 2.94617 0
M  V30 4239 N 397.609 -0.515225 -1.4894 0
M  V30 4240 C 399.02 -0.0710067 -1.86565 0
M  V30 4241 C 399.371 1.34733 -1.42623 0
M  V30 4242 O 398.496 2.00653 -0.810379 0
M  V30 4243 C 399.091 -0.122083 -3.3858 0
M  V30 4244 C 397.65 0.266863 -3.75453 0
M  V30 4245 C 396.797 -0.488376 -2.72966 0
M  V30 4246 H 399.748 -0.727266 -1.41055 0
M  V30 4247 H 399.769 0.669818 -3.74558 0
M  V30 4248 H 399.281 -1.15448 -3.70531 0
M  V30 4249 H 397.382 1.30196 -3.49113 0
M  V30 4250 H 397.495 -0.0624811 -4.79059 0
M  V30 4251 H 395.859 0.0635622 -2.54621 0
M  V30 4252 H 396.642 -1.52113 -3.07761 0
M  V30 4253 N 399.087 1.5561 -0.249682 0
M  V30 4254 C 400.315 2.03411 0.378352 0
M  V30 4255 C 400.73 1.12886 1.51335 0
M  V30 4256 O 400.087 0.143833 1.81932 0
M  V30 4257 C 400.138 3.50537 0.88351 0
M  V30 4258 O 399.859 4.37614 -0.20626 0
M  V30 4259 C 401.36 4.14113 1.58195 0
M  V30 4260 H 398.58 0.664994 0.08958 0
M  V30 4261 H 401.124 2.01044 -0.374357 0
M  V30 4262 H 399.279 3.5343 1.58639 0
M  V30 4263 H 399.693 5.24199 0.177782 0
M  V30 4264 H 401.167 5.18741 1.8871 0
M  V30 4265 H 401.644 3.60767 2.50487 0
M  V30 4266 H 402.25 4.15151 0.923573 0
M  V30 4267 N 400.565 -0.0233959 1.57583 0
M  V30 4268 C 401.79 -0.728376 1.94189 0
M  V30 4269 C 402.215 -1.67793 0.850119 0
M  V30 4270 O 401.573 -1.80262 -0.19371 0
M  V30 4271 C 401.621 -1.45669 3.29868 0
M  V30 4272 O 400.725 -2.57013 3.22518 0
M  V30 4273 H 400.066 -0.195493 0.63457 0
M  V30 4274 H 402.596 0.0228214 2.04587 0
M  V30 4275 H 402.606 -1.82535 3.6489 0
M  V30 4276 H 401.281 -0.760314 4.08891 0
M  V30 4277 H 399.858 -2.22648 2.99136 0
M  V30 4278 N 402.043 -1.548 -0.295768 0
M  V30 4279 C 402.953 -1.89177 -1.38742 0
M  V30 4280 C 403.969 -0.786481 -1.55211 0
M  V30 4281 O 405.145 -1.08344 -1.69775 0
M  V30 4282 C 402.21 -2.13663 -2.73036 0
M  V30 4283 C 401.271 -3.37349 -2.65508 0
M  V30 4284 C 400.504 -3.60658 -3.93398 0
M  V30 4285 O 400.727 -2.86882 -4.93006 0
M  V30 4286 O 399.661 -4.54179 -3.94975 0
M  V30 4287 H 403.487 -2.82059 -1.12589 0
M  V30 4288 H 401.072 -1.41056 -0.492295 0
M  V30 4289 H 402.954 -2.3094 -3.52484 0
M  V30 4290 H 401.629 -1.23967 -2.99022 0
M  V30 4291 H 400.536 -3.25431 -1.84514 0
M  V30 4292 H 401.869 -4.27192 -2.44474 0
M  V30 4293 N 403.521 0.559213 -1.47345 0
M  V30 4294 C 404.431 1.69388 -1.62311 0
M  V30 4295 C 405.447 1.6648 -0.505993 0
M  V30 4296 O 406.623 1.85964 -0.773262 0
M  V30 4297 C 403.688 3.05894 -1.63185 0
M  V30 4298 C 402.749 3.19885 -2.86307 0
M  V30 4299 C 401.982 4.49879 -2.87131 0
M  V30 4300 O 402.205 5.35217 -1.97229 0
M  V30 4301 O 401.139 4.67618 -3.78968 0
M  V30 4302 H 404.965 1.59706 -2.58317 0
M  V30 4303 H 402.55 0.728989 -1.30407 0
M  V30 4304 H 404.432 3.87133 -1.66451 0
M  V30 4305 H 403.107 3.15964 -0.70345 0
M  V30 4306 H 402.014 2.38052 -2.88587 0
M  V30 4307 H 403.347 3.14718 -3.78435 0
M  V30 4308 N 404.999 1.35443 0.805782 0
M  V30 4309 C 405.929 1.31095 1.93226 0
M  V30 4310 C 406.91 0.185244 1.69088 0
M  V30 4311 O 408.095 0.380332 1.90439 0
M  V30 4312 C 405.225 1.08299 3.29983 0
M  V30 4313 C 404.179 2.17519 3.68605 0
M  V30 4314 C 403.505 1.79887 5.03532 0
M  V30 4315 C 404.805 3.5949 3.78898 0
M  V30 4316 H 406.499 2.25352 1.97122 0
M  V30 4317 H 404.045 1.0848 0.946996 0
M  V30 4318 H 405.998 1.03897 4.08391 0
M  V30 4319 H 404.722 0.104885 3.26432 0
M  V30 4320 H 403.381 2.2102 2.92482 0
M  V30 4321 H 403.029 0.80693 4.96485 0
M  V30 4322 H 402.729 2.53001 5.30344 0
M  V30 4323 H 404.253 1.77011 5.84379 0
M  V30 4324 H 405.667 3.58307 4.47536 0
M  V30 4325 H 404.064 4.31371 4.1718 0
M  V30 4326 H 405.134 3.95584 2.80431 0
M  V30 4327 N 406.477 -1.02803 1.19454 0
M  V30 4328 C 407.407 -2.12999 0.956758 0
M  V30 4329 C 408.388 -1.69743 -0.110188 0
M  V30 4330 O 409.573 -1.94148 0.0450038 0
M  V30 4331 C 406.703 -3.43746 0.495553 0
M  V30 4332 C 405.657 -4.00688 1.50443 0
M  V30 4333 C 404.983 -5.27067 0.900275 0
M  V30 4334 C 406.283 -4.35397 2.8849 0
M  V30 4335 H 407.977 -2.33148 1.87836 0
M  V30 4336 H 405.523 -1.12045 0.904539 0
M  V30 4337 H 407.476 -4.2021 0.316493 0
M  V30 4338 H 406.2 -3.23321 -0.461646 0
M  V30 4339 H 404.859 -3.2632 1.67065 0
M  V30 4340 H 404.507 -5.02959 -0.064503 0
M  V30 4341 H 404.207 -5.66127 1.57397 0
M  V30 4342 H 405.731 -6.06196 0.73203 0
M  V30 4343 H 407.145 -5.02795 2.75446 0
M  V30 4344 H 405.542 -4.85541 3.52661 0
M  V30 4345 H 406.612 -3.44662 3.41081 0
M  V30 4346 N 407.956 -0.998596 -1.21925 0
M  V30 4347 C 408.903 -0.553621 -2.24062 0
M  V30 4348 C 409.873 0.416999 -1.6078 0
M  V30 4349 O 411.058 0.320482 -1.88089 0
M  V30 4350 C 408.198 0.119959 -3.44891 0
M  V30 4351 C 407.311 -0.893077 -4.22668 0
M  V30 4352 C 406.446 -0.192424 -5.30851 0
M  V30 4353 C 405.485 -1.19344 -6.00353 0
M  V30 4354 N 404.622 -0.520707 -7.00166 0
M  V30 4355 H 409.462 -1.4293 -2.61486 0
M  V30 4356 H 406.999 -0.715838 -1.28507 0
M  V30 4357 H 408.957 0.527459 -4.13852 0
M  V30 4358 H 407.587 0.959389 -3.08214 0
M  V30 4359 H 406.639 -1.41886 -3.52948 0
M  V30 4360 H 407.951 -1.65512 -4.70539 0
M  V30 4361 H 407.105 0.271515 -6.06092 0
M  V30 4362 H 405.844 0.602075 -4.83969 0
M  V30 4363 H 404.849 -1.66795 -5.23889 0
M  V30 4364 H 406.074 -1.98891 -6.49322 0
M  V30 4365 H 404.02 0.254252 -6.55507 0
M  V30 4366 H 403.937 -1.2211 -7.46073 0
M  V30 4367 H 405.205 -0.0797596 -7.79459 0
M  V30 4368 N 409.434 1.37368 -0.772513 0
M  V30 4369 C 410.384 2.27613 -0.132823 0
M  V30 4370 C 411.368 1.46138 0.673247 0
M  V30 4371 O 412.56 1.68686 0.536095 0
M  V30 4372 C 409.689 3.35122 0.744864 0
M  V30 4373 C 408.775 4.24044 -0.0690771 0
M  V30 4374 N 409.166 4.93355 -1.1151 0
M  V30 4375 C 407.464 4.45731 0.154782 0
M  V30 4376 C 408.165 5.59 -1.60917 0
M  V30 4377 N 407.141 5.35737 -0.921222 0
M  V30 4378 H 410.943 2.78675 -0.933681 0
M  V30 4379 H 408.457 1.50494 -0.610342 0
M  V30 4380 H 410.454 3.98683 1.21892 0
M  V30 4381 H 409.114 2.85616 1.54446 0
M  V30 4382 H 410.125 4.95785 -1.49726 0
M  V30 4383 H 406.802 4.07096 0.926224 0
M  V30 4384 H 408.192 6.24395 -2.48153 0
M  V30 4385 N 410.912 0.523116 1.48665 0
M  V30 4386 C 412.161 -0.01544 2.01694 0
M  V30 4387 C 412.474 -1.35975 1.40606 0
M  V30 4388 O 413.68 -1.98627 1.85093 0
M  V30 4389 C 412.136 -0.0779303 3.59816 0
M  V30 4390 C 411.744 1.26107 4.29885 0
M  V30 4391 C 413.488 -0.565678 4.20714 0
M  V30 4392 C 411.395 1.15954 5.79921 0
M  V30 4393 H 410.325 -0.00954163 0.75394 0
M  V30 4394 H 412.976 0.665865 1.70993 0
M  V30 4395 H 411.358 -0.824165 3.87329 0
M  V30 4396 H 412.532 2.02233 4.14051 0
M  V30 4397 H 410.847 1.68401 3.80828 0
M  V30 4398 H 413.444 -0.6595 5.30617 0
M  V30 4399 H 413.787 -1.56984 3.85567 0
M  V30 4400 H 414.32 0.12467 3.97605 0
M  V30 4401 H 411.059 2.13864 6.19631 0
M  V30 4402 H 410.579 0.439529 5.98187 0
M  V30 4403 H 412.258 0.847361 6.41427 0
M  V30 4404 N 412.39 -1.55475 0.257931 0
M  V30 4405 C 413.637 -1.99207 -0.363728 0
M  V30 4406 C 413.965 -1.1462 -1.57139 0
M  V30 4407 O 413.22 -0.199653 -1.94679 0
M  V30 4408 C 413.519 -3.48183 -0.806433 0
M  V30 4409 C 413.185 -4.49936 0.294684 0
M  V30 4410 C 411.847 -4.77481 0.597076 0
M  V30 4411 C 414.199 -5.10769 1.03751 0
M  V30 4412 C 411.527 -5.63132 1.64618 0
M  V30 4413 C 413.879 -5.97558 2.07622 0
M  V30 4414 C 412.543 -6.23432 2.38514 0
M  V30 4415 H 411.813 -0.728949 -0.133097 0
M  V30 4416 H 414.46 -1.8793 0.368059 0
M  V30 4417 H 412.765 -3.56848 -1.61761 0
M  V30 4418 H 414.462 -3.79415 -1.29789 0
M  V30 4419 H 411.052 -4.28572 0.0488649 0
M  V30 4420 H 415.236 -4.89527 0.817149 0
M  V30 4421 H 410.492 -5.8143 1.89074 0
M  V30 4422 H 414.666 -6.43735 2.65666 0
M  V30 4423 H 412.293 -6.89594 3.19943 0
M  V30 4424 N 413.868 0.0150385 -1.57593 0
M  V30 4425 C 415.114 0.704043 -1.90187 0
M  V30 4426 C 415.447 1.74249 -0.857366 0
M  V30 4427 O 414.722 1.94092 0.125843 0
M  V30 4428 C 415.005 1.36087 -3.33395 0
M  V30 4429 C 414.858 0.334981 -4.48551 0
M  V30 4430 C 416.177 2.29112 -3.7576 0
M  V30 4431 H 413.296 0.254475 -0.691673 0
M  V30 4432 H 415.938 -0.0331678 -1.89971 0
M  V30 4433 H 414.088 1.98922 -3.3371 0
M  V30 4434 H 415.76 -0.292534 -4.60372 0
M  V30 4435 H 414.003 -0.344325 -4.32431 0
M  V30 4436 H 414.674 0.833316 -5.45674 0
M  V30 4437 H 417.15 1.76308 -3.76902 0
M  V30 4438 H 416.026 2.72043 -4.76743 0
M  V30 4439 H 416.287 3.16385 -3.08793 0
M  V30 4440 N 415.346 1.54954 0.287554 0
M  V30 4441 C 416.276 1.89839 1.35954 0
M  V30 4442 C 417.257 0.758675 1.52244 0
M  V30 4443 O 418.442 1.01557 1.65529 0
M  V30 4444 C 415.572 2.15753 2.72154 0
M  V30 4445 C 414.526 3.3159 2.70614 0
M  V30 4446 C 413.852 3.42952 4.10229 0
M  V30 4447 C 415.152 4.68359 2.31165 0
M  V30 4448 H 416.846 2.79625 1.07007 0
M  V30 4449 H 414.392 1.3454 0.513316 0
M  V30 4450 H 416.345 2.38743 3.47246 0
M  V30 4451 H 415.069 1.22752 3.02654 0
M  V30 4452 H 413.728 3.08545 1.97979 0
M  V30 4453 H 413.376 2.47443 4.37928 0
M  V30 4454 H 413.076 4.20826 4.10097 0
M  V30 4455 H 414.6 3.68218 4.87081 0
M  V30 4456 H 416.014 4.9099 2.95976 0
M  V30 4457 H 414.411 5.49044 2.42221 0
M  V30 4458 H 415.481 4.68165 1.26291 0
M  V30 4459 N 416.824 -0.551391 1.4764 0
M  V30 4460 C 418.24 -0.877887 1.33287 0
M  V30 4461 C 418.44 -1.98817 0.327721 0
M  V30 4462 O 417.496 -2.51171 -0.258695 0
M  V30 4463 C 418.809 -1.26563 2.72768 0
M  V30 4464 C 420.357 -1.37673 2.81097 0
M  V30 4465 C 420.832 -1.79799 4.21232 0
M  V30 4466 N 422.323 -1.8694 4.23802 0
M  V30 4467 C 423.058 -2.20876 5.29151 0
M  V30 4468 N 422.554 -2.53386 6.448 0
M  V30 4469 N 424.347 -2.217 5.16532 0
M  V30 4470 H 416.498 0.18153 2.11623 0
M  V30 4471 H 418.761 0.0185514 0.947818 0
M  V30 4472 H 418.467 -0.523591 3.47781 0
M  V30 4473 H 418.341 -2.22052 3.04915 0
M  V30 4474 H 420.728 -2.10956 2.06353 0
M  V30 4475 H 420.809 -0.40357 2.52596 0
M  V30 4476 H 420.453 -1.07083 4.96483 0
M  V30 4477 H 420.383 -2.78128 4.4716 0
M  V30 4478 H 422.874 -1.64179 3.40373 0
M  V30 4479 H 423.187 -2.78325 7.20941 0
M  V30 4480 H 421.532 -2.50953 6.48111 0
M  V30 4481 H 424.723 -1.95745 4.25207 0
M  V30 4482 H 424.896 -2.47818 5.98741 0
M  V30 4483 N 418.302 -1.35869 -0.798587 0
M  V30 4484 C 419.212 -1.31578 -1.94228 0
M  V30 4485 C 420.228 -0.21939 -1.72611 0
M  V30 4486 O 421.404 -0.450167 -1.96305 0
M  V30 4487 C 418.469 -1.09528 -3.28944 0
M  V30 4488 C 417.53 -2.28556 -3.63402 0
M  V30 4489 C 416.763 -2.07549 -4.9169 0
M  V30 4490 O 416.986 -1.046 -5.60727 0
M  V30 4491 O 415.92 -2.95106 -5.24591 0
M  V30 4492 H 419.746 -2.27847 -2.00796 0
M  V30 4493 H 417.331 -1.16322 -0.937526 0
M  V30 4494 H 419.213 -0.991127 -4.09579 0
M  V30 4495 H 417.888 -0.16315 -3.23289 0
M  V30 4496 H 416.795 -2.44538 -2.83112 0
M  V30 4497 H 418.128 -3.20244 -3.73771 0
M  V30 4498 N 419.78 1.02168 -1.19998 0
M  V30 4499 C 421.196 1.27969 -0.953737 0
M  V30 4500 C 421.396 1.98079 0.369703 0
M  V30 4501 O 420.452 2.27306 1.09947 0
M  V30 4502 C 421.765 2.11971 -2.13281 0
M  V30 4503 C 423.313 2.25255 -2.17323 0
M  V30 4504 C 423.788 3.12632 -3.34702 0
M  V30 4505 N 425.279 3.2022 -3.34684 0
M  V30 4506 C 426.014 3.88039 -4.22153 0
M  V30 4507 N 425.51 4.58027 -5.19791 0
M  V30 4508 N 427.303 3.84511 -4.10009 0
M  V30 4509 H 419.454 0.550794 -2.05134 0
M  V30 4510 H 421.717 0.305683 -0.897364 0
M  V30 4511 H 421.423 1.67785 -3.09097 0
M  V30 4512 H 421.297 3.12699 -2.10949 0
M  V30 4513 H 423.684 2.68667 -1.22073 0
M  V30 4514 H 423.765 1.24053 -2.23706 0
M  V30 4515 H 423.409 2.69926 -4.30235 0
M  V30 4516 H 423.339 4.13909 -3.25556 0
M  V30 4517 H 425.83 2.70382 -2.64012 0
M  V30 4518 H 426.143 5.07429 -5.82868 0
M  V30 4519 H 424.488 4.56869 -5.23733 0
M  V30 4520 H 427.679 3.28978 -3.33003 0
M  V30 4521 H 427.852 4.3709 -4.78389 0
M  V30 4522 N 421.258 1.00505 1.21394 0
M  V30 4523 C 422.669 0.721082 1.72213 0
M  V30 4524 C 423.02 -0.761263 1.80829 0
M  V30 4525 O 422.145 -1.59464 1.46288 0
M  V30 4526 C 422.74 1.30228 3.12772 0
M  V30 4527 C 421.299 1.06743 3.60947 0
M  V30 4528 C 420.446 1.41507 2.38477 0
M  V30 4529 H 423.397 1.17594 1.06571 0
M  V30 4530 H 423.418 0.686955 3.74247 0
M  V30 4531 H 422.93 2.38115 3.06468 0
M  V30 4532 H 421.031 0.00572162 3.726 0
M  V30 4533 H 421.144 1.73936 4.46411 0
M  V30 4534 H 419.508 0.833852 2.40664 0
M  V30 4535 H 420.291 2.50424 2.34824 0
M  V30 4536 N 422.737 -1.36956 0.779787 0
M  V30 4537 C 423.647 -2.33965 0.172491 0
M  V30 4538 C 424.663 -1.60574 -0.670222 0
M  V30 4539 O 425.839 -1.92617 -0.588263 0
M  V30 4540 C 422.904 -3.39761 -0.690173 0
M  V30 4541 C 421.965 -4.28964 0.169924 0
M  V30 4542 C 421.198 -5.29707 -0.651662 0
M  V30 4543 O 421.421 -5.38238 -1.88827 0
M  V30 4544 O 420.355 -6.01873 -0.0566264 0
M  V30 4545 H 424.181 -2.87647 0.974321 0
M  V30 4546 H 421.766 -1.39258 0.541078 0
M  V30 4547 H 423.648 -4.04471 -1.1824 0
M  V30 4548 H 422.323 -2.88394 -1.47006 0
M  V30 4549 H 421.23 -3.67326 0.708696 0
M  V30 4550 H 422.563 -4.83656 0.913085 0
M  V30 4551 N 424.215 -0.530993 -1.48385 0
M  V30 4552 C 425.443 -0.00134122 -2.069 0
M  V30 4553 C 425.858 1.2805 -1.3874 0
M  V30 4554 O 425.215 1.76204 -0.475244 0
M  V30 4555 C 425.266 0.225256 -3.60798 0
M  V30 4556 O 424.987 -1.0058 -4.26398 0
M  V30 4557 C 426.488 0.795172 -4.3611 0
M  V30 4558 H 423.708 -0.0339704 -0.67014 0
M  V30 4559 H 426.252 -0.736926 -1.90761 0
M  V30 4560 H 424.407 0.910891 -3.76539 0
M  V30 4561 H 424.821 -0.787165 -5.1856 0
M  V30 4562 H 426.295 0.903143 -5.44562 0
M  V30 4563 H 426.772 1.80031 -4.00606 0
M  V30 4564 H 427.378 0.146069 -4.25049 0
M  V30 4565 N 425.693 1.55336 -0.266172 0
M  V30 4566 C 426.939 1.99692 0.353681 0
M  V30 4567 C 427.272 1.1543 1.56172 0
M  V30 4568 O 426.547 0.222218 1.93226 0
M  V30 4569 C 426.83 3.52316 0.74466 0
M  V30 4570 C 426.683 4.47337 -0.470101 0
M  V30 4571 C 428.002 4.10588 1.58447 0
M  V30 4572 H 425.121 0.725961 0.12708 0
M  V30 4573 H 427.763 1.86336 -0.371333 0
M  V30 4574 H 425.913 3.63829 1.36239 0
M  V30 4575 H 427.585 4.4778 -1.10864 0
M  V30 4576 H 425.828 4.19364 -1.10978 0
M  V30 4577 H 426.499 5.51788 -0.15291 0
M  V30 4578 H 428.975 4.02297 1.06286 0
M  V30 4579 H 427.851 5.17607 1.82686 0
M  V30 4580 H 428.112 3.60253 2.56262 0
M  V30 4581 N 427.171 -0.0066808 1.57599 0
M  V30 4582 C 428.101 -0.999296 2.11036 0
M  V30 4583 C 429.082 -1.36278 1.01795 0
M  V30 4584 O 430.267 -1.4477 1.29442 0
M  V30 4585 C 427.397 -2.29328 2.60818 0
M  V30 4586 C 426.351 -2.07159 3.74525 0
M  V30 4587 C 425.677 -3.42512 4.10596 0
M  V30 4588 C 426.977 -1.43959 5.02069 0
M  V30 4589 H 428.671 -0.554382 2.94223 0
M  V30 4590 H 426.217 -0.265221 1.41536 0
M  V30 4591 H 428.17 -2.99117 2.96828 0
M  V30 4592 H 426.894 -2.7592 1.74745 0
M  V30 4593 H 425.553 -1.39797 3.38899 0
M  V30 4594 H 425.201 -3.86795 3.21556 0
M  V30 4595 H 424.901 -3.28498 4.87199 0
M  V30 4596 H 426.425 -4.13628 4.4916 0
M  V30 4597 H 427.839 -2.03696 5.35893 0
M  V30 4598 H 426.236 -1.40452 5.83432 0
M  V30 4599 H 427.306 -0.407992 4.83181 0
M  V30 4600 N 428.649 -1.55105 -0.279332 0
M  V30 4601 C 429.898 -1.74618 -1.00952 0
M  V30 4602 C 430.211 -0.551096 -1.87676 0
M  V30 4603 O 431.417 -0.628507 -2.64125 0
M  V30 4604 C 429.873 -3.09025 -1.84476 0
M  V30 4605 C 429.481 -4.36081 -1.0265 0
M  V30 4606 C 431.225 -3.37891 -2.56963 0
M  V30 4607 C 429.132 -5.6153 -1.85576 0
M  V30 4608 H 428.062 -0.650868 -0.38064 0
M  V30 4609 H 430.713 -1.81569 -0.265475 0
M  V30 4610 H 429.095 -2.96095 -2.62952 0
M  V30 4611 H 430.269 -4.59909 -0.286354 0
M  V30 4612 H 428.584 -4.14312 -0.416464 0
M  V30 4613 H 431.181 -4.28822 -3.19399 0
M  V30 4614 H 431.524 -2.57737 -3.26921 0
M  V30 4615 H 432.057 -3.5189 -1.85522 0
M  V30 4616 H 428.796 -6.44413 -1.2005 0
M  V30 4617 H 428.316 -5.41854 -2.57204 0
M  V30 4618 H 429.995 -5.99594 -2.43096 0
M  V30 4619 N 430.127 0.543554 -1.4793 0
M  V30 4620 C 431.404 1.30458 -1.4574 0
M  V30 4621 C 431.784 2.1048 -0.161692 0
M  V30 4622 O 431.132 2.11831 0.856734 0
M  V30 4623 C 431.342 2.19754 -2.71126 0
M  V30 4624 C 432.69 2.80334 -3.18901 0
M  V30 4625 O 433.714 2.30049 -2.71948 0
M  V30 4626 O 432.573 3.71766 -4.00565 0
M  V30 4627 H 429.667 0.588117 -0.581418 0
M  V30 4628 H 432.213 0.561328 -1.60147 0
M  V30 4629 H 430.985 1.60316 -3.56952 0
M  V30 4630 H 430.608 3.01351 -2.59371 0
M  V30 4631 N 431.605 1.3629 0.791371 0
M  V30 4632 C 432.535 1.33137 1.91825 0
M  V30 4633 C 433.516 0.203168 1.68882 0
M  V30 4634 O 434.701 0.400509 1.90025 0
M  V30 4635 C 431.831 1.11793 3.28816 0
M  V30 4636 C 430.785 2.21417 3.66277 0
M  V30 4637 C 430.111 1.85218 5.01596 0
M  V30 4638 C 431.411 3.63489 3.75064 0
M  V30 4639 H 433.105 2.2743 1.9472 0
M  V30 4640 H 430.651 1.09479 0.935437 0
M  V30 4641 H 432.604 1.08222 4.07266 0
M  V30 4642 H 431.328 0.139501 3.26302 0
M  V30 4643 H 429.987 2.2411 2.90121 0
M  V30 4644 H 429.635 0.859544 4.95602 0
M  V30 4645 H 429.335 2.58611 5.27631 0
M  V30 4646 H 430.859 1.832 5.82469 0
M  V30 4647 H 432.273 3.63034 4.43711 0
M  V30 4648 H 430.67 4.35771 4.12582 0
M  V30 4649 H 431.74 3.98536 2.76219 0
M  V30 4650 N 433.083 -1.0153 1.20538 0
M  V30 4651 C 434.332 -1.74558 1.01057 0
M  V30 4652 C 434.645 -1.90168 -0.457756 0
M  V30 4653 O 435.851 -2.60301 -0.771722 0
M  V30 4654 C 434.307 -3.13963 1.75941 0
M  V30 4655 C 433.915 -3.06361 3.26875 0
M  V30 4656 C 435.659 -3.91191 1.64832 0
M  V30 4657 C 433.566 -4.40782 3.94291 0
M  V30 4658 H 432.496 -0.654417 0.374505 0
M  V30 4659 H 435.147 -1.13521 1.44171 0
M  V30 4660 H 433.529 -3.75549 1.25614 0
M  V30 4661 H 434.703 -2.54074 3.84425 0
M  V30 4662 H 433.018 -2.42625 3.38411 0
M  V30 4663 H 435.615 -4.90644 2.12539 0
M  V30 4664 H 435.958 -4.11884 0.604745 0
M  V30 4665 H 436.491 -3.36236 2.12579 0
M  V30 4666 H 433.23 -4.25292 4.98805 0
M  V30 4667 H 432.75 -4.9307 3.41529 0
M  V30 4668 H 434.429 -5.09621 3.98617 0
M  V30 4669 N 434.561 -1.01147 -1.20859 0
M  V30 4670 C 435.493 -0.535546 -2.22855 0
M  V30 4671 C 436.506 0.379323 -1.58319 0
M  V30 4672 O 437.695 0.178489 -1.77605 0
M  V30 4673 C 434.795 0.240962 -3.38042 0
M  V30 4674 C 433.968 -0.674562 -4.32167 0
M  V30 4675 C 433.027 0.053467 -5.26173 0
M  V30 4676 O 432.053 -0.567339 -5.66366 0
M  V30 4677 N 433.255 1.32997 -5.65059 0
M  V30 4678 H 436.02 -1.41268 -2.64317 0
M  V30 4679 H 433.581 -0.888386 -1.35349 0
M  V30 4680 H 435.573 0.737115 -3.97931 0
M  V30 4681 H 434.143 1.01935 -2.95513 0
M  V30 4682 H 433.363 -1.35111 -3.70322 0
M  V30 4683 H 434.651 -1.2974 -4.91981 0
M  V30 4684 H 434.049 1.85536 -5.34409 0
M  V30 4685 H 432.606 1.77095 -6.2728 0
M  V30 4686 N 436.039 1.36541 -0.78704 0
M  V30 4687 C 437.455 1.52571 -0.46844 0
M  V30 4688 C 437.655 1.7415 1.01361 0
M  V30 4689 O 436.711 1.77163 1.79915 0
M  V30 4690 C 438.024 2.71299 -1.29682 0
M  V30 4691 C 439.572 2.85169 -1.29027 0
M  V30 4692 C 440.047 4.06898 -2.10233 0
M  V30 4693 N 441.538 4.1404 -2.07666 0
M  V30 4694 C 442.273 5.07301 -2.67271 0
M  V30 4695 N 441.769 6.06021 -3.35724 0
M  V30 4696 N 443.562 4.99898 -2.57018 0
M  V30 4697 H 435.713 1.20788 -1.74711 0
M  V30 4698 H 437.976 0.589364 -0.742532 0
M  V30 4699 H 437.682 2.61868 -2.34773 0
M  V30 4700 H 437.556 3.6539 -0.936479 0
M  V30 4701 H 439.943 2.94062 -0.247284 0
M  V30 4702 H 440.024 1.91992 -1.69035 0
M  V30 4703 H 439.668 3.98766 -3.1456 0
M  V30 4704 H 439.598 4.99218 -1.67597 0
M  V30 4705 H 442.089 3.43357 -1.57843 0
M  V30 4706 H 442.402 6.73741 -3.78541 0
M  V30 4707 H 440.747 6.06253 -3.39826 0
M  V30 4708 H 443.938 4.21724 -2.03142 0
M  V30 4709 H 444.111 5.72392 -3.03761 0
M  V30 4710 N 437.518 0.538854 1.48102 0
M  V30 4711 C 438.746 0.0123136 2.06896 0
M  V30 4712 C 439.161 -1.27312 1.39417 0
M  V30 4713 O 438.518 -1.75949 0.484582 0
M  V30 4714 C 438.569 -0.206118 3.60912 0
M  V30 4715 O 438.29 1.0284 4.25859 0
M  V30 4716 C 439.791 -0.772033 4.36526 0
M  V30 4717 H 437.011 0.0375239 0.66995 0
M  V30 4718 H 439.555 0.747032 1.90367 0
M  V30 4719 H 437.71 -0.89091 3.77017 0
M  V30 4720 H 438.124 0.814654 5.18135 0
M  V30 4721 H 439.598 -0.874251 5.45033 0
M  V30 4722 H 440.075 -1.77904 4.01555 0
M  V30 4723 H 440.681 -0.123526 4.25121 0
M  V30 4724 N 438.996 -1.55193 0.274407 0
M  V30 4725 C 439.943 -2.225 -0.613374 0
M  V30 4726 C 440.913 -1.19823 -1.15029 0
M  V30 4727 O 442.098 -1.48362 -1.19973 0
M  V30 4728 C 439.238 -2.94927 -1.79199 0
M  V30 4729 C 438.351 -4.12322 -1.28899 0
M  V30 4730 C 437.486 -4.72394 -2.42934 0
M  V30 4731 C 436.525 -5.81984 -1.89634 0
M  V30 4732 N 435.662 -6.36123 -2.9714 0
M  V30 4733 H 440.502 -2.97982 -0.032756 0
M  V30 4734 H 438.039 -1.47099 -0.00440146 0
M  V30 4735 H 439.997 -3.35134 -2.48478 0
M  V30 4736 H 438.627 -2.2187 -2.34465 0
M  V30 4737 H 437.679 -3.7724 -0.489327 0
M  V30 4738 H 438.991 -4.91355 -0.858587 0
M  V30 4739 H 438.145 -5.15317 -3.20208 0
M  V30 4740 H 436.884 -3.92636 -2.8929 0
M  V30 4741 H 435.889 -5.38511 -1.1084 0
M  V30 4742 H 437.114 -6.6361 -1.44215 0
M  V30 4743 H 435.06 -5.59259 -3.42878 0
M  V30 4744 H 434.977 -7.10427 -2.58515 0
M  V30 4745 H 436.245 -6.83704 -3.74391 0
M  V30 4746 N 440.474 -0.00167713 -1.576 0
M  V30 4747 C 441.751 0.719951 -1.81868 0
M  V30 4748 C 442.131 1.91895 -0.879747 0
M  V30 4749 O 441.479 2.28389 0.0711423 0
M  V30 4750 C 441.689 1.12409 -3.30402 0
M  V30 4751 C 443.037 1.52724 -3.96182 0
M  V30 4752 O 444.061 1.21784 -3.34734 0
M  V30 4753 O 442.92 2.10265 -5.04431 0
M  V30 4754 H 440.014 0.350707 -0.748955 0
M  V30 4755 H 442.56 -0.0272597 -1.69678 0
M  V30 4756 H 441.332 0.269532 -3.90371 0
M  V30 4757 H 440.955 1.93035 -3.47596 0
M  V30 4758 N 441.952 1.55251 0.271103 0
M  V30 4759 C 442.915 1.87484 1.31842 0
M  V30 4760 C 443.915 0.749545 1.42262 0
M  V30 4761 O 445.105 1.01771 1.4138 0
M  V30 4762 C 442.237 2.0818 2.69951 0
M  V30 4763 H 443.43 2.81108 1.0449 0
M  V30 4764 H 440.983 1.47771 0.509258 0
M  V30 4765 H 441.718 1.16944 3.02481 0
M  V30 4766 H 441.503 2.90114 2.63774 0
M  V30 4767 H 442.993 2.34385 3.4562 0
M  V30 4768 N 443.43 -0.535701 1.48216 0
M  V30 4769 C 444.676 -1.29375 1.56173 0
M  V30 4770 C 445.009 -1.92804 0.232429 0
M  V30 4771 O 444.284 -1.78992 -0.761048 0
M  V30 4772 C 444.567 -2.38747 2.69577 0
M  V30 4773 C 444.42 -1.80046 4.12193 0
M  V30 4774 C 445.739 -3.40551 2.78771 0
M  V30 4775 H 442.858 -0.469027 0.568491 0
M  V30 4776 H 445.5 -0.597358 1.80365 0
M  V30 4777 H 443.65 -2.98147 2.4908 0
M  V30 4778 H 445.322 -1.24742 4.44114 0
M  V30 4779 H 443.565 -1.10609 4.19462 0
M  V30 4780 H 444.236 -2.59212 4.87353 0
M  V30 4781 H 446.712 -2.91099 2.97322 0
M  V30 4782 H 445.588 -4.1448 3.59857 0
M  V30 4783 H 445.849 -4.00746 1.86696 0
M  V30 4784 N 444.908 -1.36708 -0.784132 0
M  V30 4785 C 446.324 -1.17237 -1.08294 0
M  V30 4786 C 446.524 -5.93947e-05 -2.015 0
M  V30 4787 O 445.58 0.663686 -2.43622 0
M  V30 4788 C 446.893 -2.48557 -1.69233 0
M  V30 4789 C 448.441 -2.54968 -1.8155 0
M  V30 4790 C 448.916 -3.86388 -2.45904 0
M  V30 4791 N 450.407 -3.87762 -2.53367 0
M  V30 4792 C 451.142 -4.86191 -3.03983 0
M  V30 4793 N 450.638 -5.95015 -3.54866 0
M  V30 4794 N 452.431 -4.73606 -3.02743 0
M  V30 4795 H 444.582 -2.11758 -0.16501 0
M  V30 4796 H 446.845 -0.93822 -0.135822 0
M  V30 4797 H 446.551 -3.34638 -1.08215 0
M  V30 4798 H 446.425 -2.64748 -2.68679 0
M  V30 4799 H 448.812 -1.69302 -2.41704 0
M  V30 4800 H 448.893 -2.42672 -0.80895 0
M  V30 4801 H 448.537 -4.72462 -1.86392 0
M  V30 4802 H 448.467 -3.95982 -3.4714 0
M  V30 4803 H 450.958 -3.09145 -2.17343 0
M  V30 4804 H 451.271 -6.66086 -3.91854 0
M  V30 4805 H 449.616 -5.98676 -3.53003 0
M  V30 4806 H 452.807 -3.87717 -2.62284 0
M  V30 4807 H 452.98 -5.50473 -3.41881 0
M  V30 4808 N 446.386 1.0089 -1.21074 0
M  V30 4809 C 447.296 2.13039 -0.982425 0
M  V30 4810 C 448.312 1.73881 0.0642161 0
M  V30 4811 O 449.488 2.01012 -0.12496 0
M  V30 4812 C 446.553 3.42377 -0.545803 0
M  V30 4813 C 445.614 3.95731 -1.6642 0
M  V30 4814 C 444.847 5.18896 -1.24832 0
M  V30 4815 O 445.07 5.70273 -0.120265 0
M  V30 4816 O 444.004 5.65597 -2.05873 0
M  V30 4817 H 447.83 2.35175 -1.92163 0
M  V30 4818 H 445.415 1.1142 -0.995285 0
M  V30 4819 H 447.297 4.20244 -0.311912 0
M  V30 4820 H 445.972 3.21639 0.364727 0
M  V30 4821 H 444.879 3.19108 -1.95246 0
M  V30 4822 H 446.212 4.20872 -2.55201 0
M  V30 4823 N 447.864 1.01787 1.20321 0
M  V30 4824 C 448.794 0.609625 2.25401 0
M  V30 4825 C 449.775 -0.375951 1.65893 0
M  V30 4826 O 450.96 -0.261101 1.92437 0
M  V30 4827 C 448.09 -0.0515995 3.47262 0
M  V30 4828 C 447.044 0.855095 4.19371 0
M  V30 4829 C 446.37 0.0595757 5.34667 0
M  V30 4830 C 447.67 2.16374 4.75373 0
M  V30 4831 H 449.364 1.48803 2.59804 0
M  V30 4832 H 446.91 0.716934 1.24884 0
M  V30 4833 H 448.863 -0.348764 4.19954 0
M  V30 4834 H 447.587 -0.964726 3.12027 0
M  V30 4835 H 446.246 1.13628 3.48546 0
M  V30 4836 H 445.894 -0.85524 4.95676 0
M  V30 4837 H 445.594 0.663406 5.83843 0
M  V30 4838 H 447.118 -0.231105 6.10162 0
M  V30 4839 H 448.532 1.92885 5.39878 0
M  V30 4840 H 446.929 2.71853 5.34991 0
M  V30 4841 H 447.999 2.82589 3.94045 0
M  V30 4842 N 449.342 -1.36122 0.79427 0
M  V30 4843 C 450.619 -1.93398 0.292685 0
M  V30 4844 C 450.999 -1.72567 -1.21589 0
M  V30 4845 O 450.347 -1.08745 -2.00965 0
M  V30 4846 C 450.557 -3.42099 0.690614 0
M  V30 4847 C 451.905 -4.19231 0.673105 0
M  V30 4848 O 452.929 -3.50559 0.631389 0
M  V30 4849 O 451.788 -5.41732 0.720362 0
M  V30 4850 H 448.882 -0.823712 0.0736693 0
M  V30 4851 H 451.428 -1.45273 0.87714 0
M  V30 4852 H 450.2 -3.50938 1.73085 0
M  V30 4853 H 449.823 -3.97519 0.0803036 0
M  V30 4854 N 450.82 -0.546701 -1.47814 0
M  V30 4855 C 451.768 0.220048 -2.31557 0
M  V30 4856 C 452.762 0.919472 -1.42275 0
M  V30 4857 O 453.968 0.841953 -1.59095 0
M  V30 4858 H 450.343 0.0898334 -0.746615 0
M  V30 4859 H 452.314 -0.505589 -2.94086 0
M  V30 4860 C 451.063 1.24353 -3.24702 0
M  V30 4861 H 450.386 0.714758 -3.93359 0
M  V30 4862 H 451.826 1.75112 -3.8615 0
M  V30 4863 C 450.285 2.28593 -2.47481 0
M  V30 4864 O 450.815 3.35334 -2.21165 0
M  V30 4865 N 449.021 2.02244 -2.08676 0
M  V30 4866 H 448.568 1.15455 -2.30278 0
M  V30 4867 H 448.526 2.72207 -1.57323 0
M  V30 4868 N 452.299 1.55045 -0.282633 0
M  V30 4869 C 453.229 2.2579 0.595066 0
M  V30 4870 C 454.21 1.25074 1.15284 0
M  V30 4871 O 455.395 1.5381 1.18559 0
M  V30 4872 C 452.525 2.98472 1.77572 0
M  V30 4873 C 451.479 4.0618 1.34914 0
M  V30 4874 C 450.805 4.66477 2.6135 0
M  V30 4875 C 452.105 5.1996 0.493821 0
M  V30 4876 H 453.799 2.994 0.00505653 0
M  V30 4877 H 451.345 1.44 0.000992001 0
M  V30 4878 H 453.298 3.46677 2.39568 0
M  V30 4879 H 452.022 2.2241 2.39168 0
M  V30 4880 H 450.681 3.58797 0.752338 0
M  V30 4881 H 450.329 3.87074 3.2122 0
M  V30 4882 H 450.029 5.39207 2.33516 0
M  V30 4883 H 451.553 5.17435 3.24181 0
M  V30 4884 H 452.967 5.64172 1.01898 0
M  V30 4885 H 451.364 5.99299 0.310047 0
M  V30 4886 H 452.434 4.82462 -0.485593 0
M  V30 4887 N 453.777 0.010035 1.57597 0
M  V30 4888 C 454.709 -1.00649 2.05918 0
M  V30 4889 C 455.722 -1.30077 0.978964 0
M  V30 4890 O 456.911 -1.26878 1.25556 0
M  V30 4891 C 454.011 -2.33876 2.45265 0
M  V30 4892 C 453.184 -2.23242 3.7614 0
M  V30 4893 C 452.243 -3.39242 4.02245 0
M  V30 4894 O 451.269 -3.1698 4.72771 0
M  V30 4895 N 452.471 -4.6242 3.50924 0
M  V30 4896 H 455.236 -0.594333 2.93748 0
M  V30 4897 H 452.797 -0.17714 1.60928 0
M  V30 4898 H 454.789 -3.1027 2.59836 0
M  V30 4899 H 453.359 -2.66799 1.62902 0
M  V30 4900 H 452.579 -1.31696 3.71551 0
M  V30 4901 H 453.867 -2.13321 4.61922 0
M  V30 4902 H 453.265 -4.83404 2.93832 0
M  V30 4903 H 451.822 -5.36046 3.70807 0
M  V30 4904 N 455.255 -1.55392 -0.262866 0
M  V30 4905 C 456.485 -1.80251 -1.00961 0
M  V30 4906 C 456.893 -0.58117 -1.80053 0
M  V30 4907 O 456.236 0.459427 -1.77862 0
M  V30 4908 C 456.298 -2.98207 -2.00781 0
M  V30 4909 C 455.962 -4.34856 -1.40533 0
M  V30 4910 C 456.959 -5.13459 -0.815853 0
M  V30 4911 C 454.644 -4.8153 -1.42948 0
M  V30 4912 C 456.638 -6.36875 -0.258562 0
M  V30 4913 C 454.325 -6.04899 -0.868334 0
M  V30 4914 C 455.323 -6.8241 -0.283884 0
M  V30 4915 O 455.011 -8.03451 0.268644 0
M  V30 4916 H 454.743 -0.604049 -0.303482 0
M  V30 4917 H 457.297 -2.03257 -0.295926 0
M  V30 4918 H 455.527 -2.70917 -2.75936 0
M  V30 4919 H 457.216 -3.10299 -2.61667 0
M  V30 4920 H 457.982 -4.78526 -0.789812 0
M  V30 4921 H 453.861 -4.21201 -1.87378 0
M  V30 4922 H 457.405 -6.97318 0.198257 0
M  V30 4923 H 453.302 -6.39312 -0.891649 0
M  V30 4924 H 454.07 -8.18346 0.158974 0
M  V30 4925 N 456.733 0.527833 -1.48498 0
M  V30 4926 C 458.149 0.856571 -1.34666 0
M  V30 4927 C 458.349 1.98271 -0.35931 0
M  V30 4928 O 457.405 2.51551 0.218703 0
M  V30 4929 C 458.718 1.22207 -2.74747 0
M  V30 4930 C 460.266 1.33183 -2.83251 0
M  V30 4931 C 460.741 1.73075 -4.24039 0
M  V30 4932 N 462.232 1.80174 -4.26722 0
M  V30 4933 C 462.967 2.1243 -5.32598 0
M  V30 4934 N 462.463 2.43096 -6.4875 0
M  V30 4935 N 464.256 2.13454 -5.19994 0
M  V30 4936 H 456.407 -0.215174 -2.11307 0
M  V30 4937 H 458.67 -0.0336281 -0.947403 0
M  V30 4938 H 458.376 0.468195 -3.4857 0
M  V30 4939 H 458.25 2.17173 -3.08409 0
M  V30 4940 H 460.637 2.07647 -2.09683 0
M  V30 4941 H 460.718 0.363333 -2.53206 0
M  V30 4942 H 460.362 0.991712 -4.98124 0
M  V30 4943 H 460.292 2.70979 -4.51529 0
M  V30 4944 H 462.783 1.58744 -3.42942 0
M  V30 4945 H 463.096 2.6682 -7.25277 0
M  V30 4946 H 461.441 2.40611 -6.52021 0
M  V30 4947 H 464.632 1.88956 -4.28268 0
M  V30 4948 H 464.805 2.38261 -6.02608 0
M  V30 4949 N 458.211 1.37122 0.776871 0
M  V30 4950 C 459.158 1.3247 1.88998 0
M  V30 4951 C 460.128 0.191143 1.64997 0
M  V30 4952 O 461.313 0.379683 1.86984 0
M  V30 4953 C 458.453 1.13241 3.25992 0
M  V30 4954 C 457.566 2.35782 3.61982 0
M  V30 4955 C 456.701 2.09465 4.88158 0
M  V30 4956 C 455.74 3.279 5.16864 0
M  V30 4957 N 454.877 3.01167 6.34226 0
M  V30 4958 H 459.717 2.27642 1.9231 0
M  V30 4959 H 457.254 1.13125 0.94027 0
M  V30 4960 H 459.212 1.00115 4.0501 0
M  V30 4961 H 457.842 0.217186 3.22069 0
M  V30 4962 H 456.894 2.59666 2.77989 0
M  V30 4963 H 458.206 3.24125 3.79137 0
M  V30 4964 H 457.36 1.93341 5.75069 0
M  V30 4965 H 456.099 1.18452 4.73097 0
M  V30 4966 H 455.104 3.44569 4.2843 0
M  V30 4967 H 456.329 4.19757 5.33836 0
M  V30 4968 H 454.275 2.12779 6.20533 0
M  V30 4969 H 454.192 3.83052 6.51772 0
M  V30 4970 H 455.46 2.88649 7.24087 0
M  V30 4971 N 459.689 -1.00246 1.21608 0
M  V30 4972 C 460.622 -2.08794 0.920892 0
M  V30 4973 C 461.6 -1.62059 -0.132552 0
M  V30 4974 O 462.784 -1.885 -0.0030366 0
M  V30 4975 C 459.911 -3.36525 0.383226 0
M  V30 4976 C 458.957 -4.02172 1.41987 0
M  V30 4977 S 459.79 -4.44256 2.98994 0
M  V30 4978 C 460.946 -5.7517 2.4684 0
M  V30 4979 H 461.179 -2.33511 1.8401 0
M  V30 4980 H 458.712 -1.13562 1.04609 0
M  V30 4981 H 460.67 -4.10423 0.0795871 0
M  V30 4982 H 459.331 -3.09854 -0.514711 0
M  V30 4983 H 458.524 -4.94114 0.993335 0
M  V30 4984 H 458.126 -3.34559 1.67171 0
M  V30 4985 H 460.418 -6.51042 1.87484 0
M  V30 4986 H 461.361 -6.22638 3.37235 0
M  V30 4987 H 461.769 -5.32112 1.88461 0
M  V30 4988 N 461.167 -1.02423 -1.1978 0
M  V30 4989 C 462.114 -0.601023 -2.22837 0
M  V30 4990 C 463.084 0.382801 -1.61629 0
M  V30 4991 O 464.269 0.280514 -1.88727 0
M  V30 4992 C 461.409 0.0467755 -3.45068 0
M  V30 4993 C 460.522 -0.98253 -4.20678 0
M  V30 4994 C 459.657 -0.304982 -5.30324 0
M  V30 4995 C 458.696 -1.32052 -5.97686 0
M  V30 4996 N 457.833 -0.669105 -6.98904 0
M  V30 4997 H 462.673 -1.48444 -2.58396 0
M  V30 4998 H 460.21 -0.742936 -1.2696 0
M  V30 4999 H 462.168 0.439556 -4.14878 0
M  V30 5000 H 460.798 0.893796 -3.10179 0
M  V30 5001 H 459.85 -1.49341 -3.49859 0
M  V30 5002 H 461.162 -1.75455 -4.66923 0
M  V30 5003 H 460.316 0.142893 -6.06532 0
M  V30 5004 H 459.055 0.499283 -4.85138 0
M  V30 5005 H 458.06 -1.7787 -5.20233 0
M  V30 5006 H 459.285 -2.1262 -6.44957 0
M  V30 5007 H 457.231 0.115152 -6.55899 0
M  V30 5008 H 457.148 -1.37908 -7.43315 0
M  V30 5009 H 458.416 -0.245076 -7.79115 0
M  V30 5010 N 462.645 1.35699 -0.801477 0
M  V30 5011 C 463.592 2.29876 -0.206294 0
M  V30 5012 C 464.562 1.52565 0.656752 0
M  V30 5013 O 465.747 1.81024 0.602906 0
M  V30 5014 C 462.887 3.39052 0.643272 0
M  V30 5015 C 462 4.31335 -0.239644 0
M  V30 5016 C 461.135 5.27599 0.61744 0
M  V30 5017 C 460.174 6.11521 -0.26619 0
M  V30 5018 N 459.311 6.99938 0.550571 0
M  V30 5019 H 464.151 2.80187 -1.01484 0
M  V30 5020 H 461.688 1.37902 -0.511997 0
M  V30 5021 H 463.646 4.0101 1.15094 0
M  V30 5022 H 462.276 2.9003 1.41713 0
M  V30 5023 H 461.328 3.70426 -0.865381 0
M  V30 5024 H 462.64 4.90243 -0.919985 0
M  V30 5025 H 461.794 5.94906 1.19045 0
M  V30 5026 H 460.533 4.69176 1.33137 0
M  V30 5027 H 459.538 5.43166 -0.851507 0
M  V30 5028 H 460.763 6.72022 -0.9779 0
M  V30 5029 H 458.709 6.44008 1.24856 0
M  V30 5030 H 458.626 7.55966 -0.071832 0
M  V30 5031 H 459.894 7.71599 1.10702 0
M  V30 5032 N 464.123 0.554532 1.47522 0
M  V30 5033 C 465.053 -0.182974 2.32782 0
M  V30 5034 C 466.034 -0.911377 1.43624 0
M  V30 5035 O 467.219 -0.892366 1.72483 0
M  V30 5036 C 464.349 -1.21513 3.25349 0
M  V30 5037 C 463.303 -0.603355 4.23726 0
M  V30 5038 C 462.629 -1.73995 5.05598 0
M  V30 5039 C 463.929 0.441121 5.20434 0
M  V30 5040 H 465.623 0.52882 2.94693 0
M  V30 5041 H 463.169 0.255759 1.41711 0
M  V30 5042 H 465.122 -1.73922 3.83835 0
M  V30 5043 H 463.846 -1.95683 2.61487 0
M  V30 5044 H 462.505 -0.10059 3.66462 0
M  V30 5045 H 462.153 -2.47063 4.38143 0
M  V30 5046 H 461.853 -1.3364 5.72201 0
M  V30 5047 H 463.377 -2.26735 5.66942 0
M  V30 5048 H 464.791 0.00319931 5.733 0
M  V30 5049 H 463.188 0.763402 5.95224 0
M  V30 5050 H 464.258 1.33799 4.66075 0
M  V30 5051 N 465.601 -1.54893 0.290851 0
M  V30 5052 C 466.531 -2.26103 -0.583084 0
M  V30 5053 C 467.512 -1.25684 -1.14619 0
M  V30 5054 O 468.697 -1.54436 -1.17741 0
M  V30 5055 C 465.827 -2.99409 -1.75987 0
M  V30 5056 C 464.781 -4.0689 -1.32758 0
M  V30 5057 C 464.107 -4.67856 -2.58872 0
M  V30 5058 C 465.407 -5.20215 -0.46624 0
M  V30 5059 H 467.101 -2.99398 0.0108214 0
M  V30 5060 H 464.647 -1.43998 0.00664468 0
M  V30 5061 H 466.6 -3.47943 -2.37727 0
M  V30 5062 H 465.324 -2.23675 -2.37985 0
M  V30 5063 H 463.983 -3.59191 -0.733299 0
M  V30 5064 H 463.631 -3.88772 -3.19163 0
M  V30 5065 H 463.331 -5.40438 -2.30653 0
M  V30 5066 H 464.855 -5.19147 -3.21433 0
M  V30 5067 H 466.269 -5.64704 -0.989047 0
M  V30 5068 H 464.666 -5.99455 -0.27826 0
M  V30 5069 H 465.736 -4.82198 0.511173 0
M  V30 5070 N 467.08 -0.0183926 -1.57589 0
M  V30 5071 C 468.327 0.662562 -1.91354 0
M  V30 5072 C 468.655 1.72747 -0.893788 0
M  V30 5073 O 467.91 1.9545 0.0988509 0
M  V30 5074 C 468.209 1.32676 -3.31861 0
M  V30 5075 C 467.875 0.393267 -4.49182 0
M  V30 5076 C 466.537 0.136302 -4.81007 0
M  V30 5077 C 468.889 -0.248366 -5.20608 0
M  V30 5078 C 466.217 -0.770282 -5.81621 0
M  V30 5079 C 468.569 -1.14294 -6.22189 0
M  V30 5080 C 467.233 -1.4089 -6.52462 0
M  V30 5081 H 466.503 0.242448 -0.700214 0
M  V30 5082 H 469.15 -0.0778629 -1.91342 0
M  V30 5083 H 467.455 2.14168 -3.28084 0
M  V30 5084 H 469.152 1.86001 -3.55253 0
M  V30 5085 H 465.742 0.603723 -4.24327 0
M  V30 5086 H 469.926 -0.062883 -4.9626 0
M  V30 5087 H 465.182 -0.984154 -6.03427 0
M  V30 5088 H 469.356 -1.64637 -6.76659 0
M  V30 5089 H 466.983 -2.11306 -7.30242 0
M  V30 5090 N 468.558 1.5553 0.254621 0
M  V30 5091 C 469.49 1.86104 1.33783 0
M  V30 5092 C 470.503 0.746752 1.44663 0
M  V30 5093 O 471.692 1.0248 1.46151 0
M  V30 5094 C 468.792 2.02532 2.71724 0
M  V30 5095 C 467.965 3.33335 2.83208 0
M  V30 5096 C 467.024 3.396 4.01943 0
M  V30 5097 O 466.05 4.12862 3.91834 0
M  V30 5098 N 467.252 2.68332 5.1476 0
M  V30 5099 H 470.017 2.79605 1.07893 0
M  V30 5100 H 467.578 1.55672 0.444732 0
M  V30 5101 H 469.57 2.04074 3.4948 0
M  V30 5102 H 468.14 1.15811 2.90356 0
M  V30 5103 H 467.36 3.44176 1.92189 0
M  V30 5104 H 468.648 4.19565 2.87824 0
M  V30 5105 H 468.046 2.08528 5.25864 0
M  V30 5106 H 466.603 2.75575 5.90679 0
M  V30 5107 N 470.036 -0.519951 1.48776 0
M  V30 5108 C 470.946 -1.65025 1.66745 0
M  V30 5109 C 471.962 -1.6508 0.549954 0
M  V30 5110 O 473.138 -1.83848 0.822295 0
M  V30 5111 C 470.203 -3.0146 1.71238 0
M  V30 5112 C 469.264 -3.12182 2.94688 0
M  V30 5113 C 468.497 -4.42109 2.98958 0
M  V30 5114 O 468.72 -5.29799 2.1135 0
M  V30 5115 O 467.654 -4.57406 3.91233 0
M  V30 5116 H 471.48 -1.52801 2.62461 0
M  V30 5117 H 469.065 -0.694157 1.32294 0
M  V30 5118 H 470.947 -3.82584 1.76657 0
M  V30 5119 H 469.622 -3.13988 0.786975 0
M  V30 5120 H 468.529 -2.30316 2.94797 0
M  V30 5121 H 469.862 -3.04574 3.86646 0
M  V30 5122 N 471.514 -1.37532 -0.769588 0
M  V30 5123 C 472.477 -1.33292 -1.86456 0
M  V30 5124 C 473.477 -0.236537 -1.59051 0
M  V30 5125 O 474.667 -0.492511 -1.67093 0
M  V30 5126 C 471.799 -1.07118 -3.23633 0
M  V30 5127 H 472.992 -2.30692 -1.91628 0
M  V30 5128 H 470.545 -1.22593 -0.969572 0
M  V30 5129 H 471.28 -0.102578 -3.24138 0
M  V30 5130 H 471.065 -1.86479 -3.44917 0
M  V30 5131 H 472.555 -1.06806 -4.03711 0
M  V30 5132 N 472.992 0.995999 -1.22138 0
M  V30 5133 C 473.942 2.06988 -0.956042 0
M  V30 5134 C 474.926 1.60636 0.0921576 0
M  V30 5135 O 476.118 1.76607 -0.117958 0
M  V30 5136 C 473.247 3.39148 -0.532335 0
M  V30 5137 C 472.333 3.92142 -1.61509 0
M  V30 5138 N 472.724 4.18397 -2.84214 0
M  V30 5139 C 471.022 4.20514 -1.48606 0
M  V30 5140 C 471.723 4.61425 -3.54206 0
M  V30 5141 N 470.699 4.64934 -2.81669 0
M  V30 5142 H 474.501 2.25223 -1.88816 0
M  V30 5143 H 472.015 1.17748 -1.11845 0
M  V30 5144 H 474.012 4.15642 -0.323574 0
M  V30 5145 H 472.672 3.22314 0.392921 0
M  V30 5146 H 473.683 4.06682 -3.20671 0
M  V30 5147 H 470.36 4.12769 -0.626762 0
M  V30 5148 H 471.75 4.90387 -4.59315 0
M  V30 5149 N 474.47 1.03057 1.19235 0
M  V30 5150 C 475.418 0.606391 2.24557 0
M  V30 5151 C 476.412 -0.361826 1.65491 0
M  V30 5152 O 477.618 -0.23022 1.78522 0
M  V30 5153 H 473.993 0.177838 0.730669 0
M  V30 5154 H 475.964 1.50529 2.5765 0
M  V30 5155 C 474.713 -0.0252127 3.47691 0
M  V30 5156 H 474.036 0.710838 3.9343 0
M  V30 5157 H 475.476 -0.284931 4.23042 0
M  V30 5158 C 473.935 -1.27229 3.11953 0
M  V30 5159 O 474.465 -2.36416 3.24762 0
M  V30 5160 N 472.671 -1.16169 2.6637 0
M  V30 5161 H 472.218 -0.273189 2.56147 0
M  V30 5162 H 472.176 -1.99703 2.42829 0
M  V30 5163 N 475.948 -1.35272 0.808662 0
M  V30 5164 C 477.196 -1.98316 0.389233 0
M  V30 5165 C 477.517 -1.64465 -1.04767 0
M  V30 5166 O 476.787 -0.928175 -1.72516 0
M  V30 5167 H 475.367 -0.733585 0.140935 0
M  V30 5168 H 478.029 -1.6515 1.03496 0
M  V30 5169 H 477.125 -3.08123 0.496631 0
M  V30 5170 N 477.426 -0.562348 -1.47226 0
M  V30 5171 C 478.837 -0.130325 -1.86245 0
M  V30 5172 C 479.188 1.30128 -1.46838 0
M  V30 5173 O 478.313 1.97974 -0.873805 0
M  V30 5174 C 478.908 -0.229738 -3.3802 0
M  V30 5175 C 477.467 0.14728 -3.76112 0
M  V30 5176 C 476.614 -0.574971 -2.71274 0
M  V30 5177 H 479.565 -0.771773 -1.3867 0
M  V30 5178 H 479.586 0.550316 -3.76499 0
M  V30 5179 H 479.098 -1.27178 -3.66671 0
M  V30 5180 H 477.199 1.19023 -3.53078 0
M  V30 5181 H 477.312 -0.214858 -4.78618 0
M  V30 5182 H 475.676 -0.0174756 -2.54694 0
M  V30 5183 H 476.459 -1.61827 -3.02766 0
M  V30 5184 N 478.904 1.54736 -0.299062 0
M  V30 5185 C 479.867 2.22127 0.565012 0
M  V30 5186 C 480.867 1.20669 1.06281 0
M  V30 5187 O 482.057 1.45417 0.959145 0
M  V30 5188 C 479.189 2.90611 1.78208 0
M  V30 5189 H 480.382 2.99891 -0.0237448 0
M  V30 5190 H 477.935 1.5622 -0.0498788 0
M  V30 5191 H 478.67 2.16921 2.41072 0
M  V30 5192 H 478.455 3.64984 1.43281 0
M  V30 5193 H 479.945 3.42026 2.396 0
M  V30 5194 N 480.382 0.0267497 1.57577 0
M  V30 5195 C 481.628 -0.653371 1.91987 0
M  V30 5196 C 481.961 -1.71915 0.903263 0
M  V30 5197 O 481.236 -1.94358 -0.0743387 0
M  V30 5198 C 481.519 -1.272 3.36886 0
M  V30 5199 C 481.372 -0.215938 4.49281 0
M  V30 5200 C 482.691 -2.19069 3.81703 0
M  V30 5201 H 479.81 -0.236047 0.698177 0
M  V30 5202 H 482.452 0.0835236 1.89816 0
M  V30 5203 H 480.602 -1.90005 3.38866 0
M  V30 5204 H 482.274 0.41449 4.59434 0
M  V30 5205 H 480.517 0.458855 4.31366 0
M  V30 5206 H 481.188 -0.688347 5.47691 0
M  V30 5207 H 483.664 -1.66253 3.81444 0
M  V30 5208 H 482.54 -2.59307 4.83788 0
M  V30 5209 H 482.801 -3.08087 3.17072 0
M  V30 5210 N 481.861 -1.55662 -0.24637 0
M  V30 5211 C 482.771 -1.93495 -1.32653 0
M  V30 5212 C 483.787 -0.835462 -1.5263 0
M  V30 5213 O 484.963 -1.1369 -1.66242 0
M  V30 5214 C 482.028 -2.22242 -2.66101 0
M  V30 5215 C 481.089 -3.45625 -2.54641 0
M  V30 5216 C 480.322 -3.72991 -3.81724 0
M  V30 5217 O 480.545 -3.02421 -4.8363 0
M  V30 5218 O 479.479 -4.66515 -3.80325 0
M  V30 5219 H 483.305 -2.85498 -1.03559 0
M  V30 5220 H 480.89 -1.42551 -0.44717 0
M  V30 5221 H 482.772 -2.42037 -3.44958 0
M  V30 5222 H 481.447 -1.33417 -2.94926 0
M  V30 5223 H 480.354 -3.31136 -1.74067 0
M  V30 5224 H 481.687 -4.34754 -2.3076 0
M  V30 5225 N 483.339 0.512053 -1.4905 0
M  V30 5226 C 484.302 1.59704 -1.64399 0
M  V30 5227 C 485.302 1.52285 -0.516317 0
M  V30 5228 O 486.492 1.55635 -0.782527 0
M  V30 5229 C 483.624 2.9935 -1.63102 0
M  V30 5230 H 484.817 1.47428 -2.61161 0
M  V30 5231 H 482.37 0.735469 -1.37915 0
M  V30 5232 H 483.105 3.17116 -0.678836 0
M  V30 5233 H 482.89 3.06144 -2.44986 0
M  V30 5234 H 484.38 3.782 -1.77072 0
M  V30 5235 N 484.817 1.37938 0.762283 0
M  V30 5236 C 485.749 1.30349 1.88525 0
M  V30 5237 C 486.762 0.217402 1.61342 0
M  V30 5238 O 487.951 0.474291 1.72084 0
M  V30 5239 C 485.051 0.994844 3.23969 0
M  V30 5240 C 484.224 2.18829 3.78725 0
M  V30 5241 C 483.283 1.84844 4.92665 0
M  V30 5242 O 482.309 2.57244 5.07754 0
M  V30 5243 N 483.511 0.798201 5.74986 0
M  V30 5244 H 486.276 2.27114 1.95549 0
M  V30 5245 H 483.837 1.31686 0.941825 0
M  V30 5246 H 485.829 0.748168 3.97724 0
M  V30 5247 H 484.399 0.115446 3.12387 0
M  V30 5248 H 483.619 2.59615 2.96637 0
M  V30 5249 H 484.907 2.98497 4.1204 0
M  V30 5250 H 484.305 0.197611 5.65355 0
M  V30 5251 H 482.862 0.611396 6.48926 0
M  V30 5252 N 486.295 -0.989507 1.22664 0
M  V30 5253 C 487.205 -2.11449 1.01619 0
M  V30 5254 C 488.221 -1.73962 -0.036545 0
M  V30 5255 O 489.397 -2.00788 0.156924 0
M  V30 5256 C 486.462 -3.41465 0.600204 0
M  V30 5257 C 485.523 -3.93033 1.72695 0
M  V30 5258 C 484.756 -5.16844 1.33071 0
M  V30 5259 O 484.979 -5.7001 0.210975 0
M  V30 5260 O 483.913 -5.6225 2.14845 0
M  V30 5261 H 487.739 -2.32088 1.9588 0
M  V30 5262 H 485.324 -1.09823 1.01289 0
M  V30 5263 H 487.206 -4.19695 0.37873 0
M  V30 5264 H 485.881 -3.22178 -0.313511 0
M  V30 5265 H 484.788 -3.15961 2.00298 0
M  V30 5266 H 486.121 -4.16758 2.61865 0
M  V30 5267 N 487.773 -1.03688 -1.18687 0
M  V30 5268 C 488.683 -0.634908 -2.25845 0
M  V30 5269 C 489.699 0.337065 -1.70704 0
M  V30 5270 O 490.875 0.192943 -2.00474 0
M  V30 5271 C 487.94 -0.000180054 -3.467 0
M  V30 5272 C 487.001 -1.02067 -4.1699 0
M  V30 5273 C 486.234 -0.41614 -5.32075 0
M  V30 5274 O 486.457 0.778712 -5.65059 0
M  V30 5275 O 485.391 -1.14296 -5.90948 0
M  V30 5276 H 489.217 -1.52757 -2.62486 0
M  V30 5277 H 486.802 -0.807533 -1.25695 0
M  V30 5278 H 488.684 0.353342 -4.19916 0
M  V30 5279 H 487.359 0.866367 -3.11891 0
M  V30 5280 H 486.266 -1.42592 -3.45859 0
M  V30 5281 H 487.599 -1.85786 -4.5579 0
M  V30 5282 N 489.251 1.34841 -0.815825 0
M  V30 5283 C 490.161 2.33425 -0.234462 0
M  V30 5284 C 491.177 1.62295 0.627413 0
M  V30 5285 O 492.353 1.94109 0.536987 0
M  V30 5286 C 489.418 3.41471 0.599849 0
M  V30 5287 C 488.479 4.28362 -0.283596 0
M  V30 5288 C 487.712 5.31248 0.51099 0
M  V30 5289 O 487.935 5.43056 1.7449 0
M  V30 5290 O 486.869 6.01812 -0.10297 0
M  V30 5291 H 490.695 2.84962 -1.05024 0
M  V30 5292 H 488.28 1.37774 -0.577809 0
M  V30 5293 H 490.162 4.07464 1.07475 0
M  V30 5294 H 488.837 2.9219 1.39308 0
M  V30 5295 H 487.744 3.65318 -0.805836 0
M  V30 5296 H 489.077 4.81066 -1.041 0
M  V30 5297 N 490.729 0.570148 1.46925 0
M  V30 5298 C 491.639 -0.173061 2.33961 0
M  V30 5299 C 492.655 -0.898825 1.48987 0
M  V30 5300 O 493.831 -0.864825 1.81887 0
M  V30 5301 C 490.896 -1.18177 3.25937 0
M  V30 5302 C 489.957 -0.462041 4.26806 0
M  V30 5303 C 489.19 -1.4227 5.14388 0
M  V30 5304 O 489.413 -2.65842 5.04662 0
M  V30 5305 O 488.347 -0.940127 5.94513 0
M  V30 5306 H 492.173 0.541216 2.98839 0
M  V30 5307 H 489.758 0.330647 1.45695 0
M  V30 5308 H 491.64 -1.76372 3.82715 0
M  V30 5309 H 490.315 -1.87774 2.63671 0
M  V30 5310 H 489.222 0.161429 3.73752 0
M  V30 5311 H 490.555 0.192719 4.91823 0
M  V30 5312 N 492.207 -1.54576 0.307264 0
M  V30 5313 C 493.117 -2.27435 -0.57536 0
M  V30 5314 C 494.133 -1.31183 -1.14311 0
M  V30 5315 O 495.309 -1.64175 -1.16656 0
M  V30 5316 C 492.374 -3.00566 -1.72803 0
M  V30 5317 C 491.435 -4.12369 -1.19373 0
M  V30 5318 C 490.668 -4.82003 -2.29147 0
M  V30 5319 O 490.891 -4.51038 -3.49171 0
M  V30 5320 O 489.825 -5.69271 -1.95485 0
M  V30 5321 H 493.651 -3.03696 0.0158558 0
M  V30 5322 H 491.236 -1.49219 0.0735064 0
M  V30 5323 H 493.118 -3.46416 -2.39946 0
M  V30 5324 H 491.793 -2.27195 -2.30574 0
M  V30 5325 H 490.7 -3.70905 -0.487851 0
M  V30 5326 H 492.033 -4.87736 -0.661376 0
M  V30 5327 N 493.685 -0.035106 -1.57561 0
M  V30 5328 C 494.617 0.973604 -2.07494 0
M  V30 5329 C 495.63 1.28504 -0.999534 0
M  V30 5330 O 496.819 1.24864 -1.27559 0
M  V30 5331 C 493.919 2.29945 -2.48955 0
M  V30 5332 C 493.092 2.1723 -3.79644 0
M  V30 5333 C 492.151 3.328 -4.07592 0
M  V30 5334 O 491.177 3.09418 -4.77754 0
M  V30 5335 N 492.379 4.56779 -3.58236 0
M  V30 5336 H 495.144 0.547525 -2.94656 0
M  V30 5337 H 492.705 0.151515 -1.61189 0
M  V30 5338 H 494.697 3.06097 -2.64739 0
M  V30 5339 H 493.267 2.64173 -1.67126 0
M  V30 5340 H 492.487 1.25768 -3.73599 0
M  V30 5341 H 493.775 2.05945 -4.65257 0
M  V30 5342 H 493.173 4.78668 -3.01485 0
M  V30 5343 H 491.73 5.30079 -3.79288 0
M  V30 5344 N 495.163 1.55791 0.238111 0
M  V30 5345 C 496.44 1.68798 0.98826 0
M  V30 5346 C 496.82 0.577562 2.03045 0
M  V30 5347 O 496.168 -0.41778 2.24648 0
M  V30 5348 C 496.378 3.09454 1.61367 0
M  V30 5349 C 497.726 3.68335 2.11221 0
M  V30 5350 O 498.75 3.1231 1.71292 0
M  V30 5351 O 497.609 4.6657 2.84561 0
M  V30 5352 H 494.703 0.686881 0.460568 0
M  V30 5353 H 497.249 1.68118 0.231202 0
M  V30 5354 H 496.021 3.81726 0.860295 0
M  V30 5355 H 495.644 3.14182 2.4367 0
M  V30 5356 N 496.642 -0.504142 1.49319 0
M  V30 5357 C 497.592 -1.60284 1.62151 0
M  V30 5358 C 498.576 -1.53657 0.477315 0
M  V30 5359 O 499.768 -1.6124 0.730108 0
M  V30 5360 C 496.897 -2.98909 1.68844 0
M  V30 5361 C 495.983 -3.10544 2.8883 0
M  V30 5362 N 496.374 -2.92078 4.12946 0
M  V30 5363 C 494.672 -3.4164 2.86702 0
M  V30 5364 C 495.373 -3.07812 4.93585 0
M  V30 5365 N 494.349 -3.36549 4.26891 0
M  V30 5366 H 498.151 -1.44656 2.55835 0
M  V30 5367 H 495.665 -0.710198 1.46048 0
M  V30 5368 H 497.662 -3.77865 1.76134 0
M  V30 5369 H 496.322 -3.15609 0.762943 0
M  V30 5370 H 497.333 -2.68316 4.42975 0
M  V30 5371 H 494.01 -3.64537 2.03517 0
M  V30 5372 H 495.4 -2.98054 6.02174 0
M  V30 5373 N 498.12 -1.38341 -0.754957 0
M  V30 5374 C 499.368 -1.34208 -1.51105 0
M  V30 5375 C 499.689 0.0677634 -1.94882 0
M  V30 5376 O 498.959 1.01517 -1.67544 0
M  V30 5377 H 497.539 -0.493819 -0.560493 0
M  V30 5378 H 500.201 -1.73005 -0.897507 0
M  V30 5379 H 499.297 -1.99203 -2.4026 0
M  V30 5380 N 499.598 0.982988 -1.23187 0
M  V30 5381 C 500.844 1.72648 -1.06398 0
M  V30 5382 C 501.177 1.90066 0.398561 0
M  V30 5383 O 500.452 1.45105 1.29518 0
M  V30 5384 C 500.735 3.12627 -1.78707 0
M  V30 5385 C 500.588 3.02795 -3.32618 0
M  V30 5386 C 501.907 4.11997 -1.54747 0
M  V30 5387 H 499.026 0.626649 -0.387918 0
M  V30 5388 H 501.668 1.14455 -1.51658 0
M  V30 5389 H 499.818 3.62308 -1.40234 0
M  V30 5390 H 501.49 2.60659 -3.80598 0
M  V30 5391 H 499.733 2.39362 -3.61785 0
M  V30 5392 H 500.404 4.01893 -3.78399 0
M  V30 5393 H 502.88 3.71114 -1.88186 0
M  V30 5394 H 501.756 5.08037 -2.07821 0
M  V30 5395 H 502.017 4.39462 -0.482249 0
M  V30 5396 N 501.076 1.04316 1.18135 0
M  V30 5397 C 502.324 0.746542 1.87806 0
M  V30 5398 C 502.645 -0.728082 1.80898 0
M  V30 5399 O 501.915 -1.52554 1.22899 0
M  V30 5400 H 500.495 0.273157 0.695265 0
M  V30 5401 H 503.157 1.32044 1.43354 0
M  V30 5402 H 502.253 1.05362 2.93778 0
M  V30 5403 N 502.554 -1.34406 0.822964 0
M  V30 5404 C 503.97 -1.51275 0.508727 0
M  V30 5405 C 504.17 -1.76776 -0.967083 0
M  V30 5406 O 503.226 -1.81871 -1.75155 0
M  V30 5407 C 504.539 -2.67765 1.36829 0
M  V30 5408 C 506.087 -2.81647 1.36542 0
M  V30 5409 C 506.562 -4.01181 2.20947 0
M  V30 5410 N 508.053 -4.08388 2.18571 0
M  V30 5411 C 508.788 -5.00036 2.80627 0
M  V30 5412 N 508.284 -5.96906 3.51674 0
M  V30 5413 N 510.077 -4.92908 2.70181 0
M  V30 5414 H 502.228 -1.16113 1.77852 0
M  V30 5415 H 504.491 -0.56947 0.757897 0
M  V30 5416 H 504.197 -2.55551 2.41633 0
M  V30 5417 H 504.071 -3.62779 1.03303 0
M  V30 5418 H 506.458 -2.93303 0.325163 0
M  V30 5419 H 506.539 -1.87443 1.74066 0
M  V30 5420 H 506.183 -3.90286 3.25022 0
M  V30 5421 H 506.113 -4.94599 1.80774 0
M  V30 5422 H 508.604 -3.39051 1.66891 0
M  V30 5423 H 508.917 -6.63468 3.96271 0
M  V30 5424 H 507.262 -5.9703 3.5578 0
M  V30 5425 H 510.453 -4.1619 2.14251 0
M  V30 5426 H 510.626 -5.64137 3.18831 0
M  V30 5427 N 504.032 -0.577932 -1.46621 0
M  V30 5428 C 505.26 -0.0671642 -2.06791 0
M  V30 5429 C 505.675 1.23571 -1.42743 0
M  V30 5430 O 505.032 1.74602 -0.531062 0
M  V30 5431 C 505.083 0.110357 -3.61332 0
M  V30 5432 O 504.804 -1.14095 -4.22982 0
M  V30 5433 C 506.305 0.656025 -4.38419 0
M  V30 5434 H 503.525 -0.0552732 -0.66872 0
M  V30 5435 H 506.069 -0.797242 -1.8832 0
M  V30 5436 H 504.224 0.790637 -3.79246 0
M  V30 5437 H 504.638 -0.951742 -5.15793 0
M  V30 5438 H 506.112 0.729438 -5.47159 0
M  V30 5439 H 506.589 1.67195 -4.06131 0
M  V30 5440 H 507.195 0.0107692 -4.25299 0
M  V30 5441 N 505.51 1.54411 -0.315457 0
M  V30 5442 C 506.758 2.00023 0.288971 0
M  V30 5443 C 507.079 1.20529 1.5329 0
M  V30 5444 O 506.349 0.304986 1.93511 0
M  V30 5445 H 504.929 0.738891 0.109766 0
M  V30 5446 H 507.591 1.90094 -0.430129 0
M  V30 5447 H 506.687 3.07198 0.550999 0
M  V30 5448 N 506.988 0.0434614 1.5754 0
M  V30 5449 C 508.216 -0.641835 1.96693 0
M  V30 5450 C 508.631 -1.64832 0.920652 0
M  V30 5451 O 507.988 -1.82247 -0.095993 0
M  V30 5452 C 508.039 -1.33557 3.35924 0
M  V30 5453 O 507.76 -0.369403 4.3654 0
M  V30 5454 C 509.261 -2.11135 3.89791 0
M  V30 5455 H 506.481 -0.176013 0.647503 0
M  V30 5456 H 509.025 0.107478 2.04217 0
M  V30 5457 H 507.18 -2.03617 3.29574 0
M  V30 5458 H 507.594 -0.863674 5.1734 0
M  V30 5459 H 509.068 -2.55107 4.89514 0
M  V30 5460 H 509.545 -2.95634 3.24803 0
M  V30 5461 H 510.151 -1.46002 3.99454 0
M  V30 5462 N 508.466 -1.55915 -0.229846 0
M  V30 5463 C 509.712 -1.78807 -0.956868 0
M  V30 5464 C 510.045 -0.611687 -1.84315 0
M  V30 5465 O 509.32 0.389398 -1.90562 0
M  V30 5466 C 509.603 -3.11718 -1.80288 0
M  V30 5467 C 509.456 -4.3979 -0.943649 0
M  V30 5468 C 510.775 -3.40999 -2.78222 0
M  V30 5469 H 507.894 -0.6505 -0.346437 0
M  V30 5470 H 510.536 -1.88648 -0.226252 0
M  V30 5471 H 508.686 -3.03459 -2.42579 0
M  V30 5472 H 510.358 -4.60059 -0.338121 0
M  V30 5473 H 508.601 -4.33086 -0.248705 0
M  V30 5474 H 509.272 -5.29208 -1.5698 0
M  V30 5475 H 511.748 -3.49332 -2.26067 0
M  V30 5476 H 510.624 -4.35183 -3.34526 0
M  V30 5477 H 510.885 -2.62754 -3.55546 0
M  V30 5478 N 509.944 0.496216 -1.49584 0
M  V30 5479 C 510.892 1.61805 -1.67098 0
M  V30 5480 C 511.886 1.60667 -0.536877 0
M  V30 5481 O 513.092 1.65118 -0.716654 0
M  V30 5482 H 509.467 0.53646 -0.526986 0
M  V30 5483 H 511.438 1.44187 -2.61252 0
M  V30 5484 C 510.187 2.99912 -1.75921 0
M  V30 5485 H 509.51 3.01496 -2.62565 0
M  V30 5486 H 510.95 3.77931 -1.92209 0
M  V30 5487 C 509.409 3.33092 -0.505088 0
M  V30 5488 O 509.939 4.00019 0.367085 0
M  V30 5489 N 508.145 2.88278 -0.366599 0
M  V30 5490 H 507.692 2.33989 -1.07735 0
M  V30 5491 H 507.65 3.10846 0.47142 0
M  V30 5492 N 511.423 1.38739 0.74761 0
M  V30 5493 C 512.648 1.38702 1.54197 0
M  V30 5494 C 513.073 -0.019664 1.8809 0
M  V30 5495 O 512.431 -1.00333 1.51006 0
M  V30 5496 C 512.479 2.25492 2.814 0
M  V30 5497 O 511.583 1.67613 3.76802 0
M  V30 5498 H 510.924 0.472863 0.466151 0
M  V30 5499 H 513.454 1.82577 0.923413 0
M  V30 5500 H 513.464 2.39561 3.30264 0
M  V30 5501 H 512.139 3.27727 2.56062 0
M  V30 5502 H 510.716 1.62718 3.35526 0
M  V30 5503 N 512.901 -0.976442 1.23707 0
M  V30 5504 C 514.147 -1.72081 1.07312 0
M  V30 5505 C 514.48 -1.90275 -0.388476 0
M  V30 5506 O 513.755 -1.4579 -1.28746 0
M  V30 5507 C 514.038 -3.11675 1.80363 0
M  V30 5508 C 513.891 -3.01027 3.3422 0
M  V30 5509 C 515.21 -4.1117 1.5693 0
M  V30 5510 H 512.329 -0.624583 0.391236 0
M  V30 5511 H 514.971 -1.13649 1.52263 0
M  V30 5512 H 513.121 -3.61559 1.42153 0
M  V30 5513 H 514.793 -2.58637 3.81975 0
M  V30 5514 H 513.036 -2.3744 3.63049 0
M  V30 5515 H 513.707 -3.9988 3.80525 0
M  V30 5516 H 516.183 -3.7011 1.90151 0
M  V30 5517 H 515.059 -5.06928 2.10513 0
M  V30 5518 H 515.32 -4.392 0.505548 0
M  V30 5519 N 514.379 -1.04941 -1.1758 0
M  V30 5520 C 515.627 -0.756492 -1.87408 0
M  V30 5521 C 515.948 0.718478 -1.81281 0
M  V30 5522 O 515.218 1.519 -1.23706 0
M  V30 5523 H 513.798 -0.276841 -0.693807 0
M  V30 5524 H 516.46 -1.32803 -1.42652 0
M  V30 5525 H 515.556 -1.06918 -2.93215 0
M  V30 5526 N 515.857 1.33968 -0.830081 0
M  V30 5527 C 517.082 2.02813 -0.433796 0
M  V30 5528 C 517.507 1.62076 0.954614 0
M  V30 5529 O 516.865 0.808955 1.62252 0
M  V30 5530 C 516.913 3.56348 -0.552115 0
M  V30 5531 O 516.017 4.10202 0.425191 0
M  V30 5532 H 515.358 0.639817 -0.177567 0
M  V30 5533 H 517.888 1.7106 -1.12248 0
M  V30 5534 H 517.898 4.05722 -0.430513 0
M  V30 5535 H 516.573 3.85344 -1.56471 0
M  V30 5536 H 515.15 3.71979 0.261878 0
M  V30 5537 N 517.335 0.585699 1.46312 0
M  V30 5538 C 518.283 -0.158577 2.32059 0
M  V30 5539 C 519.277 -0.881427 1.44662 0
M  V30 5540 O 520.483 -0.799476 1.61271 0
M  V30 5541 H 516.858 -0.0700066 0.748734 0
M  V30 5542 H 518.829 0.583383 2.92642 0
M  V30 5543 C 517.578 -1.15701 3.27885 0
M  V30 5544 H 516.901 -0.610215 3.95116 0
M  V30 5545 H 518.341 -1.64812 3.90657 0
M  V30 5546 C 516.8 -2.21951 2.53455 0
M  V30 5547 O 517.33 -3.29352 2.29978 0
M  V30 5548 N 515.536 -1.9664 2.13965 0
M  V30 5549 H 515.083 -1.09309 2.33258 0
M  V30 5550 H 515.041 -2.6794 1.64485 0
M  V30 5551 N 518.813 -1.54241 0.323641 0
M  V30 5552 C 519.745 -2.21836 -0.576311 0
M  V30 5553 C 520.758 -1.21837 -1.07979 0
M  V30 5554 O 521.947 -1.48306 -0.99336 0
M  V30 5555 C 519.047 -2.86923 -1.80356 0
M  V30 5556 C 518.22 -4.1306 -1.43875 0
M  V30 5557 C 517.279 -4.6174 -2.52353 0
M  V30 5558 O 516.305 -5.26421 -2.16494 0
M  V30 5559 N 517.507 -4.35974 -3.83284 0
M  V30 5560 H 520.272 -2.997 0.00247987 0
M  V30 5561 H 517.833 -1.61233 0.146848 0
M  V30 5562 H 519.825 -3.16414 -2.52318 0
M  V30 5563 H 518.395 -2.12765 -2.29019 0
M  V30 5564 H 517.615 -3.90334 -0.550752 0
M  V30 5565 H 518.903 -4.95148 -1.17071 0
M  V30 5566 H 518.301 -3.84203 -4.15216 0
M  V30 5567 H 516.858 -4.70119 -4.51477 0
M  V30 5568 N 520.291 -0.0518155 -1.57515 0
M  V30 5569 C 521.516 0.634896 -1.97443 0
M  V30 5570 C 521.941 1.63546 -0.929207 0
M  V30 5571 O 521.299 1.80981 0.107484 0
M  V30 5572 C 521.347 1.29765 -3.36442 0
M  V30 5573 O 520.451 2.41333 -3.34413 0
M  V30 5574 H 519.792 0.164994 -0.643174 0
M  V30 5575 H 522.322 -0.120407 -2.04245 0
M  V30 5576 H 522.332 1.64918 -3.73184 0
M  V30 5577 H 521.007 0.564361 -4.12053 0
M  V30 5578 H 519.584 2.08122 -3.09418 0
M  V30 5579 N 521.769 1.56035 0.221574 0
M  V30 5580 C 523.018 1.78245 0.944016 0
M  V30 5581 C 523.331 0.620371 1.85501 0
M  V30 5582 O 524.537 0.726103 2.6161 0
M  V30 5583 C 522.993 3.15659 1.7288 0
M  V30 5584 C 522.601 4.39591 0.863942 0
M  V30 5585 C 524.345 3.47195 2.44246 0
M  V30 5586 C 522.252 5.6803 1.64607 0
M  V30 5587 H 521.182 0.664547 0.356222 0
M  V30 5588 H 523.833 1.8243 0.197904 0
M  V30 5589 H 522.215 3.0565 2.51781 0
M  V30 5590 H 523.389 4.60655 0.115464 0
M  V30 5591 H 521.704 4.15572 0.262407 0
M  V30 5592 H 524.301 4.40381 3.03263 0
M  V30 5593 H 524.644 2.69693 3.1713 0
M  V30 5594 H 525.177 3.58533 1.72334 0
M  V30 5595 H 521.916 6.48425 0.960507 0
M  V30 5596 H 521.436 5.51027 2.36917 0
M  V30 5597 H 523.115 6.08203 2.20675 0
M  V30 5598 N 523.247 -0.488276 1.49845 0
M  V30 5599 C 524.658 -1.06955 1.53028 0
M  V30 5600 C 525.009 -1.9351 0.323797 0
M  V30 5601 O 524.134 -2.08891 -0.565116 0
M  V30 5602 C 524.729 -1.94643 2.77307 0
M  V30 5603 C 523.288 -2.4791 2.83227 0
M  V30 5604 C 522.435 -1.25833 2.47106 0
M  V30 5605 H 525.386 -0.271626 1.56358 0
M  V30 5606 H 525.407 -2.79496 2.5819 0
M  V30 5607 H 524.919 -1.31621 3.65099 0
M  V30 5608 H 523.02 -3.14535 1.99745 0
M  V30 5609 H 523.133 -2.84193 3.85709 0
M  V30 5610 H 521.497 -1.58764 1.99163 0
M  V30 5611 H 522.28 -0.644993 3.37186 0
M  V30 5612 N 524.725 -1.39134 -0.740242 0
M  V30 5613 C 525.95 -1.39518 -1.53459 0
M  V30 5614 C 526.375 0.00968883 -1.88098 0
M  V30 5615 O 525.733 0.995312 -1.51536 0
M  V30 5616 C 525.781 -2.26981 -2.802 0
M  V30 5617 O 524.885 -1.69609 -3.75908 0
M  V30 5618 H 524.226 -0.475328 -0.463637 0
M  V30 5619 H 526.756 -1.83064 -0.913717 0
M  V30 5620 H 526.766 -2.41309 -3.28989 0
M  V30 5621 H 525.441 -3.29081 -2.5432 0
M  V30 5622 H 524.018 -1.64495 -3.34658 0
M  V30 5623 N 526.204 0.969867 -1.24223 0
M  V30 5624 C 527.137 2.06279 -0.975926 0
M  V30 5625 C 528.115 1.62353 0.0895385 0
M  V30 5626 O 529.299 1.88442 -0.0469418 0
M  V30 5627 C 526.426 3.35391 -0.472315 0
M  V30 5628 C 525.472 3.98266 -1.526 0
M  V30 5629 S 526.305 4.36172 -3.10667 0
M  V30 5630 C 527.461 5.68423 -2.62003 0
M  V30 5631 H 527.694 2.28551 -1.90137 0
M  V30 5632 H 525.227 1.10748 -1.07584 0
M  V30 5633 H 527.185 4.10068 -0.188376 0
M  V30 5634 H 525.846 3.1111 0.432378 0
M  V30 5635 H 525.039 4.91307 -1.12399 0
M  V30 5636 H 524.641 3.30009 -1.75983 0
M  V30 5637 H 526.933 6.45842 -2.0468 0
M  V30 5638 H 527.876 6.13478 -3.53625 0
M  V30 5639 H 528.284 5.26928 -2.02502 0
M  V30 5640 N 527.682 1.05563 1.17022 0
M  V30 5641 C 528.907 0.788437 1.91829 0
M  V30 5642 C 529.332 -0.650356 1.76499 0
M  V30 5643 O 528.69 -1.45229 1.08527 0
M  V30 5644 C 528.738 1.1786 3.40795 0
M  V30 5645 O 527.842 0.312965 4.11211 0
M  V30 5646 H 527.183 0.288794 0.597908 0
M  V30 5647 H 529.713 1.40948 1.48307 0
M  V30 5648 H 529.723 1.14697 3.91546 0
M  V30 5649 H 528.398 2.22666 3.51273 0
M  V30 5650 H 526.975 0.405515 3.70689 0
M  V30 5651 N 529.16 -1.33526 0.837174 0
M  V30 5652 C 530.409 -1.97098 0.428387 0
M  V30 5653 C 530.722 -1.67062 -1.01734 0
M  V30 5654 O 531.928 -2.24235 -1.53072 0
M  V30 5655 C 530.384 -3.52725 0.715075 0
M  V30 5656 C 529.992 -3.9164 2.17537 0
M  V30 5657 C 531.736 -4.22857 0.373154 0
M  V30 5658 C 529.643 -5.40237 2.40619 0
M  V30 5659 H 528.573 -0.737589 0.156455 0
M  V30 5660 H 531.224 -1.52169 1.02552 0
M  V30 5661 H 529.606 -3.95971 0.0475904 0
M  V30 5662 H 530.78 -3.59456 2.88319 0
M  V30 5663 H 529.095 -3.34485 2.4801 0
M  V30 5664 H 531.692 -5.32133 0.523264 0
M  V30 5665 H 532.035 -4.10647 -0.683708 0
M  V30 5666 H 532.568 -3.85135 0.995801 0
M  V30 5667 H 529.307 -5.57449 3.44864 0
M  V30 5668 H 528.827 -5.73887 1.74396 0
M  V30 5669 H 530.506 -6.07102 2.23688 0
M  V30 5670 N 530.638 -0.59345 -1.46 0
M  V30 5671 C 531.863 -0.0872365 -2.07216 0
M  V30 5672 C 532.288 1.2131 -1.43755 0
M  V30 5673 O 531.646 1.73528 -0.525152 0
M  V30 5674 C 531.694 0.0538197 -3.6056 0
M  V30 5675 O 530.798 1.10765 -3.97247 0
M  V30 5676 H 530.139 -0.0676598 -0.660544 0
M  V30 5677 H 532.669 -0.819445 -1.87473 0
M  V30 5678 H 532.679 0.256567 -4.07193 0
M  V30 5679 H 531.354 -0.895739 -4.0614 0
M  V30 5680 H 529.931 0.882501 -3.62307 0
M  V30 5681 N 532.116 1.54067 -0.331816 0
M  V30 5682 C 533.079 2.23275 0.517768 0
M  V30 5683 C 534.079 1.22897 1.03697 0
M  V30 5684 O 535.269 1.47419 0.928084 0
M  V30 5685 C 532.401 2.94326 1.72004 0
M  V30 5686 H 533.594 2.99773 -0.0873507 0
M  V30 5687 H 531.147 1.56079 -0.0830042 0
M  V30 5688 H 531.882 2.21986 2.36417 0
M  V30 5689 H 531.667 3.67941 1.35507 0
M  V30 5690 H 533.157 3.47031 2.32291 0
M  V30 5691 N 533.594 0.0601682 1.57485 0
M  V30 5692 C 534.819 -0.624416 1.97777 0
M  V30 5693 C 535.244 -1.63051 0.937867 0
M  V30 5694 O 534.602 -1.81036 -0.0978845 0
M  V30 5695 C 534.65 -1.27979 3.37126 0
M  V30 5696 O 533.754 -2.39556 3.35688 0
M  V30 5697 H 533.095 -0.161581 0.64404 0
M  V30 5698 H 535.625 0.131237 2.04179 0
M  V30 5699 H 535.635 -1.62937 3.74053 0
M  V30 5700 H 534.31 -0.542501 4.12347 0
M  V30 5701 H 532.887 -2.06478 3.10517 0
M  V30 5702 N 535.072 -1.5615 -0.213296 0
M  V30 5703 C 536.297 -1.83986 -0.957282 0
M  V30 5704 C 536.722 -0.641526 -1.76822 0
M  V30 5705 O 536.08 0.409722 -1.7661 0
M  V30 5706 C 536.128 -3.09889 -1.84393 0
M  V30 5707 O 535.232 -2.89163 -2.94038 0
M  V30 5708 H 534.573 -0.606357 -0.270605 0
M  V30 5709 H 537.103 -2.03369 -0.224111 0
M  V30 5710 H 537.113 -3.40209 -2.25215 0
M  V30 5711 H 535.788 -3.96735 -1.24795 0
M  V30 5712 H 534.365 -2.70097 -2.57103 0
M  V30 5713 N 536.55 0.480323 -1.50102 0
M  V30 5714 C 537.482 1.59669 -1.64433 0
M  V30 5715 C 538.495 1.54063 -0.52615 0
M  V30 5716 O 539.684 1.59619 -0.798992 0
M  V30 5717 C 536.784 2.98527 -1.6042 0
M  V30 5718 C 535.957 3.291 -2.88117 0
M  V30 5719 C 535.016 4.47468 -2.76873 0
M  V30 5720 O 534.042 4.4823 -3.50825 0
M  V30 5721 N 535.244 5.48593 -1.89806 0
M  V30 5722 H 538.009 1.47795 -2.60723 0
M  V30 5723 H 535.57 0.66858 -1.4745 0
M  V30 5724 H 537.562 3.75666 -1.50523 0
M  V30 5725 H 536.132 3.04218 -0.719036 0
M  V30 5726 H 535.352 2.40662 -3.12211 0
M  V30 5727 H 536.64 3.46334 -3.72734 0
M  V30 5728 H 536.038 5.50791 -1.2902 0
M  V30 5729 H 534.595 6.24752 -1.85819 0
M  V30 5730 N 538.028 1.39524 0.732853 0
M  V30 5731 C 539.253 1.40329 1.52717 0
M  V30 5732 C 539.678 0.000286574 1.881 0
M  V30 5733 O 539.036 -0.987262 1.52062 0
M  V30 5734 C 539.084 2.28464 2.78992 0
M  V30 5735 O 538.188 1.716 3.75003 0
M  V30 5736 H 537.529 0.47778 0.461109 0
M  V30 5737 H 540.059 1.83546 0.903996 0
M  V30 5738 H 540.069 2.43051 3.27705 0
M  V30 5739 H 538.744 3.30425 2.52572 0
M  V30 5740 H 537.321 1.66267 3.33781 0
M  V30 5741 N 539.506 -0.963266 1.24736 0
M  V30 5742 C 540.731 -1.74699 1.11781 0
M  V30 5743 C 541.156 -1.85267 -0.325258 0
M  V30 5744 O 540.514 -1.32681 -1.23553 0
M  V30 5745 C 540.562 -3.14322 1.76731 0
M  V30 5746 O 539.666 -3.99043 1.04109 0
M  V30 5747 H 539.007 -0.53684 0.390767 0
M  V30 5748 H 541.537 -1.20801 1.65131 0
M  V30 5749 H 541.547 -3.64824 1.82668 0
M  V30 5750 H 540.222 -3.05946 2.81726 0
M  V30 5751 H 538.799 -3.5752 1.05991 0
M  V30 5752 N 540.985 -1.06182 -1.16461 0
M  V30 5753 C 542.21 -0.798599 -1.91408 0
M  V30 5754 C 542.635 0.640987 -1.76842 0
M  V30 5755 O 541.993 1.44652 -1.09296 0
M  V30 5756 C 542.041 -1.19665 -3.40165 0
M  V30 5757 O 541.145 -0.334768 -4.11039 0
M  V30 5758 H 540.486 -0.291961 -0.596368 0
M  V30 5759 H 543.016 -1.41732 -1.47557 0
M  V30 5760 H 543.026 -1.16772 -3.90933 0
M  V30 5761 H 541.701 -2.24526 -3.50087 0
M  V30 5762 H 540.278 -0.425168 -3.70468 0
M  V30 5763 N 542.463 1.3308 -0.844243 0
M  V30 5764 C 543.709 1.97898 -0.443206 0
M  V30 5765 C 544.042 1.66699 0.99625 0
M  V30 5766 O 543.317 0.949704 1.69738 0
M  V30 5767 C 543.6 3.53801 -0.670606 0
M  V30 5768 C 543.453 3.94667 -2.15772 0
M  V30 5769 C 544.772 4.39936 -0.120226 0
M  V30 5770 H 541.891 0.718861 -0.162504 0
M  V30 5771 H 544.533 1.57633 -1.06075 0
M  V30 5772 H 542.683 3.88229 -0.14496 0
M  V30 5773 H 544.355 3.70469 -2.74865 0
M  V30 5774 H 542.598 3.44203 -2.6402 0
M  V30 5775 H 543.269 5.03275 -2.26757 0
M  V30 5776 H 545.745 4.12183 -0.5696 0
M  V30 5777 H 544.621 5.4803 -0.308984 0
M  V30 5778 H 544.882 4.31184 0.976347 0
M  V30 5779 N 543.941 0.601185 1.45683 0
M  V30 5780 C 544.889 -0.133955 2.32214 0
M  V30 5781 C 545.883 -0.866034 1.45589 0
M  V30 5782 O 547.089 -0.782326 1.6211 0
M  V30 5783 H 543.464 -0.0620613 0.749435 0
M  V30 5784 H 545.435 0.614389 2.92007 0
M  V30 5785 C 544.184 -1.12216 3.29094 0
M  V30 5786 H 543.507 -0.568273 3.95741 0
M  V30 5787 H 544.947 -1.60659 3.92383 0
M  V30 5788 C 543.406 -2.19251 2.55794 0
M  V30 5789 O 543.936 -3.26894 2.33459 0
M  V30 5790 N 542.142 -1.9436 2.16039 0
M  V30 5791 H 541.689 -1.06829 2.34404 0
M  V30 5792 H 541.647 -2.66181 1.67318 0
M  V30 5793 N 545.419 -1.53889 0.339982 0
M  V30 5794 C 546.644 -2.05741 -0.261798 0
M  V30 5795 C 547.069 -1.21354 -1.43718 0
M  V30 5796 O 546.427 -0.22645 -1.7988 0
M  V30 5797 C 546.475 -3.54542 -0.658228 0
M  V30 5798 O 545.579 -3.7302 -1.75869 0
M  V30 5799 H 544.92 -0.662529 -0.0441672 0
M  V30 5800 H 547.45 -1.98568 0.493161 0
M  V30 5801 H 547.46 -3.9711 -0.936368 0
M  V30 5802 H 546.135 -4.15412 0.201358 0
M  V30 5803 H 544.712 -3.42355 -1.47809 0
M  V30 5804 N 546.897 -0.0685191 -1.57451 0
M  V30 5805 C 547.827 0.89747 -2.15564 0
M  V30 5806 C 548.808 1.31266 -1.08181 0
M  V30 5807 O 549.993 1.38429 -1.36202 0
M  V30 5808 C 547.123 2.16623 -2.71463 0
M  V30 5809 C 546.077 1.89054 -3.83982 0
M  V30 5810 C 545.403 3.22532 -4.26471 0
M  V30 5811 C 546.703 1.1984 -5.08366 0
M  V30 5812 H 548.397 0.413373 -2.96533 0
M  V30 5813 H 545.943 0.197391 -1.42641 0
M  V30 5814 H 547.896 2.84614 -3.10761 0
M  V30 5815 H 546.62 2.67269 -1.8771 0
M  V30 5816 H 545.279 1.23469 -3.45183 0
M  V30 5817 H 544.927 3.71013 -3.39644 0
M  V30 5818 H 544.627 3.04879 -5.02317 0
M  V30 5819 H 546.151 3.91727 -4.68383 0
M  V30 5820 H 547.565 1.77896 -5.45001 0
M  V30 5821 H 545.962 1.12456 -5.89469 0
M  V30 5822 H 547.032 0.176996 -4.84577 0
M  V30 5823 N 548.375 1.56261 0.205012 0
M  V30 5824 C 549.786 1.70056 0.770574 0
M  V30 5825 C 550.137 0.673398 1.84282 0
M  V30 5826 O 549.262 -0.172196 2.15714 0
M  V30 5827 C 549.857 3.08316 1.40451 0
M  V30 5828 C 548.416 3.2391 1.91727 0
M  V30 5829 C 547.563 2.66001 0.783516 0
M  V30 5830 H 550.514 1.58688 -0.019911 0
M  V30 5831 H 550.535 3.05094 2.27371 0
M  V30 5832 H 550.047 3.83053 0.623882 0
M  V30 5833 H 548.148 2.54072 2.7254 0
M  V30 5834 H 548.261 4.3131 2.08588 0
M  V30 5835 H 546.625 2.24915 1.19521 0
M  V30 5836 H 547.408 3.43297 0.0152883 0
M  V30 5837 N 549.853 -0.472356 1.50355 0
M  V30 5838 C 551.13 -1.23356 1.51798 0
M  V30 5839 C 551.51 -2.09469 0.26193 0
M  V30 5840 O 550.858 -2.15677 -0.754691 0
M  V30 5841 C 551.068 -2.06568 2.81302 0
M  V30 5842 C 552.416 -2.648 3.31913 0
M  V30 5843 O 553.44 -2.16812 2.82614 0
M  V30 5844 O 552.299 -3.52231 4.17846 0
M  V30 5845 H 549.393 -0.559707 0.608816 0
M  V30 5846 H 551.939 -0.48428 1.62643 0
M  V30 5847 H 550.711 -1.43103 3.64194 0
M  V30 5848 H 550.334 -2.88633 2.73454 0
M  V30 5849 N 551.331 -1.39911 -0.725443 0
M  V30 5850 C 552.577 -1.37858 -1.48738 0
M  V30 5851 C 552.91 0.0224187 -1.94187 0
M  V30 5852 O 552.185 0.989204 -1.67466 0
M  V30 5853 C 552.468 -2.3594 -2.72038 0
M  V30 5854 C 552.321 -3.85023 -2.32546 0
M  V30 5855 C 553.64 -2.31704 -3.74167 0
M  V30 5856 H 550.759 -0.502074 -0.539528 0
M  V30 5857 H 553.401 -1.70974 -0.828728 0
M  V30 5858 H 551.551 -2.0783 -3.28236 0
M  V30 5859 H 553.223 -4.2392 -1.81905 0
M  V30 5860 H 551.466 -4.01334 -1.64661 0
M  V30 5861 H 552.137 -4.49152 -3.20884 0
M  V30 5862 H 554.613 -2.5658 -3.27576 0
M  V30 5863 H 553.489 -3.02395 -4.58092 0
M  V30 5864 H 553.75 -1.3253 -4.21768 0
M  V30 5865 N 552.809 0.956637 -1.25245 0
M  V30 5866 C 554.034 1.74104 -1.12706 0
M  V30 5867 C 554.459 1.85436 0.315429 0
M  V30 5868 O 553.817 1.33334 1.22848 0
M  V30 5869 C 553.865 3.1338 -1.78396 0
M  V30 5870 O 552.969 3.98485 -1.06224 0
M  V30 5871 H 552.31 0.53476 -0.393609 0
M  V30 5872 H 554.84 1.19924 -1.65769 0
M  V30 5873 H 554.85 3.6385 -1.846 0
M  V30 5874 H 553.525 3.04448 -2.83345 0
M  V30 5875 H 552.102 3.56952 -1.07886 0
M  V30 5876 N 554.287 1.06798 1.15896 0
M  V30 5877 C 555.564 0.701057 1.82605 0
M  V30 5878 C 555.944 -0.817066 1.94646 0
M  V30 5879 O 555.292 -1.72933 1.49353 0
M  V30 5880 C 555.502 1.40895 3.19296 0
M  V30 5881 C 556.85 1.55744 3.95005 0
M  V30 5882 O 557.874 1.36927 3.28831 0
M  V30 5883 O 556.733 1.86658 5.13635 0
M  V30 5884 H 553.827 0.248791 0.78869 0
M  V30 5885 H 556.373 1.16857 1.23055 0
M  V30 5886 H 555.145 2.4439 3.05596 0
M  V30 5887 H 554.768 0.931847 3.86526 0
M  V30 5888 N 555.766 -1.3263 0.851289 0
M  V30 5889 C 557.043 -1.91982 0.374448 0
M  V30 5890 C 557.423 -1.77568 -1.14161 0
M  V30 5891 O 556.771 -1.1717 -1.96172 0
M  V30 5892 C 556.981 -3.38862 0.835088 0
M  V30 5893 C 558.329 -4.15999 0.850309 0
M  V30 5894 O 559.353 -3.47566 0.779505 0
M  V30 5895 O 558.212 -5.38189 0.949481 0
M  V30 5896 H 555.306 -0.819846 0.10854 0
M  V30 5897 H 557.852 -1.41422 0.937966 0
M  V30 5898 H 556.624 -3.43281 1.87814 0
M  V30 5899 H 556.247 -3.96821 0.248833 0
M  V30 5900 N 557.244 -0.608902 -1.45362 0
M  V30 5901 C 558.191 0.109172 -2.30542 0
M  V30 5902 C 559.161 0.858704 -1.42181 0
M  V30 5903 O 560.346 0.844178 -1.71109 0
M  V30 5904 C 557.486 1.09971 -3.27109 0
M  V30 5905 C 556.599 0.350911 -4.30572 0
M  V30 5906 C 555.734 1.33129 -5.14247 0
M  V30 5907 C 554.773 0.570377 -6.09437 0
M  V30 5908 N 553.91 1.5001 -6.85887 0
M  V30 5909 H 558.75 -0.623195 -2.91411 0
M  V30 5910 H 556.287 -0.319122 -1.43597 0
M  V30 5911 H 558.245 1.68714 -3.81564 0
M  V30 5912 H 556.875 1.79947 -2.67991 0
M  V30 5913 H 555.927 -0.352054 -3.78767 0
M  V30 5914 H 557.239 -0.242725 -4.98209 0
M  V30 5915 H 556.393 1.99074 -5.73109 0
M  V30 5916 H 555.132 1.95885 -4.46632 0
M  V30 5917 H 554.137 -0.102702 -5.49704 0
M  V30 5918 H 555.362 -0.0521607 -6.7908 0
M  V30 5919 H 553.308 2.11529 -6.2096 0
M  V30 5920 H 553.225 0.959934 -7.49881 0
M  V30 5921 H 554.493 2.14909 -7.49289 0
M  V30 5922 N 558.722 1.53707 -0.348139 0
M  V30 5923 C 559.947 2.05877 0.250883 0
M  V30 5924 C 560.372 1.22115 1.43072 0
M  V30 5925 O 559.73 0.235986 1.79758 0
M  V30 5926 C 559.778 3.54886 0.639416 0
M  V30 5927 O 558.882 3.73948 1.73888 0
M  V30 5928 H 558.223 0.662754 0.040653 0
M  V30 5929 H 560.753 1.98303 -0.503685 0
M  V30 5930 H 560.763 3.97601 0.915295 0
M  V30 5931 H 559.438 4.153 -0.223386 0
M  V30 5932 H 558.015 3.43134 1.45991 0
M  V30 5933 N 560.2 0.0768682 1.57412 0
M  V30 5934 C 561.11 -0.903207 2.16516 0
M  V30 5935 C 562.126 -1.32341 1.12968 0
M  V30 5936 O 563.302 -1.39507 1.45258 0
M  V30 5937 C 560.367 -2.1508 2.71922 0
M  V30 5938 C 559.428 -1.78653 3.90361 0
M  V30 5939 C 558.661 -2.97465 4.43114 0
M  V30 5940 O 558.884 -4.11638 3.94854 0
M  V30 5941 O 557.818 -2.76987 5.3438 0
M  V30 5942 H 561.644 -0.430427 3.00634 0
M  V30 5943 H 559.229 -0.146485 1.4868 0
M  V30 5944 H 561.111 -2.8823 3.07411 0
M  V30 5945 H 559.786 -2.61446 1.9086 0
M  V30 5946 H 558.693 -1.0274 3.59716 0
M  V30 5947 H 560.026 -1.37066 4.7273 0
M  V30 5948 N 561.678 -1.56367 -0.196722 0
M  V30 5949 C 562.608 -1.97442 -1.24655 0
M  V30 5950 C 563.589 -0.846147 -1.47561 0
M  V30 5951 O 564.774 -1.11035 -1.59326 0
M  V30 5952 C 561.904 -2.31253 -2.59112 0
M  V30 5953 C 560.858 -3.46804 -2.50821 0
M  V30 5954 C 560.184 -3.66286 -3.89536 0
M  V30 5955 C 561.484 -4.8104 -2.03465 0
M  V30 5956 H 563.178 -2.85388 -0.905216 0
M  V30 5957 H 560.724 -1.37304 -0.434002 0
M  V30 5958 H 562.677 -2.58583 -3.32736 0
M  V30 5959 H 561.401 -1.40188 -2.94983 0
M  V30 5960 H 560.06 -3.19563 -1.79653 0
M  V30 5961 H 559.708 -2.72555 -4.22756 0
M  V30 5962 H 559.408 -4.4402 -3.84864 0
M  V30 5963 H 560.932 -3.9599 -4.64784 0
M  V30 5964 H 562.346 -5.07411 -2.66846 0
M  V30 5965 H 560.743 -5.62232 -2.09798 0
M  V30 5966 H 561.813 -4.74732 -0.98781 0
M  V30 5967 N 563.156 0.464375 -1.50603 0
M  V30 5968 C 564.433 1.22549 -1.5245 0
M  V30 5969 C 564.813 2.09327 -0.273035 0
M  V30 5970 O 564.161 2.16074 0.743242 0
M  V30 5971 C 564.371 2.05074 -2.82393 0
M  V30 5972 C 565.719 2.63036 -3.33313 0
M  V30 5973 O 566.743 2.1531 -2.8376 0
M  V30 5974 O 565.602 3.5001 -4.19709 0
M  V30 5975 H 562.696 0.556471 -0.611775 0
M  V30 5976 H 565.242 0.475648 -1.62898 0
M  V30 5977 H 564.014 1.41169 -3.64948 0
M  V30 5978 H 563.637 2.87179 -2.7498 0
M  V30 5979 N 564.634 1.40294 0.718013 0
M  V30 5980 C 565.567 1.34767 1.84155 0
M  V30 5981 C 566.545 0.218455 1.61126 0
M  V30 5982 O 567.729 0.401716 1.8417 0
M  V30 5983 C 564.856 1.09676 3.20451 0
M  V30 5984 C 563.902 2.25016 3.62312 0
M  V30 5985 S 564.735 3.87397 3.69707 0
M  V30 5986 C 565.891 3.64565 5.08766 0
M  V30 5987 H 566.124 2.29851 1.88562 0
M  V30 5988 H 563.657 1.2655 0.884555 0
M  V30 5989 H 565.615 0.95885 3.99144 0
M  V30 5990 H 564.276 0.162502 3.13679 0
M  V30 5991 H 563.469 2.03097 4.61268 0
M  V30 5992 H 563.071 2.35098 2.90869 0
M  V30 5993 H 565.363 3.22882 5.95612 0
M  V30 5994 H 566.306 4.63043 5.35721 0
M  V30 5995 H 566.714 2.98303 4.79245 0
M  V30 5996 N 566.112 -0.949982 1.2575 0
M  V30 5997 C 567.045 -2.047 1.00862 0
M  V30 5998 C 568.023 -1.62475 -0.0636982 0
M  V30 5999 O 569.207 -1.88343 0.0769153 0
M  V30 6000 C 566.334 -3.34597 0.525613 0
M  V30 6001 C 565.38 -3.95788 1.58916 0
M  V30 6002 S 566.213 -4.31175 3.17567 0
M  V30 6003 C 567.369 -5.64183 2.71013 0
M  V30 6004 H 567.602 -2.25497 1.93749 0
M  V30 6005 H 565.135 -1.09022 1.09332 0
M  V30 6006 H 567.093 -4.09716 0.25359 0
M  V30 6007 H 565.754 -3.11758 -0.382828 0
M  V30 6008 H 564.947 -4.89457 1.20201 0
M  V30 6009 H 564.549 -3.27168 1.81211 0
M  V30 6010 H 566.841 -6.42504 2.14928 0
M  V30 6011 H 567.784 -6.07774 3.6334 0
M  V30 6012 H 568.192 -5.2364 2.1086 0
M  V30 6013 N 567.59 -1.07411 -1.15328 0
M  V30 6014 C 568.5 -0.706438 -2.23711 0
M  V30 6015 C 569.516 0.282586 -1.7169 0
M  V30 6016 O 570.692 0.129066 -2.00986 0
M  V30 6017 C 567.757 -0.11048 -3.46524 0
M  V30 6018 C 566.818 -1.15282 -4.13532 0
M  V30 6019 C 566.051 -0.585205 -5.30482 0
M  V30 6020 O 566.274 0.598549 -5.67251 0
M  V30 6021 O 565.208 -1.33039 -5.87013 0
M  V30 6022 H 569.034 -1.61031 -2.57493 0
M  V30 6023 H 566.619 -0.847113 -1.23062 0
M  V30 6024 H 568.501 0.21957 -4.20828 0
M  V30 6025 H 567.176 0.766703 -3.14489 0
M  V30 6026 H 566.083 -1.53523 -3.41147 0
M  V30 6027 H 567.416 -2.00192 -4.49649 0
M  V30 6028 N 569.068 1.32177 -0.85831 0
M  V30 6029 C 570.316 1.96735 -0.462568 0
M  V30 6030 C 570.637 1.6824 0.985911 0
M  V30 6031 O 569.907 0.991564 1.68952 0
M  V30 6032 H 568.487 0.727849 -0.168064 0
M  V30 6033 H 571.149 1.61195 -1.09554 0
M  V30 6034 H 570.245 3.06068 -0.610647 0
M  V30 6035 N 570.547 0.616602 1.45037 0
M  V30 6036 C 571.824 0.0469086 1.95544 0
M  V30 6037 C 572.204 -1.42345 1.55888 0
M  V30 6038 O 571.552 -2.13055 0.825824 0
M  V30 6039 C 571.762 0.254489 3.48071 0
M  V30 6040 C 573.11 0.140025 4.24369 0
M  V30 6041 O 574.134 0.185084 3.55719 0
M  V30 6042 O 572.993 0.0327034 5.4649 0
M  V30 6043 H 570.087 -0.0306051 0.826433 0
M  V30 6044 H 572.633 0.687293 1.55159 0
M  V30 6045 H 571.405 1.27532 3.69934 0
M  V30 6046 H 571.028 -0.42073 3.95368 0
M  V30 6047 N 572.025 -1.5352 0.356285 0
M  V30 6048 C 572.975 -2.22204 -0.510815 0
M  V30 6049 C 573.959 -1.21393 -1.05605 0
M  V30 6050 O 575.151 -1.46883 -0.987639 0
M  V30 6051 C 572.28 -3.00786 -1.65478 0
M  V30 6052 C 571.366 -4.08965 -1.12287 0
M  V30 6053 N 571.757 -5.04829 -0.313191 0
M  V30 6054 C 570.055 -4.23505 -1.39856 0
M  V30 6055 C 570.756 -5.81695 -0.0230322 0
M  V30 6056 N 569.732 -5.40074 -0.618144 0
M  V30 6057 H 573.534 -2.93676 0.114711 0
M  V30 6058 H 571.048 -1.61572 0.163811 0
M  V30 6059 H 573.045 -3.48502 -2.28806 0
M  V30 6060 H 571.705 -2.30843 -2.28345 0
M  V30 6061 H 572.716 -5.17879 0.0468202 0
M  V30 6062 H 569.393 -3.64786 -2.0307 0
M  V30 6063 H 570.783 -6.68931 0.630927 0
M  V30 6064 N 573.503 -0.0852151 -1.57369 0
M  V30 6065 C 574.731 0.58946 -1.98325 0
M  V30 6066 C 575.146 1.62333 -0.96403 0
M  V30 6067 O 574.503 1.82438 0.0476395 0
M  V30 6068 C 574.554 1.24604 -3.39347 0
M  V30 6069 O 574.275 0.253532 -4.37366 0
M  V30 6070 C 575.776 2.00726 -3.95252 0
M  V30 6071 H 572.996 0.158783 -0.651942 0
M  V30 6072 H 575.54 -0.161584 -2.03861 0
M  V30 6073 H 573.695 1.94808 -3.34856 0
M  V30 6074 H 574.109 0.726207 -5.19448 0
M  V30 6075 H 575.583 2.42039 -4.96106 0
M  V30 6076 H 576.06 2.86919 -3.32527 0
M  V30 6077 H 576.666 1.3536 -4.03185 0
M  V30 6078 N 574.981 1.5647 0.188427 0
M  V30 6079 C 576.227 1.81281 0.909124 0
M  V30 6080 C 576.56 0.66034 1.82628 0
M  V30 6081 O 575.835 -0.338737 1.91528 0
M  V30 6082 C 576.118 3.16388 1.7196 0
M  V30 6083 C 575.971 4.42137 0.826714 0
M  V30 6084 C 577.29 3.48256 2.69083 0
M  V30 6085 H 574.409 0.659457 0.329068 0
M  V30 6086 H 577.051 1.89182 0.176156 0
M  V30 6087 H 575.201 3.09784 2.34448 0
M  V30 6088 H 576.873 4.60794 0.216025 0
M  V30 6089 H 575.116 4.33594 0.133792 0
M  V30 6090 H 575.787 5.33184 1.42893 0
M  V30 6091 H 578.263 3.55203 2.16726 0
M  V30 6092 H 577.139 4.43899 3.2287 0
M  V30 6093 H 577.4 2.72088 3.48455 0
M  V30 6094 N 576.459 -0.456382 1.50847 0
M  V30 6095 C 577.392 -1.57177 1.65441 0
M  V30 6096 C 578.37 -1.54649 0.502224 0
M  V30 6097 O 579.554 -1.74057 0.723633 0
M  V30 6098 C 576.681 -2.95763 1.65052 0
M  V30 6099 C 575.727 -3.16389 2.86007 0
M  V30 6100 S 576.56 -2.94716 4.47105 0
M  V30 6101 C 577.716 -4.35617 4.49432 0
M  V30 6102 H 577.949 -1.44561 2.59787 0
M  V30 6103 H 575.482 -0.644758 1.40293 0
M  V30 6104 H 577.44 -3.75654 1.65512 0
M  V30 6105 H 576.101 -3.05756 0.719153 0
M  V30 6106 H 575.294 -4.17667 2.82081 0
M  V30 6107 H 574.896 -2.44293 2.8319 0
M  V30 6108 H 577.188 -5.28503 4.239 0
M  V30 6109 H 578.131 -4.44582 5.51137 0
M  V30 6110 H 578.539 -4.18382 3.78967 0
M  V30 6111 N 577.937 -1.40673 -0.710563 0
M  V30 6112 C 579.162 -1.42741 -1.50465 0
M  V30 6113 C 579.587 -0.0302116 -1.88076 0
M  V30 6114 O 578.945 0.962945 -1.53613 0
M  V30 6115 C 578.993 -2.32873 -2.75322 0
M  V30 6116 O 578.097 -1.77544 -3.72226 0
M  V30 6117 H 577.438 -0.485056 -0.45345 0
M  V30 6118 H 579.968 -1.84961 -0.874681 0
M  V30 6119 H 579.978 -2.48233 -3.23797 0
M  V30 6120 H 578.653 -3.34401 -2.47283 0
M  V30 6121 H 577.23 -1.71556 -3.31093 0
M  V30 6122 N 579.415 0.9433 -1.26252 0
M  V30 6123 C 580.363 2.06302 -1.07434 0
M  V30 6124 C 581.357 1.694 -0.00189471 0
M  V30 6125 O 582.563 1.79302 -0.158408 0
M  V30 6126 H 578.938 0.675453 -0.330556 0
M  V30 6127 H 580.909 2.19326 -2.02333 0
M  V30 6128 C 579.658 3.40125 -0.721817 0
M  V30 6129 H 578.981 3.68996 -1.5389 0
M  V30 6130 H 580.421 4.19295 -0.629922 0
M  V30 6131 C 578.88 3.31993 0.572902 0
M  V30 6132 O 579.41 3.67945 1.61182 0
M  V30 6133 N 577.616 2.85099 0.562748 0
M  V30 6134 H 577.163 2.5604 -0.283092 0
M  V30 6135 H 577.121 2.80041 1.42915 0
M  V30 6136 N 580.893 1.08022 1.14757 0
M  V30 6137 C 582.118 0.82895 1.90114 0
M  V30 6138 C 582.543 -0.612772 1.77839 0
M  V30 6139 O 581.901 -1.42895 1.11583 0
M  V30 6140 C 581.949 1.25062 3.38219 0
M  V30 6141 O 581.053 0.400119 4.10454 0
M  V30 6142 H 580.394 0.301412 0.591648 0
M  V30 6143 H 582.924 1.44062 1.45284 0
M  V30 6144 H 582.934 1.22977 3.89025 0
M  V30 6145 H 581.609 2.30067 3.46471 0
M  V30 6146 H 580.186 0.484052 3.69745 0
M  V30 6147 N 582.371 -1.3172 0.865308 0
M  V30 6148 C 583.596 -2.01591 0.487415 0
M  V30 6149 C 584.021 -1.6455 -0.911307 0
M  V30 6150 O 583.379 -0.851689 -1.6005 0
M  V30 6151 C 583.427 -3.54759 0.646401 0
M  V30 6152 O 582.531 -4.11185 -0.316284 0
M  V30 6153 H 581.872 -0.634884 0.194468 0
M  V30 6154 H 584.402 -1.68024 1.16744 0
M  V30 6155 H 584.412 -4.04438 0.537932 0
M  V30 6156 H 583.087 -3.8106 1.66632 0
M  V30 6157 H 581.664 -3.72543 -0.163162 0
M  V30 6158 N 583.85 -0.624285 -1.44708 0
M  V30 6159 C 585.096 -0.126237 -2.02407 0
M  V30 6160 C 585.428 1.24618 -1.48943 0
M  V30 6161 O 584.704 1.82569 -0.670742 0
M  V30 6162 C 584.986 -0.105449 -3.59946 0
M  V30 6163 C 584.84 -1.50972 -4.23707 0
M  V30 6164 C 586.159 0.573629 -4.36346 0
M  V30 6165 H 583.278 -0.0473472 -0.735478 0
M  V30 6166 H 585.92 -0.799452 -1.72362 0
M  V30 6167 H 584.07 0.46783 -3.85673 0
M  V30 6168 H 585.742 -2.13136 -4.0911 0
M  V30 6169 H 583.985 -2.0656 -3.81465 0
M  V30 6170 H 584.656 -1.44727 -5.32689 0
M  V30 6171 H 587.132 0.0861787 -4.16011 0
M  V30 6172 H 586.008 0.557338 -5.46063 0
M  V30 6173 H 586.269 1.64276 -4.10446 0
M  V30 6174 N 585.328 1.53329 -0.364422 0
M  V30 6175 C 586.577 2.00421 0.226747 0
M  V30 6176 C 586.89 1.25581 1.49963 0
M  V30 6177 O 588.096 1.63256 2.16933 0
M  V30 6178 C 586.552 3.57017 0.454618 0
M  V30 6179 C 586.16 4.40734 -0.803568 0
M  V30 6180 C 587.904 4.12468 1.00351 0
M  V30 6181 C 585.811 5.8888 -0.545345 0
M  V30 6182 H 584.741 0.748787 0.0885082 0
M  V30 6183 H 587.392 1.7703 -0.482983 0
M  V30 6184 H 585.774 3.76558 1.22558 0
M  V30 6185 H 586.948 4.32967 -1.57723 0
M  V30 6186 H 585.263 3.96381 -1.27559 0
M  V30 6187 H 587.86 5.20783 1.212 0
M  V30 6188 H 588.203 3.6699 1.9653 0
M  V30 6189 H 588.736 3.96721 0.29274 0
M  V30 6190 H 585.475 6.38633 -1.47743 0
M  V30 6191 H 584.995 5.99499 0.189842 0
M  V30 6192 H 586.674 6.46776 -0.170425 0
M  V30 6193 N 586.806 0.0935595 1.57322 0
M  V30 6194 C 587.756 -0.876521 2.10478 0
M  V30 6195 C 588.74 -1.24482 1.01946 0
M  V30 6196 O 589.932 -1.22016 1.28223 0
M  V30 6197 C 587.061 -2.13615 2.68745 0
M  V30 6198 C 586.147 -1.79335 3.84317 0
M  V30 6199 N 586.538 -1.15606 4.92411 0
M  V30 6200 C 584.836 -2.08954 3.94023 0
M  V30 6201 C 585.537 -0.999036 5.73057 0
M  V30 6202 N 584.513 -1.51585 5.22037 0
M  V30 6203 H 588.315 -0.379829 2.91435 0
M  V30 6204 H 585.829 -0.109699 1.62029 0
M  V30 6205 H 587.826 -2.84053 3.05155 0
M  V30 6206 H 586.486 -2.63851 1.89242 0
M  V30 6207 H 587.497 -0.823063 5.11318 0
M  V30 6208 H 584.174 -2.61416 3.25527 0
M  V30 6209 H 585.564 -0.500772 6.70031 0
M  V30 6210 N 588.284 -1.56567 -0.180126 0
M  V30 6211 C 589.214 -1.98753 -1.22553 0
M  V30 6212 C 590.195 -0.86175 -1.46656 0
M  V30 6213 O 591.38 -1.12719 -1.58139 0
M  V30 6214 C 588.51 -2.33988 -2.56645 0
M  V30 6215 C 587.464 -3.49445 -2.47128 0
M  V30 6216 C 586.79 -3.70397 -3.8563 0
M  V30 6217 C 588.09 -4.83171 -1.98352 0
M  V30 6218 H 589.784 -2.86332 -0.874896 0
M  V30 6219 H 587.33 -1.37757 -0.419414 0
M  V30 6220 H 589.283 -2.62097 -3.29974 0
M  V30 6221 H 588.007 -1.43309 -2.93479 0
M  V30 6222 H 586.666 -3.2145 -1.76254 0
M  V30 6223 H 586.314 -2.77023 -4.19842 0
M  V30 6224 H 586.014 -4.48077 -3.80132 0
M  V30 6225 H 587.538 -4.00897 -4.60558 0
M  V30 6226 H 588.952 -5.10213 -2.61449 0
M  V30 6227 H 587.349 -5.64425 -2.03823 0
M  V30 6228 H 588.419 -4.75753 -0.937402 0
M  V30 6229 N 589.762 0.448376 -1.51087 0
M  V30 6230 C 590.709 1.54341 -1.71603 0
M  V30 6231 C 591.679 1.56463 -0.557536 0
M  V30 6232 O 592.864 1.73644 -0.79072 0
M  V30 6233 C 590.004 2.92148 -1.83695 0
M  V30 6234 C 589.117 2.99639 -3.11192 0
M  V30 6235 C 588.252 4.285 -3.13944 0
M  V30 6236 C 587.291 4.29819 -4.35801 0
M  V30 6237 N 586.428 5.50186 -4.36164 0
M  V30 6238 H 591.268 1.36151 -2.65079 0
M  V30 6239 H 588.805 0.661585 -1.31383 0
M  V30 6240 H 590.763 3.72093 -1.88687 0
M  V30 6241 H 589.393 3.0892 -0.936374 0
M  V30 6242 H 588.445 2.12425 -3.15562 0
M  V30 6243 H 589.757 2.96474 -4.01129 0
M  V30 6244 H 588.911 5.16811 -3.17791 0
M  V30 6245 H 587.65 4.34307 -2.21876 0
M  V30 6246 H 586.655 3.39902 -4.32142 0
M  V30 6247 H 587.88 4.25685 -5.29121 0
M  V30 6248 H 585.826 5.56735 -3.46961 0
M  V30 6249 H 585.743 5.48856 -5.19897 0
M  V30 6250 H 587.011 6.40559 -4.44189 0
M  V30 6251 N 591.24 1.41047 0.703093 0
M  V30 6252 C 592.651 1.35657 1.28274 0
M  V30 6253 C 593.002 0.0360309 1.96167 0
M  V30 6254 O 592.127 -0.865833 1.98324 0
M  V30 6255 C 592.722 2.45707 2.33267 0
M  V30 6256 C 591.281 2.43738 2.86825 0
M  V30 6257 C 590.428 2.25941 1.60767 0
M  V30 6258 H 593.379 1.50672 0.49836 0
M  V30 6259 H 593.4 2.14333 3.14391 0
M  V30 6260 H 592.912 3.41805 1.83824 0
M  V30 6261 H 591.013 1.51375 3.40465 0
M  V30 6262 H 591.126 3.39779 3.37768 0
M  V30 6263 H 589.49 1.73681 1.86298 0
M  V30 6264 H 590.273 3.24054 1.1333 0
M  V30 6265 N 592.718 -0.936591 1.26751 0
M  V30 6266 C 593.628 -2.06949 1.10496 0
M  V30 6267 C 594.644 -1.7396 0.037271 0
M  V30 6268 O 595.82 -1.99941 0.241944 0
M  V30 6269 C 592.885 -3.38612 0.744491 0
M  V30 6270 C 591.946 -3.85355 1.89209 0
M  V30 6271 C 591.179 -5.10735 1.54873 0
M  V30 6272 O 591.402 -5.68602 0.452546 0
M  V30 6273 O 590.336 -5.52632 2.38499 0
M  V30 6274 H 594.162 -2.23571 2.05547 0
M  V30 6275 H 591.747 -1.05428 1.05855 0
M  V30 6276 H 593.629 -4.17711 0.556396 0
M  V30 6277 H 592.304 -3.23218 -0.176582 0
M  V30 6278 H 591.211 -3.07182 2.13518 0
M  V30 6279 H 592.544 -4.05277 2.79305 0
M  V30 6280 N 594.196 -1.08629 -1.14182 0
M  V30 6281 C 595.106 -0.730126 -2.22949 0
M  V30 6282 C 596.122 0.26436 -1.7198 0
M  V30 6283 O 597.298 0.107742 -2.01112 0
M  V30 6284 C 594.363 -0.147227 -3.46387 0
M  V30 6285 C 593.424 -1.19662 -4.12286 0
M  V30 6286 C 592.657 -0.641437 -5.29831 0
M  V30 6287 O 592.88 0.538351 -5.67854 0
M  V30 6288 O 591.814 -1.39257 -5.85569 0
M  V30 6289 H 595.64 -1.63753 -2.55771 0
M  V30 6290 H 593.225 -0.860118 -1.22157 0
M  V30 6291 H 595.107 0.174923 -4.21037 0
M  V30 6292 H 593.782 0.733304 -3.15285 0
M  V30 6293 H 592.689 -1.57133 -3.395 0
M  V30 6294 H 594.022 -2.0495 -4.475 0
M  V30 6295 N 595.674 1.31259 -0.872281 0
M  V30 6296 C 596.584 2.32221 -0.333255 0
M  V30 6297 C 597.6 1.6481 0.558013 0
M  V30 6298 O 598.776 1.96212 0.454175 0
M  V30 6299 C 595.841 3.43708 0.454479 0
M  V30 6300 C 594.902 4.26774 -0.465024 0
M  V30 6301 C 594.135 5.32937 0.28521 0
M  V30 6302 O 594.358 5.49968 1.513 0
M  V30 6303 O 593.292 6.00834 -0.358126 0
M  V30 6304 H 597.118 2.80252 -1.17016 0
M  V30 6305 H 594.703 1.352 -0.635724 0
M  V30 6306 H 596.585 4.11656 0.900963 0
M  V30 6307 H 595.26 2.97836 1.26789 0
M  V30 6308 H 594.167 3.61571 -0.960055 0
M  V30 6309 H 595.5 4.76217 -1.2441 0
M  V30 6310 N 597.152 0.631951 1.44375 0
M  V30 6311 C 598.1 -0.0846693 2.32446 0
M  V30 6312 C 599.094 -0.834957 1.47393 0
M  V30 6313 O 600.3 -0.747764 1.63733 0
M  V30 6314 H 596.675 -0.0461508 0.750583 0
M  V30 6315 H 598.646 0.67619 2.90638 0
M  V30 6316 C 597.395 -1.05211 3.314 0
M  V30 6317 H 596.718 -0.484203 3.96857 0
M  V30 6318 H 598.158 -1.523 3.95703 0
M  V30 6319 C 596.617 -2.13776 2.60387 0
M  V30 6320 O 597.147 -3.21869 2.4034 0
M  V30 6321 N 595.353 -1.89733 2.20113 0
M  V30 6322 H 594.9 -1.01833 2.36618 0
M  V30 6323 H 594.858 -2.62572 1.72926 0
M  V30 6324 N 598.631 -1.53133 0.372548 0
M  V30 6325 C 599.861 -2.05476 -0.215202 0
M  V30 6326 C 600.269 -1.24534 -1.42436 0
M  V30 6327 O 599.612 -0.280771 -1.81542 0
M  V30 6328 C 599.674 -3.53276 -0.666068 0
M  V30 6329 C 599.338 -4.54998 0.427342 0
M  V30 6330 C 600.335 -5.03911 1.27944 0
M  V30 6331 C 598.02 -4.98828 0.589579 0
M  V30 6332 C 600.014 -5.95263 2.27905 0
M  V30 6333 C 597.701 -5.89984 1.59255 0
M  V30 6334 C 598.699 -6.38093 2.43571 0
M  V30 6335 O 598.387 -7.27451 3.42156 0
M  V30 6336 H 598.119 -0.67481 -0.040099 0
M  V30 6337 H 600.673 -1.98409 0.531312 0
M  V30 6338 H 598.903 -3.57904 -1.4643 0
M  V30 6339 H 600.592 -3.88442 -1.1776 0
M  V30 6340 H 601.358 -4.70792 1.16532 0
M  V30 6341 H 597.237 -4.60965 -0.0569456 0
M  V30 6342 H 600.781 -6.32736 2.93753 0
M  V30 6343 H 596.678 -6.22518 1.70711 0
M  V30 6344 H 597.446 -7.45467 3.37967 0
M  V30 6345 N 600.109 -0.101901 -1.5727 0
M  V30 6346 C 601.525 0.254739 -1.57554 0
M  V30 6347 C 601.725 1.67937 -1.11352 0
M  V30 6348 O 600.781 2.39722 -0.793081 0
M  V30 6349 C 602.094 0.036975 -3.00677 0
M  V30 6350 C 603.642 0.104199 -3.12827 0
M  V30 6351 C 604.117 -0.0856565 -4.5792 0
M  V30 6352 N 605.608 -0.0310498 -4.6319 0
M  V30 6353 C 606.343 -0.153099 -5.73196 0
M  V30 6354 N 605.839 -0.330364 -6.92012 0
M  V30 6355 N 607.632 -0.0938854 -5.62022 0
M  V30 6356 H 599.783 -1.03263 -1.85609 0
M  V30 6357 H 602.046 -0.405251 -0.857016 0
M  V30 6358 H 601.752 -0.947254 -3.38703 0
M  V30 6359 H 601.626 0.776335 -3.69124 0
M  V30 6360 H 604.013 1.07894 -2.74669 0
M  V30 6361 H 604.094 -0.666762 -2.46957 0
M  V30 6362 H 603.738 -1.05729 -4.96773 0
M  V30 6363 H 603.668 0.705082 -5.21858 0
M  V30 6364 H 606.159 0.103141 -3.77759 0
M  V30 6365 H 606.472 -0.41482 -7.71686 0
M  V30 6366 H 604.817 -0.366119 -6.94035 0
M  V30 6367 H 608.008 0.0435168 -4.6808 0
M  V30 6368 H 608.181 -0.19245 -6.47714 0
M  V30 6369 N 601.587 1.56661 0.17182 0
M  V30 6370 C 602.497 1.99604 1.2327 0
M  V30 6371 C 603.513 0.907333 1.4847 0
M  V30 6372 O 604.689 1.21492 1.60629 0
M  V30 6373 C 601.754 2.34685 2.55194 0
M  V30 6374 C 600.815 3.57381 2.3786 0
M  V30 6375 C 600.048 3.90779 3.63494 0
M  V30 6376 O 600.271 3.25152 4.6865 0
M  V30 6377 O 599.205 4.84129 3.57634 0
M  V30 6378 H 603.031 2.90114 0.898192 0
M  V30 6379 H 600.616 1.44522 0.378647 0
M  V30 6380 H 602.498 2.5822 3.33017 0
M  V30 6381 H 601.173 1.47336 2.88225 0
M  V30 6382 H 600.08 3.39064 1.5807 0
M  V30 6383 H 601.413 4.45268 2.09754 0
M  V30 6384 N 603.065 -0.440357 1.51323 0
M  V30 6385 C 603.975 -1.55955 1.75258 0
M  V30 6386 C 604.991 -1.61933 0.636687 0
M  V30 6387 O 606.167 -1.79231 0.918593 0
M  V30 6388 C 603.232 -2.9196 1.86977 0
M  V30 6389 C 602.293 -2.96122 3.10822 0
M  V30 6390 C 601.526 -4.2564 3.21973 0
M  V30 6391 O 601.749 -5.17851 2.39137 0
M  V30 6392 O 600.683 -4.36025 4.14929 0
M  V30 6393 H 604.509 -1.38673 2.70191 0
M  V30 6394 H 602.094 -0.623055 1.35788 0
M  V30 6395 H 603.976 -3.72682 1.96688 0
M  V30 6396 H 602.651 -3.09375 0.952307 0
M  V30 6397 H 601.558 -2.14366 3.06591 0
M  V30 6398 H 602.891 -2.83651 4.02247 0
M  V30 6399 N 604.543 -1.41418 -0.695603 0
M  V30 6400 C 605.791 -1.40496 -1.45277 0
M  V30 6401 C 606.112 -0.0149538 -1.94994 0
M  V30 6402 O 605.382 0.9432 -1.71699 0
M  V30 6403 H 603.962 -0.517147 -0.539044 0
M  V30 6404 H 606.624 -1.76656 -0.823321 0
M  V30 6405 H 605.72 -2.09214 -2.31595 0
M  V30 6406 N 606.021 0.929856 -1.27246 0
M  V30 6407 C 607.298 1.65544 -1.04186 0
M  V30 6408 C 607.678 2.06796 0.424097 0
M  V30 6409 O 607.026 1.80053 1.40688 0
M  V30 6410 C 607.236 2.85912 -2.00138 0
M  V30 6411 C 608.584 3.57305 -2.29387 0
M  V30 6412 O 609.608 2.96036 -1.98094 0
M  V30 6413 O 608.467 4.67688 -2.82719 0
M  V30 6414 H 605.561 0.725473 -0.397011 0
M  V30 6415 H 608.107 0.980583 -1.38501 0
M  V30 6416 H 606.879 2.52403 -2.99013 0
M  V30 6417 H 606.502 3.61118 -1.66371 0
M  V30 6418 N 607.499 1.09233 1.13605 0
M  V30 6419 C 608.91 0.846839 1.6639 0
M  V30 6420 C 609.261 -0.625031 1.85978 0
M  V30 6421 O 608.386 -1.48173 1.57714 0
M  V30 6422 C 608.981 1.5307 3.0225 0
M  V30 6423 C 607.54 1.33223 3.52035 0
M  V30 6424 C 606.687 1.58806 2.27323 0
M  V30 6425 H 609.638 1.25175 0.975541 0
M  V30 6426 H 609.659 0.96267 3.68121 0
M  V30 6427 H 609.171 2.60192 2.87961 0
M  V30 6428 H 607.272 0.282091 3.71531 0
M  V30 6429 H 607.385 2.0657 4.32279 0
M  V30 6430 H 605.749 1.01007 2.33815 0
M  V30 6431 H 606.532 2.67153 2.15602 0
M  V30 6432 N 608.977 -1.30795 0.87923 0
M  V30 6433 C 610.393 -1.48981 0.57243 0
M  V30 6434 C 610.593 -1.80719 -0.891236 0
M  V30 6435 O 609.649 -1.89136 -1.67283 0
M  V30 6436 C 610.962 -2.61721 1.48063 0
M  V30 6437 C 612.51 -2.75603 1.48365 0
M  V30 6438 C 612.985 -3.91449 2.37763 0
M  V30 6439 N 614.476 -3.98751 2.35695 0
M  V30 6440 C 615.211 -4.87684 3.01583 0
M  V30 6441 N 614.707 -5.81454 3.76674 0
M  V30 6442 N 616.5 -4.81005 2.90844 0
M  V30 6443 H 608.651 -1.08465 1.82617 0
M  V30 6444 H 610.914 -0.536813 0.781368 0
M  V30 6445 H 610.62 -2.45073 2.52254 0
M  V30 6446 H 610.494 -3.58071 1.18596 0
M  V30 6447 H 612.881 -2.9166 0.44927 0
M  V30 6448 H 612.962 -1.79891 1.81859 0
M  V30 6449 H 612.606 -3.76149 3.41283 0
M  V30 6450 H 612.536 -4.86487 2.01589 0
M  V30 6451 H 615.027 -3.31668 1.81121 0
M  V30 6452 H 615.34 -6.46063 4.24054 0
M  V30 6453 H 613.685 -5.81403 3.80782 0
M  V30 6454 H 616.876 -4.06728 2.31711 0
M  V30 6455 H 617.049 -5.50107 3.42471 0
M  V30 6456 N 610.455 -0.639598 -1.44038 0
M  V30 6457 C 611.683 -0.154811 -2.0632 0
M  V30 6458 C 612.098 1.17406 -1.47856 0
M  V30 6459 O 611.455 1.72193 -0.604638 0
M  V30 6460 C 611.506 -0.0429958 -3.61474 0
M  V30 6461 O 611.227 -1.31932 -4.17763 0
M  V30 6462 C 612.728 0.469486 -4.40807 0
M  V30 6463 H 609.948 -0.0835862 -0.665773 0
M  V30 6464 H 612.492 -0.876397 -1.84769 0
M  V30 6465 H 610.647 0.629075 -3.82258 0
M  V30 6466 H 611.061 -1.16965 -5.11292 0
M  V30 6467 H 612.535 0.496712 -5.49761 0
M  V30 6468 H 613.012 1.49819 -4.12857 0
M  V30 6469 H 613.618 -0.169624 -4.24962 0
M  V30 6470 N 611.933 1.52934 -0.380664 0
M  V30 6471 C 613.349 1.59571 -0.0302429 0
M  V30 6472 C 613.549 1.39509 1.45394 0
M  V30 6473 O 612.605 1.20777 2.21741 0
M  V30 6474 C 613.918 2.96519 -0.499691 0
M  V30 6475 C 615.466 3.09672 -0.455204 0
M  V30 6476 C 615.941 4.49056 -0.900703 0
M  V30 6477 N 617.432 4.55215 -0.856367 0
M  V30 6478 C 618.167 5.61282 -1.17259 0
M  V30 6479 N 617.663 6.75035 -1.55885 0
M  V30 6480 N 619.456 5.51343 -1.0944 0
M  V30 6481 H 611.607 1.64224 -1.347 0
M  V30 6482 H 613.87 0.771033 -0.551554 0
M  V30 6483 H 613.576 3.16388 -1.53595 0
M  V30 6484 H 613.45 3.77052 0.105789 0
M  V30 6485 H 615.837 2.89504 0.571949 0
M  V30 6486 H 615.918 2.31113 -1.09638 0
M  V30 6487 H 615.562 4.69964 -1.92604 0
M  V30 6488 H 615.492 5.26068 -0.236629 0
M  V30 6489 H 617.983 3.73546 -0.572013 0
M  V30 6490 H 618.296 7.51926 -1.784 0
M  V30 6491 H 616.641 6.76388 -1.59764 0
M  V30 6492 H 619.832 4.61356 -0.791713 0
M  V30 6493 H 620.005 6.33905 -1.34417 0
M  V30 6494 N 613.412 0.11024 1.57214 0
M  V30 6495 C 614.375 -0.828808 2.1369 0
M  V30 6496 C 615.375 -1.20059 1.06969 0
M  V30 6497 O 616.565 -1.12754 1.32786 0
M  V30 6498 C 613.697 -2.11959 2.66994 0
M  V30 6499 H 614.89 -0.338146 2.97988 0
M  V30 6500 H 612.443 -0.138913 1.55681 0
M  V30 6501 H 613.178 -2.65476 1.8626 0
M  V30 6502 H 612.963 -1.86258 3.45037 0
M  V30 6503 H 614.453 -2.79105 3.10629 0
M  V30 6504 N 614.89 -1.56749 -0.16351 0
M  V30 6505 C 616.115 -1.86938 -0.898264 0
M  V30 6506 C 616.54 -0.697456 -1.74692 0
M  V30 6507 O 615.898 0.353327 -1.77824 0
M  V30 6508 C 615.946 -3.15599 -1.74441 0
M  V30 6509 O 615.05 -2.98371 -2.8469 0
M  V30 6510 H 614.391 -0.614659 -0.251178 0
M  V30 6511 H 616.921 -2.03979 -0.159298 0
M  V30 6512 H 616.931 -3.47202 -2.14277 0
M  V30 6513 H 615.606 -4.00505 -1.1211 0
M  V30 6514 H 614.183 -2.7814 -2.4838 0
M  V30 6515 N 616.368 0.432326 -1.51554 0
M  V30 6516 C 617.645 1.19288 -1.55015 0
M  V30 6517 C 618.025 2.08701 -0.317375 0
M  V30 6518 O 617.373 2.17602 0.697243 0
M  V30 6519 C 617.583 1.99037 -2.86679 0
M  V30 6520 C 618.931 2.55907 -3.38817 0
M  V30 6521 O 619.955 2.09243 -2.88263 0
M  V30 6522 O 618.814 3.41029 -4.27038 0
M  V30 6523 H 615.908 0.543369 -0.623441 0
M  V30 6524 H 618.454 0.440988 -1.6387 0
M  V30 6525 H 617.226 1.33397 -3.6786 0
M  V30 6526 H 616.849 2.81281 -2.8101 0
M  V30 6527 N 617.846 1.41785 0.688094 0
M  V30 6528 C 619.257 1.3701 1.26828 0
M  V30 6529 C 619.608 0.056835 1.96118 0
M  V30 6530 O 618.733 -0.84475 1.99231 0
M  V30 6531 C 619.328 2.48168 2.30648 0
M  V30 6532 C 617.887 2.46766 2.84224 0
M  V30 6533 C 617.034 2.27633 1.58361 0
M  V30 6534 H 619.985 1.51192 0.482351 0
M  V30 6535 H 620.006 2.17655 3.121 0
M  V30 6536 H 619.518 3.43735 1.80188 0
M  V30 6537 H 617.619 1.54978 3.3884 0
M  V30 6538 H 617.732 3.43342 3.34145 0
M  V30 6539 H 616.096 1.75648 1.84445 0
M  V30 6540 H 616.879 3.25238 1.09887 0
M  V30 6541 N 619.324 -0.923095 1.27737 0
M  V30 6542 C 620.256 -2.02871 1.06658 0
M  V30 6543 C 621.269 -1.62786 0.0212095 0
M  V30 6544 O 622.458 -1.76548 0.263267 0
M  V30 6545 C 619.558 -3.33603 0.59682 0
M  V30 6546 C 618.731 -4.02354 1.71551 0
M  V30 6547 C 617.79 -5.11364 1.24071 0
M  V30 6548 O 616.816 -5.35075 1.94123 0
M  V30 6549 N 618.018 -5.80416 0.0988444 0
M  V30 6550 H 620.783 -2.21515 2.01869 0
M  V30 6551 H 618.344 -1.09378 1.19365 0
M  V30 6552 H 620.336 -4.03845 0.262984 0
M  V30 6553 H 618.906 -3.11499 -0.262187 0
M  V30 6554 H 618.126 -3.25786 2.2194 0
M  V30 6555 H 619.414 -4.45035 2.46619 0
M  V30 6556 H 618.812 -5.63611 -0.485743 0
M  V30 6557 H 617.369 -6.51563 -0.17578 0
M  V30 6558 N 620.802 -1.09834 -1.13024 0
M  V30 6559 C 622.027 -0.85909 -1.88771 0
M  V30 6560 C 622.452 0.584402 -1.78791 0
M  V30 6561 O 621.81 1.41101 -1.13842 0
M  V30 6562 C 621.858 -1.30427 -3.36186 0
M  V30 6563 O 620.962 -0.465368 -4.09766 0
M  V30 6564 H 620.303 -0.310786 -0.586778 0
M  V30 6565 H 622.833 -1.46355 -1.42973 0
M  V30 6566 H 622.843 -1.2915 -3.8702 0
M  V30 6567 H 621.518 -2.3555 -3.42767 0
M  V30 6568 H 620.095 -0.542814 -3.68928 0
M  V30 6569 N 622.28 1.30327 -0.886154 0
M  V30 6570 C 623.691 1.78243 -0.555554 0
M  V30 6571 C 624.042 1.72849 0.928314 0
M  V30 6572 O 623.167 1.30607 1.72542 0
M  V30 6573 C 623.762 3.23654 -1.00168 0
M  V30 6574 C 622.321 3.69401 -0.722471 0
M  V30 6575 C 621.468 2.50753 -1.18399 0
M  V30 6576 H 624.419 1.1718 -1.07026 0
M  V30 6577 H 624.44 3.79056 -0.331152 0
M  V30 6578 H 623.952 3.27548 -2.08169 0
M  V30 6579 H 622.053 3.70995 0.345496 0
M  V30 6580 H 622.166 4.60818 -1.31085 0
M  V30 6581 H 620.53 2.47452 -0.603303 0
M  V30 6582 H 621.313 2.57383 -2.27176 0
M  V30 6583 N 623.758 0.647228 1.43697 0
M  V30 6584 C 625.169 0.238689 1.85168 0
M  V30 6585 C 625.52 -1.21345 1.54175 0
M  V30 6586 O 624.645 -1.92542 0.987743 0
M  V30 6587 C 625.24 0.426422 3.36106 0
M  V30 6588 C 623.799 0.0722541 3.76331 0
M  V30 6589 C 622.946 0.732153 2.6746 0
M  V30 6590 H 625.897 0.851309 1.33934 0
M  V30 6591 H 625.918 -0.32987 3.79067 0
M  V30 6592 H 625.43 1.48339 3.58632 0
M  V30 6593 H 623.531 -0.982355 3.59417 0
M  V30 6594 H 623.644 0.493541 4.76551 0
M  V30 6595 H 622.008 0.16594 2.54159 0
M  V30 6596 H 622.791 1.79204 2.92816 0
M  V30 6597 N 625.236 -1.5273 0.388769 0
M  V30 6598 C 626.168 -2.24081 -0.481704 0
M  V30 6599 C 627.181 -1.26307 -1.02715 0
M  V30 6600 O 628.37 -1.52386 -0.929565 0
M  V30 6601 C 625.47 -2.94315 -1.68024 0
M  V30 6602 C 624.643 -4.18791 -1.26226 0
M  V30 6603 C 623.702 -4.72028 -2.32542 0
M  V30 6604 O 622.728 -5.35129 -1.93972 0
M  V30 6605 N 623.93 -4.51838 -3.64448 0
M  V30 6606 H 626.695 -2.9942 0.129591 0
M  V30 6607 H 624.256 -1.60465 0.2151 0
M  V30 6608 H 626.248 -3.26831 -2.38671 0
M  V30 6609 H 624.818 -2.22287 -2.19789 0
M  V30 6610 H 624.038 -3.92318 -0.384703 0
M  V30 6611 H 625.326 -4.99668 -0.959647 0
M  V30 6612 H 624.724 -4.01468 -3.98547 0
M  V30 6613 H 623.281 -4.88845 -4.31131 0
M  V30 6614 N 626.714 -0.118576 -1.57153 0
M  V30 6615 C 627.96 0.540326 -1.95469 0
M  V30 6616 C 628.293 1.66356 -1.00196 0
M  V30 6617 O 627.568 1.94461 -0.039104 0
M  V30 6618 C 627.851 1.07342 -3.43729 0
M  V30 6619 C 627.704 -0.0463732 -4.49776 0
M  V30 6620 C 629.023 1.96442 -3.93826 0
M  V30 6621 H 626.142 0.19494 -0.710751 0
M  V30 6622 H 628.784 -0.19405 -1.89006 0
M  V30 6623 H 626.934 1.69925 -3.49368 0
M  V30 6624 H 628.606 -0.681648 -4.56236 0
M  V30 6625 H 626.849 -0.709574 -4.27957 0
M  V30 6626 H 627.52 0.367856 -5.50773 0
M  V30 6627 H 629.996 1.43731 -3.90488 0
M  V30 6628 H 628.872 2.3066 -4.98084 0
M  V30 6629 H 629.133 2.89077 -3.34495 0
M  V30 6630 N 628.193 1.56834 0.155195 0
M  V30 6631 C 629.418 1.87412 0.888337 0
M  V30 6632 C 629.843 0.70671 1.74319 0
M  V30 6633 O 629.201 -0.343892 1.78009 0
M  V30 6634 C 629.249 3.1652 1.72765 0
M  V30 6635 O 628.353 2.99877 2.83103 0
M  V30 6636 H 627.694 0.615983 0.247914 0
M  V30 6637 H 630.224 2.04061 0.148478 0
M  V30 6638 H 630.234 3.48334 2.12433 0
M  V30 6639 H 628.909 4.01094 1.09985 0
M  V30 6640 H 627.486 2.79453 2.46902 0
M  V30 6641 N 629.671 -0.424282 1.51781 0
M  V30 6642 C 631.087 -0.761768 1.40247 0
M  V30 6643 C 631.287 -1.95324 0.495041 0
M  V30 6644 O 630.343 -2.5246 -0.0448949 0
M  V30 6645 C 631.656 -1.0299 2.82513 0
M  V30 6646 C 633.204 -1.13354 2.91753 0
M  V30 6647 C 633.679 -1.43453 4.34954 0
M  V30 6648 N 635.17 -1.5035 4.3812 0
M  V30 6649 C 635.905 -1.75236 5.45967 0
M  V30 6650 N 635.401 -1.97827 6.63955 0
M  V30 6651 N 637.194 -1.77126 5.33463 0
M  V30 6652 H 629.345 0.360228 2.09323 0
M  V30 6653 H 631.608 0.0988128 0.942836 0
M  V30 6654 H 631.314 -0.226961 3.50967 0
M  V30 6655 H 631.188 -1.95411 3.22637 0
M  V30 6656 H 633.575 -1.92709 2.23489 0
M  V30 6657 H 633.656 -0.188041 2.55108 0
M  V30 6658 H 633.3 -0.646209 5.03772 0
M  V30 6659 H 633.23 -2.3923 4.69123 0
M  V30 6660 H 635.721 -1.34742 3.53062 0
M  V30 6661 H 636.034 -2.16223 7.41935 0
M  V30 6662 H 634.379 -1.95123 6.67047 0
M  V30 6663 H 637.57 -1.59005 4.40267 0
M  V30 6664 H 637.743 -1.96182 6.17589 0
M  V30 6665 N 631.149 -1.42148 -0.680565 0
M  V30 6666 C 632.099 -1.41634 -1.78672 0
M  V30 6667 C 633.083 -0.288494 -1.58293 0
M  V30 6668 O 634.275 -0.530295 -1.68869 0
M  V30 6669 C 631.404 -1.31558 -3.17092 0
M  V30 6670 C 630.49 -2.49265 -3.43115 0
M  V30 6671 N 630.881 -3.74702 -3.39753 0
M  V30 6672 C 629.179 -2.43401 -3.73727 0
M  V30 6673 C 629.88 -4.52854 -3.651 0
M  V30 6674 N 628.856 -3.83181 -3.85582 0
M  V30 6675 H 632.658 -2.3652 -1.74458 0
M  V30 6676 H 630.172 -1.36415 -0.881171 0
M  V30 6677 H 632.169 -1.29272 -3.96351 0
M  V30 6678 H 630.829 -0.376696 -3.22508 0
M  V30 6679 H 631.84 -4.07378 -3.19787 0
M  V30 6680 H 628.517 -1.58062 -3.86423 0
M  V30 6681 H 629.907 -5.61827 -3.6851 0
M  V30 6682 N 632.627 0.916307 -1.28225 0
M  V30 6683 C 633.574 2.01841 -1.11932 0
M  V30 6684 C 634.544 1.66091 -0.0171604 0
M  V30 6685 O 635.729 1.89934 -0.181617 0
M  V30 6686 C 632.869 3.36065 -0.784504 0
M  V30 6687 C 631.982 3.847 -1.96544 0
M  V30 6688 C 631.117 5.07423 -1.57149 0
M  V30 6689 C 630.156 5.48384 -2.71922 0
M  V30 6690 N 629.293 6.62298 -2.33037 0
M  V30 6691 H 634.133 2.1511 -2.06232 0
M  V30 6692 H 631.67 1.05366 -1.02647 0
M  V30 6693 H 633.628 4.13272 -0.571148 0
M  V30 6694 H 632.258 3.22571 0.121565 0
M  V30 6695 H 631.31 3.03673 -2.291 0
M  V30 6696 H 632.622 4.1102 -2.82603 0
M  V30 6697 H 631.776 5.92165 -1.32004 0
M  V30 6698 H 630.515 4.82906 -0.682153 0
M  V30 6699 H 629.52 4.62184 -2.97768 0
M  V30 6700 H 630.745 5.7489 -3.61494 0
M  V30 6701 H 628.691 6.39416 -1.4657 0
M  V30 6702 H 628.608 6.8833 -3.12631 0
M  V30 6703 H 629.876 7.50352 -2.11169 0
M  V30 6704 N 634.105 1.10431 1.1244 0
M  V30 6705 C 635.33 0.869089 1.88313 0
M  V30 6706 C 635.755 -0.574912 1.79099 0
M  V30 6707 O 635.113 -1.40496 1.14589 0
M  V30 6708 C 635.161 1.32208 3.3549 0
M  V30 6709 O 634.265 0.487092 4.09513 0
M  V30 6710 H 633.606 0.313894 0.585121 0
M  V30 6711 H 636.136 1.47111 1.42195 0
M  V30 6712 H 636.146 1.31201 3.86329 0
M  V30 6713 H 634.821 2.37364 3.41513 0
M  V30 6714 H 633.398 0.562372 3.68635 0
M  V30 6715 N 635.583 -1.29855 0.893053 0
M  V30 6716 C 636.533 -2.25493 0.337211 0
M  V30 6717 C 637.517 -1.51606 -0.53894 0
M  V30 6718 O 638.709 -1.72828 -0.382043 0
M  V30 6719 C 635.838 -3.40467 -0.440117 0
M  V30 6720 C 634.924 -4.217 0.450578 0
M  V30 6721 N 635.315 -4.81312 1.55476 0
M  V30 6722 C 633.613 -4.45315 0.247154 0
M  V30 6723 C 634.314 -5.42241 2.10593 0
M  V30 6724 N 633.29 -5.25267 1.39982 0
M  V30 6725 H 637.092 -2.69137 1.18079 0
M  V30 6726 H 634.606 -1.44388 0.743359 0
M  V30 6727 H 636.603 -4.08038 -0.855021 0
M  V30 6728 H 635.263 -2.98361 -1.28104 0
M  V30 6729 H 636.274 -4.80291 1.93755 0
M  V30 6730 H 632.951 -4.13782 -0.555939 0
M  V30 6731 H 634.341 -5.99517 3.03362 0
M  V30 6732 N 637.061 -0.65484 -1.43351 0
M  V30 6733 C 638.291 -0.176429 -2.05845 0
M  V30 6734 C 638.699 1.16375 -1.49176 0
M  V30 6735 O 638.042 1.72981 -0.618322 0
M  V30 6736 C 638.104 -0.0125844 -3.59498 0
M  V30 6737 C 637.768 -1.27831 -4.38758 0
M  V30 6738 C 638.765 -2.2074 -4.70712 0
M  V30 6739 C 636.45 -1.52035 -4.78739 0
M  V30 6740 C 638.444 -3.36145 -5.41558 0
M  V30 6741 C 636.131 -2.67732 -5.49329 0
M  V30 6742 C 637.129 -3.59612 -5.80662 0
M  V30 6743 O 636.817 -4.73289 -6.4981 0
M  V30 6744 H 636.549 -0.0879682 -0.670252 0
M  V30 6745 H 639.103 -0.896193 -1.84818 0
M  V30 6746 H 637.333 0.762567 -3.79107 0
M  V30 6747 H 639.022 0.423392 -4.03686 0
M  V30 6748 H 639.788 -2.03284 -4.40341 0
M  V30 6749 H 635.667 -0.813987 -4.53757 0
M  V30 6750 H 639.211 -4.07881 -5.65932 0
M  V30 6751 H 635.108 -2.85122 -5.79116 0
M  V30 6752 H 635.876 -4.72575 -6.68293 0
M  V30 6753 N 638.539 1.52521 -0.396863 0
M  V30 6754 C 639.955 1.5953 -0.0471659 0
M  V30 6755 C 640.155 1.41044 1.43906 0
M  V30 6756 O 639.211 1.23122 2.20448 0
M  V30 6757 C 640.524 2.95972 -0.531113 0
M  V30 6758 C 642.072 3.09172 -0.488024 0
M  V30 6759 C 642.547 4.48075 -0.948281 0
M  V30 6760 N 644.038 4.54281 -0.9046 0
M  V30 6761 C 644.773 5.60007 -1.23205 0
M  V30 6762 N 644.269 6.73343 -1.63036 0
M  V30 6763 N 646.062 5.50151 -1.15282 0
M  V30 6764 H 638.213 1.62786 -1.36435 0
M  V30 6765 H 640.476 0.76514 -0.559701 0
M  V30 6766 H 640.182 3.14741 -1.56942 0
M  V30 6767 H 640.056 3.77143 0.0657922 0
M  V30 6768 H 642.443 2.90095 0.541211 0
M  V30 6769 H 642.524 2.29937 -1.12083 0
M  V30 6770 H 642.168 4.67894 -1.97578 0
M  V30 6771 H 642.098 5.25788 -0.292412 0
M  V30 6772 H 644.589 3.72918 -0.6116 0
M  V30 6773 H 644.902 7.49992 -1.86365 0
M  V30 6774 H 643.247 6.74655 -1.66929 0
M  V30 6775 H 646.438 4.6049 -0.840602 0
M  V30 6776 H 646.611 6.32444 -1.41133 0
M  V30 6777 N 640.017 0.126909 1.57088 0
M  V30 6778 C 640.965 -0.837618 2.16995 0
M  V30 6779 C 641.959 -1.26974 1.12133 0
M  V30 6780 O 643.165 -1.24056 1.30423 0
M  V30 6781 H 639.54 -0.288256 0.694559 0
M  V30 6782 H 641.511 -0.307957 2.96807 0
M  V30 6783 C 640.26 -2.07474 2.79016 0
M  V30 6784 H 639.583 -1.75117 3.59408 0
M  V30 6785 H 641.023 -2.72949 3.24461 0
M  V30 6786 C 639.482 -2.86967 1.76498 0
M  V30 6787 O 640.012 -3.82625 1.22316 0
M  V30 6788 N 638.218 -2.51111 1.46258 0
M  V30 6789 H 637.765 -1.73389 1.90509 0
M  V30 6790 H 637.723 -3.04594 0.779085 0
M  V30 6791 N 641.495 -1.56914 -0.146875 0
M  V30 6792 C 642.911 -1.51582 -0.499518 0
M  V30 6793 C 643.111 -0.83535 -1.83369 0
M  V30 6794 O 642.167 -0.405932 -2.49216 0
M  V30 6795 C 643.48 -2.96349 -0.509711 0
M  V30 6796 C 645.028 -3.07288 -0.595217 0
M  V30 6797 C 645.503 -4.53562 -0.636071 0
M  V30 6798 N 646.994 -4.57906 -0.69829 0
M  V30 6799 C 647.729 -5.68462 -0.750886 0
M  V30 6800 N 647.225 -6.88588 -0.76282 0
M  V30 6801 N 649.018 -5.56496 -0.791777 0
M  V30 6802 H 641.169 -1.99547 0.727656 0
M  V30 6803 H 643.432 -0.910113 0.265327 0
M  V30 6804 H 643.138 -3.4939 0.402409 0
M  V30 6805 H 643.012 -3.52307 -1.34758 0
M  V30 6806 H 645.399 -2.54266 -1.49776 0
M  V30 6807 H 645.48 -2.54373 0.2698 0
M  V30 6808 H 645.124 -5.07222 0.262313 0
M  V30 6809 H 645.054 -5.04259 -1.51758 0
M  V30 6810 H 647.545 -3.71429 -0.696362 0
M  V30 6811 H 647.858 -7.68598 -0.804804 0
M  V30 6812 H 646.203 -6.91148 -0.730694 0
M  V30 6813 H 649.394 -4.61562 -0.779624 0
M  V30 6814 H 649.567 -6.42671 -0.829301 0
M  V30 6815 N 642.974 0.416227 -1.52004 0
M  V30 6816 C 643.884 1.53147 -1.77717 0
M  V30 6817 C 644.9 1.609 -0.662368 0
M  V30 6818 O 646.076 1.77747 -0.946991 0
M  V30 6819 C 643.141 2.88948 -1.91598 0
M  V30 6820 C 642.202 2.9114 -3.15493 0
M  V30 6821 C 641.435 4.20464 -3.28703 0
M  V30 6822 O 641.658 5.13981 -2.47345 0
M  V30 6823 O 640.592 4.29368 -4.21813 0
M  V30 6824 H 644.418 1.34357 -2.72363 0
M  V30 6825 H 642.003 0.601373 -1.36762 0
M  V30 6826 H 643.885 3.69505 -2.02593 0
M  V30 6827 H 642.56 3.07821 -1.00141 0
M  V30 6828 H 641.467 2.09461 -3.09962 0
M  V30 6829 H 642.8 2.77216 -4.06709 0
M  V30 6830 N 644.452 1.42507 0.673017 0
M  V30 6831 C 645.402 1.4258 1.77919 0
M  V30 6832 C 646.386 0.296885 1.58137 0
M  V30 6833 O 647.578 0.539243 1.68586 0
M  V30 6834 C 644.707 1.33238 3.1639 0
M  V30 6835 C 643.793 2.51081 3.41788 0
M  V30 6836 N 644.184 3.76498 3.37761 0
M  V30 6837 C 642.482 2.4538 3.72431 0
M  V30 6838 C 643.183 4.54784 3.62693 0
M  V30 6839 N 642.159 3.8522 3.83544 0
M  V30 6840 H 645.961 2.37442 1.73201 0
M  V30 6841 H 643.475 1.36881 0.873924 0
M  V30 6842 H 645.472 1.31372 3.9566 0
M  V30 6843 H 644.132 0.393794 3.22303 0
M  V30 6844 H 645.143 4.09068 3.17622 0
M  V30 6845 H 641.82 1.60109 3.85579 0
M  V30 6846 H 643.21 5.63774 3.65525 0
M  V30 6847 N 645.93 -0.909495 1.28709 0
M  V30 6848 C 647.177 -1.65905 1.16111 0
M  V30 6849 C 647.505 -1.92334 -0.289436 0
M  V30 6850 O 646.76 -1.52495 -1.22653 0
M  V30 6851 C 647.059 -3.02117 1.90945 0
M  V30 6852 C 646.725 -2.95332 3.40719 0
M  V30 6853 C 645.387 -2.93189 3.81567 0
M  V30 6854 C 647.739 -2.85264 4.36204 0
M  V30 6855 C 645.067 -2.78784 5.16233 0
M  V30 6856 C 647.419 -2.724 5.70948 0
M  V30 6857 C 646.083 -2.68617 6.11066 0
M  V30 6858 H 645.353 -0.60709 0.42488 0
M  V30 6859 H 648 -1.05932 1.59533 0
M  V30 6860 H 646.305 -3.65901 1.40085 0
M  V30 6861 H 648.002 -3.59026 1.7861 0
M  V30 6862 H 644.592 -2.97797 3.08245 0
M  V30 6863 H 648.776 -2.86005 4.05605 0
M  V30 6864 H 644.032 -2.74254 5.46438 0
M  V30 6865 H 648.206 -2.63579 6.44592 0
M  V30 6866 H 645.833 -2.57213 7.15364 0
M  V30 6867 N 647.408 -1.11026 -1.11852 0
M  V30 6868 C 648.371 -0.768006 -2.1595 0
M  V30 6869 C 649.371 0.210538 -1.59416 0
M  V30 6870 O 650.561 -0.0133978 -1.74195 0
M  V30 6871 C 647.693 -0.138678 -3.40618 0
M  V30 6872 H 648.886 -1.69012 -2.4774 0
M  V30 6873 H 646.439 -0.911578 -1.26964 0
M  V30 6874 H 647.174 0.793872 -3.14433 0
M  V30 6875 H 646.959 -0.843012 -3.8293 0
M  V30 6876 H 648.449 0.0848039 -4.17514 0
M  V30 6877 N 648.886 1.2938 -0.899927 0
M  V30 6878 C 650.114 1.99691 -0.541386 0
M  V30 6879 C 650.529 1.67355 0.873936 0
M  V30 6880 O 649.886 0.918728 1.57688 0
M  V30 6881 C 649.937 3.54168 -0.72438 0
M  V30 6882 O 649.658 3.85359 -2.08399 0
M  V30 6883 C 651.159 4.41746 -0.370819 0
M  V30 6884 H 648.379 0.638037 -0.207726 0
M  V30 6885 H 650.923 1.6491 -1.20934 0
M  V30 6886 H 649.078 3.87261 -0.103607 0
M  V30 6887 H 649.492 4.80032 -2.11352 0
M  V30 6888 H 650.966 5.49256 -0.549693 0
M  V30 6889 H 651.443 4.33712 0.692148 0
M  V30 6890 H 652.049 4.14125 -0.968543 0
M  V30 6891 N 650.364 0.662433 1.43002 0
M  V30 6892 C 651.613 0.176873 2.00923 0
M  V30 6893 C 651.926 -1.21954 1.52927 0
M  V30 6894 O 653.132 -1.80081 2.03182 0
M  V30 6895 C 651.588 0.265379 3.5892 0
M  V30 6896 C 651.196 1.66507 4.15908 0
M  V30 6897 C 652.94 -0.162103 4.2419 0
M  V30 6898 C 650.847 1.707 5.66229 0
M  V30 6899 H 649.777 0.0623627 0.751417 0
M  V30 6900 H 652.428 0.825813 1.63868 0
M  V30 6901 H 650.81 -0.451235 3.93421 0
M  V30 6902 H 651.984 2.40777 3.92891 0
M  V30 6903 H 650.299 2.03932 3.63044 0
M  V30 6904 H 652.896 -0.150745 5.34487 0
M  V30 6905 H 653.239 -1.19519 3.98774 0
M  V30 6906 H 653.772 0.503075 3.94606 0
M  V30 6907 H 650.511 2.7195 5.96426 0
M  V30 6908 H 650.031 1.00768 5.91275 0
M  V30 6909 H 651.71 1.45487 6.3043 0
M  V30 6910 N 651.842 -1.52309 0.404946 0
M  V30 6911 C 653.258 -1.59503 0.0556255 0
M  V30 6912 C 653.458 -1.41805 -1.43156 0
M  V30 6913 O 652.514 -1.2429 -2.19792 0
M  V30 6914 C 653.827 -2.95687 0.546801 0
M  V30 6915 C 655.375 -3.08909 0.504413 0
M  V30 6916 C 655.85 -4.47566 0.97203 0
M  V30 6917 N 657.341 -4.53795 0.928679 0
M  V30 6918 C 658.076 -5.59346 1.26174 0
M  V30 6919 N 657.572 -6.72469 1.66604 0
M  V30 6920 N 659.365 -5.49532 1.18198 0
M  V30 6921 H 651.516 -1.6206 1.37296 0
M  V30 6922 H 653.779 -0.762161 0.563751 0
M  V30 6923 H 653.485 -3.13905 1.58609 0
M  V30 6924 H 653.359 -3.77172 -0.0457905 0
M  V30 6925 H 655.746 -2.90378 -0.525819 0
M  V30 6926 H 655.827 -2.2934 1.13301 0
M  V30 6927 H 655.471 -4.6684 2.00057 0
M  V30 6928 H 655.401 -5.25625 0.320292 0
M  V30 6929 H 657.892 -3.72588 0.631369 0
M  V30 6930 H 658.205 -7.48993 1.9034 0
M  V30 6931 H 656.55 -6.73761 1.70504 0
M  V30 6932 H 659.741 -4.60038 0.865011 0
M  V30 6933 H 659.914 -6.31687 1.44485 0
M  V30 6934 N 653.32 -0.135238 -1.57019 0
M  V30 6935 C 654.548 0.526066 -2.001 0
M  V30 6936 C 654.963 1.59184 -1.01519 0
M  V30 6937 O 654.32 1.82497 -0.0104258 0
M  V30 6938 C 654.371 1.13744 -3.43139 0
M  V30 6939 O 654.092 0.114259 -4.37951 0
M  V30 6940 C 655.593 1.8805 -4.01438 0
M  V30 6941 H 652.813 0.137962 -0.656664 0
M  V30 6942 H 655.357 -0.226359 -2.03243 0
M  V30 6943 H 653.512 1.84056 -3.40885 0
M  V30 6944 H 653.926 0.56058 -5.21496 0
M  V30 6945 H 655.4 2.26133 -5.03555 0
M  V30 6946 H 655.877 2.76194 -3.41487 0
M  V30 6947 H 656.483 1.22464 -4.07287 0
M  V30 6948 N 654.798 1.5699 0.138552 0
M  V30 6949 C 655.761 1.97984 1.15478 0
M  V30 6950 C 656.761 0.867416 1.35398 0
M  V30 6951 O 657.951 1.13387 1.32246 0
M  V30 6952 C 655.083 2.3031 2.51337 0
M  V30 6953 H 656.276 2.88953 0.802896 0
M  V30 6954 H 653.829 1.51555 0.382189 0
M  V30 6955 H 654.564 1.42159 2.91481 0
M  V30 6956 H 654.349 3.11425 2.38237 0
M  V30 6957 H 655.839 2.62834 3.24512 0
M  V30 6958 N 656.276 -0.40816 1.52223 0
M  V30 6959 C 657.501 -1.18127 1.70472 0
M  V30 6960 C 657.926 -1.83491 0.41384 0
M  V30 6961 O 657.284 -1.70047 -0.628778 0
M  V30 6962 C 657.332 -2.21935 2.84213 0
M  V30 6963 O 656.436 -3.28099 2.4985 0
M  V30 6964 H 655.777 -0.344781 0.56747 0
M  V30 6965 H 658.307 -0.478328 1.9893 0
M  V30 6966 H 658.317 -2.66248 3.09153 0
M  V30 6967 H 656.992 -1.73744 3.7787 0
M  V30 6968 H 655.569 -2.89058 2.35584 0
M  V30 6969 N 657.755 -1.42862 -0.66545 0
M  V30 6970 C 658.685 -1.49867 -1.79059 0
M  V30 6971 C 659.666 -0.354394 -1.66367 0
M  V30 6972 O 660.851 -0.569969 -1.85647 0
M  V30 6973 C 657.981 -1.40943 -3.17415 0
M  V30 6974 C 656.935 -2.53495 -3.44854 0
M  V30 6975 C 656.261 -2.29626 -4.82883 0
M  V30 6976 C 657.561 -3.95781 -3.40815 0
M  V30 6977 H 659.255 -2.44037 -1.73453 0
M  V30 6978 H 656.801 -1.17456 -0.833071 0
M  V30 6979 H 658.754 -1.4445 -3.95869 0
M  V30 6980 H 657.478 -0.432716 -3.23721 0
M  V30 6981 H 656.137 -2.4932 -2.68766 0
M  V30 6982 H 655.785 -1.30226 -4.8585 0
M  V30 6983 H 655.485 -3.05065 -5.02204 0
M  V30 6984 H 657.009 -2.34897 -5.63609 0
M  V30 6985 H 658.423 -4.01508 -4.09224 0
M  V30 6986 H 656.82 -4.71148 -3.71672 0
M  V30 6987 H 657.89 -4.21786 -2.39216 0
M  V30 6988 N 659.233 0.902656 -1.29189 0
M  V30 6989 C 660.479 1.65532 -1.17163 0
M  V30 6990 C 660.812 1.92216 0.276879 0
M  V30 6991 O 660.087 1.53048 1.20027 0
M  V30 6992 C 660.37 3.00629 -1.98228 0
M  V30 6993 C 660.223 2.81029 -3.51202 0
M  V30 6994 C 661.542 4.01321 -1.80635 0
M  V30 6995 H 658.661 0.60071 -0.426985 0
M  V30 6996 H 661.303 1.04578 -1.5863 0
M  V30 6997 H 659.453 3.52656 -1.62991 0
M  V30 6998 H 661.125 2.35927 -3.96404 0
M  V30 6999 H 659.368 2.1587 -3.76275 0
M  V30 7000 H 660.039 3.77014 -4.03192 0
M  V30 7001 H 662.515 3.58394 -2.11406 0
M  V30 7002 H 661.391 4.93792 -2.3971 0
M  V30 7003 H 661.652 4.35505 -0.760754 0
M  V30 7004 N 660.711 1.11618 1.11262 0
M  V30 7005 C 661.939 0.888739 1.8684 0
M  V30 7006 C 662.354 -0.561558 1.80255 0
M  V30 7007 O 661.711 -1.38782 1.18515 0
M  V30 7008 C 661.762 1.34422 3.35579 0
M  V30 7009 O 661.483 2.73766 3.42029 0
M  V30 7010 C 662.984 1.15246 4.28058 0
M  V30 7011 H 660.204 0.318152 0.590779 0
M  V30 7012 H 662.748 1.48398 1.40707 0
M  V30 7013 H 660.903 0.79239 3.7921 0
M  V30 7014 H 661.317 2.9355 4.34659 0
M  V30 7015 H 662.791 1.52015 5.30656 0
M  V30 7016 H 663.268 0.0922007 4.39103 0
M  V30 7017 H 663.874 1.69136 3.90222 0
M  V30 7018 N 662.189 -1.289 0.906776 0
M  V30 7019 C 663.605 -1.47733 0.603902 0
M  V30 7020 C 663.805 -1.82568 -0.852702 0
M  V30 7021 O 662.861 -1.92642 -1.63234 0
M  V30 7022 C 664.174 -2.58522 1.53581 0
M  V30 7023 C 665.722 -2.72394 1.54177 0
M  V30 7024 C 666.197 -3.86318 2.46013 0
M  V30 7025 N 667.688 -3.93661 2.441 0
M  V30 7026 C 668.423 -4.81177 3.11859 0
M  V30 7027 N 667.919 -5.73333 3.88923 0
M  V30 7028 N 669.712 -4.74728 3.00981 0
M  V30 7029 H 661.863 -1.04567 1.84877 0
M  V30 7030 H 664.126 -0.520118 0.792579 0
M  V30 7031 H 663.832 -2.39667 2.57396 0
M  V30 7032 H 663.706 -3.55475 1.26165 0
M  V30 7033 H 666.093 -2.90641 0.511034 0
M  V30 7034 H 666.174 -1.75993 1.85634 0
M  V30 7035 H 665.818 -3.68826 3.49185 0
M  V30 7036 H 665.748 -4.82102 2.11862 0
M  V30 7037 H 668.239 -3.27751 1.88115 0
M  V30 7038 H 668.552 -6.36923 4.37663 0
M  V30 7039 H 666.897 -5.73196 3.93029 0
M  V30 7040 H 670.088 -4.01722 2.40286 0
M  V30 7041 H 670.261 -5.42719 3.54062 0
M  V30 7042 N 663.667 -0.670007 -1.42649 0
M  V30 7043 C 664.599 0.0501746 -2.29145 0
M  V30 7044 C 665.612 0.770331 -1.43422 0
M  V30 7045 O 666.801 0.625288 -1.6719 0
M  V30 7046 C 663.901 1.09463 -3.20735 0
M  V30 7047 C 663.074 0.44926 -4.35087 0
M  V30 7048 C 662.133 1.39285 -5.07431 0
M  V30 7049 O 661.159 0.894997 -5.6212 0
M  V30 7050 N 662.361 2.72631 -5.12496 0
M  V30 7051 H 665.126 -0.692312 -2.91594 0
M  V30 7052 H 662.687 -0.514056 -1.53522 0
M  V30 7053 H 664.679 1.72705 -3.65999 0
M  V30 7054 H 663.249 1.73891 -2.59771 0
M  V30 7055 H 662.469 -0.362573 -3.92529 0
M  V30 7056 H 663.757 -0.000544776 -5.088 0
M  V30 7057 H 663.155 3.15623 -4.69467 0
M  V30 7058 H 661.712 3.31132 -5.61422 0
M  V30 7059 N 665.145 1.52092 -0.413018 0
M  V30 7060 C 666.078 2.23613 0.455234 0
M  V30 7061 C 667.056 1.2459 1.04481 0
M  V30 7062 O 668.24 1.53653 1.09193 0
M  V30 7063 C 665.367 2.96775 1.63224 0
M  V30 7064 C 664.413 4.10261 1.16568 0
M  V30 7065 S 665.246 5.35348 0.127633 0
M  V30 7066 C 666.402 6.1204 1.30987 0
M  V30 7067 H 666.635 2.96911 -0.152042 0
M  V30 7068 H 664.168 1.53134 -0.197343 0
M  V30 7069 H 666.126 3.39532 2.30713 0
M  V30 7070 H 664.787 2.23113 2.21087 0
M  V30 7071 H 663.98 4.6064 2.04515 0
M  V30 7072 H 663.582 3.6964 0.569386 0
M  V30 7073 H 665.874 6.39651 2.23276 0
M  V30 7074 H 666.817 7.03022 0.846533 0
M  V30 7075 H 667.225 5.43161 1.53743 0
M  V30 7076 N 666.623 0.143563 1.56945 0
M  V30 7077 C 667.555 -0.828353 2.13708 0
M  V30 7078 C 668.568 -1.21313 1.08568 0
M  V30 7079 O 669.757 -1.1578 1.35857 0
M  V30 7080 C 666.857 -2.12248 2.64204 0
M  V30 7081 C 666.03 -1.90561 3.93707 0
M  V30 7082 C 665.089 -3.03931 4.29549 0
M  V30 7083 O 664.115 -2.75772 4.97934 0
M  V30 7084 N 665.317 -4.31016 3.88852 0
M  V30 7085 H 668.082 -0.343242 2.97728 0
M  V30 7086 H 665.643 -0.0401152 1.6185 0
M  V30 7087 H 667.635 -2.87132 2.85197 0
M  V30 7088 H 666.205 -2.52033 1.84928 0
M  V30 7089 H 665.425 -0.997327 3.81375 0
M  V30 7090 H 666.713 -1.73405 4.78339 0
M  V30 7091 H 666.111 -4.56762 3.33743 0
M  V30 7092 H 664.668 -5.02691 4.14903 0
M  V30 7093 N 668.101 -1.57061 -0.130224 0
M  V30 7094 C 669.011 -2.02802 -1.17934 0
M  V30 7095 C 670.027 -0.946378 -1.46013 0
M  V30 7096 O 671.203 -1.25708 -1.57351 0
M  V30 7097 C 668.268 -2.41368 -2.48882 0
M  V30 7098 C 667.329 -3.63561 -2.28301 0
M  V30 7099 C 666.562 -4.00279 -3.53005 0
M  V30 7100 O 666.785 -3.37463 -4.59864 0
M  V30 7101 O 665.719 -4.93441 -3.44673 0
M  V30 7102 H 669.545 -2.92394 -0.820958 0
M  V30 7103 H 667.13 -1.45475 -0.340197 0
M  V30 7104 H 669.012 -2.66958 -3.26054 0
M  V30 7105 H 667.687 -1.54926 -2.84217 0
M  V30 7106 H 666.594 -3.43136 -1.49025 0
M  V30 7107 H 667.927 -4.50673 -1.97875 0
M  V30 7108 N 669.579 0.400081 -1.52437 0
M  V30 7109 C 670.529 1.48734 -1.72807 0
M  V30 7110 C 671.513 1.50004 -0.582032 0
M  V30 7111 O 672.705 1.55828 -0.839449 0
M  V30 7112 C 669.834 2.86568 -1.89034 0
M  V30 7113 C 668.92 2.8991 -3.09537 0
M  V30 7114 N 669.311 2.62937 -4.32086 0
M  V30 7115 C 667.609 3.21078 -3.09556 0
M  V30 7116 C 668.31 2.73079 -5.13617 0
M  V30 7117 N 667.286 3.06342 -4.49061 0
M  V30 7118 H 671.088 1.26689 -2.65193 0
M  V30 7119 H 668.602 0.607902 -1.50593 0
M  V30 7120 H 670.599 3.64834 -2.01746 0
M  V30 7121 H 669.259 3.09604 -0.978547 0
M  V30 7122 H 670.27 2.37163 -4.60406 0
M  V30 7123 H 666.947 3.49651 -2.28146 0
M  V30 7124 H 668.337 2.55863 -6.21276 0
M  V30 7125 N 671.057 1.43213 0.657864 0
M  V30 7126 C 671.967 1.50448 1.80007 0
M  V30 7127 C 672.983 0.39191 1.69529 0
M  V30 7128 O 674.159 0.645349 1.90781 0
M  V30 7129 C 671.224 1.42062 3.16258 0
M  V30 7130 C 670.285 2.63951 3.38568 0
M  V30 7131 C 669.518 2.55956 4.68318 0
M  V30 7132 O 669.741 1.60473 5.47361 0
M  V30 7133 O 668.675 3.46378 4.92245 0
M  V30 7134 H 672.501 2.4689 1.76858 0
M  V30 7135 H 670.086 1.25163 0.81576 0
M  V30 7136 H 671.968 1.3981 3.97531 0
M  V30 7137 H 670.643 0.487524 3.20008 0
M  V30 7138 H 669.55 2.71776 2.57077 0
M  V30 7139 H 670.883 3.56217 3.39662 0
M  V30 7140 N 672.536 -0.895792 1.29666 0
M  V30 7141 C 673.468 -2.00563 1.10937 0
M  V30 7142 C 674.481 -1.62705 0.055734 0
M  V30 7143 O 675.67 -1.7595 0.300656 0
M  V30 7144 C 672.77 -3.32262 0.667448 0
M  V30 7145 C 671.943 -3.98625 1.80047 0
M  V30 7146 C 671.002 -5.08617 1.3489 0
M  V30 7147 O 670.028 -5.30837 2.05429 0
M  V30 7148 N 671.23 -5.80076 0.221937 0
M  V30 7149 H 673.995 -2.17184 2.06522 0
M  V30 7150 H 671.556 -1.06822 1.21658 0
M  V30 7151 H 673.548 -4.03196 0.348586 0
M  V30 7152 H 672.118 -3.11985 -0.196055 0
M  V30 7153 H 671.338 -3.21005 2.28801 0
M  V30 7154 H 672.626 -4.39704 2.56003 0
M  V30 7155 H 672.024 -5.64514 -0.366084 0
M  V30 7156 H 670.581 -6.51789 -0.0375346 0
M  V30 7157 N 674.014 -1.12206 -1.10668 0
M  V30 7158 C 675.291 -0.787382 -1.79052 0
M  V30 7159 C 675.671 0.723267 -1.98323 0
M  V30 7160 O 675.019 1.6561 -1.57434 0
M  V30 7161 C 675.229 -1.55968 -3.1221 0
M  V30 7162 C 676.577 -1.74413 -3.87125 0
M  V30 7163 O 677.601 -1.5246 -3.21923 0
M  V30 7164 O 676.46 -2.10952 -5.04144 0
M  V30 7165 H 673.554 -0.286137 -0.775922 0
M  V30 7166 H 676.1 -1.22595 -1.1734 0
M  V30 7167 H 674.872 -2.58692 -2.93588 0
M  V30 7168 H 674.495 -1.1152 -3.8164 0
M  V30 7169 N 675.492 1.28418 -0.913599 0
M  V30 7170 C 676.717 1.99643 -0.561899 0
M  V30 7171 C 677.142 1.67819 0.849608 0
M  V30 7172 O 676.5 0.910503 1.56779 0
M  V30 7173 C 676.548 3.52116 -0.777622 0
M  V30 7174 O 675.652 4.12076 0.163457 0
M  V30 7175 H 674.993 0.627229 -0.217898 0
M  V30 7176 H 677.523 1.63575 -1.229 0
M  V30 7177 H 677.533 4.02163 -0.687666 0
M  V30 7178 H 676.208 3.74613 -1.8066 0
M  V30 7179 H 674.785 3.72892 0.0247827 0
M  V30 7180 N 676.97 0.677563 1.42291 0
M  V30 7181 C 677.88 0.000962654 2.346 0
M  V30 7182 C 678.896 -0.785833 1.55244 0
M  V30 7183 O 680.072 -0.727523 1.87801 0
M  V30 7184 C 677.137 -0.936746 3.33805 0
M  V30 7185 C 676.198 -0.144173 4.29058 0
M  V30 7186 C 675.431 -1.03722 5.23524 0
M  V30 7187 O 675.654 -2.27675 5.22992 0
M  V30 7188 O 674.588 -0.496542 5.99848 0
M  V30 7189 H 678.414 0.761397 2.94001 0
M  V30 7190 H 675.999 0.43781 1.42841 0
M  V30 7191 H 677.881 -1.47497 3.94744 0
M  V30 7192 H 676.556 -1.67698 2.76874 0
M  V30 7193 H 675.463 0.438224 3.71524 0
M  V30 7194 H 676.796 0.55701 4.89038 0
M  V30 7195 N 678.448 -1.51871 0.421078 0
M  V30 7196 C 679.378 -2.30231 -0.389363 0
M  V30 7197 C 680.359 -1.34946 -1.03555 0
M  V30 7198 O 681.544 -1.63859 -1.04229 0
M  V30 7199 C 678.674 -3.13247 -1.49979 0
M  V30 7200 C 677.628 -4.16677 -0.977966 0
M  V30 7201 C 676.954 -4.88112 -2.1829 0
M  V30 7202 C 678.254 -5.22295 -0.0236775 0
M  V30 7203 H 679.948 -2.98229 0.264524 0
M  V30 7204 H 677.494 -1.43424 0.12866 0
M  V30 7205 H 679.447 -3.66838 -2.07383 0
M  V30 7206 H 678.171 -2.4304 -2.18173 0
M  V30 7207 H 676.83 -3.64114 -0.426245 0
M  V30 7208 H 676.478 -4.14423 -2.85066 0
M  V30 7209 H 676.178 -5.58041 -1.84021 0
M  V30 7210 H 677.702 -5.44521 -2.76278 0
M  V30 7211 H 679.116 -5.71055 -0.506899 0
M  V30 7212 H 677.513 -5.99656 0.230782 0
M  V30 7213 H 678.583 -4.76131 0.917999 0
M  V30 7214 N 679.926 -0.151884 -1.56866 0
M  V30 7215 C 681.342 0.204486 -1.58285 0
M  V30 7216 C 681.542 1.6431 -1.16639 0
M  V30 7217 O 680.598 2.37077 -0.868946 0
M  V30 7218 C 681.911 -0.0587019 -3.00643 0
M  V30 7219 C 683.459 0.00462303 -3.13 0
M  V30 7220 C 683.934 -0.231297 -4.57416 0
M  V30 7221 N 685.425 -0.178394 -4.62856 0
M  V30 7222 C 686.16 -0.335379 -5.72418 0
M  V30 7223 N 685.656 -0.550355 -6.90611 0
M  V30 7224 N 687.449 -0.272641 -5.61438 0
M  V30 7225 H 679.6 -1.09116 -1.82229 0
M  V30 7226 H 681.863 -0.432311 -0.843689 0
M  V30 7227 H 681.569 -1.05453 -3.35518 0
M  V30 7228 H 681.443 0.658508 -3.71407 0
M  V30 7229 H 683.83 0.991009 -2.77962 0
M  V30 7230 H 683.911 -0.744992 -2.44711 0
M  V30 7231 H 683.555 -1.2148 -4.93158 0
M  V30 7232 H 683.485 0.5387 -5.23837 0
M  V30 7233 H 685.976 -0.0170923 -3.77896 0
M  V30 7234 H 686.289 -0.660116 -7.69976 0
M  V30 7235 H 684.634 -0.586736 -6.92519 0
M  V30 7236 H 687.825 -0.105421 -4.67981 0
M  V30 7237 H 687.998 -0.398418 -6.46774 0
M  V30 7238 N 681.404 1.57128 0.121893 0
M  V30 7239 C 682.314 2.03425 1.16857 0
M  V30 7240 C 683.33 0.954108 1.45509 0
M  V30 7241 O 684.506 1.26541 1.56682 0
M  V30 7242 C 681.571 2.42685 2.47599 0
M  V30 7243 C 680.632 3.64767 2.2637 0
M  V30 7244 C 679.865 4.02145 3.50878 0
M  V30 7245 O 680.088 3.39897 4.58068 0
M  V30 7246 O 679.022 4.95262 3.42051 0
M  V30 7247 H 682.848 2.92825 0.80544 0
M  V30 7248 H 680.433 1.45654 0.332477 0
M  V30 7249 H 682.315 2.68684 3.24634 0
M  V30 7250 H 680.99 1.56432 2.83392 0
M  V30 7251 H 679.897 3.43922 1.47203 0
M  V30 7252 H 681.23 4.51716 1.95482 0
M  V30 7253 N 682.882 -0.391992 1.52647 0
M  V30 7254 C 683.814 -1.49811 1.73463 0
M  V30 7255 C 684.827 -1.50734 0.615078 0
M  V30 7256 O 686.016 -1.5469 0.890696 0
M  V30 7257 C 683.116 -2.88667 1.77552 0
M  V30 7258 C 682.289 -3.11743 3.06815 0
M  V30 7259 C 681.348 -4.30564 3.02491 0
M  V30 7260 O 680.374 -4.27014 3.76361 0
M  V30 7261 N 681.576 -5.36593 2.21468 0
M  V30 7262 H 684.341 -1.32343 2.68897 0
M  V30 7263 H 681.902 -0.581475 1.51098 0
M  V30 7264 H 683.894 -3.66251 1.7217 0
M  V30 7265 H 682.464 -2.99508 0.895181 0
M  V30 7266 H 681.684 -2.2205 3.25711 0
M  V30 7267 H 682.972 -3.24013 3.92292 0
M  V30 7268 H 682.37 -5.42332 1.60913 0
M  V30 7269 H 680.927 -6.12855 2.21928 0
M  V30 7270 N 684.36 -1.4356 -0.65026 0
M  V30 7271 C 685.293 -1.434 -1.77515 0
M  V30 7272 C 686.271 -0.295082 -1.599 0
M  V30 7273 O 687.455 -0.489128 -1.82043 0
M  V30 7274 C 684.582 -1.2484 -3.14853 0
M  V30 7275 C 683.628 -2.42046 -3.51163 0
M  V30 7276 S 684.461 -4.04595 -3.50803 0
M  V30 7277 C 685.617 -3.88424 -4.90793 0
M  V30 7278 H 685.85 -2.38586 -1.77381 0
M  V30 7279 H 683.383 -1.30627 -0.823169 0
M  V30 7280 H 685.341 -1.14819 -3.94115 0
M  V30 7281 H 684.002 -0.311977 -3.12547 0
M  V30 7282 H 683.195 -2.24873 -4.51052 0
M  V30 7283 H 682.797 -2.48708 -2.79321 0
M  V30 7284 H 685.089 -3.50932 -5.79528 0
M  V30 7285 H 686.032 -4.88076 -5.13018 0
M  V30 7286 H 686.44 -3.20829 -4.64467 0
M  V30 7287 N 685.838 0.888903 -1.30139 0
M  V30 7288 C 687.063 1.67884 -1.21777 0
M  V30 7289 C 687.488 1.86848 0.216689 0
M  V30 7290 O 686.846 1.39659 1.15608 0
M  V30 7291 C 686.894 3.03483 -1.94757 0
M  V30 7292 O 685.998 3.92294 -1.27198 0
M  V30 7293 H 685.339 0.513144 -0.421402 0
M  V30 7294 H 687.869 1.10968 -1.71893 0
M  V30 7295 H 687.879 3.53553 -2.03627 0
M  V30 7296 H 686.554 2.89 -2.99085 0
M  V30 7297 H 685.131 3.50732 -1.26655 0
M  V30 7298 N 687.317 1.12792 1.10072 0
M  V30 7299 C 688.565 0.883796 1.81751 0
M  V30 7300 C 688.886 -0.591891 1.858 0
M  V30 7301 O 688.156 -1.43017 1.33876 0
M  V30 7302 H 686.736 0.323978 0.673088 0
M  V30 7303 H 689.398 1.42314 1.33164 0
M  V30 7304 H 688.494 1.26863 2.85153 0
M  V30 7305 N 688.795 -1.27931 0.920396 0
M  V30 7306 C 690.025 -1.98516 0.572256 0
M  V30 7307 C 690.433 -1.68912 -0.852375 0
M  V30 7308 O 689.776 -0.94203 -1.57707 0
M  V30 7309 C 689.838 -3.5243 0.709485 0
M  V30 7310 C 689.502 -4.0564 2.10489 0
M  V30 7311 C 690.499 -4.1897 3.07831 0
M  V30 7312 C 688.184 -4.40168 2.41986 0
M  V30 7313 C 690.178 -4.66093 4.34783 0
M  V30 7314 C 687.865 -4.86983 3.69176 0
M  V30 7315 C 688.863 -4.99903 4.65388 0
M  V30 7316 O 688.551 -5.45694 5.90316 0
M  V30 7317 H 688.283 -0.64047 0.216274 0
M  V30 7318 H 690.837 -1.6393 1.23758 0
M  V30 7319 H 689.067 -3.86698 -0.0129263 0
M  V30 7320 H 690.756 -4.04233 0.367474 0
M  V30 7321 H 691.522 -3.92562 2.84816 0
M  V30 7322 H 687.401 -4.29358 1.67846 0
M  V30 7323 H 690.945 -4.76092 5.09884 0
M  V30 7324 H 686.842 -5.12832 3.92012 0
M  V30 7325 H 687.61 -5.63965 5.932 0
M  V30 7326 N 690.273 -0.685099 -1.4193 0
M  V30 7327 C 691.22 -0.0131869 -2.30796 0
M  V30 7328 C 692.19 0.782129 -1.46533 0
M  V30 7329 O 693.375 0.75229 -1.75343 0
M  V30 7330 C 690.515 0.924768 -3.32479 0
M  V30 7331 C 689.628 0.122181 -4.31827 0
M  V30 7332 C 688.763 1.05682 -5.20581 0
M  V30 7333 C 687.802 0.246526 -6.11603 0
M  V30 7334 N 686.939 1.13442 -6.92875 0
M  V30 7335 H 691.779 -0.776789 -2.87698 0
M  V30 7336 H 689.316 -0.394791 -1.41703 0
M  V30 7337 H 691.274 1.48251 -3.89971 0
M  V30 7338 H 689.904 1.65488 -2.77152 0
M  V30 7339 H 688.956 -0.552335 -3.76369 0
M  V30 7340 H 690.268 -0.506473 -4.96222 0
M  V30 7341 H 689.422 1.68415 -5.82856 0
M  V30 7342 H 688.161 1.71935 -4.56388 0
M  V30 7343 H 687.166 -0.393944 -5.48387 0
M  V30 7344 H 688.391 -0.412053 -6.77849 0
M  V30 7345 H 686.337 1.78316 -6.313 0
M  V30 7346 H 686.254 0.561089 -7.53915 0
M  V30 7347 H 687.522 1.74889 -7.59628 0
M  V30 7348 N 691.751 1.51645 -0.429126 0
M  V30 7349 C 693.167 1.59394 -0.080994 0
M  V30 7350 C 693.367 1.44064 1.40882 0
M  V30 7351 O 692.423 1.27771 2.17786 0
M  V30 7352 C 693.736 2.94779 -0.593773 0
M  V30 7353 C 695.284 3.08067 -0.553494 0
M  V30 7354 C 695.759 4.45963 -1.04311 0
M  V30 7355 N 697.25 4.5226 -1.00076 0
M  V30 7356 C 697.985 5.57268 -1.35056 0
M  V30 7357 N 697.481 6.69734 -1.77282 0
M  V30 7358 N 699.274 5.47582 -1.26925 0
M  V30 7359 H 691.425 1.59856 -1.39857 0
M  V30 7360 H 693.688 0.753095 -0.575805 0
M  V30 7361 H 693.394 3.11342 -1.63583 0
M  V30 7362 H 693.268 3.77197 -0.0142202 0
M  V30 7363 H 695.655 2.91177 0.479556 0
M  V30 7364 H 695.736 2.27508 -1.16935 0
M  V30 7365 H 695.38 4.63598 -2.07459 0
M  V30 7366 H 695.31 5.25049 -0.403873 0
M  V30 7367 H 697.801 3.71537 -0.690564 0
M  V30 7368 H 698.114 7.4587 -2.02232 0
M  V30 7369 H 696.459 6.70963 -1.81202 0
M  V30 7370 H 699.65 4.58604 -0.93809 0
M  V30 7371 H 699.823 6.29308 -1.54516 0
M  V30 7372 N 693.229 0.160201 1.56784 0
M  V30 7373 C 694.162 -0.812797 2.13234 0
M  V30 7374 C 695.14 -1.2335 1.05942 0
M  V30 7375 O 696.324 -1.32725 1.33852 0
M  V30 7376 C 693.451 -2.09311 2.66283 0
M  V30 7377 C 692.497 -1.8173 3.85845 0
M  V30 7378 S 693.33 -0.996473 5.26147 0
M  V30 7379 C 694.486 -2.28769 5.82594 0
M  V30 7380 H 694.719 -0.332794 2.95432 0
M  V30 7381 H 692.252 -0.0542971 1.54304 0
M  V30 7382 H 694.21 -2.82854 2.97496 0
M  V30 7383 H 692.871 -2.54425 1.84192 0
M  V30 7384 H 692.064 -2.76699 4.21253 0
M  V30 7385 H 691.666 -1.16289 3.55462 0
M  V30 7386 H 693.958 -3.24319 5.9483 0
M  V30 7387 H 694.901 -1.97846 6.79899 0
M  V30 7388 H 695.309 -2.40021 5.10931 0
M  V30 7389 N 694.707 -1.5719 -0.113559 0
M  V30 7390 C 696.123 -1.52607 -0.467253 0
M  V30 7391 C 696.323 -0.874058 -1.81556 0
M  V30 7392 O 695.379 -0.458703 -2.48299 0
M  V30 7393 C 696.692 -2.97363 -0.446736 0
M  V30 7394 C 698.24 -3.08482 -0.529903 0
M  V30 7395 C 698.715 -4.54809 -0.539721 0
M  V30 7396 N 700.206 -4.59284 -0.601005 0
M  V30 7397 C 700.941 -5.69927 -0.630138 0
M  V30 7398 N 700.437 -6.90051 -0.616589 0
M  V30 7399 N 702.23 -5.5805 -0.673558 0
M  V30 7400 H 694.381 -1.97958 0.769819 0
M  V30 7401 H 696.644 -0.90428 0.284572 0
M  V30 7402 H 696.35 -3.48458 0.47643 0
M  V30 7403 H 696.224 -3.55086 -1.27254 0
M  V30 7404 H 698.611 -2.57386 -1.44349 0
M  V30 7405 H 698.692 -2.53744 0.323695 0
M  V30 7406 H 698.336 -5.06552 0.369843 0
M  V30 7407 H 698.266 -5.07364 -1.41028 0
M  V30 7408 H 700.757 -3.72822 -0.617419 0
M  V30 7409 H 701.07 -7.70132 -0.641592 0
M  V30 7410 H 699.415 -6.92543 -0.583927 0
M  V30 7411 H 702.606 -4.63112 -0.681544 0
M  V30 7412 H 702.779 -6.44286 -0.692794 0
M  V30 7413 N 696.185 0.383891 -1.52853 0
M  V30 7414 C 697.601 0.724316 -1.42218 0
M  V30 7415 C 697.801 1.93943 -0.546654 0
M  V30 7416 O 696.857 2.5249 -0.0220562 0
M  V30 7417 C 698.17 0.954635 -2.85144 0
M  V30 7418 C 699.718 1.05579 -2.94656 0
M  V30 7419 C 700.193 1.3187 -4.38605 0
M  V30 7420 N 701.684 1.38681 -4.41952 0
M  V30 7421 C 702.419 1.60699 -5.50421 0
M  V30 7422 N 701.915 1.80154 -6.68967 0
M  V30 7423 N 703.708 1.6292 -5.37972 0
M  V30 7424 H 695.859 -0.4156 -2.08294 0
M  V30 7425 H 698.122 -0.123776 -0.939885 0
M  V30 7426 H 697.828 0.133829 -3.51445 0
M  V30 7427 H 697.702 1.86788 -3.27704 0
M  V30 7428 H 700.089 1.86716 -2.2852 0
M  V30 7429 H 700.17 0.120338 -2.55517 0
M  V30 7430 H 699.814 0.512416 -5.05309 0
M  V30 7431 H 699.744 2.26708 -4.75301 0
M  V30 7432 H 702.235 1.25334 -3.56511 0
M  V30 7433 H 702.548 1.96476 -7.47407 0
M  V30 7434 H 700.893 1.77368 -6.71986 0
M  V30 7435 H 704.084 1.47276 -4.44328 0
M  V30 7436 H 704.257 1.79739 -6.22574 0
M  V30 7437 N 697.663 1.43903 0.642637 0
M  V30 7438 C 698.595 1.45857 1.768 0
M  V30 7439 C 699.608 0.353358 1.58919 0
M  V30 7440 O 700.797 0.618426 1.67445 0
M  V30 7441 C 697.897 1.26583 3.14372 0
M  V30 7442 C 697.07 2.50139 3.58817 0
M  V30 7443 C 696.129 2.25933 4.75227 0
M  V30 7444 O 695.155 2.99351 4.84125 0
M  V30 7445 N 696.357 1.28263 5.66153 0
M  V30 7446 H 699.122 2.42869 1.75598 0
M  V30 7447 H 696.683 1.39194 0.826832 0
M  V30 7448 H 698.675 1.08255 3.89953 0
M  V30 7449 H 697.245 0.37978 3.10284 0
M  V30 7450 H 696.465 2.83821 2.73568 0
M  V30 7451 H 697.753 3.32344 3.8526 0
M  V30 7452 H 697.151 0.676041 5.61646 0
M  V30 7453 H 695.708 1.15916 6.4141 0
M  V30 7454 N 699.141 -0.881989 1.30609 0
M  V30 7455 C 700.091 -1.97539 1.13852 0
M  V30 7456 C 701.075 -1.60813 0.0528428 0
M  V30 7457 O 702.267 -1.74827 0.276484 0
M  V30 7458 C 699.396 -3.32977 0.835519 0
M  V30 7459 C 698.482 -3.76008 1.96159 0
M  V30 7460 N 698.873 -3.91109 3.20729 0
M  V30 7461 C 697.171 -4.05427 1.85863 0
M  V30 7462 C 697.872 -4.27661 3.94311 0
M  V30 7463 N 696.848 -4.37686 3.22385 0
M  V30 7464 H 700.65 -2.07309 2.08327 0
M  V30 7465 H 698.164 -1.072 1.21992 0
M  V30 7466 H 700.161 -4.11041 0.696477 0
M  V30 7467 H 698.821 -3.24542 -0.101135 0
M  V30 7468 H 699.832 -3.7616 3.55984 0
M  V30 7469 H 696.509 -4.05449 0.995847 0
M  V30 7470 H 697.899 -4.47042 5.01601 0
M  V30 7471 N 700.619 -1.13374 -1.09472 0
M  V30 7472 C 701.551 -0.768466 -2.15933 0
M  V30 7473 C 702.564 0.209585 -1.61445 0
M  V30 7474 O 703.753 -0.010539 -1.78497 0
M  V30 7475 C 700.853 -0.118266 -3.38694 0
M  V30 7476 C 700.026 -1.12829 -4.22597 0
M  V30 7477 C 699.085 -0.503875 -5.23782 0
M  V30 7478 O 698.111 -1.16374 -5.57177 0
M  V30 7479 N 699.313 0.724288 -5.75964 0
M  V30 7480 H 702.078 -1.68457 -2.47876 0
M  V30 7481 H 699.639 -1.02668 -1.25183 0
M  V30 7482 H 701.631 0.311698 -4.03498 0
M  V30 7483 H 700.201 0.700769 -3.04644 0
M  V30 7484 H 699.421 -1.73556 -3.53938 0
M  V30 7485 H 700.709 -1.81095 -4.75481 0
M  V30 7486 H 700.107 1.27918 -5.51048 0
M  V30 7487 H 698.664 1.09692 -6.42504 0
M  V30 7488 N 702.098 1.27442 -0.927168 0
M  V30 7489 C 703.045 2.26863 -0.424459 0
M  V30 7490 C 704.015 1.5813 0.508346 0
M  V30 7491 O 705.2 1.85946 0.42762 0
M  V30 7492 C 702.34 3.43639 0.31718 0
M  V30 7493 C 701.453 4.27087 -0.649675 0
M  V30 7494 C 700.588 5.31082 0.111753 0
M  V30 7495 C 699.627 6.062 -0.847843 0
M  V30 7496 N 698.764 7.01999 -0.119074 0
M  V30 7497 H 703.604 2.69239 -1.27728 0
M  V30 7498 H 701.141 1.32394 -0.641106 0
M  V30 7499 H 703.099 4.10155 0.763486 0
M  V30 7500 H 701.729 3.02217 1.13424 0
M  V30 7501 H 700.781 3.60491 -1.21451 0
M  V30 7502 H 702.093 4.79242 -1.38307 0
M  V30 7503 H 701.247 6.03544 0.618 0
M  V30 7504 H 699.986 4.7973 0.878114 0
M  V30 7505 H 698.991 5.32577 -1.36534 0
M  V30 7506 H 700.216 6.59642 -1.61398 0
M  V30 7507 H 698.162 6.52977 0.629051 0
M  V30 7508 H 698.079 7.5184 -0.792046 0
M  V30 7509 H 699.347 7.78638 0.366537 0
M  V30 7510 N 703.576 0.692616 1.41565 0
M  V30 7511 C 704.508 -0.0137132 2.29196 0
M  V30 7512 C 705.521 -0.747417 1.44629 0
M  V30 7513 O 706.71 -0.598611 1.68163 0
M  V30 7514 C 703.81 -1.04347 3.22436 0
M  V30 7515 C 702.983 -0.379985 4.35746 0
M  V30 7516 C 702.042 -1.31195 5.09583 0
M  V30 7517 O 701.068 -0.805455 5.63472 0
M  V30 7518 N 702.27 -2.64443 5.16769 0
M  V30 7519 H 705.035 0.738614 2.90456 0
M  V30 7520 H 702.596 0.538415 1.52685 0
M  V30 7521 H 704.588 -1.6686 3.687 0
M  V30 7522 H 703.158 -1.69736 2.62504 0
M  V30 7523 H 702.378 0.424975 3.91903 0
M  V30 7524 H 703.666 0.0814904 5.08735 0
M  V30 7525 H 703.064 -3.08114 4.74428 0
M  V30 7526 H 701.621 -3.22159 5.66619 0
M  V30 7527 N 705.054 -1.51416 0.437162 0
M  V30 7528 C 705.984 -2.30631 -0.364922 0
M  V30 7529 C 706.965 -1.36037 -1.02118 0
M  V30 7530 O 708.15 -1.64956 -1.02485 0
M  V30 7531 C 705.28 -3.1482 -1.46648 0
M  V30 7532 C 704.234 -4.17691 -0.933717 0
M  V30 7533 C 703.56 -4.904 -2.13101 0
M  V30 7534 C 704.86 -5.2229 0.0317201 0
M  V30 7535 H 706.554 -2.97932 0.29614 0
M  V30 7536 H 704.1 -1.4328 0.143865 0
M  V30 7537 H 706.053 -3.69017 -2.03481 0
M  V30 7538 H 704.777 -2.4534 -2.15583 0
M  V30 7539 H 703.436 -3.64545 -0.387602 0
M  V30 7540 H 703.084 -4.17423 -2.80654 0
M  V30 7541 H 702.784 -5.59962 -1.78092 0
M  V30 7542 H 704.308 -5.4742 -2.70487 0
M  V30 7543 H 705.722 -5.7156 -0.446302 0
M  V30 7544 H 704.119 -5.99378 0.29437 0
M  V30 7545 H 705.189 -4.75131 0.968447 0
M  V30 7546 N 706.532 -0.168513 -1.56696 0
M  V30 7547 C 707.465 0.801477 -2.13662 0
M  V30 7548 C 708.443 1.22786 -1.06594 0
M  V30 7549 O 709.627 1.32014 -1.34554 0
M  V30 7550 C 706.754 2.07896 -2.6739 0
M  V30 7551 C 705.8 1.79681 -3.86803 0
M  V30 7552 S 706.633 0.968556 -5.26668 0
M  V30 7553 C 707.789 2.25676 -5.83799 0
M  V30 7554 H 708.022 0.317121 -2.95604 0
M  V30 7555 H 705.555 0.0461132 -1.54331 0
M  V30 7556 H 707.513 2.81272 -2.98992 0
M  V30 7557 H 706.174 2.53445 -1.85539 0
M  V30 7558 H 705.367 2.74461 -4.22714 0
M  V30 7559 H 704.969 1.14402 -3.56073 0
M  V30 7560 H 707.261 3.2116 -5.96542 0
M  V30 7561 H 708.204 1.94238 -6.80939 0
M  V30 7562 H 708.612 2.37308 -5.12197 0
M  V30 7563 N 708.01 1.57248 0.105221 0
M  V30 7564 C 709.238 1.89768 0.82437 0
M  V30 7565 C 709.653 0.761192 1.72775 0
M  V30 7566 O 709.01 -0.267342 1.80531 0
M  V30 7567 C 709.061 3.2184 1.64625 0
M  V30 7568 O 708.782 4.31115 0.779217 0
M  V30 7569 C 710.283 3.68155 2.46935 0
M  V30 7570 H 707.503 0.628031 0.236259 0
M  V30 7571 H 710.047 2.04321 0.085485 0
M  V30 7572 H 708.202 3.08915 2.33775 0
M  V30 7573 H 708.616 5.06897 1.34745 0
M  V30 7574 H 710.09 4.6329 3.00111 0
M  V30 7575 H 710.567 2.95492 3.24932 0
M  V30 7576 H 711.173 3.83914 1.83002 0
M  V30 7577 N 709.488 -0.375779 1.53054 0
M  V30 7578 C 710.418 -1.46598 1.81745 0
M  V30 7579 C 711.399 -1.56337 0.670286 0
M  V30 7580 O 712.584 -1.71071 0.919158 0
M  V30 7581 C 709.714 -2.84058 1.99821 0
M  V30 7582 C 708.668 -2.8915 3.15557 0
M  V30 7583 C 707.994 -4.29187 3.18908 0
M  V30 7584 C 709.294 -2.57595 4.54359 0
M  V30 7585 H 710.988 -1.22837 2.73041 0
M  V30 7586 H 708.534 -0.589485 1.31381 0
M  V30 7587 H 710.487 -3.60342 2.18475 0
M  V30 7588 H 709.211 -3.09184 1.05226 0
M  V30 7589 H 707.87 -2.15316 2.96706 0
M  V30 7590 H 707.518 -4.51374 2.2197 0
M  V30 7591 H 707.218 -4.33512 3.96662 0
M  V30 7592 H 708.742 -5.07359 3.39734 0
M  V30 7593 H 710.156 -3.23595 4.73243 0
M  V30 7594 H 708.553 -2.73252 5.34279 0
M  V30 7595 H 709.623 -1.52882 4.60169 0
M  V30 7596 N 710.966 -1.44241 -0.634997 0
M  V30 7597 C 711.876 -1.53293 -1.77591 0
M  V30 7598 C 712.892 -0.418831 -1.68884 0
M  V30 7599 O 714.068 -0.675619 -1.8973 0
M  V30 7600 C 711.133 -1.47075 -3.13958 0
M  V30 7601 C 710.194 -2.69304 -3.34326 0
M  V30 7602 C 709.427 -2.63374 -4.64187 0
M  V30 7603 O 709.65 -1.69161 -5.44739 0
M  V30 7604 O 708.584 -3.54166 -4.86673 0
M  V30 7605 H 712.41 -2.49673 -1.72908 0
M  V30 7606 H 709.995 -1.26445 -0.795745 0
M  V30 7607 H 711.877 -1.46117 -3.95257 0
M  V30 7608 H 710.552 -0.538373 -3.19192 0
M  V30 7609 H 709.459 -2.75831 -2.52721 0
M  V30 7610 H 710.792 -3.61576 -3.33951 0
M  V30 7611 N 712.444 0.87505 -1.31075 0
M  V30 7612 C 713.392 2.00317 -1.18219 0
M  V30 7613 C 714.386 1.69152 -0.0916872 0
M  V30 7614 O 715.592 1.7821 -0.253229 0
M  V30 7615 H 711.967 0.656981 -0.365895 0
M  V30 7616 H 713.938 2.08293 -2.13674 0
M  V30 7617 C 712.687 3.35821 -0.901095 0
M  V30 7618 H 712.01 3.6032 -1.73233 0
M  V30 7619 H 713.45 4.15366 -0.851295 0
M  V30 7620 C 711.909 3.34563 0.396114 0
M  V30 7621 O 712.439 3.75971 1.41452 0
M  V30 7622 N 710.645 2.87681 0.410832 0
M  V30 7623 H 710.192 2.54179 -0.418415 0
M  V30 7624 H 710.15 2.87223 1.27869 0
M  V30 7625 N 713.922 1.13953 1.08869 0
M  V30 7626 C 714.869 0.82213 2.15661 0
M  V30 7627 C 715.839 -0.218274 1.6466 0
M  V30 7628 O 717.024 -0.0892475 1.90591 0
M  V30 7629 C 714.164 0.300572 3.43789 0
M  V30 7630 C 713.277 1.40071 4.08661 0
M  V30 7631 C 712.412 0.836897 5.24566 0
M  V30 7632 C 711.451 1.91504 5.81371 0
M  V30 7633 N 710.588 1.36875 6.88629 0
M  V30 7634 H 715.428 1.73683 2.42153 0
M  V30 7635 H 712.965 0.866879 1.18843 0
M  V30 7636 H 714.923 -0.0199943 4.17195 0
M  V30 7637 H 713.553 -0.577248 3.17597 0
M  V30 7638 H 712.605 1.83776 3.33062 0
M  V30 7639 H 713.917 2.21534 4.46905 0
M  V30 7640 H 713.071 0.467953 6.04893 0
M  V30 7641 H 711.81 -0.00874207 4.87699 0
M  V30 7642 H 710.815 2.29299 4.99702 0
M  V30 7643 H 712.04 2.76419 6.20298 0
M  V30 7644 H 709.986 0.545211 6.5373 0
M  V30 7645 H 709.903 2.1198 7.25672 0
M  V30 7646 H 711.171 1.02756 7.72698 0
M  V30 7647 N 715.4 -1.26948 0.933913 0
M  V30 7648 C 716.33 -2.29017 0.45534 0
M  V30 7649 C 717.311 -1.62961 -0.487605 0
M  V30 7650 O 718.496 -1.90223 -0.391022 0
M  V30 7651 C 715.626 -3.46112 -0.287015 0
M  V30 7652 C 714.58 -4.24205 0.568682 0
M  V30 7653 C 713.906 -5.3384 -0.303206 0
M  V30 7654 C 715.206 -4.88954 1.83633 0
M  V30 7655 H 716.9 -2.69298 1.30839 0
M  V30 7656 H 714.446 -1.29459 0.630579 0
M  V30 7657 H 716.399 -4.16622 -0.6328 0
M  V30 7658 H 715.123 -3.04765 -1.17414 0
M  V30 7659 H 713.782 -3.5545 0.897261 0
M  V30 7660 H 713.43 -4.88734 -1.18947 0
M  V30 7661 H 713.13 -5.86998 0.265879 0
M  V30 7662 H 714.654 -6.0719 -0.644423 0
M  V30 7663 H 716.068 -5.51717 1.55823 0
M  V30 7664 H 714.465 -5.52198 2.34941 0
M  V30 7665 H 715.535 -4.12305 2.55211 0
M  V30 7666 N 716.879 -0.700114 -1.41195 0
M  V30 7667 C 717.826 -0.0376652 -2.30769 0
M  V30 7668 C 718.796 0.766544 -1.47354 0
M  V30 7669 O 719.981 0.73365 -1.76131 0
M  V30 7670 C 717.121 0.889452 -3.33441 0
M  V30 7671 C 716.234 0.076373 -4.31932 0
M  V30 7672 C 715.369 1.00155 -5.21673 0
M  V30 7673 C 714.408 0.181644 -6.1183 0
M  V30 7674 N 713.545 1.06087 -6.94039 0
M  V30 7675 H 718.385 -0.80726 -2.86858 0
M  V30 7676 H 715.922 -0.409798 -1.41277 0
M  V30 7677 H 717.88 1.44107 -3.91522 0
M  V30 7678 H 716.51 1.6254 -2.78892 0
M  V30 7679 H 715.562 -0.592223 -3.75762 0
M  V30 7680 H 716.874 -0.559076 -4.95657 0
M  V30 7681 H 716.028 1.62223 -5.8461 0
M  V30 7682 H 714.767 1.67085 -4.58186 0
M  V30 7683 H 713.772 -0.452085 -5.47938 0
M  V30 7684 H 714.997 -0.483925 -6.77374 0
M  V30 7685 H 712.943 1.7161 -6.33156 0
M  V30 7686 H 712.86 0.481094 -7.54468 0
M  V30 7687 H 714.128 1.66822 -7.6144 0
M  V30 7688 N 718.357 1.51182 -0.445186 0
M  V30 7689 C 719.32 2.26501 0.350722 0
M  V30 7690 C 720.32 1.3025 0.942952 0
M  V30 7691 O 721.51 1.53897 0.816175 0
M  V30 7692 C 718.642 3.06274 1.49697 0
M  V30 7693 H 719.835 2.98299 -0.309474 0
M  V30 7694 H 717.388 1.55034 -0.198551 0
M  V30 7695 H 718.123 2.38911 2.19299 0
M  V30 7696 H 717.908 3.76979 1.0784 0
M  V30 7697 H 719.398 3.63306 2.05909 0
M  V30 7698 N 719.835 0.176821 1.56605 0
M  V30 7699 C 720.745 -0.763682 2.21822 0
M  V30 7700 C 721.761 -1.24889 1.21156 0
M  V30 7701 O 722.937 -1.29987 1.53836 0
M  V30 7702 C 720.002 -1.97352 2.8505 0
M  V30 7703 C 719.063 -1.53466 4.00932 0
M  V30 7704 C 718.296 -2.68682 4.61135 0
M  V30 7705 O 718.519 -3.85694 4.20234 0
M  V30 7706 O 717.453 -2.42442 5.50913 0
M  V30 7707 H 721.279 -0.238363 3.02763 0
M  V30 7708 H 718.864 -0.0516331 1.49311 0
M  V30 7709 H 720.746 -2.68096 3.25119 0
M  V30 7710 H 719.421 -2.48779 2.07101 0
M  V30 7711 H 718.328 -0.796551 3.65521 0
M  V30 7712 H 719.661 -1.06724 4.8049 0
M  V30 7713 N 721.313 -1.57302 -0.09688 0
M  V30 7714 C 722.246 -1.97179 -1.14872 0
M  V30 7715 C 723.224 -0.844734 -1.38935 0
M  V30 7716 O 724.408 -1.10487 -1.52725 0
M  V30 7717 C 721.535 -2.28703 -2.49826 0
M  V30 7718 C 720.581 -3.51158 -2.42054 0
M  V30 7719 S 721.414 -5.0294 -1.83879 0
M  V30 7720 C 722.57 -5.37639 -3.2046 0
M  V30 7721 H 722.803 -2.86088 -0.808771 0
M  V30 7722 H 720.336 -1.51368 -0.304492 0
M  V30 7723 H 722.294 -2.47541 -3.27466 0
M  V30 7724 H 720.955 -1.40368 -2.8099 0
M  V30 7725 H 720.148 -3.70651 -3.41517 0
M  V30 7726 H 719.75 -3.31821 -1.72543 0
M  V30 7727 H 722.042 -5.34175 -4.16729 0
M  V30 7728 H 722.985 -6.38677 -3.05773 0
M  V30 7729 H 723.393 -4.651 -3.19909 0
M  V30 7730 N 722.791 0.367657 -1.53252 0
M  V30 7731 C 724.068 1.12606 -1.59935 0
M  V30 7732 C 724.448 2.07167 -0.405606 0
M  V30 7733 O 723.796 2.20364 0.604323 0
M  V30 7734 C 724.006 1.86699 -2.94863 0
M  V30 7735 C 725.354 2.41306 -3.49366 0
M  V30 7736 O 726.378 1.96828 -2.96879 0
M  V30 7737 O 725.237 3.2261 -4.41118 0
M  V30 7738 H 722.331 0.516438 -0.645926 0
M  V30 7739 H 724.877 0.371088 -1.65593 0
M  V30 7740 H 723.649 1.17674 -3.73187 0
M  V30 7741 H 723.272 2.6911 -2.92687 0
M  V30 7742 N 724.269 1.44576 0.627338 0
M  V30 7743 C 725.179 1.54232 1.76776 0
M  V30 7744 C 726.195 0.427782 1.6866 0
M  V30 7745 O 727.371 0.685671 1.89369 0
M  V30 7746 C 724.436 1.48738 3.13174 0
M  V30 7747 C 723.497 2.71074 3.32893 0
M  V30 7748 C 722.73 2.65832 4.62784 0
M  V30 7749 O 722.953 1.72048 5.43834 0
M  V30 7750 O 721.887 3.56742 4.84787 0
M  V30 7751 H 725.713 2.50586 1.71582 0
M  V30 7752 H 723.298 1.26865 0.789028 0
M  V30 7753 H 725.18 1.48211 3.94476 0
M  V30 7754 H 723.855 0.555292 3.18902 0
M  V30 7755 H 722.762 2.77168 2.51254 0
M  V30 7756 H 724.095 3.63342 3.32029 0
M  V30 7757 N 725.747 -0.868086 1.31537 0
M  V30 7758 C 726.697 -1.96321 1.1594 0
M  V30 7759 C 727.681 -1.60748 0.0698962 0
M  V30 7760 O 728.873 -1.74524 0.295011 0
M  V30 7761 C 726.002 -3.32073 0.870789 0
M  V30 7762 C 725.088 -3.73907 2.00136 0
M  V30 7763 N 725.479 -3.87685 3.24859 0
M  V30 7764 C 723.777 -4.03433 1.90152 0
M  V30 7765 C 724.478 -4.23454 3.98825 0
M  V30 7766 N 723.454 -4.34242 3.27009 0
M  V30 7767 H 727.256 -2.05088 2.10514 0
M  V30 7768 H 724.77 -1.059 1.23122 0
M  V30 7769 H 726.767 -4.10279 0.740034 0
M  V30 7770 H 725.427 -3.24631 -0.0667068 0
M  V30 7771 H 726.438 -3.72363 3.59953 0
M  V30 7772 H 723.115 -4.0437 1.03879 0
M  V30 7773 H 724.505 -4.41696 5.06314 0
M  V30 7774 N 727.225 -1.14528 -1.08264 0
M  V30 7775 C 728.641 -0.885976 -1.3275 0
M  V30 7776 C 728.841 0.472096 -1.95892 0
M  V30 7777 O 727.897 1.21606 -2.21288 0
M  V30 7778 C 729.21 -2.01982 -2.22764 0
M  V30 7779 C 730.758 -2.05329 -2.36239 0
M  V30 7780 C 731.233 -3.1801 -3.29596 0
M  V30 7781 N 732.724 -3.17598 -3.37173 0
M  V30 7782 C 733.459 -4.01426 -4.09444 0
M  V30 7783 N 732.955 -4.95297 -4.8441 0
M  V30 7784 N 734.748 -3.89482 -4.0529 0
M  V30 7785 H 726.899 -2.01996 -0.656607 0
M  V30 7786 H 729.162 -0.880274 -0.351884 0
M  V30 7787 H 728.868 -2.99964 -1.83615 0
M  V30 7788 H 728.742 -1.94421 -3.23234 0
M  V30 7789 H 731.129 -1.07953 -2.74646 0
M  V30 7790 H 731.21 -2.1696 -1.35506 0
M  V30 7791 H 730.854 -4.15633 -2.9191 0
M  V30 7792 H 730.784 -3.03616 -4.30261 0
M  V30 7793 H 733.275 -2.4961 -2.83731 0
M  V30 7794 H 733.588 -5.55723 -5.37021 0
M  V30 7795 H 731.933 -4.99293 -4.83457 0
M  V30 7796 H 735.124 -3.15465 -3.45832 0
M  V30 7797 H 735.297 -4.55039 -4.6135 0
M  V30 7798 N 728.703 1.26451 -0.940633 0
M  V30 7799 C 729.633 2.28773 -0.467479 0
M  V30 7800 C 730.614 1.63218 0.478955 0
M  V30 7801 O 731.799 1.90427 0.380929 0
M  V30 7802 C 728.929 3.46259 0.268656 0
M  V30 7803 C 727.883 4.23898 -0.591171 0
M  V30 7804 C 727.209 5.33993 0.274891 0
M  V30 7805 C 728.509 4.87974 -1.86223 0
M  V30 7806 H 730.203 2.68601 -1.32265 0
M  V30 7807 H 727.749 1.29123 -0.637436 0
M  V30 7808 H 729.702 4.16951 0.610696 0
M  V30 7809 H 728.426 3.05383 1.15796 0
M  V30 7810 H 727.085 3.54969 -0.916098 0
M  V30 7811 H 726.733 4.89358 1.16353 0
M  V30 7812 H 726.433 5.86849 -0.297006 0
M  V30 7813 H 727.957 6.07523 0.612213 0
M  V30 7814 H 729.371 5.50883 -1.58747 0
M  V30 7815 H 727.768 5.50945 -2.37866 0
M  V30 7816 H 728.838 4.10945 -2.57394 0
M  V30 7817 N 730.181 0.707592 1.40822 0
M  V30 7818 C 731.597 0.38034 1.55002 0
M  V30 7819 C 731.797 -1.11163 1.68062 0
M  V30 7820 O 730.853 -1.89761 1.66574 0
M  V30 7821 C 732.166 1.1394 2.78277 0
M  V30 7822 C 733.714 1.12492 2.92087 0
M  V30 7823 C 734.189 1.86597 4.18265 0
M  V30 7824 N 735.68 1.83626 4.25248 0
M  V30 7825 C 736.415 2.37794 5.21768 0
M  V30 7826 N 735.911 3.00485 6.24244 0
M  V30 7827 N 737.704 2.27982 5.13791 0
M  V30 7828 H 729.855 1.67511 1.3059 0
M  V30 7829 H 732.118 0.707579 0.630901 0
M  V30 7830 H 731.824 2.19398 2.74877 0
M  V30 7831 H 731.698 0.725793 3.70151 0
M  V30 7832 H 734.085 0.0785564 2.94995 0
M  V30 7833 H 734.166 1.57768 2.01353 0
M  V30 7834 H 733.81 2.91219 4.16118 0
M  V30 7835 H 733.74 1.38746 5.07993 0
M  V30 7836 H 736.231 1.3793 3.51829 0
M  V30 7837 H 736.544 3.39355 6.94304 0
M  V30 7838 H 734.889 3.04567 6.24711 0
M  V30 7839 H 738.08 1.78669 4.3266 0
M  V30 7840 H 738.253 2.70499 5.88841 0
M  V30 7841 N 731.66 -1.50943 0.453197 0
M  V30 7842 C 732.59 -2.31005 -0.34044 0
M  V30 7843 C 733.571 -1.37112 -1.00669 0
M  V30 7844 O 734.756 -1.66033 -1.0073 0
M  V30 7845 C 731.886 -3.16358 -1.433 0
M  V30 7846 C 730.84 -4.18658 -0.889363 0
M  V30 7847 C 730.166 -4.92633 -2.07887 0
M  V30 7848 C 731.466 -5.22227 0.0871142 0
M  V30 7849 H 733.16 -2.97601 0.327723 0
M  V30 7850 H 730.706 -1.43119 0.159054 0
M  V30 7851 H 732.659 -3.71155 -1.99555 0
M  V30 7852 H 731.383 -2.47613 -2.12968 0
M  V30 7853 H 730.042 -3.64936 -0.348915 0
M  V30 7854 H 729.69 -4.20376 -2.76211 0
M  V30 7855 H 729.39 -5.61819 -1.72143 0
M  V30 7856 H 730.914 -5.50258 -2.64666 0
M  V30 7857 H 732.328 -5.72001 -0.385656 0
M  V30 7858 H 730.725 -5.99032 0.357926 0
M  V30 7859 H 731.795 -4.74077 1.01879 0
M  V30 7860 N 733.138 -0.185124 -1.56509 0
M  V30 7861 C 734.415 0.503348 -1.89013 0
M  V30 7862 C 734.795 1.80349 -1.09715 0
M  V30 7863 O 734.143 2.27665 -0.195203 0
M  V30 7864 C 734.353 0.731839 -3.41241 0
M  V30 7865 C 735.701 1.05568 -4.11267 0
M  V30 7866 O 736.725 0.819906 -3.46635 0
M  V30 7867 O 735.584 1.50116 -5.25478 0
M  V30 7868 H 732.678 0.261139 -0.784688 0
M  V30 7869 H 735.224 -0.224592 -1.68207 0
M  V30 7870 H 733.996 -0.18672 -3.90854 0
M  V30 7871 H 733.619 1.5126 -3.67704 0
M  V30 7872 N 734.616 1.57351 0.0885366 0
M  V30 7873 C 735.563 2.02523 1.10693 0
M  V30 7874 C 736.533 0.902736 1.39427 0
M  V30 7875 O 737.718 1.16921 1.50779 0
M  V30 7876 C 734.858 2.46013 2.42016 0
M  V30 7877 C 733.971 3.7181 2.19957 0
M  V30 7878 C 733.106 4.04152 3.44724 0
M  V30 7879 C 732.145 5.2304 3.17956 0
M  V30 7880 N 731.282 5.51102 4.35007 0
M  V30 7881 H 736.122 2.89302 0.714742 0
M  V30 7882 H 733.659 1.43084 0.341378 0
M  V30 7883 H 735.617 2.69274 3.18665 0
M  V30 7884 H 734.247 1.62235 2.79069 0
M  V30 7885 H 733.299 3.55987 1.34079 0
M  V30 7886 H 734.611 4.58604 1.96173 0
M  V30 7887 H 733.765 4.28225 4.29777 0
M  V30 7888 H 732.504 3.15893 3.71568 0
M  V30 7889 H 731.509 4.98781 2.31296 0
M  V30 7890 H 732.734 6.12902 2.92451 0
M  V30 7891 H 730.68 4.65802 4.61914 0
M  V30 7892 H 730.597 6.3228 4.14437 0
M  V30 7893 H 731.865 5.79714 5.21106 0
M  V30 7894 N 736.094 -0.359525 1.53444 0
M  V30 7895 C 737.371 -1.11756 1.6053 0
M  V30 7896 C 737.751 -2.06949 0.416587 0
M  V30 7897 O 737.099 -2.20681 -0.592628 0
M  V30 7898 C 737.309 -1.85133 2.95849 0
M  V30 7899 C 738.657 -2.3945 3.50641 0
M  V30 7900 O 739.681 -1.95251 2.97918 0
M  V30 7901 O 738.54 -3.20266 4.42823 0
M  V30 7902 H 735.634 -0.513005 0.648656 0
M  V30 7903 H 738.18 -0.362301 1.65787 0
M  V30 7904 H 736.952 -1.15694 3.73806 0
M  V30 7905 H 736.575 -2.67554 2.9411 0
M  V30 7906 N 737.572 -1.44907 -0.619662 0
M  V30 7907 C 738.502 -1.55488 -1.742 0
M  V30 7908 C 739.483 -0.407143 -1.65156 0
M  V30 7909 O 740.668 -0.628743 -1.8374 0
M  V30 7910 C 737.798 -1.5097 -3.1277 0
M  V30 7911 C 736.752 -2.64337 -3.36615 0
M  V30 7912 C 736.078 -2.44872 -4.75333 0
M  V30 7913 C 737.378 -4.06423 -3.28051 0
M  V30 7914 H 739.072 -2.49432 -1.65602 0
M  V30 7915 H 736.618 -1.20047 -0.795281 0
M  V30 7916 H 738.571 -1.56971 -3.91073 0
M  V30 7917 H 737.295 -0.535486 -3.2218 0
M  V30 7918 H 735.954 -2.57744 -2.60698 0
M  V30 7919 H 735.602 -1.45617 -4.81461 0
M  V30 7920 H 735.302 -3.20888 -4.92244 0
M  V30 7921 H 736.826 -2.52709 -5.55851 0
M  V30 7922 H 738.24 -4.14324 -3.96243 0
M  V30 7923 H 736.637 -4.82733 -3.56495 0
M  V30 7924 H 737.707 -4.29183 -2.25676 0
M  V30 7925 N 739.05 0.861098 -1.31996 0
M  V30 7926 C 739.96 2.00154 -1.22374 0
M  V30 7927 C 740.976 1.73447 -0.138631 0
M  V30 7928 O 742.152 1.98191 -0.358104 0
M  V30 7929 C 739.217 3.33696 -0.940645 0
M  V30 7930 C 738.278 3.73668 -2.11355 0
M  V30 7931 C 737.511 5.00837 -1.84386 0
M  V30 7932 O 737.734 5.64996 -0.783287 0
M  V30 7933 O 736.668 5.37787 -2.70313 0
M  V30 7934 H 740.494 2.11207 -2.18233 0
M  V30 7935 H 738.079 0.990768 -1.11822 0
M  V30 7936 H 739.961 4.13756 -0.798987 0
M  V30 7937 H 738.636 3.23698 -0.0121636 0
M  V30 7938 H 737.543 2.94211 -2.31065 0
M  V30 7939 H 738.876 3.88303 -3.02459 0
M  V30 7940 N 740.528 1.15101 1.07655 0
M  V30 7941 C 741.756 0.947731 1.83918 0
M  V30 7942 C 742.171 -0.503927 1.81951 0
M  V30 7943 O 741.528 -1.34941 1.2287 0
M  V30 7944 C 741.579 1.4503 3.31132 0
M  V30 7945 O 741.3 2.84508 3.33146 0
M  V30 7946 C 742.801 1.28806 4.24174 0
M  V30 7947 H 740.021 0.336786 0.580358 0
M  V30 7948 H 742.565 1.52799 1.35914 0
M  V30 7949 H 740.72 0.912632 3.76497 0
M  V30 7950 H 741.134 3.0723 4.251 0
M  V30 7951 H 742.608 1.6882 5.25551 0
M  V30 7952 H 743.085 0.231851 4.38588 0
M  V30 7953 H 743.691 1.81465 3.84643 0
M  V30 7954 N 742.006 -1.2595 0.947325 0
M  V30 7955 C 742.938 -2.25336 0.41906 0
M  V30 7956 C 743.951 -1.56135 -0.461051 0
M  V30 7957 O 745.14 -1.76438 -0.270505 0
M  V30 7958 C 742.24 -3.36334 -0.416233 0
M  V30 7959 C 741.413 -4.35088 0.449162 0
M  V30 7960 C 740.472 -5.25185 -0.326716 0
M  V30 7961 O 739.498 -5.68548 0.272374 0
M  V30 7962 N 740.7 -5.57388 -1.6217 0
M  V30 7963 H 743.465 -2.71298 1.27348 0
M  V30 7964 H 741.026 -1.39781 0.81688 0
M  V30 7965 H 743.018 -3.93564 -0.942826 0
M  V30 7966 H 741.588 -2.89819 -1.17148 0
M  V30 7967 H 740.808 -3.76841 1.15692 0
M  V30 7968 H 742.096 -4.98056 1.04008 0
M  V30 7969 H 741.494 -5.2405 -2.13046 0
M  V30 7970 H 740.051 -6.17234 -2.0944 0
M  V30 7971 N 743.484 -0.715051 -1.40445 0
M  V30 7972 C 744.9 -0.388555 -1.54798 0
M  V30 7973 C 745.1 1.10271 -1.68649 0
M  V30 7974 O 744.156 1.88875 -1.67578 0
M  V30 7975 C 745.469 -1.15414 -2.77669 0
M  V30 7976 C 747.017 -1.14039 -2.91486 0
M  V30 7977 C 747.492 -1.88812 -4.1727 0
M  V30 7978 N 748.983 -1.85878 -4.24268 0
M  V30 7979 C 749.718 -2.40558 -5.20499 0
M  V30 7980 N 749.214 -3.03791 -6.22642 0
M  V30 7981 N 751.007 -2.30703 -5.12574 0
M  V30 7982 H 743.158 -1.68201 -1.297 0
M  V30 7983 H 745.421 -0.710915 -0.627139 0
M  V30 7984 H 745.127 -2.20853 -2.7371 0
M  V30 7985 H 745.001 -0.745412 -3.69761 0
M  V30 7986 H 747.388 -0.0941996 -2.9495 0
M  V30 7987 H 747.469 -1.58834 -2.00513 0
M  V30 7988 H 747.113 -2.93422 -4.14568 0
M  V30 7989 H 747.043 -1.41438 -5.0725 0
M  V30 7990 H 749.534 -1.39794 -3.51093 0
M  V30 7991 H 749.847 -3.43032 -6.92495 0
M  V30 7992 H 748.192 -3.07875 -6.23087 0
M  V30 7993 H 751.383 -1.80961 -4.31707 0
M  V30 7994 H 751.556 -2.73618 -5.87398 0
M  V30 7995 N 744.962 1.50701 -0.461195 0
M  V30 7996 C 745.91 2.29918 0.352231 0
M  V30 7997 C 746.904 1.36778 0.999403 0
M  V30 7998 O 748.11 1.54015 0.931639 0
M  V30 7999 H 744.485 0.740249 0.132423 0
M  V30 8000 H 746.456 2.96497 -0.336424 0
M  V30 8001 C 745.205 3.17052 1.42736 0
M  V30 8002 H 744.528 3.88623 0.938747 0
M  V30 8003 H 745.968 3.75493 1.96928 0
M  V30 8004 C 744.427 2.3399 2.42384 0
M  V30 8005 O 744.957 2.01608 3.47444 0
M  V30 8006 N 743.163 1.96758 2.13857 0
M  V30 8007 H 742.71 2.23292 1.28447 0
M  V30 8008 H 742.668 1.41484 2.80766 0
M  V30 8009 N 746.441 0.193421 1.56409 0
M  V30 8010 C 747.389 -0.744829 2.20352 0
M  V30 8011 C 748.383 -1.22104 1.17418 0
M  V30 8012 O 749.589 -1.18413 1.35567 0
M  V30 8013 H 745.964 -0.258538 0.70616 0
M  V30 8014 H 747.935 -0.181794 2.97846 0
M  V30 8015 C 746.684 -1.95453 2.87565 0
M  V30 8016 H 746.007 -1.59716 3.66512 0
M  V30 8017 H 747.447 -2.58942 3.35745 0
M  V30 8018 C 745.906 -2.79223 1.8851 0
M  V30 8019 O 746.436 -3.77093 1.38434 0
M  V30 8020 N 744.642 -2.44682 1.56777 0
M  V30 8021 H 744.189 -1.65153 1.97692 0
M  V30 8022 H 744.147 -3.01016 0.907573 0
M  V30 8023 N 747.919 -1.57396 -0.0801906 0
M  V30 8024 C 749.166 -1.86836 -0.780927 0
M  V30 8025 C 749.494 -0.784012 -1.77999 0
M  V30 8026 O 748.749 0.220881 -1.94449 0
M  V30 8027 C 749.048 -3.22915 -1.53169 0
M  V30 8028 C 748.714 -4.45843 -0.67339 0
M  V30 8029 C 747.376 -4.79213 -0.436829 0
M  V30 8030 C 749.728 -5.21142 -0.0776786 0
M  V30 8031 C 747.056 -5.853 0.405062 0
M  V30 8032 C 749.408 -6.28119 0.751619 0
M  V30 8033 C 748.072 -6.59995 0.998131 0
M  V30 8034 H 747.342 -0.683682 -0.285761 0
M  V30 8035 H 749.989 -1.91454 -0.0419435 0
M  V30 8036 H 748.294 -3.14049 -2.34265 0
M  V30 8037 H 749.991 -3.42926 -2.07853 0
M  V30 8038 H 746.581 -4.19721 -0.867891 0
M  V30 8039 H 750.765 -4.95682 -0.247572 0
M  V30 8040 H 746.021 -6.084 0.60488 0
M  V30 8041 H 750.195 -6.8563 1.22 0
M  V30 8042 H 747.822 -7.42027 1.65227 0
M  V30 8043 N 749.397 0.351382 -1.53633 0
M  V30 8044 C 750.36 1.41403 -1.80383 0
M  V30 8045 C 751.36 1.45963 -0.674635 0
M  V30 8046 O 752.55 1.46476 -0.942895 0
M  V30 8047 C 749.682 2.80401 -1.93876 0
M  V30 8048 H 750.875 1.18951 -2.75301 0
M  V30 8049 H 748.428 0.58533 -1.44926 0
M  V30 8050 H 749.163 3.08147 -1.01074 0
M  V30 8051 H 748.948 2.78488 -2.7602 0
M  V30 8052 H 750.438 3.57329 -2.16116 0
M  V30 8053 N 750.875 1.45233 0.611969 0
M  V30 8054 C 751.838 1.53189 1.70487 0
M  V30 8055 C 752.838 0.411839 1.55437 0
M  V30 8056 O 754.028 0.675164 1.60584 0
M  V30 8057 C 751.16 1.42422 3.09723 0
M  V30 8058 H 752.353 2.5056 1.64802 0
M  V30 8059 H 749.906 1.32609 0.827318 0
M  V30 8060 H 750.641 0.462185 3.2099 0
M  V30 8061 H 750.426 2.23658 3.22055 0
M  V30 8062 H 751.916 1.51012 3.89339 0
M  V30 8063 N 752.353 -0.854086 1.3245 0
M  V30 8064 C 753.263 -1.99503 1.23434 0
M  V30 8065 C 754.279 -1.73371 0.147828 0
M  V30 8066 O 755.455 -1.97998 0.368609 0
M  V30 8067 C 752.52 -3.33192 0.958328 0
M  V30 8068 C 751.581 -3.72542 2.13333 0
M  V30 8069 C 750.814 -4.99852 1.8704 0
M  V30 8070 O 751.037 -5.64573 0.813239 0
M  V30 8071 O 749.971 -5.36345 2.73161 0
M  V30 8072 H 753.797 -2.10046 2.1935 0
M  V30 8073 H 751.382 -0.984823 1.12346 0
M  V30 8074 H 753.264 -4.13327 0.820918 0
M  V30 8075 H 751.939 -3.23687 0.0293299 0
M  V30 8076 H 750.846 -2.92981 2.32622 0
M  V30 8077 H 752.179 -3.86694 3.04514 0
M  V30 8078 N 753.831 -1.1567 -1.07043 0
M  V30 8079 C 754.764 -0.799867 -2.13723 0
M  V30 8080 C 755.742 0.225098 -1.61034 0
M  V30 8081 O 756.926 0.11093 -1.88173 0
M  V30 8082 C 754.053 -0.18997 -3.38167 0
M  V30 8083 C 753.099 -1.18733 -4.0964 0
M  V30 8084 S 753.932 -2.73074 -4.60642 0
M  V30 8085 C 755.088 -2.13512 -5.88356 0
M  V30 8086 H 755.321 -1.70342 -2.43661 0
M  V30 8087 H 752.854 -0.979377 -1.19363 0
M  V30 8088 H 754.812 0.155471 -4.10205 0
M  V30 8089 H 753.473 0.691229 -3.064 0
M  V30 8090 H 752.666 -0.708873 -4.9899 0
M  V30 8091 H 752.268 -1.47747 -3.43579 0
M  V30 8092 H 754.56 -1.49911 -6.60706 0
M  V30 8093 H 755.503 -3.01042 -6.40921 0
M  V30 8094 H 755.911 -1.57693 -5.42027 0
M  V30 8095 N 755.309 1.25446 -0.953992 0
M  V30 8096 C 756.219 2.29632 -0.480264 0
M  V30 8097 C 757.235 1.68025 0.452071 0
M  V30 8098 O 758.411 1.98703 0.328472 0
M  V30 8099 C 755.476 3.45903 0.234974 0
M  V30 8100 C 754.537 4.22953 -0.735495 0
M  V30 8101 C 753.77 5.33672 -0.0542957 0
M  V30 8102 O 753.993 5.58477 1.16018 0
M  V30 8103 O 752.927 5.9734 -0.739509 0
M  V30 8104 H 756.753 2.72242 -1.34602 0
M  V30 8105 H 754.338 1.30883 -0.720419 0
M  V30 8106 H 756.22 4.16552 0.637341 0
M  V30 8107 H 754.895 3.05296 1.07592 0
M  V30 8108 H 753.802 3.54734 -1.18806 0
M  V30 8109 H 755.135 4.67341 -1.54444 0
M  V30 8110 N 756.787 0.722489 1.40064 0
M  V30 8111 C 757.734 0.0743738 2.3068 0
M  V30 8112 C 758.704 -0.743004 1.48555 0
M  V30 8113 O 759.889 -0.705536 1.77276 0
M  V30 8114 C 757.029 -0.836292 3.34814 0
M  V30 8115 C 756.142 -0.00764663 4.31999 0
M  V30 8116 C 755.277 -0.918428 5.232 0
M  V30 8117 C 754.316 -0.0842838 6.12042 0
M  V30 8118 N 753.453 -0.950316 6.95639 0
M  V30 8119 H 758.293 0.852794 2.85537 0
M  V30 8120 H 755.83 0.432222 1.40607 0
M  V30 8121 H 757.788 -1.3786 3.93765 0
M  V30 8122 H 756.418 -1.58082 2.81443 0
M  V30 8123 H 755.47 0.651928 3.74772 0
M  V30 8124 H 756.782 0.63786 4.94705 0
M  V30 8125 H 755.936 -1.52902 5.87116 0
M  V30 8126 H 754.675 -1.59774 4.60786 0
M  V30 8127 H 753.68 0.5392 5.4715 0
M  V30 8128 H 754.905 0.591628 6.76518 0
M  V30 8129 H 752.851 -1.61515 6.35806 0
M  V30 8130 H 752.768 -0.361004 7.55138 0
M  V30 8131 H 754.036 -1.54687 7.63997 0
M  V30 8132 N 758.265 -1.50454 0.469181 0
M  V30 8133 C 759.195 -2.31353 -0.31592 0
M  V30 8134 C 760.176 -1.38172 -0.992094 0
M  V30 8135 O 761.361 -1.67093 -0.989633 0
M  V30 8136 C 758.491 -3.1786 -1.39937 0
M  V30 8137 C 757.445 -4.19578 -0.844909 0
M  V30 8138 C 756.771 -4.9481 -2.0265 0
M  V30 8139 C 758.071 -5.22106 0.142499 0
M  V30 8140 H 759.765 -2.97237 0.359269 0
M  V30 8141 H 757.311 -1.42942 0.174224 0
M  V30 8142 H 759.264 -3.7325 -1.95607 0
M  V30 8143 H 757.988 -2.49858 -2.1033 0
M  V30 8144 H 756.647 -3.65285 -0.310189 0
M  V30 8145 H 756.295 -4.23282 -2.71737 0
M  V30 8146 H 755.995 -5.63613 -1.66174 0
M  V30 8147 H 757.519 -5.53035 -2.58815 0
M  V30 8148 H 758.933 -5.72378 -0.324966 0
M  V30 8149 H 757.33 -5.98618 0.421441 0
M  V30 8150 H 758.4 -4.7297 1.06901 0
M  V30 8151 N 759.743 -0.201713 -1.56304 0
M  V30 8152 C 760.992 0.435557 -1.96941 0
M  V30 8153 C 761.305 1.62299 -1.09172 0
M  V30 8154 O 762.511 2.32849 -1.3962 0
M  V30 8155 C 760.967 0.826298 -3.50286 0
M  V30 8156 C 760.575 -0.337216 -4.46729 0
M  V30 8157 C 762.319 1.43028 -3.99679 0
M  V30 8158 C 760.226 0.0748539 -5.91353 0
M  V30 8159 H 759.156 0.1665 -0.735387 0
M  V30 8160 H 761.807 -0.294781 -1.81117 0
M  V30 8161 H 760.189 1.61349 -3.61639 0
M  V30 8162 H 761.363 -1.11476 -4.47113 0
M  V30 8163 H 759.678 -0.853126 -4.07567 0
M  V30 8164 H 762.275 1.75115 -5.05212 0
M  V30 8165 H 762.618 2.33911 -3.44371 0
M  V30 8166 H 763.151 0.706924 -3.91468 0
M  V30 8167 H 759.89 -0.799957 -6.506 0
M  V30 8168 H 759.41 0.817122 -5.94208 0
M  V30 8169 H 761.089 0.508389 -6.45 0
M  V30 8170 N 761.222 1.57436 0.0718424 0
M  V30 8171 C 762.169 2.03686 1.08539 0
M  V30 8172 C 763.139 0.917474 1.38462 0
M  V30 8173 O 764.324 1.18513 1.4953 0
M  V30 8174 C 761.464 2.48566 2.39393 0
M  V30 8175 C 760.577 3.74122 2.16001 0
M  V30 8176 C 759.712 4.07786 3.40418 0
M  V30 8177 C 758.751 5.26383 3.1239 0
M  V30 8178 N 757.888 5.55685 4.29138 0
M  V30 8179 H 762.728 2.90043 0.684018 0
M  V30 8180 H 760.265 1.43438 0.326183 0
M  V30 8181 H 762.223 2.72639 3.15791 0
M  V30 8182 H 760.853 1.65186 2.77333 0
M  V30 8183 H 759.905 3.57389 1.30296 0
M  V30 8184 H 761.217 4.60659 1.91298 0
M  V30 8185 H 760.371 4.32759 4.25211 0
M  V30 8186 H 759.11 3.19817 3.68197 0
M  V30 8187 H 758.115 5.01206 2.25993 0
M  V30 8188 H 759.34 6.1597 2.85934 0
M  V30 8189 H 757.286 4.70675 4.56948 0
M  V30 8190 H 757.203 6.3664 4.07708 0
M  V30 8191 H 758.471 5.85209 5.14928 0
M  V30 8192 N 762.7 -0.34323 1.53817 0
M  V30 8193 C 763.647 -1.42153 1.81827 0
M  V30 8194 C 764.617 -1.52251 0.663996 0
M  V30 8195 O 765.802 -1.67784 0.908461 0
M  V30 8196 C 762.942 -2.78799 2.03384 0
M  V30 8197 C 762.055 -2.7749 3.31094 0
M  V30 8198 C 761.19 -4.05856 3.42717 0
M  V30 8199 C 760.229 -3.98776 4.64375 0
M  V30 8200 N 759.366 -5.18833 4.73029 0
M  V30 8201 H 764.206 -1.17567 2.73829 0
M  V30 8202 H 761.743 -0.569506 1.35628 0
M  V30 8203 H 763.701 -3.58211 2.13872 0
M  V30 8204 H 762.331 -3.01736 1.14696 0
M  V30 8205 H 761.383 -1.90182 3.29446 0
M  V30 8206 H 762.695 -2.68137 4.206 0
M  V30 8207 H 761.849 -4.93691 3.52638 0
M  V30 8208 H 760.588 -4.1799 2.51267 0
M  V30 8209 H 759.593 -3.09325 4.5453 0
M  V30 8210 H 760.818 -3.88224 5.57189 0
M  V30 8211 H 758.764 -5.31511 3.84489 0
M  V30 8212 H 758.681 -5.11737 5.56472 0
M  V30 8213 H 759.949 -6.08439 4.87261 0
M  V30 8214 N 764.178 -1.45556 -0.604258 0
M  V30 8215 C 765.128 -1.50906 -1.70913 0
M  V30 8216 C 766.112 -0.371996 -1.56541 0
M  V30 8217 O 767.304 -0.619064 -1.65821 0
M  V30 8218 C 764.433 -1.48181 -3.09673 0
M  V30 8219 C 763.519 -2.67102 -3.2942 0
M  V30 8220 N 763.91 -3.92184 -3.19414 0
M  V30 8221 C 762.208 -2.6287 -3.60299 0
M  V30 8222 C 762.909 -4.71571 -3.40581 0
M  V30 8223 N 761.885 -4.03081 -3.64728 0
M  V30 8224 H 765.687 -2.45435 -1.61675 0
M  V30 8225 H 763.201 -1.40894 -0.807622 0
M  V30 8226 H 765.198 -1.501 -3.88942 0
M  V30 8227 H 763.858 -0.54712 -3.20057 0
M  V30 8228 H 764.869 -4.23756 -2.97743 0
M  V30 8229 H 761.546 -1.78324 -3.77501 0
M  V30 8230 H 762.936 -5.80571 -3.38211 0
M  V30 8231 N 765.656 0.84705 -1.32902 0
M  V30 8232 C 766.588 1.96308 -1.18304 0
M  V30 8233 C 767.601 1.62386 -0.116082 0
M  V30 8234 O 768.79 1.74713 -0.365751 0
M  V30 8235 C 765.89 3.29556 -0.790305 0
M  V30 8236 C 765.063 3.91668 -1.94717 0
M  V30 8237 C 764.122 5.0326 -1.53674 0
M  V30 8238 O 763.148 5.22847 -2.24989 0
M  V30 8239 N 764.35 5.78852 -0.437075 0
M  V30 8240 H 767.115 2.09369 -2.14441 0
M  V30 8241 H 764.676 1.02233 -1.25539 0
M  V30 8242 H 766.668 4.01624 -0.49799 0
M  V30 8243 H 765.238 3.12497 0.0801286 0
M  V30 8244 H 764.458 3.12292 -2.40557 0
M  V30 8245 H 765.746 4.299 -2.72146 0
M  V30 8246 H 765.144 5.65484 0.156316 0
M  V30 8247 H 763.701 6.51479 -0.204399 0
M  V30 8248 N 767.134 1.16236 1.06428 0
M  V30 8249 C 768.097 0.870163 2.1204 0
M  V30 8250 C 769.097 -0.134239 1.60239 0
M  V30 8251 O 770.287 0.0964932 1.73933 0
M  V30 8252 C 767.419 0.301033 3.39568 0
M  V30 8253 H 768.612 1.8064 2.39394 0
M  V30 8254 H 766.165 0.971116 1.2247 0
M  V30 8255 H 766.9 -0.642948 3.17863 0
M  V30 8256 H 766.685 1.02475 3.78472 0
M  V30 8257 H 768.175 0.114494 4.17443 0
M  V30 8258 N 768.612 -1.24939 0.960631 0
M  V30 8259 C 769.575 -2.239 0.49006 0
M  V30 8260 C 770.575 -1.55497 -0.409535 0
M  V30 8261 O 771.765 -1.72978 -0.205984 0
M  V30 8262 C 768.897 -3.39654 -0.291193 0
M  V30 8263 H 770.09 -2.67044 1.36482 0
M  V30 8264 H 767.643 -1.37429 0.744505 0
M  V30 8265 H 768.378 -3.01939 -1.18336 0
M  V30 8266 H 768.163 -3.90496 0.354276 0
M  V30 8267 H 769.653 -4.13125 -0.609693 0
M  V30 8268 N 770.09 -0.729906 -1.39679 0
M  V30 8269 C 771.023 -0.0354454 -2.28172 0
M  V30 8270 C 772.001 0.752968 -1.44115 0
M  V30 8271 O 773.185 0.736599 -1.73512 0
M  V30 8272 C 770.312 0.957047 -3.24897 0
M  V30 8273 C 769.358 0.257734 -4.25721 0
M  V30 8274 S 770.191 -1.02466 -5.25605 0
M  V30 8275 C 771.347 -0.0346322 -6.2589 0
M  V30 8276 H 771.58 -0.785922 -2.86724 0
M  V30 8277 H 769.113 -0.521497 -1.45326 0
M  V30 8278 H 771.071 1.52441 -3.81146 0
M  V30 8279 H 769.732 1.68033 -2.65375 0
M  V30 8280 H 768.925 1.00854 -4.93806 0
M  V30 8281 H 768.527 -0.237454 -3.73245 0
M  V30 8282 H 770.819 0.807464 -6.72671 0
M  V30 8283 H 771.762 -0.682491 -7.04803 0
M  V30 8284 H 772.17 0.335492 -5.63502 0
M  V30 8285 N 771.568 1.50203 -0.477153 0
M  V30 8286 C 772.478 2.32421 0.319027 0
M  V30 8287 C 773.494 1.43075 0.990233 0
M  V30 8288 O 774.67 1.76123 0.976873 0
M  V30 8289 C 771.735 3.17909 1.38328 0
M  V30 8290 C 770.796 4.23082 0.728036 0
M  V30 8291 C 770.029 5.04484 1.74158 0
M  V30 8292 O 770.252 4.8705 2.96881 0
M  V30 8293 O 769.186 5.8747 1.31006 0
M  V30 8294 H 773.012 3.01638 -0.353281 0
M  V30 8295 H 770.597 1.47478 -0.238891 0
M  V30 8296 H 772.479 3.70937 1.9996 0
M  V30 8297 H 771.154 2.51413 2.03895 0
M  V30 8298 H 770.061 3.7403 0.07261 0
M  V30 8299 H 771.394 4.92065 0.115216 0
M  V30 8300 N 773.046 0.209999 1.56195 0
M  V30 8301 C 773.993 -0.704854 2.19774 0
M  V30 8302 C 774.963 -1.19886 1.14964 0
M  V30 8303 O 776.148 -1.26005 1.43274 0
M  V30 8304 C 773.288 -1.91241 2.87265 0
M  V30 8305 C 772.401 -1.45838 4.06639 0
M  V30 8306 C 771.536 -2.6226 4.61945 0
M  V30 8307 C 770.575 -2.13537 5.73645 0
M  V30 8308 N 769.712 -3.2319 6.23292 0
M  V30 8309 H 774.552 -0.155944 2.97592 0
M  V30 8310 H 772.089 -0.0652235 1.46955 0
M  V30 8311 H 774.047 -2.62123 3.24573 0
M  V30 8312 H 772.677 -2.43439 2.11985 0
M  V30 8313 H 771.729 -0.644897 3.74894 0
M  V30 8314 H 773.041 -1.06103 4.87384 0
M  V30 8315 H 772.195 -3.41243 5.01636 0
M  V30 8316 H 770.934 -3.05278 3.80338 0
M  V30 8317 H 769.939 -1.33013 5.33468 0
M  V30 8318 H 771.164 -1.71533 6.57079 0
M  V30 8319 H 769.11 -3.65711 5.44602 0
M  V30 8320 H 769.027 -2.8767 6.99129 0
M  V30 8321 H 770.295 -4.02342 6.67639 0
M  V30 8322 N 774.524 -1.57472 -0.0634922 0
M  V30 8323 C 775.434 -2.07621 -1.09227 0
M  V30 8324 C 776.45 -1.00746 -1.41867 0
M  V30 8325 O 777.626 -1.32269 -1.51878 0
M  V30 8326 C 774.691 -2.51707 -2.38421 0
M  V30 8327 C 773.752 -3.72917 -2.12676 0
M  V30 8328 C 772.985 -4.14891 -3.3571 0
M  V30 8329 O 773.208 -3.56663 -4.45137 0
M  V30 8330 O 772.142 -5.07616 -3.23434 0
M  V30 8331 H 775.968 -2.95612 -0.696205 0
M  V30 8332 H 773.553 -1.46787 -0.27819 0
M  V30 8333 H 775.435 -2.80547 -3.14438 0
M  V30 8334 H 774.11 -1.66842 -2.77391 0
M  V30 8335 H 773.017 -3.49148 -1.34337 0
M  V30 8336 H 774.35 -4.5866 -1.78583 0
M  V30 8337 N 776.003 0.335068 -1.53997 0
M  V30 8338 C 776.966 1.39481 -1.81872 0
M  V30 8339 C 777.966 1.4524 -0.690078 0
M  V30 8340 O 779.156 1.45467 -0.958377 0
M  V30 8341 C 776.288 2.78329 -1.9684 0
M  V30 8342 H 777.481 1.16024 -2.76547 0
M  V30 8343 H 775.034 0.569926 -1.45539 0
M  V30 8344 H 775.769 3.07058 -1.04337 0
M  V30 8345 H 775.554 2.75544 -2.78958 0
M  V30 8346 H 777.044 3.55016 -2.19894 0
M  V30 8347 N 777.481 1.45874 0.596531 0
M  V30 8348 C 778.428 1.55389 1.70655 0
M  V30 8349 C 779.398 0.399036 1.61236 0
M  V30 8350 O 780.583 0.61396 1.80652 0
M  V30 8351 C 777.723 1.53705 3.0898 0
M  V30 8352 C 776.836 2.79823 3.29125 0
M  V30 8353 C 775.971 2.69735 4.5762 0
M  V30 8354 C 775.01 3.90856 4.71061 0
M  V30 8355 N 774.147 3.79237 5.90867 0
M  V30 8356 H 778.987 2.50211 1.61859 0
M  V30 8357 H 776.524 1.24146 0.789069 0
M  V30 8358 H 778.482 1.50715 3.89026 0
M  V30 8359 H 777.112 0.624247 3.16706 0
M  V30 8360 H 776.164 2.92852 2.42779 0
M  V30 8361 H 777.476 3.69628 3.34927 0
M  V30 8362 H 776.63 2.64773 5.45875 0
M  V30 8363 H 775.369 1.77547 4.54234 0
M  V30 8364 H 774.374 3.96164 3.81227 0
M  V30 8365 H 775.599 4.84124 4.76236 0
M  V30 8366 H 773.545 2.89825 5.88504 0
M  V30 8367 H 773.462 4.62686 5.97877 0
M  V30 8368 H 774.73 3.78227 6.8159 0
M  V30 8369 N 778.959 -0.83999 1.33349 0
M  V30 8370 C 780.205 -1.59753 1.24927 0
M  V30 8371 C 780.538 -1.93318 -0.184855 0
M  V30 8372 O 779.813 -1.586 -1.12589 0
M  V30 8373 C 780.096 -2.90829 2.12345 0
M  V30 8374 C 779.949 -2.63953 3.6421 0
M  V30 8375 C 781.268 -3.92246 1.99577 0
M  V30 8376 H 778.387 -0.579654 0.45516 0
M  V30 8377 H 781.029 -0.968909 1.63439 0
M  V30 8378 H 779.179 -3.44478 1.79631 0
M  V30 8379 H 780.851 -2.16745 4.07209 0
M  V30 8380 H 779.094 -1.97671 3.86146 0
M  V30 8381 H 779.765 -3.57348 4.20721 0
M  V30 8382 H 782.241 -3.479 2.28265 0
M  V30 8383 H 781.117 -4.81793 2.62996 0
M  V30 8384 H 781.378 -4.3138 0.967673 0
M  V30 8385 N 780.437 -1.16799 -1.0581 0
M  V30 8386 C 781.37 -0.822491 -2.12862 0
M  V30 8387 C 782.348 0.208006 -1.61264 0
M  V30 8388 O 783.532 0.0909652 -1.8828 0
M  V30 8389 C 780.659 -0.225826 -3.37946 0
M  V30 8390 C 779.705 -1.23071 -4.08357 0
M  V30 8391 S 780.538 -2.77944 -4.5772 0
M  V30 8392 C 781.694 -2.19741 -5.86059 0
M  V30 8393 H 781.927 -1.72917 -2.41841 0
M  V30 8394 H 779.46 -0.991982 -1.18318 0
M  V30 8395 H 781.418 0.111955 -4.10347 0
M  V30 8396 H 780.079 0.658692 -3.07116 0
M  V30 8397 H 779.272 -0.761758 -4.9821 0
M  V30 8398 H 778.874 -1.51383 -3.41993 0
M  V30 8399 H 781.166 -1.5691 -6.59079 0
M  V30 8400 H 782.109 -3.07823 -6.37692 0
M  V30 8401 H 782.517 -1.63433 -5.40324 0
M  V30 8402 N 781.915 1.24427 -0.967243 0
M  V30 8403 C 783.14 1.9708 -0.646069 0
M  V30 8404 C 783.565 1.71272 0.777665 0
M  V30 8405 O 782.923 0.976179 1.52776 0
M  V30 8406 C 782.971 3.48501 -0.926266 0
M  V30 8407 O 782.075 4.12398 -0.0114653 0
M  V30 8408 H 781.416 0.617423 -0.244304 0
M  V30 8409 H 783.946 1.58215 -1.29727 0
M  V30 8410 H 783.956 3.98885 -0.857619 0
M  V30 8411 H 782.631 3.66613 -1.96386 0
M  V30 8412 H 781.208 3.72661 -0.133396 0
M  V30 8413 N 783.393 0.737304 1.3929 0
M  V30 8414 C 784.341 0.0879867 2.32434 0
M  V30 8415 C 785.335 -0.723324 1.53181 0
M  V30 8416 O 786.541 -0.624251 1.68829 0
M  V30 8417 H 782.916 0.00965277 0.751938 0
M  V30 8418 H 784.887 0.889915 2.84821 0
M  V30 8419 C 783.636 -0.803384 3.38291 0
M  V30 8420 H 782.959 -0.18849 3.99355 0
M  V30 8421 H 784.399 -1.22528 4.0591 0
M  V30 8422 C 782.858 -1.93872 2.75527 0
M  V30 8423 O 783.388 -3.03154 2.63553 0
M  V30 8424 N 781.594 -1.72883 2.3358 0
M  V30 8425 H 781.141 -0.840005 2.43519 0
M  V30 8426 H 781.099 -2.49021 1.91927 0
M  V30 8427 N 784.871 -1.49948 0.485112 0
M  V30 8428 C 785.781 -2.32587 -0.306697 0
M  V30 8429 C 786.797 -1.43598 -0.982632 0
M  V30 8430 O 787.973 -1.76638 -0.967519 0
M  V30 8431 C 785.038 -3.18638 -1.3664 0
M  V30 8432 C 784.099 -4.23462 -0.705589 0
M  V30 8433 C 783.332 -5.05401 -1.7148 0
M  V30 8434 O 783.555 -4.88618 -2.94293 0
M  V30 8435 O 782.489 -5.88157 -1.27889 0
M  V30 8436 H 786.315 -3.01447 0.369272 0
M  V30 8437 H 783.9 -1.47349 0.246709 0
M  V30 8438 H 785.782 -3.71992 -1.9799 0
M  V30 8439 H 784.457 -2.52491 -2.02559 0
M  V30 8440 H 783.364 -3.74063 -0.0527733 0
M  V30 8441 H 784.697 -4.92119 -0.0891187 0
M  V30 8442 N 786.349 -0.21828 -1.56081 0
M  V30 8443 C 787.259 0.704602 -2.23769 0
M  V30 8444 C 788.275 1.21633 -1.24425 0
M  V30 8445 O 789.451 1.25862 -1.57228 0
M  V30 8446 C 786.516 1.89725 -2.90182 0
M  V30 8447 C 785.577 1.42782 -4.0486 0
M  V30 8448 C 784.81 2.56361 -4.68097 0
M  V30 8449 O 785.033 3.74417 -4.30312 0
M  V30 8450 O 783.967 2.2775 -5.57148 0
M  V30 8451 H 787.793 0.158007 -3.03289 0
M  V30 8452 H 785.378 0.0120279 -1.49395 0
M  V30 8453 H 787.26 2.59382 -3.32113 0
M  V30 8454 H 785.935 2.432 -2.13624 0
M  V30 8455 H 784.842 0.699359 -3.67505 0
M  V30 8456 H 786.175 0.939474 -4.83151 0
M  V30 8457 N 787.827 1.57504 0.0551401 0
M  V30 8458 C 788.774 2.04825 1.06373 0
M  V30 8459 C 789.744 0.932108 1.37481 0
M  V30 8460 O 790.929 1.20093 1.48265 0
M  V30 8461 C 788.069 2.51091 2.36743 0
M  V30 8462 C 787.182 3.76392 2.12021 0
M  V30 8463 C 786.317 4.11373 3.36074 0
M  V30 8464 C 785.356 5.29666 3.0679 0
M  V30 8465 N 784.493 5.60205 4.2322 0
M  V30 8466 H 789.333 2.90753 0.653216 0
M  V30 8467 H 786.87 1.43776 0.310951 0
M  V30 8468 H 788.828 2.75973 3.12881 0
M  V30 8469 H 787.458 1.68118 2.75565 0
M  V30 8470 H 786.51 3.58751 1.26498 0
M  V30 8471 H 787.822 4.62662 1.86401 0
M  V30 8472 H 786.976 4.37245 4.20597 0
M  V30 8473 H 785.715 3.23704 3.64784 0
M  V30 8474 H 784.72 5.03574 2.20664 0
M  V30 8475 H 785.945 6.18968 2.79385 0
M  V30 8476 H 783.891 4.75495 4.5193 0
M  V30 8477 H 783.808 6.40928 4.00933 0
M  V30 8478 H 785.076 5.90637 5.08692 0
M  V30 8479 N 789.305 -0.326896 1.54172 0
M  V30 8480 C 790.252 -1.40216 1.83325 0
M  V30 8481 C 791.222 -1.51538 0.680107 0
M  V30 8482 O 792.407 -1.66811 0.926206 0
M  V30 8483 C 789.547 -2.76626 2.0633 0
M  V30 8484 C 788.66 -2.73963 3.34019 0
M  V30 8485 C 787.795 -4.02198 3.47002 0
M  V30 8486 C 786.834 -3.93828 4.68578 0
M  V30 8487 N 785.971 -5.13787 4.78506 0
M  V30 8488 H 790.811 -1.14656 2.7506 0
M  V30 8489 H 788.348 -0.555089 1.36225 0
M  V30 8490 H 790.306 -3.55922 2.17659 0
M  V30 8491 H 788.936 -3.00503 1.1789 0
M  V30 8492 H 787.988 -1.86677 3.31445 0
M  V30 8493 H 789.3 -2.6366 4.2342 0
M  V30 8494 H 788.454 -4.89923 3.57855 0
M  V30 8495 H 787.193 -4.15302 2.55687 0
M  V30 8496 H 786.198 -3.04487 4.57786 0
M  V30 8497 H 787.423 -3.82292 5.61275 0
M  V30 8498 H 785.369 -5.27403 3.90105 0
M  V30 8499 H 785.286 -5.05807 5.61868 0
M  V30 8500 H 786.554 -6.03236 4.93686 0
M  V30 8501 N 790.784 -1.46188 -0.588786 0
M  V30 8502 C 792.031 -1.51184 -1.34721 0
M  V30 8503 C 792.359 -0.161084 -1.93832 0
M  V30 8504 O 791.614 0.842557 -1.76634 0
M  V30 8505 C 791.913 -2.55364 -2.50048 0
M  V30 8506 C 791.579 -3.99553 -2.08969 0
M  V30 8507 C 790.241 -4.38811 -1.9748 0
M  V30 8508 C 792.593 -4.90156 -1.77191 0
M  V30 8509 C 789.921 -5.66544 -1.52463 0
M  V30 8510 C 792.273 -6.1832 -1.33654 0
M  V30 8511 C 790.937 -6.5649 -1.20738 0
M  V30 8512 H 790.207 -0.55322 -0.49298 0
M  V30 8513 H 792.854 -1.79634 -0.663627 0
M  V30 8514 H 791.159 -2.20552 -3.23827 0
M  V30 8515 H 792.856 -2.5646 -3.08268 0
M  V30 8516 H 789.446 -3.68518 -2.18843 0
M  V30 8517 H 793.63 -4.60549 -1.84955 0
M  V30 8518 H 788.886 -5.94895 -1.411 0
M  V30 8519 H 793.06 -6.87956 -1.08117 0
M  V30 8520 H 790.687 -7.55362 -0.856307 0
M  V30 8521 N 792.262 0.832906 -1.33792 0
M  V30 8522 C 793.194 1.95042 -1.2038 0
M  V30 8523 C 794.207 1.62253 -0.133299 0
M  V30 8524 O 795.396 1.74315 -0.384261 0
M  V30 8525 C 792.496 3.287 -0.825215 0
M  V30 8526 C 791.669 3.89581 -1.98861 0
M  V30 8527 C 790.728 5.01602 -1.59003 0
M  V30 8528 O 789.754 5.20431 -2.30522 0
M  V30 8529 N 790.956 5.78356 -0.498446 0
M  V30 8530 H 793.721 2.07083 -2.16649 0
M  V30 8531 H 791.282 1.00896 -1.26616 0
M  V30 8532 H 793.274 4.01074 -0.540559 0
M  V30 8533 H 791.844 3.12565 0.0469796 0
M  V30 8534 H 791.064 3.09723 -2.43856 0
M  V30 8535 H 792.352 4.26989 -2.76691 0
M  V30 8536 H 791.75 5.65618 0.0963297 0
M  V30 8537 H 790.307 6.51226 -0.273485 0
M  V30 8538 N 793.74 1.17359 1.05189 0
M  V30 8539 C 794.672 0.848078 2.12933 0
M  V30 8540 C 795.685 -0.149521 1.62112 0
M  V30 8541 O 796.874 0.0767797 1.78335 0
M  V30 8542 C 793.974 0.243889 3.38021 0
M  V30 8543 C 793.147 1.28436 4.18118 0
M  V30 8544 C 792.206 0.697926 5.21551 0
M  V30 8545 O 791.232 1.36973 5.52473 0
M  V30 8546 N 792.434 -0.510024 5.78255 0
M  V30 8547 H 795.199 1.7754 2.41453 0
M  V30 8548 H 792.76 1.07244 1.21286 0
M  V30 8549 H 794.752 -0.161727 4.04377 0
M  V30 8550 H 793.322 -0.58722 3.07035 0
M  V30 8551 H 792.542 1.86573 3.47252 0
M  V30 8552 H 793.83 1.98617 4.68432 0
M  V30 8553 H 793.228 -1.07378 5.55416 0
M  V30 8554 H 791.785 -0.857705 6.46132 0
M  V30 8555 N 795.218 -1.23913 0.973828 0
M  V30 8556 C 796.168 -2.22892 0.479933 0
M  V30 8557 C 797.152 -1.54726 -0.441434 0
M  V30 8558 O 798.344 -1.74908 -0.271358 0
M  V30 8559 C 795.473 -3.42577 -0.222702 0
M  V30 8560 C 794.559 -4.17981 0.717851 0
M  V30 8561 N 794.95 -4.7045 1.8577 0
M  V30 8562 C 793.248 -4.42841 0.529858 0
M  V30 8563 C 793.949 -5.27751 2.44651 0
M  V30 8564 N 792.925 -5.15302 1.73104 0
M  V30 8565 H 796.727 -2.61083 1.34956 0
M  V30 8566 H 794.241 -1.39368 0.83368 0
M  V30 8567 H 796.238 -4.1265 -0.593793 0
M  V30 8568 H 794.898 -3.05904 -1.0887 0
M  V30 8569 H 795.909 -4.66997 2.23908 0
M  V30 8570 H 792.586 -4.1648 -0.291664 0
M  V30 8571 H 793.976 -5.79011 3.40875 0
M  V30 8572 N 796.696 -0.74468 -1.38897 0
M  V30 8573 C 797.945 -0.293716 -1.9955 0
M  V30 8574 C 798.258 1.12831 -1.59777 0
M  V30 8575 O 799.464 1.67929 -2.13336 0
M  V30 8576 C 797.92 -0.474188 -3.56762 0
M  V30 8577 C 797.528 -1.90472 -4.05493 0
M  V30 8578 C 799.272 -0.0854875 -4.24414 0
M  V30 8579 C 797.179 -2.03423 -5.55314 0
M  V30 8580 H 796.109 -0.106066 -0.746502 0
M  V30 8581 H 798.76 -0.919948 -1.58774 0
M  V30 8582 H 797.142 0.221092 -3.95382 0
M  V30 8583 H 798.316 -2.63274 -3.78184 0
M  V30 8584 H 796.631 -2.24752 -3.50536 0
M  V30 8585 H 799.228 -0.161133 -5.34457 0
M  V30 8586 H 799.571 0.96066 -4.05064 0
M  V30 8587 H 800.104 -0.732286 -3.91002 0
M  V30 8588 H 796.843 -3.0626 -5.79556 0
M  V30 8589 H 796.363 -1.3507 -5.84394 0
M  V30 8590 H 798.042 -1.81996 -6.20876 0
M  V30 8591 N 798.174 1.49689 -0.493057 0
M  V30 8592 C 799.106 2.26867 0.326195 0
M  V30 8593 C 800.119 1.33083 0.937697 0
M  V30 8594 O 801.308 1.58427 0.822382 0
M  V30 8595 C 798.408 3.0519 1.4735 0
M  V30 8596 C 797.581 4.26491 0.970767 0
M  V30 8597 C 796.64 4.86926 1.99473 0
M  V30 8598 O 795.666 5.47221 1.56647 0
M  V30 8599 N 796.868 4.75871 3.32456 0
M  V30 8600 H 799.633 2.97816 -0.335547 0
M  V30 8601 H 797.194 1.58602 -0.325129 0
M  V30 8602 H 799.186 3.42496 2.15589 0
M  V30 8603 H 797.756 2.369 2.03954 0
M  V30 8604 H 796.976 3.94036 0.113529 0
M  V30 8605 H 798.264 5.05092 0.613156 0
M  V30 8606 H 797.662 4.2797 3.69944 0
M  V30 8607 H 796.219 5.17383 3.96431 0
M  V30 8608 N 799.652 0.226554 1.55963 0
M  V30 8609 C 800.615 -0.668015 2.19249 0
M  V30 8610 C 801.615 -1.11794 1.1558 0
M  V30 8611 O 802.805 -1.02593 1.40784 0
M  V30 8612 C 799.937 -1.91571 2.81981 0
M  V30 8613 H 801.13 -0.116175 2.99675 0
M  V30 8614 H 798.683 -0.0230497 1.56283 0
M  V30 8615 H 799.418 -2.50929 2.05439 0
M  V30 8616 H 799.203 -1.6015 3.57903 0
M  V30 8617 H 800.693 -2.55294 3.30477 0
M  V30 8618 N 801.13 -1.57531 -0.0467866 0
M  V30 8619 C 802.062 -2.02156 -1.08007 0
M  V30 8620 C 803.075 -0.931434 -1.33522 0
M  V30 8621 O 804.264 -1.209 -1.31321 0
M  V30 8622 C 801.364 -2.36675 -2.42566 0
M  V30 8623 C 800.537 -3.67848 -2.36658 0
M  V30 8624 C 799.596 -3.89754 -3.53523 0
M  V30 8625 O 798.622 -4.61036 -3.33818 0
M  V30 8626 N 799.824 -3.34025 -4.74771 0
M  V30 8627 H 802.589 -2.91414 -0.699845 0
M  V30 8628 H 800.15 -1.60185 -0.235041 0
M  V30 8629 H 802.142 -2.48482 -3.19435 0
M  V30 8630 H 800.712 -1.53178 -2.72498 0
M  V30 8631 H 799.932 -3.66561 -1.45005 0
M  V30 8632 H 801.22 -4.53931 -2.29835 0
M  V30 8633 H 800.618 -2.76214 -4.93683 0
M  V30 8634 H 799.175 -3.51241 -5.49066 0
M  V30 8635 N 802.608 0.318715 -1.54344 0
M  V30 8636 C 803.54 1.41364 -1.80413 0
M  V30 8637 C 804.553 1.47627 -0.686294 0
M  V30 8638 O 805.742 1.50264 -0.963486 0
M  V30 8639 C 802.842 2.79867 -1.91123 0
M  V30 8640 C 802.015 2.96749 -3.21339 0
M  V30 8641 C 801.074 4.15642 -3.22689 0
M  V30 8642 O 800.1 4.08571 -3.96306 0
M  V30 8643 N 801.302 5.25416 -2.46817 0
M  V30 8644 H 804.067 1.19363 -2.74905 0
M  V30 8645 H 801.628 0.508722 -1.537 0
M  V30 8646 H 803.62 3.57619 -1.89448 0
M  V30 8647 H 802.19 2.94896 -1.03706 0
M  V30 8648 H 801.41 2.06257 -3.35934 0
M  V30 8649 H 802.698 3.04927 -4.07304 0
M  V30 8650 H 802.096 5.34037 -1.86605 0
M  V30 8651 H 800.653 6.01569 -2.50915 0
M  V30 8652 N 804.086 1.46499 0.581025 0
M  V30 8653 C 805.033 1.5719 1.68997 0
M  V30 8654 C 806.003 0.416114 1.60803 0
M  V30 8655 O 807.188 0.633086 1.79991 0
M  V30 8656 C 804.328 1.56973 3.07333 0
M  V30 8657 C 803.441 2.83298 3.26139 0
M  V30 8658 C 802.576 2.74574 4.54734 0
M  V30 8659 C 801.615 3.9583 4.66889 0
M  V30 8660 N 800.752 3.85482 5.86811 0
M  V30 8661 H 805.592 2.51914 1.59196 0
M  V30 8662 H 803.129 1.24975 0.775857 0
M  V30 8663 H 805.087 1.54832 3.87405 0
M  V30 8664 H 803.717 0.657803 3.16027 0
M  V30 8665 H 802.769 2.95411 2.3966 0
M  V30 8666 H 804.081 3.7316 3.30988 0
M  V30 8667 H 803.235 2.70548 5.43036 0
M  V30 8668 H 801.974 1.82354 4.52325 0
M  V30 8669 H 800.979 4.00186 3.77003 0
M  V30 8670 H 802.204 4.89148 4.71075 0
M  V30 8671 H 800.15 2.96051 5.85397 0
M  V30 8672 H 800.067 4.69002 5.92936 0
M  V30 8673 H 801.335 3.85434 6.7754 0
M  V30 8674 N 805.565 -0.825799 1.34232 0
M  V30 8675 C 806.512 -1.93651 1.2557 0
M  V30 8676 C 807.482 -1.65578 0.131536 0
M  V30 8677 O 808.667 -1.88231 0.312027 0
M  V30 8678 C 805.807 -3.29862 1.01415 0
M  V30 8679 C 804.92 -3.70247 2.22579 0
M  V30 8680 C 804.055 -4.95392 1.91731 0
M  V30 8681 C 803.094 -5.28349 3.09053 0
M  V30 8682 N 802.231 -6.44671 2.78107 0
M  V30 8683 H 807.071 -2.00392 2.20561 0
M  V30 8684 H 804.608 -0.980441 1.09662 0
M  V30 8685 H 806.566 -4.08356 0.854485 0
M  V30 8686 H 805.196 -3.22642 0.100936 0
M  V30 8687 H 804.248 -2.87169 2.49476 0
M  V30 8688 H 805.56 -3.90575 3.10246 0
M  V30 8689 H 804.714 -5.81665 1.72484 0
M  V30 8690 H 803.453 -4.77059 1.0132 0
M  V30 8691 H 802.458 -4.40574 3.289 0
M  V30 8692 H 803.683 -5.48622 4.00239 0
M  V30 8693 H 801.629 -6.278 1.9027 0
M  V30 8694 H 801.546 -6.65158 3.59306 0
M  V30 8695 H 802.814 -7.34022 2.62358 0
M  V30 8696 N 807.043 -1.17915 -1.04565 0
M  V30 8697 C 807.953 -0.916449 -2.15959 0
M  V30 8698 C 808.969 0.117655 -1.73602 0
M  V30 8699 O 810.145 -0.063089 -2.01301 0
M  V30 8700 C 807.21 -0.440262 -3.43893 0
M  V30 8701 C 806.271 -1.54172 -4.00661 0
M  V30 8702 C 805.504 -1.08816 -5.22489 0
M  V30 8703 O 805.727 0.0551547 -5.70373 0
M  V30 8704 O 804.661 -1.88383 -5.7166 0
M  V30 8705 H 808.487 -1.8484 -2.40972 0
M  V30 8706 H 806.072 -0.960552 -1.14428 0
M  V30 8707 H 807.954 -0.182537 -4.21004 0
M  V30 8708 H 806.629 0.46346 -3.20365 0
M  V30 8709 H 805.536 -1.85341 -3.24961 0
M  V30 8710 H 806.869 -2.42139 -4.2852 0
M  V30 8711 N 808.521 1.23394 -0.980386 0
M  V30 8712 C 809.451 2.2717 -0.540024 0
M  V30 8713 C 810.432 1.64659 0.426787 0
M  V30 8714 O 811.617 1.91543 0.320153 0
M  V30 8715 C 808.747 3.46939 0.15836 0
M  V30 8716 C 807.701 4.21802 -0.725732 0
M  V30 8717 C 807.027 5.34597 0.104866 0
M  V30 8718 C 808.327 4.81802 -2.01654 0
M  V30 8719 H 810.021 2.64257 -1.40743 0
M  V30 8720 H 807.567 1.2703 -0.678193 0
M  V30 8721 H 809.52 4.18683 0.477737 0
M  V30 8722 H 808.244 3.08912 1.06022 0
M  V30 8723 H 806.903 3.51875 -1.02857 0
M  V30 8724 H 806.551 4.92812 1.00726 0
M  V30 8725 H 806.251 5.85607 -0.483557 0
M  V30 8726 H 807.775 6.09163 0.418624 0
M  V30 8727 H 809.189 5.45554 -1.76193 0
M  V30 8728 H 807.586 5.43098 -2.55273 0
M  V30 8729 H 808.656 4.02549 -2.70338 0
M  V30 8730 N 809.999 0.752036 1.385 0
M  V30 8731 C 810.947 0.112634 2.32327 0
M  V30 8732 C 811.941 -0.707037 1.53939 0
M  V30 8733 O 813.147 -0.606309 1.69481 0
M  V30 8734 H 809.522 0.0176275 0.751793 0
M  V30 8735 H 811.493 0.920074 2.83861 0
M  V30 8736 C 810.242 -0.767458 3.39124 0
M  V30 8737 H 809.565 -0.146122 3.99533 0
M  V30 8738 H 811.005 -1.18216 4.07187 0
M  V30 8739 C 809.464 -1.90938 2.77568 0
M  V30 8740 O 809.994 -3.00342 2.66754 0
M  V30 8741 N 808.2 -1.70396 2.35401 0
M  V30 8742 H 807.747 -0.81413 2.44397 0
M  V30 8743 H 807.705 -2.46972 1.94557 0
M  V30 8744 N 811.477 -1.49425 0.500989 0
M  V30 8745 C 812.702 -2.07356 -0.0425154 0
M  V30 8746 C 813.127 -1.35887 -1.30063 0
M  V30 8747 O 812.485 -0.41561 -1.76472 0
M  V30 8748 C 812.533 -3.59518 -0.279188 0
M  V30 8749 O 811.637 -3.89542 -1.3539 0
M  V30 8750 H 810.978 -0.663482 0.0262207 0
M  V30 8751 H 813.508 -1.92231 0.700607 0
M  V30 8752 H 813.518 -4.04791 -0.5107 0
M  V30 8753 H 812.193 -4.10946 0.640009 0
M  V30 8754 H 810.77 -3.56079 -1.10734 0
M  V30 8755 N 812.955 -0.234822 -1.55841 0
M  V30 8756 C 814.202 0.39326 -1.98645 0
M  V30 8757 C 814.53 1.58823 -1.12274 0
M  V30 8758 O 813.785 1.94954 -0.170731 0
M  V30 8759 C 814.084 0.858032 -3.46947 0
M  V30 8760 C 813.75 -0.227858 -4.50324 0
M  V30 8761 C 812.412 -0.526128 -4.78315 0
M  V30 8762 C 814.764 -0.961576 -5.12253 0
M  V30 8763 C 812.092 -1.5624 -5.65514 0
M  V30 8764 C 814.444 -1.98728 -6.00575 0
M  V30 8765 C 813.108 -2.29233 -6.26904 0
M  V30 8766 H 812.378 0.143904 -0.726892 0
M  V30 8767 H 815.025 -0.34012 -1.88455 0
M  V30 8768 H 813.33 1.67041 -3.54408 0
M  V30 8769 H 815.027 1.35407 -3.77447 0
M  V30 8770 H 811.617 0.0147624 -4.28597 0
M  V30 8771 H 815.801 -0.744388 -4.90686 0
M  V30 8772 H 811.057 -1.80422 -5.84173 0
M  V30 8773 H 815.231 -2.5608 -6.47608 0
M  V30 8774 H 812.858 -3.09671 -6.94268 0
M  V30 8775 N 814.433 1.57553 0.0384317 0
M  V30 8776 C 815.363 2.0898 1.04161 0
M  V30 8777 C 816.344 0.99029 1.38301 0
M  V30 8778 O 817.529 1.26499 1.47349 0
M  V30 8779 C 814.659 2.56145 2.34536 0
M  V30 8780 C 813.613 3.70275 2.14663 0
M  V30 8781 C 812.939 4.03612 3.50715 0
M  V30 8782 C 814.239 4.99067 1.54045 0
M  V30 8783 H 815.933 2.93046 0.613548 0
M  V30 8784 H 813.479 1.40973 0.293684 0
M  V30 8785 H 815.432 2.90741 3.05037 0
M  V30 8786 H 814.156 1.6915 2.79385 0
M  V30 8787 H 812.815 3.36013 1.46597 0
M  V30 8788 H 812.463 3.13698 3.93195 0
M  V30 8789 H 812.163 4.80482 3.38247 0
M  V30 8790 H 813.687 4.40735 4.22593 0
M  V30 8791 H 815.101 5.3168 2.14451 0
M  V30 8792 H 813.498 5.80484 1.52178 0
M  V30 8793 H 814.568 4.8226 0.505259 0
M  V30 8794 N 815.911 -0.310526 1.54511 0
M  V30 8795 C 816.821 -1.4054 1.87844 0
M  V30 8796 C 817.837 -1.55954 0.771635 0
M  V30 8797 O 819.013 -1.70801 1.06719 0
M  V30 8798 C 816.078 -2.75063 2.11048 0
M  V30 8799 C 815.139 -2.68715 3.348 0
M  V30 8800 C 814.372 -3.96821 3.56887 0
M  V30 8801 O 814.595 -4.95721 2.82165 0
M  V30 8802 O 813.529 -3.99291 4.50389 0
M  V30 8803 H 817.355 -1.15275 2.80972 0
M  V30 8804 H 814.94 -0.505732 1.4058 0
M  V30 8805 H 816.822 -3.54671 2.27566 0
M  V30 8806 H 815.497 -3.00191 1.21108 0
M  V30 8807 H 814.404 -1.87611 3.23655 0
M  V30 8808 H 815.737 -2.4854 4.2484 0
M  V30 8809 N 817.389 -1.46805 -0.573248 0
M  V30 8810 C 818.614 -1.56433 -1.36175 0
M  V30 8811 C 819.039 -0.209336 -1.86932 0
M  V30 8812 O 818.397 0.812146 -1.62092 0
M  V30 8813 C 818.445 -2.58055 -2.51873 0
M  V30 8814 O 817.549 -2.12214 -3.53609 0
M  V30 8815 H 816.89 -0.526068 -0.405153 0
M  V30 8816 H 819.42 -1.92456 -0.694405 0
M  V30 8817 H 819.43 -2.77966 -2.98662 0
M  V30 8818 H 818.105 -3.56448 -2.14284 0
M  V30 8819 H 816.682 -2.02333 -3.13234 0
M  V30 8820 N 818.867 0.818669 -1.34668 0
M  V30 8821 C 819.799 1.93754 -1.22442 0
M  V30 8822 C 820.812 1.62103 -0.150501 0
M  V30 8823 O 822.001 1.73898 -0.402728 0
M  V30 8824 C 819.101 3.27806 -0.860031 0
M  V30 8825 C 818.274 3.8745 -2.02981 0
M  V30 8826 C 817.333 4.99887 -1.64314 0
M  V30 8827 O 816.359 5.17957 -2.36029 0
M  V30 8828 N 817.561 5.77795 -0.55976 0
M  V30 8829 H 820.326 2.04773 -2.18833 0
M  V30 8830 H 817.887 0.995472 -1.27679 0
M  V30 8831 H 819.879 4.00478 -0.583068 0
M  V30 8832 H 818.449 3.12597 0.0138253 0
M  V30 8833 H 817.669 3.07119 -2.47127 0
M  V30 8834 H 818.957 4.2403 -2.81204 0
M  V30 8835 H 818.355 5.65688 0.0363329 0
M  V30 8836 H 816.912 6.50899 -0.342541 0
M  V30 8837 N 820.346 1.18468 1.03938 0
M  V30 8838 C 821.293 0.912859 2.1198 0
M  V30 8839 C 822.263 -0.14824 1.65437 0
M  V30 8840 O 823.448 -0.008331 1.90798 0
M  V30 8841 C 820.588 0.446114 3.42204 0
M  V30 8842 C 819.701 1.57278 4.02353 0
M  V30 8843 C 818.836 1.05863 5.20544 0
M  V30 8844 C 817.875 2.1599 5.72726 0
M  V30 8845 N 817.012 1.65959 6.82204 0
M  V30 8846 H 821.852 1.83798 2.34569 0
M  V30 8847 H 819.389 0.916504 1.15059 0
M  V30 8848 H 821.347 0.15697 4.16905 0
M  V30 8849 H 819.977 -0.442025 3.19759 0
M  V30 8850 H 819.029 1.97737 3.24968 0
M  V30 8851 H 820.341 2.40289 4.37107 0
M  V30 8852 H 819.495 0.724087 6.02364 0
M  V30 8853 H 818.234 0.198116 4.87297 0
M  V30 8854 H 817.239 2.50287 4.89527 0
M  V30 8855 H 818.464 3.02479 6.08016 0
M  V30 8856 H 816.41 0.82199 6.5083 0
M  V30 8857 H 816.327 2.42567 7.16029 0
M  V30 8858 H 817.595 1.35436 7.67644 0
M  V30 8859 N 821.824 -1.22873 0.986916 0
M  V30 8860 C 823.24 -1.43594 0.696633 0
M  V30 8861 C 823.44 -1.87622 -0.734869 0
M  V30 8862 O 822.496 -2.02633 -1.50652 0
M  V30 8863 C 823.809 -2.48231 1.69711 0
M  V30 8864 C 825.357 -2.62037 1.71188 0
M  V30 8865 C 825.832 -3.6989 2.70084 0
M  V30 8866 N 827.323 -3.77341 2.68641 0
M  V30 8867 C 828.058 -4.6037 3.41829 0
M  V30 8868 N 827.554 -5.47438 4.24598 0
M  V30 8869 N 829.347 -4.54626 3.30563 0
M  V30 8870 H 821.498 -0.925982 1.91153 0
M  V30 8871 H 823.761 -0.46866 0.824052 0
M  V30 8872 H 823.467 -2.22812 2.72117 0
M  V30 8873 H 823.341 -3.46731 1.48516 0
M  V30 8874 H 825.728 -2.86803 0.694837 0
M  V30 8875 H 825.809 -1.63831 1.96451 0
M  V30 8876 H 825.453 -3.45872 3.71934 0
M  V30 8877 H 825.383 -4.67652 2.42093 0
M  V30 8878 H 827.874 -3.15124 2.08578 0
M  V30 8879 H 828.187 -6.078 4.77283 0
M  V30 8880 H 826.532 -5.4704 4.28687 0
M  V30 8881 H 829.723 -3.85627 2.65347 0
M  V30 8882 H 829.896 -5.19103 3.8786 0
M  V30 8883 N 823.302 -0.75937 -1.38099 0
M  V30 8884 C 824.212 -0.13774 -2.34195 0
M  V30 8885 C 825.228 0.693985 -1.59561 0
M  V30 8886 O 826.404 0.616792 -1.91723 0
M  V30 8887 C 823.469 0.740535 -3.38699 0
M  V30 8888 C 822.53 -0.106225 -4.29169 0
M  V30 8889 C 821.763 0.730225 -5.28681 0
M  V30 8890 O 821.986 1.96796 -5.35376 0
M  V30 8891 O 820.92 0.145969 -6.01723 0
M  V30 8892 H 824.746 -0.931512 -2.89061 0
M  V30 8893 H 822.331 -0.520345 -1.40046 0
M  V30 8894 H 824.213 1.24232 -4.02672 0
M  V30 8895 H 822.888 1.51271 -2.8618 0
M  V30 8896 H 821.795 -0.654088 -3.68337 0
M  V30 8897 H 823.128 -0.841186 -4.84959 0
M  V30 8898 N 824.78 1.49157 -0.508906 0
M  V30 8899 C 826.01 2.06579 0.0293308 0
M  V30 8900 C 826.418 1.36852 1.30645 0
M  V30 8901 O 825.761 0.443079 1.78276 0
M  V30 8902 C 825.823 3.57838 0.345296 0
M  V30 8903 C 825.487 4.49302 -0.835256 0
M  V30 8904 C 826.484 4.90345 -1.72793 0
M  V30 8905 C 824.169 4.91494 -1.0363 0
M  V30 8906 C 826.163 5.72327 -2.80573 0
M  V30 8907 C 823.85 5.7325 -2.11726 0
M  V30 8908 C 824.848 6.13572 -3.00032 0
M  V30 8909 O 824.536 6.93691 -4.06261 0
M  V30 8910 H 824.268 0.675679 -0.0208193 0
M  V30 8911 H 826.822 1.9282 -0.707789 0
M  V30 8912 H 825.052 3.69634 1.13612 0
M  V30 8913 H 826.741 3.97467 0.823089 0
M  V30 8914 H 827.507 4.58388 -1.58446 0
M  V30 8915 H 823.386 4.59605 -0.358308 0
M  V30 8916 H 826.93 6.03719 -3.49527 0
M  V30 8917 H 822.827 6.0462 -2.26065 0
M  V30 8918 H 823.595 7.12011 -4.03711 0
M  V30 8919 N 826.258 0.243083 1.55714 0
M  V30 8920 C 827.205 -0.658078 2.21219 0
M  V30 8921 C 828.175 -1.1742 1.17481 0
M  V30 8922 O 829.36 -1.22937 1.45915 0
M  V30 8923 C 826.5 -1.85104 2.91257 0
M  V30 8924 C 825.613 -1.3718 4.09641 0
M  V30 8925 C 824.748 -2.52403 4.67404 0
M  V30 8926 C 823.787 -2.01321 5.78045 0
M  V30 8927 N 822.924 -3.09896 6.30007 0
M  V30 8928 H 827.764 -0.0927854 2.97856 0
M  V30 8929 H 825.301 -0.0340375 1.47061 0
M  V30 8930 H 827.259 -2.55179 3.3006 0
M  V30 8931 H 825.889 -2.38887 2.17101 0
M  V30 8932 H 824.941 -0.565232 3.76177 0
M  V30 8933 H 826.253 -0.957409 4.89525 0
M  V30 8934 H 825.407 -3.30525 5.08761 0
M  V30 8935 H 824.146 -2.97142 3.86728 0
M  V30 8936 H 823.151 -1.21667 5.36169 0
M  V30 8937 H 824.376 -1.57556 6.6057 0
M  V30 8938 H 822.322 -3.54077 5.52237 0
M  V30 8939 H 822.239 -2.72776 7.05074 0
M  V30 8940 H 823.507 -3.8809 6.76023 0
M  V30 8941 N 827.736 -1.57571 -0.0300757 0
M  V30 8942 C 828.666 -2.0953 -1.03051 0
M  V30 8943 C 829.647 -0.99761 -1.37774 0
M  V30 8944 O 830.832 -1.27279 -1.46676 0
M  V30 8945 C 827.962 -2.57385 -2.33174 0
M  V30 8946 C 826.916 -3.71409 -2.12696 0
M  V30 8947 C 826.242 -4.05467 -3.4857 0
M  V30 8948 C 827.542 -4.99877 -1.51396 0
M  V30 8949 H 829.236 -2.93367 -0.597999 0
M  V30 8950 H 826.782 -1.41127 -0.286203 0
M  V30 8951 H 828.735 -2.92355 -3.03491 0
M  V30 8952 H 827.459 -1.70629 -2.78484 0
M  V30 8953 H 826.118 -3.36786 -1.44813 0
M  V30 8954 H 825.766 -3.15779 -3.91526 0
M  V30 8955 H 825.466 -4.82269 -3.35694 0
M  V30 8956 H 826.99 -4.4297 -4.2025 0
M  V30 8957 H 828.404 -5.3281 -2.11629 0
M  V30 8958 H 826.801 -5.81283 -1.49098 0
M  V30 8959 H 827.871 -4.82522 -0.479676 0
M  V30 8960 N 829.214 0.302327 -1.54673 0
M  V30 8961 C 830.63 0.647911 -1.45857 0
M  V30 8962 C 830.83 1.90773 -0.64869 0
M  V30 8963 O 829.886 2.52018 -0.155865 0
M  V30 8964 C 831.199 0.802144 -2.89804 0
M  V30 8965 C 832.747 0.898114 -2.99838 0
M  V30 8966 C 833.222 1.08436 -4.44978 0
M  V30 8967 N 834.713 1.15059 -4.48682 0
M  V30 8968 C 835.448 1.31296 -5.58166 0
M  V30 8969 N 834.944 1.4444 -6.77576 0
M  V30 8970 N 836.737 1.34174 -5.45851 0
M  V30 8971 H 828.888 -0.525428 -2.05798 0
M  V30 8972 H 831.151 -0.173423 -0.932002 0
M  V30 8973 H 830.857 -0.0526531 -3.51661 0
M  V30 8974 H 830.731 1.69155 -3.37145 0
M  V30 8975 H 833.118 1.7434 -2.38096 0
M  V30 8976 H 833.199 -0.0152752 -2.55795 0
M  V30 8977 H 832.843 0.243843 -5.07314 0
M  V30 8978 H 832.773 2.01195 -4.8665 0
M  V30 8979 H 835.264 1.0626 -3.62653 0
M  V30 8980 H 835.577 1.56582 -7.56771 0
M  V30 8981 H 833.922 1.41499 -6.80443 0
M  V30 8982 H 837.113 1.23516 -4.5151 0
M  V30 8983 H 837.286 1.46485 -6.31226 0
M  V30 8984 N 830.692 1.47107 0.565454 0
M  V30 8985 C 831.639 1.58974 1.6732 0
M  V30 8986 C 832.609 0.433146 1.60353 0
M  V30 8987 O 833.794 0.652141 1.79309 0
M  V30 8988 C 830.934 1.60224 3.05651 0
M  V30 8989 C 830.047 2.86741 3.23116 0
M  V30 8990 C 829.182 2.79381 4.51796 0
M  V30 8991 C 828.221 4.0076 4.62664 0
M  V30 8992 N 827.358 3.91685 5.8269 0
M  V30 8993 H 832.198 2.53588 1.56515 0
M  V30 8994 H 829.735 1.25791 0.762558 0
M  V30 8995 H 831.693 1.58933 3.85741 0
M  V30 8996 H 830.323 0.691285 3.15311 0
M  V30 8997 H 829.375 2.97936 2.36513 0
M  V30 8998 H 830.687 3.7665 3.27011 0
M  V30 8999 H 829.841 2.76293 5.40136 0
M  V30 9000 H 828.58 1.87142 4.50366 0
M  V30 9001 H 827.585 4.04162 3.72738 0
M  V30 9002 H 828.81 4.94117 4.6586 0
M  V30 9003 H 826.756 3.02243 5.82224 0
M  V30 9004 H 826.673 4.75264 5.87929 0
M  V30 9005 H 827.941 3.92599 6.73414 0
M  V30 9006 N 832.17 -0.811516 1.35101 0
M  V30 9007 C 833.08 -1.95475 1.29718 0
M  V30 9008 C 834.096 -1.72813 0.202909 0
M  V30 9009 O 835.272 -1.96725 0.431414 0
M  V30 9010 C 832.337 -3.29975 1.06385 0
M  V30 9011 C 831.398 -3.65566 2.25077 0
M  V30 9012 C 830.631 -4.93648 2.02848 0
M  V30 9013 O 830.854 -5.617 0.992442 0
M  V30 9014 O 829.788 -5.27384 2.90087 0
M  V30 9015 H 833.614 -2.02961 2.25921 0
M  V30 9016 H 831.199 -0.948583 1.15422 0
M  V30 9017 H 833.081 -4.10506 0.951999 0
M  V30 9018 H 831.756 -3.2343 0.132294 0
M  V30 9019 H 830.663 -2.85432 2.41825 0
M  V30 9020 H 831.996 -3.7681 3.16662 0
M  V30 9021 N 833.648 -1.19017 -1.03309 0
M  V30 9022 C 834.58 -0.881847 -2.11556 0
M  V30 9023 C 835.593 0.123711 -1.62329 0
M  V30 9024 O 836.782 -0.105141 -1.7819 0
M  V30 9025 C 833.882 -0.297634 -3.37591 0
M  V30 9026 C 833.055 -1.35072 -4.16022 0
M  V30 9027 C 832.114 -0.780812 -5.20375 0
M  V30 9028 O 831.14 -1.45745 -5.50224 0
M  V30 9029 N 832.342 0.417964 -5.78993 0
M  V30 9030 H 835.107 -1.81359 -2.38598 0
M  V30 9031 H 832.668 -1.0916 -1.19565 0
M  V30 9032 H 834.66 0.097374 -4.04583 0
M  V30 9033 H 833.23 0.538299 -3.0793 0
M  V30 9034 H 832.45 -1.92074 -3.4424 0
M  V30 9035 H 833.738 -2.06044 -4.65213 0
M  V30 9036 H 833.136 0.985281 -5.57054 0
M  V30 9037 H 831.693 0.754802 -6.47415 0
M  V30 9038 N 835.127 1.22348 -0.993418 0
M  V30 9039 C 836.057 2.26584 -0.564088 0
M  V30 9040 C 837.038 1.65102 0.409298 0
M  V30 9041 O 838.223 1.91872 0.299819 0
M  V30 9042 C 835.353 3.47087 0.121554 0
M  V30 9043 C 834.307 4.21009 -0.770429 0
M  V30 9044 C 833.633 5.34678 0.0481586 0
M  V30 9045 C 834.933 4.79636 -2.06752 0
M  V30 9046 H 836.627 2.62749 -1.43538 0
M  V30 9047 H 834.173 1.26303 -0.691628 0
M  V30 9048 H 836.126 4.19166 0.433303 0
M  V30 9049 H 834.85 3.1002 1.0274 0
M  V30 9050 H 833.509 3.50764 -1.06583 0
M  V30 9051 H 833.157 4.93852 0.954933 0
M  V30 9052 H 832.857 5.85061 -0.545641 0
M  V30 9053 H 834.381 6.09573 0.353991 0
M  V30 9054 H 835.795 5.43654 -1.81969 0
M  V30 9055 H 834.192 5.4036 -2.61019 0
M  V30 9056 H 835.262 3.99659 -2.74592 0
M  V30 9057 N 836.605 0.766683 1.37694 0
M  V30 9058 C 837.552 0.147725 2.30327 0
M  V30 9059 C 838.522 -0.695366 1.50844 0
M  V30 9060 O 839.707 -0.64878 1.79431 0
M  V30 9061 C 836.847 -0.72935 3.37305 0
M  V30 9062 C 835.96 0.129795 4.31805 0
M  V30 9063 C 835.095 -0.751511 5.25857 0
M  V30 9064 C 834.134 0.110475 6.12 0
M  V30 9065 N 833.271 -0.728522 6.9831 0
M  V30 9066 H 838.111 0.943204 2.82679 0
M  V30 9067 H 835.648 0.476736 1.3916 0
M  V30 9068 H 837.606 -1.25263 3.97951 0
M  V30 9069 H 836.236 -1.49048 2.86329 0
M  V30 9070 H 835.288 0.770829 3.72508 0
M  V30 9071 H 836.6 0.794923 4.92425 0
M  V30 9072 H 835.754 -1.34146 5.91684 0
M  V30 9073 H 834.493 -1.45034 4.65636 0
M  V30 9074 H 833.498 0.712999 5.45157 0
M  V30 9075 H 834.723 0.806557 6.74293 0
M  V30 9076 H 832.669 -1.41206 6.40622 0
M  V30 9077 H 832.586 -0.12058 7.55904 0
M  V30 9078 H 833.854 -1.30303 7.68532 0
M  V30 9079 N 838.083 -1.48885 0.516809 0
M  V30 9080 C 838.993 -2.33185 -0.257293 0
M  V30 9081 C 840.009 -1.4565 -0.951952 0
M  V30 9082 O 841.185 -1.78651 -0.929834 0
M  V30 9083 C 838.25 -3.21465 -1.29851 0
M  V30 9084 C 837.311 -4.24863 -0.615608 0
M  V30 9085 C 836.544 -5.08925 -1.60722 0
M  V30 9086 O 836.767 -4.9475 -2.83863 0
M  V30 9087 O 835.701 -5.90737 -1.15384 0
M  V30 9088 H 839.527 -3.00596 0.433131 0
M  V30 9089 H 837.112 -1.46792 0.277908 0
M  V30 9090 H 838.994 -3.76108 -1.90055 0
M  V30 9091 H 837.669 -2.5673 -1.97158 0
M  V30 9092 H 836.576 -3.74091 0.0265829 0
M  V30 9093 H 837.909 -4.92198 0.0152871 0
M  V30 9094 N 839.561 -0.251338 -1.55583 0
M  V30 9095 C 840.471 0.656978 -2.25213 0
M  V30 9096 C 841.487 1.18966 -1.26977 0
M  V30 9097 O 842.663 1.22499 -1.59862 0
M  V30 9098 C 839.728 1.83527 -2.94141 0
M  V30 9099 C 838.789 1.34162 -4.07798 0
M  V30 9100 C 838.022 2.46375 -4.73429 0
M  V30 9101 O 838.245 3.65205 -4.38157 0
M  V30 9102 O 837.179 2.15881 -5.61853 0
M  V30 9103 H 841.005 0.0936395 -3.03556 0
M  V30 9104 H 838.59 -0.0196638 -1.49387 0
M  V30 9105 H 840.472 2.52279 -3.3754 0
M  V30 9106 H 839.147 2.38614 -2.18735 0
M  V30 9107 H 838.054 0.621249 -3.68906 0
M  V30 9108 H 839.387 0.836779 -4.85035 0
M  V30 9109 N 841.039 1.57585 0.0217189 0
M  V30 9110 C 841.969 2.10073 1.01939 0
M  V30 9111 C 842.95 1.0049 1.37243 0
M  V30 9112 O 844.135 1.28055 1.45999 0
M  V30 9113 C 841.265 2.58618 2.31806 0
M  V30 9114 C 840.219 3.72531 2.10724 0
M  V30 9115 C 839.545 4.07309 3.46415 0
M  V30 9116 C 840.845 5.00672 1.48743 0
M  V30 9117 H 842.539 2.9368 0.582432 0
M  V30 9118 H 840.085 1.41277 0.278715 0
M  V30 9119 H 842.038 2.9396 3.01936 0
M  V30 9120 H 840.762 1.72104 2.77575 0
M  V30 9121 H 839.421 3.37549 1.43025 0
M  V30 9122 H 839.069 3.17851 3.89846 0
M  V30 9123 H 838.769 4.84042 3.33132 0
M  V30 9124 H 840.293 4.45192 4.17895 0
M  V30 9125 H 841.707 5.33925 2.088 0
M  V30 9126 H 840.104 5.82065 1.46013 0
M  V30 9127 H 841.174 4.82769 0.45408 0
M  V30 9128 N 842.517 -0.29412 1.54831 0
M  V30 9129 C 843.465 -1.38296 1.87021 0
M  V30 9130 C 844.459 -1.5216 0.744557 0
M  V30 9131 O 845.665 -1.54196 0.92864 0
M  V30 9132 H 842.04 -0.462088 0.593278 0
M  V30 9133 H 844.011 -1.08386 2.7802 0
M  V30 9134 C 842.76 -2.74024 2.14023 0
M  V30 9135 H 842.083 -2.6414 3.00117 0
M  V30 9136 H 843.523 -3.49205 2.40482 0
M  V30 9137 C 841.982 -3.23492 0.940982 0
M  V30 9138 O 842.512 -4.01361 0.164937 0
M  V30 9139 N 840.718 -2.80902 0.744467 0
M  V30 9140 H 840.265 -2.17694 1.37721 0
M  V30 9141 H 840.223 -3.14349 -0.0563652 0
M  V30 9142 N 843.995 -1.47404 -0.557645 0
M  V30 9143 C 844.905 -1.62491 -1.69216 0
M  V30 9144 C 845.921 -0.507764 -1.66426 0
M  V30 9145 O 847.097 -0.775241 -1.85882 0
M  V30 9146 C 844.162 -1.63511 -3.05721 0
M  V30 9147 C 843.223 -2.86648 -3.1958 0
M  V30 9148 C 842.456 -2.87609 -4.49574 0
M  V30 9149 O 842.679 -1.97799 -5.35006 0
M  V30 9150 O 841.613 -3.79465 -4.67215 0
M  V30 9151 H 845.439 -2.58487 -1.59431 0
M  V30 9152 H 843.024 -1.30485 -0.7276 0
M  V30 9153 H 844.906 -1.66863 -3.86956 0
M  V30 9154 H 843.581 -0.706812 -3.15889 0
M  V30 9155 H 842.488 -2.8884 -2.37744 0
M  V30 9156 H 843.821 -3.7877 -3.14316 0
M  V30 9157 N 845.473 0.80434 -1.35529 0
M  V30 9158 C 846.421 1.93769 -1.28671 0
M  V30 9159 C 847.415 1.68428 -0.181222 0
M  V30 9160 O 848.621 1.76617 -0.347338 0
M  V30 9161 H 844.996 0.636663 -0.400206 0
M  V30 9162 H 846.967 1.96673 -2.24415 0
M  V30 9163 C 845.716 3.30572 -1.07784 0
M  V30 9164 H 845.039 3.5063 -1.9209 0
M  V30 9165 H 846.479 4.1027 -1.07027 0
M  V30 9166 C 844.938 3.36193 0.218213 0
M  V30 9167 O 845.468 3.82941 1.21323 0
M  V30 9168 N 843.674 2.89455 0.257761 0
M  V30 9169 H 843.221 2.51604 -0.552562 0
M  V30 9170 H 843.179 2.93597 1.12465 0
M  V30 9171 N 846.951 1.19563 1.02676 0
M  V30 9172 C 847.883 0.893054 2.11086 0
M  V30 9173 C 848.896 -0.115101 1.62393 0
M  V30 9174 O 850.085 0.11459 1.78132 0
M  V30 9175 C 847.185 0.315533 3.37428 0
M  V30 9176 C 846.358 1.37276 4.153 0
M  V30 9177 C 845.417 0.808398 5.19953 0
M  V30 9178 O 844.443 1.48661 5.49444 0
M  V30 9179 N 845.645 -0.387253 5.79207 0
M  V30 9180 H 848.41 1.82622 2.37633 0
M  V30 9181 H 845.971 1.09792 1.18984 0
M  V30 9182 H 847.963 -0.0759166 4.04629 0
M  V30 9183 H 846.533 -0.521961 3.08211 0
M  V30 9184 H 845.753 1.93897 3.43217 0
M  V30 9185 H 847.041 2.08509 4.64114 0
M  V30 9186 H 846.439 -0.955725 5.57568 0
M  V30 9187 H 844.996 -0.720457 6.47806 0
M  V30 9188 N 848.429 -1.21819 0.999893 0
M  V30 9189 C 849.654 -1.95298 0.698094 0
M  V30 9190 C 850.079 -1.73273 -0.731982 0
M  V30 9191 O 849.437 -1.01634 -1.50134 0
M  V30 9192 C 849.485 -3.45922 1.01834 0
M  V30 9193 O 848.589 -4.12223 0.120801 0
M  V30 9194 H 847.93 -0.610729 0.260588 0
M  V30 9195 H 850.46 -1.5472 1.33876 0
M  V30 9196 H 850.47 -3.96471 0.963074 0
M  V30 9197 H 849.145 -3.61278 2.06037 0
M  V30 9198 H 847.722 -3.72177 0.232153 0
M  V30 9199 N 849.908 -0.773975 -1.37286 0
M  V30 9200 C 851.136 -0.350758 -2.03905 0
M  V30 9201 C 851.551 1.02779 -1.58373 0
M  V30 9202 O 850.908 1.65646 -0.766009 0
M  V30 9203 C 850.959 -0.387335 -3.59419 0
M  V30 9204 O 850.68 -1.7115 -4.03286 0
M  V30 9205 C 852.181 0.047198 -4.43275 0
M  V30 9206 H 849.401 -0.146663 -0.654775 0
M  V30 9207 H 851.945 -1.04852 -1.75574 0
M  V30 9208 H 850.1 0.261865 -3.86514 0
M  V30 9209 H 850.514 -1.65166 -4.97816 0
M  V30 9210 H 851.988 -0.0295474 -5.51992 0
M  V30 9211 H 852.465 1.09786 -4.25257 0
M  V30 9212 H 853.071 -0.573899 -4.2141 0
M  V30 9213 N 851.386 1.48609 -0.524698 0
M  V30 9214 C 852.797 1.86516 -0.0828846 0
M  V30 9215 C 853.148 1.43478 1.33822 0
M  V30 9216 O 852.273 0.823139 2.00133 0
M  V30 9217 C 852.868 3.38495 -0.143639 0
M  V30 9218 C 851.427 3.75615 0.242951 0
M  V30 9219 C 850.574 2.72649 -0.505747 0
M  V30 9220 H 853.525 1.40589 -0.736233 0
M  V30 9221 H 853.546 3.74977 0.645955 0
M  V30 9222 H 853.058 3.69789 -1.17805 0
M  V30 9223 H 851.159 3.49935 1.27971 0
M  V30 9224 H 851.272 4.7901 -0.0929834 0
M  V30 9225 H 849.636 2.54656 0.0473482 0
M  V30 9226 H 850.419 3.06786 -1.54069 0
M  V30 9227 N 852.864 0.259585 1.55447 0
M  V30 9228 C 853.811 -0.634578 2.21905 0
M  V30 9229 C 854.781 -1.16168 1.18719 0
M  V30 9230 O 855.966 -1.21383 1.4721 0
M  V30 9231 C 853.106 -1.82005 2.93203 0
M  V30 9232 C 852.219 -1.32828 4.11073 0
M  V30 9233 C 851.354 -2.47431 4.70055 0
M  V30 9234 C 850.393 -1.95179 5.80148 0
M  V30 9235 N 849.53 -3.03197 6.33258 0
M  V30 9236 H 854.37 -0.0611886 2.97937 0
M  V30 9237 H 851.907 -0.0184378 1.47088 0
M  V30 9238 H 853.865 -2.51664 3.32748 0
M  V30 9239 H 852.495 -2.36571 2.19622 0
M  V30 9240 H 851.547 -0.525301 3.76756 0
M  V30 9241 H 852.859 -0.905435 4.90513 0
M  V30 9242 H 852.013 -3.25111 5.12238 0
M  V30 9243 H 850.752 -2.93023 3.89857 0
M  V30 9244 H 849.757 -1.15974 5.37429 0
M  V30 9245 H 850.982 -1.50541 6.62204 0
M  V30 9246 H 848.928 -3.48199 5.55961 0
M  V30 9247 H 848.845 -2.65282 7.07928 0
M  V30 9248 H 850.113 -3.80898 6.80101 0
M  V30 9249 N 854.342 -1.57594 -0.0133615 0
M  V30 9250 C 855.289 -2.07574 -1.00905 0
M  V30 9251 C 856.259 -0.968231 -1.34961 0
M  V30 9252 O 857.444 -1.23981 -1.45028 0
M  V30 9253 C 854.584 -2.5728 -2.30002 0
M  V30 9254 C 853.697 -3.81881 -2.01967 0
M  V30 9255 C 852.832 -4.20139 -3.25049 0
M  V30 9256 C 851.871 -5.37614 -2.92639 0
M  V30 9257 N 851.008 -5.71229 -4.08218 0
M  V30 9258 H 855.848 -2.92382 -0.575899 0
M  V30 9259 H 853.385 -1.4455 -0.272722 0
M  V30 9260 H 855.343 -2.84171 -3.05454 0
M  V30 9261 H 853.973 -1.75365 -2.71011 0
M  V30 9262 H 853.025 -3.61979 -1.16942 0
M  V30 9263 H 854.337 -4.67441 -1.74069 0
M  V30 9264 H 853.491 -4.48242 -4.08857 0
M  V30 9265 H 852.23 -3.33262 -3.56073 0
M  V30 9266 H 851.235 -5.09248 -2.07235 0
M  V30 9267 H 852.46 -6.26157 -2.62876 0
M  V30 9268 H 850.406 -4.8731 -4.39164 0
M  V30 9269 H 850.323 -6.51333 -3.83799 0
M  V30 9270 H 851.591 -6.03917 -4.92854 0
M  V30 9271 N 855.82 0.285905 -1.54985 0
M  V30 9272 C 856.73 1.37534 -1.90057 0
M  V30 9273 C 857.746 1.54707 -0.796348 0
M  V30 9274 O 858.922 1.69082 -1.09423 0
M  V30 9275 C 855.987 2.7167 -2.15398 0
M  V30 9276 C 855.048 2.63354 -3.39033 0
M  V30 9277 C 854.281 3.91093 -3.63155 0
M  V30 9278 O 854.504 4.91169 -2.90015 0
M  V30 9279 O 853.438 3.92075 -4.56685 0
M  V30 9280 H 857.264 1.10791 -2.8277 0
M  V30 9281 H 854.849 0.483303 -1.41367 0
M  V30 9282 H 856.731 3.51006 -2.33179 0
M  V30 9283 H 855.406 2.98226 -1.25868 0
M  V30 9284 H 854.313 1.82438 -3.26599 0
M  V30 9285 H 855.646 2.41749 -4.2874 0
M  V30 9286 N 857.298 1.47698 0.54982 0
M  V30 9287 C 858.245 1.60739 1.65625 0
M  V30 9288 C 859.215 0.450129 1.59884 0
M  V30 9289 O 860.4 0.671123 1.78607 0
M  V30 9290 C 857.54 1.63457 3.03934 0
M  V30 9291 C 856.653 2.90152 3.20056 0
M  V30 9292 C 855.788 2.84157 4.48807 0
M  V30 9293 C 854.827 4.05644 4.58387 0
M  V30 9294 N 853.964 3.97843 5.78503 0
M  V30 9295 H 858.804 2.55234 1.53817 0
M  V30 9296 H 856.341 1.26593 0.749173 0
M  V30 9297 H 858.299 1.63015 3.84034 0
M  V30 9298 H 856.929 0.724689 3.1456 0
M  V30 9299 H 855.981 3.00428 2.33339 0
M  V30 9300 H 857.293 3.80097 3.22998 0
M  V30 9301 H 856.447 2.82006 5.37175 0
M  V30 9302 H 855.186 1.91908 4.48356 0
M  V30 9303 H 854.191 4.08092 3.6843 0
M  V30 9304 H 855.416 4.9903 4.60593 0
M  V30 9305 H 853.362 3.08401 5.78986 0
M  V30 9306 H 853.279 4.81473 5.82855 0
M  V30 9307 H 854.547 3.99719 6.69212 0
M  V30 9308 N 858.776 -0.797141 1.35954 0
M  V30 9309 C 859.708 -1.91782 1.25509 0
M  V30 9310 C 860.721 -1.61843 0.176271 0
M  V30 9311 O 861.91 -1.73235 0.430343 0
M  V30 9312 C 859.01 -3.26396 0.912073 0
M  V30 9313 C 858.183 -3.84171 2.0912 0
M  V30 9314 C 857.242 -4.9721 1.72246 0
M  V30 9315 O 856.268 -5.14136 2.44239 0
M  V30 9316 N 857.47 -5.76831 0.651611 0
M  V30 9317 H 860.235 -2.01266 2.22063 0
M  V30 9318 H 857.796 -0.975033 1.29247 0
M  V30 9319 H 859.788 -3.99499 0.646707 0
M  V30 9320 H 858.358 -3.12579 0.0359079 0
M  V30 9321 H 857.578 -3.03148 2.51982 0
M  V30 9322 H 858.866 -4.19503 2.87914 0
M  V30 9323 H 858.264 -5.65675 0.0536678 0
M  V30 9324 H 856.821 -6.50272 0.44605 0
M  V30 9325 N 860.254 -1.20106 -1.0204 0
M  V30 9326 C 861.164 -0.962051 -2.13967 0
M  V30 9327 C 862.18 0.0808053 -1.73812 0
M  V30 9328 O 863.356 -0.105774 -2.01122 0
M  V30 9329 C 860.421 -0.513108 -3.42882 0
M  V30 9330 C 859.482 -1.62636 -3.97301 0
M  V30 9331 C 858.715 -1.19875 -5.20063 0
M  V30 9332 O 858.938 -0.0658423 -5.70362 0
M  V30 9333 O 857.872 -2.00467 -5.67536 0
M  V30 9334 H 861.698 -1.8991 -2.36998 0
M  V30 9335 H 859.283 -0.984608 -1.12365 0
M  V30 9336 H 861.165 -0.271797 -4.20523 0
M  V30 9337 H 859.84 0.395402 -3.21276 0
M  V30 9338 H 858.747 -1.92192 -3.20957 0
M  V30 9339 H 860.08 -2.51174 -4.23288 0
M  V30 9340 N 861.732 1.21287 -1.00634 0
M  V30 9341 C 862.978 1.90957 -0.70051 0
M  V30 9342 C 863.333 1.76729 0.760567 0
M  V30 9343 O 862.626 1.13405 1.54434 0
M  V30 9344 C 862.82 3.41374 -1.05824 0
M  V30 9345 C 862.649 3.70237 -2.55254 0
M  V30 9346 C 861.419 3.89518 -3.21876 0
M  V30 9347 C 863.617 3.73633 -3.53417 0
M  V30 9348 N 861.599 4.05809 -4.60643 0
M  V30 9349 C 862.97 3.95225 -4.777 0
M  V30 9350 C 865.025 3.56545 -3.47534 0
M  V30 9351 C 863.728 4.01502 -5.96815 0
M  V30 9352 C 865.754 3.64089 -4.6604 0
M  V30 9353 C 865.116 3.86144 -5.89128 0
M  V30 9354 H 861.215 0.718861 -0.307835 0
M  V30 9355 H 863.799 1.45913 -1.28908 0
M  V30 9356 H 861.97 3.85193 -0.498106 0
M  V30 9357 H 863.702 3.98476 -0.707006 0
M  V30 9358 H 860.457 3.87479 -2.72318 0
M  V30 9359 H 860.881 4.17854 -5.32661 0
M  V30 9360 H 865.523 3.38469 -2.53375 0
M  V30 9361 H 863.241 4.18378 -6.91365 0
M  V30 9362 H 866.827 3.52188 -4.63092 0
M  V30 9363 H 865.707 3.91827 -6.79295 0
M  V30 9364 N 863.21 0.781244 1.36873 0
M  V30 9365 C 864.14 0.188128 2.32741 0
M  V30 9366 C 865.121 -0.672326 1.56249 0
M  V30 9367 O 866.306 -0.607835 1.84442 0
M  V30 9368 C 863.436 -0.684341 3.40491 0
M  V30 9369 C 862.39 0.0755641 4.27933 0
M  V30 9370 C 861.716 -0.916968 5.26779 0
M  V30 9371 C 863.016 1.26006 5.06873 0
M  V30 9372 H 864.71 0.989016 2.82593 0
M  V30 9373 H 862.256 0.477038 1.35869 0
M  V30 9374 H 864.209 -1.10915 4.06541 0
M  V30 9375 H 862.933 -1.51785 2.89187 0
M  V30 9376 H 861.592 0.481258 3.63427 0
M  V30 9377 H 861.24 -1.74528 4.71751 0
M  V30 9378 H 860.94 -0.413 5.86147 0
M  V30 9379 H 862.464 -1.34052 5.95703 0
M  V30 9380 H 863.878 0.911425 5.66009 0
M  V30 9381 H 862.275 1.69676 5.75613 0
M  V30 9382 H 863.345 2.05948 4.38991 0
M  V30 9383 N 864.689 -1.48329 0.532571 0
M  V30 9384 C 865.914 -2.074 0.00147755 0
M  V30 9385 C 866.339 -1.38615 -1.27151 0
M  V30 9386 O 865.697 -0.452949 -1.75551 0
M  V30 9387 C 865.745 -3.60029 -0.202866 0
M  V30 9388 O 864.849 -3.92327 -1.27097 0
M  V30 9389 H 864.19 -0.662777 0.0402883 0
M  V30 9390 H 866.72 -1.90701 0.741224 0
M  V30 9391 H 866.73 -4.05783 -0.424722 0
M  V30 9392 H 865.405 -4.09496 0.727033 0
M  V30 9393 H 863.982 -3.58348 -1.03156 0
M  V30 9394 N 866.167 -0.267825 -1.55308 0
M  V30 9395 C 867.114 0.6228 -2.22238 0
M  V30 9396 C 868.084 1.15536 -1.19334 0
M  V30 9397 O 869.269 1.206 -1.47852 0
M  V30 9398 C 866.409 1.80447 -2.94164 0
M  V30 9399 C 865.522 1.30646 -4.11771 0
M  V30 9400 C 864.657 2.44935 -4.7136 0
M  V30 9401 C 863.696 1.92099 -5.81175 0
M  V30 9402 N 862.833 2.99834 -6.34857 0
M  V30 9403 H 867.673 0.0453874 -2.97965 0
M  V30 9404 H 865.21 0.0106371 -1.47096 0
M  V30 9405 H 867.168 2.49896 -3.34078 0
M  V30 9406 H 865.798 2.35403 -2.20874 0
M  V30 9407 H 864.85 0.505314 -3.77029 0
M  V30 9408 H 866.162 0.879409 -4.90987 0
M  V30 9409 H 865.316 3.2239 -5.13955 0
M  V30 9410 H 864.055 2.90951 -3.91406 0
M  V30 9411 H 863.06 1.13122 -5.38037 0
M  V30 9412 H 864.285 1.47027 -6.62993 0
M  V30 9413 H 862.231 3.45246 -5.578 0
M  V30 9414 H 862.148 2.61524 -7.09324 0
M  V30 9415 H 863.416 3.77286 -6.82111 0
M  V30 9416 N 867.645 1.57599 0.00500368 0
M  V30 9417 C 868.577 2.04949 1.02609 0
M  V30 9418 C 869.59 0.966507 1.31006 0
M  V30 9419 O 870.779 1.2434 1.2807 0
M  V30 9420 C 867.879 2.43023 2.36206 0
M  V30 9421 C 867.052 3.73993 2.26821 0
M  V30 9422 C 866.111 3.9899 3.43065 0
M  V30 9423 O 865.137 4.69725 3.21477 0
M  V30 9424 N 866.339 3.46496 4.65748 0
M  V30 9425 H 869.104 2.93167 0.622336 0
M  V30 9426 H 866.665 1.60752 0.192488 0
M  V30 9427 H 868.657 2.56863 3.12735 0
M  V30 9428 H 867.227 1.60349 2.68341 0
M  V30 9429 H 866.447 3.70277 1.35235 0
M  V30 9430 H 867.735 4.59865 2.17719 0
M  V30 9431 H 867.133 2.89206 4.86186 0
M  V30 9432 H 865.69 3.65675 5.3956 0
M  V30 9433 N 869.123 -0.277682 1.55134 0
M  V30 9434 C 870.07 -1.34313 1.87693 0
M  V30 9435 C 871.04 -1.49298 0.727973 0
M  V30 9436 O 872.225 -1.6378 0.978807 0
M  V30 9437 C 869.365 -2.69922 2.15026 0
M  V30 9438 C 868.478 -2.63197 3.42565 0
M  V30 9439 C 867.613 -3.90955 3.59622 0
M  V30 9440 C 866.652 -3.78722 4.8087 0
M  V30 9441 N 865.789 -4.98303 4.94609 0
M  V30 9442 H 870.629 -1.05847 2.78569 0
M  V30 9443 H 868.166 -0.511469 1.37922 0
M  V30 9444 H 870.124 -3.48817 2.28872 0
M  V30 9445 H 868.754 -2.966 1.2739 0
M  V30 9446 H 867.806 -1.76038 3.37216 0
M  V30 9447 H 869.118 -2.50056 4.31594 0
M  V30 9448 H 868.272 -4.78291 3.7326 0
M  V30 9449 H 867.011 -4.06957 2.6877 0
M  V30 9450 H 866.016 -2.89769 4.67241 0
M  V30 9451 H 867.241 -3.64242 5.73153 0
M  V30 9452 H 865.187 -5.14725 4.06687 0
M  V30 9453 H 865.104 -4.87675 5.77676 0
M  V30 9454 H 866.372 -5.87225 5.12628 0
M  V30 9455 N 870.601 -1.47988 -0.541979 0
M  V30 9456 C 871.511 -1.64276 -1.67483 0
M  V30 9457 C 872.527 -0.525387 -1.65879 0
M  V30 9458 O 873.703 -0.794912 -1.85049 0
M  V30 9459 C 870.768 -1.66744 -3.03969 0
M  V30 9460 C 869.829 -2.90021 -3.16522 0
M  V30 9461 C 869.062 -2.92362 -4.46498 0
M  V30 9462 O 869.285 -2.03462 -5.32878 0
M  V30 9463 O 868.219 -3.84399 -4.63164 0
M  V30 9464 H 872.045 -2.60164 -1.5668 0
M  V30 9465 H 869.63 -1.31249 -0.71372 0
M  V30 9466 H 871.512 -1.70958 -3.85164 0
M  V30 9467 H 870.187 -0.740277 -3.15122 0
M  V30 9468 H 869.094 -2.91345 -2.34667 0
M  V30 9469 H 870.427 -3.82082 -3.10281 0
M  V30 9470 N 872.079 0.78992 -1.36375 0
M  V30 9471 C 873.027 1.92394 -1.30719 0
M  V30 9472 C 874.021 1.68226 -0.199076 0
M  V30 9473 O 875.227 1.76239 -0.366051 0
M  V30 9474 H 871.602 0.632382 -0.406936 0
M  V30 9475 H 873.573 1.94282 -2.26488 0
M  V30 9476 C 872.322 3.2941 -1.11284 0
M  V30 9477 H 871.645 3.48573 -1.95798 0
M  V30 9478 H 873.085 4.09111 -1.11373 0
M  V30 9479 C 871.544 3.36405 0.182543 0
M  V30 9480 O 872.074 3.84206 1.17255 0
M  V30 9481 N 870.28 2.89712 0.227046 0
M  V30 9482 H 869.827 2.51004 -0.579217 0
M  V30 9483 H 869.785 2.94773 1.09344 0
M  V30 9484 N 873.557 1.20646 1.01402 0
M  V30 9485 C 874.806 1.01242 1.7445 0
M  V30 9486 C 875.119 -0.455732 1.90217 0
M  V30 9487 O 876.325 -0.768951 2.60383 0
M  V30 9488 C 874.781 1.76275 3.13776 0
M  V30 9489 C 874.389 3.27201 3.06013 0
M  V30 9490 C 876.133 1.65248 3.91016 0
M  V30 9491 C 874.04 3.9476 4.40362 0
M  V30 9492 H 872.97 0.375202 0.654018 0
M  V30 9493 H 875.621 1.44292 1.13367 0
M  V30 9494 H 874.003 1.26013 3.75415 0
M  V30 9495 H 875.177 3.84695 2.53665 0
M  V30 9496 H 873.492 3.38669 2.42265 0
M  V30 9497 H 876.089 2.13061 4.90417 0
M  V30 9498 H 876.432 0.609128 4.1182 0
M  V30 9499 H 876.965 2.12937 3.3601 0
M  V30 9500 H 873.704 4.99258 4.24761 0
M  V30 9501 H 873.224 3.42054 4.92706 0
M  V30 9502 H 874.903 3.99159 5.09196 0
M  V30 9503 N 875.035 -1.20752 1.01276 0
M  V30 9504 C 875.967 -2.22798 0.537917 0
M  V30 9505 C 876.98 -1.5836 -0.377638 0
M  V30 9506 O 878.169 -1.77624 -0.176599 0
M  V30 9507 C 875.269 -3.38068 -0.237364 0
M  V30 9508 C 874.442 -4.32095 0.679161 0
M  V30 9509 C 873.501 -5.26178 -0.0478676 0
M  V30 9510 O 872.527 -5.66305 0.573366 0
M  V30 9511 N 873.729 -5.65201 -1.32396 0
M  V30 9512 H 876.494 -2.64166 1.4155 0
M  V30 9513 H 874.055 -1.35254 0.889826 0
M  V30 9514 H 876.047 -3.98009 -0.73288 0
M  V30 9515 H 874.617 -2.95622 -1.0162 0
M  V30 9516 H 873.837 -3.70179 1.35505 0
M  V30 9517 H 875.125 -4.91842 1.30263 0
M  V30 9518 H 874.523 -5.34606 -1.84968 0
M  V30 9519 H 873.08 -6.27468 -1.76428 0
M  V30 9520 N 876.513 -0.788492 -1.36457 0
M  V30 9521 C 877.463 -0.159377 -2.27442 0
M  V30 9522 C 878.447 0.656146 -1.46913 0
M  V30 9523 O 879.639 0.516372 -1.693 0
M  V30 9524 C 876.768 0.705703 -3.35968 0
M  V30 9525 C 875.854 -0.11856 -4.23934 0
M  V30 9526 N 876.245 -1.1726 -4.9202 0
M  V30 9527 C 874.543 0.102752 -4.45882 0
M  V30 9528 C 875.244 -1.6743 -5.57083 0
M  V30 9529 N 874.22 -0.983682 -5.34626 0
M  V30 9530 H 878.022 -0.96614 -2.77566 0
M  V30 9531 H 875.536 -0.627864 -1.49772 0
M  V30 9532 H 877.533 1.17231 -4.00078 0
M  V30 9533 H 876.193 1.51102 -2.87399 0
M  V30 9534 H 877.204 -1.55502 -4.94004 0
M  V30 9535 H 873.881 0.878651 -4.08149 0
M  V30 9536 H 875.271 -2.55423 -6.21457 0
M  V30 9537 N 877.991 1.48044 -0.54043 0
M  V30 9538 C 879.238 2.02497 -0.0101567 0
M  V30 9539 C 879.566 1.41651 1.33286 0
M  V30 9540 O 878.821 0.555504 1.8765 0
M  V30 9541 C 879.12 3.57085 0.150008 0
M  V30 9542 C 878.786 4.36769 -1.11998 0
M  V30 9543 C 877.448 4.58261 -1.46801 0
M  V30 9544 C 879.8 4.82848 -1.96232 0
M  V30 9545 C 877.128 5.23079 -2.65717 0
M  V30 9546 C 879.48 5.48977 -3.14335 0
M  V30 9547 C 878.144 5.68705 -3.49472 0
M  V30 9548 H 877.414 0.740991 -0.00371661 0
M  V30 9549 H 880.061 1.77909 -0.708562 0
M  V30 9550 H 878.366 3.80572 0.931259 0
M  V30 9551 H 880.063 3.96851 0.575384 0
M  V30 9552 H 876.653 4.20309 -0.838957 0
M  V30 9553 H 880.837 4.66038 -1.70654 0
M  V30 9554 H 876.093 5.36549 -2.93129 0
M  V30 9555 H 880.267 5.83649 -3.79904 0
M  V30 9556 H 877.894 6.18703 -4.41713 0
M  V30 9557 N 879.47 0.276058 1.55163 0
M  V30 9558 C 880.402 -0.644254 2.19959 0
M  V30 9559 C 881.415 -1.11675 1.18459 0
M  V30 9560 O 882.604 -1.0385 1.45181 0
M  V30 9561 C 879.704 -1.89093 2.81242 0
M  V30 9562 C 878.877 -1.56509 4.08441 0
M  V30 9563 C 877.936 -2.66433 4.53762 0
M  V30 9564 O 876.962 -2.32579 5.19515 0
M  V30 9565 N 878.164 -3.96509 4.23982 0
M  V30 9566 H 880.929 -0.0896808 2.99566 0
M  V30 9567 H 878.49 0.0971981 1.61608 0
M  V30 9568 H 880.482 -2.61929 3.08505 0
M  V30 9569 H 879.052 -2.35453 2.05622 0
M  V30 9570 H 878.272 -0.670522 3.88455 0
M  V30 9571 H 879.56 -1.32242 4.91314 0
M  V30 9572 H 878.958 -4.26834 3.71254 0
M  V30 9573 H 877.515 -4.6572 4.56014 0
M  V30 9574 N 880.948 -1.576 0.00335426 0
M  V30 9575 C 881.911 -2.07576 -0.971838 0
M  V30 9576 C 882.911 -0.985796 -1.27038 0
M  V30 9577 O 884.101 -1.24833 -1.21501 0
M  V30 9578 C 881.233 -2.52003 -2.29581 0
M  V30 9579 H 882.426 -2.95008 -0.539481 0
M  V30 9580 H 879.979 -1.54381 -0.244186 0
M  V30 9581 H 880.714 -1.67825 -2.77498 0
M  V30 9582 H 880.499 -3.31609 -2.09231 0
M  V30 9583 H 881.989 -2.90983 -2.99531 0
M  V30 9584 N 882.426 0.269451 -1.5528 0
M  V30 9585 C 883.336 1.35511 -1.91505 0
M  V30 9586 C 884.352 1.53854 -0.812712 0
M  V30 9587 O 885.528 1.67912 -1.1121 0
M  V30 9588 C 882.593 2.6937 -2.18267 0
M  V30 9589 C 881.654 2.59743 -3.41807 0
M  V30 9590 C 880.887 3.87219 -3.67283 0
M  V30 9591 O 881.11 4.88066 -2.95208 0
M  V30 9592 O 880.044 3.87209 -4.60818 0
M  V30 9593 H 883.87 1.07785 -2.8393 0
M  V30 9594 H 881.455 0.468282 -1.41871 0
M  V30 9595 H 883.337 3.48513 -2.36889 0
M  V30 9596 H 882.012 2.96874 -1.29024 0
M  V30 9597 H 880.919 1.78964 -3.28516 0
M  V30 9598 H 882.252 2.37188 -4.3128 0
M  V30 9599 N 883.904 1.48273 0.534124 0
M  V30 9600 C 884.814 1.65162 1.66609 0
M  V30 9601 C 885.83 0.534177 1.65598 0
M  V30 9602 O 887.006 0.804715 1.84625 0
M  V30 9603 C 884.071 1.68354 3.03081 0
M  V30 9604 C 883.132 2.91696 3.1498 0
M  V30 9605 C 882.365 2.94725 4.44941 0
M  V30 9606 O 882.588 2.06285 5.31792 0
M  V30 9607 O 881.522 3.8685 4.61119 0
M  V30 9608 H 885.348 2.60991 1.55298 0
M  V30 9609 H 882.933 1.31626 0.706749 0
M  V30 9610 H 884.815 1.72998 3.84252 0
M  V30 9611 H 883.49 0.756978 3.14725 0
M  V30 9612 H 882.397 2.92586 2.33119 0
M  V30 9613 H 883.73 3.83722 3.0825 0
M  V30 9614 N 885.382 -0.782676 1.36792 0
M  V30 9615 C 886.292 -1.92679 1.33835 0
M  V30 9616 C 887.308 -1.72344 0.23952 0
M  V30 9617 O 888.484 -1.95766 0.473045 0
M  V30 9618 C 885.549 -3.27644 1.1336 0
M  V30 9619 C 884.61 -3.6071 2.32781 0
M  V30 9620 C 883.843 -4.89234 2.13273 0
M  V30 9621 O 884.066 -5.59468 1.11136 0
M  V30 9622 O 883 -5.21112 3.01208 0
M  V30 9623 H 886.826 -1.98124 2.30175 0
M  V30 9624 H 884.411 -0.923887 1.17408 0
M  V30 9625 H 886.293 -4.08394 1.03886 0
M  V30 9626 H 884.968 -3.23076 0.200868 0
M  V30 9627 H 883.875 -2.80238 2.47825 0
M  V30 9628 H 885.208 -3.70008 3.24584 0
M  V30 9629 N 886.86 -1.21182 -1.00761 0
M  V30 9630 C 887.823 -0.970339 -2.07646 0
M  V30 9631 C 888.823 0.0576345 -1.60697 0
M  V30 9632 O 890.013 -0.179369 -1.73274 0
M  V30 9633 C 887.145 -0.462703 -3.37745 0
M  V30 9634 H 888.338 -1.91856 -2.30502 0
M  V30 9635 H 885.891 -1.02844 -1.17698 0
M  V30 9636 H 886.626 0.490559 -3.20568 0
M  V30 9637 H 886.411 -1.20416 -3.73152 0
M  V30 9638 H 887.901 -0.313531 -4.16421 0
M  V30 9639 N 888.338 1.20213 -1.01915 0
M  V30 9640 C 889.286 2.25125 -0.584936 0
M  V30 9641 C 890.28 1.65138 0.377602 0
M  V30 9642 O 891.486 1.78294 0.247245 0
M  V30 9643 H 887.861 0.732333 -0.170858 0
M  V30 9644 H 889.832 2.59075 -1.48063 0
M  V30 9645 C 888.581 3.47651 0.058389 0
M  V30 9646 H 887.904 3.9409 -0.673263 0
M  V30 9647 H 889.344 4.2275 0.325285 0
M  V30 9648 C 887.803 3.10725 1.30199 0
M  V30 9649 O 888.333 3.22491 2.39505 0
M  V30 9650 N 886.539 2.6525 1.18706 0
M  V30 9651 H 886.086 2.55875 0.297618 0
M  V30 9652 H 886.044 2.40913 2.02011 0
M  V30 9653 N 889.816 0.795718 1.36037 0
M  V30 9654 C 890.746 0.212803 2.32528 0
M  V30 9655 C 891.727 -0.655716 1.56953 0
M  V30 9656 O 892.912 -0.588238 1.85077 0
M  V30 9657 C 890.042 -0.648189 3.41198 0
M  V30 9658 C 888.996 0.120948 4.27829 0
M  V30 9659 C 888.322 -0.861044 5.27722 0
M  V30 9660 C 889.622 1.31375 5.05508 0
M  V30 9661 H 891.316 1.01893 2.81528 0
M  V30 9662 H 888.862 0.491422 1.35355 0
M  V30 9663 H 890.815 -1.06597 4.07695 0
M  V30 9664 H 889.539 -1.48709 2.9078 0
M  V30 9665 H 888.198 0.519777 3.62897 0
M  V30 9666 H 887.846 -1.69515 4.73575 0
M  V30 9667 H 887.546 -0.350808 5.86552 0
M  V30 9668 H 889.07 -1.27726 5.97092 0
M  V30 9669 H 890.484 0.971406 5.6501 0
M  V30 9670 H 888.881 1.75772 5.73781 0
M  V30 9671 H 889.951 2.10593 4.36782 0
M  V30 9672 N 891.294 -1.47756 0.548274 0
M  V30 9673 C 892.224 -2.32702 -0.19284 0
M  V30 9674 C 893.205 -1.43237 -0.917457 0
M  V30 9675 O 894.39 -1.72103 -0.89967 0
M  V30 9676 C 891.52 -3.24831 -1.22891 0
M  V30 9677 C 890.474 -4.23466 -0.621312 0
M  V30 9678 C 889.8 -5.04856 -1.76137 0
M  V30 9679 C 891.1 -5.20616 0.419055 0
M  V30 9680 H 892.794 -2.94914 0.516323 0
M  V30 9681 H 890.34 -1.41818 0.24975 0
M  V30 9682 H 892.293 -3.83094 -1.75547 0
M  V30 9683 H 891.017 -2.60656 -1.9679 0
M  V30 9684 H 889.676 -3.66416 -0.116123 0
M  V30 9685 H 889.324 -4.37091 -2.48918 0
M  V30 9686 H 889.024 -5.71629 -1.36065 0
M  V30 9687 H 890.548 -5.65976 -2.29136 0
M  V30 9688 H 891.962 -5.73296 -0.0211034 0
M  V30 9689 H 890.359 -5.95543 0.738163 0
M  V30 9690 H 891.429 -4.66638 1.31822 0
M  V30 9691 N 892.772 -0.284283 -1.55015 0
M  V30 9692 C 894.188 0.069603 -1.59448 0
M  V30 9693 C 894.388 1.53833 -1.30144 0
M  V30 9694 O 893.444 2.2886 -1.06674 0
M  V30 9695 C 894.757 -0.313287 -2.99064 0
M  V30 9696 C 896.305 -0.260662 -3.11913 0
M  V30 9697 C 896.78 -0.618127 -4.5381 0
M  V30 9698 N 898.271 -0.570026 -4.59679 0
M  V30 9699 C 899.006 -0.8193 -5.67517 0
M  V30 9700 N 898.502 -1.13367 -6.83462 0
M  V30 9701 N 900.295 -0.747482 -5.57108 0
M  V30 9702 H 892.446 -1.24167 -1.72326 0
M  V30 9703 H 894.709 -0.502259 -0.804015 0
M  V30 9704 H 894.415 -1.33509 -3.25374 0
M  V30 9705 H 894.289 0.341369 -3.75652 0
M  V30 9706 H 896.676 0.751869 -2.85361 0
M  V30 9707 H 896.757 -0.949706 -2.37517 0
M  V30 9708 H 896.401 -1.62839 -4.81088 0
M  V30 9709 H 896.331 0.092807 -5.26518 0
M  V30 9710 H 898.822 -0.3373 -3.76392 0
M  V30 9711 H 899.135 -1.3103 -7.61611 0
M  V30 9712 H 897.48 -1.17154 -6.85055 0
M  V30 9713 H 900.671 -0.501658 -4.65404 0
M  V30 9714 H 900.844 -0.945128 -6.4107 0
M  V30 9715 N 894.251 1.57596 -0.0117121 0
M  V30 9716 C 895.667 1.55837 0.344506 0
M  V30 9717 C 895.867 1.01557 1.74036 0
M  V30 9718 O 894.923 0.654563 2.43868 0
M  V30 9719 C 896.236 2.99973 0.209023 0
M  V30 9720 C 897.784 3.11717 0.283092 0
M  V30 9721 C 898.259 4.57659 0.176599 0
M  V30 9722 N 899.75 4.62608 0.234133 0
M  V30 9723 C 900.485 5.73132 0.175252 0
M  V30 9724 N 899.981 6.92768 0.0662888 0
M  V30 9725 N 901.774 5.61638 0.227972 0
M  V30 9726 H 893.925 1.91215 -0.924692 0
M  V30 9727 H 896.188 0.878807 -0.355531 0
M  V30 9728 H 895.894 3.4357 -0.751826 0
M  V30 9729 H 895.768 3.64075 0.98635 0
M  V30 9730 H 898.155 2.68043 1.23439 0
M  V30 9731 H 898.236 2.50369 -0.52431 0
M  V30 9732 H 897.88 5.02011 -0.771205 0
M  V30 9733 H 897.81 5.16967 1.00264 0
M  V30 9734 H 900.301 3.76549 0.319203 0
M  V30 9735 H 900.614 7.72795 0.0275765 0
M  V30 9736 H 898.959 6.94993 0.0317502 0
M  V30 9737 H 902.15 4.67063 0.311377 0
M  V30 9738 H 902.323 6.47754 0.178621 0
M  V30 9739 N 895.729 -0.261212 1.5542 0
M  V30 9740 C 896.661 -1.34571 1.85535 0
M  V30 9741 C 897.674 -1.44979 0.740612 0
M  V30 9742 O 898.863 -1.46584 1.01859 0
M  V30 9743 C 895.963 -2.7258 2.01378 0
M  V30 9744 C 895.136 -2.84618 3.32131 0
M  V30 9745 C 894.195 -4.03379 3.37893 0
M  V30 9746 O 893.221 -3.93581 4.11197 0
M  V30 9747 N 894.423 -5.15893 2.66148 0
M  V30 9748 H 897.188 -1.09078 2.79145 0
M  V30 9749 H 894.749 -0.451327 1.55482 0
M  V30 9750 H 896.741 -3.50342 2.0259 0
M  V30 9751 H 895.311 -2.90844 1.14579 0
M  V30 9752 H 894.531 -1.93647 3.43358 0
M  V30 9753 H 895.819 -2.896 4.18341 0
M  V30 9754 H 895.217 -5.26743 2.06297 0
M  V30 9755 H 893.774 -5.91842 2.73069 0
M  V30 9756 N 897.207 -1.48554 -0.526253 0
M  V30 9757 C 898.623 -1.34757 -0.855138 0
M  V30 9758 C 898.823 -0.36142 -1.98232 0
M  V30 9759 O 897.879 0.216026 -2.51574 0
M  V30 9760 C 899.192 -2.74877 -1.21915 0
M  V30 9761 C 900.74 -2.83393 -1.32882 0
M  V30 9762 C 901.215 -4.24223 -1.72624 0
M  V30 9763 N 902.706 -4.26913 -1.7972 0
M  V30 9764 C 903.441 -5.32824 -2.11863 0
M  V30 9765 N 902.937 -6.49008 -2.42405 0
M  V30 9766 N 904.73 -5.20221 -2.12901 0
M  V30 9767 H 896.881 -2.11284 0.217422 0
M  V30 9768 H 899.144 -0.947367 0.0346362 0
M  V30 9769 H 898.85 -3.48619 -0.464486 0
M  V30 9770 H 898.724 -3.0864 -2.16844 0
M  V30 9771 H 901.111 -2.09904 -2.07424 0
M  V30 9772 H 901.192 -2.53245 -0.360638 0
M  V30 9773 H 900.836 -4.98229 -0.986411 0
M  V30 9774 H 900.766 -4.51817 -2.70498 0
M  V30 9775 H 903.257 -3.4311 -1.58379 0
M  V30 9776 H 903.57 -7.25561 -2.66048 0
M  V30 9777 H 901.915 -6.52277 -2.39917 0
M  V30 9778 H 905.106 -4.28469 -1.885 0
M  V30 9779 H 905.279 -6.02861 -2.37619 0
M  V30 9780 N 898.685 0.775411 -1.37205 0
M  V30 9781 C 899.617 1.89761 -1.28544 0
M  V30 9782 C 900.63 1.61542 -0.201996 0
M  V30 9783 O 901.819 1.72528 -0.457848 0
M  V30 9784 C 898.919 3.24904 -0.963885 0
M  V30 9785 C 898.092 3.80796 -2.15205 0
M  V30 9786 C 897.151 4.94407 -1.80135 0
M  V30 9787 O 896.177 5.10185 -2.52388 0
M  V30 9788 N 897.379 5.75722 -0.743298 0
M  V30 9789 H 900.144 1.97708 -2.25237 0
M  V30 9790 H 897.705 0.954348 -1.30782 0
M  V30 9791 H 899.697 3.9842 -0.710182 0
M  V30 9792 H 898.267 3.12483 -0.085632 0
M  V30 9793 H 897.487 2.99101 -2.56773 0
M  V30 9794 H 898.775 4.1487 -2.94552 0
M  V30 9795 H 898.173 5.65518 -0.143655 0
M  V30 9796 H 896.73 6.4948 -0.549446 0
M  V30 9797 N 900.163 1.21714 1.00117 0
M  V30 9798 C 901.393 1.06124 1.77261 0
M  V30 9799 C 901.801 -0.391717 1.85101 0
M  V30 9800 O 901.144 -1.28347 1.31426 0
M  V30 9801 C 901.206 1.58778 3.22536 0
M  V30 9802 C 900.87 3.07289 3.38264 0
M  V30 9803 C 901.867 4.04801 3.26239 0
M  V30 9804 C 899.552 3.46574 3.63582 0
M  V30 9805 C 901.546 5.39585 3.39303 0
M  V30 9806 C 899.233 4.81509 3.76288 0
M  V30 9807 C 900.231 5.77824 3.64155 0
M  V30 9808 O 899.919 7.1031 3.7645 0
M  V30 9809 H 899.651 0.372979 0.563793 0
M  V30 9810 H 902.205 1.61589 1.26799 0
M  V30 9811 H 900.435 0.977129 3.74151 0
M  V30 9812 H 902.124 1.38974 3.81367 0
M  V30 9813 H 902.89 3.75795 3.066 0
M  V30 9814 H 898.769 2.72137 3.72106 0
M  V30 9815 H 902.313 6.14744 3.2975 0
M  V30 9816 H 898.21 5.102 3.95432 0
M  V30 9817 H 898.978 7.17774 3.93374 0
M  V30 9818 N 901.641 -1.19671 1.02551 0
M  V30 9819 C 902.571 -2.25009 0.623965 0
M  V30 9820 C 903.552 -1.66129 -0.36538 0
M  V30 9821 O 904.737 -1.92599 -0.248842 0
M  V30 9822 C 901.867 -3.47287 -0.0294869 0
M  V30 9823 C 900.821 -4.18818 0.881781 0
M  V30 9824 C 900.147 -5.34618 0.0936189 0
M  V30 9825 C 901.447 -4.73986 2.19396 0
M  V30 9826 H 903.141 -2.58851 1.50454 0
M  V30 9827 H 900.687 -1.24425 0.724872 0
M  V30 9828 H 902.64 -4.20168 -0.322016 0
M  V30 9829 H 901.364 -3.12635 -0.944838 0
M  V30 9830 H 900.023 -3.47815 1.15845 0
M  V30 9831 H 899.671 -4.9621 -0.823661 0
M  V30 9832 H 899.371 -5.83409 0.700568 0
M  V30 9833 H 900.895 -6.10297 -0.192249 0
M  V30 9834 H 902.309 -5.38639 1.96319 0
M  V30 9835 H 900.706 -5.3325 2.75254 0
M  V30 9836 H 901.776 -3.92238 2.85092 0
M  V30 9837 N 903.119 -0.802921 -1.35613 0
M  V30 9838 C 904.029 -0.212177 -2.33639 0
M  V30 9839 C 905.045 0.642871 -1.61689 0
M  V30 9840 O 906.221 0.555485 -1.93588 0
M  V30 9841 C 903.286 0.632406 -3.40883 0
M  V30 9842 C 902.347 -0.242708 -4.28613 0
M  V30 9843 C 901.58 0.56166 -5.30736 0
M  V30 9844 O 901.803 1.79664 -5.41366 0
M  V30 9845 O 900.737 -0.0455387 -6.01883 0
M  V30 9846 H 904.563 -1.023 -2.85952 0
M  V30 9847 H 902.148 -0.564636 -1.38319 0
M  V30 9848 H 904.03 1.11358 -4.0642 0
M  V30 9849 H 902.705 1.42089 -2.90848 0
M  V30 9850 H 901.612 -0.77094 -3.6607 0
M  V30 9851 H 902.945 -0.995046 -4.82037 0
M  V30 9852 N 904.597 1.47463 -0.556102 0
M  V30 9853 C 905.527 2.32801 0.180497 0
M  V30 9854 C 906.508 1.43721 0.909848 0
M  V30 9855 O 907.693 1.72578 0.89053 0
M  V30 9856 C 904.823 3.25478 1.21167 0
M  V30 9857 C 903.777 4.2379 0.598846 0
M  V30 9858 C 903.103 5.05783 1.73457 0
M  V30 9859 C 904.403 5.20387 -0.446659 0
M  V30 9860 H 906.097 2.94636 -0.531956 0
M  V30 9861 H 903.643 1.41683 -0.257267 0
M  V30 9862 H 905.596 3.8402 1.73513 0
M  V30 9863 H 904.32 2.61695 1.95405 0
M  V30 9864 H 902.979 3.66472 0.0966897 0
M  V30 9865 H 902.627 4.38405 2.46596 0
M  V30 9866 H 902.327 5.72343 1.33031 0
M  V30 9867 H 903.851 5.67183 2.26131 0
M  V30 9868 H 905.265 5.73299 -0.00930019 0
M  V30 9869 H 903.662 5.95143 -0.769735 0
M  V30 9870 H 904.732 4.65932 -1.34295 0
M  V30 9871 N 906.075 0.2925 1.54862 0
M  V30 9872 C 906.985 -0.597036 2.26876 0
M  V30 9873 C 908.001 -1.15558 1.30086 0
M  V30 9874 O 909.177 -1.18217 1.63054 0
M  V30 9875 C 906.242 -1.75664 2.98903 0
M  V30 9876 C 905.303 -1.23303 4.11212 0
M  V30 9877 C 904.536 -2.33736 4.79795 0
M  V30 9878 O 904.759 -3.53459 4.47686 0
M  V30 9879 O 903.693 -2.00908 5.67379 0
M  V30 9880 H 907.519 -0.0131242 3.03697 0
M  V30 9881 H 905.104 0.0592642 1.49282 0
M  V30 9882 H 906.986 -2.43241 3.4411 0
M  V30 9883 H 905.661 -2.32731 2.24984 0
M  V30 9884 H 904.568 -0.523222 3.70423 0
M  V30 9885 H 905.901 -0.707887 4.87083 0
M  V30 9886 N 907.553 -1.57587 0.0200696 0
M  V30 9887 C 908.793 -1.93287 -0.66479 0
M  V30 9888 C 909.157 -0.896022 -1.6981 0
M  V30 9889 O 910.358 -1.13892 -2.43479 0
M  V30 9890 C 908.629 -3.33949 -1.27328 0
M  V30 9891 S 910.188 -3.91564 -1.98047 0
M  V30 9892 H 907.006 -0.676397 -0.219106 0
M  V30 9893 H 909.608 -1.9533 0.081568 0
M  V30 9894 H 908.312 -4.07235 -0.508673 0
M  V30 9895 H 907.843 -3.35329 -2.05714 0
M  V30 9896 H 909.858 -3.74265 -3.25791 0
M  V30 9897 N 909.032 0.252966 -1.55557 0
M  V30 9898 C 910.448 0.60118 -1.47844 0
M  V30 9899 C 910.648 1.88612 -0.709055 0
M  V30 9900 O 909.704 2.51395 -0.235964 0
M  V30 9901 C 911.017 0.709539 -2.92209 0
M  V30 9902 C 912.565 0.802269 -3.02544 0
M  V30 9903 C 913.04 0.94224 -4.48203 0
M  V30 9904 N 914.531 1.00726 -4.52116 0
M  V30 9905 C 915.266 1.13472 -5.6206 0
M  V30 9906 N 914.762 1.22811 -6.81828 0
M  V30 9907 N 916.555 1.1674 -5.49844 0
M  V30 9908 H 908.706 -0.590635 -2.04023 0
M  V30 9909 H 910.969 -0.202986 -0.926013 0
M  V30 9910 H 910.675 -0.164505 -3.51315 0
M  V30 9911 H 910.549 1.58343 -3.42356 0
M  V30 9912 H 912.936 1.66677 -2.43522 0
M  V30 9913 H 913.017 -0.0966469 -2.55617 0
M  V30 9914 H 912.661 0.0823209 -5.07833 0
M  V30 9915 H 912.591 1.85611 -4.92805 0
M  V30 9916 H 915.082 0.946684 -3.6585 0
M  V30 9917 H 915.395 1.32426 -7.61369 0
M  V30 9918 H 913.74 1.19779 -6.84601 0
M  V30 9919 H 916.931 1.09089 -4.55211 0
M  V30 9920 H 917.104 1.26329 -6.35567 0
M  V30 9921 N 910.51 1.48831 0.518367 0
M  V30 9922 C 911.926 1.35209 0.847979 0
M  V30 9923 C 912.126 0.371927 1.98038 0
M  V30 9924 O 911.182 -0.202681 2.51685 0
M  V30 9925 C 912.495 2.7552 1.20455 0
M  V30 9926 C 914.043 2.84094 1.31377 0
M  V30 9927 C 914.518 4.25132 1.70372 0
M  V30 9928 N 916.009 4.27861 1.77453 0
M  V30 9929 C 916.744 5.3394 2.09035 0
M  V30 9930 N 916.24 6.50285 2.3896 0
M  V30 9931 N 918.033 5.21343 2.10139 0
M  V30 9932 H 910.184 2.11166 -0.228624 0
M  V30 9933 H 912.447 0.94717 -0.0396599 0
M  V30 9934 H 912.153 3.48861 0.445991 0
M  V30 9935 H 912.027 3.09785 2.15204 0
M  V30 9936 H 914.414 2.11001 2.06307 0
M  V30 9937 H 914.495 2.53433 0.347203 0
M  V30 9938 H 914.139 4.98745 0.959975 0
M  V30 9939 H 914.069 4.53245 2.68098 0
M  V30 9940 H 916.56 3.43945 1.56557 0
M  V30 9941 H 916.873 7.26961 2.62196 0
M  V30 9942 H 915.218 6.5354 2.36454 0
M  V30 9943 H 918.409 4.29462 1.86225 0
M  V30 9944 H 918.582 6.04112 2.34419 0
M  V30 9945 N 911.988 -0.768124 1.37614 0
M  V30 9946 C 913.235 -1.5268 1.33022 0
M  V30 9947 C 913.563 -1.94318 -0.0841918 0
M  V30 9948 O 912.818 -1.64623 -1.0582 0
M  V30 9949 C 913.117 -2.80204 2.21856 0
M  V30 9950 C 912.783 -2.57602 3.7007 0
M  V30 9951 C 911.445 -2.51146 4.10462 0
M  V30 9952 C 913.797 -2.37482 4.63952 0
M  V30 9953 C 911.125 -2.22566 5.42846 0
M  V30 9954 C 913.477 -2.10425 5.96577 0
M  V30 9955 C 912.141 -2.02416 6.36069 0
M  V30 9956 H 911.411 -0.558697 0.486763 0
M  V30 9957 H 914.058 -0.88447 1.69851 0
M  V30 9958 H 912.363 -3.49014 1.78034 0
M  V30 9959 H 914.06 -3.38099 2.15615 0
M  V30 9960 H 910.65 -2.63491 3.38039 0
M  V30 9961 H 914.834 -2.41457 4.33604 0
M  V30 9962 H 910.09 -2.14863 5.72402 0
M  V30 9963 H 914.264 -1.93857 6.68874 0
M  V30 9964 H 911.891 -1.80034 7.38574 0
M  V30 9965 N 913.466 -1.22244 -0.994698 0
M  V30 9966 C 914.413 -0.990906 -2.08446 0
M  V30 9967 C 915.383 0.086737 -1.65873 0
M  V30 9968 O 916.568 -0.0624882 -1.90698 0
M  V30 9969 C 913.708 -0.572813 -3.40313 0
M  V30 9970 C 912.821 -1.72103 -3.96238 0
M  V30 9971 C 911.956 -1.2511 -5.16257 0
M  V30 9972 C 910.995 -2.37098 -5.64315 0
M  V30 9973 N 910.132 -1.91164 -6.75574 0
M  V30 9974 H 914.972 -1.92377 -2.27585 0
M  V30 9975 H 912.509 -0.958576 -1.11578 0
M  V30 9976 H 914.467 -0.311594 -4.16035 0
M  V30 9977 H 913.097 0.323044 -3.21179 0
M  V30 9978 H 912.149 -2.09662 -3.17405 0
M  V30 9979 H 913.461 -2.56347 -4.27888 0
M  V30 9980 H 912.615 -0.947152 -5.99261 0
M  V30 9981 H 911.354 -0.378836 -4.86226 0
M  V30 9982 H 910.359 -2.68283 -4.799 0
M  V30 9983 H 911.584 -3.24837 -5.96371 0
M  V30 9984 H 909.53 -1.06298 -6.47331 0
M  V30 9985 H 909.447 -2.68975 -7.06533 0
M  V30 9986 H 910.715 -1.63833 -7.62088 0
M  V30 9987 N 914.944 1.19125 -1.03184 0
M  V30 9988 C 916.36 1.40909 -0.749447 0
M  V30 9989 C 916.56 1.9022 0.664729 0
M  V30 9990 O 915.616 2.08085 1.43028 0
M  V30 9991 C 916.929 2.41761 -1.78807 0
M  V30 9992 C 918.477 2.55503 -1.80796 0
M  V30 9993 C 918.952 3.59612 -2.83626 0
M  V30 9994 N 920.443 3.6711 -2.82461 0
M  V30 9995 C 921.178 4.47366 -3.5868 0
M  V30 9996 N 920.674 5.31302 -4.44623 0
M  V30 9997 N 922.467 4.42044 -3.47208 0
M  V30 9998 H 914.618 0.854399 -1.94458 0
M  V30 9999 H 916.881 0.437753 -0.840878 0
M  V30 10000 H 916.587 2.12559 -2.80199 0
M  V30 10001 H 916.461 3.40981 -1.61283 0
M  V30 10002 H 918.848 2.84027 -0.800803 0
M  V30 10003 H 918.929 1.56427 -2.02396 0
M  V30 10004 H 918.573 3.3183 -3.84515 0
M  V30 10005 H 918.503 4.58345 -2.59283 0
M  V30 10006 H 920.994 3.07166 -2.2013 0
M  V30 10007 H 921.307 5.89667 -4.99512 0
M  V30 10008 H 919.652 5.30753 -4.48694 0
M  V30 10009 H 922.843 3.75513 -2.79477 0
M  V30 10010 H 923.016 5.0435 -4.06859 0
M  V30 10011 N 916.422 0.810101 1.35185 0
M  V30 10012 C 917.838 0.494269 1.51754 0
M  V30 10013 C 918.038 -0.983907 1.75845 0
M  V30 10014 O 917.094 -1.76882 1.80191 0
M  V30 10015 C 918.407 1.34268 2.69059 0
M  V30 10016 C 919.955 1.33848 2.82938 0
M  V30 10017 C 920.43 2.17109 4.03271 0
M  V30 10018 N 921.921 2.14664 4.10456 0
M  V30 10019 C 922.656 2.75843 5.02691 0
M  V30 10020 N 922.152 3.45962 6.00235 0
M  V30 10021 N 923.945 2.65465 4.95464 0
M  V30 10022 H 916.096 1.76736 1.17805 0
M  V30 10023 H 918.359 0.752429 0.576676 0
M  V30 10024 H 918.065 2.39183 2.57845 0
M  V30 10025 H 917.939 0.998362 3.63748 0
M  V30 10026 H 920.326 0.29716 2.936 0
M  V30 10027 H 920.407 1.72269 1.89095 0
M  V30 10028 H 920.051 3.21283 3.93369 0
M  V30 10029 H 919.981 1.76046 4.96302 0
M  V30 10030 H 922.472 1.63648 3.40628 0
M  V30 10031 H 922.785 3.89922 6.67219 0
M  V30 10032 H 921.13 3.50067 6.00398 0
M  V30 10033 H 924.321 2.1027 4.18215 0
M  V30 10034 H 924.494 3.13433 5.67154 0
M  V30 10035 N 917.9 -1.47166 0.563914 0
M  V30 10036 C 918.833 -2.27058 -0.227989 0
M  V30 10037 C 919.811 -1.34468 -0.914179 0
M  V30 10038 O 920.995 -1.63857 -0.931829 0
M  V30 10039 C 918.122 -3.11689 -1.32543 0
M  V30 10040 C 917.168 -4.19906 -0.747084 0
M  V30 10041 S 918.001 -5.33916 0.41153 0
M  V30 10042 C 919.157 -6.22112 -0.687566 0
M  V30 10043 H 919.39 -2.93876 0.449939 0
M  V30 10044 H 916.923 -1.50372 0.350382 0
M  V30 10045 H 918.881 -3.61017 -1.95389 0
M  V30 10046 H 917.542 -2.44221 -1.97522 0
M  V30 10047 H 916.735 -4.78876 -1.57141 0
M  V30 10048 H 916.337 -3.73493 -0.194671 0
M  V30 10049 H 918.629 -6.58867 -1.578 0
M  V30 10050 H 919.572 -7.07971 -0.135058 0
M  V30 10051 H 919.98 -5.55871 -0.983255 0
M  V30 10052 N 919.378 -0.300708 -1.54705 0
M  V30 10053 C 920.308 0.568675 -2.26469 0
M  V30 10054 C 921.289 1.13817 -1.26411 0
M  V30 10055 O 922.474 1.16756 -1.55183 0
M  V30 10056 C 919.604 1.74077 -3.00524 0
M  V30 10057 C 918.558 1.30165 -4.07727 0
M  V30 10058 C 917.884 2.55888 -4.69495 0
M  V30 10059 C 919.184 0.433106 -5.20501 0
M  V30 10060 H 920.878 -0.0298851 -2.99385 0
M  V30 10061 H 918.424 -0.0158135 -1.43991 0
M  V30 10062 H 920.377 2.35506 -3.49449 0
M  V30 10063 H 919.101 2.36556 -2.25186 0
M  V30 10064 H 917.76 0.710414 -3.59651 0
M  V30 10065 H 917.408 3.16681 -3.90797 0
M  V30 10066 H 917.108 2.27207 -5.41895 0
M  V30 10067 H 918.632 3.18121 -5.21183 0
M  V30 10068 H 920.046 0.95307 -5.65322 0
M  V30 10069 H 918.443 0.240085 -5.9962 0
M  V30 10070 H 919.513 -0.541866 -4.81863 0
M  V30 10071 N 920.856 1.57574 -0.0284266 0
M  V30 10072 C 921.786 2.1321 0.952039 0
M  V30 10073 C 922.767 1.04806 1.33977 0
M  V30 10074 O 923.952 1.32635 1.41851 0
M  V30 10075 C 921.082 2.65862 2.23461 0
M  V30 10076 C 920.036 3.79047 1.98765 0
M  V30 10077 C 919.362 4.18124 3.33281 0
M  V30 10078 C 920.662 5.05151 1.32739 0
M  V30 10079 H 922.356 2.95385 0.488705 0
M  V30 10080 H 919.902 1.42092 0.233628 0
M  V30 10081 H 921.855 3.03417 2.92431 0
M  V30 10082 H 920.579 1.80848 2.71959 0
M  V30 10083 H 919.238 3.41929 1.32213 0
M  V30 10084 H 918.886 3.30092 3.79537 0
M  V30 10085 H 918.586 4.94396 3.17563 0
M  V30 10086 H 920.11 4.58262 4.0352 0
M  V30 10087 H 921.524 5.40297 1.91708 0
M  V30 10088 H 919.921 5.86416 1.27421 0
M  V30 10089 H 920.991 4.83969 0.300261 0
M  V30 10090 N 922.334 -0.244713 1.55689 0
M  V30 10091 C 923.582 -0.970525 1.77272 0
M  V30 10092 C 923.903 -1.85771 0.592804 0
M  V30 10093 O 923.173 -1.91952 -0.391323 0
M  V30 10094 H 921.753 -0.361342 0.653789 0
M  V30 10095 H 924.415 -0.262134 1.93129 0
M  V30 10096 H 923.511 -1.59096 2.68505 0
M  V30 10097 N 923.813 -1.49104 -0.510467 0
M  V30 10098 C 925.229 -1.35657 -0.840797 0
M  V30 10099 C 925.429 -0.382425 -1.97838 0
M  V30 10100 O 924.485 0.189331 -2.51789 0
M  V30 10101 C 925.798 -2.76155 -1.18992 0
M  V30 10102 C 927.346 -2.84786 -1.29868 0
M  V30 10103 C 927.821 -4.2603 -1.68115 0
M  V30 10104 N 929.312 -4.28796 -1.75181 0
M  V30 10105 C 930.047 -5.35041 -2.062 0
M  V30 10106 N 929.543 -6.51543 -2.35508 0
M  V30 10107 N 931.336 -5.2245 -2.07371 0
M  V30 10108 H 923.487 -2.11042 0.23982 0
M  V30 10109 H 925.75 -0.946946 0.0446824 0
M  V30 10110 H 925.456 -3.49092 -0.427484 0
M  V30 10111 H 925.33 -3.10922 -2.13558 0
M  V30 10112 H 927.717 -2.12092 -2.05186 0
M  V30 10113 H 927.798 -2.53613 -0.333758 0
M  V30 10114 H 927.442 -4.99247 -0.933512 0
M  V30 10115 H 927.372 -4.5466 -2.65691 0
M  V30 10116 H 929.863 -3.44771 -1.5473 0
M  V30 10117 H 930.176 -7.28342 -2.58337 0
M  V30 10118 H 928.521 -6.54785 -2.32985 0
M  V30 10119 H 931.712 -4.30444 -1.83945 0
M  V30 10120 H 931.885 -6.05347 -2.31212 0
M  V30 10121 N 925.291 0.760815 -1.38019 0
M  V30 10122 C 926.241 1.86487 -1.31174 0
M  V30 10123 C 927.225 1.59684 -0.197414 0
M  V30 10124 O 928.417 1.71628 -0.432764 0
M  V30 10125 C 925.546 3.24103 -1.13192 0
M  V30 10126 C 924.632 3.5682 -2.29216 0
M  V30 10127 N 925.023 3.60644 -3.5464 0
M  V30 10128 C 923.321 3.87047 -2.2161 0
M  V30 10129 C 924.022 3.90423 -4.31214 0
M  V30 10130 N 922.998 4.06883 -3.60482 0
M  V30 10131 H 926.8 1.87711 -2.26146 0
M  V30 10132 H 924.314 0.957811 -1.31148 0
M  V30 10133 H 926.311 4.03101 -1.06372 0
M  V30 10134 H 924.971 3.24135 -0.191473 0
M  V30 10135 H 925.982 3.42581 -3.88405 0
M  V30 10136 H 922.659 3.94837 -1.35684 0
M  V30 10137 H 924.049 4.00065 -5.39812 0
M  V30 10138 N 926.769 1.22769 0.988202 0
M  V30 10139 C 927.717 0.999271 2.10041 0
M  V30 10140 C 928.711 -0.0591767 1.69297 0
M  V30 10141 O 929.917 0.0936653 1.79756 0
M  V30 10142 H 926.292 0.30599 0.686931 0
M  V30 10143 H 928.263 1.94294 2.26478 0
M  V30 10144 C 927.012 0.59873 3.42506 0
M  V30 10145 H 926.335 1.40487 3.74304 0
M  V30 10146 H 927.775 0.478353 4.21293 0
M  V30 10147 C 926.234 -0.692216 3.29712 0
M  V30 10148 O 926.764 -1.74342 3.61895 0
M  V30 10149 N 924.97 -0.665163 2.82885 0
M  V30 10150 H 924.517 0.190604 2.56894 0
M  V30 10151 H 924.475 -1.52917 2.74706 0
M  V30 10152 N 928.247 -1.18576 1.03814 0
M  V30 10153 C 929.177 -2.24334 0.647795 0
M  V30 10154 C 930.158 -1.66508 -0.34774 0
M  V30 10155 O 931.343 -1.92852 -0.228401 0
M  V30 10156 C 928.473 -3.47299 0.00734922 0
M  V30 10157 C 927.427 -4.17859 0.926152 0
M  V30 10158 C 926.753 -5.34489 0.150317 0
M  V30 10159 C 928.053 -4.71632 2.24411 0
M  V30 10160 H 929.747 -2.57241 1.53191 0
M  V30 10161 H 927.293 -1.23649 0.738028 0
M  V30 10162 H 929.246 -4.20486 -0.277434 0
M  V30 10163 H 927.97 -3.13619 -0.911626 0
M  V30 10164 H 926.629 -3.46567 1.19528 0
M  V30 10165 H 926.277 -4.97056 -0.770985 0
M  V30 10166 H 925.977 -5.82633 0.762407 0
M  V30 10167 H 927.501 -6.10467 -0.127508 0
M  V30 10168 H 928.915 -5.36526 2.02021 0
M  V30 10169 H 927.312 -5.303 2.80894 0
M  V30 10170 H 928.382 -3.89192 2.89236 0
M  V30 10171 N 929.725 -0.817259 -1.34754 0
M  V30 10172 C 930.635 -0.236946 -2.334 0
M  V30 10173 C 931.651 0.625685 -1.62361 0
M  V30 10174 O 932.827 0.534921 -1.94166 0
M  V30 10175 C 929.892 0.596215 -3.41535 0
M  V30 10176 C 928.953 -0.288154 -4.28332 0
M  V30 10177 C 928.186 0.505337 -5.31302 0
M  V30 10178 O 928.409 1.73912 -5.43241 0
M  V30 10179 O 927.343 -0.109374 -6.01801 0
M  V30 10180 H 931.169 -1.05327 -2.84851 0
M  V30 10181 H 928.754 -0.579275 -1.37713 0
M  V30 10182 H 930.636 1.07041 -4.07578 0
M  V30 10183 H 929.311 1.38997 -2.92338 0
M  V30 10184 H 928.218 -0.809724 -3.65232 0
M  V30 10185 H 929.551 -1.04612 -4.80955 0
M  V30 10186 N 931.203 1.46865 -0.571711 0
M  V30 10187 C 932.135 2.28277 0.205479 0
M  V30 10188 C 933.148 1.37866 0.865835 0
M  V30 10189 O 934.337 1.62564 0.737247 0
M  V30 10190 C 931.437 3.12572 1.30965 0
M  V30 10191 C 930.61 4.31038 0.743328 0
M  V30 10192 C 929.669 4.96815 1.73382 0
M  V30 10193 O 928.695 5.54755 1.2742 0
M  V30 10194 N 929.897 4.92825 3.06764 0
M  V30 10195 H 932.662 2.95618 -0.49294 0
M  V30 10196 H 930.223 1.56655 -0.408744 0
M  V30 10197 H 932.215 3.53442 1.97131 0
M  V30 10198 H 930.785 2.47378 1.91109 0
M  V30 10199 H 930.005 3.94084 -0.0955004 0
M  V30 10200 H 931.293 5.07632 0.344556 0
M  V30 10201 H 930.691 4.46978 3.46738 0
M  V30 10202 H 929.248 5.3767 3.68449 0
M  V30 10203 N 932.681 0.308908 1.54543 0
M  V30 10204 C 933.958 -0.351558 1.92415 0
M  V30 10205 C 934.338 -1.71061 1.23699 0
M  V30 10206 O 933.686 -2.25394 0.3755 0
M  V30 10207 C 933.896 -0.458357 3.45977 0
M  V30 10208 C 935.244 -0.725524 4.18355 0
M  V30 10209 O 936.268 -0.541859 3.52054 0
M  V30 10210 O 935.127 -1.07884 5.35745 0
M  V30 10211 H 932.221 -0.197957 0.802958 0
M  V30 10212 H 934.767 0.357548 1.65891 0
M  V30 10213 H 933.539 0.496723 3.88134 0
M  V30 10214 H 933.162 -1.21562 3.78561 0
M  V30 10215 N 934.159 -1.57557 0.0367827 0
M  V30 10216 C 935.089 -2.13712 -0.940719 0
M  V30 10217 C 936.07 -1.05515 -1.33419 0
M  V30 10218 O 937.255 -1.33385 -1.41146 0
M  V30 10219 C 934.385 -2.67043 -2.22048 0
M  V30 10220 C 933.339 -3.80096 -1.96752 0
M  V30 10221 C 932.665 -4.19886 -3.31059 0
M  V30 10222 C 933.965 -5.05848 -1.30058 0
M  V30 10223 H 935.659 -2.9564 -0.473033 0
M  V30 10224 H 933.205 -1.42214 -0.226089 0
M  V30 10225 H 935.158 -3.04964 -2.90818 0
M  V30 10226 H 933.882 -1.82287 -2.70996 0
M  V30 10227 H 932.541 -3.42625 -1.30398 0
M  V30 10228 H 932.189 -3.32101 -3.77781 0
M  V30 10229 H 931.889 -4.96073 -3.14937 0
M  V30 10230 H 933.413 -4.60395 -4.01084 0
M  V30 10231 H 934.827 -5.41306 -1.8884 0
M  V30 10232 H 933.224 -5.87084 -1.24309 0
M  V30 10233 H 934.294 -4.84122 -0.274591 0
M  V30 10234 N 935.637 0.236453 -1.55816 0
M  V30 10235 C 936.883 0.964439 -1.784 0
M  V30 10236 C 937.216 1.84573 -0.603868 0
M  V30 10237 O 936.491 1.90395 0.397473 0
M  V30 10238 C 936.774 1.81608 -3.10951 0
M  V30 10239 C 936.627 0.962283 -4.39386 0
M  V30 10240 C 937.946 2.79665 -3.39817 0
M  V30 10241 H 935.065 0.349192 -0.649026 0
M  V30 10242 H 937.707 0.234247 -1.8855 0
M  V30 10243 H 935.857 2.43864 -3.02428 0
M  V30 10244 H 937.529 0.35762 -4.59912 0
M  V30 10245 H 935.772 0.267062 -4.32977 0
M  V30 10246 H 936.443 1.59222 -5.28538 0
M  V30 10247 H 938.919 2.27546 -3.4837 0
M  V30 10248 H 937.795 3.36367 -4.33761 0
M  V30 10249 H 938.056 3.56657 -2.61244 0
M  V30 10250 N 937.115 1.49373 0.502552 0
M  V30 10251 C 938.531 1.36101 0.833591 0
M  V30 10252 C 938.731 0.392911 1.97632 0
M  V30 10253 O 937.787 -0.175975 2.51886 0
M  V30 10254 C 939.1 2.76782 1.17526 0
M  V30 10255 C 940.648 2.85471 1.28356 0
M  V30 10256 C 941.123 4.26915 1.65853 0
M  V30 10257 N 942.614 4.29719 1.72905 0
M  V30 10258 C 943.349 5.36127 2.0336 0
M  V30 10259 N 942.845 6.52782 2.32049 0
M  V30 10260 N 944.638 5.23542 2.04598 0
M  V30 10261 H 936.789 2.10912 -0.251008 0
M  V30 10262 H 939.052 0.946696 -0.0497037 0
M  V30 10263 H 938.758 3.49314 0.408965 0
M  V30 10264 H 938.632 3.1205 2.11907 0
M  V30 10265 H 941.019 2.13177 2.04058 0
M  V30 10266 H 941.1 2.53787 0.320304 0
M  V30 10267 H 940.744 4.99735 0.907022 0
M  V30 10268 H 940.674 4.56063 2.63276 0
M  V30 10269 H 943.165 3.45586 1.529 0
M  V30 10270 H 943.478 7.29701 2.54471 0
M  V30 10271 H 941.823 6.56011 2.29509 0
M  V30 10272 H 945.014 4.31413 1.8166 0
M  V30 10273 H 945.187 6.06565 2.27998 0
M  V30 10274 N 938.594 -0.753485 1.38421 0
M  V30 10275 C 939.504 -1.89797 1.37892 0
M  V30 10276 C 940.52 -1.71797 0.276023 0
M  V30 10277 O 941.696 -1.94718 0.514464 0
M  V30 10278 C 938.761 -3.25166 1.20284 0
M  V30 10279 C 937.822 -3.55691 2.4038 0
M  V30 10280 C 937.055 -4.84601 2.23602 0
M  V30 10281 O 937.278 -5.56985 1.22979 0
M  V30 10282 O 936.212 -5.14605 3.12194 0
M  V30 10283 H 940.038 -1.93197 2.34326 0
M  V30 10284 H 937.623 -0.898775 1.19342 0
M  V30 10285 H 939.505 -4.06099 1.12525 0
M  V30 10286 H 938.18 -3.22577 0.269352 0
M  V30 10287 H 937.087 -2.74919 2.53714 0
M  V30 10288 H 938.42 -3.6304 3.32359 0
M  V30 10289 N 940.072 -1.23292 -0.981677 0
M  V30 10290 C 940.982 -1.02964 -2.10798 0
M  V30 10291 C 941.998 0.0254674 -1.73981 0
M  V30 10292 O 943.174 -0.169706 -2.00684 0
M  V30 10293 C 940.239 -0.621934 -3.41076 0
M  V30 10294 C 939.3 -1.75194 -3.91926 0
M  V30 10295 C 938.533 -1.36359 -5.15986 0
M  V30 10296 O 938.756 -0.247265 -5.69864 0
M  V30 10297 O 937.69 -2.18421 -5.60871 0
M  V30 10298 H 941.516 -1.97354 -2.30836 0
M  V30 10299 H 939.101 -1.01986 -1.09175 0
M  V30 10300 H 940.983 -0.405446 -4.19445 0
M  V30 10301 H 939.658 0.29299 -3.22371 0
M  V30 10302 H 938.565 -2.02305 -3.1468 0
M  V30 10303 H 939.898 -2.64513 -4.15083 0
M  V30 10304 N 941.55 1.18024 -1.04442 0
M  V30 10305 C 942.48 2.23988 -0.659683 0
M  V30 10306 C 943.461 1.6669 0.338904 0
M  V30 10307 O 944.646 1.92971 0.21817 0
M  V30 10308 C 941.776 3.4729 -0.0257672 0
M  V30 10309 C 940.73 4.17362 -0.948299 0
M  V30 10310 C 940.056 5.34401 -0.17866 0
M  V30 10311 C 941.356 4.70435 -2.26909 0
M  V30 10312 H 943.05 2.56425 -1.54553 0
M  V30 10313 H 940.596 1.23256 -0.744575 0
M  V30 10314 H 942.549 4.20627 0.255131 0
M  V30 10315 H 941.273 3.14098 0.894981 0
M  V30 10316 H 939.932 3.45928 -1.21364 0
M  V30 10317 H 939.58 4.97458 0.744614 0
M  V30 10318 H 939.28 5.8222 -0.793294 0
M  V30 10319 H 940.804 6.10526 0.0951315 0
M  V30 10320 H 942.218 5.35447 -2.04864 0
M  V30 10321 H 940.615 5.28803 -2.83703 0
M  V30 10322 H 941.685 3.87653 -2.91296 0
M  V30 10323 N 943.028 0.824394 1.34319 0
M  V30 10324 C 943.976 0.235628 2.31403 0
M  V30 10325 C 944.97 -0.624443 1.57471 0
M  V30 10326 O 946.176 -0.515618 1.72457 0
M  V30 10327 H 942.551 0.0574537 0.749802 0
M  V30 10328 H 944.522 1.06925 2.78585 0
M  V30 10329 C 943.271 -0.586617 3.42716 0
M  V30 10330 H 942.594 0.0658669 3.99746 0
M  V30 10331 H 944.034 -0.964661 4.1288 0
M  V30 10332 C 942.493 -1.75957 2.87299 0
M  V30 10333 O 943.023 -2.8578 2.82299 0
M  V30 10334 N 941.229 -1.57678 2.44102 0
M  V30 10335 H 940.776 -0.683436 2.48369 0
M  V30 10336 H 940.734 -2.36311 2.07375 0
M  V30 10337 N 944.506 -1.46559 0.579492 0
M  V30 10338 C 945.453 -2.30275 -0.155598 0
M  V30 10339 C 946.423 -1.40422 -0.887175 0
M  V30 10340 O 947.608 -1.69373 -0.878481 0
M  V30 10341 C 944.748 -3.24827 -1.16539 0
M  V30 10342 C 943.861 -4.29778 -0.43759 0
M  V30 10343 C 942.996 -5.11461 -1.43462 0
M  V30 10344 C 942.035 -6.08164 -0.693048 0
M  V30 10345 N 941.172 -6.82726 -1.63799 0
M  V30 10346 H 946.012 -2.92607 0.564356 0
M  V30 10347 H 943.549 -1.44211 0.290126 0
M  V30 10348 H 945.507 -3.78088 -1.76368 0
M  V30 10349 H 944.137 -2.64311 -1.8531 0
M  V30 10350 H 943.189 -3.794 0.27567 0
M  V30 10351 H 944.501 -4.98597 0.142298 0
M  V30 10352 H 943.655 -5.68982 -2.1058 0
M  V30 10353 H 942.394 -4.42595 -2.04844 0
M  V30 10354 H 941.399 -5.49799 -0.00807093 0
M  V30 10355 H 942.624 -6.79047 -0.0846678 0
M  V30 10356 H 940.57 -6.16572 -2.23997 0
M  V30 10357 H 940.487 -7.47795 -1.11082 0
M  V30 10358 H 941.755 -7.44807 -2.29962 0
M  V30 10359 N 945.984 -0.3171 -1.54377 0
M  V30 10360 C 947.4 0.035766 -1.5956 0
M  V30 10361 C 947.6 1.51038 -1.33378 0
M  V30 10362 O 946.656 2.26546 -1.11505 0
M  V30 10363 C 947.969 -0.376652 -2.98332 0
M  V30 10364 C 949.517 -0.326765 -3.1129 0
M  V30 10365 C 949.992 -0.714247 -4.52396 0
M  V30 10366 N 951.483 -0.667402 -4.58367 0
M  V30 10367 C 952.218 -0.939494 -5.65651 0
M  V30 10368 N 951.714 -1.27839 -6.80903 0
M  V30 10369 N 953.507 -0.865484 -5.55397 0
M  V30 10370 H 945.658 -1.27794 -1.69654 0
M  V30 10371 H 947.921 -0.5192 -0.79318 0
M  V30 10372 H 947.627 -1.40381 -3.22469 0
M  V30 10373 H 947.501 0.261611 -3.76292 0
M  V30 10374 H 949.888 0.69117 -2.86892 0
M  V30 10375 H 949.969 -0.999873 -2.35449 0
M  V30 10376 H 949.613 -1.73007 -4.77526 0
M  V30 10377 H 949.543 -0.0188962 -5.26597 0
M  V30 10378 H 952.034 -0.417062 -3.75592 0
M  V30 10379 H 952.347 -1.47155 -7.5866 0
M  V30 10380 H 950.692 -1.31658 -6.82416 0
M  V30 10381 H 953.883 -0.600265 -4.64235 0
M  V30 10382 H 954.056 -1.0809 -6.38921 0
M  V30 10383 N 947.462 1.57535 -0.0451378 0
M  V30 10384 C 948.394 2.08109 0.960372 0
M  V30 10385 C 949.407 1.0077 1.27864 0
M  V30 10386 O 950.596 1.28351 1.24049 0
M  V30 10387 C 947.696 2.50414 2.28355 0
M  V30 10388 C 946.869 3.8102 2.14808 0
M  V30 10389 C 945.928 4.09702 3.30198 0
M  V30 10390 O 944.954 4.79715 3.0637 0
M  V30 10391 N 946.156 3.61138 4.54489 0
M  V30 10392 H 948.921 2.94999 0.528752 0
M  V30 10393 H 946.482 1.61283 0.141248 0
M  V30 10394 H 948.474 2.66683 3.04405 0
M  V30 10395 H 947.044 1.68805 2.63104 0
M  V30 10396 H 946.264 3.74392 1.23387 0
M  V30 10397 H 947.552 4.66559 2.02978 0
M  V30 10398 H 946.95 3.04527 4.76739 0
M  V30 10399 H 945.507 3.82656 5.27653 0
M  V30 10400 N 948.94 -0.228186 1.55939 0
M  V30 10401 C 950.168 -0.970618 1.8272 0
M  V30 10402 C 950.583 -1.78212 0.623385 0
M  V30 10403 O 949.94 -1.77879 -0.408063 0
M  V30 10404 C 949.991 -1.89352 3.07942 0
M  V30 10405 O 949.712 -1.11483 4.23678 0
M  V30 10406 C 951.213 -2.75039 3.47661 0
M  V30 10407 H 948.433 -0.284772 0.607574 0
M  V30 10408 H 950.977 -0.245419 2.03022 0
M  V30 10409 H 949.132 -2.57275 2.89635 0
M  V30 10410 H 949.546 -1.74073 4.94772 0
M  V30 10411 H 951.02 -3.35511 4.38334 0
M  V30 10412 H 951.497 -3.471 2.69106 0
M  V30 10413 H 952.103 -2.1254 3.68384 0
M  V30 10414 N 950.418 -1.49637 -0.494624 0
M  V30 10415 C 951.35 -1.62902 -1.61231 0
M  V30 10416 C 952.363 -0.511425 -1.54558 0
M  V30 10417 O 953.552 -0.783724 -1.60375 0
M  V30 10418 C 950.652 -1.57564 -3.00045 0
M  V30 10419 C 949.825 -2.84964 -3.31835 0
M  V30 10420 C 948.884 -2.72591 -4.5009 0
M  V30 10421 O 947.91 -3.46532 -4.51558 0
M  V30 10422 N 949.112 -1.84563 -5.50379 0
M  V30 10423 H 951.877 -2.59301 -1.50276 0
M  V30 10424 H 949.438 -1.46806 -0.68262 0
M  V30 10425 H 951.43 -1.46932 -3.77085 0
M  V30 10426 H 950 -0.689974 -3.0489 0
M  V30 10427 H 949.22 -3.099 -2.4363 0
M  V30 10428 H 950.508 -3.69412 -3.49875 0
M  V30 10429 H 949.906 -1.23758 -5.51997 0
M  V30 10430 H 948.463 -1.79849 -6.26496 0
M  V30 10431 N 951.896 0.746133 -1.38819 0
M  V30 10432 C 952.843 1.86001 -1.36647 0
M  V30 10433 C 953.813 1.6453 -0.227849 0
M  V30 10434 O 954.998 1.86092 -0.421241 0
M  V30 10435 C 952.138 3.23388 -1.20474 0
M  V30 10436 C 951.251 3.5664 -2.43786 0
M  V30 10437 C 950.386 4.8337 -2.20287 0
M  V30 10438 C 949.425 5.09431 -3.39332 0
M  V30 10439 N 948.562 6.2736 -3.1522 0
M  V30 10440 H 953.402 1.87192 -2.31869 0
M  V30 10441 H 950.939 0.914838 -1.15192 0
M  V30 10442 H 952.897 4.02679 -1.09112 0
M  V30 10443 H 951.527 3.21505 -0.288874 0
M  V30 10444 H 950.579 2.72135 -2.65794 0
M  V30 10445 H 951.891 3.71823 -3.3249 0
M  V30 10446 H 951.045 5.70619 -2.06103 0
M  V30 10447 H 949.784 4.70341 -1.28961 0
M  V30 10448 H 948.789 4.20648 -3.54027 0
M  V30 10449 H 950.014 5.24354 -4.31544 0
M  V30 10450 H 947.96 6.15639 -2.26549 0
M  V30 10451 H 947.877 6.43078 -3.97476 0
M  V30 10452 H 949.145 7.17477 -3.04707 0
M  V30 10453 N 953.375 1.23811 0.975125 0
M  V30 10454 C 954.652 0.9815 1.69192 0
M  V30 10455 C 955.032 -0.498373 2.05133 0
M  V30 10456 O 954.38 -1.47087 1.74864 0
M  V30 10457 C 954.59 1.89701 2.92941 0
M  V30 10458 C 955.938 2.16357 3.65342 0
M  V30 10459 O 956.962 1.87293 3.02985 0
M  V30 10460 O 955.821 2.65675 4.77576 0
M  V30 10461 H 952.915 0.370599 0.739314 0
M  V30 10462 H 955.461 1.34876 1.02988 0
M  V30 10463 H 954.233 2.89719 2.63018 0
M  V30 10464 H 953.856 1.53244 3.66881 0
M  V30 10465 N 954.853 -1.17469 1.05066 0
M  V30 10466 C 955.783 -2.23635 0.671552 0
M  V30 10467 C 956.764 -1.66867 -0.33006 0
M  V30 10468 O 957.949 -1.93084 -0.207933 0
M  V30 10469 C 955.079 -3.47272 0.0441845 0
M  V30 10470 C 954.033 -4.16854 0.97042 0
M  V30 10471 C 953.359 -5.34299 0.206998 0
M  V30 10472 C 954.659 -4.69225 2.29401 0
M  V30 10473 H 956.353 -2.55602 1.55911 0
M  V30 10474 H 953.899 -1.2286 0.751101 0
M  V30 10475 H 955.852 -4.20756 -0.23282 0
M  V30 10476 H 954.576 -3.14568 -0.878311 0
M  V30 10477 H 953.235 -3.4528 1.23197 0
M  V30 10478 H 952.883 -4.97846 -0.718222 0
M  V30 10479 H 952.583 -5.81792 0.82416 0
M  V30 10480 H 954.107 -6.10568 -0.0627525 0
M  V30 10481 H 955.521 -5.34353 2.077 0
M  V30 10482 H 953.918 -5.27291 2.86503 0
M  V30 10483 H 954.988 -3.86102 2.93348 0
M  V30 10484 N 956.331 -0.831506 -1.3388 0
M  V30 10485 C 957.241 -0.261688 -2.33136 0
M  V30 10486 C 958.257 0.608429 -1.63016 0
M  V30 10487 O 959.433 0.514297 -1.94723 0
M  V30 10488 C 956.498 0.559957 -3.42148 0
M  V30 10489 C 955.559 -0.333569 -4.28002 0
M  V30 10490 C 954.792 0.448956 -5.31808 0
M  V30 10491 O 955.015 1.6814 -5.45055 0
M  V30 10492 O 953.949 -0.173197 -6.01651 0
M  V30 10493 H 957.775 -1.08343 -2.83717 0
M  V30 10494 H 955.36 -0.593849 -1.3709 0
M  V30 10495 H 957.242 1.02712 -4.08691 0
M  V30 10496 H 955.917 1.35888 -2.93796 0
M  V30 10497 H 954.824 -0.848416 -3.64352 0
M  V30 10498 H 956.157 -1.09707 -4.79818 0
M  V30 10499 N 957.809 1.4625 -0.587256 0
M  V30 10500 C 958.759 2.27407 0.164393 0
M  V30 10501 C 959.743 1.36138 0.857628 0
M  V30 10502 O 960.935 1.60279 0.750973 0
M  V30 10503 C 958.064 3.22585 1.17447 0
M  V30 10504 C 957.15 4.21339 0.483121 0
M  V30 10505 N 957.541 5.03669 -0.46385 0
M  V30 10506 C 955.839 4.39931 0.73329 0
M  V30 10507 C 956.54 5.75182 -0.868334 0
M  V30 10508 N 955.516 5.43169 -0.216487 0
M  V30 10509 H 959.318 2.88453 -0.563237 0
M  V30 10510 H 956.832 1.57155 -0.409388 0
M  V30 10511 H 958.829 3.79439 1.72718 0
M  V30 10512 H 957.489 2.63098 1.90288 0
M  V30 10513 H 958.5 5.11049 -0.839602 0
M  V30 10514 H 955.177 3.91588 1.44792 0
M  V30 10515 H 956.567 6.51371 -1.64821 0
M  V30 10516 N 959.287 0.325282 1.54207 0
M  V30 10517 C 960.25 -0.527228 2.23054 0
M  V30 10518 C 961.25 -1.04217 1.22456 0
M  V30 10519 O 962.44 -0.934325 1.47024 0
M  V30 10520 C 959.572 -1.7325 2.93594 0
M  V30 10521 H 960.765 0.0746423 2.99807 0
M  V30 10522 H 958.318 0.0763872 1.56113 0
M  V30 10523 H 959.053 -2.37356 2.20981 0
M  V30 10524 H 958.838 -1.37065 3.67363 0
M  V30 10525 H 960.328 -2.3376 3.46043 0
M  V30 10526 N 960.765 -1.57509 0.0534917 0
M  V30 10527 C 961.698 -2.0723 -0.955554 0
M  V30 10528 C 962.676 -0.973313 -1.30251 0
M  V30 10529 O 963.86 -1.24541 -1.41498 0
M  V30 10530 C 960.987 -2.51473 -2.2689 0
M  V30 10531 C 960.033 -3.7263 -2.07482 0
M  V30 10532 S 960.866 -5.18177 -1.35104 0
M  V30 10533 C 962.022 -5.65736 -2.67757 0
M  V30 10534 H 962.255 -2.92494 -0.532407 0
M  V30 10535 H 959.788 -1.53581 -0.158831 0
M  V30 10536 H 961.746 -2.77626 -3.02381 0
M  V30 10537 H 960.407 -1.66511 -2.66332 0
M  V30 10538 H 959.6 -4.01515 -3.04633 0
M  V30 10539 H 959.202 -3.46756 -1.4013 0
M  V30 10540 H 961.494 -5.71463 -3.63918 0
M  V30 10541 H 962.437 -6.64914 -2.43506 0
M  V30 10542 H 962.845 -4.93475 -2.74123 0
M  V30 10543 N 962.243 0.219913 -1.56058 0
M  V30 10544 C 963.173 1.27572 -1.9557 0
M  V30 10545 C 964.154 1.48801 -0.824148 0
M  V30 10546 O 965.339 1.60957 -1.08658 0
M  V30 10547 C 962.469 2.62517 -2.27381 0
M  V30 10548 C 961.423 2.55941 -3.43042 0
M  V30 10549 C 960.749 3.94931 -3.60463 0
M  V30 10550 C 962.049 2.10584 -4.77966 0
M  V30 10551 H 963.743 0.947482 -2.84013 0
M  V30 10552 H 961.289 0.454337 -1.36645 0
M  V30 10553 H 963.242 3.36538 -2.53615 0
M  V30 10554 H 961.966 2.97031 -1.35794 0
M  V30 10555 H 960.625 1.84377 -3.1686 0
M  V30 10556 H 960.273 4.26756 -2.66249 0
M  V30 10557 H 959.973 3.91413 -4.38258 0
M  V30 10558 H 961.497 4.70611 -3.89046 0
M  V30 10559 H 962.911 2.74349 -5.03394 0
M  V30 10560 H 961.308 2.18122 -5.59055 0
M  V30 10561 H 962.378 1.05818 -4.73213 0
M  V30 10562 N 963.721 1.49897 0.486681 0
M  V30 10563 C 964.651 1.7054 1.59494 0
M  V30 10564 C 965.632 0.554184 1.60819 0
M  V30 10565 O 966.817 0.791617 1.77333 0
M  V30 10566 C 963.947 1.78517 2.97908 0
M  V30 10567 C 962.901 2.93571 3.11449 0
M  V30 10568 C 962.227 2.86674 4.51356 0
M  V30 10569 C 963.527 4.34308 2.90127 0
M  V30 10570 H 965.221 2.63329 1.42472 0
M  V30 10571 H 962.767 1.2672 0.683969 0
M  V30 10572 H 964.72 1.91544 3.75352 0
M  V30 10573 H 963.444 0.823381 3.16051 0
M  V30 10574 H 962.103 2.80169 2.36433 0
M  V30 10575 H 961.751 1.88373 4.66395 0
M  V30 10576 H 961.451 3.63903 4.61355 0
M  V30 10577 H 962.975 3.01728 5.30841 0
M  V30 10578 H 964.389 4.48317 3.57331 0
M  V30 10579 H 962.786 5.12869 3.11585 0
M  V30 10580 H 963.856 4.47759 1.86119 0
M  V30 10581 N 965.199 -0.738761 1.39212 0
M  V30 10582 C 966.615 -1.04381 1.20734 0
M  V30 10583 C 966.815 -2.01391 0.0663082 0
M  V30 10584 O 965.871 -2.45672 -0.583229 0
M  V30 10585 C 967.184 -1.6097 2.53987 0
M  V30 10586 C 968.732 -1.73069 2.60799 0
M  V30 10587 C 969.207 -2.33067 3.94264 0
M  V30 10588 N 970.698 -2.40481 3.95883 0
M  V30 10589 C 971.433 -2.87834 4.95923 0
M  V30 10590 N 970.929 -3.35111 6.0636 0
M  V30 10591 N 972.722 -2.87009 4.83304 0
M  V30 10592 H 964.873 -0.0952996 2.12186 0
M  V30 10593 H 967.136 -0.104902 0.942178 0
M  V30 10594 H 966.842 -0.971548 3.38015 0
M  V30 10595 H 966.716 -2.59829 2.73439 0
M  V30 10596 H 969.103 -2.36007 1.77157 0
M  V30 10597 H 969.184 -0.728728 2.452 0
M  V30 10598 H 968.828 -1.70758 4.78335 0
M  V30 10599 H 968.758 -3.33933 4.07181 0
M  V30 10600 H 971.249 -2.07061 3.16123 0
M  V30 10601 H 971.562 -3.69742 6.78609 0
M  V30 10602 H 969.907 -3.33129 6.09959 0
M  V30 10603 H 973.098 -2.49395 3.96131 0
M  V30 10604 H 973.271 -3.23598 5.61416 0
M  V30 10605 N 966.677 -1.24326 -0.968545 0
M  V30 10606 C 967.609 -0.992749 -2.06584 0
M  V30 10607 C 968.622 0.0374902 -1.62757 0
M  V30 10608 O 969.811 -0.199448 -1.77382 0
M  V30 10609 C 966.911 -0.476165 -3.35538 0
M  V30 10610 C 966.084 -1.56934 -4.08277 0
M  V30 10611 C 965.143 -1.05555 -5.15504 0
M  V30 10612 O 964.169 -1.74707 -5.41725 0
M  V30 10613 N 965.371 0.110465 -5.80395 0
M  V30 10614 H 968.136 -1.93752 -2.28649 0
M  V30 10615 H 965.697 -1.15344 -1.13611 0
M  V30 10616 H 967.689 -0.117223 -4.0453 0
M  V30 10617 H 966.259 0.374315 -3.10351 0
M  V30 10618 H 965.479 -2.10051 -3.33575 0
M  V30 10619 H 966.767 -2.30415 -4.53637 0
M  V30 10620 H 966.165 0.688614 -5.61493 0
M  V30 10621 H 964.722 0.41056 -6.50506 0
M  V30 10622 N 968.156 1.1691 -1.05688 0
M  V30 10623 C 969.106 2.19056 -0.632339 0
M  V30 10624 C 970.09 1.574 0.333797 0
M  V30 10625 O 971.282 1.76361 0.150223 0
M  V30 10626 C 968.411 3.43297 -0.0138209 0
M  V30 10627 C 967.497 4.12042 -1.00408 0
M  V30 10628 N 967.888 4.56535 -2.17737 0
M  V30 10629 C 966.186 4.38139 -0.833663 0
M  V30 10630 C 966.887 5.09644 -2.80425 0
M  V30 10631 N 965.863 5.02153 -2.08191 0
M  V30 10632 H 969.665 2.51165 -1.52621 0
M  V30 10633 H 967.179 1.33294 -0.927707 0
M  V30 10634 H 969.176 4.1576 0.308117 0
M  V30 10635 H 967.836 3.12677 0.87538 0
M  V30 10636 H 968.847 4.50463 -2.55546 0
M  V30 10637 H 965.524 4.175 0.00406684 0
M  V30 10638 H 966.914 5.54153 -3.79952 0
M  V30 10639 N 969.634 0.838594 1.33437 0
M  V30 10640 C 970.544 0.274048 2.32994 0
M  V30 10641 C 971.56 -0.599776 1.63336 0
M  V30 10642 O 972.736 -0.503963 1.94993 0
M  V30 10643 C 969.801 -0.541804 3.4244 0
M  V30 10644 C 968.862 0.356262 4.27819 0
M  V30 10645 C 968.095 -0.420747 5.32039 0
M  V30 10646 O 968.318 -1.65247 5.45939 0
M  V30 10647 O 967.252 0.205101 6.0155 0
M  V30 10648 H 971.078 1.09846 2.83139 0
M  V30 10649 H 968.663 0.601111 1.36774 0
M  V30 10650 H 970.545 -1.00544 4.0923 0
M  V30 10651 H 969.22 -1.34328 2.94513 0
M  V30 10652 H 968.127 0.867726 3.63897 0
M  V30 10653 H 969.46 1.1225 4.79229 0
M  V30 10654 N 971.112 -1.45937 0.595003 0
M  V30 10655 C 972.337 -2.07207 0.0894416 0
M  V30 10656 C 972.762 -1.43884 -1.21157 0
M  V30 10657 O 972.12 -0.526998 -1.73472 0
M  V30 10658 C 972.168 -3.60565 -0.0499828 0
M  V30 10659 O 971.272 -3.97364 -1.10342 0
M  V30 10660 H 970.613 -0.660471 0.0683627 0
M  V30 10661 H 973.143 -1.87386 0.82144 0
M  V30 10662 H 973.153 -4.0722 -0.252234 0
M  V30 10663 H 971.828 -4.06044 0.90006 0
M  V30 10664 H 970.405 -3.62401 -0.878645 0
M  V30 10665 N 972.59 -0.333456 -1.54032 0
M  V30 10666 C 973.523 0.570776 -2.20947 0
M  V30 10667 C 974.501 1.10811 -1.18994 0
M  V30 10668 O 975.685 1.17027 -1.47773 0
M  V30 10669 C 972.812 1.7842 -2.87896 0
M  V30 10670 C 971.858 1.37722 -4.03652 0
M  V30 10671 S 972.691 0.405548 -5.33962 0
M  V30 10672 C 973.847 1.62603 -6.0441 0
M  V30 10673 H 974.08 0.0023936 -2.973 0
M  V30 10674 H 971.613 -0.117531 -1.53952 0
M  V30 10675 H 973.571 2.48038 -3.27089 0
M  V30 10676 H 972.232 2.32378 -2.11327 0
M  V30 10677 H 971.425 2.28167 -4.49395 0
M  V30 10678 H 971.027 0.760628 -3.66184 0
M  V30 10679 H 973.319 2.56202 -6.2719 0
M  V30 10680 H 974.262 1.21058 -6.97675 0
M  V30 10681 H 974.67 1.8175 -5.34441 0
M  V30 10682 N 974.068 1.57479 -0.061844 0
M  V30 10683 C 975 2.09116 0.938245 0
M  V30 10684 C 976.013 1.0212 1.26788 0
M  V30 10685 O 977.202 1.2966 1.22681 0
M  V30 10686 C 974.302 2.52822 2.25686 0
M  V30 10687 C 973.475 3.83277 2.10755 0
M  V30 10688 C 972.534 4.13182 3.25833 0
M  V30 10689 O 971.56 4.82937 3.01265 0
M  V30 10690 N 972.762 3.65938 4.50633 0
M  V30 10691 H 975.527 2.95543 0.497433 0
M  V30 10692 H 973.088 1.61423 0.124134 0
M  V30 10693 H 975.08 2.69896 3.01559 0
M  V30 10694 H 973.65 1.71586 2.61299 0
M  V30 10695 H 972.87 3.7568 1.19409 0
M  V30 10696 H 974.158 4.68686 1.98018 0
M  V30 10697 H 973.556 3.09566 4.73482 0
M  V30 10698 H 972.113 3.8823 5.23565 0
M  V30 10699 N 975.546 -0.211634 1.56173 0
M  V30 10700 C 976.456 -1.2831 1.96402 0
M  V30 10701 C 977.472 -1.50731 0.869254 0
M  V30 10702 O 978.648 -1.63669 1.17365 0
M  V30 10703 C 975.713 -2.61084 2.28114 0
M  V30 10704 C 974.774 -2.46879 3.51211 0
M  V30 10705 C 974.007 -3.73321 3.81401 0
M  V30 10706 O 974.23 -4.76773 3.13119 0
M  V30 10707 O 973.164 -3.69839 4.74871 0
M  V30 10708 H 976.99 -0.971733 2.87734 0
M  V30 10709 H 974.575 -0.415305 1.43512 0
M  V30 10710 H 976.457 -3.39481 2.49661 0
M  V30 10711 H 975.132 -2.91881 1.39954 0
M  V30 10712 H 974.039 -1.66648 3.34932 0
M  V30 10713 H 975.372 -2.21018 4.39786 0
M  V30 10714 N 977.024 -1.50153 -0.478725 0
M  V30 10715 C 977.954 -1.71384 -1.58587 0
M  V30 10716 C 978.935 -0.562705 -1.60523 0
M  V30 10717 O 980.12 -0.80101 -1.76911 0
M  V30 10718 C 977.25 -1.80094 -2.96957 0
M  V30 10719 C 976.204 -2.95218 -3.09888 0
M  V30 10720 C 975.53 -2.89063 -4.49829 0
M  V30 10721 C 976.83 -4.35841 -2.8782 0
M  V30 10722 H 978.524 -2.64081 -1.41073 0
M  V30 10723 H 976.07 -1.27081 -0.677239 0
M  V30 10724 H 978.023 -1.93531 -3.74331 0
M  V30 10725 H 976.747 -0.840131 -3.1561 0
M  V30 10726 H 975.406 -2.81419 -2.34944 0
M  V30 10727 H 975.054 -1.90844 -4.6539 0
M  V30 10728 H 974.754 -3.66345 -4.59418 0
M  V30 10729 H 976.278 -3.04539 -5.29234 0
M  V30 10730 H 977.692 -4.50205 -3.54948 0
M  V30 10731 H 976.089 -5.14515 -3.0886 0
M  V30 10732 H 977.159 -4.48739 -1.83742 0
M  V30 10733 N 978.502 0.731368 -1.39602 0
M  V30 10734 C 979.412 1.87579 -1.40894 0
M  V30 10735 C 980.428 1.71336 -0.303319 0
M  V30 10736 O 981.604 1.93875 -0.545377 0
M  V30 10737 C 978.669 3.23211 -1.25442 0
M  V30 10738 C 977.73 3.51822 -2.46008 0
M  V30 10739 C 976.963 4.80982 -2.31284 0
M  V30 10740 O 977.186 5.54958 -1.31824 0
M  V30 10741 O 976.12 5.09574 -3.20341 0
M  V30 10742 H 979.946 1.89444 -2.3737 0
M  V30 10743 H 977.531 0.879675 -1.20756 0
M  V30 10744 H 979.413 4.04257 -1.18972 0
M  V30 10745 H 978.088 3.22108 -0.320637 0
M  V30 10746 H 976.995 2.70847 -2.58055 0
M  V30 10747 H 978.328 3.57707 -3.38093 0
M  V30 10748 N 979.98 1.24838 0.961938 0
M  V30 10749 C 981.227 1.09151 1.70564 0
M  V30 10750 C 981.555 -0.368719 1.90973 0
M  V30 10751 O 980.81 -1.28854 1.47293 0
M  V30 10752 C 981.109 1.78289 3.09754 0
M  V30 10753 C 980.775 3.28216 3.09169 0
M  V30 10754 C 979.437 3.69118 3.08716 0
M  V30 10755 C 981.789 4.24035 3.03058 0
M  V30 10756 C 979.117 5.04263 2.99892 0
M  V30 10757 C 981.469 5.59195 2.95776 0
M  V30 10758 C 980.133 5.99436 2.93655 0
M  V30 10759 H 979.403 0.399414 0.624139 0
M  V30 10760 H 982.05 1.55016 1.12438 0
M  V30 10761 H 980.355 1.24835 3.7138 0
M  V30 10762 H 982.052 1.63612 3.66104 0
M  V30 10763 H 978.642 2.95667 3.10289 0
M  V30 10764 H 982.826 3.93431 3.02532 0
M  V30 10765 H 978.082 5.3463 2.96615 0
M  V30 10766 H 982.256 6.33142 2.90007 0
M  V30 10767 H 979.883 7.04116 2.86573 0
M  V30 10768 N 981.458 -1.16348 1.06306 0
M  V30 10769 C 982.874 -1.38873 0.786543 0
M  V30 10770 C 983.074 -1.91915 -0.614061 0
M  V30 10771 O 982.13 -2.11804 -1.3746 0
M  V30 10772 C 983.443 -2.36936 1.85154 0
M  V30 10773 C 984.991 -2.5062 1.87506 0
M  V30 10774 C 985.466 -3.51965 2.9306 0
M  V30 10775 N 986.957 -3.59492 2.92095 0
M  V30 10776 C 987.692 -4.37699 3.70415 0
M  V30 10777 N 987.188 -5.19327 4.58553 0
M  V30 10778 N 988.981 -4.32683 3.58806 0
M  V30 10779 H 981.132 -0.802542 1.96655 0
M  V30 10780 H 983.395 -0.415304 0.852189 0
M  V30 10781 H 983.101 -2.05056 2.85736 0
M  V30 10782 H 982.975 -3.36585 1.70267 0
M  V30 10783 H 985.362 -2.81804 0.875827 0
M  V30 10784 H 985.443 -1.51006 2.06472 0
M  V30 10785 H 985.087 -3.21518 3.93177 0
M  V30 10786 H 985.017 -4.51309 2.71344 0
M  V30 10787 H 987.508 -3.01222 2.28197 0
M  V30 10788 H 987.821 -5.76216 5.1497 0
M  V30 10789 H 986.166 -5.1867 4.62608 0
M  V30 10790 H 989.357 -3.67971 2.89335 0
M  V30 10791 H 989.53 -4.93386 4.20088 0
M  V30 10792 N 982.937 -0.845659 -1.3299 0
M  V30 10793 C 983.887 -0.2557 -2.26562 0
M  V30 10794 C 984.871 0.593245 -1.49564 0
M  V30 10795 O 986.063 0.444101 -1.71338 0
M  V30 10796 C 983.192 0.562573 -3.38659 0
M  V30 10797 C 982.278 -0.298259 -4.2305 0
M  V30 10798 N 982.669 -1.38023 -4.86604 0
M  V30 10799 C 980.967 -0.0864539 -4.45916 0
M  V30 10800 C 981.668 -1.90907 -5.49481 0
M  V30 10801 N 980.644 -1.20955 -5.29973 0
M  V30 10802 H 984.446 -1.083 -2.73219 0
M  V30 10803 H 981.96 -0.690823 -1.46974 0
M  V30 10804 H 983.957 1.00157 -4.0469 0
M  V30 10805 H 982.617 1.38777 -2.93549 0
M  V30 10806 H 983.628 -1.76314 -4.86964 0
M  V30 10807 H 980.305 0.70475 -4.11509 0
M  V30 10808 H 981.695 -2.81552 -6.10064 0
M  V30 10809 N 984.415 1.45619 -0.602734 0
M  V30 10810 C 985.345 2.33258 0.106342 0
M  V30 10811 C 986.326 1.46543 0.863664 0
M  V30 10812 O 987.511 1.75324 0.835175 0
M  V30 10813 C 984.641 3.29168 1.10751 0
M  V30 10814 C 983.595 4.25481 0.463717 0
M  V30 10815 C 982.921 5.11046 1.57278 0
M  V30 10816 C 984.221 5.18702 -0.61199 0
M  V30 10817 H 985.915 2.92795 -0.625423 0
M  V30 10818 H 983.461 1.40793 -0.302213 0
M  V30 10819 H 985.414 3.89346 1.61208 0
M  V30 10820 H 984.138 2.6778 1.8698 0
M  V30 10821 H 982.797 3.66595 -0.0199496 0
M  V30 10822 H 982.445 4.46029 2.32524 0
M  V30 10823 H 982.145 5.76286 1.14755 0
M  V30 10824 H 983.669 5.74091 2.07972 0
M  V30 10825 H 985.083 5.72979 -0.191686 0
M  V30 10826 H 983.48 5.92393 -0.958686 0
M  V30 10827 H 984.55 4.61424 -1.4905 0
M  V30 10828 N 985.893 0.34162 1.53853 0
M  V30 10829 C 986.841 -0.531412 2.26448 0
M  V30 10830 C 987.835 -1.10357 1.28521 0
M  V30 10831 O 989.041 -1.04953 1.46236 0
M  V30 10832 H 985.416 -0.190054 0.727588 0
M  V30 10833 H 987.387 0.102922 2.98222 0
M  V30 10834 C 986.136 -1.67154 3.04885 0
M  V30 10835 H 985.459 -1.24055 3.80066 0
M  V30 10836 H 986.899 -2.25762 3.58898 0
M  V30 10837 C 985.358 -2.59984 2.14266 0
M  V30 10838 O 985.888 -3.62181 1.73746 0
M  V30 10839 N 984.094 -2.28625 1.79385 0
M  V30 10840 H 983.641 -1.45559 2.12533 0
M  V30 10841 H 983.599 -2.90995 1.19035 0
M  V30 10842 N 987.371 -1.57444 0.0701946 0
M  V30 10843 C 988.599 -1.97754 -0.608358 0
M  V30 10844 C 989.014 -0.948496 -1.63245 0
M  V30 10845 O 988.371 0.065046 -1.82384 0
M  V30 10846 C 988.422 -3.38142 -1.27836 0
M  V30 10847 O 988.143 -4.37104 -0.295255 0
M  V30 10848 C 989.644 -3.93318 -2.04489 0
M  V30 10849 H 986.864 -0.650398 -0.164997 0
M  V30 10850 H 989.408 -2.04006 0.142124 0
M  V30 10851 H 987.563 -3.32982 -1.97994 0
M  V30 10852 H 987.977 -5.18732 -0.77574 0
M  V30 10853 H 989.451 -4.93774 -2.46762 0
M  V30 10854 H 989.928 -3.29774 -2.90079 0
M  V30 10855 H 990.534 -4.01875 -1.39201 0
M  V30 10856 N 988.849 0.203349 -1.56283 0
M  V30 10857 C 990.098 0.92315 -1.79334 0
M  V30 10858 C 990.411 1.84765 -0.641977 0
M  V30 10859 O 991.617 2.60745 -0.756584 0
M  V30 10860 C 990.073 1.69184 -3.17655 0
M  V30 10861 C 989.681 0.812581 -4.40569 0
M  V30 10862 C 991.425 2.40177 -3.50022 0
M  V30 10863 C 989.332 1.57967 -5.69913 0
M  V30 10864 H 988.262 0.348442 -0.668659 0
M  V30 10865 H 990.913 0.1766 -1.82648 0
M  V30 10866 H 989.295 2.48197 -3.08568 0
M  V30 10867 H 990.469 0.0616956 -4.60759 0
M  V30 10868 H 988.784 0.21389 -4.1585 0
M  V30 10869 H 991.381 2.98103 -4.4389 0
M  V30 10870 H 991.724 3.13961 -2.73376 0
M  V30 10871 H 992.257 1.68138 -3.6052 0
M  V30 10872 H 988.996 0.884767 -6.49501 0
M  V30 10873 H 988.516 2.3047 -5.53754 0
M  V30 10874 H 990.195 2.13562 -6.10737 0
M  V30 10875 N 990.327 1.50405 0.470755 0
M  V30 10876 C 991.259 1.65447 1.58619 0
M  V30 10877 C 992.272 0.535949 1.53725 0
M  V30 10878 O 993.461 0.80914 1.59107 0
M  V30 10879 C 990.561 1.62318 2.975 0
M  V30 10880 C 989.734 2.90207 3.27259 0
M  V30 10881 C 988.793 2.79717 4.45696 0
M  V30 10882 O 987.819 3.53672 4.45987 0
M  V30 10883 N 989.021 1.93296 5.47373 0
M  V30 10884 H 991.786 2.61659 1.46132 0
M  V30 10885 H 989.347 1.47873 0.659178 0
M  V30 10886 H 991.339 1.52912 3.747 0
M  V30 10887 H 989.909 0.738392 3.03754 0
M  V30 10888 H 989.129 3.13737 2.38669 0
M  V30 10889 H 990.417 3.74931 3.43953 0
M  V30 10890 H 989.815 1.32524 5.49958 0
M  V30 10891 H 988.372 1.89793 6.23556 0
M  V30 10892 N 991.805 -0.723954 1.39988 0
M  V30 10893 C 992.752 -1.83803 1.39589 0
M  V30 10894 C 993.722 -1.64146 0.253996 0
M  V30 10895 O 994.907 -1.85398 0.450793 0
M  V30 10896 C 992.047 -3.21431 1.25604 0
M  V30 10897 C 991.16 -3.52717 2.49429 0
M  V30 10898 C 990.295 -4.79805 2.27949 0
M  V30 10899 C 989.334 -5.03968 3.47394 0
M  V30 10900 N 988.471 -6.22266 3.25161 0
M  V30 10901 H 993.311 -1.83479 2.34818 0
M  V30 10902 H 990.848 -0.896396 1.16633 0
M  V30 10903 H 992.806 -4.00892 1.15504 0
M  V30 10904 H 991.436 -3.21005 0.339986 0
M  V30 10905 H 990.488 -2.67872 2.7009 0
M  V30 10906 H 991.8 -3.66486 3.38363 0
M  V30 10907 H 990.954 -5.67268 2.15155 0
M  V30 10908 H 989.693 -4.68229 1.36428 0
M  V30 10909 H 988.698 -4.14963 3.60674 0
M  V30 10910 H 989.923 -5.17422 4.39831 0
M  V30 10911 H 987.869 -6.11957 2.36314 0
M  V30 10912 H 987.786 -6.36673 4.07656 0
M  V30 10913 H 989.054 -7.12539 3.16083 0
M  V30 10914 N 993.283 -1.25346 -0.955304 0
M  V30 10915 C 994.216 -0.999933 -2.05126 0
M  V30 10916 C 995.194 0.070585 -1.62447 0
M  V30 10917 O 996.378 -0.0689306 -1.88374 0
M  V30 10918 C 993.505 -0.511425 -3.34817 0
M  V30 10919 C 992.551 -1.57237 -3.96458 0
M  V30 10920 S 993.384 -3.15736 -4.32517 0
M  V30 10921 C 994.54 -2.68619 -5.65327 0
M  V30 10922 H 994.773 -1.92791 -2.26316 0
M  V30 10923 H 992.306 -1.08869 -1.09485 0
M  V30 10924 H 994.264 -0.236219 -4.0982 0
M  V30 10925 H 992.925 0.39604 -3.11593 0
M  V30 10926 H 992.118 -1.18125 -4.89962 0
M  V30 10927 H 991.72 -1.79822 -3.27933 0
M  V30 10928 H 994.012 -2.12203 -6.4341 0
M  V30 10929 H 994.955 -3.6076 -6.09309 0
M  V30 10930 H 995.363 -2.08638 -5.24529 0
M  V30 10931 N 994.761 1.15782 -1.06922 0
M  V30 10932 C 996.177 1.38454 -0.793896 0
M  V30 10933 C 996.377 1.92238 0.603875 0
M  V30 10934 O 995.433 2.1253 1.36335 0
M  V30 10935 C 996.746 2.3595 -1.86408 0
M  V30 10936 C 998.294 2.49622 -1.88833 0
M  V30 10937 C 998.769 3.50406 -2.94923 0
M  V30 10938 N 1000.26 3.57938 -2.93997 0
M  V30 10939 C 1001 4.35728 -3.72731 0
M  V30 10940 N 1000.49 5.16888 -4.61301 0
M  V30 10941 N 1002.28 4.30774 -3.61096 0
M  V30 10942 H 994.435 0.792101 -1.97077 0
M  V30 10943 H 996.698 0.410779 -0.85438 0
M  V30 10944 H 996.404 2.03537 -2.86819 0
M  V30 10945 H 996.278 3.35677 -1.72049 0
M  V30 10946 H 998.665 2.81335 -0.890759 0
M  V30 10947 H 998.746 1.49909 -2.0727 0
M  V30 10948 H 998.39 3.19429 -3.94877 0
M  V30 10949 H 998.32 4.49864 -2.73734 0
M  V30 10950 H 1000.81 3.00007 -2.29791 0
M  V30 10951 H 1001.12 5.73477 -5.18019 0
M  V30 10952 H 999.469 5.16209 -4.65353 0
M  V30 10953 H 1002.66 3.66432 -2.91282 0
M  V30 10954 H 1002.83 4.91151 -4.22699 0
M  V30 10955 N 996.239 0.8527 1.3254 0
M  V30 10956 C 997.479 0.461385 1.99125 0
M  V30 10957 C 997.843 -0.964507 1.66016 0
M  V30 10958 O 999.044 -1.46027 2.25676 0
M  V30 10959 C 997.315 0.69143 3.50648 0
M  V30 10960 S 998.874 0.397397 4.36997 0
M  V30 10961 H 995.692 0.172933 0.689649 0
M  V30 10962 H 998.294 1.10499 1.61277 0
M  V30 10963 H 996.998 1.72831 3.72233 0
M  V30 10964 H 996.529 0.0341812 3.93385 0
M  V30 10965 H 998.544 -0.777363 4.90073 0
M  V30 10966 N 997.718 -1.45297 0.610449 0
M  V30 10967 C 998.628 -2.34349 -0.108475 0
M  V30 10968 C 999.644 -1.51409 -0.857397 0
M  V30 10969 O 1000.82 -1.84202 -0.814337 0
M  V30 10970 C 997.885 -3.29072 -1.09144 0
M  V30 10971 C 996.946 -4.27918 -0.344165 0
M  V30 10972 C 996.179 -5.18116 -1.28031 0
M  V30 10973 O 996.402 -5.11802 -2.51824 0
M  V30 10974 O 995.336 -5.96879 -0.775821 0
M  V30 10975 H 999.162 -2.97232 0.623421 0
M  V30 10976 H 996.747 -1.44728 0.3707 0
M  V30 10977 H 998.629 -3.87433 -1.65751 0
M  V30 10978 H 997.304 -2.68749 -1.80431 0
M  V30 10979 H 996.211 -3.73164 0.264437 0
M  V30 10980 H 997.544 -4.91104 0.328275 0
M  V30 10981 N 999.196 -0.349774 -1.5367 0
M  V30 10982 C 1000.13 0.496338 -2.28164 0
M  V30 10983 C 1001.11 1.09737 -1.29968 0
M  V30 10984 O 1002.29 1.11759 -1.58819 0
M  V30 10985 C 999.422 1.64428 -3.0591 0
M  V30 10986 C 998.376 1.17127 -4.11661 0
M  V30 10987 C 997.702 2.40822 -4.77398 0
M  V30 10988 C 999.002 0.267293 -5.21616 0
M  V30 10989 H 1000.7 -0.125117 -2.99138 0
M  V30 10990 H 998.242 -0.0616152 -1.43868 0
M  V30 10991 H 1000.19 2.2427 -3.56765 0
M  V30 10992 H 998.919 2.29272 -2.32598 0
M  V30 10993 H 997.578 0.595634 -3.61729 0
M  V30 10994 H 997.226 3.04088 -4.00674 0
M  V30 10995 H 996.926 2.09852 -5.48849 0
M  V30 10996 H 998.45 3.01378 -5.3104 0
M  V30 10997 H 999.864 0.772734 -5.68068 0
M  V30 10998 H 998.261 0.0491991 -6.0008 0
M  V30 10999 H 999.331 -0.694892 -4.79895 0
M  V30 11000 N 1000.67 1.57404 -0.0785433 0
M  V30 11001 C 1001.92 1.9292 0.588626 0
M  V30 11002 C 1002.24 0.961106 1.70359 0
M  V30 11003 O 1003.44 1.20934 2.43079 0
M  V30 11004 C 1001.9 3.42729 1.09839 0
M  V30 11005 C 1001.51 4.47998 0.0140773 0
M  V30 11006 C 1003.25 3.87235 1.73924 0
M  V30 11007 C 1001.16 5.88945 0.538269 0
M  V30 11008 H 1000.09 0.720069 0.223645 0
M  V30 11009 H 1002.74 1.8287 -0.15187 0
M  V30 11010 H 1001.12 3.47875 1.89207 0
M  V30 11011 H 1002.29 4.54476 -0.760773 0
M  V30 11012 H 1000.61 4.13001 -0.53095 0
M  V30 11013 H 1003.21 4.89927 2.14186 0
M  V30 11014 H 1003.55 3.24971 2.60191 0
M  V30 11015 H 1004.08 3.84721 1.01168 0
M  V30 11016 H 1000.82 6.5487 -0.287395 0
M  V30 11017 H 1000.34 5.85972 1.28049 0
M  V30 11018 H 1002.02 6.39028 1.01253 0
M  V30 11019 N 1002.15 -0.195058 1.56388 0
M  V30 11020 C 1003.57 -0.545894 1.49974 0
M  V30 11021 C 1003.77 -1.85851 0.778568 0
M  V30 11022 O 1002.82 -2.50346 0.329105 0
M  V30 11023 C 1004.14 -0.600599 2.94641 0
M  V30 11024 C 1005.68 -0.689429 3.05313 0
M  V30 11025 C 1006.16 -0.775243 4.51391 0
M  V30 11026 N 1007.65 -0.838769 4.55542 0
M  V30 11027 C 1008.39 -0.925337 5.65884 0
M  V30 11028 N 1007.88 -0.974204 6.85916 0
M  V30 11029 N 1009.67 -0.962528 5.53798 0
M  V30 11030 H 1001.83 0.66595 2.0169 0
M  V30 11031 H 1004.09 0.237215 0.917842 0
M  V30 11032 H 1003.79 0.29478 3.50462 0
M  V30 11033 H 1003.67 -1.45528 3.47996 0
M  V30 11034 H 1006.06 -1.57524 2.4954 0
M  V30 11035 H 1006.14 0.191451 2.55083 0
M  V30 11036 H 1005.78 0.106215 5.07789 0
M  V30 11037 H 1005.71 -1.67193 4.99354 0
M  V30 11038 H 1008.2 -0.810249 3.69112 0
M  V30 11039 H 1008.51 -1.04077 7.6576 0
M  V30 11040 H 1006.86 -0.942881 6.88574 0
M  V30 11041 H 1010.05 -0.921188 4.58946 0
M  V30 11042 H 1010.22 -1.02653 6.39817 0
M  V30 11043 N 1003.63 -1.50653 -0.462772 0
M  V30 11044 C 1004.56 -1.73056 -1.5676 0
M  V30 11045 C 1005.54 -0.579699 -1.59917 0
M  V30 11046 O 1006.73 -0.819729 -1.76051 0
M  V30 11047 C 1003.86 -1.83234 -2.9503 0
M  V30 11048 C 1002.81 -2.98488 -3.06739 0
M  V30 11049 C 1002.14 -2.93818 -4.46738 0
M  V30 11050 C 1003.44 -4.38869 -2.83181 0
M  V30 11051 H 1005.13 -2.65562 -1.38265 0
M  V30 11052 H 1002.68 -1.27792 -0.663722 0
M  V30 11053 H 1004.63 -1.97491 -3.72257 0
M  V30 11054 H 1003.35 -0.873558 -3.14701 0
M  V30 11055 H 1002.01 -2.83895 -2.31946 0
M  V30 11056 H 1001.66 -1.95769 -4.63339 0
M  V30 11057 H 1001.36 -3.71197 -4.55507 0
M  V30 11058 H 1002.88 -3.10135 -5.25974 0
M  V30 11059 H 1004.3 -4.53945 -3.50153 0
M  V30 11060 H 1002.69 -5.17762 -3.03386 0
M  V30 11061 H 1003.76 -4.50663 -1.78972 0
M  V30 11062 N 1005.11 0.71652 -1.4037 0
M  V30 11063 C 1006.04 1.84138 -1.36477 0
M  V30 11064 C 1007.05 1.6054 -0.27033 0
M  V30 11065 O 1008.24 1.70431 -0.530612 0
M  V30 11066 C 1005.34 3.20523 -1.10082 0
M  V30 11067 C 1004.52 3.71326 -2.31162 0
M  V30 11068 C 1003.57 4.86322 -2.00942 0
M  V30 11069 O 1002.6 4.99022 -2.73799 0
M  V30 11070 N 1003.8 5.72051 -0.986812 0
M  V30 11071 H 1006.57 1.87977 -2.3342 0
M  V30 11072 H 1004.13 0.89802 -1.34712 0
M  V30 11073 H 1006.12 3.95049 -0.878526 0
M  V30 11074 H 1004.69 3.11838 -0.21809 0
M  V30 11075 H 1003.91 2.87941 -2.69227 0
M  V30 11076 H 1005.2 4.02003 -3.11883 0
M  V30 11077 H 1004.6 5.64399 -0.383381 0
M  V30 11078 H 1003.15 6.46565 -0.824419 0
M  V30 11079 N 1006.59 1.25851 0.948643 0
M  V30 11080 C 1007.54 1.03437 2.03187 0
M  V30 11081 C 1008.52 -0.0307632 1.60871 0
M  V30 11082 O 1009.71 0.185296 1.76027 0
M  V30 11083 C 1006.84 0.661426 3.36868 0
M  V30 11084 C 1005.93 1.76363 3.8569 0
M  V30 11085 N 1006.32 2.9998 4.07241 0
M  V30 11086 C 1004.62 1.64552 4.14534 0
M  V30 11087 C 1005.32 3.71564 4.47566 0
M  V30 11088 N 1004.29 2.99214 4.53841 0
M  V30 11089 H 1008.1 1.97277 2.17851 0
M  V30 11090 H 1005.61 1.16258 1.13392 0
M  V30 11091 H 1007.61 0.482021 4.14104 0
M  V30 11092 H 1006.27 -0.269582 3.23579 0
M  V30 11093 H 1007.28 3.35963 3.94143 0
M  V30 11094 H 1003.95 0.783891 4.10075 0
M  V30 11095 H 1005.34 4.77702 4.72494 0
M  V30 11096 N 1008.06 -1.15214 1.07534 0
M  V30 11097 C 1009 -2.19634 0.655261 0
M  V30 11098 C 1010.01 -1.60139 -0.293165 0
M  V30 11099 O 1011.2 -1.78311 -0.0821957 0
M  V30 11100 C 1008.3 -3.38851 -0.0578281 0
M  V30 11101 C 1007.47 -4.27888 0.90725 0
M  V30 11102 C 1006.53 -5.25692 0.231115 0
M  V30 11103 O 1005.56 -5.62469 0.872746 0
M  V30 11104 N 1006.76 -5.71424 -1.0225 0
M  V30 11105 H 1009.52 -2.56292 1.55353 0
M  V30 11106 H 1007.08 -1.30347 0.960271 0
M  V30 11107 H 1009.08 -4.01334 -0.520874 0
M  V30 11108 H 1007.65 -3.00593 -0.858071 0
M  V30 11109 H 1006.87 -3.62475 1.54937 0
M  V30 11110 H 1008.15 -4.84246 1.56151 0
M  V30 11111 H 1007.55 -5.43659 -1.56369 0
M  V30 11112 H 1006.11 -6.35938 -1.42919 0
M  V30 11113 N 1009.54 -0.859717 -1.32086 0
M  V30 11114 C 1010.77 -0.479724 -2.01262 0
M  V30 11115 C 1011.19 0.924985 -1.64589 0
M  V30 11116 O 1010.54 1.60439 -0.869803 0
M  V30 11117 C 1010.59 -0.615128 -3.56228 0
M  V30 11118 O 1010.31 -1.96451 -3.91585 0
M  V30 11119 C 1011.82 -0.234804 -4.42678 0
M  V30 11120 H 1009.04 -0.188007 -0.644123 0
M  V30 11121 H 1011.58 -1.15805 -1.68551 0
M  V30 11122 H 1009.73 0.0155268 -3.87397 0
M  V30 11123 H 1010.15 -1.96491 -4.86304 0
M  V30 11124 H 1011.62 -0.380534 -5.50687 0
M  V30 11125 H 1012.1 0.825189 -4.31378 0
M  V30 11126 H 1012.71 -0.840739 -4.16907 0
M  V30 11127 N 1011.02 1.44971 -0.618145 0
M  V30 11128 C 1011.93 2.34403 0.0960457 0
M  V30 11129 C 1012.95 1.51862 0.849355 0
M  V30 11130 O 1014.12 1.84632 0.804557 0
M  V30 11131 C 1011.19 3.29646 1.07397 0
M  V30 11132 C 1010.25 4.28095 0.321466 0
M  V30 11133 C 1009.48 5.18787 1.25281 0
M  V30 11134 O 1009.7 5.1313 2.49106 0
M  V30 11135 O 1008.64 5.97282 0.744156 0
M  V30 11136 H 1012.46 2.96898 -0.639176 0
M  V30 11137 H 1010.05 1.44529 -0.37837 0
M  V30 11138 H 1011.93 3.88307 1.63694 0
M  V30 11139 H 1010.61 2.69702 1.79004 0
M  V30 11140 H 1009.51 3.73019 -0.284223 0
M  V30 11141 H 1010.85 4.90923 -0.354315 0
M  V30 11142 N 1012.5 0.357919 1.53482 0
M  V30 11143 C 1013.43 -0.484231 2.28424 0
M  V30 11144 C 1014.41 -1.09046 1.30548 0
M  V30 11145 O 1015.59 -1.10916 1.59409 0
M  V30 11146 C 1012.72 -1.62803 3.06778 0
M  V30 11147 C 1011.68 -1.14943 4.12277 0
M  V30 11148 C 1011 -2.38287 4.78669 0
M  V30 11149 C 1012.3 -0.239627 5.2175 0
M  V30 11150 H 1014 0.140979 2.99068 0
M  V30 11151 H 1011.54 0.069244 1.43833 0
M  V30 11152 H 1013.5 -2.22374 3.57949 0
M  V30 11153 H 1012.22 -2.28036 2.3381 0
M  V30 11154 H 1010.88 -0.576442 3.6204 0
M  V30 11155 H 1010.53 -3.01959 4.02281 0
M  V30 11156 H 1010.23 -2.06939 5.49955 0
M  V30 11157 H 1011.75 -2.98558 5.32631 0
M  V30 11158 H 1013.17 -0.742597 5.6847 0
M  V30 11159 H 1011.56 -0.0173747 6.00097 0
M  V30 11160 H 1012.63 0.720333 4.7952 0
M  V30 11161 N 1013.98 -1.5736 0.0868897 0
M  V30 11162 C 1015.2 -1.98388 -0.587349 0
M  V30 11163 C 1015.62 -0.965757 -1.6223 0
M  V30 11164 O 1014.98 0.0456981 -1.82443 0
M  V30 11165 C 1015.03 -3.39479 -1.24242 0
M  V30 11166 O 1014.75 -4.37393 -0.248878 0
M  V30 11167 C 1016.25 -3.95465 -2.00305 0
M  V30 11168 H 1013.47 -0.652111 -0.15809 0
M  V30 11169 H 1016.01 -2.03843 0.163754 0
M  V30 11170 H 1014.17 -3.35063 -1.94451 0
M  V30 11171 H 1014.58 -5.19525 -0.720678 0
M  V30 11172 H 1016.06 -4.96363 -2.41511 0
M  V30 11173 H 1016.53 -3.32832 -2.86565 0
M  V30 11174 H 1017.14 -4.03328 -1.34931 0
M  V30 11175 N 1015.45 0.186762 -1.56489 0
M  V30 11176 C 1016.4 1.25084 -1.96104 0
M  V30 11177 C 1017.4 1.4667 -0.847609 0
M  V30 11178 O 1018.6 1.47432 -1.03266 0
M  V30 11179 H 1014.98 0.420121 -0.623701 0
M  V30 11180 H 1016.95 0.889761 -2.84826 0
M  V30 11181 C 1015.7 2.5863 -2.32392 0
M  V30 11182 H 1015.02 2.42838 -3.176 0
M  V30 11183 H 1016.46 3.3181 -2.63967 0
M  V30 11184 C 1014.92 3.16241 -1.16159 0
M  V30 11185 O 1015.45 3.99272 -0.441034 0
M  V30 11186 N 1013.66 2.75106 -0.936206 0
M  V30 11187 H 1013.2 2.0769 -1.5239 0
M  V30 11188 H 1013.16 3.13991 -0.160317 0
M  V30 11189 N 1016.93 1.50896 0.454776 0
M  V30 11190 C 1017.86 1.6712 1.56855 0
M  V30 11191 C 1018.88 0.552223 1.53148 0
M  V30 11192 O 1020.07 0.825969 1.5824 0
M  V30 11193 C 1017.17 1.65464 2.95762 0
M  V30 11194 C 1016.34 2.93662 3.24163 0
M  V30 11195 C 1015.4 2.84428 4.42704 0
M  V30 11196 O 1014.42 3.58382 4.42211 0
M  V30 11197 N 1015.63 1.9909 5.45292 0
M  V30 11198 H 1018.39 2.63194 1.43349 0
M  V30 11199 H 1015.95 1.48564 0.643457 0
M  V30 11200 H 1017.94 1.56878 3.73057 0
M  V30 11201 H 1016.51 0.770568 3.02954 0
M  V30 11202 H 1015.73 3.16251 2.35328 0
M  V30 11203 H 1017.02 3.78558 3.39957 0
M  V30 11204 H 1016.42 1.3835 5.48521 0
M  V30 11205 H 1014.98 1.96396 6.21508 0
M  V30 11206 N 1018.41 -0.709066 1.40748 0
M  V30 11207 C 1019.34 -1.83583 1.4429 0
M  V30 11208 C 1020.32 -1.67378 0.303067 0
M  V30 11209 O 1021.51 -1.87312 0.512612 0
M  V30 11210 C 1018.64 -3.21599 1.31116 0
M  V30 11211 C 1017.59 -3.52486 2.4277 0
M  V30 11212 C 1016.92 -4.89716 2.14668 0
M  V30 11213 C 1018.22 -3.52824 3.85113 0
M  V30 11214 H 1019.91 -1.80876 2.38588 0
M  V30 11215 H 1017.46 -0.868795 1.14839 0
M  V30 11216 H 1019.41 -4.00123 1.32209 0
M  V30 11217 H 1018.13 -3.24898 0.332965 0
M  V30 11218 H 1016.79 -2.76305 2.40937 0
M  V30 11219 H 1016.44 -4.89625 1.15224 0
M  V30 11220 H 1016.14 -5.11347 2.89478 0
M  V30 11221 H 1017.66 -5.70566 2.17455 0
M  V30 11222 H 1019.08 -4.21377 3.88734 0
M  V30 11223 H 1017.48 -3.85984 4.59496 0
M  V30 11224 H 1018.55 -2.52073 4.14231 0
M  V30 11225 N 1019.89 -1.26353 -0.941956 0
M  V30 11226 C 1020.8 -1.09618 -2.07415 0
M  V30 11227 C 1021.82 -0.0298963 -1.73974 0
M  V30 11228 O 1022.99 -0.233466 -2.00042 0
M  V30 11229 C 1020.06 -0.73013 -3.38925 0
M  V30 11230 C 1019.12 -1.87574 -3.86153 0
M  V30 11231 C 1018.35 -1.52706 -5.11387 0
M  V30 11232 O 1018.57 -0.428438 -5.68789 0
M  V30 11233 O 1017.51 -2.36154 -5.53638 0
M  V30 11234 H 1021.33 -2.04598 -2.2444 0
M  V30 11235 H 1018.92 -1.05407 -1.05876 0
M  V30 11236 H 1020.8 -0.538684 -4.17943 0
M  V30 11237 H 1019.48 0.190282 -3.2314 0
M  V30 11238 H 1018.38 -2.12214 -3.08084 0
M  V30 11239 H 1019.72 -2.77585 -4.06457 0
M  V30 11240 N 1021.37 1.14642 -1.08144 0
M  V30 11241 C 1022.6 1.89209 -0.82966 0
M  V30 11242 C 1023.01 1.78697 0.621604 0
M  V30 11243 O 1022.35 1.14224 1.4387 0
M  V30 11244 C 1022.41 3.39958 -1.16915 0
M  V30 11245 C 1022.07 3.74254 -2.62264 0
M  V30 11246 C 1023.07 3.746 -3.60514 0
M  V30 11247 C 1020.76 4.04316 -2.9805 0
M  V30 11248 C 1022.75 4.04527 -4.92582 0
M  V30 11249 C 1020.44 4.33906 -4.30312 0
M  V30 11250 C 1021.44 4.33995 -5.27388 0
M  V30 11251 O 1021.12 4.62869 -6.57273 0
M  V30 11252 H 1020.86 0.606259 -0.299042 0
M  V30 11253 H 1023.41 1.46132 -1.44342 0
M  V30 11254 H 1021.64 3.83475 -0.498377 0
M  V30 11255 H 1023.33 3.95828 -0.89862 0
M  V30 11256 H 1024.09 3.51466 -3.34211 0
M  V30 11257 H 1019.97 4.03402 -2.23132 0
M  V30 11258 H 1023.52 4.04511 -5.68346 0
M  V30 11259 H 1019.41 4.5651 -4.56365 0
M  V30 11260 H 1020.18 4.80598 -6.62546 0
M  V30 11261 N 1022.85 0.866709 1.31628 0
M  V30 11262 C 1023.79 0.309128 2.30537 0
M  V30 11263 C 1024.79 -0.574028 1.59378 0
M  V30 11264 O 1025.99 -0.460491 1.7401 0
M  V30 11265 H 1022.37 0.081279 0.747595 0
M  V30 11266 H 1024.34 1.15734 2.75042 0
M  V30 11267 C 1023.09 -0.477287 3.44409 0
M  V30 11268 H 1022.41 0.19301 3.99334 0
M  V30 11269 H 1023.85 -0.832818 4.1574 0
M  V30 11270 C 1022.31 -1.66727 2.92752 0
M  V30 11271 O 1022.84 -2.76654 2.91248 0
M  V30 11272 N 1021.05 -1.49833 2.48995 0
M  V30 11273 H 1020.59 -0.604073 2.50417 0
M  V30 11274 H 1020.55 -2.29594 2.14788 0
M  V30 11275 N 1024.32 -1.44642 0.625825 0
M  V30 11276 C 1025.27 -2.30653 -0.082259 0
M  V30 11277 C 1026.24 -1.43174 -0.842052 0
M  V30 11278 O 1027.43 -1.72082 -0.824151 0
M  V30 11279 C 1024.57 -3.2837 -1.06146 0
M  V30 11280 C 1023.68 -4.30953 -0.300638 0
M  V30 11281 C 1022.81 -5.15766 -1.27118 0
M  V30 11282 C 1021.85 -6.10061 -0.499215 0
M  V30 11283 N 1020.99 -6.87591 -1.41995 0
M  V30 11284 H 1025.83 -2.90664 0.657161 0
M  V30 11285 H 1023.37 -1.43215 0.335859 0
M  V30 11286 H 1025.32 -3.83507 -1.6425 0
M  V30 11287 H 1023.95 -2.70072 -1.76807 0
M  V30 11288 H 1023.01 -3.78331 0.396234 0
M  V30 11289 H 1024.32 -4.97892 0.300851 0
M  V30 11290 H 1023.47 -5.75394 -1.92372 0
M  V30 11291 H 1022.21 -4.48888 -1.9066 0
M  V30 11292 H 1021.22 -5.49547 0.166848 0
M  V30 11293 H 1022.44 -6.78973 0.131409 0
M  V30 11294 H 1020.39 -6.23387 -2.04267 0
M  V30 11295 H 1020.3 -7.5095 -0.872354 0
M  V30 11296 H 1021.57 -7.51746 -2.0615 0
M  V30 11297 N 1025.8 -0.366053 -1.5329 0
M  V30 11298 C 1027.22 -0.0150149 -1.59593 0
M  V30 11299 C 1027.42 1.46719 -1.38116 0
M  V30 11300 O 1026.47 2.22884 -1.18656 0
M  V30 11301 C 1027.79 -0.471374 -2.96982 0
M  V30 11302 C 1029.33 -0.425634 -3.10092 0
M  V30 11303 C 1029.81 -0.857812 -4.49895 0
M  V30 11304 N 1031.3 -0.81289 -4.56011 0
M  V30 11305 C 1032.04 -1.11898 -5.62376 0
M  V30 11306 N 1031.53 -1.49436 -6.76491 0
M  V30 11307 N 1033.32 -1.04174 -5.52362 0
M  V30 11308 H 1025.48 -1.33127 -1.65502 0
M  V30 11309 H 1027.74 -0.544172 -0.776261 0
M  V30 11310 H 1027.44 -1.50569 -3.1784 0
M  V30 11311 H 1027.32 0.141764 -3.76934 0
M  V30 11312 H 1029.71 0.599548 -2.88945 0
M  V30 11313 H 1029.79 -1.07427 -2.32149 0
M  V30 11314 H 1029.43 -1.88111 -4.7178 0
M  V30 11315 H 1029.36 -0.186419 -5.2627 0
M  V30 11316 H 1031.85 -0.536343 -3.74075 0
M  V30 11317 H 1032.16 -1.71217 -7.53594 0
M  V30 11318 H 1030.51 -1.53302 -6.77882 0
M  V30 11319 H 1033.7 -0.747654 -4.62091 0
M  V30 11320 H 1033.87 -1.28362 -6.35159 0
M  V30 11321 N 1027.28 1.57312 -0.0952337 0
M  V30 11322 C 1028.7 1.57445 0.261416 0
M  V30 11323 C 1028.9 1.10639 1.68408 0
M  V30 11324 O 1027.95 0.782912 2.40056 0
M  V30 11325 C 1029.26 3.00659 0.0497206 0
M  V30 11326 C 1030.81 3.1278 0.117459 0
M  V30 11327 C 1031.29 4.57952 -0.0662441 0
M  V30 11328 N 1032.78 4.63199 -0.0114146 0
M  V30 11329 C 1033.51 5.73255 -0.128799 0
M  V30 11330 N 1033.01 6.92146 -0.301026 0
M  V30 11331 N 1034.8 5.62056 -0.0700599 0
M  V30 11332 H 1026.95 1.86045 -1.02475 0
M  V30 11333 H 1029.22 0.858726 -0.401614 0
M  V30 11334 H 1028.92 3.39102 -0.932888 0
M  V30 11335 H 1028.8 3.68792 0.791975 0
M  V30 11336 H 1031.18 2.74209 1.09057 0
M  V30 11337 H 1031.26 2.47238 -0.656288 0
M  V30 11338 H 1030.91 4.97217 -1.03623 0
M  V30 11339 H 1030.84 5.21555 0.727198 0
M  V30 11340 H 1033.33 3.77712 0.119154 0
M  V30 11341 H 1033.64 7.71855 -0.382104 0
M  V30 11342 H 1031.99 6.94184 -0.336695 0
M  V30 11343 H 1035.18 4.68057 0.0633587 0
M  V30 11344 H 1035.35 6.4779 -0.164991 0
M  V30 11345 N 1028.76 -0.17846 1.56586 0
M  V30 11346 C 1029.67 -1.24115 1.9908 0
M  V30 11347 C 1030.68 -1.48854 0.901031 0
M  V30 11348 O 1031.86 -1.61142 1.2081 0
M  V30 11349 C 1028.92 -2.56187 2.33601 0
M  V30 11350 C 1027.99 -2.39373 3.56369 0
M  V30 11351 C 1027.22 -3.65147 3.89234 0
M  V30 11352 O 1027.44 -4.70024 3.23162 0
M  V30 11353 O 1026.38 -3.59683 4.82609 0
M  V30 11354 H 1030.2 -0.910482 2.89731 0
M  V30 11355 H 1027.79 -0.38477 1.4436 0
M  V30 11356 H 1029.67 -3.34109 2.56806 0
M  V30 11357 H 1028.34 -2.88847 1.46113 0
M  V30 11358 H 1027.25 -1.59506 3.38391 0
M  V30 11359 H 1028.58 -2.1164 4.44375 0
M  V30 11360 N 1030.24 -1.51135 -0.446768 0
M  V30 11361 C 1031.65 -1.39101 -0.782504 0
M  V30 11362 C 1031.85 -0.46599 -1.96038 0
M  V30 11363 O 1030.91 0.0823679 -2.52366 0
M  V30 11364 C 1032.22 -2.80953 -1.07173 0
M  V30 11365 C 1033.77 -2.90038 -1.17673 0
M  V30 11366 C 1034.24 -4.32777 -1.49894 0
M  V30 11367 N 1035.73 -4.3584 -1.56837 0
M  V30 11368 C 1036.47 -5.43305 -1.83322 0
M  V30 11369 N 1035.97 -6.60945 -2.07662 0
M  V30 11370 N 1037.76 -5.30775 -1.85026 0
M  V30 11371 H 1029.91 -2.09835 0.329114 0
M  V30 11372 H 1032.17 -0.944199 0.0848054 0
M  V30 11373 H 1031.88 -3.50591 -0.279037 0
M  V30 11374 H 1031.75 -3.197 -2.00179 0
M  V30 11375 H 1034.14 -2.20603 -1.96005 0
M  V30 11376 H 1034.22 -2.54801 -0.225892 0
M  V30 11377 H 1033.86 -5.02757 -0.720924 0
M  V30 11378 H 1033.79 -4.6552 -2.46168 0
M  V30 11379 H 1036.29 -3.51023 -1.39968 0
M  V30 11380 H 1036.6 -7.38643 -2.27214 0
M  V30 11381 H 1034.94 -6.64077 -2.05003 0
M  V30 11382 H 1038.13 -4.37858 -1.65523 0
M  V30 11383 H 1038.31 -6.14609 -2.05329 0
M  V30 11384 N 1031.71 0.701592 -1.41122 0
M  V30 11385 C 1032.62 1.84548 -1.44841 0
M  V30 11386 C 1033.64 1.70654 -0.339594 0
M  V30 11387 O 1034.82 1.92675 -0.586378 0
M  V30 11388 C 1031.88 3.20477 -1.3227 0
M  V30 11389 C 1030.94 3.46524 -2.53415 0
M  V30 11390 C 1030.17 4.75968 -2.41434 0
M  V30 11391 O 1030.4 5.52037 -1.43566 0
M  V30 11392 O 1029.33 5.02664 -3.31078 0
M  V30 11393 H 1033.16 1.84367 -2.41335 0
M  V30 11394 H 1030.74 0.853863 -1.22595 0
M  V30 11395 H 1032.62 4.01642 -1.2752 0
M  V30 11396 H 1031.3 3.21355 -0.388889 0
M  V30 11397 H 1030.21 2.65313 -2.63742 0
M  V30 11398 H 1031.54 3.50455 -3.45604 0
M  V30 11399 N 1033.19 1.2685 0.935242 0
M  V30 11400 C 1034.12 1.1143 2.05196 0
M  V30 11401 C 1035.1 0.0178362 1.70091 0
M  V30 11402 O 1036.29 0.190951 1.93259 0
M  V30 11403 C 1033.42 0.752779 3.39044 0
M  V30 11404 C 1032.37 1.80164 3.88233 0
M  V30 11405 C 1031.7 1.29428 5.18799 0
M  V30 11406 C 1033 3.20431 4.12457 0
M  V30 11407 H 1034.69 2.04845 2.18355 0
M  V30 11408 H 1032.24 0.986276 1.04922 0
M  V30 11409 H 1034.19 0.631757 4.16637 0
M  V30 11410 H 1032.91 -0.217075 3.25878 0
M  V30 11411 H 1031.57 1.91144 3.12825 0
M  V30 11412 H 1031.22 0.3141 5.02018 0
M  V30 11413 H 1030.92 1.99546 5.5268 0
M  V30 11414 H 1032.45 1.18605 5.9897 0
M  V30 11415 H 1033.86 3.12495 4.80645 0
M  V30 11416 H 1032.26 3.88193 4.57631 0
M  V30 11417 H 1033.33 3.66046 3.18023 0
M  V30 11418 N 1034.67 -1.14067 1.0875 0
M  V30 11419 C 1036.09 -1.37173 0.815823 0
M  V30 11420 C 1036.29 -1.93175 -0.573215 0
M  V30 11421 O 1035.34 -2.14672 -1.32937 0
M  V30 11422 C 1036.66 -2.32955 1.90138 0
M  V30 11423 C 1038.2 -2.46586 1.9278 0
M  V30 11424 C 1038.68 -3.4567 3.0046 0
M  V30 11425 N 1040.17 -3.53216 2.99655 0
M  V30 11426 C 1040.9 -4.29743 3.79616 0
M  V30 11427 N 1040.4 -5.09484 4.69466 0
M  V30 11428 N 1042.19 -4.24975 3.67903 0
M  V30 11429 H 1034.34 -0.760648 1.98313 0
M  V30 11430 H 1036.61 -0.397135 0.860807 0
M  V30 11431 H 1036.31 -1.98949 2.90021 0
M  V30 11432 H 1036.19 -3.32897 1.77368 0
M  V30 11433 H 1038.57 -2.79882 0.935404 0
M  V30 11434 H 1038.66 -1.46593 2.09629 0
M  V30 11435 H 1038.3 -3.13106 3.99909 0
M  V30 11436 H 1038.23 -4.45452 2.80856 0
M  V30 11437 H 1040.72 -2.96314 2.34535 0
M  V30 11438 H 1041.03 -5.65163 5.27077 0
M  V30 11439 H 1039.38 -5.08741 4.73506 0
M  V30 11440 H 1042.57 -3.61751 2.97075 0
M  V30 11441 H 1042.74 -4.84364 4.30459 0
M  V30 11442 N 1036.15 -0.873678 -1.31166 0
M  V30 11443 C 1037.56 -0.566109 -1.49223 0
M  V30 11444 C 1037.76 0.898889 -1.80339 0
M  V30 11445 O 1036.82 1.68084 -1.88425 0
M  V30 11446 C 1038.13 -1.46952 -2.62346 0
M  V30 11447 C 1039.68 -1.47195 -2.76229 0
M  V30 11448 C 1040.16 -2.36102 -3.92454 0
M  V30 11449 N 1041.65 -2.34003 -3.99746 0
M  V30 11450 C 1042.38 -2.99513 -4.88958 0
M  V30 11451 N 1041.88 -3.74206 -5.83045 0
M  V30 11452 N 1043.67 -2.88802 -4.82234 0
M  V30 11453 H 1035.82 -1.82156 -1.09239 0
M  V30 11454 H 1038.09 -0.779086 -0.54012 0
M  V30 11455 H 1037.79 -2.51213 -2.4614 0
M  V30 11456 H 1037.67 -1.17077 -3.5857 0
M  V30 11457 H 1040.05 -0.436902 -2.91848 0
M  V30 11458 H 1040.13 -1.81095 -1.80661 0
M  V30 11459 H 1039.78 -3.39685 -3.77593 0
M  V30 11460 H 1039.71 -1.99524 -4.87337 0
M  V30 11461 H 1042.2 -1.79713 -3.32433 0
M  V30 11462 H 1042.51 -4.21312 -6.47855 0
M  V30 11463 H 1040.86 -3.78314 -5.83012 0
M  V30 11464 H 1044.05 -2.29984 -4.07707 0
M  V30 11465 H 1044.22 -3.40136 -5.51554 0
M  V30 11466 N 1037.63 1.44308 -0.633487 0
M  V30 11467 C 1038.57 2.30694 0.0700257 0
M  V30 11468 C 1039.54 1.43618 0.834447 0
M  V30 11469 O 1040.73 1.72517 0.815014 0
M  V30 11470 C 1037.87 3.28929 1.04403 0
M  V30 11471 C 1036.98 4.31106 0.277779 0
M  V30 11472 C 1036.12 5.16433 1.24381 0
M  V30 11473 C 1035.16 6.10317 0.466855 0
M  V30 11474 N 1034.29 6.88335 1.38347 0
M  V30 11475 H 1039.13 2.90311 -0.672567 0
M  V30 11476 H 1036.67 1.43034 -0.343449 0
M  V30 11477 H 1038.63 3.84373 1.62214 0
M  V30 11478 H 1037.26 2.71006 1.75372 0
M  V30 11479 H 1036.31 3.78115 -0.416292 0
M  V30 11480 H 1037.62 4.97725 -0.327251 0
M  V30 11481 H 1036.78 5.76406 1.89318 0
M  V30 11482 H 1035.51 4.49893 1.88276 0
M  V30 11483 H 1034.52 5.49451 -0.195989 0
M  V30 11484 H 1035.74 6.78894 -0.167414 0
M  V30 11485 H 1033.69 6.24461 2.00959 0
M  V30 11486 H 1033.61 7.51402 0.832517 0
M  V30 11487 H 1034.88 7.52829 2.0216 0
M  V30 11488 N 1039.1 0.374177 1.53094 0
M  V30 11489 C 1040.05 -0.484848 2.22785 0
M  V30 11490 C 1041.04 -1.04181 1.22617 0
M  V30 11491 O 1042.23 -0.97043 1.48026 0
M  V30 11492 C 1039.36 -1.61956 3.02696 0
M  V30 11493 C 1038.45 -1.07506 4.10248 0
M  V30 11494 N 1038.84 -0.254253 5.05161 0
M  V30 11495 C 1037.13 -1.34904 4.25108 0
M  V30 11496 C 1037.84 0.0448558 5.81683 0
M  V30 11497 N 1036.81 -0.555073 5.40759 0
M  V30 11498 H 1040.61 0.148976 2.93522 0
M  V30 11499 H 1038.13 0.182656 1.6137 0
M  V30 11500 H 1040.12 -2.24723 3.51148 0
M  V30 11501 H 1038.78 -2.25636 2.33492 0
M  V30 11502 H 1039.8 0.107256 5.17789 0
M  V30 11503 H 1036.47 -1.98799 3.67131 0
M  V30 11504 H 1037.86 0.708952 6.68149 0
M  V30 11505 N 1040.58 -1.57259 0.103575 0
M  V30 11506 C 1041.83 -1.94945 -0.558953 0
M  V30 11507 C 1042.16 -0.986038 -1.67305 0
M  V30 11508 O 1041.44 -0.0205464 -1.94489 0
M  V30 11509 C 1041.72 -3.42689 -1.10617 0
M  V30 11510 C 1041.57 -4.498 0.00345246 0
M  V30 11511 C 1042.89 -3.91933 -2.00191 0
M  V30 11512 H 1040.01 -0.708859 -0.201713 0
M  V30 11513 H 1042.65 -1.89183 0.176006 0
M  V30 11514 H 1040.8 -3.4773 -1.73251 0
M  V30 11515 H 1042.47 -4.56866 0.638082 0
M  V30 11516 H 1040.72 -4.28615 0.668705 0
M  V30 11517 H 1041.39 -5.50397 -0.420396 0
M  V30 11518 H 1043.86 -3.89098 -1.4745 0
M  V30 11519 H 1042.74 -4.9586 -2.35402 0
M  V30 11520 H 1043 -3.31722 -2.92255 0
M  V30 11521 N 1042.06 0.170153 -1.56679 0
M  V30 11522 C 1042.99 1.23945 -1.91606 0
M  V30 11523 C 1043.97 1.42725 -0.779004 0
M  V30 11524 O 1045.16 1.57712 -1.03243 0
M  V30 11525 C 1042.28 2.60222 -2.168 0
M  V30 11526 C 1041.33 2.58172 -3.39484 0
M  V30 11527 S 1042.16 2.0714 -4.93815 0
M  V30 11528 C 1043.32 3.45192 -5.22105 0
M  V30 11529 H 1043.55 0.941345 -2.82004 0
M  V30 11530 H 1041.08 0.374771 -1.49783 0
M  V30 11531 H 1043.04 3.38656 -2.31996 0
M  V30 11532 H 1041.7 2.87232 -1.27107 0
M  V30 11533 H 1040.9 3.58435 -3.54317 0
M  V30 11534 H 1040.5 1.87834 -3.2341 0
M  V30 11535 H 1042.79 4.41194 -5.14154 0
M  V30 11536 H 1043.73 3.35233 -6.23718 0
M  V30 11537 H 1044.14 3.41257 -4.49671 0
M  V30 11538 N 1043.54 1.5137 0.438746 0
M  V30 11539 C 1044.45 1.75424 1.55768 0
M  V30 11540 C 1045.46 0.638409 1.61865 0
M  V30 11541 O 1046.64 0.9205 1.79133 0
M  V30 11542 C 1043.71 1.87288 2.9176 0
M  V30 11543 C 1042.77 3.11137 2.95791 0
M  V30 11544 C 1042 3.22425 4.25297 0
M  V30 11545 O 1042.22 2.39688 5.17596 0
M  V30 11546 O 1041.16 4.15393 4.35583 0
M  V30 11547 H 1044.98 2.70339 1.38386 0
M  V30 11548 H 1042.57 1.35854 0.621609 0
M  V30 11549 H 1044.45 1.97085 3.72472 0
M  V30 11550 H 1043.12 0.955599 3.09273 0
M  V30 11551 H 1042.03 3.06819 2.1404 0
M  V30 11552 H 1043.36 4.02549 2.83223 0
M  V30 11553 N 1045.02 -0.694098 1.41492 0
M  V30 11554 C 1046.26 -1.4563 1.41137 0
M  V30 11555 C 1046.6 -1.94189 0.0208428 0
M  V30 11556 O 1045.87 -1.69628 -0.951655 0
M  V30 11557 C 1046.15 -2.66714 2.41941 0
M  V30 11558 C 1046.01 -2.23912 3.90107 0
M  V30 11559 C 1047.33 -3.68913 2.39981 0
M  V30 11560 H 1044.44 -0.52821 0.513968 0
M  V30 11561 H 1047.09 -0.790437 1.72778 0
M  V30 11562 H 1045.24 -3.23525 2.1509 0
M  V30 11563 H 1046.91 -1.72417 4.27867 0
M  V30 11564 H 1045.15 -1.5568 4.04903 0
M  V30 11565 H 1045.82 -3.108 4.56188 0
M  V30 11566 H 1048.3 -3.21779 2.63813 0
M  V30 11567 H 1047.17 -4.51242 3.12524 0
M  V30 11568 H 1047.44 -4.18711 1.41892 0
M  V30 11569 N 1046.49 -1.27344 -0.928501 0
M  V30 11570 C 1047.91 -1.04732 -1.2043 0
M  V30 11571 C 1048.11 0.219623 -2.003 0
M  V30 11572 O 1047.17 0.925333 -2.34934 0
M  V30 11573 C 1048.48 -2.28625 -1.95323 0
M  V30 11574 C 1050.03 -2.33655 -2.08265 0
M  V30 11575 C 1050.5 -3.57275 -2.86563 0
M  V30 11576 N 1051.99 -3.57828 -2.94132 0
M  V30 11577 C 1052.73 -4.50152 -3.55177 0
M  V30 11578 N 1052.22 -5.52779 -4.17621 0
M  V30 11579 N 1054.02 -4.37777 -3.52573 0
M  V30 11580 H 1046.17 -2.08697 -0.394892 0
M  V30 11581 H 1048.43 -0.91782 -0.2373 0
M  V30 11582 H 1048.14 -3.20845 -1.44054 0
M  V30 11583 H 1048.01 -2.33878 -2.95941 0
M  V30 11584 H 1050.4 -1.41942 -2.58721 0
M  V30 11585 H 1050.48 -2.32406 -1.0687 0
M  V30 11586 H 1050.12 -4.49325 -2.3679 0
M  V30 11587 H 1050.05 -3.55775 -3.88242 0
M  V30 11588 H 1052.54 -2.83607 -2.49751 0
M  V30 11589 H 1052.86 -6.19394 -4.62137 0
M  V30 11590 H 1051.2 -5.56622 -4.16169 0
M  V30 11591 H 1054.39 -3.56811 -3.02991 0
M  V30 11592 H 1054.57 -5.09919 -3.99858 0
M  V30 11593 N 1047.97 1.13488 -1.09353 0
M  V30 11594 C 1048.9 2.18563 -0.69012 0
M  V30 11595 C 1049.92 1.60585 0.267651 0
M  V30 11596 O 1051.11 1.78419 0.0538176 0
M  V30 11597 C 1048.21 3.389 0.00391255 0
M  V30 11598 C 1047.38 4.2639 -0.975209 0
M  V30 11599 C 1046.44 5.25258 -0.314719 0
M  V30 11600 O 1045.46 5.6101 -0.962119 0
M  V30 11601 N 1046.67 5.72978 0.931458 0
M  V30 11602 H 1049.43 2.53788 -1.59411 0
M  V30 11603 H 1046.99 1.28803 -0.980886 0
M  V30 11604 H 1048.98 4.02112 0.45696 0
M  V30 11605 H 1047.55 3.0192 0.81014 0
M  V30 11606 H 1046.77 3.59964 -1.60684 0
M  V30 11607 H 1048.06 4.817 -1.63836 0
M  V30 11608 H 1047.46 5.46078 1.477 0
M  V30 11609 H 1046.02 6.38131 1.32784 0
M  V30 11610 N 1049.45 0.880621 1.30701 0
M  V30 11611 C 1050.38 0.301443 2.27209 0
M  V30 11612 C 1051.4 -0.541533 1.53529 0
M  V30 11613 O 1052.59 -0.361791 1.74795 0
M  V30 11614 C 1049.69 -0.59038 3.33718 0
M  V30 11615 C 1048.86 0.222549 4.36833 0
M  V30 11616 C 1047.92 -0.599083 5.22779 0
M  V30 11617 O 1046.94 -0.0233267 5.69195 0
M  V30 11618 N 1048.15 -1.90904 5.48211 0
M  V30 11619 H 1050.91 1.13083 2.77547 0
M  V30 11620 H 1048.47 0.743168 1.43835 0
M  V30 11621 H 1050.46 -1.14599 3.88135 0
M  V30 11622 H 1049.03 -1.32044 2.83343 0
M  V30 11623 H 1048.25 0.959606 3.82342 0
M  V30 11624 H 1049.54 0.779965 5.02786 0
M  V30 11625 H 1048.94 -2.3998 5.12275 0
M  V30 11626 H 1047.5 -2.4122 6.05521 0
M  V30 11627 N 1050.93 -1.4397 0.641131 0
M  V30 11628 C 1052.34 -1.85267 0.230838 0
M  V30 11629 C 1052.69 -1.53659 -1.21998 0
M  V30 11630 O 1051.82 -0.979572 -1.92959 0
M  V30 11631 C 1052.41 -3.36284 0.412171 0
M  V30 11632 C 1050.97 -3.76358 0.0563004 0
M  V30 11633 C 1050.12 -2.67768 0.720809 0
M  V30 11634 H 1053.07 -1.34294 0.845624 0
M  V30 11635 H 1053.09 -3.78924 -0.345936 0
M  V30 11636 H 1052.6 -3.59258 1.46818 0
M  V30 11637 H 1050.7 -3.58997 -0.997582 0
M  V30 11638 H 1050.82 -4.76756 0.473335 0
M  V30 11639 H 1049.18 -2.54227 0.155164 0
M  V30 11640 H 1049.96 -2.93573 1.77961 0
M  V30 11641 N 1052.41 -0.382291 -1.52893 0
M  V30 11642 C 1053.35 0.456234 -2.26246 0
M  V30 11643 C 1054.32 1.06366 -1.27575 0
M  V30 11644 O 1055.51 1.09301 -1.5639 0
M  V30 11645 C 1052.65 1.5813 -3.06739 0
M  V30 11646 C 1051.76 0.997416 -4.20328 0
M  V30 11647 C 1050.9 2.09296 -4.8823 0
M  V30 11648 C 1049.94 1.4846 -5.93823 0
M  V30 11649 N 1049.07 2.51916 -6.55349 0
M  V30 11650 H 1053.91 -0.175761 -2.97481 0
M  V30 11651 H 1051.45 -0.0985046 -1.4677 0
M  V30 11652 H 1053.41 2.24426 -3.51694 0
M  V30 11653 H 1052.04 2.18371 -2.37727 0
M  V30 11654 H 1051.09 0.224251 -3.79738 0
M  V30 11655 H 1052.4 0.512784 -4.96157 0
M  V30 11656 H 1051.56 2.83377 -5.36453 0
M  V30 11657 H 1050.3 2.61116 -4.1191 0
M  V30 11658 H 1049.3 0.729001 -5.44946 0
M  V30 11659 H 1050.53 0.97443 -6.72073 0
M  V30 11660 H 1048.47 3.02919 -5.81873 0
M  V30 11661 H 1048.39 2.08188 -7.26769 0
M  V30 11662 H 1049.66 3.25649 -7.08218 0
M  V30 11663 N 1053.89 1.57202 -0.111913 0
M  V30 11664 C 1055.11 1.99723 0.559054 0
M  V30 11665 C 1055.54 0.990968 1.59879 0
M  V30 11666 O 1054.89 -0.038311 1.8126 0
M  V30 11667 C 1054.94 3.41151 1.16826 0
M  V30 11668 O 1054.05 3.43383 2.2839 0
M  V30 11669 H 1053.39 0.649004 0.140319 0
M  V30 11670 H 1055.92 2.03637 -0.198295 0
M  V30 11671 H 1055.93 3.79208 1.50551 0
M  V30 11672 H 1054.6 4.13907 0.406637 0
M  V30 11673 H 1053.18 3.17138 1.96158 0
M  V30 11674 N 1055.36 -0.161842 1.56767 0
M  V30 11675 C 1056.29 -1.20226 2.0017 0
M  V30 11676 C 1057.27 -1.4564 0.878807 0
M  V30 11677 O 1058.46 -1.56813 1.14557 0
M  V30 11678 C 1055.59 -2.53897 2.36968 0
M  V30 11679 C 1054.54 -2.43033 3.52305 0
M  V30 11680 C 1053.87 -3.81281 3.74872 0
M  V30 11681 C 1055.17 -1.927 4.85453 0
M  V30 11682 H 1056.86 -0.84142 2.87333 0
M  V30 11683 H 1054.41 -0.403309 1.38237 0
M  V30 11684 H 1056.36 -3.26893 2.6593 0
M  V30 11685 H 1055.09 -2.91787 1.46724 0
M  V30 11686 H 1053.75 -1.7249 3.23485 0
M  V30 11687 H 1053.39 -4.1658 2.81904 0
M  V30 11688 H 1053.09 -3.74877 4.52483 0
M  V30 11689 H 1054.62 -4.55848 4.06245 0
M  V30 11690 H 1056.03 -2.55477 5.13229 0
M  V30 11691 H 1054.43 -1.97222 5.66766 0
M  V30 11692 H 1055.5 -0.881816 4.76814 0
M  V30 11693 N 1056.84 -1.516 -0.430713 0
M  V30 11694 C 1057.79 -1.73392 -1.52328 0
M  V30 11695 C 1058.76 -0.575758 -1.55802 0
M  V30 11696 O 1059.94 -0.810931 -1.72709 0
M  V30 11697 C 1057.08 -1.87092 -2.89984 0
M  V30 11698 C 1056.2 -3.14668 -2.95987 0
M  V30 11699 C 1055.33 -3.18923 -4.24807 0
M  V30 11700 C 1054.37 -4.40787 -4.24703 0
M  V30 11701 N 1053.51 -4.42556 -5.45059 0
M  V30 11702 H 1058.35 -2.6665 -1.33048 0
M  V30 11703 H 1055.88 -1.32146 -0.646207 0
M  V30 11704 H 1057.84 -1.93017 -3.69865 0
M  V30 11705 H 1056.47 -0.972363 -3.07807 0
M  V30 11706 H 1055.52 -3.1802 -2.08728 0
M  V30 11707 H 1056.84 -4.04562 -2.91772 0
M  V30 11708 H 1055.99 -3.23801 -5.13067 0
M  V30 11709 H 1054.73 -2.2693 -4.31688 0
M  V30 11710 H 1053.73 -4.36079 -3.34836 0
M  V30 11711 H 1054.96 -5.34053 -4.19481 0
M  V30 11712 H 1052.91 -3.53435 -5.52648 0
M  V30 11713 H 1052.82 -5.26267 -5.42751 0
M  V30 11714 H 1054.09 -4.51634 -6.35332 0
M  V30 11715 N 1058.32 0.686584 -1.41858 0
M  V30 11716 C 1059.54 1.4802 -1.45275 0
M  V30 11717 C 1059.97 1.87997 -0.0621297 0
M  V30 11718 O 1059.33 1.55226 0.936733 0
M  V30 11719 C 1059.38 2.7133 -2.37513 0
M  V30 11720 O 1058.48 3.69159 -1.83836 0
M  V30 11721 H 1057.82 0.445152 -0.492682 0
M  V30 11722 H 1060.35 0.843161 -1.86419 0
M  V30 11723 H 1060.36 3.19537 -2.53693 0
M  V30 11724 H 1059.04 2.41571 -3.3855 0
M  V30 11725 H 1057.61 3.28134 -1.77151 0
M  V30 11726 N 1059.8 1.27835 0.921735 0
M  V30 11727 C 1060.74 1.11075 2.02314 0
M  V30 11728 C 1061.71 0.0101195 1.66097 0
M  V30 11729 O 1062.9 0.173564 1.90009 0
M  V30 11730 C 1060.04 0.770251 3.36394 0
M  V30 11731 C 1059.15 1.94912 3.8553 0
M  V30 11732 C 1058.29 1.54996 5.08084 0
M  V30 11733 C 1057.33 2.69595 5.49531 0
M  V30 11734 N 1056.46 2.30227 6.6328 0
M  V30 11735 H 1061.3 2.05319 2.15982 0
M  V30 11736 H 1058.84 1.022 1.058 0
M  V30 11737 H 1060.8 0.553624 4.1351 0
M  V30 11738 H 1059.43 -0.135238 3.22517 0
M  V30 11739 H 1058.48 2.27811 3.04641 0
M  V30 11740 H 1059.79 2.80858 4.12214 0
M  V30 11741 H 1058.95 1.29493 5.9272 0
M  V30 11742 H 1057.69 0.661676 4.83191 0
M  V30 11743 H 1056.69 2.95806 4.63442 0
M  V30 11744 H 1057.92 3.59054 5.76417 0
M  V30 11745 H 1055.86 1.43858 6.40032 0
M  V30 11746 H 1055.78 3.09711 6.89649 0
M  V30 11747 H 1057.05 2.07987 7.5124 0
M  V30 11748 N 1061.28 -1.12907 1.09954 0
M  V30 11749 C 1062.19 -2.22082 0.756095 0
M  V30 11750 C 1063.2 -1.72277 -0.244272 0
M  V30 11751 O 1064.38 -2.01224 -0.0842637 0
M  V30 11752 C 1061.44 -3.46192 0.187642 0
M  V30 11753 C 1060.5 -4.10861 1.24465 0
M  V30 11754 C 1059.74 -5.29047 0.703227 0
M  V30 11755 O 1059.96 -5.68443 -0.472043 0
M  V30 11756 O 1058.89 -5.83904 1.46082 0
M  V30 11757 H 1062.72 -2.53842 1.66727 0
M  V30 11758 H 1060.3 -1.21145 0.874316 0
M  V30 11759 H 1062.19 -4.21212 -0.125774 0
M  V30 11760 H 1060.86 -3.16119 -0.696459 0
M  V30 11761 H 1059.77 -3.37643 1.61085 0
M  V30 11762 H 1061.1 -4.45078 2.10159 0
M  V30 11763 N 1062.75 -0.88754 -1.30232 0
M  V30 11764 C 1063.68 -0.372481 -2.3051 0
M  V30 11765 C 1064.66 0.546037 -1.61098 0
M  V30 11766 O 1065.85 0.459345 -1.88689 0
M  V30 11767 C 1062.98 0.411605 -3.44852 0
M  V30 11768 C 1061.93 -0.415383 -4.2598 0
M  V30 11769 C 1061.26 0.495463 -5.324 0
M  V30 11770 C 1062.56 -1.65886 -4.95257 0
M  V30 11771 H 1064.25 -1.21045 -2.7384 0
M  V30 11772 H 1061.8 -0.583498 -1.31648 0
M  V30 11773 H 1063.75 0.782584 -4.1407 0
M  V30 11774 H 1062.48 1.28325 -3.00334 0
M  V30 11775 H 1061.14 -0.768534 -3.58454 0
M  V30 11776 H 1060.78 1.36489 -4.84128 0
M  V30 11777 H 1060.48 -0.0540885 -5.87575 0
M  V30 11778 H 1062.01 0.862901 -6.04472 0
M  V30 11779 H 1063.42 -1.35832 -5.56976 0
M  V30 11780 H 1061.82 -2.14881 -5.60309 0
M  V30 11781 H 1062.89 -2.40181 -4.21237 0
M  V30 11782 N 1064.23 1.43628 -0.648757 0
M  V30 11783 C 1065.16 2.29045 0.0841858 0
M  V30 11784 C 1066.18 1.42262 0.791537 0
M  V30 11785 O 1067.37 1.66243 0.650039 0
M  V30 11786 C 1064.47 3.19075 1.14212 0
M  V30 11787 C 1063.64 4.34372 0.513799 0
M  V30 11788 C 1062.7 5.05307 1.46803 0
M  V30 11789 O 1061.72 5.60729 0.978346 0
M  V30 11790 N 1062.93 5.08393 2.80209 0
M  V30 11791 H 1065.69 2.9259 -0.648948 0
M  V30 11792 H 1063.25 1.54268 -0.491209 0
M  V30 11793 H 1065.24 3.63395 1.78119 0
M  V30 11794 H 1063.81 2.57161 1.77728 0
M  V30 11795 H 1063.03 3.93024 -0.304262 0
M  V30 11796 H 1064.32 5.08745 0.0749871 0
M  V30 11797 H 1063.72 4.64729 3.22557 0
M  V30 11798 H 1062.28 5.56445 3.3943 0
M  V30 11799 N 1065.71 0.390394 1.52688 0
M  V30 11800 C 1066.96 -0.192697 2.00777 0
M  V30 11801 C 1067.27 -1.4781 1.28108 0
M  V30 11802 O 1068.48 -2.1413 1.66914 0
M  V30 11803 C 1066.93 -0.393955 3.57737 0
M  V30 11804 C 1066.54 0.878259 4.39307 0
M  V30 11805 C 1068.29 -0.933352 4.14112 0
M  V30 11806 C 1066.19 0.645218 5.8787 0
M  V30 11807 H 1065.12 -0.0757862 0.750182 0
M  V30 11808 H 1067.77 0.512961 1.76184 0
M  V30 11809 H 1066.16 -1.16149 3.78583 0
M  V30 11810 H 1067.33 1.65049 4.30227 0
M  V30 11811 H 1065.65 1.34269 3.94158 0
M  V30 11812 H 1068.24 -1.12343 5.22765 0
M  V30 11813 H 1068.59 -1.90272 3.70273 0
M  V30 11814 H 1069.12 -0.225361 3.97161 0
M  V30 11815 H 1065.86 1.58562 6.36033 0
M  V30 11816 H 1065.38 -0.0880609 5.99735 0
M  V30 11817 H 1067.06 0.280178 6.46393 0
M  V30 11818 N 1067.19 -1.57141 0.120249 0
M  V30 11819 C 1068.14 -2.15379 -0.829497 0
M  V30 11820 C 1069.11 -1.07913 -1.2627 0
M  V30 11821 O 1070.29 -1.35827 -1.33999 0
M  V30 11822 C 1067.43 -2.75847 -2.0737 0
M  V30 11823 C 1066.54 -3.97624 -1.68875 0
M  V30 11824 C 1065.68 -4.46175 -2.88272 0
M  V30 11825 C 1064.72 -5.60481 -2.46023 0
M  V30 11826 N 1063.85 -6.0377 -3.58337 0
M  V30 11827 H 1068.69 -2.96211 -0.326031 0
M  V30 11828 H 1066.23 -1.46341 -0.149235 0
M  V30 11829 H 1068.19 -3.09037 -2.80272 0
M  V30 11830 H 1066.82 -1.97703 -2.55174 0
M  V30 11831 H 1065.87 -3.70588 -0.858431 0
M  V30 11832 H 1067.18 -4.80512 -1.33827 0
M  V30 11833 H 1066.34 -4.8128 -3.69397 0
M  V30 11834 H 1065.08 -3.6224 -3.26548 0
M  V30 11835 H 1064.08 -5.24979 -1.63331 0
M  V30 11836 H 1065.31 -6.46184 -2.08863 0
M  V30 11837 H 1063.25 -5.22776 -3.96284 0
M  V30 11838 H 1063.17 -6.81517 -3.27217 0
M  V30 11839 H 1064.44 -6.43514 -4.39898 0
M  V30 11840 N 1068.67 0.153526 -1.5685 0
M  V30 11841 C 1069.61 1.18973 -1.97773 0
M  V30 11842 C 1070.58 1.43041 -0.844311 0
M  V30 11843 O 1071.77 1.55484 -1.10586 0
M  V30 11844 C 1068.91 2.51981 -2.35795 0
M  V30 11845 C 1068.02 2.35143 -3.62397 0
M  V30 11846 C 1067.16 3.61141 -3.89552 0
M  V30 11847 C 1066.2 3.39311 -5.09445 0
M  V30 11848 N 1065.33 4.57423 -5.32643 0
M  V30 11849 H 1070.17 0.833758 -2.86099 0
M  V30 11850 H 1067.71 0.400252 -1.4155 0
M  V30 11851 H 1069.67 3.29527 -2.55867 0
M  V30 11852 H 1068.3 2.85539 -1.50557 0
M  V30 11853 H 1067.35 1.48684 -3.50139 0
M  V30 11854 H 1068.66 2.14969 -4.501 0
M  V30 11855 H 1067.82 4.47117 -4.10087 0
M  V30 11856 H 1066.55 3.84312 -3.00259 0
M  V30 11857 H 1065.56 2.51723 -4.8879 0
M  V30 11858 H 1066.78 3.17545 -6.00285 0
M  V30 11859 H 1064.73 4.8078 -4.46303 0
M  V30 11860 H 1064.65 4.40228 -6.14602 0
M  V30 11861 H 1065.92 5.44632 -5.57671 0
M  V30 11862 N 1070.14 1.51827 0.422667 0
M  V30 11863 C 1071.08 1.70409 1.53275 0
M  V30 11864 C 1072.09 0.584584 1.51942 0
M  V30 11865 O 1073.28 0.859349 1.56453 0
M  V30 11866 C 1070.38 1.717 2.92185 0
M  V30 11867 C 1069.55 3.00472 3.17861 0
M  V30 11868 C 1068.61 2.93755 4.36571 0
M  V30 11869 O 1067.64 3.67682 4.3451 0
M  V30 11870 N 1068.84 2.10612 5.40946 0
M  V30 11871 H 1071.6 2.66176 1.37734 0
M  V30 11872 H 1069.16 1.49895 0.611799 0
M  V30 11873 H 1071.16 1.64756 3.69645 0
M  V30 11874 H 1069.73 0.834655 3.01251 0
M  V30 11875 H 1068.95 3.21171 2.28567 0
M  V30 11876 H 1070.23 3.85684 3.31851 0
M  V30 11877 H 1069.63 1.49954 5.45463 0
M  V30 11878 H 1068.19 2.09535 6.17202 0
M  V30 11879 N 1071.62 -0.679052 1.4222 0
M  V30 11880 C 1072.87 -1.43912 1.42463 0
M  V30 11881 C 1073.2 -1.9446 0.0395574 0
M  V30 11882 O 1072.45 -1.71019 -0.951365 0
M  V30 11883 C 1072.75 -2.65528 2.39227 0
M  V30 11884 C 1072.42 -2.33545 3.85704 0
M  V30 11885 C 1071.08 -2.24534 4.25603 0
M  V30 11886 C 1073.43 -2.07496 4.78116 0
M  V30 11887 C 1070.76 -1.87592 5.55901 0
M  V30 11888 C 1073.11 -1.72059 6.08752 0
M  V30 11889 C 1071.78 -1.61555 6.47654 0
M  V30 11890 H 1071.05 -0.52661 0.521309 0
M  V30 11891 H 1073.69 -0.774661 1.75132 0
M  V30 11892 H 1072 -3.36985 1.9987 0
M  V30 11893 H 1073.69 -3.23702 2.36681 0
M  V30 11894 H 1070.28 -2.4146 3.54112 0
M  V30 11895 H 1074.47 -2.13393 4.48082 0
M  V30 11896 H 1069.72 -1.78026 5.84908 0
M  V30 11897 H 1073.9 -1.50926 6.79849 0
M  V30 11898 H 1071.53 -1.32699 7.48529 0
M  V30 11899 N 1073.1 -1.28322 -0.914942 0
M  V30 11900 C 1074.03 -1.07947 -2.02188 0
M  V30 11901 C 1075.05 -0.0315743 -1.62769 0
M  V30 11902 O 1076.23 -0.274503 -1.76377 0
M  V30 11903 C 1073.33 -0.61805 -3.33217 0
M  V30 11904 C 1072.51 -1.74109 -4.01254 0
M  V30 11905 C 1071.57 -1.27325 -5.10563 0
M  V30 11906 O 1070.59 -1.97526 -5.33828 0
M  V30 11907 N 1071.79 -0.1358 -5.80341 0
M  V30 11908 H 1074.56 -2.03275 -2.20225 0
M  V30 11909 H 1072.12 -1.20059 -1.08616 0
M  V30 11910 H 1074.11 -0.288693 -4.03669 0
M  V30 11911 H 1072.68 0.242348 -3.11659 0
M  V30 11912 H 1071.9 -2.2401 -3.24366 0
M  V30 11913 H 1073.19 -2.49448 -4.43456 0
M  V30 11914 H 1072.59 0.449846 -5.63909 0
M  V30 11915 H 1071.15 0.134289 -6.51662 0
M  V30 11916 N 1074.58 1.12322 -1.10551 0
M  V30 11917 C 1075.86 1.80201 -0.760715 0
M  V30 11918 C 1076.24 1.97228 0.752628 0
M  V30 11919 O 1075.58 1.54958 1.67929 0
M  V30 11920 C 1075.79 3.14491 -1.51316 0
M  V30 11921 C 1077.14 3.89671 -1.68647 0
M  V30 11922 O 1078.17 3.24151 -1.47664 0
M  V30 11923 O 1077.02 5.0722 -2.03445 0
M  V30 11924 H 1074.12 0.780084 -0.274587 0
M  V30 11925 H 1076.66 1.19147 -1.20839 0
M  V30 11926 H 1075.44 2.97396 -2.54306 0
M  V30 11927 H 1075.06 3.83253 -1.05842 0
M  V30 11928 N 1076.06 0.894434 1.2976 0
M  V30 11929 C 1077.28 0.532916 1.99919 0
M  V30 11930 C 1077.7 -0.881022 1.66983 0
M  V30 11931 O 1077.06 -1.58076 0.912035 0
M  V30 11932 C 1077.11 0.70936 3.54472 0
M  V30 11933 O 1076.83 2.06764 3.86239 0
M  V30 11934 C 1078.33 0.352089 4.419 0
M  V30 11935 H 1075.55 0.205019 0.638912 0
M  V30 11936 H 1078.09 1.20233 1.65421 0
M  V30 11937 H 1076.25 0.0871901 3.87302 0
M  V30 11938 H 1076.66 2.09315 4.80924 0
M  V30 11939 H 1078.14 0.526405 5.49484 0
M  V30 11940 H 1078.61 -0.710527 4.33415 0
M  V30 11941 H 1079.22 0.950979 4.14532 0
M  V30 11942 N 1077.53 -1.43282 0.656365 0
M  V30 11943 C 1078.77 -2.03652 0.174681 0
M  V30 11944 C 1079.14 -1.5068 -1.18994 0
M  V30 11945 O 1080.34 -2.02716 -1.76521 0
M  V30 11946 C 1078.61 -3.56906 0.18778 0
M  V30 11947 S 1080.17 -4.3822 -0.225599 0
M  V30 11948 H 1076.99 -0.70719 0.0735029 0
M  V30 11949 H 1079.59 -1.75303 0.865403 0
M  V30 11950 H 1078.29 -3.92961 1.18363 0
M  V30 11951 H 1077.82 -3.89903 -0.523378 0
M  V30 11952 H 1079.84 -4.74121 -1.46369 0
M  V30 11953 N 1079.01 -0.398486 -1.52479 0
M  V30 11954 C 1079.96 0.432212 -2.26717 0
M  V30 11955 C 1080.93 1.05007 -1.28696 0
M  V30 11956 O 1082.12 1.07636 -1.57541 0
M  V30 11957 C 1079.26 1.54868 -3.08399 0
M  V30 11958 C 1078.37 0.952779 -4.21362 0
M  V30 11959 C 1077.5 2.04106 -4.90423 0
M  V30 11960 C 1076.54 1.42153 -5.95364 0
M  V30 11961 N 1075.68 2.44951 -6.57984 0
M  V30 11962 H 1080.52 -0.207303 -2.97278 0
M  V30 11963 H 1078.06 -0.114066 -1.46657 0
M  V30 11964 H 1080.01 2.20684 -3.54054 0
M  V30 11965 H 1078.64 2.15837 -2.4003 0
M  V30 11966 H 1077.7 0.183962 -3.79955 0
M  V30 11967 H 1079.01 0.460131 -4.96673 0
M  V30 11968 H 1078.16 2.77672 -5.39429 0
M  V30 11969 H 1076.9 2.56733 -4.14656 0
M  V30 11970 H 1075.91 0.671161 -5.45688 0
M  V30 11971 H 1077.13 0.903093 -6.73068 0
M  V30 11972 H 1075.08 2.9673 -5.85053 0
M  V30 11973 H 1074.99 2.00468 -7.28937 0
M  V30 11974 H 1076.26 3.18119 -7.11632 0
M  V30 11975 N 1080.49 1.57075 -0.12858 0
M  V30 11976 C 1081.74 1.94695 0.526952 0
M  V30 11977 C 1082.05 1.01482 1.67215 0
M  V30 11978 O 1083.26 1.28606 2.39108 0
M  V30 11979 C 1081.72 3.4605 0.988801 0
M  V30 11980 C 1081.32 4.47816 -0.128457 0
M  V30 11981 C 1083.07 3.92572 1.61517 0
M  V30 11982 C 1080.97 5.9036 0.350628 0
M  V30 11983 H 1079.9 0.726819 0.200623 0
M  V30 11984 H 1082.56 1.82295 -0.209972 0
M  V30 11985 H 1080.94 3.53718 1.78043 0
M  V30 11986 H 1082.11 4.51826 -0.904976 0
M  V30 11987 H 1080.43 4.11103 -0.662075 0
M  V30 11988 H 1083.02 4.96493 1.98491 0
M  V30 11989 H 1083.37 3.33085 2.49721 0
M  V30 11990 H 1083.9 3.87744 0.888768 0
M  V30 11991 H 1080.64 6.53624 -0.495592 0
M  V30 11992 H 1080.16 5.89749 1.09342 0
M  V30 11993 H 1081.84 6.41926 0.808717 0
M  V30 11994 N 1081.97 -0.145205 1.5693 0
M  V30 11995 C 1082.9 -1.20438 1.95006 0
M  V30 11996 C 1083.91 -1.39085 0.846114 0
M  V30 11997 O 1085.1 -1.38625 1.12452 0
M  V30 11998 C 1082.2 -2.56892 2.21043 0
M  V30 11999 C 1081.38 -2.59197 3.52329 0
M  V30 12000 C 1080.44 -3.77204 3.66884 0
M  V30 12001 O 1079.46 -3.61995 4.39259 0
M  V30 12002 N 1080.66 -4.9473 3.03682 0
M  V30 12003 H 1083.43 -0.880709 2.86467 0
M  V30 12004 H 1080.99 -0.334751 1.58401 0
M  V30 12005 H 1082.98 -3.34349 2.2802 0
M  V30 12006 H 1081.55 -2.81544 1.35838 0
M  V30 12007 H 1080.77 -1.67644 3.56776 0
M  V30 12008 H 1082.06 -2.57771 4.3867 0
M  V30 12009 H 1081.46 -5.09989 2.44801 0
M  V30 12010 H 1080.01 -5.69956 3.16218 0
M  V30 12011 N 1083.45 -1.52049 -0.414609 0
M  V30 12012 C 1084.68 -1.69679 -1.18392 0
M  V30 12013 C 1085.09 -0.403881 -1.84429 0
M  V30 12014 O 1084.45 0.619636 -1.71659 0
M  V30 12015 C 1084.5 -2.82855 -2.25112 0
M  V30 12016 O 1084.22 -4.07138 -1.61772 0
M  V30 12017 C 1085.72 -3.11948 -3.14965 0
M  V30 12018 H 1082.94 -0.56879 -0.355977 0
M  V30 12019 H 1085.48 -1.9858 -0.488505 0
M  V30 12020 H 1083.64 -2.56488 -2.90332 0
M  V30 12021 H 1084.05 -4.70163 -2.32479 0
M  V30 12022 H 1085.53 -3.94665 -3.85932 0
M  V30 12023 H 1086 -2.25276 -3.77024 0
M  V30 12024 H 1086.61 -3.40059 -2.55421 0
M  V30 12025 N 1084.93 0.6715 -1.42579 0
M  V30 12026 C 1086.34 0.985019 -1.25577 0
M  V30 12027 C 1086.54 2.00845 -0.162319 0
M  V30 12028 O 1085.6 2.48175 0.465352 0
M  V30 12029 C 1086.91 1.48668 -2.61377 0
M  V30 12030 C 1088.46 1.60429 -2.68759 0
M  V30 12031 C 1088.93 2.13991 -4.04935 0
M  V30 12032 N 1090.42 2.21319 -4.06906 0
M  V30 12033 C 1091.16 2.63845 -5.09091 0
M  V30 12034 N 1090.66 3.05799 -6.21658 0
M  V30 12035 N 1092.45 2.63623 -4.96447 0
M  V30 12036 H 1084.6 -0.00604561 -2.12399 0
M  V30 12037 H 1086.86 0.0598299 -0.94611 0
M  V30 12038 H 1086.57 0.80917 -3.42265 0
M  V30 12039 H 1086.44 2.46487 -2.85524 0
M  V30 12040 H 1088.83 2.27286 -1.88216 0
M  V30 12041 H 1088.91 0.610909 -2.48398 0
M  V30 12042 H 1088.55 1.47741 -4.85937 0
M  V30 12043 H 1088.48 3.14126 -4.2265 0
M  V30 12044 H 1090.98 1.91743 -3.25643 0
M  V30 12045 H 1091.29 3.36944 -6.95477 0
M  V30 12046 H 1089.63 3.03648 -6.25158 0
M  V30 12047 H 1092.82 2.30211 -4.07579 0
M  V30 12048 H 1093 2.96444 -5.76216 0
M  V30 12049 N 1086.4 1.28806 0.908124 0
M  V30 12050 C 1087.34 1.09018 2.01613 0
M  V30 12051 C 1088.35 0.0402059 1.6275 0
M  V30 12052 O 1089.54 0.283853 1.76229 0
M  V30 12053 C 1086.64 0.635712 3.32884 0
M  V30 12054 C 1085.81 1.76235 4.00325 0
M  V30 12055 C 1084.87 1.3003 5.09881 0
M  V30 12056 O 1083.9 2.00354 5.32773 0
M  V30 12057 N 1085.1 0.166575 5.80261 0
M  V30 12058 H 1087.86 2.0444 2.19144 0
M  V30 12059 H 1085.42 1.20633 1.07978 0
M  V30 12060 H 1087.42 0.310097 4.0351 0
M  V30 12061 H 1085.99 -0.225816 3.11783 0
M  V30 12062 H 1085.21 2.25727 3.23173 0
M  V30 12063 H 1086.49 2.51796 4.42127 0
M  V30 12064 H 1085.89 -0.419934 5.64139 0
M  V30 12065 H 1084.45 -0.0997281 6.51724 0
M  V30 12066 N 1087.88 -1.11734 1.11145 0
M  V30 12067 C 1089.11 -1.86943 0.879534 0
M  V30 12068 C 1089.52 -1.80283 -0.574007 0
M  V30 12069 O 1088.86 -1.17998 -1.40791 0
M  V30 12070 C 1088.92 -3.36738 1.25887 0
M  V30 12071 C 1088.59 -3.67169 2.72095 0
M  V30 12072 C 1089.59 -3.6491 3.7032 0
M  V30 12073 C 1087.27 -3.96272 3.08665 0
M  V30 12074 C 1089.26 -3.91325 5.03134 0
M  V30 12075 C 1086.95 -4.22345 4.41665 0
M  V30 12076 C 1087.95 -4.19859 5.38709 0
M  V30 12077 O 1087.64 -4.4528 6.69314 0
M  V30 12078 H 1087.37 -0.598117 0.315011 0
M  V30 12079 H 1089.92 -1.42253 1.48166 0
M  V30 12080 H 1088.15 -3.82019 0.599873 0
M  V30 12081 H 1089.84 -3.93306 1.00325 0
M  V30 12082 H 1090.61 -3.42481 3.43412 0
M  V30 12083 H 1086.49 -3.97344 2.33749 0
M  V30 12084 H 1090.03 -3.893 5.78871 0
M  V30 12085 H 1085.93 -4.4425 4.68308 0
M  V30 12086 H 1086.7 -4.62863 6.75056 0
M  V30 12087 N 1089.36 -0.901303 -1.29284 0
M  V30 12088 C 1090.31 -0.378666 -2.27672 0
M  V30 12089 C 1091.28 0.540102 -1.57074 0
M  V30 12090 O 1092.46 0.464997 -1.85047 0
M  V30 12091 C 1089.6 0.38635 -3.42931 0
M  V30 12092 C 1088.71 -0.563496 -4.28309 0
M  V30 12093 C 1087.85 0.218731 -5.30749 0
M  V30 12094 C 1086.89 -0.725536 -6.07785 0
M  V30 12095 N 1086.03 0.0223854 -7.02096 0
M  V30 12096 H 1090.87 -1.22277 -2.71758 0
M  V30 12097 H 1088.4 -0.614302 -1.33659 0
M  V30 12098 H 1090.36 0.845967 -4.08533 0
M  V30 12099 H 1088.99 1.1949 -2.9987 0
M  V30 12100 H 1088.04 -1.14163 -3.62865 0
M  V30 12101 H 1089.35 -1.28623 -4.81931 0
M  V30 12102 H 1088.51 0.739473 -6.02177 0
M  V30 12103 H 1087.25 0.97459 -4.77863 0
M  V30 12104 H 1086.25 -1.25776 -5.3522 0
M  V30 12105 H 1087.48 -1.48075 -6.6276 0
M  V30 12106 H 1085.42 0.760482 -6.51577 0
M  V30 12107 H 1085.34 -0.640408 -7.53283 0
M  V30 12108 H 1086.61 0.523339 -7.77741 0
M  V30 12109 N 1090.84 1.42931 -0.663954 0
M  V30 12110 C 1091.8 2.29197 0.0117626 0
M  V30 12111 C 1092.8 1.42767 0.739875 0
M  V30 12112 O 1093.99 1.64278 0.579509 0
M  V30 12113 C 1091.12 3.2505 1.02738 0
M  V30 12114 H 1092.32 2.90438 -0.747391 0
M  V30 12115 H 1089.87 1.5039 -0.425733 0
M  V30 12116 H 1090.6 2.68726 1.8154 0
M  V30 12117 H 1090.39 3.88785 0.508809 0
M  V30 12118 H 1091.88 3.89771 1.49893 0
M  V30 12119 N 1092.32 0.406567 1.52266 0
M  V30 12120 C 1093.25 -0.411314 2.29849 0
M  V30 12121 C 1094.23 -1.04838 1.33952 0
M  V30 12122 O 1095.41 -1.05788 1.62857 0
M  V30 12123 C 1092.54 -1.52961 3.11802 0
M  V30 12124 C 1091.5 -1.01768 4.15725 0
M  V30 12125 C 1090.82 -2.22938 4.86007 0
M  V30 12126 C 1092.12 -0.073515 5.22248 0
M  V30 12127 H 1093.82 0.236054 2.98468 0
M  V30 12128 H 1091.36 0.114968 1.4354 0
M  V30 12129 H 1093.31 -2.10874 3.64843 0
M  V30 12130 H 1092.04 -2.20482 2.40947 0
M  V30 12131 H 1090.7 -0.46097 3.6369 0
M  V30 12132 H 1090.35 -2.89007 4.11684 0
M  V30 12133 H 1090.05 -1.89338 5.5626 0
M  V30 12134 H 1091.57 -2.81462 5.41859 0
M  V30 12135 H 1092.98 -0.561367 5.70545 0
M  V30 12136 H 1091.38 0.173551 5.99849 0
M  V30 12137 H 1092.45 0.872524 4.76985 0
M  V30 12138 N 1093.79 -1.57004 0.136909 0
M  V30 12139 C 1095.21 -1.58082 -0.21958 0
M  V30 12140 C 1095.41 -1.15065 -1.65415 0
M  V30 12141 O 1094.47 -0.846284 -2.37896 0
M  V30 12142 C 1095.78 -3.00685 0.0300112 0
M  V30 12143 C 1097.33 -3.12981 -0.0344899 0
M  V30 12144 C 1097.8 -4.57615 0.187639 0
M  V30 12145 N 1099.29 -4.63005 0.134219 0
M  V30 12146 C 1100.03 -5.72712 0.280743 0
M  V30 12147 N 1099.52 -6.91104 0.48443 0
M  V30 12148 N 1101.32 -5.61673 0.219055 0
M  V30 12149 H 1093.47 -1.83262 1.07372 0
M  V30 12150 H 1095.73 -0.847776 0.424241 0
M  V30 12151 H 1095.44 -3.36509 1.02247 0
M  V30 12152 H 1095.31 -3.70762 -0.693918 0
M  V30 12153 H 1097.7 -2.77004 -1.01749 0
M  V30 12154 H 1097.78 -2.45411 0.721608 0
M  V30 12155 H 1097.42 -4.94295 1.16769 0
M  V30 12156 H 1097.35 -5.23299 -0.588661 0
M  V30 12157 H 1099.84 -3.77895 -0.0189681 0
M  V30 12158 H 1100.16 -7.7057 0.586613 0
M  V30 12159 H 1098.5 -6.93047 0.520627 0
M  V30 12160 H 1101.69 -4.68061 0.0607606 0
M  V30 12161 H 1101.87 -6.47125 0.336683 0
M  V30 12162 N 1095.27 0.136881 -1.57004 0
M  V30 12163 C 1096.22 1.18782 -1.99984 0
M  V30 12164 C 1097.21 1.43899 -0.893841 0
M  V30 12165 O 1098.42 1.44072 -1.07904 0
M  V30 12166 H 1094.8 0.400065 -0.636751 0
M  V30 12167 H 1096.77 0.798696 -2.87512 0
M  V30 12168 C 1095.52 2.51105 -2.40502 0
M  V30 12169 H 1094.84 2.32611 -3.25165 0
M  V30 12170 H 1096.28 3.23244 -2.74389 0
M  V30 12171 C 1094.74 3.12386 -1.26161 0
M  V30 12172 O 1095.27 3.97666 -0.567836 0
M  V30 12173 N 1093.47 2.71989 -1.02326 0
M  V30 12174 H 1093.02 2.02736 -1.58921 0
M  V30 12175 H 1092.98 3.13322 -0.26013 0
M  V30 12176 N 1096.75 1.52266 0.40654 0
M  V30 12177 C 1097.7 1.72175 1.49465 0
M  V30 12178 C 1098.68 0.575668 1.50249 0
M  V30 12179 O 1099.88 0.832835 1.56182 0
M  V30 12180 C 1097.01 1.87818 2.87366 0
M  V30 12181 C 1096.09 3.08305 2.91219 0
M  V30 12182 N 1096.48 4.30967 2.64766 0
M  V30 12183 C 1094.78 3.08192 3.22388 0
M  V30 12184 C 1095.48 5.12455 2.75254 0
M  V30 12185 N 1094.46 4.47758 3.08242 0
M  V30 12186 H 1098.26 2.64653 1.27812 0
M  V30 12187 H 1095.77 1.50334 0.61428 0
M  V30 12188 H 1097.77 2.00198 3.65686 0
M  V30 12189 H 1096.43 0.965414 3.10016 0
M  V30 12190 H 1097.44 4.59397 2.39113 0
M  V30 12191 H 1094.12 2.26662 3.50615 0
M  V30 12192 H 1095.51 6.20186 2.58495 0
M  V30 12193 N 1098.23 -0.663929 1.42933 0
M  V30 12194 C 1099.16 -1.78899 1.50058 0
M  V30 12195 C 1100.14 -1.66329 0.356164 0
M  V30 12196 O 1101.32 -1.85587 0.571944 0
M  V30 12197 C 1098.45 -3.17265 1.41281 0
M  V30 12198 C 1097.41 -3.44584 2.53861 0
M  V30 12199 C 1096.73 -4.82638 2.3014 0
M  V30 12200 C 1098.03 -3.40394 3.96143 0
M  V30 12201 H 1099.73 -1.73194 2.44222 0
M  V30 12202 H 1097.27 -0.83182 1.17545 0
M  V30 12203 H 1099.23 -3.95715 1.44872 0
M  V30 12204 H 1097.95 -3.23675 0.43616 0
M  V30 12205 H 1096.61 -2.685 2.49606 0
M  V30 12206 H 1096.26 -4.85711 1.30743 0
M  V30 12207 H 1095.96 -5.01879 3.056 0
M  V30 12208 H 1097.48 -5.63359 2.35497 0
M  V30 12209 H 1098.9 -4.08796 4.01943 0
M  V30 12210 H 1097.29 -3.7117 4.71543 0
M  V30 12211 H 1098.36 -2.38767 4.22041 0
M  V30 12212 N 1099.71 -1.29285 -0.901281 0
M  V30 12213 C 1100.64 -1.16832 -2.0217 0
M  V30 12214 C 1101.62 -0.0629265 -1.69984 0
M  V30 12215 O 1102.8 -0.242123 -1.92685 0
M  V30 12216 C 1099.93 -0.842406 -3.36929 0
M  V30 12217 C 1098.89 -1.90394 -3.8332 0
M  V30 12218 C 1098.21 -1.43138 -5.15185 0
M  V30 12219 C 1099.51 -3.31254 -4.03817 0
M  V30 12220 H 1101.21 -2.10562 -2.12847 0
M  V30 12221 H 1098.75 -1.01375 -1.0227 0
M  V30 12222 H 1100.71 -0.741999 -4.14816 0
M  V30 12223 H 1099.43 0.130598 -3.26339 0
M  V30 12224 H 1098.09 -1.99371 -3.07647 0
M  V30 12225 H 1097.74 -0.447091 -5.01009 0
M  V30 12226 H 1097.44 -2.14129 -5.47195 0
M  V30 12227 H 1098.96 -1.34444 -5.95615 0
M  V30 12228 H 1100.37 -3.25129 -4.72191 0
M  V30 12229 H 1098.77 -4.00189 -4.47178 0
M  V30 12230 H 1099.84 -3.74349 -3.08206 0
M  V30 12231 N 1101.18 1.11143 -1.11736 0
M  V30 12232 C 1102.09 2.20851 -0.791331 0
M  V30 12233 C 1103.11 1.72644 0.216833 0
M  V30 12234 O 1104.29 2.01332 0.0522401 0
M  V30 12235 C 1101.35 3.4585 -0.242694 0
M  V30 12236 C 1100.41 4.08829 -1.30986 0
M  V30 12237 C 1099.65 5.27861 -0.787305 0
M  V30 12238 O 1099.87 5.69122 0.381549 0
M  V30 12239 O 1098.8 5.81506 -1.55352 0
M  V30 12240 H 1102.63 2.51158 -1.70744 0
M  V30 12241 H 1100.21 1.19739 -0.893478 0
M  V30 12242 H 1102.1 4.21359 0.0587472 0
M  V30 12243 H 1100.77 3.17187 0.646079 0
M  V30 12244 H 1099.68 3.35037 -1.66436 0
M  V30 12245 H 1101.01 4.41678 -2.17213 0
M  V30 12246 N 1102.66 0.908147 1.28804 0
M  V30 12247 C 1103.89 0.55409 1.99343 0
M  V30 12248 C 1104.31 -0.863262 1.67908 0
M  V30 12249 O 1103.66 -1.571 0.92875 0
M  V30 12250 C 1103.71 0.746916 3.537 0
M  V30 12251 O 1103.43 2.10849 3.84024 0
M  V30 12252 C 1104.94 0.398939 4.41501 0
M  V30 12253 H 1102.16 0.211784 0.636701 0
M  V30 12254 H 1104.7 1.21981 1.64137 0
M  V30 12255 H 1102.85 0.128264 3.87188 0
M  V30 12256 H 1103.27 2.14404 4.78676 0
M  V30 12257 H 1104.74 0.584656 5.48895 0
M  V30 12258 H 1105.22 -0.664517 4.34144 0
M  V30 12259 H 1105.83 0.994892 4.135 0
M  V30 12260 N 1104.14 -1.42577 0.671525 0
M  V30 12261 C 1105.37 -2.05924 0.200731 0
M  V30 12262 C 1105.78 -1.50434 -1.14083 0
M  V30 12263 O 1105.14 -0.642845 -1.70803 0
M  V30 12264 C 1105.19 -3.61289 0.123505 0
M  V30 12265 O 1104.91 -4.1472 1.41205 0
M  V30 12266 C 1106.41 -4.41743 -0.371178 0
M  V30 12267 H 1103.63 -0.663746 0.0983958 0
M  V30 12268 H 1106.18 -1.82771 0.917338 0
M  V30 12269 H 1104.33 -3.83565 -0.543769 0
M  V30 12270 H 1104.75 -5.0856 1.28325 0
M  V30 12271 H 1106.22 -5.50731 -0.374128 0
M  V30 12272 H 1106.7 -4.16092 -1.40585 0
M  V30 12273 H 1107.3 -4.24478 0.264244 0
M  V30 12274 N 1105.62 -0.414636 -1.52048 0
M  V30 12275 C 1107.03 0.0537107 -1.86623 0
M  V30 12276 C 1107.38 1.43955 -1.3331 0
M  V30 12277 O 1106.51 2.05616 -0.674606 0
M  V30 12278 C 1107.1 0.104241 -3.3864 0
M  V30 12279 C 1105.66 0.516936 -3.72833 0
M  V30 12280 C 1104.81 -0.305042 -2.75617 0
M  V30 12281 H 1107.76 -0.631469 -1.45596 0
M  V30 12282 H 1107.78 0.918395 -3.6925 0
M  V30 12283 H 1107.29 -0.904523 -3.77412 0
M  V30 12284 H 1105.39 1.53214 -3.39641 0
M  V30 12285 H 1105.5 0.2575 -4.78408 0
M  V30 12286 H 1103.87 0.233416 -2.53628 0
M  V30 12287 H 1104.65 -1.31226 -3.1723 0
M  V30 12288 N 1107.1 1.56929 -0.145233 0
M  V30 12289 C 1108.04 2.16671 0.795128 0
M  V30 12290 C 1109.01 1.09908 1.24537 0
M  V30 12291 O 1110.2 1.37941 1.31821 0
M  V30 12292 C 1107.34 2.79111 2.02956 0
M  V30 12293 C 1106.45 4.00261 1.62528 0
M  V30 12294 C 1105.59 4.50705 2.81137 0
M  V30 12295 C 1104.63 5.64324 2.37075 0
M  V30 12296 N 1103.76 6.09395 3.48687 0
M  V30 12297 H 1108.6 2.96692 0.278865 0
M  V30 12298 H 1106.14 1.4656 0.125934 0
M  V30 12299 H 1108.1 3.13456 2.7532 0
M  V30 12300 H 1106.73 2.01737 2.51996 0
M  V30 12301 H 1105.78 3.71906 0.799365 0
M  V30 12302 H 1107.09 4.8258 1.26166 0
M  V30 12303 H 1106.25 4.87096 3.61693 0
M  V30 12304 H 1104.98 3.67389 3.20744 0
M  V30 12305 H 1103.99 5.27511 1.54958 0
M  V30 12306 H 1105.21 6.49425 1.98556 0
M  V30 12307 H 1103.16 5.29014 3.87917 0
M  V30 12308 H 1103.08 6.86636 3.16333 0
M  V30 12309 H 1104.35 6.50431 4.29605 0
M  V30 12310 N 1108.58 -0.128553 1.57075 0
M  V30 12311 C 1109.8 -0.8564 1.88893 0
M  V30 12312 C 1110.23 -1.73095 0.736196 0
M  V30 12313 O 1109.58 -1.78567 -0.313629 0
M  V30 12314 C 1109.63 -1.67368 3.19406 0
M  V30 12315 O 1108.74 -2.77973 3.04639 0
M  V30 12316 H 1108.08 -0.237424 0.620102 0
M  V30 12317 H 1110.61 -0.113821 2.04283 0
M  V30 12318 H 1110.62 -2.0649 3.51889 0
M  V30 12319 H 1109.29 -1.03161 4.02903 0
M  V30 12320 H 1107.87 -2.42123 2.83603 0
M  V30 12321 N 1110.05 -1.5248 -0.398459 0
M  V30 12322 C 1110.96 -1.79492 -1.51062 0
M  V30 12323 C 1111.98 -0.681101 -1.60116 0
M  V30 12324 O 1113.16 -0.967671 -1.7663 0
M  V30 12325 C 1110.22 -1.94958 -2.86692 0
M  V30 12326 C 1109.28 -3.1887 -2.87438 0
M  V30 12327 C 1108.51 -3.33588 -4.16599 0
M  V30 12328 O 1108.74 -2.53327 -5.11059 0
M  V30 12329 O 1107.67 -4.26795 -4.24416 0
M  V30 12330 H 1111.5 -2.73913 -1.31169 0
M  V30 12331 H 1109.08 -1.37455 -0.585372 0
M  V30 12332 H 1110.96 -2.06891 -3.67116 0
M  V30 12333 H 1109.64 -1.03726 -3.06631 0
M  V30 12334 H 1108.55 -3.12386 -2.0583 0
M  V30 12335 H 1109.88 -4.09917 -2.7245 0
M  V30 12336 N 1111.53 0.65634 -1.43283 0
M  V30 12337 C 1112.48 1.76243 -1.44646 0
M  V30 12338 C 1113.47 1.5778 -0.31532 0
M  V30 12339 O 1114.66 1.67945 -0.558881 0
M  V30 12340 C 1111.79 3.14813 -1.36921 0
M  V30 12341 C 1110.87 3.38835 -2.55053 0
M  V30 12342 N 1111.26 3.33345 -3.80414 0
M  V30 12343 C 1109.56 3.69542 -2.4971 0
M  V30 12344 C 1110.26 3.57361 -4.58986 0
M  V30 12345 N 1109.24 3.79022 -3.8967 0
M  V30 12346 H 1113.04 1.70419 -2.39447 0
M  V30 12347 H 1110.55 0.85789 -1.37891 0
M  V30 12348 H 1112.55 3.941 -1.3598 0
M  V30 12349 H 1111.21 3.21822 -0.431381 0
M  V30 12350 H 1112.22 3.12827 -4.12747 0
M  V30 12351 H 1108.9 3.83684 -1.64598 0
M  V30 12352 H 1110.29 3.58921 -5.68001 0
M  V30 12353 N 1113.01 1.29761 0.894412 0
M  V30 12354 C 1113.96 1.15341 1.99912 0
M  V30 12355 C 1114.93 0.0453488 1.66038 0
M  V30 12356 O 1116.11 0.213829 1.89598 0
M  V30 12357 C 1113.25 0.841432 3.34685 0
M  V30 12358 C 1112.36 2.03046 3.81309 0
M  V30 12359 C 1111.5 1.65739 5.04682 0
M  V30 12360 C 1110.54 2.81191 5.43689 0
M  V30 12361 N 1109.68 2.44244 6.58247 0
M  V30 12362 H 1114.52 2.09854 2.11578 0
M  V30 12363 H 1112.05 1.04421 1.03608 0
M  V30 12364 H 1114.01 0.641211 4.12243 0
M  V30 12365 H 1112.64 -0.066797 3.22731 0
M  V30 12366 H 1111.69 2.34222 2.9974 0
M  V30 12367 H 1113 2.89538 4.06164 0
M  V30 12368 H 1112.16 1.42036 5.8984 0
M  V30 12369 H 1110.9 0.764019 4.81678 0
M  V30 12370 H 1109.9 3.0557 4.57064 0
M  V30 12371 H 1111.13 3.712 5.68672 0
M  V30 12372 H 1109.07 1.57402 6.36837 0
M  V30 12373 H 1108.99 3.24269 6.82924 0
M  V30 12374 H 1110.26 2.23875 7.46659 0
M  V30 12375 N 1114.49 -1.10549 1.12324 0
M  V30 12376 C 1115.45 -2.15039 0.793156 0
M  V30 12377 C 1116.45 -1.59651 -0.19192 0
M  V30 12378 O 1117.64 -1.74167 0.0337262 0
M  V30 12379 C 1114.77 -3.40433 0.17842 0
M  V30 12380 H 1115.97 -2.4575 1.71892 0
M  V30 12381 H 1113.52 -1.25892 0.926333 0
M  V30 12382 H 1114.25 -3.15338 -0.757122 0
M  V30 12383 H 1114.04 -3.81921 0.887645 0
M  V30 12384 H 1115.53 -4.17584 -0.0360724 0
M  V30 12385 N 1115.97 -0.914965 -1.28321 0
M  V30 12386 C 1117.21 -0.549562 -1.95212 0
M  V30 12387 C 1117.54 0.904658 -1.71842 0
M  V30 12388 O 1116.82 1.64354 -1.04009 0
M  V30 12389 C 1117.1 -0.860927 -3.49657 0
M  V30 12390 C 1116.96 -2.36797 -3.82423 0
M  V30 12391 C 1118.27 -0.357926 -4.38642 0
M  V30 12392 H 1115.39 -0.201136 -0.709023 0
M  V30 12393 H 1118.04 -1.14443 -1.51667 0
M  V30 12394 H 1116.19 -0.354665 -3.86878 0
M  V30 12395 H 1117.86 -2.94494 -3.55065 0
M  V30 12396 H 1116.1 -2.82245 -3.29424 0
M  V30 12397 H 1116.77 -2.53637 -4.90278 0
M  V30 12398 H 1119.25 -0.791636 -4.085 0
M  V30 12399 H 1118.12 -0.604855 -5.45557 0
M  V30 12400 H 1118.38 0.741775 -4.35833 0
M  V30 12401 N 1117.44 1.42219 -0.679077 0
M  V30 12402 C 1118.37 2.33493 -0.0174528 0
M  V30 12403 C 1119.35 1.50915 0.78477 0
M  V30 12404 O 1120.54 1.79504 0.741065 0
M  V30 12405 C 1117.67 3.34576 0.931463 0
M  V30 12406 C 1116.62 4.2734 0.237527 0
M  V30 12407 C 1115.95 5.18664 1.29967 0
M  V30 12408 C 1117.25 5.14729 -0.886082 0
M  V30 12409 H 1118.94 2.89068 -0.779748 0
M  V30 12410 H 1116.49 1.38993 -0.376419 0
M  V30 12411 H 1118.44 3.97343 1.40343 0
M  V30 12412 H 1117.17 2.77315 1.72523 0
M  V30 12413 H 1115.83 3.65973 -0.214245 0
M  V30 12414 H 1115.47 4.57727 2.08554 0
M  V30 12415 H 1115.17 5.81558 0.840463 0
M  V30 12416 H 1116.7 5.84308 1.77249 0
M  V30 12417 H 1118.11 5.71158 -0.495141 0
M  V30 12418 H 1116.51 5.86478 -1.27135 0
M  V30 12419 H 1117.58 4.52874 -1.733 0
M  V30 12420 N 1118.92 0.422693 1.51826 0
M  V30 12421 C 1119.87 -0.396088 2.27376 0
M  V30 12422 C 1120.84 -1.02946 1.30351 0
M  V30 12423 O 1122.02 -1.05116 1.59233 0
M  V30 12424 C 1119.16 -1.49942 3.10824 0
M  V30 12425 C 1118.28 -0.885623 4.22825 0
M  V30 12426 C 1117.41 -1.96278 4.93608 0
M  V30 12427 C 1116.45 -1.32664 5.97551 0
M  V30 12428 N 1115.59 -2.34452 6.61798 0
M  V30 12429 H 1120.43 0.254571 2.96911 0
M  V30 12430 H 1117.96 0.137383 1.46457 0
M  V30 12431 H 1119.92 -2.15023 3.57521 0
M  V30 12432 H 1118.55 -2.11991 2.43433 0
M  V30 12433 H 1117.6 -0.123491 3.80199 0
M  V30 12434 H 1118.92 -0.381057 4.97342 0
M  V30 12435 H 1118.07 -2.69055 5.43778 0
M  V30 12436 H 1116.81 -2.50103 4.18688 0
M  V30 12437 H 1115.81 -0.584262 5.46687 0
M  V30 12438 H 1117.04 -0.7959 6.7442 0
M  V30 12439 H 1114.99 -2.87385 5.897 0
M  V30 12440 H 1114.9 -1.88845 7.32034 0
M  V30 12441 H 1116.17 -3.06757 7.16603 0
M  V30 12442 N 1120.4 -1.5685 0.153553 0
M  V30 12443 C 1121.82 -1.58306 -0.202801 0
M  V30 12444 C 1122.02 -1.16813 -1.64186 0
M  V30 12445 O 1121.07 -0.871468 -2.36985 0
M  V30 12446 C 1122.38 -3.00636 0.0619012 0
M  V30 12447 C 1123.93 -3.13 -0.00129219 0
M  V30 12448 C 1124.41 -4.57391 0.236164 0
M  V30 12449 N 1125.9 -4.62837 0.18332 0
M  V30 12450 C 1126.63 -5.72382 0.341471 0
M  V30 12451 N 1126.13 -6.90552 0.557704 0
M  V30 12452 N 1127.92 -5.61409 0.278615 0
M  V30 12453 H 1120.07 -1.82113 1.09309 0
M  V30 12454 H 1122.34 -0.843228 0.433209 0
M  V30 12455 H 1122.04 -3.35406 1.0581 0
M  V30 12456 H 1121.92 -3.71477 -0.654555 0
M  V30 12457 H 1124.3 -2.78068 -0.98805 0
M  V30 12458 H 1124.38 -2.44632 0.747596 0
M  V30 12459 H 1124.03 -4.93029 1.22005 0
M  V30 12460 H 1123.96 -5.23894 -0.533125 0
M  V30 12461 H 1126.45 -3.77894 0.0211138 0
M  V30 12462 H 1126.76 -7.69905 0.66831 0
M  V30 12463 H 1125.11 -6.92456 0.594105 0
M  V30 12464 H 1128.3 -4.6797 0.110401 0
M  V30 12465 H 1128.47 -6.46731 0.4053 0
M  V30 12466 N 1121.88 0.120221 -1.57141 0
M  V30 12467 C 1122.81 1.14876 -2.03287 0
M  V30 12468 C 1123.79 1.43259 -0.917112 0
M  V30 12469 O 1124.97 1.53721 -1.18674 0
M  V30 12470 C 1122.1 2.47525 -2.43616 0
M  V30 12471 C 1121.06 2.33607 -3.58625 0
M  V30 12472 C 1120.38 3.71207 -3.84849 0
M  V30 12473 C 1121.68 1.79761 -4.90391 0
M  V30 12474 H 1123.38 0.764943 -2.89463 0
M  V30 12475 H 1120.92 0.366516 -1.39258 0
M  V30 12476 H 1122.88 3.19728 -2.74504 0
M  V30 12477 H 1121.6 2.87794 -1.54409 0
M  V30 12478 H 1120.26 1.63853 -3.27945 0
M  V30 12479 H 1119.91 4.0896 -2.9285 0
M  V30 12480 H 1119.61 3.62749 -4.62263 0
M  V30 12481 H 1121.13 4.44917 -4.18188 0
M  V30 12482 H 1122.55 2.4178 -5.19822 0
M  V30 12483 H 1120.94 1.82126 -5.71795 0
M  V30 12484 H 1122.01 0.755087 -4.78985 0
M  V30 12485 N 1123.36 1.52689 0.390367 0
M  V30 12486 C 1124.3 1.7737 1.47677 0
M  V30 12487 C 1125.27 0.616864 1.54221 0
M  V30 12488 O 1126.46 0.856437 1.70499 0
M  V30 12489 C 1123.6 1.94715 2.84921 0
M  V30 12490 C 1122.71 3.22405 2.8754 0
M  V30 12491 C 1121.85 3.30074 4.16202 0
M  V30 12492 C 1120.89 4.51893 4.12867 0
M  V30 12493 N 1120.02 4.56851 5.33134 0
M  V30 12494 H 1124.86 2.70084 1.25932 0
M  V30 12495 H 1122.4 1.33813 0.610943 0
M  V30 12496 H 1124.36 2.02755 3.64618 0
M  V30 12497 H 1122.99 1.05363 3.0512 0
M  V30 12498 H 1122.04 3.23442 2.00223 0
M  V30 12499 H 1123.35 4.12156 2.80943 0
M  V30 12500 H 1122.51 3.3729 5.04302 0
M  V30 12501 H 1121.24 2.38295 4.25519 0
M  V30 12502 H 1120.25 4.44803 3.23156 0
M  V30 12503 H 1121.47 5.44987 4.05174 0
M  V30 12504 H 1119.42 3.67963 5.43083 0
M  V30 12505 H 1119.34 5.40472 5.28607 0
M  V30 12506 H 1120.61 4.6832 6.23134 0
M  V30 12507 N 1124.83 -0.648732 1.43629 0
M  V30 12508 C 1125.74 -1.79046 1.51591 0
M  V30 12509 C 1126.76 -1.69276 0.402697 0
M  V30 12510 O 1127.94 -1.90366 0.657484 0
M  V30 12511 C 1125 -3.15347 1.44073 0
M  V30 12512 C 1124.06 -3.3688 2.66102 0
M  V30 12513 C 1123.3 -4.66679 2.58933 0
M  V30 12514 O 1123.52 -5.46328 1.63956 0
M  V30 12515 O 1122.45 -4.9003 3.49506 0
M  V30 12516 H 1126.28 -1.75283 2.48011 0
M  V30 12517 H 1123.86 -0.807774 1.2568 0
M  V30 12518 H 1125.75 -3.96633 1.42339 0
M  V30 12519 H 1124.42 -3.19691 0.50789 0
M  V30 12520 H 1123.33 -2.55341 2.73407 0
M  V30 12521 H 1124.66 -3.37386 3.58373 0
M  V30 12522 N 1126.31 -1.30234 -0.887518 0
M  V30 12523 C 1127.22 -1.18316 -2.02579 0
M  V30 12524 C 1128.24 -0.103658 -1.73691 0
M  V30 12525 O 1129.41 -0.3181 -1.98872 0
M  V30 12526 C 1126.48 -0.873222 -3.35523 0
M  V30 12527 C 1125.54 -2.03783 -3.7785 0
M  V30 12528 C 1124.77 -1.74258 -5.0445 0
M  V30 12529 O 1125 -0.669295 -5.6646 0
M  V30 12530 O 1123.93 -2.59423 -5.43124 0
M  V30 12531 H 1127.76 -2.13933 -2.15561 0
M  V30 12532 H 1125.34 -1.09803 -1.0131 0
M  V30 12533 H 1127.22 -0.715463 -4.15282 0
M  V30 12534 H 1125.9 0.053056 -3.23657 0
M  V30 12535 H 1124.81 -2.2509 -2.98806 0
M  V30 12536 H 1126.14 -2.94574 -3.94318 0
M  V30 12537 N 1127.79 1.09952 -1.12909 0
M  V30 12538 C 1128.72 2.16257 -0.759305 0
M  V30 12539 C 1129.74 1.61355 0.216427 0
M  V30 12540 O 1130.92 1.785 -0.00297224 0
M  V30 12541 C 1128.02 3.38741 -0.103908 0
M  V30 12542 C 1127.2 4.23072 -1.11037 0
M  V30 12543 C 1126.26 5.23991 -0.481667 0
M  V30 12544 O 1125.28 5.57665 -1.14011 0
M  V30 12545 N 1126.48 5.75652 0.748698 0
M  V30 12546 H 1129.25 2.48588 -1.67405 0
M  V30 12547 H 1126.81 1.25617 -1.02137 0
M  V30 12548 H 1128.8 4.03362 0.328799 0
M  V30 12549 H 1127.37 3.04344 0.713677 0
M  V30 12550 H 1126.59 3.5467 -1.72054 0
M  V30 12551 H 1127.88 4.76244 -1.79078 0
M  V30 12552 H 1127.28 5.505 1.30253 0
M  V30 12553 H 1125.84 6.42033 1.12415 0
M  V30 12554 N 1129.27 0.921757 1.27833 0
M  V30 12555 C 1130.5 0.575202 1.98744 0
M  V30 12556 C 1130.91 -0.845405 1.68815 0
M  V30 12557 O 1130.27 -1.56106 0.94536 0
M  V30 12558 C 1130.32 0.784389 3.52888 0
M  V30 12559 O 1130.04 2.1491 3.81766 0
M  V30 12560 C 1131.54 0.445744 4.41053 0
M  V30 12561 H 1128.76 0.218525 0.634419 0
M  V30 12562 H 1131.31 1.23715 1.62834 0
M  V30 12563 H 1129.46 0.169323 3.8703 0
M  V30 12564 H 1129.87 2.19469 4.76375 0
M  V30 12565 H 1131.35 0.64284 5.48244 0
M  V30 12566 H 1131.83 -0.618433 4.34824 0
M  V30 12567 H 1132.43 1.03869 4.12421 0
M  V30 12568 N 1130.75 -1.41857 0.686609 0
M  V30 12569 C 1132.16 -1.55549 0.357288 0
M  V30 12570 C 1132.36 -1.66394 -1.13646 0
M  V30 12571 O 1131.42 -1.63739 -1.92213 0
M  V30 12572 C 1132.73 -2.79938 1.09796 0
M  V30 12573 C 1134.28 -2.93724 1.08143 0
M  V30 12574 C 1134.75 -4.20989 1.80367 0
M  V30 12575 N 1136.25 -4.27927 1.77293 0
M  V30 12576 C 1136.98 -5.2524 2.30022 0
M  V30 12577 N 1136.48 -6.28636 2.91185 0
M  V30 12578 N 1138.27 -5.17118 2.20329 0
M  V30 12579 H 1130.42 -1.33063 1.65554 0
M  V30 12580 H 1132.68 -0.641335 0.698135 0
M  V30 12581 H 1132.39 -2.78104 2.15293 0
M  V30 12582 H 1132.26 -3.71188 0.670763 0
M  V30 12583 H 1134.65 -2.9508 0.0347554 0
M  V30 12584 H 1134.73 -2.03673 1.54761 0
M  V30 12585 H 1134.38 -4.20395 2.85009 0
M  V30 12586 H 1134.31 -5.09997 1.3119 0
M  V30 12587 H 1136.8 -3.53838 1.32692 0
M  V30 12588 H 1137.11 -6.99265 3.29011 0
M  V30 12589 H 1135.45 -6.29164 2.95259 0
M  V30 12590 H 1138.65 -4.35265 1.72226 0
M  V30 12591 H 1138.82 -5.92792 2.61728 0
M  V30 12592 N 1132.22 -0.430739 -1.51599 0
M  V30 12593 C 1133.17 0.384024 -2.27583 0
M  V30 12594 C 1134.14 1.02254 -1.30895 0
M  V30 12595 O 1135.33 1.0427 -1.59789 0
M  V30 12596 C 1132.47 1.48291 -3.11615 0
M  V30 12597 C 1131.58 0.863187 -4.23288 0
M  V30 12598 C 1130.71 1.93657 -4.94642 0
M  V30 12599 C 1129.75 1.29493 -5.98246 0
M  V30 12600 N 1128.89 2.30939 -6.63032 0
M  V30 12601 H 1133.73 -0.270314 -2.96771 0
M  V30 12602 H 1131.27 -0.145148 -1.46382 0
M  V30 12603 H 1133.23 2.13124 -3.58656 0
M  V30 12604 H 1131.86 2.10697 -2.44554 0
M  V30 12605 H 1130.91 0.103326 -3.8026 0
M  V30 12606 H 1132.22 0.354676 -4.97537 0
M  V30 12607 H 1131.37 2.66167 -5.45197 0
M  V30 12608 H 1130.11 2.4788 -4.20008 0
M  V30 12609 H 1129.12 0.555262 -5.46989 0
M  V30 12610 H 1130.34 0.760122 -6.74833 0
M  V30 12611 H 1128.29 2.84254 -5.91216 0
M  V30 12612 H 1128.21 1.84961 -7.33025 0
M  V30 12613 H 1129.47 3.02953 -7.1822 0
M  V30 12614 N 1133.7 1.56767 -0.161869 0
M  V30 12615 C 1134.63 2.20511 0.767918 0
M  V30 12616 C 1135.61 1.15783 1.24612 0
M  V30 12617 O 1136.8 1.44179 1.301 0
M  V30 12618 C 1133.93 2.83844 2.00125 0
M  V30 12619 C 1132.88 3.94528 1.65926 0
M  V30 12620 C 1132.21 4.44866 2.96646 0
M  V30 12621 C 1133.51 5.14583 0.894497 0
M  V30 12622 H 1135.2 2.98464 0.236607 0
M  V30 12623 H 1132.75 1.43561 0.112363 0
M  V30 12624 H 1134.7 3.27109 2.65664 0
M  V30 12625 H 1133.43 2.03246 2.55654 0
M  V30 12626 H 1132.08 3.51904 1.02759 0
M  V30 12627 H 1131.73 3.61071 3.50196 0
M  V30 12628 H 1131.43 5.19531 2.74521 0
M  V30 12629 H 1132.96 4.90812 3.6323 0
M  V30 12630 H 1134.37 5.54601 1.45228 0
M  V30 12631 H 1132.77 5.95105 0.772636 0
M  V30 12632 H 1133.84 4.84773 -0.110986 0
M  V30 12633 N 1135.18 -0.111886 1.57202 0
M  V30 12634 C 1136.14 -1.12101 1.99915 0
M  V30 12635 C 1137.14 -1.33906 0.890272 0
M  V30 12636 O 1138.33 -1.30303 1.15615 0
M  V30 12637 C 1135.47 -2.47392 2.34543 0
M  V30 12638 H 1136.66 -0.753736 2.90274 0
M  V30 12639 H 1134.21 -0.35641 1.52182 0
M  V30 12640 H 1134.95 -2.89026 1.47086 0
M  V30 12641 H 1134.73 -2.32917 3.15423 0
M  V30 12642 H 1136.22 -3.20004 2.68304 0
M  V30 12643 N 1136.66 -1.52894 -0.382264 0
M  V30 12644 C 1137.91 -1.67489 -1.12385 0
M  V30 12645 C 1138.22 -0.424565 -1.90937 0
M  V30 12646 O 1139.43 -0.450763 -2.67732 0
M  V30 12647 C 1137.88 -2.96019 -2.04697 0
M  V30 12648 C 1137.49 -4.28255 -1.31535 0
M  V30 12649 C 1139.23 -3.19981 -2.78949 0
M  V30 12650 C 1137.14 -5.47887 -2.22652 0
M  V30 12651 H 1136.07 -0.624002 -0.423246 0
M  V30 12652 H 1138.72 -1.79392 -0.386107 0
M  V30 12653 H 1137.1 -2.77878 -2.82134 0
M  V30 12654 H 1138.28 -4.56971 -0.592771 0
M  V30 12655 H 1136.59 -4.10607 -0.692148 0
M  V30 12656 H 1139.19 -4.06541 -3.47316 0
M  V30 12657 H 1139.53 -2.35335 -3.43399 0
M  V30 12658 H 1140.07 -3.38718 -2.08602 0
M  V30 12659 H 1136.81 -6.3496 -1.62806 0
M  V30 12660 H 1136.33 -5.23473 -2.92807 0
M  V30 12661 H 1138 -5.82026 -2.82586 0
M  V30 12662 N 1138.14 0.641106 -1.43971 0
M  V30 12663 C 1139.07 1.76489 -1.52885 0
M  V30 12664 C 1140.05 1.65742 -0.38258 0
M  V30 12665 O 1141.23 1.84653 -0.601397 0
M  V30 12666 C 1138.36 3.14977 -1.4631 0
M  V30 12667 C 1137.32 3.40502 -2.59311 0
M  V30 12668 C 1136.64 4.78916 -2.37789 0
M  V30 12669 C 1137.94 3.34048 -4.01509 0
M  V30 12670 H 1139.64 1.69286 -2.46946 0
M  V30 12671 H 1137.18 0.813015 -1.18853 0
M  V30 12672 H 1139.14 3.9336 -1.51149 0
M  V30 12673 H 1137.86 3.2294 -0.487599 0
M  V30 12674 H 1136.52 2.64495 -2.53846 0
M  V30 12675 H 1136.17 4.8357 -1.38454 0
M  V30 12676 H 1135.87 4.96954 -3.13545 0
M  V30 12677 H 1137.39 5.59541 -2.4443 0
M  V30 12678 H 1138.81 4.0235 -4.08396 0
M  V30 12679 H 1137.2 3.63622 -4.77388 0
M  V30 12680 H 1138.27 2.32022 -4.25786 0
M  V30 12681 N 1139.62 1.30703 0.880598 0
M  V30 12682 C 1140.58 1.17429 1.96832 0
M  V30 12683 C 1141.58 0.104305 1.60461 0
M  V30 12684 O 1142.77 0.352758 1.70591 0
M  V30 12685 C 1139.9 0.800099 3.31378 0
M  V30 12686 H 1141.09 2.14069 2.10034 0
M  V30 12687 H 1138.65 1.14162 1.06755 0
M  V30 12688 H 1139.38 -0.165606 3.23877 0
M  V30 12689 H 1139.17 1.57341 3.59146 0
M  V30 12690 H 1140.66 0.730826 4.11155 0
M  V30 12691 N 1141.09 -1.09351 1.1349 0
M  V30 12692 C 1142 -2.19564 0.826366 0
M  V30 12693 C 1143.02 -1.72967 -0.189339 0
M  V30 12694 O 1144.2 -2.0139 -0.0202033 0
M  V30 12695 C 1141.26 -3.4542 0.297685 0
M  V30 12696 C 1140.32 -4.06694 1.37473 0
M  V30 12697 C 1139.55 -5.26542 0.871183 0
M  V30 12698 O 1139.78 -5.69657 -0.290958 0
M  V30 12699 O 1138.71 -5.78961 1.64584 0
M  V30 12700 H 1142.54 -2.4841 1.74718 0
M  V30 12701 H 1140.12 -1.18302 0.912414 0
M  V30 12702 H 1142 -4.21399 0.00829479 0
M  V30 12703 H 1140.68 -3.18175 -0.595536 0
M  V30 12704 H 1139.59 -3.32347 1.71745 0
M  V30 12705 H 1140.92 -4.38166 2.24212 0
M  V30 12706 N 1142.57 -0.928524 -1.27343 0
M  V30 12707 C 1143.5 -0.385563 -2.25934 0
M  V30 12708 C 1144.52 0.484178 -1.55433 0
M  V30 12709 O 1145.71 0.296668 -1.76017 0
M  V30 12710 C 1142.81 0.466116 -3.35679 0
M  V30 12711 C 1141.98 -0.384523 -4.35707 0
M  V30 12712 C 1141.04 0.404644 -5.24642 0
M  V30 12713 O 1140.06 -0.187943 -5.6889 0
M  V30 12714 N 1141.27 1.70426 -5.54919 0
M  V30 12715 H 1144.03 -1.23306 -2.73159 0
M  V30 12716 H 1141.59 -0.796039 -1.40978 0
M  V30 12717 H 1143.58 1.00115 -3.92121 0
M  V30 12718 H 1142.15 1.21437 -2.88048 0
M  V30 12719 H 1141.37 -1.10085 -3.78517 0
M  V30 12720 H 1142.66 -0.966033 -4.99545 0
M  V30 12721 H 1142.06 2.20802 -5.20829 0
M  V30 12722 H 1140.62 2.1858 -6.14057 0
M  V30 12723 N 1144.05 1.41491 -0.694123 0
M  V30 12724 C 1145.28 2.0528 -0.233128 0
M  V30 12725 C 1145.69 1.52329 1.12217 0
M  V30 12726 O 1145.03 0.66579 1.7121 0
M  V30 12727 C 1145.09 3.59326 -0.111718 0
M  V30 12728 C 1144.76 4.35065 -1.39882 0
M  V30 12729 C 1145.75 4.64446 -2.33637 0
M  V30 12730 C 1143.44 4.74364 -1.65179 0
M  V30 12731 C 1145.43 5.32083 -3.50951 0
M  V30 12732 C 1143.12 5.41737 -2.82779 0
M  V30 12733 C 1144.12 5.70524 -3.75488 0
M  V30 12734 O 1143.81 6.36511 -4.91029 0
M  V30 12735 H 1143.54 0.667571 -0.106418 0
M  V30 12736 H 1146.09 1.82276 -0.94682 0
M  V30 12737 H 1144.32 3.81065 0.65773 0
M  V30 12738 H 1146.01 4.047 0.311906 0
M  V30 12739 H 1146.78 4.34568 -2.1535 0
M  V30 12740 H 1142.66 4.5134 -0.93881 0
M  V30 12741 H 1146.2 5.54468 -4.23333 0
M  V30 12742 H 1142.1 5.71033 -3.00984 0
M  V30 12743 H 1142.86 6.55006 -4.90825 0
M  V30 12744 N 1145.53 0.438773 1.51369 0
M  V30 12745 C 1146.8 -0.18722 1.94702 0
M  V30 12746 C 1147.18 -1.59962 1.37752 0
M  V30 12747 O 1146.53 -2.214 0.565171 0
M  V30 12748 C 1146.74 -0.163491 3.48617 0
M  V30 12749 C 1148.09 -0.368355 4.22999 0
M  V30 12750 O 1149.11 -0.241541 3.5538 0
M  V30 12751 O 1147.97 -0.620916 5.42961 0
M  V30 12752 H 1145.07 -0.129194 0.816846 0
M  V30 12753 H 1147.61 0.496855 1.62263 0
M  V30 12754 H 1146.39 0.823882 3.82528 0
M  V30 12755 H 1146.01 -0.890414 3.87501 0
M  V30 12756 N 1147.01 -1.56678 0.170181 0
M  V30 12757 C 1147.96 -2.14503 -0.772818 0
M  V30 12758 C 1148.94 -1.07896 -1.19362 0
M  V30 12759 O 1150.13 -1.34021 -1.15617 0
M  V30 12760 C 1147.26 -2.78844 -2.00253 0
M  V30 12761 C 1146.35 -3.92607 -1.60377 0
M  V30 12762 N 1146.74 -4.97464 -0.914519 0
M  V30 12763 C 1145.04 -4.03746 -1.89487 0
M  V30 12764 C 1145.74 -5.77248 -0.718343 0
M  V30 12765 N 1144.71 -5.2881 -1.25942 0
M  V30 12766 H 1148.51 -2.92941 -0.237231 0
M  V30 12767 H 1146.03 -1.62371 -0.0305396 0
M  V30 12768 H 1148.03 -3.18646 -2.68831 0
M  V30 12769 H 1146.69 -2.01886 -2.54307 0
M  V30 12770 H 1147.7 -5.14724 -0.572692 0
M  V30 12771 H 1144.37 -3.3789 -2.45227 0
M  V30 12772 H 1145.76 -6.71676 -0.173373 0
M  V30 12773 N 1148.48 0.103547 -1.57259 0
M  V30 12774 C 1149.71 0.82624 -1.90232 0
M  V30 12775 C 1150.13 1.71902 -0.763641 0
M  V30 12776 O 1149.49 1.79043 0.285181 0
M  V30 12777 C 1149.54 1.62265 -3.22029 0
M  V30 12778 O 1148.64 2.73091 -3.09023 0
M  V30 12779 H 1147.98 0.227528 -0.6238 0
M  V30 12780 H 1150.51 0.081307 -2.04438 0
M  V30 12781 H 1150.52 2.00865 -3.5513 0
M  V30 12782 H 1149.2 0.967383 -4.04493 0
M  V30 12783 H 1147.78 2.3758 -2.8742 0
M  V30 12784 N 1149.96 1.53094 0.37415 0
M  V30 12785 C 1151.21 1.68082 1.11495 0
M  V30 12786 C 1151.52 0.434685 1.90709 0
M  V30 12787 O 1152.73 0.464956 2.67489 0
M  V30 12788 C 1151.19 2.97101 2.03124 0
M  V30 12789 C 1150.79 4.28947 1.29262 0
M  V30 12790 C 1152.54 3.21456 2.77248 0
M  V30 12791 C 1150.44 5.4906 2.19743 0
M  V30 12792 H 1149.37 0.626238 0.419931 0
M  V30 12793 H 1152.03 1.79594 0.376588 0
M  V30 12794 H 1150.41 2.79371 2.80656 0
M  V30 12795 H 1151.58 4.57279 0.568528 0
M  V30 12796 H 1149.9 4.10968 0.670362 0
M  V30 12797 H 1152.49 4.08377 3.45155 0
M  V30 12798 H 1152.84 2.37153 3.42146 0
M  V30 12799 H 1153.37 3.3982 2.06803 0
M  V30 12800 H 1150.11 6.35815 1.59437 0
M  V30 12801 H 1149.63 5.25019 2.90027 0
M  V30 12802 H 1151.31 5.83517 2.79495 0
M  V30 12803 N 1151.44 -0.633461 1.44309 0
M  V30 12804 C 1152.39 -1.76674 1.51292 0
M  V30 12805 C 1153.38 -1.64972 0.384807 0
M  V30 12806 O 1154.59 -1.71079 0.559653 0
M  V30 12807 H 1150.96 -0.583238 0.474697 0
M  V30 12808 H 1152.93 -1.67907 2.46678 0
M  V30 12809 C 1151.68 -3.15002 1.47205 0
M  V30 12810 H 1151.01 -3.24653 2.33325 0
M  V30 12811 H 1152.45 -3.94199 1.56151 0
M  V30 12812 C 1150.9 -3.3635 0.192464 0
M  V30 12813 O 1151.43 -3.94857 -0.738285 0
M  V30 12814 N 1149.64 -2.9044 0.0963424 0
M  V30 12815 H 1149.19 -2.43011 0.85459 0
M  V30 12816 H 1149.15 -3.05099 -0.759061 0
M  V30 12817 N 1152.92 -1.31168 -0.873655 0
M  V30 12818 C 1153.83 -1.20458 -2.01313 0
M  V30 12819 C 1154.84 -0.122074 -1.73571 0
M  V30 12820 O 1156.02 -0.339176 -1.98523 0
M  V30 12821 C 1153.09 -0.90876 -3.34578 0
M  V30 12822 C 1152.15 -2.07779 -3.75668 0
M  V30 12823 C 1151.38 -1.79599 -5.02573 0
M  V30 12824 O 1151.6 -0.729338 -5.65718 0
M  V30 12825 O 1150.54 -2.65169 -5.40341 0
M  V30 12826 H 1154.36 -2.16207 -2.13279 0
M  V30 12827 H 1151.95 -1.10871 -1.00139 0
M  V30 12828 H 1153.83 -0.759469 -4.145 0
M  V30 12829 H 1152.5 0.0187249 -3.23695 0
M  V30 12830 H 1151.41 -2.28247 -2.96402 0
M  V30 12831 H 1152.74 -2.9874 -3.91172 0
M  V30 12832 N 1154.4 1.08748 -1.14068 0
M  V30 12833 C 1155.33 2.14886 -0.768052 0
M  V30 12834 C 1156.31 1.60682 0.248979 0
M  V30 12835 O 1157.49 1.87988 0.138852 0
M  V30 12836 C 1154.62 3.38412 -0.139747 0
M  V30 12837 C 1153.66 4.11357 -1.12639 0
M  V30 12838 S 1154.5 4.64645 -2.66206 0
M  V30 12839 C 1155.65 5.91461 -2.04755 0
M  V30 12840 H 1155.89 2.46163 -1.66706 0
M  V30 12841 H 1153.42 1.20804 -0.961549 0
M  V30 12842 H 1155.38 4.09929 0.21635 0
M  V30 12843 H 1154.04 3.0534 0.736638 0
M  V30 12844 H 1153.23 4.99987 -0.634719 0
M  V30 12845 H 1152.83 3.45735 -1.4263 0
M  V30 12846 H 1155.13 6.62859 -1.40086 0
M  V30 12847 H 1156.07 6.45319 -2.91494 0
M  V30 12848 H 1156.48 5.44308 -1.49629 0
M  V30 12849 N 1155.87 0.935264 1.26849 0
M  V30 12850 C 1156.8 0.457776 2.28969 0
M  V30 12851 C 1157.79 -0.48587 1.63013 0
M  V30 12852 O 1158.97 -0.388998 1.90264 0
M  V30 12853 C 1156.1 -0.283332 3.46142 0
M  V30 12854 C 1155.05 0.573196 4.24144 0
M  V30 12855 C 1154.38 -0.297525 5.33872 0
M  V30 12856 C 1155.68 1.84153 4.88759 0
M  V30 12857 H 1157.37 1.31125 2.69159 0
M  V30 12858 H 1154.92 0.631956 1.29392 0
M  V30 12859 H 1156.87 -0.628366 4.16689 0
M  V30 12860 H 1155.6 -1.1709 3.04889 0
M  V30 12861 H 1154.26 0.901043 3.55354 0
M  V30 12862 H 1153.9 -1.18427 4.8886 0
M  V30 12863 H 1153.6 0.272126 5.8697 0
M  V30 12864 H 1155.13 -0.637961 6.07258 0
M  V30 12865 H 1156.54 1.5641 5.51551 0
M  V30 12866 H 1154.94 2.35528 5.51948 0
M  V30 12867 H 1156.01 2.5565 4.12033 0
M  V30 12868 N 1157.35 -1.41121 0.701616 0
M  V30 12869 C 1158.58 -2.05973 0.242896 0
M  V30 12870 C 1159 -1.52474 -1.10151 0
M  V30 12871 O 1158.36 -0.654224 -1.69085 0
M  V30 12872 C 1158.41 -3.59943 0.217614 0
M  V30 12873 O 1157.51 -4.04454 -0.805629 0
M  V30 12874 H 1156.85 -0.653581 0.117166 0
M  V30 12875 H 1159.38 -1.80777 0.958175 0
M  V30 12876 H 1159.39 -4.07969 0.0505267 0
M  V30 12877 H 1158.07 -3.98249 1.19877 0
M  V30 12878 H 1156.65 -3.6792 -0.607404 0
M  V30 12879 N 1158.83 -0.446794 -1.51134 0
M  V30 12880 C 1160.06 0.114893 -2.06581 0
M  V30 12881 C 1160.47 1.35642 -1.31327 0
M  V30 12882 O 1159.83 1.78595 -0.375506 0
M  V30 12883 C 1159.88 0.427589 -3.58962 0
M  V30 12884 O 1159.6 -0.764669 -4.31375 0
M  V30 12885 C 1161.1 1.03891 -4.30954 0
M  V30 12886 H 1158.32 0.00373031 -0.67099 0
M  V30 12887 H 1160.87 -0.628596 -1.94599 0
M  V30 12888 H 1159.02 1.12099 -3.70827 0
M  V30 12889 H 1159.44 -0.494605 -5.22163 0
M  V30 12890 H 1160.91 1.20764 -5.38628 0
M  V30 12891 H 1161.39 2.02252 -3.8986 0
M  V30 12892 H 1161.99 0.384623 -4.23557 0
M  V30 12893 N 1160.31 1.56586 -0.178487 0
M  V30 12894 C 1161.24 2.155 0.780543 0
M  V30 12895 C 1162.25 1.11244 1.18864 0
M  V30 12896 O 1163.44 1.38403 1.12725 0
M  V30 12897 C 1160.54 2.68867 2.0631 0
M  V30 12898 C 1159.72 3.97854 1.81744 0
M  V30 12899 C 1158.77 4.36213 2.94287 0
M  V30 12900 O 1157.8 5.03954 2.64612 0
M  V30 12901 N 1159 3.98356 4.22247 0
M  V30 12902 H 1161.77 2.98419 0.276836 0
M  V30 12903 H 1159.33 1.61899 0.00405241 0
M  V30 12904 H 1161.32 2.91522 2.80708 0
M  V30 12905 H 1159.89 1.90496 2.47851 0
M  V30 12906 H 1159.11 3.83502 0.912127 0
M  V30 12907 H 1160.4 4.82083 1.62707 0
M  V30 12908 H 1159.8 3.43835 4.49215 0
M  V30 12909 H 1158.35 4.25998 4.93325 0
M  V30 12910 N 1161.79 -0.095206 1.57312 0
M  V30 12911 C 1162.75 -1.09974 2.01093 0
M  V30 12912 C 1163.75 -1.32954 0.904424 0
M  V30 12913 O 1164.94 -1.29069 1.16991 0
M  V30 12914 C 1162.07 -2.4489 2.37153 0
M  V30 12915 H 1163.26 -0.722906 2.91057 0
M  V30 12916 H 1160.82 -0.340249 1.52552 0
M  V30 12917 H 1161.55 -2.8745 1.50143 0
M  V30 12918 H 1161.34 -2.29559 3.17876 0
M  V30 12919 H 1162.83 -3.17141 2.71683 0
M  V30 12920 N 1163.26 -1.53291 -0.366026 0
M  V30 12921 C 1164.19 -1.82675 -1.45437 0
M  V30 12922 C 1165.18 -0.680227 -1.55907 0
M  V30 12923 O 1166.36 -0.930032 -1.70482 0
M  V30 12924 C 1163.49 -2.01626 -2.8278 0
M  V30 12925 C 1162.44 -3.17391 -2.87135 0
M  V30 12926 C 1161.77 -3.21634 -4.27148 0
M  V30 12927 C 1163.07 -4.5599 -2.54697 0
M  V30 12928 H 1164.76 -2.73818 -1.21096 0
M  V30 12929 H 1162.31 -1.31754 -0.581108 0
M  V30 12930 H 1164.26 -2.20765 -3.58944 0
M  V30 12931 H 1162.99 -1.07193 -3.08508 0
M  V30 12932 H 1161.65 -2.98071 -2.13422 0
M  V30 12933 H 1161.29 -2.2484 -4.49951 0
M  V30 12934 H 1160.99 -3.99414 -4.30978 0
M  V30 12935 H 1162.52 -3.42957 -5.05186 0
M  V30 12936 H 1163.93 -4.75294 -3.20575 0
M  V30 12937 H 1162.33 -5.36008 -2.69844 0
M  V30 12938 H 1163.4 -4.61133 -1.49949 0
M  V30 12939 N 1164.74 0.6258 -1.44643 0
M  V30 12940 C 1166.16 0.944569 -1.28647 0
M  V30 12941 C 1166.36 2.00227 -0.226134 0
M  V30 12942 O 1165.41 2.4953 0.386161 0
M  V30 12943 C 1166.73 1.40278 -2.65975 0
M  V30 12944 C 1168.28 1.51797 -2.73727 0
M  V30 12945 C 1168.75 2.01 -4.11537 0
M  V30 12946 N 1170.24 2.08262 -4.13741 0
M  V30 12947 C 1170.98 2.47515 -5.17227 0
M  V30 12948 N 1170.47 2.85867 -6.31072 0
M  V30 12949 N 1172.27 2.47695 -5.04583 0
M  V30 12950 H 1164.42 -0.0736157 -2.12272 0
M  V30 12951 H 1166.68 0.0296998 -0.947535 0
M  V30 12952 H 1166.39 0.699871 -3.44666 0
M  V30 12953 H 1166.26 2.37279 -2.93221 0
M  V30 12954 H 1168.65 2.21183 -1.95351 0
M  V30 12955 H 1168.73 0.531574 -2.50216 0
M  V30 12956 H 1168.37 1.32207 -4.90391 0
M  V30 12957 H 1168.3 3.0052 -4.32429 0
M  V30 12958 H 1170.79 1.81286 -3.31578 0
M  V30 12959 H 1171.11 3.14647 -7.05845 0
M  V30 12960 H 1169.45 2.83605 -6.34502 0
M  V30 12961 H 1172.64 2.17127 -4.14697 0
M  V30 12962 H 1172.81 2.77962 -5.85356 0
M  V30 12963 N 1166.22 1.31629 0.866686 0
M  V30 12964 C 1167.15 1.22151 1.99001 0
M  V30 12965 C 1168.13 0.107972 1.69757 0
M  V30 12966 O 1169.32 0.293125 1.91975 0
M  V30 12967 C 1166.45 0.93144 3.34577 0
M  V30 12968 C 1165.4 2.0049 3.78137 0
M  V30 12969 C 1164.73 1.56747 5.11209 0
M  V30 12970 C 1166.03 3.41844 3.94892 0
M  V30 12971 H 1167.72 2.16132 2.0719 0
M  V30 12972 H 1165.27 1.04051 0.995463 0
M  V30 12973 H 1167.22 0.851719 4.12703 0
M  V30 12974 H 1165.94 -0.0440289 3.2657 0
M  V30 12975 H 1164.6 2.07457 3.02253 0
M  V30 12976 H 1164.25 0.579767 4.99648 0
M  V30 12977 H 1163.95 2.28562 5.41326 0
M  V30 12978 H 1165.47 1.50188 5.91841 0
M  V30 12979 H 1166.89 3.37534 4.63405 0
M  V30 12980 H 1165.29 4.11905 4.36411 0
M  V30 12981 H 1166.36 3.82389 2.98172 0
M  V30 12982 N 1167.7 -1.08142 1.14644 0
M  V30 12983 C 1168.98 -1.77254 0.827071 0
M  V30 12984 C 1169.36 -1.99885 -0.67891 0
M  V30 12985 O 1168.7 -1.61084 -1.62062 0
M  V30 12986 C 1168.91 -3.08658 1.62884 0
M  V30 12987 C 1170.26 -3.83143 1.82993 0
M  V30 12988 O 1171.29 -3.18447 1.59593 0
M  V30 12989 O 1170.15 -4.9932 2.2213 0
M  V30 12990 H 1167.24 -0.769356 0.30335 0
M  V30 12991 H 1169.79 -1.1458 1.25178 0
M  V30 12992 H 1168.56 -2.87753 2.65168 0
M  V30 12993 H 1168.18 -3.79061 1.19994 0
M  V30 12994 N 1169.18 -0.941978 -1.26351 0
M  V30 12995 C 1170.09 -0.45833 -2.30079 0
M  V30 12996 C 1171.1 0.468084 -1.67586 0
M  V30 12997 O 1172.28 0.347418 -1.98381 0
M  V30 12998 C 1169.34 0.26797 -3.45663 0
M  V30 12999 C 1168.41 -0.695102 -4.23635 0
M  V30 13000 C 1167.64 -0.003369 -5.337 0
M  V30 13001 O 1167.86 1.21342 -5.57344 0
M  V30 13002 O 1166.8 -0.682476 -5.98018 0
M  V30 13003 H 1170.62 -1.31998 -2.73514 0
M  V30 13004 H 1168.21 -0.707897 -1.31564 0
M  V30 13005 H 1170.09 0.677061 -4.15925 0
M  V30 13006 H 1168.76 1.105 -3.04256 0
M  V30 13007 H 1167.67 -1.15415 -3.55851 0
M  V30 13008 H 1169 -1.49977 -4.68794 0
M  V30 13009 N 1170.66 1.40747 -0.709091 0
M  V30 13010 C 1171.62 2.29118 -0.0611607 0
M  V30 13011 C 1172.62 1.45049 0.694081 0
M  V30 13012 O 1173.81 1.66039 0.526952 0
M  V30 13013 C 1170.94 3.28154 0.923447 0
M  V30 13014 H 1172.13 2.87913 -0.839413 0
M  V30 13015 H 1169.69 1.4896 -0.473363 0
M  V30 13016 H 1170.42 2.74366 1.72899 0
M  V30 13017 H 1170.21 3.90207 0.384862 0
M  V30 13018 H 1171.7 3.94343 1.37417 0
M  V30 13019 N 1172.13 0.454803 1.50895 0
M  V30 13020 C 1173.07 -0.383826 2.25963 0
M  V30 13021 C 1174.08 -0.971263 1.30653 0
M  V30 13022 O 1175.27 -0.862434 1.56283 0
M  V30 13023 C 1172.37 -1.55069 3.01342 0
M  V30 13024 C 1171.54 -1.07899 4.23883 0
M  V30 13025 C 1170.6 -2.118 4.81692 0
M  V30 13026 O 1169.63 -1.70523 5.43057 0
M  V30 13027 N 1170.83 -3.44459 4.67256 0
M  V30 13028 H 1173.59 0.259646 2.98573 0
M  V30 13029 H 1171.15 0.284661 1.59378 0
M  V30 13030 H 1173.15 -2.24236 3.36898 0
M  V30 13031 H 1171.72 -2.09917 2.31633 0
M  V30 13032 H 1170.94 -0.213773 3.9362 0
M  V30 13033 H 1172.22 -0.741501 5.03368 0
M  V30 13034 H 1171.62 -3.80716 4.18416 0
M  V30 13035 H 1170.18 -4.0947 5.07127 0
M  V30 13036 N 1173.61 -1.56489 0.186789 0
M  V30 13037 C 1174.52 -2.22304 -0.749543 0
M  V30 13038 C 1175.54 -1.21949 -1.24115 0
M  V30 13039 O 1176.71 -1.5466 -1.29005 0
M  V30 13040 C 1173.78 -2.863 -1.95533 0
M  V30 13041 C 1172.84 -4.01901 -1.5091 0
M  V30 13042 C 1172.07 -4.62837 -2.6574 0
M  V30 13043 O 1172.3 -4.22681 -3.8301 0
M  V30 13044 O 1171.23 -5.52446 -2.38929 0
M  V30 13045 H 1175.06 -3.02909 -0.21908 0
M  V30 13046 H 1172.64 -1.49341 -0.0421249 0
M  V30 13047 H 1174.52 -3.2682 -2.6602 0
M  V30 13048 H 1173.2 -2.08681 -2.47455 0
M  V30 13049 H 1172.1 -3.66021 -0.773261 0
M  V30 13050 H 1173.44 -4.8116 -1.03663 0
M  V30 13051 N 1175.09 0.086862 -1.5736 0
M  V30 13052 C 1176.05 1.08906 -2.01673 0
M  V30 13053 C 1177.05 1.32473 -0.911463 0
M  V30 13054 O 1178.24 1.28447 -1.17673 0
M  V30 13055 C 1175.37 2.43629 -2.38449 0
M  V30 13056 H 1176.57 0.707461 -2.91436 0
M  V30 13057 H 1174.12 0.332154 -1.5273 0
M  V30 13058 H 1174.86 2.8665 -1.51665 0
M  V30 13059 H 1174.64 2.2787 -3.19089 0
M  V30 13060 H 1176.13 3.15695 -2.73361 0
M  V30 13061 N 1176.57 1.53483 0.357892 0
M  V30 13062 C 1177.48 1.83434 1.4625 0
M  V30 13063 C 1178.49 0.723313 1.58254 0
M  V30 13064 O 1179.67 1.01416 1.74002 0
M  V30 13065 C 1176.73 2.0249 2.81423 0
M  V30 13066 C 1175.8 3.26378 2.78883 0
M  V30 13067 C 1175.03 3.44516 4.07608 0
M  V30 13068 O 1175.25 2.66787 5.04163 0
M  V30 13069 O 1174.19 4.37898 4.12952 0
M  V30 13070 H 1178.01 2.77294 1.23861 0
M  V30 13071 H 1175.6 1.38958 0.548722 0
M  V30 13072 H 1177.48 2.16552 3.61501 0
M  V30 13073 H 1176.15 1.11819 3.03773 0
M  V30 13074 H 1175.06 3.17733 1.97475 0
M  V30 13075 H 1176.39 4.16996 2.61486 0
M  V30 13076 N 1178.05 -0.61812 1.44973 0
M  V30 13077 C 1179.29 -1.38882 1.4997 0
M  V30 13078 C 1179.65 -1.91533 0.133841 0
M  V30 13079 O 1180.85 -2.68736 0.0585012 0
M  V30 13080 C 1179.12 -2.5136 2.54073 0
M  V30 13081 S 1180.68 -3.39324 2.78216 0
M  V30 13082 H 1177.5 -0.473631 0.530278 0
M  V30 13083 H 1180.1 -0.714299 1.81984 0
M  V30 13084 H 1178.8 -2.11012 3.51997 0
M  V30 13085 H 1178.34 -3.23625 2.23675 0
M  V30 13086 H 1180.35 -4.49198 2.10797 0
M  V30 13087 N 1179.52 -1.32087 -0.859693 0
M  V30 13088 C 1180.46 -1.16426 -1.97428 0
M  V30 13089 C 1181.47 -0.100582 -1.62489 0
M  V30 13090 O 1182.66 -0.349063 -1.75054 0
M  V30 13091 C 1179.76 -0.758822 -3.30295 0
M  V30 13092 C 1178.93 -1.90971 -3.93508 0
M  V30 13093 C 1177.99 -1.48865 -5.04704 0
M  V30 13094 O 1177.02 -2.1999 -5.2497 0
M  V30 13095 N 1178.22 -0.38182 -5.79243 0
M  V30 13096 H 1180.98 -2.12433 -2.11406 0
M  V30 13097 H 1178.54 -1.24558 -1.03426 0
M  V30 13098 H 1180.54 -0.459643 -4.02081 0
M  V30 13099 H 1179.11 0.109944 -3.12407 0
M  V30 13100 H 1178.33 -2.37566 -3.14573 0
M  V30 13101 H 1179.61 -2.68032 -4.32477 0
M  V30 13102 H 1179.01 0.210268 -5.65309 0
M  V30 13103 H 1177.57 -0.142224 -6.51645 0
M  V30 13104 N 1181 1.07532 -1.15215 0
M  V30 13105 C 1182.25 1.8036 -0.927263 0
M  V30 13106 C 1182.58 1.86414 0.544371 0
M  V30 13107 O 1181.86 1.34653 1.40353 0
M  V30 13108 C 1182.14 3.25512 -1.53992 0
M  V30 13109 C 1181.99 3.27614 -3.08203 0
M  V30 13110 C 1183.31 4.22731 -1.22418 0
M  V30 13111 H 1180.43 0.654775 -0.338289 0
M  V30 13112 H 1183.07 1.25842 -1.42351 0
M  V30 13113 H 1181.22 3.72068 -1.11791 0
M  V30 13114 H 1182.89 2.89315 -3.59297 0
M  V30 13115 H 1181.14 2.66627 -3.42188 0
M  V30 13116 H 1181.81 4.29956 -3.46182 0
M  V30 13117 H 1184.28 3.84557 -1.58919 0
M  V30 13118 H 1183.16 5.22589 -1.67906 0
M  V30 13119 H 1183.42 4.41875 -0.14091 0
M  V30 13120 N 1182.48 0.948665 1.2585 0
M  V30 13121 C 1183.41 0.482036 2.2847 0
M  V30 13122 C 1184.39 -0.468553 1.63519 0
M  V30 13123 O 1185.58 -0.368796 1.90666 0
M  V30 13124 C 1182.71 -0.246603 3.46423 0
M  V30 13125 C 1181.66 0.61815 4.23513 0
M  V30 13126 C 1180.99 -0.240884 5.34157 0
M  V30 13127 C 1182.29 1.89327 4.86778 0
M  V30 13128 H 1183.98 1.33973 2.67753 0
M  V30 13129 H 1181.53 0.645645 1.28715 0
M  V30 13130 H 1183.48 -0.584135 4.17332 0
M  V30 13131 H 1182.2 -1.13849 3.06114 0
M  V30 13132 H 1180.86 0.938682 3.54379 0
M  V30 13133 H 1180.51 -1.13235 4.90089 0
M  V30 13134 H 1180.21 0.334367 5.86648 0
M  V30 13135 H 1181.73 -0.573517 6.07901 0
M  V30 13136 H 1183.15 1.62252 5.49861 0
M  V30 13137 H 1181.55 2.41369 5.49419 0
M  V30 13138 H 1182.62 2.60006 4.09298 0
M  V30 13139 N 1183.96 -1.40369 0.716545 0
M  V30 13140 C 1184.91 -2.3071 0.0645944 0
M  V30 13141 C 1185.88 -1.48239 -0.749294 0
M  V30 13142 O 1187.06 -1.76975 -0.713045 0
M  V30 13143 C 1184.2 -3.34456 -0.850478 0
M  V30 13144 C 1183.31 -4.31992 -0.0259594 0
M  V30 13145 C 1182.45 -5.22806 -0.940599 0
M  V30 13146 C 1181.49 -6.12001 -0.110228 0
M  V30 13147 N 1180.62 -6.9523 -0.979796 0
M  V30 13148 H 1185.46 -2.85896 0.840682 0
M  V30 13149 H 1183 -1.40789 0.426258 0
M  V30 13150 H 1184.96 -3.93177 -1.39528 0
M  V30 13151 H 1183.59 -2.8077 -1.59274 0
M  V30 13152 H 1182.64 -3.75045 0.636036 0
M  V30 13153 H 1183.95 -4.94971 0.616883 0
M  V30 13154 H 1183.11 -5.86463 -1.5539 0
M  V30 13155 H 1181.85 -4.60104 -1.61726 0
M  V30 13156 H 1180.85 -5.47373 0.516001 0
M  V30 13157 H 1182.08 -6.76763 0.562944 0
M  V30 13158 H 1180.02 -6.35115 -1.64209 0
M  V30 13159 H 1179.94 -7.54978 -0.393012 0
M  V30 13160 H 1181.21 -7.63335 -1.57924 0
M  V30 13161 N 1185.44 -0.462799 -1.50652 0
M  V30 13162 C 1186.37 0.381469 -2.24989 0
M  V30 13163 C 1187.35 1.00328 -1.27957 0
M  V30 13164 O 1188.53 1.04082 -1.5716 0
M  V30 13165 C 1185.66 1.53378 -3.01981 0
M  V30 13166 C 1184.7 1.03017 -4.13872 0
M  V30 13167 S 1185.54 -0.048447 -5.35478 0
M  V30 13168 C 1186.69 1.10794 -6.16016 0
M  V30 13169 H 1186.93 -0.249578 -2.96251 0
M  V30 13170 H 1184.46 -0.247583 -1.52402 0
M  V30 13171 H 1186.42 2.19425 -3.46934 0
M  V30 13172 H 1185.08 2.13632 -2.30261 0
M  V30 13173 H 1184.27 1.8926 -4.67115 0
M  V30 13174 H 1183.87 0.447548 -3.71313 0
M  V30 13175 H 1186.17 2.02125 -6.46646 0
M  V30 13176 H 1187.11 0.614937 -7.05425 0
M  V30 13177 H 1187.52 1.35802 -5.47922 0
M  V30 13178 N 1186.91 1.56388 -0.195085 0
M  V30 13179 C 1187.85 2.16316 0.757643 0
M  V30 13180 C 1188.86 1.12498 1.17678 0
M  V30 13181 O 1190.05 1.39591 1.11251 0
M  V30 13182 C 1187.15 2.7104 2.03447 0
M  V30 13183 C 1186.32 3.99759 1.77514 0
M  V30 13184 C 1185.38 4.3931 2.89644 0
M  V30 13185 O 1184.41 5.06732 2.59252 0
M  V30 13186 N 1185.61 4.02813 4.17998 0
M  V30 13187 H 1188.37 2.98696 0.24517 0
M  V30 13188 H 1185.93 1.61895 -0.0131194 0
M  V30 13189 H 1187.93 2.94483 2.776 0
M  V30 13190 H 1186.5 1.93114 2.45817 0
M  V30 13191 H 1185.72 3.84448 0.8714 0
M  V30 13192 H 1187 4.83782 1.57585 0
M  V30 13193 H 1186.4 3.4858 4.45543 0
M  V30 13194 H 1184.96 4.31206 4.88779 0
M  V30 13195 N 1188.39 -0.0785156 1.57404 0
M  V30 13196 C 1189.32 -1.09446 2.06262 0
M  V30 13197 C 1190.3 -1.40777 0.954772 0
M  V30 13198 O 1191.49 -1.5052 1.22708 0
M  V30 13199 C 1188.62 -2.40979 2.50093 0
M  V30 13200 C 1187.57 -2.24017 3.64692 0
M  V30 13201 C 1186.9 -3.60873 3.94556 0
M  V30 13202 C 1188.2 -1.66696 4.94985 0
M  V30 13203 H 1189.89 -0.687928 2.9139 0
M  V30 13204 H 1187.44 -0.329466 1.4018 0
M  V30 13205 H 1189.39 -3.12337 2.82884 0
M  V30 13206 H 1188.12 -2.83599 1.61985 0
M  V30 13207 H 1186.77 -1.55101 3.32174 0
M  V30 13208 H 1186.42 -4.01051 3.0359 0
M  V30 13209 H 1186.12 -3.50365 4.71718 0
M  V30 13210 H 1187.65 -4.33673 4.29837 0
M  V30 13211 H 1189.06 -2.27913 5.2605 0
M  V30 13212 H 1187.46 -1.66902 5.76423 0
M  V30 13213 H 1188.53 -0.627827 4.80818 0
M  V30 13214 N 1189.87 -1.5367 -0.349747 0
M  V30 13215 C 1190.8 -1.77528 -1.4497 0
M  V30 13216 C 1191.82 -0.656412 -1.4898 0
M  V30 13217 O 1193 -0.933016 -1.52174 0
M  V30 13218 C 1190.1 -1.85445 -2.8366 0
M  V30 13219 C 1189.28 -3.15295 -3.03163 0
M  V30 13220 C 1188.34 -3.1425 -4.22059 0
M  V30 13221 O 1187.36 -3.87994 -4.16472 0
M  V30 13222 N 1188.56 -2.36181 -5.30282 0
M  V30 13223 H 1191.33 -2.72444 -1.24877 0
M  V30 13224 H 1188.89 -1.52644 -0.539586 0
M  V30 13225 H 1190.88 -1.82204 -3.61364 0
M  V30 13226 H 1189.45 -0.977436 -2.96926 0
M  V30 13227 H 1188.67 -3.31711 -2.12983 0
M  V30 13228 H 1189.96 -4.01078 -3.13072 0
M  V30 13229 H 1189.36 -1.75808 -5.37688 0
M  V30 13230 H 1187.92 -2.38744 -6.06502 0
M  V30 13231 N 1191.35 0.610423 -1.45298 0
M  V30 13232 C 1192.28 1.73507 -1.4976 0
M  V30 13233 C 1193.29 1.58092 -0.38867 0
M  V30 13234 O 1194.48 1.66026 -0.655571 0
M  V30 13235 C 1191.58 3.11475 -1.33554 0
M  V30 13236 C 1190.76 3.53156 -2.5807 0
M  V30 13237 C 1189.81 4.70076 -2.36463 0
M  V30 13238 O 1188.84 4.77337 -3.10061 0
M  V30 13239 N 1190.04 5.63155 -1.40843 0
M  V30 13240 H 1192.81 1.70144 -2.46721 0
M  V30 13241 H 1190.37 0.79562 -1.41002 0
M  V30 13242 H 1192.36 3.87444 -1.16914 0
M  V30 13243 H 1190.93 3.09361 -0.448803 0
M  V30 13244 H 1190.15 2.67178 -2.89844 0
M  V30 13245 H 1191.44 3.77761 -3.40843 0
M  V30 13246 H 1190.84 5.60001 -0.800982 0
M  V30 13247 H 1189.39 6.38669 -1.30175 0
M  V30 13248 N 1192.83 1.32541 0.852676 0
M  V30 13249 C 1193.74 1.23646 1.99371 0
M  V30 13250 C 1194.75 0.149673 1.73355 0
M  V30 13251 O 1195.93 0.370716 1.97959 0
M  V30 13252 C 1192.99 0.961873 3.3309 0
M  V30 13253 C 1192.05 2.1373 3.72315 0
M  V30 13254 C 1191.29 1.87572 4.99652 0
M  V30 13255 O 1191.51 0.819247 5.64486 0
M  V30 13256 O 1190.44 2.73732 5.36054 0
M  V30 13257 H 1194.27 2.19573 2.09813 0
M  V30 13258 H 1191.86 1.12451 0.983627 0
M  V30 13259 H 1193.74 0.825316 4.13239 0
M  V30 13260 H 1192.41 0.0327745 3.23683 0
M  V30 13261 H 1191.32 2.32933 2.92733 0
M  V30 13262 H 1192.65 3.04925 3.86369 0
M  V30 13263 N 1194.3 -1.0692 1.15784 0
M  V30 13264 C 1195.23 -2.16216 0.881649 0
M  V30 13265 C 1196.22 -1.69253 -0.16951 0
M  V30 13266 O 1197.4 -1.94186 -0.0229511 0
M  V30 13267 C 1194.53 -3.4527 0.374982 0
M  V30 13268 C 1193.48 -4.05706 1.36332 0
M  V30 13269 C 1192.81 -5.29894 0.715317 0
M  V30 13270 C 1194.11 -4.45224 2.7308 0
M  V30 13271 H 1195.8 -2.39577 1.79563 0
M  V30 13272 H 1193.35 -1.15141 0.864784 0
M  V30 13273 H 1195.3 -4.2106 0.169279 0
M  V30 13274 H 1194.03 -3.21508 -0.574485 0
M  V30 13275 H 1192.69 -3.31965 1.55546 0
M  V30 13276 H 1192.33 -5.02425 -0.240436 0
M  V30 13277 H 1192.03 -5.71287 1.37494 0
M  V30 13278 H 1193.56 -6.08386 0.519489 0
M  V30 13279 H 1194.97 -5.12124 2.57686 0
M  V30 13280 H 1193.37 -4.97583 3.35457 0
M  V30 13281 H 1194.44 -3.56384 3.28813 0
M  V30 13282 N 1195.78 -0.955326 -1.25345 0
M  V30 13283 C 1196.69 -0.482707 -2.2958 0
M  V30 13284 C 1197.71 0.450283 -1.68073 0
M  V30 13285 O 1198.88 0.326358 -1.98738 0
M  V30 13286 C 1195.95 0.231293 -3.45928 0
M  V30 13287 C 1195.01 -0.739995 -4.22874 0
M  V30 13288 C 1194.24 -0.0599748 -5.33666 0
M  V30 13289 O 1194.47 1.15423 -5.586 0
M  V30 13290 O 1193.4 -0.745865 -5.97261 0
M  V30 13291 H 1197.23 -1.34892 -2.72099 0
M  V30 13292 H 1194.81 -0.721812 -1.30806 0
M  V30 13293 H 1196.69 0.632908 -4.1662 0
M  V30 13294 H 1195.37 1.07267 -3.0541 0
M  V30 13295 H 1194.28 -1.19183 -3.54607 0
M  V30 13296 H 1195.61 -1.54941 -4.67177 0
M  V30 13297 N 1197.26 1.39987 -0.723979 0
M  V30 13298 C 1198.19 2.3332 -0.0917282 0
M  V30 13299 C 1199.17 1.53335 0.736361 0
M  V30 13300 O 1200.36 1.81771 0.683582 0
M  V30 13301 C 1197.49 3.3737 0.824549 0
M  V30 13302 C 1196.44 4.2788 0.101452 0
M  V30 13303 C 1195.77 5.22536 1.13401 0
M  V30 13304 C 1197.07 5.11649 -1.04939 0
M  V30 13305 H 1198.76 2.86441 -0.871318 0
M  V30 13306 H 1196.31 1.37725 -0.420448 0
M  V30 13307 H 1198.26 4.01607 1.27631 0
M  V30 13308 H 1196.98 2.82663 1.63613 0
M  V30 13309 H 1195.64 3.65107 -0.330569 0
M  V30 13310 H 1195.29 4.64131 1.93886 0
M  V30 13311 H 1194.99 5.83938 0.65502 0
M  V30 13312 H 1196.52 5.89651 1.58569 0
M  V30 13313 H 1197.93 5.69293 -0.6766 0
M  V30 13314 H 1196.33 5.82137 -1.45729 0
M  V30 13315 H 1197.4 4.47132 -1.8762 0
M  V30 13316 N 1198.74 0.470782 1.50404 0
M  V30 13317 C 1199.67 -0.313458 2.31386 0
M  V30 13318 C 1200.65 -0.990623 1.38278 0
M  V30 13319 O 1201.84 -0.987854 1.67198 0
M  V30 13320 C 1198.97 -1.39599 3.18009 0
M  V30 13321 C 1197.92 -0.840443 4.19667 0
M  V30 13322 C 1197.25 -2.02124 4.95025 0
M  V30 13323 C 1198.55 0.148055 5.2209 0
M  V30 13324 H 1200.24 0.362432 2.97198 0
M  V30 13325 H 1197.79 0.175745 1.42924 0
M  V30 13326 H 1199.74 -1.9521 3.73458 0
M  V30 13327 H 1198.46 -2.10064 2.50081 0
M  V30 13328 H 1197.12 -0.306302 3.65318 0
M  V30 13329 H 1196.77 -2.71286 4.23571 0
M  V30 13330 H 1196.47 -1.65574 5.6379 0
M  V30 13331 H 1197.99 -2.58226 5.5331 0
M  V30 13332 H 1199.41 -0.318874 5.72413 0
M  V30 13333 H 1197.8 0.427811 5.98573 0
M  V30 13334 H 1198.87 1.07404 4.72855 0
M  V30 13335 N 1200.22 -1.56282 0.203376 0
M  V30 13336 C 1201.17 -2.20822 -0.730784 0
M  V30 13337 C 1202.16 -1.18193 -1.21354 0
M  V30 13338 O 1203.37 -1.36318 -1.17547 0
M  V30 13339 H 1199.74 -0.707792 -0.254036 0
M  V30 13340 H 1201.71 -2.97955 -0.162825 0
M  V30 13341 C 1200.46 -2.88803 -1.93618 0
M  V30 13342 H 1199.78 -3.67521 -1.57379 0
M  V30 13343 H 1201.22 -3.37387 -2.56799 0
M  V30 13344 C 1199.68 -1.90285 -2.78017 0
M  V30 13345 O 1200.21 -1.40833 -3.76203 0
M  V30 13346 N 1198.42 -1.58332 -2.43679 0
M  V30 13347 H 1197.97 -1.9874 -1.63891 0
M  V30 13348 H 1197.92 -0.926722 -3.00432 0
M  V30 13349 N 1201.7 0.070167 -1.57444 0
M  V30 13350 C 1202.66 1.06761 -2.02817 0
M  V30 13351 C 1203.66 1.31498 -0.925462 0
M  V30 13352 O 1204.85 1.27192 -1.19029 0
M  V30 13353 C 1201.98 2.41086 -2.41019 0
M  V30 13354 H 1203.17 0.67651 -2.9217 0
M  V30 13355 H 1200.73 0.315936 -1.53074 0
M  V30 13356 H 1201.46 2.85025 -1.54697 0
M  V30 13357 H 1201.25 2.24472 -3.21488 0
M  V30 13358 H 1202.74 3.12778 -2.76694 0
M  V30 13359 N 1203.17 1.53854 0.341593 0
M  V30 13360 C 1204.4 1.7488 1.10002 0
M  V30 13361 C 1204.81 0.488802 1.82777 0
M  V30 13362 O 1204.15 -0.549333 1.75294 0
M  V30 13363 C 1204.22 2.87604 2.15694 0
M  V30 13364 C 1203.88 4.27142 1.62477 0
M  V30 13365 C 1204.88 5.08642 1.07606 0
M  V30 13366 C 1202.56 4.73633 1.67265 0
M  V30 13367 C 1204.56 6.34735 0.582284 0
M  V30 13368 C 1202.24 5.99697 1.175 0
M  V30 13369 C 1203.24 6.80081 0.630742 0
M  V30 13370 O 1202.93 8.03777 0.140519 0
M  V30 13371 H 1202.66 0.587824 0.333824 0
M  V30 13372 H 1205.22 2.01488 0.398965 0
M  V30 13373 H 1203.45 2.56526 2.89364 0
M  V30 13374 H 1205.13 2.96583 2.77117 0
M  V30 13375 H 1205.9 4.73887 1.03227 0
M  V30 13376 H 1201.78 4.11121 2.08567 0
M  V30 13377 H 1205.32 6.97424 0.156811 0
M  V30 13378 H 1201.22 6.33947 1.21579 0
M  V30 13379 H 1201.99 8.18094 0.257626 0
M  V30 13380 N 1204.65 -0.602709 1.4562 0
M  V30 13381 C 1205.58 -1.7271 1.50678 0
M  V30 13382 C 1206.6 -1.57884 0.397048 0
M  V30 13383 O 1207.79 -1.65676 0.664367 0
M  V30 13384 C 1204.89 -3.10762 1.35204 0
M  V30 13385 C 1204.06 -3.51782 2.59939 0
M  V30 13386 C 1203.12 -4.68816 2.38952 0
M  V30 13387 O 1202.14 -4.75686 3.12588 0
M  V30 13388 N 1203.35 -5.624 1.43827 0
M  V30 13389 H 1206.11 -1.68833 2.47619 0
M  V30 13390 H 1203.67 -0.788131 1.41422 0
M  V30 13391 H 1205.66 -3.86819 1.18967 0
M  V30 13392 H 1204.23 -3.09119 0.465203 0
M  V30 13393 H 1203.45 -2.65637 2.91257 0
M  V30 13394 H 1204.74 -3.75948 3.42842 0
M  V30 13395 H 1204.14 -5.59568 0.830669 0
M  V30 13396 H 1202.7 -6.37969 1.33561 0
M  V30 13397 N 1206.13 -1.32992 -0.845635 0
M  V30 13398 C 1207.35 -1.27231 -1.6379 0
M  V30 13399 C 1207.78 0.155141 -1.87459 0
M  V30 13400 O 1207.14 1.10953 -1.43384 0
M  V30 13401 C 1207.19 -2.04629 -2.96916 0
M  V30 13402 O 1206.29 -1.40027 -3.879 0
M  V30 13403 H 1205.63 -0.438045 -0.499011 0
M  V30 13404 H 1208.16 -1.75448 -1.05257 0
M  V30 13405 H 1208.17 -2.15141 -3.46667 0
M  V30 13406 H 1206.85 -3.08425 -2.79011 0
M  V30 13407 H 1205.42 -1.38118 -3.46378 0
M  V30 13408 N 1207.61 1.06304 -1.1635 0
M  V30 13409 C 1208.55 2.13776 -0.869965 0
M  V30 13410 C 1209.52 1.65105 0.181541 0
M  V30 13411 O 1210.71 1.90743 0.0467705 0
M  V30 13412 C 1207.85 3.43034 -0.377077 0
M  V30 13413 C 1206.96 4.0544 -1.4914 0
M  V30 13414 C 1206.1 5.22572 -0.953538 0
M  V30 13415 C 1205.14 5.76961 -2.04407 0
M  V30 13416 N 1204.27 6.85409 -1.52181 0
M  V30 13417 H 1209.11 2.38224 -1.79034 0
M  V30 13418 H 1206.65 1.16882 -0.893136 0
M  V30 13419 H 1208.61 4.17136 -0.0729426 0
M  V30 13420 H 1207.24 3.18804 0.506359 0
M  V30 13421 H 1206.29 3.28886 -1.9115 0
M  V30 13422 H 1207.6 4.41859 -2.31434 0
M  V30 13423 H 1206.76 6.037 -0.602579 0
M  V30 13424 H 1205.5 4.87598 -0.099897 0
M  V30 13425 H 1204.5 4.9447 -2.40373 0
M  V30 13426 H 1205.73 6.13987 -2.90167 0
M  V30 13427 H 1203.67 6.52354 -0.690697 0
M  V30 13428 H 1203.59 7.2077 -2.28092 0
M  V30 13429 H 1204.86 7.70217 -1.19942 0
M  V30 13430 N 1209.09 0.96196 1.24836 0
M  V30 13431 C 1210.33 0.616342 1.92052 0
M  V30 13432 C 1210.65 -0.851601 1.76088 0
M  V30 13433 O 1211.85 -1.3075 2.37943 0
M  V30 13434 C 1210.31 1.05168 3.44191 0
M  V30 13435 C 1209.92 2.54268 3.68852 0
M  V30 13436 C 1211.66 0.778938 4.17292 0
M  V30 13437 C 1209.57 2.91564 5.14533 0
M  V30 13438 H 1208.5 0.22681 0.719078 0
M  V30 13439 H 1211.15 1.1674 1.41577 0
M  V30 13440 H 1209.53 0.428979 3.9367 0
M  V30 13441 H 1210.71 3.21619 3.29997 0
M  V30 13442 H 1209.02 2.79091 3.09026 0
M  V30 13443 H 1211.62 1.03366 5.24614 0
M  V30 13444 H 1211.96 -0.284772 4.15325 0
M  V30 13445 H 1212.49 1.36233 3.73745 0
M  V30 13446 H 1209.23 3.96982 5.21618 0
M  V30 13447 H 1208.75 2.28892 5.54408 0
M  V30 13448 H 1210.43 2.81155 5.82718 0
M  V30 13449 N 1210.56 -1.39601 0.731392 0
M  V30 13450 C 1211.51 -2.30628 0.0890606 0
M  V30 13451 C 1212.48 -1.49025 -0.73353 0
M  V30 13452 O 1213.67 -1.77722 -0.694234 0
M  V30 13453 C 1210.81 -3.35339 -0.814956 0
M  V30 13454 C 1209.92 -4.31995 0.0198606 0
M  V30 13455 C 1209.05 -5.23774 -0.885095 0
M  V30 13456 C 1208.09 -6.12083 -0.045311 0
M  V30 13457 N 1207.23 -6.9623 -0.906002 0
M  V30 13458 H 1212.07 -2.84988 0.870958 0
M  V30 13459 H 1209.61 -1.40329 0.441166 0
M  V30 13460 H 1211.56 -3.94634 -1.3535 0
M  V30 13461 H 1210.19 -2.82443 -1.56287 0
M  V30 13462 H 1209.25 -3.74349 0.675778 0
M  V30 13463 H 1210.56 -4.94289 0.669346 0
M  V30 13464 H 1209.71 -5.88078 -1.49161 0
M  V30 13465 H 1208.45 -4.61794 -1.56837 0
M  V30 13466 H 1207.46 -5.46795 0.574028 0
M  V30 13467 H 1208.68 -6.76128 0.634692 0
M  V30 13468 H 1206.63 -6.36821 -1.57463 0
M  V30 13469 H 1206.54 -7.55352 -0.312914 0
M  V30 13470 H 1207.81 -7.64967 -1.49819 0
M  V30 13471 N 1212.04 -0.478751 -1.50152 0
M  V30 13472 C 1212.98 0.357584 -2.25381 0
M  V30 13473 C 1213.95 0.98965 -1.29014 0
M  V30 13474 O 1215.14 1.02409 -1.58255 0
M  V30 13475 C 1212.26 1.50167 -3.03591 0
M  V30 13476 C 1211.31 0.986215 -4.14941 0
M  V30 13477 S 1212.14 -0.105239 -5.35397 0
M  V30 13478 C 1213.3 1.04254 -6.17156 0
M  V30 13479 H 1213.53 -0.280985 -2.95969 0
M  V30 13480 H 1211.07 -0.263734 -1.52131 0
M  V30 13481 H 1213.02 2.15733 -3.49241 0
M  V30 13482 H 1211.68 2.11178 -2.32514 0
M  V30 13483 H 1210.88 1.84295 -4.69096 0
M  V30 13484 H 1210.48 0.408141 -3.71766 0
M  V30 13485 H 1212.77 1.95255 -6.48754 0
M  V30 13486 H 1213.71 0.540083 -7.06037 0
M  V30 13487 H 1214.12 1.29983 -5.49331 0
M  V30 13488 N 1213.52 1.56172 -0.211661 0
M  V30 13489 C 1214.45 2.17107 0.734657 0
M  V30 13490 C 1215.47 1.1374 1.16478 0
M  V30 13491 O 1216.65 1.40763 1.09764 0
M  V30 13492 C 1213.75 2.73182 2.00561 0
M  V30 13493 C 1212.93 4.0162 1.73264 0
M  V30 13494 C 1211.99 4.42357 2.84968 0
M  V30 13495 O 1211.01 5.09453 2.53863 0
M  V30 13496 N 1212.21 4.07223 4.13702 0
M  V30 13497 H 1214.98 2.98939 0.213475 0
M  V30 13498 H 1212.54 1.61872 -0.0302898 0
M  V30 13499 H 1214.53 2.97411 2.74461 0
M  V30 13500 H 1213.1 1.9571 2.43754 0
M  V30 13501 H 1212.32 3.85351 0.830575 0
M  V30 13502 H 1213.61 4.85426 1.52445 0
M  V30 13503 H 1213.01 3.53286 4.4182 0
M  V30 13504 H 1211.57 4.36366 4.84178 0
M  V30 13505 N 1215 -0.0618163 1.57479 0
M  V30 13506 C 1215.96 -1.05684 2.0338 0
M  V30 13507 C 1216.96 -1.31006 0.932423 0
M  V30 13508 O 1218.15 -1.26559 1.19702 0
M  V30 13509 C 1215.28 -2.39805 2.42294 0
M  V30 13510 H 1216.48 -0.661006 2.92525 0
M  V30 13511 H 1214.03 -0.307814 1.53239 0
M  V30 13512 H 1214.76 -2.84201 1.56207 0
M  V30 13513 H 1214.55 -2.22764 3.22674 0
M  V30 13514 H 1216.04 -3.11307 2.78349 0
M  V30 13515 N 1216.48 -1.54033 -0.333429 0
M  V30 13516 C 1217.39 -1.85737 -1.43314 0
M  V30 13517 C 1218.4 -0.748398 -1.57083 0
M  V30 13518 O 1219.58 -1.04171 -1.72367 0
M  V30 13519 C 1216.64 -2.06942 -2.78165 0
M  V30 13520 C 1215.7 -3.30774 -2.73655 0
M  V30 13521 C 1214.94 -3.50957 -4.02075 0
M  V30 13522 O 1215.16 -2.74774 -4.99855 0
M  V30 13523 O 1214.09 -4.44412 -4.05933 0
M  V30 13524 H 1217.92 -2.7923 -1.19434 0
M  V30 13525 H 1215.51 -1.39814 -0.526546 0
M  V30 13526 H 1217.39 -2.22276 -3.58011 0
M  V30 13527 H 1216.06 -1.16638 -3.01956 0
M  V30 13528 H 1214.97 -3.20835 -1.92395 0
M  V30 13529 H 1216.3 -4.21103 -2.54819 0
M  V30 13530 N 1217.95 0.594978 -1.45938 0
M  V30 13531 C 1218.92 1.68688 -1.55168 0
M  V30 13532 C 1219.92 1.54945 -0.429951 0
M  V30 13533 O 1221.11 1.59785 -0.693859 0
M  V30 13534 C 1218.24 3.0804 -1.46027 0
M  V30 13535 H 1219.43 1.61866 -2.52467 0
M  V30 13536 H 1216.99 0.811785 -1.33565 0
M  V30 13537 H 1217.72 3.20428 -0.499614 0
M  V30 13538 H 1217.51 3.19423 -2.27401 0
M  V30 13539 H 1219 3.8755 -1.55546 0
M  V30 13540 N 1219.43 1.33438 0.838571 0
M  V30 13541 C 1220.36 1.19552 1.9555 0
M  V30 13542 C 1221.38 0.12642 1.62308 0
M  V30 13543 O 1222.57 0.376868 1.74476 0
M  V30 13544 C 1219.67 0.811273 3.29046 0
M  V30 13545 C 1218.84 1.97207 3.9042 0
M  V30 13546 C 1217.9 1.56875 5.02271 0
M  V30 13547 O 1216.92 2.28314 5.21403 0
M  V30 13548 N 1218.13 0.473924 5.78562 0
M  V30 13549 H 1220.89 2.15769 2.07999 0
M  V30 13550 H 1218.45 1.26187 1.01432 0
M  V30 13551 H 1220.44 0.523553 4.01299 0
M  V30 13552 H 1219.01 -0.0602291 3.12542 0
M  V30 13553 H 1218.23 2.4254 3.10754 0
M  V30 13554 H 1219.52 2.74878 4.28158 0
M  V30 13555 H 1218.92 -0.120306 5.65572 0
M  V30 13556 H 1217.48 0.245877 6.51336 0
M  V30 13557 N 1220.91 -1.05686 1.16912 0
M  V30 13558 C 1221.86 -2.11584 0.849483 0
M  V30 13559 C 1222.84 -1.59959 -0.173774 0
M  V30 13560 O 1224.04 -1.76978 0.0279436 0
M  V30 13561 C 1221.17 -3.41417 0.359079 0
M  V30 13562 C 1220.25 -3.99852 1.41347 0
M  V30 13563 N 1220.64 -4.32317 2.62557 0
M  V30 13564 C 1218.94 -4.27531 1.27017 0
M  V30 13565 C 1219.64 -4.7885 3.30269 0
M  V30 13566 N 1218.62 -4.78664 2.57647 0
M  V30 13567 H 1222.42 -2.34539 1.77112 0
M  V30 13568 H 1219.93 -1.23286 1.05708 0
M  V30 13569 H 1221.93 -4.1675 0.111666 0
M  V30 13570 H 1220.59 -3.19897 -0.556413 0
M  V30 13571 H 1221.6 -4.22472 2.99563 0
M  V30 13572 H 1218.28 -4.15423 0.415924 0
M  V30 13573 H 1219.67 -5.13123 4.33768 0
M  V30 13574 N 1222.39 -0.968567 -1.24324 0
M  V30 13575 C 1223.67 -0.547774 -1.87773 0
M  V30 13576 C 1224.05 0.975107 -1.87229 0
M  V30 13577 O 1223.39 1.84683 -1.34553 0
M  V30 13578 C 1223.6 -1.1403 -3.29846 0
M  V30 13579 C 1224.95 -1.22572 -4.06523 0
M  V30 13580 O 1225.98 -1.09287 -3.3902 0
M  V30 13581 O 1224.83 -1.43579 -5.27302 0
M  V30 13582 H 1221.93 -0.182771 -0.806551 0
M  V30 13583 H 1224.47 -1.06289 -1.3229 0
M  V30 13584 H 1223.25 -2.18303 -3.24745 0
M  V30 13585 H 1222.87 -0.609275 -3.92904 0
M  V30 13586 N 1223.87 1.39211 -0.738786 0
M  V30 13587 C 1225.28 1.54116 -0.414773 0
M  V30 13588 C 1225.48 1.70497 1.07392 0
M  V30 13589 O 1224.54 1.7076 1.86003 0
M  V30 13590 C 1225.85 2.7567 -1.2011 0
M  V30 13591 C 1227.4 2.89508 -1.1897 0
M  V30 13592 C 1227.87 4.14005 -1.95868 0
M  V30 13593 N 1229.37 4.21052 -1.93053 0
M  V30 13594 C 1230.1 5.16341 -2.49358 0
M  V30 13595 N 1229.6 6.17396 -3.14316 0
M  V30 13596 N 1231.39 5.08585 -2.3937 0
M  V30 13597 H 1223.54 1.26827 -1.70378 0
M  V30 13598 H 1225.8 0.614983 -0.721457 0
M  V30 13599 H 1225.51 2.69922 -2.25467 0
M  V30 13600 H 1225.38 3.68443 -0.808065 0
M  V30 13601 H 1227.77 2.94747 -0.144248 0
M  V30 13602 H 1227.85 1.97788 -1.62214 0
M  V30 13603 H 1227.5 4.09527 -3.00416 0
M  V30 13604 H 1227.43 5.04776 -1.50028 0
M  V30 13605 H 1229.92 3.48669 -1.45733 0
M  V30 13606 H 1230.23 6.86572 -3.54737 0
M  V30 13607 H 1228.57 6.17772 -3.18407 0
M  V30 13608 H 1231.77 4.28573 -1.88262 0
M  V30 13609 H 1231.94 5.8267 -2.83549 0
M  V30 13610 N 1225.34 0.486708 1.49896 0
M  V30 13611 C 1226.25 -0.304222 2.32619 0
M  V30 13612 C 1227.27 -0.981103 1.43702 0
M  V30 13613 O 1228.45 -0.965639 1.76741 0
M  V30 13614 C 1225.51 -1.36301 3.18783 0
M  V30 13615 C 1224.57 -0.701082 4.23537 0
M  V30 13616 C 1223.81 -1.70943 5.05583 0
M  V30 13617 O 1224.03 -2.93773 4.88931 0
M  V30 13618 O 1222.96 -1.27263 5.88292 0
M  V30 13619 H 1226.79 0.37248 3.01407 0
M  V30 13620 H 1224.37 0.248277 1.47323 0
M  V30 13621 H 1226.26 -1.97594 3.72202 0
M  V30 13622 H 1224.93 -2.0229 2.52706 0
M  V30 13623 H 1223.84 -0.0487926 3.74068 0
M  V30 13624 H 1225.17 -0.0838817 4.92129 0
M  V30 13625 N 1226.82 -1.56058 0.219941 0
M  V30 13626 C 1227.75 -2.2321 -0.685547 0
M  V30 13627 C 1228.73 -1.20328 -1.20229 0
M  V30 13628 O 1229.92 -1.48909 -1.24659 0
M  V30 13629 C 1227.05 -2.91076 -1.89452 0
M  V30 13630 C 1226 -4.00415 -1.51169 0
M  V30 13631 C 1225.33 -4.55569 -2.79931 0
M  V30 13632 C 1226.63 -5.17549 -0.702896 0
M  V30 13633 H 1228.32 -2.99136 -0.125671 0
M  V30 13634 H 1225.87 -1.43879 -0.0590043 0
M  V30 13635 H 1227.82 -3.36744 -2.53341 0
M  V30 13636 H 1226.55 -2.12594 -2.47934 0
M  V30 13637 H 1225.21 -3.55475 -0.896275 0
M  V30 13638 H 1224.85 -3.73819 -3.36553 0
M  V30 13639 H 1224.55 -5.29361 -2.55049 0
M  V30 13640 H 1226.08 -5.03955 -3.44764 0
M  V30 13641 H 1227.49 -5.59608 -1.24544 0
M  V30 13642 H 1225.89 -5.97563 -0.551234 0
M  V30 13643 H 1226.96 -4.84027 0.29083 0
M  V30 13644 N 1228.3 0.053464 -1.57509 0
M  V30 13645 C 1229.72 0.408651 -1.5428 0
M  V30 13646 C 1229.92 1.78086 -0.942735 0
M  V30 13647 O 1228.97 2.46366 -0.553163 0
M  V30 13648 C 1230.29 0.332884 -2.98852 0
M  V30 13649 C 1231.83 0.411745 -3.1028 0
M  V30 13650 C 1232.31 0.365691 -4.56538 0
M  V30 13651 N 1233.8 0.425222 -4.61244 0
M  V30 13652 C 1234.54 0.412093 -5.71917 0
M  V30 13653 N 1234.03 0.352693 -6.91902 0
M  V30 13654 N 1235.82 0.460016 -5.60214 0
M  V30 13655 H 1227.98 -0.844834 -1.94875 0
M  V30 13656 H 1230.24 -0.318888 -0.892757 0
M  V30 13657 H 1229.94 -0.609116 -3.46385 0
M  V30 13658 H 1229.82 1.13605 -3.59686 0
M  V30 13659 H 1232.21 1.34417 -2.62709 0
M  V30 13660 H 1232.29 -0.420333 -2.52323 0
M  V30 13661 H 1231.93 -0.562963 -5.0477 0
M  V30 13662 H 1231.86 1.21555 -5.12379 0
M  V30 13663 H 1234.35 0.474634 -3.74908 0
M  V30 13664 H 1234.66 0.347105 -7.7202 0
M  V30 13665 H 1233.01 0.319104 -6.94267 0
M  V30 13666 H 1236.2 0.504242 -4.65376 0
M  V30 13667 H 1236.37 0.446315 -6.46461 0
M  V30 13668 N 1229.78 1.54207 0.325255 0
M  V30 13669 C 1230.69 1.86495 1.42326 0
M  V30 13670 C 1231.71 0.756718 1.56684 0
M  V30 13671 O 1232.88 1.05084 1.71812 0
M  V30 13672 C 1229.95 2.08414 2.77064 0
M  V30 13673 C 1229.01 3.32221 2.71897 0
M  V30 13674 C 1228.24 3.53085 4.00209 0
M  V30 13675 O 1228.46 2.77421 4.98391 0
M  V30 13676 O 1227.4 4.46559 4.0357 0
M  V30 13677 H 1231.22 2.79859 1.17951 0
M  V30 13678 H 1228.81 1.40091 0.519124 0
M  V30 13679 H 1230.69 2.24171 3.56827 0
M  V30 13680 H 1229.37 1.18238 3.01333 0
M  V30 13681 H 1228.27 3.21851 1.90691 0
M  V30 13682 H 1229.61 4.22449 2.52582 0
M  V30 13683 N 1231.26 -0.58723 1.46251 0
M  V30 13684 C 1232.19 -1.70694 1.5933 0
M  V30 13685 C 1233.17 -1.64208 0.443831 0
M  V30 13686 O 1234.35 -1.82294 0.669516 0
M  V30 13687 C 1231.48 -3.0933 1.579 0
M  V30 13688 C 1230.44 -3.30643 2.7177 0
M  V30 13689 C 1229.76 -4.69761 2.554 0
M  V30 13690 C 1231.06 -3.18916 4.1363 0
M  V30 13691 H 1232.76 -1.60004 2.53059 0
M  V30 13692 H 1230.3 -0.768343 1.21789 0
M  V30 13693 H 1232.26 -3.87479 1.65644 0
M  V30 13694 H 1230.98 -3.20907 0.60712 0
M  V30 13695 H 1229.64 -2.54892 2.63488 0
M  V30 13696 H 1229.29 -4.78098 1.56306 0
M  V30 13697 H 1228.99 -4.84974 3.31774 0
M  V30 13698 H 1230.51 -5.50084 2.65028 0
M  V30 13699 H 1231.93 -3.86915 4.23048 0
M  V30 13700 H 1230.32 -3.45653 4.90555 0
M  V30 13701 H 1231.39 -2.1606 4.34104 0
M  V30 13702 N 1232.74 -1.33881 -0.831482 0
M  V30 13703 C 1233.65 -1.26802 -1.97379 0
M  V30 13704 C 1234.66 -0.177233 -1.73095 0
M  V30 13705 O 1235.84 -0.402163 -1.97344 0
M  V30 13706 C 1232.9 -1.01474 -3.31517 0
M  V30 13707 C 1231.96 -2.19626 -3.68867 0
M  V30 13708 C 1231.2 -1.95497 -4.96605 0
M  V30 13709 O 1231.42 -0.908948 -5.63111 0
M  V30 13710 O 1230.35 -2.82226 -5.31632 0
M  V30 13711 H 1234.18 -2.22883 -2.06293 0
M  V30 13712 H 1231.76 -1.14001 -0.965613 0
M  V30 13713 H 1233.65 -0.890954 -4.11874 0
M  V30 13714 H 1232.32 -0.0842656 -3.2359 0
M  V30 13715 H 1231.23 -2.37561 -2.88991 0
M  V30 13716 H 1232.56 -3.11034 -3.81469 0
M  V30 13717 N 1234.21 1.05064 -1.1747 0
M  V30 13718 C 1235.15 2.12842 -0.850344 0
M  V30 13719 C 1236.16 1.62128 0.147796 0
M  V30 13720 O 1237.35 1.78327 -0.0786774 0
M  V30 13721 C 1234.45 3.37995 -0.247486 0
M  V30 13722 C 1233.62 4.17981 -1.28881 0
M  V30 13723 C 1232.68 5.21476 -0.703476 0
M  V30 13724 O 1231.71 5.52327 -1.37561 0
M  V30 13725 N 1232.91 5.78309 0.50387 0
M  V30 13726 H 1235.67 2.41264 -1.77797 0
M  V30 13727 H 1233.23 1.21172 -1.07373 0
M  V30 13728 H 1235.23 4.04394 0.157424 0
M  V30 13729 H 1233.8 3.07097 0.583952 0
M  V30 13730 H 1233.02 3.47054 -1.86942 0
M  V30 13731 H 1234.3 4.6822 -1.99116 0
M  V30 13732 H 1233.7 5.5553 1.06787 0
M  V30 13733 H 1232.26 6.46223 0.850828 0
M  V30 13734 N 1235.69 0.975146 1.23809 0
M  V30 13735 C 1237.11 0.682899 1.44252 0
M  V30 13736 C 1237.31 -0.752739 1.86912 0
M  V30 13737 O 1236.36 -1.52579 2.01186 0
M  V30 13738 C 1237.68 1.67335 2.49839 0
M  V30 13739 C 1239.22 1.6868 2.63659 0
M  V30 13740 C 1239.7 2.66542 3.72451 0
M  V30 13741 N 1241.19 2.65028 3.79887 0
M  V30 13742 C 1241.93 3.37421 4.63611 0
M  V30 13743 N 1241.42 4.19355 5.51465 0
M  V30 13744 N 1243.21 3.2621 4.57759 0
M  V30 13745 H 1235.37 1.9026 0.94418 0
M  V30 13746 H 1237.63 0.819543 0.476502 0
M  V30 13747 H 1237.33 2.69978 2.25399 0
M  V30 13748 H 1237.21 1.45201 3.48133 0
M  V30 13749 H 1239.6 0.667438 2.87453 0
M  V30 13750 H 1239.68 1.94878 1.65699 0
M  V30 13751 H 1239.32 3.68617 3.49405 0
M  V30 13752 H 1239.25 2.3762 4.69941 0
M  V30 13753 H 1241.74 2.05562 3.171 0
M  V30 13754 H 1242.05 4.71461 6.12327 0
M  V30 13755 H 1240.4 4.23447 5.51106 0
M  V30 13756 H 1243.59 2.61656 3.88142 0
M  V30 13757 H 1243.76 3.82889 5.22781 0
M  V30 13758 N 1237.17 -1.38817 0.746158 0
M  V30 13759 C 1238.42 -2.00577 0.299458 0
M  V30 13760 C 1238.75 -1.59087 -1.11378 0
M  V30 13761 O 1238.02 -0.824932 -1.7614 0
M  V30 13762 C 1238.31 -3.57713 0.413932 0
M  V30 13763 C 1238.16 -4.09189 1.86774 0
M  V30 13764 C 1239.48 -4.39659 -0.197082 0
M  V30 13765 H 1236.6 -0.728702 0.110285 0
M  V30 13766 H 1239.24 -1.64866 0.944408 0
M  V30 13767 H 1237.39 -3.88265 -0.135155 0
M  V30 13768 H 1239.06 -3.89311 2.47456 0
M  V30 13769 H 1237.3 -3.62333 2.38532 0
M  V30 13770 H 1237.98 -5.18305 1.89904 0
M  V30 13771 H 1240.45 -4.15216 0.271121 0
M  V30 13772 H 1239.33 -5.48832 -0.0867011 0
M  V30 13773 H 1239.59 -4.23028 -1.2845 0
M  V30 13774 N 1238.65 -0.49465 -1.49636 0
M  V30 13775 C 1239.87 0.051305 -2.07337 0
M  V30 13776 C 1240.3 1.30637 -1.35335 0
M  V30 13777 O 1239.66 1.76647 -0.408126 0
M  V30 13778 C 1239.7 0.294425 -3.59396 0
M  V30 13779 O 1238.81 1.3704 -3.88965 0
M  V30 13780 H 1238.15 -0.023408 -0.663587 0
M  V30 13781 H 1240.68 -0.692451 -1.92526 0
M  V30 13782 H 1240.69 0.527854 -4.04571 0
M  V30 13783 H 1239.36 -0.622583 -4.11214 0
M  V30 13784 H 1237.94 1.12242 -3.55607 0
M  V30 13785 N 1240.13 1.55939 -0.228214 0
M  V30 13786 C 1241.06 2.2357 0.6737 0
M  V30 13787 C 1242.04 1.20964 1.1959 0
M  V30 13788 O 1243.22 1.49568 1.23867 0
M  V30 13789 C 1240.35 2.92076 1.87906 0
M  V30 13790 C 1239.31 4.01211 1.49043 0
M  V30 13791 C 1238.63 4.57047 2.77511 0
M  V30 13792 C 1239.93 5.17914 0.67544 0
M  V30 13793 H 1241.63 2.99199 0.109806 0
M  V30 13794 H 1239.17 1.43908 0.0513732 0
M  V30 13795 H 1241.12 3.38083 2.51551 0
M  V30 13796 H 1239.85 2.13906 2.46803 0
M  V30 13797 H 1238.51 3.55945 0.877411 0
M  V30 13798 H 1238.16 3.75599 3.34566 0
M  V30 13799 H 1237.86 5.30707 2.52239 0
M  V30 13800 H 1239.38 5.05776 3.42087 0
M  V30 13801 H 1240.79 5.60261 1.21575 0
M  V30 13802 H 1239.19 5.97847 0.519536 0
M  V30 13803 H 1240.26 4.83866 -0.316495 0
M  V30 13804 N 1241.6 -0.0451101 1.57535 0
M  V30 13805 C 1243.02 -0.400463 1.54494 0
M  V30 13806 C 1243.22 -1.77584 0.952166 0
M  V30 13807 O 1242.28 -2.46069 0.566221 0
M  V30 13808 C 1243.59 -0.31703 2.99024 0
M  V30 13809 C 1245.14 -0.395284 3.10494 0
M  V30 13810 C 1245.61 -0.341475 4.56725 0
M  V30 13811 N 1247.1 -0.400755 4.61463 0
M  V30 13812 C 1247.84 -0.381757 5.72128 0
M  V30 13813 N 1247.33 -0.315995 6.92079 0
M  V30 13814 N 1249.13 -0.4303 5.60451 0
M  V30 13815 H 1241.28 0.855156 1.94424 0
M  V30 13816 H 1243.54 0.323618 0.891053 0
M  V30 13817 H 1243.25 0.627477 3.46057 0
M  V30 13818 H 1243.12 -1.11696 3.60283 0
M  V30 13819 H 1245.51 -1.33022 2.63418 0
M  V30 13820 H 1245.59 0.433709 2.52096 0
M  V30 13821 H 1245.23 0.589725 5.04465 0
M  V30 13822 H 1245.16 -1.18836 5.13016 0
M  V30 13823 H 1247.65 -0.454745 3.75154 0
M  V30 13824 H 1247.97 -0.306158 7.72193 0
M  V30 13825 H 1246.31 -0.282281 6.94427 0
M  V30 13826 H 1249.5 -0.479555 4.65637 0
M  V30 13827 H 1249.68 -0.412025 6.46689 0
M  V30 13828 N 1243.08 -1.54377 -0.317073 0
M  V30 13829 C 1244.5 -1.45232 -0.6618 0
M  V30 13830 C 1244.7 -0.630457 -1.91383 0
M  V30 13831 O 1243.75 -0.13181 -2.52156 0
M  V30 13832 C 1245.07 -2.89025 -0.829761 0
M  V30 13833 C 1246.62 -2.98967 -0.926685 0
M  V30 13834 C 1247.09 -4.43923 -1.12677 0
M  V30 13835 N 1248.58 -4.47564 -1.19335 0
M  V30 13836 C 1249.32 -5.56887 -1.36617 0
M  V30 13837 N 1248.81 -6.76167 -1.50899 0
M  V30 13838 N 1250.61 -5.44546 -1.39377 0
M  V30 13839 H 1242.76 -2.0629 0.505766 0
M  V30 13840 H 1245.02 -0.933615 0.164522 0
M  V30 13841 H 1244.73 -3.51695 0.0190945 0
M  V30 13842 H 1244.6 -3.35515 -1.72364 0
M  V30 13843 H 1246.99 -2.36421 -1.76604 0
M  V30 13844 H 1247.07 -2.55798 -0.00913402 0
M  V30 13845 H 1246.71 -5.07059 -0.29224 0
M  V30 13846 H 1246.64 -4.84708 -2.05829 0
M  V30 13847 H 1249.13 -3.61623 -1.09715 0
M  V30 13848 H 1249.45 -7.55242 -1.63796 0
M  V30 13849 H 1247.79 -6.79062 -1.47985 0
M  V30 13850 H 1250.98 -4.50311 -1.27819 0
M  V30 13851 H 1251.15 -6.29799 -1.52502 0
M  V30 13852 N 1244.56 0.579466 -1.4656 0
M  V30 13853 C 1245.52 1.67033 -1.56948 0
M  V30 13854 C 1246.52 1.54481 -0.446361 0
M  V30 13855 O 1247.71 1.5904 -0.710767 0
M  V30 13856 C 1244.85 3.06474 -1.49286 0
M  V30 13857 H 1246.04 1.59179 -2.54169 0
M  V30 13858 H 1243.59 0.797573 -1.34419 0
M  V30 13859 H 1244.33 3.1988 -0.533572 0
M  V30 13860 H 1244.11 3.16993 -2.30776 0
M  V30 13861 H 1245.6 3.85879 -1.59648 0
M  V30 13862 N 1246.04 1.3432 0.824371 0
M  V30 13863 C 1246.97 1.2842 1.95014 0
M  V30 13864 C 1247.95 0.161925 1.69328 0
M  V30 13865 O 1249.13 0.354052 1.90945 0
M  V30 13866 C 1246.26 1.03741 3.31444 0
M  V30 13867 C 1245.22 2.12419 3.71567 0
M  V30 13868 C 1244.54 1.72931 5.05963 0
M  V30 13869 C 1245.84 3.54235 3.83817 0
M  V30 13870 H 1247.54 2.22614 2.00209 0
M  V30 13871 H 1245.08 1.07165 0.961856 0
M  V30 13872 H 1247.04 0.982586 4.09784 0
M  V30 13873 H 1245.76 0.0598892 3.26545 0
M  V30 13874 H 1244.42 2.16968 2.955 0
M  V30 13875 H 1244.07 0.738433 4.9755 0
M  V30 13876 H 1243.77 2.45668 5.3378 0
M  V30 13877 H 1245.29 1.68941 5.86763 0
M  V30 13878 H 1246.71 3.52106 4.52432 0
M  V30 13879 H 1245.1 4.25581 4.23085 0
M  V30 13880 H 1246.17 3.91682 2.85856 0
M  V30 13881 N 1247.52 -1.0444 1.18026 0
M  V30 13882 C 1248.45 -2.14297 0.927314 0
M  V30 13883 C 1249.43 -1.69575 -0.13357 0
M  V30 13884 O 1250.61 -1.94191 0.0182439 0
M  V30 13885 C 1247.74 -3.44397 0.448134 0
M  V30 13886 C 1246.7 -4.02723 1.44907 0
M  V30 13887 C 1246.02 -5.28257 0.827555 0
M  V30 13888 C 1247.32 -4.39331 2.82463 0
M  V30 13889 H 1249.02 -2.35715 1.84605 0
M  V30 13890 H 1246.56 -1.13281 0.889012 0
M  V30 13891 H 1248.52 -4.20606 0.258554 0
M  V30 13892 H 1247.24 -3.22654 -0.506159 0
M  V30 13893 H 1245.9 -3.28591 1.62552 0
M  V30 13894 H 1245.55 -5.02822 -0.13381 0
M  V30 13895 H 1245.25 -5.68242 1.49581 0
M  V30 13896 H 1246.77 -6.07147 0.64842 0
M  V30 13897 H 1248.18 -5.06543 2.68491 0
M  V30 13898 H 1246.58 -4.90355 3.45936 0
M  V30 13899 H 1247.65 -3.4933 3.36299 0
M  V30 13900 N 1248.99 -0.981699 -1.2329 0
M  V30 13901 C 1249.9 -0.531296 -2.28505 0
M  V30 13902 C 1250.92 0.414531 -1.6899 0
M  V30 13903 O 1252.1 0.284129 -1.99386 0
M  V30 13904 C 1249.16 0.157864 -3.4634 0
M  V30 13905 C 1248.22 -0.829527 -4.21209 0
M  V30 13906 C 1247.46 -0.17316 -5.33419 0
M  V30 13907 O 1247.68 1.03549 -5.60922 0
M  V30 13908 O 1246.61 -0.872385 -5.95544 0
M  V30 13909 H 1250.44 -1.40633 -2.69177 0
M  V30 13910 H 1248.02 -0.749395 -1.29246 0
M  V30 13911 H 1249.91 0.544394 -4.17869 0
M  V30 13912 H 1248.58 1.00764 -3.07617 0
M  V30 13913 H 1247.49 -1.26678 -3.51999 0
M  V30 13914 H 1248.82 -1.64815 -4.63785 0
M  V30 13915 N 1250.47 1.3842 -0.753509 0
M  V30 13916 C 1251.4 2.29039 -0.0859463 0
M  V30 13917 C 1252.42 1.47742 0.68383 0
M  V30 13918 O 1253.61 1.70607 0.524933 0
M  V30 13919 C 1250.71 3.26668 0.902296 0
M  V30 13920 C 1249.88 4.36986 0.190178 0
M  V30 13921 C 1248.94 5.14805 1.08916 0
M  V30 13922 O 1247.96 5.66441 0.559715 0
M  V30 13923 N 1249.17 5.27777 2.41726 0
M  V30 13924 H 1251.93 2.8697 -0.864196 0
M  V30 13925 H 1249.49 1.502 -0.604288 0
M  V30 13926 H 1251.48 3.75606 1.50672 0
M  V30 13927 H 1250.05 2.69636 1.58163 0
M  V30 13928 H 1249.27 3.89684 -0.594959 0
M  V30 13929 H 1250.56 5.07899 -0.302594 0
M  V30 13930 H 1249.96 4.87376 2.87196 0
M  V30 13931 H 1248.52 5.8009 2.97219 0
M  V30 13932 N 1251.95 0.502579 1.49372 0
M  V30 13933 C 1252.9 -0.275004 2.29156 0
M  V30 13934 C 1253.87 -0.95892 1.35624 0
M  V30 13935 O 1255.05 -0.965276 1.64581 0
M  V30 13936 C 1252.19 -1.33255 3.18335 0
M  V30 13937 C 1251.31 -0.660248 4.26925 0
M  V30 13938 C 1250.44 -1.69837 5.03318 0
M  V30 13939 C 1249.48 -1.00802 6.03743 0
M  V30 13940 N 1248.62 -1.99042 6.73295 0
M  V30 13941 H 1253.46 0.411599 2.95144 0
M  V30 13942 H 1250.99 0.214824 1.45523 0
M  V30 13943 H 1252.95 -1.95769 3.68416 0
M  V30 13944 H 1251.58 -1.98789 2.54328 0
M  V30 13945 H 1250.63 0.0782181 3.8032 0
M  V30 13946 H 1251.95 -0.11689 4.98663 0
M  V30 13947 H 1251.1 -2.39852 5.57275 0
M  V30 13948 H 1249.84 -2.27558 4.31357 0
M  V30 13949 H 1248.84 -0.293654 5.49015 0
M  V30 13950 H 1250.07 -0.437285 6.77691 0
M  V30 13951 H 1248.01 -2.55722 6.04104 0
M  V30 13952 H 1247.93 -1.49776 7.41015 0
M  V30 13953 H 1249.2 -2.6834 7.31856 0
M  V30 13954 N 1253.43 -1.55816 0.23648 0
M  V30 13955 C 1254.68 -1.97862 -0.391579 0
M  V30 13956 C 1254.99 -1.1276 -1.59827 0
M  V30 13957 O 1256.2 -1.44772 -2.29681 0
M  V30 13958 C 1254.65 -3.5204 -0.748065 0
M  V30 13959 C 1254.26 -4.45867 0.436643 0
M  V30 13960 C 1256 -4.02766 -1.3409 0
M  V30 13961 C 1253.91 -5.91373 0.0568909 0
M  V30 13962 H 1252.84 -0.738913 -0.150078 0
M  V30 13963 H 1255.49 -1.80415 0.335052 0
M  V30 13964 H 1253.87 -3.65143 -1.53254 0
M  V30 13965 H 1255.05 -4.44519 1.21408 0
M  V30 13966 H 1253.36 -4.05565 0.943702 0
M  V30 13967 H 1255.96 -5.08987 -1.63817 0
M  V30 13968 H 1256.3 -3.49496 -2.26182 0
M  V30 13969 H 1256.84 -3.92946 -0.619548 0
M  V30 13970 H 1253.58 -6.48657 0.944682 0
M  V30 13971 H 1253.1 -5.95881 -0.684557 0
M  V30 13972 H 1254.77 -6.45972 -0.364586 0
M  V30 13973 N 1254.91 0.036755 -1.57557 0
M  V30 13974 C 1255.82 1.05687 -2.09446 0
M  V30 13975 C 1256.83 1.40137 -1.03139 0
M  V30 13976 O 1258.01 1.49611 -1.34828 0
M  V30 13977 C 1255.07 2.34114 -2.55717 0
M  V30 13978 C 1254.13 2.06316 -3.76473 0
M  V30 13979 C 1253.37 3.2862 -4.20529 0
M  V30 13980 O 1253.59 4.3902 -3.64167 0
M  V30 13981 O 1252.52 3.14772 -5.13033 0
M  V30 13982 H 1256.35 0.64593 -2.96751 0
M  V30 13983 H 1253.94 0.253235 -1.47238 0
M  V30 13984 H 1255.82 3.09631 -2.85844 0
M  V30 13985 H 1254.49 2.74519 -1.71526 0
M  V30 13986 H 1253.4 1.28392 -3.51378 0
M  V30 13987 H 1254.73 1.70772 -4.61625 0
M  V30 13988 N 1256.39 1.54543 0.308881 0
M  V30 13989 C 1257.3 1.87994 1.4034 0
M  V30 13990 C 1258.31 0.773294 1.55872 0
M  V30 13991 O 1259.49 1.069 1.70688 0
M  V30 13992 C 1256.55 2.11341 2.74838 0
M  V30 13993 C 1255.61 3.35086 2.68358 0
M  V30 13994 C 1254.85 3.5731 3.96441 0
M  V30 13995 O 1255.07 2.82692 4.9542 0
M  V30 13996 O 1254 4.50814 3.98811 0
M  V30 13997 H 1257.83 2.81094 1.14976 0
M  V30 13998 H 1255.41 1.40634 0.504236 0
M  V30 13999 H 1257.3 2.27943 3.54429 0
M  V30 14000 H 1255.97 1.21427 3.00062 0
M  V30 14001 H 1254.88 3.23855 1.87267 0
M  V30 14002 H 1256.21 4.25104 2.48087 0
M  V30 14003 N 1257.86 -0.571685 1.46866 0
M  V30 14004 C 1258.77 -1.70758 1.60869 0
M  V30 14005 C 1259.79 -1.66903 0.49186 0
M  V30 14006 O 1260.97 -1.86613 0.757468 0
M  V30 14007 C 1258.03 -3.07267 1.60586 0
M  V30 14008 C 1257.09 -3.22301 2.83585 0
M  V30 14009 C 1256.32 -4.52298 2.83306 0
M  V30 14010 O 1256.55 -5.36869 1.92685 0
M  V30 14011 O 1255.48 -4.70814 3.7499 0
M  V30 14012 H 1259.31 -1.6189 2.56954 0
M  V30 14013 H 1256.89 -0.740018 1.29785 0
M  V30 14014 H 1258.77 -3.8853 1.63163 0
M  V30 14015 H 1257.45 -3.16549 0.676637 0
M  V30 14016 H 1256.36 -2.4049 2.86558 0
M  V30 14017 H 1257.69 -3.17916 3.75753 0
M  V30 14018 N 1259.34 -1.34755 -0.817236 0
M  V30 14019 C 1260.27 -1.21147 -1.93387 0
M  V30 14020 C 1261.25 -0.101788 -1.62281 0
M  V30 14021 O 1262.44 -0.267968 -1.86586 0
M  V30 14022 C 1259.56 -0.86301 -3.27521 0
M  V30 14023 C 1258.61 -1.98325 -3.77584 0
M  V30 14024 S 1259.44 -3.59751 -3.9666 0
M  V30 14025 C 1260.6 -3.26959 -5.33712 0
M  V30 14026 H 1260.83 -2.15667 -2.04634 0
M  V30 14027 H 1258.36 -1.19848 -0.973441 0
M  V30 14028 H 1260.32 -0.668754 -4.05016 0
M  V30 14029 H 1258.98 0.0639417 -3.14035 0
M  V30 14030 H 1258.18 -1.69332 -4.74703 0
M  V30 14031 H 1257.78 -2.13529 -3.07053 0
M  V30 14032 H 1260.07 -2.79126 -6.17329 0
M  V30 14033 H 1261.01 -4.23238 -5.67693 0
M  V30 14034 H 1261.42 -2.62996 -4.99493 0
M  V30 14035 N 1260.82 1.03812 -1.18578 0
M  V30 14036 C 1261.75 2.13802 -0.938665 0
M  V30 14037 C 1262.73 1.69643 0.124575 0
M  V30 14038 O 1263.92 1.94179 -0.0285421 0
M  V30 14039 C 1261.05 3.44154 -0.466392 0
M  V30 14040 C 1260 4.01949 -1.47041 0
M  V30 14041 C 1259.33 5.27811 -0.855558 0
M  V30 14042 C 1260.63 4.37827 -2.84789 0
M  V30 14043 H 1262.32 2.34732 -1.85852 0
M  V30 14044 H 1259.87 1.12808 -0.895007 0
M  V30 14045 H 1261.82 4.20463 -0.280856 0
M  V30 14046 H 1260.54 3.22918 0.489041 0
M  V30 14047 H 1259.2 3.27725 -1.64293 0
M  V30 14048 H 1258.85 5.02886 0.107142 0
M  V30 14049 H 1258.55 5.67441 -1.52592 0
M  V30 14050 H 1260.07 6.06795 -0.680609 0
M  V30 14051 H 1261.49 5.05112 -2.71173 0
M  V30 14052 H 1259.88 4.88514 -3.48532 0
M  V30 14053 H 1260.95 3.47541 -3.38147 0
M  V30 14054 N 1262.3 0.988223 1.22768 0
M  V30 14055 C 1263.26 0.539813 2.22752 0
M  V30 14056 C 1264.26 -0.374796 1.56371 0
M  V30 14057 O 1265.45 -0.167402 1.73394 0
M  V30 14058 C 1262.58 -0.215461 3.40218 0
M  V30 14059 H 1263.78 1.42397 2.63938 0
M  V30 14060 H 1261.33 0.774933 1.35737 0
M  V30 14061 H 1262.06 -1.11581 3.045 0
M  V30 14062 H 1261.85 0.441173 3.8961 0
M  V30 14063 H 1263.34 -0.517517 4.14381 0
M  V30 14064 N 1263.78 -1.38018 0.760839 0
M  V30 14065 C 1264.71 -2.32995 0.153557 0
M  V30 14066 C 1265.69 -1.55234 -0.695448 0
M  V30 14067 O 1266.87 -1.8352 -0.635148 0
M  V30 14068 C 1264 -3.39437 -0.734811 0
M  V30 14069 C 1262.96 -4.27998 0.0120287 0
M  V30 14070 C 1262.28 -5.25359 -0.995067 0
M  V30 14071 C 1263.58 -5.08687 1.18468 0
M  V30 14072 H 1265.28 -2.8403 0.946956 0
M  V30 14073 H 1262.82 -1.36562 0.456816 0
M  V30 14074 H 1264.77 -4.0485 -1.16938 0
M  V30 14075 H 1263.5 -2.86901 -1.56061 0
M  V30 14076 H 1262.16 -3.64102 0.427254 0
M  V30 14077 H 1261.81 -4.69108 -1.81512 0
M  V30 14078 H 1261.51 -5.85469 -0.499969 0
M  V30 14079 H 1263.03 -5.93648 -1.4288 0
M  V30 14080 H 1264.44 -5.67299 0.8273 0
M  V30 14081 H 1262.84 -5.78068 1.61112 0
M  V30 14082 H 1263.91 -4.42 1.99409 0
M  V30 14083 N 1265.25 -0.510493 -1.49103 0
M  V30 14084 C 1266.19 0.299697 -2.27232 0
M  V30 14085 C 1267.2 0.922102 -1.34168 0
M  V30 14086 O 1268.39 0.803836 -1.59376 0
M  V30 14087 C 1265.49 1.43778 -3.06889 0
M  V30 14088 C 1264.66 0.920927 -4.27595 0
M  V30 14089 C 1263.72 1.93777 -4.89221 0
M  V30 14090 O 1262.75 1.5025 -5.49011 0
M  V30 14091 N 1263.95 3.2688 -4.79718 0
M  V30 14092 H 1266.71 -0.37028 -2.97404 0
M  V30 14093 H 1264.27 -0.343617 -1.58212 0
M  V30 14094 H 1266.27 2.11577 -3.44988 0
M  V30 14095 H 1264.84 2.01175 -2.39264 0
M  V30 14096 H 1264.06 0.0675358 -3.94142 0
M  V30 14097 H 1265.34 0.554168 -5.05773 0
M  V30 14098 H 1264.74 3.64924 -4.32258 0
M  V30 14099 H 1263.3 3.90366 -5.21974 0
M  V30 14100 N 1266.73 1.55688 -0.24474 0
M  V30 14101 C 1267.68 2.22682 0.67198 0
M  V30 14102 C 1268.67 1.21369 1.18178 0
M  V30 14103 O 1269.88 1.39387 1.13892 0
M  V30 14104 H 1266.25 0.714279 0.235181 0
M  V30 14105 H 1268.23 2.98282 0.0837704 0
M  V30 14106 C 1266.97 2.93835 1.85893 0
M  V30 14107 H 1266.3 3.71565 1.4758 0
M  V30 14108 H 1267.74 3.44077 2.47764 0
M  V30 14109 C 1266.2 1.97589 2.72874 0
M  V30 14110 O 1266.73 1.50758 3.72337 0
M  V30 14111 N 1264.93 1.64737 2.39395 0
M  V30 14112 H 1264.48 2.03015 1.58564 0
M  V30 14113 H 1264.44 1.00605 2.97869 0
M  V30 14114 N 1268.21 -0.0283989 1.57574 0
M  V30 14115 C 1269.12 -1.04575 2.10003 0
M  V30 14116 C 1270.14 -1.39588 1.03881 0
M  V30 14117 O 1271.31 -1.48894 1.35619 0
M  V30 14118 C 1268.38 -2.32755 2.56955 0
M  V30 14119 C 1267.44 -2.04317 3.77562 0
M  V30 14120 C 1266.67 -3.26385 4.22266 0
M  V30 14121 O 1266.89 -4.37082 3.66491 0
M  V30 14122 O 1265.83 -3.12046 5.14695 0
M  V30 14123 H 1269.65 -0.630183 2.9709 0
M  V30 14124 H 1267.24 -0.245423 1.4737 0
M  V30 14125 H 1269.12 -3.08111 2.87482 0
M  V30 14126 H 1267.8 -2.73605 1.72979 0
M  V30 14127 H 1266.7 -1.26527 3.52054 0
M  V30 14128 H 1268.04 -1.68321 4.62524 0
M  V30 14129 N 1269.69 -1.54705 -0.300681 0
M  V30 14130 C 1271.1 -1.45926 -0.646359 0
M  V30 14131 C 1271.3 -0.65072 -1.90704 0
M  V30 14132 O 1270.36 -0.158547 -2.52002 0
M  V30 14133 C 1271.67 -2.89889 -0.799059 0
M  V30 14134 C 1273.22 -2.99934 -0.894923 0
M  V30 14135 C 1273.7 -4.45093 -1.07962 0
M  V30 14136 N 1275.19 -4.48804 -1.14581 0
M  V30 14137 C 1275.92 -5.58305 -1.30702 0
M  V30 14138 N 1275.42 -6.77729 -1.43719 0
M  V30 14139 N 1277.21 -5.45994 -1.33593 0
M  V30 14140 H 1269.36 -2.05742 0.527617 0
M  V30 14141 H 1271.62 -0.931817 0.174415 0
M  V30 14142 H 1271.33 -3.51655 0.0563954 0
M  V30 14143 H 1271.2 -3.37325 -1.68796 0
M  V30 14144 H 1273.59 -2.38281 -1.74086 0
M  V30 14145 H 1273.67 -2.55794 0.0179973 0
M  V30 14146 H 1273.32 -5.0734 -0.238444 0
M  V30 14147 H 1273.25 -4.86864 -2.00677 0
M  V30 14148 H 1275.74 -3.62766 -1.05874 0
M  V30 14149 H 1276.05 -7.56937 -1.55776 0
M  V30 14150 H 1274.4 -6.80594 -1.40774 0
M  V30 14151 H 1277.59 -4.51641 -1.23035 0
M  V30 14152 H 1277.76 -6.31381 -1.45813 0
M  V30 14153 N 1271.17 0.563888 -1.47167 0
M  V30 14154 C 1272.39 1.34693 -1.57052 0
M  V30 14155 C 1272.81 1.87534 -0.218308 0
M  V30 14156 O 1272.17 1.64639 0.787416 0
M  V30 14157 C 1272.22 2.52148 -2.59044 0
M  V30 14158 O 1271.94 2.01492 -3.89015 0
M  V30 14159 C 1273.44 3.4445 -2.7905 0
M  V30 14160 H 1270.66 0.410822 -0.530534 0
M  V30 14161 H 1273.2 0.683731 -1.92731 0
M  V30 14162 H 1271.36 3.14419 -2.26317 0
M  V30 14163 H 1271.77 2.78122 -4.44689 0
M  V30 14164 H 1273.25 4.23297 -3.54293 0
M  V30 14165 H 1273.72 3.97575 -1.86631 0
M  V30 14166 H 1274.33 2.88 -3.12948 0
M  V30 14167 N 1272.64 1.35187 0.810078 0
M  V30 14168 C 1273.55 1.29926 1.95337 0
M  V30 14169 C 1274.57 0.204748 1.72791 0
M  V30 14170 O 1275.75 0.433507 1.96679 0
M  V30 14171 C 1272.81 1.06736 3.29861 0
M  V30 14172 C 1271.87 2.25466 3.65326 0
M  V30 14173 C 1271.11 2.03373 4.93432 0
M  V30 14174 O 1271.33 0.998419 5.61594 0
M  V30 14175 O 1270.26 2.90648 5.27075 0
M  V30 14176 H 1274.09 2.26137 2.02721 0
M  V30 14177 H 1271.67 1.15523 0.947354 0
M  V30 14178 H 1273.56 0.956367 4.10404 0
M  V30 14179 H 1272.23 0.135735 3.23415 0
M  V30 14180 H 1271.14 2.42129 2.85175 0
M  V30 14181 H 1272.47 3.17063 3.76473 0
M  V30 14182 N 1274.12 -1.03182 1.19127 0
M  V30 14183 C 1275.54 -1.28773 0.942854 0
M  V30 14184 C 1275.74 -1.97759 -0.386483 0
M  V30 14185 O 1274.79 -2.26365 -1.1187 0
M  V30 14186 C 1276.11 -2.13771 2.11476 0
M  V30 14187 C 1277.66 -2.27089 2.15406 0
M  V30 14188 C 1278.13 -3.15458 3.32039 0
M  V30 14189 N 1279.62 -3.23046 3.31957 0
M  V30 14190 C 1280.36 -3.91604 4.18848 0
M  V30 14191 N 1279.85 -4.62418 5.15889 0
M  V30 14192 N 1281.65 -3.87974 4.06734 0
M  V30 14193 H 1273.8 -0.568165 2.0466 0
M  V30 14194 H 1276.06 -0.31328 0.89474 0
M  V30 14195 H 1275.77 -1.704 3.07663 0
M  V30 14196 H 1275.64 -3.14476 2.0829 0
M  V30 14197 H 1278.03 -2.69693 1.19791 0
M  V30 14198 H 1278.11 -1.25945 2.22647 0
M  V30 14199 H 1277.75 -2.73564 4.27931 0
M  V30 14200 H 1277.68 -4.16654 3.22035 0
M  V30 14201 H 1280.17 -2.7261 2.6171 0
M  V30 14202 H 1280.49 -5.12353 5.78545 0
M  V30 14203 H 1278.83 -4.61293 5.1984 0
M  V30 14204 H 1282.02 -3.31789 3.30202 0
M  V30 14205 H 1282.19 -4.4113 4.74666 0
M  V30 14206 N 1275.6 -0.99472 -1.22242 0
M  V30 14207 C 1276.85 -0.667045 -1.90351 0
M  V30 14208 C 1277.16 0.804615 -1.78284 0
M  V30 14209 O 1278.37 1.24395 -2.41326 0
M  V30 14210 C 1276.82 -1.14256 -3.41282 0
M  V30 14211 C 1276.43 -2.63958 -3.61981 0
M  V30 14212 C 1278.18 -0.889302 -4.1508 0
M  V30 14213 C 1276.08 -3.05103 -5.06622 0
M  V30 14214 H 1275.01 -0.245795 -0.712812 0
M  V30 14215 H 1277.66 -1.20452 -1.38432 0
M  V30 14216 H 1276.05 -0.533203 -3.92394 0
M  V30 14217 H 1277.22 -3.30255 -3.21354 0
M  V30 14218 H 1275.54 -2.87186 -3.01518 0
M  V30 14219 H 1278.13 -1.17239 -5.21689 0
M  V30 14220 H 1278.48 0.174556 -4.15934 0
M  V30 14221 H 1279.01 -1.46095 -3.70002 0
M  V30 14222 H 1275.75 -4.10672 -5.1091 0
M  V30 14223 H 1275.27 -2.4351 -5.48145 0
M  V30 14224 H 1276.95 -2.96506 -5.75059 0
M  V30 14225 N 1277.08 1.37613 -0.768148 0
M  V30 14226 C 1278.49 1.53202 -0.44737 0
M  V30 14227 C 1278.69 1.72736 1.03752 0
M  V30 14228 O 1277.75 1.74667 1.8234 0
M  V30 14229 C 1279.06 2.7306 -1.25931 0
M  V30 14230 C 1280.61 2.8692 -1.25084 0
M  V30 14231 C 1281.09 4.09757 -2.04605 0
M  V30 14232 N 1282.58 4.16862 -2.0194 0
M  V30 14233 C 1283.31 5.10936 -2.60254 0
M  V30 14234 N 1282.81 6.1059 -3.27341 0
M  V30 14235 N 1284.6 5.03393 -2.50104 0
M  V30 14236 H 1276.75 1.23184 -1.7303 0
M  V30 14237 H 1279.02 0.599541 -0.73434 0
M  V30 14238 H 1278.72 2.65078 -2.31141 0
M  V30 14239 H 1278.6 3.66646 -0.886036 0
M  V30 14240 H 1280.98 2.94375 -0.206736 0
M  V30 14241 H 1281.06 1.94303 -1.66373 0
M  V30 14242 H 1280.71 4.03063 -3.09035 0
M  V30 14243 H 1280.64 5.01481 -1.60701 0
M  V30 14244 H 1283.13 3.455 -1.53096 0
M  V30 14245 H 1283.44 6.78893 -3.6922 0
M  V30 14246 H 1281.79 6.10879 -3.31439 0
M  V30 14247 H 1284.98 4.24483 -1.9731 0
M  V30 14248 H 1285.15 5.76524 -2.95844 0
M  V30 14249 N 1278.56 0.518393 1.4883 0
M  V30 14250 C 1279.78 -0.0183131 2.07392 0
M  V30 14251 C 1280.21 -1.28468 1.37396 0
M  V30 14252 O 1279.56 -1.75975 0.436177 0
M  V30 14253 C 1279.61 -0.237211 3.59819 0
M  V30 14254 O 1278.72 -1.30835 3.91096 0
M  V30 14255 H 1278.06 0.0339621 0.663131 0
M  V30 14256 H 1280.59 0.722993 1.914 0
M  V30 14257 H 1280.6 -0.463424 4.0536 0
M  V30 14258 H 1279.27 0.687925 4.10171 0
M  V30 14259 H 1277.85 -1.06571 3.57347 0
M  V30 14260 N 1280.03 -1.55556 0.252993 0
M  V30 14261 C 1280.96 -2.24613 -0.638047 0
M  V30 14262 C 1281.95 -1.22852 -1.1765 0
M  V30 14263 O 1283.13 -1.51519 -1.21472 0
M  V30 14264 C 1280.26 -2.95029 -1.83236 0
M  V30 14265 C 1279.21 -4.03531 -1.42641 0
M  V30 14266 C 1278.54 -4.61404 -2.70204 0
M  V30 14267 C 1279.84 -5.18923 -0.592958 0
M  V30 14268 H 1281.53 -2.99335 -0.0621918 0
M  V30 14269 H 1279.08 -1.43972 -0.0284722 0
M  V30 14270 H 1281.03 -3.42042 -2.46141 0
M  V30 14271 H 1279.76 -2.17805 -2.43369 0
M  V30 14272 H 1278.42 -3.57296 -0.820672 0
M  V30 14273 H 1278.06 -3.80874 -3.28548 0
M  V30 14274 H 1277.76 -5.34652 -2.43764 0
M  V30 14275 H 1279.29 -5.11154 -3.33997 0
M  V30 14276 H 1280.7 -5.62124 -1.12646 0
M  V30 14277 H 1279.1 -5.98598 -0.424358 0
M  V30 14278 H 1280.17 -4.83301 0.393434 0
M  V30 14279 N 1281.51 0.0200419 -1.57587 0
M  V30 14280 C 1282.44 1.01715 -2.10181 0
M  V30 14281 C 1283.42 1.37136 -1.00636 0
M  V30 14282 O 1284.61 1.45862 -1.2821 0
M  V30 14283 C 1281.74 2.31531 -2.58865 0
M  V30 14284 C 1280.69 2.10327 -3.72755 0
M  V30 14285 C 1280.02 3.45981 -4.07678 0
M  V30 14286 C 1281.32 1.4821 -5.0083 0
M  V30 14287 H 1283.01 0.579307 -2.93742 0
M  V30 14288 H 1280.56 0.277211 -1.41307 0
M  V30 14289 H 1282.51 3.01623 -2.94281 0
M  V30 14290 H 1281.24 2.77392 -1.72399 0
M  V30 14291 H 1279.89 1.42665 -3.37701 0
M  V30 14292 H 1279.54 3.89508 -3.18265 0
M  V30 14293 H 1279.24 3.32616 -4.84397 0
M  V30 14294 H 1280.77 4.17421 -4.45637 0
M  V30 14295 H 1282.18 2.08232 -5.34146 0
M  V30 14296 H 1280.58 1.45393 -5.82221 0
M  V30 14297 H 1281.65 0.448942 -4.82817 0
M  V30 14298 N 1282.99 1.54862 0.292472 0
M  V30 14299 C 1283.9 1.89472 1.38339 0
M  V30 14300 C 1284.92 0.789783 1.55043 0
M  V30 14301 O 1286.09 1.08705 1.69544 0
M  V30 14302 C 1283.16 2.14244 2.72581 0
M  V30 14303 C 1282.22 3.37913 2.64789 0
M  V30 14304 C 1281.45 3.61494 3.92629 0
M  V30 14305 O 1281.67 2.87931 4.92394 0
M  V30 14306 O 1280.61 4.55019 3.94007 0
M  V30 14307 H 1284.43 2.82298 1.11989 0
M  V30 14308 H 1282.02 1.41161 0.489291 0
M  V30 14309 H 1283.9 2.31689 3.51991 0
M  V30 14310 H 1282.58 1.24603 2.98757 0
M  V30 14311 H 1281.48 3.25823 1.83821 0
M  V30 14312 H 1282.82 4.27711 2.43565 0
M  V30 14313 N 1284.47 -0.556076 1.47464 0
M  V30 14314 C 1285.88 -0.882115 1.33007 0
M  V30 14315 C 1286.08 -1.9892 0.321407 0
M  V30 14316 O 1285.14 -2.51088 -0.266668 0
M  V30 14317 C 1286.45 -1.27428 2.72365 0
M  V30 14318 C 1288 -1.38564 2.80658 0
M  V30 14319 C 1288.48 -1.81136 4.20659 0
M  V30 14320 N 1289.97 -1.88284 4.23206 0
M  V30 14321 C 1290.7 -2.22555 5.28447 0
M  V30 14322 N 1290.2 -2.55432 6.43993 0
M  V30 14323 N 1291.99 -2.23339 5.15826 0
M  V30 14324 H 1284.14 0.17481 2.11679 0
M  V30 14325 H 1286.41 0.0155421 0.947873 0
M  V30 14326 H 1286.11 -0.53463 3.47613 0
M  V30 14327 H 1285.99 -2.23019 3.04208 0
M  V30 14328 H 1288.37 -2.1161 2.05682 0
M  V30 14329 H 1288.45 -0.411588 2.52467 0
M  V30 14330 H 1288.1 -1.08659 4.96141 0
M  V30 14331 H 1288.03 -2.79546 4.46275 0
M  V30 14332 H 1290.52 -1.65259 3.3985 0
M  V30 14333 H 1290.83 -2.80612 7.20053 0
M  V30 14334 H 1289.18 -2.5301 6.47311 0
M  V30 14335 H 1292.37 -1.97094 4.24584 0
M  V30 14336 H 1292.54 -2.49717 5.97951 0
M  V30 14337 N 1285.95 -1.35615 -0.802897 0
M  V30 14338 C 1286.88 -1.24695 -1.92312 0
M  V30 14339 C 1287.89 -0.169409 -1.61916 0
M  V30 14340 O 1289.08 -0.422995 -1.73416 0
M  V30 14341 C 1286.18 -0.898229 -3.2678 0
M  V30 14342 C 1285.35 -2.07489 -3.85054 0
M  V30 14343 C 1284.41 -1.70137 -4.97936 0
M  V30 14344 O 1283.44 -2.42057 -5.15167 0
M  V30 14345 N 1284.64 -0.627153 -5.77102 0
M  V30 14346 H 1287.41 -2.21208 -2.02205 0
M  V30 14347 H 1284.97 -1.28832 -0.980503 0
M  V30 14348 H 1286.96 -0.629766 -3.9977 0
M  V30 14349 H 1285.53 -0.0226571 -3.12592 0
M  V30 14350 H 1284.75 -2.50694 -3.04214 0
M  V30 14351 H 1286.04 -2.86133 -4.2072 0
M  V30 14352 H 1285.44 -0.0296879 -5.65692 0
M  V30 14353 H 1283.99 -0.41848 -6.50455 0
M  V30 14354 N 1287.43 1.02549 -1.19673 0
M  V30 14355 C 1288.39 2.09064 -0.939407 0
M  V30 14356 C 1289.39 1.60593 0.0814837 0
M  V30 14357 O 1290.58 1.73521 -0.153626 0
M  V30 14358 C 1287.71 3.38395 -0.412513 0
M  V30 14359 H 1288.9 2.33325 -1.88413 0
M  V30 14360 H 1286.46 1.19211 -1.01086 0
M  V30 14361 H 1287.19 3.19805 0.538094 0
M  V30 14362 H 1286.98 3.74898 -1.14863 0
M  V30 14363 H 1288.47 4.16841 -0.251678 0
M  V30 14364 N 1288.9 1.00119 1.21713 0
M  V30 14365 C 1290.32 0.713343 1.42771 0
M  V30 14366 C 1290.52 -0.712923 1.88467 0
M  V30 14367 O 1289.58 -1.48277 2.04378 0
M  V30 14368 C 1290.89 1.72596 2.46234 0
M  V30 14369 C 1292.44 1.74235 2.60022 0
M  V30 14370 C 1292.91 2.74382 3.66713 0
M  V30 14371 N 1294.4 2.73027 3.7418 0
M  V30 14372 C 1295.14 3.47178 4.56349 0
M  V30 14373 N 1294.63 4.30958 5.42446 0
M  V30 14374 N 1296.43 3.35846 4.50737 0
M  V30 14375 H 1288.58 1.9222 0.903611 0
M  V30 14376 H 1290.84 0.829466 0.459011 0
M  V30 14377 H 1290.55 2.74699 2.19621 0
M  V30 14378 H 1290.42 1.52553 3.44975 0
M  V30 14379 H 1292.81 0.728261 2.85973 0
M  V30 14380 H 1292.89 1.98349 1.61528 0
M  V30 14381 H 1292.53 3.75945 3.41508 0
M  V30 14382 H 1292.46 2.47534 4.64795 0
M  V30 14383 H 1294.95 2.12242 3.12669 0
M  V30 14384 H 1295.27 4.84344 6.02189 0
M  V30 14385 H 1293.61 4.35042 5.42 0
M  V30 14386 H 1296.8 2.6983 3.82504 0
M  V30 14387 H 1296.98 3.93892 5.14541 0
M  V30 14388 N 1290.38 -1.37203 0.775435 0
M  V30 14389 C 1291.29 -2.34019 0.165062 0
M  V30 14390 C 1292.31 -1.6036 -0.675316 0
M  V30 14391 O 1293.48 -1.9243 -0.594375 0
M  V30 14392 C 1290.55 -3.3954 -0.700957 0
M  V30 14393 C 1289.61 -4.29015 0.156304 0
M  V30 14394 C 1288.84 -5.29497 -0.668476 0
M  V30 14395 O 1289.07 -5.37636 -1.90535 0
M  V30 14396 O 1288 -6.01852 -0.0757351 0
M  V30 14397 H 1291.83 -2.87955 0.965184 0
M  V30 14398 H 1289.41 -1.39429 0.536654 0
M  V30 14399 H 1291.29 -4.04094 -1.19524 0
M  V30 14400 H 1289.97 -2.87926 -1.4792 0
M  V30 14401 H 1288.87 -3.67549 0.69703 0
M  V30 14402 H 1290.21 -4.83944 0.897725 0
M  V30 14403 N 1291.86 -0.526279 -1.48553 0
M  V30 14404 C 1293.11 0.0111473 -2.01697 0
M  V30 14405 C 1293.42 1.35675 -1.40895 0
M  V30 14406 O 1294.63 1.98233 -1.85515 0
M  V30 14407 C 1293.08 0.0702721 -3.59831 0
M  V30 14408 C 1292.69 -1.27022 -4.29616 0
M  V30 14409 C 1294.44 0.556722 -4.20834 0
M  V30 14410 C 1292.34 -1.17188 -5.79673 0
M  V30 14411 H 1291.27 0.00793697 -0.753958 0
M  V30 14412 H 1293.92 -0.669503 -1.70851 0
M  V30 14413 H 1292.31 0.81592 -3.87503 0
M  V30 14414 H 1293.48 -2.03114 -4.1362 0
M  V30 14415 H 1291.79 -1.69211 -3.80469 0
M  V30 14416 H 1294.39 0.648205 -5.30756 0
M  V30 14417 H 1294.73 1.56163 -3.859 0
M  V30 14418 H 1295.27 -0.133132 -3.97577 0
M  V30 14419 H 1292.01 -2.15182 -6.19174 0
M  V30 14420 H 1291.53 -0.452259 -5.98093 0
M  V30 14421 H 1293.21 -0.861011 -6.41245 0
M  V30 14422 N 1293.34 1.5542 -0.261239 0
M  V30 14423 C 1294.25 2.25627 0.642625 0
M  V30 14424 C 1295.26 1.27732 1.18155 0
M  V30 14425 O 1296.44 1.60639 1.21479 0
M  V30 14426 C 1293.5 2.95303 1.8165 0
M  V30 14427 C 1292.57 4.08644 1.31563 0
M  V30 14428 C 1291.8 4.74988 2.43355 0
M  V30 14429 O 1292.02 4.40474 3.62407 0
M  V30 14430 O 1290.96 5.63217 2.12299 0
M  V30 14431 H 1294.78 3.03609 0.0743091 0
M  V30 14432 H 1292.37 1.49372 -0.0291754 0
M  V30 14433 H 1294.25 3.3914 2.50125 0
M  V30 14434 H 1292.92 2.2025 2.37217 0
M  V30 14435 H 1291.83 3.69294 0.597746 0
M  V30 14436 H 1293.16 4.85558 0.805878 0
M  V30 14437 N 1294.82 -0.0116844 1.57596 0
M  V30 14438 C 1295.78 -0.991601 2.0664 0
M  V30 14439 C 1296.78 -1.27973 0.973629 0
M  V30 14440 O 1297.97 -1.22686 1.23668 0
M  V30 14441 C 1295.1 -2.31975 2.49801 0
M  V30 14442 H 1296.29 -0.567607 2.9448 0
M  V30 14443 H 1293.85 -0.258906 1.54141 0
M  V30 14444 H 1294.58 -2.79087 1.65169 0
M  V30 14445 H 1294.37 -2.12386 3.29598 0
M  V30 14446 H 1295.86 -3.02294 2.88112 0
M  V30 14447 N 1296.29 -1.55015 -0.284256 0
M  V30 14448 C 1297.54 -1.7509 -1.01733 0
M  V30 14449 C 1297.87 -0.545803 -1.86685 0
M  V30 14450 O 1297.12 0.471951 -1.89924 0
M  V30 14451 C 1297.42 -3.00246 -1.93874 0
M  V30 14452 C 1297.09 -4.33295 -1.24764 0
M  V30 14453 C 1295.75 -4.69459 -1.0565 0
M  V30 14454 C 1298.1 -5.15704 -0.754939 0
M  V30 14455 C 1295.43 -5.85596 -0.35976 0
M  V30 14456 C 1297.78 -6.32559 -0.0718473 0
M  V30 14457 C 1296.45 -6.67371 0.131104 0
M  V30 14458 H 1295.72 -0.6407 -0.372269 0
M  V30 14459 H 1298.36 -1.89282 -0.290638 0
M  V30 14460 H 1296.67 -2.80907 -2.73127 0
M  V30 14461 H 1298.37 -3.12974 -2.50696 0
M  V30 14462 H 1294.96 -4.04865 -1.4065 0
M  V30 14463 H 1299.14 -4.8825 -0.89027 0
M  V30 14464 H 1294.4 -6.11099 -0.19169 0
M  V30 14465 H 1298.57 -6.95675 0.317743 0
M  V30 14466 H 1296.2 -7.57215 0.672977 0
M  V30 14467 N 1297.77 0.548248 -1.47757 0
M  V30 14468 C 1299.05 1.3092 -1.45325 0
M  V30 14469 C 1299.43 2.1053 -0.155008 0
M  V30 14470 O 1298.78 2.11558 0.863455 0
M  V30 14471 C 1298.99 2.20614 -2.70426 0
M  V30 14472 C 1300.33 2.81345 -3.18009 0
M  V30 14473 O 1301.36 2.30911 -2.71216 0
M  V30 14474 O 1300.22 3.73036 -3.99383 0
M  V30 14475 H 1297.31 0.58996 -0.579548 0
M  V30 14476 H 1299.86 0.56641 -1.59968 0
M  V30 14477 H 1298.63 1.61449 -3.56441 0
M  V30 14478 H 1298.25 3.02173 -2.58413 0
M  V30 14479 N 1299.25 1.36039 0.795694 0
M  V30 14480 C 1300.47 1.33222 1.58955 0
M  V30 14481 C 1300.9 -0.0854596 1.87906 0
M  V30 14482 O 1300.26 -1.05555 1.47403 0
M  V30 14483 C 1300.31 2.15508 2.89117 0
M  V30 14484 O 1299.41 1.54327 3.82436 0
M  V30 14485 H 1298.75 0.456264 0.48241 0
M  V30 14486 H 1301.28 1.79234 0.986726 0
M  V30 14487 H 1301.29 2.2786 3.38444 0
M  V30 14488 H 1299.97 3.18568 2.67371 0
M  V30 14489 H 1298.54 1.50879 3.41013 0
M  V30 14490 N 1300.73 -1.01913 1.20215 0
M  V30 14491 C 1301.64 -2.13864 0.964328 0
M  V30 14492 C 1302.65 -1.73821 -0.0789556 0
M  V30 14493 O 1303.83 -2.01111 0.107914 0
M  V30 14494 C 1300.9 -3.42827 0.516757 0
M  V30 14495 C 1299.96 -3.97127 1.63059 0
M  V30 14496 C 1299.19 -5.19935 1.20428 0
M  V30 14497 O 1299.41 -5.70355 0.0719119 0
M  V30 14498 O 1298.35 -5.67322 2.01071 0
M  V30 14499 H 1302.17 -2.36795 1.90162 0
M  V30 14500 H 1299.76 -1.1226 0.985803 0
M  V30 14501 H 1301.64 -4.20493 0.276272 0
M  V30 14502 H 1300.31 -3.21318 -0.391983 0
M  V30 14503 H 1299.22 -3.20752 1.92533 0
M  V30 14504 H 1300.55 -4.2302 2.51624 0
M  V30 14505 N 1302.21 -1.00763 -1.2118 0
M  V30 14506 C 1303.43 -0.710515 -1.9485 0
M  V30 14507 C 1303.86 0.720934 -1.73736 0
M  V30 14508 O 1303.21 1.49484 -1.02588 0
M  V30 14509 C 1303.26 -1.04035 -3.45267 0
M  V30 14510 O 1302.37 -0.147047 -4.12138 0
M  V30 14511 H 1301.71 -0.264472 -0.609057 0
M  V30 14512 H 1304.24 -1.34858 -1.53865 0
M  V30 14513 H 1304.25 -0.9883 -3.95849 0
M  V30 14514 H 1302.92 -2.08334 -3.59958 0
M  V30 14515 H 1301.5 -0.255847 -3.72021 0
M  V30 14516 N 1303.68 1.3679 -0.7827 0
M  V30 14517 C 1304.62 2.27871 -0.122531 0
M  V30 14518 C 1305.6 1.46885 0.697399 0
M  V30 14519 O 1306.78 1.76198 0.669819 0
M  V30 14520 C 1303.91 3.28314 0.832311 0
M  V30 14521 C 1302.95 4.26394 0.0950152 0
M  V30 14522 S 1303.79 5.2131 -1.22457 0
M  V30 14523 C 1304.94 6.25302 -0.273558 0
M  V30 14524 H 1305.17 2.83514 -0.894814 0
M  V30 14525 H 1302.71 1.43229 -0.5766 0
M  V30 14526 H 1304.67 3.86688 1.37778 0
M  V30 14527 H 1303.33 2.71597 1.57779 0
M  V30 14528 H 1302.52 4.97297 0.819278 0
M  V30 14529 H 1302.12 3.72067 -0.379778 0
M  V30 14530 H 1304.41 6.75263 0.550064 0
M  V30 14531 H 1305.36 7.01684 -0.951071 0
M  V30 14532 H 1305.76 5.64372 0.120115 0
M  V30 14533 N 1305.16 0.53415 1.48272 0
M  V30 14534 C 1306.58 0.192291 1.58437 0
M  V30 14535 C 1306.78 -1.3046 1.53566 0
M  V30 14536 O 1305.83 -2.08316 1.42692 0
M  V30 14537 C 1307.15 0.798515 2.89904 0
M  V30 14538 C 1308.7 0.76763 3.03441 0
M  V30 14539 C 1309.17 1.3525 4.37574 0
M  V30 14540 N 1310.66 1.31466 4.44152 0
M  V30 14541 C 1311.4 1.73706 5.46456 0
M  V30 14542 N 1310.89 2.23695 6.55692 0
M  V30 14543 N 1312.69 1.64918 5.37363 0
M  V30 14544 H 1304.84 1.50696 1.49681 0
M  V30 14545 H 1307.1 0.627073 0.710973 0
M  V30 14546 H 1306.81 1.8496 2.99136 0
M  V30 14547 H 1306.68 0.278033 3.76174 0
M  V30 14548 H 1309.07 -0.274704 2.93819 0
M  V30 14549 H 1309.15 1.32562 2.18771 0
M  V30 14550 H 1308.79 2.39379 4.47951 0
M  V30 14551 H 1308.72 0.770153 5.20938 0
M  V30 14552 H 1311.21 0.948761 3.65796 0
M  V30 14553 H 1311.53 2.5391 7.29897 0
M  V30 14554 H 1309.87 2.27691 6.56644 0
M  V30 14555 H 1313.06 1.25658 4.50919 0
M  V30 14556 H 1313.23 1.98157 6.16958 0
M  V30 14557 N 1306.64 -1.55279 0.269478 0
M  V30 14558 C 1307.57 -2.25278 -0.614188 0
M  V30 14559 C 1308.55 -1.24092 -1.1634 0
M  V30 14560 O 1309.74 -1.52799 -1.19858 0
M  V30 14561 C 1306.87 -2.96956 -1.80096 0
M  V30 14562 C 1305.82 -4.05021 -1.38353 0
M  V30 14563 C 1305.15 -4.64244 -2.65295 0
M  V30 14564 C 1306.45 -5.19523 -0.537886 0
M  V30 14565 H 1308.14 -2.99385 -0.0304397 0
M  V30 14566 H 1305.69 -1.43994 -0.0132004 0
M  V30 14567 H 1307.64 -3.44633 -2.42499 0
M  V30 14568 H 1306.36 -2.20374 -2.41045 0
M  V30 14569 H 1305.02 -3.58146 -0.78273 0
M  V30 14570 H 1304.67 -3.84337 -3.2449 0
M  V30 14571 H 1304.37 -5.37208 -2.38079 0
M  V30 14572 H 1305.89 -5.14668 -3.28557 0
M  V30 14573 H 1307.31 -5.63287 -1.06677 0
M  V30 14574 H 1305.71 -5.99014 -0.360845 0
M  V30 14575 H 1306.78 -4.82857 0.444672 0
M  V30 14576 N 1308.12 0.00332656 -1.576 0
M  V30 14577 C 1309.37 0.687508 -1.90047 0
M  V30 14578 C 1309.69 1.74497 -0.870388 0
M  V30 14579 O 1308.96 1.95681 0.0926544 0
M  V30 14580 H 1307.54 0.256924 -0.701426 0
M  V30 14581 H 1310.2 -0.0368129 -1.94865 0
M  V30 14582 H 1309.3 1.16086 -2.89707 0
M  V30 14583 N 1309.6 1.55164 0.276031 0
M  V30 14584 C 1310.84 1.75627 1.00803 0
M  V30 14585 C 1311.17 0.555696 1.86393 0
M  V30 14586 O 1310.43 -0.461872 1.90172 0
M  V30 14587 C 1310.73 3.0127 1.92279 0
M  V30 14588 C 1310.39 4.33951 1.22464 0
M  V30 14589 C 1309.05 4.70013 1.03158 0
M  V30 14590 C 1311.41 5.16097 0.72758 0
M  V30 14591 C 1308.73 5.85779 0.328699 0
M  V30 14592 C 1311.09 6.32588 0.0383001 0
M  V30 14593 C 1309.75 6.67292 -0.166494 0
M  V30 14594 H 1309.02 0.642665 0.368866 0
M  V30 14595 H 1311.67 1.89433 0.280595 0
M  V30 14596 H 1309.97 2.82351 2.71634 0
M  V30 14597 H 1311.67 3.14299 2.49032 0
M  V30 14598 H 1308.26 4.05605 1.38501 0
M  V30 14599 H 1312.44 4.88715 0.864365 0
M  V30 14600 H 1307.7 6.11192 0.159279 0
M  V30 14601 H 1311.87 6.95496 -0.354631 0
M  V30 14602 H 1309.5 7.56848 -0.713124 0
M  V30 14603 N 1311.07 -0.540404 1.48045 0
M  V30 14604 C 1312.3 -1.32656 1.59427 0
M  V30 14605 C 1312.72 -1.86419 0.250924 0
M  V30 14606 O 1312.08 -1.63861 -0.775838 0
M  V30 14607 C 1312.13 -2.46062 2.63602 0
M  V30 14608 O 1311.23 -3.48794 2.20038 0
M  V30 14609 H 1310.58 -0.393334 0.534962 0
M  V30 14610 H 1313.11 -0.651363 1.93955 0
M  V30 14611 H 1313.12 -2.92396 2.84549 0
M  V30 14612 H 1311.79 -2.06291 3.61133 0
M  V30 14613 H 1310.37 -3.0865 2.0926 0
M  V30 14614 N 1312.55 -1.36459 -0.788468 0
M  V30 14615 C 1313.5 -1.30924 -1.92254 0
M  V30 14616 C 1314.49 -0.200866 -1.68205 0
M  V30 14617 O 1315.7 -0.367927 -1.762 0
M  V30 14618 H 1312.08 -0.407609 -0.631949 0
M  V30 14619 H 1314.05 -2.26695 -1.94041 0
M  V30 14620 C 1312.8 -1.11635 -3.29292 0
M  V30 14621 H 1312.12 -1.96168 -3.48365 0
M  V30 14622 H 1313.56 -1.11808 -4.08993 0
M  V30 14623 C 1312.02 0.178963 -3.36424 0
M  V30 14624 O 1312.55 1.16846 -3.8433 0
M  V30 14625 N 1310.75 0.223962 -2.89736 0
M  V30 14626 H 1310.3 -0.581888 -2.50942 0
M  V30 14627 H 1310.26 1.0903 -2.94889 0
M  V30 14628 N 1314.03 1.01274 -1.20754 0
M  V30 14629 C 1314.96 2.09567 -0.903157 0
M  V30 14630 C 1315.94 1.61941 0.146287 0
M  V30 14631 O 1317.13 1.8849 0.0190177 0
M  V30 14632 C 1314.25 3.36838 -0.354682 0
M  V30 14633 C 1313.3 4.03361 -1.38572 0
M  V30 14634 S 1314.13 4.46775 -2.95216 0
M  V30 14635 C 1315.29 5.77242 -2.41955 0
M  V30 14636 H 1315.52 2.35063 -1.82024 0
M  V30 14637 H 1313.05 1.14444 -1.03643 0
M  V30 14638 H 1315.01 4.10476 -0.0447882 0
M  V30 14639 H 1313.67 3.09407 0.540962 0
M  V30 14640 H 1312.87 4.94939 -0.951408 0
M  V30 14641 H 1312.47 3.35964 -1.64329 0
M  V30 14642 H 1314.76 6.52608 -1.81958 0
M  V30 14643 H 1315.7 6.25475 -3.31944 0
M  V30 14644 H 1316.11 5.3369 -1.83942 0
M  V30 14645 N 1315.51 1.01404 1.20644 0
M  V30 14646 C 1316.76 0.702949 1.90227 0
M  V30 14647 C 1317.09 -0.765243 1.78487 0
M  V30 14648 O 1316.36 -1.55569 1.16741 0
M  V30 14649 C 1316.65 1.13606 3.4171 0
M  V30 14650 C 1316.5 2.66437 3.62397 0
M  V30 14651 C 1317.82 0.705361 4.34411 0
M  V30 14652 H 1314.94 0.256842 0.690797 0
M  V30 14653 H 1317.58 1.26133 1.42093 0
M  V30 14654 H 1315.73 0.660977 3.82836 0
M  V30 14655 H 1317.4 3.21778 3.3054 0
M  V30 14656 H 1315.64 3.0753 3.05954 0
M  V30 14657 H 1316.32 2.91795 4.68572 0
M  V30 14658 H 1318.79 1.11375 4.00918 0
M  V30 14659 H 1317.67 1.03647 5.39026 0
M  V30 14660 H 1317.93 -0.393094 4.40349 0
M  V30 14661 N 1316.99 -1.36373 0.789944 0
M  V30 14662 C 1317.92 -2.32616 0.202944 0
M  V30 14663 C 1318.9 -1.56674 -0.662364 0
M  V30 14664 O 1320.08 -1.84826 -0.596078 0
M  V30 14665 C 1317.21 -3.4092 -0.662646 0
M  V30 14666 C 1316.17 -4.27877 0.102811 0
M  V30 14667 C 1315.49 -5.27352 -0.883407 0
M  V30 14668 C 1316.79 -5.0606 1.29231 0
M  V30 14669 H 1318.49 -2.81958 1.00699 0
M  V30 14670 H 1316.03 -1.35562 0.48568 0
M  V30 14671 H 1317.99 -4.07239 -1.08324 0
M  V30 14672 H 1316.71 -2.90147 -1.4994 0
M  V30 14673 H 1315.37 -3.63114 0.504389 0
M  V30 14674 H 1315.02 -4.72853 -1.71521 0
M  V30 14675 H 1314.72 -5.86398 -0.375669 0
M  V30 14676 H 1316.24 -5.96545 -1.30256 0
M  V30 14677 H 1317.66 -5.65417 0.947446 0
M  V30 14678 H 1316.05 -5.74521 1.73338 0
M  V30 14679 H 1317.12 -4.37671 2.08739 0
M  V30 14680 N 1318.47 -0.542005 -1.47987 0
M  V30 14681 C 1319.69 -0.0146835 -2.07395 0
M  V30 14682 C 1320.12 1.26266 -1.39422 0
M  V30 14683 O 1319.47 1.75259 -0.464118 0
M  V30 14684 C 1319.52 0.179937 -3.60151 0
M  V30 14685 O 1318.63 1.24596 -3.93128 0
M  V30 14686 H 1317.97 -0.0445076 -0.662507 0
M  V30 14687 H 1320.5 -0.753352 -1.90226 0
M  V30 14688 H 1320.51 0.398876 -4.06046 0
M  V30 14689 H 1319.18 -0.753093 -4.09025 0
M  V30 14690 H 1317.76 1.00872 -3.58997 0
M  V30 14691 N 1319.94 1.55134 -0.277709 0
M  V30 14692 C 1320.89 2.24057 0.624594 0
M  V30 14693 C 1321.89 1.23848 1.15577 0
M  V30 14694 O 1323.09 1.41771 1.1091 0
M  V30 14695 H 1319.47 0.719106 0.219977 0
M  V30 14696 H 1321.44 2.98393 0.0204815 0
M  V30 14697 C 1320.19 2.97712 1.79618 0
M  V30 14698 H 1319.51 3.74611 1.39665 0
M  V30 14699 H 1320.95 3.49255 2.4041 0
M  V30 14700 C 1319.41 2.03332 2.68622 0
M  V30 14701 O 1319.94 1.58622 3.69056 0
M  V30 14702 N 1318.14 1.69778 2.35847 0
M  V30 14703 H 1317.69 2.06333 1.54222 0
M  V30 14704 H 1317.65 1.06901 2.95668 0
M  V30 14705 N 1321.42 0.00503138 1.57599 0
M  V30 14706 C 1322.35 -0.983586 2.11773 0
M  V30 14707 C 1323.33 -1.35518 1.02805 0
M  V30 14708 O 1324.52 -1.43804 1.30514 0
M  V30 14709 C 1321.65 -2.27383 2.62515 0
M  V30 14710 C 1320.6 -2.0437 3.76054 0
M  V30 14711 C 1319.93 -3.39451 4.1313 0
M  V30 14712 C 1321.23 -1.40223 5.03125 0
M  V30 14713 H 1322.92 -0.532501 2.94627 0
M  V30 14714 H 1320.47 -0.254696 1.4173 0
M  V30 14715 H 1322.42 -2.96903 2.99043 0
M  V30 14716 H 1321.14 -2.74614 1.7679 0
M  V30 14717 H 1319.8 -1.37275 3.39928 0
M  V30 14718 H 1319.45 -3.84395 3.24422 0
M  V30 14719 H 1319.15 -3.24868 4.89627 0
M  V30 14720 H 1320.68 -4.10279 4.52221 0
M  V30 14721 H 1322.09 -1.99708 5.37392 0
M  V30 14722 H 1320.49 -1.36112 5.8446 0
M  V30 14723 H 1321.56 -0.372073 4.8347 0
M  V30 14724 N 1322.9 -1.55308 -0.267798 0
M  V30 14725 C 1324.12 -1.80524 -1.02107 0
M  V30 14726 C 1324.55 -0.579268 -1.78958 0
M  V30 14727 O 1323.91 0.471262 -1.75068 0
M  V30 14728 C 1323.96 -3.03248 -1.95123 0
M  V30 14729 O 1323.06 -2.78699 -3.03975 0
M  V30 14730 H 1322.4 -0.596518 -0.291655 0
M  V30 14731 H 1324.93 -2.0246 -0.295128 0
M  V30 14732 H 1324.94 -3.32121 -2.3698 0
M  V30 14733 H 1323.62 -3.92126 -1.386 0
M  V30 14734 H 1322.19 -2.60936 -2.66396 0
M  V30 14735 N 1324.38 0.532545 -1.4833 0
M  V30 14736 C 1325.79 1.11451 -1.49785 0
M  V30 14737 C 1326.14 1.94386 -0.266207 0
M  V30 14738 O 1325.26 2.07121 0.62688 0
M  V30 14739 C 1325.86 2.0279 -2.71407 0
M  V30 14740 C 1324.42 2.56209 -2.75742 0
M  V30 14741 C 1323.57 1.33114 -2.43261 0
M  V30 14742 H 1326.52 0.317924 -1.55483 0
M  V30 14743 H 1326.54 2.87038 -2.49779 0
M  V30 14744 H 1326.05 1.42401 -3.61031 0
M  V30 14745 H 1324.15 3.20327 -1.9032 0
M  V30 14746 H 1324.26 2.95518 -3.77102 0
M  V30 14747 H 1322.63 1.64607 -1.94362 0
M  V30 14748 H 1323.41 0.744809 -3.35123 0
M  V30 14749 N 1325.86 1.36875 0.78122 0
M  V30 14750 C 1326.77 1.3404 1.92537 0
M  V30 14751 C 1327.78 0.241354 1.72318 0
M  V30 14752 O 1328.96 0.475128 1.95715 0
M  V30 14753 C 1326.02 1.13708 3.27523 0
M  V30 14754 C 1325.08 2.33165 3.60462 0
M  V30 14755 C 1324.32 2.13793 4.89007 0
M  V30 14756 O 1324.54 1.11732 5.5935 0
M  V30 14757 O 1323.47 3.01762 5.20791 0
M  V30 14758 H 1327.3 2.30386 1.97879 0
M  V30 14759 H 1324.88 1.17506 0.922637 0
M  V30 14760 H 1326.77 1.0432 4.08283 0
M  V30 14761 H 1325.44 0.204306 3.23055 0
M  V30 14762 H 1324.35 2.48123 2.79974 0
M  V30 14763 H 1325.68 3.24977 3.69663 0
M  V30 14764 N 1327.33 -1.00632 1.21289 0
M  V30 14765 C 1328.3 -2.07543 0.972548 0
M  V30 14766 C 1329.3 -1.60703 -0.0559244 0
M  V30 14767 O 1330.49 -1.73255 0.181213 0
M  V30 14768 C 1327.62 -3.37696 0.466297 0
M  V30 14769 H 1328.81 -2.30298 1.92101 0
M  V30 14770 H 1326.36 -1.17588 1.02969 0
M  V30 14771 H 1327.1 -3.2062 -0.487148 0
M  V30 14772 H 1326.88 -3.73024 1.20813 0
M  V30 14773 H 1328.37 -4.16388 0.317962 0
M  V30 14774 N 1328.81 -1.02043 -1.20104 0
M  V30 14775 C 1330.06 -0.711973 -1.89571 0
M  V30 14776 C 1330.39 0.758725 -1.79091 0
M  V30 14777 O 1329.64 1.56728 -1.17195 0
M  V30 14778 C 1329.94 -1.098 -3.40116 0
M  V30 14779 C 1329.61 -2.56555 -3.70797 0
M  V30 14780 C 1328.27 -2.96653 -3.78881 0
M  V30 14781 C 1330.62 -3.51543 -3.84795 0
M  V30 14782 C 1327.95 -4.30669 -3.98424 0
M  V30 14783 C 1330.3 -4.85252 -4.05849 0
M  V30 14784 C 1328.96 -5.2505 -4.12163 0
M  V30 14785 H 1328.23 -0.260529 -0.69369 0
M  V30 14786 H 1330.88 -1.28172 -1.42282 0
M  V30 14787 H 1329.19 -0.446738 -3.89245 0
M  V30 14788 H 1330.88 -0.836985 -3.92168 0
M  V30 14789 H 1327.47 -2.24488 -3.65107 0
M  V30 14790 H 1331.66 -3.21721 -3.77901 0
M  V30 14791 H 1326.91 -4.61052 -4.01548 0
M  V30 14792 H 1331.09 -5.58777 -4.15622 0
M  V30 14793 H 1328.71 -6.28908 -4.27059 0
M  V30 14794 N 1330.29 1.35952 -0.797165 0
M  V30 14795 C 1331.52 2.0381 -0.38421 0
M  V30 14796 C 1331.94 1.597 0.993854 0
M  V30 14797 O 1331.3 0.769148 1.64176 0
M  V30 14798 C 1331.35 3.57589 -0.465054 0
M  V30 14799 O 1330.45 4.09043 0.525095 0
M  V30 14800 H 1329.79 0.643957 -0.161912 0
M  V30 14801 H 1332.32 1.73746 -1.08043 0
M  V30 14802 H 1332.33 4.06651 -0.331448 0
M  V30 14803 H 1331.01 3.89045 -1.47027 0
M  V30 14804 H 1329.58 3.7123 0.352509 0
M  V30 14805 N 1331.77 0.549846 1.47697 0
M  V30 14806 C 1332.72 -0.222213 2.26915 0
M  V30 14807 C 1333.7 -0.891996 1.33911 0
M  V30 14808 O 1334.89 -0.791519 1.58316 0
M  V30 14809 C 1332.02 -1.25619 3.19491 0
M  V30 14810 C 1331.11 -0.590193 4.19973 0
M  V30 14811 N 1331.5 0.335519 5.04686 0
M  V30 14812 C 1329.8 -0.845012 4.37922 0
M  V30 14813 C 1330.5 0.721672 5.77206 0
M  V30 14814 N 1329.48 0.078184 5.43544 0
M  V30 14815 H 1333.28 0.489645 2.89792 0
M  V30 14816 H 1330.79 0.36926 1.58146 0
M  V30 14817 H 1332.79 -1.82319 3.74921 0
M  V30 14818 H 1331.45 -1.96922 2.5817 0
M  V30 14819 H 1332.46 0.709271 5.1302 0
M  V30 14820 H 1329.14 -1.54711 3.87777 0
M  V30 14821 H 1330.53 1.48191 6.55354 0
M  V30 14822 N 1333.25 -1.54984 0.285932 0
M  V30 14823 C 1334.47 -2.04699 -0.333621 0
M  V30 14824 C 1334.9 -1.16252 -1.47875 0
M  V30 14825 O 1334.25 -0.163376 -1.80562 0
M  V30 14826 C 1334.3 -3.52022 -0.78187 0
M  V30 14827 O 1333.41 -3.66639 -1.88812 0
M  V30 14828 H 1332.75 -0.660579 -0.0673203 0
M  V30 14829 H 1335.28 -2.00171 0.423386 0
M  V30 14830 H 1335.29 -3.93591 -1.07473 0
M  V30 14831 H 1333.96 -4.15862 0.055893 0
M  V30 14832 H 1332.54 -3.36974 -1.59696 0
M  V30 14833 N 1334.72 -0.0133892 -1.57594 0
M  V30 14834 C 1335.95 0.67827 -1.95149 0
M  V30 14835 C 1336.36 1.67089 -0.887572 0
M  V30 14836 O 1335.71 1.8316 0.140774 0
M  V30 14837 C 1335.77 1.45441 -3.28766 0
M  V30 14838 C 1335.43 0.621889 -4.52749 0
M  V30 14839 C 1336.43 -0.0961541 -5.19811 0
M  V30 14840 C 1334.11 0.563917 -4.99124 0
M  V30 14841 C 1336.11 -0.86101 -6.31558 0
M  V30 14842 C 1333.79 -0.204654 -6.10757 0
M  V30 14843 C 1334.79 -0.915839 -6.76832 0
M  V30 14844 O 1334.48 -1.67184 -7.86323 0
M  V30 14845 H 1334.21 0.192983 -0.647869 0
M  V30 14846 H 1336.77 -0.0646816 -2.05298 0
M  V30 14847 H 1335 2.24215 -3.15063 0
M  V30 14848 H 1336.69 2.03268 -3.51336 0
M  V30 14849 H 1337.45 -0.0606029 -4.84962 0
M  V30 14850 H 1333.33 1.10702 -4.47511 0
M  V30 14851 H 1336.87 -1.41664 -6.83064 0
M  V30 14852 H 1332.77 -0.241979 -6.45046 0
M  V30 14853 H 1333.54 -1.58996 -8.02909 0
M  V30 14854 N 1336.2 1.55448 0.259558 0
M  V30 14855 C 1337.61 1.67256 0.8296 0
M  V30 14856 C 1337.96 0.60851 1.86525 0
M  V30 14857 O 1337.09 -0.247563 2.14979 0
M  V30 14858 C 1337.68 3.03213 1.51152 0
M  V30 14859 C 1336.24 3.17004 2.02943 0
M  V30 14860 C 1335.39 2.63096 0.876103 0
M  V30 14861 H 1338.34 1.5866 0.0356218 0
M  V30 14862 H 1338.36 2.96952 2.37906 0
M  V30 14863 H 1337.87 3.80635 0.75752 0
M  V30 14864 H 1335.98 2.44381 2.81263 0
M  V30 14865 H 1336.09 4.23748 2.2355 0
M  V30 14866 H 1334.45 2.20596 1.27317 0
M  V30 14867 H 1335.24 3.43033 0.13539 0
M  V30 14868 N 1337.68 -0.524672 1.4861 0
M  V30 14869 C 1338.93 -1.27768 1.56588 0
M  V30 14870 C 1339.25 -1.93469 0.243899 0
M  V30 14871 O 1338.52 -1.8159 -0.734985 0
M  V30 14872 H 1337.1 -0.474566 0.576885 0
M  V30 14873 H 1339.76 -0.610114 1.85104 0
M  V30 14874 H 1338.86 -2.05416 2.34969 0
M  V30 14875 N 1339.16 -1.37287 -0.77395 0
M  V30 14876 C 1340.12 -1.32699 -1.86878 0
M  V30 14877 C 1341.12 -0.231486 -1.59125 0
M  V30 14878 O 1342.31 -0.487203 -1.67248 0
M  V30 14879 C 1339.44 -1.0609 -3.23972 0
M  V30 14880 H 1340.64 -2.30083 -1.92359 0
M  V30 14881 H 1338.19 -1.22284 -0.973459 0
M  V30 14882 H 1338.92 -0.0922868 -3.24169 0
M  V30 14883 H 1338.71 -1.85383 -3.45508 0
M  V30 14884 H 1340.2 -1.05524 -4.04048 0
M  V30 14885 N 1340.64 0.999871 -1.21821 0
M  V30 14886 C 1341.86 1.7794 -1.06546 0
M  V30 14887 C 1342.29 1.84219 0.380115 0
M  V30 14888 O 1341.64 1.28955 1.27438 0
M  V30 14889 C 1341.69 3.1943 -1.67322 0
M  V30 14890 O 1340.8 4.01957 -0.922171 0
M  V30 14891 H 1340.14 0.548204 -0.374658 0
M  V30 14892 H 1342.67 1.2565 -1.61472 0
M  V30 14893 H 1342.68 3.70086 -1.71757 0
M  V30 14894 H 1341.35 3.14175 -2.7252 0
M  V30 14895 H 1339.93 3.60509 -0.95331 0
M  V30 14896 N 1342.11 1.02678 1.19562 0
M  V30 14897 C 1343.36 0.72059 1.88817 0
M  V30 14898 C 1343.68 -0.752942 1.79877 0
M  V30 14899 O 1342.95 -1.54233 1.20785 0
M  V30 14900 H 1341.53 0.26355 0.698964 0
M  V30 14901 H 1344.2 1.30056 1.4516 0
M  V30 14902 H 1343.29 1.01303 2.95202 0
M  V30 14903 N 1343.59 -1.35528 0.804364 0
M  V30 14904 C 1344.84 -1.9956 0.393383 0
M  V30 14905 C 1345.19 -1.62667 -1.02749 0
M  V30 14906 O 1344.49 -0.87869 -1.70263 0
M  V30 14907 C 1344.68 -3.5372 0.511571 0
M  V30 14908 C 1344.51 -4.05588 1.94238 0
M  V30 14909 C 1343.28 -4.35046 2.57027 0
M  V30 14910 C 1345.48 -4.24287 2.90663 0
M  V30 14911 N 1343.46 -4.7283 3.91541 0
M  V30 14912 C 1344.83 -4.65043 4.10043 0
M  V30 14913 C 1346.89 -4.0649 2.87524 0
M  V30 14914 C 1345.59 -4.89864 5.26712 0
M  V30 14915 C 1347.61 -4.32467 4.03394 0
M  V30 14916 C 1346.98 -4.73492 5.21521 0
M  V30 14917 H 1343.08 -0.758146 0.191674 0
M  V30 14918 H 1345.66 -1.64271 1.04513 0
M  V30 14919 H 1343.83 -3.88244 -0.110174 0
M  V30 14920 H 1345.56 -4.0463 0.0753915 0
M  V30 14921 H 1342.32 -4.25285 2.08397 0
M  V30 14922 H 1342.74 -4.95985 4.6079 0
M  V30 14923 H 1347.38 -3.73916 1.97349 0
M  V30 14924 H 1345.1 -5.21313 6.17461 0
M  V30 14925 H 1348.69 -4.20252 4.02343 0
M  V30 14926 H 1347.57 -4.93201 6.09691 0
M  V30 14927 N 1345.07 -0.557671 -1.47404 0
M  V30 14928 C 1346.3 -0.0366797 -2.07368 0
M  V30 14929 C 1346.72 1.2478 -1.40754 0
M  V30 14930 O 1346.08 1.74757 -0.48268 0
M  V30 14931 C 1346.13 0.141728 -3.60321 0
M  V30 14932 O 1345.23 1.20419 -3.94427 0
M  V30 14933 H 1344.57 -0.0515319 -0.661997 0
M  V30 14934 H 1347.1 -0.773485 -1.89416 0
M  V30 14935 H 1347.11 0.355787 -4.06446 0
M  V30 14936 H 1345.79 -0.796433 -4.08203 0
M  V30 14937 H 1344.36 0.970589 -3.60047 0
M  V30 14938 N 1346.55 1.54831 -0.294147 0
M  V30 14939 C 1347.5 2.19966 0.599919 0
M  V30 14940 C 1348.48 1.1704 1.1041 0
M  V30 14941 O 1349.68 1.42785 1.04601 0
M  V30 14942 C 1346.8 2.93875 1.77461 0
M  V30 14943 C 1345.89 4.0411 1.28671 0
M  V30 14944 N 1346.28 5.03158 0.516316 0
M  V30 14945 C 1344.58 4.17527 1.56804 0
M  V30 14946 C 1345.28 5.8113 0.257361 0
M  V30 14947 N 1344.26 5.37145 0.835221 0
M  V30 14948 H 1348.06 2.939 0.00369516 0
M  V30 14949 H 1345.57 1.621 -0.0985855 0
M  V30 14950 H 1347.57 3.39001 2.4266 0
M  V30 14951 H 1346.23 2.21456 2.3746 0
M  V30 14952 H 1347.24 5.17647 0.161855 0
M  V30 14953 H 1343.92 3.56309 2.17601 0
M  V30 14954 H 1345.31 6.7093 -0.360924 0
M  V30 14955 N 1348.03 0.0217466 1.57585 0
M  V30 14956 C 1348.98 -0.980624 2.10918 0
M  V30 14957 C 1349.97 -1.34178 1.03406 0
M  V30 14958 O 1351.18 -1.32487 1.21849 0
M  V30 14959 H 1347.55 -0.333984 0.673764 0
M  V30 14960 H 1349.52 -0.505431 2.94088 0
M  V30 14961 C 1348.27 -2.25639 2.64542 0
M  V30 14962 H 1347.59 -1.98722 3.46914 0
M  V30 14963 H 1349.03 -2.94003 3.05513 0
M  V30 14964 C 1347.49 -2.98111 1.56945 0
M  V30 14965 O 1348.02 -3.89937 0.964975 0
M  V30 14966 N 1346.23 -2.60316 1.29166 0
M  V30 14967 H 1345.78 -1.85722 1.78508 0
M  V30 14968 H 1345.73 -3.09116 0.573987 0
M  V30 14969 N 1349.51 -1.55583 -0.251311 0
M  V30 14970 C 1350.92 -1.67693 -0.820719 0
M  V30 14971 C 1351.27 -0.618393 -1.862 0
M  V30 14972 O 1350.39 0.236158 -2.15108 0
M  V30 14973 C 1350.99 -3.04011 -1.49542 0
M  V30 14974 C 1349.55 -3.18075 -2.01259 0
M  V30 14975 C 1348.69 -2.63557 -0.862138 0
M  V30 14976 H 1351.64 -1.58677 -0.0272072 0
M  V30 14977 H 1351.67 -2.9821 -2.36328 0
M  V30 14978 H 1351.18 -3.81032 -0.737323 0
M  V30 14979 H 1349.28 -2.45869 -2.79963 0
M  V30 14980 H 1349.39 -4.24927 -2.213 0
M  V30 14981 H 1347.76 -2.21268 -1.26145 0
M  V30 14982 H 1348.54 -3.431 -0.117196 0
M  V30 14983 N 1350.98 0.516783 -1.48886 0
M  V30 14984 C 1352.21 1.29628 -1.61258 0
M  V30 14985 C 1352.63 1.86744 -0.27786 0
M  V30 14986 O 1351.98 1.67061 0.734639 0
M  V30 14987 C 1352.03 2.43779 -2.66935 0
M  V30 14988 O 1351.76 1.89014 -3.95228 0
M  V30 14989 C 1353.26 3.35398 -2.89867 0
M  V30 14990 H 1350.48 0.393736 -0.543335 0
M  V30 14991 H 1353.02 0.622069 -1.94809 0
M  V30 14992 H 1351.18 3.0706 -2.36206 0
M  V30 14993 H 1351.59 2.63833 -4.53312 0
M  V30 14994 H 1353.06 4.11812 -3.6758 0
M  V30 14995 H 1353.54 3.91436 -1.99185 0
M  V30 14996 H 1354.15 2.77898 -3.21952 0
M  V30 14997 N 1352.46 1.37696 0.766659 0
M  V30 14998 C 1353.71 1.32922 1.52237 0
M  V30 14999 C 1354.03 -0.0842833 1.94818 0
M  V30 15000 O 1353.3 -1.02934 1.66677 0
M  V30 15001 H 1351.88 0.489049 0.564659 0
M  V30 15002 H 1354.54 1.72238 0.912142 0
M  V30 15003 H 1353.64 1.97158 2.4194 0
M  V30 15004 N 1353.94 -0.993397 1.22349 0
M  V30 15005 C 1355.19 -1.72945 1.04568 0
M  V30 15006 C 1355.51 -1.90419 -0.420178 0
M  V30 15007 O 1354.78 -1.46348 -1.30227 0
M  V30 15008 H 1353.36 -0.640777 0.383945 0
M  V30 15009 H 1356.02 -1.19647 1.53853 0
M  V30 15010 H 1355.12 -2.72411 1.52311 0
M  V30 15011 N 1355.42 -1.03311 -1.19015 0
M  V30 15012 C 1356.83 -0.761079 -1.70483 0
M  V30 15013 C 1357.18 0.718851 -1.82557 0
M  V30 15014 O 1356.3 1.56006 -1.4997 0
M  V30 15015 C 1356.9 -1.37492 -3.09647 0
M  V30 15016 C 1355.46 -1.15138 -3.58358 0
M  V30 15017 C 1354.61 -1.47034 -2.35109 0
M  V30 15018 H 1357.56 -1.2005 -1.03797 0
M  V30 15019 H 1357.58 -0.774115 -3.72542 0
M  V30 15020 H 1357.09 -2.45203 -3.00828 0
M  V30 15021 H 1355.19 -0.0926822 -3.72485 0
M  V30 15022 H 1355.3 -1.84307 -4.4223 0
M  V30 15023 H 1353.67 -0.889794 -2.38652 0
M  V30 15024 H 1354.45 -2.55837 -2.28916 0
M  V30 15025 N 1356.9 1.35099 -0.81154 0
M  V30 15026 C 1358.14 1.98233 -0.393453 0
M  V30 15027 C 1358.46 1.64688 1.04417 0
M  V30 15028 O 1357.73 0.931845 1.72318 0
M  V30 15029 H 1356.31 0.733283 -0.142496 0
M  V30 15030 H 1358.98 1.6493 -1.03847 0
M  V30 15031 H 1358.07 3.08017 -0.503188 0
M  V30 15032 N 1358.37 0.56548 1.47106 0
M  V30 15033 C 1359.78 0.134289 1.86216 0
M  V30 15034 C 1360.14 -1.29815 1.47114 0
M  V30 15035 O 1359.26 -1.97787 0.878017 0
M  V30 15036 C 1359.86 0.236931 3.37971 0
M  V30 15037 C 1358.41 -0.139275 3.76142 0
M  V30 15038 C 1357.56 0.580743 2.71151 0
M  V30 15039 H 1360.51 0.774723 1.38505 0
M  V30 15040 H 1360.53 -0.542301 3.76616 0
M  V30 15041 H 1360.05 1.27958 3.66399 0
M  V30 15042 H 1358.15 -1.18272 3.53331 0
M  V30 15043 H 1358.26 0.225045 4.78571 0
M  V30 15044 H 1356.62 0.0228963 2.5469 0
M  V30 15045 H 1357.41 1.62471 3.0242 0
M  V30 15046 N 1359.85 -1.54672 0.302354 0
M  V30 15047 C 1360.8 -2.20281 -0.588245 0
M  V30 15048 C 1361.79 -1.17624 -1.09788 0
M  V30 15049 O 1362.98 -1.43338 -1.03842 0
M  V30 15050 C 1360.11 -2.94812 -1.759 0
M  V30 15051 C 1359.19 -4.04786 -1.26526 0
M  V30 15052 N 1359.58 -5.03425 -0.489625 0
M  V30 15053 C 1357.88 -4.18352 -1.54588 0
M  V30 15054 C 1358.58 -5.81259 -0.226538 0
M  V30 15055 N 1357.56 -5.37581 -0.806723 0
M  V30 15056 H 1361.36 -2.93898 0.0118911 0
M  V30 15057 H 1358.88 -1.62046 0.107181 0
M  V30 15058 H 1360.87 -3.40283 -2.40859 0
M  V30 15059 H 1359.53 -2.22712 -2.36282 0
M  V30 15060 H 1360.54 -5.17726 -0.134401 0
M  V30 15061 H 1357.22 -3.57458 -2.15709 0
M  V30 15062 H 1358.61 -6.70729 0.396499 0
M  V30 15063 N 1361.33 -0.0301034 -1.57571 0
M  V30 15064 C 1362.58 0.643491 -1.92953 0
M  V30 15065 C 1362.93 1.69679 -0.907009 0
M  V30 15066 O 1362.22 1.91446 0.0768136 0
M  V30 15067 C 1362.42 1.30206 -3.32838 0
M  V30 15068 C 1362.25 0.314074 -4.48602 0
M  V30 15069 C 1361.02 -0.0864138 -5.05226 0
M  V30 15070 C 1363.22 -0.432028 -5.12482 0
M  V30 15071 N 1361.2 -1.06947 -6.04513 0
M  V30 15072 C 1362.57 -1.26881 -6.06878 0
M  V30 15073 C 1364.62 -0.492623 -4.95457 0
M  V30 15074 C 1363.33 -2.16071 -6.8608 0
M  V30 15075 C 1365.35 -1.37187 -5.75268 0
M  V30 15076 C 1364.71 -2.19642 -6.69281 0
M  V30 15077 H 1360.81 0.207753 -0.753898 0
M  V30 15078 H 1363.4 -0.0975084 -1.94456 0
M  V30 15079 H 1361.57 2.0132 -3.32152 0
M  V30 15080 H 1363.3 1.93276 -3.55565 0
M  V30 15081 H 1360.06 0.288233 -4.72722 0
M  V30 15082 H 1360.48 -1.55726 -6.58846 0
M  V30 15083 H 1365.12 0.130615 -4.22598 0
M  V30 15084 H 1362.84 -2.79449 -7.58244 0
M  V30 15085 H 1366.43 -1.42306 -5.64128 0
M  V30 15086 H 1365.31 -2.86576 -7.29962 0
M  V30 15087 N 1362.81 1.55714 0.243056 0
M  V30 15088 C 1364.06 1.77375 0.968638 0
M  V30 15089 C 1364.38 0.594781 1.85708 0
M  V30 15090 O 1363.65 -0.38928 1.91993 0
M  V30 15091 H 1362.23 0.654174 0.360646 0
M  V30 15092 H 1364.89 1.93157 0.260079 0
M  V30 15093 H 1363.99 2.68674 1.5881 0
M  V30 15094 N 1364.29 -0.50888 1.49158 0
M  V30 15095 C 1365.24 -1.60799 1.61641 0
M  V30 15096 C 1366.22 -1.53808 0.472434 0
M  V30 15097 O 1367.41 -1.61471 0.724985 0
M  V30 15098 C 1364.54 -2.99444 1.67894 0
M  V30 15099 C 1363.63 -3.1146 2.87843 0
M  V30 15100 N 1364.02 -2.93387 4.12016 0
M  V30 15101 C 1362.32 -3.42549 2.85616 0
M  V30 15102 C 1363.02 -3.09378 4.92606 0
M  V30 15103 N 1361.99 -3.37902 4.2582 0
M  V30 15104 H 1365.8 -1.45468 2.55375 0
M  V30 15105 H 1363.31 -0.714832 1.45822 0
M  V30 15106 H 1365.31 -3.78423 1.74934 0
M  V30 15107 H 1363.97 -3.1585 0.752919 0
M  V30 15108 H 1364.98 -2.69721 4.42121 0
M  V30 15109 H 1361.65 -3.65181 2.02359 0
M  V30 15110 H 1363.04 -2.99964 6.01225 0
M  V30 15111 N 1365.76 -1.381 -0.759346 0
M  V30 15112 C 1367.18 -1.30379 -1.33635 0
M  V30 15113 C 1367.53 0.0430279 -1.96153 0
M  V30 15114 O 1366.65 0.945029 -1.94675 0
M  V30 15115 C 1367.25 -2.3611 -2.42976 0
M  V30 15116 C 1365.81 -2.31985 -2.96412 0
M  V30 15117 C 1364.95 -2.19281 -1.69739 0
M  V30 15118 H 1367.9 -1.48542 -0.558656 0
M  V30 15119 H 1367.92 -2.01493 -3.22771 0
M  V30 15120 H 1367.44 -3.34122 -1.97445 0
M  V30 15121 H 1365.54 -1.37536 -3.46287 0
M  V30 15122 H 1365.65 -3.25895 -3.51183 0
M  V30 15123 H 1364.01 -1.66035 -1.93144 0
M  V30 15124 H 1364.8 -3.19225 -1.26293 0
M  V30 15125 N 1367.24 0.986894 -1.22875 0
M  V30 15126 C 1368.18 2.07604 -0.947406 0
M  V30 15127 C 1369.15 1.62214 0.111904 0
M  V30 15128 O 1370.34 1.88488 -0.0209682 0
M  V30 15129 C 1367.46 3.3601 -0.42605 0
M  V30 15130 C 1366.51 4.00331 -1.47097 0
M  V30 15131 S 1367.34 4.40412 -3.04627 0
M  V30 15132 C 1368.5 5.7198 -2.54145 0
M  V30 15133 H 1368.73 2.31149 -1.86969 0
M  V30 15134 H 1366.27 1.1222 -1.06047 0
M  V30 15135 H 1368.22 4.10288 -0.131846 0
M  V30 15136 H 1366.88 3.10484 0.475211 0
M  V30 15137 H 1366.08 4.92809 -1.05618 0
M  V30 15138 H 1365.68 3.32403 -1.71418 0
M  V30 15139 H 1367.97 6.48602 -1.9576 0
M  V30 15140 H 1368.91 6.18293 -3.45137 0
M  V30 15141 H 1369.32 5.29669 -1.95221 0
M  V30 15142 N 1368.72 1.0394 1.18466 0
M  V30 15143 C 1369.97 0.740576 1.88042 0
M  V30 15144 C 1370.29 -0.733822 1.80666 0
M  V30 15145 O 1369.56 -1.52943 1.22414 0
M  V30 15146 H 1368.14 0.270949 0.696129 0
M  V30 15147 H 1370.8 1.31588 1.43772 0
M  V30 15148 H 1369.9 1.04429 2.94111 0
M  V30 15149 N 1370.2 -1.34667 0.818693 0
M  V30 15150 C 1371.45 -1.98022 0.40396 0
M  V30 15151 C 1371.77 -1.65239 -1.03542 0
M  V30 15152 O 1371.04 -0.94097 -1.71821 0
M  V30 15153 H 1369.62 -0.732517 0.146382 0
M  V30 15154 H 1372.28 -1.64377 1.0472 0
M  V30 15155 H 1371.38 -3.07746 0.519516 0
M  V30 15156 N 1371.68 -0.573274 -1.46804 0
M  V30 15157 C 1373.09 -0.144162 -1.86143 0
M  V30 15158 C 1373.44 1.29033 -1.47801 0
M  V30 15159 O 1372.56 1.97319 -0.888494 0
M  V30 15160 C 1373.16 -0.254851 -3.3784 0
M  V30 15161 C 1371.72 0.119325 -3.76211 0
M  V30 15162 C 1370.86 -0.595115 -2.70839 0
M  V30 15163 H 1373.82 -0.782057 -1.38093 0
M  V30 15164 H 1373.84 0.522321 -3.76898 0
M  V30 15165 H 1373.35 -1.29899 -3.65715 0
M  V30 15166 H 1371.45 1.16396 -3.53953 0
M  V30 15167 H 1371.56 -0.250421 -4.78445 0
M  V30 15168 H 1369.93 -0.0364028 -2.54674 0
M  V30 15169 H 1370.71 -1.64072 -3.01555 0
M  V30 15170 N 1373.15 1.5451 -0.310553 0
M  V30 15171 C 1374.57 1.85829 0.180166 0
M  V30 15172 C 1374.92 1.23239 1.52665 0
M  V30 15173 O 1374.04 0.53359 2.09718 0
M  V30 15174 C 1374.64 3.37153 0.333687 0
M  V30 15175 C 1373.2 3.68469 0.768625 0
M  V30 15176 C 1372.34 2.77051 -0.117399 0
M  V30 15177 H 1375.29 1.49544 -0.531262 0
M  V30 15178 H 1375.31 3.62171 1.16673 0
M  V30 15179 H 1374.83 3.82678 -0.646455 0
M  V30 15180 H 1372.93 3.28467 1.75898 0
M  V30 15181 H 1373.04 4.75559 0.581392 0
M  V30 15182 H 1371.4 2.51461 0.404905 0
M  V30 15183 H 1372.19 3.254 -1.09407 0
M  V30 15184 N 1374.63 0.0384594 1.57553 0
M  V30 15185 C 1375.57 -0.969185 2.077 0
M  V30 15186 C 1376.58 -1.2829 1.00227 0
M  V30 15187 O 1377.77 -1.24592 1.27824 0
M  V30 15188 C 1374.87 -2.29414 2.49444 0
M  V30 15189 C 1374.04 -2.16422 3.80106 0
M  V30 15190 C 1373.1 -3.31931 4.08299 0
M  V30 15191 O 1372.13 -3.08401 4.78412 0
M  V30 15192 N 1373.33 -4.56015 3.59208 0
M  V30 15193 H 1376.09 -0.541252 2.94772 0
M  V30 15194 H 1373.65 -0.148084 1.61221 0
M  V30 15195 H 1375.65 -3.05533 2.6539 0
M  V30 15196 H 1374.22 -2.63817 1.67688 0
M  V30 15197 H 1373.44 -1.24973 3.73866 0
M  V30 15198 H 1374.72 -2.04954 4.65694 0
M  V30 15199 H 1374.12 -4.78025 3.02503 0
M  V30 15200 H 1372.68 -5.29271 3.80415 0
M  V30 15201 N 1376.11 -1.55841 -0.234795 0
M  V30 15202 C 1377.07 -1.9051 -1.2743 0
M  V30 15203 C 1378.07 -0.782543 -1.40474 0
M  V30 15204 O 1379.26 -1.05043 -1.38966 0
M  V30 15205 C 1376.4 -2.14424 -2.65019 0
M  V30 15206 H 1377.59 -2.83471 -0.979003 0
M  V30 15207 H 1375.14 -1.48919 -0.47463 0
M  V30 15208 H 1375.88 -1.23972 -2.99669 0
M  V30 15209 H 1375.66 -2.96191 -2.56931 0
M  V30 15210 H 1377.15 -2.42388 -3.40056 0
M  V30 15211 N 1377.59 0.500963 -1.49426 0
M  V30 15212 C 1378.84 1.25427 -1.60124 0
M  V30 15213 C 1379.19 1.90288 -0.284312 0
M  V30 15214 O 1378.48 1.77741 0.715459 0
M  V30 15215 C 1378.68 2.34448 -2.69757 0
M  V30 15216 C 1378.51 1.80278 -4.11983 0
M  V30 15217 C 1377.28 1.61577 -4.7877 0
M  V30 15218 C 1379.47 1.31462 -4.97215 0
M  V30 15219 N 1377.46 1.02337 -6.0531 0
M  V30 15220 C 1378.83 0.843562 -6.14235 0
M  V30 15221 C 1380.88 1.20035 -4.83214 0
M  V30 15222 C 1379.59 0.269543 -7.18795 0
M  V30 15223 C 1381.61 0.640304 -5.87924 0
M  V30 15224 C 1380.97 0.179474 -7.04171 0
M  V30 15225 H 1377.07 0.448932 -0.6403 0
M  V30 15226 H 1379.66 0.561377 -1.86431 0
M  V30 15227 H 1377.83 3.01198 -2.45223 0
M  V30 15228 H 1379.56 3.01487 -2.69977 0
M  V30 15229 H 1376.31 1.85946 -4.3557 0
M  V30 15230 H 1376.74 0.746441 -6.72872 0
M  V30 15231 H 1381.38 1.54263 -3.93653 0
M  V30 15232 H 1379.1 -0.0849963 -8.08055 0
M  V30 15233 H 1382.68 0.554669 -5.7915 0
M  V30 15234 H 1381.56 -0.247125 -7.83811 0
M  V30 15235 N 1379.07 1.38501 0.752011 0
M  V30 15236 C 1380.32 1.34529 1.50819 0
M  V30 15237 C 1380.64 -0.0636155 1.94896 0
M  V30 15238 O 1379.91 -1.01161 1.6776 0
M  V30 15239 H 1378.49 0.49501 0.559441 0
M  V30 15240 H 1381.15 1.73196 0.893822 0
M  V30 15241 H 1380.24 1.99713 2.39835 0
M  V30 15242 N 1380.55 -0.980364 1.23396 0
M  V30 15243 C 1381.5 -2.05753 0.982323 0
M  V30 15244 C 1382.48 -1.6074 -0.0716939 0
M  V30 15245 O 1383.67 -1.76442 0.140438 0
M  V30 15246 C 1380.8 -3.38442 0.575481 0
M  V30 15247 C 1379.89 -3.90054 1.6649 0
M  V30 15248 N 1380.28 -4.14744 2.89519 0
M  V30 15249 C 1378.58 -4.18588 1.53949 0
M  V30 15250 C 1379.28 -4.56877 3.60053 0
M  V30 15251 N 1378.25 -4.61309 2.87567 0
M  V30 15252 H 1382.05 -2.22801 1.91669 0
M  V30 15253 H 1379.57 -1.16314 1.13335 0
M  V30 15254 H 1381.57 -4.15197 0.376477 0
M  V30 15255 H 1380.23 -3.22788 -0.351844 0
M  V30 15256 H 1381.24 -4.02566 3.25824 0
M  V30 15257 H 1377.91 -4.11937 0.679275 0
M  V30 15258 H 1379.3 -4.84498 4.65523 0
M  V30 15259 N 1382.02 -1.04567 -1.17913 0
M  V30 15260 C 1383.43 -0.779118 -1.69666 0
M  V30 15261 C 1383.79 0.699448 -1.83309 0
M  V30 15262 O 1382.91 1.54407 -1.51616 0
M  V30 15263 C 1383.51 -1.40769 -3.08171 0
M  V30 15264 C 1382.06 -1.18933 -3.57116 0
M  V30 15265 C 1381.21 -1.49519 -2.33536 0
M  V30 15266 H 1384.16 -1.21144 -1.02518 0
M  V30 15267 H 1384.18 -0.813584 -3.717 0
M  V30 15268 H 1383.7 -2.4838 -2.9821 0
M  V30 15269 H 1381.8 -0.132184 -3.72365 0
M  V30 15270 H 1381.91 -1.88987 -4.40251 0
M  V30 15271 H 1380.27 -0.915056 -2.37695 0
M  V30 15272 H 1381.06 -2.5825 -2.26189 0
M  V30 15273 N 1383.5 1.34231 -0.825823 0
M  V30 15274 C 1384.43 2.27366 -0.194964 0
M  V30 15275 C 1385.41 1.49029 0.650315 0
M  V30 15276 O 1386.6 1.7824 0.613424 0
M  V30 15277 C 1383.72 3.30796 0.727439 0
M  V30 15278 C 1382.77 4.26481 -0.0406869 0
M  V30 15279 S 1383.6 5.17151 -1.38981 0
M  V30 15280 C 1384.76 6.24115 -0.472354 0
M  V30 15281 H 1384.99 2.80524 -0.984559 0
M  V30 15282 H 1382.52 1.41323 -0.621875 0
M  V30 15283 H 1384.48 3.90875 1.25406 0
M  V30 15284 H 1383.14 2.76479 1.49058 0
M  V30 15285 H 1382.34 4.99651 0.660652 0
M  V30 15286 H 1381.94 3.7067 -0.497956 0
M  V30 15287 H 1384.23 6.76671 0.334956 0
M  V30 15288 H 1385.17 6.98303 -1.17383 0
M  V30 15289 H 1385.58 5.64469 -0.0594964 0
M  V30 15290 N 1384.98 0.581051 1.46498 0
M  V30 15291 C 1385.91 -0.19094 2.28403 0
M  V30 15292 C 1386.92 -0.857039 1.38415 0
M  V30 15293 O 1388.11 -0.726881 1.6303 0
M  V30 15294 C 1385.21 -1.28972 3.134 0
M  V30 15295 C 1384.39 -0.715867 4.31502 0
M  V30 15296 C 1383.45 -1.70215 4.97909 0
M  V30 15297 O 1382.47 -1.23885 5.55555 0
M  V30 15298 N 1383.67 -3.0362 4.94768 0
M  V30 15299 H 1386.44 0.511754 2.95298 0
M  V30 15300 H 1384 0.41871 1.56392 0
M  V30 15301 H 1385.99 -1.94877 3.5469 0
M  V30 15302 H 1384.56 -1.8953 2.4859 0
M  V30 15303 H 1383.78 0.120591 3.94016 0
M  V30 15304 H 1385.07 -0.312226 5.07841 0
M  V30 15305 H 1384.47 -3.43885 4.49177 0
M  V30 15306 H 1383.02 -3.65018 5.40005 0
M  V30 15307 N 1386.46 -1.54343 0.318742 0
M  V30 15308 C 1387.71 -2.00084 -0.284713 0
M  V30 15309 C 1388.03 -1.20855 -1.53033 0
M  V30 15310 O 1387.3 -0.309104 -1.93446 0
M  V30 15311 H 1385.88 -0.739123 -0.108193 0
M  V30 15312 H 1388.54 -1.90002 0.434174 0
M  V30 15313 H 1387.63 -3.07314 -0.544459 0
M  V30 15314 N 1387.94 -0.0468143 -1.5753 0
M  V30 15315 C 1389.18 0.626699 -1.92138 0
M  V30 15316 C 1389.5 1.7164 -0.925463 0
M  V30 15317 O 1388.77 1.95876 0.0303531 0
M  V30 15318 H 1387.35 0.234479 -0.709245 0
M  V30 15319 H 1390.02 -0.0987892 -1.94649 0
M  V30 15320 H 1389.11 1.06811 -2.93254 0
M  V30 15321 N 1389.41 1.55964 0.226527 0
M  V30 15322 C 1390.83 1.68978 0.793936 0
M  V30 15323 C 1391.18 0.647938 1.85192 0
M  V30 15324 O 1390.3 -0.201907 2.15456 0
M  V30 15325 C 1390.9 3.06351 1.44687 0
M  V30 15326 C 1389.46 3.21237 1.96173 0
M  V30 15327 C 1388.6 2.64896 0.8201 0
M  V30 15328 H 1391.55 1.587 0.00195967 0
M  V30 15329 H 1391.57 3.01932 2.31554 0
M  V30 15330 H 1391.09 3.82156 0.676611 0
M  V30 15331 H 1389.19 2.50292 2.76016 0
M  V30 15332 H 1389.3 4.28394 2.14512 0
M  V30 15333 H 1387.66 2.23247 1.22609 0
M  V30 15334 H 1388.45 3.43243 0.0625967 0
M  V30 15335 N 1390.89 -0.493031 1.4969 0
M  V30 15336 C 1391.82 -1.61058 1.63074 0
M  V30 15337 C 1392.84 -1.54504 0.513069 0
M  V30 15338 O 1394.03 -1.60291 0.785431 0
M  V30 15339 C 1391.13 -2.99877 1.57883 0
M  V30 15340 C 1390.3 -3.31531 2.85317 0
M  V30 15341 C 1389.36 -4.49799 2.7307 0
M  V30 15342 O 1388.38 -4.51189 3.47012 0
M  V30 15343 N 1389.59 -5.50182 1.85148 0
M  V30 15344 H 1392.35 -1.5 2.59461 0
M  V30 15345 H 1389.91 -0.681057 1.46878 0
M  V30 15346 H 1391.9 -3.76928 1.47333 0
M  V30 15347 H 1390.47 -3.04817 0.693218 0
M  V30 15348 H 1389.69 -2.433 3.10159 0
M  V30 15349 H 1390.98 -3.49481 3.69784 0
M  V30 15350 H 1390.38 -5.51865 1.24345 0
M  V30 15351 H 1388.94 -6.26305 1.80516 0
M  V30 15352 N 1392.37 -1.38898 -0.744656 0
M  V30 15353 C 1393.78 -1.31789 -1.32244 0
M  V30 15354 C 1394.13 0.0222208 -1.96187 0
M  V30 15355 O 1393.26 0.924328 -1.95666 0
M  V30 15356 C 1393.85 -2.38674 -2.40458 0
M  V30 15357 C 1392.41 -2.35116 -2.93935 0
M  V30 15358 C 1391.56 -2.21069 -1.67403 0
M  V30 15359 H 1394.51 -1.49126 -0.54287 0
M  V30 15360 H 1394.53 -2.04905 -3.20615 0
M  V30 15361 H 1394.04 -3.36197 -1.9389 0
M  V30 15362 H 1392.14 -1.41201 -3.44809 0
M  V30 15363 H 1392.26 -3.29602 -3.47706 0
M  V30 15364 H 1390.62 -1.68074 -1.91372 0
M  V30 15365 H 1391.4 -3.20547 -1.229 0
M  V30 15366 N 1393.85 0.973806 -1.23914 0
M  V30 15367 C 1395.09 1.71927 -1.08685 0
M  V30 15368 C 1395.45 1.88781 0.371428 0
M  V30 15369 O 1394.74 1.43378 1.27095 0
M  V30 15370 C 1394.94 3.11441 -1.75326 0
M  V30 15371 C 1394.77 3.08196 -3.27483 0
M  V30 15372 C 1393.54 3.13018 -3.96671 0
M  V30 15373 C 1395.73 2.90848 -4.2416 0
M  V30 15374 N 1393.72 2.99727 -5.35758 0
M  V30 15375 C 1395.09 2.85789 -5.50204 0
M  V30 15376 C 1397.14 2.75382 -4.14812 0
M  V30 15377 C 1395.84 2.66847 -6.67971 0
M  V30 15378 C 1397.87 2.57806 -5.3225 0
M  V30 15379 C 1397.23 2.53451 -6.57223 0
M  V30 15380 H 1393.33 0.637935 -0.452286 0
M  V30 15381 H 1395.92 1.15502 -1.5674 0
M  V30 15382 H 1394.09 3.66071 -1.29794 0
M  V30 15383 H 1395.82 3.74659 -1.53012 0
M  V30 15384 H 1392.57 3.21458 -3.47795 0
M  V30 15385 H 1393 2.96339 -6.08697 0
M  V30 15386 H 1397.64 2.77535 -3.18958 0
M  V30 15387 H 1395.36 2.63438 -7.63954 0
M  V30 15388 H 1398.94 2.46793 -5.26863 0
M  V30 15389 H 1397.82 2.40023 -7.46565 0
M  V30 15390 N 1395.33 1.05191 1.17357 0
M  V30 15391 C 1396.57 0.760479 1.87246 0
M  V30 15392 C 1396.9 -0.714618 1.81434 0
M  V30 15393 O 1396.17 -1.51636 1.24029 0
M  V30 15394 H 1394.75 0.278317 0.693216 0
M  V30 15395 H 1397.41 1.33106 1.42369 0
M  V30 15396 H 1396.5 1.07542 2.92987 0
M  V30 15397 N 1396.8 -1.33791 0.83293 0
M  V30 15398 C 1397.75 -2.26795 0.234069 0
M  V30 15399 C 1398.74 -1.48991 -0.60749 0
M  V30 15400 O 1399.93 -1.70907 -0.46043 0
M  V30 15401 C 1397.06 -3.38107 -0.594863 0
M  V30 15402 C 1396.15 -4.23315 0.257877 0
M  V30 15403 N 1396.54 -4.87899 1.33373 0
M  V30 15404 C 1394.83 -4.45978 0.0438997 0
M  V30 15405 C 1395.54 -5.51278 1.85655 0
M  V30 15406 N 1394.51 -5.31103 1.15892 0
M  V30 15407 H 1398.31 -2.7424 1.05688 0
M  V30 15408 H 1395.83 -1.47627 0.676767 0
M  V30 15409 H 1397.82 -4.03716 -1.04014 0
M  V30 15410 H 1396.48 -2.92212 -1.41571 0
M  V30 15411 H 1397.5 -4.88624 1.71659 0
M  V30 15412 H 1394.17 -4.10818 -0.743985 0
M  V30 15413 H 1395.56 -6.12723 2.75717 0
M  V30 15414 N 1398.28 -0.588812 -1.46187 0
M  V30 15415 C 1399.69 -0.163897 -1.85979 0
M  V30 15416 C 1400.04 1.27458 -1.49161 0
M  V30 15417 O 1399.17 1.96365 -0.909372 0
M  V30 15418 C 1399.76 -0.29067 -3.37551 0
M  V30 15419 C 1398.32 0.0794165 -3.76316 0
M  V30 15420 C 1397.47 -0.623807 -2.70192 0
M  V30 15421 H 1400.42 -0.79666 -1.37255 0
M  V30 15422 H 1400.44 0.482316 -3.77431 0
M  V30 15423 H 1399.95 -1.33771 -3.64317 0
M  V30 15424 H 1398.06 1.12636 -3.55168 0
M  V30 15425 H 1398.17 -0.301153 -4.78153 0
M  V30 15426 H 1396.53 -0.0634124 -2.54621 0
M  V30 15427 H 1397.32 -1.67261 -2.99797 0
M  V30 15428 N 1399.76 1.54172 -0.326923 0
M  V30 15429 C 1400.99 2.05512 0.279231 0
M  V30 15430 C 1401.41 1.20131 1.44741 0
M  V30 15431 O 1400.77 0.211191 1.80066 0
M  V30 15432 C 1400.82 3.53971 0.688263 0
M  V30 15433 O 1399.92 3.71516 1.79025 0
M  V30 15434 H 1399.26 0.662131 0.0497826 0
M  V30 15435 H 1401.79 1.98979 -0.476309 0
M  V30 15436 H 1401.8 3.96302 0.970002 0
M  V30 15437 H 1400.48 4.15568 -0.166132 0
M  V30 15438 H 1399.05 3.4109 1.50706 0
M  V30 15439 N 1401.24 0.0551678 1.57503 0
M  V30 15440 C 1402.49 -0.6165 1.92467 0
M  V30 15441 C 1402.81 -1.71147 0.934552 0
M  V30 15442 O 1402.08 -1.9589 -0.0199649 0
M  V30 15443 H 1400.66 -0.230714 0.710479 0
M  V30 15444 H 1403.32 0.109111 1.94594 0
M  V30 15445 H 1402.42 -1.05254 2.93816 0
M  V30 15446 N 1402.72 -1.56081 -0.218252 0
M  V30 15447 C 1404.13 -1.69397 -0.784964 0
M  V30 15448 C 1404.48 -0.65775 -1.84846 0
M  V30 15449 O 1403.6 0.190478 -2.1556 0
M  V30 15450 C 1404.2 -3.07114 -1.4306 0
M  V30 15451 C 1402.76 -3.22273 -1.94466 0
M  V30 15452 C 1401.9 -2.65327 -0.80604 0
M  V30 15453 H 1404.86 -1.58699 0.0064566 0
M  V30 15454 H 1404.88 -3.03156 -2.2995 0
M  V30 15455 H 1404.39 -3.8251 -0.656335 0
M  V30 15456 H 1402.49 -2.51752 -2.74684 0
M  V30 15457 H 1402.6 -4.29526 -2.12237 0
M  V30 15458 H 1400.97 -2.23894 -1.21423 0
M  V30 15459 H 1401.75 -3.43271 -0.0443928 0
M  V30 15460 N 1404.2 0.485086 -1.49949 0
M  V30 15461 C 1405.13 1.60306 -1.62411 0
M  V30 15462 C 1406.11 1.5558 -0.47262 0
M  V30 15463 O 1407.29 1.75406 -0.690285 0
M  V30 15464 C 1404.42 2.98859 -1.59377 0
M  V30 15465 C 1403.46 3.2179 -2.79917 0
M  V30 15466 S 1404.3 3.03194 -4.41399 0
M  V30 15467 C 1405.45 4.44114 -4.41037 0
M  V30 15468 H 1405.69 1.49493 -2.56981 0
M  V30 15469 H 1403.22 0.671413 -1.39037 0
M  V30 15470 H 1405.18 3.78744 -1.58313 0
M  V30 15471 H 1403.84 3.07073 -0.660673 0
M  V30 15472 H 1403.03 4.22975 -2.74059 0
M  V30 15473 H 1402.63 2.49653 -2.78477 0
M  V30 15474 H 1404.92 5.36496 -4.13737 0
M  V30 15475 H 1405.87 4.55019 -5.42553 0
M  V30 15476 H 1406.28 4.25538 -3.70914 0
M  V30 15477 N 1405.67 1.39291 0.737279 0
M  V30 15478 C 1406.61 1.33728 1.86144 0
M  V30 15479 C 1407.62 0.246468 1.60924 0
M  V30 15480 O 1408.81 0.505252 1.712 0
M  V30 15481 C 1405.91 1.05312 3.22122 0
M  V30 15482 C 1405.08 2.25624 3.74716 0
M  V30 15483 C 1404.14 1.937 4.89251 0
M  V30 15484 O 1403.17 2.66361 5.03031 0
M  V30 15485 N 1404.37 0.901782 5.73453 0
M  V30 15486 H 1407.13 2.30604 1.91421 0
M  V30 15487 H 1404.69 1.33364 0.917919 0
M  V30 15488 H 1406.69 0.819784 3.9631 0
M  V30 15489 H 1405.26 0.171773 3.12128 0
M  V30 15490 H 1404.48 2.64923 2.91906 0
M  V30 15491 H 1405.76 3.05881 4.06589 0
M  V30 15492 H 1405.16 0.299553 5.64906 0
M  V30 15493 H 1403.72 0.728344 6.47718 0
M  V30 15494 N 1407.15 -0.967221 1.24429 0
M  V30 15495 C 1408.4 -1.70688 1.08213 0
M  V30 15496 C 1408.72 -1.91268 -0.379693 0
M  V30 15497 O 1407.99 -1.49077 -1.27094 0
M  V30 15498 H 1406.57 -0.632489 0.39745 0
M  V30 15499 H 1409.23 -1.16356 1.56356 0
M  V30 15500 H 1408.33 -2.69119 1.58055 0
M  V30 15501 N 1408.63 -1.05812 -1.16797 0
M  V30 15502 C 1409.88 -0.773066 -1.87487 0
M  V30 15503 C 1410.21 0.698471 -1.81204 0
M  V30 15504 O 1409.48 1.51129 -1.22434 0
M  V30 15505 C 1409.77 -1.2621 -3.37258 0
M  V30 15506 C 1409.62 -2.79704 -3.52258 0
M  V30 15507 C 1410.94 -0.866104 -4.31494 0
M  V30 15508 H 1408.06 -0.282304 -0.680789 0
M  V30 15509 H 1410.7 -1.3132 -1.37314 0
M  V30 15510 H 1408.85 -0.802608 -3.80119 0
M  V30 15511 H 1410.52 -3.33824 -3.1837 0
M  V30 15512 H 1408.76 -3.18673 -2.94329 0
M  V30 15513 H 1409.44 -3.08985 -4.57419 0
M  V30 15514 H 1411.91 -1.26178 -3.96508 0
M  V30 15515 H 1410.79 -1.23581 -5.34807 0
M  V30 15516 H 1411.05 0.229391 -4.41504 0
M  V30 15517 N 1410.11 1.33347 -0.840014 0
M  V30 15518 C 1411.52 1.80077 -0.492851 0
M  V30 15519 C 1411.87 1.69495 0.988221 0
M  V30 15520 O 1410.99 1.2449 1.77006 0
M  V30 15521 C 1411.59 3.2696 -0.887827 0
M  V30 15522 C 1410.15 3.71703 -0.592785 0
M  V30 15523 C 1409.3 2.54742 -1.09554 0
M  V30 15524 H 1412.25 1.20853 -1.02861 0
M  V30 15525 H 1412.27 3.79983 -0.198327 0
M  V30 15526 H 1411.78 3.3463 -1.96581 0
M  V30 15527 H 1409.88 3.69559 0.475086 0
M  V30 15528 H 1409.99 4.65123 -1.14882 0
M  V30 15529 H 1408.36 2.49411 -0.516357 0
M  V30 15530 H 1409.14 2.65173 -2.18032 0
M  V30 15531 N 1411.59 0.596556 1.45873 0
M  V30 15532 C 1413 0.259317 1.57479 0
M  V30 15533 C 1413.2 -1.23829 1.58961 0
M  V30 15534 O 1412.26 -2.02076 1.51399 0
M  V30 15535 C 1413.57 0.920755 2.86256 0
M  V30 15536 C 1415.12 0.895638 2.99912 0
M  V30 15537 C 1415.59 1.53688 4.31444 0
M  V30 15538 N 1417.08 1.50186 4.38176 0
M  V30 15539 C 1417.82 1.96727 5.38596 0
M  V30 15540 N 1417.32 2.51304 6.45615 0
M  V30 15541 N 1419.11 1.87561 5.29884 0
M  V30 15542 H 1411.26 1.56909 1.43155 0
M  V30 15543 H 1413.52 0.656664 0.683737 0
M  V30 15544 H 1413.23 1.97481 2.91023 0
M  V30 15545 H 1413.1 0.437331 3.74656 0
M  V30 15546 H 1415.49 -0.149838 2.94719 0
M  V30 15547 H 1415.57 1.41722 2.12952 0
M  V30 15548 H 1415.21 2.58163 4.37395 0
M  V30 15549 H 1415.14 0.990408 5.17203 0
M  V30 15550 H 1417.64 1.10305 3.61443 0
M  V30 15551 H 1417.95 2.84639 7.18471 0
M  V30 15552 H 1416.29 2.55337 6.46396 0
M  V30 15553 H 1419.48 1.4467 4.45183 0
M  V30 15554 H 1419.66 2.24146 6.07999 0
M  V30 15555 N 1413.06 -1.53996 0.335095 0
M  V30 15556 C 1414.31 -2.00375 -0.263475 0
M  V30 15557 C 1414.63 -1.22471 -1.51742 0
M  V30 15558 O 1413.9 -0.329604 -1.93107 0
M  V30 15559 H 1412.48 -0.740229 -0.100347 0
M  V30 15560 H 1415.14 -1.89531 0.454302 0
M  V30 15561 H 1414.24 -3.07874 -0.511834 0
M  V30 15562 N 1414.54 -0.0635198 -1.57472 0
M  V30 15563 C 1415.77 0.620205 -1.9791 0
M  V30 15564 C 1416.19 1.62851 -0.941335 0
M  V30 15565 O 1415.55 1.81056 0.0940313 0
M  V30 15566 C 1415.6 1.27261 -3.37397 0
M  V30 15567 O 1414.7 2.38841 -3.36197 0
M  V30 15568 H 1414.04 0.16021 -0.644382 0
M  V30 15569 H 1416.57 -0.135582 -2.0415 0
M  V30 15570 H 1416.58 1.6214 -3.74399 0
M  V30 15571 H 1415.26 0.533723 -4.12461 0
M  V30 15572 H 1413.83 2.05817 -3.10956 0
M  V30 15573 N 1416.02 1.56195 0.209972 0
M  V30 15574 C 1417.24 1.84189 0.953364 0
M  V30 15575 C 1417.67 0.645288 1.76685 0
M  V30 15576 O 1417.03 -0.405962 1.76696 0
M  V30 15577 C 1417.08 3.10281 1.83733 0
M  V30 15578 O 1416.18 2.89788 2.93422 0
M  V30 15579 H 1415.52 0.606931 0.269314 0
M  V30 15580 H 1418.05 2.03416 0.219783 0
M  V30 15581 H 1418.06 3.40688 2.2449 0
M  V30 15582 H 1416.74 3.97 1.23951 0
M  V30 15583 H 1415.31 2.70643 2.56528 0
M  V30 15584 N 1417.5 -0.477127 1.50204 0
M  V30 15585 C 1418.43 -1.59442 1.63259 0
M  V30 15586 C 1419.41 -1.55327 0.480864 0
M  V30 15587 O 1420.59 -1.75038 0.699578 0
M  V30 15588 C 1417.72 -2.98009 1.6096 0
M  V30 15589 C 1416.77 -3.20301 2.8162 0
M  V30 15590 S 1417.6 -3.00849 4.43001 0
M  V30 15591 C 1418.75 -4.41769 4.43386 0
M  V30 15592 H 1418.99 -1.48128 2.5777 0
M  V30 15593 H 1416.52 -0.66403 1.39392 0
M  V30 15594 H 1418.48 -3.779 1.60319 0
M  V30 15595 H 1417.14 -3.06718 0.676948 0
M  V30 15596 H 1416.33 -4.21515 2.76299 0
M  V30 15597 H 1415.93 -2.48173 2.79797 0
M  V30 15598 H 1418.23 -5.34294 4.16576 0
M  V30 15599 H 1419.17 -4.52135 5.44958 0
M  V30 15600 H 1419.58 -4.23565 3.73166 0
M  V30 15601 N 1418.98 -1.3968 -0.729882 0
M  V30 15602 C 1420.22 -1.36911 -1.4866 0
M  V30 15603 C 1420.55 0.0326011 -1.94973 0
M  V30 15604 O 1419.82 0.984789 -1.69348 0
M  V30 15605 H 1418.4 -0.503848 -0.551495 0
M  V30 15606 H 1421.06 -1.74596 -0.866155 0
M  V30 15607 H 1420.15 -2.03504 -2.36628 0
M  V30 15608 N 1420.45 0.960609 -1.2494 0
M  V30 15609 C 1421.7 1.70701 -1.09495 0
M  V30 15610 C 1422.03 1.90754 0.364214 0
M  V30 15611 O 1421.31 1.47417 1.26879 0
M  V30 15612 C 1421.59 3.09353 -1.84317 0
M  V30 15613 C 1421.44 2.96747 -3.38026 0
M  V30 15614 C 1422.76 4.09139 -1.62153 0
M  V30 15615 H 1419.88 0.61955 -0.399158 0
M  V30 15616 H 1422.52 1.11701 -1.53698 0
M  V30 15617 H 1420.67 3.59719 -1.46746 0
M  V30 15618 H 1422.35 2.53752 -3.85237 0
M  V30 15619 H 1420.59 2.32798 -3.66043 0
M  V30 15620 H 1421.26 3.95002 -3.85587 0
M  V30 15621 H 1423.74 3.67659 -1.94849 0
M  V30 15622 H 1422.61 5.04206 -2.16951 0
M  V30 15623 H 1422.87 4.38521 -0.561437 0
M  V30 15624 N 1421.93 1.0643 1.16234 0
M  V30 15625 C 1423.35 0.78802 1.38789 0
M  V30 15626 C 1423.55 -0.612019 1.91981 0
M  V30 15627 O 1422.6 -1.37235 2.1195 0
M  V30 15628 C 1423.92 1.85406 2.36738 0
M  V30 15629 C 1425.47 1.87773 2.5042 0
M  V30 15630 C 1425.94 2.93435 3.51653 0
M  V30 15631 N 1427.43 2.92477 3.59181 0
M  V30 15632 C 1428.17 3.7088 4.37305 0
M  V30 15633 N 1427.66 4.59106 5.18839 0
M  V30 15634 N 1429.46 3.59267 4.32301 0
M  V30 15635 H 1421.61 1.9674 0.800449 0
M  V30 15636 H 1423.87 0.852631 0.414397 0
M  V30 15637 H 1423.58 2.85954 2.04751 0
M  V30 15638 H 1423.45 1.70625 3.36403 0
M  V30 15639 H 1425.84 0.878825 2.8171 0
M  V30 15640 H 1425.92 2.06633 1.50787 0
M  V30 15641 H 1425.56 3.93519 3.211 0
M  V30 15642 H 1425.49 2.71824 4.5102 0
M  V30 15643 H 1427.98 2.28517 3.00979 0
M  V30 15644 H 1428.3 5.15583 5.75668 0
M  V30 15645 H 1426.64 4.6316 5.18177 0
M  V30 15646 H 1429.83 2.89726 3.67663 0
M  V30 15647 H 1430 4.20613 4.92939 0
M  V30 15648 N 1423.41 -1.329 0.847073 0
M  V30 15649 C 1424.36 -2.3097 0.27487 0
M  V30 15650 C 1425.35 -1.58508 -0.597625 0
M  V30 15651 O 1426.56 -1.73307 -0.486273 0
M  V30 15652 H 1422.93 -0.748719 0.0701719 0
M  V30 15653 H 1424.9 -2.7673 1.11638 0
M  V30 15654 C 1423.65 -3.43662 -0.528363 0
M  V30 15655 H 1422.98 -3.99576 0.133707 0
M  V30 15656 H 1424.42 -4.14458 -0.894443 0
M  V30 15657 C 1422.88 -2.90244 -1.71055 0
M  V30 15658 O 1423.41 -2.87109 -2.80947 0
M  V30 15659 N 1421.61 -2.46743 -1.53512 0
M  V30 15660 H 1421.16 -2.49493 -0.641181 0
M  V30 15661 H 1421.12 -2.11356 -2.32757 0
M  V30 15662 N 1424.89 -0.604284 -1.45555 0
M  V30 15663 C 1426.11 -0.102634 -2.07146 0
M  V30 15664 C 1426.54 1.20239 -1.44652 0
M  V30 15665 O 1425.9 1.73133 -0.538033 0
M  V30 15666 C 1425.94 0.0270231 -3.6059 0
M  V30 15667 O 1425.05 1.0781 -3.98059 0
M  V30 15668 H 1424.39 -0.0725667 -0.660023 0
M  V30 15669 H 1426.92 -0.833355 -1.86859 0
M  V30 15670 H 1426.93 0.226299 -4.07372 0
M  V30 15671 H 1425.6 -0.925896 -4.05463 0
M  V30 15672 H 1424.18 0.855552 -3.62953 0
M  V30 15673 N 1426.37 1.53816 -0.343257 0
M  V30 15674 C 1427.78 1.86169 0.140709 0
M  V30 15675 C 1428.13 1.26449 1.50017 0
M  V30 15676 O 1427.25 0.577955 2.08539 0
M  V30 15677 C 1427.85 3.37785 0.262097 0
M  V30 15678 C 1426.41 3.70016 0.690294 0
M  V30 15679 C 1425.55 2.7674 -0.17614 0
M  V30 15680 H 1428.51 1.48383 -0.562863 0
M  V30 15681 H 1428.53 3.64564 1.08964 0
M  V30 15682 H 1428.04 3.81221 -0.727481 0
M  V30 15683 H 1426.14 3.32124 1.68891 0
M  V30 15684 H 1426.25 4.76686 0.480388 0
M  V30 15685 H 1424.62 2.52263 0.351476 0
M  V30 15686 H 1425.4 3.23006 -1.16285 0
M  V30 15687 N 1427.84 0.0718701 1.57436 0
M  V30 15688 C 1428.78 -0.924911 2.09709 0
M  V30 15689 C 1429.79 -1.26136 1.02925 0
M  V30 15690 O 1430.98 -1.21853 1.30438 0
M  V30 15691 C 1428.08 -2.24072 2.54254 0
M  V30 15692 C 1427.25 -2.0831 3.84611 0
M  V30 15693 C 1426.31 -3.23196 4.15248 0
M  V30 15694 O 1425.34 -2.98184 4.84846 0
M  V30 15695 N 1426.54 -4.48293 3.688 0
M  V30 15696 H 1429.3 -0.478605 2.95854 0
M  V30 15697 H 1426.86 -0.113853 1.61499 0
M  V30 15698 H 1428.86 -2.99835 2.71811 0
M  V30 15699 H 1427.43 -2.60201 1.73246 0
M  V30 15700 H 1426.65 -1.17014 3.76432 0
M  V30 15701 H 1427.93 -1.9503 4.69937 0
M  V30 15702 H 1427.33 -4.71501 3.12575 0
M  V30 15703 H 1425.89 -5.21082 3.91556 0
M  V30 15704 N 1429.32 -1.56304 -0.201686 0
M  V30 15705 C 1430.29 -1.93171 -1.2336 0
M  V30 15706 C 1431.29 -0.812164 -1.38782 0
M  V30 15707 O 1432.48 -1.07967 -1.36707 0
M  V30 15708 C 1429.61 -2.19997 -2.60411 0
M  V30 15709 H 1430.8 -2.85483 -0.918654 0
M  V30 15710 H 1428.35 -1.49893 -0.442935 0
M  V30 15711 H 1429.09 -1.30301 -2.96972 0
M  V30 15712 H 1428.87 -3.01574 -2.5059 0
M  V30 15713 H 1430.36 -2.49547 -3.34838 0
M  V30 15714 N 1430.8 0.469154 -1.50455 0
M  V30 15715 C 1431.73 1.57493 -1.7239 0
M  V30 15716 C 1432.71 1.60161 -0.572915 0
M  V30 15717 O 1433.9 1.76397 -0.812259 0
M  V30 15718 C 1431.03 2.95804 -1.81981 0
M  V30 15719 C 1429.98 3.08001 -2.97185 0
M  V30 15720 C 1429.31 4.4798 -2.91922 0
M  V30 15721 C 1430.61 2.85039 -4.37665 0
M  V30 15722 H 1432.3 1.39389 -2.64974 0
M  V30 15723 H 1429.85 0.669133 -1.27509 0
M  V30 15724 H 1431.8 3.73091 -1.95911 0
M  V30 15725 H 1430.52 3.15068 -0.86021 0
M  V30 15726 H 1429.18 2.33148 -2.82909 0
M  V30 15727 H 1428.83 4.64165 -1.93803 0
M  V30 15728 H 1428.53 4.57076 -3.69263 0
M  V30 15729 H 1430.05 5.27284 -3.07903 0
M  V30 15730 H 1431.47 3.52074 -4.52456 0
M  V30 15731 H 1429.87 3.05578 -5.16471 0
M  V30 15732 H 1430.94 1.8088 -4.499 0
M  V30 15733 N 1432.28 1.40065 0.722464 0
M  V30 15734 C 1433.69 1.21944 1.02965 0
M  V30 15735 C 1433.89 0.0898069 2.013 0
M  V30 15736 O 1432.95 -0.554519 2.46336 0
M  V30 15737 C 1434.26 2.55848 1.57995 0
M  V30 15738 C 1435.81 2.62801 1.70013 0
M  V30 15739 C 1436.29 3.96957 2.2845 0
M  V30 15740 N 1437.78 3.98662 2.35844 0
M  V30 15741 C 1438.51 4.99248 2.82026 0
M  V30 15742 N 1438.01 6.1023 3.28012 0
M  V30 15743 N 1439.8 4.8662 2.81349 0
M  V30 15744 H 1431.95 2.12283 0.0705301 0
M  V30 15745 H 1434.22 0.943338 0.0938991 0
M  V30 15746 H 1433.92 3.39125 0.932034 0
M  V30 15747 H 1433.8 2.76452 2.5662 0
M  V30 15748 H 1436.18 1.799 2.33923 0
M  V30 15749 H 1436.26 2.46034 0.700062 0
M  V30 15750 H 1435.91 4.80295 1.65164 0
M  V30 15751 H 1435.84 4.1105 3.29158 0
M  V30 15752 H 1438.33 3.18518 2.03358 0
M  V30 15753 H 1438.64 6.82878 3.61797 0
M  V30 15754 H 1436.99 6.13805 3.25988 0
M  V30 15755 H 1440.18 3.99015 2.44755 0
M  V30 15756 H 1440.35 5.65155 3.17024 0
M  V30 15757 N 1433.76 -0.95397 1.25448 0
M  V30 15758 C 1435.17 -1.22516 1.02284 0
M  V30 15759 C 1435.37 -1.99816 -0.259933 0
M  V30 15760 O 1434.43 -2.33022 -0.972479 0
M  V30 15761 C 1435.74 -1.9989 2.24643 0
M  V30 15762 C 1437.29 -2.1293 2.29412 0
M  V30 15763 C 1437.77 -2.93703 3.51429 0
M  V30 15764 N 1439.26 -3.01281 3.51829 0
M  V30 15765 C 1439.99 -3.64174 4.42905 0
M  V30 15766 N 1439.49 -4.28673 5.44253 0
M  V30 15767 N 1441.28 -3.61321 4.30585 0
M  V30 15768 H 1433.43 -0.436859 2.07859 0
M  V30 15769 H 1435.69 -0.255744 0.912852 0
M  V30 15770 H 1435.4 -1.50489 3.17877 0
M  V30 15771 H 1435.27 -3.00593 2.27868 0
M  V30 15772 H 1437.66 -2.61528 1.367 0
M  V30 15773 H 1437.74 -1.1153 2.30206 0
M  V30 15774 H 1437.39 -2.45795 4.44463 0
M  V30 15775 H 1437.32 -3.95331 3.47881 0
M  V30 15776 H 1439.81 -2.55414 2.78517 0
M  V30 15777 H 1440.12 -4.74522 6.09958 0
M  V30 15778 H 1438.47 -4.27299 5.48125 0
M  V30 15779 H 1441.66 -3.10118 3.50634 0
M  V30 15780 H 1441.83 -4.1005 5.0176 0
M  V30 15781 N 1435.24 -1.07045 -1.15668 0
M  V30 15782 C 1436.46 -0.812746 -1.90268 0
M  V30 15783 C 1436.88 0.633722 -1.77847 0
M  V30 15784 O 1436.24 1.43444 -1.12828 0
M  V30 15785 C 1436.29 -1.20793 -3.40722 0
M  V30 15786 O 1436.01 -2.59764 -3.52781 0
M  V30 15787 C 1437.51 -0.979074 -4.32353 0
M  V30 15788 H 1434.73 -0.294093 -0.603117 0
M  V30 15789 H 1437.27 -1.42609 -1.46571 0
M  V30 15790 H 1435.43 -0.638975 -3.82094 0
M  V30 15791 H 1435.84 -2.75801 -4.46133 0
M  V30 15792 H 1437.32 -1.30513 -5.36349 0
M  V30 15793 H 1437.79 0.0847752 -4.39118 0
M  V30 15794 H 1438.4 -1.53278 -3.96719 0
M  V30 15795 N 1436.71 1.32449 -0.85411 0
M  V30 15796 C 1437.68 2.27183 -0.303377 0
M  V30 15797 C 1438.68 1.51582 0.536622 0
M  V30 15798 O 1439.87 1.70684 0.348211 0
M  V30 15799 C 1437 3.36086 0.570852 0
M  V30 15800 H 1438.19 2.77408 -1.1395 0
M  V30 15801 H 1435.74 1.43111 -0.628402 0
M  V30 15802 H 1436.48 2.91128 1.42881 0
M  V30 15803 H 1436.26 3.92088 -0.030399 0
M  V30 15804 H 1437.75 4.06675 0.948972 0
M  V30 15805 N 1438.19 0.611994 1.45232 0
M  V30 15806 C 1439.42 0.113618 2.07089 0
M  V30 15807 C 1439.84 -1.1947 1.45288 0
M  V30 15808 O 1439.2 -1.72845 0.547207 0
M  V30 15809 C 1439.25 -0.00789978 3.60599 0
M  V30 15810 O 1438.35 -1.05697 3.98625 0
M  V30 15811 H 1437.69 0.076066 0.659629 0
M  V30 15812 H 1440.22 0.843253 1.86415 0
M  V30 15813 H 1440.23 -0.204692 4.07486 0
M  V30 15814 H 1438.91 0.947386 4.04966 0
M  V30 15815 H 1437.48 -0.836291 3.63401 0
M  V30 15816 N 1439.67 -1.53632 0.351409 0
M  V30 15817 C 1440.92 -2.00643 -0.242208 0
M  V30 15818 C 1441.24 -1.24074 -1.50435 0
M  V30 15819 O 1440.51 -0.350067 -1.92747 0
M  V30 15820 H 1439.09 -0.741252 -0.0924904 0
M  V30 15821 H 1441.75 -1.89039 0.474379 0
M  V30 15822 H 1440.85 -3.084 -0.479151 0
M  V30 15823 N 1441.15 -0.0802183 -1.57396 0
M  V30 15824 C 1442.4 0.585802 -1.93424 0
M  V30 15825 C 1442.72 1.69638 -0.961662 0
M  V30 15826 O 1441.99 1.95897 -0.011202 0
M  V30 15827 H 1440.57 0.219382 -0.714059 0
M  V30 15828 H 1443.23 -0.140055 -1.94396 0
M  V30 15829 H 1442.32 1.00566 -2.95454 0
M  V30 15830 N 1442.63 1.56409 0.193394 0
M  V30 15831 C 1444.04 1.50032 0.544298 0
M  V30 15832 C 1444.24 0.780546 1.85768 0
M  V30 15833 O 1443.3 0.331769 2.50311 0
M  V30 15834 C 1444.61 2.94705 0.597463 0
M  V30 15835 C 1446.16 3.05386 0.686179 0
M  V30 15836 C 1446.63 4.51473 0.770439 0
M  V30 15837 N 1448.12 4.55631 0.833921 0
M  V30 15838 C 1448.86 5.65982 0.919314 0
M  V30 15839 N 1448.36 6.8602 0.966904 0
M  V30 15840 N 1450.15 5.539 0.956634 0
M  V30 15841 H 1442.3 2.01619 -0.668096 0
M  V30 15842 H 1444.56 0.917589 -0.238191 0
M  V30 15843 H 1444.27 3.50431 -0.298509 0
M  V30 15844 H 1444.14 3.48151 1.45157 0
M  V30 15845 H 1446.53 2.49708 1.57258 0
M  V30 15846 H 1446.61 2.55062 -0.194165 0
M  V30 15847 H 1446.25 5.07777 -0.111619 0
M  V30 15848 H 1446.18 4.99531 1.66661 0
M  V30 15849 H 1448.68 3.69198 0.80632 0
M  V30 15850 H 1448.99 7.6587 1.03262 0
M  V30 15851 H 1447.33 6.88674 0.935552 0
M  V30 15852 H 1450.52 4.59044 0.916304 0
M  V30 15853 H 1450.7 6.39926 1.01972 0
M  V30 15854 N 1444.1 -0.461169 1.50702 0
M  V30 15855 C 1445.33 -1.23554 1.65958 0
M  V30 15856 C 1445.75 -1.85584 0.346977 0
M  V30 15857 O 1445.1 -1.69672 -0.672129 0
M  V30 15858 C 1445.15 -2.33704 2.75799 0
M  V30 15859 O 1444.88 -1.74215 4.01971 0
M  V30 15860 C 1446.38 -3.24409 3.02116 0
M  V30 15861 H 1443.6 -0.373299 0.557574 0
M  V30 15862 H 1446.14 -0.549338 1.96984 0
M  V30 15863 H 1444.3 -2.98081 2.47439 0
M  V30 15864 H 1444.71 -2.46827 4.62792 0
M  V30 15865 H 1446.18 -3.97885 3.82611 0
M  V30 15866 H 1446.66 -3.83774 2.13576 0
M  V30 15867 H 1447.27 -2.65757 3.32044 0
M  V30 15868 N 1445.58 -1.40446 -0.715026 0
M  V30 15869 C 1446.49 -1.43074 -1.85922 0
M  V30 15870 C 1447.51 -0.323294 -1.7097 0
M  V30 15871 O 1448.68 -0.567966 -1.93226 0
M  V30 15872 C 1445.75 -1.29206 -3.21725 0
M  V30 15873 C 1444.81 -2.50097 -3.48927 0
M  V30 15874 C 1444.04 -2.36881 -4.7825 0
M  V30 15875 O 1444.27 -1.38292 -5.53382 0
M  V30 15876 O 1443.2 -3.26266 -5.058 0
M  V30 15877 H 1447.03 -2.39565 -1.86661 0
M  V30 15878 H 1444.61 -1.21775 -0.865522 0
M  V30 15879 H 1446.49 -1.23681 -4.02841 0
M  V30 15880 H 1445.17 -0.358207 -3.21712 0
M  V30 15881 H 1444.07 -2.61199 -2.67817 0
M  V30 15882 H 1445.41 -3.42244 -3.53737 0
M  V30 15883 N 1447.06 0.947303 -1.25952 0
M  V30 15884 C 1447.99 2.0487 -1.02767 0
M  V30 15885 C 1449 1.62797 0.00985984 0
M  V30 15886 O 1450.19 1.77018 -0.229527 0
M  V30 15887 C 1447.29 3.34682 -0.533048 0
M  V30 15888 C 1446.47 4.05555 -1.63841 0
M  V30 15889 C 1445.53 5.13638 -1.1429 0
M  V30 15890 O 1444.55 5.38682 -1.83876 0
M  V30 15891 N 1445.75 5.80499 0.0119377 0
M  V30 15892 H 1448.52 2.25327 -1.97605 0
M  V30 15893 H 1446.08 1.11636 -1.17256 0
M  V30 15894 H 1448.07 4.04273 -0.185868 0
M  V30 15895 H 1446.64 3.10941 0.321585 0
M  V30 15896 H 1445.86 3.29962 -2.15683 0
M  V30 15897 H 1447.15 4.49661 -2.38081 0
M  V30 15898 H 1446.55 5.62581 0.593212 0
M  V30 15899 H 1445.1 6.51109 0.30009 0
M  V30 15900 N 1448.54 1.07657 1.15099 0
M  V30 15901 C 1449.79 0.800025 1.85591 0
M  V30 15902 C 1450.11 -0.675973 1.82909 0
M  V30 15903 O 1449.38 -1.48971 1.27218 0
M  V30 15904 H 1447.96 0.292958 0.687157 0
M  V30 15905 H 1450.62 1.36096 1.39513 0
M  V30 15906 H 1449.72 1.13733 2.90639 0
M  V30 15907 N 1450.02 -1.31994 0.861122 0
M  V30 15908 C 1450.95 -2.26769 0.255177 0
M  V30 15909 C 1451.93 -1.50701 -0.610574 0
M  V30 15910 O 1453.11 -1.79803 -0.565952 0
M  V30 15911 C 1450.24 -3.32608 -0.639478 0
M  V30 15912 C 1449.28 -4.26223 0.153746 0
M  V30 15913 S 1450.12 -5.13284 1.52643 0
M  V30 15914 C 1451.27 -6.22643 0.637662 0
M  V30 15915 H 1451.51 -2.77815 1.05859 0
M  V30 15916 H 1449.04 -1.39624 0.659126 0
M  V30 15917 H 1451 -3.94063 -1.14999 0
M  V30 15918 H 1449.66 -2.80334 -1.41675 0
M  V30 15919 H 1448.85 -5.01227 -0.527946 0
M  V30 15920 H 1448.45 -3.6922 0.596058 0
M  V30 15921 H 1450.75 -6.77322 -0.155431 0
M  V30 15922 H 1451.69 -6.94945 1.35856 0
M  V30 15923 H 1452.1 -5.64112 0.209134 0
M  V30 15924 N 1451.49 -0.619688 -1.44906 0
M  V30 15925 C 1452.72 -0.124598 -2.07025 0
M  V30 15926 C 1453.14 1.18698 -1.45919 0
M  V30 15927 O 1452.5 1.72552 -0.556366 0
M  V30 15928 C 1452.55 -0.0112238 -3.60598 0
M  V30 15929 O 1451.65 1.03582 -3.9918 0
M  V30 15930 H 1451 -0.0795631 -0.659216 0
M  V30 15931 H 1453.53 -0.853127 -1.85965 0
M  V30 15932 H 1453.54 0.183079 -4.07589 0
M  V30 15933 H 1452.21 -0.968849 -4.04458 0
M  V30 15934 H 1450.79 0.817008 -3.6384 0
M  V30 15935 N 1452.97 1.53444 -0.359552 0
M  V30 15936 C 1454.39 1.59598 -0.00824946 0
M  V30 15937 C 1454.59 1.37492 1.47303 0
M  V30 15938 O 1453.64 1.1771 2.23385 0
M  V30 15939 C 1454.96 2.9718 -0.45878 0
M  V30 15940 C 1456.51 3.1027 -0.412485 0
M  V30 15941 C 1456.98 4.50255 -0.838733 0
M  V30 15942 N 1458.47 4.56352 -0.793552 0
M  V30 15943 C 1459.21 5.62845 -1.09513 0
M  V30 15944 N 1458.7 6.77119 -1.46567 0
M  V30 15945 N 1460.5 5.52799 -1.01832 0
M  V30 15946 H 1452.65 1.66065 -1.32424 0
M  V30 15947 H 1454.91 0.778561 -0.540876 0
M  V30 15948 H 1454.62 3.18475 -1.4922 0
M  V30 15949 H 1454.49 3.7687 0.157741 0
M  V30 15950 H 1456.88 2.88689 0.611791 0
M  V30 15951 H 1456.96 2.32602 -1.06442 0
M  V30 15952 H 1456.6 4.72573 -1.8611 0
M  V30 15953 H 1456.53 5.26344 -0.164109 0
M  V30 15954 H 1459.02 3.74299 -0.52048 0
M  V30 15955 H 1459.34 7.54313 -1.68021 0
M  V30 15956 H 1457.68 6.78525 -1.50427 0
M  V30 15957 H 1460.87 4.62403 -0.728059 0
M  V30 15958 H 1461.04 6.35698 -1.25668 0
M  V30 15959 N 1454.45 0.0885642 1.57351 0
M  V30 15960 C 1455.68 -0.588641 1.98871 0
M  V30 15961 C 1456.1 -1.61333 0.967125 0
M  V30 15962 O 1455.46 -1.81183 -0.0652149 0
M  V30 15963 C 1455.51 -1.21877 3.39379 0
M  V30 15964 O 1454.61 -2.33462 3.39955 0
M  V30 15965 H 1453.95 -0.149938 0.64685 0
M  V30 15966 H 1456.48 0.168043 2.03909 0
M  V30 15967 H 1456.49 -1.56163 3.76931 0
M  V30 15968 H 1455.17 -0.468037 4.13258 0
M  V30 15969 H 1453.74 -2.00844 3.14191 0
M  V30 15970 N 1455.93 -1.56509 -0.185096 0
M  V30 15971 C 1457.16 -1.85327 -0.91986 0
M  V30 15972 C 1457.57 -0.672294 -1.76425 0
M  V30 15973 O 1456.93 0.358854 -1.78937 0
M  V30 15974 C 1456.98 -3.13047 -1.80787 0
M  V30 15975 O 1456.7 -4.26591 -0.997569 0
M  V30 15976 C 1458.2 -3.55114 -2.65347 0
M  V30 15977 H 1455.42 -0.615196 -0.267909 0
M  V30 15978 H 1457.97 -2.03622 -0.189338 0
M  V30 15979 H 1456.12 -2.96619 -2.4919 0
M  V30 15980 H 1456.53 -4.99384 -1.60362 0
M  V30 15981 H 1458.01 -4.47419 -3.23295 0
M  V30 15982 H 1458.49 -2.78576 -3.39547 0
M  V30 15983 H 1459.09 -3.74105 -2.023 0
M  V30 15984 N 1457.41 0.45317 -1.50944 0
M  V30 15985 C 1458.63 1.23136 -1.6689 0
M  V30 15986 C 1459.06 1.84639 -0.359185 0
M  V30 15987 O 1458.41 1.68106 0.678983 0
M  V30 15988 C 1458.46 2.30275 -2.77499 0
M  V30 15989 O 1457.57 3.35371 -2.39999 0
M  V30 15990 H 1456.91 0.361475 -0.556984 0
M  V30 15991 H 1459.44 0.537174 -1.97422 0
M  V30 15992 H 1459.45 2.75309 -3.01113 0
M  V30 15993 H 1458.12 1.84885 -3.72546 0
M  V30 15994 H 1456.7 2.95924 -2.26899 0
M  V30 15995 N 1458.88 1.40823 0.707568 0
M  V30 15996 C 1460.13 1.39741 1.4697 0
M  V30 15997 C 1460.46 0.00231194 1.942 0
M  V30 15998 O 1459.74 -0.967798 1.68713 0
M  V30 15999 C 1460.02 2.39385 2.69011 0
M  V30 16000 C 1459.87 3.87953 2.27624 0
M  V30 16001 C 1461.19 2.3645 3.71186 0
M  V30 16002 H 1458.31 0.508904 0.533091 0
M  V30 16003 H 1460.95 1.72015 0.806888 0
M  V30 16004 H 1459.1 2.11993 3.25563 0
M  V30 16005 H 1460.78 4.26202 1.76492 0
M  V30 16006 H 1459.02 4.03399 1.59537 0
M  V30 16007 H 1459.69 4.53201 3.15139 0
M  V30 16008 H 1462.17 2.60731 3.24282 0
M  V30 16009 H 1461.04 3.08204 4.54204 0
M  V30 16010 H 1461.3 1.3789 4.20046 0
M  V30 16011 N 1460.36 -0.94061 1.26453 0
M  V30 16012 C 1461.59 -1.72123 1.1481 0
M  V30 16013 C 1462.01 -1.86456 -0.296604 0
M  V30 16014 O 1461.36 -1.37234 -1.20304 0
M  V30 16015 C 1461.41 -3.1277 1.81266 0
M  V30 16016 O 1461.13 -2.99122 3.2009 0
M  V30 16017 C 1462.64 -4.07045 1.75584 0
M  V30 16018 H 1459.86 -0.538908 0.399774 0
M  V30 16019 H 1462.4 -1.17913 1.67083 0
M  V30 16020 H 1460.55 -3.6388 1.32928 0
M  V30 16021 H 1460.97 -3.87946 3.52984 0
M  V30 16022 H 1462.44 -5.03292 2.26719 0
M  V30 16023 H 1462.92 -4.33217 0.722466 0
M  V30 16024 H 1463.53 -3.61855 2.23475 0
M  V30 16025 N 1461.84 -1.08266 -1.14527 0
M  V30 16026 C 1463.07 -0.832994 -1.89937 0
M  V30 16027 C 1463.49 0.608985 -1.77969 0
M  V30 16028 O 1462.85 1.42657 -1.11887 0
M  V30 16029 C 1462.9 -1.25782 -3.37952 0
M  V30 16030 O 1462 -0.408853 -4.10368 0
M  V30 16031 H 1461.34 -0.30267 -0.591005 0
M  V30 16032 H 1463.87 -1.44371 -1.44977 0
M  V30 16033 H 1463.88 -1.23804 -3.88763 0
M  V30 16034 H 1462.56 -2.30804 -3.4598 0
M  V30 16035 H 1461.13 -0.49192 -3.69641 0
M  V30 16036 N 1463.32 1.31536 -0.86811 0
M  V30 16037 C 1464.25 2.27486 -0.279749 0
M  V30 16038 C 1465.26 1.53006 0.556158 0
M  V30 16039 O 1466.45 1.74442 0.378454 0
M  V30 16040 C 1463.55 3.33139 0.622197 0
M  V30 16041 C 1462.73 4.37026 -0.180855 0
M  V30 16042 C 1461.79 5.22183 0.64894 0
M  V30 16043 O 1460.81 5.69147 0.0776395 0
M  V30 16044 N 1462.01 5.46365 1.96127 0
M  V30 16045 H 1464.78 2.78613 -1.1043 0
M  V30 16046 H 1462.34 1.44538 -0.729409 0
M  V30 16047 H 1464.33 3.87024 1.18297 0
M  V30 16048 H 1462.9 2.8207 1.34742 0
M  V30 16049 H 1462.12 3.8324 -0.923078 0
M  V30 16050 H 1463.41 5.03508 -0.731953 0
M  V30 16051 H 1462.81 5.09962 2.44857 0
M  V30 16052 H 1461.36 6.03192 2.46987 0
M  V30 16053 N 1464.8 0.627364 1.44575 0
M  V30 16054 C 1466.05 0.127824 2.01295 0
M  V30 16055 C 1466.36 -1.25647 1.49907 0
M  V30 16056 O 1467.57 -1.84982 1.9873 0
M  V30 16057 C 1466.02 0.177775 3.59461 0
M  V30 16058 C 1465.63 1.56315 4.19845 0
M  V30 16059 C 1467.37 -0.265497 4.23669 0
M  V30 16060 C 1465.28 1.56842 5.70223 0
M  V30 16061 H 1464.21 0.0440205 0.752714 0
M  V30 16062 H 1466.86 0.785607 1.65833 0
M  V30 16063 H 1465.24 -0.547038 3.92203 0
M  V30 16064 H 1466.42 2.31125 3.98645 0
M  V30 16065 H 1464.73 1.95019 3.67909 0
M  V30 16066 H 1467.33 -0.281038 5.33961 0
M  V30 16067 H 1467.67 -1.29208 3.95741 0
M  V30 16068 H 1468.21 0.406698 3.95716 0
M  V30 16069 H 1464.94 2.57325 6.0288 0
M  V30 16070 H 1464.46 0.863198 5.93556 0
M  V30 16071 H 1466.14 1.30071 6.33791 0
M  V30 16072 N 1466.28 -1.53251 0.367684 0
M  V30 16073 C 1467.5 -2.0618 -0.224645 0
M  V30 16074 C 1467.93 -1.23927 -1.41505 0
M  V30 16075 O 1467.28 -0.258858 -1.79443 0
M  V30 16076 C 1467.33 -3.55671 -0.594171 0
M  V30 16077 O 1466.44 -3.76132 -1.69112 0
M  V30 16078 H 1465.78 -0.663218 -0.0322099 0
M  V30 16079 H 1468.31 -1.97646 0.528897 0
M  V30 16080 H 1468.32 -3.98734 -0.864589 0
M  V30 16081 H 1466.99 -4.14982 0.276254 0
M  V30 16082 H 1465.57 -3.44965 -1.41609 0
M  V30 16083 N 1467.75 -0.0969077 -1.57302 0
M  V30 16084 C 1468.7 0.878876 -2.15357 0
M  V30 16085 C 1469.7 1.29091 -1.0969 0
M  V30 16086 O 1470.9 1.26523 -1.28031 0
M  V30 16087 H 1467.28 0.301458 -0.688932 0
M  V30 16088 H 1469.25 0.364542 -2.96165 0
M  V30 16089 C 1468 2.12761 -2.75006 0
M  V30 16090 H 1467.32 1.81944 -3.56 0
M  V30 16091 H 1468.76 2.79092 -3.19193 0
M  V30 16092 C 1467.22 2.90283 -1.70989 0
M  V30 16093 O 1467.75 3.84889 -1.14992 0
M  V30 16094 N 1465.95 2.53857 -1.41439 0
M  V30 16095 H 1465.5 1.76993 -1.87166 0
M  V30 16096 H 1465.46 3.06025 -0.720816 0
M  V30 16097 N 1469.23 1.56605 0.176793 0
M  V30 16098 C 1470.48 1.81324 0.892535 0
M  V30 16099 C 1470.8 0.67301 1.83018 0
M  V30 16100 O 1470.07 -0.307498 1.93472 0
M  V30 16101 H 1468.65 0.668881 0.332576 0
M  V30 16102 H 1471.31 1.94086 0.17792 0
M  V30 16103 H 1470.41 2.75168 1.47272 0
M  V30 16104 N 1470.71 -0.445159 1.51182 0
M  V30 16105 C 1471.93 -1.22249 1.67541 0
M  V30 16106 C 1472.36 -1.84446 0.368972 0
M  V30 16107 O 1471.72 -1.68463 -0.670058 0
M  V30 16108 C 1471.77 -2.288 2.78717 0
M  V30 16109 O 1470.87 -3.34094 2.41775 0
M  V30 16110 H 1470.21 -0.358516 0.558894 0
M  V30 16111 H 1472.74 -0.526696 1.97704 0
M  V30 16112 H 1472.75 -2.73708 3.02569 0
M  V30 16113 H 1471.43 -1.82906 3.73521 0
M  V30 16114 H 1470 -2.94717 2.28466 0
M  V30 16115 N 1472.19 -1.41197 -0.700089 0
M  V30 16116 C 1473.14 -1.39158 -1.80607 0
M  V30 16117 C 1474.12 -0.266653 -1.58675 0
M  V30 16118 O 1475.31 -0.506973 -1.69584 0
M  V30 16119 C 1472.44 -1.27176 -3.18875 0
M  V30 16120 C 1471.53 -2.44513 -3.46517 0
M  V30 16121 N 1471.92 -3.69984 -3.44885 0
M  V30 16122 C 1470.22 -2.38228 -3.77046 0
M  V30 16123 C 1470.92 -4.4778 -3.71306 0
M  V30 16124 N 1469.89 -3.77831 -3.90826 0
M  V30 16125 H 1473.7 -2.34093 -1.77701 0
M  V30 16126 H 1471.21 -1.35188 -0.899887 0
M  V30 16127 H 1473.21 -1.23797 -3.98095 0
M  V30 16128 H 1471.87 -0.332215 -3.22996 0
M  V30 16129 H 1472.88 -4.02932 -3.25371 0
M  V30 16130 H 1469.56 -1.52722 -3.88564 0
M  V30 16131 H 1470.95 -5.56695 -3.76218 0
M  V30 16132 N 1473.67 0.933891 -1.2695 0
M  V30 16133 C 1474.6 2.03399 -1.03461 0
M  V30 16134 C 1475.58 1.62543 0.0430025 0
M  V30 16135 O 1476.76 1.8823 -0.100894 0
M  V30 16136 C 1473.89 3.339 -0.56818 0
M  V30 16137 C 1472.93 3.93732 -1.63944 0
M  V30 16138 S 1473.77 4.27096 -3.23032 0
M  V30 16139 C 1474.92 5.60686 -2.78176 0
M  V30 16140 H 1475.16 2.23011 -1.96604 0
M  V30 16141 H 1472.69 1.07621 -1.10711 0
M  V30 16142 H 1474.65 4.0936 -0.305745 0
M  V30 16143 H 1473.31 3.12221 0.343096 0
M  V30 16144 H 1472.5 4.87886 -1.26424 0
M  V30 16145 H 1472.1 3.24833 -1.85362 0
M  V30 16146 H 1474.39 6.39715 -2.23093 0
M  V30 16147 H 1475.34 6.03098 -3.7105 0
M  V30 16148 H 1475.75 5.20912 -2.17511 0
M  V30 16149 N 1475.14 1.08871 1.13951 0
M  V30 16150 C 1476.37 0.843055 1.89492 0
M  V30 16151 C 1476.79 -0.599539 1.78289 0
M  V30 16152 O 1476.15 -1.42062 1.12642 0
M  V30 16153 C 1476.2 1.27572 3.3728 0
M  V30 16154 O 1475.3 0.430611 4.10146 0
M  V30 16155 H 1474.64 0.3058 0.589391 0
M  V30 16156 H 1477.17 1.45137 1.44209 0
M  V30 16157 H 1477.18 1.25864 3.88101 0
M  V30 16158 H 1475.86 2.32635 3.44751 0
M  V30 16159 H 1474.44 0.511516 3.69375 0
M  V30 16160 N 1476.62 -1.31073 0.875073 0
M  V30 16161 C 1477.85 -2.00397 0.50245 0
M  V30 16162 C 1478.26 -1.65826 -0.910951 0
M  V30 16163 O 1477.6 -0.886276 -1.60906 0
M  V30 16164 C 1477.66 -3.54696 0.585744 0
M  V30 16165 C 1477.33 -4.12756 1.96167 0
M  V30 16166 C 1478.33 -4.29484 2.92984 0
M  V30 16167 C 1476.01 -4.48365 2.26437 0
M  V30 16168 C 1478 -4.81019 4.18209 0
M  V30 16169 C 1475.69 -4.99601 3.51912 0
M  V30 16170 C 1476.69 -5.1588 4.47613 0
M  V30 16171 O 1476.38 -5.66014 5.70862 0
M  V30 16172 H 1476.11 -0.647645 0.193733 0
M  V30 16173 H 1478.66 -1.6816 1.17947 0
M  V30 16174 H 1476.89 -3.86416 -0.148214 0
M  V30 16175 H 1478.58 -4.05271 0.225818 0
M  V30 16176 H 1479.35 -4.02286 2.70907 0
M  V30 16177 H 1475.23 -4.34968 1.52721 0
M  V30 16178 H 1478.77 -4.9364 4.92915 0
M  V30 16179 H 1474.67 -5.26234 3.73829 0
M  V30 16180 H 1475.44 -5.84374 5.73105 0
M  V30 16181 N 1478.1 -0.635022 -1.4424 0
M  V30 16182 C 1479.33 -0.14826 -2.06368 0
M  V30 16183 C 1479.74 1.17875 -1.47482 0
M  V30 16184 O 1479.1 1.72384 -0.599168 0
M  V30 16185 C 1479.15 -0.031519 -3.61486 0
M  V30 16186 O 1478.87 -1.30605 -4.18179 0
M  V30 16187 C 1480.37 0.483479 -4.40656 0
M  V30 16188 H 1477.59 -0.081472 -0.666036 0
M  V30 16189 H 1480.14 -0.870526 -1.85046 0
M  V30 16190 H 1478.29 0.641208 -3.82057 0
M  V30 16191 H 1478.71 -1.15341 -5.11661 0
M  V30 16192 H 1480.18 0.514164 -5.496 0
M  V30 16193 H 1480.66 1.51129 -4.12379 0
M  V30 16194 H 1481.26 -0.156131 -4.25013 0
M  V30 16195 O 1479.62 1.52967 -0.518002 0
M  V30 16196 H 1480.31 1.93699 -0.00487232 0
M  V30 END ATOM
M  V30 BEGIN BOND
M  V30 END BOND
M  V30 END CTAB
M  END
$$$$
