drugbank_target|P35219 Carbonic anhydrase-related protein (DB00909)
 OpenBabel12092120363D

  0  0  0     0  0            999 V3000
M  V30 BEGIN CTAB
M  V30 COUNTS 4581 4642 0 0 0
M  V30 BEGIN ATOM
M  V30 1 H -0.908 1.98254 -0.117106 0
M  V30 2 N 0 1.576 0 0
M  V30 3 C 0.933 2.03868 1.02534 0
M  V30 4 C 1.911 0.928543 1.3348 0
M  V30 5 O 3.095 1.19667 1.45644 0
M  V30 6 C 0.222 2.43627 2.35294 0
M  V30 7 C -0.732 3.65373 2.2001 0
M  V30 8 S 0.101 5.13292 1.52614 0
M  V30 9 C 1.257 5.56322 2.86805 0
M  V30 10 H 1.49 2.90518 0.631377 0
M  V30 11 H -0.977 1.52953 0.210867 0
M  V30 12 H 0.981 2.67203 3.11629 0
M  V30 13 H -0.358 1.57376 2.7183 0
M  V30 14 H -1.165 3.90944 3.18086 0
M  V30 15 H -1.563 3.418 1.51819 0
M  V30 16 H 0.729 5.58782 3.83104 0
M  V30 17 H 1.672 6.56266 2.65933 0
M  V30 18 H 2.08 4.83886 2.90714 0
M  V30 19 N 1.4781 -0.272755 1.55222 0
M  V30 20 C 2.4411 -1.32041 1.87344 0
M  V30 21 C 3.4411 -1.42342 0.74803 0
M  V30 22 O 4.6311 -1.41488 1.0162 0
M  V30 23 C 1.7631 -2.70173 2.07893 0
M  V30 24 H 2.9561 -1.04789 2.80997 0
M  V30 25 H 0.5091 -0.51083 1.47717 0
M  V30 26 H 1.2441 -3.02605 1.16622 0
M  V30 27 H 1.0291 -2.64082 2.89833 0
M  V30 28 H 2.5191 -3.45869 2.34017 0
M  V30 29 N 2.9562 -1.48159 -0.537278 0
M  V30 30 C 4.2332 -1.46291 -1.29839 0
M  V30 31 C 4.6132 -0.170613 -2.10409 0
M  V30 32 O 3.9612 0.847746 -2.12192 0
M  V30 33 C 4.1712 -2.72055 -2.18603 0
M  V30 34 C 5.5192 -3.20087 -2.7898 0
M  V30 35 O 6.5432 -2.72921 -2.28894 0
M  V30 36 O 5.4022 -4.02138 -3.70064 0
M  V30 37 H 2.4962 -0.583906 -0.585647 0
M  V30 38 H 5.0422 -1.60384 -0.554534 0
M  V30 39 H 3.8142 -3.57628 -1.58801 0
M  V30 40 H 3.4372 -2.60646 -3.00249 0
M  V30 41 N 4.4343 0.785586 -1.36625 0
M  V30 42 C 5.3643 1.91259 -1.33949 0
M  V30 43 C 6.3453 1.68795 -0.210325 0
M  V30 44 O 7.5303 1.89854 -0.408561 0
M  V30 45 C 4.6603 3.28339 -1.13186 0
M  V30 46 C 3.6143 3.65335 -2.22967 0
M  V30 47 C 2.9403 5.00806 -1.87342 0
M  V30 48 C 4.2403 3.7352 -3.65075 0
M  V30 49 H 5.9343 1.93755 -2.28253 0
M  V30 50 H 3.4803 0.930788 -1.09874 0
M  V30 51 H 5.4333 4.06804 -1.09948 0
M  V30 52 H 4.1573 3.2624 -0.153332 0
M  V30 53 H 2.8163 2.89169 -2.25337 0
M  V30 54 H 2.4643 4.95233 -0.880545 0
M  V30 55 H 2.1643 5.26529 -2.60846 0
M  V30 56 H 3.6883 5.81687 -1.85667 0
M  V30 57 H 5.1023 4.42168 -3.64911 0
M  V30 58 H 3.4993 4.10731 -4.37516 0
M  V30 59 H 4.5693 2.74527 -3.99703 0
M  V30 60 N 5.9124 1.20967 1.01018 0
M  V30 61 C 7.1374 1.0503 1.78839 0
M  V30 62 C 7.5624 -0.395752 1.8389 0
M  V30 63 O 6.9204 -1.28529 1.27867 0
M  V30 64 C 6.9684 1.64602 3.2084 0
M  V30 65 O 6.0724 0.887988 4.02726 0
M  V30 66 H 5.4134 0.369987 0.551367 0
M  V30 67 H 7.9434 1.60399 1.27018 0
M  V30 68 H 7.9534 1.68607 3.71532 0
M  V30 69 H 6.6284 2.69841 3.16479 0
M  V30 70 H 5.2054 0.922648 3.61305 0
M  V30 71 N 7.3905 -1.2043 1.01659 0
M  V30 72 C 8.6375 -1.89797 0.705917 0
M  V30 73 C 8.9655 -1.78848 -0.764439 0
M  V30 74 O 8.2205 -1.16694 -1.57102 0
M  V30 75 C 8.5195 -3.40464 1.08714 0
M  V30 76 C 8.1855 -3.71614 2.5537 0
M  V30 77 C 6.8475 -3.79826 2.95441 0
M  V30 78 C 9.1995 -3.85915 3.50313 0
M  V30 79 C 6.5275 -3.99797 4.29394 0
M  V30 80 C 8.8795 -4.07396 4.83954 0
M  V30 81 C 7.5435 -4.13837 5.23732 0
M  V30 82 H 6.8135 -0.694518 0.258313 0
M  V30 83 H 9.4605 -1.42691 1.27717 0
M  V30 84 H 7.7655 -3.89385 0.434309 0
M  V30 85 H 9.4625 -3.92433 0.824461 0
M  V30 86 H 6.0525 -3.65822 2.23321 0
M  V30 87 H 10.2365 -3.78926 3.20513 0
M  V30 88 H 5.4925 -4.03018 4.59768 0
M  V30 89 H 9.6665 -4.17404 5.57447 0
M  V30 90 H 7.2935 -4.29064 6.27541 0
M  V30 91 N 8.8686 -0.792821 -1.36206 0
M  V30 92 C 10.1176 -0.363353 -1.984 0
M  V30 93 C 10.4306 1.07172 -1.63626 0
M  V30 94 O 11.6366 1.60362 -2.19081 0
M  V30 95 C 10.0926 -0.59872 -3.54885 0
M  V30 96 C 9.7006 -2.04543 -3.9858 0
M  V30 97 C 11.4446 -0.233926 -4.23855 0
M  V30 98 C 9.3516 -2.22727 -5.47856 0
M  V30 99 H 8.2816 -0.13212 -0.742334 0
M  V30 100 H 10.9326 -0.974935 -1.55458 0
M  V30 101 H 9.3146 0.0826222 -3.95914 0
M  V30 102 H 10.4886 -2.76345 -3.68741 0
M  V30 103 H 8.8036 -2.36879 -3.42458 0
M  V30 104 H 11.4006 -0.348027 -5.33566 0
M  V30 105 H 11.7436 0.818351 -4.08177 0
M  V30 106 H 12.2766 -0.868639 -3.882 0
M  V30 107 H 9.0156 -3.2635 -5.68486 0
M  V30 108 H 8.5356 -1.55434 -5.7931 0
M  V30 109 H 10.2146 -2.03607 -6.14128 0
M  V30 110 N 10.3467 1.47872 -0.545128 0
M  V30 111 C 11.2567 2.33633 0.212746 0
M  V30 112 C 12.2727 1.4744 0.923983 0
M  V30 113 O 13.4487 1.80393 0.895572 0
M  V30 114 C 10.5137 3.23884 1.23693 0
M  V30 115 C 9.5747 4.25961 0.534417 0
M  V30 116 C 8.8077 5.11899 1.5098 0
M  V30 117 O 9.0307 5.00077 2.7437 0
M  V30 118 O 7.9647 5.92831 1.0409 0
M  V30 119 H 11.7907 2.99714 -0.490416 0
M  V30 120 H 9.3757 1.46235 -0.305871 0
M  V30 121 H 11.2577 3.79666 1.82843 0
M  V30 122 H 9.9327 2.60446 1.92222 0
M  V30 123 H 8.8397 3.73972 -0.0979679 0
M  V30 124 H 10.1727 4.92079 -0.109213 0
M  V30 125 N 11.8248 0.280983 1.55075 0
M  V30 126 C 13.1018 -0.386207 1.91749 0
M  V30 127 C 13.4818 -1.73264 1.20594 0
M  V30 128 O 12.8298 -2.26034 0.334784 0
M  V30 129 C 13.0398 -0.520687 3.45094 0
M  V30 130 C 14.3878 -0.800865 4.16979 0
M  V30 131 O 15.4118 -0.605271 3.5102 0
M  V30 132 O 14.2708 -1.1753 5.33712 0
M  V30 133 H 11.3648 -0.212408 0.799257 0
M  V30 134 H 13.9108 0.327568 1.66509 0
M  V30 135 H 12.6828 0.426633 3.88967 0
M  V30 136 H 12.3058 -1.2837 3.76307 0
M  V30 137 N 13.3029 -1.57598 0.00835791 0
M  V30 138 C 14.5309 -1.95214 -0.68549 0
M  V30 139 C 14.9459 -0.883706 -1.66841 0
M  V30 140 O 14.3029 0.136565 -1.81988 0
M  V30 141 C 14.3539 -3.32865 -1.41007 0
M  V30 142 O 14.0749 -4.35609 -0.466552 0
M  V30 143 C 15.5759 -3.84991 -2.19765 0
M  V30 144 H 12.7959 -0.643422 -0.190392 0
M  V30 145 H 15.3399 -2.04406 0.0619607 0
M  V30 146 H 13.4949 -3.24956 -2.10908 0
M  V30 147 H 13.9089 -5.15288 -0.978699 0
M  V30 148 H 15.3829 -4.8371 -2.65948 0
M  V30 149 H 15.8599 -3.18137 -3.02796 0
M  V30 150 H 16.4659 -3.96103 -1.54864 0
M  V30 151 N 14.781 0.264519 -1.55364 0
M  V30 152 C 16.027 0.99646 -1.76631 0
M  V30 153 C 16.36 1.85632 -0.570478 0
M  V30 154 O 15.635 1.89647 0.43175 0
M  V30 155 C 15.918 1.87187 -3.07625 0
M  V30 156 C 15.771 1.04138 -4.37579 0
M  V30 157 C 17.09 2.85749 -3.34717 0
M  V30 158 H 14.209 0.360841 -0.642622 0
M  V30 159 H 16.851 0.268218 -1.88097 0
M  V30 160 H 15.001 2.49279 -2.9798 0
M  V30 161 H 16.673 0.440517 -4.59192 0
M  V30 162 H 14.916 0.345115 -4.32425 0
M  V30 163 H 15.587 1.68729 -5.2558 0
M  V30 164 H 18.063 2.33793 -3.4421 0
M  V30 165 H 16.939 3.44136 -4.27623 0
M  V30 166 H 17.2 3.61311 -2.54768 0
M  V30 167 N 16.2591 1.48442 0.529413 0
M  V30 168 C 17.2221 1.62524 1.61612 0
M  V30 169 C 18.2221 0.498509 1.52877 0
M  V30 170 O 19.4121 0.76431 1.56537 0
M  V30 171 C 16.5441 1.59597 3.01233 0
M  V30 172 H 17.7371 2.59423 1.50465 0
M  V30 173 H 15.2901 1.37047 0.751514 0
M  V30 174 H 16.0251 0.641781 3.17886 0
M  V30 175 H 15.8101 2.41397 3.08982 0
M  V30 176 H 17.3001 1.72646 3.80241 0
M  V30 177 N 17.7372 -0.778329 1.37039 0
M  V30 178 C 18.9842 -1.53665 1.31884 0
M  V30 179 C 19.3122 -1.9425 -0.0986303 0
M  V30 180 O 18.5672 -1.63832 -1.07041 0
M  V30 181 C 18.8662 -2.81845 2.19768 0
M  V30 182 C 18.5322 -2.60345 3.68146 0
M  V30 183 C 17.1942 -2.5419 4.08584 0
M  V30 184 C 19.5462 -2.40923 4.62175 0
M  V30 185 C 16.8742 -2.26594 5.41177 0
M  V30 186 C 19.2262 -2.14852 5.94997 0
M  V30 187 C 17.8902 -2.07137 6.34547 0
M  V30 188 H 17.1602 -0.562299 0.482598 0
M  V30 189 H 19.8072 -0.897069 1.69189 0
M  V30 190 H 18.1122 -3.50328 1.75436 0
M  V30 191 H 19.8092 -3.39692 2.13097 0
M  V30 192 H 16.3992 -2.65996 3.36072 0
M  V30 193 H 20.5832 -2.44673 4.31797 0
M  V30 194 H 15.8392 -2.19111 5.70789 0
M  V30 195 H 20.0132 -1.98822 6.67415 0
M  V30 196 H 17.6402 -1.85518 7.37216 0
M  V30 197 N 19.2153 -1.21501 -1.00376 0
M  V30 198 C 20.6263 -1.03146 -1.55621 0
M  V30 199 C 20.9773 0.408375 -1.91903 0
M  V30 200 O 20.1023 1.29177 -1.73616 0
M  V30 201 C 20.6973 -1.86612 -2.82775 0
M  V30 202 C 19.2563 -1.72586 -3.34501 0
M  V30 203 C 18.4033 -1.83747 -2.07683 0
M  V30 204 H 21.3543 -1.35505 -0.826081 0
M  V30 205 H 21.3753 -1.3771 -3.54706 0
M  V30 206 H 20.8873 -2.91399 -2.56336 0
M  V30 207 H 18.9883 -0.704877 -3.65872 0
M  V30 208 H 19.1013 -2.54623 -4.05837 0
M  V30 209 H 17.4653 -1.27069 -2.20739 0
M  V30 210 H 18.2483 -2.90044 -1.83655 0
M  V30 211 N 20.6934 1.19889 -1.02296 0
M  V30 212 C 21.6034 2.26571 -0.608508 0
M  V30 213 C 22.6194 1.70299 0.356964 0
M  V30 214 O 23.7954 2.00235 0.216326 0
M  V30 215 C 20.8604 3.46677 0.0402814 0
M  V30 216 C 19.9214 4.18153 -0.97194 0
M  V30 217 C 19.1544 5.32525 -0.354016 0
M  V30 218 O 19.3774 5.64112 0.844604 0
M  V30 219 O 18.3114 5.92242 -1.07391 0
M  V30 220 H 22.1374 2.64251 -1.49684 0
M  V30 221 H 19.7224 1.26629 -0.792809 0
M  V30 222 H 21.6044 4.19475 0.402324 0
M  V30 223 H 20.2794 3.10858 0.902707 0
M  V30 224 H 19.1864 3.47499 -1.38546 0
M  V30 225 H 20.5194 4.57927 -1.80454 0
M  V30 226 N 22.1715 0.800033 1.35784 0
M  V30 227 C 23.1185 0.203848 2.29898 0
M  V30 228 C 24.0885 -0.658375 1.52495 0
M  V30 229 O 25.2735 -0.604832 1.8096 0
M  V30 230 C 22.4135 -0.64688 3.38983 0
M  V30 231 C 21.5265 0.235054 4.3136 0
M  V30 232 C 20.6615 -0.623054 5.27533 0
M  V30 233 C 19.7005 0.259682 6.11549 0
M  V30 234 N 18.8375 -0.558019 6.99879 0
M  V30 235 H 23.6775 1.01186 2.80295 0
M  V30 236 H 21.2145 0.51053 1.37957 0
M  V30 237 H 23.1725 -1.15521 4.00887 0
M  V30 238 H 21.8025 -1.42021 2.89879 0
M  V30 239 H 20.8545 0.861438 3.70518 0
M  V30 240 H 22.1665 0.914768 4.9034 0
M  V30 241 H 21.3205 -1.19678 5.94779 0
M  V30 242 H 20.0595 -1.33636 4.69034 0
M  V30 243 H 19.0645 0.845726 5.43256 0
M  V30 244 H 20.2895 0.970748 6.72126 0
M  V30 245 H 18.2355 -1.25542 6.43875 0
M  V30 246 H 18.1525 0.0637872 7.55973 0
M  V30 247 H 19.4205 -1.11523 7.71481 0
M  V30 248 N 23.6496 -1.47581 0.552962 0
M  V30 249 C 24.5596 -2.33743 -0.200353 0
M  V30 250 C 25.5756 -1.47928 -0.916151 0
M  V30 251 O 26.7516 -1.80865 -0.885993 0
M  V30 252 C 23.8166 -3.24536 -1.21973 0
M  V30 253 C 22.8776 -4.26238 -0.511819 0
M  V30 254 C 22.1106 -5.12693 -1.48263 0
M  V30 255 O 22.3336 -5.01525 -2.71714 0
M  V30 256 O 21.2676 -5.93375 -1.00945 0
M  V30 257 H 25.0936 -2.9945 0.506304 0
M  V30 258 H 22.6786 -1.46071 0.313622 0
M  V30 259 H 24.5606 -3.80631 -1.80827 0
M  V30 260 H 23.2356 -2.61462 -1.90839 0
M  V30 261 H 22.1426 -3.73914 0.117799 0
M  V30 262 H 23.4756 -4.92014 0.135308 0
M  V30 263 N 25.1277 -0.289203 -1.54924 0
M  V30 264 C 26.0377 0.601863 -2.26748 0
M  V30 265 C 27.0537 1.15834 -1.2984 0
M  V30 266 O 28.2297 1.18564 -1.62802 0
M  V30 267 C 25.2947 1.76299 -2.98529 0
M  V30 268 C 24.3557 1.24178 -4.10948 0
M  V30 269 C 23.5887 2.34757 -4.79296 0
M  V30 270 O 23.8117 3.54411 -4.46933 0
M  V30 271 O 22.7457 2.02115 -5.66951 0
M  V30 272 H 26.5717 0.0195879 -3.03694 0
M  V30 273 H 24.1567 -0.0560868 -1.49295 0
M  V30 274 H 26.0387 2.43973 -3.43592 0
M  V30 275 H 24.7137 2.33209 -2.24488 0
M  V30 276 H 23.6207 0.531104 -3.70311 0
M  V30 277 H 24.9537 0.718252 -4.86931 0
M  V30 278 N 26.6058 1.57591 -0.0167156 0
M  V30 279 C 27.8828 1.82547 0.702564 0
M  V30 280 C 28.2628 0.898018 1.91047 0
M  V30 281 O 27.6108 -0.0493456 2.28447 0
M  V30 282 C 27.8208 3.31459 1.09251 0
M  V30 283 C 29.1688 3.97622 1.48937 0
M  V30 284 O 30.1928 3.35881 1.18584 0
M  V30 285 O 29.0518 5.06415 2.05442 0
M  V30 286 H 26.1458 0.752268 0.343544 0
M  V30 287 H 28.6918 1.69644 -0.0434495 0
M  V30 288 H 27.4638 3.9061 0.23227 0
M  V30 289 H 27.0868 3.49422 1.89709 0
M  V30 290 N 28.0839 -0.256276 1.55502 0
M  V30 291 C 28.9939 -1.33882 1.92647 0
M  V30 292 C 30.0099 -1.53159 0.825727 0
M  V30 293 O 31.1859 -1.66963 1.12629 0
M  V30 294 C 28.2509 -2.6751 2.20543 0
M  V30 295 C 27.3119 -2.56836 3.43997 0
M  V30 296 C 26.5449 -3.84092 3.70553 0
M  V30 297 O 26.7679 -4.85545 2.99336 0
M  V30 298 O 25.7019 -3.83288 4.64084 0
M  V30 299 H 29.5279 -1.05374 2.84833 0
M  V30 300 H 27.1129 -0.456237 1.42263 0
M  V30 301 H 28.9949 -3.46492 2.39835 0
M  V30 302 H 27.6699 -2.9577 1.31536 0
M  V30 303 H 26.5769 -1.76172 3.30021 0
M  V30 304 H 27.9099 -2.33523 4.33275 0
M  V30 305 N 29.562 -1.4872 -0.521534 0
M  V30 306 C 30.472 -1.66569 -1.65203 0
M  V30 307 C 31.488 -0.548197 -1.65139 0
M  V30 308 O 32.664 -0.820339 -1.83936 0
M  V30 309 C 29.729 -1.70917 -3.01642 0
M  V30 310 C 28.79 -2.94356 -3.12495 0
M  V30 311 C 28.023 -2.98487 -4.42426 0
M  V30 312 O 28.246 -2.10786 -5.30024 0
M  V30 313 O 27.18 -3.90746 -4.57822 0
M  V30 314 H 31.006 -2.62298 -1.5308 0
M  V30 315 H 28.591 -1.3222 -0.695565 0
M  V30 316 H 30.473 -1.7625 -3.82771 0
M  V30 317 H 29.148 -0.783633 -3.14071 0
M  V30 318 H 28.055 -2.94552 -2.3063 0
M  V30 319 H 29.388 -3.86322 -3.04986 0
M  V30 320 N 31.0401 0.771051 -1.3745 0
M  V30 321 C 31.9501 1.91538 -1.35464 0
M  V30 322 C 32.9661 1.72134 -0.254123 0
M  V30 323 O 34.1421 1.95358 -0.489626 0
M  V30 324 C 31.2071 3.26671 -1.16134 0
M  V30 325 C 30.2681 3.58723 -2.35831 0
M  V30 326 C 29.5011 4.87409 -2.17413 0
M  V30 327 O 29.7241 5.58506 -1.15876 0
M  V30 328 O 28.6581 5.18539 -3.05615 0
M  V30 329 H 32.4841 1.96165 -2.31847 0
M  V30 330 H 30.0691 0.9139 -1.18187 0
M  V30 331 H 31.9511 4.07499 -1.07345 0
M  V30 332 H 30.6261 3.22894 -0.228251 0
M  V30 333 H 29.5331 2.78127 -2.50192 0
M  V30 334 H 30.8661 3.67243 -3.27709 0
M  V30 335 N 32.5182 1.22032 0.997298 0
M  V30 336 C 33.4282 1.00271 2.12092 0
M  V30 337 C 34.4442 -0.047621 1.73935 0
M  V30 338 O 35.6202 0.144136 2.00884 0
M  V30 339 C 32.6852 0.578449 3.4184 0
M  V30 340 C 31.7462 1.70189 3.94125 0
M  V30 341 C 30.9792 1.29778 5.17681 0
M  V30 342 O 31.2022 0.174676 5.70132 0
M  V30 343 O 30.1362 2.11261 5.63607 0
M  V30 344 H 33.9622 1.94398 2.3333 0
M  V30 345 H 31.5472 1.00587 1.10465 0
M  V30 346 H 33.4292 0.351998 4.19927 0
M  V30 347 H 32.1042 -0.334019 3.21972 0
M  V30 348 H 31.0112 1.98282 3.1723 0
M  V30 349 H 32.3442 2.59206 4.18417 0
M  V30 350 N 33.9963 -1.19345 1.0293 0
M  V30 351 C 34.9063 -2.26245 0.620515 0
M  V30 352 C 35.9223 -1.70486 -0.347928 0
M  V30 353 O 37.0983 -2.00347 -0.205704 0
M  V30 354 C 34.1633 -3.46693 -0.0218957 0
M  V30 355 C 33.2243 -4.17632 0.994102 0
M  V30 356 C 32.4573 -5.32329 0.382253 0
M  V30 357 O 32.6803 -5.64552 -0.814676 0
M  V30 358 O 31.6143 -5.91664 1.10531 0
M  V30 359 H 35.4403 -2.63453 1.51083 0
M  V30 360 H 33.0253 -1.26207 0.799513 0
M  V30 361 H 34.9073 -4.19683 -0.380072 0
M  V30 362 H 33.5823 -3.11333 -0.886209 0
M  V30 363 H 32.4893 -3.4676 1.40387 0
M  V30 364 H 33.8223 -4.56964 1.8288 0
M  V30 365 N 35.4744 -0.807222 -1.35358 0
M  V30 366 C 36.3844 -0.219594 -2.3357 0
M  V30 367 C 37.4004 0.637734 -1.61892 0
M  V30 368 O 38.5764 0.549336 -1.93763 0
M  V30 369 C 35.6414 0.62158 -3.41083 0
M  V30 370 C 34.7024 -0.256315 -4.28534 0
M  V30 371 C 33.9354 0.544807 -5.30912 0
M  V30 372 O 34.1584 1.77944 -5.41934 0
M  V30 373 O 33.0924 -0.0646478 -6.01865 0
M  V30 374 H 36.9184 -1.03208 -2.85625 0
M  V30 375 H 34.5034 -0.569025 -1.38139 0
M  V30 376 H 36.3854 1.10067 -4.06772 0
M  V30 377 H 35.0604 1.41165 -2.91297 0
M  V30 378 H 33.9674 -0.782559 -3.65823 0
M  V30 379 H 35.3004 -1.01034 -4.81719 0
M  V30 380 N 36.9525 1.47285 -0.560781 0
M  V30 381 C 38.2005 2.02064 -0.0379868 0
M  V30 382 C 38.5215 1.43711 1.31803 0
M  V30 383 O 37.7915 0.61362 1.86042 0
M  V30 384 H 36.3715 0.746918 -0.0110531 0
M  V30 385 H 39.0335 1.80648 -0.731598 0
M  V30 386 H 38.1295 3.12064 0.0474463 0
M  V30 387 N 38.4306 0.297415 1.54768 0
M  V30 388 C 39.6766 -0.313376 2.00364 0
M  V30 389 C 40.0096 -1.53815 1.18553 0
M  V30 390 O 39.2846 -1.92739 0.261103 0
M  V30 391 C 39.5676 -0.673525 3.53745 0
M  V30 392 C 39.4206 0.560133 4.46299 0
M  V30 393 C 40.7396 -1.50143 4.13697 0
M  V30 394 H 37.8586 -0.112428 0.728374 0
M  V30 395 H 40.5006 0.4088 1.8555 0
M  V30 396 H 38.6506 -1.28881 3.665 0
M  V30 397 H 40.3226 1.19863 4.45455 0
M  V30 398 H 38.5656 1.19405 4.17043 0
M  V30 399 H 39.2366 0.26405 5.51368 0
M  V30 400 H 41.7126 -0.981588 4.04356 0
M  V30 401 H 40.5886 -1.72221 5.21182 0
M  V30 402 H 40.8496 -2.48952 3.65343 0
M  V30 403 N 39.9087 -1.5758 0.0250728 0
M  V30 404 C 40.8187 -2.1343 -0.973905 0
M  V30 405 C 41.8347 -1.08556 -1.35984 0
M  V30 406 O 43.0107 -1.40592 -1.44207 0
M  V30 407 C 40.0757 -2.64703 -2.23904 0
M  V30 408 C 39.1367 -3.84276 -1.91391 0
M  V30 409 C 38.3697 -4.33095 -3.11873 0
M  V30 410 O 38.5927 -3.81107 -4.24398 0
M  V30 411 O 37.5267 -5.24984 -2.94406 0
M  V30 412 H 41.3527 -2.99057 -0.529036 0
M  V30 413 H 38.9377 -1.48118 -0.195288 0
M  V30 414 H 40.8197 -2.97769 -2.98181 0
M  V30 415 H 39.4947 -1.82161 -2.6758 0
M  V30 416 H 38.4017 -3.56143 -1.14511 0
M  V30 417 H 39.7347 -4.67968 -1.52534 0
M  V30 418 N 41.3868 0.248026 -1.55636 0
M  V30 419 C 42.6328 0.973427 -1.78594 0
M  V30 420 C 42.9878 1.83007 -0.593823 0
M  V30 421 O 42.2808 1.87097 0.412961 0
M  V30 422 C 42.4748 1.86819 -3.04686 0
M  V30 423 C 42.3038 1.09965 -4.36048 0
M  V30 424 C 41.0738 0.805204 -4.98843 0
M  V30 425 C 43.2718 0.477783 -5.12076 0
M  V30 426 N 41.2538 0.0124859 -6.13899 0
M  V30 427 C 42.6248 -0.179565 -6.1974 0
M  V30 428 C 44.6798 0.388136 -4.96385 0
M  V30 429 C 43.3828 -0.91795 -7.13419 0
M  V30 430 C 45.4088 -0.336716 -5.90441 0
M  V30 431 C 44.7708 -0.982705 -6.97511 0
M  V30 432 H 40.8698 0.337348 -0.705493 0
M  V30 433 H 43.4538 0.24667 -1.93131 0
M  V30 434 H 41.6248 2.56698 -2.9148 0
M  V30 435 H 43.3568 2.52907 -3.15944 0
M  V30 436 H 40.1118 1.11671 -4.60246 0
M  V30 437 H 40.5358 -0.371933 -6.75978 0
M  V30 438 H 45.1778 0.873237 -4.13684 0
M  V30 439 H 42.8958 -1.41466 -7.95621 0
M  V30 440 H 46.4818 -0.406731 -5.80377 0
M  V30 441 H 45.3618 -1.53464 -7.69037 0
M  V30 442 N 42.8649 1.48995 0.513639 0
M  V30 443 C 44.1129 1.57531 1.26604 0
M  V30 444 C 44.4339 0.258236 1.93283 0
M  V30 445 O 43.7039 -0.721502 1.8213 0
M  V30 446 H 42.2839 0.580387 0.470276 0
M  V30 447 H 44.9459 1.85552 0.596373 0
M  V30 448 H 44.0419 2.36486 2.03669 0
M  V30 449 N 44.343 -0.763751 1.37857 0
M  V30 450 C 45.573 -1.55067 1.3652 0
M  V30 451 C 45.981 -1.89135 -0.0494227 0
M  V30 452 O 45.324 -1.52529 -1.02375 0
M  V30 453 C 45.386 -2.8838 2.14656 0
M  V30 454 C 45.05 -2.76905 3.63555 0
M  V30 455 C 46.047 -2.4739 4.57268 0
M  V30 456 C 43.732 -2.94676 4.06781 0
M  V30 457 C 45.726 -2.35786 5.92186 0
M  V30 458 C 43.413 -2.82692 5.41782 0
M  V30 459 C 44.411 -2.53289 6.34298 0
M  V30 460 O 44.099 -2.41345 7.66817 0
M  V30 461 H 43.831 -0.486776 0.469069 0
M  V30 462 H 46.385 -0.953812 1.81911 0
M  V30 463 H 44.615 -3.50217 1.63967 0
M  V30 464 H 46.304 -3.49828 2.05852 0
M  V30 465 H 47.07 -2.33339 4.2518 0
M  V30 466 H 42.949 -3.16563 3.35126 0
M  V30 467 H 46.493 -2.12757 6.64365 0
M  V30 468 H 42.39 -2.96314 5.7347 0
M  V30 469 H 43.158 -2.56634 7.77226 0
M  V30 470 N 45.8211 -1.22559 -0.990812 0
M  V30 471 C 46.7311 -1.01394 -2.11557 0
M  V30 472 C 47.7471 0.0383962 -1.73958 0
M  V30 473 O 48.9231 -0.154787 -2.00804 0
M  V30 474 C 45.9881 -0.596569 -3.41529 0
M  V30 475 C 45.0491 -1.72276 -3.93217 0
M  V30 476 C 44.2821 -1.32521 -5.16985 0
M  V30 477 O 44.5051 -0.204909 -5.70032 0
M  V30 478 O 43.4391 -2.14247 -5.62478 0
M  V30 479 H 47.2651 -1.95633 -2.32296 0
M  V30 480 H 44.8501 -1.01172 -1.0993 0
M  V30 481 H 46.7321 -0.374263 -4.19735 0
M  V30 482 H 45.4071 0.316939 -3.22145 0
M  V30 483 H 44.3141 -1.99961 -3.16174 0
M  V30 484 H 45.6471 -2.61421 -4.17037 0
M  V30 485 N 47.2992 1.18797 -1.03562 0
M  V30 486 C 48.2092 2.25913 -0.632505 0
M  V30 487 C 49.2252 1.70668 0.338882 0
M  V30 488 O 50.4012 2.00453 0.195076 0
M  V30 489 C 47.4662 3.467 0.00350942 0
M  V30 490 C 46.5272 4.17098 -1.01624 0
M  V30 491 C 45.7602 5.32119 -0.410478 0
M  V30 492 O 45.9832 5.64976 0.784725 0
M  V30 493 O 44.9172 5.9107 -1.13667 0
M  V30 494 H 48.7432 2.62648 -1.52478 0
M  V30 495 H 46.3282 1.25781 -0.806195 0
M  V30 496 H 48.2102 4.19878 0.35781 0
M  V30 497 H 46.8852 3.11798 0.869686 0
M  V30 498 H 45.7922 3.4601 -1.42224 0
M  V30 499 H 47.1252 4.55987 -1.85301 0
M  V30 500 N 48.7773 0.814389 1.34928 0
M  V30 501 C 50.0253 0.397636 1.9815 0
M  V30 502 C 50.3463 -1.04069 1.64908 0
M  V30 503 O 49.6163 -1.72121 0.93548 0
M  V30 504 H 48.1963 0.144043 0.732981 0
M  V30 505 H 50.8583 1.04195 1.6471 0
M  V30 506 H 49.9543 0.509688 3.0791 0
M  V30 507 N 50.2554 -1.46986 0.568584 0
M  V30 508 C 51.5014 -2.02741 0.0488709 0
M  V30 509 C 51.8344 -1.44077 -1.30214 0
M  V30 510 O 51.1094 -0.600552 -1.84996 0
M  V30 511 C 51.3924 -3.60086 -0.032047 0
M  V30 512 C 51.2454 -4.29162 1.34686 0
M  V30 513 C 52.5644 -4.33838 -0.739798 0
M  V30 514 H 49.6834 -0.736749 0.0192338 0
M  V30 515 H 52.3254 -1.75289 0.733065 0
M  V30 516 H 50.4754 -3.83606 -0.61473 0
M  V30 517 H 52.1474 -4.16948 1.97362 0
M  V30 518 H 50.3904 -3.89073 1.91846 0
M  V30 519 H 51.0614 -5.37826 1.24285 0
M  V30 520 H 53.5374 -4.15378 -0.244939 0
M  V30 521 H 52.4134 -5.43537 -0.765406 0
M  V30 522 H 52.6744 -4.03875 -1.79827 0
M  V30 523 N 51.7335 -0.305618 -1.54608 0
M  V30 524 C 52.6435 0.57778 -2.27374 0
M  V30 525 C 53.6595 1.14451 -1.31061 0
M  V30 526 O 54.8355 1.16831 -1.6405 0
M  V30 527 C 51.9005 1.73123 -3.00382 0
M  V30 528 C 50.9615 1.19812 -4.12242 0
M  V30 529 C 50.1945 2.2966 -4.81759 0
M  V30 530 O 50.4175 3.49651 -4.50666 0
M  V30 531 O 49.3515 1.96091 -5.69062 0
M  V30 532 H 53.1775 -0.012624 -3.03697 0
M  V30 533 H 50.7625 -0.0719184 -1.49227 0
M  V30 534 H 52.6445 2.40315 -3.4616 0
M  V30 535 H 51.3195 2.30815 -2.26949 0
M  V30 536 H 50.2265 0.491798 -3.70853 0
M  V30 537 H 51.5595 0.666566 -4.87666 0
M  V30 538 N 53.2116 1.57565 -0.0334293 0
M  V30 539 C 54.4576 1.93088 0.639417 0
M  V30 540 C 54.8126 0.910589 1.69488 0
M  V30 541 O 54.1056 -0.0727725 1.91462 0
M  V30 542 C 54.2996 3.33112 1.29504 0
M  V30 543 C 54.1286 4.48667 0.304604 0
M  V30 544 C 52.8986 5.05207 -0.0970777 0
M  V30 545 C 55.0966 5.1239 -0.442845 0
M  V30 546 N 53.0786 6.04286 -1.08223 0
M  V30 547 C 54.4496 6.06609 -1.28161 0
M  V30 548 C 56.5046 4.95352 -0.50308 0
M  V30 549 C 55.2076 6.85622 -2.17519 0
M  V30 550 C 57.2336 5.74978 -1.38401 0
M  V30 551 C 56.5956 6.68816 -2.21054 0
M  V30 552 H 52.6946 0.754335 0.206161 0
M  V30 553 H 55.2786 1.94435 -0.101613 0
M  V30 554 H 53.4496 3.32576 2.00618 0
M  V30 555 H 55.1816 3.55972 1.92525 0
M  V30 556 H 51.9366 4.72782 0.278255 0
M  V30 557 H 52.3606 6.58516 -1.57117 0
M  V30 558 H 57.0026 4.22625 0.121694 0
M  V30 559 H 54.7206 7.57652 -2.81049 0
M  V30 560 H 58.3066 5.63826 -1.43496 0
M  V30 561 H 57.1866 7.29355 -2.88116 0
M  V30 562 N 54.6897 -0.239769 1.55765 0
M  V30 563 C 55.9377 -0.964892 1.77579 0
M  V30 564 C 56.2587 -1.85582 0.598699 0
M  V30 565 O 55.5287 -1.92075 -0.385226 0
M  V30 566 H 54.1087 -0.359265 0.654933 0
M  V30 567 H 56.7707 -0.256001 1.93211 0
M  V30 568 H 55.8667 -1.58243 2.69009 0
M  V30 569 N 56.1678 -1.49265 -0.50573 0
M  V30 570 C 57.0978 -1.68495 -1.61653 0
M  V30 571 C 58.0788 -0.53366 -1.61512 0
M  V30 572 O 59.2638 -0.76897 -1.78327 0
M  V30 573 C 56.3938 -1.74709 -3.00157 0
M  V30 574 C 55.3478 -2.89581 -3.15162 0
M  V30 575 C 54.6738 -2.80903 -4.5497 0
M  V30 576 C 55.9738 -4.30578 -2.95634 0
M  V30 577 H 57.6678 -2.61493 -1.45814 0
M  V30 578 H 55.2138 -1.25838 -0.70005 0
M  V30 579 H 57.1668 -1.86748 -3.77761 0
M  V30 580 H 55.8908 -0.783067 -3.17074 0
M  V30 581 H 54.5498 -2.77136 -2.39982 0
M  V30 582 H 54.1978 -1.82419 -4.68756 0
M  V30 583 H 53.8978 -3.57999 -4.65951 0
M  V30 584 H 55.4218 -2.94944 -5.34641 0
M  V30 585 H 56.8358 -4.4373 -3.63011 0
M  V30 586 H 55.2328 -5.0886 -3.18091 0
M  V30 587 H 56.3028 -4.45352 -1.91806 0
M  V30 588 N 57.6459 0.756429 -1.3826 0
M  V30 589 C 58.8919 1.51772 -1.34511 0
M  V30 590 C 59.2249 1.94089 0.0656691 0
M  V30 591 O 58.4999 1.65221 1.02626 0
M  V30 592 C 58.7829 2.77226 -2.29821 0
M  V30 593 C 58.6359 2.41065 -3.79747 0
M  V30 594 C 59.9549 3.79236 -2.23312 0
M  V30 595 H 57.0739 0.550578 -0.489931 0
M  V30 596 H 59.7159 0.866607 -1.69086 0
M  V30 597 H 57.8659 3.32784 -2.00467 0
M  V30 598 H 59.5379 1.91303 -4.19763 0
M  V30 599 H 57.7809 1.7356 -3.97567 0
M  V30 600 H 58.4519 3.3081 -4.41892 0
M  V30 601 H 60.9279 3.3321 -2.49219 0
M  V30 602 H 59.8039 4.64714 -2.92116 0
M  V30 603 H 60.0649 4.24615 -1.23102 0
M  V30 604 N 59.124 1.23083 0.984299 0
M  V30 605 C 60.371 1.06057 1.72505 0
M  V30 606 C 60.699 -0.403105 1.90277 0
M  V30 607 O 59.954 -1.3149 1.44944 0
M  V30 608 C 60.253 1.72673 3.1292 0
M  V30 609 C 59.919 3.22586 3.15038 0
M  V30 610 C 58.581 3.63489 3.15324 0
M  V30 611 C 60.933 4.185 3.10657 0
M  V30 612 C 58.261 4.98772 3.08939 0
M  V30 613 C 60.613 5.53769 3.05814 0
M  V30 614 C 59.277 5.94041 3.04419 0
M  V30 615 H 58.547 0.388091 0.631242 0
M  V30 616 H 61.194 1.52963 1.15215 0
M  V30 617 H 59.499 1.18116 3.73572 0
M  V30 618 H 61.196 1.56982 3.68996 0
M  V30 619 H 57.786 2.90022 3.15571 0
M  V30 620 H 61.97 3.87911 3.09579 0
M  V30 621 H 57.226 5.29193 3.0621 0
M  V30 622 H 61.4 6.27808 3.0138 0
M  V30 623 H 59.027 6.98833 2.99227 0
M  V30 624 N 60.6021 -1.18246 1.0419 0
M  V30 625 C 62.0131 -1.69914 0.773698 0
M  V30 626 C 62.3641 -1.83085 -0.705297 0
M  V30 627 O 61.4891 -1.51123 -1.5489 0
M  V30 628 C 62.0841 -3.08619 1.39784 0
M  V30 629 C 60.6431 -3.57494 1.17792 0
M  V30 630 C 59.7901 -2.34013 1.48773 0
M  V30 631 H 62.7411 -1.02904 1.20816 0
M  V30 632 H 62.7621 -3.71958 0.801714 0
M  V30 633 H 62.2741 -2.99001 2.47426 0
M  V30 634 H 60.3751 -3.72406 0.120295 0
M  V30 635 H 60.4881 -4.40852 1.87581 0
M  V30 636 H 58.8521 -2.37986 0.907463 0
M  V30 637 H 59.6351 -2.27013 2.57527 0
M  V30 638 N 62.0802 -0.821533 -1.34494 0
M  V30 639 C 63.3572 -0.33159 -1.92769 0
M  V30 640 C 63.7372 1.18088 -1.74981 0
M  V30 641 O 63.0852 1.98733 -1.12772 0
M  V30 642 C 63.2952 -0.759398 -3.40638 0
M  V30 643 C 64.6432 -0.757433 -4.1779 0
M  V30 644 O 65.6672 -0.70189 -3.49216 0
M  V30 645 O 64.5262 -0.829361 -5.4017 0
M  V30 646 H 61.6202 -0.0902502 -0.822061 0
M  V30 647 H 64.1662 -0.906231 -1.43477 0
M  V30 648 H 62.9382 -1.8012 -3.47379 0
M  V30 649 H 62.5612 -0.160378 -3.97276 0
M  V30 650 N 63.5583 1.46682 -0.576371 0
M  V30 651 C 64.5213 2.28707 0.150239 0
M  V30 652 C 65.5213 1.38035 0.824794 0
M  V30 653 O 66.7113 1.60476 0.677719 0
M  V30 654 C 63.8433 3.18248 1.22192 0
M  V30 655 H 65.0363 2.94423 -0.570521 0
M  V30 656 H 62.5893 1.52688 -0.334078 0
M  V30 657 H 63.3243 2.57265 1.97447 0
M  V30 658 H 63.1093 3.85 0.742812 0
M  V30 659 H 64.5993 3.80001 1.73172 0
M  V30 660 N 65.0364 0.313813 1.54444 0
M  V30 661 C 65.9844 -0.572171 2.25453 0
M  V30 662 C 66.9784 -1.12657 1.2651 0
M  V30 663 O 68.1844 -1.07573 1.44319 0
M  V30 664 H 64.5594 -0.203146 0.724041 0
M  V30 665 H 66.5304 0.0491145 2.9836 0
M  V30 666 C 65.2794 -1.72626 3.0182 0
M  V30 667 H 64.6024 -1.30891 3.77767 0
M  V30 668 H 66.0424 -2.32199 3.54767 0
M  V30 669 C 64.5014 -2.63806 2.09542 0
M  V30 670 O 65.0314 -3.65256 1.67185 0
M  V30 671 N 63.2374 -2.31824 1.75232 0
M  V30 672 H 62.7844 -1.49368 2.09873 0
M  V30 673 H 62.7424 -2.93095 1.13767 0
M  V30 674 N 66.5145 -1.57545 0.0417849 0
M  V30 675 C 67.7625 -1.91937 -0.632829 0
M  V30 676 C 68.0835 -0.919978 -1.71934 0
M  V30 677 O 67.3535 0.0366064 -1.95866 0
M  V30 678 H 65.9335 -0.708493 -0.236742 0
M  V30 679 H 68.5955 -1.9468 0.0925745 0
M  V30 680 H 67.6915 -2.92912 -1.07746 0
M  V30 681 N 67.9926 0.231505 -1.5589 0
M  V30 682 C 68.9026 1.308 -1.94752 0
M  V30 683 C 69.9186 1.51826 -0.849989 0
M  V30 684 O 71.0946 1.6515 -1.15271 0
M  V30 685 C 68.1596 2.63968 -2.24771 0
M  V30 686 C 67.2206 2.51331 -3.48039 0
M  V30 687 C 66.4536 3.78148 -3.76616 0
M  V30 688 O 66.6766 4.80722 -3.07022 0
M  V30 689 O 65.6106 3.75857 -4.70123 0
M  V30 690 H 69.4366 1.0083 -2.86474 0
M  V30 691 H 67.0216 0.433547 -1.42971 0
M  V30 692 H 68.9036 3.42633 -2.45318 0
M  V30 693 H 67.5786 2.9364 -1.36225 0
M  V30 694 H 66.4856 1.709 -3.32782 0
M  V30 695 H 67.8186 2.26601 -4.36936 0
M  V30 696 N 69.4707 1.49531 0.497807 0
M  V30 697 C 70.7007 1.62657 1.27382 0
M  V30 698 C 71.1087 0.298488 1.86831 0
M  V30 699 O 70.4517 -0.72647 1.68725 0
M  V30 700 C 70.5137 2.6393 2.44093 0
M  V30 701 C 70.1777 4.08195 2.05489 0
M  V30 702 C 71.1747 4.949 1.59279 0
M  V30 703 C 68.8597 4.53948 2.15026 0
M  V30 704 C 70.8537 6.25397 1.23113 0
M  V30 705 C 68.5407 5.84458 1.78473 0
M  V30 706 C 69.5387 6.70006 1.32591 0
M  V30 707 O 69.2267 7.98083 0.965327 0
M  V30 708 H 68.9587 0.550429 0.392434 0
M  V30 709 H 71.5127 1.96325 0.603801 0
M  V30 710 H 69.7427 2.25449 3.14181 0
M  V30 711 H 71.4317 2.66552 3.06113 0
M  V30 712 H 72.1977 4.60779 1.51354 0
M  V30 713 H 68.0767 3.87525 2.4969 0
M  V30 714 H 71.6207 6.92125 0.872299 0
M  V30 715 H 67.5177 6.18107 1.86048 0
M  V30 716 H 68.2857 8.11122 1.09652 0
M  V30 717 N 70.9488 -0.749086 1.3866 0
M  V30 718 C 71.8808 -1.87273 1.32142 0
M  V30 719 C 72.8938 -1.61127 0.232787 0
M  V30 720 O 74.0828 -1.71623 0.49069 0
M  V30 721 C 71.1828 -3.23005 1.02571 0
M  V30 722 C 70.3558 -3.7662 2.22433 0
M  V30 723 C 69.4148 -4.90879 1.89537 0
M  V30 724 O 68.4408 -5.05276 2.62078 0
M  V30 725 N 69.6428 -5.74198 0.853031 0
M  V30 726 H 72.4078 -1.93373 2.28969 0
M  V30 727 H 69.9688 -0.929216 1.32579 0
M  V30 728 H 71.9608 -3.96992 0.786085 0
M  V30 729 H 70.5308 -3.12262 0.145249 0
M  V30 730 H 69.7508 -2.94147 2.62434 0
M  V30 731 H 71.0388 -4.09173 3.02415 0
M  V30 732 H 70.4368 -5.6514 0.25155 0
M  V30 733 H 68.9938 -6.48313 0.67329 0
M  V30 734 N 72.4269 -1.23603 -0.977757 0
M  V30 735 C 73.6519 -1.09735 -1.75991 0
M  V30 736 C 74.0769 0.346858 -1.84874 0
M  V30 737 O 73.4349 1.25093 -1.3123 0
M  V30 738 C 73.4829 -1.73051 -3.16363 0
M  V30 739 O 72.5869 -0.994452 -4.0023 0
M  V30 740 H 71.9279 -0.384476 -0.541364 0
M  V30 741 H 74.4579 -1.6371 -1.2272 0
M  V30 742 H 74.4679 -1.78398 -3.66931 0
M  V30 743 H 73.1429 -2.78137 -3.09213 0
M  V30 744 H 71.7199 -1.01812 -3.58732 0
M  V30 745 N 73.905 1.17692 -1.04816 0
M  V30 746 C 75.316 1.69501 -0.782698 0
M  V30 747 C 75.667 1.83456 0.695577 0
M  V30 748 O 74.792 1.51942 1.54086 0
M  V30 749 C 75.387 3.07874 -1.41419 0
M  V30 750 C 73.946 3.56864 -1.19686 0
M  V30 751 C 73.093 2.3322 -1.50012 0
M  V30 752 H 76.044 1.02262 -1.2136 0
M  V30 753 H 76.065 3.71528 -0.821428 0
M  V30 754 H 75.577 2.97685 -2.49009 0
M  V30 755 H 73.678 3.72337 -0.140043 0
M  V30 756 H 73.791 4.39851 -1.89916 0
M  V30 757 H 72.155 2.37501 -0.920071 0
M  V30 758 H 72.938 2.25644 -2.58727 0
M  V30 759 N 75.3831 0.828654 1.34056 0
M  V30 760 C 76.6321 0.415828 1.97367 0
M  V30 761 C 76.9451 -1.02796 1.6641 0
M  V30 762 O 78.1511 -1.54497 2.23255 0
M  V30 763 C 76.6071 0.692601 3.53173 0
M  V30 764 C 76.2151 2.15038 3.93017 0
M  V30 765 C 77.9591 0.346222 4.23086 0
M  V30 766 C 75.8661 2.37174 5.41758 0
M  V30 767 H 74.7961 0.151755 0.738571 0
M  V30 768 H 77.4471 1.01581 1.52819 0
M  V30 769 H 75.8291 0.0223764 3.95994 0
M  V30 770 H 77.0031 2.86024 3.61285 0
M  V30 771 H 75.3181 2.45875 3.36057 0
M  V30 772 H 77.9151 0.48937 5.32456 0
M  V30 773 H 78.2581 -0.709842 4.10204 0
M  V30 774 H 78.7911 0.971258 3.85761 0
M  V30 775 H 75.5301 3.41308 5.59633 0
M  V30 776 H 75.0501 1.70738 5.74986 0
M  V30 777 H 76.7291 2.19818 6.08514 0
M  V30 778 N 76.8612 -1.46375 0.584142 0
M  V30 779 C 77.8092 -2.32042 -0.161047 0
M  V30 780 C 78.8032 -1.44569 -0.882966 0
M  V30 781 O 80.0092 -1.61186 -0.801191 0
M  V30 782 H 76.3842 -0.748659 -0.0708033 0
M  V30 783 H 78.3552 -2.92704 0.580269 0
M  V30 784 C 77.1042 -3.27762 -1.1605 0
M  V30 785 H 76.4272 -3.95051 -0.614419 0
M  V30 786 H 77.8672 -3.90481 -1.65228 0
M  V30 787 C 76.3262 -2.53218 -2.22221 0
M  V30 788 O 76.8562 -2.29628 -3.29597 0
M  V30 789 N 75.0622 -2.13756 -1.96868 0
M  V30 790 H 74.6092 -2.33142 -1.09557 0
M  V30 791 H 74.5672 -1.642 -2.68115 0
M  V30 792 N 78.3393 -0.321999 -1.54275 0
M  V30 793 C 79.2693 0.537411 -2.27231 0
M  V30 794 C 80.2503 1.12064 -1.27968 0
M  V30 795 O 81.4353 1.14606 -1.56777 0
M  V30 796 C 78.5653 1.69919 -3.02894 0
M  V30 797 C 77.5193 1.24534 -4.09482 0
M  V30 798 C 76.8453 2.49394 -4.72977 0
M  V30 799 C 78.1453 0.361335 -5.21049 0
M  V30 800 H 79.8393 -0.0711406 -2.99315 0
M  V30 801 H 77.3853 -0.0356555 -1.43956 0
M  V30 802 H 79.3383 2.30668 -3.52662 0
M  V30 803 H 78.0623 2.33431 -2.28424 0
M  V30 804 H 76.7213 0.660782 -3.60596 0
M  V30 805 H 76.3693 3.11265 -3.95124 0
M  V30 806 H 76.0693 2.19718 -5.44975 0
M  V30 807 H 77.5933 3.10908 -5.25517 0
M  V30 808 H 79.0073 0.875072 -5.66582 0
M  V30 809 H 77.4043 0.157428 -5.99893 0
M  V30 810 H 78.4743 -0.60822 -4.8107 0
M  V30 811 N 79.8174 1.5752 -0.0501392 0
M  V30 812 C 80.7654 2.12651 0.942459 0
M  V30 813 C 81.7594 1.05807 1.32292 0
M  V30 814 O 82.9654 1.24217 1.3027 0
M  V30 815 H 79.3404 0.679673 0.321789 0
M  V30 816 H 81.3114 2.94951 0.452356 0
M  V30 817 C 80.0604 2.68565 2.20836 0
M  V30 818 H 79.3834 3.50439 1.92439 0
M  V30 819 H 80.8234 3.10761 2.8845 0
M  V30 820 C 79.2824 1.62291 2.95234 0
M  V30 821 O 79.8124 1.03508 3.88135 0
M  V30 822 N 78.0184 1.33836 2.57946 0
M  V30 823 H 77.5654 1.81826 1.82475 0
M  V30 824 H 77.5234 0.629595 3.08032 0
M  V30 825 N 81.2955 -0.223234 1.56011 0
M  V30 826 C 82.5205 -0.968978 1.83373 0
M  V30 827 C 82.9455 -1.77227 0.630254 0
M  V30 828 O 82.3035 -1.76345 -0.420959 0
M  V30 829 C 82.3515 -1.86363 3.08709 0
M  V30 830 O 81.4555 -2.95873 2.87285 0
M  V30 831 H 80.7965 -0.274461 0.604622 0
M  V30 832 H 83.3265 -0.237056 2.03222 0
M  V30 833 H 83.3365 -2.27376 3.38768 0
M  V30 834 H 82.0115 -1.27319 3.95933 0
M  V30 835 H 80.5885 -2.58818 2.68454 0
M  V30 836 N 82.7736 -1.49793 -0.48987 0
M  V30 837 C 84.1896 -1.36803 -0.822022 0
M  V30 838 C 84.3896 -0.409652 -1.97292 0
M  V30 839 O 83.4456 0.154614 -2.52026 0
M  V30 840 C 84.7586 -2.77768 -1.15175 0
M  V30 841 C 86.3066 -2.86549 -1.25931 0
M  V30 842 C 86.7816 -4.28306 -1.62228 0
M  V30 843 N 88.2726 -4.31169 -1.69256 0
M  V30 844 C 89.0076 -5.37832 -1.98807 0
M  V30 845 N 88.5036 -6.54726 -2.26507 0
M  V30 846 N 90.2966 -5.25258 -2.00152 0
M  V30 847 H 82.4476 -2.10691 0.268881 0
M  V30 848 H 84.7106 -0.946241 0.057728 0
M  V30 849 H 84.4166 -3.49648 -0.379335 0
M  V30 850 H 84.2906 -3.13836 -2.09253 0
M  V30 851 H 86.6776 -2.14899 -2.02243 0
M  V30 852 H 86.7586 -2.54049 -0.298776 0
M  V30 853 H 86.4026 -5.00486 -0.864622 0
M  V30 854 H 86.3326 -4.58279 -2.594 0
M  V30 855 H 88.8236 -3.4687 -1.49965 0
M  V30 856 H 89.1366 -7.31833 -2.48276 0
M  V30 857 H 87.4816 -6.57933 -2.23939 0
M  V30 858 H 90.6726 -4.32938 -1.77996 0
M  V30 859 H 90.8456 -6.08476 -2.22848 0
M  V30 860 N 84.2517 0.741722 -1.39055 0
M  V30 861 C 85.1617 1.88621 -1.39496 0
M  V30 862 C 86.1777 1.71557 -0.290578 0
M  V30 863 O 87.3537 1.94275 -0.530954 0
M  V30 864 C 84.4187 3.24134 -1.23037 0
M  V30 865 C 83.4797 3.5364 -2.43387 0
M  V30 866 C 82.7127 4.82687 -2.27703 0
M  V30 867 O 82.9357 5.55922 -1.27696 0
M  V30 868 O 81.8697 5.1194 -3.16545 0
M  V30 869 H 85.6957 1.91203 -2.35956 0
M  V30 870 H 83.2807 0.888625 -1.20099 0
M  V30 871 H 85.1627 4.0513 -1.15964 0
M  V30 872 H 83.8377 3.22337 -0.296691 0
M  V30 873 H 82.7447 2.72758 -2.56035 0
M  V30 874 H 84.0777 3.60209 -3.35425 0
M  V30 875 N 85.7298 1.2412 0.971189 0
M  V30 876 C 86.6928 1.03156 2.04674 0
M  V30 877 C 87.6928 -0.00990322 1.60797 0
M  V30 878 O 88.8828 0.230729 1.72665 0
M  V30 879 C 86.0148 0.562765 3.36223 0
M  V30 880 H 87.2078 1.98614 2.24705 0
M  V30 881 H 84.7608 1.06293 1.14593 0
M  V30 882 H 85.4958 -0.395176 3.21883 0
M  V30 883 H 85.2808 1.31441 3.69413 0
M  V30 884 H 86.7708 0.437015 4.15307 0
M  V30 885 N 87.2079 -1.17134 1.05439 0
M  V30 886 C 88.6239 -1.39454 0.776201 0
M  V30 887 C 88.8239 -1.91454 -0.628307 0
M  V30 888 O 87.8799 -2.10777 -1.39031 0
M  V30 889 C 89.1929 -2.38305 1.83388 0
M  V30 890 C 90.7409 -2.52006 1.85639 0
M  V30 891 C 91.2159 -3.54133 2.90437 0
M  V30 892 N 92.7069 -3.61653 2.89415 0
M  V30 893 C 93.4419 -4.4044 3.67152 0
M  V30 894 N 92.9379 -5.22721 4.54681 0
M  V30 895 N 94.7309 -4.35337 3.55581 0
M  V30 896 H 86.8819 -0.817134 1.96053 0
M  V30 897 H 89.1449 -0.421626 0.849079 0
M  V30 898 H 88.8509 -2.07173 2.84204 0
M  V30 899 H 88.7249 -3.37841 1.67761 0
M  V30 900 H 91.1119 -2.82447 0.85486 0
M  V30 901 H 91.1929 -1.52537 2.05344 0
M  V30 902 H 90.8369 -3.24431 3.90777 0
M  V30 903 H 90.7669 -4.53313 2.67983 0
M  V30 904 H 93.2579 -3.02909 2.25952 0
M  V30 905 H 93.5709 -5.80027 5.10674 0
M  V30 906 H 91.9159 -5.22093 4.58741 0
M  V30 907 H 95.1069 -3.70112 2.86592 0
M  V30 908 H 95.2799 -4.96494 4.1641 0
M  V30 909 N 88.686 -0.835752 -1.33615 0
M  V30 910 C 89.916 -0.442701 -2.01801 0
M  V30 911 C 90.324 0.959807 -1.63047 0
M  V30 912 O 89.667 1.63468 -0.838088 0
M  V30 913 C 89.729 -0.480125 -3.56279 0
M  V30 914 C 89.393 -1.8382 -4.18401 0
M  V30 915 C 90.39 -2.80097 -4.37998 0
M  V30 916 C 88.075 -2.13019 -4.54894 0
M  V30 917 C 90.069 -4.03736 -4.9323 0
M  V30 918 C 87.756 -3.36916 -5.09834 0
M  V30 919 C 88.754 -4.32091 -5.28948 0
M  V30 920 O 88.442 -5.53797 -5.82721 0
M  V30 921 H 88.174 -0.17441 -0.653114 0
M  V30 922 H 90.728 -1.129 -1.71589 0
M  V30 923 H 88.958 0.262931 -3.85805 0
M  V30 924 H 90.647 -0.105335 -4.05763 0
M  V30 925 H 91.413 -2.58838 -4.10156 0
M  V30 926 H 87.292 -1.39733 -4.39313 0
M  V30 927 H 90.836 -4.78034 -5.08064 0
M  V30 928 H 86.733 -3.58033 -5.37106 0
M  V30 929 H 87.501 -5.55494 -6.0114 0
M  V30 930 N 90.1641 1.46063 -0.591896 0
M  V30 931 C 91.4411 1.95595 -0.0137119 0
M  V30 932 C 91.8211 1.5345 1.4497 0
M  V30 933 O 91.1691 0.789543 2.14426 0
M  V30 934 C 91.3791 3.48453 -0.195373 0
M  V30 935 C 92.7271 4.24546 -0.0679765 0
M  V30 936 O 93.7511 3.55982 -0.124681 0
M  V30 937 O 92.6101 5.46467 0.0600579 0
M  V30 938 H 89.7041 0.825795 0.0446279 0
M  V30 939 H 92.2501 1.56303 -0.660859 0
M  V30 940 H 91.0221 3.72045 -1.21235 0
M  V30 941 H 90.6451 3.94597 0.487775 0
M  V30 942 N 91.6422 0.330177 1.54103 0
M  V30 943 C 93.0532 -0.15652 1.86043 0
M  V30 944 C 93.4042 -1.51086 1.2517 0
M  V30 945 O 92.5292 -2.09023 0.560217 0
M  V30 946 C 93.1242 -0.290784 3.3755 0
M  V30 947 C 91.6832 -0.721705 3.69416 0
M  V30 948 C 90.8302 0.152622 2.7688 0
M  V30 949 H 93.7812 0.550237 1.48856 0
M  V30 950 H 93.8022 -1.12058 3.63625 0
M  V30 951 H 93.3142 0.695068 3.81825 0
M  V30 952 H 91.4152 -1.71706 3.30678 0
M  V30 953 H 91.5282 -0.520869 4.7626 0
M  V30 954 H 89.8922 -0.372894 2.51956 0
M  V30 955 H 90.6752 1.13536 3.23982 0
M  V30 956 N 93.1203 -1.57491 0.0584922 0
M  V30 957 C 94.3453 -1.97711 -0.62652 0
M  V30 958 C 94.7703 -0.936132 -1.63151 0
M  V30 959 O 94.1283 0.099811 -1.81025 0
M  V30 960 C 94.1763 -3.36989 -1.28338 0
M  V30 961 O 93.2803 -3.35433 -2.39913 0
M  V30 962 H 92.6213 -0.643868 -0.162266 0
M  V30 963 H 95.1513 -2.04193 0.129064 0
M  V30 964 H 95.1613 -3.73879 -1.63335 0
M  V30 965 H 93.8363 -4.12289 -0.546889 0
M  V30 966 H 92.4133 -3.10298 -2.06809 0
M  V30 967 N 94.5984 0.214957 -1.56127 0
M  V30 968 C 95.5284 1.2695 -1.95974 0
M  V30 969 C 96.5094 1.48539 -0.828868 0
M  V30 970 O 97.6944 1.60611 -1.09168 0
M  V30 971 C 94.8244 2.61794 -2.28214 0
M  V30 972 C 93.7784 2.54851 -3.43853 0
M  V30 973 C 93.1044 3.93785 -3.61715 0
M  V30 974 C 94.4044 2.09065 -4.78632 0
M  V30 975 H 96.0984 0.93846 -2.84312 0
M  V30 976 H 93.6444 0.449996 -1.36788 0
M  V30 977 H 95.5974 3.35731 -2.54682 0
M  V30 978 H 94.3214 2.96599 -1.36736 0
M  V30 979 H 92.9804 1.8337 -3.17444 0
M  V30 980 H 92.6284 4.25908 -2.67602 0
M  V30 981 H 92.3284 3.90019 -4.39498 0
M  V30 982 H 93.8524 4.69374 -3.90539 0
M  V30 983 H 95.2664 2.7275 -5.04262 0
M  V30 984 H 93.6634 2.16346 -5.59745 0
M  V30 985 H 94.7334 1.04315 -4.73547 0
M  V30 986 N 96.0765 1.50051 0.48192 0
M  V30 987 C 97.0065 1.71046 1.58951 0
M  V30 988 C 97.9875 0.559288 1.60642 0
M  V30 989 O 99.1725 0.797243 1.77081 0
M  V30 990 C 96.3025 1.79462 2.97339 0
M  V30 991 C 95.2565 2.94558 3.10515 0
M  V30 992 C 94.5825 2.88105 4.50444 0
M  V30 993 C 95.8825 4.35227 2.88747 0
M  V30 994 H 97.5765 2.6378 1.41635 0
M  V30 995 H 95.1225 1.26936 0.679942 0
M  V30 996 H 97.0755 1.92734 3.74742 0
M  V30 997 H 95.7995 0.833412 3.15788 0
M  V30 998 H 94.4585 2.80918 2.35543 0
M  V30 999 H 94.1065 1.89853 4.65795 0
M  V30 1000 H 93.8065 3.65366 4.60197 0
M  V30 1001 H 95.3305 3.03412 5.29881 0
M  V30 1002 H 96.7445 4.49449 3.55905 0
M  V30 1003 H 95.1415 5.13856 3.09955 0
M  V30 1004 H 96.2115 4.48347 1.84696 0
M  V30 1005 N 97.5546 -0.734337 1.39446 0
M  V30 1006 C 98.8316 -1.48579 1.27215 0
M  V30 1007 C 99.2116 -2.1077 -0.117968 0
M  V30 1008 O 98.5596 -1.98646 -1.12924 0
M  V30 1009 C 98.7696 -2.53667 2.39696 0
M  V30 1010 C 100.118 -3.20031 2.79044 0
M  V30 1011 O 101.142 -2.6398 2.39151 0
M  V30 1012 O 100.001 -4.21455 3.47905 0
M  V30 1013 H 97.0946 -0.659816 0.49857 0
M  V30 1014 H 99.6406 -0.768106 1.51322 0
M  V30 1015 H 98.4126 -2.06096 3.32626 0
M  V30 1016 H 98.0356 -3.32994 2.17258 0
M  V30 1017 N 99.0327 -1.24633 -0.964593 0
M  V30 1018 C 100.279 -1.08949 -1.71049 0
M  V30 1019 C 100.612 0.370302 -1.90637 0
M  V30 1020 O 99.8867 1.27349 -1.47011 0
M  V30 1021 C 100.17 -1.83329 -3.0994 0
M  V30 1022 C 100.023 -3.37077 -2.97824 0
M  V30 1023 C 101.342 -1.60846 -4.09654 0
M  V30 1024 H 98.4607 -0.397178 -0.620821 0
M  V30 1025 H 101.103 -1.5334 -1.12191 0
M  V30 1026 H 99.2527 -1.45597 -3.60186 0
M  V30 1027 H 100.925 -3.84425 -2.5498 0
M  V30 1028 H 99.1677 -3.65298 -2.33965 0
M  V30 1029 H 99.8387 -3.84324 -3.96231 0
M  V30 1030 H 102.315 -1.93674 -3.68279 0
M  V30 1031 H 101.191 -2.1534 -5.04896 0
M  V30 1032 H 101.452 -0.547434 -4.38698 0
M  V30 1033 N 100.511 1.16574 -1.06058 0
M  V30 1034 C 101.927 1.3904 -0.783585 0
M  V30 1035 C 102.127 1.91784 0.618145 0
M  V30 1036 O 101.183 2.11511 1.37911 0
M  V30 1037 C 102.496 2.37329 -1.84649 0
M  V30 1038 C 104.044 2.51018 -1.86973 0
M  V30 1039 C 104.519 3.52588 -2.92311 0
M  V30 1040 N 106.01 3.60113 -2.91329 0
M  V30 1041 C 106.745 4.38486 -3.69482 0
M  V30 1042 N 106.241 5.20302 -4.57447 0
M  V30 1043 N 108.034 4.33446 -3.57885 0
M  V30 1044 H 100.185 0.806725 -1.96483 0
M  V30 1045 H 102.448 0.417117 -0.851303 0
M  V30 1046 H 102.154 2.05663 -2.85299 0
M  V30 1047 H 102.028 3.36946 -1.6955 0
M  V30 1048 H 104.415 2.81989 -0.869827 0
M  V30 1049 H 104.496 1.51445 -2.0615 0
M  V30 1050 H 104.14 3.22354 -3.92492 0
M  V30 1051 H 104.07 4.51886 -2.70383 0
M  V30 1052 H 106.561 3.01707 -2.27555 0
M  V30 1053 H 106.874 5.77311 -5.13743 0
M  V30 1054 H 105.219 5.19653 -4.61503 0
M  V30 1055 H 108.41 3.68586 -2.88551 0
M  V30 1056 H 108.583 4.94279 -4.19037 0
M  V30 1057 N 101.989 0.842826 1.3317 0
M  V30 1058 C 102.919 0.294028 2.31641 0
M  V30 1059 C 103.9 -0.600401 1.59151 0
M  V30 1060 O 105.085 -0.523124 1.87022 0
M  V30 1061 C 102.215 -0.528416 3.43257 0
M  V30 1062 C 101.169 0.27056 4.27144 0
M  V30 1063 C 100.495 -0.675881 5.30411 0
M  V30 1064 C 101.795 1.48981 5.00602 0
M  V30 1065 H 103.489 1.11681 2.77791 0
M  V30 1066 H 101.035 0.538478 1.33553 0
M  V30 1067 H 102.988 -0.922674 4.11175 0
M  V30 1068 H 101.712 -1.38445 2.95805 0
M  V30 1069 H 100.371 0.646427 3.60856 0
M  V30 1070 H 100.019 -1.52842 4.79216 0
M  V30 1071 H 99.7189 -0.145374 5.8742 0
M  V30 1072 H 101.243 -1.06757 6.01195 0
M  V30 1073 H 102.657 1.16849 5.61266 0
M  V30 1074 H 101.054 1.95739 5.6728 0
M  V30 1075 H 102.124 2.25746 4.29147 0
M  V30 1076 N 103.467 -1.45747 0.599634 0
M  V30 1077 C 104.692 -2.07178 0.0960198 0
M  V30 1078 C 105.117 -1.44268 -1.207 0
M  V30 1079 O 104.475 -0.532503 -1.73303 0
M  V30 1080 C 104.523 -3.60579 -0.0385348 0
M  V30 1081 O 103.627 -3.97713 -1.0908 0
M  V30 1082 H 102.968 -0.660251 0.0704593 0
M  V30 1083 H 105.498 -1.87124 0.827385 0
M  V30 1084 H 105.508 -4.07298 -0.239304 0
M  V30 1085 H 104.183 -4.05756 0.912947 0
M  V30 1086 H 102.76 -3.62678 -0.867135 0
M  V30 1087 N 104.945 -0.338344 -1.53925 0
M  V30 1088 C 106.356 0.146651 -1.86123 0
M  V30 1089 C 106.707 1.5042 -1.2597 0
M  V30 1090 O 105.832 2.08723 -0.571294 0
M  V30 1091 C 106.427 0.272879 -3.37699 0
M  V30 1092 C 104.986 0.702103 -3.69794 0
M  V30 1093 C 104.133 -0.167304 -2.76795 0
M  V30 1094 H 107.084 -0.558123 -1.48562 0
M  V30 1095 H 107.105 1.10128 -3.64214 0
M  V30 1096 H 106.617 -0.715307 -3.81451 0
M  V30 1097 H 104.718 1.6995 -3.31584 0
M  V30 1098 H 104.831 0.495604 -4.7653 0
M  V30 1099 H 103.195 0.359527 -2.5215 0
M  V30 1100 H 103.978 -1.15253 -3.23375 0
M  V30 1101 N 106.423 1.57458 -0.0668435 0
M  V30 1102 C 107.371 2.13639 0.919851 0
M  V30 1103 C 108.365 1.07204 1.31163 0
M  V30 1104 O 109.571 1.25591 1.28945 0
M  V30 1105 H 105.946 0.683048 0.314562 0
M  V30 1106 H 107.917 2.95415 0.421047 0
M  V30 1107 C 106.666 2.70892 2.17975 0
M  V30 1108 H 105.989 3.5246 1.88711 0
M  V30 1109 H 107.429 3.13803 2.85138 0
M  V30 1110 C 105.888 1.65414 2.93496 0
M  V30 1111 O 106.418 1.07619 3.87015 0
M  V30 1112 N 104.624 1.36564 2.56512 0
M  V30 1113 H 104.171 1.83751 1.80536 0
M  V30 1114 H 104.129 0.66223 3.07347 0
M  V30 1115 N 107.901 -0.206675 1.56239 0
M  V30 1116 C 109.131 -0.943975 1.83773 0
M  V30 1117 C 109.539 -1.77841 0.645703 0
M  V30 1118 O 108.882 -1.79403 -0.395008 0
M  V30 1119 C 108.944 -1.899 3.05251 0
M  V30 1120 C 108.608 -1.24764 4.39639 0
M  V30 1121 C 109.605 -0.630216 5.16066 0
M  V30 1122 C 107.29 -1.25496 4.8637 0
M  V30 1123 C 109.284 -0.0287946 6.37393 0
M  V30 1124 C 106.971 -0.649698 6.07637 0
M  V30 1125 C 107.969 -0.0376845 6.8299 0
M  V30 1126 O 107.657 0.55812 8.0196 0
M  V30 1127 H 107.389 -0.281508 0.614597 0
M  V30 1128 H 109.943 -0.222458 2.04192 0
M  V30 1129 H 108.173 -2.6599 2.80689 0
M  V30 1130 H 109.862 -2.5031 3.1953 0
M  V30 1131 H 110.628 -0.616785 4.81062 0
M  V30 1132 H 106.507 -1.72072 4.27683 0
M  V30 1133 H 110.051 0.449518 6.9615 0
M  V30 1134 H 105.948 -0.660592 6.42111 0
M  V30 1135 H 106.716 0.453891 8.17241 0
M  V30 1136 N 109.379 -1.50304 -0.473955 0
M  V30 1137 C 110.625 -1.61389 -1.22806 0
M  V30 1138 C 110.958 -0.311955 -1.91678 0
M  V30 1139 O 110.233 0.686384 -1.81986 0
M  V30 1140 C 110.516 -2.79219 -2.27396 0
M  V30 1141 C 110.369 -4.19286 -1.62848 0
M  V30 1142 C 111.688 -2.92614 -3.28732 0
M  V30 1143 H 108.807 -0.587399 -0.445119 0
M  V30 1144 H 111.449 -1.82681 -0.522265 0
M  V30 1145 H 109.599 -2.61195 -2.87592 0
M  V30 1146 H 111.271 -4.48892 -1.06271 0
M  V30 1147 H 109.514 -4.23677 -0.931693 0
M  V30 1148 H 110.185 -4.97655 -2.38838 0
M  V30 1149 H 112.661 -3.09105 -2.78556 0
M  V30 1150 H 111.537 -3.76688 -3.99246 0
M  V30 1151 H 111.798 -2.03107 -3.92683 0
M  V30 1152 N 110.857 0.726932 -1.39834 0
M  V30 1153 C 112.103 1.48884 -1.377 0
M  V30 1154 C 112.436 1.94185 0.0244852 0
M  V30 1155 O 111.711 1.67361 0.990986 0
M  V30 1156 C 111.994 2.72288 -2.3565 0
M  V30 1157 C 111.847 2.32956 -3.84775 0
M  V30 1158 C 113.166 3.74414 -2.31306 0
M  V30 1159 H 110.285 0.540062 -0.5015 0
M  V30 1160 H 112.927 0.830547 -1.70886 0
M  V30 1161 H 111.077 3.28457 -2.07481 0
M  V30 1162 H 112.749 1.82356 -4.23726 0
M  V30 1163 H 110.992 1.65088 -4.01159 0
M  V30 1164 H 111.663 3.21362 -4.4881 0
M  V30 1165 H 114.139 3.27849 -2.56231 0
M  V30 1166 H 113.015 4.58414 -3.01907 0
M  V30 1167 H 113.276 4.21909 -1.32081 0
M  V30 1168 N 112.336 1.25143 0.95797 0
M  V30 1169 C 113.576 1.10893 1.71703 0
M  V30 1170 C 113.94 -0.34478 1.88879 0
M  V30 1171 O 115.141 -0.609014 2.6181 0
M  V30 1172 C 113.412 1.83889 3.06463 0
M  V30 1173 S 114.971 1.85491 3.97666 0
M  V30 1174 H 111.789 0.396428 0.590226 0
M  V30 1175 H 114.391 1.58618 1.14283 0
M  V30 1176 H 113.095 2.88756 2.9163 0
M  V30 1177 H 112.626 1.36538 3.68946 0
M  V30 1178 H 114.641 0.929553 4.87415 0
M  V30 1179 N 113.814 -1.1601 1.06675 0
M  V30 1180 C 115.23 -1.38622 0.790948 0
M  V30 1181 C 115.43 -1.92109 -0.607965 0
M  V30 1182 O 114.486 -2.12239 -1.36787 0
M  V30 1183 C 115.799 -2.36347 1.85905 0
M  V30 1184 C 117.347 -2.50023 1.88301 0
M  V30 1185 C 117.822 -3.51033 2.94176 0
M  V30 1186 N 119.313 -3.58563 2.93235 0
M  V30 1187 C 120.048 -4.36521 3.71803 0
M  V30 1188 N 119.544 -5.17869 4.602 0
M  V30 1189 N 121.337 -4.31541 3.60178 0
M  V30 1190 H 113.488 -0.796294 1.96908 0
M  V30 1191 H 115.751 -0.412597 0.853503 0
M  V30 1192 H 115.457 -2.04147 2.86386 0
M  V30 1193 H 115.331 -3.36042 1.71334 0
M  V30 1194 H 117.718 -2.81524 0.884769 0
M  V30 1195 H 117.799 -1.5035 2.06951 0
M  V30 1196 H 117.443 -3.20268 3.94196 0
M  V30 1197 H 117.373 -4.50445 2.72776 0
M  V30 1198 H 119.864 -3.00496 2.29152 0
M  V30 1199 H 120.177 -5.74578 5.16797 0
M  V30 1200 H 118.522 -5.17199 4.64253 0
M  V30 1201 H 121.713 -3.67051 2.90502 0
M  V30 1202 H 121.886 -4.9205 4.21653 0
M  V30 1203 N 115.292 -0.849877 -1.32721 0
M  V30 1204 C 116.569 -0.372405 -1.92022 0
M  V30 1205 C 116.949 1.1435 -1.77447 0
M  V30 1206 O 116.297 1.96296 -1.16962 0
M  V30 1207 C 116.507 -0.831482 -3.3895 0
M  V30 1208 C 117.855 -0.845882 -4.16089 0
M  V30 1209 O 118.879 -0.775806 -3.47649 0
M  V30 1210 O 117.738 -0.943753 -5.38289 0
M  V30 1211 H 114.832 -0.107667 -0.819961 0
M  V30 1212 H 117.378 -0.93646 -1.41522 0
M  V30 1213 H 116.15 -1.87448 -3.4348 0
M  V30 1214 H 115.773 -0.24461 -3.96847 0
M  V30 1215 N 116.77 1.45427 -0.607355 0
M  V30 1216 C 118.01 2.04128 -0.105458 0
M  V30 1217 C 118.374 1.46555 1.24039 0
M  V30 1218 O 119.575 1.96608 1.833 0
M  V30 1219 C 117.846 3.57338 -0.0665324 0
M  V30 1220 S 119.405 4.37201 0.374207 0
M  V30 1221 H 116.223 0.709278 -0.0494575 0
M  V30 1222 H 118.825 1.78139 -0.805404 0
M  V30 1223 H 117.529 3.96752 -1.04957 0
M  V30 1224 H 117.06 3.87902 0.655415 0
M  V30 1225 H 119.075 4.6888 1.62377 0
M  V30 1226 N 118.248 0.346503 1.53744 0
M  V30 1227 C 119.158 -0.517293 2.28826 0
M  V30 1228 C 120.174 -1.10935 1.3405 0
M  V30 1229 O 121.35 -1.1244 1.6709 0
M  V30 1230 C 118.415 -1.65098 3.04866 0
M  V30 1231 C 117.476 -1.0884 4.15274 0
M  V30 1232 C 116.709 -2.16806 4.87679 0
M  V30 1233 O 116.932 -3.3758 4.59778 0
M  V30 1234 O 115.866 -1.80934 5.74061 0
M  V30 1235 H 119.692 0.0931396 3.03557 0
M  V30 1236 H 117.277 0.111458 1.48984 0
M  V30 1237 H 119.159 -2.31053 3.5241 0
M  V30 1238 H 117.834 -2.24717 2.32989 0
M  V30 1239 H 116.741 -0.3933 3.72027 0
M  V30 1240 H 118.074 -0.537036 4.89261 0
M  V30 1241 N 119.726 -1.57421 0.075193 0
M  V30 1242 C 120.972 -1.93905 -0.594025 0
M  V30 1243 C 121.305 -0.955701 -1.69056 0
M  V30 1244 O 120.58 0.0145373 -1.94495 0
M  V30 1245 C 120.863 -3.40638 -1.1678 0
M  V30 1246 C 120.716 -4.49733 -0.0776792 0
M  V30 1247 C 122.035 -3.88259 -2.07228 0
M  V30 1248 H 119.154 -0.705105 -0.214466 0
M  V30 1249 H 121.796 -1.8947 0.141854 0
M  V30 1250 H 119.946 -3.44549 -1.79494 0
M  V30 1251 H 121.618 -4.57942 0.555573 0
M  V30 1252 H 119.861 -4.29751 0.591286 0
M  V30 1253 H 120.532 -5.49549 -0.519603 0
M  V30 1254 H 123.008 -3.86376 -1.54445 0
M  V30 1255 H 121.884 -4.91533 -2.44308 0
M  V30 1256 H 122.145 -3.26396 -2.98191 0
M  V30 1257 N 121.204 0.198386 -1.56346 0
M  V30 1258 C 122.432 0.935572 -1.84539 0
M  V30 1259 C 122.847 1.76989 -0.657281 0
M  V30 1260 O 122.204 1.78626 0.374043 0
M  V30 1261 C 122.255 1.8344 -3.11499 0
M  V30 1262 O 121.976 1.03377 -4.25728 0
M  V30 1263 C 123.477 2.68355 -3.52846 0
M  V30 1264 H 120.697 0.273126 -0.612897 0
M  V30 1265 H 123.241 0.20663 -2.03453 0
M  V30 1266 H 121.396 2.51701 -2.94492 0
M  V30 1267 H 121.81 1.64599 -4.98003 0
M  V30 1268 H 123.284 3.27085 -4.44657 0
M  V30 1269 H 123.761 3.41901 -2.75681 0
M  V30 1270 H 124.367 2.05471 -3.72373 0
M  V30 1271 N 122.682 1.50554 0.465978 0
M  V30 1272 C 123.63 1.70324 1.58406 0
M  V30 1273 C 124.624 0.569139 1.59553 0
M  V30 1274 O 125.83 0.749776 1.63641 0
M  V30 1275 H 122.205 0.537688 0.525734 0
M  V30 1276 H 124.176 2.64104 1.38894 0
M  V30 1277 C 122.925 1.81928 2.96307 0
M  V30 1278 H 122.248 2.68586 2.96144 0
M  V30 1279 H 123.688 1.99784 3.73982 0
M  V30 1280 C 122.147 0.572095 3.32007 0
M  V30 1281 O 122.677 -0.286416 4.00678 0
M  V30 1282 N 120.883 0.424606 2.87481 0
M  V30 1283 H 120.43 1.12427 2.31771 0
M  V30 1284 H 120.388 -0.408697 3.11732 0
M  V30 1285 N 124.16 -0.719506 1.40217 0
M  V30 1286 C 125.437 -1.47221 1.28784 0
M  V30 1287 C 125.817 -2.10883 -0.0956067 0
M  V30 1288 O 125.165 -1.99833 -1.10811 0
M  V30 1289 C 125.375 -2.5111 2.42373 0
M  V30 1290 C 126.723 -3.17053 2.82423 0
M  V30 1291 O 127.747 -2.61429 2.41937 0
M  V30 1292 O 126.606 -4.17742 3.52355 0
M  V30 1293 H 123.7 -0.654491 0.50554 0
M  V30 1294 H 126.246 -0.752014 1.52128 0
M  V30 1295 H 125.018 -2.02556 3.34793 0
M  V30 1296 H 124.641 -3.3067 2.20778 0
M  V30 1297 N 125.638 -1.25649 -0.95132 0
M  V30 1298 C 126.886 -1.10375 -1.69298 0
M  V30 1299 C 127.207 0.355339 -1.91735 0
M  V30 1300 O 126.477 1.25188 -1.50681 0
M  V30 1301 H 125.057 -0.405461 -0.627384 0
M  V30 1302 H 127.719 -1.57823 -1.14358 0
M  V30 1303 H 126.815 -1.61465 -2.67087 0
M  V30 1304 N 127.117 1.15442 -1.07289 0
M  V30 1305 C 128.067 2.18164 -0.662467 0
M  V30 1306 C 129.051 1.57845 0.312074 0
M  V30 1307 O 130.243 1.76552 0.125905 0
M  V30 1308 C 127.372 3.43246 -0.0611295 0
M  V30 1309 C 126.458 4.1062 -1.06077 0
M  V30 1310 N 126.849 4.53491 -2.24008 0
M  V30 1311 C 125.147 4.36949 -0.893964 0
M  V30 1312 C 125.848 5.05731 -2.87422 0
M  V30 1313 N 124.824 4.99236 -2.15091 0
M  V30 1314 H 128.626 2.49038 -1.56068 0
M  V30 1315 H 126.14 1.32003 -0.945988 0
M  V30 1316 H 128.137 4.16145 0.250792 0
M  V30 1317 H 126.797 3.13854 0.832207 0
M  V30 1318 H 127.808 4.46898 -2.6173 0
M  V30 1319 H 124.485 4.17466 -0.0534693 0
M  V30 1320 H 125.875 5.48865 -3.87553 0
M  V30 1321 N 128.595 0.856903 1.32268 0
M  V30 1322 C 129.823 0.475439 2.01363 0
M  V30 1323 C 130.238 -0.928486 1.64392 0
M  V30 1324 O 129.595 -1.60624 0.866387 0
M  V30 1325 C 129.646 0.607545 3.56358 0
M  V30 1326 O 129.367 1.95617 3.92002 0
M  V30 1327 C 130.868 0.225382 4.42727 0
M  V30 1328 H 128.088 0.186636 0.644521 0
M  V30 1329 H 130.632 1.15446 1.68797 0
M  V30 1330 H 128.787 -0.0237719 3.87393 0
M  V30 1331 H 129.201 1.95455 4.86721 0
M  V30 1332 H 130.675 0.368813 5.50767 0
M  V30 1333 H 131.152 -0.834369 4.31202 0
M  V30 1334 H 131.758 0.831864 4.17085 0
M  V30 1335 N 130.073 -1.45103 0.615059 0
M  V30 1336 C 131.322 -2.01396 0.110718 0
M  V30 1337 C 131.635 -1.48834 -1.26916 0
M  V30 1338 O 132.841 -1.97152 -1.86664 0
M  V30 1339 C 131.297 -3.59599 0.14723 0
M  V30 1340 C 130.905 -4.21158 1.52743 0
M  V30 1341 C 132.649 -4.23428 -0.30148 0
M  V30 1342 C 130.556 -5.71535 1.51992 0
M  V30 1343 H 129.486 -0.753061 0.0376241 0
M  V30 1344 H 132.137 -1.66494 0.77149 0
M  V30 1345 H 130.519 -3.91724 -0.580339 0
M  V30 1346 H 131.693 -4.00594 2.2773 0
M  V30 1347 H 130.008 -3.69552 1.91886 0
M  V30 1348 H 132.605 -5.33703 -0.326392 0
M  V30 1349 H 132.948 -3.94629 -1.32565 0
M  V30 1350 H 133.481 -3.96047 0.373065 0
M  V30 1351 H 130.22 -6.05044 2.52193 0
M  V30 1352 H 129.74 -5.94268 0.81274 0
M  V30 1353 H 131.419 -6.34873 1.24681 0
M  V30 1354 N 131.551 -0.354651 -1.53558 0
M  V30 1355 C 132.483 0.5315 -2.22952 0
M  V30 1356 C 133.496 1.05503 -1.23988 0
M  V30 1357 O 134.685 0.963279 -1.50277 0
M  V30 1358 C 131.785 1.74538 -2.90499 0
M  V30 1359 C 130.958 1.35524 -4.15875 0
M  V30 1360 C 130.017 2.42999 -4.66731 0
M  V30 1361 O 129.043 2.05844 -5.30676 0
M  V30 1362 N 130.245 3.74423 -4.43608 0
M  V30 1363 H 133.01 -0.0628615 -2.99634 0
M  V30 1364 H 130.571 -0.179302 -1.60904 0
M  V30 1365 H 132.563 2.45892 -3.21433 0
M  V30 1366 H 131.133 2.24686 -2.17336 0
M  V30 1367 H 130.353 0.471998 -3.91364 0
M  V30 1368 H 131.641 1.07071 -4.97406 0
M  V30 1369 H 131.039 4.07391 -3.92491 0
M  V30 1370 H 129.596 4.41913 -4.7912 0
M  V30 1371 N 133.029 1.57378 -0.0835403 0
M  V30 1372 C 134.275 1.94217 0.583733 0
M  V30 1373 C 134.608 0.964653 1.68547 0
M  V30 1374 O 133.883 -0.00422258 1.945 0
M  V30 1375 C 134.166 3.41253 1.14972 0
M  V30 1376 C 134.019 4.49768 0.0538277 0
M  V30 1377 C 135.338 3.89352 2.05166 0
M  V30 1378 H 132.457 0.706233 0.210724 0
M  V30 1379 H 135.099 1.89392 -0.1519 0
M  V30 1380 H 133.249 3.45496 1.77665 0
M  V30 1381 H 134.921 4.57641 -0.579851 0
M  V30 1382 H 133.164 4.29432 -0.614068 0
M  V30 1383 H 133.835 5.49817 0.490452 0
M  V30 1384 H 136.311 3.87189 1.52393 0
M  V30 1385 H 135.187 4.92822 2.41698 0
M  V30 1386 H 135.448 3.27973 2.96456 0
M  V30 1387 N 134.507 -0.190092 1.56449 0
M  V30 1388 C 135.756 -0.907912 1.80111 0
M  V30 1389 C 136.069 -1.84214 0.657619 0
M  V30 1390 O 137.275 -2.60094 0.778663 0
M  V30 1391 C 135.731 -1.66485 3.19078 0
M  V30 1392 C 135.339 -0.7752 4.41242 0
M  V30 1393 C 137.083 -2.37201 3.52045 0
M  V30 1394 C 134.99 -1.53129 5.71231 0
M  V30 1395 H 133.92 -0.34276 0.671589 0
M  V30 1396 H 136.571 -0.161109 1.82791 0
M  V30 1397 H 134.953 -2.45572 3.10661 0
M  V30 1398 H 136.127 -0.0226298 4.60794 0
M  V30 1399 H 134.442 -0.178627 4.16017 0
M  V30 1400 H 137.039 -2.94329 4.46402 0
M  V30 1401 H 137.382 -3.11632 2.76028 0
M  V30 1402 H 137.915 -1.65075 3.61932 0
M  V30 1403 H 134.654 -0.82967 6.50228 0
M  V30 1404 H 134.174 -2.25767 5.55688 0
M  V30 1405 H 135.853 -2.08377 6.12526 0
M  V30 1406 N 135.985 -1.50799 -0.457987 0
M  V30 1407 C 136.915 -1.73553 -1.5621 0
M  V30 1408 C 137.896 -0.584774 -1.59732 0
M  V30 1409 O 139.081 -0.825314 -1.7579 0
M  V30 1410 C 136.211 -1.84169 -2.94447 0
M  V30 1411 C 135.165 -2.99461 -3.0579 0
M  V30 1412 C 134.491 -2.95235 -4.45803 0
M  V30 1413 C 135.791 -4.39766 -2.81786 0
M  V30 1414 H 137.485 -2.66 -1.37421 0
M  V30 1415 H 135.031 -1.28002 -0.659662 0
M  V30 1416 H 136.984 -1.98672 -3.71628 0
M  V30 1417 H 135.708 -0.883545 -3.14422 0
M  V30 1418 H 134.367 -2.8463 -2.31044 0
M  V30 1419 H 134.015 -1.97239 -4.62715 0
M  V30 1420 H 133.715 -3.72642 -4.54326 0
M  V30 1421 H 135.239 -3.11803 -5.24987 0
M  V30 1422 H 136.653 -4.55054 -3.4871 0
M  V30 1423 H 135.05 -5.18722 -3.0174 0
M  V30 1424 H 136.12 -4.51229 -1.7754 0
M  V30 1425 N 137.463 0.71206 -1.40597 0
M  V30 1426 C 138.41 1.82613 -1.41142 0
M  V30 1427 C 139.38 1.63925 -0.267903 0
M  V30 1428 O 140.565 1.85009 -0.466495 0
M  V30 1429 C 137.705 3.20354 -1.28324 0
M  V30 1430 C 136.818 3.50589 -2.52411 0
M  V30 1431 C 135.953 4.77855 -2.32009 0
M  V30 1432 C 134.992 5.01005 -3.51654 0
M  V30 1433 N 134.129 6.19487 -3.30425 0
M  V30 1434 H 138.969 1.81482 -2.36365 0
M  V30 1435 H 136.506 0.886475 -1.17388 0
M  V30 1436 H 138.464 3.99899 -1.18899 0
M  V30 1437 H 137.094 3.20705 -0.367189 0
M  V30 1438 H 136.146 2.65573 -2.72351 0
M  V30 1439 H 137.458 3.63604 -3.41458 0
M  V30 1440 H 136.612 5.65424 -2.19956 0
M  V30 1441 H 135.351 4.67056 -1.40392 0
M  V30 1442 H 134.356 4.1189 -3.64179 0
M  V30 1443 H 135.581 5.13674 -4.44202 0
M  V30 1444 H 133.527 6.09932 -2.41494 0
M  V30 1445 H 133.444 6.33194 -4.13039 0
M  V30 1446 H 134.712 7.09834 -3.22113 0
M  V30 1447 N 138.941 1.26152 0.944643 0
M  V30 1448 C 140.166 1.14363 1.7302 0
M  V30 1449 C 140.591 -0.29772 1.85729 0
M  V30 1450 O 139.949 -1.2157 1.34501 0
M  V30 1451 C 139.997 1.81378 3.11664 0
M  V30 1452 O 139.101 1.10022 3.97453 0
M  V30 1453 H 138.442 0.398694 0.53098 0
M  V30 1454 H 140.972 1.66906 1.18337 0
M  V30 1455 H 140.982 1.88064 3.62072 0
M  V30 1456 H 139.657 2.86237 3.0173 0
M  V30 1457 H 138.234 1.11287 3.55907 0
M  V30 1458 N 140.419 -1.14872 1.07899 0
M  V30 1459 C 141.366 -2.19791 0.704319 0
M  V30 1460 C 142.336 -1.63238 -0.306987 0
M  V30 1461 O 143.521 -1.8983 -0.192171 0
M  V30 1462 C 140.661 -3.44911 0.114244 0
M  V30 1463 C 139.774 -4.15637 1.1777 0
M  V30 1464 C 138.909 -5.28324 0.552037 0
M  V30 1465 C 137.948 -5.90875 1.59789 0
M  V30 1466 N 137.085 -6.95022 0.994404 0
M  V30 1467 H 141.925 -2.5119 1.60336 0
M  V30 1468 H 139.462 -1.23356 0.801352 0
M  V30 1469 H 141.42 -4.16477 -0.245544 0
M  V30 1470 H 140.05 -3.14011 -0.74813 0
M  V30 1471 H 139.102 -3.42512 1.65499 0
M  V30 1472 H 140.414 -4.5823 1.97046 0
M  V30 1473 H 139.568 -6.06538 0.1402 0
M  V30 1474 H 138.307 -4.86939 -0.272431 0
M  V30 1475 H 137.312 -5.11369 2.01945 0
M  V30 1476 H 138.537 -6.34337 2.42474 0
M  V30 1477 H 136.483 -6.55722 0.190939 0
M  V30 1478 H 136.4 -7.36073 1.72432 0
M  V30 1479 H 137.668 -7.77123 0.608253 0
M  V30 1480 N 141.898 -0.863906 -1.31812 0
M  V30 1481 C 143.123 -0.48527 -2.01643 0
M  V30 1482 C 143.548 0.913058 -1.64453 0
M  V30 1483 O 142.906 1.6014 -0.849985 0
M  V30 1484 C 142.954 -0.642625 -3.54828 0
M  V30 1485 O 142.058 0.320659 -4.11151 0
M  V30 1486 H 141.399 -0.193793 -0.635091 0
M  V30 1487 H 143.929 -1.16565 -1.68148 0
M  V30 1488 H 143.939 -0.533628 -4.04495 0
M  V30 1489 H 142.614 -1.66227 -3.81237 0
M  V30 1490 H 141.191 0.167126 -3.72525 0
M  V30 1491 N 143.376 1.44774 -0.622745 0
M  V30 1492 C 144.622 2.0242 -0.124083 0
M  V30 1493 C 144.955 1.4881 1.24777 0
M  V30 1494 O 144.23 0.668799 1.8264 0
M  V30 1495 C 144.513 3.59957 -0.101619 0
M  V30 1496 C 144.366 4.23867 -1.50521 0
M  V30 1497 C 145.685 4.36284 0.578272 0
M  V30 1498 H 142.804 0.735528 -0.0465645 0
M  V30 1499 H 145.446 1.72447 -0.797617 0
M  V30 1500 H 143.596 3.85623 0.471934 0
M  V30 1501 H 145.268 4.09336 -2.12701 0
M  V30 1502 H 143.511 3.81684 -2.06154 0
M  V30 1503 H 144.182 5.32843 -1.4416 0
M  V30 1504 H 146.658 4.16001 0.0906057 0
M  V30 1505 H 145.534 5.46004 0.563149 0
M  V30 1506 H 145.795 4.10271 1.64713 0
M  V30 1507 N 144.854 0.36279 1.53368 0
M  V30 1508 C 145.784 -0.476976 2.28576 0
M  V30 1509 C 146.765 -1.08631 1.30894 0
M  V30 1510 O 147.95 -1.10409 1.59761 0
M  V30 1511 C 145.08 -1.61828 3.07293 0
M  V30 1512 C 144.034 -1.13633 4.1264 0
M  V30 1513 C 143.36 -2.36766 4.79423 0
M  V30 1514 C 144.66 -0.223061 5.21823 0
M  V30 1515 H 146.354 0.150474 2.99022 0
M  V30 1516 H 143.9 0.0738103 1.43811 0
M  V30 1517 H 145.853 -2.21237 3.58653 0
M  V30 1518 H 144.577 -2.27292 2.34533 0
M  V30 1519 H 143.236 -0.564945 3.62221 0
M  V30 1520 H 142.884 -3.0068 4.03238 0
M  V30 1521 H 142.584 -2.05192 5.50609 0
M  V30 1522 H 144.108 -2.96865 5.33576 0
M  V30 1523 H 145.522 -0.724545 5.68703 0
M  V30 1524 H 143.919 0.001678 6.001 0
M  V30 1525 H 144.989 0.735553 4.79289 0
M  V30 1526 N 146.332 -1.57332 0.0918853 0
M  V30 1527 C 147.557 -1.98995 -0.584442 0
M  V30 1528 C 147.982 -0.970528 -1.61128 0
M  V30 1529 O 147.34 0.0613904 -1.81196 0
M  V30 1530 C 147.388 -3.39636 -1.21161 0
M  V30 1531 O 146.492 -3.40447 -2.32744 0
M  V30 1532 H 145.833 -0.647165 -0.148572 0
M  V30 1533 H 148.363 -2.03873 0.172347 0
M  V30 1534 H 148.373 -3.7726 -1.55367 0
M  V30 1535 H 147.048 -4.13356 -0.459313 0
M  V30 1536 H 145.625 -3.14614 -2.0018 0
M  V30 1537 N 147.81 0.181792 -1.56548 0
M  V30 1538 C 149.058 0.89832 -1.81038 0
M  V30 1539 C 149.379 1.83232 -0.667164 0
M  V30 1540 O 148.649 1.93372 0.313673 0
M  V30 1541 H 147.229 0.33471 -0.667816 0
M  V30 1542 H 149.891 0.184116 -1.94028 0
M  V30 1543 H 148.987 1.4815 -2.74696 0
M  V30 1544 N 149.288 1.51039 0.449983 0
M  V30 1545 C 150.536 1.62759 1.19808 0
M  V30 1546 C 150.857 0.339981 1.92013 0
M  V30 1547 O 150.127 -0.643606 1.85026 0
M  V30 1548 H 148.707 0.599811 0.445237 0
M  V30 1549 H 151.369 1.87914 0.517138 0
M  V30 1550 H 150.465 2.44911 1.93455 0
M  V30 1551 N 150.766 -0.704594 1.40972 0
M  V30 1552 C 152.177 -1.28418 1.3552 0
M  V30 1553 C 152.528 -1.96171 0.0339434 0
M  V30 1554 O 151.653 -1.98231 -0.867944 0
M  V30 1555 C 152.248 -2.33528 2.45459 0
M  V30 1556 C 150.807 -2.87085 2.43433 0
M  V30 1557 C 149.954 -1.61007 2.2577 0
M  V30 1558 H 152.905 -0.499963 1.50619 0
M  V30 1559 H 152.926 -3.14619 2.13998 0
M  V30 1560 H 152.438 -1.84187 3.41609 0
M  V30 1561 H 150.539 -3.40626 1.51013 0
M  V30 1562 H 150.652 -3.3813 3.39419 0
M  V30 1563 H 149.016 -1.86482 1.73483 0
M  V30 1564 H 149.799 -1.13675 3.23933 0
M  V30 1565 N 152.244 -1.26651 -0.937939 0
M  V30 1566 C 153.174 -1.10993 -2.05433 0
M  V30 1567 C 154.155 -0.0142161 -1.70094 0
M  V30 1568 O 155.34 -0.186837 -1.93299 0
M  V30 1569 C 152.47 -0.745561 -3.39203 0
M  V30 1570 C 151.424 -1.79337 -3.88616 0
M  V30 1571 C 150.75 -1.28324 -5.19073 0
M  V30 1572 C 152.05 -3.19553 -4.13138 0
M  V30 1573 H 153.744 -2.0438 -2.1879 0
M  V30 1574 H 151.29 -0.984041 -1.05131 0
M  V30 1575 H 153.243 -0.622888 -4.16771 0
M  V30 1576 H 151.967 0.22401 -3.25831 0
M  V30 1577 H 150.626 -1.90477 -3.13231 0
M  V30 1578 H 150.274 -0.303414 -5.02084 0
M  V30 1579 H 149.974 -1.98369 -5.53103 0
M  V30 1580 H 151.498 -1.1733 -5.99221 0
M  V30 1581 H 152.912 -3.11471 -4.81309 0
M  V30 1582 H 151.309 -3.87218 -4.58457 0
M  V30 1583 H 152.379 -3.65368 -3.18801 0
M  V30 1584 N 153.722 1.14298 -1.08507 0
M  V30 1585 C 155.133 1.66926 -0.836227 0
M  V30 1586 C 155.484 1.85576 0.63686 0
M  V30 1587 O 154.609 1.56767 1.49175 0
M  V30 1588 C 155.204 3.03219 -1.51142 0
M  V30 1589 C 153.763 3.52876 -1.30979 0
M  V30 1590 C 152.91 2.2833 -1.57356 0
M  V30 1591 H 155.861 0.983491 -1.24552 0
M  V30 1592 H 155.882 3.68726 -0.939211 0
M  V30 1593 H 155.394 2.89612 -2.58353 0
M  V30 1594 H 153.495 3.71703 -0.258429 0
M  V30 1595 H 153.608 4.33586 -2.03814 0
M  V30 1596 H 151.972 2.34454 -0.995164 0
M  V30 1597 H 152.755 2.17298 -2.65775 0
M  V30 1598 N 155.201 0.870884 1.31352 0
M  V30 1599 C 156.133 0.28455 2.27427 0
M  V30 1600 C 157.146 -0.552927 1.53123 0
M  V30 1601 O 158.335 -0.374771 1.74521 0
M  V30 1602 C 155.435 -0.615164 3.3327 0
M  V30 1603 C 154.608 0.190079 4.36987 0
M  V30 1604 C 153.667 -0.637917 5.22319 0
M  V30 1605 O 152.693 -0.065626 5.69162 0
M  V30 1606 N 153.895 -1.94973 5.46778 0
M  V30 1607 H 156.66 1.11017 2.7838 0
M  V30 1608 H 154.221 0.732458 1.44384 0
M  V30 1609 H 156.213 -1.1748 3.87273 0
M  V30 1610 H 154.783 -1.34146 2.82354 0
M  V30 1611 H 154.003 0.931165 3.83044 0
M  V30 1612 H 155.291 0.742579 5.03352 0
M  V30 1613 H 154.689 -2.4378 5.10478 0
M  V30 1614 H 153.246 -2.45713 6.03712 0
M  V30 1615 N 156.679 -1.44442 0.630414 0
M  V30 1616 C 157.927 -2.01653 0.134351 0
M  V30 1617 C 158.248 -1.49836 -1.24796 0
M  V30 1618 O 157.518 -0.701684 -1.82902 0
M  V30 1619 H 156.098 -0.74554 0.0466769 0
M  V30 1620 H 158.76 -1.76952 0.816955 0
M  V30 1621 H 157.856 -3.11935 0.101498 0
M  V30 1622 N 158.157 -0.370918 -1.53173 0
M  V30 1623 C 159.107 0.489588 -2.22681 0
M  V30 1624 C 160.091 1.04442 -1.22395 0
M  V30 1625 O 161.283 0.973578 -1.47819 0
M  V30 1626 C 158.412 1.626 -3.02351 0
M  V30 1627 C 157.498 1.08379 -4.10018 0
M  V30 1628 N 157.889 0.265004 -5.05105 0
M  V30 1629 C 156.187 1.35809 -4.2482 0
M  V30 1630 C 156.888 -0.0324755 -5.81691 0
M  V30 1631 N 155.864 0.566581 -5.40639 0
M  V30 1632 H 159.666 -0.142729 -2.93553 0
M  V30 1633 H 157.18 -0.179221 -1.61408 0
M  V30 1634 H 159.177 2.2547 -3.50669 0
M  V30 1635 H 157.837 2.26132 -2.33011 0
M  V30 1636 H 158.848 -0.0962352 -5.17811 0
M  V30 1637 H 155.525 1.9958 -3.66707 0
M  V30 1638 H 156.915 -0.69473 -6.68299 0
M  V30 1639 N 159.635 1.57281 -0.100228 0
M  V30 1640 C 160.545 2.17833 0.870965 0
M  V30 1641 C 161.561 1.14921 1.30649 0
M  V30 1642 O 162.737 1.47313 1.37335 0
M  V30 1643 C 159.802 2.75085 2.1102 0
M  V30 1644 C 158.863 3.9297 1.72838 0
M  V30 1645 C 158.096 4.47482 2.90854 0
M  V30 1646 O 158.319 4.00922 4.05731 0
M  V30 1647 O 157.253 5.38433 2.69023 0
M  V30 1648 H 161.079 3.0124 0.38575 0
M  V30 1649 H 158.664 1.48881 0.124397 0
M  V30 1650 H 160.546 3.11656 2.83634 0
M  V30 1651 H 159.221 1.94721 2.58584 0
M  V30 1652 H 158.128 3.61201 0.973883 0
M  V30 1653 H 159.461 4.74713 1.30033 0
M  V30 1654 N 161.113 -0.173488 1.56642 0
M  V30 1655 C 162.36 -0.890465 1.81871 0
M  V30 1656 C 162.688 -1.82339 0.67696 0
M  V30 1657 O 161.943 -1.92795 -0.335926 0
M  V30 1658 C 162.242 -1.72069 3.13252 0
M  V30 1659 C 161.908 -0.936878 4.41059 0
M  V30 1660 C 160.57 -0.720545 4.75775 0
M  V30 1661 C 162.922 -0.386919 5.19762 0
M  V30 1662 C 160.25 0.0568829 5.86672 0
M  V30 1663 C 162.602 0.37741 6.31473 0
M  V30 1664 C 161.266 0.604563 6.64757 0
M  V30 1665 H 160.536 -0.325844 0.665512 0
M  V30 1666 H 163.183 -0.155527 1.90867 0
M  V30 1667 H 161.488 -2.52496 2.99588 0
M  V30 1668 H 163.185 -2.27844 3.29982 0
M  V30 1669 H 159.775 -1.11553 4.13828 0
M  V30 1670 H 163.959 -0.541398 4.93338 0
M  V30 1671 H 159.215 0.242635 6.10918 0
M  V30 1672 H 163.389 0.810825 6.91664 0
M  V30 1673 H 161.016 1.20885 7.50527 0
M  V30 1674 N 162.591 -1.51276 -0.441967 0
M  V30 1675 C 163.501 -1.75092 -1.56141 0
M  V30 1676 C 164.517 -0.634963 -1.62001 0
M  V30 1677 O 165.693 -0.916686 -1.79329 0
M  V30 1678 C 162.758 -1.86666 -2.92158 0
M  V30 1679 C 161.819 -3.10506 -2.96453 0
M  V30 1680 C 161.052 -3.21519 -4.25982 0
M  V30 1681 O 161.275 -2.38586 -5.18105 0
M  V30 1682 O 160.209 -4.14465 -4.36466 0
M  V30 1683 H 164.035 -2.70044 -1.38961 0
M  V30 1684 H 161.62 -1.35722 -0.624499 0
M  V30 1685 H 163.502 -1.96292 -3.72891 0
M  V30 1686 H 162.177 -0.949014 -3.09476 0
M  V30 1687 H 161.084 -3.06363 -2.14692 0
M  V30 1688 H 162.417 -4.01945 -2.84079 0
M  V30 1689 N 164.069 0.697108 -1.41344 0
M  V30 1690 C 164.999 1.82353 -1.45841 0
M  V30 1691 C 165.98 1.67115 -0.317247 0
M  V30 1692 O 167.165 1.86871 -0.528474 0
M  V30 1693 C 164.295 3.20476 -1.33838 0
M  V30 1694 C 163.249 3.50415 -2.4575 0
M  V30 1695 C 162.575 4.87878 -2.18813 0
M  V30 1696 C 163.875 3.49546 -3.88091 0
M  V30 1697 H 165.569 1.78846 -2.40113 0
M  V30 1698 H 163.115 0.859028 -1.15571 0
M  V30 1699 H 165.068 3.98988 -1.35596 0
M  V30 1700 H 163.792 3.24604 -0.360498 0
M  V30 1701 H 162.451 2.74253 -2.43271 0
M  V30 1702 H 162.099 4.8863 -1.19371 0
M  V30 1703 H 161.799 5.08875 -2.93803 0
M  V30 1704 H 163.323 5.68702 -2.22284 0
M  V30 1705 H 164.737 4.18066 -3.92293 0
M  V30 1706 H 163.134 3.82075 -4.62751 0
M  V30 1707 H 164.204 2.48552 -4.16353 0
M  V30 1708 N 165.547 1.27147 0.931209 0
M  V30 1709 C 166.777 1.15914 1.71019 0
M  V30 1710 C 167.185 -0.287112 1.87009 0
M  V30 1711 O 166.528 -1.20761 1.38429 0
M  V30 1712 C 166.59 1.76647 3.13107 0
M  V30 1713 C 166.254 3.25807 3.20467 0
M  V30 1714 C 167.251 4.22489 3.02983 0
M  V30 1715 C 164.936 3.66452 3.43538 0
M  V30 1716 C 166.93 5.57794 3.08454 0
M  V30 1717 C 164.617 5.01888 3.48643 0
M  V30 1718 C 165.615 5.97369 3.31119 0
M  V30 1719 O 165.303 7.30337 3.35952 0
M  V30 1720 H 165.035 0.404062 0.54195 0
M  V30 1721 H 167.589 1.68457 1.17521 0
M  V30 1722 H 165.819 1.18578 3.68071 0
M  V30 1723 H 167.508 1.60179 3.72958 0
M  V30 1724 H 168.274 3.92425 2.85004 0
M  V30 1725 H 164.153 2.92611 3.5623 0
M  V30 1726 H 167.697 6.32298 2.94694 0
M  V30 1727 H 163.594 5.31609 3.66145 0
M  V30 1728 H 164.362 7.38739 3.5243 0
M  V30 1729 N 167.025 -1.13721 1.09112 0
M  V30 1730 C 167.935 -2.22638 0.73957 0
M  V30 1731 C 168.951 -1.72091 -0.257068 0
M  V30 1732 O 170.127 -2.01155 -0.0992154 0
M  V30 1733 C 167.192 -3.46322 0.16191 0
M  V30 1734 C 166.253 -4.11775 1.21408 0
M  V30 1735 C 165.486 -5.29555 0.663891 0
M  V30 1736 O 165.709 -5.68077 -0.514274 0
M  V30 1737 O 164.643 -5.84973 1.41738 0
M  V30 1738 H 168.469 -2.55074 1.64836 0
M  V30 1739 H 166.054 -1.21791 0.865289 0
M  V30 1740 H 167.936 -4.21107 -0.157073 0
M  V30 1741 H 166.611 -3.15593 -0.719932 0
M  V30 1742 H 165.518 -3.3883 1.58571 0
M  V30 1743 H 166.851 -4.46627 2.06845 0
M  V30 1744 N 168.503 -0.877838 -1.30888 0
M  V30 1745 C 169.749 -0.493426 -1.96706 0
M  V30 1746 C 170.082 0.953504 -1.6918 0
M  V30 1747 O 169.357 1.67266 -0.992594 0
M  V30 1748 C 169.64 -0.760429 -3.51979 0
M  V30 1749 C 169.493 -2.25747 -3.89048 0
M  V30 1750 C 170.812 -0.232148 -4.39487 0
M  V30 1751 H 167.931 -0.180746 -0.714493 0
M  V30 1752 H 170.573 -1.10052 -1.54882 0
M  V30 1753 H 168.723 -0.243715 -3.87735 0
M  V30 1754 H 170.395 -2.84204 -3.63354 0
M  V30 1755 H 168.638 -2.72694 -3.37373 0
M  V30 1756 H 169.309 -2.39491 -4.97341 0
M  V30 1757 H 171.785 -0.674314 -4.106 0
M  V30 1758 H 170.661 -0.448355 -5.47066 0
M  V30 1759 H 170.922 0.866297 -4.33529 0
M  V30 1760 N 169.982 1.44106 -0.638065 0
M  V30 1761 C 171.398 1.56672 -0.304286 0
M  V30 1762 C 171.598 1.6244 1.19228 0
M  V30 1763 O 170.654 1.57121 1.9766 0
M  V30 1764 C 171.967 2.83503 -1.00231 0
M  V30 1765 C 173.515 2.97226 -0.981116 0
M  V30 1766 C 173.99 4.26868 -1.65974 0
M  V30 1767 N 175.481 4.33698 -1.62666 0
M  V30 1768 C 176.216 5.32745 -2.12063 0
M  V30 1769 N 175.712 6.38157 -2.6968 0
M  V30 1770 N 177.505 5.24299 -2.02651 0
M  V30 1771 H 169.656 1.38605 -1.60942 0
M  V30 1772 H 171.919 0.664661 -0.675965 0
M  V30 1773 H 171.625 2.85251 -2.0573 0
M  V30 1774 H 171.499 3.73251 -0.54439 0
M  V30 1775 H 173.886 2.95027 0.0654188 0
M  V30 1776 H 173.967 2.08808 -1.47759 0
M  V30 1777 H 173.611 4.29826 -2.70576 0
M  V30 1778 H 173.541 5.14156 -1.13804 0
M  V30 1779 H 176.032 3.58138 -1.20606 0
M  V30 1780 H 176.345 7.10029 -3.05087 0
M  V30 1781 H 174.69 6.38823 -2.73734 0
M  V30 1782 H 177.881 4.4086 -1.57353 0
M  V30 1783 H 178.054 6.01334 -2.41457 0
M  V30 1784 N 171.46 0.379036 1.52974 0
M  V30 1785 C 172.707 -0.206421 2.01445 0
M  V30 1786 C 173.035 -1.47668 1.26587 0
M  V30 1787 O 172.29 -1.92514 0.351675 0
M  V30 1788 C 172.589 -0.53096 3.53434 0
M  V30 1789 C 172.255 0.646546 4.46241 0
M  V30 1790 C 170.917 0.969604 4.7133 0
M  V30 1791 C 173.269 1.43479 5.01062 0
M  V30 1792 C 170.597 2.08263 5.48492 0
M  V30 1793 C 172.949 2.53834 5.7944 0
M  V30 1794 C 171.613 2.86659 6.02812 0
M  V30 1795 H 170.883 -0.0755349 0.73714 0
M  V30 1796 H 173.53 0.514271 1.84465 0
M  V30 1797 H 171.835 -1.33285 3.68432 0
M  V30 1798 H 173.532 -0.996417 3.88423 0
M  V30 1799 H 170.122 0.384734 4.2687 0
M  V30 1800 H 174.306 1.19844 4.81613 0
M  V30 1801 H 169.562 2.34078 5.64816 0
M  V30 1802 H 173.736 3.15319 6.20924 0
M  V30 1803 H 171.363 3.73026 6.62387 0
M  V30 1804 N 172.938 -1.57226 0.108567 0
M  V30 1805 C 173.888 -2.11305 -0.856396 0
M  V30 1806 C 174.872 -1.03129 -1.23504 0
M  V30 1807 O 176.064 -1.29381 -1.20787 0
M  V30 1808 C 173.193 -2.70771 -2.11041 0
M  V30 1809 C 172.279 -3.86011 -1.7566 0
M  V30 1810 N 172.67 -4.93492 -1.10902 0
M  V30 1811 C 170.968 -3.95999 -2.05185 0
M  V30 1812 C 171.669 -5.73984 -0.944308 0
M  V30 1813 N 170.645 -5.2346 -1.46596 0
M  V30 1814 H 174.447 -2.91784 -0.352002 0
M  V30 1815 H 171.961 -1.62126 -0.0942324 0
M  V30 1816 H 173.958 -3.07851 -2.81128 0
M  V30 1817 H 172.618 -1.91751 -2.62034 0
M  V30 1818 H 173.629 -5.1208 -0.774235 0
M  V30 1819 H 170.306 -3.28007 -2.58298 0
M  V30 1820 H 171.696 -6.70479 -0.436813 0
M  V30 1821 N 174.416 0.165178 -1.56732 0
M  V30 1822 C 175.662 0.877389 -1.83503 0
M  V30 1823 C 176.017 1.79602 -0.689996 0
M  V30 1824 O 175.31 1.89023 0.313205 0
M  V30 1825 C 175.504 1.70405 -3.1416 0
M  V30 1826 C 175.333 0.866961 -4.41264 0
M  V30 1827 C 174.103 0.539646 -5.0241 0
M  V30 1828 C 176.301 0.205671 -5.13889 0
M  V30 1829 N 174.283 -0.312946 -6.13102 0
M  V30 1830 C 175.654 -0.507823 -6.17917 0
M  V30 1831 C 177.709 0.124468 -4.97744 0
M  V30 1832 C 176.412 -1.29483 -7.0755 0
M  V30 1833 C 178.438 -0.649222 -5.87826 0
M  V30 1834 C 177.8 -1.35106 -6.91322 0
M  V30 1835 H 173.899 0.299477 -0.722383 0
M  V30 1836 H 176.483 0.143949 -1.94167 0
M  V30 1837 H 174.654 2.40887 -3.04677 0
M  V30 1838 H 176.386 2.35804 -3.28905 0
M  V30 1839 H 173.141 0.871176 -4.65519 0
M  V30 1840 H 173.565 -0.729731 -6.73056 0
M  V30 1841 H 178.207 0.652724 -4.17731 0
M  V30 1842 H 175.925 -1.83441 -7.87004 0
M  V30 1843 H 179.511 -0.713804 -5.77405 0
M  V30 1844 H 178.391 -1.94013 -7.59821 0
M  V30 1845 N 175.894 1.51508 0.433938 0
M  V30 1846 C 177.142 1.6402 1.18075 0
M  V30 1847 C 177.463 0.360328 1.91642 0
M  V30 1848 O 176.733 -0.623945 1.85698 0
M  V30 1849 H 175.313 0.6045 0.43885 0
M  V30 1850 H 177.975 1.88452 0.497178 0
M  V30 1851 H 177.071 2.46949 1.90847 0
M  V30 1852 N 177.372 -0.689602 1.41712 0
M  V30 1853 C 178.788 -1.00093 1.24312 0
M  V30 1854 C 178.988 -2.01036 0.136729 0
M  V30 1855 O 178.044 -2.47562 -0.496918 0
M  V30 1856 C 179.357 -1.51985 2.59463 0
M  V30 1857 C 180.905 -1.63838 2.66695 0
M  V30 1858 C 181.38 -2.1913 4.02177 0
M  V30 1859 N 182.871 -2.26483 4.04054 0
M  V30 1860 C 183.606 -2.70306 5.0569 0
M  V30 1861 N 183.102 -3.13691 6.17713 0
M  V30 1862 N 184.895 -2.69923 4.9305 0
M  V30 1863 H 177.046 -0.0210029 2.1239 0
M  V30 1864 H 179.309 -0.0718733 0.945272 0
M  V30 1865 H 179.015 -0.85269 3.41207 0
M  V30 1866 H 178.889 -2.50103 2.82362 0
M  V30 1867 H 181.276 -2.29664 1.85306 0
M  V30 1868 H 181.357 -0.642492 2.476 0
M  V30 1869 H 181.001 -1.53918 4.84016 0
M  V30 1870 H 180.931 -3.19482 4.18615 0
M  V30 1871 H 183.422 -1.95874 3.23174 0
M  V30 1872 H 183.735 -3.45773 6.9113 0
M  V30 1873 H 182.08 -3.11585 6.21241 0
M  V30 1874 H 185.271 -2.35382 4.04614 0
M  V30 1875 H 185.444 -3.03758 5.72394 0
M  V30 1876 N 178.85 -1.27639 -0.924453 0
M  V30 1877 C 179.76 -1.12466 -2.05885 0
M  V30 1878 C 180.776 -0.053869 -1.73917 0
M  V30 1879 O 181.952 -0.261012 -1.99702 0
M  V30 1880 C 179.017 -0.776768 -3.37886 0
M  V30 1881 C 178.078 -1.92878 -3.83532 0
M  V30 1882 C 177.311 -1.59739 -5.09234 0
M  V30 1883 O 177.534 -0.506782 -5.68144 0
M  V30 1884 O 176.468 -2.43761 -5.50331 0
M  V30 1885 H 180.294 -2.07671 -2.21599 0
M  V30 1886 H 177.879 -1.06857 -1.04413 0
M  V30 1887 H 179.761 -0.596229 -4.17161 0
M  V30 1888 H 178.436 0.145732 -3.23372 0
M  V30 1889 H 177.343 -2.1644 -3.0513 0
M  V30 1890 H 178.676 -2.8316 -4.02593 0
M  V30 1891 N 180.328 1.1314 -1.09713 0
M  V30 1892 C 181.276 2.20717 -0.733934 0
M  V30 1893 C 182.27 1.6729 0.266506 0
M  V30 1894 O 183.476 1.79547 0.127656 0
M  V30 1895 H 179.851 0.719292 -0.21937 0
M  V30 1896 H 181.822 2.48611 -1.6503 0
M  V30 1897 C 180.571 3.47265 -0.173849 0
M  V30 1898 H 179.894 3.88716 -0.934873 0
M  V30 1899 H 181.334 4.23979 0.0423126 0
M  V30 1900 C 179.793 3.18724 1.09164 0
M  V30 1901 O 180.323 3.37762 2.17439 0
M  V30 1902 N 178.529 2.72583 1.00732 0
M  V30 1903 H 178.076 2.57291 0.126121 0
M  V30 1904 H 178.034 2.53862 1.85476 0
M  V30 1905 N 181.806 0.884767 1.30421 0
M  V30 1906 C 182.738 0.308655 2.27112 0
M  V30 1907 C 183.751 -0.536655 1.53701 0
M  V30 1908 O 184.94 -0.35624 1.74909 0
M  V30 1909 C 182.04 -0.579782 3.33904 0
M  V30 1910 C 181.213 0.236417 4.36761 0
M  V30 1911 C 180.272 -0.582482 5.22966 0
M  V30 1912 O 179.298 -0.00525502 5.692 0
M  V30 1913 N 180.5 -1.89163 5.48815 0
M  V30 1914 H 183.265 1.13964 2.77186 0
M  V30 1915 H 180.826 0.747731 1.43599 0
M  V30 1916 H 182.818 -1.13366 3.88497 0
M  V30 1917 H 181.388 -1.31144 2.83761 0
M  V30 1918 H 180.608 0.97174 3.82035 0
M  V30 1919 H 181.896 0.795924 5.02536 0
M  V30 1920 H 181.294 -2.38352 5.13035 0
M  V30 1921 H 179.851 -2.39296 6.06284 0
M  V30 1922 N 183.284 -1.43765 0.645699 0
M  V30 1923 C 184.7 -1.56509 0.312591 0
M  V30 1924 C 184.9 -1.6307 -1.18365 0
M  V30 1925 O 183.956 -1.58167 -1.96824 0
M  V30 1926 C 185.269 -2.82968 1.01733 0
M  V30 1927 C 186.817 -2.96701 0.996865 0
M  V30 1928 C 187.292 -4.25982 1.68236 0
M  V30 1929 N 188.783 -4.32829 1.64964 0
M  V30 1930 C 189.518 -5.31613 2.14885 0
M  V30 1931 N 189.014 -6.36718 2.73061 0
M  V30 1932 N 190.807 -5.23217 2.05428 0
M  V30 1933 H 182.958 -1.3775 1.61675 0
M  V30 1934 H 185.221 -0.661067 0.679481 0
M  V30 1935 H 184.927 -2.84156 2.0724 0
M  V30 1936 H 184.801 -3.72957 0.564177 0
M  V30 1937 H 187.188 -2.95058 -0.0497719 0
M  V30 1938 H 187.269 -2.08022 1.48865 0
M  V30 1939 H 186.913 -4.28386 2.72852 0
M  V30 1940 H 186.843 -5.13545 1.16529 0
M  V30 1941 H 189.334 -3.57493 1.22503 0
M  V30 1942 H 189.647 -7.08401 3.08848 0
M  V30 1943 H 187.992 -6.37362 2.77118 0
M  V30 1944 H 191.183 -4.40019 1.59689 0
M  V30 1945 H 191.356 -6.00045 2.44643 0
M  V30 1946 N 184.763 -0.387143 -1.52771 0
M  V30 1947 C 186.011 0.195349 -2.01154 0
M  V30 1948 C 186.332 1.475 -1.27549 0
M  V30 1949 O 185.602 1.91878 -0.394924 0
M  V30 1950 H 184.182 0.075178 -0.743207 0
M  V30 1951 H 186.844 -0.518337 -1.87881 0
M  V30 1952 H 185.94 0.407096 -3.09434 0
M  V30 1953 N 186.241 1.57166 -0.116904 0
M  V30 1954 C 187.466 1.999 0.55271 0
M  V30 1955 C 187.891 0.996039 1.59564 0
M  V30 1956 O 187.249 -0.032556 1.81271 0
M  V30 1957 C 187.297 3.4152 1.15742 0
M  V30 1958 O 186.401 3.44106 2.27299 0
M  V30 1959 H 185.742 0.649447 0.138258 0
M  V30 1960 H 188.272 2.03573 -0.204759 0
M  V30 1961 H 188.282 3.79684 1.49346 0
M  V30 1962 H 186.957 4.14034 0.393493 0
M  V30 1963 H 185.534 3.17759 1.9515 0
M  V30 1964 N 187.719 -0.156864 1.56817 0
M  V30 1965 C 188.629 -1.2136 2.00771 0
M  V30 1966 C 189.645 -1.47598 0.921459 0
M  V30 1967 O 190.821 -1.59462 1.2302 0
M  V30 1968 C 187.886 -2.52943 2.37109 0
M  V30 1969 C 186.947 -2.34439 3.59634 0
M  V30 1970 C 186.18 -3.59748 3.94229 0
M  V30 1971 O 186.403 -4.65526 3.29609 0
M  V30 1972 O 185.337 -3.52998 4.8752 0
M  V30 1973 H 189.163 -0.870468 2.90958 0
M  V30 1974 H 186.748 -0.36484 1.44877 0
M  V30 1975 H 188.63 -3.30538 2.61386 0
M  V30 1976 H 187.305 -2.86806 1.5008 0
M  V30 1977 H 186.212 -1.54828 3.40557 0
M  V30 1978 H 187.545 -2.05496 4.4725 0
M  V30 1979 N 189.197 -1.51736 -0.425897 0
M  V30 1980 C 190.147 -1.70258 -1.51645 0
M  V30 1981 C 191.131 -0.556488 -1.5097 0
M  V30 1982 O 192.323 -0.812879 -1.5723 0
M  V30 1983 C 189.452 -1.84143 -2.89735 0
M  V30 1984 C 188.538 -3.04572 -2.95122 0
M  V30 1985 N 188.929 -4.2756 -2.70233 0
M  V30 1986 C 187.227 -3.04061 -3.26286 0
M  V30 1987 C 187.928 -5.08908 -2.81757 0
M  V30 1988 N 186.904 -4.43797 -3.13919 0
M  V30 1989 H 190.706 -2.63004 -1.31172 0
M  V30 1990 H 188.22 -1.4954 -0.633375 0
M  V30 1991 H 190.217 -1.95525 -3.68206 0
M  V30 1992 H 188.877 -0.925857 -3.1122 0
M  V30 1993 H 189.888 -4.56315 -2.44943 0
M  V30 1994 H 186.565 -2.22179 -3.53473 0
M  V30 1995 H 187.955 -6.16843 -2.66372 0
M  V30 1996 N 190.675 0.682077 -1.42076 0
M  V30 1997 C 191.903 1.47057 -1.4554 0
M  V30 1998 C 192.318 1.8869 -0.0645779 0
M  V30 1999 O 191.675 1.57666 0.919115 0
M  V30 2000 C 191.726 2.72442 -2.37609 0
M  V30 2001 O 191.447 2.32559 -3.71279 0
M  V30 2002 C 192.948 3.66069 -2.50017 0
M  V30 2003 H 190.168 0.452737 -0.495248 0
M  V30 2004 H 192.712 0.838695 -1.8651 0
M  V30 2005 H 190.867 3.31835 -1.9991 0
M  V30 2006 H 191.281 3.13475 -4.20516 0
M  V30 2007 H 192.755 4.50792 -3.18576 0
M  V30 2008 H 193.232 4.11476 -1.53572 0
M  V30 2009 H 193.838 3.12572 -2.88407 0
M  V30 2010 N 192.153 1.28127 0.917671 0
M  V30 2011 C 193.399 1.15223 1.66888 0
M  V30 2012 C 193.732 -0.299293 1.9188 0
M  V30 2013 O 193.007 -1.21805 1.51637 0
M  V30 2014 C 193.29 1.94706 3.02922 0
M  V30 2015 C 193.143 3.47898 2.85109 0
M  V30 2016 C 194.462 1.75939 4.03402 0
M  V30 2017 H 191.581 0.419946 0.605652 0
M  V30 2018 H 194.223 1.57398 1.06423 0
M  V30 2019 H 192.373 1.58864 3.54534 0
M  V30 2020 H 194.045 3.93624 2.40537 0
M  V30 2021 H 192.288 3.7373 2.20246 0
M  V30 2022 H 192.959 3.98765 3.81694 0
M  V30 2023 H 195.435 2.07209 3.60837 0
M  V30 2024 H 194.311 2.33931 4.96556 0
M  V30 2025 H 194.572 0.709877 4.36364 0
M  V30 2026 N 193.631 -1.12557 1.10312 0
M  V30 2027 C 194.579 -2.20325 0.745629 0
M  V30 2028 C 195.573 -1.67429 -0.25763 0
M  V30 2029 O 196.779 -1.79612 -0.118132 0
M  V30 2030 H 193.154 -0.718118 0.223182 0
M  V30 2031 H 195.125 -2.47733 1.66346 0
M  V30 2032 C 193.874 -3.47168 0.192262 0
M  V30 2033 H 193.197 -3.88215 0.955475 0
M  V30 2034 H 194.637 -4.23995 -0.0198274 0
M  V30 2035 C 193.096 -3.19298 -1.07472 0
M  V30 2036 O 193.626 -3.3891 -2.15645 0
M  V30 2037 N 191.832 -2.73113 -0.992847 0
M  V30 2038 H 191.379 -2.57354 -0.112474 0
M  V30 2039 H 191.337 -2.54842 -1.84127 0
M  V30 2040 N 195.109 -0.891671 -1.2995 0
M  V30 2041 C 196.356 -0.513501 -1.95881 0
M  V30 2042 C 196.684 0.938655 -1.70351 0
M  V30 2043 O 195.939 1.67936 -1.00478 0
M  V30 2044 C 196.238 -0.742868 -3.49594 0
M  V30 2045 C 195.904 -2.17114 -3.95186 0
M  V30 2046 C 194.566 -2.56169 -4.07346 0
M  V30 2047 C 196.918 -3.10162 -4.18866 0
M  V30 2048 C 194.246 -3.87469 -4.4055 0
M  V30 2049 C 196.598 -4.41001 -4.53542 0
M  V30 2050 C 195.262 -4.79941 -4.63911 0
M  V30 2051 H 194.532 -0.187903 -0.71678 0
M  V30 2052 H 197.179 -1.1288 -1.54694 0
M  V30 2053 H 195.484 -0.044586 -3.91775 0
M  V30 2054 H 197.181 -0.429767 -3.9869 0
M  V30 2055 H 193.771 -1.85801 -3.86233 0
M  V30 2056 H 197.955 -2.81206 -4.08946 0
M  V30 2057 H 193.211 -4.17371 -4.46779 0
M  V30 2058 H 197.385 -5.13133 -4.70815 0
M  V30 2059 H 195.012 -5.81719 -4.89395 0
M  V30 2060 N 196.587 1.43421 -0.653314 0
M  V30 2061 C 197.534 2.30768 0.0382271 0
M  V30 2062 C 198.504 1.44755 0.814576 0
M  V30 2063 O 199.689 1.73624 0.791162 0
M  V30 2064 C 196.829 3.30336 0.998599 0
M  V30 2065 C 195.942 4.31448 0.218342 0
M  V30 2066 C 195.077 5.18098 1.17252 0
M  V30 2067 C 194.116 6.10902 0.382702 0
M  V30 2068 N 193.253 6.90176 1.28848 0
M  V30 2069 H 198.093 2.89357 -0.712511 0
M  V30 2070 H 195.63 1.42548 -0.363128 0
M  V30 2071 H 197.588 3.86572 1.56901 0
M  V30 2072 H 196.218 2.73397 1.71621 0
M  V30 2073 H 195.27 3.77506 -0.46836 0
M  V30 2074 H 196.582 4.97227 -0.395812 0
M  V30 2075 H 195.736 5.7896 1.81356 0
M  V30 2076 H 194.475 4.52444 1.82058 0
M  V30 2077 H 193.48 5.49128 -0.27169 0
M  V30 2078 H 194.705 6.78598 -0.260957 0
M  V30 2079 H 192.651 6.27171 1.92334 0
M  V30 2080 H 192.568 7.52478 0.728887 0
M  V30 2081 H 193.836 7.55543 1.91766 0
M  V30 2082 N 198.065 0.39524 1.52563 0
M  V30 2083 C 199.028 -0.425001 2.25225 0
M  V30 2084 C 200.028 -0.985266 1.27079 0
M  V30 2085 O 201.218 -0.866332 1.5113 0
M  V30 2086 C 198.35 -1.59686 3.01186 0
M  V30 2087 H 199.543 0.211233 2.99155 0
M  V30 2088 H 197.096 0.147472 1.55603 0
M  V30 2089 H 197.831 -2.27035 2.31572 0
M  V30 2090 H 197.616 -1.20176 3.73229 0
M  V30 2091 H 199.106 -2.17743 3.5634 0
M  V30 2092 N 199.544 -1.57102 0.125237 0
M  V30 2093 C 200.791 -1.95407 -0.531248 0
M  V30 2094 C 201.119 -1.0089 -1.66287 0
M  V30 2095 O 200.374 -0.0339431 -1.95671 0
M  V30 2096 C 200.673 -3.40096 -1.09862 0
M  V30 2097 C 200.339 -4.50815 -0.0876989 0
M  V30 2098 C 199.001 -4.80824 0.19026 0
M  V30 2099 C 201.353 -5.17724 0.600902 0
M  V30 2100 C 198.681 -5.75058 1.163 0
M  V30 2101 C 201.033 -6.13005 1.56231 0
M  V30 2102 C 199.697 -6.41403 1.8482 0
M  V30 2103 H 198.967 -0.715046 -0.194397 0
M  V30 2104 H 201.614 -1.90373 0.207463 0
M  V30 2105 H 199.919 -3.41855 -1.91422 0
M  V30 2106 H 201.616 -3.6705 -1.61478 0
M  V30 2107 H 198.206 -4.27444 -0.314528 0
M  V30 2108 H 202.39 -4.94691 0.399333 0
M  V30 2109 H 197.646 -5.95362 1.39117 0
M  V30 2110 H 201.82 -6.63934 2.10153 0
M  V30 2111 H 199.447 -7.14229 2.60349 0
M  V30 2112 N 201.022 0.148545 -1.56898 0
M  V30 2113 C 202.433 0.708766 -1.72723 0
M  V30 2114 C 202.784 1.81734 -0.739395 0
M  V30 2115 O 201.909 2.16194 0.0943169 0
M  V30 2116 C 202.504 1.29245 -3.13179 0
M  V30 2117 C 201.063 1.79925 -3.30611 0
M  V30 2118 C 200.21 0.687111 -2.68652 0
M  V30 2119 H 203.161 -0.0771063 -1.58513 0
M  V30 2120 H 203.182 2.16224 -3.13093 0
M  V30 2121 H 202.694 0.485382 -3.85053 0
M  V30 2122 H 200.795 2.63203 -2.63732 0
M  V30 2123 H 200.908 1.92903 -4.38549 0
M  V30 2124 H 199.272 1.11335 -2.29078 0
M  V30 2125 H 200.055 -0.108483 -3.43129 0
M  V30 2126 N 202.5 1.5196 0.417844 0
M  V30 2127 C 203.433 1.69387 1.52916 0
M  V30 2128 C 204.411 0.541419 1.53321 0
M  V30 2129 O 205.595 0.767695 1.72159 0
M  V30 2130 C 202.722 1.72525 2.91467 0
M  V30 2131 C 201.768 2.93967 3.09008 0
M  V30 2132 S 202.601 4.54461 2.83242 0
M  V30 2133 C 203.757 4.60372 4.24038 0
M  V30 2134 H 203.99 2.63382 1.37903 0
M  V30 2135 H 201.523 1.41889 0.608845 0
M  V30 2136 H 203.481 1.75018 3.7132 0
M  V30 2137 H 202.142 0.796733 3.03827 0
M  V30 2138 H 201.335 2.92619 4.10353 0
M  V30 2139 H 200.937 2.89316 2.37007 0
M  V30 2140 H 203.229 4.37213 5.17544 0
M  V30 2141 H 204.172 5.62273 4.30412 0
M  V30 2142 H 204.58 3.89492 4.08602 0
M  V30 2143 N 203.978 -0.674533 1.42435 0
M  V30 2144 C 204.888 -1.81751 1.48337 0
M  V30 2145 C 205.904 -1.69975 0.372099 0
M  V30 2146 O 207.08 -1.91521 0.62304 0
M  V30 2147 C 204.145 -3.17895 1.38361 0
M  V30 2148 C 203.206 -3.41625 2.59982 0
M  V30 2149 C 202.439 -4.71274 2.50473 0
M  V30 2150 O 202.662 -5.49197 1.54075 0
M  V30 2151 O 201.596 -4.96254 3.4061 0
M  V30 2152 H 205.422 -1.79728 2.44809 0
M  V30 2153 H 203.007 -0.830312 1.24202 0
M  V30 2154 H 204.889 -3.99136 1.35161 0
M  V30 2155 H 203.564 -3.20555 0.450144 0
M  V30 2156 H 202.471 -2.60231 2.68757 0
M  V30 2157 H 203.804 -3.43796 3.52229 0
M  V30 2158 N 205.456 -1.28612 -0.910864 0
M  V30 2159 C 206.386 -1.15326 -2.03032 0
M  V30 2160 C 207.367 -0.0502924 -1.70026 0
M  V30 2161 O 208.552 -0.227797 -1.92859 0
M  V30 2162 C 205.682 -0.817343 -3.37545 0
M  V30 2163 C 204.636 -1.8754 -3.84724 0
M  V30 2164 C 203.962 -1.39305 -5.16235 0
M  V30 2165 C 205.262 -3.28244 -4.06267 0
M  V30 2166 H 206.956 -2.08975 -2.14406 0
M  V30 2167 H 204.502 -1.00612 -1.03021 0
M  V30 2168 H 206.455 -0.711151 -4.15356 0
M  V30 2169 H 205.179 0.154846 -3.26233 0
M  V30 2170 H 203.838 -1.97079 -3.09121 0
M  V30 2171 H 203.486 -0.409846 -5.01328 0
M  V30 2172 H 203.186 -2.10057 -5.48771 0
M  V30 2173 H 204.71 -1.30014 -5.96598 0
M  V30 2174 H 206.124 -3.21611 -4.74594 0
M  V30 2175 H 204.521 -3.96855 -4.5014 0
M  V30 2176 H 205.591 -3.72048 -3.10979 0
M  V30 2177 N 206.934 1.1197 -1.10907 0
M  V30 2178 C 207.884 2.15946 -0.731538 0
M  V30 2179 C 208.868 1.58758 0.261699 0
M  V30 2180 O 210.06 1.76863 0.0696722 0
M  V30 2181 C 207.189 3.42877 -0.170299 0
M  V30 2182 C 206.275 4.07037 -1.19087 0
M  V30 2183 N 206.666 4.46135 -2.38322 0
M  V30 2184 C 204.964 4.33884 -1.03252 0
M  V30 2185 C 205.665 4.96331 -3.03366 0
M  V30 2186 N 204.641 4.9214 -2.30865 0
M  V30 2187 H 208.443 2.43947 -1.63912 0
M  V30 2188 H 205.957 1.28927 -0.987505 0
M  V30 2189 H 207.954 4.16732 0.118271 0
M  V30 2190 H 206.614 3.16343 0.731935 0
M  V30 2191 H 207.625 4.38345 -2.75815 0
M  V30 2192 H 204.302 4.17084 -0.186256 0
M  V30 2193 H 205.692 5.36257 -4.04818 0
M  V30 2194 N 208.412 0.89855 1.29475 0
M  V30 2195 C 209.342 0.39201 2.30186 0
M  V30 2196 C 210.323 -0.532359 1.61555 0
M  V30 2197 O 211.508 -0.443331 1.89072 0
M  V30 2198 C 208.638 -0.382353 3.45189 0
M  V30 2199 C 207.592 0.451483 4.25612 0
M  V30 2200 C 206.918 -0.450307 5.328 0
M  V30 2201 C 208.218 1.70079 4.93832 0
M  V30 2202 H 209.912 1.23362 2.72804 0
M  V30 2203 H 207.458 0.594638 1.31149 0
M  V30 2204 H 209.411 -0.747451 4.14718 0
M  V30 2205 H 208.135 -1.25774 3.01411 0
M  V30 2206 H 206.794 0.798897 3.57789 0
M  V30 2207 H 206.442 -1.32379 4.85268 0
M  V30 2208 H 206.142 0.103902 5.87508 0
M  V30 2209 H 207.666 -0.811623 6.05182 0
M  V30 2210 H 209.08 1.40549 5.55805 0
M  V30 2211 H 207.477 2.19623 5.58467 0
M  V30 2212 H 208.547 2.43744 4.19186 0
M  V30 2213 N 209.89 -1.43072 0.660911 0
M  V30 2214 C 211.139 -2.00942 0.174735 0
M  V30 2215 C 211.452 -1.52797 -1.22117 0
M  V30 2216 O 212.658 -2.02991 -1.80297 0
M  V30 2217 C 211.114 -3.58948 0.261559 0
M  V30 2218 C 210.722 -4.16085 1.66064 0
M  V30 2219 C 212.466 -4.24173 -0.166617 0
M  V30 2220 C 210.373 -5.6641 1.70098 0
M  V30 2221 H 209.303 -0.751483 0.0615631 0
M  V30 2222 H 211.954 -1.63955 0.824069 0
M  V30 2223 H 210.336 -3.93372 -0.455421 0
M  V30 2224 H 211.51 -3.93147 2.40359 0
M  V30 2225 H 209.825 -3.6326 2.03546 0
M  V30 2226 H 212.422 -5.34471 -0.156433 0
M  V30 2227 H 212.765 -3.98647 -1.19943 0
M  V30 2228 H 213.298 -3.94659 0.498875 0
M  V30 2229 H 210.037 -5.96715 2.71315 0
M  V30 2230 H 209.557 -5.91382 1.00139 0
M  V30 2231 H 211.236 -6.30585 1.44816 0
M  V30 2232 N 211.368 -0.403325 -1.52352 0
M  V30 2233 C 212.318 0.442244 -2.2367 0
M  V30 2234 C 213.302 1.01823 -1.24583 0
M  V30 2235 O 214.494 0.942005 -1.49851 0
M  V30 2236 C 211.623 1.5615 -3.05732 0
M  V30 2237 C 210.709 0.996575 -4.12225 0
M  V30 2238 N 211.1 0.157804 -5.05554 0
M  V30 2239 C 209.398 1.26767 -4.27605 0
M  V30 2240 C 210.099 -0.155853 -5.81491 0
M  V30 2241 N 209.075 0.451775 -5.41719 0
M  V30 2242 H 212.877 -0.204964 -2.93184 0
M  V30 2243 H 210.391 -0.213418 -1.60992 0
M  V30 2244 H 212.388 2.17981 -3.55373 0
M  V30 2245 H 211.048 2.21139 -2.37755 0
M  V30 2246 H 212.059 -0.206049 -5.1749 0
M  V30 2247 H 208.736 1.91757 -3.70858 0
M  V30 2248 H 210.126 -0.836329 -6.66675 0
M  V30 2249 N 212.846 1.57033 -0.133567 0
M  V30 2250 C 214.092 1.96764 0.515326 0
M  V30 2251 C 214.447 1.01653 1.63353 0
M  V30 2252 O 213.74 0.0491374 1.91537 0
M  V30 2253 C 213.934 3.40674 1.08057 0
M  V30 2254 C 213.763 4.49696 0.0186522 0
M  V30 2255 C 212.533 5.03567 -0.418174 0
M  V30 2256 C 214.731 5.08536 -0.767809 0
M  V30 2257 N 212.713 5.9618 -1.46434 0
M  V30 2258 C 214.084 5.97231 -1.6648 0
M  V30 2259 C 216.139 4.9115 -0.817087 0
M  V30 2260 C 214.842 6.70401 -2.60681 0
M  V30 2261 C 216.868 5.65012 -1.74687 0
M  V30 2262 C 216.23 6.53403 -2.63141 0
M  V30 2263 H 212.329 0.765919 0.157771 0
M  V30 2264 H 214.913 1.93395 -0.22506 0
M  V30 2265 H 213.084 3.44662 1.79061 0
M  V30 2266 H 214.816 3.67495 1.69497 0
M  V30 2267 H 211.571 4.73594 -0.0229803 0
M  V30 2268 H 211.995 6.47191 -1.98678 0
M  V30 2269 H 216.637 4.22543 -0.147326 0
M  V30 2270 H 214.355 7.38245 -3.28664 0
M  V30 2271 H 217.941 5.53559 -1.79063 0
M  V30 2272 H 216.821 7.09556 -3.33917 0
M  V30 2273 N 214.325 -0.140222 1.56975 0
M  V30 2274 C 215.273 -1.19207 1.99731 0
M  V30 2275 C 216.267 -1.44089 0.890777 0
M  V30 2276 O 217.473 -1.44301 1.07597 0
M  V30 2277 H 213.848 -0.40142 0.635898 0
M  V30 2278 H 215.819 -0.804813 2.87342 0
M  V30 2279 C 214.568 -2.51617 2.39967 0
M  V30 2280 H 213.891 -2.33303 3.24669 0
M  V30 2281 H 215.331 -3.23827 2.73701 0
M  V30 2282 C 213.79 -3.12654 1.25496 0
M  V30 2283 O 214.32 -3.97786 0.559371 0
M  V30 2284 N 212.526 -2.72206 1.01746 0
M  V30 2285 H 212.073 -2.03074 1.58489 0
M  V30 2286 H 212.031 -3.13377 0.253461 0
M  V30 2287 N 215.803 -1.52179 -0.40978 0
M  V30 2288 C 217.028 -1.70347 -1.18308 0
M  V30 2289 C 217.453 -0.411887 -1.83535 0
M  V30 2290 O 216.811 0.630587 -1.6998 0
M  V30 2291 C 216.859 -2.83977 -2.22238 0
M  V30 2292 O 215.963 -2.495 -3.28365 0
M  V30 2293 H 215.304 -0.567103 -0.345384 0
M  V30 2294 H 217.834 -1.98879 -0.480445 0
M  V30 2295 H 217.844 -3.0887 -2.66577 0
M  V30 2296 H 216.519 -3.77685 -1.74146 0
M  V30 2297 H 215.096 -2.35277 -2.89308 0
M  V30 2298 N 217.281 0.66697 -1.42791 0
M  V30 2299 C 218.509 1.45505 -1.47091 0
M  V30 2300 C 218.924 1.8861 -0.0845873 0
M  V30 2301 O 218.281 1.58632 0.90234 0
M  V30 2302 C 218.332 2.69906 -2.40485 0
M  V30 2303 O 218.053 2.28608 -3.73725 0
M  V30 2304 C 219.554 3.63396 -2.53886 0
M  V30 2305 H 216.774 0.447459 -0.500022 0
M  V30 2306 H 219.318 0.818866 -1.8739 0
M  V30 2307 H 217.473 3.29696 -2.03419 0
M  V30 2308 H 217.887 3.08997 -4.23817 0
M  V30 2309 H 219.361 4.47387 -3.2334 0
M  V30 2310 H 219.838 4.09824 -1.57927 0
M  V30 2311 H 220.444 3.09495 -2.91706 0
M  V30 2312 N 218.759 1.29093 0.90403 0
M  V30 2313 C 219.689 1.16401 2.02418 0
M  V30 2314 C 220.67 0.0593085 1.69997 0
M  V30 2315 O 221.855 0.238021 1.92736 0
M  V30 2316 C 218.985 0.835233 3.37107 0
M  V30 2317 C 217.939 1.89578 3.83724 0
M  V30 2318 C 217.265 1.42041 5.15489 0
M  V30 2319 C 218.565 3.30394 4.04521 0
M  V30 2320 H 220.259 2.10109 2.13295 0
M  V30 2321 H 217.805 1.01157 1.02486 0
M  V30 2322 H 219.758 0.733169 4.14973 0
M  V30 2323 H 218.482 -0.137543 3.2631 0
M  V30 2324 H 217.141 1.98715 3.08071 0
M  V30 2325 H 216.789 0.436426 5.01103 0
M  V30 2326 H 216.489 2.12964 5.4765 0
M  V30 2327 H 218.013 1.33176 5.959 0
M  V30 2328 H 219.427 3.24123 4.72882 0
M  V30 2329 H 217.824 3.99237 4.48029 0
M  V30 2330 H 218.894 3.73692 3.09002 0
M  V30 2331 N 220.237 -1.11381 1.11499 0
M  V30 2332 C 221.484 -1.83132 0.864231 0
M  V30 2333 C 221.812 -1.84683 -0.610114 0
M  V30 2334 O 221.067 -1.29589 -1.46646 0
M  V30 2335 C 221.366 -3.30026 1.37177 0
M  V30 2336 C 221.032 -3.48634 2.85946 0
M  V30 2337 C 219.694 -3.53421 3.26569 0
M  V30 2338 C 222.046 -3.54837 3.81759 0
M  V30 2339 C 219.374 -3.61967 4.61733 0
M  V30 2340 C 221.726 -3.64915 5.1674 0
M  V30 2341 C 220.39 -3.67962 5.5692 0
M  V30 2342 H 219.66 -0.670127 0.316245 0
M  V30 2343 H 222.307 -1.31354 1.3935 0
M  V30 2344 H 220.612 -3.84304 0.762753 0
M  V30 2345 H 222.309 -3.84034 1.15408 0
M  V30 2346 H 218.899 -3.45579 2.53521 0
M  V30 2347 H 223.083 -3.50399 3.51474 0
M  V30 2348 H 218.339 -3.62603 4.92269 0
M  V30 2349 H 222.513 -3.68658 5.90816 0
M  V30 2350 H 220.14 -3.74336 6.61647 0
M  V30 2351 N 221.715 -0.905404 -1.28997 0
M  V30 2352 C 222.963 -0.533192 -1.9494 0
M  V30 2353 C 223.284 0.924618 -1.71685 0
M  V30 2354 O 222.554 1.65268 -1.05183 0
M  V30 2355 H 221.134 -0.194194 -0.721317 0
M  V30 2356 H 223.796 -1.15294 -1.57141 0
M  V30 2357 H 222.892 -0.72059 -3.03667 0
M  V30 2358 N 223.193 1.4272 -0.668489 0
M  V30 2359 C 224.418 2.06484 -0.194758 0
M  V30 2360 C 224.843 1.49862 1.13679 0
M  V30 2361 O 224.201 0.614582 1.70565 0
M  V30 2362 C 224.249 3.60353 -0.133546 0
M  V30 2363 O 223.353 4.02464 0.899806 0
M  V30 2364 H 222.694 0.656137 -0.10188 0
M  V30 2365 H 225.224 1.82964 -0.915722 0
M  V30 2366 H 225.234 4.07976 0.0447041 0
M  V30 2367 H 223.909 4.00938 -1.1055 0
M  V30 2368 H 222.486 3.66402 0.693109 0
M  V30 2369 N 224.671 0.411399 1.52136 0
M  V30 2370 C 225.92 -0.165009 2.01024 0
M  V30 2371 C 226.233 -1.4603 1.30133 0
M  V30 2372 O 227.439 -2.1181 1.69849 0
M  V30 2373 C 225.895 -0.344618 3.58246 0
M  V30 2374 C 225.503 0.938716 4.38055 0
M  V30 2375 C 227.247 -0.876195 4.15359 0
M  V30 2376 C 225.154 0.726172 5.86925 0
M  V30 2377 H 224.084 -0.0654407 0.751155 0
M  V30 2378 H 226.735 0.537192 1.75461 0
M  V30 2379 H 225.117 -1.10921 3.80148 0
M  V30 2380 H 226.291 1.70963 4.27912 0
M  V30 2381 H 224.606 1.39688 3.92271 0
M  V30 2382 H 227.203 -1.05128 5.24263 0
M  V30 2383 H 227.546 -1.85152 3.7286 0
M  V30 2384 H 228.079 -0.170607 3.97434 0
M  V30 2385 H 224.818 1.67312 6.33788 0
M  V30 2386 H 224.338 -0.00540283 5.998 0
M  V30 2387 H 226.017 0.369231 6.45946 0
M  V30 2388 N 226.149 -1.5696 0.141893 0
M  V30 2389 C 227.426 -1.87553 -0.555281 0
M  V30 2390 C 227.806 -1.04699 -1.83306 0
M  V30 2391 O 227.154 -0.132346 -2.28116 0
M  V30 2392 C 227.364 -3.39093 -0.825664 0
M  V30 2393 C 228.712 -4.08199 -1.16869 0
M  V30 2394 O 229.736 -3.44242 -0.915185 0
M  V30 2395 O 228.595 -5.21139 -1.6455 0
M  V30 2396 H 225.689 -0.777188 -0.282679 0
M  V30 2397 H 228.235 -1.68763 0.17812 0
M  V30 2398 H 227.007 -3.91221 0.0788633 0
M  V30 2399 H 226.63 -3.63393 -1.61343 0
M  V30 2400 N 227.627 0.131896 -1.57047 0
M  V30 2401 C 228.537 1.1815 -2.02676 0
M  V30 2402 C 229.553 1.46113 -0.944824 0
M  V30 2403 O 230.729 1.57485 -1.25541 0
M  V30 2404 C 227.794 2.49139 -2.41103 0
M  V30 2405 C 226.855 2.28688 -3.63318 0
M  V30 2406 C 226.088 3.53431 -3.99903 0
M  V30 2407 O 226.311 4.60223 -3.36973 0
M  V30 2408 O 225.245 3.45198 -4.93074 0
M  V30 2409 H 229.071 0.824069 -2.92306 0
M  V30 2410 H 226.656 0.341745 -1.45439 0
M  V30 2411 H 228.538 3.26338 -2.66611 0
M  V30 2412 H 227.213 2.84382 -1.54624 0
M  V30 2413 H 226.12 1.4939 -3.42977 0
M  V30 2414 H 227.453 1.98355 -4.50462 0
M  V30 2415 N 229.106 1.52395 0.401703 0
M  V30 2416 C 230.069 1.75636 1.47257 0
M  V30 2417 C 231.069 0.62628 1.48103 0
M  V30 2418 O 232.259 0.894227 1.49497 0
M  V30 2419 C 229.391 1.84553 2.86624 0
M  V30 2420 H 230.584 2.71241 1.27938 0
M  V30 2421 H 228.137 1.42923 0.632662 0
M  V30 2422 H 228.872 0.908882 3.11303 0
M  V30 2423 H 228.657 2.66715 2.87412 0
M  V30 2424 H 230.147 2.04251 3.64241 0
M  V30 2425 N 230.584 -0.659388 1.43143 0
M  V30 2426 C 231.83 -1.42145 1.44647 0
M  V30 2427 C 232.163 -1.9408 0.0681907 0
M  V30 2428 O 231.438 -1.71899 -0.910007 0
M  V30 2429 C 231.721 -2.60735 2.48373 0
M  V30 2430 C 231.574 -2.14332 3.95451 0
M  V30 2431 C 232.893 -3.62951 2.48906 0
M  V30 2432 H 230.012 -0.51552 0.526696 0
M  V30 2433 H 232.654 -0.748069 1.74654 0
M  V30 2434 H 230.804 -3.18184 2.22916 0
M  V30 2435 H 232.476 -1.61932 4.31944 0
M  V30 2436 H 230.719 -1.4576 4.08578 0
M  V30 2437 H 231.39 -2.99583 4.63631 0
M  V30 2438 H 233.866 -3.1525 2.71582 0
M  V30 2439 H 232.742 -4.43487 3.23435 0
M  V30 2440 H 233.003 -4.15126 1.52061 0
M  V30 2441 N 232.062 -1.29571 -0.897171 0
M  V30 2442 C 233.31 -1.17456 -1.64464 0
M  V30 2443 C 233.631 0.273698 -1.9307 0
M  V30 2444 O 232.901 1.18684 -1.55855 0
M  V30 2445 H 231.481 -0.431706 -0.609622 0
M  V30 2446 H 234.143 -1.62531 -1.07562 0
M  V30 2447 H 233.239 -1.72648 -2.59998 0
M  V30 2448 N 233.54 1.10788 -1.12088 0
M  V30 2449 C 234.487 2.17025 -0.785407 0
M  V30 2450 C 235.457 1.64265 0.246191 0
M  V30 2451 O 236.642 1.90412 0.121584 0
M  V30 2452 C 233.782 3.44249 -0.242177 0
M  V30 2453 C 232.895 4.1098 -1.33115 0
M  V30 2454 C 232.03 5.25911 -0.747741 0
M  V30 2455 C 231.069 5.84538 -1.81609 0
M  V30 2456 N 230.206 6.90853 -1.25167 0
M  V30 2457 H 235.046 2.45066 -1.69548 0
M  V30 2458 H 232.583 1.20297 -0.846582 0
M  V30 2459 H 234.541 4.17101 0.0908026 0
M  V30 2460 H 233.171 3.16571 0.631072 0
M  V30 2461 H 232.223 3.36133 -1.78097 0
M  V30 2462 H 233.535 4.50601 -2.13917 0
M  V30 2463 H 232.689 6.056 -0.365216 0
M  V30 2464 H 231.428 4.87614 0.0915188 0
M  V30 2465 H 230.433 5.03522 -2.20785 0
M  V30 2466 H 231.658 6.249 -2.6585 0
M  V30 2467 H 229.604 6.54562 -0.434174 0
M  V30 2468 H 229.521 7.29166 -1.99633 0
M  V30 2469 H 230.789 7.7433 -0.896259 0
M  V30 2470 N 235.018 0.912232 1.28515 0
M  V30 2471 C 236.429 0.591352 1.77087 0
M  V30 2472 C 236.78 -0.8933 1.74684 0
M  V30 2473 O 235.905 -1.69876 1.34056 0
M  V30 2474 C 236.5 1.06668 3.2157 0
M  V30 2475 C 235.059 0.79675 3.67871 0
M  V30 2476 C 234.206 1.23427 2.48316 0
M  V30 2477 H 237.157 1.09365 1.15 0
M  V30 2478 H 237.178 0.407455 3.78312 0
M  V30 2479 H 236.69 2.14726 3.23287 0
M  V30 2480 H 234.791 -0.270679 3.71616 0
M  V30 2481 H 234.904 1.40343 4.58084 0
M  V30 2482 H 233.268 0.653036 2.46186 0
M  V30 2483 H 234.051 2.32316 2.52753 0
M  V30 2484 N 236.496 -1.42363 0.676048 0
M  V30 2485 C 237.446 -2.27987 -0.0242903 0
M  V30 2486 C 238.43 -1.41153 -0.772319 0
M  V30 2487 O 239.622 -1.64592 -0.651025 0
M  V30 2488 C 236.751 -3.29195 -0.973953 0
M  V30 2489 C 235.837 -4.23512 -0.223202 0
M  V30 2490 N 236.228 -4.99865 0.772589 0
M  V30 2491 C 234.526 -4.43606 -0.461469 0
M  V30 2492 C 235.227 -5.68757 1.22027 0
M  V30 2493 N 234.203 -5.40811 0.549975 0
M  V30 2494 H 238.005 -2.84445 0.73949 0
M  V30 2495 H 235.519 -1.54341 0.50522 0
M  V30 2496 H 237.516 -3.89339 -1.49067 0
M  V30 2497 H 236.176 -2.74298 -1.73755 0
M  V30 2498 H 237.187 -5.04921 1.15217 0
M  V30 2499 H 233.864 -3.99749 -1.20446 0
M  V30 2500 H 235.254 -6.40007 2.0455 0
M  V30 2501 N 237.974 -0.419461 -1.51915 0
M  V30 2502 C 239.222 0.152637 -2.01523 0
M  V30 2503 C 239.543 1.44762 -1.30649 0
M  V30 2504 O 238.813 1.90997 -0.435535 0
M  V30 2505 H 237.393 0.0593966 -0.744635 0
M  V30 2506 H 240.055 -0.558073 -1.86739 0
M  V30 2507 H 239.151 0.341369 -3.10227 0
M  V30 2508 N 239.452 1.56882 -0.150215 0
M  V30 2509 C 240.701 1.95403 0.500071 0
M  V30 2510 C 241.014 1.03777 1.658 0
M  V30 2511 O 242.22 1.31889 2.37313 0
M  V30 2512 C 240.676 3.4738 0.941018 0
M  V30 2513 C 240.284 4.47596 -0.190158 0
M  V30 2514 C 242.028 3.9476 1.56091 0
M  V30 2515 C 239.935 5.90787 0.269237 0
M  V30 2516 H 238.865 0.729515 0.190588 0
M  V30 2517 H 241.516 1.81988 -0.235074 0
M  V30 2518 H 239.898 3.56138 1.73152 0
M  V30 2519 H 241.072 4.50536 -0.967157 0
M  V30 2520 H 239.387 4.10151 -0.718666 0
M  V30 2521 H 241.984 4.99181 1.9163 0
M  V30 2522 H 242.327 3.36494 2.45107 0
M  V30 2523 H 242.86 3.88932 0.835249 0
M  V30 2524 H 239.599 6.52879 -0.585621 0
M  V30 2525 H 239.119 5.912 1.01204 0
M  V30 2526 H 240.798 6.42979 0.720176 0
M  V30 2527 N 240.93 -0.123565 1.57115 0
M  V30 2528 C 241.893 -1.13583 1.99076 0
M  V30 2529 C 242.893 -1.34564 0.880296 0
M  V30 2530 O 244.083 -1.31158 1.14644 0
M  V30 2531 C 241.215 -2.49128 2.32698 0
M  V30 2532 H 242.408 -0.775287 2.89706 0
M  V30 2533 H 239.961 -0.36771 1.51913 0
M  V30 2534 H 240.696 -2.90111 1.44934 0
M  V30 2535 H 240.481 -2.35255 3.13684 0
M  V30 2536 H 241.971 -3.2199 2.65918 0
M  V30 2537 N 242.408 -1.52605 -0.393616 0
M  V30 2538 C 243.657 -1.66649 -1.13627 0
M  V30 2539 C 243.97 -0.410364 -1.91247 0
M  V30 2540 O 245.176 -0.430854 -2.68059 0
M  V30 2541 C 243.632 -2.9449 -2.06891 0
M  V30 2542 C 243.24 -4.27266 -1.34714 0
M  V30 2543 C 244.984 -3.17899 -2.81319 0
M  V30 2544 C 242.891 -5.46217 -2.26717 0
M  V30 2545 H 241.821 -0.62084 -0.427871 0
M  V30 2546 H 244.472 -1.791 -0.399428 0
M  V30 2547 H 242.854 -2.75774 -2.84191 0
M  V30 2548 H 244.028 -4.56518 -0.626714 0
M  V30 2549 H 242.343 -4.10081 -0.722643 0
M  V30 2550 H 244.94 -4.03949 -3.50328 0
M  V30 2551 H 245.283 -2.32777 -3.45139 0
M  V30 2552 H 245.816 -3.37159 -2.11113 0
M  V30 2553 H 242.555 -6.33733 -1.67521 0
M  V30 2554 H 242.075 -5.21283 -2.96689 0
M  V30 2555 H 243.754 -5.7991 -2.86903 0
M  V30 2556 N 243.887 0.651787 -1.4349 0
M  V30 2557 C 245.136 1.40754 -1.44469 0
M  V30 2558 C 245.449 1.95463 -0.0731845 0
M  V30 2559 O 246.655 2.71471 0.0395721 0
M  V30 2560 C 245.111 2.54735 -2.5424 0
M  V30 2561 C 244.719 2.06628 -3.97504 0
M  V30 2562 C 246.463 3.32092 -2.64414 0
M  V30 2563 C 244.37 3.17829 -4.98737 0
M  V30 2564 H 243.3 0.528862 -0.53742 0
M  V30 2565 H 245.951 0.703365 -1.69485 0
M  V30 2566 H 244.333 3.2763 -2.22428 0
M  V30 2567 H 245.507 1.40734 -4.38783 0
M  V30 2568 H 243.822 1.42146 -3.91387 0
M  V30 2569 H 246.419 4.14952 -3.37223 0
M  V30 2570 H 246.762 3.80217 -1.69532 0
M  V30 2571 H 247.295 2.66279 -2.95534 0
M  V30 2572 H 244.034 2.74671 -5.95177 0
M  V30 2573 H 243.554 3.82429 -4.62069 0
M  V30 2574 H 245.233 3.82937 -5.21505 0
M  V30 2575 N 245.365 1.30045 0.890287 0
M  V30 2576 C 246.328 1.15963 1.977 0
M  V30 2577 C 247.328 0.0923777 1.60534 0
M  V30 2578 O 248.518 0.340071 1.70848 0
M  V30 2579 C 245.65 0.775451 3.31963 0
M  V30 2580 H 246.843 2.12502 2.11619 0
M  V30 2581 H 244.396 1.13366 1.07601 0
M  V30 2582 H 245.131 -0.189671 3.23745 0
M  V30 2583 H 244.916 1.54668 3.60306 0
M  V30 2584 H 246.406 0.700251 4.11687 0
M  V30 2585 N 246.843 -1.10192 1.12674 0
M  V30 2586 C 247.773 -2.18652 0.819362 0
M  V30 2587 C 248.754 -1.68698 -0.217915 0
M  V30 2588 O 249.939 -1.94041 -0.0785581 0
M  V30 2589 C 247.069 -3.46202 0.27594 0
M  V30 2590 C 246.023 -4.09444 1.24656 0
M  V30 2591 C 245.349 -5.31725 0.563258 0
M  V30 2592 C 246.649 -4.52863 2.60217 0
M  V30 2593 H 248.343 -2.44622 1.72628 0
M  V30 2594 H 245.889 -1.17571 0.831451 0
M  V30 2595 H 247.842 -4.21372 0.0486149 0
M  V30 2596 H 246.566 -3.1973 -0.666331 0
M  V30 2597 H 245.225 -3.36284 1.45974 0
M  V30 2598 H 244.873 -5.0153 -0.384235 0
M  V30 2599 H 244.573 -5.74991 1.21075 0
M  V30 2600 H 246.097 -6.09624 0.34503 0
M  V30 2601 H 247.511 -5.19294 2.42913 0
M  V30 2602 H 245.908 -5.06986 3.21068 0
M  V30 2603 H 246.978 -3.65656 3.18471 0
M  V30 2604 N 248.321 -0.919034 -1.28029 0
M  V30 2605 C 249.568 -0.554934 -1.94748 0
M  V30 2606 C 249.896 0.90231 -1.72304 0
M  V30 2607 O 249.151 1.65767 -1.04018 0
M  V30 2608 C 249.45 -0.816855 -3.4794 0
M  V30 2609 C 249.116 -2.25448 -3.90492 0
M  V30 2610 C 247.778 -2.64752 -4.01821 0
M  V30 2611 C 250.13 -3.18977 -4.12193 0
M  V30 2612 C 247.458 -3.96727 -4.32232 0
M  V30 2613 C 249.81 -4.50523 -4.44086 0
M  V30 2614 C 248.474 -4.89673 -4.53626 0
M  V30 2615 H 247.744 -0.203065 -0.712633 0
M  V30 2616 H 250.391 -1.16136 -1.52265 0
M  V30 2617 H 248.696 -0.127677 -3.91592 0
M  V30 2618 H 250.393 -0.514238 -3.97689 0
M  V30 2619 H 246.983 -1.93952 -3.82205 0
M  V30 2620 H 251.167 -2.89817 -4.02889 0
M  V30 2621 H 246.423 -4.26754 -4.37825 0
M  V30 2622 H 250.597 -5.23005 -4.59825 0
M  V30 2623 H 248.224 -5.91969 -4.76946 0
M  V30 2624 N 249.799 1.42003 -0.683588 0
M  V30 2625 C 251.045 2.01712 -0.209825 0
M  V30 2626 C 251.378 1.53968 1.18353 0
M  V30 2627 O 250.653 0.745661 1.79639 0
M  V30 2628 C 250.936 3.59202 -0.254197 0
M  V30 2629 C 250.789 4.17102 -1.68363 0
M  V30 2630 C 252.108 4.38344 0.392709 0
M  V30 2631 H 249.227 0.732891 -0.0777189 0
M  V30 2632 H 251.869 1.68909 -0.87004 0
M  V30 2633 H 250.019 3.87278 0.307954 0
M  V30 2634 H 251.691 3.99946 -2.29871 0
M  V30 2635 H 249.934 3.72597 -2.22157 0
M  V30 2636 H 250.605 5.26249 -1.6663 0
M  V30 2637 H 253.081 4.16011 -0.0859162 0
M  V30 2638 H 251.957 5.47901 0.331063 0
M  V30 2639 H 252.218 4.16887 1.47164 0
M  V30 2640 N 251.277 0.427512 1.51691 0
M  V30 2641 C 252.209 -0.424521 2.25234 0
M  V30 2642 C 253.222 -0.994671 1.2888 0
M  V30 2643 O 254.411 -0.890483 1.54702 0
M  V30 2644 C 251.511 -1.60479 2.98496 0
M  V30 2645 C 250.684 -1.15527 4.21868 0
M  V30 2646 C 249.743 -2.20454 4.77793 0
M  V30 2647 O 248.769 -1.8029 5.39893 0
M  V30 2648 N 249.971 -3.52831 4.60967 0
M  V30 2649 H 252.736 0.205749 2.98993 0
M  V30 2650 H 250.297 0.255867 1.59865 0
M  V30 2651 H 252.289 -2.30276 3.32799 0
M  V30 2652 H 250.859 -2.14061 2.27809 0
M  V30 2653 H 250.079 -0.284736 3.9317 0
M  V30 2654 H 251.367 -0.832173 5.01949 0
M  V30 2655 H 250.765 -3.88201 4.11481 0
M  V30 2656 H 249.322 -4.18551 4.99658 0
M  V30 2657 N 252.755 -1.56801 0.158532 0
M  V30 2658 C 254.004 -1.95665 -0.489702 0
M  V30 2659 C 254.317 -1.04654 -1.65248 0
M  V30 2660 O 255.523 -1.33146 -2.3661 0
M  V30 2661 C 253.979 -3.47874 -0.922582 0
M  V30 2662 C 253.587 -4.47489 0.213893 0
M  V30 2663 C 255.331 -3.95583 -1.53996 0
M  V30 2664 C 253.238 -5.90921 -0.237903 0
M  V30 2665 H 252.168 -0.730516 -0.186716 0
M  V30 2666 H 254.819 -1.81861 0.244722 0
M  V30 2667 H 253.201 -3.57051 -1.71261 0
M  V30 2668 H 254.375 -4.50017 0.991036 0
M  V30 2669 H 252.69 -4.09764 0.740407 0
M  V30 2670 H 255.287 -5.0019 -1.8898 0
M  V30 2671 H 255.63 -3.37789 -2.43319 0
M  V30 2672 H 256.163 -3.8937 -0.814611 0
M  V30 2673 H 252.902 -6.52559 0.620236 0
M  V30 2674 H 252.422 -5.91729 -0.980676 0
M  V30 2675 H 254.101 -6.43352 -0.686067 0
M  V30 2676 N 254.233 0.115231 -1.57178 0
M  V30 2677 C 255.481 0.820727 -1.84685 0
M  V30 2678 C 255.802 1.80237 -0.744279 0
M  V30 2679 O 255.072 1.94529 0.231375 0
M  V30 2680 H 253.652 0.306084 -0.681411 0
M  V30 2681 H 256.314 0.101656 -1.94635 0
M  V30 2682 H 255.41 1.36366 -2.80733 0
M  V30 2683 N 255.711 1.52812 0.385517 0
M  V30 2684 C 256.658 1.77838 1.47113 0
M  V30 2685 C 257.628 0.621757 1.54024 0
M  V30 2686 O 258.813 0.861846 1.70226 0
M  V30 2687 C 255.953 1.95618 2.84302 0
M  V30 2688 C 255.066 3.23316 2.86515 0
M  V30 2689 C 254.201 3.31394 4.15152 0
M  V30 2690 C 253.24 4.53201 4.1143 0
M  V30 2691 N 252.377 4.58542 5.3168 0
M  V30 2692 H 257.217 2.70482 1.25073 0
M  V30 2693 H 254.754 1.34006 0.606692 0
M  V30 2694 H 256.712 2.03912 3.63972 0
M  V30 2695 H 255.342 1.06331 3.04784 0
M  V30 2696 H 254.394 3.24076 1.99195 0
M  V30 2697 H 255.706 4.13045 2.79634 0
M  V30 2698 H 254.86 3.3889 5.03228 0
M  V30 2699 H 253.599 2.39645 4.24761 0
M  V30 2700 H 252.604 4.45827 3.21742 0
M  V30 2701 H 253.829 5.46271 4.03442 0
M  V30 2702 H 251.775 3.69686 5.41912 0
M  V30 2703 H 251.692 5.42148 5.26889 0
M  V30 2704 H 252.96 4.70296 6.21644 0
M  V30 2705 N 257.189 -0.644168 1.43834 0
M  V30 2706 C 258.099 -1.78563 1.52159 0
M  V30 2707 C 259.115 -1.69147 0.408069 0
M  V30 2708 O 260.291 -1.90156 0.663524 0
M  V30 2709 C 257.356 -3.14888 1.45073 0
M  V30 2710 C 256.417 -3.36034 2.6717 0
M  V30 2711 C 255.65 -4.65855 2.60413 0
M  V30 2712 O 255.873 -5.45805 1.65689 0
M  V30 2713 O 254.807 -4.88918 3.5106 0
M  V30 2714 H 258.633 -1.74494 2.48567 0
M  V30 2715 H 256.218 -0.80378 1.25935 0
M  V30 2716 H 258.1 -3.96179 1.43597 0
M  V30 2717 H 256.775 -3.19528 0.518037 0
M  V30 2718 H 255.682 -2.54472 2.74217 0
M  V30 2719 H 257.015 -3.36247 3.59442 0
M  V30 2720 N 258.668 -1.30515 -0.883378 0
M  V30 2721 C 259.618 -1.13641 -1.9766 0
M  V30 2722 C 260.602 -0.0511314 -1.60819 0
M  V30 2723 O 261.794 -0.274623 -1.74857 0
M  V30 2724 C 258.923 -0.831976 -3.33066 0
M  V30 2725 C 258.009 -1.95759 -3.76217 0
M  V30 2726 N 258.4 -3.20313 -3.9145 0
M  V30 2727 C 256.698 -1.85431 -4.05625 0
M  V30 2728 C 257.399 -3.93856 -4.2808 0
M  V30 2729 N 256.375 -3.21919 -4.38029 0
M  V30 2730 H 260.177 -2.08106 -2.07531 0
M  V30 2731 H 257.691 -1.21877 -1.0733 0
M  V30 2732 H 259.688 -0.692102 -4.11115 0
M  V30 2733 H 258.348 0.104588 -3.24532 0
M  V30 2734 H 259.359 -3.55583 -3.76538 0
M  V30 2735 H 256.036 -0.991531 -4.05555 0
M  V30 2736 H 257.426 -5.01125 -4.47575 0
M  V30 2737 N 260.146 1.09593 -1.13257 0
M  V30 2738 C 261.392 1.82003 -0.89458 0
M  V30 2739 C 261.725 1.85402 0.577906 0
M  V30 2740 O 261 1.32099 1.42759 0
M  V30 2741 C 261.283 3.28237 -1.48096 0
M  V30 2742 C 261.136 3.3312 -3.02244 0
M  V30 2743 C 262.455 4.24871 -1.14774 0
M  V30 2744 H 259.574 0.66077 -0.326424 0
M  V30 2745 H 262.216 1.28389 -1.40058 0
M  V30 2746 H 260.366 3.74024 -1.05062 0
M  V30 2747 H 262.038 2.95748 -3.54021 0
M  V30 2748 H 260.281 2.72756 -3.37323 0
M  V30 2749 H 260.952 4.3613 -3.38371 0
M  V30 2750 H 263.428 3.87361 -1.51957 0
M  V30 2751 H 262.304 5.25532 -1.58452 0
M  V30 2752 H 262.565 4.42058 -0.0611849 0
M  V30 2753 N 261.624 0.925811 1.2754 0
M  V30 2754 C 262.872 0.564138 1.94067 0
M  V30 2755 C 263.193 -0.897188 1.73134 0
M  V30 2756 O 262.463 -1.63573 1.07799 0
M  V30 2757 H 261.043 0.205645 0.718136 0
M  V30 2758 H 263.705 1.1778 1.55287 0
M  V30 2759 H 262.801 0.76881 3.02483 0
M  V30 2760 N 263.102 -1.41638 0.69111 0
M  V30 2761 C 264.032 -2.3347 0.037248 0
M  V30 2762 C 265.013 -1.51575 -0.771947 0
M  V30 2763 O 266.198 -1.80126 -0.72582 0
M  V30 2764 C 263.328 -3.35354 -0.903064 0
M  V30 2765 C 262.282 -4.27526 -0.201288 0
M  V30 2766 C 261.608 -5.19747 -1.25565 0
M  V30 2767 C 262.908 -5.13959 0.929689 0
M  V30 2768 H 264.602 -2.88397 0.804227 0
M  V30 2769 H 262.148 -1.38669 0.388189 0
M  V30 2770 H 264.101 -3.98519 -1.36969 0
M  V30 2771 H 262.825 -2.78767 -1.70166 0
M  V30 2772 H 261.484 -3.65779 0.245265 0
M  V30 2773 H 261.132 -4.59479 -2.04666 0
M  V30 2774 H 260.832 -5.8225 -0.791128 0
M  V30 2775 H 262.356 -5.85789 -1.72288 0
M  V30 2776 H 263.77 -5.70718 0.543546 0
M  V30 2777 H 262.167 -5.85379 1.32103 0
M  V30 2778 H 263.237 -4.51389 1.77133 0
M  V30 2779 N 264.58 -0.43555 -1.51462 0
M  V30 2780 C 265.527 0.376797 -2.27703 0
M  V30 2781 C 266.497 1.01838 -1.31219 0
M  V30 2782 O 267.682 1.03762 -1.60119 0
M  V30 2783 C 264.822 1.47301 -3.12084 0
M  V30 2784 C 263.935 0.849744 -4.2356 0
M  V30 2785 C 263.07 1.92086 -4.95254 0
M  V30 2786 C 262.109 1.27593 -5.98654 0
M  V30 2787 N 261.246 2.28833 -6.63762 0
M  V30 2788 H 266.086 -0.279734 -2.96684 0
M  V30 2789 H 263.623 -0.149795 -1.46335 0
M  V30 2790 H 265.581 2.11984 -3.59331 0
M  V30 2791 H 264.211 2.0992 -2.45221 0
M  V30 2792 H 263.263 0.0912529 -3.80291 0
M  V30 2793 H 264.575 0.338878 -4.97648 0
M  V30 2794 H 263.729 2.64435 -5.46039 0
M  V30 2795 H 262.468 2.46545 -4.20793 0
M  V30 2796 H 261.473 0.537893 -5.47162 0
M  V30 2797 H 262.698 0.738693 -6.7507 0
M  V30 2798 H 260.644 2.82375 -5.92115 0
M  V30 2799 H 260.561 1.82632 -7.33608 0
M  V30 2800 H 261.829 3.00671 -7.19178 0
M  V30 2801 N 266.058 1.56714 -0.166846 0
M  V30 2802 C 267.021 2.16539 0.751232 0
M  V30 2803 C 268.021 1.11228 1.16125 0
M  V30 2804 O 269.211 1.36765 1.07894 0
M  V30 2805 C 266.343 2.74462 2.02196 0
M  V30 2806 H 267.536 2.99013 0.230499 0
M  V30 2807 H 265.089 1.56081 0.0826982 0
M  V30 2808 H 265.824 1.95709 2.58589 0
M  V30 2809 H 265.609 3.51527 1.73698 0
M  V30 2810 H 267.099 3.20489 2.67725 0
M  V30 2811 N 267.536 -0.106894 1.57237 0
M  V30 2812 C 268.782 -0.81373 1.85759 0
M  V30 2813 C 269.115 -1.78952 0.754315 0
M  V30 2814 O 268.39 -1.93029 -0.23879 0
M  V30 2815 C 268.673 -1.55293 3.24894 0
M  V30 2816 C 268.526 -0.595929 4.45835 0
M  V30 2817 C 269.845 -2.5063 3.61763 0
M  V30 2818 H 266.964 -0.294369 0.67566 0
M  V30 2819 H 269.606 -0.0776472 1.89841 0
M  V30 2820 H 267.756 -2.1804 3.21544 0
M  V30 2821 H 269.428 0.0236262 4.61294 0
M  V30 2822 H 267.671 0.0916191 4.33703 0
M  V30 2823 H 268.342 -1.15004 5.39887 0
M  V30 2824 H 270.818 -1.97982 3.65981 0
M  V30 2825 H 269.694 -2.99376 4.60071 0
M  V30 2826 H 269.955 -3.3385 2.89821 0
M  V30 2827 N 269.014 -1.53014 -0.377408 0
M  V30 2828 C 270.242 -1.72515 -1.14219 0
M  V30 2829 C 270.657 -0.448735 -1.8339 0
M  V30 2830 O 270.014 0.577592 -1.73119 0
M  V30 2831 C 270.065 -2.8826 -2.18148 0
M  V30 2832 O 269.786 -4.10962 -1.51795 0
M  V30 2833 C 271.287 -3.19536 -3.07264 0
M  V30 2834 H 268.507 -0.577301 -0.342001 0
M  V30 2835 H 271.051 -1.99712 -0.439935 0
M  V30 2836 H 269.206 -2.63492 -2.83991 0
M  V30 2837 H 269.62 -4.75693 -2.20945 0
M  V30 2838 H 271.094 -4.03959 -3.76193 0
M  V30 2839 H 271.571 -2.34403 -3.71419 0
M  V30 2840 H 272.177 -3.46186 -2.47053 0
M  V30 2841 N 270.492 0.636531 -1.44174 0
M  V30 2842 C 271.402 1.77754 -1.53103 0
M  V30 2843 C 272.418 1.68928 -0.417034 0
M  V30 2844 O 273.594 1.89801 -0.6736 0
M  V30 2845 C 270.659 3.14115 -1.46741 0
M  V30 2846 C 269.72 3.34612 -2.68948 0
M  V30 2847 C 268.953 4.64467 -2.6288 0
M  V30 2848 O 269.176 5.44919 -1.68581 0
M  V30 2849 O 268.11 4.87049 -3.53648 0
M  V30 2850 H 271.936 1.73174 -2.49489 0
M  V30 2851 H 269.521 0.79709 -1.2636 0
M  V30 2852 H 271.403 3.95412 -1.45696 0
M  V30 2853 H 270.078 3.19249 -0.534975 0
M  V30 2854 H 268.985 2.53014 -2.75562 0
M  V30 2855 H 270.318 3.34336 -3.61221 0
M  V30 2856 N 271.97 1.30982 0.876444 0
M  V30 2857 C 273.219 1.19658 1.62373 0
M  V30 2858 C 273.532 -0.245636 1.94052 0
M  V30 2859 O 274.738 -0.48049 2.67214 0
M  V30 2860 C 273.194 2.09433 2.92687 0
M  V30 2861 C 272.802 3.58613 2.68516 0
M  V30 2862 C 274.546 2.06893 3.70669 0
M  V30 2863 C 272.453 4.40416 3.94699 0
M  V30 2864 H 271.383 0.444268 0.609214 0
M  V30 2865 H 274.034 1.55791 0.969605 0
M  V30 2866 H 272.416 1.66191 3.59439 0
M  V30 2867 H 273.59 4.10058 2.10212 0
M  V30 2868 H 271.905 3.63063 2.03898 0
M  V30 2869 H 274.502 2.65258 4.64265 0
M  V30 2870 H 274.845 1.05448 4.02724 0
M  V30 2871 H 275.378 2.48301 3.10792 0
M  V30 2872 H 272.117 5.42591 3.67798 0
M  V30 2873 H 271.637 3.93731 4.52477 0
M  V30 2874 H 273.316 4.52294 4.62644 0
M  V30 2875 N 273.449 -1.08991 1.13837 0
M  V30 2876 C 274.379 -2.17771 0.842507 0
M  V30 2877 C 275.36 -1.6892 -0.20001 0
M  V30 2878 O 276.545 -1.94113 -0.0579731 0
M  V30 2879 C 273.675 -3.4589 0.312644 0
M  V30 2880 C 272.629 -4.08099 1.28992 0
M  V30 2881 C 271.955 -5.31098 0.619623 0
M  V30 2882 C 273.255 -4.50077 2.65005 0
M  V30 2883 H 274.949 -2.42777 1.75213 0
M  V30 2884 H 272.495 -1.16682 0.843875 0
M  V30 2885 H 274.448 -4.21297 0.0933043 0
M  V30 2886 H 273.172 -3.20419 -0.632382 0
M  V30 2887 H 271.831 -3.34717 1.49533 0
M  V30 2888 H 271.479 -5.0191 -0.33102 0
M  V30 2889 H 271.179 -5.73674 1.27167 0
M  V30 2890 H 272.703 -6.09224 0.409669 0
M  V30 2891 H 274.117 -5.16688 2.48407 0
M  V30 2892 H 272.514 -5.03553 3.26427 0
M  V30 2893 H 273.584 -3.62257 3.22332 0
M  V30 2894 N 274.927 -0.932562 -1.27047 0
M  V30 2895 C 275.859 -0.392734 -2.2581 0
M  V30 2896 C 276.872 0.479241 -1.55586 0
M  V30 2897 O 278.061 0.291078 -1.76111 0
M  V30 2898 C 275.161 0.455456 -3.35826 0
M  V30 2899 C 274.334 -0.398355 -4.35582 0
M  V30 2900 C 273.393 0.387985 -5.24768 0
M  V30 2901 O 272.419 -0.206003 -5.68827 0
M  V30 2902 N 273.621 1.68664 -5.55457 0
M  V30 2903 H 276.386 -1.24173 -2.72766 0
M  V30 2904 H 273.947 -0.800511 -1.40725 0
M  V30 2905 H 275.939 0.988692 -3.92437 0
M  V30 2906 H 274.509 1.20522 -2.88432 0
M  V30 2907 H 273.729 -1.11286 -3.78165 0
M  V30 2908 H 275.017 -0.981889 -4.99236 0
M  V30 2909 H 274.415 2.19147 -5.21528 0
M  V30 2910 H 272.972 2.1663 -6.14748 0
M  V30 2911 N 276.405 1.4127 -0.698611 0
M  V30 2912 C 277.682 1.94955 -0.158762 0
M  V30 2913 C 278.062 1.63781 1.33188 0
M  V30 2914 O 277.41 0.946423 2.07979 0
M  V30 2915 C 277.62 3.46044 -0.453309 0
M  V30 2916 C 278.968 4.22872 -0.382707 0
M  V30 2917 O 279.992 3.54076 -0.388396 0
M  V30 2918 O 278.851 5.45407 -0.345463 0
M  V30 2919 H 275.945 0.82683 -0.0167505 0
M  V30 2920 H 278.491 1.50971 -0.77498 0
M  V30 2921 H 277.263 3.62028 -1.48498 0
M  V30 2922 H 276.886 3.97128 0.19373 0
M  V30 2923 N 277.883 0.443576 1.51229 0
M  V30 2924 C 279.132 -0.122332 2.01329 0
M  V30 2925 C 279.445 -1.43237 1.33201 0
M  V30 2926 O 280.651 -2.0816 1.74304 0
M  V30 2927 C 279.107 -0.268551 3.58897 0
M  V30 2928 C 278.715 1.03142 4.35965 0
M  V30 2929 C 280.459 -0.787894 4.17124 0
M  V30 2930 C 278.366 0.850504 5.85252 0
M  V30 2931 H 277.296 -0.0494929 0.752374 0
M  V30 2932 H 279.947 0.574289 1.74282 0
M  V30 2933 H 278.329 -1.02832 3.82415 0
M  V30 2934 H 279.503 1.80001 4.24189 0
M  V30 2935 H 277.818 1.47977 3.89219 0
M  V30 2936 H 280.415 -0.939841 5.26375 0
M  V30 2937 H 280.758 -1.77201 3.76703 0
M  V30 2938 H 281.291 -0.0862669 3.97706 0
M  V30 2939 H 278.03 1.80718 6.30096 0
M  V30 2940 H 277.55 0.121825 5.99676 0
M  V30 2941 H 279.229 0.506163 6.45017 0
M  V30 2942 N 279.361 -1.56624 0.175154 0
M  V30 2943 C 280.293 -2.15333 -0.785128 0
M  V30 2944 C 281.306 -1.1099 -1.19101 0
M  V30 2945 O 282.495 -1.38162 -1.13019 0
M  V30 2946 C 279.595 -2.68427 -2.06882 0
M  V30 2947 C 278.768 -3.97466 -1.8259 0
M  V30 2948 C 277.827 -4.35585 -2.95215 0
M  V30 2949 O 276.853 -5.03389 -2.65684 0
M  V30 2950 N 278.055 -3.97457 -4.23094 0
M  V30 2951 H 280.82 -2.98359 -0.283187 0
M  V30 2952 H 278.381 -1.61898 -0.00749817 0
M  V30 2953 H 280.373 -2.90924 -2.81328 0
M  V30 2954 H 278.943 -1.89968 -2.48256 0
M  V30 2955 H 278.163 -3.83307 -0.920287 0
M  V30 2956 H 279.451 -4.81736 -1.63733 0
M  V30 2957 H 278.849 -3.42878 -4.49945 0
M  V30 2958 H 277.406 -4.24947 -4.9423 0
M  V30 2959 N 280.839 0.0985539 -1.57292 0
M  V30 2960 C 282.069 0.815135 -1.8984 0
M  V30 2961 C 282.477 1.7297 -0.766679 0
M  V30 2962 O 281.82 1.81698 0.270483 0
M  V30 2963 C 281.882 1.6842 -3.17608 0
M  V30 2964 C 281.546 0.94182 -4.4719 0
M  V30 2965 C 282.543 0.273212 -5.19182 0
M  V30 2966 C 280.228 0.916927 -4.9386 0
M  V30 2967 C 282.222 -0.410361 -6.36078 0
M  V30 2968 C 279.909 0.229567 -6.10669 0
M  V30 2969 C 280.907 -0.432902 -6.81627 0
M  V30 2970 O 280.595 -1.10925 -7.9621 0
M  V30 2971 H 280.327 0.238501 -0.632529 0
M  V30 2972 H 282.881 0.0812659 -2.05239 0
M  V30 2973 H 281.111 2.46022 -2.98345 0
M  V30 2974 H 282.8 2.27704 -3.36015 0
M  V30 2975 H 283.566 0.283927 -4.84168 0
M  V30 2976 H 279.445 1.42201 -4.3852 0
M  V30 2977 H 282.989 -0.928013 -6.914 0
M  V30 2978 H 278.886 0.216686 -6.45136 0
M  V30 2979 H 279.654 -1.01579 -8.12172 0
M  V30 2980 N 282.317 1.53212 0.369288 0
M  V30 2981 C 283.264 1.79388 1.45219 0
M  V30 2982 C 284.234 0.638059 1.53356 0
M  V30 2983 O 285.419 0.879852 1.69302 0
M  V30 2984 C 282.559 1.98623 2.82211 0
M  V30 2985 C 281.672 3.26337 2.8307 0
M  V30 2986 C 280.807 3.35779 4.11614 0
M  V30 2987 C 279.846 4.5754 4.06601 0
M  V30 2988 N 278.983 4.64155 5.26787 0
M  V30 2989 H 283.823 2.71794 1.22198 0
M  V30 2990 H 281.36 1.34642 0.592444 0
M  V30 2991 H 283.318 2.07761 3.61789 0
M  V30 2992 H 281.948 1.09558 3.03639 0
M  V30 2993 H 281 3.26171 1.95747 0
M  V30 2994 H 282.312 4.15988 2.75237 0
M  V30 2995 H 281.466 3.44208 4.99606 0
M  V30 2996 H 280.205 2.44137 4.22195 0
M  V30 2997 H 279.21 4.49215 3.16996 0
M  V30 2998 H 280.435 5.50519 3.97625 0
M  V30 2999 H 278.381 3.75413 5.3796 0
M  V30 3000 H 278.298 5.47706 5.21109 0
M  V30 3001 H 279.566 4.76863 6.16621 0
M  V30 3002 N 283.795 -0.628877 1.44509 0
M  V30 3003 C 285.043 -1.38565 1.4712 0
M  V30 3004 C 285.364 -1.94712 0.105899 0
M  V30 3005 O 284.634 -1.75912 -0.862079 0
M  V30 3006 H 283.214 -0.514333 0.541729 0
M  V30 3007 H 285.876 -0.740018 1.80305 0
M  V30 3008 H 284.972 -2.21583 2.19789 0
M  V30 3009 N 285.273 -1.31445 -0.869486 0
M  V30 3010 C 286.22 -1.19135 -1.97675 0
M  V30 3011 C 287.19 -0.0770266 -1.65921 0
M  V30 3012 O 288.375 -0.249972 -1.89155 0
M  V30 3013 C 285.515 -0.905149 -3.33018 0
M  V30 3014 C 284.628 -2.10285 -3.77365 0
M  V30 3015 C 283.763 -1.75339 -5.01427 0
M  V30 3016 C 282.802 -2.91515 -5.38224 0
M  V30 3017 N 281.939 -2.56762 -6.53466 0
M  V30 3018 H 286.779 -2.13853 -2.07535 0
M  V30 3019 H 284.316 -1.06379 -1.01597 0
M  V30 3020 H 286.274 -0.719765 -4.10944 0
M  V30 3021 H 284.904 0.00519624 -3.228 0
M  V30 3022 H 283.956 -2.39899 -2.95216 0
M  V30 3023 H 285.268 -2.97237 -4.00564 0
M  V30 3024 H 284.422 -1.53266 -5.87022 0
M  V30 3025 H 283.161 -0.855801 -4.80133 0
M  V30 3026 H 282.166 -3.14237 -4.51149 0
M  V30 3027 H 283.391 -3.81985 -5.61484 0
M  V30 3028 H 281.337 -1.69526 -6.33717 0
M  V30 3029 H 281.254 -3.37243 -6.76612 0
M  V30 3030 H 282.522 -2.38083 -7.42251 0
M  V30 3031 N 286.751 1.08385 -1.14413 0
M  V30 3032 C 287.976 1.85057 -0.936413 0
M  V30 3033 C 288.401 1.81055 0.509971 0
M  V30 3034 O 287.759 1.1958 1.36273 0
M  V30 3035 C 287.807 3.30505 -1.44217 0
M  V30 3036 O 286.911 4.07491 -0.634409 0
M  V30 3037 H 286.252 0.573425 -0.334784 0
M  V30 3038 H 288.782 1.36799 -1.52142 0
M  V30 3039 H 288.792 3.81348 -1.45043 0
M  V30 3040 H 287.467 3.32734 -2.49522 0
M  V30 3041 H 286.044 3.66368 -0.694902 0
M  V30 3042 N 288.23 0.939286 1.26551 0
M  V30 3043 C 289.177 0.446088 2.26448 0
M  V30 3044 C 290.147 -0.493234 1.58608 0
M  V30 3045 O 291.332 -0.409857 1.86346 0
M  V30 3046 C 288.472 -0.284375 3.43926 0
M  V30 3047 C 287.585 0.690399 4.26448 0
M  V30 3048 C 286.72 -0.0610712 5.31165 0
M  V30 3049 C 285.759 0.905649 6.05363 0
M  V30 3050 N 284.896 0.186055 7.01853 0
M  V30 3051 H 289.736 1.30291 2.68008 0
M  V30 3052 H 287.273 0.65371 1.31776 0
M  V30 3053 H 289.231 -0.724313 4.10864 0
M  V30 3054 H 287.861 -1.10535 3.03285 0
M  V30 3055 H 286.913 1.24885 3.59316 0
M  V30 3056 H 288.225 1.42873 4.779 0
M  V30 3057 H 287.379 -0.56038 6.04106 0
M  V30 3058 H 286.118 -0.832297 4.80546 0
M  V30 3059 H 285.123 1.4161 5.3125 0
M  V30 3060 H 286.348 1.67685 6.58072 0
M  V30 3061 H 284.294 -0.566714 6.53548 0
M  V30 3062 H 284.211 0.863752 7.51049 0
M  V30 3063 H 285.479 -0.292221 7.78952 0
M  V30 3064 N 289.708 -1.40897 0.706093 0
M  V30 3065 C 290.936 -2.05373 0.250887 0
M  V30 3066 C 291.351 -1.53172 -1.10381 0
M  V30 3067 O 290.708 -0.684305 -1.69185 0
M  V30 3068 C 290.759 -3.6088 0.211571 0
M  V30 3069 O 290.48 -4.11153 1.51276 0
M  V30 3070 C 291.981 -4.42517 -0.263346 0
M  V30 3071 H 289.201 -0.66115 0.114552 0
M  V30 3072 H 291.745 -1.80479 0.961635 0
M  V30 3073 H 289.9 -3.84777 -0.450073 0
M  V30 3074 H 290.314 -5.05279 1.40689 0
M  V30 3075 H 291.788 -5.51479 -0.239718 0
M  V30 3076 H 292.265 -4.19396 -1.30397 0
M  V30 3077 H 292.871 -4.23708 0.367677 0
M  V30 3078 N 291.186 -0.45159 -1.50991 0
M  V30 3079 C 292.435 0.111653 -2.01391 0
M  V30 3080 C 292.748 1.42529 -1.33959 0
M  V30 3081 O 293.954 2.07232 -1.75405 0
M  V30 3082 C 292.41 0.249514 -3.59034 0
M  V30 3083 C 292.018 -1.05453 -4.35412 0
M  V30 3084 C 293.762 0.765762 -4.17536 0
M  V30 3085 C 291.669 -0.881529 -5.84793 0
M  V30 3086 H 290.599 0.0455022 -0.752626 0
M  V30 3087 H 293.25 -0.583524 -1.73975 0
M  V30 3088 H 291.632 1.00803 -3.82955 0
M  V30 3089 H 292.806 -1.82248 -4.23229 0
M  V30 3090 H 291.121 -1.50039 -3.88429 0
M  V30 3091 H 293.718 0.911913 -5.26866 0
M  V30 3092 H 294.061 1.75201 -3.77638 0
M  V30 3093 H 294.594 0.0651744 -3.97747 0
M  V30 3094 H 291.333 -1.84057 -6.29129 0
M  V30 3095 H 290.853 -0.153625 -5.99603 0
M  V30 3096 H 292.532 -0.540363 -6.4474 0
M  V30 3097 N 292.664 1.56529 -0.183458 0
M  V30 3098 C 294.075 1.83739 0.331177 0
M  V30 3099 C 294.426 1.10373 1.62211 0
M  V30 3100 O 293.551 0.36071 2.13373 0
M  V30 3101 C 294.146 3.33306 0.607646 0
M  V30 3102 C 292.705 3.60969 1.06668 0
M  V30 3103 C 291.852 2.77086 0.109029 0
M  V30 3104 H 294.803 1.53379 -0.407484 0
M  V30 3105 H 294.824 3.51444 1.45832 0
M  V30 3106 H 294.336 3.86677 -0.332086 0
M  V30 3107 H 292.437 3.13021 2.0211 0
M  V30 3108 H 292.55 4.69231 0.967447 0
M  V30 3109 H 290.914 2.47319 0.608714 0
M  V30 3110 H 291.697 3.33241 -0.82494 0
M  V30 3111 N 294.142 -0.090211 1.57342 0
M  V30 3112 C 295.382 -0.798365 1.88163 0
M  V30 3113 C 295.746 -1.75662 0.775046 0
M  V30 3114 O 296.947 -2.50849 0.965816 0
M  V30 3115 C 295.218 -1.50376 3.24225 0
M  V30 3116 S 296.777 -2.24952 3.76752 0
M  V30 3117 H 293.595 -0.265883 0.659414 0
M  V30 3118 H 296.197 -0.055264 1.95422 0
M  V30 3119 H 294.901 -0.792286 4.0268 0
M  V30 3120 H 294.432 -2.28666 3.20118 0
M  V30 3121 H 296.447 -3.51173 3.5056 0
M  V30 3122 N 295.62 -1.53406 -0.361157 0
M  V30 3123 C 296.867 -1.69802 -1.10333 0
M  V30 3124 C 297.195 -0.452087 -1.89173 0
M  V30 3125 O 296.45 0.566017 -1.87336 0
M  V30 3126 C 296.749 -2.90211 -2.08596 0
M  V30 3127 C 296.415 -4.26539 -1.46203 0
M  V30 3128 C 295.077 -4.6361 -1.28915 0
M  V30 3129 C 297.429 -5.113 -1.01101 0
M  V30 3130 C 294.757 -5.83075 -0.651157 0
M  V30 3131 C 297.109 -6.31415 -0.387007 0
M  V30 3132 C 295.773 -6.67195 -0.201657 0
M  V30 3133 H 295.043 -0.621351 -0.403737 0
M  V30 3134 H 297.69 -1.87598 -0.384609 0
M  V30 3135 H 295.995 -2.66946 -2.86788 0
M  V30 3136 H 297.692 -3.00091 -2.65982 0
M  V30 3137 H 294.282 -3.97352 -1.60653 0
M  V30 3138 H 298.466 -4.83206 -1.13249 0
M  V30 3139 H 293.722 -6.09385 -0.496006 0
M  V30 3140 H 297.896 -6.96394 -0.0293563 0
M  V30 3141 H 295.523 -7.59628 0.294766 0
M  V30 3142 N 297.098 0.621204 -1.44841 0
M  V30 3143 C 298.046 1.75385 -1.52784 0
M  V30 3144 C 299.04 1.64639 -0.398779 0
M  V30 3145 O 300.246 1.70598 -0.574137 0
M  V30 3146 H 296.621 0.579193 -0.479625 0
M  V30 3147 H 298.592 1.6581 -2.48092 0
M  V30 3148 C 297.341 3.13742 -1.4987 0
M  V30 3149 H 296.664 3.22663 -2.36069 0
M  V30 3150 H 298.104 3.92861 -1.59487 0
M  V30 3151 C 296.563 3.36175 -0.220973 0
M  V30 3152 O 297.093 3.95469 0.704782 0
M  V30 3153 N 295.299 2.90348 -0.120963 0
M  V30 3154 H 294.846 2.42278 -0.875162 0
M  V30 3155 H 294.804 3.05732 0.733168 0
M  V30 3156 N 298.576 1.31904 0.862503 0
M  V30 3157 C 299.987 1.19803 1.43193 0
M  V30 3158 C 300.338 -0.192567 1.95253 0
M  V30 3159 O 299.463 -1.09081 1.86896 0
M  V30 3160 C 300.058 2.16883 2.60283 0
M  V30 3161 C 298.617 2.08692 3.13248 0
M  V30 3162 C 297.764 2.05691 1.85975 0
M  V30 3163 H 300.715 1.43846 0.670365 0
M  V30 3164 H 300.736 1.76278 3.37204 0
M  V30 3165 H 300.248 3.18083 2.22363 0
M  V30 3166 H 298.349 1.10713 3.55771 0
M  V30 3167 H 298.462 2.9815 3.75025 0
M  V30 3168 H 296.826 1.50814 2.05249 0
M  V30 3169 H 297.609 3.08659 1.50282 0
M  V30 3170 N 300.054 -1.07777 1.14986 0
M  V30 3171 C 301.002 -2.16964 0.838406 0
M  V30 3172 C 301.996 -1.68372 -0.186386 0
M  V30 3173 O 303.202 -1.79951 -0.0418465 0
M  V30 3174 H 299.577 -0.708006 0.253439 0
M  V30 3175 H 301.548 -2.40454 1.76704 0
M  V30 3176 C 300.297 -3.4604 0.339335 0
M  V30 3177 H 299.62 -3.83813 1.11927 0
M  V30 3178 H 301.06 -4.23698 0.160021 0
M  V30 3179 C 299.519 -3.23569 -0.938325 0
M  V30 3180 O 300.049 -3.47752 -2.01077 0
M  V30 3181 N 298.255 -2.77079 -0.876117 0
M  V30 3182 H 297.802 -2.576 -0.00322037 0
M  V30 3183 H 297.76 -2.62422 -1.73153 0
M  V30 3184 N 301.532 -0.945985 -1.26051 0
M  V30 3185 C 302.76 -0.613025 -1.9761 0
M  V30 3186 C 303.175 0.813035 -1.70397 0
M  V30 3187 O 302.532 1.54274 -0.974979 0
M  V30 3188 C 302.583 -0.85159 -3.51326 0
M  V30 3189 O 302.304 -2.22157 -3.77595 0
M  V30 3190 C 303.805 -0.529831 -4.40122 0
M  V30 3191 H 301.025 -0.230593 -0.630133 0
M  V30 3192 H 303.569 -1.268 -1.60443 0
M  V30 3193 H 301.724 -0.243151 -3.86636 0
M  V30 3194 H 302.138 -2.2852 -4.721 0
M  V30 3195 H 303.612 -0.747348 -5.46917 0
M  V30 3196 H 304.089 0.535341 -4.35925 0
M  V30 3197 H 304.695 -1.11721 -4.10364 0
M  V30 3198 N 303.011 1.40521 -0.713556 0
M  V30 3199 C 303.941 2.33381 -0.0743864 0
M  V30 3200 C 304.922 1.52784 0.747735 0
M  V30 3201 O 306.107 1.81258 0.697071 0
M  V30 3202 C 303.237 3.36748 0.849598 0
M  V30 3203 C 302.191 4.27793 0.133247 0
M  V30 3204 C 301.517 5.21679 1.17281 0
M  V30 3205 C 302.817 5.12415 -1.01134 0
M  V30 3206 H 304.511 2.87081 -0.850007 0
M  V30 3207 H 302.057 1.38034 -0.410201 0
M  V30 3208 H 304.01 4.00648 1.30612 0
M  V30 3209 H 302.734 2.81439 1.65709 0
M  V30 3210 H 301.393 3.65342 -0.303426 0
M  V30 3211 H 301.041 4.62677 1.9733 0
M  V30 3212 H 300.741 5.83435 0.698397 0
M  V30 3213 H 302.265 5.88456 1.62947 0
M  V30 3214 H 303.679 5.69781 -0.634274 0
M  V30 3215 H 302.076 5.83203 -1.41399 0
M  V30 3216 H 303.146 4.48514 -1.84292 0
M  V30 3217 N 304.489 0.459591 1.5075 0
M  V30 3218 C 305.419 -0.330644 2.31147 0
M  V30 3219 C 306.4 -1.00087 1.37538 0
M  V30 3220 O 307.585 -1.00025 1.66459 0
M  V30 3221 C 304.715 -1.41958 3.16962 0
M  V30 3222 C 303.669 -0.871608 4.19031 0
M  V30 3223 C 302.995 -2.05797 4.9351 0
M  V30 3224 C 304.295 0.109251 5.22186 0
M  V30 3225 H 305.989 0.340336 2.97459 0
M  V30 3226 H 303.535 0.165119 1.4305 0
M  V30 3227 H 305.488 -1.9798 3.71997 0
M  V30 3228 H 304.212 -2.11917 2.48513 0
M  V30 3229 H 302.871 -0.333442 3.6508 0
M  V30 3230 H 302.519 -2.74427 4.21544 0
M  V30 3231 H 302.219 -1.6976 5.62544 0
M  V30 3232 H 303.743 -2.62331 5.51375 0
M  V30 3233 H 305.157 -0.361405 5.7216 0
M  V30 3234 H 303.554 0.383316 5.98875 0
M  V30 3235 H 304.624 1.03887 4.73641 0
M  V30 3236 N 305.967 -1.56429 0.191757 0
M  V30 3237 C 307.378 -1.83912 -0.321428 0
M  V30 3238 C 307.729 -1.11231 -1.61623 0
M  V30 3239 O 306.854 -0.37202 -2.13178 0
M  V30 3240 C 307.449 -3.33624 -0.589961 0
M  V30 3241 C 306.008 -3.6153 -1.04753 0
M  V30 3242 C 305.155 -2.7714 -0.0943327 0
M  V30 3243 H 308.106 -1.53161 0.415612 0
M  V30 3244 H 308.127 -3.52213 -1.43966 0
M  V30 3245 H 307.639 -3.86495 0.352588 0
M  V30 3246 H 305.74 -3.14089 -2.00447 0
M  V30 3247 H 305.853 -4.69737 -0.942549 0
M  V30 3248 H 304.217 -2.47638 -0.595589 0
M  V30 3249 H 305 -3.32799 0.842601 0
M  V30 3250 N 307.445 0.0818655 -1.57387 0
M  V30 3251 C 308.722 0.815343 -1.77796 0
M  V30 3252 C 309.102 1.96289 -0.77679 0
M  V30 3253 O 308.45 2.27691 0.192106 0
M  V30 3254 C 308.66 1.29765 -3.23978 0
M  V30 3255 C 310.008 1.7351 -3.8753 0
M  V30 3256 O 311.032 1.39356 -3.27808 0
M  V30 3257 O 309.891 2.36708 -4.92576 0
M  V30 3258 H 306.985 0.389914 -0.729312 0
M  V30 3259 H 309.531 0.0627213 -1.69584 0
M  V30 3260 H 308.303 0.47608 -3.88393 0
M  V30 3261 H 307.926 2.11189 -3.36875 0
M  V30 3262 N 308.923 1.53595 0.353017 0
M  V30 3263 C 310.334 1.61937 0.929153 0
M  V30 3264 C 310.685 0.494686 1.89861 0
M  V30 3265 O 309.81 -0.377017 2.1309 0
M  V30 3266 C 310.405 2.93526 1.69199 0
M  V30 3267 C 308.964 3.04161 2.21727 0
M  V30 3268 C 308.111 2.57322 1.03348 0
M  V30 3269 H 311.062 1.58155 0.131431 0
M  V30 3270 H 311.083 2.82034 2.55416 0
M  V30 3271 H 310.595 3.75362 0.986144 0
M  V30 3272 H 308.696 2.26938 2.95516 0
M  V30 3273 H 308.809 4.09465 2.48748 0
M  V30 3274 H 307.173 2.12499 1.40414 0
M  V30 3275 H 307.956 3.41588 0.342428 0
M  V30 3276 N 310.401 -0.613514 1.45168 0
M  V30 3277 C 311.331 -1.7354 1.56225 0
M  V30 3278 C 312.312 -1.64981 0.41414 0
M  V30 3279 O 313.497 -1.83472 0.636526 0
M  V30 3280 C 310.627 -3.12128 1.52295 0
M  V30 3281 C 309.581 -3.35491 2.65762 0
M  V30 3282 C 308.907 -4.74291 2.46885 0
M  V30 3283 C 310.207 -3.26325 4.0781 0
M  V30 3284 H 311.901 -1.64543 2.50132 0
M  V30 3285 H 309.447 -0.790185 1.20383 0
M  V30 3286 H 311.4 -3.90404 1.58628 0
M  V30 3287 H 310.124 -3.2195 0.549139 0
M  V30 3288 H 308.783 -2.59603 2.58847 0
M  V30 3289 H 308.431 -4.80839 1.47657 0
M  V30 3290 H 308.131 -4.9088 3.22972 0
M  V30 3291 H 309.655 -5.54775 2.55063 0
M  V30 3292 H 311.069 -3.94483 4.16 0
M  V30 3293 H 309.466 -3.54445 4.8424 0
M  V30 3294 H 310.536 -2.23855 4.30136 0
M  V30 3295 N 311.879 -1.3236 -0.855495 0
M  V30 3296 C 312.809 -1.23833 -1.97958 0
M  V30 3297 C 313.79 -0.122361 -1.69659 0
M  V30 3298 O 314.975 -0.30939 -1.9172 0
M  V30 3299 C 312.105 -0.959772 -3.33775 0
M  V30 3300 C 311.059 -2.03689 -3.76424 0
M  V30 3301 C 310.385 -1.61075 -5.09862 0
M  V30 3302 C 311.685 -3.4518 -3.9198 0
M  V30 3303 H 313.379 -2.1788 -2.0535 0
M  V30 3304 H 310.925 -1.04891 -0.986605 0
M  V30 3305 H 312.878 -0.886678 -4.11966 0
M  V30 3306 H 311.602 0.0163404 -3.26596 0
M  V30 3307 H 310.261 -2.10012 -3.00484 0
M  V30 3308 H 309.909 -0.622107 -4.99138 0
M  V30 3309 H 309.609 -2.33143 -5.39368 0
M  V30 3310 H 311.133 -1.55201 -5.90546 0
M  V30 3311 H 312.547 -3.4145 -4.60526 0
M  V30 3312 H 310.944 -4.1559 -4.32903 0
M  V30 3313 H 312.014 -3.84903 -2.94919 0
M  V30 3314 N 313.357 1.07166 -1.15556 0
M  V30 3315 C 314.773 1.31899 -0.898603 0
M  V30 3316 C 314.973 1.96333 0.453383 0
M  V30 3317 O 314.029 2.22438 1.19489 0
M  V30 3318 C 315.342 2.20826 -2.04099 0
M  V30 3319 C 316.89 2.34269 -2.07574 0
M  V30 3320 C 317.365 3.26546 -3.21141 0
M  V30 3321 N 318.856 3.34127 -3.20801 0
M  V30 3322 C 319.591 4.05595 -4.05315 0
M  V30 3323 N 319.087 4.79661 -4.99897 0
M  V30 3324 N 320.88 4.01555 -3.93332 0
M  V30 3325 H 313.031 0.637302 -2.02613 0
M  V30 3326 H 315.294 0.343468 -0.883591 0
M  V30 3327 H 315 1.80744 -3.01703 0
M  V30 3328 H 314.874 3.21364 -1.97496 0
M  V30 3329 H 317.261 2.73603 -1.10568 0
M  V30 3330 H 317.342 1.33429 -2.18244 0
M  V30 3331 H 316.986 2.87931 -4.184 0
M  V30 3332 H 316.916 4.27345 -3.07708 0
M  V30 3333 H 319.407 2.81336 -2.52306 0
M  V30 3334 H 319.72 5.31694 -5.60822 0
M  V30 3335 H 318.065 4.78671 -5.03884 0
M  V30 3336 H 321.256 3.42806 -3.18751 0
M  V30 3337 H 321.429 4.56987 -4.5942 0
M  V30 3338 N 314.835 0.952656 1.25548 0
M  V30 3339 C 316.112 0.523818 1.88456 0
M  V30 3340 C 316.492 -0.998871 1.85973 0
M  V30 3341 O 315.84 -1.86381 1.3219 0
M  V30 3342 C 316.05 1.0982 3.31271 0
M  V30 3343 C 317.398 1.17385 4.08051 0
M  V30 3344 O 318.422 1.04961 3.40384 0
M  V30 3345 O 317.281 1.36852 5.29088 0
M  V30 3346 H 314.375 0.172485 0.808813 0
M  V30 3347 H 316.921 1.04596 1.33633 0
M  V30 3348 H 315.693 2.1415 3.27499 0
M  V30 3349 H 315.316 0.559191 3.93648 0
M  V30 3350 N 316.313 -1.40141 0.720998 0
M  V30 3351 C 317.543 -2.04798 0.27226 0
M  V30 3352 C 317.951 -1.54442 -1.09289 0
M  V30 3353 O 317.294 -0.698342 -1.69908 0
M  V30 3354 C 317.356 -3.59048 0.18027 0
M  V30 3355 C 317.02 -4.32317 1.48159 0
M  V30 3356 C 318.017 -4.59902 2.42458 0
M  V30 3357 C 315.702 -4.71125 1.74202 0
M  V30 3358 C 317.696 -5.25288 3.61042 0
M  V30 3359 C 315.383 -5.36242 2.93066 0
M  V30 3360 C 316.381 -5.63254 3.86308 0
M  V30 3361 O 316.069 -6.27024 5.03086 0
M  V30 3362 H 315.801 -0.665419 0.119139 0
M  V30 3363 H 318.355 -1.80436 0.981432 0
M  V30 3364 H 316.585 -3.82251 -0.58489 0
M  V30 3365 H 318.274 -4.05221 -0.234618 0
M  V30 3366 H 319.04 -4.30379 2.23604 0
M  V30 3367 H 314.919 -4.49466 1.02477 0
M  V30 3368 H 318.463 -5.46289 4.33837 0
M  V30 3369 H 314.36 -5.65185 3.11826 0
M  V30 3370 H 315.128 -6.4552 5.03235 0
M  V30 3371 N 317.792 -0.46758 -1.50504 0
M  V30 3372 C 319.038 0.0808869 -2.03239 0
M  V30 3373 C 319.393 1.37721 -1.34353 0
M  V30 3374 O 318.686 1.86016 -0.459194 0
M  V30 3375 C 318.88 0.323995 -3.55928 0
M  V30 3376 C 318.709 -0.947215 -4.39611 0
M  V30 3377 C 317.479 -1.48951 -4.82848 0
M  V30 3378 C 319.677 -1.84166 -4.80195 0
M  V30 3379 N 317.659 -2.71011 -5.50842 0
M  V30 3380 C 319.03 -2.90815 -5.47564 0
M  V30 3381 C 321.085 -1.85246 -4.62156 0
M  V30 3382 C 319.788 -3.98529 -5.98805 0
M  V30 3383 C 321.814 -2.91914 -5.14335 0
M  V30 3384 C 321.176 -3.97282 -5.81676 0
M  V30 3385 H 317.275 -0.0103394 -0.781932 0
M  V30 3386 H 319.859 -0.635003 -1.84054 0
M  V30 3387 H 318.03 1.00892 -3.75067 0
M  V30 3388 H 319.762 0.866492 -3.95315 0
M  V30 3389 H 316.517 -1.03918 -4.62058 0
M  V30 3390 H 316.941 -3.32988 -5.89447 0
M  V30 3391 H 321.583 -1.05103 -4.09528 0
M  V30 3392 H 319.301 -4.79491 -6.50472 0
M  V30 3393 H 322.887 -2.93729 -5.0221 0
M  V30 3394 H 321.767 -4.78462 -6.21324 0
M  V30 3395 N 319.27 1.56325 -0.20005 0
M  V30 3396 C 320.516 1.98012 0.438059 0
M  V30 3397 C 320.849 1.08702 1.60927 0
M  V30 3398 O 320.124 0.140064 1.93995 0
M  V30 3399 C 320.407 3.48841 0.893419 0
M  V30 3400 C 320.26 4.48928 -0.279947 0
M  V30 3401 C 321.579 4.03498 1.75719 0
M  V30 3402 H 318.698 0.719918 0.157757 0
M  V30 3403 H 321.34 1.87743 -0.291968 0
M  V30 3404 H 319.49 3.57723 1.51547 0
M  V30 3405 H 321.162 4.52079 -0.91772 0
M  V30 3406 H 319.405 4.23694 -0.930919 0
M  V30 3407 H 320.076 5.5194 0.0812601 0
M  V30 3408 H 322.552 3.97427 1.23253 0
M  V30 3409 H 321.428 5.09393 2.04476 0
M  V30 3410 H 321.689 3.4906 2.71311 0
M  V30 3411 N 320.748 -0.0735177 1.57428 0
M  V30 3412 C 321.978 -0.78483 1.91112 0
M  V30 3413 C 322.386 -1.71729 0.7941 0
M  V30 3414 O 321.729 -1.82105 -0.241542 0
M  V30 3415 C 321.791 -1.63346 3.20247 0
M  V30 3416 C 321.455 -0.870557 4.48632 0
M  V30 3417 C 322.452 -0.19058 5.19551 0
M  V30 3418 C 320.137 -0.838242 4.95256 0
M  V30 3419 C 322.131 0.511503 6.35344 0
M  V30 3420 C 319.818 -0.132386 6.10957 0
M  V30 3421 C 320.816 0.541288 6.80852 0
M  V30 3422 O 320.504 1.23578 7.94345 0
M  V30 3423 H 320.236 -0.228408 0.636244 0
M  V30 3424 H 322.79 -0.0486039 2.05342 0
M  V30 3425 H 321.02 -2.41245 3.02222 0
M  V30 3426 H 322.709 -2.22329 3.39595 0
M  V30 3427 H 323.475 -0.206864 4.84559 0
M  V30 3428 H 319.354 -1.35206 4.40727 0
M  V30 3429 H 322.898 1.03789 6.89836 0
M  V30 3430 H 318.795 -0.114023 6.45399 0
M  V30 3431 H 319.563 1.14487 8.10454 0
M  V30 3432 N 322.226 -1.5378 -0.344866 0
M  V30 3433 C 323.136 -1.84667 -1.4469 0
M  V30 3434 C 324.152 -0.736704 -1.57635 0
M  V30 3435 O 325.328 -1.02888 -1.73136 0
M  V30 3436 C 322.393 -2.04869 -2.79696 0
M  V30 3437 C 321.454 -3.28731 -2.76106 0
M  V30 3438 C 320.687 -3.4796 -4.04673 0
M  V30 3439 O 320.91 -2.71052 -5.01883 0
M  V30 3440 O 319.844 -4.41383 -4.09224 0
M  V30 3441 H 323.67 -2.78334 -1.21506 0
M  V30 3442 H 321.255 -1.39418 -0.536921 0
M  V30 3443 H 323.137 -2.19609 -3.59652 0
M  V30 3444 H 321.812 -1.14391 -3.02814 0
M  V30 3445 H 320.719 -3.19396 -1.94774 0
M  V30 3446 H 322.052 -4.19198 -2.57941 0
M  V30 3447 N 323.704 0.605807 -1.45491 0
M  V30 3448 C 324.952 1.36207 -1.49305 0
M  V30 3449 C 325.273 1.94519 -0.136863 0
M  V30 3450 O 324.543 1.77261 0.833983 0
M  V30 3451 H 323.123 0.50565 -0.549843 0
M  V30 3452 H 325.785 0.711239 -1.81459 0
M  V30 3453 H 324.881 2.18058 -2.23287 0
M  V30 3454 N 325.182 1.32811 0.848464 0
M  V30 3455 C 326.407 1.26882 1.6406 0
M  V30 3456 C 326.832 -0.15913 1.87426 0
M  V30 3457 O 326.19 -1.11258 1.43148 0
M  V30 3458 C 326.238 2.03997 2.97351 0
M  V30 3459 O 325.342 1.39201 3.88197 0
M  V30 3460 H 324.683 0.436982 0.499943 0
M  V30 3461 H 327.213 1.75224 1.0563 0
M  V30 3462 H 327.223 2.14403 3.47124 0
M  V30 3463 H 325.898 3.0783 2.79666 0
M  V30 3464 H 324.475 1.37381 3.46671 0
M  V30 3465 N 326.66 -1.06551 1.16123 0
M  V30 3466 C 327.59 -2.15935 0.88851 0
M  V30 3467 C 328.571 -1.69306 -0.164135 0
M  V30 3468 O 329.756 -1.94193 -0.0167857 0
M  V30 3469 C 326.886 -3.45149 0.385942 0
M  V30 3470 C 325.84 -4.05271 1.3762 0
M  V30 3471 C 325.166 -5.29664 0.732137 0
M  V30 3472 C 326.466 -4.44355 2.74493 0
M  V30 3473 H 328.16 -2.39006 1.80323 0
M  V30 3474 H 325.706 -1.14866 0.868435 0
M  V30 3475 H 327.659 -4.21004 0.182647 0
M  V30 3476 H 326.383 -3.21689 -0.564274 0
M  V30 3477 H 325.042 -3.3147 1.56599 0
M  V30 3478 H 324.69 -5.02499 -0.224483 0
M  V30 3479 H 324.39 -5.70848 1.39307 0
M  V30 3480 H 325.914 -6.08218 0.538802 0
M  V30 3481 H 327.328 -5.11303 2.59311 0
M  V30 3482 H 325.725 -4.96515 3.37035 0
M  V30 3483 H 326.795 -3.55339 3.29943 0
M  V30 3484 N 328.138 -0.959301 -1.25041 0
M  V30 3485 C 329.366 -0.633949 -1.96948 0
M  V30 3486 C 329.781 0.794916 -1.7125 0
M  V30 3487 O 329.138 1.53231 -0.991287 0
M  V30 3488 C 329.189 -0.888805 -3.50403 0
M  V30 3489 O 328.91 -2.26149 -3.75218 0
M  V30 3490 C 330.411 -0.576482 -4.39536 0
M  V30 3491 H 327.631 -0.237263 -0.627652 0
M  V30 3492 H 330.175 -1.28495 -1.59089 0
M  V30 3493 H 328.33 -0.284145 -3.86357 0
M  V30 3494 H 328.744 -2.33514 -4.6965 0
M  V30 3495 H 330.218 -0.805314 -5.46094 0
M  V30 3496 H 330.695 0.489075 -4.36468 0
M  V30 3497 H 331.301 -1.16067 -4.09156 0
M  V30 3498 N 329.616 1.39756 -0.72842 0
M  V30 3499 C 330.865 1.99879 -0.270407 0
M  V30 3500 C 331.178 1.58449 1.14688 0
M  V30 3501 O 332.384 2.11362 1.70407 0
M  V30 3502 C 330.84 3.57292 -0.43252 0
M  V30 3503 C 330.448 4.07688 -1.85727 0
M  V30 3504 C 332.192 4.24485 -0.0359507 0
M  V30 3505 C 330.099 5.5765 -1.96928 0
M  V30 3506 H 329.029 0.747689 -0.0973472 0
M  V30 3507 H 331.68 1.59837 -0.901355 0
M  V30 3508 H 330.062 3.95097 0.267219 0
M  V30 3509 H 331.236 3.81231 -2.58843 0
M  V30 3510 H 329.551 3.53135 -2.20646 0
M  V30 3511 H 332.148 5.34609 -0.0987484 0
M  V30 3512 H 332.491 4.03915 1.00787 0
M  V30 3513 H 333.024 3.9183 -0.686604 0
M  V30 3514 H 329.763 5.8309 -2.99476 0
M  V30 3515 H 329.283 5.8593 -1.28241 0
M  V30 3516 H 330.962 6.22957 -1.74737 0
M  V30 3517 N 331.094 0.475555 1.50254 0
M  V30 3518 C 332.505 0.0215174 1.86688 0
M  V30 3519 C 332.856 -1.38467 1.39001 0
M  V30 3520 O 331.981 -2.02732 0.756894 0
M  V30 3521 C 332.576 0.0322715 3.38785 0
M  V30 3522 C 331.135 -0.366314 3.74613 0
M  V30 3523 C 330.282 0.415832 2.74164 0
M  V30 3524 H 333.233 0.689612 1.42934 0
M  V30 3525 H 333.254 -0.76889 3.7265 0
M  V30 3526 H 332.766 1.05584 3.73462 0
M  V30 3527 H 330.867 -1.39406 3.45538 0
M  V30 3528 H 330.98 -0.064555 4.79057 0
M  V30 3529 H 329.344 -0.131048 2.54363 0
M  V30 3530 H 330.127 1.43899 3.11686 0
M  V30 3531 N 332.573 -1.56217 0.208337 0
M  V30 3532 C 333.984 -1.84243 -0.301904 0
M  V30 3533 C 334.335 -1.12939 -1.60434 0
M  V30 3534 O 333.46 -0.39461 -2.12772 0
M  V30 3535 C 334.055 -3.34231 -0.554543 0
M  V30 3536 C 332.614 -3.62621 -1.00912 0
M  V30 3537 C 331.761 -2.77224 -0.064933 0
M  V30 3538 H 334.712 -1.52712 0.431833 0
M  V30 3539 H 334.733 -3.5372 -1.40223 0
M  V30 3540 H 334.245 -3.86099 0.393561 0
M  V30 3541 H 332.346 -3.16197 -1.97104 0
M  V30 3542 H 332.459 -4.7071 -0.892674 0
M  V30 3543 H 330.823 -2.48256 -0.56929 0
M  V30 3544 H 331.606 -3.31887 0.877851 0
M  V30 3545 N 334.051 0.0651679 -1.57465 0
M  V30 3546 C 335.291 0.768329 -1.8941 0
M  V30 3547 C 335.655 1.74406 -0.802894 0
M  V30 3548 O 336.856 2.49281 -1.0056 0
M  V30 3549 C 335.127 1.45199 -3.26576 0
M  V30 3550 S 336.686 2.1893 -3.80283 0
M  V30 3551 H 333.504 0.255359 -0.663561 0
M  V30 3552 H 336.106 0.024167 -1.95485 0
M  V30 3553 H 334.81 0.728123 -4.03889 0
M  V30 3554 H 334.341 2.23545 -3.23715 0
M  V30 3555 H 336.356 3.45551 -3.56102 0
M  V30 3556 N 335.529 1.53961 0.336706 0
M  V30 3557 C 336.754 1.75797 1.10046 0
M  V30 3558 C 337.179 0.498985 1.81361 0
M  V30 3559 O 336.537 -0.548769 1.72795 0
M  V30 3560 C 336.585 2.94257 2.08436 0
M  V30 3561 O 335.689 2.64883 3.16087 0
M  V30 3562 H 335.03 0.582936 0.317934 0
M  V30 3563 H 337.56 2.00945 0.38501 0
M  V30 3564 H 337.57 3.21237 2.51537 0
M  V30 3565 H 336.245 3.85564 1.55927 0
M  V30 3566 H 334.822 2.48812 2.77753 0
M  V30 3567 N 337.007 -0.598083 1.45811 0
M  V30 3568 C 337.917 -1.73632 1.57763 0
M  V30 3569 C 338.933 -1.67763 0.461676 0
M  V30 3570 O 340.109 -1.87949 0.723685 0
M  V30 3571 C 337.174 -3.10114 1.55018 0
M  V30 3572 C 336.235 -3.27364 2.77726 0
M  V30 3573 C 335.468 -4.57334 2.75102 0
M  V30 3574 O 335.691 -5.40258 1.8297 0
M  V30 3575 O 334.625 -4.77502 3.66437 0
M  V30 3576 H 338.451 -1.66498 2.53992 0
M  V30 3577 H 336.036 -0.763308 1.28429 0
M  V30 3578 H 337.918 -3.9141 1.56129 0
M  V30 3579 H 336.593 -3.17718 0.619431 0
M  V30 3580 H 335.5 -2.45619 2.82174 0
M  V30 3581 H 336.833 -3.24641 3.69958 0
M  V30 3582 N 338.485 -1.33259 -0.841409 0
M  V30 3583 C 339.733 -1.24326 -1.59334 0
M  V30 3584 C 340.054 0.191564 -1.94057 0
M  V30 3585 O 339.324 1.11967 -1.60749 0
M  V30 3586 H 337.904 -0.457174 -0.590763 0
M  V30 3587 H 340.566 -1.66947 -1.00571 0
M  V30 3588 H 339.662 -1.8352 -2.52442 0
M  V30 3589 N 339.963 1.05934 -1.16686 0
M  V30 3590 C 341.209 1.79065 -0.95203 0
M  V30 3591 C 341.542 1.87147 0.518629 0
M  V30 3592 O 340.817 1.36574 1.38484 0
M  V30 3593 C 341.1 3.23359 -1.58464 0
M  V30 3594 C 340.953 3.23336 -3.12689 0
M  V30 3595 C 342.272 4.21004 -1.28232 0
M  V30 3596 H 339.391 0.65005 -0.34728 0
M  V30 3597 H 342.033 1.23868 -1.44072 0
M  V30 3598 H 340.183 3.70493 -1.16908 0
M  V30 3599 H 341.855 2.84336 -3.6325 0
M  V30 3600 H 340.098 2.61886 -3.4583 0
M  V30 3601 H 340.769 4.25144 -3.52075 0
M  V30 3602 H 343.245 3.8233 -1.64203 0
M  V30 3603 H 342.121 5.20225 -1.75092 0
M  V30 3604 H 342.382 4.41639 -0.201791 0
M  V30 3605 N 341.441 0.965919 1.2453 0
M  V30 3606 C 342.669 0.644385 1.96609 0
M  V30 3607 C 343.084 -0.785823 1.71669 0
M  V30 3608 O 342.441 -1.52703 0.999399 0
M  V30 3609 C 342.492 0.907375 3.49927 0
M  V30 3610 O 342.213 2.28136 3.74013 0
M  V30 3611 C 343.714 0.599784 4.39224 0
M  V30 3612 H 340.934 0.240588 0.626385 0
M  V30 3613 H 343.478 1.29337 1.58405 0
M  V30 3614 H 341.633 0.304631 3.862 0
M  V30 3615 H 342.047 2.36002 4.68405 0
M  V30 3616 H 343.521 0.834263 5.45659 0
M  V30 3617 H 343.998 -0.465921 4.36722 0
M  V30 3618 H 344.604 1.18235 4.08535 0
M  V30 3619 N 342.919 -1.39368 0.735821 0
M  V30 3620 C 344.165 -2.01272 0.293439 0
M  V30 3621 C 344.52 -1.57344 -1.10728 0
M  V30 3622 O 343.813 -0.792744 -1.74431 0
M  V30 3623 C 344.007 -3.5583 0.334651 0
M  V30 3624 C 343.836 -4.14764 1.73784 0
M  V30 3625 C 342.606 -4.47315 2.35026 0
M  V30 3626 C 344.804 -4.38246 2.69157 0
M  V30 3627 N 342.786 -4.91756 3.6749 0
M  V30 3628 C 344.157 -4.849 3.86357 0
M  V30 3629 C 346.212 -4.20315 2.66908 0
M  V30 3630 C 344.915 -5.15505 5.01645 0
M  V30 3631 C 346.941 -4.52033 3.8134 0
M  V30 3632 C 346.303 -4.98895 4.97276 0
M  V30 3633 H 342.402 -0.766756 0.153652 0
M  V30 3634 H 344.986 -1.69276 0.961967 0
M  V30 3635 H 343.157 -3.87212 -0.303527 0
M  V30 3636 H 344.889 -4.04503 -0.126358 0
M  V30 3637 H 341.644 -4.35143 1.86943 0
M  V30 3638 H 342.068 -5.18333 4.35499 0
M  V30 3639 H 346.71 -3.83287 1.78468 0
M  V30 3640 H 344.428 -5.51437 5.90713 0
M  V30 3641 H 348.014 -4.39781 3.80899 0
M  V30 3642 H 346.894 -5.22973 5.84353 0
M  V30 3643 N 344.397 -0.483516 -1.5 0
M  V30 3644 C 345.646 0.0689102 -2.01582 0
M  V30 3645 C 345.959 1.39655 -1.36952 0
M  V30 3646 O 347.165 2.03465 -1.79762 0
M  V30 3647 C 345.621 0.173302 -3.59483 0
M  V30 3648 C 345.229 -1.14665 -4.33077 0
M  V30 3649 C 346.973 0.677024 -4.19066 0
M  V30 3650 C 344.88 -1.00537 -5.82792 0
M  V30 3651 H 343.81 0.0295277 -0.753422 0
M  V30 3652 H 346.461 -0.620295 -1.72698 0
M  V30 3653 H 344.843 0.926569 -3.85007 0
M  V30 3654 H 346.017 -1.91184 -4.19268 0
M  V30 3655 H 344.332 -1.58244 -3.85159 0
M  V30 3656 H 346.929 0.799952 -5.28682 0
M  V30 3657 H 347.272 1.67151 -3.81269 0
M  V30 3658 H 347.805 -0.0192083 -3.97795 0
M  V30 3659 H 344.544 -1.9736 -6.25083 0
M  V30 3660 H 344.064 -0.280776 -5.99142 0
M  V30 3661 H 345.743 -0.677 -6.43448 0
M  V30 3662 N 345.875 1.56104 -0.216619 0
M  V30 3663 C 346.805 2.23063 0.690296 0
M  V30 3664 C 347.786 1.20072 1.20485 0
M  V30 3665 O 348.971 1.48643 1.24976 0
M  V30 3666 C 346.101 2.90672 1.90072 0
M  V30 3667 C 345.055 4.00092 1.5202 0
M  V30 3668 C 344.381 4.54972 2.80899 0
M  V30 3669 C 345.681 5.17398 0.71391 0
M  V30 3670 H 347.375 2.99109 0.132038 0
M  V30 3671 H 344.921 1.43866 0.0620664 0
M  V30 3672 H 346.874 3.36204 2.54057 0
M  V30 3673 H 345.598 2.12066 2.48386 0
M  V30 3674 H 344.257 3.55283 0.903839 0
M  V30 3675 H 343.905 3.73102 3.37348 0
M  V30 3676 H 343.605 5.28817 2.56176 0
M  V30 3677 H 345.129 5.0322 3.45836 0
M  V30 3678 H 346.543 5.59342 1.25735 0
M  V30 3679 H 344.94 5.97444 0.563951 0
M  V30 3680 H 346.01 4.84088 -0.280527 0
M  V30 3681 N 347.353 -0.0568162 1.57498 0
M  V30 3682 C 348.6 -0.753104 1.87975 0
M  V30 3683 C 348.928 -1.76815 0.81035 0
M  V30 3684 O 348.183 -1.94756 -0.19199 0
M  V30 3685 C 348.482 -1.48359 3.25153 0
M  V30 3686 C 348.148 -0.60713 4.46794 0
M  V30 3687 C 346.81 -0.365642 4.79809 0
M  V30 3688 C 349.162 -0.000305978 5.212 0
M  V30 3689 C 346.49 0.491905 5.84634 0
M  V30 3690 C 348.842 0.844781 6.26934 0
M  V30 3691 C 347.506 1.096 6.58441 0
M  V30 3692 H 346.776 -0.27558 0.687849 0
M  V30 3693 H 349.423 -0.0135173 1.91495 0
M  V30 3694 H 347.728 -2.29577 3.17492 0
M  V30 3695 H 349.425 -2.02739 3.45974 0
M  V30 3696 H 346.015 -0.805487 4.20963 0
M  V30 3697 H 350.199 -0.173961 4.95995 0
M  V30 3698 H 345.455 0.695131 6.07436 0
M  V30 3699 H 349.629 1.32165 6.83744 0
M  V30 3700 H 347.256 1.76224 7.39492 0
M  V30 3701 N 348.832 -1.54138 -0.328536 0
M  V30 3702 C 350.248 -1.44736 -0.672574 0
M  V30 3703 C 350.448 -0.616217 -1.91846 0
M  V30 3704 O 349.504 -0.113067 -2.52247 0
M  V30 3705 C 350.817 -2.884 -0.851217 0
M  V30 3706 C 352.365 -2.98271 -0.948877 0
M  V30 3707 C 352.84 -4.43074 -1.15973 0
M  V30 3708 N 354.331 -4.46665 -1.22658 0
M  V30 3709 C 355.066 -5.55857 -1.40751 0
M  V30 3710 N 354.562 -6.75026 -1.5592 0
M  V30 3711 N 356.355 -5.43495 -1.4342 0
M  V30 3712 H 348.506 -2.06661 0.490421 0
M  V30 3713 H 350.769 -0.934812 0.157579 0
M  V30 3714 H 350.475 -3.51699 -0.00704236 0
M  V30 3715 H 350.349 -3.34225 -1.74853 0
M  V30 3716 H 352.736 -2.35102 -1.78356 0
M  V30 3717 H 352.817 -2.55785 -0.0281435 0
M  V30 3718 H 352.461 -5.06827 -0.329915 0
M  V30 3719 H 352.391 -4.83165 -2.09426 0
M  V30 3720 H 354.882 -3.60797 -1.124 0
M  V30 3721 H 355.195 -7.54004 -1.69404 0
M  V30 3722 H 353.54 -6.77944 -1.53027 0
M  V30 3723 H 356.731 -4.49349 -1.31162 0
M  V30 3724 H 356.904 -6.28649 -1.57178 0
M  V30 3725 N 350.31 0.590341 -1.46126 0
M  V30 3726 C 351.54 1.37304 -1.54373 0
M  V30 3727 C 351.948 1.88332 -0.181071 0
M  V30 3728 O 351.291 1.63852 0.830559 0
M  V30 3729 C 351.353 2.6012 -2.48149 0
M  V30 3730 C 351.017 2.30613 -3.94546 0
M  V30 3731 C 352.014 1.89915 -4.83971 0
M  V30 3732 C 349.699 2.42993 -4.39613 0
M  V30 3733 C 351.693 1.61981 -6.16475 0
M  V30 3734 C 349.38 2.14672 -5.72153 0
M  V30 3735 C 350.378 1.7423 -6.60404 0
M  V30 3736 O 350.066 1.46251 -7.90485 0
M  V30 3737 H 349.798 0.426086 -0.524811 0
M  V30 3738 H 352.352 0.72539 -1.92165 0
M  V30 3739 H 350.582 3.27664 -2.05361 0
M  V30 3740 H 352.271 3.22182 -2.46887 0
M  V30 3741 H 353.037 1.79872 -4.50412 0
M  V30 3742 H 348.916 2.73435 -3.71153 0
M  V30 3743 H 352.46 1.30341 -6.85315 0
M  V30 3744 H 348.357 2.24337 -6.05263 0
M  V30 3745 H 349.125 1.6016 -8.02677 0
M  V30 3746 N 351.788 1.33704 0.83433 0
M  V30 3747 C 353.199 1.22813 1.4062 0
M  V30 3748 C 353.55 -0.151107 1.95617 0
M  V30 3749 O 352.675 -1.05092 1.89168 0
M  V30 3750 C 353.27 2.22355 2.55624 0
M  V30 3751 C 351.829 2.1529 3.08751 0
M  V30 3752 C 350.976 2.09589 1.8157 0
M  V30 3753 H 353.927 1.45236 0.639702 0
M  V30 3754 H 353.948 1.83391 3.33389 0
M  V30 3755 H 353.46 3.22728 2.15566 0
M  V30 3756 H 351.561 1.18235 3.53343 0
M  V30 3757 H 351.674 3.06038 3.68616 0
M  V30 3758 H 350.038 1.55134 2.02004 0
M  V30 3759 H 350.821 3.11777 1.43701 0
M  V30 3760 N 353.266 -1.05314 1.17247 0
M  V30 3761 C 354.196 -2.1498 0.911362 0
M  V30 3762 C 355.177 -1.69471 -0.146169 0
M  V30 3763 O 356.362 -1.942 0.003812 0
M  V30 3764 C 353.492 -3.4472 0.422528 0
M  V30 3765 C 352.446 -4.03789 1.4191 0
M  V30 3766 C 351.772 -5.28858 0.788274 0
M  V30 3767 C 353.072 -4.41418 2.7919 0
M  V30 3768 H 354.766 -2.3708 1.82848 0
M  V30 3769 H 352.312 -1.13938 0.880569 0
M  V30 3770 H 354.265 -4.20787 0.227289 0
M  V30 3771 H 352.989 -3.22269 -0.530123 0
M  V30 3772 H 351.648 -3.2979 1.60106 0
M  V30 3773 H 351.296 -5.02709 -0.171173 0
M  V30 3774 H 350.996 -5.69338 1.45353 0
M  V30 3775 H 352.52 -6.07612 0.603282 0
M  V30 3776 H 353.934 -5.08524 2.64719 0
M  V30 3777 H 352.331 -4.92913 3.42282 0
M  V30 3778 H 353.401 -3.51819 3.33693 0
M  V30 3779 N 354.744 -0.972509 -1.24016 0
M  V30 3780 C 355.972 -0.654803 -1.96265 0
M  V30 3781 C 356.387 0.776708 -1.72083 0
M  V30 3782 O 355.744 1.52171 -1.00748 0
M  V30 3783 C 355.795 -0.92592 -3.49441 0
M  V30 3784 O 355.516 -2.30116 -3.72798 0
M  V30 3785 C 357.017 -0.623068 -4.38899 0
M  V30 3786 H 354.237 -0.243907 -0.6251 0
M  V30 3787 H 356.781 -1.30175 -1.57717 0
M  V30 3788 H 354.936 -0.325108 -3.86033 0
M  V30 3789 H 355.35 -2.38483 -4.67147 0
M  V30 3790 H 356.824 -0.863189 -5.45209 0
M  V30 3791 H 357.301 0.442754 -4.36963 0
M  V30 3792 H 357.907 -1.204 -4.07902 0
M  V30 3793 N 356.222 1.38976 -0.743202 0
M  V30 3794 C 357.471 1.99581 -0.291592 0
M  V30 3795 C 357.784 1.59656 1.13001 0
M  V30 3796 O 358.99 2.13157 1.68156 0
M  V30 3797 C 357.446 3.56813 -0.470391 0
M  V30 3798 C 357.054 4.05695 -1.90041 0
M  V30 3799 C 358.798 4.24423 -0.0809709 0
M  V30 3800 C 356.705 5.5553 -2.02832 0
M  V30 3801 H 355.635 0.746615 -0.105272 0
M  V30 3802 H 358.286 1.58872 -0.918258 0
M  V30 3803 H 356.668 3.95359 0.225299 0
M  V30 3804 H 357.842 3.78464 -2.62872 0
M  V30 3805 H 356.157 3.50775 -2.24379 0
M  V30 3806 H 358.754 5.34474 -0.155445 0
M  V30 3807 H 359.097 4.04962 0.96497 0
M  V30 3808 H 359.63 3.9108 -0.728124 0
M  V30 3809 H 356.369 5.79881 -3.05643 0
M  V30 3810 H 355.889 5.84537 -1.34448 0
M  V30 3811 H 357.568 6.21069 -1.81335 0
M  V30 3812 N 357.7 0.491464 1.49741 0
M  V30 3813 C 358.925 -0.0557177 2.07325 0
M  V30 3814 C 359.35 -1.30925 1.35056 0
M  V30 3815 O 358.708 -1.76733 0.404365 0
M  V30 3816 C 358.756 -0.302074 3.59333 0
M  V30 3817 O 357.86 -1.37868 3.88672 0
M  V30 3818 H 357.201 0.0219956 0.663636 0
M  V30 3819 H 359.731 0.688352 1.92673 0
M  V30 3820 H 359.741 -0.536464 4.04458 0
M  V30 3821 H 358.416 0.61383 4.11345 0
M  V30 3822 H 356.993 -1.12999 3.55367 0
M  V30 3823 N 359.178 -1.55987 0.224894 0
M  V30 3824 C 360.11 -2.17722 -0.716224 0
M  V30 3825 C 361.123 -1.14723 -1.15509 0
M  V30 3826 O 362.312 -1.41688 -1.08567 0
M  V30 3827 C 359.412 -2.74873 -1.98238 0
M  V30 3828 C 358.585 -4.03074 -1.69853 0
M  V30 3829 C 357.644 -4.44757 -2.81208 0
M  V30 3830 O 356.67 -5.11587 -2.49534 0
M  V30 3831 N 357.872 -4.10716 -4.10235 0
M  V30 3832 H 360.637 -2.99109 -0.188123 0
M  V30 3833 H 358.198 -1.6184 0.0440123 0
M  V30 3834 H 360.19 -2.99727 -2.7193 0
M  V30 3835 H 358.76 -1.9777 -2.42086 0
M  V30 3836 H 357.98 -3.86041 -0.797875 0
M  V30 3837 H 359.268 -4.86701 -1.48324 0
M  V30 3838 H 358.666 -3.57019 -4.38809 0
M  V30 3839 H 357.223 -4.40455 -4.80461 0
M  V30 3840 N 360.656 0.0484629 -1.57525 0
M  V30 3841 C 361.586 1.0549 -2.08313 0
M  V30 3842 C 362.567 1.38929 -0.981463 0
M  V30 3843 O 363.752 1.48151 -1.25558 0
M  V30 3844 C 360.882 2.36162 -2.54646 0
M  V30 3845 C 359.836 2.17016 -3.68901 0
M  V30 3846 C 359.162 3.53278 -4.01371 0
M  V30 3847 C 360.462 1.57219 -4.98076 0
M  V30 3848 H 362.156 0.632195 -2.92649 0
M  V30 3849 H 359.702 0.302654 -1.40784 0
M  V30 3850 H 361.655 3.06882 -2.88793 0
M  V30 3851 H 360.379 2.80456 -1.67368 0
M  V30 3852 H 359.038 1.48733 -3.35073 0
M  V30 3853 H 358.686 3.95185 -3.11188 0
M  V30 3854 H 358.386 3.41299 -4.78318 0
M  V30 3855 H 359.91 4.25391 -4.38035 0
M  V30 3856 H 361.324 2.17832 -5.30304 0
M  V30 3857 H 359.721 1.55871 -5.79503 0
M  V30 3858 H 360.791 0.535956 -4.81929 0
M  V30 3859 N 362.134 1.5431 0.320358 0
M  V30 3860 C 363.066 1.80262 1.41556 0
M  V30 3861 C 364.079 0.684723 1.477 0
M  V30 3862 O 365.268 0.961886 1.50366 0
M  V30 3863 C 362.368 1.90825 2.8007 0
M  V30 3864 C 361.541 3.21023 2.97091 0
M  V30 3865 C 360.6 3.22247 4.15985 0
M  V30 3866 O 359.626 3.95871 4.08992 0
M  V30 3867 N 360.828 2.46258 5.25678 0
M  V30 3868 H 363.593 2.74778 1.19655 0
M  V30 3869 H 361.154 1.53646 0.510358 0
M  V30 3870 H 363.146 1.89067 3.57821 0
M  V30 3871 H 361.716 1.03392 2.95006 0
M  V30 3872 H 360.936 3.35715 2.06614 0
M  V30 3873 H 362.224 4.0698 3.05361 0
M  V30 3874 H 361.622 1.86037 5.34235 0
M  V30 3875 H 360.179 2.50275 6.01835 0
M  V30 3876 N 363.613 -0.582584 1.46437 0
M  V30 3877 C 364.862 -1.337 1.5102 0
M  V30 3878 C 365.175 -1.94891 0.166359 0
M  V30 3879 O 366.381 -2.71351 0.0899954 0
M  V30 3880 C 364.837 -2.42315 2.66104 0
M  V30 3881 C 364.445 -1.87427 4.06909 0
M  V30 3882 C 366.189 -3.19099 2.79958 0
M  V30 3883 C 364.096 -2.93672 5.13333 0
M  V30 3884 H 363.026 -0.502619 0.562041 0
M  V30 3885 H 365.677 -0.621701 1.72647 0
M  V30 3886 H 364.059 -3.16645 2.37807 0
M  V30 3887 H 365.233 -1.19639 4.44998 0
M  V30 3888 H 363.548 -1.2331 3.97723 0
M  V30 3889 H 366.145 -3.9839 3.56636 0
M  V30 3890 H 366.488 -3.71695 1.87479 0
M  V30 3891 H 367.021 -2.51875 3.07902 0
M  V30 3892 H 363.76 -2.45962 6.07604 0
M  V30 3893 H 363.28 -3.59948 4.79789 0
M  V30 3894 H 364.959 -3.5762 5.39182 0
M  V30 3895 N 365.091 -1.34144 -0.827227 0
M  V30 3896 C 366.001 -1.27428 -1.96975 0
M  V30 3897 C 367.017 -0.182728 -1.73038 0
M  V30 3898 O 368.193 -0.408426 -1.97215 0
M  V30 3899 C 365.258 -1.02526 -3.31194 0
M  V30 3900 C 364.319 -2.20796 -3.68168 0
M  V30 3901 C 363.552 -1.97073 -4.95982 0
M  V30 3902 O 363.775 -0.926822 -5.6282 0
M  V30 3903 O 362.709 -2.83912 -5.30733 0
M  V30 3904 H 366.535 -2.23537 -2.05584 0
M  V30 3905 H 364.12 -1.14307 -0.961989 0
M  V30 3906 H 366.002 -0.904026 -4.11589 0
M  V30 3907 H 364.677 -0.0945389 -3.23562 0
M  V30 3908 H 363.584 -2.38477 -2.88235 0
M  V30 3909 H 364.917 -3.12243 -3.8048 0
M  V30 3910 N 366.569 1.04691 -1.17803 0
M  V30 3911 C 367.479 2.16057 -0.914151 0
M  V30 3912 C 368.495 1.73589 0.119503 0
M  V30 3913 O 369.671 2.01308 -0.0609468 0
M  V30 3914 C 366.736 3.4394 -0.436603 0
M  V30 3915 C 365.797 4.00825 -1.53746 0
M  V30 3916 C 365.03 5.22604 -1.0826 0
M  V30 3917 O 365.253 5.70367 0.0612244 0
M  V30 3918 O 364.187 5.7186 -1.87775 0
M  V30 3919 H 368.013 2.41169 -1.84584 0
M  V30 3920 H 365.598 1.1453 -0.959334 0
M  V30 3921 H 367.48 4.21024 -0.178057 0
M  V30 3922 H 366.155 3.20316 0.466869 0
M  V30 3923 H 365.062 3.25158 -1.84995 0
M  V30 3924 H 366.395 4.28778 -2.41683 0
M  V30 3925 N 368.047 0.979072 1.23499 0
M  V30 3926 C 369.294 0.647219 1.91878 0
M  V30 3927 C 369.622 -0.819074 1.76413 0
M  V30 3928 O 368.877 -1.60616 1.11808 0
M  V30 3929 C 369.176 0.981932 3.43646 0
M  V30 3930 C 368.842 2.43822 3.79291 0
M  V30 3931 C 367.504 2.83622 3.88731 0
M  V30 3932 C 369.856 3.3828 3.96505 0
M  V30 3933 C 367.184 4.16897 4.12812 0
M  V30 3934 C 369.536 4.71197 4.22085 0
M  V30 3935 C 368.2 5.10758 4.29747 0
M  V30 3936 H 367.47 0.236834 0.702133 0
M  V30 3937 H 370.117 1.23268 1.46551 0
M  V30 3938 H 368.422 0.314365 3.90537 0
M  V30 3939 H 370.119 0.703395 3.94783 0
M  V30 3940 H 366.709 2.11966 3.72516 0
M  V30 3941 H 370.893 3.0871 3.88603 0
M  V30 3942 H 366.149 4.47157 4.16966 0
M  V30 3943 H 370.323 5.44348 4.34348 0
M  V30 3944 H 367.95 6.1405 4.48159 0
M  V30 3945 N 369.525 -1.3858 0.750561 0
M  V30 3946 C 370.941 -1.53759 0.427824 0
M  V30 3947 C 371.141 -1.71401 -1.05943 0
M  V30 3948 O 370.197 -1.72331 -1.84549 0
M  V30 3949 C 371.51 -2.74642 1.22443 0
M  V30 3950 C 373.058 -2.88489 1.2142 0
M  V30 3951 C 373.533 -4.12329 1.9937 0
M  V30 3952 N 375.024 -4.194 1.96616 0
M  V30 3953 C 375.759 -5.14209 2.53727 0
M  V30 3954 N 375.255 -6.14709 3.19539 0
M  V30 3955 N 377.048 -5.06537 2.43673 0
M  V30 3956 H 369.199 -1.25377 1.71447 0
M  V30 3957 H 371.462 -0.608844 0.726645 0
M  V30 3958 H 371.168 -2.68 2.27747 0
M  V30 3959 H 371.042 -3.67745 0.839273 0
M  V30 3960 H 373.429 -2.94614 0.169232 0
M  V30 3961 H 373.51 -1.96406 1.63885 0
M  V30 3962 H 373.154 -4.06966 3.03877 0
M  V30 3963 H 373.084 -5.03486 1.54302 0
M  V30 3964 H 375.575 -3.47421 1.48684 0
M  V30 3965 H 375.888 -6.8354 3.60545 0
M  V30 3966 H 374.233 -6.1505 3.23633 0
M  V30 3967 H 377.424 -4.26962 1.91889 0
M  V30 3968 H 377.597 -5.80245 2.88479 0
M  V30 3969 N 371.003 -0.499398 -1.49478 0
M  V30 3970 C 372.419 -0.155261 -1.58843 0
M  V30 3971 C 372.619 1.34008 -1.50479 0
M  V30 3972 O 371.675 2.11589 -1.37791 0
M  V30 3973 C 372.988 -0.730636 -2.91689 0
M  V30 3974 C 374.536 -0.696599 -3.0515 0
M  V30 3975 C 375.011 -1.25001 -4.40612 0
M  V30 3976 N 376.502 -1.21064 -4.47099 0
M  V30 3977 C 377.237 -1.60905 -5.50361 0
M  V30 3978 N 376.733 -2.08331 -6.60735 0
M  V30 3979 N 378.526 -1.52331 -5.41065 0
M  V30 3980 H 370.677 -1.47162 -1.53158 0
M  V30 3981 H 372.94 -0.610309 -0.725415 0
M  V30 3982 H 372.646 -1.77928 -3.03372 0
M  V30 3983 H 372.52 -0.190161 -3.7672 0
M  V30 3984 H 374.907 0.343204 -2.93097 0
M  V30 3985 H 374.988 -1.2742 -2.21806 0
M  V30 3986 H 374.632 -2.28859 -4.53416 0
M  V30 3987 H 374.562 -0.64836 -5.22593 0
M  V30 3988 H 377.053 -0.863128 -3.67911 0
M  V30 3989 H 377.366 -2.36805 -7.35624 0
M  V30 3990 H 375.711 -2.12304 -6.6178 0
M  V30 3991 H 378.902 -1.151 -4.53729 0
M  V30 3992 H 379.075 -1.83704 -6.21415 0
M  V30 3993 N 372.481 1.55866 -0.233164 0
M  V30 3994 C 373.411 2.23783 0.666599 0
M  V30 3995 C 374.392 1.21343 1.19205 0
M  V30 3996 O 375.577 1.4996 1.23392 0
M  V30 3997 C 372.707 2.92671 1.86978 0
M  V30 3998 C 371.661 4.01682 1.47768 0
M  V30 3999 C 370.987 4.57926 2.76058 0
M  V30 4000 C 372.287 5.18126 0.658993 0
M  V30 4001 H 373.981 2.99232 0.100306 0
M  V30 4002 H 371.527 1.43924 0.046804 0
M  V30 4003 H 373.48 3.3888 2.50476 0
M  V30 4004 H 372.204 2.14688 2.46123 0
M  V30 4005 H 370.863 3.56222 0.866106 0
M  V30 4006 H 370.511 3.76659 3.33372 0
M  V30 4007 H 370.211 5.31505 2.50552 0
M  V30 4008 H 371.735 5.06859 3.40479 0
M  V30 4009 H 373.149 5.60644 1.19795 0
M  V30 4010 H 371.546 5.98009 0.500552 0
M  V30 4011 H 372.616 4.83763 -0.331856 0
M  V30 4012 N 373.959 -0.0401083 1.57549 0
M  V30 4013 C 375.375 -0.395556 1.54621 0
M  V30 4014 C 375.575 -1.77281 0.957799 0
M  V30 4015 O 374.631 -2.45888 0.574031 0
M  V30 4016 C 375.944 -0.307535 2.99123 0
M  V30 4017 C 377.492 -0.385425 3.10618 0
M  V30 4018 C 377.967 -0.326973 4.56831 0
M  V30 4019 N 379.458 -0.386102 4.61588 0
M  V30 4020 C 380.193 -0.363591 5.72246 0
M  V30 4021 N 379.689 -0.29402 6.92176 0
M  V30 4022 N 381.482 -0.412503 5.60584 0
M  V30 4023 H 373.633 0.861325 1.94152 0
M  V30 4024 H 375.896 0.326445 0.890021 0
M  V30 4025 H 375.602 0.638461 3.45856 0
M  V30 4026 H 375.476 -1.10552 3.60636 0
M  V30 4027 H 377.863 -1.32185 2.63839 0
M  V30 4028 H 377.944 0.44171 2.51957 0
M  V30 4029 H 377.588 0.605738 5.04275 0
M  V30 4030 H 377.518 -1.17207 5.13391 0
M  V30 4031 H 380.009 -0.442832 3.75296 0
M  V30 4032 H 380.322 -0.28164 7.72287 0
M  V30 4033 H 378.667 -0.260232 6.94513 0
M  V30 4034 H 381.858 -0.464769 4.65787 0
M  V30 4035 H 382.031 -0.391492 6.46816 0
M  V30 4036 N 375.437 -1.54477 -0.31217 0
M  V30 4037 C 376.665 -1.77205 -1.068 0
M  V30 4038 C 377.08 -0.526114 -1.81321 0
M  V30 4039 O 376.437 0.503647 -1.75413 0
M  V30 4040 C 376.488 -2.97253 -2.05725 0
M  V30 4041 O 376.209 -4.1703 -1.34228 0
M  V30 4042 C 377.71 -3.32281 -2.93435 0
M  V30 4043 H 374.93 -0.591287 -0.317208 0
M  V30 4044 H 377.474 -2.01398 -0.354834 0
M  V30 4045 H 375.629 -2.753 -2.72559 0
M  V30 4046 H 376.043 -4.84636 -2.00571 0
M  V30 4047 H 377.517 -4.19551 -3.58721 0
M  V30 4048 H 377.994 -2.49945 -3.61143 0
M  V30 4049 H 378.6 -3.56353 -2.32147 0
M  V30 4050 N 376.915 0.57481 -1.46744 0
M  V30 4051 C 377.865 1.67838 -1.54319 0
M  V30 4052 C 378.849 1.55759 -0.40346 0
M  V30 4053 O 380.041 1.6454 -0.652347 0
M  V30 4054 C 377.17 3.06624 -1.5439 0
M  V30 4055 C 376.256 3.23971 -2.73685 0
M  V30 4056 N 376.647 3.11447 -3.9854 0
M  V30 4057 C 374.945 3.5493 -2.70075 0
M  V30 4058 C 375.646 3.31011 -4.78337 0
M  V30 4059 N 374.622 3.56533 -4.10348 0
M  V30 4060 H 378.424 1.56698 -2.48642 0
M  V30 4061 H 375.938 0.779071 -1.42493 0
M  V30 4062 H 377.935 3.85839 -1.57905 0
M  V30 4063 H 376.595 3.1889 -0.611493 0
M  V30 4064 H 377.606 2.89145 -4.29669 0
M  V30 4065 H 374.283 3.73832 -1.85893 0
M  V30 4066 H 375.673 3.26445 -5.87268 0
M  V30 4067 N 378.394 1.34581 0.820102 0
M  V30 4068 C 379.64 1.27285 1.57881 0
M  V30 4069 C 379.973 -0.156137 1.93571 0
M  V30 4070 O 379.248 -1.10222 1.60254 0
M  V30 4071 C 379.531 2.16639 2.87645 0
M  V30 4072 C 379.384 3.68088 2.58517 0
M  V30 4073 C 380.703 2.05378 3.8924 0
M  V30 4074 H 377.822 0.463714 0.572833 0
M  V30 4075 H 380.464 1.64859 0.944539 0
M  V30 4076 H 378.614 1.84725 3.41773 0
M  V30 4077 H 380.286 4.10382 2.10676 0
M  V30 4078 H 378.529 3.89038 1.91917 0
M  V30 4079 H 379.2 4.2598 3.51063 0
M  V30 4080 H 381.676 2.33404 3.44473 0
M  V30 4081 H 380.552 2.7012 4.77835 0
M  V30 4082 H 380.813 1.0316 4.29896 0
M  V30 4083 N 379.872 -1.04064 1.18357 0
M  V30 4084 C 380.819 -2.12077 0.910603 0
M  V30 4085 C 381.789 -1.65421 -0.15 0
M  V30 4086 O 382.974 -1.90797 -0.0103614 0
M  V30 4087 C 380.114 -3.42252 0.442472 0
M  V30 4088 C 379.227 -4.0252 1.5685 0
M  V30 4089 C 378.362 -5.20657 1.05309 0
M  V30 4090 C 377.401 -5.72955 2.1538 0
M  V30 4091 N 376.538 -6.8238 1.65233 0
M  V30 4092 H 381.378 -2.34764 1.83548 0
M  V30 4093 H 378.915 -1.15157 0.915279 0
M  V30 4094 H 380.873 -4.16921 0.152534 0
M  V30 4095 H 379.503 -3.19712 -0.445428 0
M  V30 4096 H 378.555 -3.25178 1.97391 0
M  V30 4097 H 379.867 -4.37362 2.39824 0
M  V30 4098 H 379.021 -6.0244 0.717677 0
M  V30 4099 H 377.76 -4.87318 0.19293 0
M  V30 4100 H 376.765 -4.89793 2.49766 0
M  V30 4101 H 377.99 -6.08337 3.01832 0
M  V30 4102 H 375.936 -6.50917 0.815064 0
M  V30 4103 H 375.853 -7.16286 2.41805 0
M  V30 4104 H 377.121 -7.67788 1.34619 0
M  V30 4105 N 381.35 -0.985608 -1.22978 0
M  V30 4106 C 382.598 -0.656087 -1.91154 0
M  V30 4107 C 382.919 0.813561 -1.77218 0
M  V30 4108 O 382.189 1.58244 -1.1548 0
M  V30 4109 H 380.769 -0.239674 -0.707506 0
M  V30 4110 H 383.431 -1.25054 -1.49491 0
M  V30 4111 H 382.527 -0.912253 -2.9847 0
M  V30 4112 N 382.828 1.3818 -0.7579 0
M  V30 4113 C 383.791 2.28764 -0.141286 0
M  V30 4114 C 384.791 1.47388 0.642907 0
M  V30 4115 O 385.981 1.67781 0.468536 0
M  V30 4116 C 383.113 3.31184 0.808069 0
M  V30 4117 H 384.306 2.848 -0.939633 0
M  V30 4118 H 381.859 1.47212 -0.525191 0
M  V30 4119 H 382.594 2.80247 1.63193 0
M  V30 4120 H 382.379 3.91314 0.248104 0
M  V30 4121 H 383.869 3.98909 1.23536 0
M  V30 4122 N 384.306 0.507319 1.49211 0
M  V30 4123 C 385.216 -0.272136 2.33016 0
M  V30 4124 C 386.232 -0.961206 1.45041 0
M  V30 4125 O 387.408 -0.941191 1.78055 0
M  V30 4126 C 384.473 -1.31895 3.20631 0
M  V30 4127 C 383.534 -0.642648 4.24463 0
M  V30 4128 C 382.767 -1.63959 5.07891 0
M  V30 4129 O 382.99 -2.87007 4.92933 0
M  V30 4130 O 381.924 -1.19143 5.8999 0
M  V30 4131 H 385.75 0.413982 3.00865 0
M  V30 4132 H 383.335 0.268556 1.46966 0
M  V30 4133 H 385.217 -1.92446 3.7489 0
M  V30 4134 H 383.892 -1.98788 2.5547 0
M  V30 4135 H 382.799 0.00276252 3.741 0
M  V30 4136 H 384.132 -0.0160534 4.92197 0
M  V30 4137 N 385.784 -1.5574 0.241426 0
M  V30 4138 C 386.714 -2.24133 -0.654722 0
M  V30 4139 C 387.695 -1.21974 -1.1856 0
M  V30 4140 O 388.88 -1.50612 -1.22595 0
M  V30 4141 C 386.01 -2.93659 -1.85423 0
M  V30 4142 C 384.964 -4.0246 -1.45636 0
M  V30 4143 C 384.29 -4.59383 -2.73626 0
M  V30 4144 C 385.59 -5.18468 -0.631506 0
M  V30 4145 H 387.284 -2.99281 -0.0844353 0
M  V30 4146 H 384.83 -1.43947 -0.0391707 0
M  V30 4147 H 386.783 -3.40203 -2.48676 0
M  V30 4148 H 385.507 -2.15991 -2.44981 0
M  V30 4149 H 384.166 -3.56676 -0.847202 0
M  V30 4150 H 383.814 -3.78422 -3.3137 0
M  V30 4151 H 383.514 -5.32826 -2.4773 0
M  V30 4152 H 385.038 -5.08658 -3.37786 0
M  V30 4153 H 386.452 -5.61272 -1.1682 0
M  V30 4154 H 384.849 -5.98266 -0.468831 0
M  V30 4155 H 385.919 -4.8358 0.357506 0
M  V30 4156 N 387.262 0.0317525 -1.57568 0
M  V30 4157 C 388.508 0.724175 -1.8943 0
M  V30 4158 C 388.841 1.75149 -0.838836 0
M  V30 4159 O 388.116 1.93948 0.146422 0
M  V30 4160 C 388.399 1.39615 -3.31933 0
M  V30 4161 C 388.252 0.382537 -4.4817 0
M  V30 4162 C 389.571 2.33084 -3.73309 0
M  V30 4163 H 386.69 0.261797 -0.688935 0
M  V30 4164 H 389.332 -0.013017 -1.89996 0
M  V30 4165 H 387.482 2.02451 -3.31581 0
M  V30 4166 H 389.154 -0.243689 -4.60656 0
M  V30 4167 H 387.397 -0.29844 -4.32772 0
M  V30 4168 H 388.068 0.891145 -5.44759 0
M  V30 4169 H 390.544 1.80295 -3.7501 0
M  V30 4170 H 389.42 2.77084 -4.73831 0
M  V30 4171 H 389.681 3.19643 -3.05419 0
M  V30 4172 N 388.74 1.54641 0.303973 0
M  V30 4173 C 389.65 1.88439 1.39743 0
M  V30 4174 C 390.666 0.778239 1.55626 0
M  V30 4175 O 391.842 1.07442 1.70347 0
M  V30 4176 C 388.907 2.12212 2.74166 0
M  V30 4177 C 387.968 3.35936 2.67293 0
M  V30 4178 C 387.201 3.58566 3.95305 0
M  V30 4179 O 387.424 2.84263 4.9452 0
M  V30 4180 O 386.358 4.52078 3.97378 0
M  V30 4181 H 390.184 2.81458 1.14083 0
M  V30 4182 H 387.769 1.40793 0.499768 0
M  V30 4183 H 389.651 2.29067 3.53704 0
M  V30 4184 H 388.326 1.22379 2.99675 0
M  V30 4185 H 387.233 3.24448 1.86237 0
M  V30 4186 H 388.566 4.2589 2.46736 0
M  V30 4187 N 390.218 -0.567019 1.47046 0
M  V30 4188 C 391.466 -1.322 1.52864 0
M  V30 4189 C 391.787 -1.94088 0.188388 0
M  V30 4190 O 391.057 -1.7941 -0.786693 0
M  V30 4191 H 389.637 -0.490894 0.563056 0
M  V30 4192 H 392.299 -0.662879 1.83281 0
M  V30 4193 H 391.395 -2.12062 2.2899 0
M  V30 4194 N 391.696 -1.35014 -0.812953 0
M  V30 4195 C 392.936 -1.29289 -1.58315 0
M  V30 4196 C 393.3 0.132727 -1.91541 0
M  V30 4197 O 394.501 0.314269 -2.66957 0
M  V30 4198 C 392.772 -2.1681 -2.84127 0
M  V30 4199 S 394.331 -2.28538 -3.74588 0
M  V30 4200 H 391.149 -0.459569 -0.542511 0
M  V30 4201 H 393.751 -1.70336 -0.959467 0
M  V30 4202 H 392.455 -3.19379 -2.57731 0
M  V30 4203 H 391.986 -1.76697 -3.51485 0
M  V30 4204 H 394.001 -1.4655 -4.74065 0
M  V30 4205 N 393.175 1.03435 -1.18907 0
M  V30 4206 C 394.452 1.73778 -0.89781 0
M  V30 4207 C 394.832 2.02458 0.597832 0
M  V30 4208 O 394.18 1.67482 1.55441 0
M  V30 4209 C 394.39 3.01845 -1.75187 0
M  V30 4210 C 395.738 3.7546 -1.9828 0
M  V30 4211 O 396.762 3.11759 -1.72293 0
M  V30 4212 O 395.621 4.89966 -2.42065 0
M  V30 4213 H 392.715 0.75651 -0.334098 0
M  V30 4214 H 395.261 1.09444 -1.29693 0
M  V30 4215 H 394.033 2.76836 -2.76545 0
M  V30 4216 H 393.656 3.73919 -1.35167 0
M  V30 4217 N 394.653 0.992116 1.22453 0
M  V30 4218 C 395.901 0.666215 1.90804 0
M  V30 4219 C 396.222 -0.804152 1.77647 0
M  V30 4220 O 395.492 -1.57629 1.16318 0
M  V30 4221 H 394.072 0.243423 0.706225 0
M  V30 4222 H 396.734 1.25845 1.48825 0
M  V30 4223 H 395.83 0.928069 2.97982 0
M  V30 4224 N 396.131 -1.37776 0.765217 0
M  V30 4225 C 397.38 -1.99092 0.323307 0
M  V30 4226 C 397.693 -1.61434 -1.10446 0
M  V30 4227 O 398.899 -2.15805 -1.64743 0
M  V30 4228 C 397.355 -3.56019 0.527098 0
M  V30 4229 C 396.963 -4.0262 1.96471 0
M  V30 4230 C 398.707 -4.2424 0.148483 0
M  V30 4231 C 396.614 -5.52233 2.11644 0
M  V30 4232 H 395.544 -0.744846 0.117137 0
M  V30 4233 H 398.195 -1.57391 0.943417 0
M  V30 4234 H 396.577 -3.95667 -0.162372 0
M  V30 4235 H 397.751 -3.74234 2.68859 0
M  V30 4236 H 396.066 -3.47161 2.29931 0
M  V30 4237 H 398.663 -5.34159 0.240456 0
M  V30 4238 H 399.006 -4.06446 -0.900422 0
M  V30 4239 H 399.539 -3.89872 0.79025 0
M  V30 4240 H 396.278 -5.74945 3.1483 0
M  V30 4241 H 395.798 -5.82324 1.4373 0
M  V30 4242 H 397.477 -6.18106 1.91193 0
M  V30 4243 N 397.609 -0.515225 -1.4894 0
M  V30 4244 C 398.539 0.244628 -2.32215 0
M  V30 4245 C 399.52 0.949136 -1.41157 0
M  V30 4246 O 400.705 0.937783 -1.70057 0
M  V30 4247 C 397.835 1.30096 -3.22013 0
M  V30 4248 C 396.789 0.715486 -4.21977 0
M  V30 4249 C 396.115 1.87339 -5.00808 0
M  V30 4250 C 397.415 -0.302982 -5.2142 0
M  V30 4251 H 399.109 -0.450501 -2.95991 0
M  V30 4252 H 396.655 -0.218098 -1.42339 0
M  V30 4253 H 398.608 1.84037 -3.79089 0
M  V30 4254 H 397.332 2.02547 -2.56207 0
M  V30 4255 H 395.991 0.197715 -3.66066 0
M  V30 4256 H 395.639 2.58592 -4.31438 0
M  V30 4257 H 395.339 1.48764 -5.68457 0
M  V30 4258 H 396.863 2.41686 -5.60732 0
M  V30 4259 H 398.277 0.148802 -5.73107 0
M  V30 4260 H 396.674 -0.60532 -5.97039 0
M  V30 4261 H 397.744 -1.21395 -4.69459 0
M  V30 4262 N 399.087 1.5561 -0.249682 0
M  V30 4263 C 400.335 1.98618 0.373548 0
M  V30 4264 C 400.656 1.13919 1.58264 0
M  V30 4265 O 399.926 0.222637 1.94631 0
M  V30 4266 H 398.506 0.733571 0.141006 0
M  V30 4267 H 401.168 1.91748 -0.349117 0
M  V30 4268 H 400.264 3.04584 0.680796 0
M  V30 4269 N 400.565 -0.0233959 1.57583 0
M  V30 4270 C 401.842 -0.748794 1.807 0
M  V30 4271 C 402.222 -1.9327 0.849106 0
M  V30 4272 O 401.57 -2.28247 -0.107468 0
M  V30 4273 C 401.78 -1.17651 3.28571 0
M  V30 4274 C 403.128 -1.59008 3.93702 0
M  V30 4275 O 404.152 -1.27094 3.32755 0
M  V30 4276 O 403.011 -2.18264 5.01022 0
M  V30 4277 H 400.105 -0.362578 0.743281 0
M  V30 4278 H 402.651 0.000261958 1.697 0
M  V30 4279 H 401.423 -0.331603 3.89892 0
M  V30 4280 H 401.046 -1.98541 3.44481 0
M  V30 4281 N 402.043 -1.548 -0.295768 0
M  V30 4282 C 402.991 -1.86874 -1.38495 0
M  V30 4283 C 403.985 -0.742938 -1.52239 0
M  V30 4284 O 405.191 -0.926999 -1.54294 0
M  V30 4285 H 401.566 -0.592786 -0.462719 0
M  V30 4286 H 403.537 -2.77904 -1.08682 0
M  V30 4287 C 402.286 -2.13732 -2.74252 0
M  V30 4288 H 401.609 -2.99835 -2.64459 0
M  V30 4289 H 403.049 -2.4011 -3.49461 0
M  V30 4290 C 401.508 -0.937539 -3.23592 0
M  V30 4291 O 402.038 -0.160665 -4.01379 0
M  V30 4292 N 400.244 -0.741478 -2.80981 0
M  V30 4293 H 399.791 -1.37489 -2.1784 0
M  V30 4294 H 399.749 0.0597103 -3.14343 0
M  V30 4295 N 403.521 0.559213 -1.47345 0
M  V30 4296 C 404.768 1.31648 -1.53867 0
M  V30 4297 C 405.096 1.93468 -0.200104 0
M  V30 4298 O 404.351 1.78295 0.806799 0
M  V30 4299 C 404.65 2.44853 -2.6035 0
M  V30 4300 C 404.316 2.00876 -4.03683 0
M  V30 4301 C 402.978 1.88599 -4.42701 0
M  V30 4302 C 405.33 1.67279 -4.93626 0
M  V30 4303 C 402.658 1.41017 -5.69501 0
M  V30 4304 C 405.01 1.21169 -6.20887 0
M  V30 4305 C 403.674 1.07487 -6.58789 0
M  V30 4306 H 402.944 0.481734 -0.56304 0
M  V30 4307 H 405.591 0.627301 -1.80934 0
M  V30 4308 H 403.896 3.19318 -2.27032 0
M  V30 4309 H 405.593 3.03039 -2.62619 0
M  V30 4310 H 402.183 2.11374 -3.72853 0
M  V30 4311 H 406.367 1.75638 -4.64182 0
M  V30 4312 H 401.623 1.29086 -5.97618 0
M  V30 4313 H 405.797 0.942345 -6.89995 0
M  V30 4314 H 403.424 0.703946 -7.56934 0
M  V30 4315 N 404.999 1.35443 0.805782 0
M  V30 4316 C 406.415 1.15499 1.10146 0
M  V30 4317 C 406.615 -0.0319975 2.01475 0
M  V30 4318 O 405.671 -0.70236 2.42535 0
M  V30 4319 C 406.984 2.45833 1.73166 0
M  V30 4320 C 408.532 2.52047 1.85583 0
M  V30 4321 C 409.007 3.82427 2.52019 0
M  V30 4322 N 410.498 3.83682 2.59504 0
M  V30 4323 C 411.233 4.81294 3.11679 0
M  V30 4324 N 410.729 5.89294 3.64287 0
M  V30 4325 N 412.522 4.6873 3.1024 0
M  V30 4326 H 404.673 2.11469 0.198678 0
M  V30 4327 H 406.936 0.93594 0.150731 0
M  V30 4328 H 406.642 3.32874 1.13526 0
M  V30 4329 H 406.516 2.6044 2.72857 0
M  V30 4330 H 408.903 1.65435 2.44367 0
M  V30 4331 H 408.984 2.41354 0.847455 0
M  V30 4332 H 408.628 4.69437 1.93885 0
M  V30 4333 H 408.558 3.90409 3.53395 0
M  V30 4334 H 411.049 3.05648 2.22234 0
M  V30 4335 H 411.362 6.59768 4.02401 0
M  V30 4336 H 409.707 5.92985 3.62483 0
M  V30 4337 H 412.898 3.83496 2.68419 0
M  V30 4338 H 413.071 5.44965 3.50596 0
M  V30 4339 N 406.477 -1.02803 1.19454 0
M  V30 4340 C 407.888 -1.57667 0.999899 0
M  V30 4341 C 408.239 -1.91041 -0.446956 0
M  V30 4342 O 407.364 -1.70978 -1.32648 0
M  V30 4343 C 407.959 -2.86477 1.80877 0
M  V30 4344 C 406.518 -3.37911 1.65811 0
M  V30 4345 C 405.665 -2.11343 1.79526 0
M  V30 4346 H 408.616 -0.853214 1.33813 0
M  V30 4347 H 408.637 -3.57408 1.30536 0
M  V30 4348 H 408.149 -2.62155 2.86175 0
M  V30 4349 H 406.25 -3.67218 0.63102 0
M  V30 4350 H 406.363 -4.10885 2.46395 0
M  V30 4351 H 404.727 -2.23254 1.22596 0
M  V30 4352 H 405.51 -1.89461 2.86285 0
M  V30 4353 N 407.956 -0.998596 -1.21925 0
M  V30 4354 C 409.184 -0.696286 -1.94832 0
M  V30 4355 C 409.599 0.740032 -1.73692 0
M  V30 4356 O 408.956 1.5 -1.03953 0
M  V30 4357 C 409.007 -0.999833 -3.47398 0
M  V30 4358 O 408.728 -2.37972 -3.67833 0
M  V30 4359 C 410.229 -0.716025 -4.37479 0
M  V30 4360 H 407.449 -0.257111 -0.619786 0
M  V30 4361 H 409.993 -1.33491 -1.54921 0
M  V30 4362 H 408.148 -0.406918 -3.85257 0
M  V30 4363 H 408.562 -2.48338 -4.61983 0
M  V30 4364 H 410.036 -0.978642 -5.43256 0
M  V30 4365 H 410.513 0.349968 -4.37803 0
M  V30 4366 H 411.119 -1.29025 -4.05256 0
M  V30 4367 N 409.434 1.37368 -0.772513 0
M  V30 4368 C 410.366 2.28899 -0.117502 0
M  V30 4369 C 411.379 1.4867 0.663405 0
M  V30 4370 O 412.568 1.71314 0.501372 0
M  V30 4371 C 409.668 3.2788 0.857192 0
M  V30 4372 C 408.841 4.37207 0.129938 0
M  V30 4373 C 407.9 5.16257 1.01811 0
M  V30 4374 O 406.926 5.67159 0.481601 0
M  V30 4375 N 408.128 5.31058 2.3443 0
M  V30 4376 H 410.893 2.85752 -0.903662 0
M  V30 4377 H 408.454 1.49353 -0.62493 0
M  V30 4378 H 410.446 3.77647 1.45482 0
M  V30 4379 H 409.016 2.7179 1.54432 0
M  V30 4380 H 408.236 3.88827 -0.648605 0
M  V30 4381 H 409.524 5.07434 -0.372559 0
M  V30 4382 H 408.922 4.91287 2.80452 0
M  V30 4383 H 407.479 5.84131 2.89197 0
M  V30 4384 N 410.912 0.523116 1.48665 0
M  V30 4385 C 412.323 0.0808997 1.86525 0
M  V30 4386 C 412.674 -1.33975 1.43336 0
M  V30 4387 O 411.799 -2.00221 0.821009 0
M  V30 4388 C 412.394 0.140037 3.3851 0
M  V30 4389 C 410.953 -0.246948 3.75589 0
M  V30 4390 C 410.1 0.502845 2.72703 0
M  V30 4391 H 413.051 0.734736 1.40667 0
M  V30 4392 H 413.072 -0.649945 3.74908 0
M  V30 4393 H 412.584 1.17412 3.69914 0
M  V30 4394 H 410.685 -1.28343 3.49798 0
M  V30 4395 H 410.798 0.0878859 4.79019 0
M  V30 4396 H 409.162 -0.0500581 2.54651 0
M  V30 4397 H 409.945 1.53743 3.0695 0
M  V30 4398 N 412.39 -1.55475 0.257931 0
M  V30 4399 C 413.32 -2.24815 -0.630912 0
M  V30 4400 C 414.301 -1.23224 -1.17259 0
M  V30 4401 O 415.486 -1.51904 -1.20991 0
M  V30 4402 C 412.616 -2.95609 -1.82298 0
M  V30 4403 C 411.57 -4.03982 -1.41359 0
M  V30 4404 C 410.896 -4.6226 -2.68738 0
M  V30 4405 C 412.196 -5.19109 -0.57648 0
M  V30 4406 H 413.89 -2.99354 -0.0526878 0
M  V30 4407 H 411.436 -1.4398 -0.023901 0
M  V30 4408 H 413.389 -3.42822 -2.45054 0
M  V30 4409 H 412.113 -2.18577 -2.42676 0
M  V30 4410 H 410.772 -3.57555 -0.809324 0
M  V30 4411 H 410.42 -3.81915 -3.27338 0
M  V30 4412 H 410.12 -5.35424 -2.42065 0
M  V30 4413 H 411.644 -5.12212 -3.32372 0
M  V30 4414 H 413.058 -5.62479 -1.10861 0
M  V30 4415 H 411.455 -5.98729 -0.405351 0
M  V30 4416 H 412.525 -4.83174 0.408776 0
M  V30 4417 N 413.868 0.0150385 -1.57593 0
M  V30 4418 C 415.093 0.718067 -1.94573 0
M  V30 4419 C 415.518 1.6734 -0.859005 0
M  V30 4420 O 414.876 1.80362 0.184147 0
M  V30 4421 C 414.924 1.43918 -3.30636 0
M  V30 4422 O 414.028 2.55299 -3.23876 0
M  V30 4423 H 413.369 0.192125 -0.635597 0
M  V30 4424 H 415.899 -0.0336708 -2.04572 0
M  V30 4425 H 415.909 1.80598 -3.65853 0
M  V30 4426 H 414.584 0.738619 -4.09289 0
M  V30 4427 H 413.161 2.21058 -3.00312 0
M  V30 4428 N 415.346 1.54954 0.287554 0
M  V30 4429 C 416.623 1.65569 1.04146 0
M  V30 4430 C 417.003 0.512672 2.0478 0
M  V30 4431 O 416.351 -0.489038 2.23205 0
M  V30 4432 C 416.561 3.04163 1.71131 0
M  V30 4433 C 417.909 3.61429 2.22832 0
M  V30 4434 O 418.933 3.06702 1.81141 0
M  V30 4435 O 417.792 4.57281 2.9926 0
M  V30 4436 H 414.886 0.671881 0.482188 0
M  V30 4437 H 417.432 1.67297 0.28457 0
M  V30 4438 H 416.204 3.78796 0.981303 0
M  V30 4439 H 415.827 3.06271 2.53543 0
M  V30 4440 N 416.824 -0.551391 1.4764 0
M  V30 4441 C 418.24 -0.877887 1.33287 0
M  V30 4442 C 418.44 -1.98817 0.327721 0
M  V30 4443 O 417.496 -2.51171 -0.258695 0
M  V30 4444 C 418.809 -1.26563 2.72768 0
M  V30 4445 C 420.357 -1.37673 2.81097 0
M  V30 4446 C 420.832 -1.79799 4.21232 0
M  V30 4447 N 422.323 -1.8694 4.23802 0
M  V30 4448 C 423.058 -2.20876 5.29151 0
M  V30 4449 N 422.554 -2.53386 6.448 0
M  V30 4450 N 424.347 -2.217 5.16532 0
M  V30 4451 H 416.498 0.18153 2.11623 0
M  V30 4452 H 418.761 0.0185514 0.947818 0
M  V30 4453 H 418.467 -0.523591 3.47781 0
M  V30 4454 H 418.341 -2.22052 3.04915 0
M  V30 4455 H 420.728 -2.10956 2.06353 0
M  V30 4456 H 420.809 -0.40357 2.52596 0
M  V30 4457 H 420.453 -1.07083 4.96483 0
M  V30 4458 H 420.383 -2.78128 4.4716 0
M  V30 4459 H 422.874 -1.64179 3.40373 0
M  V30 4460 H 423.187 -2.78325 7.20941 0
M  V30 4461 H 421.532 -2.50953 6.48111 0
M  V30 4462 H 424.723 -1.95745 4.25207 0
M  V30 4463 H 424.896 -2.47818 5.98741 0
M  V30 4464 N 418.302 -1.35869 -0.798587 0
M  V30 4465 C 419.548 -1.2978 -1.55836 0
M  V30 4466 C 419.881 0.125322 -1.93795 0
M  V30 4467 O 419.156 1.07658 -1.61987 0
M  V30 4468 C 419.439 -2.21188 -2.84162 0
M  V30 4469 C 419.292 -3.72155 -2.52628 0
M  V30 4470 C 420.611 -2.11545 -3.85923 0
M  V30 4471 H 417.73 -0.472769 -0.565383 0
M  V30 4472 H 420.372 -1.66341 -0.918192 0
M  V30 4473 H 418.522 -1.90139 -3.38791 0
M  V30 4474 H 420.194 -4.13682 -2.04121 0
M  V30 4475 H 418.437 -3.92042 -1.85704 0
M  V30 4476 H 419.108 -4.31511 -3.44242 0
M  V30 4477 H 421.584 -2.38855 -3.40716 0
M  V30 4478 H 420.46 -2.77688 -4.73477 0
M  V30 4479 H 420.721 -1.09987 -4.282 0
M  V30 4480 N 419.78 1.02168 -1.19998 0
M  V30 4481 C 421.029 1.75091 -1.0013 0
M  V30 4482 C 421.342 1.89923 0.467835 0
M  V30 4483 O 422.548 2.59888 0.785515 0
M  V30 4484 C 421.004 3.14892 -1.74273 0
M  V30 4485 C 420.612 3.0809 -3.25245 0
M  V30 4486 C 422.356 3.9206 -1.62755 0
M  V30 4487 C 420.263 4.42867 -3.91948 0
M  V30 4488 H 419.193 0.656394 -0.37103 0
M  V30 4489 H 421.844 1.14284 -1.43567 0
M  V30 4490 H 420.226 3.7621 -1.2362 0
M  V30 4491 H 421.4 2.5611 -3.83072 0
M  V30 4492 H 419.715 2.44416 -3.3712 0
M  V30 4493 H 422.312 4.91764 -2.09934 0
M  V30 4494 H 422.655 4.12199 -0.582894 0
M  V30 4495 H 423.188 3.37359 -2.10793 0
M  V30 4496 H 419.927 4.27931 -4.96543 0
M  V30 4497 H 419.447 4.94874 -3.3891 0
M  V30 4498 H 421.126 5.11728 -3.95909 0
M  V30 4499 N 421.258 1.00505 1.21394 0
M  V30 4500 C 422.674 0.717873 1.42544 0
M  V30 4501 C 422.874 -0.706936 1.88692 0
M  V30 4502 O 421.93 -1.47627 2.04847 0
M  V30 4503 C 423.243 1.73377 2.45684 0
M  V30 4504 C 424.791 1.75059 2.59467 0
M  V30 4505 C 425.266 2.75545 3.6584 0
M  V30 4506 N 426.757 2.74213 3.73311 0
M  V30 4507 C 427.492 3.48626 4.55245 0
M  V30 4508 N 426.988 4.32678 5.41075 0
M  V30 4509 N 428.781 3.37276 4.49668 0
M  V30 4510 H 420.932 1.92506 0.897503 0
M  V30 4511 H 423.195 0.830919 0.456375 0
M  V30 4512 H 422.901 2.75395 2.18748 0
M  V30 4513 H 422.775 1.53647 3.44489 0
M  V30 4514 H 425.162 0.737337 2.8574 0
M  V30 4515 H 425.243 1.98861 1.60897 0
M  V30 4516 H 424.887 3.77028 3.40313 0
M  V30 4517 H 424.817 2.49009 4.64007 0
M  V30 4518 H 427.308 2.13234 3.11993 0
M  V30 4519 H 427.621 4.86253 6.00648 0
M  V30 4520 H 425.966 4.3676 5.40616 0
M  V30 4521 H 429.157 2.71043 3.81646 0
M  V30 4522 H 429.33 3.95524 5.13288 0
M  V30 4523 N 422.737 -1.36956 0.779787 0
M  V30 4524 C 423.7 -2.2851 0.177662 0
M  V30 4525 C 424.7 -1.48393 -0.619377 0
M  V30 4526 O 425.89 -1.68505 -0.441785 0
M  V30 4527 C 423.022 -3.32428 -0.755279 0
M  V30 4528 H 424.215 -2.83269 0.984823 0
M  V30 4529 H 421.768 -1.46358 0.548544 0
M  V30 4530 H 422.503 -2.82808 -1.58714 0
M  V30 4531 H 422.288 -3.91659 -0.185817 0
M  V30 4532 H 423.778 -4.00824 -1.17174 0
M  V30 4533 N 424.215 -0.530993 -1.48385 0
M  V30 4534 C 425.178 0.220497 -2.28137 0
M  V30 4535 C 426.178 0.866851 -1.35434 0
M  V30 4536 O 427.368 0.726746 -1.58316 0
M  V30 4537 C 424.5 1.31921 -3.1434 0
M  V30 4538 H 425.693 -0.479714 -2.96038 0
M  V30 4539 H 423.246 -0.286968 -1.53643 0
M  V30 4540 H 423.981 2.05264 -2.51072 0
M  V30 4541 H 423.766 0.86085 -3.82533 0
M  V30 4542 H 425.256 1.84776 -3.74497 0
M  V30 4543 N 425.693 1.55336 -0.266172 0
M  V30 4544 C 426.94 1.99397 0.353158 0
M  V30 4545 C 427.268 1.15451 1.56529 0
M  V30 4546 O 426.523 0.209974 1.9457 0
M  V30 4547 C 426.822 3.48606 0.787957 0
M  V30 4548 C 426.488 4.49773 -0.318541 0
M  V30 4549 C 425.15 4.77158 -0.62239 0
M  V30 4550 C 427.502 5.10212 -1.06459 0
M  V30 4551 C 424.83 5.62251 -1.67602 0
M  V30 4552 C 427.182 5.96449 -2.10788 0
M  V30 4553 C 425.846 6.22158 -2.41817 0
M  V30 4554 H 425.116 0.729644 0.12923 0
M  V30 4555 H 427.763 1.87732 -0.37802 0
M  V30 4556 H 426.068 3.57701 1.59866 0
M  V30 4557 H 427.765 3.80098 1.27775 0
M  V30 4558 H 424.355 4.2854 -0.0715925 0
M  V30 4559 H 428.539 4.89086 -0.843098 0
M  V30 4560 H 423.795 5.80419 -1.92155 0
M  V30 4561 H 427.969 6.42317 -2.69076 0
M  V30 4562 H 425.596 6.87888 -3.23596 0
M  V30 4563 N 427.171 -0.0066808 1.57599 0
M  V30 4564 C 428.103 -1.02827 2.04839 0
M  V30 4565 C 429.116 -1.31108 0.965113 0
M  V30 4566 O 430.305 -1.28202 1.24203 0
M  V30 4567 C 427.405 -2.36464 2.42771 0
M  V30 4568 C 426.578 -2.27219 3.73751 0
M  V30 4569 C 425.637 -3.43489 3.98625 0
M  V30 4570 O 424.663 -3.21976 4.69382 0
M  V30 4571 N 425.865 -4.66116 3.46 0
M  V30 4572 H 428.63 -0.625455 2.93101 0
M  V30 4573 H 426.191 -0.194198 1.60731 0
M  V30 4574 H 428.183 -3.13008 2.56531 0
M  V30 4575 H 426.753 -2.68512 1.60063 0
M  V30 4576 H 425.973 -1.35629 3.70133 0
M  V30 4577 H 427.261 -2.18208 4.59633 0
M  V30 4578 H 426.659 -4.86493 2.88688 0
M  V30 4579 H 425.216 -5.39949 3.65101 0
M  V30 4580 O 428.688 -1.6081 -0.149083 0
M  V30 4581 H 429.379 -1.77145 -0.783536 0
M  V30 END ATOM
M  V30 BEGIN BOND
M  V30 END BOND
M  V30 END CTAB
M  END
$$$$
