drugbank_target|P05181 Cytochrome P450 2E1 (DB11994)
 OpenBabel12092120343D

  0  0  0     0  0            999 V3000
M  V30 BEGIN CTAB
M  V30 COUNTS 8038 8151 0 0 0
M  V30 BEGIN ATOM
M  V30 1 H -0.908 1.98254 -0.117106 0
M  V30 2 N 0 1.576 0 0
M  V30 3 C 0.933 2.03868 1.02534 0
M  V30 4 C 1.911 0.928543 1.3348 0
M  V30 5 O 3.095 1.19667 1.45644 0
M  V30 6 C 0.222 2.43627 2.35294 0
M  V30 7 C -0.732 3.65373 2.2001 0
M  V30 8 S 0.101 5.13292 1.52614 0
M  V30 9 C 1.257 5.56322 2.86805 0
M  V30 10 H 1.49 2.90518 0.631377 0
M  V30 11 H -0.977 1.52953 0.210867 0
M  V30 12 H 0.981 2.67203 3.11629 0
M  V30 13 H -0.358 1.57376 2.7183 0
M  V30 14 H -1.165 3.90944 3.18086 0
M  V30 15 H -1.563 3.418 1.51819 0
M  V30 16 H 0.729 5.58782 3.83104 0
M  V30 17 H 1.672 6.56266 2.65933 0
M  V30 18 H 2.08 4.83886 2.90714 0
M  V30 19 N 1.4781 -0.272755 1.55222 0
M  V30 20 C 2.7031 -1.02683 1.80197 0
M  V30 21 C 3.1281 -1.79142 0.573551 0
M  V30 22 O 2.4861 -1.74917 -0.476849 0
M  V30 23 C 2.5341 -1.9609 3.02624 0
M  V30 24 O 1.6381 -3.04863 2.77727 0
M  V30 25 H 0.9791 -0.293557 0.595584 0
M  V30 26 H 3.5091 -0.30159 2.02365 0
M  V30 27 H 3.5191 -2.38039 3.31363 0
M  V30 28 H 2.1941 -1.39851 3.91682 0
M  V30 29 H 0.7711 -2.67228 2.60084 0
M  V30 30 N 2.9562 -1.48159 -0.537278 0
M  V30 31 C 3.9192 -1.61665 -1.62472 0
M  V30 32 C 4.9192 -0.490395 -1.5314 0
M  V30 33 O 6.1092 -0.755998 -1.5694 0
M  V30 34 C 3.2412 -1.57997 -3.02076 0
M  V30 35 H 4.4342 -2.58621 -1.51839 0
M  V30 36 H 1.9872 -1.36647 -0.758771 0
M  V30 37 H 2.7222 -0.624913 -3.18222 0
M  V30 38 H 2.5072 -2.39755 -3.10258 0
M  V30 39 H 3.9972 -1.70627 -3.81151 0
M  V30 40 N 4.4343 0.785586 -1.36625 0
M  V30 41 C 5.3643 1.91259 -1.33949 0
M  V30 42 C 6.3453 1.68795 -0.210325 0
M  V30 43 O 7.5303 1.89854 -0.408561 0
M  V30 44 C 4.6603 3.28339 -1.13186 0
M  V30 45 C 3.6143 3.65335 -2.22967 0
M  V30 46 C 2.9403 5.00806 -1.87342 0
M  V30 47 C 4.2403 3.7352 -3.65075 0
M  V30 48 H 5.9343 1.93755 -2.28253 0
M  V30 49 H 3.4803 0.930788 -1.09874 0
M  V30 50 H 5.4333 4.06804 -1.09948 0
M  V30 51 H 4.1573 3.2624 -0.153332 0
M  V30 52 H 2.8163 2.89169 -2.25337 0
M  V30 53 H 2.4643 4.95233 -0.880545 0
M  V30 54 H 2.1643 5.26529 -2.60846 0
M  V30 55 H 3.6883 5.81687 -1.85667 0
M  V30 56 H 5.1023 4.42168 -3.64911 0
M  V30 57 H 3.4993 4.10731 -4.37516 0
M  V30 58 H 4.5693 2.74527 -3.99703 0
M  V30 59 N 5.9124 1.20967 1.01018 0
M  V30 60 C 7.1604 1.02172 1.74371 0
M  V30 61 C 7.4814 -0.446414 1.89821 0
M  V30 62 O 6.7514 -1.32234 1.44537 0
M  V30 63 H 5.3314 0.375066 0.646014 0
M  V30 64 H 7.9934 1.52187 1.21758 0
M  V30 65 H 7.0894 1.48538 2.74487 0
M  V30 66 N 7.3905 -1.2043 1.01659 0
M  V30 67 C 8.6365 -1.90079 0.706963 0
M  V30 68 C 8.9695 -1.78648 -0.761474 0
M  V30 69 O 8.2445 -1.17069 -1.55323 0
M  V30 70 C 8.5275 -3.41469 1.14327 0
M  V30 71 C 8.3805 -3.61833 2.67201 0
M  V30 72 C 9.6995 -4.34261 0.714529 0
M  V30 73 H 6.8185 -0.690254 0.2583 0
M  V30 74 H 9.4605 -1.41826 1.26433 0
M  V30 75 H 7.6105 -3.82696 0.669056 0
M  V30 76 H 9.2825 -3.2986 3.22475 0
M  V30 77 H 7.5255 -3.05304 3.08175 0
M  V30 78 H 8.1965 -4.67955 2.92783 0
M  V30 79 H 10.6725 -4.00682 1.12221 0
M  V30 80 H 9.5485 -5.38806 1.04784 0
M  V30 81 H 9.8095 -4.40431 -0.383799 0
M  V30 82 N 8.8686 -0.792821 -1.36206 0
M  V30 83 C 10.0966 -0.378825 -2.03402 0
M  V30 84 C 10.5116 1.00586 -1.59774 0
M  V30 85 O 9.8686 1.64574 -0.788764 0
M  V30 86 C 9.9196 -0.43683 -3.58851 0
M  V30 87 O 9.6406 -1.76691 -4.00889 0
M  V30 88 C 11.1416 -0.0138943 -4.43298 0
M  V30 89 H 8.3616 -0.155673 -0.652692 0
M  V30 90 H 10.9056 -1.07261 -1.74113 0
M  V30 91 H 9.0606 0.208575 -3.86838 0
M  V30 92 H 9.4746 -1.72011 -4.95492 0
M  V30 93 H 10.9486 -0.105615 -5.51899 0
M  V30 94 H 11.4256 1.03915 -4.2673 0
M  V30 95 H 12.0316 -0.63192 -4.20579 0
M  V30 96 N 10.3467 1.47872 -0.545128 0
M  V30 97 C 11.5927 2.02793 -0.0166104 0
M  V30 98 C 11.9257 1.41987 1.32489 0
M  V30 99 O 11.2007 0.571045 1.85928 0
M  V30 100 C 11.4837 3.59989 0.0893294 0
M  V30 101 C 11.3367 4.3125 -1.27841 0
M  V30 102 C 12.6557 4.32606 0.808724 0
M  V30 103 H 9.7747 0.736962 -0.00751035 0
M  V30 104 H 12.4167 1.76433 -0.705085 0
M  V30 105 H 10.5667 3.82579 0.675681 0
M  V30 106 H 12.2387 4.20035 -1.90704 0
M  V30 107 H 10.4817 3.92076 -1.85632 0
M  V30 108 H 11.1527 5.39736 -1.15713 0
M  V30 109 H 13.6287 4.14936 0.310992 0
M  V30 110 H 12.5047 5.42251 0.851782 0
M  V30 111 H 12.7657 4.00963 1.86229 0
M  V30 112 N 11.8248 0.280983 1.55075 0
M  V30 113 C 12.7878 -0.590896 2.21452 0
M  V30 114 C 13.7878 -1.07682 1.19421 0
M  V30 115 O 14.9778 -0.97605 1.44288 0
M  V30 116 C 12.1098 -1.81587 2.88511 0
M  V30 117 H 13.3028 -0.0112554 2.99898 0
M  V30 118 H 10.8558 0.0316438 1.56268 0
M  V30 119 H 11.5908 -2.43587 2.14093 0
M  V30 120 H 11.3758 -1.4753 3.63287 0
M  V30 121 H 12.8658 -2.43575 3.39206 0
M  V30 122 N 13.3029 -1.57598 0.00835791 0
M  V30 123 C 14.2329 -2.1198 -0.979113 0
M  V30 124 C 15.2139 -1.03091 -1.35301 0
M  V30 125 O 16.3989 -1.30818 -1.43528 0
M  V30 126 C 13.5289 -2.62995 -2.26828 0
M  V30 127 C 12.4829 -3.76485 -2.03576 0
M  V30 128 C 11.8089 -4.13846 -3.38579 0
M  V30 129 C 13.1089 -5.0342 -1.39161 0
M  V30 130 H 14.8029 -2.94738 -0.526281 0
M  V30 131 H 12.3489 -1.41783 -0.251704 0
M  V30 132 H 14.3019 -2.99669 -2.96271 0
M  V30 133 H 13.0259 -1.7737 -2.7424 0
M  V30 134 H 11.6849 -3.40217 -1.36557 0
M  V30 135 H 11.3329 -3.25232 -3.83709 0
M  V30 136 H 11.0329 -4.90312 -3.23834 0
M  V30 137 H 12.5569 -4.53086 -4.09323 0
M  V30 138 H 13.9709 -5.37812 -1.98573 0
M  V30 139 H 12.3679 -5.84746 -1.34878 0
M  V30 140 H 13.4379 -4.83548 -0.361868 0
M  V30 141 N 14.781 0.264519 -1.55364 0
M  V30 142 C 15.711 1.33121 -1.91836 0
M  V30 143 C 16.692 1.51101 -0.781192 0
M  V30 144 O 17.877 1.64003 -1.04003 0
M  V30 145 C 15.007 2.68921 -2.19769 0
M  V30 146 C 13.961 2.65661 -3.35571 0
M  V30 147 C 13.287 4.05093 -3.49004 0
M  V30 148 C 14.587 2.24187 -4.71739 0
M  V30 149 H 16.281 1.02844 -2.81182 0
M  V30 150 H 13.827 0.493286 -1.35287 0
M  V30 151 H 15.78 3.43663 -2.43872 0
M  V30 152 H 14.504 3.00799 -1.27231 0
M  V30 153 H 13.163 1.93377 -3.1145 0
M  V30 154 H 12.811 4.34206 -2.53917 0
M  V30 155 H 12.511 4.03804 -4.26868 0
M  V30 156 H 14.035 4.81561 -3.75408 0
M  V30 157 H 15.449 2.88654 -4.9533 0
M  V30 158 H 13.846 2.34044 -5.52579 0
M  V30 159 H 14.916 1.19327 -4.69988 0
M  V30 160 N 16.2591 1.48442 0.529413 0
M  V30 161 C 17.5051 1.5672 1.28711 0
M  V30 162 C 17.8381 0.2406 1.92704 0
M  V30 163 O 17.1131 -0.753454 1.79313 0
M  V30 164 C 17.3961 2.70587 2.37603 0
M  V30 165 C 17.2491 4.12953 1.78297 0
M  V30 166 C 18.5681 2.80212 3.39366 0
M  V30 167 H 15.6871 0.570474 0.466613 0
M  V30 168 H 18.3291 1.80617 0.589706 0
M  V30 169 H 16.4791 2.50342 2.97088 0
M  V30 170 H 18.1511 4.44639 1.22858 0
M  V30 171 H 16.3941 4.19927 1.0883 0
M  V30 172 H 17.0651 4.88448 2.57144 0
M  V30 173 H 19.5411 2.98553 2.89836 0
M  V30 174 H 18.4171 3.61611 4.12951 0
M  V30 175 H 18.6781 1.88393 3.99951 0
M  V30 176 N 17.7372 -0.778329 1.37039 0
M  V30 177 C 18.9832 -1.53817 1.33086 0
M  V30 178 C 19.3382 -1.92208 -0.0860346 0
M  V30 179 O 18.6312 -1.60713 -1.04316 0
M  V30 180 C 18.8252 -2.81845 2.19768 0
M  V30 181 C 18.6542 -2.55967 3.69744 0
M  V30 182 C 17.4242 -2.50428 4.38878 0
M  V30 183 C 19.6222 -2.2441 4.62758 0
M  V30 184 N 17.6042 -2.16564 5.74433 0
M  V30 185 C 18.9752 -2.0063 5.86641 0
M  V30 186 C 21.0302 -2.1051 4.5121 0
M  V30 187 C 19.7332 -1.64354 7.00272 0
M  V30 188 C 21.7592 -1.75634 5.64718 0
M  V30 189 C 21.1212 -1.52709 6.87648 0
M  V30 190 H 17.2202 -0.563434 0.542279 0
M  V30 191 H 19.8042 -0.908617 1.72198 0
M  V30 192 H 17.9752 -3.42649 1.82883 0
M  V30 193 H 19.7072 -3.47682 2.07122 0
M  V30 194 H 16.4622 -2.66056 3.91805 0
M  V30 195 H 16.8862 -2.02348 6.46053 0
M  V30 196 H 21.5282 -2.26919 3.56746 0
M  V30 197 H 19.2462 -1.46683 7.94676 0
M  V30 198 H 22.8322 -1.65546 5.57751 0
M  V30 199 H 21.7122 -1.2612 7.73992 0
M  V30 200 N 19.2153 -1.21501 -1.00376 0
M  V30 201 C 20.1783 -0.976927 -2.07337 0
M  V30 202 C 21.1783 0.0525322 -1.60714 0
M  V30 203 O 22.3683 -0.184869 -1.73216 0
M  V30 204 C 19.5003 -0.473423 -3.37597 0
M  V30 205 H 20.6933 -1.92587 -2.29892 0
M  V30 206 H 18.2463 -1.03217 -1.17371 0
M  V30 207 H 18.9813 0.480379 -3.20722 0
M  V30 208 H 18.7663 -1.216 -3.72768 0
M  V30 209 H 20.2563 -0.32675 -4.1632 0
M  V30 210 N 20.6934 1.19889 -1.02296 0
M  V30 211 C 21.6564 2.21116 -0.603351 0
M  V30 212 C 22.6564 1.5738 0.329884 0
M  V30 213 O 23.8464 1.73802 0.117702 0
M  V30 214 C 20.9784 3.40696 0.117992 0
M  V30 215 H 22.1714 2.59754 -1.49893 0
M  V30 216 H 19.7244 1.33463 -0.813468 0
M  V30 217 H 20.4594 3.07569 1.0282 0
M  V30 218 H 20.2444 3.88188 -0.552511 0
M  V30 219 H 21.7344 4.15692 0.398696 0
M  V30 220 N 22.1715 0.800033 1.35784 0
M  V30 221 C 23.4185 0.377342 1.98953 0
M  V30 222 C 23.7465 -1.05378 1.6348 0
M  V30 223 O 23.0015 -1.74459 0.886707 0
M  V30 224 C 23.3005 0.500276 3.53881 0
M  V30 225 C 22.9665 1.89375 4.09204 0
M  V30 226 C 21.6285 2.27499 4.24025 0
M  V30 227 C 23.9805 2.8057 4.39238 0
M  V30 228 C 21.3085 3.562 4.66195 0
M  V30 229 C 23.6605 4.0871 4.82844 0
M  V30 230 C 22.3245 4.46843 4.95871 0
M  V30 231 H 21.5945 0.138079 0.728021 0
M  V30 232 H 24.2415 1.01955 1.62103 0
M  V30 233 H 22.5465 -0.225405 3.91151 0
M  V30 234 H 24.2435 0.154097 4.00704 0
M  V30 235 H 20.8335 1.58753 3.98115 0
M  V30 236 H 25.0175 2.52367 4.27346 0
M  V30 237 H 20.2735 3.85602 4.74469 0
M  V30 238 H 24.4475 4.79481 5.05046 0
M  V30 239 H 22.0745 5.46623 5.28306 0
M  V30 240 N 23.6496 -1.47581 0.552962 0
M  V30 241 C 24.5796 -2.32762 -0.185451 0
M  V30 242 C 25.5606 -1.43527 -0.912905 0
M  V30 243 O 26.7456 -1.72388 -0.894201 0
M  V30 244 C 23.8756 -3.25219 -1.21859 0
M  V30 245 C 22.8296 -4.23661 -0.607864 0
M  V30 246 C 22.1556 -5.05413 -1.74533 0
M  V30 247 C 23.4556 -5.20481 0.435582 0
M  V30 248 H 25.1496 -2.94749 0.525684 0
M  V30 249 H 22.6956 -1.41738 0.254251 0
M  V30 250 H 24.6486 -3.8365 -1.7433 0
M  V30 251 H 23.3726 -2.61279 -1.95961 0
M  V30 252 H 22.0316 -3.66451 -0.104489 0
M  V30 253 H 21.6796 -4.3788 -2.47529 0
M  V30 254 H 21.3796 -5.72059 -1.34249 0
M  V30 255 H 22.9036 -5.66701 -2.27338 0
M  V30 256 H 24.3176 -5.733 -0.00290157 0
M  V30 257 H 22.7146 -5.95305 0.757067 0
M  V30 258 H 23.7846 -4.66217 1.33303 0
M  V30 259 N 25.1277 -0.289203 -1.54924 0
M  V30 260 C 26.0577 0.58549 -2.2604 0
M  V30 261 C 27.0387 1.14753 -1.25562 0
M  V30 262 O 28.2237 1.17906 -1.54311 0
M  V30 263 C 25.3537 1.76305 -2.99222 0
M  V30 264 C 24.3077 1.33191 -4.06748 0
M  V30 265 C 23.6337 2.5937 -4.6758 0
M  V30 266 C 24.9337 0.471775 -5.20165 0
M  V30 267 H 26.6277 -0.00763532 -2.99399 0
M  V30 268 H 24.1737 -0.00511229 -1.43999 0
M  V30 269 H 26.1267 2.38097 -3.47689 0
M  V30 270 H 24.8507 2.38223 -2.23422 0
M  V30 271 H 23.5097 0.737121 -3.59113 0
M  V30 272 H 23.1577 3.19576 -3.88433 0
M  V30 273 H 22.8577 2.31228 -5.40192 0
M  V30 274 H 24.3817 3.21985 -5.18804 0
M  V30 275 H 25.7957 0.995056 -5.64599 0
M  V30 276 H 24.1927 0.284639 -5.99425 0
M  V30 277 H 25.2627 -0.506041 -4.82252 0
M  V30 278 N 26.6058 1.57591 -0.0167156 0
M  V30 279 C 27.5358 2.12496 0.967858 0
M  V30 280 C 28.5168 1.03807 1.34752 0
M  V30 281 O 29.7018 1.31577 1.42833 0
M  V30 282 C 26.8318 2.64194 2.25431 0
M  V30 283 C 25.7858 3.77559 2.01576 0
M  V30 284 C 25.1118 4.15636 3.36379 0
M  V30 285 C 26.4118 5.04151 1.36489 0
M  V30 286 H 28.1058 2.95013 0.510643 0
M  V30 287 H 25.6518 1.41915 0.244181 0
M  V30 288 H 27.6048 3.01236 2.94678 0
M  V30 289 H 26.3288 1.78821 2.73296 0
M  V30 290 H 24.9878 3.40937 1.34751 0
M  V30 291 H 24.6358 3.27263 3.81979 0
M  V30 292 H 24.3358 4.92022 3.21229 0
M  V30 293 H 25.8598 4.5525 4.06915 0
M  V30 294 H 27.2738 5.38857 1.95718 0
M  V30 295 H 25.6708 5.85453 1.31776 0
M  V30 296 H 26.7408 4.83733 0.336219 0
M  V30 297 N 28.0839 -0.256276 1.55502 0
M  V30 298 C 29.3299 -0.987079 1.77157 0
M  V30 299 C 29.6629 -1.85327 0.580315 0
M  V30 300 O 28.9379 -1.89874 -0.421686 0
M  V30 301 C 29.2209 -1.85553 3.08613 0
M  V30 302 C 29.0739 -1.01816 4.38125 0
M  V30 303 C 30.3929 -2.8397 3.36228 0
M  V30 304 H 27.5119 -0.357428 0.644526 0
M  V30 305 H 30.1539 -0.258239 1.88237 0
M  V30 306 H 28.3039 -2.47695 2.99298 0
M  V30 307 H 29.9759 -0.416159 4.59419 0
M  V30 308 H 28.2189 -0.322178 4.32602 0
M  V30 309 H 28.8899 -1.65939 5.26468 0
M  V30 310 H 31.3659 -2.31964 3.45445 0
M  V30 311 H 30.2419 -3.41864 4.29442 0
M  V30 312 H 30.5029 -3.59955 2.56681 0
M  V30 313 N 29.562 -1.4872 -0.521534 0
M  V30 314 C 30.787 -1.61101 -1.30618 0
M  V30 315 C 31.212 -0.274611 -1.86085 0
M  V30 316 O 30.57 0.754937 -1.64834 0
M  V30 317 C 30.618 -2.66709 -2.4269 0
M  V30 318 O 29.722 -2.24456 -3.45967 0
M  V30 319 H 29.063 -0.539921 -0.386499 0
M  V30 320 H 31.593 -1.94767 -0.626645 0
M  V30 321 H 31.603 -2.88245 -2.88754 0
M  V30 322 H 30.278 -3.63727 -2.01682 0
M  V30 323 H 28.855 -2.13168 -3.05964 0
M  V30 324 N 31.0401 0.771051 -1.3745 0
M  V30 325 C 31.9731 1.89166 -1.27638 0
M  V30 326 C 32.9511 1.61842 -0.156782 0
M  V30 327 O 34.1351 1.85569 -0.331111 0
M  V30 328 C 31.2621 3.24405 -0.973621 0
M  V30 329 C 30.3081 3.70638 -2.1102 0
M  V30 330 S 31.1411 3.84228 -3.73 0
M  V30 331 C 32.2971 5.22313 -3.44876 0
M  V30 332 H 32.5301 1.972 -2.22485 0
M  V30 333 H 30.0631 0.932224 -1.23081 0
M  V30 334 H 32.0211 4.02514 -0.805766 0
M  V30 335 H 30.6821 3.14071 -0.0426279 0
M  V30 336 H 29.8751 4.68685 -1.85338 0
M  V30 337 H 29.4771 2.99632 -2.23822 0
M  V30 338 H 31.7691 6.07505 -2.99908 0
M  V30 339 H 32.7121 5.53008 -4.42253 0
M  V30 340 H 33.1201 4.90284 -2.79789 0
M  V30 341 N 32.5182 1.22032 0.997298 0
M  V30 342 C 33.7642 1.05382 1.73972 0
M  V30 343 C 34.1192 -0.407419 1.88037 0
M  V30 344 O 33.4122 -1.29811 1.40924 0
M  V30 345 C 33.6062 1.69345 3.14733 0
M  V30 346 C 33.4352 3.21537 3.14395 0
M  V30 347 C 32.2052 3.9062 3.20537 0
M  V30 348 C 34.4032 4.18527 2.98897 0
M  V30 349 N 32.3852 5.29935 3.09906 0
M  V30 350 C 33.7562 5.44645 2.96247 0
M  V30 351 C 35.8112 4.09476 2.83255 0
M  V30 352 C 34.5142 6.62752 2.79557 0
M  V30 353 C 36.5402 5.27228 2.67926 0
M  V30 354 C 35.9022 6.52262 2.65959 0
M  V30 355 H 32.0012 0.440018 0.646458 0
M  V30 356 H 34.5852 1.54505 1.18475 0
M  V30 357 H 32.7562 1.22778 3.68484 0
M  V30 358 H 34.4882 1.45828 3.77513 0
M  V30 359 H 31.2432 3.41592 3.28043 0
M  V30 360 H 31.6672 6.02926 3.07912 0
M  V30 361 H 36.3092 3.13598 2.83577 0
M  V30 362 H 34.0272 7.58783 2.77982 0
M  V30 363 H 37.6132 5.22053 2.56812 0
M  V30 364 H 36.4932 7.41844 2.54239 0
M  V30 365 N 33.9963 -1.19345 1.0293 0
M  V30 366 C 35.4123 -1.41069 0.746446 0
M  V30 367 C 35.6123 -1.90078 -0.668776 0
M  V30 368 O 34.6683 -2.0778 -1.4347 0
M  V30 369 C 35.9813 -2.42141 1.78292 0
M  V30 370 C 37.5293 -2.55887 1.80252 0
M  V30 371 C 38.0043 -3.60214 2.8286 0
M  V30 372 N 39.4953 -3.67711 2.81679 0
M  V30 373 C 40.2303 -4.48128 3.57727 0
M  V30 374 N 39.7263 -5.32248 4.43491 0
M  V30 375 N 41.5193 -4.42782 3.46267 0
M  V30 376 H 33.6703 -0.858536 1.94275 0
M  V30 377 H 35.9333 -0.439541 0.839945 0
M  V30 378 H 35.6393 -2.13155 2.79746 0
M  V30 379 H 35.5133 -3.41323 1.60557 0
M  V30 380 H 37.9003 -2.84196 0.794757 0
M  V30 381 H 37.9813 -1.56858 2.02062 0
M  V30 382 H 37.6253 -3.32647 3.83807 0
M  V30 383 H 37.5553 -4.58895 2.58307 0
M  V30 384 H 40.0463 -3.07634 2.19476 0
M  V30 385 H 40.3593 -5.90729 4.98256 0
M  V30 386 H 38.7043 -5.31707 4.47564 0
M  V30 387 H 41.8953 -3.76107 2.78677 0
M  V30 388 H 42.0683 -5.05215 4.05785 0
M  V30 389 N 35.4744 -0.807222 -1.35358 0
M  V30 390 C 36.4064 -0.175717 -2.28525 0
M  V30 391 C 37.4194 0.625354 -1.5031 0
M  V30 392 O 38.6084 0.457611 -1.72535 0
M  V30 393 C 35.7084 0.773471 -3.29956 0
M  V30 394 C 34.8814 0.0186296 -4.37396 0
M  V30 395 C 33.9404 0.886395 -5.18681 0
M  V30 396 O 32.9664 0.337106 -5.68201 0
M  V30 397 N 34.1684 2.20839 -5.36852 0
M  V30 398 H 36.9334 -0.976091 -2.83359 0
M  V30 399 H 34.4944 -0.662737 -1.47714 0
M  V30 400 H 36.4864 1.35824 -3.81227 0
M  V30 401 H 35.0564 1.47465 -2.75632 0
M  V30 402 H 34.2764 -0.747349 -3.87051 0
M  V30 403 H 35.5644 -0.501577 -5.06322 0
M  V30 404 H 34.9624 2.67858 -4.98265 0
M  V30 405 H 33.5194 2.74237 -5.91301 0
M  V30 406 N 36.9525 1.47285 -0.560781 0
M  V30 407 C 38.1985 2.02764 -0.0381184 0
M  V30 408 C 38.5315 1.43384 1.30976 0
M  V30 409 O 37.8065 0.590733 1.85312 0
M  V30 410 C 38.0895 3.60064 0.0511427 0
M  V30 411 C 37.9425 4.2987 -1.32408 0
M  V30 412 C 39.2615 4.33439 0.762795 0
M  V30 413 H 36.3805 0.736841 -0.0153264 0
M  V30 414 H 39.0225 1.75675 -0.723759 0
M  V30 415 H 37.1725 3.83274 0.635065 0
M  V30 416 H 38.8445 4.17989 -1.95148 0
M  V30 417 H 37.0875 3.90085 -1.8978 0
M  V30 418 H 37.7585 5.38478 -1.21431 0
M  V30 419 H 40.2345 4.15243 0.266965 0
M  V30 420 H 39.1105 5.43124 0.794221 0
M  V30 421 H 39.3715 4.02915 1.81966 0
M  V30 422 N 38.4306 0.297415 1.54768 0
M  V30 423 C 39.3806 -0.595275 2.20092 0
M  V30 424 C 40.3646 -1.10163 1.17273 0
M  V30 425 O 41.5566 -1.043 1.43006 0
M  V30 426 C 38.6856 -1.7684 2.94249 0
M  V30 427 C 37.7716 -1.27818 4.0438 0
M  V30 428 N 38.1626 -0.505695 5.03266 0
M  V30 429 C 36.4606 -1.55923 4.17857 0
M  V30 430 C 37.1616 -0.245094 5.81183 0
M  V30 431 N 36.1376 -0.823881 5.3732 0
M  V30 432 H 39.9396 0.00250837 2.939 0
M  V30 433 H 37.4536 0.102007 1.62079 0
M  V30 434 H 39.4506 -2.41944 3.39513 0
M  V30 435 H 38.1106 -2.36992 2.21957 0
M  V30 436 H 39.1216 -0.150928 5.1768 0
M  V30 437 H 35.7986 -2.16849 3.56767 0
M  V30 438 H 37.1886 0.375084 6.70852 0
M  V30 439 N 39.9087 -1.5758 0.0250728 0
M  V30 440 C 41.1337 -1.96337 -0.668317 0
M  V30 441 C 41.5587 -0.901314 -1.651 0
M  V30 442 O 40.9167 0.138187 -1.80773 0
M  V30 443 C 40.9647 -3.34191 -1.35457 0
M  V30 444 O 40.0687 -3.30269 -2.46974 0
M  V30 445 H 39.4097 -0.640281 -0.175887 0
M  V30 446 H 41.9397 -2.0442 0.0857224 0
M  V30 447 H 41.9497 -3.70331 -1.71228 0
M  V30 448 H 40.6247 -4.11036 -0.634218 0
M  V30 449 H 39.2017 -3.05841 -2.13344 0
M  V30 450 N 41.3868 0.248026 -1.55636 0
M  V30 451 C 42.6118 0.998028 -1.81808 0
M  V30 452 C 43.0368 1.78207 -0.601979 0
M  V30 453 O 42.3948 1.75653 0.448961 0
M  V30 454 C 42.4428 1.9125 -3.05705 0
M  V30 455 O 41.5468 3.00406 -2.82542 0
M  V30 456 H 40.8878 0.284045 -0.600179 0
M  V30 457 H 43.4178 0.269357 -2.02819 0
M  V30 458 H 43.4278 2.32737 -3.35108 0
M  V30 459 H 42.1028 1.33602 -3.93857 0
M  V30 460 H 40.6798 2.63056 -2.64303 0
M  V30 461 N 42.8649 1.48995 0.513639 0
M  V30 462 C 44.1109 1.59053 1.26783 0
M  V30 463 C 44.4659 0.268136 1.90522 0
M  V30 464 O 43.7589 -0.730534 1.77126 0
M  V30 465 C 43.9529 2.67756 2.36731 0
M  V30 466 C 43.7819 4.10437 1.83771 0
M  V30 467 C 42.5519 4.7738 1.65639 0
M  V30 468 C 44.7499 4.9608 1.35681 0
M  V30 469 N 42.7319 6.04419 1.07476 0
M  V30 470 C 44.1029 6.13496 0.895715 0
M  V30 471 C 46.1579 4.82177 1.24136 0
M  V30 472 C 44.8609 7.1854 0.3306 0
M  V30 473 C 46.8869 5.87358 0.690229 0
M  V30 474 C 46.2489 7.03993 0.239292 0
M  V30 475 H 42.3479 0.636463 0.454355 0
M  V30 476 H 44.9319 1.85948 0.577196 0
M  V30 477 H 43.1029 2.42655 3.03271 0
M  V30 478 H 44.8349 2.67406 3.0377 0
M  V30 479 H 41.5899 4.33974 1.8964 0
M  V30 480 H 42.0139 6.72214 0.803579 0
M  V30 481 H 46.6559 3.92329 1.57601 0
M  V30 482 H 44.3739 8.08098 -0.0163435 0
M  V30 483 H 47.9599 5.78658 0.603852 0
M  V30 484 H 46.8399 7.83992 -0.180526 0
M  V30 485 N 44.343 -0.763751 1.37857 0
M  V30 486 C 45.291 -1.89864 1.34367 0
M  V30 487 C 46.285 -1.67816 0.231143 0
M  V30 488 O 47.491 -1.75508 0.399617 0
M  V30 489 H 43.866 -0.624501 0.41893 0
M  V30 490 H 45.837 -1.89925 2.30155 0
M  V30 491 C 44.586 -3.27227 1.1755 0
M  V30 492 H 43.909 -3.44773 2.02414 0
M  V30 493 H 45.349 -4.06911 1.1916 0
M  V30 494 C 43.808 -3.36692 -0.118311 0
M  V30 495 O 44.338 -3.86374 -1.09902 0
M  V30 496 N 42.544 -2.90092 -0.171717 0
M  V30 497 H 42.091 -2.49853 0.627012 0
M  V30 498 H 42.049 -2.96806 -1.03699 0
M  V30 499 N 45.8211 -1.22559 -0.990812 0
M  V30 500 C 46.7511 -1.0218 -2.09956 0
M  V30 501 C 47.7321 0.0579394 -1.70001 0
M  V30 502 O 48.9171 -0.104684 -1.93918 0
M  V30 503 C 46.0471 -0.601023 -3.4206 0
M  V30 504 C 45.0011 -1.62694 -3.95872 0
M  V30 505 C 44.3271 -1.06193 -5.24049 0
M  V30 506 C 45.6271 -3.01743 -4.2632 0
M  V30 507 H 47.3211 -1.94916 -2.27262 0
M  V30 508 H 44.8671 -0.938566 -1.09211 0
M  V30 509 H 46.8201 -0.445561 -4.19038 0
M  V30 510 H 45.5441 0.362005 -3.24588 0
M  V30 511 H 44.2031 -1.77021 -3.21028 0
M  V30 512 H 43.8511 -0.0901903 -5.02919 0
M  V30 513 H 43.5511 -1.74732 -5.61019 0
M  V30 514 H 45.0751 -0.918092 -6.03658 0
M  V30 515 H 46.4891 -2.90777 -4.94087 0
M  V30 516 H 44.8861 -3.67425 -4.74467 0
M  V30 517 H 45.9561 -3.51518 -3.34011 0
M  V30 518 N 47.2992 1.18797 -1.03562 0
M  V30 519 C 48.7102 1.70322 -0.764676 0
M  V30 520 C 49.0612 1.82708 0.714996 0
M  V30 521 O 48.1862 1.50299 1.55689 0
M  V30 522 C 48.7812 3.09356 -1.38145 0
M  V30 523 C 47.3402 3.58114 -1.15895 0
M  V30 524 C 46.4872 2.34798 -1.4753 0
M  V30 525 H 49.4382 1.03543 -1.20268 0
M  V30 526 H 49.4592 3.72378 -0.781977 0
M  V30 527 H 48.9712 3.00309 -2.45837 0
M  V30 528 H 47.0722 3.72464 -0.100544 0
M  V30 529 H 47.1852 4.4184 -1.8524 0
M  V30 530 H 45.5492 2.38464 -0.894829 0
M  V30 531 H 46.3322 2.28375 -2.56319 0
M  V30 532 N 48.7773 0.814389 1.34928 0
M  V30 533 C 50.1883 0.458364 1.80986 0
M  V30 534 C 50.5393 -1.02042 1.67577 0
M  V30 535 O 49.6643 -1.79352 1.21086 0
M  V30 536 C 50.2593 0.825212 3.28597 0
M  V30 537 C 48.8183 0.521677 3.72767 0
M  V30 538 C 47.9653 1.04668 2.56788 0
M  V30 539 H 50.9163 1.00533 1.22795 0
M  V30 540 H 50.9373 0.12571 3.80292 0
M  V30 541 H 50.4493 1.90154 3.38324 0
M  V30 542 H 48.5503 -0.545589 3.68584 0
M  V30 543 H 48.6633 1.05977 4.67232 0
M  V30 544 H 47.0273 0.468622 2.50352 0
M  V30 545 H 47.8103 2.12927 2.6929 0
M  V30 546 N 50.2554 -1.46986 0.568584 0
M  V30 547 C 51.5034 -2.02041 0.0487022 0
M  V30 548 C 51.8244 -1.44408 -1.31039 0
M  V30 549 O 51.0944 -0.623477 -1.85714 0
M  V30 550 H 49.6744 -0.746849 0.015014 0
M  V30 551 H 52.3364 -1.80257 0.741168 0
M  V30 552 H 51.4324 -3.12085 -0.0308961 0
M  V30 553 N 51.7335 -0.305618 -1.54608 0
M  V30 554 C 53.1445 0.186098 -1.8577 0
M  V30 555 C 53.4955 1.53058 -1.22751 0
M  V30 556 O 52.6205 2.09888 -0.526893 0
M  V30 557 C 53.2155 0.344449 -3.37044 0
M  V30 558 C 51.7745 0.780384 -3.68221 0
M  V30 559 C 50.9215 -0.108554 -2.77087 0
M  V30 560 H 53.8725 -0.526485 -1.49712 0
M  V30 561 H 53.8935 1.17828 -3.61796 0
M  V30 562 H 53.4055 -0.634235 -3.82883 0
M  V30 563 H 51.5065 1.76945 -3.27904 0
M  V30 564 H 51.6195 0.596572 -4.75371 0
M  V30 565 H 49.9835 0.412931 -2.5133 0
M  V30 566 H 50.7665 -1.08368 -3.25747 0
M  V30 567 N 53.2116 1.57565 -0.0334293 0
M  V30 568 C 54.4586 1.91978 0.644272 0
M  V30 569 C 54.7866 0.910231 1.71887 0
M  V30 570 O 54.0416 -0.0801961 1.95536 0
M  V30 571 C 54.3406 3.33112 1.29504 0
M  V30 572 C 54.0066 4.49537 0.350388 0
M  V30 573 C 52.6686 4.81115 0.0903974 0
M  V30 574 C 55.0206 5.20347 -0.298032 0
M  V30 575 C 52.3486 5.8086 -0.825746 0
M  V30 576 C 54.7006 6.2107 -1.20226 0
M  V30 577 C 53.3646 6.51088 -1.4711 0
M  V30 578 H 52.6346 0.702496 0.235756 0
M  V30 579 H 55.2816 1.91259 -0.0961176 0
M  V30 580 H 53.5866 3.30113 2.11028 0
M  V30 581 H 55.2836 3.57011 1.82603 0
M  V30 582 H 51.8736 4.24883 0.563205 0
M  V30 583 H 56.0576 4.96178 -0.110234 0
M  V30 584 H 51.3136 6.02461 -1.04169 0
M  V30 585 H 55.4876 6.75057 -1.71086 0
M  V30 586 H 53.1146 7.28193 -2.18264 0
M  V30 587 N 54.6897 -0.239769 1.55765 0
M  V30 588 C 56.1007 -0.808263 1.68297 0
M  V30 589 C 56.4517 -1.85736 0.632181 0
M  V30 590 O 55.5767 -2.15277 -0.220204 0
M  V30 591 C 56.1717 -1.47284 3.05111 0
M  V30 592 C 54.7307 -1.98895 3.19559 0
M  V30 593 C 53.8777 -0.842575 2.64189 0
M  V30 594 H 56.8287 -0.0154422 1.58692 0
M  V30 595 H 56.8497 -2.34111 2.99954 0
M  V30 596 H 56.3617 -0.709053 3.81568 0
M  V30 597 H 54.4627 -2.78132 2.47938 0
M  V30 598 H 54.5757 -2.18143 4.26556 0
M  V30 599 H 52.9397 -1.24501 2.22197 0
M  V30 600 H 53.7227 -0.0917552 3.43177 0
M  V30 601 N 56.1678 -1.49265 -0.50573 0
M  V30 602 C 57.0978 -1.68495 -1.61653 0
M  V30 603 C 58.0788 -0.53366 -1.61512 0
M  V30 604 O 59.2638 -0.76897 -1.78327 0
M  V30 605 C 56.3938 -1.74709 -3.00157 0
M  V30 606 C 55.3478 -2.89581 -3.15162 0
M  V30 607 C 54.6738 -2.80903 -4.5497 0
M  V30 608 C 55.9738 -4.30578 -2.95634 0
M  V30 609 H 57.6678 -2.61493 -1.45814 0
M  V30 610 H 55.2138 -1.25838 -0.70005 0
M  V30 611 H 57.1668 -1.86748 -3.77761 0
M  V30 612 H 55.8908 -0.783067 -3.17074 0
M  V30 613 H 54.5498 -2.77136 -2.39982 0
M  V30 614 H 54.1978 -1.82419 -4.68756 0
M  V30 615 H 53.8978 -3.57999 -4.65951 0
M  V30 616 H 55.4218 -2.94944 -5.34641 0
M  V30 617 H 56.8358 -4.4373 -3.63011 0
M  V30 618 H 55.2328 -5.0886 -3.18091 0
M  V30 619 H 56.3028 -4.45352 -1.91806 0
M  V30 620 N 57.6459 0.756429 -1.3826 0
M  V30 621 C 59.0569 1.33359 -1.30661 0
M  V30 622 C 59.4079 1.96161 0.0388875 0
M  V30 623 O 58.5329 1.94874 0.940918 0
M  V30 624 C 59.1279 2.42477 -2.36622 0
M  V30 625 C 57.6869 2.95922 -2.3261 0
M  V30 626 C 56.8339 1.69275 -2.19639 0
M  V30 627 H 59.7849 0.55552 -1.4866 0
M  V30 628 H 59.8059 3.22345 -2.02174 0
M  V30 629 H 59.3179 1.96739 -3.34538 0
M  V30 630 H 57.4189 3.45996 -1.38267 0
M  V30 631 H 57.5319 3.50494 -3.26636 0
M  V30 632 H 55.8959 1.92793 -1.66442 0
M  V30 633 H 56.6789 1.25619 -3.19491 0
M  V30 634 N 59.124 1.23083 0.984299 0
M  V30 635 C 60.373 1.05466 1.71929 0
M  V30 636 C 60.686 -0.409211 1.91272 0
M  V30 637 O 61.892 -0.705226 2.62181 0
M  V30 638 C 60.348 1.83874 3.09384 0
M  V30 639 C 59.956 3.34566 2.97943 0
M  V30 640 C 61.7 1.74734 3.8687 0
M  V30 641 C 59.607 4.05381 4.30605 0
M  V30 642 H 58.537 0.391039 0.644674 0
M  V30 643 H 61.188 1.47013 1.09815 0
M  V30 644 H 59.57 1.35131 3.72231 0
M  V30 645 H 60.744 3.90767 2.44209 0
M  V30 646 H 59.059 3.44476 2.33934 0
M  V30 647 H 61.656 2.24957 4.85076 0
M  V30 648 H 61.999 0.709372 4.10212 0
M  V30 649 H 62.532 2.21067 3.30717 0
M  V30 650 H 59.271 5.09467 4.1246 0
M  V30 651 H 58.791 3.53967 4.84218 0
M  V30 652 H 60.47 4.11458 4.99311 0
M  V30 653 N 60.6021 -1.18246 1.0419 0
M  V30 654 C 61.8511 -1.87588 0.741194 0
M  V30 655 C 62.1641 -1.81303 -0.734066 0
M  V30 656 O 63.3701 -2.46019 -1.14834 0
M  V30 657 C 61.8261 -3.36538 1.27555 0
M  V30 658 C 61.4341 -3.51349 2.77953 0
M  V30 659 C 63.1781 -4.11273 1.05143 0
M  V30 660 C 61.0851 -4.94265 3.2474 0
M  V30 661 H 60.0151 -0.702622 0.273565 0
M  V30 662 H 62.6661 -1.33601 1.25789 0
M  V30 663 H 61.0481 -3.9 0.686703 0
M  V30 664 H 62.2221 -3.08153 3.42605 0
M  V30 665 H 60.5371 -2.90022 2.98791 0
M  V30 666 H 63.1341 -5.16689 1.37611 0
M  V30 667 H 63.4771 -4.16298 -0.0112774 0
M  V30 668 H 64.0101 -3.63987 1.60495 0
M  V30 669 H 60.7491 -4.94408 4.30396 0
M  V30 670 H 60.2691 -5.38172 2.64823 0
M  V30 671 H 61.9481 -5.62987 3.18834 0
M  V30 672 N 62.0802 -0.821533 -1.34494 0
M  V30 673 C 63.3282 -0.408139 -1.97936 0
M  V30 674 C 63.6492 1.03193 -1.65457 0
M  V30 675 O 62.9192 1.71622 -0.944595 0
M  V30 676 H 61.4992 -0.147928 -0.732206 0
M  V30 677 H 64.1612 -1.05067 -1.64155 0
M  V30 678 H 63.2572 -0.52601 -3.07635 0
M  V30 679 N 63.5583 1.46682 -0.576371 0
M  V30 680 C 64.5063 2.31953 0.17335 0
M  V30 681 C 65.5003 1.44098 0.89062 0
M  V30 682 O 66.7063 1.60759 0.809728 0
M  V30 683 H 63.0813 0.748273 0.0747727 0
M  V30 684 H 65.0523 2.93007 -0.564738 0
M  V30 685 C 63.8013 3.27142 1.17786 0
M  V30 686 H 63.1243 3.94719 0.635361 0
M  V30 687 H 64.5643 3.896 1.67296 0
M  V30 688 C 63.0233 2.52036 2.23561 0
M  V30 689 O 63.5533 2.27877 3.3081 0
M  V30 690 N 61.7593 2.12709 1.97998 0
M  V30 691 H 61.3063 2.32557 1.10792 0
M  V30 692 H 61.2643 1.62776 2.68982 0
M  V30 693 N 65.0364 0.313813 1.54444 0
M  V30 694 C 65.9664 -0.549454 2.26943 0
M  V30 695 C 66.9474 -1.12741 1.27372 0
M  V30 696 O 68.1324 -1.15436 1.56167 0
M  V30 697 C 65.2624 -1.71523 3.01989 0
M  V30 698 C 64.2164 -1.26703 4.08816 0
M  V30 699 C 63.5424 -2.51898 4.71647 0
M  V30 700 C 64.8424 -0.388962 5.2085 0
M  V30 701 H 66.5364 0.0552661 2.99349 0
M  V30 702 H 64.0824 0.0280207 1.43973 0
M  V30 703 H 66.0354 -2.32535 3.51433 0
M  V30 704 H 64.7594 -2.34639 2.27183 0
M  V30 705 H 63.4184 -0.679896 3.6024 0
M  V30 706 H 63.0664 -3.13356 3.93468 0
M  V30 707 H 62.7664 -2.22605 5.43802 0
M  V30 708 H 64.2904 -3.1369 5.23861 0
M  V30 709 H 65.7044 -0.905107 5.6611 0
M  V30 710 H 64.1014 -0.18924 5.99802 0
M  V30 711 H 65.1714 0.582699 4.81386 0
M  V30 712 N 66.5145 -1.57545 0.0417849 0
M  V30 713 C 67.7615 -1.92317 -0.634082 0
M  V30 714 C 68.0895 -0.919334 -1.71402 0
M  V30 715 O 67.3445 0.0698253 -1.95575 0
M  V30 716 C 67.6435 -3.33794 -1.27735 0
M  V30 717 C 67.3095 -4.49716 -0.326543 0
M  V30 718 C 65.9715 -4.81156 -0.0648814 0
M  V30 719 C 68.3235 -5.20182 0.325623 0
M  V30 720 C 65.6515 -5.80414 0.856539 0
M  V30 721 C 68.0035 -6.20424 1.23518 0
M  V30 722 C 66.6675 -6.50298 1.5056 0
M  V30 723 H 65.9375 -0.703736 -0.232027 0
M  V30 724 H 68.5845 -1.91205 0.106259 0
M  V30 725 H 66.8895 -3.31228 -2.09274 0
M  V30 726 H 68.5865 -3.57975 -1.80707 0
M  V30 727 H 65.1765 -4.25176 -0.540665 0
M  V30 728 H 69.3605 -4.96112 0.136546 0
M  V30 729 H 64.6165 -6.019 1.07363 0
M  V30 730 H 68.7905 -6.74141 1.74664 0
M  V30 731 H 66.4175 -7.27025 2.22123 0
M  V30 732 N 67.9926 0.231505 -1.5589 0
M  V30 733 C 68.9246 1.31006 -1.8807 0
M  V30 734 C 69.9376 1.43539 -0.768145 0
M  V30 735 O 71.1266 1.44614 -1.04638 0
M  V30 736 C 68.2266 2.68688 -2.06543 0
M  V30 737 C 67.3996 2.78228 -3.37502 0
M  V30 738 C 66.4586 3.96857 -3.4553 0
M  V30 739 O 65.4846 3.85662 -4.18633 0
M  V30 740 N 66.6866 5.1072 -2.75944 0
M  V30 741 H 69.4516 1.03731 -2.81176 0
M  V30 742 H 67.0126 0.421573 -1.56315 0
M  V30 743 H 69.0046 3.46412 -2.09239 0
M  V30 744 H 67.5746 2.88605 -1.20109 0
M  V30 745 H 66.7946 1.87059 -3.46991 0
M  V30 746 H 68.0826 2.81564 -4.23791 0
M  V30 747 H 67.4806 5.2271 -2.16311 0
M  V30 748 H 66.0376 5.86523 -2.84314 0
M  V30 749 N 69.4707 1.49531 0.497807 0
M  V30 750 C 70.4007 1.6935 1.60757 0
M  V30 751 C 71.3817 0.542218 1.61227 0
M  V30 752 O 72.5667 0.778417 1.77917 0
M  V30 753 C 69.6967 1.76298 2.99226 0
M  V30 754 C 68.6507 2.91248 3.13622 0
M  V30 755 C 67.9767 2.83312 4.53474 0
M  V30 756 C 69.2767 4.3214 2.93346 0
M  V30 757 H 70.9707 2.62263 1.44425 0
M  V30 758 H 68.5167 1.26208 0.693367 0
M  V30 759 H 70.4697 1.88749 3.76765 0
M  V30 760 H 69.1937 0.799871 3.16654 0
M  V30 761 H 67.8527 2.78404 2.38509 0
M  V30 762 H 67.5007 1.84902 4.67782 0
M  V30 763 H 67.2007 3.60465 4.64046 0
M  V30 764 H 68.7247 2.97775 5.33069 0
M  V30 765 H 70.1387 4.45649 3.60652 0
M  V30 766 H 68.5357 5.1054 3.15387 0
M  V30 767 H 69.6057 4.46363 1.89441 0
M  V30 768 N 70.9488 -0.749086 1.3866 0
M  V30 769 C 71.8588 -1.89358 1.38494 0
M  V30 770 C 72.8748 -1.71708 0.281476 0
M  V30 771 O 74.0508 -1.94554 0.520643 0
M  V30 772 C 71.1158 -3.24782 1.21316 0
M  V30 773 C 70.1768 -3.54926 2.41508 0
M  V30 774 C 69.4098 -4.83888 2.2514 0
M  V30 775 O 69.6328 -5.56592 1.24746 0
M  V30 776 O 68.5668 -5.13612 3.13826 0
M  V30 777 H 72.3928 -1.92452 2.34938 0
M  V30 778 H 69.9778 -0.894981 1.19626 0
M  V30 779 H 71.8598 -4.05739 1.13814 0
M  V30 780 H 70.5348 -3.2249 0.279592 0
M  V30 781 H 69.4418 -2.74112 2.54585 0
M  V30 782 H 70.7748 -3.61983 3.3351 0
M  V30 783 N 72.4269 -1.23603 -0.977757 0
M  V30 784 C 73.3569 -1.04401 -2.0886 0
M  V30 785 C 74.3379 0.0399052 -1.70053 0
M  V30 786 O 75.5229 -0.125246 -1.93796 0
M  V30 787 C 72.6529 -0.637269 -3.41403 0
M  V30 788 C 71.6069 -1.66883 -3.94124 0
M  V30 789 C 70.9329 -1.11745 -5.22893 0
M  V30 790 C 72.2329 -3.06247 -4.23096 0
M  V30 791 H 73.9269 -1.97316 -2.25182 0
M  V30 792 H 71.4729 -0.950096 -1.08209 0
M  V30 793 H 73.4259 -0.48998 -4.18542 0
M  V30 794 H 72.1499 0.327557 -3.24953 0
M  V30 795 H 70.8089 -1.80416 -3.19133 0
M  V30 796 H 70.4569 -0.143527 -5.02795 0
M  V30 797 H 70.1569 -1.80672 -5.59134 0
M  V30 798 H 71.6809 -0.982067 -6.02651 0
M  V30 799 H 73.0949 -2.96001 -4.90975 0
M  V30 800 H 71.4919 -3.72436 -4.70544 0
M  V30 801 H 72.5619 -3.55041 -3.30263 0
M  V30 802 N 73.905 1.17692 -1.04816 0
M  V30 803 C 74.852 2.21581 -0.645797 0
M  V30 804 C 75.822 1.62367 0.350159 0
M  V30 805 O 77.007 1.89254 0.242433 0
M  V30 806 C 74.147 3.45092 -0.0227568 0
M  V30 807 C 73.26 4.18613 -1.06709 0
M  V30 808 C 72.395 5.29602 -0.411767 0
M  V30 809 C 71.434 5.94904 -1.44067 0
M  V30 810 N 70.571 6.97414 -0.809781 0
M  V30 811 H 75.411 2.55353 -1.5362 0
M  V30 812 H 72.948 1.25438 -0.768364 0
M  V30 813 H 74.906 4.15679 0.35588 0
M  V30 814 H 73.536 3.11917 0.831122 0
M  V30 815 H 72.588 3.46779 -1.5636 0
M  V30 816 H 73.9 4.63293 -1.84827 0
M  V30 817 H 73.054 6.06696 0.0206623 0
M  V30 818 H 71.793 4.86045 0.401438 0
M  V30 819 H 70.798 5.16544 -1.88316 0
M  V30 820 H 72.023 6.40542 -2.25571 0
M  V30 821 H 69.969 6.55998 -0.0170186 0
M  V30 822 H 69.886 7.40386 -1.52856 0
M  V30 823 H 71.154 7.78463 -0.401999 0
M  V30 824 N 75.3831 0.828654 1.34056 0
M  V30 825 C 76.3311 0.242973 2.31327 0
M  V30 826 C 77.3251 -0.61944 1.57668 0
M  V30 827 O 78.5311 -0.51014 1.7262 0
M  V30 828 H 74.9061 0.059834 0.749616 0
M  V30 829 H 76.8771 1.07809 2.78244 0
M  V30 830 C 75.6261 -0.575733 3.429 0
M  V30 831 H 74.9491 0.0785582 3.99723 0
M  V30 832 H 76.3891 -0.951547 4.13185 0
M  V30 833 C 74.8481 -1.75044 2.87856 0
M  V30 834 O 75.3781 -2.84882 2.83205 0
M  V30 835 N 73.5841 -1.56903 2.44602 0
M  V30 836 H 73.1311 -0.675547 2.48584 0
M  V30 837 H 73.0891 -2.35652 2.08124 0
M  V30 838 N 76.8612 -1.46375 0.584142 0
M  V30 839 C 78.1102 -2.01585 0.0679741 0
M  V30 840 C 78.4232 -1.46109 -1.30045 0
M  V30 841 O 79.6292 -1.93148 -1.90804 0
M  V30 842 C 78.0852 -3.5983 0.0709207 0
M  V30 843 C 77.6932 -4.24303 1.43775 0
M  V30 844 C 79.4372 -4.22693 -0.391228 0
M  V30 845 C 77.3442 -5.74631 1.39834 0
M  V30 846 H 76.2742 -0.753689 0.0216421 0
M  V30 847 H 78.9252 -1.68093 0.736001 0
M  V30 848 H 77.3072 -3.90405 -0.663299 0
M  V30 849 H 78.4812 -4.05335 2.19181 0
M  V30 850 H 76.7962 -3.73539 1.84004 0
M  V30 851 H 79.3932 -5.3289 -0.439524 0
M  V30 852 H 79.7362 -3.91728 -1.40906 0
M  V30 853 H 80.2692 -3.96749 0.288974 0
M  V30 854 H 77.0082 -6.10258 2.39303 0
M  V30 855 H 76.5282 -5.95858 0.686505 0
M  V30 856 H 78.2072 -6.37375 1.11187 0
M  V30 857 N 78.3393 -0.321999 -1.54275 0
M  V30 858 C 79.7503 0.166384 -1.85957 0
M  V30 859 C 80.1013 1.51747 -1.24367 0
M  V30 860 O 79.2263 2.09317 -0.549124 0
M  V30 861 C 79.8213 0.308681 -3.37391 0
M  V30 862 C 78.3803 0.741286 -3.69028 0
M  V30 863 C 77.5273 -0.137937 -2.76957 0
M  V30 864 H 80.4783 -0.542335 -1.49146 0
M  V30 865 H 80.4993 1.13984 -3.63026 0
M  V30 866 H 80.0113 -0.674809 -3.82188 0
M  V30 867 H 78.1123 1.73458 -3.29762 0
M  V30 868 H 78.2253 0.546118 -4.75977 0
M  V30 869 H 76.5893 0.386251 -2.51754 0
M  V30 870 H 77.3723 -1.11816 -3.2458 0
M  V30 871 N 79.8174 1.5752 -0.0501392 0
M  V30 872 C 80.7644 2.1147 0.924603 0
M  V30 873 C 81.7344 1.02182 1.30951 0
M  V30 874 O 82.9194 1.29723 1.39916 0
M  V30 875 C 80.0594 2.66337 2.19451 0
M  V30 876 C 79.1724 3.89708 1.86418 0
M  V30 877 C 78.3074 4.32893 3.07859 0
M  V30 878 C 77.3464 5.48967 2.70742 0
M  V30 879 N 76.4834 5.87211 3.84874 0
M  V30 880 H 81.3234 2.94465 0.457639 0
M  V30 881 H 78.8604 1.45531 0.214266 0
M  V30 882 H 80.8184 2.96247 2.93758 0
M  V30 883 H 79.4484 1.86141 2.63726 0
M  V30 884 H 78.5004 3.66396 1.02264 0
M  V30 885 H 79.8124 4.74074 1.55096 0
M  V30 886 H 78.9664 4.6435 3.90466 0
M  V30 887 H 77.7054 3.47336 3.42358 0
M  V30 888 H 76.7104 5.17183 1.86551 0
M  V30 889 H 77.9354 6.3624 2.37436 0
M  V30 890 H 75.8814 5.04607 4.19175 0
M  V30 891 H 75.7984 6.66266 3.57247 0
M  V30 892 H 77.0664 6.23282 4.68123 0
M  V30 893 N 81.2955 -0.223234 1.56011 0
M  V30 894 C 82.5205 -0.968978 1.83373 0
M  V30 895 C 82.9455 -1.77227 0.630254 0
M  V30 896 O 82.3035 -1.76345 -0.420959 0
M  V30 897 C 82.3515 -1.86363 3.08709 0
M  V30 898 O 81.4555 -2.95873 2.87285 0
M  V30 899 H 80.7965 -0.274461 0.604622 0
M  V30 900 H 83.3265 -0.237056 2.03222 0
M  V30 901 H 83.3365 -2.27376 3.38768 0
M  V30 902 H 82.0115 -1.27319 3.95933 0
M  V30 903 H 80.5885 -2.58818 2.68454 0
M  V30 904 N 82.7736 -1.49793 -0.48987 0
M  V30 905 C 84.0206 -1.59841 -1.24327 0
M  V30 906 C 84.3486 -0.290135 -1.92324 0
M  V30 907 O 83.6036 0.722749 -1.81865 0
M  V30 908 C 83.9026 -2.71488 -2.32441 0
M  V30 909 C 83.5686 -4.12614 -1.81826 0
M  V30 910 C 82.2306 -4.51017 -1.67742 0
M  V30 911 C 84.5826 -5.00892 -1.4407 0
M  V30 912 C 81.9106 -5.75459 -1.14297 0
M  V30 913 C 84.2626 -6.25863 -0.920742 0
M  V30 914 C 82.9266 -6.63086 -0.766383 0
M  V30 915 H 82.1966 -0.584899 -0.454944 0
M  V30 916 H 84.8436 -1.83663 -0.542215 0
M  V30 917 H 83.1486 -2.4168 -3.0838 0
M  V30 918 H 84.8456 -2.76469 -2.90458 0
M  V30 919 H 81.4356 -3.82307 -1.93751 0
M  V30 920 H 85.6196 -4.7187 -1.53794 0
M  V30 921 H 80.8756 -6.02989 -1.01068 0
M  V30 922 H 85.0496 -6.9364 -0.619448 0
M  V30 923 H 82.6766 -7.59393 -0.350083 0
M  V30 924 N 84.2517 0.741722 -1.39055 0
M  V30 925 C 85.4797 1.53098 -1.39171 0
M  V30 926 C 85.8947 1.88794 0.0155099 0
M  V30 927 O 85.2517 1.53626 0.985159 0
M  V30 928 C 85.3027 2.82274 -2.2584 0
M  V30 929 O 85.0237 2.48097 -3.61081 0
M  V30 930 C 86.5247 3.76343 -2.34266 0
M  V30 931 H 83.7447 0.473335 -0.4756 0
M  V30 932 H 86.2887 0.917045 -1.82785 0
M  V30 933 H 84.4437 3.40015 -1.85656 0
M  V30 934 H 84.8577 3.31029 -4.06842 0
M  V30 935 H 86.3317 4.63898 -2.9917 0
M  V30 936 H 86.8087 4.17619 -1.35982 0
M  V30 937 H 87.4147 3.24523 -2.74891 0
M  V30 938 N 85.7298 1.2412 0.971189 0
M  V30 939 C 87.1458 1.00584 1.23916 0
M  V30 940 C 87.3458 -0.287481 1.99439 0
M  V30 941 O 86.4018 -1.00454 2.31658 0
M  V30 942 C 87.7148 2.21864 2.0297 0
M  V30 943 C 89.2628 2.26452 2.16076 0
M  V30 944 C 89.7378 3.47343 2.98524 0
M  V30 945 N 91.2288 3.47639 3.06107 0
M  V30 946 C 91.9638 4.37837 3.70251 0
M  V30 947 N 91.4598 5.38286 4.36142 0
M  V30 948 N 93.2528 4.25558 3.67228 0
M  V30 949 H 85.4038 2.07236 0.465499 0
M  V30 950 H 87.6668 0.909236 0.268315 0
M  V30 951 H 87.3728 3.15771 1.54861 0
M  V30 952 H 87.2468 2.23698 3.03709 0
M  V30 953 H 89.6338 1.33078 2.6339 0
M  V30 954 H 89.7148 2.28645 1.14696 0
M  V30 955 H 89.3588 4.41029 2.51905 0
M  V30 956 H 89.2888 3.42393 4.00093 0
M  V30 957 H 91.7798 2.74966 2.59233 0
M  V30 958 H 92.0928 6.03352 4.82894 0
M  V30 959 H 90.4378 5.42176 4.34822 0
M  V30 960 H 93.6288 3.46322 3.14927 0
M  V30 961 H 93.8018 4.96054 4.16935 0
M  V30 962 N 87.2079 -1.17134 1.05439 0
M  V30 963 C 88.1379 -2.2342 0.678649 0
M  V30 964 C 89.1189 -1.66971 -0.32476 0
M  V30 965 O 90.3039 -1.93149 -0.201802 0
M  V30 966 C 87.4339 -3.47256 0.0552099 0
M  V30 967 C 86.3879 -4.16543 0.98365 0
M  V30 968 C 85.7139 -5.34231 0.223961 0
M  V30 969 C 87.0139 -4.68495 2.3089 0
M  V30 970 H 88.7079 -2.55105 1.56722 0
M  V30 971 H 86.2539 -1.2262 0.754998 0
M  V30 972 H 88.2069 -4.20828 -0.21946 0
M  V30 973 H 86.9309 -3.14846 -0.868319 0
M  V30 974 H 85.5899 -3.44887 1.24293 0
M  V30 975 H 85.2379 -4.98071 -0.702412 0
M  V30 976 H 84.9379 -5.81527 0.842627 0
M  V30 977 H 86.4619 -6.10585 -0.0433671 0
M  V30 978 H 87.8759 -5.33691 2.09396 0
M  V30 979 H 86.2729 -5.26379 2.88176 0
M  V30 980 H 87.3429 -3.85169 2.94572 0
M  V30 981 N 88.686 -0.835752 -1.33615 0
M  V30 982 C 89.649 -0.272 -2.2758 0
M  V30 983 C 90.649 0.557487 -1.50827 0
M  V30 984 O 91.839 0.37173 -1.70188 0
M  V30 985 C 88.971 0.617173 -3.35267 0
M  V30 986 H 90.164 -1.10111 -2.78954 0
M  V30 987 H 87.717 -0.608594 -1.43965 0
M  V30 988 H 88.452 1.46884 -2.89129 0
M  V30 989 H 88.237 0.0237066 -3.92093 0
M  V30 990 H 89.727 1.005 -4.05326 0
M  V30 991 N 90.1641 1.46063 -0.591896 0
M  V30 992 C 91.0961 2.28539 0.174001 0
M  V30 993 C 92.1091 1.39047 0.846753 0
M  V30 994 O 93.2981 1.63564 0.714774 0
M  V30 995 C 90.3981 3.14347 1.26645 0
M  V30 996 C 89.5711 4.32021 0.683856 0
M  V30 997 C 88.6301 4.99157 1.66518 0
M  V30 998 O 87.6561 5.56458 1.19763 0
M  V30 999 N 88.8581 4.97005 2.99943 0
M  V30 1000 H 91.6231 2.94911 -0.533633 0
M  V30 1001 H 89.1841 1.56077 -0.430294 0
M  V30 1002 H 91.1761 3.56125 1.92242 0
M  V30 1003 H 89.7461 2.49988 1.87682 0
M  V30 1004 H 88.9661 3.93915 -0.1498 0
M  V30 1005 H 90.2541 5.08059 0.274567 0
M  V30 1006 H 89.6521 4.51714 3.40545 0
M  V30 1007 H 88.2091 5.42696 3.61004 0
M  V30 1008 N 91.6422 0.330177 1.54103 0
M  V30 1009 C 93.0582 -0.0222371 1.59585 0
M  V30 1010 C 93.2582 -1.49902 1.34654 0
M  V30 1011 O 92.3142 -2.25592 1.13421 0
M  V30 1012 C 93.6272 0.401932 2.98002 0
M  V30 1013 C 95.1752 0.353145 3.11001 0
M  V30 1014 C 95.6502 0.752576 4.51775 0
M  V30 1015 N 97.1412 0.706239 4.57784 0
M  V30 1016 C 97.8762 0.987417 5.64834 0
M  V30 1017 N 97.3722 1.33607 6.79795 0
M  V30 1018 N 99.1652 0.91254 5.54643 0
M  V30 1019 H 91.3162 1.29228 1.68564 0
M  V30 1020 H 93.5792 0.525906 0.78875 0
M  V30 1021 H 93.2852 1.4311 3.21267 0
M  V30 1022 H 93.1592 -0.229699 3.765 0
M  V30 1023 H 95.5462 -0.666822 2.87467 0
M  V30 1024 H 95.6272 1.0198 2.34593 0
M  V30 1025 H 95.2712 1.77049 4.76042 0
M  V30 1026 H 95.2012 0.0635409 5.26562 0
M  V30 1027 H 97.6922 0.44889 3.75224 0
M  V30 1028 H 98.0052 1.53582 7.57385 0
M  V30 1029 H 96.3502 1.37439 6.81275 0
M  V30 1030 H 99.5412 0.639601 4.6371 0
M  V30 1031 H 99.7142 1.13503 6.37982 0
M  V30 1032 N 93.1203 -1.57491 0.0584922 0
M  V30 1033 C 94.3673 -1.92978 -0.613648 0
M  V30 1034 C 94.6953 -0.937461 -1.70417 0
M  V30 1035 O 93.9503 0.049078 -1.95638 0
M  V30 1036 C 94.2493 -3.3513 -1.24188 0
M  V30 1037 C 93.9153 -4.50037 -0.278826 0
M  V30 1038 C 92.5773 -4.81198 -0.0138447 0
M  V30 1039 C 94.9293 -5.19807 0.380777 0
M  V30 1040 C 92.2573 -5.79473 0.918052 0
M  V30 1041 C 94.6093 -6.19079 1.30091 0
M  V30 1042 C 93.2733 -6.48665 1.57449 0
M  V30 1043 H 92.5433 -0.706157 -0.22455 0
M  V30 1044 H 95.1903 -1.91082 0.126533 0
M  V30 1045 H 93.4953 -3.33429 -2.05749 0
M  V30 1046 H 95.1923 -3.59871 -1.769 0
M  V30 1047 H 91.7823 -4.25726 -0.495539 0
M  V30 1048 H 95.9663 -4.95939 0.189158 0
M  V30 1049 H 91.2223 -6.00727 1.1374 0
M  V30 1050 H 95.3963 -6.7225 1.81804 0
M  V30 1051 H 93.0233 -7.24628 2.29822 0
M  V30 1052 N 94.5984 0.214957 -1.56127 0
M  V30 1053 C 95.8464 0.936518 -1.79091 0
M  V30 1054 C 96.1674 1.84606 -0.628148 0
M  V30 1055 O 95.4374 1.92664 0.35462 0
M  V30 1056 H 94.0174 0.3488 -0.660566 0
M  V30 1057 H 96.6794 0.22523 -1.93594 0
M  V30 1058 H 95.7754 1.53943 -2.71492 0
M  V30 1059 N 96.0765 1.50051 0.48192 0
M  V30 1060 C 97.4875 1.5348 1.06305 0
M  V30 1061 C 97.8385 0.331997 1.93371 0
M  V30 1062 O 96.9635 -0.556256 2.09129 0
M  V30 1063 C 97.5585 2.7813 1.93466 0
M  V30 1064 C 96.1175 2.84275 2.46707 0
M  V30 1065 C 95.2645 2.47637 1.24785 0
M  V30 1066 H 98.2155 1.56472 0.264995 0
M  V30 1067 H 98.2365 2.59372 2.78399 0
M  V30 1068 H 97.7485 3.65654 1.30072 0
M  V30 1069 H 95.8495 2.01077 3.13686 0
M  V30 1070 H 95.9625 3.8691 2.82555 0
M  V30 1071 H 94.3265 1.99835 1.57918 0
M  V30 1072 H 95.1095 3.37457 0.630694 0
M  V30 1073 N 97.5546 -0.734337 1.39446 0
M  V30 1074 C 98.8006 -1.49613 1.36908 0
M  V30 1075 C 99.1336 -1.94169 -0.0347829 0
M  V30 1076 O 98.4086 -1.66833 -0.999847 0
M  V30 1077 C 98.6916 -2.73534 2.34203 0
M  V30 1078 C 98.5446 -2.34993 3.83534 0
M  V30 1079 C 99.8636 -3.75635 2.29317 0
M  V30 1080 H 96.9826 -0.542714 0.498629 0
M  V30 1081 H 99.6246 -0.839597 1.70443 0
M  V30 1082 H 97.7746 -3.29553 2.05736 0
M  V30 1083 H 99.4466 -1.84601 4.22753 0
M  V30 1084 H 97.6896 -1.67213 4.00278 0
M  V30 1085 H 98.3606 -3.23738 4.47099 0
M  V30 1086 H 100.837 -3.29203 2.54489 0
M  V30 1087 H 99.7126 -4.60008 2.99472 0
M  V30 1088 H 99.9736 -4.22603 1.29842 0
M  V30 1089 N 99.0327 -1.24633 -0.964593 0
M  V30 1090 C 100.28 -1.08788 -1.70796 0
M  V30 1091 C 100.608 0.372783 -1.90894 0
M  V30 1092 O 99.8627 1.29167 -1.47018 0
M  V30 1093 C 100.162 -1.7763 -3.10133 0
M  V30 1094 C 99.8277 -3.27557 -3.09866 0
M  V30 1095 C 98.4897 -3.6846 -3.09501 0
M  V30 1096 C 100.842 -4.23389 -3.03959 0
M  V30 1097 C 98.1697 -5.03624 -3.00965 0
M  V30 1098 C 100.522 -5.58565 -2.96965 0
M  V30 1099 C 99.1857 -5.98809 -2.9493 0
M  V30 1100 H 98.4557 -0.398084 -0.624988 0
M  V30 1101 H 101.103 -1.54777 -1.12767 0
M  V30 1102 H 99.4077 -1.24044 -3.71645 0
M  V30 1103 H 101.105 -1.62832 -3.66451 0
M  V30 1104 H 97.6947 -2.95006 -3.10917 0
M  V30 1105 H 101.879 -3.92787 -3.03368 0
M  V30 1106 H 97.1347 -5.33998 -2.97752 0
M  V30 1107 H 101.309 -6.32523 -2.91354 0
M  V30 1108 H 98.9357 -7.03505 -2.88071 0
M  V30 1109 N 100.511 1.16574 -1.06058 0
M  V30 1110 C 101.739 1.90952 -0.796552 0
M  V30 1111 C 102.154 1.77302 0.648808 0
M  V30 1112 O 101.511 1.11605 1.44397 0
M  V30 1113 C 101.562 3.41736 -1.17894 0
M  V30 1114 O 101.283 3.54975 -2.56758 0
M  V30 1115 C 102.784 4.33169 -0.942308 0
M  V30 1116 H 100.004 0.605594 -0.288959 0
M  V30 1117 H 102.548 1.47777 -1.41358 0
M  V30 1118 H 100.703 3.82623 -0.606491 0
M  V30 1119 H 101.117 4.4846 -2.72 0
M  V30 1120 H 102.591 5.37439 -1.25952 0
M  V30 1121 H 103.068 4.3903 0.122078 0
M  V30 1122 H 103.674 3.98007 -1.49902 0
M  V30 1123 N 101.989 0.842826 1.3317 0
M  V30 1124 C 102.919 0.294028 2.31641 0
M  V30 1125 C 103.9 -0.600401 1.59151 0
M  V30 1126 O 105.085 -0.523124 1.87022 0
M  V30 1127 C 102.215 -0.528416 3.43257 0
M  V30 1128 C 101.169 0.27056 4.27144 0
M  V30 1129 C 100.495 -0.675881 5.30411 0
M  V30 1130 C 101.795 1.48981 5.00602 0
M  V30 1131 H 103.489 1.11681 2.77791 0
M  V30 1132 H 101.035 0.538478 1.33553 0
M  V30 1133 H 102.988 -0.922674 4.11175 0
M  V30 1134 H 101.712 -1.38445 2.95805 0
M  V30 1135 H 100.371 0.646427 3.60856 0
M  V30 1136 H 100.019 -1.52842 4.79216 0
M  V30 1137 H 99.7189 -0.145374 5.8742 0
M  V30 1138 H 101.243 -1.06757 6.01195 0
M  V30 1139 H 102.657 1.16849 5.61266 0
M  V30 1140 H 101.054 1.95739 5.6728 0
M  V30 1141 H 102.124 2.25746 4.29147 0
M  V30 1142 N 103.467 -1.45747 0.599634 0
M  V30 1143 C 104.697 -2.06369 0.0977132 0
M  V30 1144 C 105.105 -1.44624 -1.21985 0
M  V30 1145 O 104.448 -0.551831 -1.75216 0
M  V30 1146 C 104.51 -3.59284 -0.124673 0
M  V30 1147 C 104.174 -4.43318 1.10987 0
M  V30 1148 C 105.171 -4.78796 2.02609 0
M  V30 1149 C 102.856 -4.84194 1.33647 0
M  V30 1150 C 104.85 -5.53997 3.15224 0
M  V30 1151 C 102.537 -5.5915 2.46565 0
M  V30 1152 C 103.535 -5.93968 3.37182 0
M  V30 1153 O 103.223 -6.67405 4.48136 0
M  V30 1154 H 102.955 -0.673122 0.0623153 0
M  V30 1155 H 105.509 -1.88104 0.824981 0
M  V30 1156 H 103.739 -3.75919 -0.906745 0
M  V30 1157 H 105.428 -4.01775 -0.577201 0
M  V30 1158 H 106.194 -4.47781 1.86325 0
M  V30 1159 H 102.073 -4.56534 0.64016 0
M  V30 1160 H 105.617 -5.81091 3.85978 0
M  V30 1161 H 101.514 -5.89579 2.62805 0
M  V30 1162 H 102.282 -6.85847 4.46717 0
M  V30 1163 N 104.945 -0.338344 -1.53925 0
M  V30 1164 C 106.191 0.260143 -2.01125 0
M  V30 1165 C 106.524 1.50617 -1.22589 0
M  V30 1166 O 105.799 1.91979 -0.312113 0
M  V30 1167 C 106.082 0.579499 -3.55407 0
M  V30 1168 C 105.935 -0.678264 -4.44657 0
M  V30 1169 C 107.254 1.39122 -4.17532 0
M  V30 1170 H 104.373 0.0930772 -0.731099 0
M  V30 1171 H 107.015 -0.457852 -1.84401 0
M  V30 1172 H 105.165 1.19118 -3.69788 0
M  V30 1173 H 106.837 -1.31631 -4.42121 0
M  V30 1174 H 105.08 -1.3042 -4.13731 0
M  V30 1175 H 105.751 -0.410143 -5.50474 0
M  V30 1176 H 108.227 0.874035 -4.06817 0
M  V30 1177 H 107.103 1.58342 -5.25565 0
M  V30 1178 H 107.364 2.39178 -3.71815 0
M  V30 1179 N 106.423 1.57458 -0.0668435 0
M  V30 1180 C 107.671 1.92919 0.602214 0
M  V30 1181 C 107.992 0.947215 1.70449 0
M  V30 1182 O 107.262 -0.00544117 1.95899 0
M  V30 1183 H 105.842 0.71217 0.22544 0
M  V30 1184 H 108.504 1.94508 -0.123535 0
M  V30 1185 H 107.6 2.94589 1.03073 0
M  V30 1186 N 107.901 -0.206675 1.56239 0
M  V30 1187 C 109.126 -0.949474 1.8439 0
M  V30 1188 C 109.551 -1.76549 0.649016 0
M  V30 1189 O 108.909 -1.76782 -0.402231 0
M  V30 1190 C 108.957 -1.83078 3.10668 0
M  V30 1191 O 108.061 -2.9281 2.90407 0
M  V30 1192 H 107.402 -0.268033 0.607499 0
M  V30 1193 H 109.932 -0.215488 2.03462 0
M  V30 1194 H 109.942 -2.2377 3.41161 0
M  V30 1195 H 108.617 -1.23112 3.97261 0
M  V30 1196 H 107.194 -2.55956 2.71184 0
M  V30 1197 N 109.379 -1.50304 -0.473955 0
M  V30 1198 C 110.311 -1.65109 -1.58971 0
M  V30 1199 C 111.324 -0.532676 -1.53839 0
M  V30 1200 O 112.513 -0.805751 -1.59279 0
M  V30 1201 C 109.613 -1.61684 -2.97845 0
M  V30 1202 C 108.786 -2.8951 -3.27876 0
M  V30 1203 C 107.845 -2.78768 -4.4629 0
M  V30 1204 O 106.871 -3.52722 -4.46739 0
M  V30 1205 N 108.073 -1.9213 -5.47783 0
M  V30 1206 H 110.838 -2.61347 -1.46689 0
M  V30 1207 H 108.399 -1.47732 -0.662324 0
M  V30 1208 H 110.391 -1.52114 -3.75024 0
M  V30 1209 H 108.961 -0.731925 -3.03911 0
M  V30 1210 H 108.181 -3.13228 -2.39336 0
M  V30 1211 H 109.469 -3.74199 -3.4475 0
M  V30 1212 H 108.867 -1.31353 -5.50239 0
M  V30 1213 H 107.424 -1.88466 -6.23958 0
M  V30 1214 N 110.857 0.726932 -1.39834 0
M  V30 1215 C 112.273 1.03354 -1.21615 0
M  V30 1216 C 112.473 2.01327 -0.08338 0
M  V30 1217 O 111.529 2.46158 0.56238 0
M  V30 1218 C 112.842 1.58811 -2.55342 0
M  V30 1219 C 114.39 1.70851 -2.62257 0
M  V30 1220 C 114.865 2.29716 -3.96225 0
M  V30 1221 N 116.356 2.37116 -3.97907 0
M  V30 1222 C 117.091 2.83619 -4.98345 0
M  V30 1223 N 116.587 3.29958 -6.09179 0
M  V30 1224 N 118.38 2.82901 -4.8572 0
M  V30 1225 H 110.531 0.0773069 -2.12259 0
M  V30 1226 H 112.794 0.0969102 -0.943034 0
M  V30 1227 H 112.5 0.942855 -3.38826 0
M  V30 1228 H 112.374 2.57502 -2.75632 0
M  V30 1229 H 114.761 2.34497 -1.79152 0
M  V30 1230 H 114.842 0.707913 -2.45809 0
M  V30 1231 H 114.486 1.66696 -4.79765 0
M  V30 1232 H 114.416 3.30469 -4.09997 0
M  V30 1233 H 116.907 2.04374 -3.17868 0
M  V30 1234 H 117.22 3.63976 -6.8172 0
M  V30 1235 H 115.565 3.27946 -6.12761 0
M  V30 1236 H 118.756 2.46027 -3.98231 0
M  V30 1237 H 118.929 3.18827 -5.6414 0
M  V30 1238 N 112.336 1.25143 0.95797 0
M  V30 1239 C 113.269 0.995565 2.05338 0
M  V30 1240 C 114.247 -0.0740423 1.62431 0
M  V30 1241 O 115.431 0.0649212 1.88388 0
M  V30 1242 C 112.558 0.504298 3.34925 0
M  V30 1243 C 111.604 1.56393 3.96792 0
M  V30 1244 S 112.437 3.14815 4.33188 0
M  V30 1245 C 113.593 2.67415 5.65898 0
M  V30 1246 H 113.826 1.92309 2.26726 0
M  V30 1247 H 111.359 1.08635 1.09716 0
M  V30 1248 H 113.317 0.227497 4.09869 0
M  V30 1249 H 111.978 -0.402671 3.11508 0
M  V30 1250 H 111.171 1.17082 4.90212 0
M  V30 1251 H 110.773 1.79124 3.28315 0
M  V30 1252 H 113.065 2.10833 6.4386 0
M  V30 1253 H 114.008 3.59463 6.10076 0
M  V30 1254 H 114.416 2.07521 5.24972 0
M  V30 1255 N 113.814 -1.1601 1.06675 0
M  V30 1256 C 115.06 -1.86909 0.786945 0
M  V30 1257 C 115.393 -1.81717 -0.685018 0
M  V30 1258 O 114.668 -1.23551 -1.50218 0
M  V30 1259 C 114.951 -3.36313 1.28707 0
M  V30 1260 C 114.804 -3.50175 2.82308 0
M  V30 1261 C 116.123 -4.3084 0.898071 0
M  V30 1262 H 113.242 -0.678677 0.287343 0
M  V30 1263 H 115.884 -1.36336 1.32334 0
M  V30 1264 H 114.034 -3.79513 0.830768 0
M  V30 1265 H 115.706 -3.15886 3.36175 0
M  V30 1266 H 113.949 -2.91959 3.20847 0
M  V30 1267 H 114.62 -4.55116 3.12368 0
M  V30 1268 H 117.096 -3.95561 1.29114 0
M  V30 1269 H 115.972 -5.33876 1.27543 0
M  V30 1270 H 116.233 -4.41662 -0.196651 0
M  V30 1271 N 115.292 -0.849877 -1.32721 0
M  V30 1272 C 116.538 -0.451591 -1.97708 0
M  V30 1273 C 116.871 0.989175 -1.6712 0
M  V30 1274 O 116.146 1.69334 -0.956891 0
M  V30 1275 C 116.429 -0.685598 -3.53513 0
M  V30 1276 C 116.282 -2.17444 -3.93749 0
M  V30 1277 C 117.601 -0.138874 -4.39881 0
M  V30 1278 H 114.72 -0.16555 -0.718166 0
M  V30 1279 H 117.362 -1.06742 -1.57182 0
M  V30 1280 H 115.512 -0.161416 -3.88165 0
M  V30 1281 H 117.184 -2.76433 -3.693 0
M  V30 1282 H 115.427 -2.65476 -3.43081 0
M  V30 1283 H 116.098 -2.28888 -5.02309 0
M  V30 1284 H 118.574 -0.587068 -4.11938 0
M  V30 1285 H 117.45 -0.332213 -5.47894 0
M  V30 1286 H 117.711 0.95806 -4.31594 0
M  V30 1287 N 116.77 1.45427 -0.607355 0
M  V30 1288 C 117.703 2.27635 0.160482 0
M  V30 1289 C 118.681 1.37122 0.873857 0
M  V30 1290 O 119.865 1.66551 0.882775 0
M  V30 1291 C 116.992 3.15486 1.23231 0
M  V30 1292 C 116.038 4.21939 0.622097 0
M  V30 1293 S 116.871 5.32459 -0.569852 0
M  V30 1294 C 118.027 6.23879 0.502577 0
M  V30 1295 H 118.26 2.9241 -0.536983 0
M  V30 1296 H 115.793 1.49265 -0.394868 0
M  V30 1297 H 117.751 3.66659 1.84585 0
M  V30 1298 H 116.412 2.49977 1.90185 0
M  V30 1299 H 115.605 4.8333 1.42856 0
M  V30 1300 H 115.207 3.73906 0.0837063 0
M  V30 1301 H 117.499 6.63261 1.38171 0
M  V30 1302 H 118.442 7.0806 -0.0751759 0
M  V30 1303 H 118.85 5.58545 0.8178 0
M  V30 1304 N 118.248 0.346503 1.53744 0
M  V30 1305 C 119.198 -0.524953 2.21874 0
M  V30 1306 C 120.182 -1.06376 1.20718 0
M  V30 1307 O 121.374 -0.996972 1.46251 0
M  V30 1308 C 118.503 -1.6739 2.99726 0
M  V30 1309 C 117.589 -1.14888 4.08242 0
M  V30 1310 N 117.98 -0.345329 5.0462 0
M  V30 1311 C 116.278 -1.4255 4.22606 0
M  V30 1312 C 116.979 -0.0600706 5.81669 0
M  V30 1313 N 115.955 -0.65252 5.39669 0
M  V30 1314 H 119.757 0.0960091 2.93743 0
M  V30 1315 H 117.271 0.15352 1.61673 0
M  V30 1316 H 119.268 -2.3102 3.47038 0
M  V30 1317 H 117.928 -2.29811 2.29384 0
M  V30 1318 H 118.939 0.0138439 5.17898 0
M  V30 1319 H 115.616 -2.05389 3.63486 0
M  V30 1320 H 117.006 0.588321 6.69319 0
M  V30 1321 N 119.726 -1.57421 0.075193 0
M  V30 1322 C 120.974 -1.93236 -0.591974 0
M  V30 1323 C 121.295 -0.956241 -1.69944 0
M  V30 1324 O 120.565 -0.00494792 -1.95899 0
M  V30 1325 H 119.145 -0.713355 -0.22166 0
M  V30 1326 H 121.807 -1.9444 0.133848 0
M  V30 1327 H 120.903 -2.95131 -1.01509 0
M  V30 1328 N 121.204 0.198386 -1.56346 0
M  V30 1329 C 122.434 0.934215 -1.84271 0
M  V30 1330 C 122.842 1.77496 -0.655125 0
M  V30 1331 O 122.185 1.7961 0.385488 0
M  V30 1332 C 122.247 1.88278 -3.06254 0
M  V30 1333 C 121.911 1.22431 -4.40295 0
M  V30 1334 C 122.908 0.602839 -5.16393 0
M  V30 1335 C 120.593 1.22915 -4.87029 0
M  V30 1336 C 122.587 -0.0050083 -6.374 0
M  V30 1337 C 120.274 0.617465 -6.07973 0
M  V30 1338 C 121.272 0.00146341 -6.83 0
M  V30 1339 O 120.96 -0.600642 -8.01653 0
M  V30 1340 H 120.692 0.278245 -0.616081 0
M  V30 1341 H 123.246 0.211626 -2.04307 0
M  V30 1342 H 121.476 2.64498 -2.82095 0
M  V30 1343 H 123.165 2.48612 -3.20853 0
M  V30 1344 H 123.931 0.591265 -4.81382 0
M  V30 1345 H 119.81 1.69801 -4.28589 0
M  V30 1346 H 123.354 -0.48643 -6.95902 0
M  V30 1347 H 119.251 0.62653 -6.42452 0
M  V30 1348 H 120.019 -0.497225 -8.16988 0
M  V30 1349 N 122.682 1.50554 0.465978 0
M  V30 1350 C 123.629 1.6979 1.56333 0
M  V30 1351 C 124.599 0.539239 1.57103 0
M  V30 1352 O 125.784 0.770401 1.74555 0
M  V30 1353 C 122.924 1.80273 2.94271 0
M  V30 1354 C 122.037 3.07674 3.0325 0
M  V30 1355 C 121.172 3.08922 4.32135 0
M  V30 1356 C 120.211 4.30755 4.34875 0
M  V30 1357 N 119.348 4.29714 5.55239 0
M  V30 1358 H 124.188 2.63472 1.39235 0
M  V30 1359 H 121.725 1.30602 0.676873 0
M  V30 1360 H 123.683 1.84332 3.74269 0
M  V30 1361 H 122.313 0.900258 3.09992 0
M  V30 1362 H 121.365 3.13062 2.16094 0
M  V30 1363 H 122.677 3.97642 3.01135 0
M  V30 1364 H 121.831 3.11738 5.20485 0
M  V30 1365 H 120.57 2.16792 4.36866 0
M  V30 1366 H 119.575 4.28146 3.44922 0
M  V30 1367 H 120.8 5.24117 4.31831 0
M  V30 1368 H 118.746 3.4044 5.60746 0
M  V30 1369 H 118.663 5.13456 5.54886 0
M  V30 1370 H 119.931 4.36683 6.457 0
M  V30 1371 N 124.16 -0.719506 1.40217 0
M  V30 1372 C 125.123 -1.8153 1.39927 0
M  V30 1373 C 126.123 -1.58095 0.293723 0
M  V30 1374 O 127.313 -1.65209 0.552429 0
M  V30 1375 C 124.445 -3.19561 1.18716 0
M  V30 1376 H 125.638 -1.83186 2.37451 0
M  V30 1377 H 123.191 -0.924746 1.26008 0
M  V30 1378 H 123.926 -3.23557 0.219366 0
M  V30 1379 H 123.711 -3.3797 1.98793 0
M  V30 1380 H 125.201 -3.99598 1.21291 0
M  V30 1381 N 125.638 -1.25649 -0.95132 0
M  V30 1382 C 126.884 -1.10757 -1.69884 0
M  V30 1383 C 127.217 0.350061 -1.91019 0
M  V30 1384 O 126.492 1.25783 -1.48354 0
M  V30 1385 C 126.775 -1.86606 -3.07978 0
M  V30 1386 C 126.628 -3.40217 -2.94232 0
M  V30 1387 C 127.947 -1.65182 -4.07925 0
M  V30 1388 H 125.066 -0.40374 -0.616574 0
M  V30 1389 H 127.708 -1.54521 -1.10558 0
M  V30 1390 H 125.858 -1.49409 -3.58621 0
M  V30 1391 H 127.53 -3.87108 -2.50889 0
M  V30 1392 H 125.773 -3.67759 -2.30078 0
M  V30 1393 H 126.444 -3.88505 -3.92133 0
M  V30 1394 H 128.92 -1.9757 -3.66204 0
M  V30 1395 H 127.796 -2.20683 -5.02583 0
M  V30 1396 H 128.057 -0.593933 -4.38092 0
M  V30 1397 N 127.117 1.15442 -1.07289 0
M  V30 1398 C 128.064 2.20161 -0.692653 0
M  V30 1399 C 129.034 1.63073 0.31564 0
M  V30 1400 O 130.219 1.89725 0.202235 0
M  V30 1401 C 127.359 3.44967 -0.0959509 0
M  V30 1402 C 126.472 4.16256 -1.15564 0
M  V30 1403 C 125.607 5.28609 -0.524011 0
M  V30 1404 C 124.646 5.91715 -1.56653 0
M  V30 1405 N 123.783 6.9554 -0.957531 0
M  V30 1406 H 128.623 2.52037 -1.59002 0
M  V30 1407 H 126.16 1.2378 -0.794798 0
M  V30 1408 H 128.118 4.16341 0.267628 0
M  V30 1409 H 126.748 3.1361 0.764772 0
M  V30 1410 H 125.8 3.43385 -1.6368 0
M  V30 1411 H 127.112 4.59268 -1.94613 0
M  V30 1412 H 126.266 6.06604 -0.108032 0
M  V30 1413 H 125.005 4.86787 0.29825 0
M  V30 1414 H 124.01 5.12433 -1.9923 0
M  V30 1415 H 125.235 6.35614 -2.39107 0
M  V30 1416 H 123.181 6.55814 -0.156162 0
M  V30 1417 H 123.098 7.36977 -1.68526 0
M  V30 1418 H 124.366 7.77435 -0.567032 0
M  V30 1419 N 128.595 0.856903 1.32268 0
M  V30 1420 C 129.505 0.306131 2.32594 0
M  V30 1421 C 130.521 -0.577209 1.64147 0
M  V30 1422 O 131.697 -0.477043 1.95669 0
M  V30 1423 C 128.762 -0.494561 3.43154 0
M  V30 1424 C 127.823 0.415186 4.27288 0
M  V30 1425 C 127.056 -0.347387 5.32568 0
M  V30 1426 O 127.279 -1.57708 5.48165 0
M  V30 1427 O 126.213 0.287982 6.01211 0
M  V30 1428 H 130.039 1.13737 2.81598 0
M  V30 1429 H 127.624 0.619902 1.35932 0
M  V30 1430 H 129.506 -0.948944 4.10576 0
M  V30 1431 H 128.181 -1.30257 2.96336 0
M  V30 1432 H 127.088 0.917793 3.62667 0
M  V30 1433 H 128.421 1.18844 4.77637 0
M  V30 1434 N 130.073 -1.45103 0.615059 0
M  V30 1435 C 131.036 -2.29025 -0.0895485 0
M  V30 1436 C 132.036 -1.40174 -0.787906 0
M  V30 1437 O 133.226 -1.62217 -0.634933 0
M  V30 1438 C 130.358 -3.21376 -1.13711 0
M  V30 1439 H 131.551 -2.92807 0.648382 0
M  V30 1440 H 129.104 -1.51749 0.374444 0
M  V30 1441 H 129.839 -2.6241 -1.90556 0
M  V30 1442 H 129.624 -3.86834 -0.640475 0
M  V30 1443 H 131.114 -3.84459 -1.63036 0
M  V30 1444 N 131.551 -0.354651 -1.53558 0
M  V30 1445 C 132.481 0.489091 -2.2832 0
M  V30 1446 C 133.462 1.09324 -1.30316 0
M  V30 1447 O 134.647 1.11255 -1.59173 0
M  V30 1448 C 131.777 1.63456 -3.0643 0
M  V30 1449 C 130.731 1.1582 -4.12031 0
M  V30 1450 C 130.057 2.39305 -4.7816 0
M  V30 1451 C 131.357 0.250731 -5.21698 0
M  V30 1452 H 133.051 -0.134614 -2.99097 0
M  V30 1453 H 130.597 -0.0661826 -1.43848 0
M  V30 1454 H 132.55 2.23136 -3.57475 0
M  V30 1455 H 131.274 2.28533 -2.33325 0
M  V30 1456 H 129.933 0.584146 -3.61916 0
M  V30 1457 H 129.581 3.02814 -4.01637 0
M  V30 1458 H 129.281 2.08109 -5.49513 0
M  V30 1459 H 130.805 2.99691 -5.31994 0
M  V30 1460 H 132.219 0.754695 -5.68311 0
M  V30 1461 H 130.616 0.0301468 -6.00092 0
M  V30 1462 H 131.686 -0.710125 -4.79672 0
M  V30 1463 N 133.029 1.57378 -0.0835403 0
M  V30 1464 C 133.959 2.1641 0.87686 0
M  V30 1465 C 134.94 1.09429 1.30228 0
M  V30 1466 O 136.125 1.37516 1.37124 0
M  V30 1467 C 133.255 2.73517 2.14022 0
M  V30 1468 C 132.209 3.85769 1.85381 0
M  V30 1469 C 131.535 4.29529 3.18448 0
M  V30 1470 C 132.835 5.09486 1.14984 0
M  V30 1471 H 134.529 2.96914 0.385059 0
M  V30 1472 H 132.075 1.42823 0.18377 0
M  V30 1473 H 134.028 3.13463 2.81636 0
M  V30 1474 H 132.752 1.90252 2.65465 0
M  V30 1475 H 131.411 3.46345 1.20169 0
M  V30 1476 H 131.059 3.43169 3.67755 0
M  V30 1477 H 130.759 5.05204 3.00071 0
M  V30 1478 H 132.283 4.72099 3.8724 0
M  V30 1479 H 133.697 5.46674 1.72687 0
M  V30 1480 H 132.094 5.90515 1.06826 0
M  V30 1481 H 133.164 4.84724 0.130749 0
M  V30 1482 N 134.507 -0.190092 1.56449 0
M  V30 1483 C 135.784 -0.935886 1.71757 0
M  V30 1484 C 136.164 -2.01173 0.639726 0
M  V30 1485 O 135.512 -2.25827 -0.348502 0
M  V30 1486 C 135.722 -1.51775 3.1427 0
M  V30 1487 C 137.07 -1.99794 3.74656 0
M  V30 1488 O 138.094 -1.61607 3.1743 0
M  V30 1489 O 136.953 -2.70079 4.751 0
M  V30 1490 H 134.047 -0.439229 0.700719 0
M  V30 1491 H 136.593 -0.179395 1.68749 0
M  V30 1492 H 135.365 -0.742505 3.84191 0
M  V30 1493 H 134.988 -2.33894 3.21527 0
M  V30 1494 N 135.985 -1.50799 -0.457987 0
M  V30 1495 C 137.215 -1.65977 -1.23025 0
M  V30 1496 C 137.623 -0.347918 -1.85974 0
M  V30 1497 O 136.966 0.68148 -1.70592 0
M  V30 1498 C 137.028 -2.70309 -2.3701 0
M  V30 1499 C 136.692 -4.135 -1.94594 0
M  V30 1500 C 137.689 -4.98949 -1.46101 0
M  V30 1501 C 135.374 -4.5949 -2.02915 0
M  V30 1502 C 137.368 -6.28442 -1.06489 0
M  V30 1503 C 135.055 -5.88984 -1.62914 0
M  V30 1504 C 136.053 -6.73286 -1.1478 0
M  V30 1505 O 135.741 -8.00362 -0.75339 0
M  V30 1506 H 135.473 -0.56064 -0.377702 0
M  V30 1507 H 138.027 -1.97857 -0.551537 0
M  V30 1508 H 136.257 -2.337 -3.08093 0
M  V30 1509 H 137.946 -2.74574 -2.98938 0
M  V30 1510 H 138.712 -4.6463 -1.39084 0
M  V30 1511 H 134.591 -3.94009 -2.39328 0
M  V30 1512 H 138.135 -6.94194 -0.688488 0
M  V30 1513 H 134.032 -6.22822 -1.69595 0
M  V30 1514 H 134.8 -8.13744 -0.88108 0
M  V30 1515 N 137.463 0.71206 -1.40597 0
M  V30 1516 C 138.41 1.82613 -1.41142 0
M  V30 1517 C 139.38 1.63925 -0.267903 0
M  V30 1518 O 140.565 1.85009 -0.466495 0
M  V30 1519 C 137.705 3.20354 -1.28324 0
M  V30 1520 C 136.818 3.50589 -2.52411 0
M  V30 1521 C 135.953 4.77855 -2.32009 0
M  V30 1522 C 134.992 5.01005 -3.51654 0
M  V30 1523 N 134.129 6.19487 -3.30425 0
M  V30 1524 H 138.969 1.81482 -2.36365 0
M  V30 1525 H 136.506 0.886475 -1.17388 0
M  V30 1526 H 138.464 3.99899 -1.18899 0
M  V30 1527 H 137.094 3.20705 -0.367189 0
M  V30 1528 H 136.146 2.65573 -2.72351 0
M  V30 1529 H 137.458 3.63604 -3.41458 0
M  V30 1530 H 136.612 5.65424 -2.19956 0
M  V30 1531 H 135.351 4.67056 -1.40392 0
M  V30 1532 H 134.356 4.1189 -3.64179 0
M  V30 1533 H 135.581 5.13674 -4.44202 0
M  V30 1534 H 133.527 6.09932 -2.41494 0
M  V30 1535 H 133.444 6.33194 -4.13039 0
M  V30 1536 H 134.712 7.09834 -3.22113 0
M  V30 1537 N 138.941 1.26152 0.944643 0
M  V30 1538 C 140.218 1.02247 1.66748 0
M  V30 1539 C 140.598 -0.448202 2.06287 0
M  V30 1540 O 139.946 -1.42779 1.78399 0
M  V30 1541 C 140.156 1.96788 2.88228 0
M  V30 1542 C 141.504 2.25201 3.59958 0
M  V30 1543 O 142.528 1.94626 2.98327 0
M  V30 1544 O 141.387 2.77242 4.70956 0
M  V30 1545 H 138.481 0.388517 0.730057 0
M  V30 1546 H 141.027 1.37348 0.99668 0
M  V30 1547 H 139.799 2.96047 2.55875 0
M  V30 1548 H 139.422 1.62145 3.63035 0
M  V30 1549 N 140.419 -1.14872 1.07899 0
M  V30 1550 C 141.329 -2.2341 0.715915 0
M  V30 1551 C 142.345 -1.71808 -0.275306 0
M  V30 1552 O 143.521 -2.01039 -0.120545 0
M  V30 1553 C 140.586 -3.46474 0.125168 0
M  V30 1554 C 139.647 -4.13039 1.17034 0
M  V30 1555 C 138.88 -5.30229 0.607688 0
M  V30 1556 O 139.103 -5.675 -0.574497 0
M  V30 1557 O 138.037 -5.86444 1.35526 0
M  V30 1558 H 141.863 -2.56808 1.62121 0
M  V30 1559 H 139.448 -1.22702 0.852322 0
M  V30 1560 H 141.33 -4.20917 -0.201729 0
M  V30 1561 H 140.005 -3.14811 -0.753364 0
M  V30 1562 H 138.912 -3.40493 1.54968 0
M  V30 1563 H 140.245 -4.48796 2.02097 0
M  V30 1564 N 141.898 -0.863906 -1.31812 0
M  V30 1565 C 143.145 -0.471836 -1.96926 0
M  V30 1566 C 143.473 0.974578 -1.68322 0
M  V30 1567 O 142.728 1.7003 -0.968933 0
M  V30 1568 C 143.027 -0.668547 -3.51091 0
M  V30 1569 C 142.693 -2.08683 -3.99703 0
M  V30 1570 C 141.355 -2.47471 -4.12688 0
M  V30 1571 C 143.707 -3.01207 -4.25351 0
M  V30 1572 C 141.035 -3.78037 -4.4867 0
M  V30 1573 C 143.387 -4.31282 -4.62794 0
M  V30 1574 C 142.051 -4.69992 -4.73987 0
M  V30 1575 H 141.321 -0.172657 -0.720604 0
M  V30 1576 H 143.968 -1.09573 -1.57054 0
M  V30 1577 H 142.273 0.0385252 -3.91781 0
M  V30 1578 H 143.97 -0.345102 -3.99512 0
M  V30 1579 H 140.56 -1.77566 -3.90087 0
M  V30 1580 H 144.744 -2.72469 -4.14819 0
M  V30 1581 H 140 -4.078 -4.55532 0
M  V30 1582 H 144.174 -5.03031 -4.81594 0
M  V30 1583 H 141.801 -5.71207 -5.01624 0
M  V30 1584 N 143.376 1.44774 -0.622745 0
M  V30 1585 C 144.601 2.06999 -0.128968 0
M  V30 1586 C 145.026 1.4617 1.1839 0
M  V30 1587 O 144.384 0.560007 1.72434 0
M  V30 1588 C 144.432 3.60595 -0.0188351 0
M  V30 1589 O 143.536 3.99398 1.02739 0
M  V30 1590 H 142.877 0.659047 -0.0809544 0
M  V30 1591 H 145.407 1.85784 -0.85705 0
M  V30 1592 H 145.417 4.07627 0.174476 0
M  V30 1593 H 144.092 4.04252 -0.977384 0
M  V30 1594 H 142.669 3.64011 0.809326 0
M  V30 1595 N 144.854 0.36279 1.53368 0
M  V30 1596 C 146.102 -0.227326 2.00817 0
M  V30 1597 C 146.423 -1.49511 1.25186 0
M  V30 1598 O 145.693 -1.92482 0.364348 0
M  V30 1599 H 144.273 -0.0869923 0.741917 0
M  V30 1600 H 146.935 0.488381 1.88682 0
M  V30 1601 H 146.031 -0.456273 3.08747 0
M  V30 1602 N 146.332 -1.57332 0.0918853 0
M  V30 1603 C 147.748 -1.57389 -0.264766 0
M  V30 1604 C 147.948 -1.10281 -1.68643 0
M  V30 1605 O 147.004 -0.777801 -2.40222 0
M  V30 1606 C 148.317 -3.00648 -0.0561195 0
M  V30 1607 C 149.865 -3.12754 -0.124116 0
M  V30 1608 C 150.34 -4.57965 0.0564972 0
M  V30 1609 N 151.831 -4.632 0.00155611 0
M  V30 1610 C 152.566 -5.73281 0.116598 0
M  V30 1611 N 152.062 -6.92208 0.286294 0
M  V30 1612 N 153.855 -5.6207 0.0580973 0
M  V30 1613 H 146.006 -1.86262 1.02079 0
M  V30 1614 H 148.269 -0.859579 0.399786 0
M  V30 1615 H 147.975 -3.393 0.925669 0
M  V30 1616 H 147.849 -3.68623 -0.799823 0
M  V30 1617 H 150.236 -2.73976 -1.09641 0
M  V30 1618 H 150.317 -2.47377 0.651024 0
M  V30 1619 H 149.961 -4.97436 1.02564 0
M  V30 1620 H 149.891 -5.21399 -0.738297 0
M  V30 1621 H 152.382 -3.77686 -0.127192 0
M  V30 1622 H 152.695 -7.71934 0.365676 0
M  V30 1623 H 151.04 -6.94254 0.32192 0
M  V30 1624 H 154.231 -4.68043 -0.0733204 0
M  V30 1625 H 154.404 -6.47824 0.151203 0
M  V30 1626 N 147.81 0.181792 -1.56548 0
M  V30 1627 C 149.058 0.89832 -1.81038 0
M  V30 1628 C 149.379 1.83232 -0.667164 0
M  V30 1629 O 148.649 1.93372 0.313673 0
M  V30 1630 H 147.229 0.33471 -0.667816 0
M  V30 1631 H 149.891 0.184116 -1.94028 0
M  V30 1632 H 148.987 1.4815 -2.74696 0
M  V30 1633 N 149.288 1.51039 0.449983 0
M  V30 1634 C 150.565 1.53612 1.21089 0
M  V30 1635 C 150.945 0.292997 2.09057 0
M  V30 1636 O 150.293 -0.72259 2.16774 0
M  V30 1637 C 150.503 2.84337 2.0237 0
M  V30 1638 C 151.851 3.35807 2.59843 0
M  V30 1639 O 152.875 2.85802 2.12593 0
M  V30 1640 O 151.734 4.23029 3.45989 0
M  V30 1641 H 148.828 0.617057 0.550608 0
M  V30 1642 H 151.374 1.63344 0.460082 0
M  V30 1643 H 150.146 3.66278 1.37681 0
M  V30 1644 H 149.769 2.77708 2.84542 0
M  V30 1645 N 150.766 -0.704594 1.40972 0
M  V30 1646 C 151.696 -1.83124 1.44872 0
M  V30 1647 C 152.677 -1.67281 0.30838 0
M  V30 1648 O 153.862 -1.87149 0.518556 0
M  V30 1649 C 150.992 -3.21181 1.32136 0
M  V30 1650 C 149.946 -3.51714 2.43888 0
M  V30 1651 C 149.272 -4.89032 2.16222 0
M  V30 1652 C 150.572 -3.516 3.86232 0
M  V30 1653 H 152.266 -1.80117 2.39161 0
M  V30 1654 H 149.812 -0.865145 1.15114 0
M  V30 1655 H 151.765 -3.99702 1.33479 0
M  V30 1656 H 150.489 -3.24791 0.343279 0
M  V30 1657 H 149.148 -2.75539 2.41813 0
M  V30 1658 H 148.796 -4.89256 1.16778 0
M  V30 1659 H 148.496 -5.10426 2.911 0
M  V30 1660 H 150.02 -5.69873 2.19265 0
M  V30 1661 H 151.434 -4.2014 3.9007 0
M  V30 1662 H 149.831 -3.84523 4.60719 0
M  V30 1663 H 150.901 -2.50757 4.15029 0
M  V30 1664 N 152.244 -1.26651 -0.937939 0
M  V30 1665 C 153.655 -1.1125 -1.49934 0
M  V30 1666 C 154.006 0.306077 -1.93798 0
M  V30 1667 O 153.131 1.19792 -1.80219 0
M  V30 1668 C 153.726 -2.01339 -2.72485 0
M  V30 1669 C 152.285 -1.90074 -3.24883 0
M  V30 1670 C 151.432 -1.94498 -1.97651 0
M  V30 1671 H 154.383 -1.39693 -0.753091 0
M  V30 1672 H 154.404 -1.56319 -3.46907 0
M  V30 1673 H 153.916 -3.04577 -2.40529 0
M  V30 1674 H 152.017 -0.897827 -3.61621 0
M  V30 1675 H 152.13 -2.75778 -3.9177 0
M  V30 1676 H 150.494 -1.38591 -2.13693 0
M  V30 1677 H 151.277 -2.99372 -1.68022 0
M  V30 1678 N 153.722 1.14298 -1.08507 0
M  V30 1679 C 154.685 2.17607 -0.719711 0
M  V30 1680 C 155.685 1.58907 0.245997 0
M  V30 1681 O 156.875 1.74181 0.0254081 0
M  V30 1682 C 154.007 3.40842 -0.0627695 0
M  V30 1683 H 155.2 2.51443 -1.63452 0
M  V30 1684 H 152.753 1.28963 -0.88307 0
M  V30 1685 H 153.488 3.12587 0.863716 0
M  V30 1686 H 153.273 3.84713 -0.757504 0
M  V30 1687 H 154.763 4.17221 0.177786 0
M  V30 1688 N 155.201 0.870884 1.31352 0
M  V30 1689 C 156.448 0.482273 1.96673 0
M  V30 1690 C 156.776 -0.965638 1.68836 0
M  V30 1691 O 156.031 -1.69514 0.977937 0
M  V30 1692 C 156.33 0.687157 3.50732 0
M  V30 1693 C 155.996 2.108 3.9859 0
M  V30 1694 C 154.658 2.49656 4.1137 0
M  V30 1695 C 157.01 3.03459 4.23748 0
M  V30 1696 C 154.338 3.80412 4.46659 0
M  V30 1697 C 156.69 4.3373 4.60501 0
M  V30 1698 C 155.354 4.725 4.71487 0
M  V30 1699 H 154.624 0.176476 0.719679 0
M  V30 1700 H 157.271 1.10405 1.56471 0
M  V30 1701 H 155.576 -0.0177476 3.91796 0
M  V30 1702 H 157.273 0.366284 3.99324 0
M  V30 1703 H 153.863 1.79633 3.8914 0
M  V30 1704 H 158.047 2.74665 4.13368 0
M  V30 1705 H 153.303 4.1021 4.53362 0
M  V30 1706 H 157.477 5.05578 4.78919 0
M  V30 1707 H 155.104 5.73859 4.98588 0
M  V30 1708 N 156.679 -1.44442 0.630414 0
M  V30 1709 C 157.629 -2.27794 -0.0968103 0
M  V30 1710 C 158.613 -1.38624 -0.816834 0
M  V30 1711 O 159.805 -1.62438 -0.70306 0
M  V30 1712 C 156.934 -3.25929 -1.07819 0
M  V30 1713 C 156.02 -4.22588 -0.357826 0
M  V30 1714 N 156.411 -5.0207 0.613169 0
M  V30 1715 C 154.709 -4.41914 -0.602365 0
M  V30 1716 C 155.41 -5.72351 1.03871 0
M  V30 1717 N 154.386 -5.42287 0.377642 0
M  V30 1718 H 158.188 -2.86653 0.648621 0
M  V30 1719 H 155.702 -1.55871 0.455862 0
M  V30 1720 H 157.699 -3.84399 -1.61378 0
M  V30 1721 H 156.359 -2.68631 -1.82393 0
M  V30 1722 H 157.37 -5.08331 0.990947 0
M  V30 1723 H 154.047 -3.95714 -1.33103 0
M  V30 1724 H 155.437 -6.4619 1.84086 0
M  V30 1725 N 158.157 -0.370918 -1.53173 0
M  V30 1726 C 159.12 0.460778 -2.24521 0
M  V30 1727 C 160.12 1.00536 -1.25496 0
M  V30 1728 O 161.31 0.890266 -1.49733 0
M  V30 1729 C 158.442 1.64457 -2.98608 0
M  V30 1730 H 159.635 -0.163613 -2.99453 0
M  V30 1731 H 157.188 -0.122699 -1.55818 0
M  V30 1732 H 157.923 2.30691 -2.2793 0
M  V30 1733 H 157.708 1.26099 -3.7127 0
M  V30 1734 H 159.198 2.23384 -3.5283 0
M  V30 1735 N 159.635 1.57281 -0.100228 0
M  V30 1736 C 160.585 2.10848 0.86759 0
M  V30 1737 C 161.569 1.02473 1.24049 0
M  V30 1738 O 162.761 1.28739 1.21471 0
M  V30 1739 C 159.89 2.69648 2.12474 0
M  V30 1740 C 158.976 3.85074 1.77704 0
M  V30 1741 N 159.367 4.92897 1.13518 0
M  V30 1742 C 157.665 3.94905 2.07282 0
M  V30 1743 C 158.366 5.73475 0.974735 0
M  V30 1744 N 157.342 5.22675 1.4937 0
M  V30 1745 H 161.144 2.91594 0.367471 0
M  V30 1746 H 158.658 1.62074 0.102829 0
M  V30 1747 H 160.655 3.06356 2.82757 0
M  V30 1748 H 159.315 1.90359 2.63047 0
M  V30 1749 H 160.326 5.11662 0.801381 0
M  V30 1750 H 157.003 3.26633 2.60033 0
M  V30 1751 H 158.393 6.70238 0.472364 0
M  V30 1752 N 161.113 -0.173488 1.56642 0
M  V30 1753 C 162.529 -0.525174 1.50712 0
M  V30 1754 C 162.729 -1.8476 0.804107 0
M  V30 1755 O 161.785 -2.49869 0.363574 0
M  V30 1756 C 163.098 -0.559937 2.95441 0
M  V30 1757 C 164.646 -0.647288 3.06234 0
M  V30 1758 C 165.121 -0.712963 4.52417 0
M  V30 1759 N 166.612 -0.775911 4.56655 0
M  V30 1760 C 167.347 -0.847264 5.67106 0
M  V30 1761 N 166.843 -0.879585 6.87194 0
M  V30 1762 N 168.636 -0.886117 5.55071 0
M  V30 1763 H 160.787 0.693681 2.00753 0
M  V30 1764 H 163.05 0.249841 0.914485 0
M  V30 1765 H 162.756 0.343049 3.50023 0
M  V30 1766 H 162.63 -1.40718 3.49969 0
M  V30 1767 H 165.017 -1.5407 2.51687 0
M  V30 1768 H 165.098 0.226586 2.54794 0
M  V30 1769 H 164.742 0.176183 5.07594 0
M  V30 1770 H 164.672 -1.60295 5.0161 0
M  V30 1771 H 167.163 -0.759304 3.70193 0
M  V30 1772 H 167.476 -0.935144 7.67121 0
M  V30 1773 H 165.821 -0.847898 6.89808 0
M  V30 1774 H 169.012 -0.857853 4.60172 0
M  V30 1775 H 169.185 -0.938263 6.41171 0
M  V30 1776 N 162.591 -1.51276 -0.441967 0
M  V30 1777 C 163.868 -1.54252 -1.20273 0
M  V30 1778 C 164.248 -0.30408 -2.08898 0
M  V30 1779 O 163.596 0.711084 -2.17154 0
M  V30 1780 C 163.806 -2.85406 -2.00859 0
M  V30 1781 C 165.154 -3.37181 -2.58059 0
M  V30 1782 O 166.178 -2.86925 -2.11074 0
M  V30 1783 O 165.037 -4.24858 -3.43741 0
M  V30 1784 H 162.131 -0.619969 -0.547328 0
M  V30 1785 H 164.677 -1.63586 -0.451413 0
M  V30 1786 H 163.449 -3.67003 -1.35736 0
M  V30 1787 H 163.072 -2.79213 -2.83065 0
M  V30 1788 N 164.069 0.697108 -1.41344 0
M  V30 1789 C 165.485 1.00751 -1.2378 0
M  V30 1790 C 165.685 2.01105 -0.126066 0
M  V30 1791 O 164.741 2.47295 0.51004 0
M  V30 1792 C 166.054 1.53359 -2.58653 0
M  V30 1793 C 167.602 1.6525 -2.65822 0
M  V30 1794 C 168.077 2.2126 -4.01009 0
M  V30 1795 N 169.568 2.28622 -4.02847 0
M  V30 1796 C 170.303 2.72984 -5.04249 0
M  V30 1797 N 169.799 3.16962 -6.16041 0
M  V30 1798 N 171.592 2.72534 -4.91611 0
M  V30 1799 H 163.743 0.0322662 -2.12375 0
M  V30 1800 H 166.006 0.0768853 -0.944877 0
M  V30 1801 H 165.712 0.870773 -3.4075 0
M  V30 1802 H 165.586 2.51597 -2.81032 0
M  V30 1803 H 167.973 2.30644 -1.84086 0
M  V30 1804 H 168.054 0.655614 -2.47256 0
M  V30 1805 H 167.698 1.56482 -4.83193 0
M  V30 1806 H 167.628 3.21698 -4.16915 0
M  V30 1807 H 170.119 1.97585 -3.22131 0
M  V30 1808 H 170.432 3.49434 -6.89287 0
M  V30 1809 H 168.777 3.14875 -6.1958 0
M  V30 1810 H 171.968 2.37525 -4.0336 0
M  V30 1811 H 172.141 3.06789 -5.70775 0
M  V30 1812 N 165.547 1.27147 0.931209 0
M  V30 1813 C 166.795 1.13055 1.6752 0
M  V30 1814 C 167.116 -0.324791 1.92276 0
M  V30 1815 O 166.386 -1.22775 1.52654 0
M  V30 1816 H 164.966 0.415391 0.620854 0
M  V30 1817 H 167.628 1.59623 1.11833 0
M  V30 1818 H 166.724 1.65694 2.64485 0
M  V30 1819 N 167.025 -1.13721 1.09112 0
M  V30 1820 C 168.274 -1.84275 0.82009 0
M  V30 1821 C 168.587 -1.84253 -0.656509 0
M  V30 1822 O 169.793 -2.50668 -1.04296 0
M  V30 1823 C 168.249 -3.30825 1.41714 0
M  V30 1824 C 167.857 -3.39244 2.92605 0
M  V30 1825 C 169.601 -4.06443 1.22492 0
M  V30 1826 C 167.508 -4.80047 3.45411 0
M  V30 1827 H 166.438 -0.690387 0.30312 0
M  V30 1828 H 169.089 -1.28146 1.31343 0
M  V30 1829 H 167.471 -3.86737 0.851498 0
M  V30 1830 H 168.645 -2.93344 3.55367 0
M  V30 1831 H 166.96 -2.77088 3.10823 0
M  V30 1832 H 169.557 -5.10387 1.59402 0
M  V30 1833 H 169.9 -4.15972 0.165299 0
M  V30 1834 H 170.433 -3.56852 1.75788 0
M  V30 1835 H 167.172 -4.75709 4.50978 0
M  V30 1836 H 166.692 -5.26455 2.87411 0
M  V30 1837 H 168.371 -5.48957 3.42425 0
M  V30 1838 N 168.503 -0.877838 -1.30888 0
M  V30 1839 C 169.752 -0.488793 -1.95688 0
M  V30 1840 C 170.065 0.965485 -1.70111 0
M  V30 1841 O 171.271 1.46104 -2.28836 0
M  V30 1842 C 169.727 -0.823201 -3.50359 0
M  V30 1843 C 169.335 -2.29477 -3.84765 0
M  V30 1844 C 171.079 -0.503009 -4.21509 0
M  V30 1845 C 168.986 -2.57118 -5.32583 0
M  V30 1846 H 167.916 -0.179062 -0.732429 0
M  V30 1847 H 170.567 -1.07183 -1.48943 0
M  V30 1848 H 168.949 -0.169331 -3.95638 0
M  V30 1849 H 170.123 -2.99236 -3.5042 0
M  V30 1850 H 168.438 -2.58178 -3.267 0
M  V30 1851 H 171.035 -0.68665 -5.30273 0
M  V30 1852 H 171.378 0.557109 -4.12555 0
M  V30 1853 H 171.911 -1.11376 -3.8189 0
M  V30 1854 H 168.65 -3.61843 -5.4658 0
M  V30 1855 H 168.17 -1.91961 -5.68253 0
M  V30 1856 H 169.849 -2.42251 -5.99936 0
M  V30 1857 N 169.982 1.44106 -0.638065 0
M  V30 1858 C 171.229 2.01978 -0.14533 0
M  V30 1859 C 171.557 1.50234 1.23532 0
M  V30 1860 O 170.812 0.679548 1.83523 0
M  V30 1861 C 171.111 3.5729 -0.0887327 0
M  V30 1862 C 170.777 4.28317 -1.40909 0
M  V30 1863 C 169.439 4.47437 -1.77069 0
M  V30 1864 C 171.791 4.6867 -2.28031 0
M  V30 1865 C 169.119 5.04171 -3.00047 0
M  V30 1866 C 171.471 5.26766 -3.50286 0
M  V30 1867 C 170.135 5.44104 -3.86661 0
M  V30 1868 H 169.405 0.739089 -0.0531801 0
M  V30 1869 H 172.052 1.72781 -0.825761 0
M  V30 1870 H 170.357 3.8594 0.675095 0
M  V30 1871 H 172.054 3.99807 0.309145 0
M  V30 1872 H 168.644 4.1377 -1.1177 0
M  V30 1873 H 172.828 4.53604 -2.01388 0
M  V30 1874 H 168.084 5.15782 -3.28298 0
M  V30 1875 H 172.258 5.56983 -4.18023 0
M  V30 1876 H 169.885 5.87832 -4.82034 0
M  V30 1877 N 171.46 0.379036 1.52974 0
M  V30 1878 C 172.408 -0.476033 2.27677 0
M  V30 1879 C 173.402 -1.0719 1.31174 0
M  V30 1880 O 174.608 -1.01355 1.48752 0
M  V30 1881 H 170.983 -0.172255 0.732006 0
M  V30 1882 H 172.954 0.175615 2.97883 0
M  V30 1883 C 171.703 -1.5967 3.0887 0
M  V30 1884 H 171.026 -1.1475 3.82978 0
M  V30 1885 H 172.466 -2.16943 3.64296 0
M  V30 1886 C 170.925 -2.54682 2.20542 0
M  V30 1887 O 171.455 -3.57836 1.82527 0
M  V30 1888 N 169.661 -2.24183 1.84907 0
M  V30 1889 H 169.208 -1.40333 2.1602 0
M  V30 1890 H 169.166 -2.88006 1.26096 0
M  V30 1891 N 172.938 -1.57226 0.108567 0
M  V30 1892 C 173.886 -2.16002 -0.862885 0
M  V30 1893 C 174.88 -1.10644 -1.28274 0
M  V30 1894 O 176.086 -1.28966 -1.2557 0
M  V30 1895 H 172.461 -0.691148 -0.296342 0
M  V30 1896 H 174.432 -2.96427 -0.342575 0
M  V30 1897 C 173.181 -2.76576 -2.10716 0
M  V30 1898 H 172.504 -3.5734 -1.793 0
M  V30 1899 H 173.944 -3.21253 -2.76717 0
M  V30 1900 C 172.403 -1.73137 -2.89007 0
M  V30 1901 O 172.933 -1.17842 -3.84026 0
M  V30 1902 N 171.139 -1.43317 -2.52801 0
M  V30 1903 H 170.686 -1.88473 -1.75601 0
M  V30 1904 H 170.644 -0.743485 -3.05483 0
M  V30 1905 N 174.416 0.165178 -1.56732 0
M  V30 1906 C 175.664 0.879068 -1.8198 0
M  V30 1907 C 175.985 1.82514 -0.686561 0
M  V30 1908 O 175.255 1.93694 0.293146 0
M  V30 1909 H 173.835 0.327608 -0.671329 0
M  V30 1910 H 176.497 0.163526 -1.94213 0
M  V30 1911 H 175.593 1.45228 -2.76252 0
M  V30 1912 N 175.894 1.51508 0.433938 0
M  V30 1913 C 177.305 1.56784 1.01369 0
M  V30 1914 C 177.656 0.393349 1.92217 0
M  V30 1915 O 176.781 -0.489441 2.10792 0
M  V30 1916 C 177.376 2.84144 1.8452 0
M  V30 1917 C 175.935 2.9198 2.37539 0
M  V30 1918 C 175.082 2.51482 1.16843 0
M  V30 1919 H 178.033 1.57236 0.215081 0
M  V30 1920 H 178.054 2.68098 2.70007 0
M  V30 1921 H 177.566 3.69607 1.18373 0
M  V30 1922 H 175.667 2.10955 3.0713 0
M  V30 1923 H 175.78 3.95704 2.70103 0
M  V30 1924 H 174.144 2.04758 1.51481 0
M  V30 1925 H 174.927 3.39293 0.523015 0
M  V30 1926 N 177.372 -0.689602 1.41712 0
M  V30 1927 C 178.6 -1.47827 1.44758 0
M  V30 1928 C 179.015 -1.88721 0.0545703 0
M  V30 1929 O 178.372 -1.57176 -0.927463 0
M  V30 1930 C 178.423 -2.73698 2.3616 0
M  V30 1931 O 178.144 -2.34524 3.7004 0
M  V30 1932 C 179.645 -3.67389 2.48072 0
M  V30 1933 H 176.865 -0.455357 0.49284 0
M  V30 1934 H 179.409 -0.848574 1.86063 0
M  V30 1935 H 177.564 -3.32891 1.98148 0
M  V30 1936 H 177.978 -3.15701 4.18847 0
M  V30 1937 H 179.452 -4.52475 3.16181 0
M  V30 1938 H 179.929 -4.12284 1.51388 0
M  V30 1939 H 180.535 -3.14097 2.86746 0
M  V30 1940 N 178.85 -1.27639 -0.924453 0
M  V30 1941 C 180.096 -1.15345 -1.67532 0
M  V30 1942 C 180.451 0.297096 -1.90092 0
M  V30 1943 O 179.744 1.21374 -1.48253 0
M  V30 1944 C 179.938 -1.87407 -3.04325 0
M  V30 1945 C 179.767 -3.3932 -2.95114 0
M  V30 1946 C 178.537 -4.08644 -2.97218 0
M  V30 1947 C 180.735 -4.35242 -2.73987 0
M  V30 1948 N 178.717 -5.47102 -2.78482 0
M  V30 1949 C 180.088 -5.6099 -2.63988 0
M  V30 1950 C 182.143 -4.25294 -2.589 0
M  V30 1951 C 180.846 -6.77924 -2.40442 0
M  V30 1952 C 182.872 -5.41952 -2.36731 0
M  V30 1953 C 182.234 -6.66658 -2.27478 0
M  V30 1954 H 178.333 -0.47696 -0.619704 0
M  V30 1955 H 180.917 -1.6115 -1.09265 0
M  V30 1956 H 179.088 -1.44053 -3.60699 0
M  V30 1957 H 180.82 -1.6759 -3.68369 0
M  V30 1958 H 177.575 -3.60136 -3.07569 0
M  V30 1959 H 177.999 -6.19852 -2.72236 0
M  V30 1960 H 182.641 -3.29598 -2.64811 0
M  V30 1961 H 180.359 -7.73699 -2.3327 0
M  V30 1962 H 183.945 -5.36137 -2.25938 0
M  V30 1963 H 182.825 -7.55405 -2.10555 0
M  V30 1964 N 180.328 1.1314 -1.09713 0
M  V30 1965 C 181.275 2.18642 -0.739196 0
M  V30 1966 C 182.245 1.63706 0.280978 0
M  V30 1967 O 183.43 1.90111 0.161946 0
M  V30 1968 C 180.57 3.44685 -0.169102 0
M  V30 1969 C 179.683 4.13711 -1.24367 0
M  V30 1970 C 178.818 5.27379 -0.636019 0
M  V30 1971 C 177.857 5.88259 -1.69169 0
M  V30 1972 N 176.994 6.93352 -1.10485 0
M  V30 1973 H 181.834 2.48607 -1.64312 0
M  V30 1974 H 179.371 1.22066 -0.820875 0
M  V30 1975 H 181.329 4.16815 0.179256 0
M  V30 1976 H 179.959 3.15161 0.698079 0
M  V30 1977 H 179.011 3.39835 -1.70927 0
M  V30 1978 H 180.323 4.55037 -2.04311 0
M  V30 1979 H 179.477 6.06238 -0.236677 0
M  V30 1980 H 178.216 4.8731 0.194928 0
M  V30 1981 H 177.221 5.08092 -2.10055 0
M  V30 1982 H 178.446 6.30399 -2.52536 0
M  V30 1983 H 176.392 6.55335 -0.295234 0
M  V30 1984 H 176.309 7.33236 -1.84121 0
M  V30 1985 H 177.577 7.76057 -0.73181 0
M  V30 1986 N 181.806 0.884767 1.30421 0
M  V30 1987 C 183.083 0.423185 1.90967 0
M  V30 1988 C 183.463 -1.09605 1.80416 0
M  V30 1989 O 182.811 -1.93126 1.22125 0
M  V30 1990 C 183.021 0.921056 3.36627 0
M  V30 1991 C 184.369 0.955903 4.137 0
M  V30 1992 O 185.393 0.867706 3.4547 0
M  V30 1993 O 184.252 1.08614 5.35598 0
M  V30 1994 H 181.346 0.129369 0.816819 0
M  V30 1995 H 183.892 0.973653 1.3899 0
M  V30 1996 H 182.664 1.96489 3.3839 0
M  V30 1997 H 182.287 0.349741 3.96059 0
M  V30 1998 N 183.284 -1.43765 0.645699 0
M  V30 1999 C 184.533 -2.01116 0.153412 0
M  V30 2000 C 184.846 -1.51493 -1.23731 0
M  V30 2001 O 186.052 -2.01067 -1.8244 0
M  V30 2002 C 184.508 -3.59206 0.223473 0
M  V30 2003 C 184.116 -4.17823 1.61642 0
M  V30 2004 C 185.86 -4.23972 -0.211597 0
M  V30 2005 C 183.767 -5.68183 1.64081 0
M  V30 2006 H 182.697 -0.752093 0.0535891 0
M  V30 2007 H 185.348 -1.6482 0.806633 0
M  V30 2008 H 183.73 -3.92867 -0.497118 0
M  V30 2009 H 184.904 -3.95674 2.36176 0
M  V30 2010 H 183.219 -3.65399 1.99681 0
M  V30 2011 H 185.816 -5.34275 -0.213112 0
M  V30 2012 H 186.159 -3.97352 -1.24165 0
M  V30 2013 H 186.692 -3.95166 0.456988 0
M  V30 2014 H 183.431 -5.99559 2.64971 0
M  V30 2015 H 182.951 -5.9241 0.938611 0
M  V30 2016 H 184.63 -6.32085 1.3812 0
M  V30 2017 N 184.763 -0.387143 -1.52771 0
M  V30 2018 C 186.179 -0.037007 -1.59557 0
M  V30 2019 C 186.379 1.44801 -1.40124 0
M  V30 2020 O 185.435 2.21227 -1.21716 0
M  V30 2021 C 186.748 -0.512256 -2.96305 0
M  V30 2022 C 188.296 -0.468328 -3.09476 0
M  V30 2023 C 188.771 -0.919731 -4.4867 0
M  V30 2024 N 190.262 -0.875656 -4.54848 0
M  V30 2025 C 190.997 -1.19637 -5.6078 0
M  V30 2026 N 190.493 -1.58745 -6.74368 0
M  V30 2027 N 192.286 -1.11776 -5.50874 0
M  V30 2028 H 184.437 -1.35395 -1.63652 0
M  V30 2029 H 186.7 -0.554818 -0.768688 0
M  V30 2030 H 186.406 -1.54935 -3.15734 0
M  V30 2031 H 186.28 0.089805 -3.77093 0
M  V30 2032 H 188.667 0.559671 -2.89744 0
M  V30 2033 H 188.748 -1.10616 -2.30646 0
M  V30 2034 H 188.392 -1.94595 -4.69143 0
M  V30 2035 H 188.322 -0.258927 -5.25963 0
M  V30 2036 H 190.813 -0.587843 -3.733 0
M  V30 2037 H 191.126 -1.81586 -7.51163 0
M  V30 2038 H 189.471 -1.6263 -6.75705 0
M  V30 2039 H 192.662 -0.811264 -4.61016 0
M  V30 2040 H 192.835 -1.37103 -6.3333 0
M  V30 2041 N 186.241 1.57166 -0.116904 0
M  V30 2042 C 187.657 1.5779 0.239693 0
M  V30 2043 C 187.857 1.1295 1.66867 0
M  V30 2044 O 186.913 0.81592 2.38954 0
M  V30 2045 C 188.226 3.00699 0.00828202 0
M  V30 2046 C 189.774 3.12912 0.0743438 0
M  V30 2047 C 190.249 4.57817 -0.129348 0
M  V30 2048 N 191.74 4.63139 -0.075247 0
M  V30 2049 C 192.475 5.73023 -0.207788 0
M  V30 2050 N 191.971 6.91665 -0.396382 0
M  V30 2051 N 193.764 5.61906 -0.14751 0
M  V30 2052 H 185.915 1.84615 -1.05029 0
M  V30 2053 H 188.178 0.85311 -0.41341 0
M  V30 2054 H 187.884 3.37784 -0.979531 0
M  V30 2055 H 187.758 3.69848 0.741077 0
M  V30 2056 H 190.145 2.75686 1.05268 0
M  V30 2057 H 190.226 2.4631 -0.690297 0
M  V30 2058 H 189.87 4.95742 -1.10465 0
M  V30 2059 H 189.8 5.22507 0.655253 0
M  V30 2060 H 192.291 3.7784 0.0670898 0
M  V30 2061 H 192.604 7.71255 -0.488437 0
M  V30 2062 H 190.949 6.93654 -0.432329 0
M  V30 2063 H 194.14 4.681 -0.00115036 0
M  V30 2064 H 194.313 6.47501 -0.254247 0
M  V30 2065 N 187.719 -0.156864 1.56817 0
M  V30 2066 C 188.966 -0.871125 1.82805 0
M  V30 2067 C 189.294 -1.81611 0.696262 0
M  V30 2068 O 188.549 -1.93141 -0.315459 0
M  V30 2069 C 188.848 -1.68737 3.1506 0
M  V30 2070 C 188.514 -0.890045 4.42028 0
M  V30 2071 C 187.176 -0.670042 4.76512 0
M  V30 2072 C 189.528 -0.331769 5.20143 0
M  V30 2073 C 186.856 0.119104 5.86579 0
M  V30 2074 C 189.208 0.444365 6.31037 0
M  V30 2075 C 187.872 0.675035 6.64078 0
M  V30 2076 H 187.142 -0.318767 0.668931 0
M  V30 2077 H 189.789 -0.135274 1.91022 0
M  V30 2078 H 188.094 -2.49304 3.0225 0
M  V30 2079 H 189.791 -2.24331 3.3238 0
M  V30 2080 H 186.381 -1.07157 4.14988 0
M  V30 2081 H 190.565 -0.489043 4.93885 0
M  V30 2082 H 185.821 0.307417 6.10627 0
M  V30 2083 H 189.995 0.884139 6.90765 0
M  V30 2084 H 187.622 1.28839 7.49203 0
M  V30 2085 N 189.197 -1.51736 -0.425897 0
M  V30 2086 C 190.422 -1.69082 -1.20108 0
M  V30 2087 C 190.847 -0.392398 -1.83962 0
M  V30 2088 O 190.205 0.64858 -1.69302 0
M  V30 2089 C 190.253 -2.81604 -2.25237 0
M  V30 2090 O 189.357 -2.46004 -3.30992 0
M  V30 2091 H 188.698 -0.563408 -0.35138 0
M  V30 2092 H 191.228 -1.98358 -0.501512 0
M  V30 2093 H 191.238 -3.06025 -2.69838 0
M  V30 2094 H 189.913 -3.75817 -1.78142 0
M  V30 2095 H 188.49 -2.32195 -2.91787 0
M  V30 2096 N 190.675 0.682077 -1.42076 0
M  V30 2097 C 191.605 1.80796 -1.47767 0
M  V30 2098 C 192.586 1.6677 -0.334954 0
M  V30 2099 O 193.771 1.863 -0.548264 0
M  V30 2100 C 190.901 3.19038 -1.37229 0
M  V30 2101 C 189.855 3.47789 -2.49453 0
M  V30 2102 C 189.181 4.8553 -2.23975 0
M  V30 2103 C 190.481 3.45411 -3.91776 0
M  V30 2104 H 192.175 1.7629 -2.41997 0
M  V30 2105 H 189.721 0.846721 -1.16476 0
M  V30 2106 H 191.674 3.97528 -1.39821 0
M  V30 2107 H 190.398 3.24204 -0.394907 0
M  V30 2108 H 189.057 2.71657 -2.46166 0
M  V30 2109 H 188.705 4.87337 -1.24547 0
M  V30 2110 H 188.405 5.0573 -2.99184 0
M  V30 2111 H 189.929 5.66312 -2.28304 0
M  V30 2112 H 191.343 4.13882 -3.96705 0
M  V30 2113 H 189.74 3.77145 -4.66778 0
M  V30 2114 H 190.81 2.44122 -4.18966 0
M  V30 2115 N 192.153 1.28127 0.917671 0
M  V30 2116 C 193.381 1.17892 1.70026 0
M  V30 2117 C 193.796 -0.262958 1.8696 0
M  V30 2118 O 193.153 -1.17811 1.3938 0
M  V30 2119 C 193.204 1.86872 3.09453 0
M  V30 2120 O 192.925 3.25428 2.93306 0
M  V30 2121 C 194.426 1.8289 4.03815 0
M  V30 2122 H 191.646 0.40942 0.531617 0
M  V30 2123 H 194.19 1.69181 1.14883 0
M  V30 2124 H 192.345 1.39464 3.61426 0
M  V30 2125 H 192.759 3.59918 3.81523 0
M  V30 2126 H 194.233 2.35751 4.99125 0
M  V30 2127 H 194.71 0.800412 4.31845 0
M  V30 2128 H 195.316 2.29959 3.57769 0
M  V30 2129 N 193.631 -1.12557 1.10312 0
M  V30 2130 C 194.859 -1.87864 0.866873 0
M  V30 2131 C 195.274 -1.79588 -0.582557 0
M  V30 2132 O 194.631 -1.16887 -1.40156 0
M  V30 2133 C 194.682 -3.37125 1.30496 0
M  V30 2134 O 194.403 -3.45201 2.69755 0
M  V30 2135 C 195.904 -4.29373 1.10243 0
M  V30 2136 H 193.124 -0.594452 0.311236 0
M  V30 2137 H 195.668 -1.42429 1.46745 0
M  V30 2138 H 193.823 -3.80109 0.748081 0
M  V30 2139 H 194.237 -4.38056 2.88457 0
M  V30 2140 H 195.711 -5.32394 1.45811 0
M  V30 2141 H 196.188 -4.39181 0.0409492 0
M  V30 2142 H 196.794 -3.92169 1.64571 0
M  V30 2143 N 195.109 -0.891671 -1.2995 0
M  V30 2144 C 196.039 -0.379797 -2.30391 0
M  V30 2145 C 197.02 0.540919 -1.6127 0
M  V30 2146 O 198.205 0.453352 -1.88834 0
M  V30 2147 C 195.335 0.400654 -3.44981 0
M  V30 2148 C 194.289 -0.428905 -4.25846 0
M  V30 2149 C 193.615 0.478557 -5.32554 0
M  V30 2150 C 194.915 -1.67458 -4.94727 0
M  V30 2151 H 196.609 -1.21914 -2.73454 0
M  V30 2152 H 194.155 -0.587675 -1.31462 0
M  V30 2153 H 196.108 0.769434 -4.14316 0
M  V30 2154 H 194.832 1.27371 -3.0074 0
M  V30 2155 H 193.491 -0.779911 -3.58208 0
M  V30 2156 H 193.139 1.34951 -4.84559 0
M  V30 2157 H 192.839 -0.0727433 -5.87555 0
M  V30 2158 H 194.363 0.843705 -6.04743 0
M  V30 2159 H 195.777 -1.376 -5.56542 0
M  V30 2160 H 194.174 -2.16659 -5.59624 0
M  V30 2161 H 195.244 -2.41518 -4.20473 0
M  V30 2162 N 196.587 1.43421 -0.653314 0
M  V30 2163 C 198.003 1.56341 -0.320886 0
M  V30 2164 C 198.203 1.63696 1.17499 0
M  V30 2165 O 197.259 1.59208 1.95982 0
M  V30 2166 C 198.572 2.82424 -1.03233 0
M  V30 2167 C 200.12 2.96168 -1.01259 0
M  V30 2168 C 200.595 4.25084 -1.70492 0
M  V30 2169 N 202.086 4.31948 -1.67257 0
M  V30 2170 C 202.821 5.30466 -2.17701 0
M  V30 2171 N 202.317 6.35261 -2.76434 0
M  V30 2172 N 204.11 5.2212 -2.082 0
M  V30 2173 H 196.261 1.3689 -1.62403 0
M  V30 2174 H 198.524 0.657455 -0.682977 0
M  V30 2175 H 198.23 2.83053 -2.08744 0
M  V30 2176 H 198.104 3.72653 -0.583948 0
M  V30 2177 H 200.491 2.9508 0.0341235 0
M  V30 2178 H 200.572 2.07229 -1.49966 0
M  V30 2179 H 200.216 4.26932 -2.7512 0
M  V30 2180 H 200.146 5.1292 -1.19251 0
M  V30 2181 H 202.637 3.56838 -1.24398 0
M  V30 2182 H 202.95 7.06754 -3.12601 0
M  V30 2183 H 201.295 6.35884 -2.80495 0
M  V30 2184 H 204.486 4.39166 -1.62021 0
M  V30 2185 H 204.659 5.98739 -2.47822 0
M  V30 2186 N 198.065 0.39524 1.52563 0
M  V30 2187 C 199.013 -0.451859 2.28169 0
M  V30 2188 C 200.007 -1.05792 1.32304 0
M  V30 2189 O 201.213 -0.997718 1.49818 0
M  V30 2190 H 197.588 -0.164481 0.733792 0
M  V30 2191 H 199.559 0.207199 2.9768 0
M  V30 2192 C 198.308 -1.56385 3.10546 0
M  V30 2193 H 197.631 -1.10682 3.84174 0
M  V30 2194 H 199.071 -2.13067 3.66577 0
M  V30 2195 C 197.53 -2.52328 2.23231 0
M  V30 2196 O 198.06 -3.5588 1.86312 0
M  V30 2197 N 196.266 -2.22209 1.87274 0
M  V30 2198 H 195.813 -1.38033 2.17496 0
M  V30 2199 H 195.771 -2.86652 1.29143 0
M  V30 2200 N 199.544 -1.57102 0.125237 0
M  V30 2201 C 200.774 -1.99472 -0.538015 0
M  V30 2202 C 201.182 -1.00395 -1.60366 0
M  V30 2203 O 200.525 0.0103875 -1.83697 0
M  V30 2204 C 200.587 -3.38262 -1.21734 0
M  V30 2205 C 200.251 -4.56021 -0.298897 0
M  V30 2206 C 201.248 -5.17817 0.464943 0
M  V30 2207 C 198.933 -5.01869 -0.208149 0
M  V30 2208 C 200.927 -6.23852 1.3072 0
M  V30 2209 C 198.614 -6.07763 0.637736 0
M  V30 2210 C 199.612 -6.68622 1.39403 0
M  V30 2211 O 199.3 -7.7247 2.22586 0
M  V30 2212 H 199.032 -0.659934 -0.146501 0
M  V30 2213 H 201.586 -2.04321 0.210267 0
M  V30 2214 H 199.816 -3.30185 -2.01282 0
M  V30 2215 H 201.505 -3.6488 -1.77813 0
M  V30 2216 H 202.271 -4.83308 0.404741 0
M  V30 2217 H 198.15 -4.54241 -0.786522 0
M  V30 2218 H 201.694 -6.71284 1.898 0
M  V30 2219 H 197.591 -6.41701 0.699309 0
M  V30 2220 H 198.359 -7.89595 2.15596 0
M  V30 2221 N 201.022 0.148545 -1.56898 0
M  V30 2222 C 202.27 0.859717 -1.82902 0
M  V30 2223 C 202.591 1.81775 -0.70588 0
M  V30 2224 O 201.861 1.93994 0.272586 0
M  V30 2225 H 200.441 0.320469 -0.674766 0
M  V30 2226 H 203.103 0.142918 -1.94375 0
M  V30 2227 H 202.199 1.4229 -2.77777 0
M  V30 2228 N 202.5 1.5196 0.417844 0
M  V30 2229 C 203.433 1.69387 1.52916 0
M  V30 2230 C 204.411 0.541419 1.53321 0
M  V30 2231 O 205.595 0.767695 1.72159 0
M  V30 2232 C 202.722 1.72525 2.91467 0
M  V30 2233 C 201.768 2.93967 3.09008 0
M  V30 2234 S 202.601 4.54461 2.83242 0
M  V30 2235 C 203.757 4.60372 4.24038 0
M  V30 2236 H 203.99 2.63382 1.37903 0
M  V30 2237 H 201.523 1.41889 0.608845 0
M  V30 2238 H 203.481 1.75018 3.7132 0
M  V30 2239 H 202.142 0.796733 3.03827 0
M  V30 2240 H 201.335 2.92619 4.10353 0
M  V30 2241 H 200.937 2.89316 2.37007 0
M  V30 2242 H 203.229 4.37213 5.17544 0
M  V30 2243 H 204.172 5.62273 4.30412 0
M  V30 2244 H 204.58 3.89492 4.08602 0
M  V30 2245 N 203.978 -0.674533 1.42435 0
M  V30 2246 C 205.226 -1.43175 1.42637 0
M  V30 2247 C 205.547 -1.94951 0.0438992 0
M  V30 2248 O 204.817 -1.7308 -0.917607 0
M  V30 2249 H 203.397 -0.531307 0.525092 0
M  V30 2250 H 206.059 -0.797006 1.77859 0
M  V30 2251 H 205.155 -2.28463 2.12629 0
M  V30 2252 N 205.456 -1.28612 -0.910864 0
M  V30 2253 C 206.403 -1.12786 -2.01365 0
M  V30 2254 C 207.373 -0.024201 -1.66082 0
M  V30 2255 O 208.558 -0.189667 -1.89855 0
M  V30 2256 C 205.698 -0.798743 -3.35729 0
M  V30 2257 C 204.811 -1.98173 -3.83864 0
M  V30 2258 C 203.946 -1.59298 -5.06752 0
M  V30 2259 C 202.985 -2.74245 -5.47226 0
M  V30 2260 N 202.122 -2.35842 -6.61304 0
M  V30 2261 H 206.962 -2.07142 -2.14234 0
M  V30 2262 H 204.499 -1.03093 -1.0493 0
M  V30 2263 H 206.457 -0.588662 -4.13026 0
M  V30 2264 H 205.087 0.10789 -3.2262 0
M  V30 2265 H 204.139 -2.30386 -3.02699 0
M  V30 2266 H 205.451 -2.84343 -4.09818 0
M  V30 2267 H 204.605 -1.34513 -5.916 0
M  V30 2268 H 203.344 -0.702618 -4.82612 0
M  V30 2269 H 202.349 -2.99725 -4.60918 0
M  V30 2270 H 203.574 -3.63928 -5.73353 0
M  V30 2271 H 201.52 -1.49279 -6.38789 0
M  V30 2272 H 201.437 -3.15546 -6.86998 0
M  V30 2273 H 202.705 -2.14348 -7.4945 0
M  V30 2274 N 206.934 1.1197 -1.10907 0
M  V30 2275 C 207.866 2.17592 -0.720175 0
M  V30 2276 C 208.879 1.60938 0.245495 0
M  V30 2277 O 210.068 1.78476 0.0292245 0
M  V30 2278 C 207.168 3.38873 -0.0427917 0
M  V30 2279 C 206.341 4.25006 -1.03388 0
M  V30 2280 C 205.4 5.24774 -0.387075 0
M  V30 2281 O 204.426 5.59631 -1.03934 0
M  V30 2282 N 205.628 5.74208 0.852407 0
M  V30 2283 H 208.393 2.51567 -1.62893 0
M  V30 2284 H 205.954 1.27439 -0.998543 0
M  V30 2285 H 207.946 4.02703 0.401501 0
M  V30 2286 H 206.516 3.03007 0.768456 0
M  V30 2287 H 205.736 3.57716 -1.65629 0
M  V30 2288 H 207.024 4.79397 -1.70458 0
M  V30 2289 H 206.422 5.48062 1.40161 0
M  V30 2290 H 204.979 6.39901 1.23977 0
M  V30 2291 N 208.412 0.89855 1.29475 0
M  V30 2292 C 209.66 0.522847 1.9522 0
M  V30 2293 C 209.981 -0.93371 1.71192 0
M  V30 2294 O 209.251 -1.65823 1.04305 0
M  V30 2295 H 207.831 0.190366 0.722336 0
M  V30 2296 H 210.493 1.14459 1.5775 0
M  V30 2297 H 209.589 0.704476 3.04045 0
M  V30 2298 N 209.89 -1.43072 0.660911 0
M  V30 2299 C 210.838 -2.32569 -0.0378199 0
M  V30 2300 C 211.832 -1.49046 -0.805092 0
M  V30 2301 O 213.038 -1.65206 -0.714624 0
M  V30 2302 H 209.413 -0.75136 -0.031019 0
M  V30 2303 H 211.384 -2.89216 0.734609 0
M  V30 2304 C 210.133 -3.33453 -0.985124 0
M  V30 2305 H 209.456 -3.97752 -0.404147 0
M  V30 2306 H 210.896 -3.98691 -1.44297 0
M  V30 2307 C 209.355 -2.64642 -2.08486 0
M  V30 2308 O 209.885 -2.46776 -3.16961 0
M  V30 2309 N 208.091 -2.23891 -1.8526 0
M  V30 2310 H 207.638 -2.38621 -0.970449 0
M  V30 2311 H 207.596 -1.78181 -2.59034 0
M  V30 2312 N 211.368 -0.403325 -1.52352 0
M  V30 2313 C 212.278 0.432009 -2.30588 0
M  V30 2314 C 213.294 1.05884 -1.38075 0
M  V30 2315 O 214.47 1.06161 -1.71148 0
M  V30 2316 C 211.535 1.53669 -3.10784 0
M  V30 2317 C 210.596 0.933525 -4.19027 0
M  V30 2318 C 209.829 1.98557 -4.9539 0
M  V30 2319 O 210.052 3.20283 -4.71991 0
M  V30 2320 O 208.986 1.59504 -5.80381 0
M  V30 2321 H 212.812 -0.205739 -3.03002 0
M  V30 2322 H 210.397 -0.166675 -1.48467 0
M  V30 2323 H 212.279 2.17814 -3.60742 0
M  V30 2324 H 210.954 2.15915 -2.41169 0
M  V30 2325 H 209.861 0.254954 -3.7323 0
M  V30 2326 H 211.194 0.35508 -4.90918 0
M  V30 2327 N 212.846 1.57033 -0.133567 0
M  V30 2328 C 214.071 2.00475 0.531477 0
M  V30 2329 C 214.496 1.01291 1.58499 0
M  V30 2330 O 213.854 -0.0133279 1.81295 0
M  V30 2331 C 213.902 3.42729 1.12113 0
M  V30 2332 O 213.006 3.46498 2.23636 0
M  V30 2333 H 212.347 0.650876 0.131362 0
M  V30 2334 H 214.877 2.03344 -0.22634 0
M  V30 2335 H 214.887 3.81246 1.4531 0
M  V30 2336 H 213.562 4.14428 0.349557 0
M  V30 2337 H 212.139 3.19811 1.91769 0
M  V30 2338 N 214.325 -0.140222 1.56975 0
M  V30 2339 C 215.741 -0.493088 1.51792 0
M  V30 2340 C 215.941 -1.83013 0.843116 0
M  V30 2341 O 214.997 -2.49041 0.416493 0
M  V30 2342 C 216.31 -0.497144 2.96562 0
M  V30 2343 C 217.858 -0.582186 3.07538 0
M  V30 2344 C 218.333 -0.616838 4.53827 0
M  V30 2345 N 219.824 -0.678873 4.58198 0
M  V30 2346 C 220.559 -0.726782 5.68775 0
M  V30 2347 N 220.055 -0.733623 6.88905 0
M  V30 2348 N 221.848 -0.768179 5.56826 0
M  V30 2349 H 213.999 0.736108 1.99237 0
M  V30 2350 H 216.262 0.269182 0.90898 0
M  V30 2351 H 215.968 0.417217 3.49217 0
M  V30 2352 H 215.842 -1.33263 3.52875 0
M  V30 2353 H 218.229 -1.48697 2.54899 0
M  V30 2354 H 218.31 0.280581 2.54257 0
M  V30 2355 H 217.954 0.283812 5.07106 0
M  V30 2356 H 217.884 -1.49619 5.04898 0
M  V30 2357 H 220.375 -0.68061 3.7172 0
M  V30 2358 H 220.688 -0.772215 7.68932 0
M  V30 2359 H 219.033 -0.701389 6.91452 0
M  V30 2360 H 222.224 -0.760051 4.61888 0
M  V30 2361 H 222.397 -0.80205 6.43017 0
M  V30 2362 N 215.803 -1.52179 -0.40978 0
M  V30 2363 C 217.052 -1.65434 -1.15388 0
M  V30 2364 C 217.365 -0.390056 -1.91671 0
M  V30 2365 O 218.571 -0.402399 -2.68501 0
M  V30 2366 C 217.027 -2.92279 -2.10003 0
M  V30 2367 C 216.635 -4.25813 -1.39239 0
M  V30 2368 C 218.379 -3.14897 -2.84675 0
M  V30 2369 C 216.286 -5.43782 -2.32498 0
M  V30 2370 H 215.216 -0.616267 -0.434432 0
M  V30 2371 H 217.867 -1.78666 -0.418401 0
M  V30 2372 H 216.249 -2.72744 -2.871 0
M  V30 2373 H 217.423 -4.55828 -0.675099 0
M  V30 2374 H 215.738 -4.09292 -0.766097 0
M  V30 2375 H 218.335 -4.0021 -3.54593 0
M  V30 2376 H 218.678 -2.29103 -3.47588 0
M  V30 2377 H 219.211 -3.34901 -2.14677 0
M  V30 2378 H 215.95 -6.3192 -1.74233 0
M  V30 2379 H 215.47 -5.18106 -3.02201 0
M  V30 2380 H 217.149 -5.76834 -2.93038 0
M  V30 2381 N 217.281 0.66697 -1.42791 0
M  V30 2382 C 218.213 1.7925 -1.42836 0
M  V30 2383 C 219.226 1.59496 -0.326333 0
M  V30 2384 O 220.415 1.6847 -0.589916 0
M  V30 2385 C 217.515 3.16476 -1.21229 0
M  V30 2386 C 216.688 3.63011 -2.44013 0
M  V30 2387 C 215.747 4.78993 -2.17834 0
M  V30 2388 O 214.773 4.89137 -2.91091 0
M  V30 2389 N 215.975 5.68248 -1.18635 0
M  V30 2390 H 218.74 1.79695 -2.39854 0
M  V30 2391 H 216.301 0.850338 -1.37771 0
M  V30 2392 H 218.293 3.91734 -1.01621 0
M  V30 2393 H 216.863 3.10884 -0.32706 0
M  V30 2394 H 216.083 2.78346 -2.79137 0
M  V30 2395 H 217.371 3.90845 -3.25757 0
M  V30 2396 H 216.769 5.62712 -0.580615 0
M  V30 2397 H 215.326 6.43285 -1.05013 0
M  V30 2398 N 218.759 1.29093 0.90403 0
M  V30 2399 C 220.175 1.07011 1.1841 0
M  V30 2400 C 220.375 -0.181358 2.00682 0
M  V30 2401 O 219.431 -0.880331 2.36657 0
M  V30 2402 C 220.744 2.32311 1.90924 0
M  V30 2403 C 222.292 2.37587 2.03768 0
M  V30 2404 C 222.767 3.62679 2.79693 0
M  V30 2405 N 224.258 3.63376 2.87249 0
M  V30 2406 C 224.993 4.56848 3.46522 0
M  V30 2407 N 224.489 5.60648 4.06996 0
M  V30 2408 N 226.282 4.44426 3.44154 0
M  V30 2409 H 218.433 2.09412 0.354993 0
M  V30 2410 H 220.696 0.922181 0.219742 0
M  V30 2411 H 220.402 3.23536 1.37905 0
M  V30 2412 H 220.276 2.39483 2.91424 0
M  V30 2413 H 222.663 1.46853 2.55965 0
M  V30 2414 H 222.744 2.34403 1.02415 0
M  V30 2415 H 222.388 4.53762 2.28173 0
M  V30 2416 H 222.318 3.63119 3.81381 0
M  V30 2417 H 224.809 2.88321 2.44293 0
M  V30 2418 H 225.122 6.28101 4.50232 0
M  V30 2419 H 223.467 5.64463 4.05471 0
M  V30 2420 H 226.658 3.62529 2.96126 0
M  V30 2421 H 226.831 5.17457 3.90054 0
M  V30 2422 N 220.237 -1.11381 1.11499 0
M  V30 2423 C 221.147 -2.21019 0.786628 0
M  V30 2424 C 222.163 -1.72597 -0.220507 0
M  V30 2425 O 223.339 -2.01321 -0.0565251 0
M  V30 2426 C 220.404 -3.459 0.235333 0
M  V30 2427 C 219.465 -4.09107 1.30115 0
M  V30 2428 C 218.698 -5.28027 0.776068 0
M  V30 2429 O 218.921 -5.6904 -0.393661 0
M  V30 2430 O 217.855 -5.81835 1.54114 0
M  V30 2431 H 221.681 -2.51521 1.70209 0
M  V30 2432 H 219.266 -1.19928 0.890928 0
M  V30 2433 H 221.148 -4.21346 -0.067715 0
M  V30 2434 H 219.823 -3.17049 -0.652828 0
M  V30 2435 H 218.73 -3.35391 1.65722 0
M  V30 2436 H 220.063 -4.42139 2.16273 0
M  V30 2437 N 221.715 -0.905404 -1.28997 0
M  V30 2438 C 222.678 -0.392253 -2.25819 0
M  V30 2439 C 223.678 0.476753 -1.5357 0
M  V30 2440 O 224.868 0.280994 -1.71919 0
M  V30 2441 C 222 0.438588 -3.38067 0
M  V30 2442 H 223.193 -1.24743 -2.72725 0
M  V30 2443 H 220.746 -0.684051 -1.40536 0
M  V30 2444 H 221.481 1.31352 -2.96508 0
M  V30 2445 H 221.266 -0.184167 -3.91667 0
M  V30 2446 H 222.756 0.78873 -4.10084 0
M  V30 2447 N 223.193 1.4272 -0.668489 0
M  V30 2448 C 224.143 2.27971 0.0363806 0
M  V30 2449 C 225.127 1.40741 0.779794 0
M  V30 2450 O 226.319 1.64245 0.659745 0
M  V30 2451 C 223.448 3.28673 0.991398 0
M  V30 2452 C 222.534 4.23388 0.245658 0
M  V30 2453 N 222.925 5.00267 -0.746069 0
M  V30 2454 C 221.223 4.43355 0.484988 0
M  V30 2455 C 221.924 5.69396 -1.19009 0
M  V30 2456 N 220.9 5.41095 -0.521287 0
M  V30 2457 H 224.702 2.84833 -0.724394 0
M  V30 2458 H 222.216 1.54607 -0.497028 0
M  V30 2459 H 224.213 3.88543 1.51129 0
M  V30 2460 H 222.873 2.73373 1.75207 0
M  V30 2461 H 223.884 5.05525 -1.12537 0
M  V30 2462 H 220.561 3.99104 1.22565 0
M  V30 2463 H 221.951 6.41083 -2.01153 0
M  V30 2464 N 224.671 0.411399 1.52136 0
M  V30 2465 C 225.918 -0.163645 2.01838 0
M  V30 2466 C 226.246 -1.4495 1.29691 0
M  V30 2467 O 225.501 -1.91725 0.392431 0
M  V30 2468 C 225.8 -0.455872 3.54481 0
M  V30 2469 C 225.466 0.741055 4.44769 0
M  V30 2470 C 224.128 1.06936 4.69167 0
M  V30 2471 C 226.48 1.54075 4.97906 0
M  V30 2472 C 223.808 2.19851 5.43951 0
M  V30 2473 C 226.16 2.66067 5.73926 0
M  V30 2474 C 224.824 2.99381 5.96596 0
M  V30 2475 H 224.094 -0.0598821 0.738576 0
M  V30 2476 H 226.741 0.553283 1.83333 0
M  V30 2477 H 225.046 -1.2544 3.71177 0
M  V30 2478 H 226.743 -0.913802 3.90449 0
M  V30 2479 H 223.333 0.475192 4.25958 0
M  V30 2480 H 227.517 1.30033 4.78963 0
M  V30 2481 H 222.773 2.46006 5.59724 0
M  V30 2482 H 226.947 3.28419 6.14096 0
M  V30 2483 H 224.574 3.86992 6.54325 0
M  V30 2484 N 226.149 -1.5696 0.141893 0
M  V30 2485 C 227.079 -2.19516 -0.795936 0
M  V30 2486 C 228.06 -1.14187 -1.26077 0
M  V30 2487 O 229.245 -1.42511 -1.31925 0
M  V30 2488 C 226.375 -2.81272 -2.03723 0
M  V30 2489 C 225.329 -3.92384 -1.70936 0
M  V30 2490 C 224.655 -4.41052 -3.02287 0
M  V30 2491 C 225.955 -5.13403 -0.959954 0
M  V30 2492 H 227.649 -2.98138 -0.274596 0
M  V30 2493 H 225.195 -1.43406 -0.130636 0
M  V30 2494 H 227.148 -3.237 -2.69808 0
M  V30 2495 H 225.872 -1.99973 -2.58221 0
M  V30 2496 H 224.531 -3.50566 -1.07232 0
M  V30 2497 H 224.179 -3.56582 -3.54765 0
M  V30 2498 H 223.879 -5.15993 -2.81114 0
M  V30 2499 H 225.403 -4.86146 -3.69451 0
M  V30 2500 H 226.817 -5.52706 -1.52279 0
M  V30 2501 H 225.214 -5.94073 -0.848357 0
M  V30 2502 H 226.284 -4.84875 0.0492434 0
M  V30 2503 N 227.627 0.131896 -1.57047 0
M  V30 2504 C 228.557 1.16384 -2.02428 0
M  V30 2505 C 229.538 1.43936 -0.90644 0
M  V30 2506 O 230.723 1.54599 -1.17528 0
M  V30 2507 C 227.853 2.49328 -2.4177 0
M  V30 2508 C 226.807 2.36266 -3.56879 0
M  V30 2509 C 226.133 3.74057 -3.8208 0
M  V30 2510 C 227.433 1.834 -4.89042 0
M  V30 2511 H 229.127 0.786433 -2.88887 0
M  V30 2512 H 226.673 0.376855 -1.38981 0
M  V30 2513 H 228.626 3.21759 -2.7212 0
M  V30 2514 H 227.35 2.88934 -1.52266 0
M  V30 2515 H 226.009 1.66286 -3.26718 0
M  V30 2516 H 225.657 4.11125 -2.89803 0
M  V30 2517 H 225.357 3.66174 -4.59554 0
M  V30 2518 H 226.881 4.48012 -4.1487 0
M  V30 2519 H 228.295 2.45636 -5.18011 0
M  V30 2520 H 226.692 1.8637 -5.70426 0
M  V30 2521 H 227.762 0.790662 -4.7841 0
M  V30 2522 N 229.106 1.52395 0.401703 0
M  V30 2523 C 230.016 1.7917 1.51444 0
M  V30 2524 C 231.032 0.677691 1.6026 0
M  V30 2525 O 232.208 0.963909 1.76835 0
M  V30 2526 C 229.273 1.94347 2.87107 0
M  V30 2527 C 228.334 3.18257 2.88116 0
M  V30 2528 C 227.567 3.32701 4.17308 0
M  V30 2529 O 227.79 2.52238 5.11598 0
M  V30 2530 O 226.724 4.25891 4.25324 0
M  V30 2531 H 230.55 2.73633 1.31752 0
M  V30 2532 H 228.135 1.3733 0.588296 0
M  V30 2533 H 230.017 2.06109 3.67555 0
M  V30 2534 H 228.692 1.03073 3.06851 0
M  V30 2535 H 227.599 3.11947 2.06494 0
M  V30 2536 H 228.932 4.09336 2.73322 0
M  V30 2537 N 230.584 -0.659388 1.43143 0
M  V30 2538 C 231.547 -1.75432 1.47501 0
M  V30 2539 C 232.547 -1.56707 0.360512 0
M  V30 2540 O 233.737 -1.62717 0.622002 0
M  V30 2541 C 230.869 -3.14239 1.32162 0
M  V30 2542 H 232.062 -1.7295 2.45006 0
M  V30 2543 H 229.615 -0.870469 1.29817 0
M  V30 2544 H 230.35 -3.22336 0.356401 0
M  V30 2545 H 230.135 -3.29235 2.12948 0
M  V30 2546 H 231.625 -3.94094 1.3813 0
M  V30 2547 N 232.062 -1.29571 -0.897171 0
M  V30 2548 C 232.992 -1.17473 -2.01798 0
M  V30 2549 C 233.973 -0.068323 -1.69963 0
M  V30 2550 O 235.158 -0.248239 -1.92607 0
M  V30 2551 C 232.288 -0.853099 -3.36659 0
M  V30 2552 C 231.242 -1.9161 -3.82713 0
M  V30 2553 C 230.568 -1.44773 -5.14728 0
M  V30 2554 C 231.868 -3.32535 -4.02763 0
M  V30 2555 H 233.562 -2.11237 -2.12177 0
M  V30 2556 H 231.108 -1.01699 -1.01948 0
M  V30 2557 H 233.061 -0.755165 -4.14578 0
M  V30 2558 H 231.785 0.120236 -3.26379 0
M  V30 2559 H 230.444 -2.00346 -3.07013 0
M  V30 2560 H 230.092 -0.462995 -5.00865 0
M  V30 2561 H 229.792 -2.15865 -5.46513 0
M  V30 2562 H 231.316 -1.36334 -5.95185 0
M  V30 2563 H 232.73 -3.26626 -4.71156 0
M  V30 2564 H 231.127 -4.01607 -4.45905 0
M  V30 2565 H 232.197 -3.75326 -3.07016 0
M  V30 2566 N 233.54 1.10788 -1.12088 0
M  V30 2567 C 234.956 1.34691 -0.856186 0
M  V30 2568 C 235.156 1.94791 0.515615 0
M  V30 2569 O 234.212 2.18524 1.26505 0
M  V30 2570 C 235.525 2.27208 -1.9697 0
M  V30 2571 C 237.073 2.40755 -2.00016 0
M  V30 2572 C 237.548 3.36598 -3.1059 0
M  V30 2573 N 239.039 3.44164 -3.10008 0
M  V30 2574 C 239.774 4.18284 -3.92206 0
M  V30 2575 N 239.27 4.95322 -4.84384 0
M  V30 2576 N 241.063 4.13865 -3.80357 0
M  V30 2577 H 233.214 0.70144 -2.00483 0
M  V30 2578 H 235.477 0.371405 -0.872217 0
M  V30 2579 H 235.183 1.90251 -2.958 0
M  V30 2580 H 235.057 3.27485 -1.87172 0
M  V30 2581 H 237.444 2.76982 -1.01808 0
M  V30 2582 H 237.525 1.40305 -2.13888 0
M  V30 2583 H 237.169 3.01096 -4.09028 0
M  V30 2584 H 237.099 4.36918 -2.93956 0
M  V30 2585 H 239.59 2.8922 -2.43228 0
M  V30 2586 H 239.903 5.49267 -5.43623 0
M  V30 2587 H 238.248 4.94459 -4.884 0
M  V30 2588 H 241.439 3.52773 -3.07683 0
M  V30 2589 H 241.612 4.71372 -4.44649 0
M  V30 2590 N 235.018 0.912232 1.28515 0
M  V30 2591 C 235.965 0.397954 2.27343 0
M  V30 2592 C 236.935 -0.526766 1.57526 0
M  V30 2593 O 238.12 -0.449292 1.85435 0
M  V30 2594 C 235.26 -0.357263 3.43246 0
M  V30 2595 C 234.373 0.599788 4.27816 0
M  V30 2596 C 233.508 -0.173725 5.30916 0
M  V30 2597 C 232.547 0.777039 6.07148 0
M  V30 2598 N 231.684 0.0371398 7.0209 0
M  V30 2599 H 236.524 1.24577 2.70711 0
M  V30 2600 H 234.061 0.625612 1.33133 0
M  V30 2601 H 236.019 -0.8113 4.09236 0
M  V30 2602 H 234.649 -1.16943 3.00872 0
M  V30 2603 H 233.701 1.17235 3.61884 0
M  V30 2604 H 235.013 1.32704 4.80823 0
M  V30 2605 H 234.167 -0.688394 6.02782 0
M  V30 2606 H 232.906 -0.934041 4.78672 0
M  V30 2607 H 231.911 1.3031 5.34134 0
M  V30 2608 H 233.136 1.53689 6.61481 0
M  V30 2609 H 231.082 -0.705213 6.52198 0
M  V30 2610 H 230.999 0.704249 7.52713 0
M  V30 2611 H 232.267 -0.457383 7.78157 0
M  V30 2612 N 236.496 -1.42363 0.676048 0
M  V30 2613 C 237.724 -2.05859 0.207268 0
M  V30 2614 C 238.139 -1.50796 -1.13605 0
M  V30 2615 O 237.496 -0.648265 -1.70598 0
M  V30 2616 C 237.547 -3.61248 0.134975 0
M  V30 2617 O 237.268 -4.1427 1.42521 0
M  V30 2618 C 238.769 -4.41859 -0.357151 0
M  V30 2619 H 235.989 -0.663431 0.100503 0
M  V30 2620 H 238.533 -1.82479 0.923136 0
M  V30 2621 H 236.688 -3.83735 -0.531588 0
M  V30 2622 H 237.102 -5.0815 1.29939 0
M  V30 2623 H 238.576 -5.50847 -0.356641 0
M  V30 2624 H 239.053 -4.16536 -1.39264 0
M  V30 2625 H 239.659 -4.24392 0.27772 0
M  V30 2626 N 237.974 -0.419461 -1.51915 0
M  V30 2627 C 238.906 0.43646 -2.25006 0
M  V30 2628 C 239.919 1.00149 -1.28351 0
M  V30 2629 O 241.108 0.898674 -1.54227 0
M  V30 2630 C 238.208 1.6206 -2.9764 0
M  V30 2631 C 237.381 1.17763 -4.21249 0
M  V30 2632 C 236.44 2.22985 -4.76617 0
M  V30 2633 O 235.466 1.83151 -5.38929 0
M  V30 2634 N 236.668 3.55271 -4.59089 0
M  V30 2635 H 239.433 -0.18989 -2.99098 0
M  V30 2636 H 236.994 -0.247386 -1.59999 0
M  V30 2637 H 238.986 2.32038 -3.31573 0
M  V30 2638 H 237.556 2.15266 -2.2667 0
M  V30 2639 H 236.776 0.305582 -3.93014 0
M  V30 2640 H 238.064 0.858781 -5.015 0
M  V30 2641 H 237.462 3.90377 -4.09417 0
M  V30 2642 H 236.019 4.21195 -4.97432 0
M  V30 2643 N 239.452 1.56882 -0.150215 0
M  V30 2644 C 240.7 1.9584 0.499105 0
M  V30 2645 C 241.021 1.03623 1.65188 0
M  V30 2646 O 240.291 0.0984084 1.95653 0
M  V30 2647 H 238.871 0.723119 0.187373 0
M  V30 2648 H 241.533 1.9358 -0.226466 0
M  V30 2649 H 240.629 2.99638 0.873122 0
M  V30 2650 N 240.93 -0.123565 1.57115 0
M  V30 2651 C 241.862 -1.17739 1.96648 0
M  V30 2652 C 242.875 -1.37906 0.865201 0
M  V30 2653 O 244.064 -1.37062 1.14351 0
M  V30 2654 C 241.164 -2.53821 2.24562 0
M  V30 2655 C 240.337 -2.54317 3.55867 0
M  V30 2656 C 239.396 -3.72112 3.72047 0
M  V30 2657 O 238.422 -3.55907 4.44206 0
M  V30 2658 N 239.624 -4.90498 3.10471 0
M  V30 2659 H 242.389 -0.841147 2.87654 0
M  V30 2660 H 239.95 -0.31289 1.58848 0
M  V30 2661 H 241.942 -3.31175 2.32606 0
M  V30 2662 H 240.512 -2.79645 1.39705 0
M  V30 2663 H 239.732 -1.62711 3.59053 0
M  V30 2664 H 241.02 -2.51701 4.42181 0
M  V30 2665 H 240.418 -5.06567 2.51806 0
M  V30 2666 H 238.975 -5.65544 3.24043 0
M  V30 2667 N 242.408 -1.52605 -0.393616 0
M  V30 2668 C 243.819 -1.59417 -0.971761 0
M  V30 2669 C 244.17 -0.444173 -1.91106 0
M  V30 2670 O 243.295 0.433382 -2.12016 0
M  V30 2671 C 243.89 -2.88936 -1.76921 0
M  V30 2672 C 242.449 -2.98175 -2.29714 0
M  V30 2673 C 241.596 -2.54491 -1.10135 0
M  V30 2674 H 244.547 -1.57751 -0.173317 0
M  V30 2675 H 244.568 -2.75163 -2.62804 0
M  V30 2676 H 244.08 -3.72616 -1.08532 0
M  V30 2677 H 242.181 -2.19024 -3.01429 0
M  V30 2678 H 242.294 -4.02726 -2.59517 0
M  V30 2679 H 240.658 -2.08702 -1.45999 0
M  V30 2680 H 241.441 -3.4056 -0.432874 0
M  V30 2681 N 243.887 0.651787 -1.4349 0
M  V30 2682 C 245.134 1.41167 -1.45183 0
M  V30 2683 C 245.462 1.94349 -0.0766601 0
M  V30 2684 O 244.717 1.72804 0.918555 0
M  V30 2685 C 245.016 2.60914 -2.44251 0
M  V30 2686 C 244.682 2.26142 -3.9009 0
M  V30 2687 C 243.344 2.16371 -4.2981 0
M  V30 2688 C 245.696 1.98334 -4.81989 0
M  V30 2689 C 243.024 1.7695 -5.5938 0
M  V30 2690 C 245.376 1.6041 -6.11924 0
M  V30 2691 C 244.04 1.49166 -6.5062 0
M  V30 2692 H 243.31 0.516566 -0.531263 0
M  V30 2693 H 245.957 0.741099 -1.76579 0
M  V30 2694 H 244.262 3.3311 -2.06265 0
M  V30 2695 H 245.959 3.19127 -2.42815 0
M  V30 2696 H 242.549 2.34658 -3.58655 0
M  V30 2697 H 246.733 2.04803 -4.52072 0
M  V30 2698 H 241.989 1.66831 -5.88198 0
M  V30 2699 H 246.163 1.37925 -6.82605 0
M  V30 2700 H 243.79 1.1839 -7.50925 0
M  V30 2701 N 245.365 1.30045 0.890287 0
M  V30 2702 C 246.642 1.09227 1.62262 0
M  V30 2703 C 247.022 -0.360305 2.08002 0
M  V30 2704 O 246.37 -1.35084 1.84295 0
M  V30 2705 C 246.58 2.08835 2.79623 0
M  V30 2706 C 247.928 2.40266 3.50082 0
M  V30 2707 O 248.952 2.07104 2.89804 0
M  V30 2708 O 247.811 2.96967 4.58773 0
M  V30 2709 H 244.905 0.419132 0.712922 0
M  V30 2710 H 247.451 1.41451 0.937529 0
M  V30 2711 H 246.223 3.06633 2.43089 0
M  V30 2712 H 245.846 1.77397 3.55832 0
M  V30 2713 N 246.843 -1.10192 1.12674 0
M  V30 2714 C 248.254 -1.63707 0.897604 0
M  V30 2715 C 248.605 -1.87812 -0.567546 0
M  V30 2716 O 247.73 -1.62196 -1.43253 0
M  V30 2717 C 248.325 -2.974 1.62292 0
M  V30 2718 C 246.884 -3.47772 1.43986 0
M  V30 2719 C 246.031 -2.22332 1.65722 0
M  V30 2720 H 248.982 -0.936587 1.28116 0
M  V30 2721 H 249.003 -3.64986 1.07541 0
M  V30 2722 H 248.515 -2.79824 2.68924 0
M  V30 2723 H 246.616 -3.70487 0.396206 0
M  V30 2724 H 246.729 -4.25723 2.19765 0
M  V30 2725 H 245.093 -2.30599 1.08149 0
M  V30 2726 H 245.876 -2.07285 2.73657 0
M  V30 2727 N 248.321 -0.919034 -1.28029 0
M  V30 2728 C 249.549 -0.570971 -1.98866 0
M  V30 2729 C 249.964 0.848996 -1.68634 0
M  V30 2730 O 249.321 1.56307 -0.942036 0
M  V30 2731 C 249.372 -0.776876 -3.53054 0
M  V30 2732 O 249.093 -2.14097 -3.82222 0
M  V30 2733 C 250.594 -0.436356 -4.41147 0
M  V30 2734 H 247.814 -0.217175 -0.634883 0
M  V30 2735 H 250.358 -1.23368 -1.63097 0
M  V30 2736 H 248.513 -0.161085 -3.87065 0
M  V30 2737 H 248.927 -2.18455 -4.76841 0
M  V30 2738 H 250.401 -0.63117 -5.4838 0
M  V30 2739 H 250.878 0.627686 -4.34692 0
M  V30 2740 H 251.484 -1.02991 -4.12641 0
M  V30 2741 N 249.799 1.42003 -0.683588 0
M  V30 2742 C 251.046 2.01413 -0.209514 0
M  V30 2743 C 251.374 1.54088 1.1869 0
M  V30 2744 O 250.629 0.737591 1.81268 0
M  V30 2745 C 250.928 3.56827 -0.202357 0
M  V30 2746 C 250.594 4.23617 -1.54464 0
M  V30 2747 C 249.256 4.41577 -1.91215 0
M  V30 2748 C 251.608 4.61178 -2.42826 0
M  V30 2749 C 248.936 4.9437 -3.15935 0
M  V30 2750 C 251.288 5.15355 -3.66867 0
M  V30 2751 C 249.952 5.31528 -4.03776 0
M  V30 2752 H 249.222 0.737023 -0.0766668 0
M  V30 2753 H 251.869 1.70067 -0.880312 0
M  V30 2754 H 250.174 3.87892 0.551969 0
M  V30 2755 H 251.871 4.00588 0.181793 0
M  V30 2756 H 248.461 4.10004 -1.24877 0
M  V30 2757 H 252.645 4.46968 -2.15717 0
M  V30 2758 H 247.901 5.05076 -3.44541 0
M  V30 2759 H 252.075 5.43402 -4.35531 0
M  V30 2760 H 249.702 5.72199 -5.00492 0
M  V30 2761 N 251.277 0.427512 1.51691 0
M  V30 2762 C 252.207 -0.3796 2.30394 0
M  V30 2763 C 253.188 -1.02982 1.35384 0
M  V30 2764 O 254.373 -1.03534 1.643 0
M  V30 2765 C 251.503 -1.48649 3.1388 0
M  V30 2766 C 250.457 -0.960294 4.17088 0
M  V30 2767 C 249.783 -2.16219 4.89033 0
M  V30 2768 C 251.083 -0.00153679 5.223 0
M  V30 2769 H 252.777 0.277164 2.98114 0
M  V30 2770 H 250.323 0.134739 1.43368 0
M  V30 2771 H 252.276 -2.05826 3.67714 0
M  V30 2772 H 251 -2.1714 2.43962 0
M  V30 2773 H 249.659 -0.410806 3.64291 0
M  V30 2774 H 249.307 -2.83307 4.15628 0
M  V30 2775 H 249.007 -1.81654 5.58816 0
M  V30 2776 H 250.531 -2.73968 5.45687 0
M  V30 2777 H 251.945 -0.482687 5.71264 0
M  V30 2778 H 250.342 0.256199 5.99553 0
M  V30 2779 H 251.412 0.938174 4.75738 0
M  V30 2780 N 252.755 -1.56801 0.158532 0
M  V30 2781 C 254.004 -1.95665 -0.489702 0
M  V30 2782 C 254.317 -1.04654 -1.65248 0
M  V30 2783 O 255.523 -1.33146 -2.3661 0
M  V30 2784 C 253.979 -3.47874 -0.922582 0
M  V30 2785 C 253.587 -4.47489 0.213893 0
M  V30 2786 C 255.331 -3.95583 -1.53996 0
M  V30 2787 C 253.238 -5.90921 -0.237903 0
M  V30 2788 H 252.168 -0.730516 -0.186716 0
M  V30 2789 H 254.819 -1.81861 0.244722 0
M  V30 2790 H 253.201 -3.57051 -1.71261 0
M  V30 2791 H 254.375 -4.50017 0.991036 0
M  V30 2792 H 252.69 -4.09764 0.740407 0
M  V30 2793 H 255.287 -5.0019 -1.8898 0
M  V30 2794 H 255.63 -3.37789 -2.43319 0
M  V30 2795 H 256.163 -3.8937 -0.814611 0
M  V30 2796 H 252.902 -6.52559 0.620236 0
M  V30 2797 H 252.422 -5.91729 -0.980676 0
M  V30 2798 H 254.101 -6.43352 -0.686067 0
M  V30 2799 N 254.233 0.115231 -1.57178 0
M  V30 2800 C 255.481 0.820727 -1.84685 0
M  V30 2801 C 255.802 1.80237 -0.744279 0
M  V30 2802 O 255.072 1.94529 0.231375 0
M  V30 2803 H 253.652 0.306084 -0.681411 0
M  V30 2804 H 256.314 0.101656 -1.94635 0
M  V30 2805 H 255.41 1.36366 -2.80733 0
M  V30 2806 N 255.711 1.52812 0.385517 0
M  V30 2807 C 256.951 1.69716 1.13911 0
M  V30 2808 C 257.315 0.42962 1.87132 0
M  V30 2809 O 258.516 0.475071 2.64569 0
M  V30 2810 C 256.787 2.90021 2.0886 0
M  V30 2811 S 258.346 3.27531 2.92009 0
M  V30 2812 H 255.164 0.59739 0.385547 0
M  V30 2813 H 257.766 1.90868 0.423061 0
M  V30 2814 H 256.47 3.80493 1.53797 0
M  V30 2815 H 256.001 2.71213 2.84969 0
M  V30 2816 H 258.016 2.77989 4.11019 0
M  V30 2817 N 257.189 -0.644168 1.43834 0
M  V30 2818 C 258.152 -1.73857 1.49353 0
M  V30 2819 C 259.152 -1.56315 0.377112 0
M  V30 2820 O 260.342 -1.62048 0.639226 0
M  V30 2821 C 257.474 -3.12819 1.35488 0
M  V30 2822 H 258.667 -1.70342 2.46827 0
M  V30 2823 H 256.22 -0.856652 1.30733 0
M  V30 2824 H 256.955 -3.2194 0.390569 0
M  V30 2825 H 256.74 -3.26958 2.16428 0
M  V30 2826 H 258.23 -3.92606 1.42302 0
M  V30 2827 N 258.668 -1.30515 -0.883378 0
M  V30 2828 C 260.079 -1.17509 -1.45081 0
M  V30 2829 C 260.43 0.223605 -1.94922 0
M  V30 2830 O 259.555 1.12041 -1.85137 0
M  V30 2831 C 260.15 -2.12715 -2.63701 0
M  V30 2832 C 258.709 -2.03682 -3.16529 0
M  V30 2833 C 257.856 -2.02706 -1.89224 0
M  V30 2834 H 260.807 -1.42762 -0.693165 0
M  V30 2835 H 260.828 -1.70891 -3.39965 0
M  V30 2836 H 260.34 -3.14505 -2.27395 0
M  V30 2837 H 258.441 -1.05039 -3.57488 0
M  V30 2838 H 258.554 -2.92146 -3.7972 0
M  V30 2839 H 256.918 -1.4753 -2.07622 0
M  V30 2840 H 257.701 -3.06229 -1.55174 0
M  V30 2841 N 260.146 1.09593 -1.13257 0
M  V30 2842 C 261.386 1.83349 -0.903472 0
M  V30 2843 C 261.75 1.83641 0.560351 0
M  V30 2844 O 262.951 2.53037 0.906947 0
M  V30 2845 C 261.222 3.25629 -1.47311 0
M  V30 2846 S 262.781 4.16408 -1.38382 0
M  V30 2847 H 259.599 0.632014 -0.325699 0
M  V30 2848 H 262.201 1.31817 -1.44376 0
M  V30 2849 H 260.905 3.22991 -2.53189 0
M  V30 2850 H 260.436 3.82233 -0.930689 0
M  V30 2851 H 262.451 4.94884 -0.361113 0
M  V30 2852 N 261.624 0.925811 1.2754 0
M  V30 2853 C 262.572 0.413897 2.28888 0
M  V30 2854 C 263.566 -0.500779 1.61829 0
M  V30 2855 O 264.772 -0.38069 1.75928 0
M  V30 2856 H 261.147 0.115274 0.743112 0
M  V30 2857 H 263.118 1.28151 2.69481 0
M  V30 2858 C 261.867 -0.319792 3.46226 0
M  V30 2859 H 261.19 0.374846 3.98039 0
M  V30 2860 H 262.63 -0.642435 4.19105 0
M  V30 2861 C 261.089 -1.53209 3.00048 0
M  V30 2862 O 261.619 -2.6309 3.03557 0
M  V30 2863 N 259.825 -1.38326 2.55566 0
M  V30 2864 H 259.372 -0.489292 2.5291 0
M  V30 2865 H 259.33 -2.19564 2.25031 0
M  V30 2866 N 263.102 -1.41638 0.69111 0
M  V30 2867 C 264.348 -2.01598 0.220519 0
M  V30 2868 C 264.681 -1.54594 -1.17535 0
M  V30 2869 O 263.956 -0.755177 -1.79241 0
M  V30 2870 C 264.239 -3.59062 0.273243 0
M  V30 2871 C 264.092 -4.16203 1.70573 0
M  V30 2872 C 265.411 -4.38546 -0.369457 0
M  V30 2873 H 262.53 -0.732468 0.0816045 0
M  V30 2874 H 265.172 -1.68445 0.878986 0
M  V30 2875 H 263.322 -3.87435 -0.287411 0
M  V30 2876 H 264.994 -3.98722 2.31989 0
M  V30 2877 H 263.237 -3.71414 2.2413 0
M  V30 2878 H 263.908 -5.25358 1.69419 0
M  V30 2879 H 266.384 -4.1596 0.107977 0
M  V30 2880 H 265.26 -5.48069 -0.302002 0
M  V30 2881 H 265.521 -4.17662 -1.44951 0
M  V30 2882 N 264.58 -0.43555 -1.51462 0
M  V30 2883 C 265.829 0.133007 -2.01261 0
M  V30 2884 C 266.142 1.43942 -1.32439 0
M  V30 2885 O 267.348 2.09081 -1.73198 0
M  V30 2886 C 265.804 0.287581 -3.58749 0
M  V30 2887 C 265.412 -1.00829 -4.36506 0
M  V30 2888 C 267.156 0.810004 -4.167 0
M  V30 2889 C 265.063 -0.819454 -5.85695 0
M  V30 2890 H 263.993 0.0534822 -0.752101 0
M  V30 2891 H 266.644 -0.565038 -1.74584 0
M  V30 2892 H 265.026 1.04859 -3.81865 0
M  V30 2893 H 266.2 -1.77749 -4.25138 0
M  V30 2894 H 264.515 -1.45911 -3.89999 0
M  V30 2895 H 267.112 0.967743 -5.2587 0
M  V30 2896 H 267.455 1.79196 -3.75758 0
M  V30 2897 H 267.988 0.107357 -3.97655 0
M  V30 2898 H 264.727 -1.77374 -6.31046 0
M  V30 2899 H 264.247 -0.0900208 -5.99732 0
M  V30 2900 H 265.926 -0.471949 -6.45276 0
M  V30 2901 N 266.058 1.56714 -0.166846 0
M  V30 2902 C 267.021 2.16539 0.751232 0
M  V30 2903 C 268.021 1.11228 1.16125 0
M  V30 2904 O 269.211 1.36765 1.07894 0
M  V30 2905 C 266.343 2.74462 2.02196 0
M  V30 2906 H 267.536 2.99013 0.230499 0
M  V30 2907 H 265.089 1.56081 0.0826982 0
M  V30 2908 H 265.824 1.95709 2.58589 0
M  V30 2909 H 265.609 3.51527 1.73698 0
M  V30 2910 H 267.099 3.20489 2.67725 0
M  V30 2911 N 267.536 -0.106894 1.57237 0
M  V30 2912 C 268.813 -0.843526 1.76477 0
M  V30 2913 C 269.193 -1.97499 0.745464 0
M  V30 2914 O 268.541 -2.27357 -0.228306 0
M  V30 2915 C 268.751 -1.34903 3.21873 0
M  V30 2916 C 270.099 -1.79654 3.8472 0
M  V30 2917 O 271.123 -1.44554 3.2555 0
M  V30 2918 O 269.982 -2.44515 4.88748 0
M  V30 2919 H 267.076 -0.401468 0.723016 0
M  V30 2920 H 269.622 -0.0896927 1.69463 0
M  V30 2921 H 268.394 -0.53781 3.87586 0
M  V30 2922 H 268.017 -2.16522 3.33473 0
M  V30 2923 N 269.014 -1.53014 -0.377408 0
M  V30 2924 C 270.263 -1.67845 -1.11853 0
M  V30 2925 C 270.576 -0.430625 -1.90801 0
M  V30 2926 O 271.782 -0.459261 -2.67587 0
M  V30 2927 C 270.238 -2.96668 -2.03756 0
M  V30 2928 C 269.846 -4.28671 -1.30175 0
M  V30 2929 C 271.59 -3.20865 -2.77932 0
M  V30 2930 C 269.497 -5.48591 -2.20911 0
M  V30 2931 H 268.427 -0.625343 -0.421263 0
M  V30 2932 H 271.078 -1.79514 -0.380409 0
M  V30 2933 H 269.46 -2.78773 -2.8125 0
M  V30 2934 H 270.634 -4.57157 -0.578259 0
M  V30 2935 H 268.949 -4.10825 -0.679108 0
M  V30 2936 H 271.546 -4.07642 -3.46024 0
M  V30 2937 H 271.889 -2.36424 -3.4265 0
M  V30 2938 H 272.422 -3.39379 -2.07525 0
M  V30 2939 H 269.161 -6.35474 -1.6079 0
M  V30 2940 H 268.681 -5.244 -2.91144 0
M  V30 2941 H 270.36 -5.8292 -2.80736 0
M  V30 2942 N 270.492 0.636531 -1.44174 0
M  V30 2943 C 271.422 1.76003 -1.53444 0
M  V30 2944 C 272.403 1.65619 -0.387841 0
M  V30 2945 O 273.588 1.84461 -0.607257 0
M  V30 2946 C 270.718 3.14511 -1.4731 0
M  V30 2947 C 269.672 3.39677 -2.60391 0
M  V30 2948 C 268.998 4.78159 -2.39308 0
M  V30 2949 C 270.298 3.32772 -4.02567 0
M  V30 2950 H 271.992 1.68501 -2.47483 0
M  V30 2951 H 269.538 0.809237 -1.19111 0
M  V30 2952 H 271.491 3.92878 -1.52397 0
M  V30 2953 H 270.215 3.22783 -0.49785 0
M  V30 2954 H 268.874 2.63688 -2.54684 0
M  V30 2955 H 268.522 4.83128 -1.39988 0
M  V30 2956 H 268.222 4.95956 -3.15122 0
M  V30 2957 H 269.746 5.58762 -2.46205 0
M  V30 2958 H 271.16 4.01051 -4.09672 0
M  V30 2959 H 269.557 3.62104 -4.7854 0
M  V30 2960 H 270.627 2.30669 -4.2652 0
M  V30 2961 N 271.97 1.30982 0.876444 0
M  V30 2962 C 273.217 1.20296 1.62896 0
M  V30 2963 C 273.545 -0.240395 1.93009 0
M  V30 2964 O 272.8 -1.18733 1.55567 0
M  V30 2965 C 273.099 1.98572 2.9716 0
M  V30 2966 C 272.765 3.48125 2.86566 0
M  V30 2967 C 271.427 3.88905 2.83383 0
M  V30 2968 C 273.779 4.43322 2.74071 0
M  V30 2969 C 271.107 5.2316 2.65556 0
M  V30 2970 C 273.459 5.77695 2.57781 0
M  V30 2971 C 272.123 6.17704 2.52979 0
M  V30 2972 H 271.393 0.440193 0.59608 0
M  V30 2973 H 274.04 1.62177 1.01837 0
M  V30 2974 H 272.345 1.49352 3.62217 0
M  V30 2975 H 274.042 1.8769 3.54364 0
M  V30 2976 H 270.632 3.15723 2.89856 0
M  V30 2977 H 274.816 4.12752 2.75589 0
M  V30 2978 H 270.072 5.53241 2.60259 0
M  V30 2979 H 274.246 6.51091 2.47089 0
M  V30 2980 H 271.873 7.21678 2.38924 0
M  V30 2981 N 273.449 -1.08991 1.13837 0
M  V30 2982 C 274.865 -1.33312 0.877506 0
M  V30 2983 C 275.065 -1.95587 -0.48456 0
M  V30 2984 O 274.121 -2.20509 -1.23013 0
M  V30 2985 C 275.434 -2.24045 2.0056 0
M  V30 2986 C 276.982 -2.37542 2.03821 0
M  V30 2987 C 277.457 -3.31614 3.15905 0
M  V30 2988 N 278.948 -3.39189 3.15445 0
M  V30 2989 C 279.683 -4.11992 3.98811 0
M  V30 2990 N 279.179 -4.87553 4.92203 0
M  V30 2991 N 280.972 -4.07762 3.86894 0
M  V30 2992 H 273.123 -0.669456 2.01574 0
M  V30 2993 H 275.386 -0.357482 0.878015 0
M  V30 2994 H 275.092 -1.85521 2.98789 0
M  V30 2995 H 274.966 -3.24466 1.92359 0
M  V30 2996 H 277.353 -2.75327 1.06202 0
M  V30 2997 H 277.434 -1.36884 2.16093 0
M  V30 2998 H 277.078 -2.94551 4.13766 0
M  V30 2999 H 277.008 -4.32186 3.0087 0
M  V30 3000 H 279.499 -2.85314 2.47799 0
M  V30 3001 H 279.812 -5.40549 5.52292 0
M  V30 3002 H 278.157 -4.86627 4.96205 0
M  V30 3003 H 281.348 -3.47833 3.13257 0
M  V30 3004 H 281.521 -4.64238 4.52092 0
M  V30 3005 N 274.927 -0.932562 -1.27047 0
M  V30 3006 C 275.874 -0.434072 -2.26681 0
M  V30 3007 C 276.844 0.501639 -1.58344 0
M  V30 3008 O 278.029 0.419734 -1.86126 0
M  V30 3009 C 275.169 0.30261 -3.43771 0
M  V30 3010 C 274.282 -0.667774 -4.26808 0
M  V30 3011 C 273.417 0.0892393 -5.31125 0
M  V30 3012 C 272.456 -0.873532 -6.05835 0
M  V30 3013 N 271.593 -0.148832 -7.01942 0
M  V30 3014 H 276.433 -1.28868 -2.68695 0
M  V30 3015 H 273.97 -0.646713 -1.32121 0
M  V30 3016 H 275.928 0.746092 -4.10474 0
M  V30 3017 H 274.558 1.12142 -3.02695 0
M  V30 3018 H 273.61 -1.22978 -3.59973 0
M  V30 3019 H 274.922 -1.40337 -4.78651 0
M  V30 3020 H 274.076 0.592409 -6.03801 0
M  V30 3021 H 272.815 0.85777 -4.80097 0
M  V30 3022 H 271.82 -1.38791 -5.31994 0
M  V30 3023 H 273.045 -1.64193 -6.58952 0
M  V30 3024 H 270.991 0.601365 -6.53238 0
M  V30 3025 H 270.908 -0.82391 -7.51497 0
M  V30 3026 H 272.176 0.333527 -7.78786 0
M  V30 3027 N 276.405 1.4127 -0.698611 0
M  V30 3028 C 277.355 2.27997 -0.0119836 0
M  V30 3029 C 278.339 1.42363 0.749765 0
M  V30 3030 O 279.531 1.65607 0.624758 0
M  V30 3031 C 276.66 3.30702 0.921458 0
M  V30 3032 C 275.746 4.23814 0.155796 0
M  V30 3033 N 276.137 4.98572 -0.852015 0
M  V30 3034 C 274.435 4.44284 0.390836 0
M  V30 3035 C 275.136 5.66744 -1.3106 0
M  V30 3036 N 274.112 5.39867 -0.635944 0
M  V30 3037 H 277.914 2.83232 -0.784649 0
M  V30 3038 H 275.428 1.53518 -0.529711 0
M  V30 3039 H 277.425 3.91661 1.42854 0
M  V30 3040 H 276.085 2.77028 1.69369 0
M  V30 3041 H 277.096 5.03024 -1.23235 0
M  V30 3042 H 273.773 4.01614 1.14071 0
M  V30 3043 H 275.163 6.36672 -2.14707 0
M  V30 3044 N 277.883 0.443576 1.51229 0
M  V30 3045 C 279.13 -0.120796 2.02139 0
M  V30 3046 C 279.458 -1.42166 1.32736 0
M  V30 3047 O 278.713 -1.90849 0.43301 0
M  V30 3048 C 279.012 -0.380579 3.55368 0
M  V30 3049 C 278.678 0.83523 4.43097 0
M  V30 3050 C 277.34 1.16864 4.66794 0
M  V30 3051 C 279.692 1.64601 4.94526 0
M  V30 3052 C 277.02 2.31339 5.39165 0
M  V30 3053 C 279.372 2.78181 5.68153 0
M  V30 3054 C 278.036 3.11969 5.90112 0
M  V30 3055 H 277.306 -0.0442023 0.73968 0
M  V30 3056 H 279.953 0.592046 1.82118 0
M  V30 3057 H 278.258 -1.17538 3.73754 0
M  V30 3058 H 279.955 -0.830777 3.923 0
M  V30 3059 H 276.545 0.565437 4.24854 0
M  V30 3060 H 280.729 1.40163 4.76097 0
M  V30 3061 H 275.985 2.57823 5.5438 0
M  V30 3062 H 280.159 3.41371 6.06992 0
M  V30 3063 H 277.786 4.00784 6.45969 0
M  V30 3064 N 279.361 -1.56624 0.175154 0
M  V30 3065 C 280.638 -1.88688 -0.515373 0
M  V30 3066 C 281.018 -1.08564 -1.81044 0
M  V30 3067 O 280.366 -0.180703 -2.27784 0
M  V30 3068 C 280.576 -3.40768 -0.753552 0
M  V30 3069 C 281.924 -4.10587 -1.08184 0
M  V30 3070 O 282.948 -3.46106 -0.841961 0
M  V30 3071 O 281.807 -5.24512 -1.53459 0
M  V30 3072 H 278.901 -0.78301 -0.26613 0
M  V30 3073 H 281.447 -1.68347 0.213877 0
M  V30 3074 H 280.219 -3.90965 0.161829 0
M  V30 3075 H 279.842 -3.66733 -1.53598 0
M  V30 3076 N 280.839 0.0985539 -1.57292 0
M  V30 3077 C 282.069 0.815135 -1.8984 0
M  V30 3078 C 282.477 1.7297 -0.766679 0
M  V30 3079 O 281.82 1.81698 0.270483 0
M  V30 3080 C 281.882 1.6842 -3.17608 0
M  V30 3081 C 281.546 0.94182 -4.4719 0
M  V30 3082 C 282.543 0.273212 -5.19182 0
M  V30 3083 C 280.228 0.916927 -4.9386 0
M  V30 3084 C 282.222 -0.410361 -6.36078 0
M  V30 3085 C 279.909 0.229567 -6.10669 0
M  V30 3086 C 280.907 -0.432902 -6.81627 0
M  V30 3087 O 280.595 -1.10925 -7.9621 0
M  V30 3088 H 280.327 0.238501 -0.632529 0
M  V30 3089 H 282.881 0.0812659 -2.05239 0
M  V30 3090 H 281.111 2.46022 -2.98345 0
M  V30 3091 H 282.8 2.27704 -3.36015 0
M  V30 3092 H 283.566 0.283927 -4.84168 0
M  V30 3093 H 279.445 1.42201 -4.3852 0
M  V30 3094 H 282.989 -0.928013 -6.914 0
M  V30 3095 H 278.886 0.216686 -6.45136 0
M  V30 3096 H 279.654 -1.01579 -8.12172 0
M  V30 3097 N 282.317 1.53212 0.369288 0
M  V30 3098 C 283.265 1.80054 1.47253 0
M  V30 3099 C 284.259 0.669456 1.55611 0
M  V30 3100 O 285.465 0.852328 1.58541 0
M  V30 3101 H 281.84 0.570034 0.490475 0
M  V30 3102 H 283.811 2.72403 1.21817 0
M  V30 3103 C 282.56 2.00403 2.84137 0
M  V30 3104 H 281.883 2.86876 2.78464 0
M  V30 3105 H 283.323 2.23164 3.60519 0
M  V30 3106 C 281.782 0.782081 3.27697 0
M  V30 3107 O 282.312 -0.0310205 4.01688 0
M  V30 3108 N 280.518 0.606573 2.84199 0
M  V30 3109 H 280.065 1.26939 2.24152 0
M  V30 3110 H 280.023 -0.20962 3.137 0
M  V30 3111 N 283.795 -0.628877 1.44509 0
M  V30 3112 C 285.072 -1.38733 1.37886 0
M  V30 3113 C 285.452 -2.11065 0.0387008 0
M  V30 3114 O 284.8 -2.06476 -0.97878 0
M  V30 3115 C 285.01 -2.35188 2.57852 0
M  V30 3116 C 286.358 -2.9845 3.02014 0
M  V30 3117 O 287.382 -2.45513 2.58073 0
M  V30 3118 O 286.241 -3.94487 3.78209 0
M  V30 3119 H 283.335 -0.621015 0.54614 0
M  V30 3120 H 285.881 -0.653744 1.56602 0
M  V30 3121 H 284.653 -1.80855 3.46998 0
M  V30 3122 H 284.276 -3.1596 2.4136 0
M  V30 3123 N 285.273 -1.31445 -0.869486 0
M  V30 3124 C 286.183 -1.21097 -2.0093 0
M  V30 3125 C 287.199 -0.127584 -1.73532 0
M  V30 3126 O 288.375 -0.345477 -1.98415 0
M  V30 3127 C 285.44 -0.919378 -3.34288 0
M  V30 3128 C 284.501 -2.08971 -3.75006 0
M  V30 3129 C 283.734 -1.81194 -5.02001 0
M  V30 3130 O 283.957 -0.747296 -5.65484 0
M  V30 3131 O 282.891 -2.66883 -5.39497 0
M  V30 3132 H 286.717 -2.16883 -2.12592 0
M  V30 3133 H 284.302 -1.11189 -0.997868 0
M  V30 3134 H 286.184 -0.772625 -4.14257 0
M  V30 3135 H 284.859 0.00844772 -3.23699 0
M  V30 3136 H 283.766 -2.29187 -2.95676 0
M  V30 3137 H 285.099 -2.9998 -3.90221 0
M  V30 3138 N 286.751 1.08385 -1.14413 0
M  V30 3139 C 287.698 2.15311 -0.831265 0
M  V30 3140 C 288.668 1.64751 0.211292 0
M  V30 3141 O 289.853 1.90627 0.0811674 0
M  V30 3142 C 286.993 3.43658 -0.315143 0
M  V30 3143 C 286.106 4.08064 -1.41802 0
M  V30 3144 C 285.241 5.24207 -0.859126 0
M  V30 3145 C 284.28 5.80554 -1.93967 0
M  V30 3146 N 283.417 6.88042 -1.39793 0
M  V30 3147 H 288.257 2.41415 -1.74708 0
M  V30 3148 H 285.794 1.18474 -0.871909 0
M  V30 3149 H 287.752 4.172 0.00230884 0
M  V30 3150 H 286.382 3.17839 0.56378 0
M  V30 3151 H 285.434 3.3228 -1.85187 0
M  V30 3152 H 286.746 4.45962 -2.23427 0
M  V30 3153 H 285.9 6.04689 -0.49359 0
M  V30 3154 H 284.639 4.87699 -0.011932 0
M  V30 3155 H 283.644 4.98725 -2.31415 0
M  V30 3156 H 284.869 6.19121 -2.79046 0
M  V30 3157 H 282.815 6.53493 -0.572919 0
M  V30 3158 H 282.732 7.24767 -2.15054 0
M  V30 3159 H 284 7.72255 -1.0603 0
M  V30 3160 N 288.23 0.939286 1.26551 0
M  V30 3161 C 289.477 0.585847 1.9384 0
M  V30 3162 C 289.805 -0.874784 1.73718 0
M  V30 3163 O 289.06 -1.64092 1.06642 0
M  V30 3164 C 289.359 0.872106 3.46596 0
M  V30 3165 C 289.025 2.31632 3.86856 0
M  V30 3166 C 287.687 2.71111 3.97558 0
M  V30 3167 C 290.039 3.25494 4.07066 0
M  V30 3168 C 287.367 4.03553 4.25866 0
M  V30 3169 C 289.719 4.57531 4.36862 0
M  V30 3170 C 288.383 4.96828 4.45778 0
M  V30 3171 H 287.653 0.214377 0.709312 0
M  V30 3172 H 290.3 1.18544 1.50398 0
M  V30 3173 H 288.605 0.18996 3.91339 0
M  V30 3174 H 290.302 0.577442 3.96821 0
M  V30 3175 H 286.892 2.00008 3.79071 0
M  V30 3176 H 291.076 2.9619 3.98227 0
M  V30 3177 H 286.332 4.33665 4.30981 0
M  V30 3178 H 290.506 5.30254 4.51446 0
M  V30 3179 H 288.133 5.99482 4.67468 0
M  V30 3180 N 289.708 -1.40897 0.706093 0
M  V30 3181 C 290.638 -2.33418 0.0620085 0
M  V30 3182 C 291.619 -1.52385 -0.755827 0
M  V30 3183 O 292.804 -1.80886 -0.706674 0
M  V30 3184 C 289.934 -3.36293 -0.867445 0
M  V30 3185 C 288.888 -4.27716 -0.155932 0
M  V30 3186 C 288.214 -5.2105 -1.20046 0
M  V30 3187 C 289.514 -5.12944 0.984149 0
M  V30 3188 H 291.208 -2.87527 0.83477 0
M  V30 3189 H 288.754 -1.38249 0.402875 0
M  V30 3190 H 290.707 -3.99949 -1.32735 0
M  V30 3191 H 289.431 -2.80556 -1.67199 0
M  V30 3192 H 288.09 -3.65498 0.284047 0
M  V30 3193 H 287.738 -4.61624 -1.99781 0
M  V30 3194 H 287.438 -5.83056 -0.729328 0
M  V30 3195 H 288.962 -5.87584 -1.66066 0
M  V30 3196 H 290.376 -5.70109 0.604048 0
M  V30 3197 H 288.773 -5.83945 1.38304 0
M  V30 3198 H 289.843 -4.49485 1.81911 0
M  V30 3199 N 291.186 -0.45159 -1.50991 0
M  V30 3200 C 292.602 -0.104647 -1.59257 0
M  V30 3201 C 292.802 1.38728 -1.4614 0
M  V30 3202 O 291.858 2.15866 -1.30989 0
M  V30 3203 C 293.171 -0.637468 -2.93865 0
M  V30 3204 C 294.719 -0.599166 -3.07212 0
M  V30 3205 C 295.194 -1.1092 -4.44366 0
M  V30 3206 N 296.685 -1.06778 -4.50725 0
M  V30 3207 C 297.42 -1.43314 -5.55201 0
M  V30 3208 N 296.916 -1.87204 -6.67028 0
M  V30 3209 N 298.709 -1.3504 -5.45638 0
M  V30 3210 H 290.86 -1.42214 -1.57762 0
M  V30 3211 H 293.123 -0.586921 -0.744465 0
M  V30 3212 H 292.829 -1.68187 -3.08879 0
M  V30 3213 H 292.703 -0.0702139 -3.77135 0
M  V30 3214 H 295.09 0.436277 -2.91857 0
M  V30 3215 H 295.171 -1.20299 -2.25747 0
M  V30 3216 H 294.815 -2.14318 -4.60467 0
M  V30 3217 H 294.745 -0.481773 -5.24392 0
M  V30 3218 H 297.236 -0.745643 -3.70471 0
M  V30 3219 H 297.549 -2.13282 -7.42786 0
M  V30 3220 H 295.894 -1.91142 -6.68199 0
M  V30 3221 H 299.085 -1.00607 -4.57161 0
M  V30 3222 H 299.258 -1.63841 -6.26945 0
M  V30 3223 N 292.664 1.56529 -0.183458 0
M  V30 3224 C 293.594 2.21549 0.737456 0
M  V30 3225 C 294.575 1.17489 1.23005 0
M  V30 3226 O 295.76 1.45959 1.281 0
M  V30 3227 C 292.89 2.86575 1.96194 0
M  V30 3228 C 291.844 3.96778 1.60473 0
M  V30 3229 C 291.17 4.48911 2.90487 0
M  V30 3230 C 292.47 5.15767 0.823497 0
M  V30 3231 H 294.164 2.98761 0.195453 0
M  V30 3232 H 291.71 1.43702 0.0925686 0
M  V30 3233 H 293.663 3.30739 2.61131 0
M  V30 3234 H 292.387 2.06749 2.52828 0
M  V30 3235 H 291.046 3.53286 0.978997 0
M  V30 3236 H 290.694 3.65862 3.45186 0
M  V30 3237 H 290.394 5.23265 2.67335 0
M  V30 3238 H 291.918 4.95771 3.56432 0
M  V30 3239 H 293.332 5.56549 1.37571 0
M  V30 3240 H 291.729 5.96114 0.690551 0
M  V30 3241 H 292.799 4.84574 -0.177782 0
M  V30 3242 N 294.142 -0.090211 1.57342 0
M  V30 3243 C 295.075 -1.14035 1.97664 0
M  V30 3244 C 296.053 -1.38576 0.850616 0
M  V30 3245 O 297.237 -1.52255 1.11134 0
M  V30 3246 C 294.364 -2.48854 2.2976 0
M  V30 3247 C 293.41 -2.40564 3.52181 0
M  V30 3248 S 294.243 -1.81745 5.03715 0
M  V30 3249 C 295.399 -3.18178 5.38993 0
M  V30 3250 H 295.632 -0.796636 2.86428 0
M  V30 3251 H 293.165 -0.298072 1.51496 0
M  V30 3252 H 295.123 -3.26413 2.48927 0
M  V30 3253 H 293.784 -2.80393 1.41558 0
M  V30 3254 H 292.977 -3.39942 3.72096 0
M  V30 3255 H 292.579 -1.71135 3.32549 0
M  V30 3256 H 294.871 -4.14461 5.35937 0
M  V30 3257 H 295.814 -3.03062 6.39968 0
M  V30 3258 H 296.222 -3.17935 4.66452 0
M  V30 3259 N 295.62 -1.53406 -0.361157 0
M  V30 3260 C 296.85 -1.73465 -1.1222 0
M  V30 3261 C 297.258 -0.465486 -1.83384 0
M  V30 3262 O 296.601 0.571611 -1.7458 0
M  V30 3263 C 296.663 -2.84834 -2.19339 0
M  V30 3264 C 296.327 -4.25038 -1.67903 0
M  V30 3265 C 297.324 -5.07231 -1.14074 0
M  V30 3266 C 295.009 -4.71464 -1.73282 0
M  V30 3267 C 297.003 -6.33942 -0.663068 0
M  V30 3268 C 294.69 -5.98153 -1.25127 0
M  V30 3269 C 295.688 -6.79223 -0.717296 0
M  V30 3270 O 295.376 -8.03533 -0.242865 0
M  V30 3271 H 295.108 -0.583526 -0.341283 0
M  V30 3272 H 297.662 -2.00964 -0.424591 0
M  V30 3273 H 295.892 -2.5282 -2.92607 0
M  V30 3274 H 297.581 -2.9303 -2.80871 0
M  V30 3275 H 298.347 -4.72534 -1.09254 0
M  V30 3276 H 294.226 -4.08432 -2.13786 0
M  V30 3277 H 297.77 -6.97167 -0.245612 0
M  V30 3278 H 293.667 -6.32347 -1.29642 0
M  V30 3279 H 294.435 -8.177 -0.361786 0
M  V30 3280 N 297.098 0.621204 -1.44841 0
M  V30 3281 C 298.028 1.74366 -1.55303 0
M  V30 3282 C 299.009 1.65199 -0.405385 0
M  V30 3283 O 300.194 1.83807 -0.626787 0
M  V30 3284 C 297.324 3.12931 -1.50637 0
M  V30 3285 C 296.278 3.36896 -2.63979 0
M  V30 3286 C 295.604 4.75594 -2.44366 0
M  V30 3287 C 296.904 3.28483 -4.06074 0
M  V30 3288 H 298.598 1.65867 -2.49256 0
M  V30 3289 H 296.144 0.796558 -1.19962 0
M  V30 3290 H 298.097 3.9124 -1.56555 0
M  V30 3291 H 296.821 3.22237 -0.532057 0
M  V30 3292 H 295.48 2.60972 -2.57467 0
M  V30 3293 H 295.128 4.81616 -1.45105 0
M  V30 3294 H 294.828 4.92586 -3.20364 0
M  V30 3295 H 296.352 5.5612 -2.52117 0
M  V30 3296 H 297.766 3.96684 -4.13902 0
M  V30 3297 H 296.163 3.57008 -4.82354 0
M  V30 3298 H 297.233 2.26133 -4.28943 0
M  V30 3299 N 298.576 1.31904 0.862503 0
M  V30 3300 C 299.823 1.22017 1.61611 0
M  V30 3301 C 300.151 -0.21991 1.93253 0
M  V30 3302 O 299.406 -1.17076 1.56817 0
M  V30 3303 C 299.705 2.01713 2.95037 0
M  V30 3304 C 299.371 3.51145 2.82857 0
M  V30 3305 C 298.033 3.91889 2.79243 0
M  V30 3306 C 300.385 4.46204 2.69353 0
M  V30 3307 C 297.713 5.25947 2.59993 0
M  V30 3308 C 300.065 5.80397 2.5164 0
M  V30 3309 C 298.729 6.20352 2.46413 0
M  V30 3310 H 297.999 0.44649 0.591378 0
M  V30 3311 H 300.646 1.63248 1.00111 0
M  V30 3312 H 298.951 1.53185 3.60613 0
M  V30 3313 H 300.648 1.91437 3.52353 0
M  V30 3314 H 297.238 3.1878 2.86491 0
M  V30 3315 H 301.422 4.15652 2.71196 0
M  V30 3316 H 296.678 5.5597 2.54376 0
M  V30 3317 H 300.852 6.53676 2.40169 0
M  V30 3318 H 298.479 7.24172 2.31256 0
M  V30 3319 N 300.054 -1.07777 1.14986 0
M  V30 3320 C 301.002 -2.16964 0.838406 0
M  V30 3321 C 301.996 -1.68372 -0.186386 0
M  V30 3322 O 303.202 -1.79951 -0.0418465 0
M  V30 3323 H 299.577 -0.708006 0.253439 0
M  V30 3324 H 301.548 -2.40454 1.76704 0
M  V30 3325 C 300.297 -3.4604 0.339335 0
M  V30 3326 H 299.62 -3.83813 1.11927 0
M  V30 3327 H 301.06 -4.23698 0.160021 0
M  V30 3328 C 299.519 -3.23569 -0.938325 0
M  V30 3329 O 300.049 -3.47752 -2.01077 0
M  V30 3330 N 298.255 -2.77079 -0.876117 0
M  V30 3331 H 297.802 -2.576 -0.00322037 0
M  V30 3332 H 297.76 -2.62422 -1.73153 0
M  V30 3333 N 301.532 -0.945985 -1.26051 0
M  V30 3334 C 302.442 -0.465633 -2.29933 0
M  V30 3335 C 303.458 0.462761 -1.67733 0
M  V30 3336 O 304.634 0.341118 -1.9849 0
M  V30 3337 C 301.699 0.256994 -3.45746 0
M  V30 3338 C 300.76 -0.708549 -4.23412 0
M  V30 3339 C 299.993 -0.0203135 -5.33696 0
M  V30 3340 O 300.216 1.19571 -5.57726 0
M  V30 3341 O 299.15 -0.701459 -5.97799 0
M  V30 3342 H 302.976 -1.32866 -2.73094 0
M  V30 3343 H 300.561 -0.712071 -1.31339 0
M  V30 3344 H 302.443 0.663852 -4.16138 0
M  V30 3345 H 301.118 1.09533 -3.04605 0
M  V30 3346 H 300.025 -1.16545 -3.55483 0
M  V30 3347 H 301.358 -1.51465 -4.68315 0
M  V30 3348 N 303.011 1.40521 -0.713556 0
M  V30 3349 C 303.959 2.32549 -0.0485227 0
M  V30 3350 C 304.953 1.51931 0.74922 0
M  V30 3351 O 306.159 1.67745 0.652816 0
M  V30 3352 H 302.534 0.751994 0.00311138 0
M  V30 3353 H 304.505 2.86291 -0.841443 0
M  V30 3354 C 303.254 3.36879 0.860687 0
M  V30 3355 H 302.577 3.98978 0.256246 0
M  V30 3356 H 304.017 4.03772 1.294 0
M  V30 3357 C 302.476 2.72197 1.9852 0
M  V30 3358 O 303.006 2.5837 3.07584 0
M  V30 3359 N 301.212 2.30612 1.76823 0
M  V30 3360 H 300.759 2.42059 0.881217 0
M  V30 3361 H 300.717 1.87672 2.52243 0
M  V30 3362 N 304.489 0.459591 1.5075 0
M  V30 3363 C 305.736 -0.0993495 2.02256 0
M  V30 3364 C 306.064 -1.40751 1.34237 0
M  V30 3365 O 305.319 -1.90379 0.453228 0
M  V30 3366 C 305.618 -0.342866 3.55752 0
M  V30 3367 C 305.284 0.88218 4.42186 0
M  V30 3368 C 303.946 1.21808 4.65528 0
M  V30 3369 C 306.298 1.69837 4.92752 0
M  V30 3370 C 303.626 2.37045 5.36681 0
M  V30 3371 C 305.978 2.84192 5.65171 0
M  V30 3372 C 304.642 3.1821 5.8677 0
M  V30 3373 H 303.912 -0.0363545 0.740108 0
M  V30 3374 H 306.559 0.611329 1.8148 0
M  V30 3375 H 304.864 -1.13567 3.7498 0
M  V30 3376 H 306.561 -0.789121 3.93159 0
M  V30 3377 H 303.151 0.610467 4.2423 0
M  V30 3378 H 307.335 1.45205 4.74583 0
M  V30 3379 H 302.591 2.63689 5.51614 0
M  V30 3380 H 306.765 3.4779 6.03337 0
M  V30 3381 H 304.392 4.07613 6.41682 0
M  V30 3382 N 305.967 -1.56429 0.191757 0
M  V30 3383 C 306.917 -2.15548 -0.743184 0
M  V30 3384 C 307.901 -1.09531 -1.17863 0
M  V30 3385 O 309.093 -1.35602 -1.13759 0
M  V30 3386 C 306.222 -2.81577 -1.96391 0
M  V30 3387 C 305.308 -3.9478 -1.54951 0
M  V30 3388 N 305.699 -4.98677 -0.845876 0
M  V30 3389 C 303.997 -4.06319 -1.83905 0
M  V30 3390 C 304.698 -5.78183 -0.638724 0
M  V30 3391 N 303.674 -5.30495 -1.18643 0
M  V30 3392 H 307.476 -2.9324 -0.196839 0
M  V30 3393 H 304.99 -1.62398 -0.0081603 0
M  V30 3394 H 306.987 -3.22321 -2.64415 0
M  V30 3395 H 305.647 -2.05371 -2.51501 0
M  V30 3396 H 306.658 -5.15464 -0.501704 0
M  V30 3397 H 303.335 -3.41238 -2.40548 0
M  V30 3398 H 304.725 -6.71851 -0.0807929 0
M  V30 3399 N 307.445 0.0818655 -1.57387 0
M  V30 3400 C 308.375 1.09885 -2.06028 0
M  V30 3401 C 309.356 1.4098 -0.951774 0
M  V30 3402 O 310.541 1.50781 -1.22387 0
M  V30 3403 C 307.671 2.4151 -2.4958 0
M  V30 3404 C 306.625 2.24792 -3.64215 0
M  V30 3405 C 305.951 3.61712 -3.93787 0
M  V30 3406 C 307.251 1.67749 -4.94629 0
M  V30 3407 H 308.945 0.694128 -2.91243 0
M  V30 3408 H 306.491 0.332448 -1.4011 0
M  V30 3409 H 308.444 3.12939 -2.82219 0
M  V30 3410 H 307.168 2.83943 -1.61381 0
M  V30 3411 H 305.827 1.55807 -3.31843 0
M  V30 3412 H 305.475 4.01697 -3.02735 0
M  V30 3413 H 305.175 3.51368 -4.70971 0
M  V30 3414 H 306.699 4.34587 -4.28913 0
M  V30 3415 H 308.113 2.29032 -5.25564 0
M  V30 3416 H 306.51 1.68128 -5.76067 0
M  V30 3417 H 307.58 0.638059 -4.80684 0
M  V30 3418 N 308.923 1.53595 0.353017 0
M  V30 3419 C 309.853 1.83902 1.43883 0
M  V30 3420 C 310.834 0.693421 1.55324 0
M  V30 3421 O 312.019 0.944452 1.69687 0
M  V30 3422 C 309.149 2.04016 2.8106 0
M  V30 3423 C 308.103 3.19814 2.84434 0
M  V30 3424 C 307.429 3.25244 4.24406 0
M  V30 3425 C 308.729 4.58133 2.50822 0
M  V30 3426 H 310.423 2.74835 1.1877 0
M  V30 3427 H 307.969 1.32242 0.569917 0
M  V30 3428 H 309.922 2.238 3.57059 0
M  V30 3429 H 308.646 1.09804 3.07588 0
M  V30 3430 H 307.305 2.9987 2.10887 0
M  V30 3431 H 306.953 2.28646 4.48029 0
M  V30 3432 H 306.653 4.03054 4.27576 0
M  V30 3433 H 308.177 3.47228 5.0226 0
M  V30 3434 H 309.591 4.77995 3.16534 0
M  V30 3435 H 307.988 5.38276 2.6529 0
M  V30 3436 H 309.058 4.62387 1.46034 0
M  V30 3437 N 310.401 -0.613514 1.45168 0
M  V30 3438 C 311.626 -1.40437 1.52618 0
M  V30 3439 C 312.051 -1.87438 0.157707 0
M  V30 3440 O 311.409 -1.59791 -0.856537 0
M  V30 3441 C 311.457 -2.58894 2.51011 0
M  V30 3442 O 310.561 -3.59326 2.02382 0
M  V30 3443 H 309.902 -0.419506 0.514695 0
M  V30 3444 H 312.432 -0.747215 1.90467 0
M  V30 3445 H 312.442 -3.06214 2.69624 0
M  V30 3446 H 311.117 -2.24032 3.50403 0
M  V30 3447 H 309.694 -3.18695 1.93618 0
M  V30 3448 N 311.879 -1.3236 -0.855495 0
M  V30 3449 C 313.107 -1.2587 -1.64208 0
M  V30 3450 C 313.522 0.173457 -1.88002 0
M  V30 3451 O 312.879 1.11027 -1.44842 0
M  V30 3452 C 312.93 -2.01424 -3.00184 0
M  V30 3453 O 312.651 -3.39051 -2.77445 0
M  V30 3454 C 314.152 -2.01948 -3.94629 0
M  V30 3455 H 311.372 -0.434318 -0.511477 0
M  V30 3456 H 313.916 -1.74469 -1.0668 0
M  V30 3457 H 312.071 -1.56549 -3.5436 0
M  V30 3458 H 312.485 -3.77711 -3.63916 0
M  V30 3459 H 313.959 -2.59297 -4.87308 0
M  V30 3460 H 314.436 -1.00554 -4.27534 0
M  V30 3461 H 315.042 -2.46767 -3.4639 0
M  V30 3462 N 313.357 1.07166 -1.15556 0
M  V30 3463 C 314.768 1.6127 -0.940693 0
M  V30 3464 C 315.119 1.89251 0.517551 0
M  V30 3465 O 314.244 1.65937 1.38903 0
M  V30 3466 C 314.839 2.92993 -1.7012 0
M  V30 3467 C 313.398 3.43832 -1.53156 0
M  V30 3468 C 312.545 2.1786 -1.71558 0
M  V30 3469 H 315.496 0.90229 -1.30554 0
M  V30 3470 H 315.517 3.62007 -1.17181 0
M  V30 3471 H 315.029 2.72596 -2.76248 0
M  V30 3472 H 313.13 3.69307 -0.494294 0
M  V30 3473 H 313.243 4.19747 -2.30975 0
M  V30 3474 H 311.607 2.2765 -1.14225 0
M  V30 3475 H 312.39 1.99956 -2.79056 0
M  V30 3476 N 314.835 0.952656 1.25548 0
M  V30 3477 C 316.081 0.616826 1.93822 0
M  V30 3478 C 316.436 -0.836684 1.73255 0
M  V30 3479 O 315.729 -1.59218 1.06584 0
M  V30 3480 C 315.923 0.908818 3.45652 0
M  V30 3481 C 315.752 2.38916 3.80984 0
M  V30 3482 C 314.522 3.04637 4.03143 0
M  V30 3483 C 316.72 3.36838 3.88645 0
M  V30 3484 N 314.702 4.42565 4.25453 0
M  V30 3485 C 316.073 4.60065 4.1562 0
M  V30 3486 C 318.128 3.31704 3.71318 0
M  V30 3487 C 316.831 5.78795 4.2707 0
M  V30 3488 C 318.857 4.4977 3.84006 0
M  V30 3489 C 318.219 5.71783 4.11392 0
M  V30 3490 H 314.318 0.27629 0.731565 0
M  V30 3491 H 316.902 1.22443 1.5138 0
M  V30 3492 H 315.073 0.330166 3.86994 0
M  V30 3493 H 316.805 0.533093 4.01174 0
M  V30 3494 H 313.56 2.55215 3.98952 0
M  V30 3495 H 313.984 5.1399 4.40617 0
M  V30 3496 H 318.626 2.3842 3.49164 0
M  V30 3497 H 316.344 6.72521 4.48041 0
M  V30 3498 H 319.93 4.47342 3.71989 0
M  V30 3499 H 318.81 6.61617 4.2099 0
M  V30 3500 N 316.313 -1.40141 0.720998 0
M  V30 3501 C 317.243 -2.33339 0.0867621 0
M  V30 3502 C 318.224 -1.53178 -0.739622 0
M  V30 3503 O 319.409 -1.81625 -0.687449 0
M  V30 3504 C 316.539 -3.37194 -0.831728 0
M  V30 3505 C 315.493 -4.27857 -0.110558 0
M  V30 3506 C 314.819 -5.22294 -1.14513 0
M  V30 3507 C 316.119 -5.11872 1.0385 0
M  V30 3508 H 317.813 -2.86626 0.865219 0
M  V30 3509 H 315.359 -1.37814 0.417516 0
M  V30 3510 H 317.312 -4.01335 -1.28485 0
M  V30 3511 H 316.036 -2.82314 -1.64214 0
M  V30 3512 H 314.695 -3.65176 0.322797 0
M  V30 3513 H 314.343 -4.63717 -1.94874 0
M  V30 3514 H 314.043 -5.83797 -0.667446 0
M  V30 3515 H 315.567 -5.89312 -1.59824 0
M  V30 3516 H 316.981 -5.69436 0.664482 0
M  V30 3517 H 315.378 -5.82445 1.4449 0
M  V30 3518 H 316.448 -4.4753 1.86668 0
M  V30 3519 N 317.792 -0.46758 -1.50504 0
M  V30 3520 C 318.724 0.364655 -2.26281 0
M  V30 3521 C 319.737 0.960151 -1.31472 0
M  V30 3522 O 320.926 0.849153 -1.57008 0
M  V30 3523 C 318.026 1.52509 -3.02645 0
M  V30 3524 C 317.199 1.04302 -4.24782 0
M  V30 3525 C 316.258 2.07709 -4.8347 0
M  V30 3526 O 315.284 1.65913 -5.44483 0
M  V30 3527 N 316.486 3.40485 -4.70159 0
M  V30 3528 H 319.251 -0.28495 -2.98342 0
M  V30 3529 H 316.812 -0.298163 -1.59131 0
M  V30 3530 H 318.804 2.21371 -3.38787 0
M  V30 3531 H 317.374 2.07945 -2.33404 0
M  V30 3532 H 316.594 0.180393 -3.93787 0
M  V30 3533 H 317.882 0.698798 -5.03978 0
M  V30 3534 H 317.28 3.77155 -4.21629 0
M  V30 3535 H 315.837 4.05156 -5.1058 0
M  V30 3536 N 319.27 1.56325 -0.20005 0
M  V30 3537 C 320.2 2.22318 0.713916 0
M  V30 3538 C 321.181 1.18788 1.21752 0
M  V30 3539 O 322.366 1.47309 1.26545 0
M  V30 3540 C 319.496 2.88639 1.93144 0
M  V30 3541 C 318.45 3.98457 1.56255 0
M  V30 3542 C 317.776 4.51967 2.85709 0
M  V30 3543 C 319.076 5.16612 0.768747 0
M  V30 3544 H 320.77 2.98952 0.163755 0
M  V30 3545 H 318.316 1.43792 0.0773219 0
M  V30 3546 H 320.269 3.33491 2.57608 0
M  V30 3547 H 318.993 2.09419 2.50621 0
M  V30 3548 H 317.652 3.54305 0.941471 0
M  V30 3549 H 317.3 3.69503 3.41287 0
M  V30 3550 H 317 5.26071 2.6177 0
M  V30 3551 H 318.524 4.99523 3.51154 0
M  V30 3552 H 319.938 5.57977 1.3166 0
M  V30 3553 H 318.335 5.96812 0.627286 0
M  V30 3554 H 319.405 4.84358 -0.229168 0
M  V30 3555 N 320.748 -0.0735177 1.57428 0
M  V30 3556 C 321.978 -0.78483 1.91112 0
M  V30 3557 C 322.386 -1.71729 0.7941 0
M  V30 3558 O 321.729 -1.82105 -0.241542 0
M  V30 3559 C 321.791 -1.63346 3.20247 0
M  V30 3560 C 321.455 -0.870557 4.48632 0
M  V30 3561 C 322.452 -0.19058 5.19551 0
M  V30 3562 C 320.137 -0.838242 4.95256 0
M  V30 3563 C 322.131 0.511503 6.35344 0
M  V30 3564 C 319.818 -0.132386 6.10957 0
M  V30 3565 C 320.816 0.541288 6.80852 0
M  V30 3566 O 320.504 1.23578 7.94345 0
M  V30 3567 H 320.236 -0.228408 0.636244 0
M  V30 3568 H 322.79 -0.0486039 2.05342 0
M  V30 3569 H 321.02 -2.41245 3.02222 0
M  V30 3570 H 322.709 -2.22329 3.39595 0
M  V30 3571 H 323.475 -0.206864 4.84559 0
M  V30 3572 H 319.354 -1.35206 4.40727 0
M  V30 3573 H 322.898 1.03789 6.89836 0
M  V30 3574 H 318.795 -0.114023 6.45399 0
M  V30 3575 H 319.563 1.14487 8.10454 0
M  V30 3576 N 322.226 -1.5378 -0.344866 0
M  V30 3577 C 323.174 -1.82373 -1.4437 0
M  V30 3578 C 324.168 -0.694128 -1.54526 0
M  V30 3579 O 325.374 -0.877442 -1.57165 0
M  V30 3580 H 321.749 -0.577765 -0.481344 0
M  V30 3581 H 323.72 -2.74306 -1.17468 0
M  V30 3582 C 322.469 -2.04898 -2.80913 0
M  V30 3583 H 321.792 -2.9127 -2.73865 0
M  V30 3584 H 323.232 -2.28871 -3.56923 0
M  V30 3585 C 321.691 -0.834116 -3.26411 0
M  V30 3586 O 322.221 -0.0328885 -4.01687 0
M  V30 3587 N 320.427 -0.65171 -2.83198 0
M  V30 3588 H 319.974 -1.30489 -2.22104 0
M  V30 3589 H 319.932 0.159686 -3.13994 0
M  V30 3590 N 323.704 0.605807 -1.45491 0
M  V30 3591 C 324.652 1.73754 -1.54636 0
M  V30 3592 C 325.646 1.64207 -0.416219 0
M  V30 3593 O 326.852 1.69979 -0.592199 0
M  V30 3594 H 323.227 0.574073 -0.485741 0
M  V30 3595 H 325.198 1.63169 -2.49837 0
M  V30 3596 C 323.947 3.12135 -1.53189 0
M  V30 3597 H 323.27 3.20141 -2.39478 0
M  V30 3598 H 324.71 3.91147 -1.63645 0
M  V30 3599 C 323.169 3.35921 -0.256616 0
M  V30 3600 O 323.699 3.96194 0.662798 0
M  V30 3601 N 321.905 2.90204 -0.151751 0
M  V30 3602 H 321.452 2.41336 -0.90081 0
M  V30 3603 H 321.41 3.06492 0.700699 0
M  V30 3604 N 325.182 1.32811 0.848464 0
M  V30 3605 C 326.429 1.23724 1.60308 0
M  V30 3606 C 326.757 -0.1994 1.93475 0
M  V30 3607 O 326.012 -1.15406 1.5805 0
M  V30 3608 C 326.311 2.04831 2.92881 0
M  V30 3609 C 325.977 3.54125 2.79117 0
M  V30 3610 C 324.639 3.94829 2.7507 0
M  V30 3611 C 326.991 4.49036 2.64606 0
M  V30 3612 C 324.319 5.28675 2.544 0
M  V30 3613 C 326.671 5.83033 2.4547 0
M  V30 3614 C 325.335 6.22931 2.39819 0
M  V30 3615 H 324.605 0.452737 0.586609 0
M  V30 3616 H 327.252 1.64301 0.983743 0
M  V30 3617 H 325.557 1.57001 3.58968 0
M  V30 3618 H 327.254 1.95164 3.50303 0
M  V30 3619 H 323.844 3.21801 2.83094 0
M  V30 3620 H 328.028 4.18505 2.66772 0
M  V30 3621 H 323.284 5.58637 2.48465 0
M  V30 3622 H 327.458 6.56186 2.33222 0
M  V30 3623 H 325.085 7.26584 2.23562 0
M  V30 3624 N 326.66 -1.06551 1.16123 0
M  V30 3625 C 328.071 -1.60768 0.949232 0
M  V30 3626 C 328.422 -1.89523 -0.507508 0
M  V30 3627 O 327.547 -1.66671 -1.38021 0
M  V30 3628 C 328.142 -2.92086 1.71671 0
M  V30 3629 C 326.701 -3.43015 1.54977 0
M  V30 3630 C 325.848 -2.16947 1.72711 0
M  V30 3631 H 328.799 -0.895354 1.31031 0
M  V30 3632 H 328.82 -3.6138 1.19099 0
M  V30 3633 H 328.332 -2.71127 2.7769 0
M  V30 3634 H 326.433 -3.69039 0.513873 0
M  V30 3635 H 326.546 -4.18516 2.33198 0
M  V30 3636 H 324.91 -2.27041 1.15431 0
M  V30 3637 H 325.693 -1.98473 2.80113 0
M  V30 3638 N 328.138 -0.959301 -1.25041 0
M  V30 3639 C 329.363 -0.633507 -1.97488 0
M  V30 3640 C 329.788 0.788555 -1.70773 0
M  V30 3641 O 329.146 1.53394 -0.966431 0
M  V30 3642 C 329.194 -0.904057 -3.49083 0
M  V30 3643 O 328.298 0.0147939 -4.12397 0
M  V30 3644 H 327.639 -0.240368 -0.618966 0
M  V30 3645 H 330.169 -1.28717 -1.59038 0
M  V30 3646 H 330.179 -0.832203 -3.99423 0
M  V30 3647 H 328.854 -1.94048 -3.67856 0
M  V30 3648 H 327.431 -0.109664 -3.72739 0
M  V30 3649 N 329.616 1.39756 -0.72842 0
M  V30 3650 C 330.863 2.00645 -0.273487 0
M  V30 3651 C 331.191 1.57786 1.13727 0
M  V30 3652 O 330.446 0.794886 1.7883 0
M  V30 3653 C 330.745 3.56002 -0.315776 0
M  V30 3654 C 330.411 4.18489 -1.67863 0
M  V30 3655 C 329.073 4.3527 -2.05166 0
M  V30 3656 C 331.425 4.53219 -2.57375 0
M  V30 3657 C 328.753 4.84069 -3.31503 0
M  V30 3658 C 331.105 5.03423 -3.83077 0
M  V30 3659 C 329.769 5.18413 -4.20481 0
M  V30 3660 H 329.039 0.734211 -0.100076 0
M  V30 3661 H 331.686 1.6718 -0.933972 0
M  V30 3662 H 329.991 3.89452 0.428285 0
M  V30 3663 H 331.688 4.00963 0.0542575 0
M  V30 3664 H 328.278 4.05824 -1.37858 0
M  V30 3665 H 332.462 4.39878 -2.29827 0
M  V30 3666 H 327.718 4.93859 -3.60435 0
M  V30 3667 H 331.892 5.2927 -4.52599 0
M  V30 3668 H 329.519 5.55987 -5.18443 0
M  V30 3669 N 331.094 0.475555 1.50254 0
M  V30 3670 C 332.024 -0.30611 2.31485 0
M  V30 3671 C 333.005 -0.986228 1.38591 0
M  V30 3672 O 334.19 -0.982541 1.67511 0
M  V30 3673 C 331.32 -1.38588 3.1845 0
M  V30 3674 C 330.274 -0.827115 4.19932 0
M  V30 3675 C 329.6 -2.00551 4.95665 0
M  V30 3676 C 330.9 0.16463 5.2204 0
M  V30 3677 H 332.594 0.371866 2.97082 0
M  V30 3678 H 330.14 0.180282 1.42867 0
M  V30 3679 H 332.093 -1.94023 3.74076 0
M  V30 3680 H 330.817 -2.09269 2.50747 0
M  V30 3681 H 329.476 -0.294702 3.65414 0
M  V30 3682 H 329.124 -2.6994 4.2443 0
M  V30 3683 H 328.824 -1.63784 5.64313 0
M  V30 3684 H 330.348 -2.56468 5.54127 0
M  V30 3685 H 331.762 -0.300699 5.72511 0
M  V30 3686 H 330.159 0.446813 5.98434 0
M  V30 3687 H 331.229 1.08905 4.72512 0
M  V30 3688 N 332.573 -1.56217 0.208337 0
M  V30 3689 C 333.523 -2.16324 -0.720281 0
M  V30 3690 C 334.507 -1.10775 -1.16695 0
M  V30 3691 O 335.699 -1.36801 -1.12314 0
M  V30 3692 C 332.828 -2.83644 -1.93393 0
M  V30 3693 C 331.914 -3.96401 -1.50755 0
M  V30 3694 N 332.305 -4.99546 -0.792937 0
M  V30 3695 C 330.603 -4.08246 -1.79585 0
M  V30 3696 C 331.304 -5.78828 -0.577364 0
M  V30 3697 N 330.28 -5.31723 -1.1301 0
M  V30 3698 H 334.082 -2.93432 -0.165725 0
M  V30 3699 H 331.596 -1.62397 0.00906463 0
M  V30 3700 H 333.593 -3.25107 -2.60981 0
M  V30 3701 H 332.253 -2.08027 -2.49308 0
M  V30 3702 H 333.264 -5.15967 -0.447004 0
M  V30 3703 H 329.941 -3.4377 -2.36915 0
M  V30 3704 H 331.331 -6.71899 -0.00952956 0
M  V30 3705 N 334.051 0.0651679 -1.57465 0
M  V30 3706 C 335.281 0.774683 -1.91526 0
M  V30 3707 C 335.689 1.71305 -0.803196 0
M  V30 3708 O 335.032 1.82231 0.231881 0
M  V30 3709 C 335.094 1.61645 -3.21109 0
M  V30 3710 C 334.758 0.846753 -4.49087 0
M  V30 3711 C 335.755 0.163024 -5.19644 0
M  V30 3712 C 333.44 0.811966 -4.95694 0
M  V30 3713 C 335.434 -0.54519 -6.35064 0
M  V30 3714 C 333.121 0.0999836 -6.11018 0
M  V30 3715 C 334.119 -0.577388 -6.80555 0
M  V30 3716 O 333.807 -1.27789 -7.93678 0
M  V30 3717 H 333.539 0.225031 -0.637446 0
M  V30 3718 H 336.093 0.0377134 -2.05365 0
M  V30 3719 H 334.323 2.39638 -3.03497 0
M  V30 3720 H 336.012 2.20525 -3.40769 0
M  V30 3721 H 336.778 0.181163 -4.84662 0
M  V30 3722 H 332.657 1.32867 -4.41438 0
M  V30 3723 H 336.201 -1.07446 -6.89276 0
M  V30 3724 H 332.098 0.0797945 -6.45451 0
M  V30 3725 H 332.866 -1.18784 -8.09835 0
M  V30 3726 N 335.529 1.53961 0.336706 0
M  V30 3727 C 336.459 1.85417 1.41925 0
M  V30 3728 C 337.44 0.709856 1.5458 0
M  V30 3729 O 338.625 0.962396 1.68676 0
M  V30 3730 C 335.755 2.06985 2.78881 0
M  V30 3731 C 334.709 3.22813 2.81026 0
M  V30 3732 C 334.035 3.29727 4.20932 0
M  V30 3733 C 335.335 4.60767 2.45949 0
M  V30 3734 H 337.029 2.76079 1.15848 0
M  V30 3735 H 334.575 1.32839 0.555859 0
M  V30 3736 H 336.528 2.27575 3.54665 0
M  V30 3737 H 335.252 1.13061 3.06406 0
M  V30 3738 H 333.911 3.0209 2.07695 0
M  V30 3739 H 333.559 2.33385 4.45579 0
M  V30 3740 H 333.259 4.07566 4.23277 0
M  V30 3741 H 334.783 3.52536 4.98549 0
M  V30 3742 H 336.197 4.81325 3.11446 0
M  V30 3743 H 334.594 5.4106 2.59566 0
M  V30 3744 H 335.664 4.6391 1.41122 0
M  V30 3745 N 337.007 -0.598083 1.45811 0
M  V30 3746 C 338.418 -1.18011 1.44673 0
M  V30 3747 C 338.769 -1.95378 0.179364 0
M  V30 3748 O 337.894 -2.04124 -0.718509 0
M  V30 3749 C 338.489 -2.14677 2.62105 0
M  V30 3750 C 337.048 -2.68236 2.64057 0
M  V30 3751 C 336.195 -1.43816 2.37091 0
M  V30 3752 H 339.146 -0.38686 1.53913 0
M  V30 3753 H 339.167 -2.97878 2.36746 0
M  V30 3754 H 338.679 -1.5834 3.5433 0
M  V30 3755 H 336.78 -3.28486 1.75864 0
M  V30 3756 H 336.893 -3.12021 3.63566 0
M  V30 3757 H 335.257 -1.731 1.86838 0
M  V30 3758 H 336.04 -0.893333 3.31473 0
M  V30 3759 N 338.485 -1.33259 -0.841409 0
M  V30 3760 C 339.733 -1.24326 -1.59334 0
M  V30 3761 C 340.054 0.191564 -1.94057 0
M  V30 3762 O 339.324 1.11967 -1.60749 0
M  V30 3763 H 337.904 -0.457174 -0.590763 0
M  V30 3764 H 340.566 -1.66947 -1.00571 0
M  V30 3765 H 339.662 -1.8352 -2.52442 0
M  V30 3766 N 339.963 1.05934 -1.16686 0
M  V30 3767 C 341.188 1.83029 -0.975455 0
M  V30 3768 C 341.613 1.82096 0.471452 0
M  V30 3769 O 340.971 1.22443 1.33706 0
M  V30 3770 C 341.019 3.27372 -1.51195 0
M  V30 3771 O 340.123 4.06054 -0.720701 0
M  V30 3772 H 339.464 0.566194 -0.346872 0
M  V30 3773 H 341.994 1.33541 -1.55009 0
M  V30 3774 H 342.004 3.78186 -1.53099 0
M  V30 3775 H 340.679 3.27366 -2.56523 0
M  V30 3776 H 339.256 3.64812 -0.772458 0
M  V30 3777 N 341.441 0.965919 1.2453 0
M  V30 3778 C 342.391 0.465731 2.23193 0
M  V30 3779 C 343.375 -0.451277 1.54442 0
M  V30 3780 O 344.567 -0.282489 1.74731 0
M  V30 3781 C 341.696 -0.244511 3.42428 0
M  V30 3782 C 340.782 0.691222 4.18429 0
M  V30 3783 N 341.173 1.82771 4.71623 0
M  V30 3784 C 339.471 0.501649 4.4317 0
M  V30 3785 C 340.172 2.41285 5.29298 0
M  V30 3786 N 339.148 1.69819 5.16394 0
M  V30 3787 H 342.95 1.33291 2.61937 0
M  V30 3788 H 340.464 0.824789 1.39896 0
M  V30 3789 H 342.461 -0.620056 4.12263 0
M  V30 3790 H 341.121 -1.10815 3.05205 0
M  V30 3791 H 342.132 2.20929 4.68413 0
M  V30 3792 H 338.809 -0.318177 4.16286 0
M  V30 3793 H 340.199 3.37181 5.8117 0
M  V30 3794 N 342.919 -1.39368 0.735821 0
M  V30 3795 C 344.335 -1.54204 0.411492 0
M  V30 3796 C 344.535 -1.70268 -1.07755 0
M  V30 3797 O 343.591 -1.70364 -1.86366 0
M  V30 3798 C 344.904 -2.75925 1.19523 0
M  V30 3799 C 346.452 -2.89761 1.18354 0
M  V30 3800 C 346.927 -4.14421 1.94986 0
M  V30 3801 N 348.418 -4.21462 1.92156 0
M  V30 3802 C 349.153 -5.16871 2.48258 0
M  V30 3803 N 348.649 -6.18063 3.13001 0
M  V30 3804 N 350.442 -5.09093 2.38287 0
M  V30 3805 H 342.593 -1.27189 1.70108 0
M  V30 3806 H 344.856 -0.616517 0.720147 0
M  V30 3807 H 344.562 -2.70401 2.24892 0
M  V30 3808 H 344.436 -3.68614 0.800222 0
M  V30 3809 H 346.823 -2.94777 0.137975 0
M  V30 3810 H 346.904 -1.98133 1.61793 0
M  V30 3811 H 346.548 -4.10166 2.99543 0
M  V30 3812 H 346.478 -5.05095 1.48953 0
M  V30 3813 H 348.969 -3.48979 1.44991 0
M  V30 3814 H 349.282 -6.87326 3.53275 0
M  V30 3815 H 347.627 -6.18448 3.17091 0
M  V30 3816 H 350.818 -4.28973 1.8735 0
M  V30 3817 H 350.991 -5.83272 2.82308 0
M  V30 3818 N 344.397 -0.483516 -1.5 0
M  V30 3819 C 345.344 0.304164 -2.28787 0
M  V30 3820 C 346.314 0.976114 -1.34392 0
M  V30 3821 O 347.499 0.986156 -1.63339 0
M  V30 3822 C 344.639 1.37298 -3.16612 0
M  V30 3823 C 343.752 0.714561 -4.26049 0
M  V30 3824 C 342.887 1.76232 -5.01114 0
M  V30 3825 C 341.926 1.08483 -6.0241 0
M  V30 3826 N 341.063 2.076 -6.70706 0
M  V30 3827 H 345.903 -0.373981 -2.95644 0
M  V30 3828 H 343.44 -0.196275 -1.45785 0
M  V30 3829 H 345.398 2.00445 -3.65893 0
M  V30 3830 H 344.028 2.02012 -2.51776 0
M  V30 3831 H 343.08 -0.0297798 -3.80388 0
M  V30 3832 H 344.392 0.180383 -4.98474 0
M  V30 3833 H 343.546 2.46929 -5.54176 0
M  V30 3834 H 342.285 2.33033 -4.28424 0
M  V30 3835 H 341.29 0.363545 -5.48597 0
M  V30 3836 H 342.515 0.523551 -6.77079 0
M  V30 3837 H 340.461 2.63394 -6.00799 0
M  V30 3838 H 340.378 1.59201 -7.39047 0
M  V30 3839 H 341.646 2.77639 -7.2838 0
M  V30 3840 N 345.875 1.56104 -0.216619 0
M  V30 3841 C 347.121 1.98466 0.417033 0
M  V30 3842 C 347.454 1.10403 1.59765 0
M  V30 3843 O 346.729 0.160632 1.93836 0
M  V30 3844 C 347.012 3.49769 0.85637 0
M  V30 3845 C 346.865 4.48606 -0.327546 0
M  V30 3846 C 348.184 4.05339 1.7143 0
M  V30 3847 H 345.303 0.721551 0.150112 0
M  V30 3848 H 347.945 1.87423 -0.311864 0
M  V30 3849 H 346.095 3.5931 1.47745 0
M  V30 3850 H 347.767 4.5108 -0.965618 0
M  V30 3851 H 346.01 4.22682 -0.975805 0
M  V30 3852 H 346.681 5.51995 0.0227149 0
M  V30 3853 H 349.157 3.98712 1.19031 0
M  V30 3854 H 348.033 5.11533 1.99061 0
M  V30 3855 H 348.294 3.51918 2.67593 0
M  V30 3856 N 347.353 -0.0568162 1.57498 0
M  V30 3857 C 348.602 -0.752001 1.87157 0
M  V30 3858 C 348.915 -1.77978 0.811375 0
M  V30 3859 O 350.121 -2.52559 0.996293 0
M  V30 3860 C 348.577 -1.38844 3.3204 0
M  V30 3861 C 348.185 -0.398456 4.46225 0
M  V30 3862 C 349.929 -2.06512 3.70882 0
M  V30 3863 C 347.836 -1.04166 5.82154 0
M  V30 3864 H 346.766 -0.28461 0.698222 0
M  V30 3865 H 349.417 -0.00561272 1.83499 0
M  V30 3866 H 347.799 -2.1836 3.30356 0
M  V30 3867 H 348.973 0.367977 4.59328 0
M  V30 3868 H 347.288 0.174592 4.16034 0
M  V30 3869 H 349.885 -2.55437 4.6974 0
M  V30 3870 H 350.228 -2.87117 3.01445 0
M  V30 3871 H 350.761 -1.33808 3.7462 0
M  V30 3872 H 347.5 -0.275614 6.5492 0
M  V30 3873 H 347.02 -1.7786 5.72823 0
M  V30 3874 H 348.699 -1.55715 6.27982 0
M  V30 3875 N 348.832 -1.54138 -0.328536 0
M  V30 3876 C 349.779 -1.83176 -1.40411 0
M  V30 3877 C 350.749 -0.678494 -1.5161 0
M  V30 3878 O 351.934 -0.92443 -1.6691 0
M  V30 3879 C 349.074 -2.06035 -2.76846 0
M  V30 3880 C 348.187 -3.33727 -2.74318 0
M  V30 3881 C 347.322 -3.46574 -4.02567 0
M  V30 3882 C 346.361 -4.68159 -3.94327 0
M  V30 3883 N 345.498 -4.77959 -5.14296 0
M  V30 3884 H 350.338 -2.74938 -1.14948 0
M  V30 3885 H 347.875 -1.36166 -0.556538 0
M  V30 3886 H 349.833 -2.1728 -3.56153 0
M  V30 3887 H 348.463 -1.1757 -3.00628 0
M  V30 3888 H 347.515 -3.31246 -1.8703 0
M  V30 3889 H 348.827 -4.23139 -2.64111 0
M  V30 3890 H 347.981 -3.57333 -4.90304 0
M  V30 3891 H 346.72 -2.55245 -4.15574 0
M  V30 3892 H 345.725 -4.57461 -3.04974 0
M  V30 3893 H 346.95 -5.60868 -3.82889 0
M  V30 3894 H 344.896 -3.89544 -5.27818 0
M  V30 3895 H 344.813 -5.6133 -5.06404 0
M  V30 3896 H 346.081 -4.93044 -6.03761 0
M  V30 3897 N 350.31 0.590341 -1.46126 0
M  V30 3898 C 351.258 1.72105 -1.5647 0
M  V30 3899 C 352.252 1.63756 -0.433612 0
M  V30 3900 O 353.458 1.69342 -0.610194 0
M  V30 3901 H 349.833 0.568889 -0.491802 0
M  V30 3902 H 351.804 1.6051 -2.51553 0
M  V30 3903 C 350.553 3.10493 -1.56491 0
M  V30 3904 H 349.876 3.17583 -2.4286 0
M  V30 3905 H 351.316 3.8939 -1.67785 0
M  V30 3906 C 349.775 3.3563 -0.292231 0
M  V30 3907 O 350.305 3.96875 0.620739 0
M  V30 3908 N 348.511 2.90026 -0.182523 0
M  V30 3909 H 348.058 2.40367 -0.926356 0
M  V30 3910 H 348.016 3.07218 0.668152 0
M  V30 3911 N 351.788 1.33704 0.83433 0
M  V30 3912 C 353.034 1.25603 1.59222 0
M  V30 3913 C 353.367 -0.176659 1.93395 0
M  V30 3914 O 352.642 -1.11915 1.59076 0
M  V30 3915 C 352.925 2.13576 2.89926 0
M  V30 3916 C 352.778 3.65326 2.62406 0
M  V30 3917 C 354.097 2.01238 3.91397 0
M  V30 3918 H 351.216 0.457613 0.577719 0
M  V30 3919 H 353.858 1.63848 0.961972 0
M  V30 3920 H 352.008 1.8109 3.43713 0
M  V30 3921 H 353.68 4.08124 2.15017 0
M  V30 3922 H 351.923 3.8698 1.96033 0
M  V30 3923 H 352.594 4.22232 3.55562 0
M  V30 3924 H 355.07 2.29738 3.46929 0
M  V30 3925 H 353.946 2.65036 4.80673 0
M  V30 3926 H 354.207 0.985951 4.30966 0
M  V30 3927 N 353.266 -1.05314 1.17247 0
M  V30 3928 C 354.229 -2.112 0.890357 0
M  V30 3929 C 355.229 -1.60359 -0.118943 0
M  V30 3930 O 356.419 -1.73833 0.113086 0
M  V30 3931 C 353.551 -3.39266 0.333422 0
M  V30 3932 H 354.744 -2.37659 1.82916 0
M  V30 3933 H 352.297 -1.21538 0.982758 0
M  V30 3934 H 353.032 -3.18462 -0.612587 0
M  V30 3935 H 352.817 -3.77477 1.06082 0
M  V30 3936 H 354.307 -4.17315 0.154322 0
M  V30 3937 N 354.744 -0.972509 -1.24016 0
M  V30 3938 C 355.654 -0.5143 -2.28893 0
M  V30 3939 C 356.67 0.427078 -1.68677 0
M  V30 3940 O 357.846 0.298939 -1.99169 0
M  V30 3941 C 354.911 0.183598 -3.46214 0
M  V30 3942 C 353.972 -0.798202 -4.21814 0
M  V30 3943 C 353.205 -0.133514 -5.33533 0
M  V30 3944 O 353.428 1.07714 -5.60137 0
M  V30 3945 O 352.362 -0.828103 -5.96176 0
M  V30 3946 H 356.188 -1.38629 -2.70214 0
M  V30 3947 H 353.773 -0.739769 -1.29799 0
M  V30 3948 H 355.655 0.575433 -4.17453 0
M  V30 3949 H 354.33 1.03048 -3.0686 0
M  V30 3950 H 353.237 -1.24059 -3.52931 0
M  V30 3951 H 354.57 -1.61364 -4.64997 0
M  V30 3952 N 356.222 1.38976 -0.743202 0
M  V30 3953 C 357.468 2.0064 -0.295189 0
M  V30 3954 C 357.801 1.5885 1.11716 0
M  V30 3955 O 357.076 0.821181 1.76315 0
M  V30 3956 C 357.359 3.578 -0.406318 0
M  V30 3957 C 357.212 4.09586 -1.85903 0
M  V30 3958 C 358.531 4.39616 0.206439 0
M  V30 3959 H 355.65 0.728935 -0.108733 0
M  V30 3960 H 358.292 1.65067 -0.940897 0
M  V30 3961 H 356.442 3.88235 0.143419 0
M  V30 3962 H 358.114 3.89837 -2.46627 0
M  V30 3963 H 356.357 3.6284 -2.3776 0
M  V30 3964 H 357.028 5.18708 -1.888 0
M  V30 3965 H 359.504 4.15273 -0.262283 0
M  V30 3966 H 358.38 5.48812 0.0983819 0
M  V30 3967 H 358.641 4.22754 1.2935 0
M  V30 3968 N 357.7 0.491464 1.49741 0
M  V30 3969 C 358.647 -0.292027 2.28945 0
M  V30 3970 C 359.617 -0.968973 1.34908 0
M  V30 3971 O 360.802 -0.97748 1.6386 0
M  V30 3972 C 357.942 -1.35617 3.17336 0
M  V30 3973 C 357.055 -0.691957 4.26422 0
M  V30 3974 C 356.19 -1.73572 5.02042 0
M  V30 3975 C 355.229 -1.05286 6.02977 0
M  V30 3976 N 354.366 -2.0404 6.71798 0
M  V30 3977 H 359.206 0.389654 2.95442 0
M  V30 3978 H 356.743 0.204003 1.45679 0
M  V30 3979 H 358.701 -1.98502 3.66951 0
M  V30 3980 H 357.331 -2.00674 2.52844 0
M  V30 3981 H 356.383 0.0499523 3.80367 0
M  V30 3982 H 357.695 -0.153946 4.98562 0
M  V30 3983 H 356.849 -2.43987 5.55478 0
M  V30 3984 H 355.588 -2.30757 4.29654 0
M  V30 3985 H 354.593 -0.334446 5.48782 0
M  V30 3986 H 355.818 -0.487636 6.77347 0
M  V30 3987 H 353.764 -2.60205 6.02187 0
M  V30 3988 H 353.681 -1.55279 7.39881 0
M  V30 3989 H 354.949 -2.73772 7.29842 0
M  V30 3990 N 359.178 -1.55987 0.224894 0
M  V30 3991 C 360.088 -2.24066 -0.69511 0
M  V30 3992 C 361.104 -1.24939 -1.21104 0
M  V30 3993 O 362.28 -1.5776 -1.25195 0
M  V30 3994 C 359.345 -2.90983 -1.88493 0
M  V30 3995 C 358.406 -4.05462 -1.41064 0
M  V30 3996 C 357.639 -4.69179 -2.54375 0
M  V30 3997 O 357.862 -4.31895 -3.72589 0
M  V30 3998 O 356.796 -5.58108 -2.25386 0
M  V30 3999 H 360.622 -3.03353 -0.145149 0
M  V30 4000 H 358.207 -1.49399 -0.00569476 0
M  V30 4001 H 360.089 -3.33209 -2.57972 0
M  V30 4002 H 358.764 -2.14653 -2.42293 0
M  V30 4003 H 357.671 -3.67798 -0.683774 0
M  V30 4004 H 359.004 -4.83545 -0.918985 0
M  V30 4005 N 360.656 0.0484629 -1.57525 0
M  V30 4006 C 361.886 0.754326 -1.92337 0
M  V30 4007 C 362.294 1.70443 -0.82132 0
M  V30 4008 O 361.637 1.82466 0.21254 0
M  V30 4009 C 361.699 1.58231 -3.22805 0
M  V30 4010 C 361.363 0.799074 -4.4996 0
M  V30 4011 C 362.36 0.1079 -5.19788 0
M  V30 4012 C 360.045 0.759345 -4.96527 0
M  V30 4013 C 362.039 -0.612516 -6.3445 0
M  V30 4014 C 359.726 0.0351713 -6.1109 0
M  V30 4015 C 360.724 -0.649537 -6.79904 0
M  V30 4016 O 360.412 -1.36199 -7.92278 0
M  V30 4017 H 360.144 0.218257 -0.639797 0
M  V30 4018 H 362.698 0.0159295 -2.05394 0
M  V30 4019 H 360.928 2.36406 -3.06021 0
M  V30 4020 H 362.617 2.16898 -3.43089 0
M  V30 4021 H 363.383 0.129748 -4.84826 0
M  V30 4022 H 359.262 1.28177 -4.42822 0
M  V30 4023 H 362.806 -1.14751 -6.88097 0
M  V30 4024 H 358.703 0.0113314 -6.45499 0
M  V30 4025 H 359.471 -1.27366 -8.0853 0
M  V30 4026 N 362.134 1.5431 0.320358 0
M  V30 4027 C 363.38 1.72924 1.05949 0
M  V30 4028 C 363.713 0.503185 1.87568 0
M  V30 4029 O 362.988 -0.499839 1.87968 0
M  V30 4030 C 363.271 3.00676 1.98156 0
M  V30 4031 C 363.124 4.3354 1.19845 0
M  V30 4032 C 364.443 3.24198 2.9763 0
M  V30 4033 H 361.562 0.629195 0.383774 0
M  V30 4034 H 364.204 1.87008 0.335854 0
M  V30 4035 H 362.354 2.888 2.59859 0
M  V30 4036 H 364.026 4.57305 0.605773 0
M  V30 4037 H 362.269 4.309 0.500784 0
M  V30 4038 H 362.94 5.19156 1.87567 0
M  V30 4039 H 365.416 3.35557 2.4605 0
M  V30 4040 H 364.292 4.14938 3.59329 0
M  V30 4041 H 364.553 2.41577 3.7026 0
M  V30 4042 N 363.613 -0.582584 1.46437 0
M  V30 4043 C 364.838 -1.37168 1.55563 0
M  V30 4044 C 365.263 -1.87061 0.19743 0
M  V30 4045 O 364.621 -1.61572 -0.822451 0
M  V30 4046 C 364.669 -2.53511 2.56446 0
M  V30 4047 O 363.773 -3.54953 2.09958 0
M  V30 4048 H 363.114 -0.408494 0.523477 0
M  V30 4049 H 365.644 -0.706646 1.9201 0
M  V30 4050 H 365.654 -3.00426 2.76058 0
M  V30 4051 H 364.329 -2.16549 3.55076 0
M  V30 4052 H 362.906 -3.14516 2.00334 0
M  V30 4053 N 365.091 -1.34144 -0.827227 0
M  V30 4054 C 366.001 -1.27428 -1.96975 0
M  V30 4055 C 367.017 -0.182728 -1.73038 0
M  V30 4056 O 368.193 -0.408426 -1.97215 0
M  V30 4057 C 365.258 -1.02526 -3.31194 0
M  V30 4058 C 364.319 -2.20796 -3.68168 0
M  V30 4059 C 363.552 -1.97073 -4.95982 0
M  V30 4060 O 363.775 -0.926822 -5.6282 0
M  V30 4061 O 362.709 -2.83912 -5.30733 0
M  V30 4062 H 366.535 -2.23537 -2.05584 0
M  V30 4063 H 364.12 -1.14307 -0.961989 0
M  V30 4064 H 366.002 -0.904026 -4.11589 0
M  V30 4065 H 364.677 -0.0945389 -3.23562 0
M  V30 4066 H 363.584 -2.38477 -2.88235 0
M  V30 4067 H 364.917 -3.12243 -3.8048 0
M  V30 4068 N 366.569 1.04691 -1.17803 0
M  V30 4069 C 367.985 1.29963 -0.926379 0
M  V30 4070 C 368.185 1.97251 0.411635 0
M  V30 4071 O 367.241 2.24922 1.14744 0
M  V30 4072 C 368.554 2.16447 -2.08737 0
M  V30 4073 C 370.102 2.29814 -2.12496 0
M  V30 4074 C 370.577 3.19661 -3.27995 0
M  V30 4075 N 372.068 3.27247 -3.27816 0
M  V30 4076 C 372.803 3.96906 -4.13827 0
M  V30 4077 N 372.299 4.6895 -5.09959 0
M  V30 4078 N 374.092 3.93122 -4.01761 0
M  V30 4079 H 366.243 0.594182 -2.0392 0
M  V30 4080 H 368.506 0.324649 -0.890678 0
M  V30 4081 H 368.212 1.74304 -3.05469 0
M  V30 4082 H 368.086 3.17103 -2.04268 0
M  V30 4083 H 370.473 2.71196 -1.16347 0
M  V30 4084 H 370.554 1.2877 -2.21025 0
M  V30 4085 H 370.198 2.78991 -4.24413 0
M  V30 4086 H 370.128 4.20722 -3.16703 0
M  V30 4087 H 372.619 2.75921 -2.58217 0
M  V30 4088 H 372.932 5.19679 -5.71974 0
M  V30 4089 H 371.277 4.67875 -5.13924 0
M  V30 4090 H 374.468 3.35967 -3.2595 0
M  V30 4091 H 374.641 4.47139 -4.6901 0
M  V30 4092 N 368.047 0.979072 1.23499 0
M  V30 4093 C 369.293 0.648178 1.92163 0
M  V30 4094 C 369.626 -0.816049 1.76222 0
M  V30 4095 O 368.901 -1.58849 1.12237 0
M  V30 4096 C 369.184 1.03773 3.44824 0
M  V30 4097 C 369.037 2.55948 3.69879 0
M  V30 4098 C 370.356 0.580653 4.36253 0
M  V30 4099 H 367.475 0.236952 0.69787 0
M  V30 4100 H 370.117 1.22012 1.45647 0
M  V30 4101 H 368.267 0.551058 3.84572 0
M  V30 4102 H 369.939 3.12179 3.3962 0
M  V30 4103 H 368.182 2.98641 3.14636 0
M  V30 4104 H 368.853 2.78255 4.76737 0
M  V30 4105 H 371.329 0.998465 4.03943 0
M  V30 4106 H 370.205 0.881663 5.41773 0
M  V30 4107 H 370.466 -0.519052 4.39042 0
M  V30 4108 N 369.525 -1.3858 0.750561 0
M  V30 4109 C 370.472 -2.30483 0.120835 0
M  V30 4110 C 371.442 -1.50022 -0.712923 0
M  V30 4111 O 372.627 -1.78662 -0.669676 0
M  V30 4112 C 369.767 -3.36431 -0.768666 0
M  V30 4113 C 368.88 -4.31927 0.0793922 0
M  V30 4114 C 368.015 -5.24944 -0.81283 0
M  V30 4115 C 367.054 -6.12088 0.0390447 0
M  V30 4116 N 366.191 -6.97412 -0.809969 0
M  V30 4117 H 371.031 -2.83761 0.91015 0
M  V30 4118 H 368.568 -1.39707 0.460463 0
M  V30 4119 H 370.526 -3.96462 -1.29898 0
M  V30 4120 H 369.156 -2.8457 -1.5238 0
M  V30 4121 H 368.208 -3.73382 0.727303 0
M  V30 4122 H 369.52 -4.93319 0.737401 0
M  V30 4123 H 368.674 -5.90078 -1.41042 0
M  V30 4124 H 367.413 -4.63911 -1.50458 0
M  V30 4125 H 366.418 -5.45952 0.649328 0
M  V30 4126 H 367.643 -6.75189 0.727809 0
M  V30 4127 H 365.589 -6.38931 -1.48672 0
M  V30 4128 H 365.506 -7.55712 -0.208789 0
M  V30 4129 H 366.774 -7.66959 -1.39263 0
M  V30 4130 N 371.003 -0.499398 -1.49478 0
M  V30 4131 C 371.913 0.284489 -2.32869 0
M  V30 4132 C 372.929 0.968885 -1.44529 0
M  V30 4133 O 374.105 0.95062 -1.77553 0
M  V30 4134 C 371.17 1.33594 -3.19928 0
M  V30 4135 C 370.231 0.665149 -4.24116 0
M  V30 4136 C 369.464 1.6665 -5.07014 0
M  V30 4137 O 369.687 2.89618 -4.91404 0
M  V30 4138 O 368.621 1.22271 -5.8935 0
M  V30 4139 H 372.447 -0.39802 -3.01081 0
M  V30 4140 H 370.032 -0.260758 -1.47107 0
M  V30 4141 H 371.914 1.94431 -3.73864 0
M  V30 4142 H 370.589 2.0014 -2.54412 0
M  V30 4143 H 369.496 0.0170769 -3.74096 0
M  V30 4144 H 370.829 0.0421555 -4.92182 0
M  V30 4145 N 372.481 1.55866 -0.233164 0
M  V30 4146 C 373.431 2.17442 0.685774 0
M  V30 4147 C 374.415 1.12617 1.14918 0
M  V30 4148 O 375.607 1.3857 1.10124 0
M  V30 4149 C 372.736 2.86685 1.88856 0
M  V30 4150 C 371.822 3.98749 1.4443 0
M  V30 4151 N 372.213 5.00744 0.713364 0
M  V30 4152 C 370.511 4.11052 1.73068 0
M  V30 4153 C 371.212 5.79673 0.485205 0
M  V30 4154 N 370.188 5.33454 1.04536 0
M  V30 4155 H 373.99 2.93659 0.119022 0
M  V30 4156 H 371.504 1.62362 -0.0348995 0
M  V30 4157 H 373.501 3.29218 2.55776 0
M  V30 4158 H 372.161 2.11967 2.45967 0
M  V30 4159 H 373.172 5.16613 0.364861 0
M  V30 4160 H 369.849 3.47495 2.31416 0
M  V30 4161 H 371.239 6.71829 -0.097365 0
M  V30 4162 N 373.959 -0.0401083 1.57549 0
M  V30 4163 C 374.909 -1.05175 2.02292 0
M  V30 4164 C 375.893 -1.32674 0.910294 0
M  V30 4165 O 377.085 -1.32444 1.17421 0
M  V30 4166 C 374.214 -2.35622 2.49674 0
M  V30 4167 C 373.3 -2.11261 3.67736 0
M  V30 4168 N 373.691 -1.56923 4.80842 0
M  V30 4169 C 371.989 -2.41596 3.74897 0
M  V30 4170 C 372.69 -1.48111 5.62528 0
M  V30 4171 N 371.666 -1.95282 5.07312 0
M  V30 4172 H 375.468 -0.625455 2.87168 0
M  V30 4173 H 372.982 -0.246624 1.60516 0
M  V30 4174 H 374.979 -3.08893 2.79983 0
M  V30 4175 H 373.639 -2.7894 1.662 0
M  V30 4176 H 374.65 -1.25345 5.02503 0
M  V30 4177 H 371.327 -2.88064 3.02201 0
M  V30 4178 H 372.717 -1.06683 6.63377 0
M  V30 4179 N 375.437 -1.54477 -0.31217 0
M  V30 4180 C 376.369 -1.81011 -1.40598 0
M  V30 4181 C 377.382 -0.692546 -1.47335 0
M  V30 4182 O 378.571 -0.969847 -1.49854 0
M  V30 4183 C 375.671 -1.92307 -2.79054 0
M  V30 4184 C 374.844 -3.22594 -2.95384 0
M  V30 4185 C 373.903 -3.24448 -4.1427 0
M  V30 4186 O 372.929 -3.98035 -4.06887 0
M  V30 4187 N 374.131 -2.49042 -5.24365 0
M  V30 4188 H 376.896 -2.75408 -1.18196 0
M  V30 4189 H 374.457 -1.53914 -0.502202 0
M  V30 4190 H 376.449 -1.90962 -3.56813 0
M  V30 4191 H 375.019 -1.04955 -2.94454 0
M  V30 4192 H 374.239 -3.36806 -2.04831 0
M  V30 4193 H 375.527 -4.08593 -3.03198 0
M  V30 4194 H 374.925 -1.88867 -5.33241 0
M  V30 4195 H 373.482 -2.53463 -6.005 0
M  V30 4196 N 376.915 0.57481 -1.46744 0
M  V30 4197 C 378.14 1.36341 -1.56288 0
M  V30 4198 C 378.565 1.86954 -0.207347 0
M  V30 4199 O 377.923 1.62006 0.813871 0
M  V30 4200 C 377.971 2.52147 -2.57787 0
M  V30 4201 O 377.075 3.53834 -2.11838 0
M  V30 4202 H 376.416 0.405713 -0.525636 0
M  V30 4203 H 378.946 0.696453 -1.92382 0
M  V30 4204 H 378.956 2.98958 -2.77648 0
M  V30 4205 H 377.631 2.14663 -3.5622 0
M  V30 4206 H 376.208 3.1345 -2.01999 0
M  V30 4207 N 378.394 1.34581 0.820102 0
M  V30 4208 C 379.324 1.29038 1.94606 0
M  V30 4209 C 380.305 0.1673 1.69275 0
M  V30 4210 O 381.49 0.360112 1.90832 0
M  V30 4211 C 378.62 1.04793 3.31113 0
M  V30 4212 C 377.574 2.13597 3.70891 0
M  V30 4213 C 376.9 1.74537 5.05412 0
M  V30 4214 C 378.2 3.55451 3.8269 0
M  V30 4215 H 379.894 2.23248 1.99501 0
M  V30 4216 H 377.44 1.0747 0.958449 0
M  V30 4217 H 379.393 0.995592 4.0947 0
M  V30 4218 H 378.117 0.0702565 3.26524 0
M  V30 4219 H 376.776 2.17905 2.9481 0
M  V30 4220 H 376.424 0.754226 4.97313 0
M  V30 4221 H 376.124 2.47361 5.32997 0
M  V30 4222 H 377.648 1.70803 5.86224 0
M  V30 4223 H 379.062 3.5354 4.51312 0
M  V30 4224 H 377.459 4.26922 4.21732 0
M  V30 4225 H 378.529 3.92587 2.84611 0
M  V30 4226 N 379.872 -1.04064 1.18357 0
M  V30 4227 C 381.149 -1.74252 0.888581 0
M  V30 4228 C 381.529 -2.02138 -0.60856 0
M  V30 4229 O 380.877 -1.66656 -1.56327 0
M  V30 4230 C 381.087 -3.0277 1.73584 0
M  V30 4231 C 382.435 -3.76506 1.96286 0
M  V30 4232 O 383.459 -3.12668 1.70637 0
M  V30 4233 O 382.318 -4.91243 2.39464 0
M  V30 4234 H 379.412 -0.758271 0.330082 0
M  V30 4235 H 381.958 -1.1013 1.2911 0
M  V30 4236 H 380.73 -2.78299 2.75073 0
M  V30 4237 H 380.353 -3.74631 1.33183 0
M  V30 4238 N 381.35 -0.985608 -1.22978 0
M  V30 4239 C 382.761 -0.693593 -1.73338 0
M  V30 4240 C 383.112 0.789935 -1.79595 0
M  V30 4241 O 382.237 1.61771 -1.43733 0
M  V30 4242 C 382.832 -1.25235 -3.14804 0
M  V30 4243 C 381.391 -1.00987 -3.626 0
M  V30 4244 C 380.538 -1.37695 -2.40698 0
M  V30 4245 H 383.489 -1.15884 -1.08428 0
M  V30 4246 H 383.51 -0.627329 -3.75293 0
M  V30 4247 H 383.022 -2.33209 -3.10218 0
M  V30 4248 H 381.123 0.0535565 -3.72562 0
M  V30 4249 H 381.236 -1.66812 -4.49122 0
M  V30 4250 H 379.6 -0.795459 -2.4196 0
M  V30 4251 H 380.383 -2.46657 -2.38779 0
M  V30 4252 N 382.828 1.3818 -0.7579 0
M  V30 4253 C 383.776 2.32277 -0.122482 0
M  V30 4254 C 384.77 1.54238 0.700505 0
M  V30 4255 O 385.976 1.69737 0.599119 0
M  V30 4256 H 382.351 0.751712 -0.0208143 0
M  V30 4257 H 384.322 2.83469 -0.932099 0
M  V30 4258 C 383.071 3.39447 0.753076 0
M  V30 4259 H 382.394 3.99591 0.129184 0
M  V30 4260 H 383.834 4.07684 1.16489 0
M  V30 4261 C 382.293 2.78375 1.8976 0
M  V30 4262 O 382.823 2.68025 2.99208 0
M  V30 4263 N 381.029 2.36121 1.69397 0
M  V30 4264 H 380.576 2.4474 0.803762 0
M  V30 4265 H 380.534 1.95602 2.46145 0
M  V30 4266 N 384.306 0.507319 1.49211 0
M  V30 4267 C 385.546 -0.0332372 2.04373 0
M  V30 4268 C 385.91 -1.33694 1.37804 0
M  V30 4269 O 387.111 -1.96213 1.83722 0
M  V30 4270 C 385.382 -0.17599 3.56966 0
M  V30 4271 S 386.941 -0.669882 4.33657 0
M  V30 4272 H 383.759 0.00123603 0.710999 0
M  V30 4273 H 386.361 0.682725 1.83191 0
M  V30 4274 H 385.065 0.778053 4.02957 0
M  V30 4275 H 384.596 -0.917005 3.82563 0
M  V30 4276 H 386.611 -1.93806 4.56786 0
M  V30 4277 N 385.784 -1.5574 0.241426 0
M  V30 4278 C 387.195 -1.84842 -0.262755 0
M  V30 4279 C 387.546 -1.16317 -1.58003 0
M  V30 4280 O 386.671 -0.439653 -2.11887 0
M  V30 4281 C 387.266 -3.35332 -0.483523 0
M  V30 4282 C 385.825 -3.6468 -0.931977 0
M  V30 4283 C 384.972 -2.77299 -0.0061151 0
M  V30 4284 H 387.923 -1.51761 0.464129 0
M  V30 4285 H 387.944 -3.56615 -1.32688 0
M  V30 4286 H 387.456 -3.85178 0.47537 0
M  V30 4287 H 385.557 -3.20307 -1.90353 0
M  V30 4288 H 385.67 -4.72498 -0.792628 0
M  V30 4289 H 384.034 -2.49408 -0.516503 0
M  V30 4290 H 384.817 -3.2995 0.948052 0
M  V30 4291 N 387.262 0.0317525 -1.57568 0
M  V30 4292 C 388.678 0.38735 -1.54828 0
M  V30 4293 C 388.878 1.7677 -0.967187 0
M  V30 4294 O 387.934 2.45581 -0.587063 0
M  V30 4295 C 389.247 0.291667 -2.99282 0
M  V30 4296 C 390.795 0.368946 -3.10818 0
M  V30 4297 C 391.27 0.302741 -4.56998 0
M  V30 4298 N 392.761 0.361617 -4.61786 0
M  V30 4299 C 393.496 0.333238 -5.72431 0
M  V30 4300 N 392.992 0.257308 -6.92322 0
M  V30 4301 N 394.785 0.382769 -5.60795 0
M  V30 4302 H 386.936 -0.871609 -1.93692 0
M  V30 4303 H 389.199 -0.331161 -0.888277 0
M  V30 4304 H 388.905 -0.656794 -3.45513 0
M  V30 4305 H 388.779 1.08638 -3.61217 0
M  V30 4306 H 391.166 1.30784 -2.64536 0
M  V30 4307 H 391.247 -0.455066 -2.5172 0
M  V30 4308 H 390.891 -0.632473 -5.03947 0
M  V30 4309 H 390.821 1.14482 -5.14005 0
M  V30 4310 H 393.312 0.422923 -3.75526 0
M  V30 4311 H 393.625 0.24068 -7.72425 0
M  V30 4312 H 391.97 0.223396 -6.94641 0
M  V30 4313 H 395.161 0.44006 -4.66027 0
M  V30 4314 H 395.334 0.357184 -6.47015 0
M  V30 4315 N 388.74 1.54641 0.303973 0
M  V30 4316 C 390.017 1.64455 1.05896 0
M  V30 4317 C 390.397 0.490923 2.05312 0
M  V30 4318 O 389.745 -0.512685 2.22674 0
M  V30 4319 C 389.955 3.02331 1.74347 0
M  V30 4320 C 391.303 3.59045 2.26653 0
M  V30 4321 O 392.327 3.04764 1.84384 0
M  V30 4322 O 391.186 4.54081 3.04093 0
M  V30 4323 H 388.28 0.666729 0.489287 0
M  V30 4324 H 390.826 1.66986 0.302298 0
M  V30 4325 H 389.598 3.77734 1.02142 0
M  V30 4326 H 389.221 3.03565 2.56777 0
M  V30 4327 N 390.218 -0.567019 1.47046 0
M  V30 4328 C 391.148 -1.68482 1.61667 0
M  V30 4329 C 392.129 -1.6358 0.466418 0
M  V30 4330 O 393.314 -1.81354 0.694574 0
M  V30 4331 C 390.444 -3.07124 1.62148 0
M  V30 4332 C 389.398 -3.26867 2.76301 0
M  V30 4333 C 388.724 -4.66196 2.61849 0
M  V30 4334 C 390.024 -3.13186 4.17986 0
M  V30 4335 H 391.718 -1.56502 2.5524 0
M  V30 4336 H 389.264 -0.751486 1.22836 0
M  V30 4337 H 391.217 -3.8516 1.70968 0
M  V30 4338 H 389.941 -3.2004 0.651287 0
M  V30 4339 H 388.6 -2.51237 2.66975 0
M  V30 4340 H 388.248 -4.75898 1.62879 0
M  V30 4341 H 387.948 -4.80356 3.38425 0
M  V30 4342 H 389.472 -5.46379 2.72584 0
M  V30 4343 H 390.886 -3.81049 4.2834 0
M  V30 4344 H 389.283 -3.3886 4.95272 0
M  V30 4345 H 390.353 -2.10057 4.3704 0
M  V30 4346 N 391.696 -1.35014 -0.812953 0
M  V30 4347 C 392.924 -1.31031 -1.6012 0
M  V30 4348 C 393.339 0.113558 -1.88458 0
M  V30 4349 O 392.696 1.06363 -1.48301 0
M  V30 4350 C 392.747 -2.10872 -2.93624 0
M  V30 4351 O 392.468 -3.47706 -2.66518 0
M  V30 4352 C 393.969 -2.14401 -3.88004 0
M  V30 4353 H 391.189 -0.45037 -0.497401 0
M  V30 4354 H 393.733 -1.77775 -1.01076 0
M  V30 4355 H 391.888 -1.67744 -3.492 0
M  V30 4356 H 392.302 -3.89097 -3.51715 0
M  V30 4357 H 393.776 -2.74669 -4.78812 0
M  V30 4358 H 394.253 -1.14105 -4.24119 0
M  V30 4359 H 394.859 -2.57662 -3.38364 0
M  V30 4360 N 393.175 1.03435 -1.18907 0
M  V30 4361 C 394.452 1.73778 -0.89781 0
M  V30 4362 C 394.832 2.02458 0.597832 0
M  V30 4363 O 394.18 1.67482 1.55441 0
M  V30 4364 C 394.39 3.01845 -1.75187 0
M  V30 4365 C 395.738 3.7546 -1.9828 0
M  V30 4366 O 396.762 3.11759 -1.72293 0
M  V30 4367 O 395.621 4.89966 -2.42065 0
M  V30 4368 H 392.715 0.75651 -0.334098 0
M  V30 4369 H 395.261 1.09444 -1.29693 0
M  V30 4370 H 394.033 2.76836 -2.76545 0
M  V30 4371 H 393.656 3.73919 -1.35167 0
M  V30 4372 N 394.653 0.992116 1.22453 0
M  V30 4373 C 395.893 0.675727 1.92907 0
M  V30 4374 C 396.257 -0.777762 1.75542 0
M  V30 4375 O 397.458 -1.20553 2.40251 0
M  V30 4376 C 395.729 1.0696 3.4102 0
M  V30 4377 S 397.288 0.871456 4.30059 0
M  V30 4378 H 394.106 0.247089 0.666684 0
M  V30 4379 H 396.708 1.27423 1.48269 0
M  V30 4380 H 395.412 2.12383 3.51172 0
M  V30 4381 H 394.943 0.462858 3.90668 0
M  V30 4382 H 396.958 -0.238436 4.95627 0
M  V30 4383 N 396.131 -1.37776 0.765217 0
M  V30 4384 C 397.061 -2.32945 0.160953 0
M  V30 4385 C 398.042 -1.55454 -0.690516 0
M  V30 4386 O 399.227 -1.83721 -0.629318 0
M  V30 4387 C 396.357 -3.39669 -0.724031 0
M  V30 4388 C 395.311 -4.27992 0.0256173 0
M  V30 4389 C 394.637 -5.25673 -0.978383 0
M  V30 4390 C 395.937 -5.08309 1.20082 0
M  V30 4391 H 397.631 -2.83728 0.955969 0
M  V30 4392 H 395.177 -1.36416 0.461149 0
M  V30 4393 H 397.13 -4.05219 -1.15652 0
M  V30 4394 H 395.854 -2.87396 -1.5515 0
M  V30 4395 H 394.513 -3.63964 0.438812 0
M  V30 4396 H 394.161 -4.69682 -1.80022 0
M  V30 4397 H 393.861 -5.85625 -0.481378 0
M  V30 4398 H 395.385 -5.94098 -1.40995 0
M  V30 4399 H 396.799 -5.67034 0.845307 0
M  V30 4400 H 395.196 -5.77554 1.62947 0
M  V30 4401 H 396.266 -4.41365 2.00811 0
M  V30 4402 N 397.609 -0.515225 -1.4894 0
M  V30 4403 C 398.539 0.244628 -2.32215 0
M  V30 4404 C 399.52 0.949136 -1.41157 0
M  V30 4405 O 400.705 0.937783 -1.70057 0
M  V30 4406 C 397.835 1.30096 -3.22013 0
M  V30 4407 C 396.789 0.715486 -4.21977 0
M  V30 4408 C 396.115 1.87339 -5.00808 0
M  V30 4409 C 397.415 -0.302982 -5.2142 0
M  V30 4410 H 399.109 -0.450501 -2.95991 0
M  V30 4411 H 396.655 -0.218098 -1.42339 0
M  V30 4412 H 398.608 1.84037 -3.79089 0
M  V30 4413 H 397.332 2.02547 -2.56207 0
M  V30 4414 H 395.991 0.197715 -3.66066 0
M  V30 4415 H 395.639 2.58592 -4.31438 0
M  V30 4416 H 395.339 1.48764 -5.68457 0
M  V30 4417 H 396.863 2.41686 -5.60732 0
M  V30 4418 H 398.277 0.148802 -5.73107 0
M  V30 4419 H 396.674 -0.60532 -5.97039 0
M  V30 4420 H 397.744 -1.21395 -4.69459 0
M  V30 4421 N 399.087 1.5561 -0.249682 0
M  V30 4422 C 400.333 1.99306 0.374841 0
M  V30 4423 C 400.666 1.13767 1.57387 0
M  V30 4424 O 399.941 0.201711 1.93451 0
M  V30 4425 C 400.224 3.51507 0.781986 0
M  V30 4426 C 400.077 4.4781 -0.422629 0
M  V30 4427 C 401.396 4.08884 1.62793 0
M  V30 4428 H 398.515 0.724572 0.134773 0
M  V30 4429 H 401.157 1.86719 -0.351549 0
M  V30 4430 H 399.307 3.62363 1.4009 0
M  V30 4431 H 400.979 4.48931 -1.06108 0
M  V30 4432 H 399.222 4.20518 -1.06524 0
M  V30 4433 H 399.893 5.51919 -0.0943766 0
M  V30 4434 H 402.369 4.01147 1.10547 0
M  V30 4435 H 401.245 5.1564 1.88166 0
M  V30 4436 H 401.506 3.57515 2.60068 0
M  V30 4437 N 400.565 -0.0233959 1.57583 0
M  V30 4438 C 401.475 -1.03907 2.10334 0
M  V30 4439 C 402.491 -1.39257 1.04323 0
M  V30 4440 O 403.667 -1.48462 1.36091 0
M  V30 4441 C 400.732 -2.31938 2.57693 0
M  V30 4442 C 399.793 -2.03117 3.78209 0
M  V30 4443 C 399.026 -3.25043 4.233 0
M  V30 4444 O 399.249 -4.35916 3.67876 0
M  V30 4445 O 398.183 -3.10411 5.15683 0
M  V30 4446 H 402.009 -0.620748 2.97288 0
M  V30 4447 H 399.594 -0.240743 1.47448 0
M  V30 4448 H 401.476 -3.07196 2.88458 0
M  V30 4449 H 400.151 -2.73055 1.73847 0
M  V30 4450 H 399.058 -1.25408 3.52454 0
M  V30 4451 H 400.391 -1.66852 4.63056 0
M  V30 4452 N 402.043 -1.548 -0.295768 0
M  V30 4453 C 402.976 -1.81003 -1.38972 0
M  V30 4454 C 403.954 -0.661544 -1.48534 0
M  V30 4455 O 405.138 -0.902074 -1.65514 0
M  V30 4456 C 402.265 -1.95141 -2.76835 0
M  V30 4457 C 401.311 -3.17592 -2.84671 0
M  V30 4458 S 402.144 -4.75531 -2.46232 0
M  V30 4459 C 403.3 -4.92613 -3.86114 0
M  V30 4460 H 403.533 -2.73507 -1.16537 0
M  V30 4461 H 401.066 -1.46278 -0.494168 0
M  V30 4462 H 403.024 -2.03972 -3.56238 0
M  V30 4463 H 401.685 -1.03565 -2.96535 0
M  V30 4464 H 400.878 -3.24303 -3.85803 0
M  V30 4465 H 400.48 -3.07235 -2.13267 0
M  V30 4466 H 402.772 -4.76957 -4.81164 0
M  V30 4467 H 403.715 -5.94698 -3.8437 0
M  V30 4468 H 404.123 -4.2073 -3.76359 0
M  V30 4469 N 403.521 0.559213 -1.47345 0
M  V30 4470 C 404.431 1.69388 -1.62311 0
M  V30 4471 C 405.447 1.6648 -0.505993 0
M  V30 4472 O 406.623 1.85964 -0.773262 0
M  V30 4473 C 403.688 3.05894 -1.63185 0
M  V30 4474 C 402.749 3.19885 -2.86307 0
M  V30 4475 C 401.982 4.49879 -2.87131 0
M  V30 4476 O 402.205 5.35217 -1.97229 0
M  V30 4477 O 401.139 4.67618 -3.78968 0
M  V30 4478 H 404.965 1.59706 -2.58317 0
M  V30 4479 H 402.55 0.728989 -1.30407 0
M  V30 4480 H 404.432 3.87133 -1.66451 0
M  V30 4481 H 403.107 3.15964 -0.70345 0
M  V30 4482 H 402.014 2.38052 -2.88587 0
M  V30 4483 H 403.347 3.14718 -3.78435 0
M  V30 4484 N 404.999 1.35443 0.805782 0
M  V30 4485 C 405.946 1.28431 1.91766 0
M  V30 4486 C 406.916 0.156102 1.65365 0
M  V30 4487 O 408.101 0.339936 1.87747 0
M  V30 4488 C 405.241 1.06301 3.2832 0
M  V30 4489 C 404.354 2.2805 3.66902 0
M  V30 4490 C 403.489 1.99064 4.92491 0
M  V30 4491 C 402.528 3.16863 5.23703 0
M  V30 4492 N 401.665 2.87647 6.40471 0
M  V30 4493 H 406.505 2.23511 1.97096 0
M  V30 4494 H 404.042 1.11105 0.964054 0
M  V30 4495 H 406 0.915012 4.07042 0
M  V30 4496 H 404.63 0.148822 3.22457 0
M  V30 4497 H 403.682 2.53711 2.83434 0
M  V30 4498 H 404.994 3.1601 3.85927 0
M  V30 4499 H 404.148 1.81099 5.7904 0
M  V30 4500 H 402.887 1.0839 4.75503 0
M  V30 4501 H 401.892 3.35404 4.35642 0
M  V30 4502 H 403.117 4.08339 5.4262 0
M  V30 4503 H 401.063 1.99568 6.24907 0
M  V30 4504 H 400.98 3.69141 6.59751 0
M  V30 4505 H 402.248 2.73226 7.30047 0
M  V30 4506 N 406.477 -1.02803 1.19454 0
M  V30 4507 C 407.387 -2.14575 0.948408 0
M  V30 4508 C 408.403 -1.73757 -0.091871 0
M  V30 4509 O 409.579 -2.01185 0.0929654 0
M  V30 4510 C 406.644 -3.43202 0.491265 0
M  V30 4511 C 405.705 -3.98328 1.60103 0
M  V30 4512 C 404.938 -5.20816 1.16561 0
M  V30 4513 O 405.161 -5.70392 0.0295238 0
M  V30 4514 O 404.095 -5.68801 1.96849 0
M  V30 4515 H 407.921 -2.38202 1.88397 0
M  V30 4516 H 405.506 -1.12989 0.977433 0
M  V30 4517 H 407.388 -4.20687 0.245015 0
M  V30 4518 H 406.063 -3.21018 -0.415851 0
M  V30 4519 H 404.97 -3.22174 1.90144 0
M  V30 4520 H 406.303 -4.24879 2.48473 0
M  V30 4521 N 407.956 -0.998596 -1.21925 0
M  V30 4522 C 408.903 -0.553621 -2.24062 0
M  V30 4523 C 409.873 0.416999 -1.6078 0
M  V30 4524 O 411.058 0.320482 -1.88089 0
M  V30 4525 C 408.198 0.119959 -3.44891 0
M  V30 4526 C 407.311 -0.893077 -4.22668 0
M  V30 4527 C 406.446 -0.192424 -5.30851 0
M  V30 4528 C 405.485 -1.19344 -6.00353 0
M  V30 4529 N 404.622 -0.520707 -7.00166 0
M  V30 4530 H 409.462 -1.4293 -2.61486 0
M  V30 4531 H 406.999 -0.715838 -1.28507 0
M  V30 4532 H 408.957 0.527459 -4.13852 0
M  V30 4533 H 407.587 0.959389 -3.08214 0
M  V30 4534 H 406.639 -1.41886 -3.52948 0
M  V30 4535 H 407.951 -1.65512 -4.70539 0
M  V30 4536 H 407.105 0.271515 -6.06092 0
M  V30 4537 H 405.844 0.602075 -4.83969 0
M  V30 4538 H 404.849 -1.66795 -5.23889 0
M  V30 4539 H 406.074 -1.98891 -6.49322 0
M  V30 4540 H 404.02 0.254252 -6.55507 0
M  V30 4541 H 403.937 -1.2211 -7.46073 0
M  V30 4542 H 405.205 -0.0797596 -7.79459 0
M  V30 4543 N 409.434 1.37368 -0.772513 0
M  V30 4544 C 410.384 2.27613 -0.132823 0
M  V30 4545 C 411.368 1.46138 0.673247 0
M  V30 4546 O 412.56 1.68686 0.536095 0
M  V30 4547 C 409.689 3.35122 0.744864 0
M  V30 4548 C 408.775 4.24044 -0.0690771 0
M  V30 4549 N 409.166 4.93355 -1.1151 0
M  V30 4550 C 407.464 4.45731 0.154782 0
M  V30 4551 C 408.165 5.59 -1.60917 0
M  V30 4552 N 407.141 5.35737 -0.921222 0
M  V30 4553 H 410.943 2.78675 -0.933681 0
M  V30 4554 H 408.457 1.50494 -0.610342 0
M  V30 4555 H 410.454 3.98683 1.21892 0
M  V30 4556 H 409.114 2.85616 1.54446 0
M  V30 4557 H 410.125 4.95785 -1.49726 0
M  V30 4558 H 406.802 4.07096 0.926224 0
M  V30 4559 H 408.192 6.24395 -2.48153 0
M  V30 4560 N 410.912 0.523116 1.48665 0
M  V30 4561 C 412.137 -0.0117284 2.07397 0
M  V30 4562 C 412.562 -1.28031 1.37803 0
M  V30 4563 O 411.92 -1.75836 0.441762 0
M  V30 4564 C 411.968 -0.225786 3.59892 0
M  V30 4565 O 411.072 -1.29592 3.91509 0
M  V30 4566 H 410.413 0.0360673 0.66302 0
M  V30 4567 H 412.943 0.729066 1.9117 0
M  V30 4568 H 412.953 -0.450552 4.05505 0
M  V30 4569 H 411.628 0.700944 4.09951 0
M  V30 4570 H 410.205 -1.05436 3.57684 0
M  V30 4571 N 412.39 -1.55475 0.257931 0
M  V30 4572 C 413.353 -2.20551 -0.623706 0
M  V30 4573 C 414.353 -1.17809 -1.09443 0
M  V30 4574 O 415.543 -1.42823 -0.997362 0
M  V30 4575 C 412.675 -2.85784 -1.8585 0
M  V30 4576 H 413.868 -2.99848 -0.0557743 0
M  V30 4577 H 411.421 -1.56298 0.0084422 0
M  V30 4578 H 412.156 -2.10453 -2.46739 0
M  V30 4579 H 411.941 -3.61057 -1.52907 0
M  V30 4580 H 413.431 -3.35553 -2.48584 0
M  V30 4581 N 413.868 0.0150385 -1.57593 0
M  V30 4582 C 414.778 1.02791 -2.10882 0
M  V30 4583 C 415.794 1.38702 -1.0506 0
M  V30 4584 O 416.97 1.47739 -1.36877 0
M  V30 4585 C 414.035 2.30568 -2.58919 0
M  V30 4586 C 413.096 2.01108 -3.79281 0
M  V30 4587 C 412.329 3.22794 -4.25018 0
M  V30 4588 O 412.552 4.33959 -3.70183 0
M  V30 4589 O 411.486 3.07672 -5.17322 0
M  V30 4590 H 415.312 0.604973 -2.97613 0
M  V30 4591 H 412.897 0.23292 -1.47573 0
M  V30 4592 H 414.779 3.05662 -2.90084 0
M  V30 4593 H 413.454 2.72129 -1.75293 0
M  V30 4594 H 412.361 1.23537 -3.53114 0
M  V30 4595 H 413.694 1.64394 -4.63935 0
M  V30 4596 N 415.346 1.54954 0.287554 0
M  V30 4597 C 416.762 1.46469 0.633964 0
M  V30 4598 C 416.962 0.666865 1.90145 0
M  V30 4599 O 416.018 0.179906 2.51858 0
M  V30 4600 C 417.331 2.90556 0.774454 0
M  V30 4601 C 418.879 3.00681 0.869462 0
M  V30 4602 C 419.354 4.45993 1.04184 0
M  V30 4603 N 420.845 4.4976 1.10772 0
M  V30 4604 C 421.58 5.59393 1.25964 0
M  V30 4605 N 421.076 6.78923 1.37968 0
M  V30 4606 N 422.869 5.47107 1.28959 0
M  V30 4607 H 415.02 2.05288 -0.545041 0
M  V30 4608 H 417.283 0.930305 -0.182308 0
M  V30 4609 H 416.989 3.51594 -0.086207 0
M  V30 4610 H 416.863 3.38743 1.6593 0
M  V30 4611 H 419.25 2.39749 1.7206 0
M  V30 4612 H 419.331 2.55769 -0.0396831 0
M  V30 4613 H 418.975 5.07524 0.195422 0
M  V30 4614 H 418.905 4.88548 1.96542 0
M  V30 4615 H 421.396 3.63651 1.02794 0
M  V30 4616 H 421.709 7.58231 1.49353 0
M  V30 4617 H 420.054 6.81763 1.34999 0
M  V30 4618 H 423.245 4.52668 1.19202 0
M  V30 4619 H 423.418 6.32595 1.40455 0
M  V30 4620 N 416.824 -0.551391 1.4764 0
M  V30 4621 C 417.754 -1.66757 1.63445 0
M  V30 4622 C 418.735 -1.63077 0.483742 0
M  V30 4623 O 419.92 -1.80607 0.71377 0
M  V30 4624 C 417.05 -3.05387 1.65396 0
M  V30 4625 C 416.004 -3.23918 2.79752 0
M  V30 4626 C 415.33 -4.63393 2.66779 0
M  V30 4627 C 416.63 -3.08735 4.21284 0
M  V30 4628 H 418.324 -1.53786 2.56886 0
M  V30 4629 H 415.87 -0.738415 1.23626 0
M  V30 4630 H 417.823 -3.83325 1.75043 0
M  V30 4631 H 416.547 -3.19332 0.685195 0
M  V30 4632 H 415.206 -2.48391 2.69625 0
M  V30 4633 H 414.854 -4.74144 1.67918 0
M  V30 4634 H 414.554 -4.7674 3.43501 0
M  V30 4635 H 416.078 -5.43458 2.78364 0
M  V30 4636 H 417.492 -3.76484 4.32357 0
M  V30 4637 H 415.889 -3.33588 4.98838 0
M  V30 4638 H 416.959 -2.0541 4.39243 0
M  V30 4639 N 418.302 -1.35869 -0.798587 0
M  V30 4640 C 419.532 -1.32529 -1.58491 0
M  V30 4641 C 419.94 0.0975405 -1.88948 0
M  V30 4642 O 419.283 1.06224 -1.49874 0
M  V30 4643 C 419.345 -2.07247 -2.9375 0
M  V30 4644 C 419.009 -3.56391 -2.86068 0
M  V30 4645 C 420.006 -4.50824 -2.58947 0
M  V30 4646 C 417.691 -3.9915 -3.04933 0
M  V30 4647 C 419.685 -5.85993 -2.5078 0
M  V30 4648 C 417.372 -5.34413 -2.96389 0
M  V30 4649 C 418.37 -6.27646 -2.69349 0
M  V30 4650 O 418.058 -7.60426 -2.60782 0
M  V30 4651 H 417.79 -0.456529 -0.498556 0
M  V30 4652 H 420.344 -1.79425 -0.999799 0
M  V30 4653 H 418.574 -1.55001 -3.54276 0
M  V30 4654 H 420.263 -1.96883 -3.54954 0
M  V30 4655 H 421.029 -4.19104 -2.44084 0
M  V30 4656 H 416.908 -3.26961 -3.24989 0
M  V30 4657 H 420.452 -6.58735 -2.29595 0
M  V30 4658 H 416.349 -5.65743 -3.10813 0
M  V30 4659 H 417.117 -7.70444 -2.76331 0
M  V30 4660 N 419.78 1.02168 -1.19998 0
M  V30 4661 C 421.008 1.79296 -1.03249 0
M  V30 4662 C 421.423 1.84103 0.418502 0
M  V30 4663 O 420.78 1.29031 1.29063 0
M  V30 4664 C 420.831 3.24007 -1.60319 0
M  V30 4665 O 420.552 3.19512 -2.99739 0
M  V30 4666 C 422.053 4.17704 -1.48453 0
M  V30 4667 H 419.273 0.564016 -0.363493 0
M  V30 4668 H 421.817 1.28639 -1.58973 0
M  V30 4669 H 419.972 3.7183 -1.08727 0
M  V30 4670 H 420.386 4.10306 -3.26725 0
M  V30 4671 H 421.86 5.17104 -1.93153 0
M  V30 4672 H 422.337 4.37029 -0.436193 0
M  V30 4673 H 422.943 3.7576 -1.99211 0
M  V30 4674 N 421.258 1.00505 1.21394 0
M  V30 4675 C 422.191 0.51032 2.22421 0
M  V30 4676 C 423.169 -0.436 1.56645 0
M  V30 4677 O 424.353 -0.358709 1.85055 0
M  V30 4678 C 421.48 -0.258733 3.3771 0
M  V30 4679 C 420.526 0.635395 4.2174 0
M  V30 4680 S 421.359 2.09783 4.92698 0
M  V30 4681 C 422.515 1.33862 6.11418 0
M  V30 4682 H 422.748 1.36637 2.64041 0
M  V30 4683 H 420.281 0.812991 1.31262 0
M  V30 4684 H 422.239 -0.696372 4.0455 0
M  V30 4685 H 420.9 -1.0902 2.94573 0
M  V30 4686 H 420.093 0.0430189 5.03982 0
M  V30 4687 H 419.695 1.01031 3.60095 0
M  V30 4688 H 421.987 0.612541 6.74725 0
M  V30 4689 H 422.93 2.13675 6.75092 0
M  V30 4690 H 423.338 0.846568 5.58116 0
M  V30 4691 N 422.737 -1.36956 0.779787 0
M  V30 4692 C 424.014 -1.93697 0.272156 0
M  V30 4693 C 424.394 -1.71267 -1.23413 0
M  V30 4694 O 423.742 -1.06607 -2.02107 0
M  V30 4695 C 423.952 -3.42812 0.654291 0
M  V30 4696 C 425.3 -4.19921 0.628602 0
M  V30 4697 O 426.324 -3.51209 0.594172 0
M  V30 4698 O 425.183 -5.42465 0.662864 0
M  V30 4699 H 422.277 -0.824447 0.0649286 0
M  V30 4700 H 424.823 -1.46196 0.861682 0
M  V30 4701 H 423.595 -3.52754 1.69353 0
M  V30 4702 H 423.218 -3.97582 0.0381369 0
M  V30 4703 N 424.215 -0.530993 -1.48385 0
M  V30 4704 C 425.463 0.00273189 -2.021 0
M  V30 4705 C 425.784 1.34672 -1.41027 0
M  V30 4706 O 425.054 1.8724 -0.576012 0
M  V30 4707 H 423.634 0.00399774 -0.746989 0
M  V30 4708 H 426.296 -0.695054 -1.82085 0
M  V30 4709 H 425.392 0.11031 -3.11905 0
M  V30 4710 N 425.693 1.55336 -0.266172 0
M  V30 4711 C 426.942 1.98574 0.353749 0
M  V30 4712 C 427.255 1.15789 1.57646 0
M  V30 4713 O 428.461 1.49129 2.26876 0
M  V30 4714 C 426.917 3.53403 0.680747 0
M  V30 4715 C 426.525 4.44953 -0.52165 0
M  V30 4716 C 428.269 4.05251 1.26379 0
M  V30 4717 C 426.176 5.91156 -0.169736 0
M  V30 4718 H 425.106 0.741643 0.135949 0
M  V30 4719 H 427.757 1.79743 -0.369421 0
M  V30 4720 H 426.139 3.68001 1.46257 0
M  V30 4721 H 427.313 4.42121 -1.29869 0
M  V30 4722 H 425.628 4.03691 -1.02093 0
M  V30 4723 H 428.225 5.12021 1.54074 0
M  V30 4724 H 428.568 3.53749 2.19471 0
M  V30 4725 H 429.101 3.94057 0.544447 0
M  V30 4726 H 425.84 6.46736 -1.0683 0
M  V30 4727 H 425.36 5.97079 0.570717 0
M  V30 4728 H 427.039 6.4655 0.241245 0
M  V30 4729 N 427.171 -0.0066808 1.57599 0
M  V30 4730 C 428.399 -0.704087 1.94551 0
M  V30 4731 C 428.814 -1.67677 0.867746 0
M  V30 4732 O 428.171 -1.8185 -0.153925 0
M  V30 4733 C 428.222 -1.44177 3.31505 0
M  V30 4734 O 427.943 -0.508097 4.35144 0
M  V30 4735 C 429.444 -2.23429 3.82876 0
M  V30 4736 H 426.664 -0.196523 0.641576 0
M  V30 4737 H 429.208 0.042453 2.04456 0
M  V30 4738 H 427.363 -2.13999 3.22929 0
M  V30 4739 H 427.777 -1.02782 5.14331 0
M  V30 4740 H 429.251 -2.70552 4.8115 0
M  V30 4741 H 429.728 -3.05818 3.15233 0
M  V30 4742 H 430.334 -1.58636 3.94607 0
M  V30 4743 N 428.649 -1.55105 -0.279332 0
M  V30 4744 C 429.895 -1.75672 -1.01327 0
M  V30 4745 C 430.228 -0.552739 -1.86168 0
M  V30 4746 O 429.503 0.449827 -1.89227 0
M  V30 4747 C 429.786 -3.05825 -1.90114 0
M  V30 4748 C 429.639 -4.36565 -1.08309 0
M  V30 4749 C 430.958 -3.31975 -2.8893 0
M  V30 4750 H 428.077 -0.639149 -0.366957 0
M  V30 4751 H 430.719 -1.87833 -0.286154 0
M  V30 4752 H 428.869 -2.95588 -2.52111 0
M  V30 4753 H 430.541 -4.58751 -0.484314 0
M  V30 4754 H 428.784 -4.32076 -0.386362 0
M  V30 4755 H 429.455 -5.23946 -1.73737 0
M  V30 4756 H 431.931 -3.41963 -2.37067 0
M  V30 4757 H 430.807 -4.2432 -3.48201 0
M  V30 4758 H 431.068 -2.51309 -3.63725 0
M  V30 4759 N 430.127 0.543554 -1.4793 0
M  V30 4760 C 431.355 1.32516 -1.58894 0
M  V30 4761 C 431.77 1.87215 -0.244131 0
M  V30 4762 O 431.127 1.65709 0.764652 0
M  V30 4763 C 431.178 2.48554 -2.62494 0
M  V30 4764 O 430.899 1.96112 -3.91755 0
M  V30 4765 C 432.4 3.40572 -2.8377 0
M  V30 4766 H 429.62 0.403472 -0.536145 0
M  V30 4767 H 432.164 0.657106 -1.93655 0
M  V30 4768 H 430.319 3.1127 -2.30629 0
M  V30 4769 H 430.733 2.71967 -4.4848 0
M  V30 4770 H 432.207 4.18375 -3.60093 0
M  V30 4771 H 432.684 3.94965 -1.92092 0
M  V30 4772 H 433.29 2.8366 -3.16887 0
M  V30 4773 N 431.605 1.3629 0.791371 0
M  V30 4774 C 432.851 1.30605 1.55146 0
M  V30 4775 C 433.184 -0.115042 1.93859 0
M  V30 4776 O 432.459 -1.06798 1.62556 0
M  V30 4777 C 432.742 2.22692 2.82985 0
M  V30 4778 C 432.595 3.73489 2.50651 0
M  V30 4779 C 433.914 2.13588 3.84796 0
M  V30 4780 H 431.033 0.475761 0.562868 0
M  V30 4781 H 433.675 1.66825 0.909358 0
M  V30 4782 H 431.825 1.91933 3.37778 0
M  V30 4783 H 433.497 4.14758 2.01924 0
M  V30 4784 H 431.74 3.93021 1.83622 0
M  V30 4785 H 432.411 4.3333 3.41949 0
M  V30 4786 H 434.887 2.40659 3.39445 0
M  V30 4787 H 433.763 2.80195 4.71998 0
M  V30 4788 H 434.024 1.12256 4.27611 0
M  V30 4789 N 433.083 -1.0153 1.20538 0
M  V30 4790 C 434.046 -2.0826 0.957098 0
M  V30 4791 C 435.046 -1.60657 -0.0678655 0
M  V30 4792 O 436.236 -1.73385 0.168332 0
M  V30 4793 C 433.368 -3.38033 0.441188 0
M  V30 4794 H 434.561 -2.31719 1.90384 0
M  V30 4795 H 432.114 -1.1835 1.02093 0
M  V30 4796 H 432.849 -3.20249 -0.510961 0
M  V30 4797 H 432.634 -3.73911 1.18038 0
M  V30 4798 H 434.124 -4.16613 0.287009 0
M  V30 4799 N 434.561 -1.01147 -1.20859 0
M  V30 4800 C 435.838 -0.613136 -1.85742 0
M  V30 4801 C 436.218 0.909004 -1.90526 0
M  V30 4802 O 435.566 1.79862 -1.40932 0
M  V30 4803 C 435.776 -1.255 -3.25654 0
M  V30 4804 C 437.124 -1.3672 -4.01986 0
M  V30 4805 O 438.148 -1.21082 -3.34989 0
M  V30 4806 O 437.007 -1.6194 -5.21956 0
M  V30 4807 H 434.101 -0.210878 -0.799662 0
M  V30 4808 H 436.647 -1.10853 -1.2849 0
M  V30 4809 H 435.419 -2.29532 -3.16908 0
M  V30 4810 H 435.042 -0.746369 -3.90532 0
M  V30 4811 N 436.039 1.36541 -0.78704 0
M  V30 4812 C 436.969 2.32659 -0.197992 0
M  V30 4813 C 437.95 1.56533 0.665697 0
M  V30 4814 O 439.135 1.84698 0.60001 0
M  V30 4815 C 436.265 3.40778 0.669901 0
M  V30 4816 C 435.219 4.27897 -0.0937039 0
M  V30 4817 C 434.545 5.27163 0.894629 0
M  V30 4818 C 435.845 5.06334 -1.28154 0
M  V30 4819 H 437.539 2.82171 -1.00099 0
M  V30 4820 H 435.085 1.35665 -0.482793 0
M  V30 4821 H 437.038 4.07008 1.09191 0
M  V30 4822 H 435.762 2.89827 1.50558 0
M  V30 4823 H 434.421 3.6322 -0.49666 0
M  V30 4824 H 434.069 4.72486 1.72527 0
M  V30 4825 H 433.769 5.86317 0.388149 0
M  V30 4826 H 435.293 5.96266 1.31525 0
M  V30 4827 H 436.707 5.65617 -0.93541 0
M  V30 4828 H 435.104 5.74888 -1.72115 0
M  V30 4829 H 436.174 4.38114 -2.07807 0
M  V30 4830 N 437.518 0.538854 1.48102 0
M  V30 4831 C 438.765 0.0080018 2.02498 0
M  V30 4832 C 439.093 -1.33437 1.41509 0
M  V30 4833 O 438.348 -1.87709 0.553507 0
M  V30 4834 C 438.647 -0.153808 3.57069 0
M  V30 4835 C 438.313 1.11533 4.36888 0
M  V30 4836 C 436.975 1.46314 4.58417 0
M  V30 4837 C 439.327 1.95718 4.83057 0
M  V30 4838 C 436.655 2.6516 5.23361 0
M  V30 4839 C 439.007 3.13751 5.49312 0
M  V30 4840 C 437.671 3.48866 5.69077 0
M  V30 4841 H 436.941 0.00292807 0.740994 0
M  V30 4842 H 439.588 0.706668 1.77984 0
M  V30 4843 H 437.893 -0.935309 3.80472 0
M  V30 4844 H 439.59 -0.579607 3.96789 0
M  V30 4845 H 436.18 0.834484 4.20398 0
M  V30 4846 H 440.364 1.70158 4.66219 0
M  V30 4847 H 435.62 2.92558 5.36861 0
M  V30 4848 H 439.794 3.79282 5.84053 0
M  V30 4849 H 437.421 4.41054 6.19173 0
M  V30 4850 N 438.996 -1.55193 0.274407 0
M  V30 4851 C 440.243 -1.99581 -0.342579 0
M  V30 4852 C 440.571 -1.1628 -1.55914 0
M  V30 4853 O 439.826 -0.22029 -1.94456 0
M  V30 4854 C 440.125 -3.49019 -0.769458 0
M  V30 4855 C 439.791 -4.49598 0.342389 0
M  V30 4856 C 438.453 -4.76821 0.647686 0
M  V30 4857 C 440.805 -5.0964 1.09163 0
M  V30 4858 C 438.133 -5.61354 1.70581 0
M  V30 4859 C 440.485 -5.95323 2.13948 0
M  V30 4860 C 439.149 -6.20867 2.45113 0
M  V30 4861 H 438.419 -0.730319 -0.125358 0
M  V30 4862 H 441.066 -1.87529 0.387971 0
M  V30 4863 H 439.371 -3.58544 -1.57967 0
M  V30 4864 H 441.068 -3.8077 -1.25757 0
M  V30 4865 H 437.658 -4.28496 0.094318 0
M  V30 4866 H 441.842 -4.88632 0.869024 0
M  V30 4867 H 437.098 -5.79392 1.9523 0
M  V30 4868 H 441.272 -6.40881 2.72478 0
M  V30 4869 H 438.899 -6.86162 3.27239 0
M  V30 4870 N 440.474 -0.00167713 -1.576 0
M  V30 4871 C 441.437 0.974046 -2.07473 0
M  V30 4872 C 442.437 1.27143 -0.984444 0
M  V30 4873 O 443.627 1.21633 -1.24703 0
M  V30 4874 C 440.759 2.29849 -2.51759 0
M  V30 4875 H 441.952 0.54262 -2.9495 0
M  V30 4876 H 439.505 0.245829 -1.54355 0
M  V30 4877 H 440.24 2.77677 -1.67529 0
M  V30 4878 H 440.025 2.09584 -3.31386 0
M  V30 4879 H 441.515 2.9984 -2.90664 0
M  V30 4880 N 441.952 1.55251 0.271103 0
M  V30 4881 C 443.2 1.75599 1.00047 0
M  V30 4882 C 443.521 0.561188 1.8675 0
M  V30 4883 O 442.791 -0.423846 1.9126 0
M  V30 4884 H 441.371 0.647562 0.372387 0
M  V30 4885 H 444.033 1.92656 0.294876 0
M  V30 4886 H 443.129 2.65766 1.6363 0
M  V30 4887 N 443.43 -0.535701 1.48216 0
M  V30 4888 C 444.658 -1.31671 1.59594 0
M  V30 4889 C 445.073 -1.87083 0.254056 0
M  V30 4890 O 444.43 -1.66112 -0.755854 0
M  V30 4891 C 444.481 -2.47158 2.63809 0
M  V30 4892 O 444.202 -1.94032 3.92789 0
M  V30 4893 C 445.703 -3.39062 2.85573 0
M  V30 4894 H 442.923 -0.400623 0.538277 0
M  V30 4895 H 445.467 -0.646827 1.94001 0
M  V30 4896 H 443.622 -3.10043 2.32276 0
M  V30 4897 H 444.036 -2.69585 4.49916 0
M  V30 4898 H 445.51 -4.16459 3.62306 0
M  V30 4899 H 445.987 -3.93941 1.94184 0
M  V30 4900 H 446.593 -2.81975 3.18387 0
M  V30 4901 N 444.908 -1.36708 -0.784132 0
M  V30 4902 C 445.818 -1.3363 -1.92822 0
M  V30 4903 C 446.834 -0.237686 -1.72369 0
M  V30 4904 O 448.01 -0.470962 -1.95816 0
M  V30 4905 C 445.075 -1.13011 -3.27764 0
M  V30 4906 C 444.136 -2.32397 -3.60957 0
M  V30 4907 C 443.369 -2.12752 -4.89461 0
M  V30 4908 O 443.592 -1.10541 -5.59586 0
M  V30 4909 O 442.526 -3.00653 -5.21432 0
M  V30 4910 H 446.352 -2.29964 -1.98369 0
M  V30 4911 H 443.937 -1.1731 -0.925136 0
M  V30 4912 H 445.819 -1.03451 -4.08504 0
M  V30 4913 H 444.494 -0.19743 -3.23097 0
M  V30 4914 H 443.401 -2.47527 -2.80502 0
M  V30 4915 H 444.734 -3.2419 -3.70354 0
M  V30 4916 N 446.386 1.0089 -1.21074 0
M  V30 4917 C 447.614 1.78191 -1.05145 0
M  V30 4918 C 448.029 1.84537 0.398952 0
M  V30 4919 O 447.386 1.30393 1.27687 0
M  V30 4920 C 447.437 3.22288 -1.63746 0
M  V30 4921 O 447.158 3.16315 -3.03111 0
M  V30 4922 C 448.659 4.16106 -1.52875 0
M  V30 4923 H 445.879 0.560129 -0.369454 0
M  V30 4924 H 448.423 1.26945 -1.60328 0
M  V30 4925 H 446.578 3.70655 -1.12664 0
M  V30 4926 H 446.992 4.06817 -3.31059 0
M  V30 4927 H 448.466 5.15026 -1.98626 0
M  V30 4928 H 448.943 4.36541 -0.482521 0
M  V30 4929 H 449.549 3.73625 -2.03185 0
M  V30 4930 N 447.864 1.01787 1.20321 0
M  V30 4931 C 449.092 0.727194 1.937 0
M  V30 4932 C 449.507 -0.712305 1.74848 0
M  V30 4933 O 448.864 -1.48327 1.06327 0
M  V30 4934 C 448.915 1.05497 3.45764 0
M  V30 4935 O 448.636 2.43794 3.64 0
M  V30 4936 C 450.137 0.785534 4.36285 0
M  V30 4937 H 447.357 0.266939 0.615617 0
M  V30 4938 H 449.901 1.35939 1.52777 0
M  V30 4939 H 448.056 0.468158 3.84561 0
M  V30 4940 H 448.47 2.55656 4.57974 0
M  V30 4941 H 449.944 1.06495 5.4163 0
M  V30 4942 H 450.421 -0.280273 4.38305 0
M  V30 4943 H 451.027 1.35456 4.03152 0
M  V30 4944 N 449.342 -1.36122 0.79427 0
M  V30 4945 C 450.567 -2.03891 0.379871 0
M  V30 4946 C 450.992 -1.59488 -0.997251 0
M  V30 4947 O 450.35 -0.765652 -1.64339 0
M  V30 4948 C 450.398 -3.57687 0.457442 0
M  V30 4949 O 449.502 -4.08931 -0.5338 0
M  V30 4950 H 448.843 -0.6443 0.160541 0
M  V30 4951 H 451.373 -1.73976 1.07673 0
M  V30 4952 H 451.383 -4.06721 0.322792 0
M  V30 4953 H 450.058 -3.89357 1.46199 0
M  V30 4954 H 448.635 -3.71154 -0.360409 0
M  V30 4955 N 450.82 -0.546701 -1.47814 0
M  V30 4956 C 452.048 -0.0232857 -2.06887 0
M  V30 4957 C 452.463 1.26571 -1.4009 0
M  V30 4958 O 451.82 1.7569 -0.493906 0
M  V30 4959 C 451.871 0.186975 -3.61016 0
M  V30 4960 O 451.592 -1.05097 -4.25307 0
M  V30 4961 C 453.093 0.748872 -4.36929 0
M  V30 4962 H 450.313 -0.0410763 -0.669742 0
M  V30 4963 H 452.857 -0.757117 -1.89968 0
M  V30 4964 H 451.012 0.870903 -3.77484 0
M  V30 4965 H 451.426 -0.842121 -5.17695 0
M  V30 4966 H 452.9 0.845334 -5.45489 0
M  V30 4967 H 453.377 1.75772 -4.02493 0
M  V30 4968 H 453.983 0.100979 -4.2518 0
M  V30 4969 N 452.299 1.55045 -0.282633 0
M  V30 4970 C 453.527 2.04168 0.33512 0
M  V30 4971 C 453.942 1.16071 1.48906 0
M  V30 4972 O 453.299 0.182391 1.81586 0
M  V30 4973 C 453.35 3.52332 0.808957 0
M  V30 4974 O 453.071 4.37078 -0.299038 0
M  V30 4975 C 454.572 4.17375 1.49375 0
M  V30 4976 H 451.792 0.666744 0.0754543 0
M  V30 4977 H 454.336 2.00205 -0.416918 0
M  V30 4978 H 452.491 3.56715 1.51106 0
M  V30 4979 H 452.905 5.24458 0.0665514 0
M  V30 4980 H 454.379 5.22627 1.77664 0
M  V30 4981 H 454.856 3.65999 2.42778 0
M  V30 4982 H 455.462 4.17016 0.835305 0
M  V30 4983 N 453.777 0.010035 1.57597 0
M  V30 4984 C 454.707 -0.976857 2.12084 0
M  V30 4985 C 455.688 -1.35191 1.03235 0
M  V30 4986 O 456.873 -1.43389 1.3097 0
M  V30 4987 C 454.003 -2.26548 2.63236 0
M  V30 4988 C 452.957 -2.03175 3.76701 0
M  V30 4989 C 452.283 -3.38138 4.14206 0
M  V30 4990 C 453.583 -1.38625 5.03568 0
M  V30 4991 H 455.277 -0.523145 2.94794 0
M  V30 4992 H 452.823 -0.250195 1.4181 0
M  V30 4993 H 454.776 -2.95952 2.99984 0
M  V30 4994 H 453.5 -2.74051 1.77661 0
M  V30 4995 H 452.159 -1.36195 3.40362 0
M  V30 4996 H 451.807 -3.83363 3.25641 0
M  V30 4997 H 451.507 -3.23312 4.90656 0
M  V30 4998 H 453.031 -4.08841 4.53521 0
M  V30 4999 H 454.445 -1.98 5.38023 0
M  V30 5000 H 452.842 -1.34256 5.84889 0
M  V30 5001 H 453.912 -0.356722 4.83586 0
M  V30 5002 N 455.255 -1.55392 -0.262866 0
M  V30 5003 C 456.671 -1.47459 -0.610582 0
M  V30 5004 C 456.871 -0.697031 -1.8906 0
M  V30 5005 O 455.927 -0.219952 -2.5154 0
M  V30 5006 C 457.24 -2.91751 -0.728131 0
M  V30 5007 C 458.788 -3.02027 -0.821517 0
M  V30 5008 C 459.263 -4.47594 -0.97076 0
M  V30 5009 N 460.754 -4.51465 -1.03603 0
M  V30 5010 C 461.489 -5.61326 -1.17049 0
M  V30 5011 N 460.985 -6.81032 -1.2715 0
M  V30 5012 N 462.778 -5.49089 -1.20239 0
M  V30 5013 H 454.929 -2.04395 0.577632 0
M  V30 5014 H 457.192 -0.927287 0.197086 0
M  V30 5015 H 456.898 -3.51413 0.142132 0
M  V30 5016 H 456.772 -3.4134 -1.6052 0
M  V30 5017 H 459.159 -2.42456 -1.68224 0
M  V30 5018 H 459.24 -2.55674 0.0803688 0
M  V30 5019 H 458.884 -5.07771 -0.114655 0
M  V30 5020 H 458.814 -4.91613 -1.88745 0
M  V30 5021 H 461.305 -3.6524 -0.96996 0
M  V30 5022 H 461.618 -7.60511 -1.37271 0
M  V30 5023 H 459.963 -6.83824 -1.24136 0
M  V30 5024 H 463.154 -4.54507 -1.11985 0
M  V30 5025 H 463.327 -6.34749 -1.30373 0
M  V30 5026 N 456.733 0.527833 -1.48498 0
M  V30 5027 C 457.963 1.30633 -1.60058 0
M  V30 5028 C 458.371 1.87394 -0.260786 0
M  V30 5029 O 457.714 1.67227 0.760317 0
M  V30 5030 C 457.776 2.49361 -2.58958 0
M  V30 5031 C 457.44 2.13671 -4.03972 0
M  V30 5032 C 458.437 1.69217 -4.91591 0
M  V30 5033 C 456.122 2.24129 -4.49524 0
M  V30 5034 C 458.116 1.35689 -6.2279 0
M  V30 5035 C 455.803 1.90212 -5.80743 0
M  V30 5036 C 456.801 1.46063 -6.67199 0
M  V30 5037 O 456.489 1.12593 -7.95976 0
M  V30 5038 H 456.221 0.403444 -0.54241 0
M  V30 5039 H 458.775 0.643233 -1.95068 0
M  V30 5040 H 457.005 3.18659 -2.19073 0
M  V30 5041 H 458.694 3.11421 -2.6033 0
M  V30 5042 H 459.46 1.60607 -4.57636 0
M  V30 5043 H 455.339 2.57447 -3.82416 0
M  V30 5044 H 458.883 1.01157 -6.90227 0
M  V30 5045 H 454.78 1.98464 -6.14233 0
M  V30 5046 H 455.548 1.25972 -8.08748 0
M  V30 5047 N 458.211 1.37122 0.776871 0
M  V30 5048 C 459.459 1.31787 1.53221 0
M  V30 5049 C 459.78 -0.0987589 1.9475 0
M  V30 5050 O 459.05 -1.0417 1.65908 0
M  V30 5051 H 457.63 0.484839 0.568278 0
M  V30 5052 H 460.292 1.71556 0.924917 0
M  V30 5053 H 459.388 1.95355 2.43398 0
M  V30 5054 N 459.689 -1.00246 1.21608 0
M  V30 5055 C 460.619 -2.10921 1.00172 0
M  V30 5056 C 461.6 -1.69938 -0.0741587 0
M  V30 5057 O 462.785 -1.94009 0.0861753 0
M  V30 5058 C 459.915 -3.42618 0.568355 0
M  V30 5059 C 458.869 -3.97407 1.58909 0
M  V30 5060 C 458.195 -5.25038 1.01187 0
M  V30 5061 C 459.495 -4.2918 2.97661 0
M  V30 5062 H 461.189 -2.29112 1.92739 0
M  V30 5063 H 458.735 -1.10101 0.928102 0
M  V30 5064 H 460.688 -4.19444 0.405555 0
M  V30 5065 H 459.412 -3.24227 -0.392961 0
M  V30 5066 H 458.071 -3.22703 1.73949 0
M  V30 5067 H 457.719 -5.02982 0.0421965 0
M  V30 5068 H 457.419 -5.62661 1.6937 0
M  V30 5069 H 458.943 -6.04507 0.860448 0
M  V30 5070 H 460.357 -4.96839 2.86049 0
M  V30 5071 H 458.754 -4.77952 3.6288 0
M  V30 5072 H 459.824 -3.3735 3.48315 0
M  V30 5073 N 461.167 -1.02423 -1.1978 0
M  V30 5074 C 462.097 -0.62157 -2.25075 0
M  V30 5075 C 463.078 0.367148 -1.6609 0
M  V30 5076 O 464.263 0.250892 -1.92573 0
M  V30 5077 C 461.393 0.0331826 -3.47284 0
M  V30 5078 C 460.347 -0.877323 -4.18912 0
M  V30 5079 C 459.673 -0.0879296 -5.34628 0
M  V30 5080 C 460.973 -2.18892 -4.74219 0
M  V30 5081 H 462.667 -1.50179 -2.59011 0
M  V30 5082 H 460.213 -0.723547 -1.24502 0
M  V30 5083 H 462.166 0.326488 -4.20133 0
M  V30 5084 H 460.89 0.948164 -3.12534 0
M  V30 5085 H 459.549 -1.15475 -3.47938 0
M  V30 5086 H 459.197 0.828941 -4.96123 0
M  V30 5087 H 458.897 -0.694359 -5.83483 0
M  V30 5088 H 460.421 0.198743 -6.10276 0
M  V30 5089 H 461.835 -1.95746 -5.38847 0
M  V30 5090 H 460.232 -2.74686 -5.33542 0
M  V30 5091 H 461.302 -2.84674 -3.92541 0
M  V30 5092 N 462.645 1.35699 -0.801477 0
M  V30 5093 C 463.894 1.98165 -0.375979 0
M  V30 5094 C 464.207 1.64306 1.06127 0
M  V30 5095 O 465.413 2.20097 1.58964 0
M  V30 5096 C 463.869 3.54497 -0.621305 0
M  V30 5097 C 463.477 3.9727 -2.07076 0
M  V30 5098 C 465.221 4.23697 -0.26091 0
M  V30 5099 C 463.128 5.46427 -2.26211 0
M  V30 5100 H 462.058 0.741478 -0.136844 0
M  V30 5101 H 464.709 1.54834 -0.984814 0
M  V30 5102 H 463.091 3.95958 0.0574112 0
M  V30 5103 H 464.265 3.66974 -2.78687 0
M  V30 5104 H 462.58 3.40943 -2.39054 0
M  V30 5105 H 465.177 5.33334 -0.381994 0
M  V30 5106 H 465.52 4.0869 0.792344 0
M  V30 5107 H 466.053 3.87639 -0.893339 0
M  V30 5108 H 462.792 5.66396 -3.29963 0
M  V30 5109 H 462.312 5.78309 -1.59119 0
M  V30 5110 H 463.991 6.12819 -2.07513 0
M  V30 5111 N 464.123 0.554532 1.47522 0
M  V30 5112 C 465.053 -0.182974 2.32782 0
M  V30 5113 C 466.034 -0.911377 1.43624 0
M  V30 5114 O 467.219 -0.892366 1.72483 0
M  V30 5115 C 464.349 -1.21513 3.25349 0
M  V30 5116 C 463.303 -0.603355 4.23726 0
M  V30 5117 C 462.629 -1.73995 5.05598 0
M  V30 5118 C 463.929 0.441121 5.20434 0
M  V30 5119 H 465.623 0.52882 2.94693 0
M  V30 5120 H 463.169 0.255759 1.41711 0
M  V30 5121 H 465.122 -1.73922 3.83835 0
M  V30 5122 H 463.846 -1.95683 2.61487 0
M  V30 5123 H 462.505 -0.10059 3.66462 0
M  V30 5124 H 462.153 -2.47063 4.38143 0
M  V30 5125 H 461.853 -1.3364 5.72201 0
M  V30 5126 H 463.377 -2.26735 5.66942 0
M  V30 5127 H 464.791 0.00319931 5.733 0
M  V30 5128 H 463.188 0.763402 5.95224 0
M  V30 5129 H 464.258 1.33799 4.66075 0
M  V30 5130 N 465.601 -1.54893 0.290851 0
M  V30 5131 C 466.534 -2.19289 -0.631489 0
M  V30 5132 C 467.512 -1.15893 -1.14051 0
M  V30 5133 O 468.696 -1.4449 -1.21058 0
M  V30 5134 C 465.823 -2.82866 -1.86291 0
M  V30 5135 C 464.869 -3.997 -1.48801 0
M  V30 5136 S 465.702 -5.32641 -0.552644 0
M  V30 5137 C 466.858 -5.99696 -1.79209 0
M  V30 5138 H 467.091 -2.9718 -0.0843791 0
M  V30 5139 H 464.624 -1.54218 0.075031 0
M  V30 5140 H 466.582 -3.20124 -2.56964 0
M  V30 5141 H 465.243 -2.04839 -2.38117 0
M  V30 5142 H 464.436 -4.42932 -2.40473 0
M  V30 5143 H 464.038 -3.63947 -0.861321 0
M  V30 5144 H 466.33 -6.19886 -2.734 0
M  V30 5145 H 467.273 -6.94071 -1.40251 0
M  V30 5146 H 467.681 -5.29226 -1.96419 0
M  V30 5147 N 467.08 -0.0183926 -1.57589 0
M  V30 5148 C 468.027 0.967022 -2.09565 0
M  V30 5149 C 468.997 1.32983 -0.995225 0
M  V30 5150 O 470.182 1.42501 -1.26878 0
M  V30 5151 C 467.322 2.24772 -2.61861 0
M  V30 5152 C 466.435 1.94232 -3.85873 0
M  V30 5153 C 465.57 3.16518 -4.26603 0
M  V30 5154 C 464.609 2.81748 -5.43401 0
M  V30 5155 N 463.746 3.96626 -5.79338 0
M  V30 5156 H 468.586 0.516874 -2.93483 0
M  V30 5157 H 466.123 0.243544 -1.4507 0
M  V30 5158 H 468.081 2.99667 -2.90268 0
M  V30 5159 H 466.711 2.67423 -1.8079 0
M  V30 5160 H 465.763 1.09625 -3.64262 0
M  V30 5161 H 467.075 1.64616 -4.70853 0
M  V30 5162 H 466.229 3.99743 -4.56389 0
M  V30 5163 H 464.968 3.49286 -3.40368 0
M  V30 5164 H 463.973 1.96933 -5.1332 0
M  V30 5165 H 465.198 2.50207 -6.31327 0
M  V30 5166 H 463.144 4.29257 -4.96059 0
M  V30 5167 H 463.061 3.70598 -6.58933 0
M  V30 5168 H 464.329 4.80586 -6.13724 0
M  V30 5169 N 468.558 1.5553 0.254621 0
M  V30 5170 C 469.788 1.80784 1.00004 0
M  V30 5171 C 470.196 0.59071 1.79742 0
M  V30 5172 O 469.539 -0.449988 1.78103 0
M  V30 5173 C 469.601 2.99268 1.99196 0
M  V30 5174 C 469.265 4.35595 1.38224 0
M  V30 5175 C 470.262 5.13884 0.788611 0
M  V30 5176 C 467.947 4.82281 1.40393 0
M  V30 5177 C 469.941 6.37004 0.224783 0
M  V30 5178 C 467.628 6.05351 0.836243 0
M  V30 5179 C 468.626 6.82551 0.24769 0
M  V30 5180 O 468.314 8.03297 -0.311249 0
M  V30 5181 H 468.046 0.60565 0.300274 0
M  V30 5182 H 470.6 2.03411 0.285143 0
M  V30 5183 H 468.83 2.72377 2.74496 0
M  V30 5184 H 470.519 3.11682 2.60018 0
M  V30 5185 H 471.285 4.78938 0.764423 0
M  V30 5186 H 467.164 4.22189 1.85142 0
M  V30 5187 H 470.708 6.97203 -0.235235 0
M  V30 5188 H 466.605 6.39776 0.857733 0
M  V30 5189 H 467.373 8.1825 -0.20237 0
M  V30 5190 N 470.036 -0.519951 1.48776 0
M  V30 5191 C 471.447 -1.10177 1.50725 0
M  V30 5192 C 471.798 -1.94153 0.282678 0
M  V30 5193 O 470.923 -2.07645 -0.609298 0
M  V30 5194 C 471.518 -2.00482 2.73116 0
M  V30 5195 C 470.077 -2.53862 2.77905 0
M  V30 5196 C 469.224 -1.31047 2.44381 0
M  V30 5197 H 472.175 -0.30473 1.55747 0
M  V30 5198 H 472.196 -2.8491 2.52203 0
M  V30 5199 H 471.708 -1.39335 3.62225 0
M  V30 5200 H 469.809 -3.18702 1.93029 0
M  V30 5201 H 469.922 -2.9231 3.79594 0
M  V30 5202 H 468.286 -1.62953 1.95751 0
M  V30 5203 H 469.069 -0.71637 3.35743 0
M  V30 5204 N 471.514 -1.37532 -0.769588 0
M  V30 5205 C 472.424 -1.35668 -1.91393 0
M  V30 5206 C 473.44 -0.255954 -1.72107 0
M  V30 5207 O 474.616 -0.491704 -1.95305 0
M  V30 5208 C 471.681 -1.16481 -3.26547 0
M  V30 5209 C 470.742 -2.36212 -3.58472 0
M  V30 5210 C 469.975 -2.17932 -4.87177 0
M  V30 5211 O 470.198 -1.1647 -5.58382 0
M  V30 5212 O 469.132 -3.06167 -5.18214 0
M  V30 5213 H 472.958 -2.32055 -1.95918 0
M  V30 5214 H 470.543 -1.18284 -0.912641 0
M  V30 5215 H 472.425 -1.07778 -4.07384 0
M  V30 5216 H 471.1 -0.231687 -3.2287 0
M  V30 5217 H 470.007 -2.50488 -2.77861 0
M  V30 5218 H 471.34 -3.281 -3.66894 0
M  V30 5219 N 472.992 0.995999 -1.22138 0
M  V30 5220 C 474.241 1.72928 -1.03821 0
M  V30 5221 C 474.554 1.90872 0.427444 0
M  V30 5222 O 475.76 2.61496 0.730212 0
M  V30 5223 C 474.216 3.11124 -1.80913 0
M  V30 5224 C 473.824 3.01122 -3.31707 0
M  V30 5225 C 475.568 3.8852 -1.71035 0
M  V30 5226 C 473.475 4.34453 -4.01253 0
M  V30 5227 H 472.405 0.648376 -0.384869 0
M  V30 5228 H 475.056 1.11213 -1.45959 0
M  V30 5229 H 473.438 3.73503 -1.31573 0
M  V30 5230 H 474.612 2.47926 -3.88419 0
M  V30 5231 H 472.927 2.3721 -3.42228 0
M  V30 5232 H 475.524 4.872 -2.20318 0
M  V30 5233 H 475.867 4.1087 -0.670196 0
M  V30 5234 H 476.4 3.32812 -2.17902 0
M  V30 5235 H 473.139 4.17303 -5.05508 0
M  V30 5236 H 472.659 4.87574 -3.49331 0
M  V30 5237 H 474.338 5.03215 -4.06674 0
M  V30 5238 N 474.47 1.03057 1.19235 0
M  V30 5239 C 475.38 0.622922 2.26179 0
M  V30 5240 C 476.396 -0.346113 1.70523 0
M  V30 5241 O 477.572 -0.203572 2.00369 0
M  V30 5242 C 474.637 -0.0182063 3.46695 0
M  V30 5243 C 473.698 0.998546 4.17526 0
M  V30 5244 C 472.931 0.387917 5.32288 0
M  V30 5245 O 473.154 -0.808668 5.64639 0
M  V30 5246 O 472.088 1.1116 5.91546 0
M  V30 5247 H 475.914 1.51363 2.63292 0
M  V30 5248 H 473.499 0.800856 1.26122 0
M  V30 5249 H 475.381 -0.375606 4.19723 0
M  V30 5250 H 474.056 -0.882895 3.11427 0
M  V30 5251 H 472.963 1.40756 3.4661 0
M  V30 5252 H 474.296 1.83366 4.56769 0
M  V30 5253 N 475.948 -1.35272 0.808662 0
M  V30 5254 C 476.858 -2.33546 0.222079 0
M  V30 5255 C 477.874 -1.6196 -0.636011 0
M  V30 5256 O 479.05 -1.93822 -0.547274 0
M  V30 5257 C 476.115 -3.41148 -0.61795 0
M  V30 5258 C 475.176 -4.28507 0.260875 0
M  V30 5259 C 474.409 -5.3097 -0.539156 0
M  V30 5260 O 474.632 -5.42123 -1.77367 0
M  V30 5261 O 473.566 -6.01858 0.0710526 0
M  V30 5262 H 477.392 -2.85515 1.03512 0
M  V30 5263 H 474.977 -1.38079 0.570495 0
M  V30 5264 H 476.859 -4.06889 -1.09634 0
M  V30 5265 H 475.534 -2.91447 -1.40855 0
M  V30 5266 H 474.441 -3.6574 0.786451 0
M  V30 5267 H 475.774 -4.81611 1.01547 0
M  V30 5268 N 477.426 -0.562348 -1.47226 0
M  V30 5269 C 478.373 0.182461 -2.30078 0
M  V30 5270 C 479.343 0.903503 -1.39377 0
M  V30 5271 O 480.528 0.898188 -1.68337 0
M  V30 5272 C 477.668 1.20322 -3.23445 0
M  V30 5273 C 476.781 0.487717 -4.29238 0
M  V30 5274 C 475.916 1.49422 -5.09752 0
M  V30 5275 C 474.955 0.763976 -6.07314 0
M  V30 5276 N 474.092 1.71755 -6.80768 0
M  V30 5277 H 478.932 -0.530169 -2.93246 0
M  V30 5278 H 476.469 -0.273276 -1.44539 0
M  V30 5279 H 478.427 1.80768 -3.76004 0
M  V30 5280 H 477.057 1.88382 -2.6213 0
M  V30 5281 H 476.109 -0.231374 -3.79696 0
M  V30 5282 H 477.421 -0.0841003 -4.98729 0
M  V30 5283 H 476.575 2.17206 -5.66486 0
M  V30 5284 H 475.314 2.09995 -4.40174 0
M  V30 5285 H 474.319 0.0722344 -5.49753 0
M  V30 5286 H 475.544 0.16391 -6.78902 0
M  V30 5287 H 473.49 2.31177 -6.13916 0
M  V30 5288 H 473.407 1.19802 -7.46447 0
M  V30 5289 H 474.675 2.38638 -7.42073 0
M  V30 5290 N 478.904 1.54736 -0.299062 0
M  V30 5291 C 479.834 2.26409 0.571085 0
M  V30 5292 C 480.815 1.2629 1.13951 0
M  V30 5293 O 482 1.55059 1.16921 0
M  V30 5294 C 479.13 3.00338 1.74396 0
M  V30 5295 C 478.084 4.07588 1.30599 0
M  V30 5296 C 477.41 4.69222 2.56387 0
M  V30 5297 C 478.71 5.20455 0.438645 0
M  V30 5298 H 480.404 2.99388 -0.0266991 0
M  V30 5299 H 477.95 1.43993 -0.0142812 0
M  V30 5300 H 479.903 3.49198 2.35878 0
M  V30 5301 H 478.627 2.24934 2.36796 0
M  V30 5302 H 477.286 3.59575 0.71424 0
M  V30 5303 H 476.934 3.9046 3.17097 0
M  V30 5304 H 476.634 5.41653 2.27784 0
M  V30 5305 H 478.158 5.20844 3.18675 0
M  V30 5306 H 479.572 5.65221 0.959085 0
M  V30 5307 H 477.969 5.99594 0.246466 0
M  V30 5308 H 479.039 4.8192 -0.536738 0
M  V30 5309 N 480.382 0.0267497 1.57577 0
M  V30 5310 C 481.332 -0.965003 2.06571 0
M  V30 5311 C 482.316 -1.28694 0.965746 0
M  V30 5312 O 483.508 -1.27345 1.22932 0
M  V30 5313 C 480.637 -2.24821 2.59443 0
M  V30 5314 C 479.723 -1.95474 3.76365 0
M  V30 5315 N 480.114 -1.36387 4.87065 0
M  V30 5316 C 478.412 -2.25478 3.84806 0
M  V30 5317 C 479.113 -1.24119 5.68304 0
M  V30 5318 N 478.089 -1.7359 5.15138 0
M  V30 5319 H 481.891 -0.503095 2.89562 0
M  V30 5320 H 479.405 -0.178322 1.61418 0
M  V30 5321 H 481.402 -2.9674 2.92833 0
M  V30 5322 H 480.062 -2.7164 1.77881 0
M  V30 5323 H 481.073 -1.03919 5.07367 0
M  V30 5324 H 477.75 -2.74987 3.14147 0
M  V30 5325 H 479.14 -0.784504 6.67304 0
M  V30 5326 N 481.861 -1.55662 -0.24637 0
M  V30 5327 C 482.771 -1.93495 -1.32653 0
M  V30 5328 C 483.787 -0.835462 -1.5263 0
M  V30 5329 O 484.963 -1.1369 -1.66242 0
M  V30 5330 C 482.028 -2.22242 -2.66101 0
M  V30 5331 C 481.089 -3.45625 -2.54641 0
M  V30 5332 C 480.322 -3.72991 -3.81724 0
M  V30 5333 O 480.545 -3.02421 -4.8363 0
M  V30 5334 O 479.479 -4.66515 -3.80325 0
M  V30 5335 H 483.305 -2.85498 -1.03559 0
M  V30 5336 H 480.89 -1.42551 -0.44717 0
M  V30 5337 H 482.772 -2.42037 -3.44958 0
M  V30 5338 H 481.447 -1.33417 -2.94926 0
M  V30 5339 H 480.354 -3.31136 -1.74067 0
M  V30 5340 H 481.687 -4.34754 -2.3076 0
M  V30 5341 N 483.339 0.512053 -1.4905 0
M  V30 5342 C 484.249 1.64139 -1.67617 0
M  V30 5343 C 485.265 1.64786 -0.558701 0
M  V30 5344 O 486.441 1.8341 -0.832034 0
M  V30 5345 C 483.506 3.00548 -1.72835 0
M  V30 5346 C 482.567 3.10615 -2.96339 0
M  V30 5347 C 481.8 4.40517 -3.01298 0
M  V30 5348 O 482.023 5.28671 -2.14157 0
M  V30 5349 O 480.957 4.55325 -3.93653 0
M  V30 5350 H 484.783 1.51407 -2.63267 0
M  V30 5351 H 482.368 0.687131 -1.32661 0
M  V30 5352 H 484.25 3.81641 -1.78683 0
M  V30 5353 H 482.925 3.13566 -0.803616 0
M  V30 5354 H 481.832 2.2875 -2.96014 0
M  V30 5355 H 483.165 3.0252 -3.88256 0
M  V30 5356 N 484.817 1.37938 0.762283 0
M  V30 5357 C 486.066 1.32989 1.51647 0
M  V30 5358 C 486.379 -0.0802922 1.95435 0
M  V30 5359 O 487.585 -0.252295 2.70325 0
M  V30 5360 C 486.041 2.33485 2.73885 0
M  V30 5361 C 485.649 3.80079 2.37157 0
M  V30 5362 C 487.393 2.37563 3.51801 0
M  V30 5363 C 485.3 4.72283 3.55954 0
M  V30 5364 H 484.23 0.494301 0.56937 0
M  V30 5365 H 486.881 1.63448 0.834083 0
M  V30 5366 H 485.263 1.96056 3.44061 0
M  V30 5367 H 486.437 4.26398 1.74704 0
M  V30 5368 H 484.752 3.79037 1.72395 0
M  V30 5369 H 487.349 3.0365 4.40114 0
M  V30 5370 H 487.692 1.39199 3.92338 0
M  V30 5371 H 488.225 2.73747 2.8863 0
M  V30 5372 H 484.964 5.7181 3.2049 0
M  V30 5373 H 484.484 4.30663 4.1748 0
M  V30 5374 H 486.163 4.89876 4.22647 0
M  V30 5375 N 486.295 -0.989507 1.22664 0
M  V30 5376 C 487.572 -1.70326 0.961688 0
M  V30 5377 C 487.952 -2.04537 -0.522279 0
M  V30 5378 O 487.3 -1.73136 -1.49118 0
M  V30 5379 C 487.51 -2.95135 1.86269 0
M  V30 5380 C 488.858 -3.67842 2.12078 0
M  V30 5381 O 489.882 -3.0515 1.83745 0
M  V30 5382 O 488.741 -4.80644 2.60083 0
M  V30 5383 H 485.835 -0.743589 0.361946 0
M  V30 5384 H 488.381 -1.04555 1.33665 0
M  V30 5385 H 487.153 -2.66382 2.8663 0
M  V30 5386 H 486.776 -3.68645 1.48952 0
M  V30 5387 N 487.773 -1.03688 -1.18687 0
M  V30 5388 C 489.189 -0.755413 -1.4059 0
M  V30 5389 C 489.389 0.656659 -1.905 0
M  V30 5390 O 488.445 1.42144 -2.08689 0
M  V30 5391 C 489.758 -1.7983 -2.41001 0
M  V30 5392 C 491.306 -1.81877 -2.54735 0
M  V30 5393 C 491.781 -2.85148 -3.58406 0
M  V30 5394 N 493.272 -2.84015 -3.6591 0
M  V30 5395 C 494.007 -3.60573 -4.45841 0
M  V30 5396 N 493.503 -4.46871 -5.29413 0
M  V30 5397 N 495.296 -3.49079 -4.40568 0
M  V30 5398 H 487.447 -1.94818 -0.846148 0
M  V30 5399 H 489.71 -0.842727 -0.434184 0
M  V30 5400 H 489.416 -2.81097 -2.1137 0
M  V30 5401 H 489.29 -1.62727 -3.40294 0
M  V30 5402 H 491.677 -0.812836 -2.83685 0
M  V30 5403 H 491.758 -2.03057 -1.55568 0
M  V30 5404 H 491.402 -3.85918 -3.30197 0
M  V30 5405 H 491.332 -2.61224 -4.57241 0
M  V30 5406 H 493.823 -2.21431 -3.0623 0
M  V30 5407 H 494.136 -5.02007 -5.87545 0
M  V30 5408 H 492.481 -4.5094 -5.28846 0
M  V30 5409 H 495.672 -2.81066 -3.74325 0
M  V30 5410 H 495.845 -4.08994 -5.02621 0
M  V30 5411 N 489.251 1.34841 -0.815825 0
M  V30 5412 C 490.497 1.98793 -0.401129 0
M  V30 5413 C 490.83 1.64548 1.03139 0
M  V30 5414 O 490.105 0.913487 1.71714 0
M  V30 5415 C 490.388 3.55143 -0.595409 0
M  V30 5416 C 490.241 3.99155 -2.07352 0
M  V30 5417 C 491.56 4.40092 -0.0268823 0
M  V30 5418 H 488.679 0.722146 -0.14722 0
M  V30 5419 H 491.321 1.59847 -1.02707 0
M  V30 5420 H 489.471 3.8845 -0.0625779 0
M  V30 5421 H 491.143 3.76216 -2.66945 0
M  V30 5422 H 489.386 3.49726 -2.56659 0
M  V30 5423 H 490.057 5.07971 -2.1603 0
M  V30 5424 H 492.533 4.13298 -0.482042 0
M  V30 5425 H 491.409 5.48562 -0.19267 0
M  V30 5426 H 491.67 4.29016 1.06759 0
M  V30 5427 N 490.729 0.570148 1.46925 0
M  V30 5428 C 491.978 0.0487352 2.01641 0
M  V30 5429 C 492.291 -1.31433 1.44861 0
M  V30 5430 O 493.497 -1.92638 1.91318 0
M  V30 5431 C 491.953 0.0365817 3.59881 0
M  V30 5432 C 491.561 1.39719 4.25655 0
M  V30 5433 C 493.305 -0.431545 4.22301 0
M  V30 5434 C 491.212 1.34345 5.75939 0
M  V30 5435 H 490.142 0.0144492 0.753862 0
M  V30 5436 H 492.793 0.719928 1.68788 0
M  V30 5437 H 491.175 -0.700522 3.89755 0
M  V30 5438 H 492.349 2.15303 4.07408 0
M  V30 5439 H 490.664 1.80431 3.75278 0
M  V30 5440 H 493.261 -0.490354 5.32447 0
M  V30 5441 H 493.604 -1.44638 3.90366 0
M  V30 5442 H 494.137 0.251102 3.97007 0
M  V30 5443 H 490.876 2.33469 6.12513 0
M  V30 5444 H 490.396 0.629615 5.96486 0
M  V30 5445 H 492.075 1.051 6.38407 0
M  V30 5446 N 492.207 -1.54576 0.307264 0
M  V30 5447 C 493.455 -1.99867 -0.299574 0
M  V30 5448 C 493.776 -1.19714 -1.53927 0
M  V30 5449 O 493.046 -0.29472 -1.9367 0
M  V30 5450 H 491.626 -0.738299 -0.113683 0
M  V30 5451 H 494.288 -1.9032 0.420042 0
M  V30 5452 H 493.384 -3.06901 -0.567283 0
M  V30 5453 N 493.685 -0.035106 -1.57561 0
M  V30 5454 C 495.096 0.502885 -1.798 0
M  V30 5455 C 495.447 1.71892 -0.945921 0
M  V30 5456 O 494.572 2.15822 -0.157991 0
M  V30 5457 C 495.167 0.919097 -3.26095 0
M  V30 5458 C 493.726 1.40216 -3.49308 0
M  V30 5459 C 492.873 0.369709 -2.74824 0
M  V30 5460 H 495.824 -0.261102 -1.56537 0
M  V30 5461 H 495.845 1.78308 -3.36135 0
M  V30 5462 H 495.357 0.0338526 -3.88085 0
M  V30 5463 H 493.458 2.30714 -2.92578 0
M  V30 5464 H 493.571 1.40541 -4.58023 0
M  V30 5465 H 491.935 0.839113 -2.40481 0
M  V30 5466 H 492.718 -0.507173 -3.39533 0
M  V30 5467 N 495.163 1.55791 0.238111 0
M  V30 5468 C 496.388 1.8244 0.986432 0
M  V30 5469 C 496.813 0.613314 1.7782 0
M  V30 5470 O 496.171 -0.437767 1.75935 0
M  V30 5471 C 496.219 3.06917 1.893 0
M  V30 5472 O 495.323 2.84449 2.98601 0
M  V30 5473 H 494.664 0.601975 0.280218 0
M  V30 5474 H 497.194 2.02987 0.256437 0
M  V30 5475 H 497.204 3.36583 2.30598 0
M  V30 5476 H 495.879 3.947 1.31091 0
M  V30 5477 H 494.456 2.65972 2.61368 0
M  V30 5478 N 496.642 -0.504142 1.49319 0
M  V30 5479 C 498.058 -0.835039 1.36012 0
M  V30 5480 C 498.258 -1.97674 0.390808 0
M  V30 5481 O 497.314 -2.51867 -0.178655 0
M  V30 5482 C 498.627 -1.17821 2.76656 0
M  V30 5483 C 500.175 -1.2866 2.85334 0
M  V30 5484 C 500.65 -1.66307 4.26739 0
M  V30 5485 N 502.141 -1.73362 4.29534 0
M  V30 5486 C 502.876 -2.0393 5.35911 0
M  V30 5487 N 502.372 -2.32744 6.52535 0
M  V30 5488 N 504.165 -2.05155 5.23324 0
M  V30 5489 H 496.316 0.248764 2.10938 0
M  V30 5490 H 498.579 0.0486962 0.946748 0
M  V30 5491 H 498.285 -0.412682 3.4927 0
M  V30 5492 H 498.159 -2.12239 3.11825 0
M  V30 5493 H 500.546 -2.04285 2.1296 0
M  V30 5494 H 500.627 -0.323004 2.53752 0
M  V30 5495 H 500.271 -0.91234 4.99639 0
M  V30 5496 H 500.201 -2.63761 4.55782 0
M  V30 5497 H 502.692 -1.53268 3.45424 0
M  V30 5498 H 503.005 -2.55248 7.2943 0
M  V30 5499 H 501.35 -2.30207 6.55767 0
M  V30 5500 H 504.541 -1.82119 4.3122 0
M  V30 5501 H 504.714 -2.28644 6.06322 0
M  V30 5502 N 498.12 -1.38341 -0.754957 0
M  V30 5503 C 499.369 -1.33791 -1.5094 0
M  V30 5504 C 499.682 0.0699267 -1.95475 0
M  V30 5505 O 500.888 0.237956 -2.70455 0
M  V30 5506 C 499.344 -2.34934 -2.72643 0
M  V30 5507 C 498.952 -3.81332 -2.35138 0
M  V30 5508 C 500.696 -2.39425 -3.50536 0
M  V30 5509 C 498.603 -4.74164 -3.53444 0
M  V30 5510 H 497.533 -0.497314 -0.566741 0
M  V30 5511 H 500.184 -1.63888 -0.825403 0
M  V30 5512 H 498.566 -1.97878 -3.43017 0
M  V30 5513 H 499.74 -4.27319 -1.7244 0
M  V30 5514 H 498.055 -3.79946 -1.70382 0
M  V30 5515 H 500.652 -3.0598 -4.38498 0
M  V30 5516 H 500.995 -1.41278 -3.91594 0
M  V30 5517 H 501.528 -2.75274 -2.87174 0
M  V30 5518 H 498.267 -5.73501 -3.17453 0
M  V30 5519 H 497.787 -4.3287 -4.15191 0
M  V30 5520 H 499.466 -4.92111 -4.20043 0
M  V30 5521 N 499.598 0.982988 -1.23187 0
M  V30 5522 C 501.009 1.53847 -1.05773 0
M  V30 5523 C 501.36 1.92568 0.375744 0
M  V30 5524 O 500.485 1.75783 1.26211 0
M  V30 5525 C 501.08 2.79567 -1.91384 0
M  V30 5526 C 499.639 3.31524 -1.78238 0
M  V30 5527 C 498.786 2.04534 -1.87246 0
M  V30 5528 H 501.737 0.802962 -1.36888 0
M  V30 5529 H 501.758 3.52317 -1.43711 0
M  V30 5530 H 501.27 2.51353 -2.95708 0
M  V30 5531 H 499.371 3.64623 -0.766875 0
M  V30 5532 H 499.484 4.01457 -2.61475 0
M  V30 5533 H 497.848 2.1855 -1.30797 0
M  V30 5534 H 498.631 1.78706 -2.9312 0
M  V30 5535 N 501.076 1.04316 1.18135 0
M  V30 5536 C 502.039 0.640794 2.2006 0
M  V30 5537 C 503.039 -0.303124 1.57917 0
M  V30 5538 O 504.229 -0.0881855 1.73977 0
M  V30 5539 C 501.361 -0.060148 3.40847 0
M  V30 5540 H 502.554 1.54281 2.57172 0
M  V30 5541 H 500.107 0.836004 1.32063 0
M  V30 5542 H 500.842 -0.975845 3.0927 0
M  V30 5543 H 500.627 0.618319 3.87194 0
M  V30 5544 H 502.117 -0.328082 4.16309 0
M  V30 5545 N 502.554 -1.34406 0.822964 0
M  V30 5546 C 503.803 -1.97542 0.407458 0
M  V30 5547 C 504.116 -1.65973 -1.035 0
M  V30 5548 O 505.322 -2.22598 -1.55442 0
M  V30 5549 C 503.778 -3.53463 0.677623 0
M  V30 5550 C 503.386 -3.93925 2.1337 0
M  V30 5551 C 505.13 -4.23229 0.328284 0
M  V30 5552 C 503.037 -5.42759 2.34876 0
M  V30 5553 H 501.967 -0.739207 0.148623 0
M  V30 5554 H 504.618 -1.53248 1.00932 0
M  V30 5555 H 503 -3.96 0.00558965 0
M  V30 5556 H 504.174 -3.62494 2.8449 0
M  V30 5557 H 502.489 -3.37097 2.44448 0
M  V30 5558 H 505.086 -5.32659 0.466794 0
M  V30 5559 H 505.429 -4.09899 -0.727224 0
M  V30 5560 H 505.962 -3.86169 0.954896 0
M  V30 5561 H 502.701 -5.61075 3.38932 0
M  V30 5562 H 502.221 -5.75704 1.68299 0
M  V30 5563 H 503.9 -6.0944 2.17236 0
M  V30 5564 N 504.032 -0.577932 -1.46621 0
M  V30 5565 C 504.979 0.158048 -2.30258 0
M  V30 5566 C 505.949 0.888669 -1.40328 0
M  V30 5567 O 507.134 0.880283 -1.6928 0
M  V30 5568 C 504.274 1.16884 -3.24703 0
M  V30 5569 C 503.387 0.442163 -4.29731 0
M  V30 5570 C 502.522 1.44007 -5.11308 0
M  V30 5571 C 501.561 0.69952 -6.0809 0
M  V30 5572 N 500.698 1.64525 -6.82551 0
M  V30 5573 H 505.538 -0.561242 -2.92667 0
M  V30 5574 H 503.075 -0.288591 -1.44241 0
M  V30 5575 H 505.033 1.7677 -3.779 0
M  V30 5576 H 503.663 1.85591 -2.64113 0
M  V30 5577 H 502.715 -0.271632 -3.79429 0
M  V30 5578 H 504.027 -0.136992 -4.98612 0
M  V30 5579 H 503.181 2.11186 -5.68758 0
M  V30 5580 H 501.92 2.05315 -4.42377 0
M  V30 5581 H 500.925 0.0139217 -5.49798 0
M  V30 5582 H 502.15 0.091894 -6.79038 0
M  V30 5583 H 500.096 2.24653 -6.16334 0
M  V30 5584 H 500.013 1.11878 -7.47676 0
M  V30 5585 H 501.281 2.30754 -7.44562 0
M  V30 5586 N 505.51 1.54411 -0.315457 0
M  V30 5587 C 506.787 1.92562 0.343398 0
M  V30 5588 C 507.167 1.24423 1.70535 0
M  V30 5589 O 506.515 0.385051 2.25232 0
M  V30 5590 C 506.725 3.46168 0.443687 0
M  V30 5591 C 508.073 4.18659 0.707783 0
M  V30 5592 O 509.097 3.52281 0.52693 0
M  V30 5593 O 507.956 5.36198 1.05612 0
M  V30 5594 H 505.05 0.80379 0.194552 0
M  V30 5595 H 507.596 1.65738 -0.364577 0
M  V30 5596 H 506.368 3.8792 -0.513172 0
M  V30 5597 H 505.991 3.79073 1.19956 0
M  V30 5598 N 506.988 0.0434614 1.5754 0
M  V30 5599 C 508.404 -0.313039 1.565 0
M  V30 5600 C 508.604 -1.71954 1.05043 0
M  V30 5601 O 507.66 -2.425 0.703564 0
M  V30 5602 C 508.973 -0.148544 3.00333 0
M  V30 5603 C 510.521 -0.220231 3.12224 0
M  V30 5604 C 510.996 -0.0843565 4.57922 0
M  V30 5605 N 512.487 -0.140881 4.62986 0
M  V30 5606 C 513.222 -0.0597443 5.73369 0
M  V30 5607 N 512.718 0.0733004 6.92761 0
M  V30 5608 N 514.511 -0.11477 5.61983 0
M  V30 5609 H 506.662 0.96303 1.89313 0
M  V30 5610 H 508.925 0.373164 0.871466 0
M  V30 5611 H 508.631 0.820894 3.41986 0
M  V30 5612 H 508.505 -0.912798 3.65989 0
M  V30 5613 H 510.892 -1.18014 2.70475 0
M  V30 5614 H 510.973 0.574646 2.49262 0
M  V30 5615 H 510.617 0.872192 5.00355 0
M  V30 5616 H 510.547 -0.898281 5.18882 0
M  V30 5617 H 513.038 -0.243273 3.77116 0
M  V30 5618 H 513.351 0.128128 7.72694 0
M  V30 5619 H 511.696 0.10828 6.94916 0
M  V30 5620 H 514.887 -0.217212 4.67596 0
M  V30 5621 H 515.06 -0.0480779 6.47982 0
M  V30 5622 N 508.466 -1.55915 -0.229846 0
M  V30 5623 C 509.398 -1.88209 -1.30805 0
M  V30 5624 C 510.411 -0.769672 -1.43457 0
M  V30 5625 O 511.6 -1.04792 -1.44502 0
M  V30 5626 C 508.7 -2.06829 -2.68468 0
M  V30 5627 C 507.873 -3.37798 -2.77869 0
M  V30 5628 C 506.932 -3.45952 -3.96489 0
M  V30 5629 O 505.958 -4.19043 -3.85216 0
M  V30 5630 N 507.16 -2.76488 -5.10426 0
M  V30 5631 H 509.925 -2.81286 -1.03431 0
M  V30 5632 H 507.486 -1.5636 -0.41991 0
M  V30 5633 H 509.478 -2.09608 -3.46189 0
M  V30 5634 H 508.048 -1.20416 -2.88477 0
M  V30 5635 H 507.268 -3.4719 -1.86689 0
M  V30 5636 H 508.556 -4.24091 -2.81113 0
M  V30 5637 H 507.954 -2.16868 -5.2248 0
M  V30 5638 H 506.511 -2.84938 -5.8622 0
M  V30 5639 N 509.944 0.496216 -1.49584 0
M  V30 5640 C 510.854 1.62352 -1.69349 0
M  V30 5641 C 511.87 1.64184 -0.576147 0
M  V30 5642 O 513.046 1.82517 -0.85144 0
M  V30 5643 C 510.111 2.98698 -1.76013 0
M  V30 5644 C 509.172 3.07454 -2.99617 0
M  V30 5645 C 508.405 4.37296 -3.05953 0
M  V30 5646 O 508.628 5.2637 -2.19752 0
M  V30 5647 O 507.562 4.51124 -3.9846 0
M  V30 5648 H 511.388 1.48606 -2.64859 0
M  V30 5649 H 508.973 0.673022 -1.33382 0
M  V30 5650 H 510.855 3.79725 -1.82721 0
M  V30 5651 H 509.53 3.12696 -0.836828 0
M  V30 5652 H 508.437 2.25597 -2.98424 0
M  V30 5653 H 509.77 2.98385 -3.91443 0
M  V30 5654 N 511.423 1.38739 0.74761 0
M  V30 5655 C 512.356 1.3083 1.86972 0
M  V30 5656 C 513.334 0.184229 1.61553 0
M  V30 5657 O 514.518 0.36256 1.8498 0
M  V30 5658 C 511.645 1.02854 3.22705 0
M  V30 5659 C 510.691 2.17281 3.67003 0
M  V30 5660 S 511.524 3.79468 3.77842 0
M  V30 5661 C 512.68 3.53692 5.16385 0
M  V30 5662 H 512.913 2.258 1.93395 0
M  V30 5663 H 510.446 1.24646 0.911199 0
M  V30 5664 H 512.404 0.87397 4.01089 0
M  V30 5665 H 511.065 0.0959295 3.13953 0
M  V30 5666 H 510.258 1.93267 4.65472 0
M  V30 5667 H 509.86 2.28876 2.9579 0
M  V30 5668 H 512.152 3.10176 6.02327 0
M  V30 5669 H 513.095 4.51576 5.45422 0
M  V30 5670 H 513.503 2.8807 4.85464 0
M  V30 5671 N 512.901 -0.976442 1.23707 0
M  V30 5672 C 514.312 -1.53284 1.06587 0
M  V30 5673 C 514.663 -1.92765 -0.365526 0
M  V30 5674 O 513.788 -1.7645 -1.25277 0
M  V30 5675 C 514.383 -2.78548 1.92864 0
M  V30 5676 C 512.942 -3.30574 1.79994 0
M  V30 5677 C 512.089 -2.03538 1.88328 0
M  V30 5678 H 515.04 -0.795692 1.37311 0
M  V30 5679 H 515.061 -3.5155 1.45577 0
M  V30 5680 H 514.573 -2.49782 2.97037 0
M  V30 5681 H 512.674 -3.64211 0.786202 0
M  V30 5682 H 512.787 -4.00065 2.636 0
M  V30 5683 H 511.151 -2.17853 1.31954 0
M  V30 5684 H 511.934 -1.77149 2.94063 0
M  V30 5685 N 514.379 -1.04941 -1.1758 0
M  V30 5686 C 515.609 -0.777166 -1.91425 0
M  V30 5687 C 516.017 0.670647 -1.76915 0
M  V30 5688 O 515.36 1.46965 -1.10213 0
M  V30 5689 C 515.422 -1.07495 -3.43052 0
M  V30 5690 C 515.086 -2.51844 -3.81345 0
M  V30 5691 C 516.083 -3.50047 -3.844 0
M  V30 5692 C 513.768 -2.86787 -4.12382 0
M  V30 5693 C 515.762 -4.81239 -4.17957 0
M  V30 5694 C 513.449 -4.18182 -4.45608 0
M  V30 5695 C 514.447 -5.15219 -4.48373 0
M  V30 5696 O 514.135 -6.44258 -4.80819 0
M  V30 5697 H 513.867 -0.282209 -0.614275 0
M  V30 5698 H 516.421 -1.40258 -1.50056 0
M  V30 5699 H 514.651 -0.392437 -3.84704 0
M  V30 5700 H 516.34 -0.78912 -3.98155 0
M  V30 5701 H 517.106 -3.24391 -3.60548 0
M  V30 5702 H 512.985 -2.11922 -4.09402 0
M  V30 5703 H 516.529 -5.56974 -4.2003 0
M  V30 5704 H 512.426 -4.43602 -4.68922 0
M  V30 5705 H 513.194 -6.49041 -4.98686 0
M  V30 5706 N 515.857 1.33968 -0.830081 0
M  V30 5707 C 516.79 2.27303 -0.202182 0
M  V30 5708 C 517.768 1.49235 0.645581 0
M  V30 5709 O 518.952 1.78433 0.607762 0
M  V30 5710 C 516.079 3.31025 0.716932 0
M  V30 5711 C 515.125 4.26466 -0.0542271 0
M  V30 5712 S 515.958 5.16707 -1.40622 0
M  V30 5713 C 517.114 6.23962 -0.492167 0
M  V30 5714 H 517.347 2.8021 -0.99346 0
M  V30 5715 H 514.88 1.41124 -0.626359 0
M  V30 5716 H 516.838 3.91271 1.24165 0
M  V30 5717 H 515.499 2.76951 1.4818 0
M  V30 5718 H 514.692 4.99858 0.644785 0
M  V30 5719 H 514.294 3.7051 -0.509722 0
M  V30 5720 H 516.586 6.76774 0.31347 0
M  V30 5721 H 517.529 6.97927 -1.19599 0
M  V30 5722 H 517.937 5.64447 -0.0774176 0
M  V30 5723 N 517.335 0.585699 1.46312 0
M  V30 5724 C 518.612 0.00542031 1.95599 0
M  V30 5725 C 518.992 -1.45619 1.52834 0
M  V30 5726 O 518.34 -2.14759 0.780446 0
M  V30 5727 C 518.55 0.180601 3.48532 0
M  V30 5728 C 519.898 0.049979 4.24571 0
M  V30 5729 O 520.922 0.109589 3.56031 0
M  V30 5730 O 519.781 -0.0832226 5.46437 0
M  V30 5731 H 516.875 -0.0481281 0.825598 0
M  V30 5732 H 519.421 0.654227 1.56582 0
M  V30 5733 H 518.193 1.19657 3.72556 0
M  V30 5734 H 517.816 -0.504498 3.94386 0
M  V30 5735 N 518.813 -1.54241 0.323641 0
M  V30 5736 C 519.776 -2.22997 -0.529602 0
M  V30 5737 C 520.776 -1.22345 -1.04347 0
M  V30 5738 O 521.966 -1.46924 -0.935889 0
M  V30 5739 C 519.098 -2.93409 -1.73562 0
M  V30 5740 H 520.291 -2.99815 0.0714518 0
M  V30 5741 H 517.844 -1.56121 0.0747258 0
M  V30 5742 H 518.579 -2.20729 -2.37591 0
M  V30 5743 H 518.364 -3.67217 -1.37456 0
M  V30 5744 H 519.854 -3.45794 -2.34128 0
M  V30 5745 N 520.291 -0.0518155 -1.57515 0
M  V30 5746 C 521.537 0.622745 -1.93002 0
M  V30 5747 C 521.87 1.70456 -0.930499 0
M  V30 5748 O 521.145 1.94452 0.0434086 0
M  V30 5749 C 521.428 1.21824 -3.38867 0
M  V30 5750 C 521.281 0.144434 -4.49568 0
M  V30 5751 C 522.6 2.12968 -3.8514 0
M  V30 5752 H 519.719 0.22491 -0.701844 0
M  V30 5753 H 522.361 -0.113711 -1.89659 0
M  V30 5754 H 520.511 1.8459 -3.41846 0
M  V30 5755 H 522.183 -0.48753 -4.58717 0
M  V30 5756 H 520.426 -0.527424 -4.30582 0
M  V30 5757 H 521.097 0.601127 -5.48717 0
M  V30 5758 H 523.573 1.60163 -3.8404 0
M  V30 5759 H 522.449 2.51578 -4.87852 0
M  V30 5760 H 522.71 3.03004 -3.21934 0
M  V30 5761 N 521.769 1.56035 0.221574 0
M  V30 5762 C 523.015 1.79312 0.947372 0
M  V30 5763 C 523.348 0.621453 1.83988 0
M  V30 5764 O 522.623 -0.379287 1.90766 0
M  V30 5765 C 522.906 3.1267 1.78633 0
M  V30 5766 C 522.759 4.40284 0.920312 0
M  V30 5767 C 524.078 3.4247 2.7641 0
M  V30 5768 H 521.197 0.652328 0.342982 0
M  V30 5769 H 523.839 1.88765 0.216244 0
M  V30 5770 H 521.989 3.04741 2.40967 0
M  V30 5771 H 523.661 4.60232 0.313718 0
M  V30 5772 H 521.904 4.33212 0.225734 0
M  V30 5773 H 522.575 5.30033 1.54171 0
M  V30 5774 H 525.051 3.50526 2.24211 0
M  V30 5775 H 523.927 4.3695 3.32213 0
M  V30 5776 H 524.188 2.64635 3.54148 0
M  V30 5777 N 523.247 -0.488276 1.49845 0
M  V30 5778 C 524.197 -1.58556 1.63842 0
M  V30 5779 C 525.181 -1.53142 0.493586 0
M  V30 5780 O 526.373 -1.60457 0.747169 0
M  V30 5781 C 523.502 -2.97101 1.72005 0
M  V30 5782 C 522.588 -3.07463 2.92108 0
M  V30 5783 N 522.979 -2.87681 4.16021 0
M  V30 5784 C 521.277 -3.3858 2.90309 0
M  V30 5785 C 521.978 -3.0256 4.96822 0
M  V30 5786 N 520.954 -3.32002 4.30437 0
M  V30 5787 H 524.756 -1.41935 2.57355 0
M  V30 5788 H 522.27 -0.694668 1.46793 0
M  V30 5789 H 524.267 -3.75976 1.80132 0
M  V30 5790 H 522.927 -3.14782 0.796375 0
M  V30 5791 H 523.938 -2.63603 4.45796 0
M  V30 5792 H 520.615 -3.62357 2.07372 0
M  V30 5793 H 522.005 -2.9165 6.05301 0
M  V30 5794 N 524.725 -1.39134 -0.740242 0
M  V30 5795 C 525.635 -1.39697 -1.88473 0
M  V30 5796 C 526.651 -0.292403 -1.71526 0
M  V30 5797 O 527.827 -0.533021 -1.94219 0
M  V30 5798 C 524.892 -1.23382 -3.24003 0
M  V30 5799 C 523.953 -2.43763 -3.53381 0
M  V30 5800 C 523.186 -2.28216 -4.82445 0
M  V30 5801 O 523.409 -1.28288 -5.55786 0
M  V30 5802 O 522.343 -3.1709 -5.11603 0
M  V30 5803 H 526.169 -2.36159 -1.90952 0
M  V30 5804 H 523.754 -1.20194 -0.887346 0
M  V30 5805 H 525.636 -1.16395 -4.05006 0
M  V30 5806 H 524.311 -0.300121 -3.22306 0
M  V30 5807 H 523.218 -2.56325 -2.72485 0
M  V30 5808 H 524.551 -3.35808 -3.59852 0
M  V30 5809 N 526.204 0.969867 -1.24223 0
M  V30 5810 C 527.453 1.70687 -1.07466 0
M  V30 5811 C 527.766 1.91736 0.386861 0
M  V30 5812 O 528.972 2.62986 0.674581 0
M  V30 5813 C 527.428 3.07217 -1.87472 0
M  V30 5814 C 527.036 2.94018 -3.3802 0
M  V30 5815 C 528.78 3.84804 -1.79237 0
M  V30 5816 C 526.687 4.25844 -4.10379 0
M  V30 5817 H 525.617 0.640067 -0.398536 0
M  V30 5818 H 528.268 1.08092 -1.48285 0
M  V30 5819 H 526.65 3.70628 -1.39466 0
M  V30 5820 H 527.824 2.39632 -3.9359 0
M  V30 5821 H 526.139 2.29898 -3.47183 0
M  V30 5822 H 528.736 4.82417 -2.30603 0
M  V30 5823 H 529.079 4.09356 -0.757197 0
M  V30 5824 H 529.612 3.28115 -2.24912 0
M  V30 5825 H 526.351 4.06486 -5.14246 0
M  V30 5826 H 525.871 4.80054 -3.59594 0
M  V30 5827 H 527.55 4.94475 -4.17257 0
M  V30 5828 N 527.682 1.05563 1.17022 0
M  V30 5829 C 528.614 0.617888 2.20714 0
M  V30 5830 C 529.627 -0.320303 1.59618 0
M  V30 5831 O 530.816 -0.112449 1.78145 0
M  V30 5832 C 527.916 -0.115333 3.38704 0
M  V30 5833 C 527.089 0.834493 4.29366 0
M  V30 5834 C 526.148 0.141855 5.26009 0
M  V30 5835 O 525.174 0.777151 5.6387 0
M  V30 5836 N 526.376 -1.11934 5.69606 0
M  V30 5837 H 529.141 1.50981 2.58892 0
M  V30 5838 H 526.702 0.938008 1.31958 0
M  V30 5839 H 528.694 -0.588918 4.00392 0
M  V30 5840 H 527.264 -0.908967 2.99093 0
M  V30 5841 H 526.484 1.48762 3.65053 0
M  V30 5842 H 527.772 1.4791 4.86827 0
M  V30 5843 H 527.17 -1.65574 5.40927 0
M  V30 5844 H 525.727 -1.53692 6.33421 0
M  V30 5845 N 529.16 -1.33526 0.837174 0
M  V30 5846 C 530.576 -1.50727 0.524743 0
M  V30 5847 C 530.776 -1.77792 -0.948279 0
M  V30 5848 O 529.832 -1.83719 -1.73216 0
M  V30 5849 C 531.145 -2.66299 1.39661 0
M  V30 5850 C 532.693 -2.80183 1.39521 0
M  V30 5851 C 533.168 -3.98815 2.25189 0
M  V30 5852 N 534.659 -4.06047 2.2289 0
M  V30 5853 C 535.394 -4.97032 2.85915 0
M  V30 5854 N 534.89 -5.93143 3.57985 0
M  V30 5855 N 536.683 -4.90015 2.75394 0
M  V30 5856 H 528.834 -1.1422 1.79074 0
M  V30 5857 H 531.097 -0.561399 0.763894 0
M  V30 5858 H 530.803 -2.52974 2.4433 0
M  V30 5859 H 530.677 -3.61663 1.07145 0
M  V30 5860 H 533.064 -2.92942 0.356253 0
M  V30 5861 H 533.145 -1.85586 1.76044 0
M  V30 5862 H 532.789 -3.86817 3.29143 0
M  V30 5863 H 532.719 -4.92654 1.86009 0
M  V30 5864 H 535.21 -3.37262 1.70478 0
M  V30 5865 H 535.523 -6.59227 4.03286 0
M  V30 5866 H 533.868 -5.93223 3.62093 0
M  V30 5867 H 537.059 -4.13894 2.18654 0
M  V30 5868 H 537.232 -5.60724 3.24796 0
M  V30 5869 N 530.638 -0.59345 -1.46 0
M  V30 5870 C 531.885 -0.0831523 -2.02329 0
M  V30 5871 C 532.213 1.28093 -1.46364 0
M  V30 5872 O 531.468 1.85526 -0.622793 0
M  V30 5873 C 531.767 0.021178 -3.57394 0
M  V30 5874 C 531.433 -1.27671 -4.32448 0
M  V30 5875 C 530.095 -1.63227 -4.5267 0
M  V30 5876 C 532.447 -2.13511 -4.7546 0
M  V30 5877 C 529.775 -2.84401 -5.1316 0
M  V30 5878 C 532.127 -3.33922 -5.37289 0
M  V30 5879 C 530.791 -3.69747 -5.55737 0
M  V30 5880 H 530.061 -0.0304276 -0.740375 0
M  V30 5881 H 532.708 -0.772239 -1.75239 0
M  V30 5882 H 531.013 0.793454 -3.83682 0
M  V30 5883 H 532.71 0.431942 -3.98667 0
M  V30 5884 H 529.3 -0.989937 -4.17011 0
M  V30 5885 H 533.484 -1.87344 -4.59582 0
M  V30 5886 H 528.74 -3.12282 -5.25633 0
M  V30 5887 H 532.914 -4.00698 -5.69574 0
M  V30 5888 H 530.541 -4.6373 -6.02377 0
M  V30 5889 N 532.116 1.54067 -0.331816 0
M  V30 5890 C 533.365 1.99895 0.269209 0
M  V30 5891 C 533.678 1.22371 1.52593 0
M  V30 5892 O 534.884 1.58618 2.20347 0
M  V30 5893 C 533.34 3.55972 0.530244 0
M  V30 5894 C 532.948 4.4234 -0.709901 0
M  V30 5895 C 534.692 4.10247 1.09077 0
M  V30 5896 C 532.599 5.89905 -0.420312 0
M  V30 5897 H 531.529 0.746741 0.104371 0
M  V30 5898 H 534.18 1.78014 -0.445324 0
M  V30 5899 H 532.562 3.73873 1.30518 0
M  V30 5900 H 533.736 4.36215 -1.48504 0
M  V30 5901 H 532.051 3.98997 -1.19123 0
M  V30 5902 H 534.648 5.18095 1.32219 0
M  V30 5903 H 534.991 3.62739 2.0427 0
M  V30 5904 H 535.524 3.96011 0.376824 0
M  V30 5905 H 532.263 6.41623 -1.34164 0
M  V30 5906 H 531.783 5.98962 0.316962 0
M  V30 5907 H 533.462 6.46991 -0.0331956 0
M  V30 5908 N 533.594 0.0601682 1.57485 0
M  V30 5909 C 534.822 -0.620937 1.97363 0
M  V30 5910 C 535.237 -1.63846 0.938082 0
M  V30 5911 O 534.594 -1.82339 -0.0766578 0
M  V30 5912 C 534.645 -1.29987 3.37321 0
M  V30 5913 O 534.366 -0.323081 4.36907 0
M  V30 5914 C 535.867 -2.06989 3.92008 0
M  V30 5915 H 533.087 -0.169135 0.649334 0
M  V30 5916 H 535.631 0.129132 2.04092 0
M  V30 5917 H 533.786 -2.0011 3.31715 0
M  V30 5918 H 534.2 -0.808754 5.18227 0
M  V30 5919 H 535.674 -2.49901 4.92192 0
M  V30 5920 H 536.151 -2.92173 3.2792 0
M  V30 5921 H 536.757 -1.41757 4.0098 0
M  V30 5922 N 535.072 -1.5615 -0.213296 0
M  V30 5923 C 536.002 -1.96109 -1.26742 0
M  V30 5924 C 536.983 -0.830448 -1.48451 0
M  V30 5925 O 538.168 -1.09339 -1.60495 0
M  V30 5926 C 535.298 -2.28492 -2.61551 0
M  V30 5927 C 534.252 -3.44124 -2.54485 0
M  V30 5928 C 533.578 -3.62134 -3.93399 0
M  V30 5929 C 534.878 -4.78855 -2.08556 0
M  V30 5930 H 536.572 -2.84412 -0.935434 0
M  V30 5931 H 534.118 -1.36836 -0.44854 0
M  V30 5932 H 536.071 -2.55039 -3.3546 0
M  V30 5933 H 534.795 -1.37052 -2.96453 0
M  V30 5934 H 533.454 -3.17639 -1.83033 0
M  V30 5935 H 533.102 -2.68055 -4.25623 0
M  V30 5936 H 532.802 -4.39913 -3.89551 0
M  V30 5937 H 534.326 -3.91038 -4.68958 0
M  V30 5938 H 535.74 -5.04552 -2.72213 0
M  V30 5939 H 534.137 -5.59975 -2.1575 0
M  V30 5940 H 535.207 -4.73657 -1.03811 0
M  V30 5941 N 536.55 0.480323 -1.50102 0
M  V30 5942 C 537.796 1.23489 -1.60867 0
M  V30 5943 C 538.129 1.91809 -0.303827 0
M  V30 5944 O 537.404 1.81694 0.694092 0
M  V30 5945 C 537.687 2.28578 -2.78252 0
M  V30 5946 C 537.54 1.64624 -4.18592 0
M  V30 5947 C 538.859 3.2997 -2.91218 0
M  V30 5948 H 535.978 0.447605 -0.585507 0
M  V30 5949 H 538.62 0.530005 -1.82458 0
M  V30 5950 H 536.77 2.88697 -2.59974 0
M  V30 5951 H 538.442 1.08173 -4.48438 0
M  V30 5952 H 536.685 0.949645 -4.23278 0
M  V30 5953 H 537.356 2.40946 -4.96638 0
M  V30 5954 H 539.832 2.79864 -3.07921 0
M  V30 5955 H 538.708 4.00839 -3.74993 0
M  V30 5956 H 538.969 3.93541 -2.0144 0
M  V30 5957 N 538.028 1.39524 0.732853 0
M  V30 5958 C 539.439 1.32905 1.31122 0
M  V30 5959 C 539.79 -0.00558708 1.96199 0
M  V30 5960 O 538.915 -0.907706 1.96443 0
M  V30 5961 C 539.51 2.40704 2.38426 0
M  V30 5962 C 538.069 2.37599 2.91931 0
M  V30 5963 C 537.216 2.2248 1.65523 0
M  V30 5964 H 540.167 1.49581 0.530207 0
M  V30 5965 H 540.188 2.07616 3.18867 0
M  V30 5966 H 539.7 3.37829 1.91033 0
M  V30 5967 H 537.801 1.44119 3.43599 0
M  V30 5968 H 537.914 3.32538 3.44899 0
M  V30 5969 H 536.278 1.69691 1.8994 0
M  V30 5970 H 537.061 3.21577 1.20178 0
M  V30 5971 N 539.506 -0.963266 1.24736 0
M  V30 5972 C 540.731 -1.74699 1.11781 0
M  V30 5973 C 541.156 -1.85267 -0.325258 0
M  V30 5974 O 540.514 -1.32681 -1.23553 0
M  V30 5975 C 540.562 -3.14322 1.76731 0
M  V30 5976 O 539.666 -3.99043 1.04109 0
M  V30 5977 H 539.007 -0.53684 0.390767 0
M  V30 5978 H 541.537 -1.20801 1.65131 0
M  V30 5979 H 541.547 -3.64824 1.82668 0
M  V30 5980 H 540.222 -3.05946 2.81726 0
M  V30 5981 H 538.799 -3.5752 1.05991 0
M  V30 5982 N 540.985 -1.06182 -1.16461 0
M  V30 5983 C 541.933 -0.665716 -2.2287 0
M  V30 5984 C 542.927 0.317822 -1.66392 0
M  V30 5985 O 544.133 0.182807 -1.79069 0
M  V30 5986 H 540.508 -0.197148 -0.725697 0
M  V30 5987 H 542.479 -1.57307 -2.53569 0
M  V30 5988 C 541.228 -0.0669803 -3.47635 0
M  V30 5989 H 540.551 -0.814899 -3.91407 0
M  V30 5990 H 541.991 0.172669 -4.23648 0
M  V30 5991 C 540.45 1.18913 -3.15216 0
M  V30 5992 O 540.98 2.27723 -3.30916 0
M  V30 5993 N 539.186 1.09066 -2.69357 0
M  V30 5994 H 538.733 0.20518 -2.56782 0
M  V30 5995 H 538.691 1.93195 -2.48039 0
M  V30 5996 N 542.463 1.3308 -0.844243 0
M  V30 5997 C 543.393 2.3161 -0.296493 0
M  V30 5998 C 544.374 1.59215 0.598707 0
M  V30 5999 O 545.559 1.87077 0.521134 0
M  V30 6000 C 542.689 3.43313 0.524762 0
M  V30 6001 C 541.643 4.27115 -0.275106 0
M  V30 6002 C 540.969 5.30483 0.670236 0
M  V30 6003 C 542.269 5.00443 -1.49514 0
M  V30 6004 H 543.963 2.77672 -1.11976 0
M  V30 6005 H 541.509 1.33496 -0.539899 0
M  V30 6006 H 543.462 4.11273 0.918298 0
M  V30 6007 H 542.186 2.95952 1.3813 0
M  V30 6008 H 540.845 3.60787 -0.650267 0
M  V30 6009 H 540.493 4.79379 1.52332 0
M  V30 6010 H 540.193 5.87435 0.139123 0
M  V30 6011 H 541.717 6.01308 1.06117 0
M  V30 6012 H 543.131 5.61141 -1.17447 0
M  V30 6013 H 541.528 5.67071 -1.96343 0
M  V30 6014 H 542.598 4.28906 -2.26202 0
M  V30 6015 N 543.941 0.601185 1.45683 0
M  V30 6016 C 545.352 0.179659 1.85834 0
M  V30 6017 C 545.703 -1.26189 1.50236 0
M  V30 6018 O 544.828 -1.95587 0.925987 0
M  V30 6019 C 545.423 0.319277 3.37292 0
M  V30 6020 C 543.982 -0.0475092 3.7637 0
M  V30 6021 C 543.129 0.646692 2.69654 0
M  V30 6022 H 546.08 0.808268 1.36575 0
M  V30 6023 H 546.101 -0.4503 3.77826 0
M  V30 6024 H 545.613 1.36855 3.6317 0
M  V30 6025 H 543.714 -1.0962 3.5611 0
M  V30 6026 H 543.827 0.34168 4.7788 0
M  V30 6027 H 542.191 0.0849971 2.54558 0
M  V30 6028 H 542.974 1.69797 2.98369 0
M  V30 6029 N 545.419 -1.53889 0.339982 0
M  V30 6030 C 546.369 -2.2165 -0.534354 0
M  V30 6031 C 547.353 -1.20266 -1.06887 0
M  V30 6032 O 548.545 -1.45827 -1.00316 0
M  V30 6033 C 545.674 -2.99014 -1.68659 0
M  V30 6034 C 544.76 -4.07751 -1.16618 0
M  V30 6035 N 545.151 -5.04469 -0.366717 0
M  V30 6036 C 543.449 -4.21998 -1.4434 0
M  V30 6037 C 544.15 -5.81638 -0.0847275 0
M  V30 6038 N 543.126 -5.39388 -0.675391 0
M  V30 6039 H 546.928 -2.93781 0.0835562 0
M  V30 6040 H 544.442 -1.61736 0.146665 0
M  V30 6041 H 546.439 -3.46056 -2.32489 0
M  V30 6042 H 545.099 -2.28408 -2.30781 0
M  V30 6043 H 546.11 -5.17899 -0.00811038 0
M  V30 6044 H 542.787 -3.62612 -2.06928 0
M  V30 6045 H 544.177 -6.69563 0.559943 0
M  V30 6046 N 546.897 -0.0685191 -1.57451 0
M  V30 6047 C 547.807 0.914677 -2.16034 0
M  V30 6048 C 548.823 1.32938 -1.12265 0
M  V30 6049 O 549.999 1.40275 -1.44516 0
M  V30 6050 C 547.064 2.16519 -2.70777 0
M  V30 6051 C 546.125 1.80721 -3.89408 0
M  V30 6052 C 545.358 2.9981 -4.41531 0
M  V30 6053 O 545.581 4.13727 -3.92666 0
M  V30 6054 O 544.515 2.79817 -5.32903 0
M  V30 6055 H 548.341 0.446364 -3.00402 0
M  V30 6056 H 545.926 0.154367 -1.486 0
M  V30 6057 H 547.808 2.89856 -3.05878 0
M  V30 6058 H 546.483 2.62454 -1.89471 0
M  V30 6059 H 545.39 1.04646 -3.59166 0
M  V30 6060 H 546.723 1.39571 -4.71997 0
M  V30 6061 N 548.375 1.56261 0.205012 0
M  V30 6062 C 549.338 1.92908 1.23771 0
M  V30 6063 C 550.338 0.809208 1.38955 0
M  V30 6064 O 551.528 1.07676 1.36936 0
M  V30 6065 C 548.66 2.19442 2.60879 0
M  V30 6066 H 549.853 2.85287 0.924728 0
M  V30 6067 H 547.406 1.49798 0.446125 0
M  V30 6068 H 548.141 1.29668 2.97248 0
M  V30 6069 H 547.926 3.0104 2.51232 0
M  V30 6070 H 549.416 2.48833 3.35368 0
M  V30 6071 N 549.853 -0.472356 1.50355 0
M  V30 6072 C 551.081 -1.24784 1.65035 0
M  V30 6073 C 551.496 -1.85837 0.333176 0
M  V30 6074 O 550.853 -1.69168 -0.68472 0
M  V30 6075 C 550.904 -2.35747 2.74054 0
M  V30 6076 O 550.625 -1.77197 4.00665 0
M  V30 6077 C 552.126 -3.26645 2.99696 0
M  V30 6078 H 549.346 -0.377432 0.554785 0
M  V30 6079 H 551.89 -0.563962 1.9657 0
M  V30 6080 H 550.045 -2.99912 2.45217 0
M  V30 6081 H 550.459 -2.5026 4.60945 0
M  V30 6082 H 551.933 -4.00718 3.79644 0
M  V30 6083 H 552.41 -3.8535 2.10718 0
M  V30 6084 H 553.016 -2.68218 3.3006 0
M  V30 6085 N 551.331 -1.39911 -0.725443 0
M  V30 6086 C 552.747 -1.21725 -1.03224 0
M  V30 6087 C 552.947 -0.0855224 -2.01318 0
M  V30 6088 O 552.003 0.55976 -2.46217 0
M  V30 6089 C 553.316 -2.55511 -1.58539 0
M  V30 6090 C 554.864 -2.62439 -1.70572 0
M  V30 6091 C 555.339 -3.9647 -2.29294 0
M  V30 6092 N 556.83 -3.98159 -2.36692 0
M  V30 6093 C 557.565 -4.98647 -2.83088 0
M  V30 6094 N 557.061 -6.0953 -3.2931 0
M  V30 6095 N 558.854 -4.8602 -2.82384 0
M  V30 6096 H 551.005 -2.12267 -0.075048 0
M  V30 6097 H 553.268 -0.943136 -0.0959066 0
M  V30 6098 H 552.974 -3.38926 -0.939249 0
M  V30 6099 H 552.848 -2.75905 -2.57208 0
M  V30 6100 H 555.235 -1.79401 -2.34306 0
M  V30 6101 H 555.316 -2.45885 -0.705297 0
M  V30 6102 H 554.96 -4.79942 -1.66186 0
M  V30 6103 H 554.89 -4.10349 -3.30032 0
M  V30 6104 H 557.381 -3.18085 -2.04035 0
M  V30 6105 H 557.694 -6.82106 -3.6325 0
M  V30 6106 H 556.039 -6.1311 -3.27294 0
M  V30 6107 H 559.23 -3.98493 -2.45603 0
M  V30 6108 H 559.403 -5.64478 -3.18226 0
M  V30 6109 N 552.809 0.956637 -1.25245 0
M  V30 6110 C 554.086 1.67716 -1.00651 0
M  V30 6111 C 554.466 2.0585 0.467866 0
M  V30 6112 O 553.814 1.77029 1.44475 0
M  V30 6113 C 554.024 2.90093 -1.94028 0
M  V30 6114 C 555.372 3.6209 -2.21756 0
M  V30 6115 O 556.396 3.00171 -1.9177 0
M  V30 6116 O 555.255 4.7358 -2.72735 0
M  V30 6117 H 552.349 0.733731 -0.381533 0
M  V30 6118 H 554.895 1.00974 -1.3639 0
M  V30 6119 H 553.667 2.58689 -2.93591 0
M  V30 6120 H 553.29 3.64566 -1.58674 0
M  V30 6121 N 554.287 1.06798 1.15896 0
M  V30 6122 C 555.515 0.808694 1.90441 0
M  V30 6123 C 555.93 -0.637506 1.77711 0
M  V30 6124 O 555.287 -1.43684 1.12522 0
M  V30 6125 C 555.338 1.20068 3.40978 0
M  V30 6126 O 555.059 2.59013 3.53333 0
M  V30 6127 C 556.56 0.96987 4.3256 0
M  V30 6128 H 553.78 0.292809 0.603742 0
M  V30 6129 H 556.324 1.42296 1.46874 0
M  V30 6130 H 554.479 0.630842 3.82229 0
M  V30 6131 H 554.893 2.7485 4.46719 0
M  V30 6132 H 556.367 1.29371 5.36626 0
M  V30 6133 H 556.844 -0.0941209 4.39099 0
M  V30 6134 H 557.45 1.52433 3.97044 0
M  V30 6135 N 555.766 -1.3263 0.851289 0
M  V30 6136 C 557.015 -1.96633 0.449267 0
M  V30 6137 C 557.328 -1.68131 -0.999562 0
M  V30 6138 O 558.534 -2.25845 -1.50685 0
M  V30 6139 C 556.99 -3.51946 0.752446 0
M  V30 6140 C 556.598 -3.89311 2.21678 0
M  V30 6141 C 558.342 -4.22437 0.417983 0
M  V30 6142 C 556.249 -5.37655 2.46336 0
M  V30 6143 H 555.179 -0.735888 0.164269 0
M  V30 6144 H 557.83 -1.51073 1.0416 0
M  V30 6145 H 556.212 -3.95899 0.0895858 0
M  V30 6146 H 557.386 -3.56378 2.92115 0
M  V30 6147 H 555.701 -3.31836 2.51543 0
M  V30 6148 H 558.298 -5.31549 0.579674 0
M  V30 6149 H 558.641 -4.11349 -0.640115 0
M  V30 6150 H 559.174 -3.84057 1.03659 0
M  V30 6151 H 555.913 -5.5376 3.50757 0
M  V30 6152 H 555.433 -5.72005 1.80473 0
M  V30 6153 H 557.112 -6.04695 2.30115 0
M  V30 6154 N 557.244 -0.608902 -1.45362 0
M  V30 6155 C 558.491 -0.104607 -2.0223 0
M  V30 6156 C 558.819 1.26534 -1.47714 0
M  V30 6157 O 558.074 1.84855 -0.642435 0
M  V30 6158 C 558.373 -0.0167296 -3.57396 0
M  V30 6159 C 558.039 -1.32251 -4.31069 0
M  V30 6160 C 556.701 -1.68019 -4.50914 0
M  V30 6161 C 559.053 -2.18542 -4.73169 0
M  V30 6162 C 556.381 -2.89828 -5.10114 0
M  V30 6163 C 558.733 -3.39602 -5.33717 0
M  V30 6164 C 557.397 -3.7562 -5.51784 0
M  V30 6165 H 556.667 -0.0382785 -0.740011 0
M  V30 6166 H 559.314 -0.790782 -1.7441 0
M  V30 6167 H 557.619 0.752715 -3.84502 0
M  V30 6168 H 559.316 0.389634 -3.99103 0
M  V30 6169 H 555.906 -1.03411 -4.15938 0
M  V30 6170 H 560.09 -1.92208 -4.5757 0
M  V30 6171 H 555.346 -3.17839 -5.22291 0
M  V30 6172 H 559.52 -4.06716 -5.65292 0
M  V30 6173 H 557.147 -4.70093 -5.97425 0
M  V30 6174 N 558.722 1.53707 -0.348139 0
M  V30 6175 C 560.138 1.596 0.00361134 0
M  V30 6176 C 560.338 1.36394 1.4832 0
M  V30 6177 O 559.394 1.16046 2.24253 0
M  V30 6178 C 560.707 2.97512 -0.436682 0
M  V30 6179 C 562.255 3.10568 -0.389416 0
M  V30 6180 C 562.73 4.50866 -0.805249 0
M  V30 6181 N 564.221 4.56929 -0.759616 0
M  V30 6182 C 564.956 5.63643 -1.05327 0
M  V30 6183 N 564.452 6.78189 -1.41531 0
M  V30 6184 N 566.245 5.5354 -0.977207 0
M  V30 6185 H 558.396 1.67044 -1.31187 0
M  V30 6186 H 560.659 0.782559 -0.535075 0
M  V30 6187 H 560.365 3.19575 -1.46849 0
M  V30 6188 H 560.239 3.76742 0.185744 0
M  V30 6189 H 562.626 2.88226 0.633228 0
M  V30 6190 H 562.707 2.33387 -1.04711 0
M  V30 6191 H 562.351 4.73943 -1.82593 0
M  V30 6192 H 562.281 5.26452 -0.124989 0
M  V30 6193 H 564.772 3.74675 -0.49265 0
M  V30 6194 H 565.085 7.55541 -1.62411 0
M  V30 6195 H 563.43 6.79624 -1.45381 0
M  V30 6196 H 566.621 4.62932 -0.693675 0
M  V30 6197 H 566.794 6.36614 -1.2094 0
M  V30 6198 N 560.2 0.0768682 1.57412 0
M  V30 6199 C 561.448 -0.589918 1.93299 0
M  V30 6200 C 561.769 -1.69842 0.958049 0
M  V30 6201 O 561.039 -1.95899 0.00703261 0
M  V30 6202 H 559.619 -0.220901 0.713591 0
M  V30 6203 H 562.281 0.135917 1.94425 0
M  V30 6204 H 561.377 -1.01195 2.95239 0
M  V30 6205 N 561.678 -1.56367 -0.196722 0
M  V30 6206 C 562.908 -1.84371 -0.932254 0
M  V30 6207 C 563.316 -0.657013 -1.77426 0
M  V30 6208 O 562.659 0.383576 -1.79651 0
M  V30 6209 C 562.721 -3.06454 -1.87952 0
M  V30 6210 C 562.385 -4.40425 -1.21962 0
M  V30 6211 C 563.382 -5.16457 -0.597343 0
M  V30 6212 C 561.067 -4.8716 -1.22396 0
M  V30 6213 C 563.061 -6.37399 0.0117913 0
M  V30 6214 C 560.748 -6.08038 -0.610995 0
M  V30 6215 C 561.746 -6.83 0.00580487 0
M  V30 6216 O 561.434 -8.01589 0.609173 0
M  V30 6217 H 561.166 -0.616377 -0.277589 0
M  V30 6218 H 563.72 -2.04329 -0.209452 0
M  V30 6219 H 561.95 -2.82377 -2.64197 0
M  V30 6220 H 563.639 -3.21118 -2.48271 0
M  V30 6221 H 564.405 -4.81445 -0.586142 0
M  V30 6222 H 560.284 -4.2877 -1.69345 0
M  V30 6223 H 563.828 -6.9585 0.493836 0
M  V30 6224 H 559.725 -6.42519 -0.619693 0
M  V30 6225 H 560.493 -8.16935 0.505919 0
M  V30 6226 N 563.156 0.464375 -1.50603 0
M  V30 6227 C 564.086 1.56944 -1.72889 0
M  V30 6228 C 565.067 1.59979 -0.577997 0
M  V30 6229 O 566.252 1.76138 -0.817855 0
M  V30 6230 C 563.382 2.95225 -1.8292 0
M  V30 6231 C 562.336 3.07056 -2.98162 0
M  V30 6232 C 561.662 4.47051 -2.93343 0
M  V30 6233 C 562.962 2.83648 -4.38567 0
M  V30 6234 H 564.656 1.38547 -2.65415 0
M  V30 6235 H 562.202 0.665082 -1.27721 0
M  V30 6236 H 564.155 3.72467 -1.97095 0
M  V30 6237 H 562.879 3.14793 -0.870209 0
M  V30 6238 H 561.538 2.32248 -2.83648 0
M  V30 6239 H 561.186 4.63547 -1.95276 0
M  V30 6240 H 560.886 4.55902 -3.70712 0
M  V30 6241 H 562.41 5.26304 -3.09575 0
M  V30 6242 H 563.824 3.50636 -4.53572 0
M  V30 6243 H 562.221 3.03937 -5.17438 0
M  V30 6244 H 563.291 1.79451 -4.50472 0
M  V30 6245 N 564.634 1.40294 0.718013 0
M  V30 6246 C 565.883 1.37746 1.4734 0
M  V30 6247 C 566.196 -0.0180754 1.95592 0
M  V30 6248 O 567.402 -0.166166 2.70991 0
M  V30 6249 C 565.858 2.4208 2.66318 0
M  V30 6250 C 565.466 3.87432 2.24945 0
M  V30 6251 C 567.21 2.48635 3.44065 0
M  V30 6252 C 565.117 4.83368 3.40748 0
M  V30 6253 H 564.047 0.512165 0.553356 0
M  V30 6254 H 566.698 1.66019 0.781661 0
M  V30 6255 H 565.08 2.06903 3.3765 0
M  V30 6256 H 566.254 4.3174 1.6105 0
M  V30 6257 H 564.569 3.8433 1.60249 0
M  V30 6258 H 567.166 3.17499 4.30231 0
M  V30 6259 H 567.509 1.51611 3.87711 0
M  V30 6260 H 568.042 2.82791 2.79775 0
M  V30 6261 H 564.781 5.81716 3.02136 0
M  V30 6262 H 564.301 4.43726 4.03568 0
M  V30 6263 H 565.98 5.03074 4.06848 0
M  V30 6264 N 566.112 -0.949982 1.2575 0
M  V30 6265 C 567.523 -1.50989 1.09815 0
M  V30 6266 C 567.874 -1.93497 -0.324556 0
M  V30 6267 O 566.999 -1.79068 -1.21506 0
M  V30 6268 C 567.594 -2.74394 1.98729 0
M  V30 6269 C 566.153 -3.26682 1.86965 0
M  V30 6270 C 565.3 -1.99498 1.92603 0
M  V30 6271 H 568.251 -0.766387 1.38968 0
M  V30 6272 H 568.272 -3.48383 1.53001 0
M  V30 6273 H 567.784 -2.43425 3.02268 0
M  V30 6274 H 565.885 -3.62461 0.863279 0
M  V30 6275 H 565.998 -3.94383 2.72027 0
M  V30 6276 H 564.362 -2.15005 1.36546 0
M  V30 6277 H 565.145 -1.70871 2.97755 0
M  V30 6278 N 567.59 -1.07411 -1.15328 0
M  V30 6279 C 568.537 -0.694995 -2.20087 0
M  V30 6280 C 569.507 0.313904 -1.63107 0
M  V30 6281 O 570.692 0.200216 -1.89747 0
M  V30 6282 C 567.832 -0.0996218 -3.44956 0
M  V30 6283 C 566.945 -1.16007 -4.16133 0
M  V30 6284 C 566.08 -0.529636 -5.28553 0
M  V30 6285 C 565.119 -1.57283 -5.91548 0
M  V30 6286 N 564.256 -0.964932 -6.95438 0
M  V30 6287 H 569.096 -1.5927 -2.51867 0
M  V30 6288 H 566.633 -0.796115 -1.23695 0
M  V30 6289 H 568.591 0.263197 -4.16369 0
M  V30 6290 H 567.221 0.761435 -3.13691 0
M  V30 6291 H 566.273 -1.64045 -3.4321 0
M  V30 6292 H 567.585 -1.95101 -4.59061 0
M  V30 6293 H 566.739 -0.114487 -6.06592 0
M  V30 6294 H 565.478 0.29307 -4.86819 0
M  V30 6295 H 564.483 -1.99775 -5.12221 0
M  V30 6296 H 565.708 -2.39783 -6.35359 0
M  V30 6297 H 563.654 -0.16314 -6.55797 0
M  V30 6298 H 563.571 -1.69311 -7.36797 0
M  V30 6299 H 564.839 -0.575305 -7.77374 0
M  V30 6300 N 569.068 1.32177 -0.85831 0
M  V30 6301 C 570.316 1.96735 -0.462568 0
M  V30 6302 C 570.637 1.6824 0.985911 0
M  V30 6303 O 569.907 0.991564 1.68952 0
M  V30 6304 H 568.487 0.727849 -0.168064 0
M  V30 6305 H 571.149 1.61195 -1.09554 0
M  V30 6306 H 570.245 3.06068 -0.610647 0
M  V30 6307 N 570.547 0.616602 1.45037 0
M  V30 6308 C 571.775 0.121968 2.0654 0
M  V30 6309 C 572.19 -1.19743 1.45969 0
M  V30 6310 O 571.547 -1.73133 0.577168 0
M  V30 6311 C 571.598 -0.0145171 3.61497 0
M  V30 6312 O 571.319 1.25269 4.19809 0
M  V30 6313 C 572.82 -0.539555 4.40004 0
M  V30 6314 H 570.04 0.0729837 0.667019 0
M  V30 6315 H 572.584 0.846891 1.8614 0
M  V30 6316 H 570.739 -0.689809 3.81209 0
M  V30 6317 H 571.153 1.08816 5.13088 0
M  V30 6318 H 572.627 -0.584112 5.48901 0
M  V30 6319 H 573.104 -1.56368 4.10421 0
M  V30 6320 H 573.71 0.101995 4.25178 0
M  V30 6321 N 572.025 -1.5352 0.356285 0
M  V30 6322 C 573.271 -2.01414 -0.236653 0
M  V30 6323 C 573.604 -1.24339 -1.49176 0
M  V30 6324 O 572.879 -0.334496 -1.91602 0
M  V30 6325 C 573.162 -3.56059 -0.537982 0
M  V30 6326 C 573.015 -4.43835 0.730112 0
M  V30 6327 C 574.334 -4.19127 -1.34239 0
M  V30 6328 H 571.453 -0.732135 -0.0845386 0
M  V30 6329 H 574.095 -1.83854 0.479341 0
M  V30 6330 H 572.245 -3.71153 -1.14795 0
M  V30 6331 H 573.917 -4.40555 1.36782 0
M  V30 6332 H 572.16 -4.1218 1.3524 0
M  V30 6333 H 572.831 -5.49958 0.474358 0
M  V30 6334 H 575.307 -4.07809 -0.826498 0
M  V30 6335 H 574.183 -5.27378 -1.52198 0
M  V30 6336 H 574.444 -3.74581 -2.34822 0
M  V30 6337 N 573.503 -0.0852151 -1.57369 0
M  V30 6338 C 574.749 0.581666 -1.94279 0
M  V30 6339 C 575.082 1.68444 -0.966446 0
M  V30 6340 O 574.357 1.945 0.00215277 0
M  V30 6341 C 574.64 1.14609 -3.41375 0
M  V30 6342 C 574.493 0.0490414 -4.49773 0
M  V30 6343 C 575.812 2.04751 -3.8957 0
M  V30 6344 H 572.931 0.209972 -0.706456 0
M  V30 6345 H 575.573 -0.153915 -1.89376 0
M  V30 6346 H 573.723 1.77297 -3.45685 0
M  V30 6347 H 575.395 -0.584721 -4.57579 0
M  V30 6348 H 573.638 -0.618638 -4.29366 0
M  V30 6349 H 574.309 0.484601 -5.49869 0
M  V30 6350 H 576.785 1.51981 -3.87351 0
M  V30 6351 H 575.661 2.41173 -4.93079 0
M  V30 6352 H 575.922 2.96107 -3.28288 0
M  V30 6353 N 574.981 1.5647 0.188427 0
M  V30 6354 C 576.227 1.81281 0.909124 0
M  V30 6355 C 576.56 0.66034 1.82628 0
M  V30 6356 O 575.835 -0.338737 1.91528 0
M  V30 6357 C 576.118 3.16388 1.7196 0
M  V30 6358 C 575.971 4.42137 0.826714 0
M  V30 6359 C 577.29 3.48256 2.69083 0
M  V30 6360 H 574.409 0.659457 0.329068 0
M  V30 6361 H 577.051 1.89182 0.176156 0
M  V30 6362 H 575.201 3.09784 2.34448 0
M  V30 6363 H 576.873 4.60794 0.216025 0
M  V30 6364 H 575.116 4.33594 0.133792 0
M  V30 6365 H 575.787 5.33184 1.42893 0
M  V30 6366 H 578.263 3.55203 2.16726 0
M  V30 6367 H 577.139 4.43899 3.2287 0
M  V30 6368 H 577.4 2.72088 3.48455 0
M  V30 6369 N 576.459 -0.456382 1.50847 0
M  V30 6370 C 577.87 -1.03685 1.55262 0
M  V30 6371 C 578.221 -1.92779 0.364771 0
M  V30 6372 O 577.346 -2.10043 -0.52068 0
M  V30 6373 C 577.941 -1.88718 2.81374 0
M  V30 6374 C 576.5 -2.41847 2.88422 0
M  V30 6375 C 575.647 -1.20564 2.49719 0
M  V30 6376 H 578.598 -0.238399 1.56899 0
M  V30 6377 H 578.619 -2.73957 2.6406 0
M  V30 6378 H 578.131 -1.23847 3.67809 0
M  V30 6379 H 576.232 -3.10228 2.06372 0
M  V30 6380 H 576.345 -2.75947 3.9165 0
M  V30 6381 H 574.709 -1.54504 2.02486 0
M  V30 6382 H 575.492 -0.573326 3.38479 0
M  V30 6383 N 577.937 -1.40673 -0.710563 0
M  V30 6384 C 579.165 -1.42547 -1.4996 0
M  V30 6385 C 579.58 -0.0265485 -1.88781 0
M  V30 6386 O 578.937 0.950694 -1.55782 0
M  V30 6387 C 578.988 -2.32071 -2.77173 0
M  V30 6388 O 578.709 -3.66518 -2.39992 0
M  V30 6389 C 580.21 -2.42591 -3.71032 0
M  V30 6390 H 577.43 -0.486025 -0.462623 0
M  V30 6391 H 579.974 -1.84783 -0.876102 0
M  V30 6392 H 578.129 -1.93184 -3.35795 0
M  V30 6393 H 578.543 -4.14115 -3.21884 0
M  V30 6394 H 580.017 -3.09429 -4.57119 0
M  V30 6395 H 580.494 -1.4525 -4.14486 0
M  V30 6396 H 581.1 -2.82051 -3.18319 0
M  V30 6397 N 579.415 0.9433 -1.26252 0
M  V30 6398 C 580.345 2.05902 -1.10122 0
M  V30 6399 C 581.326 1.70099 -0.00700552 0
M  V30 6400 O 582.511 1.93377 -0.178641 0
M  V30 6401 C 579.641 3.39516 -0.731175 0
M  V30 6402 C 578.595 3.89372 -1.77688 0
M  V30 6403 C 577.921 5.19613 -1.26122 0
M  V30 6404 C 579.221 4.14489 -3.17799 0
M  V30 6405 H 580.915 2.19655 -2.03451 0
M  V30 6406 H 578.461 1.05548 -0.979576 0
M  V30 6407 H 580.414 4.17031 -0.605215 0
M  V30 6408 H 579.138 3.25733 0.23782 0
M  V30 6409 H 577.797 3.14036 -1.89148 0
M  V30 6410 H 577.445 5.02208 -0.282128 0
M  V30 6411 H 577.145 5.53939 -1.96023 0
M  V30 6412 H 578.669 5.99713 -1.14789 0
M  V30 6413 H 580.083 4.82625 -3.09428 0
M  V30 6414 H 578.48 4.60094 -3.85271 0
M  V30 6415 H 579.55 3.20347 -3.64014 0
M  V30 6416 N 580.893 1.08022 1.14757 0
M  V30 6417 C 582.17 0.720386 1.81851 0
M  V30 6418 C 582.55 -0.796375 1.95502 0
M  V30 6419 O 581.898 -1.71339 1.51179 0
M  V30 6420 C 582.108 1.44273 3.17783 0
M  V30 6421 C 583.456 1.59925 3.93331 0
M  V30 6422 O 584.48 1.40407 3.2736 0
M  V30 6423 O 583.339 1.92096 5.11626 0
M  V30 6424 H 580.433 0.257142 0.786007 0
M  V30 6425 H 582.979 1.18155 1.21809 0
M  V30 6426 H 581.751 2.47618 3.02987 0
M  V30 6427 H 581.374 0.97279 3.85516 0
M  V30 6428 N 582.371 -1.3172 0.865308 0
M  V30 6429 C 583.596 -2.01591 0.487415 0
M  V30 6430 C 584.021 -1.6455 -0.911307 0
M  V30 6431 O 583.379 -0.851689 -1.6005 0
M  V30 6432 C 583.427 -3.54759 0.646401 0
M  V30 6433 O 582.531 -4.11185 -0.316284 0
M  V30 6434 H 581.872 -0.634884 0.194468 0
M  V30 6435 H 584.402 -1.68024 1.16744 0
M  V30 6436 H 584.412 -4.04438 0.537932 0
M  V30 6437 H 583.087 -3.8106 1.66632 0
M  V30 6438 H 581.664 -3.72543 -0.163162 0
M  V30 6439 N 583.85 -0.624285 -1.44708 0
M  V30 6440 C 585.096 -0.126237 -2.02407 0
M  V30 6441 C 585.428 1.24618 -1.48943 0
M  V30 6442 O 584.704 1.82569 -0.670742 0
M  V30 6443 C 584.986 -0.105449 -3.59946 0
M  V30 6444 C 584.84 -1.50972 -4.23707 0
M  V30 6445 C 586.159 0.573629 -4.36346 0
M  V30 6446 H 583.278 -0.0473472 -0.735478 0
M  V30 6447 H 585.92 -0.799452 -1.72362 0
M  V30 6448 H 584.07 0.46783 -3.85673 0
M  V30 6449 H 585.742 -2.13136 -4.0911 0
M  V30 6450 H 583.985 -2.0656 -3.81465 0
M  V30 6451 H 584.656 -1.44727 -5.32689 0
M  V30 6452 H 587.132 0.0861787 -4.16011 0
M  V30 6453 H 586.008 0.557338 -5.46063 0
M  V30 6454 H 586.269 1.64276 -4.10446 0
M  V30 6455 N 585.328 1.53329 -0.364422 0
M  V30 6456 C 586.258 2.28627 0.474543 0
M  V30 6457 C 587.239 1.31009 1.08492 0
M  V30 6458 O 588.424 1.59878 1.10239 0
M  V30 6459 C 585.554 3.07465 1.61501 0
M  V30 6460 C 584.508 4.1276 1.13194 0
M  V30 6461 C 583.834 4.79674 2.36255 0
M  V30 6462 C 585.134 5.21847 0.217507 0
M  V30 6463 H 586.828 2.99005 -0.153656 0
M  V30 6464 H 584.374 1.43803 -0.0753406 0
M  V30 6465 H 586.327 3.58889 2.20855 0
M  V30 6466 H 585.051 2.34775 2.27042 0
M  V30 6467 H 583.71 3.62281 0.56109 0
M  V30 6468 H 583.358 4.03557 3.00251 0
M  V30 6469 H 583.058 5.50827 2.04606 0
M  V30 6470 H 584.582 5.33892 2.96297 0
M  V30 6471 H 585.996 5.6878 0.718493 0
M  V30 6472 H 584.393 6.00099 -0.00806408 0
M  V30 6473 H 585.463 4.7921 -0.740653 0
M  V30 6474 N 586.806 0.0935595 1.57322 0
M  V30 6475 C 588.036 -0.578095 1.98347 0
M  V30 6476 C 588.444 -1.62357 0.971441 0
M  V30 6477 O 587.787 -1.83639 -0.0473959 0
M  V30 6478 C 587.849 -1.28525 3.3574 0
M  V30 6479 C 587.513 -0.390714 4.55327 0
M  V30 6480 C 588.51 0.360522 5.18648 0
M  V30 6481 C 586.195 -0.309221 5.01347 0
M  V30 6482 C 588.189 1.18125 6.26359 0
M  V30 6483 C 585.876 0.515157 6.08925 0
M  V30 6484 C 586.874 1.25904 6.71295 0
M  V30 6485 O 586.562 2.06978 7.76798 0
M  V30 6486 H 586.294 -0.159767 0.656849 0
M  V30 6487 H 588.848 0.169058 2.04703 0
M  V30 6488 H 587.078 -2.07894 3.26063 0
M  V30 6489 H 588.767 -1.85128 3.61223 0
M  V30 6490 H 589.533 0.307285 4.84026 0
M  V30 6491 H 585.412 -0.877881 4.52564 0
M  V30 6492 H 588.956 1.76236 6.74971 0
M  V30 6493 H 584.853 0.56988 6.42979 0
M  V30 6494 H 585.621 1.99644 7.93779 0
M  V30 6495 N 588.284 -1.56567 -0.180126 0
M  V30 6496 C 589.561 -1.7235 -0.924931 0
M  V30 6497 C 589.941 -0.652523 -2.00762 0
M  V30 6498 O 589.289 0.334115 -2.26044 0
M  V30 6499 C 589.499 -3.1523 -1.49771 0
M  V30 6500 C 590.847 -3.75921 -1.97405 0
M  V30 6501 O 591.871 -3.18452 -1.59583 0
M  V30 6502 O 590.73 -4.7681 -2.67048 0
M  V30 6503 H 587.824 -0.703502 -0.434758 0
M  V30 6504 H 590.37 -1.6886 -0.168647 0
M  V30 6505 H 589.142 -3.84656 -0.718027 0
M  V30 6506 H 588.765 -3.23009 -2.31842 0
M  V30 6507 N 589.762 0.448376 -1.51087 0
M  V30 6508 C 590.71 1.56407 -1.72161 0
M  V30 6509 C 591.704 1.58878 -0.587721 0
M  V30 6510 O 592.91 1.62755 -0.768822 0
M  V30 6511 H 589.285 0.519423 -0.543786 0
M  V30 6512 H 591.256 1.35803 -2.65707 0
M  V30 6513 C 590.005 2.94163 -1.85373 0
M  V30 6514 H 589.328 2.9299 -2.72024 0
M  V30 6515 H 590.768 3.71625 -2.04135 0
M  V30 6516 C 589.227 3.31317 -0.610803 0
M  V30 6517 O 589.757 4.00985 0.239636 0
M  V30 6518 N 587.963 2.86966 -0.458127 0
M  V30 6519 H 587.51 2.30443 -1.15124 0
M  V30 6520 H 587.468 3.12188 0.372289 0
M  V30 6521 N 591.24 1.41047 0.703093 0
M  V30 6522 C 592.172 1.38228 1.82827 0
M  V30 6523 C 593.185 0.285637 1.60275 0
M  V30 6524 O 594.374 0.54685 1.69917 0
M  V30 6525 C 591.474 1.13136 3.19458 0
M  V30 6526 C 590.647 2.34695 3.69103 0
M  V30 6527 C 589.706 2.05574 4.84382 0
M  V30 6528 O 588.732 2.78549 4.96386 0
M  V30 6529 N 589.934 1.04135 5.71083 0
M  V30 6530 H 592.699 2.35203 1.85741 0
M  V30 6531 H 590.26 1.35562 0.885125 0
M  V30 6532 H 592.252 0.916183 3.94193 0
M  V30 6533 H 590.822 0.247836 3.11616 0
M  V30 6534 H 590.042 2.71963 2.85359 0
M  V30 6535 H 591.33 3.15705 3.99009 0
M  V30 6536 H 590.728 0.43722 5.64008 0
M  V30 6537 H 589.285 0.886078 6.45749 0
M  V30 6538 N 592.718 -0.936591 1.26751 0
M  V30 6539 C 593.628 -2.06949 1.10496 0
M  V30 6540 C 594.644 -1.7396 0.037271 0
M  V30 6541 O 595.82 -1.99941 0.241944 0
M  V30 6542 C 592.885 -3.38612 0.744491 0
M  V30 6543 C 591.946 -3.85355 1.89209 0
M  V30 6544 C 591.179 -5.10735 1.54873 0
M  V30 6545 O 591.402 -5.68602 0.452546 0
M  V30 6546 O 590.336 -5.52632 2.38499 0
M  V30 6547 H 594.162 -2.23571 2.05547 0
M  V30 6548 H 591.747 -1.05428 1.05855 0
M  V30 6549 H 593.629 -4.17711 0.556396 0
M  V30 6550 H 592.304 -3.23218 -0.176582 0
M  V30 6551 H 591.211 -3.07182 2.13518 0
M  V30 6552 H 592.544 -4.05277 2.79305 0
M  V30 6553 N 594.196 -1.08629 -1.14182 0
M  V30 6554 C 595.443 -0.817345 -1.85272 0
M  V30 6555 C 595.771 0.656917 -1.83071 0
M  V30 6556 O 595.026 1.49897 -1.25815 0
M  V30 6557 C 595.325 -1.28734 -3.3341 0
M  V30 6558 C 594.991 -2.76981 -3.55798 0
M  V30 6559 C 593.653 -3.17469 -3.61617 0
M  V30 6560 C 596.005 -3.72605 -3.64438 0
M  V30 6561 C 593.333 -4.52371 -3.736 0
M  V30 6562 C 595.685 -5.07286 -3.77947 0
M  V30 6563 C 594.349 -5.47376 -3.82016 0
M  V30 6564 H 593.619 -0.299088 -0.677958 0
M  V30 6565 H 596.266 -1.35962 -1.34857 0
M  V30 6566 H 594.571 -0.664702 -3.8612 0
M  V30 6567 H 596.268 -1.05598 -3.86846 0
M  V30 6568 H 592.858 -2.44644 -3.51919 0
M  V30 6569 H 597.042 -3.42443 -3.5923 0
M  V30 6570 H 592.298 -4.82882 -3.75013 0
M  V30 6571 H 596.472 -5.81243 -3.83575 0
M  V30 6572 H 594.099 -6.51906 -3.91054 0
M  V30 6573 N 595.674 1.31259 -0.872281 0
M  V30 6574 C 597.085 1.78822 -0.536617 0
M  V30 6575 C 597.436 1.71855 0.946594 0
M  V30 6576 O 596.561 1.28769 1.73918 0
M  V30 6577 C 597.156 3.24698 -0.967294 0
M  V30 6578 C 595.715 3.70147 -0.683251 0
M  V30 6579 C 594.862 2.51994 -1.15733 0
M  V30 6580 H 597.813 1.18308 -1.05777 0
M  V30 6581 H 597.834 3.79386 -0.290929 0
M  V30 6582 H 597.346 3.29737 -2.04683 0
M  V30 6583 H 595.447 3.70607 0.384825 0
M  V30 6584 H 595.56 4.62183 -1.2619 0
M  V30 6585 H 593.924 2.48078 -0.577024 0
M  V30 6586 H 594.707 2.59778 -2.24434 0
M  V30 6587 N 597.152 0.631951 1.44375 0
M  V30 6588 C 598.429 0.067646 1.95483 0
M  V30 6589 C 598.809 -1.40683 1.57389 0
M  V30 6590 O 598.157 -2.12167 0.848375 0
M  V30 6591 C 598.367 0.291392 3.47781 0
M  V30 6592 C 599.715 0.185028 4.24197 0
M  V30 6593 O 600.739 0.222803 3.55503 0
M  V30 6594 O 599.598 0.0906642 5.46425 0
M  V30 6595 H 596.692 -0.0218379 0.826712 0
M  V30 6596 H 599.238 0.703711 1.54421 0
M  V30 6597 H 598.01 1.31449 3.68561 0
M  V30 6598 H 597.633 -0.378772 3.95792 0
M  V30 6599 N 598.631 -1.53133 0.372548 0
M  V30 6600 C 600.042 -1.86404 -0.105155 0
M  V30 6601 C 600.393 -1.29289 -1.47576 0
M  V30 6602 O 599.518 -0.617646 -2.07398 0
M  V30 6603 C 600.113 -3.38223 -0.197588 0
M  V30 6604 C 598.672 -3.71266 -0.619556 0
M  V30 6605 C 597.819 -2.76353 0.228919 0
M  V30 6606 H 600.77 -1.47282 0.591077 0
M  V30 6607 H 600.791 -3.66577 -1.01987 0
M  V30 6608 H 600.303 -3.79763 0.800099 0
M  V30 6609 H 598.404 -3.35287 -1.62522 0
M  V30 6610 H 598.517 -4.77515 -0.389332 0
M  V30 6611 H 596.881 -2.52888 -0.303271 0
M  V30 6612 H 597.664 -3.20728 1.22428 0
M  V30 6613 N 600.109 -0.101901 -1.5727 0
M  V30 6614 C 601.019 0.868647 -2.17926 0
M  V30 6615 C 602.035 1.30527 -1.1506 0
M  V30 6616 O 603.211 1.37178 -1.47459 0
M  V30 6617 C 600.276 2.10727 -2.75309 0
M  V30 6618 C 599.337 1.7242 -3.93154 0
M  V30 6619 C 598.57 2.90377 -4.47791 0
M  V30 6620 O 598.793 4.05305 -4.01353 0
M  V30 6621 O 597.727 2.6845 -5.38719 0
M  V30 6622 H 601.553 0.382544 -3.01281 0
M  V30 6623 H 599.138 0.122812 -1.48894 0
M  V30 6624 H 601.02 2.83303 -3.11958 0
M  V30 6625 H 599.695 2.58376 -1.94996 0
M  V30 6626 H 598.602 0.970039 -3.61305 0
M  V30 6627 H 599.935 1.29528 -4.74851 0
M  V30 6628 N 601.587 1.56661 0.17182 0
M  V30 6629 C 602.534 1.96371 1.21273 0
M  V30 6630 C 603.504 0.82756 1.44016 0
M  V30 6631 O 604.689 1.08764 1.56764 0
M  V30 6632 C 601.829 2.32838 2.54716 0
M  V30 6633 C 600.942 3.59628 2.39356 0
M  V30 6634 C 600.077 3.85311 3.65662 0
M  V30 6635 C 599.116 5.0545 3.45234 0
M  V30 6636 N 598.253 5.27268 4.63608 0
M  V30 6637 H 603.093 2.85106 0.86709 0
M  V30 6638 H 600.63 1.41073 0.416744 0
M  V30 6639 H 602.588 2.52004 3.3249 0
M  V30 6640 H 601.218 1.47214 2.87277 0
M  V30 6641 H 600.27 3.4838 1.52761 0
M  V30 6642 H 601.582 4.4756 2.20207 0
M  V30 6643 H 600.736 4.04841 4.51872 0
M  V30 6644 H 599.475 2.95753 3.8779 0
M  V30 6645 H 598.48 4.85819 2.5741 0
M  V30 6646 H 599.705 5.96538 3.24529 0
M  V30 6647 H 597.651 4.40662 4.85956 0
M  V30 6648 H 597.568 6.09422 4.4737 0
M  V30 6649 H 598.836 5.51277 5.51103 0
M  V30 6650 N 603.065 -0.440357 1.51323 0
M  V30 6651 C 604.312 -1.19004 1.63842 0
M  V30 6652 C 604.64 -1.91266 0.35321 0
M  V30 6653 O 603.895 -1.84143 -0.662565 0
M  V30 6654 C 604.194 -2.2339 2.78984 0
M  V30 6655 C 603.86 -1.68162 4.18369 0
M  V30 6656 C 602.522 -1.52823 4.56288 0
M  V30 6657 C 604.874 -1.27524 5.05358 0
M  V30 6658 C 602.202 -0.953157 5.78906 0
M  V30 6659 C 604.554 -0.714474 6.28552 0
M  V30 6660 C 603.218 -0.547961 6.65247 0
M  V30 6661 H 602.488 -0.435468 0.59954 0
M  V30 6662 H 605.135 -0.481538 1.85347 0
M  V30 6663 H 603.44 -3.00267 2.51688 0
M  V30 6664 H 605.137 -2.81211 2.85869 0
M  V30 6665 H 601.727 -1.81077 3.8847 0
M  V30 6666 H 605.911 -1.38197 4.76671 0
M  V30 6667 H 601.167 -0.811882 6.05986 0
M  V30 6668 H 605.341 -0.391059 6.95301 0
M  V30 6669 H 602.968 -0.100222 7.60134 0
M  V30 6670 N 604.543 -1.41418 -0.695603 0
M  V30 6671 C 605.49 -1.43264 -1.80954 0
M  V30 6672 C 606.46 -0.287016 -1.63601 0
M  V30 6673 O 607.645 -0.488054 -1.84452 0
M  V30 6674 C 604.785 -1.32054 -3.18835 0
M  V30 6675 C 603.898 -2.56485 -3.4762 0
M  V30 6676 C 603.033 -2.3757 -4.75115 0
M  V30 6677 C 602.072 -3.57477 -4.96867 0
M  V30 6678 N 601.209 -3.37632 -6.15588 0
M  V30 6679 H 606.049 -2.38467 -1.78711 0
M  V30 6680 H 603.586 -1.18415 -0.872715 0
M  V30 6681 H 605.544 -1.23558 -3.98484 0
M  V30 6682 H 604.174 -0.404592 -3.20254 0
M  V30 6683 H 603.226 -2.75432 -2.62376 0
M  V30 6684 H 604.538 -3.45678 -3.59594 0
M  V30 6685 H 603.692 -2.2654 -5.62818 0
M  V30 6686 H 602.431 -1.45834 -4.65386 0
M  V30 6687 H 601.436 -3.68961 -4.07612 0
M  V30 6688 H 602.661 -4.50167 -5.08455 0
M  V30 6689 H 600.607 -2.48596 -6.07072 0
M  V30 6690 H 600.524 -4.20401 -6.2833 0
M  V30 6691 H 601.792 -3.30375 -7.06026 0
M  V30 6692 N 606.021 0.929856 -1.27246 0
M  V30 6693 C 607.432 1.49223 -1.12203 0
M  V30 6694 C 607.783 1.93989 0.293731 0
M  V30 6695 O 606.908 1.80978 1.18642 0
M  V30 6696 C 607.503 2.71198 -2.0307 0
M  V30 6697 C 606.062 3.23666 -1.92139 0
M  V30 6698 C 605.209 1.96409 -1.95752 0
M  V30 6699 H 608.16 0.744181 -1.4017 0
M  V30 6700 H 608.181 3.45905 -1.58524 0
M  V30 6701 H 607.693 2.38585 -3.06102 0
M  V30 6702 H 605.794 3.61042 -0.920834 0
M  V30 6703 H 605.907 3.90006 -2.78267 0
M  V30 6704 H 604.271 2.12806 -1.39949 0
M  V30 6705 H 605.054 1.66113 -3.00436 0
M  V30 6706 N 607.499 1.09233 1.13605 0
M  V30 6707 C 608.409 0.741939 2.22559 0
M  V30 6708 C 609.425 -0.255236 1.72118 0
M  V30 6709 O 610.601 -0.0970747 2.01166 0
M  V30 6710 C 607.666 0.165595 3.46304 0
M  V30 6711 C 606.727 1.21846 4.11645 0
M  V30 6712 C 605.96 0.669526 5.29484 0
M  V30 6713 O 606.183 -0.508228 5.68131 0
M  V30 6714 O 605.117 1.42361 5.84822 0
M  V30 6715 H 608.943 1.65107 2.54899 0
M  V30 6716 H 606.528 0.866584 1.21699 0
M  V30 6717 H 608.41 -0.152592 4.21124 0
M  V30 6718 H 607.085 -0.716573 3.15669 0
M  V30 6719 H 605.992 1.58931 3.38662 0
M  V30 6720 H 607.325 2.07321 4.46407 0
M  V30 6721 N 608.977 -1.30795 0.87923 0
M  V30 6722 C 609.927 -2.25838 0.313276 0
M  V30 6723 C 610.911 -1.51025 -0.55499 0
M  V30 6724 O 612.103 -1.72413 -0.400353 0
M  V30 6725 C 609.232 -3.39981 -0.476204 0
M  V30 6726 C 608.318 -4.22154 0.405826 0
M  V30 6727 N 608.709 -4.82934 1.50362 0
M  V30 6728 C 607.007 -4.45552 0.199909 0
M  V30 6729 C 607.708 -5.44444 2.0483 0
M  V30 6730 N 606.684 -5.26723 1.34403 0
M  V30 6731 H 610.486 -2.70374 1.15218 0
M  V30 6732 H 608 -1.45168 0.728003 0
M  V30 6733 H 609.997 -4.07108 -0.898251 0
M  V30 6734 H 608.657 -2.96986 -1.31261 0
M  V30 6735 H 609.668 -4.82319 1.8865 0
M  V30 6736 H 606.345 -4.13169 -0.599795 0
M  V30 6737 H 607.735 -6.02701 2.96986 0
M  V30 6738 N 610.455 -0.639598 -1.44038 0
M  V30 6739 C 611.702 -0.14748 -2.01962 0
M  V30 6740 C 612.03 1.23372 -1.50365 0
M  V30 6741 O 611.285 1.8345 -0.681501 0
M  V30 6742 C 611.584 -0.0925348 -3.5728 0
M  V30 6743 C 611.25 -1.41365 -4.28167 0
M  V30 6744 C 609.912 -1.77545 -4.47248 0
M  V30 6745 C 612.264 -2.2853 -4.68427 0
M  V30 6746 C 609.592 -3.00583 -5.03852 0
M  V30 6747 C 611.944 -3.50846 -5.26393 0
M  V30 6748 C 610.608 -3.8724 -5.43692 0
M  V30 6749 H 609.878 -0.0539666 -0.739032 0
M  V30 6750 H 612.525 -0.827599 -1.72694 0
M  V30 6751 H 610.83 0.670987 -3.86012 0
M  V30 6752 H 612.527 0.304891 -3.99839 0
M  V30 6753 H 609.117 -1.1221 -4.13651 0
M  V30 6754 H 613.301 -2.0187 -4.5339 0
M  V30 6755 H 608.557 -3.28846 -5.15432 0
M  V30 6756 H 612.731 -4.18616 -5.56537 0
M  V30 6757 H 610.358 -4.8266 -5.87319 0
M  V30 6758 N 611.933 1.52934 -0.380664 0
M  V30 6759 C 612.863 2.29118 0.450268 0
M  V30 6760 C 613.844 1.32153 1.07096 0
M  V30 6761 O 615.029 1.61038 1.08537 0
M  V30 6762 C 612.159 3.09161 1.58231 0
M  V30 6763 C 611.113 4.13938 1.0881 0
M  V30 6764 C 610.439 4.82153 2.31155 0
M  V30 6765 C 611.739 5.22048 0.162146 0
M  V30 6766 H 613.433 2.98826 -0.185361 0
M  V30 6767 H 610.979 1.43715 -0.0905886 0
M  V30 6768 H 612.932 3.61211 2.17036 0
M  V30 6769 H 611.656 2.3717 2.2454 0
M  V30 6770 H 610.315 3.62855 0.522633 0
M  V30 6771 H 609.963 4.06719 2.95953 0
M  V30 6772 H 609.663 5.52966 1.98752 0
M  V30 6773 H 611.187 5.37004 2.90618 0
M  V30 6774 H 612.601 5.6951 0.658126 0
M  V30 6775 H 610.998 6.00057 -0.0717122 0
M  V30 6776 H 612.068 4.78398 -0.791438 0
M  V30 6777 N 613.412 0.11024 1.57214 0
M  V30 6778 C 614.36 -0.860586 2.16094 0
M  V30 6779 C 615.354 -1.28156 1.1078 0
M  V30 6780 O 616.56 -1.25433 1.29099 0
M  V30 6781 H 612.935 -0.295606 0.691463 0
M  V30 6782 H 614.906 -0.33942 2.96463 0
M  V30 6783 C 613.655 -2.10421 2.768 0
M  V30 6784 H 612.978 -1.7892 3.5753 0
M  V30 6785 H 614.418 -2.76375 3.21547 0
M  V30 6786 C 612.877 -2.88823 1.73444 0
M  V30 6787 O 613.407 -3.839 1.18251 0
M  V30 6788 N 611.613 -2.52649 1.43586 0
M  V30 6789 H 611.16 -1.754 1.8866 0
M  V30 6790 H 611.118 -3.05403 0.746735 0
M  V30 6791 N 614.89 -1.56749 -0.16351 0
M  V30 6792 C 615.8 -2.00255 -1.2221 0
M  V30 6793 C 616.816 -0.915194 -1.47987 0
M  V30 6794 O 617.992 -1.22342 -1.59982 0
M  V30 6795 C 615.057 -2.36035 -2.53946 0
M  V30 6796 C 614.118 -3.58637 -2.35962 0
M  V30 6797 C 613.351 -3.92701 -3.61416 0
M  V30 6798 O 613.574 -3.27632 -4.66919 0
M  V30 6799 O 612.508 -4.86019 -3.55062 0
M  V30 6800 H 616.334 -2.90586 -0.882794 0
M  V30 6801 H 613.919 -1.44721 -0.370978 0
M  V30 6802 H 615.801 -2.59982 -3.31643 0
M  V30 6803 H 614.476 -1.48863 -2.8744 0
M  V30 6804 H 613.383 -3.39898 -1.5627 0
M  V30 6805 H 614.716 -4.46374 -2.0739 0
M  V30 6806 N 616.368 0.432326 -1.51554 0
M  V30 6807 C 617.316 1.54572 -1.73811 0
M  V30 6808 C 618.31 1.58246 -0.604539 0
M  V30 6809 O 619.516 1.6193 -0.786041 0
M  V30 6810 H 615.891 0.513626 -0.549265 0
M  V30 6811 H 617.862 1.32977 -2.67132 0
M  V30 6812 C 616.611 2.92181 -1.88483 0
M  V30 6813 H 615.934 2.90088 -2.75116 0
M  V30 6814 H 617.374 3.69439 -2.08065 0
M  V30 6815 C 615.833 3.3065 -0.645909 0
M  V30 6816 O 616.363 4.01216 0.197093 0
M  V30 6817 N 614.569 2.86464 -0.488538 0
M  V30 6818 H 614.116 2.29209 -1.17562 0
M  V30 6819 H 614.074 3.12565 0.339156 0
M  V30 6820 N 617.846 1.41785 0.688094 0
M  V30 6821 C 619.094 1.41264 1.4453 0
M  V30 6822 C 619.415 0.0252946 1.94984 0
M  V30 6823 O 618.685 -0.934081 1.72197 0
M  V30 6824 H 617.265 0.519998 0.536294 0
M  V30 6825 H 619.927 1.7709 0.813941 0
M  V30 6826 H 619.023 2.10439 2.30482 0
M  V30 6827 N 619.324 -0.923095 1.27737 0
M  V30 6828 C 620.271 -2.02432 1.1086 0
M  V30 6829 C 621.241 -1.66098 0.00835195 0
M  V30 6830 O 622.426 -1.90027 0.171542 0
M  V30 6831 C 619.566 -3.36476 0.766671 0
M  V30 6832 C 618.679 -3.85737 1.94501 0
M  V30 6833 C 617.814 -5.08249 1.54455 0
M  V30 6834 C 616.853 -5.49818 2.6901 0
M  V30 6835 N 615.99 -6.63524 2.29521 0
M  V30 6836 H 620.83 -2.16201 2.05089 0
M  V30 6837 H 618.367 -1.05909 1.02087 0
M  V30 6838 H 620.325 -4.13569 0.549223 0
M  V30 6839 H 618.955 -3.22502 -0.13867 0
M  V30 6840 H 618.007 -3.04883 2.27487 0
M  V30 6841 H 619.319 -4.12513 2.80419 0
M  V30 6842 H 618.473 -5.92857 1.28862 0
M  V30 6843 H 617.212 -4.83261 0.656534 0
M  V30 6844 H 616.217 -4.63757 2.95313 0
M  V30 6845 H 617.442 -5.76799 3.5844 0
M  V30 6846 H 615.388 -6.40185 1.43177 0
M  V30 6847 H 615.305 -6.89978 3.08977 0
M  V30 6848 H 616.573 -7.51461 2.07187 0
M  V30 6849 N 620.802 -1.09834 -1.13024 0
M  V30 6850 C 622.049 -0.83695 -1.84395 0
M  V30 6851 C 622.377 0.637463 -1.83757 0
M  V30 6852 O 621.632 1.48554 -1.27398 0
M  V30 6853 C 621.931 -1.32263 -3.32026 0
M  V30 6854 C 621.597 -2.80739 -3.52841 0
M  V30 6855 C 620.259 -3.21286 -3.5823 0
M  V30 6856 C 622.611 -3.76449 -3.60466 0
M  V30 6857 C 619.939 -4.56308 -3.68781 0
M  V30 6858 C 622.291 -5.11266 -3.72546 0
M  V30 6859 C 620.955 -5.51397 -3.76189 0
M  V30 6860 H 620.225 -0.306262 -0.674748 0
M  V30 6861 H 622.872 -1.37385 -1.33408 0
M  V30 6862 H 621.177 -0.705618 -3.85394 0
M  V30 6863 H 622.874 -1.09695 -3.85705 0
M  V30 6864 H 619.464 -2.48363 -3.49305 0
M  V30 6865 H 623.648 -3.46234 -3.55578 0
M  V30 6866 H 618.904 -4.86832 -3.69871 0
M  V30 6867 H 623.078 -5.85279 -3.77388 0
M  V30 6868 H 620.705 -6.56017 -3.84117 0
M  V30 6869 N 622.28 1.30327 -0.886154 0
M  V30 6870 C 623.227 2.28099 -0.352069 0
M  V30 6871 C 624.197 1.56433 0.558397 0
M  V30 6872 O 625.382 1.84492 0.486561 0
M  V30 6873 C 622.522 3.42456 0.426346 0
M  V30 6874 C 621.635 4.28938 -0.513472 0
M  V30 6875 C 620.77 5.30458 0.280657 0
M  V30 6876 C 619.809 6.0859 -0.654556 0
M  V30 6877 N 618.946 7.02022 0.104322 0
M  V30 6878 H 623.786 2.73166 -1.19097 0
M  V30 6879 H 621.323 1.34367 -0.598662 0
M  V30 6880 H 623.281 4.07518 0.893587 0
M  V30 6881 H 621.911 2.98455 1.22981 0
M  V30 6882 H 620.963 3.64173 -1.09921 0
M  V30 6883 H 622.275 4.83399 -1.2299 0
M  V30 6884 H 621.429 6.01273 0.8097 0
M  V30 6885 H 620.168 4.76693 1.03029 0
M  V30 6886 H 619.173 5.36651 -1.19522 0
M  V30 6887 H 620.398 6.64443 -1.4033 0
M  V30 6888 H 618.344 6.50645 0.836472 0
M  V30 6889 H 618.261 7.53979 -0.552453 0
M  V30 6890 H 619.529 7.77077 0.614069 0
M  V30 6891 N 623.758 0.647228 1.43697 0
M  V30 6892 C 624.988 0.16551 2.05936 0
M  V30 6893 C 625.396 -1.17164 1.48557 0
M  V30 6894 O 624.739 -1.73307 0.60914 0
M  V30 6895 C 624.801 -0.00648082 3.59499 0
M  V30 6896 C 624.465 1.25503 4.39429 0
M  V30 6897 C 625.462 2.18241 4.71876 0
M  V30 6898 C 623.147 1.49494 4.79538 0
M  V30 6899 C 625.141 3.33268 5.43333 0
M  V30 6900 C 622.828 2.64815 5.50742 0
M  V30 6901 C 623.826 3.56528 5.82561 0
M  V30 6902 O 623.514 4.69836 6.52311 0
M  V30 6903 H 623.246 0.0844124 0.670709 0
M  V30 6904 H 625.8 0.88638 1.8529 0
M  V30 6905 H 624.03 -0.782661 3.78697 0
M  V30 6906 H 625.719 -0.444794 4.03456 0
M  V30 6907 H 626.485 2.00946 4.41413 0
M  V30 6908 H 622.364 0.789912 4.54182 0
M  V30 6909 H 625.908 4.04874 5.68087 0
M  V30 6910 H 621.805 2.82047 5.8062 0
M  V30 6911 H 622.573 4.69024 6.70789 0
M  V30 6912 N 625.236 -1.5273 0.388769 0
M  V30 6913 C 626.461 -2.0647 -0.19621 0
M  V30 6914 C 626.886 -1.25865 -1.39784 0
M  V30 6915 O 626.244 -0.283562 -1.79069 0
M  V30 6916 C 626.292 -3.56456 -0.5451 0
M  V30 6917 O 625.396 -3.78426 -1.63912 0
M  V30 6918 H 624.737 -0.663599 -0.023067 0
M  V30 6919 H 627.267 -1.96898 0.556084 0
M  V30 6920 H 627.277 -3.99888 -0.809557 0
M  V30 6921 H 625.952 -4.14561 0.333417 0
M  V30 6922 H 624.529 -3.46884 -1.36842 0
M  V30 6923 N 626.714 -0.118576 -1.57153 0
M  V30 6924 C 627.991 0.583062 -1.86708 0
M  V30 6925 C 628.371 1.84841 -1.01967 0
M  V30 6926 O 627.719 2.28288 -0.0984673 0
M  V30 6927 C 627.929 0.875912 -3.3783 0
M  V30 6928 C 629.277 1.22916 -4.0642 0
M  V30 6929 O 630.301 0.966188 -3.42846 0
M  V30 6930 O 629.16 1.72269 -5.18638 0
M  V30 6931 H 626.254 0.294185 -0.772906 0
M  V30 6932 H 628.8 -0.153048 -1.69008 0
M  V30 6933 H 627.572 -0.0207776 -3.91294 0
M  V30 6934 H 627.195 1.66719 -3.60958 0
M  V30 6935 N 628.193 1.56834 0.155195 0
M  V30 6936 C 629.423 1.86778 0.883044 0
M  V30 6937 C 629.831 0.703824 1.75622 0
M  V30 6938 O 629.174 -0.33581 1.80605 0
M  V30 6939 C 629.236 3.1133 1.79761 0
M  V30 6940 C 628.9 4.43504 1.10242 0
M  V30 6941 C 629.897 5.17859 0.460204 0
M  V30 6942 C 627.582 4.90233 1.09437 0
M  V30 6943 C 629.576 6.37144 -0.180782 0
M  V30 6944 C 627.263 6.09444 0.449569 0
M  V30 6945 C 628.261 6.82744 -0.186888 0
M  V30 6946 O 627.949 7.99692 -0.821486 0
M  V30 6947 H 627.681 0.62352 0.261149 0
M  V30 6948 H 630.235 2.04813 0.155204 0
M  V30 6949 H 628.465 2.89282 2.56618 0
M  V30 6950 H 630.154 3.27587 2.39669 0
M  V30 6951 H 630.92 4.8283 0.458289 0
M  V30 6952 H 626.799 4.33109 1.57917 0
M  V30 6953 H 630.343 6.94296 -0.678154 0
M  V30 6954 H 626.24 6.43936 0.449123 0
M  V30 6955 H 627.008 8.15306 -0.722337 0
M  V30 6956 N 629.671 -0.424282 1.51781 0
M  V30 6957 C 630.918 -1.1726 1.65095 0
M  V30 6958 C 631.246 -1.90881 0.373477 0
M  V30 6959 O 630.501 -1.84835 -0.642997 0
M  V30 6960 C 630.8 -2.20418 2.81337 0
M  V30 6961 C 630.466 -1.63715 4.20129 0
M  V30 6962 C 629.128 -1.47975 4.57883 0
M  V30 6963 C 631.48 -1.22157 5.06682 0
M  V30 6964 C 628.808 -0.891703 5.79884 0
M  V30 6965 C 631.16 -0.647767 6.29275 0
M  V30 6966 C 629.824 -0.477371 6.65791 0
M  V30 6967 H 629.094 -0.429085 0.604125 0
M  V30 6968 H 631.741 -0.461852 1.85847 0
M  V30 6969 H 630.046 -2.97581 2.54859 0
M  V30 6970 H 631.743 -2.78163 2.88836 0
M  V30 6971 H 628.333 -1.76946 3.90369 0
M  V30 6972 H 632.517 -1.33133 4.7811 0
M  V30 6973 H 627.773 -0.747563 6.06813 0
M  V30 6974 H 631.947 -0.317291 6.95677 0
M  V30 6975 H 629.574 -0.0195936 7.60197 0
M  V30 6976 N 631.149 -1.42148 -0.680565 0
M  V30 6977 C 632.096 -1.45175 -1.79424 0
M  V30 6978 C 633.066 -0.304352 -1.63288 0
M  V30 6979 O 634.251 -0.507591 -1.83924 0
M  V30 6980 C 631.391 -1.35429 -3.17416 0
M  V30 6981 C 630.504 -2.60158 -3.4488 0
M  V30 6982 C 629.639 -2.42596 -4.72568 0
M  V30 6983 C 628.678 -3.62727 -4.93047 0
M  V30 6984 N 627.815 -3.44143 -6.11973 0
M  V30 6985 H 632.655 -2.40349 -1.76172 0
M  V30 6986 H 630.192 -1.19334 -0.860107 0
M  V30 6987 H 632.15 -1.27777 -3.97151 0
M  V30 6988 H 630.78 -0.438536 -3.19807 0
M  V30 6989 H 629.832 -2.78199 -2.5944 0
M  V30 6990 H 631.144 -3.49473 -3.55908 0
M  V30 6991 H 630.298 -2.32497 -5.60384 0
M  V30 6992 H 629.037 -1.50761 -4.63813 0
M  V30 6993 H 628.042 -3.73264 -4.03676 0
M  V30 6994 H 629.267 -4.55534 -5.03652 0
M  V30 6995 H 627.213 -2.5502 -6.04401 0
M  V30 6996 H 627.13 -4.27041 -6.23836 0
M  V30 6997 H 628.398 -3.37845 -7.02482 0
M  V30 6998 N 632.627 0.916307 -1.28225 0
M  V30 6999 C 634.038 1.48024 -1.13779 0
M  V30 7000 C 634.389 1.94289 0.273139 0
M  V30 7001 O 633.514 1.82226 1.16716 0
M  V30 7002 C 634.109 2.69029 -2.05935 0
M  V30 7003 C 632.668 3.2161 -1.95561 0
M  V30 7004 C 631.815 1.94321 -1.97825 0
M  V30 7005 H 634.766 0.729272 -1.40951 0
M  V30 7006 H 634.787 3.44204 -1.62184 0
M  V30 7007 H 634.299 2.35325 -3.08616 0
M  V30 7008 H 632.4 3.60045 -0.959076 0
M  V30 7009 H 632.513 3.87032 -2.82388 0
M  V30 7010 H 630.877 2.1131 -1.42198 0
M  V30 7011 H 631.66 1.62917 -3.0218 0
M  V30 7012 N 634.105 1.10431 1.1244 0
M  V30 7013 C 635.352 0.846717 1.83948 0
M  V30 7014 C 635.68 -0.627709 1.84093 0
M  V30 7015 O 634.935 -1.47876 1.28184 0
M  V30 7016 C 635.234 1.34022 3.3132 0
M  V30 7017 C 634.9 2.82606 3.51347 0
M  V30 7018 C 633.562 3.23182 3.56521 0
M  V30 7019 C 635.914 3.78356 3.58464 0
M  V30 7020 C 633.242 4.58258 3.66356 0
M  V30 7021 C 635.594 5.13234 3.69829 0
M  V30 7022 C 634.258 5.53384 3.73259 0
M  V30 7023 H 633.528 0.309836 0.673114 0
M  V30 7024 H 636.175 1.38091 1.32677 0
M  V30 7025 H 634.48 0.726047 3.85014 0
M  V30 7026 H 636.177 1.11739 3.85118 0
M  V30 7027 H 632.767 2.50212 3.47983 0
M  V30 7028 H 636.951 3.48115 3.53737 0
M  V30 7029 H 632.207 4.88787 3.67284 0
M  V30 7030 H 636.381 5.87272 3.74279 0
M  V30 7031 H 634.008 6.58045 3.80633 0
M  V30 7032 N 635.583 -1.29855 0.893053 0
M  V30 7033 C 636.808 -2.00512 0.530066 0
M  V30 7034 C 637.233 -1.66446 -0.876199 0
M  V30 7035 O 636.591 -0.885446 -1.58207 0
M  V30 7036 C 636.639 -3.53308 0.721505 0
M  V30 7037 O 635.743 -4.11764 -0.228994 0
M  V30 7038 H 635.084 -0.630617 0.207891 0
M  V30 7039 H 637.614 -1.6551 1.20282 0
M  V30 7040 H 637.624 -4.03206 0.623599 0
M  V30 7041 H 636.299 -3.77439 1.74678 0
M  V30 7042 H 634.876 -3.72805 -0.0841034 0
M  V30 7043 N 637.061 -0.65484 -1.43351 0
M  V30 7044 C 638.289 -0.176685 -2.06144 0
M  V30 7045 C 638.704 1.15831 -1.49093 0
M  V30 7046 O 638.061 1.71542 -0.622868 0
M  V30 7047 C 638.112 -0.0813326 -3.61408 0
M  V30 7048 O 637.833 -1.36355 -4.1634 0
M  V30 7049 C 639.334 0.422706 -4.4128 0
M  V30 7050 H 636.554 -0.0906429 -0.66485 0
M  V30 7051 H 639.098 -0.895945 -1.83829 0
M  V30 7052 H 637.253 0.588496 -3.82904 0
M  V30 7053 H 637.667 -1.22381 -5.10023 0
M  V30 7054 H 639.141 0.438375 -5.50257 0
M  V30 7055 H 639.618 1.45432 -4.14423 0
M  V30 7056 H 640.224 -0.214687 -4.24758 0
M  V30 7057 N 638.539 1.52521 -0.396863 0
M  V30 7058 C 639.787 2.01274 0.182536 0
M  V30 7059 C 640.108 1.28485 1.46685 0
M  V30 7060 O 639.378 0.407134 1.91623 0
M  V30 7061 H 637.958 0.743671 0.0704442 0
M  V30 7062 H 640.62 1.87547 -0.530289 0
M  V30 7063 H 639.716 3.09687 0.387385 0
M  V30 7064 N 640.017 0.126909 1.57088 0
M  V30 7065 C 640.964 -0.82036 2.15728 0
M  V30 7066 C 641.934 -1.25811 1.08447 0
M  V30 7067 O 643.119 -1.33422 1.36393 0
M  V30 7068 C 640.259 -2.06199 2.76724 0
M  V30 7069 C 639.372 -1.67188 3.98337 0
M  V30 7070 C 638.507 -2.86378 4.47393 0
M  V30 7071 C 637.546 -2.43644 5.61519 0
M  V30 7072 N 636.683 -3.55775 6.05284 0
M  V30 7073 H 641.523 -0.313472 2.96347 0
M  V30 7074 H 639.06 -0.14303 1.46403 0
M  V30 7075 H 641.018 -2.78959 3.10222 0
M  V30 7076 H 639.648 -2.54333 1.98782 0
M  V30 7077 H 638.7 -0.842714 3.70948 0
M  V30 7078 H 640.012 -1.31789 4.81075 0
M  V30 7079 H 639.166 -3.67353 4.82842 0
M  V30 7080 H 637.905 -3.25009 3.63621 0
M  V30 7081 H 636.91 -1.61104 5.25667 0
M  V30 7082 H 638.135 -2.06122 6.47063 0
M  V30 7083 H 636.081 -3.94065 5.24451 0
M  V30 7084 H 635.998 -3.24325 6.82898 0
M  V30 7085 H 637.266 -4.37166 6.45373 0
M  V30 7086 N 641.495 -1.56914 -0.146875 0
M  V30 7087 C 642.911 -1.51582 -0.499518 0
M  V30 7088 C 643.111 -0.83535 -1.83369 0
M  V30 7089 O 642.167 -0.405932 -2.49216 0
M  V30 7090 C 643.48 -2.96349 -0.509711 0
M  V30 7091 C 645.028 -3.07288 -0.595217 0
M  V30 7092 C 645.503 -4.53562 -0.636071 0
M  V30 7093 N 646.994 -4.57906 -0.69829 0
M  V30 7094 C 647.729 -5.68462 -0.750886 0
M  V30 7095 N 647.225 -6.88588 -0.76282 0
M  V30 7096 N 649.018 -5.56496 -0.791777 0
M  V30 7097 H 641.169 -1.99547 0.727656 0
M  V30 7098 H 643.432 -0.910113 0.265327 0
M  V30 7099 H 643.138 -3.4939 0.402409 0
M  V30 7100 H 643.012 -3.52307 -1.34758 0
M  V30 7101 H 645.399 -2.54266 -1.49776 0
M  V30 7102 H 645.48 -2.54373 0.2698 0
M  V30 7103 H 645.124 -5.07222 0.262313 0
M  V30 7104 H 645.054 -5.04259 -1.51758 0
M  V30 7105 H 647.545 -3.71429 -0.696362 0
M  V30 7106 H 647.858 -7.68598 -0.804804 0
M  V30 7107 H 646.203 -6.91148 -0.730694 0
M  V30 7108 H 649.394 -4.61562 -0.779624 0
M  V30 7109 H 649.567 -6.42671 -0.829301 0
M  V30 7110 N 642.974 0.416227 -1.52004 0
M  V30 7111 C 644.22 1.16555 -1.6596 0
M  V30 7112 C 644.553 1.90347 -0.384906 0
M  V30 7113 O 643.828 1.84474 0.616405 0
M  V30 7114 C 644.111 2.1657 -2.87696 0
M  V30 7115 C 643.964 1.46722 -4.25197 0
M  V30 7116 C 645.283 3.17321 -3.04951 0
M  V30 7117 H 642.402 0.422369 -0.603965 0
M  V30 7118 H 645.044 0.452141 -1.84542 0
M  V30 7119 H 643.194 2.77411 -2.71985 0
M  V30 7120 H 644.866 0.89056 -4.52622 0
M  V30 7121 H 643.109 0.769263 -4.26925 0
M  V30 7122 H 643.78 2.19665 -5.0641 0
M  V30 7123 H 646.256 2.66552 -3.19514 0
M  V30 7124 H 645.132 3.84573 -3.91656 0
M  V30 7125 H 645.393 3.84643 -2.17951 0
M  V30 7126 N 644.452 1.42507 0.673017 0
M  V30 7127 C 645.692 1.44559 1.44507 0
M  V30 7128 C 646.056 0.0606206 1.91904 0
M  V30 7129 O 647.257 -0.044139 2.68764 0
M  V30 7130 C 645.528 2.44291 2.60877 0
M  V30 7131 S 647.087 2.65059 3.49699 0
M  V30 7132 H 643.905 0.51181 0.49353 0
M  V30 7133 H 646.507 1.79124 0.783256 0
M  V30 7134 H 645.211 3.43685 2.24297 0
M  V30 7135 H 644.742 2.11157 3.31928 0
M  V30 7136 H 646.757 1.93494 4.56919 0
M  V30 7137 N 645.93 -0.909495 1.28709 0
M  V30 7138 C 646.893 -1.99399 1.13016 0
M  V30 7139 C 647.893 -1.60654 0.068536 0
M  V30 7140 O 649.083 -1.71334 0.314671 0
M  V30 7141 C 646.215 -3.33078 0.726085 0
M  V30 7142 H 647.408 -2.14751 2.09338 0
M  V30 7143 H 644.961 -1.09272 1.11756 0
M  V30 7144 H 645.696 -3.23428 -0.23771 0
M  V30 7145 H 645.481 -3.62562 1.49302 0
M  V30 7146 H 646.971 -4.12681 0.639058 0
M  V30 7147 N 647.408 -1.11026 -1.11852 0
M  V30 7148 C 648.656 -0.854769 -1.83134 0
M  V30 7149 C 648.977 0.621375 -1.84835 0
M  V30 7150 O 648.247 1.45129 -1.31584 0
M  V30 7151 H 646.827 -0.313229 -0.678157 0
M  V30 7152 H 649.489 -1.40178 -1.35411 0
M  V30 7153 H 648.585 -1.22311 -2.87135 0
M  V30 7154 N 648.886 1.2938 -0.899927 0
M  V30 7155 C 649.796 2.31462 -0.382437 0
M  V30 7156 C 650.812 1.65956 0.522929 0
M  V30 7157 O 651.988 1.97131 0.412454 0
M  V30 7158 C 649.053 3.44595 0.381472 0
M  V30 7159 C 648.114 4.25692 -0.555444 0
M  V30 7160 C 647.347 5.33422 0.172102 0
M  V30 7161 O 647.57 5.53053 1.396 0
M  V30 7162 O 646.504 5.99939 -0.485491 0
M  V30 7163 H 650.33 2.77706 -1.22934 0
M  V30 7164 H 647.915 1.33821 -0.664259 0
M  V30 7165 H 649.797 4.13474 0.813442 0
M  V30 7166 H 648.472 3.00458 1.20443 0
M  V30 7167 H 647.379 3.59453 -1.03653 0
M  V30 7168 H 648.712 4.73471 -1.34483 0
M  V30 7169 N 650.364 0.662433 1.43002 0
M  V30 7170 C 651.612 0.179237 2.01304 0
M  V30 7171 C 651.933 -1.21428 1.52579 0
M  V30 7172 O 651.203 -1.81294 0.742252 0
M  V30 7173 H 649.783 0.0632725 0.744316 0
M  V30 7174 H 652.445 0.856169 1.75088 0
M  V30 7175 H 651.541 0.170957 3.11631 0
M  V30 7176 N 651.842 -1.52309 0.404946 0
M  V30 7177 C 652.772 -2.29805 -0.41376 0
M  V30 7178 C 653.753 -1.3384 -1.0498 0
M  V30 7179 O 654.938 -1.62745 -1.05961 0
M  V30 7180 C 652.068 -3.11639 -1.53292 0
M  V30 7181 C 651.022 -4.15616 -1.02211 0
M  V30 7182 C 650.348 -4.8577 -2.23455 0
M  V30 7183 C 651.648 -5.2224 -0.0790725 0
M  V30 7184 H 653.342 -2.98493 0.232878 0
M  V30 7185 H 650.888 -1.43552 0.113441 0
M  V30 7186 H 652.841 -3.64618 -2.11262 0
M  V30 7187 H 651.565 -2.40712 -2.20738 0
M  V30 7188 H 650.224 -3.63641 -0.46484 0
M  V30 7189 H 649.872 -4.11376 -2.89445 0
M  V30 7190 H 649.572 -5.56058 -1.89929 0
M  V30 7191 H 651.096 -5.4156 -2.82038 0
M  V30 7192 H 652.51 -5.70485 -0.567438 0
M  V30 7193 H 650.907 -5.99867 0.167167 0
M  V30 7194 H 651.977 -4.77078 0.867447 0
M  V30 7195 N 653.32 -0.135238 -1.57019 0
M  V30 7196 C 654.283 0.794707 -2.14981 0
M  V30 7197 C 655.283 1.18342 -1.08866 0
M  V30 7198 O 656.473 1.10627 -1.34563 0
M  V30 7199 C 653.605 2.07685 -2.70333 0
M  V30 7200 H 654.798 0.290696 -2.98488 0
M  V30 7201 H 652.351 0.114128 -1.55883 0
M  V30 7202 H 653.086 2.6248 -1.9046 0
M  V30 7203 H 652.871 1.80745 -3.47957 0
M  V30 7204 H 654.361 2.74127 -3.1503 0
M  V30 7205 N 654.798 1.5699 0.138552 0
M  V30 7206 C 656.214 1.51844 0.491472 0
M  V30 7207 C 656.414 0.845063 1.82923 0
M  V30 7208 O 655.47 0.419143 2.48997 0
M  V30 7209 C 656.783 2.96615 0.493987 0
M  V30 7210 C 658.331 3.076 0.578913 0
M  V30 7211 C 658.806 4.53893 0.612009 0
M  V30 7212 N 660.297 4.5827 0.673997 0
M  V30 7213 C 661.032 5.68852 0.720729 0
M  V30 7214 N 660.528 6.88982 0.726292 0
M  V30 7215 N 662.321 5.56908 0.762253 0
M  V30 7216 H 654.472 1.99158 -0.738228 0
M  V30 7217 H 656.735 0.908693 -0.270149 0
M  V30 7218 H 656.441 3.49172 -0.420933 0
M  V30 7219 H 656.315 3.53017 1.32887 0
M  V30 7220 H 658.702 2.55057 1.48425 0
M  V30 7221 H 658.783 2.54227 -0.283286 0
M  V30 7222 H 658.427 5.07076 -0.289208 0
M  V30 7223 H 658.357 5.05057 1.49082 0
M  V30 7224 H 660.848 3.71793 0.676654 0
M  V30 7225 H 661.161 7.69014 0.764032 0
M  V30 7226 H 659.506 6.91526 0.69403 0
M  V30 7227 H 662.697 4.61969 0.755135 0
M  V30 7228 H 662.87 6.43102 0.795207 0
M  V30 7229 N 656.276 -0.40816 1.52223 0
M  V30 7230 C 657.209 -1.51834 1.70357 0
M  V30 7231 C 658.187 -1.52973 0.551171 0
M  V30 7232 O 659.371 -1.71667 0.778642 0
M  V30 7233 C 656.498 -2.90362 1.74378 0
M  V30 7234 C 655.544 -3.0713 2.95928 0
M  V30 7235 S 656.377 -2.80342 4.56255 0
M  V30 7236 C 657.533 -4.21098 4.63063 0
M  V30 7237 H 657.766 -1.36223 2.64255 0
M  V30 7238 H 655.299 -0.599798 1.42274 0
M  V30 7239 H 657.257 -3.70199 1.77379 0
M  V30 7240 H 655.918 -3.03314 0.816063 0
M  V30 7241 H 655.111 -4.08482 2.95226 0
M  V30 7242 H 654.713 -2.3516 2.90819 0
M  V30 7243 H 657.005 -5.14749 4.40499 0
M  V30 7244 H 657.948 -4.26823 5.65002 0
M  V30 7245 H 658.356 -4.06114 3.92086 0
M  V30 7246 N 657.755 -1.42862 -0.66545 0
M  V30 7247 C 658.665 -1.49491 -1.80803 0
M  V30 7248 C 659.681 -0.382914 -1.69734 0
M  V30 7249 O 660.857 -0.635223 -1.9112 0
M  V30 7250 C 657.922 -1.40383 -3.17007 0
M  V30 7251 C 656.983 -2.62152 -3.39963 0
M  V30 7252 C 656.216 -2.53469 -4.69669 0
M  V30 7253 O 656.439 -1.57568 -5.48205 0
M  V30 7254 O 655.373 -3.43763 -4.94075 0
M  V30 7255 H 659.199 -2.45949 -1.78165 0
M  V30 7256 H 656.784 -1.24728 -0.822387 0
M  V30 7257 H 658.666 -1.377 -3.98267 0
M  V30 7258 H 657.341 -0.470546 -3.20262 0
M  V30 7259 H 656.248 -2.70409 -2.58515 0
M  V30 7260 H 657.581 -3.54411 -3.41546 0
M  V30 7261 N 659.233 0.902656 -1.29189 0
M  V30 7262 C 660.163 2.02294 -1.16616 0
M  V30 7263 C 661.144 1.6999 -0.0611175 0
M  V30 7264 O 662.329 1.9271 -0.240072 0
M  V30 7265 C 659.459 3.37018 -0.83882 0
M  V30 7266 C 658.413 3.83522 -1.89986 0
M  V30 7267 C 657.739 5.15337 -1.42589 0
M  V30 7268 C 659.039 4.04169 -3.30824 0
M  V30 7269 H 660.733 2.13071 -2.10336 0
M  V30 7270 H 658.279 1.02378 -1.01266 0
M  V30 7271 H 660.232 4.14895 -0.737584 0
M  V30 7272 H 658.956 3.26325 0.134071 0
M  V30 7273 H 657.615 3.07859 -1.99043 0
M  V30 7274 H 657.263 5.01056 -0.441759 0
M  V30 7275 H 656.963 5.47423 -2.13547 0
M  V30 7276 H 658.487 5.95758 -1.3381 0
M  V30 7277 H 659.901 4.72537 -3.24626 0
M  V30 7278 H 658.298 4.47604 -3.99713 0
M  V30 7279 H 659.368 3.08604 -3.74021 0
M  V30 7280 N 660.711 1.11618 1.11262 0
M  V30 7281 C 661.958 0.86618 1.8304 0
M  V30 7282 C 662.286 -0.608149 1.84748 0
M  V30 7283 O 661.541 -1.46508 1.29745 0
M  V30 7284 C 661.84 1.37529 3.2988 0
M  V30 7285 C 661.506 2.86317 3.4833 0
M  V30 7286 C 660.168 3.26945 3.53073 0
M  V30 7287 C 662.52 3.82136 3.54431 0
M  V30 7288 C 659.848 4.62117 3.61475 0
M  V30 7289 C 662.2 5.17128 3.64365 0
M  V30 7290 C 660.864 5.57312 3.67369 0
M  V30 7291 H 660.134 0.316958 0.66979 0
M  V30 7292 H 662.781 1.3949 1.31205 0
M  V30 7293 H 661.086 0.766842 3.84222 0
M  V30 7294 H 662.783 1.15817 3.83911 0
M  V30 7295 H 659.373 2.53889 3.45309 0
M  V30 7296 H 663.557 3.51847 3.50025 0
M  V30 7297 H 658.813 4.92655 3.62079 0
M  V30 7298 H 662.987 5.91208 3.68029 0
M  V30 7299 H 660.614 6.62045 3.73632 0
M  V30 7300 N 662.189 -1.289 0.906776 0
M  V30 7301 C 663.119 -2.29932 0.406659 0
M  V30 7302 C 664.1 -1.6189 -0.522061 0
M  V30 7303 O 665.285 -1.8935 -0.431283 0
M  V30 7304 C 662.415 -3.45425 -0.360366 0
M  V30 7305 C 661.369 -4.25316 0.478574 0
M  V30 7306 C 660.695 -5.33076 -0.416373 0
M  V30 7307 C 661.995 -4.92739 1.7322 0
M  V30 7308 H 663.689 -2.72013 1.25097 0
M  V30 7309 H 661.235 -1.30768 0.602977 0
M  V30 7310 H 663.188 -4.15186 -0.721029 0
M  V30 7311 H 661.912 -3.02206 -1.23852 0
M  V30 7312 H 660.571 -3.57273 0.821662 0
M  V30 7313 H 660.219 -4.86101 -1.29287 0
M  V30 7314 H 659.919 -5.8743 0.141309 0
M  V30 7315 H 661.443 -6.05686 -0.773072 0
M  V30 7316 H 662.857 -5.54898 1.44086 0
M  V30 7317 H 661.254 -5.57057 2.23175 0
M  V30 7318 H 662.324 -4.17625 2.46408 0
M  V30 7319 N 663.667 -0.670007 -1.42649 0
M  V30 7320 C 664.597 -0.00258501 -2.335 0
M  V30 7321 C 665.578 0.794364 -1.50412 0
M  V30 7322 O 666.763 0.75248 -1.79029 0
M  V30 7323 C 663.893 0.952748 -3.33976 0
M  V30 7324 C 662.847 0.264733 -4.2718 0
M  V30 7325 C 662.173 1.33267 -5.17826 0
M  V30 7326 C 663.473 -0.853289 -5.15283 0
M  V30 7327 H 665.167 -0.761326 -2.89559 0
M  V30 7328 H 662.713 -0.367561 -1.3923 0
M  V30 7329 H 664.666 1.4287 -3.96442 0
M  V30 7330 H 663.39 1.74285 -2.7621 0
M  V30 7331 H 662.049 -0.190938 -3.66102 0
M  V30 7332 H 661.697 2.11464 -4.5639 0
M  V30 7333 H 661.397 0.877476 -5.81011 0
M  V30 7334 H 662.921 1.80965 -5.83167 0
M  V30 7335 H 664.335 -0.458763 -5.71462 0
M  V30 7336 H 662.732 -1.23398 -5.87276 0
M  V30 7337 H 663.802 -1.70412 -4.53969 0
M  V30 7338 N 665.145 1.52092 -0.413018 0
M  V30 7339 C 666.075 2.30021 0.401567 0
M  V30 7340 C 667.056 1.34395 1.04269 0
M  V30 7341 O 668.241 1.63304 1.05097 0
M  V30 7342 C 665.371 3.12447 1.51638 0
M  V30 7343 C 664.325 4.16153 1.00005 0
M  V30 7344 C 663.651 4.86948 2.20875 0
M  V30 7345 C 664.951 5.22275 0.0513757 0
M  V30 7346 H 666.645 2.98365 -0.248704 0
M  V30 7347 H 664.191 1.4349 -0.121052 0
M  V30 7348 H 666.144 3.65733 2.09326 0
M  V30 7349 H 664.868 2.41879 2.19458 0
M  V30 7350 H 663.527 3.63882 0.445549 0
M  V30 7351 H 663.175 4.12905 2.8726 0
M  V30 7352 H 662.875 5.57057 1.86978 0
M  V30 7353 H 664.399 5.43048 2.79162 0
M  V30 7354 H 665.813 5.70778 0.537176 0
M  V30 7355 H 664.21 5.9977 -0.198977 0
M  V30 7356 H 665.28 4.76611 -0.892736 0
M  V30 7357 N 666.623 0.143563 1.56945 0
M  V30 7358 C 667.863 -0.511198 1.97904 0
M  V30 7359 C 668.227 -1.62262 1.0264 0
M  V30 7360 O 669.428 -2.338 1.32631 0
M  V30 7361 C 667.699 -1.00753 3.42905 0
M  V30 7362 S 669.258 -1.66737 4.05887 0
M  V30 7363 H 666.076 -0.165399 0.691494 0
M  V30 7364 H 668.678 0.234464 1.94089 0
M  V30 7365 H 667.382 -0.187817 4.0997 0
M  V30 7366 H 666.913 -1.7879 3.50425 0
M  V30 7367 H 668.928 -2.95444 3.98657 0
M  V30 7368 N 668.101 -1.57061 -0.130224 0
M  V30 7369 C 669.064 -1.98593 -1.14426 0
M  V30 7370 C 670.064 -0.874584 -1.34936 0
M  V30 7371 O 671.254 -1.14086 -1.31643 0
M  V30 7372 C 668.386 -2.31639 -2.50112 0
M  V30 7373 H 669.579 -2.89374 -0.787561 0
M  V30 7374 H 667.132 -1.51756 -0.374146 0
M  V30 7375 H 667.867 -1.43703 -2.90723 0
M  V30 7376 H 667.652 -3.12684 -2.36583 0
M  V30 7377 H 669.142 -2.64551 -3.23114 0
M  V30 7378 N 669.579 0.400081 -1.52437 0
M  V30 7379 C 670.828 1.14332 -1.66166 0
M  V30 7380 C 671.141 1.91419 -0.402253 0
M  V30 7381 O 672.347 2.6824 -0.419487 0
M  V30 7382 C 670.803 2.08137 -2.9361 0
M  V30 7383 C 670.411 1.36524 -4.26691 0
M  V30 7384 C 672.155 2.82664 -3.16703 0
M  V30 7385 C 670.062 2.29031 -5.45251 0
M  V30 7386 H 668.992 0.430499 -0.61902 0
M  V30 7387 H 671.643 0.407017 -1.78929 0
M  V30 7388 H 670.025 2.85358 -2.74567 0
M  V30 7389 H 671.199 0.646061 -4.56249 0
M  V30 7390 H 669.514 0.74002 -4.09771 0
M  V30 7391 H 672.111 3.52037 -4.0246 0
M  V30 7392 H 672.454 3.46122 -2.31312 0
M  V30 7393 H 672.987 2.12541 -3.36261 0
M  V30 7394 H 669.726 1.70206 -6.33017 0
M  V30 7395 H 669.246 2.98896 -5.2002 0
M  V30 7396 H 670.925 2.89359 -5.78689 0
M  V30 7397 N 671.057 1.43213 0.657864 0
M  V30 7398 C 671.987 1.50815 1.78262 0
M  V30 7399 C 672.968 0.363211 1.66177 0
M  V30 7400 O 674.153 0.579806 1.85343 0
M  V30 7401 C 671.283 1.42625 3.16663 0
M  V30 7402 C 670.237 2.5532 3.43505 0
M  V30 7403 C 669.563 2.32184 4.81658 0
M  V30 7404 C 670.863 3.97583 3.38711 0
M  V30 7405 H 672.557 2.44954 1.72157 0
M  V30 7406 H 670.103 1.17896 0.82683 0
M  V30 7407 H 672.056 1.46548 3.95097 0
M  V30 7408 H 670.78 0.449877 3.23487 0
M  V30 7409 H 669.439 2.50742 2.6744 0
M  V30 7410 H 669.087 1.32801 4.85153 0
M  V30 7411 H 668.787 3.07724 5.00579 0
M  V30 7412 H 670.311 2.37883 5.62356 0
M  V30 7413 H 671.725 4.03673 4.07089 0
M  V30 7414 H 670.122 4.73112 3.69168 0
M  V30 7415 H 671.192 4.23049 2.36976 0
M  V30 7416 N 672.536 -0.895792 1.29666 0
M  V30 7417 C 673.468 -2.00563 1.10937 0
M  V30 7418 C 674.481 -1.62705 0.055734 0
M  V30 7419 O 675.67 -1.7595 0.300656 0
M  V30 7420 C 672.77 -3.32262 0.667448 0
M  V30 7421 C 671.943 -3.98625 1.80047 0
M  V30 7422 C 671.002 -5.08617 1.3489 0
M  V30 7423 O 670.028 -5.30837 2.05429 0
M  V30 7424 N 671.23 -5.80076 0.221937 0
M  V30 7425 H 673.995 -2.17184 2.06522 0
M  V30 7426 H 671.556 -1.06822 1.21658 0
M  V30 7427 H 673.548 -4.03196 0.348586 0
M  V30 7428 H 672.118 -3.11985 -0.196055 0
M  V30 7429 H 671.338 -3.21005 2.28801 0
M  V30 7430 H 672.626 -4.39704 2.56003 0
M  V30 7431 H 672.024 -5.64514 -0.366084 0
M  V30 7432 H 670.581 -6.51789 -0.0375346 0
M  V30 7433 N 674.014 -1.12206 -1.10668 0
M  V30 7434 C 674.964 -0.75669 -2.15077 0
M  V30 7435 C 675.948 0.243154 -1.59052 0
M  V30 7436 O 677.14 0.0490268 -1.76932 0
M  V30 7437 C 674.269 -0.210303 -3.42655 0
M  V30 7438 C 673.355 -1.23829 -4.05619 0
M  V30 7439 N 673.746 -2.43513 -4.43323 0
M  V30 7440 C 672.044 -1.08309 -4.32649 0
M  V30 7441 C 672.745 -3.09138 -4.92756 0
M  V30 7442 N 671.721 -2.36593 -4.89413 0
M  V30 7443 H 675.523 -1.66747 -2.42018 0
M  V30 7444 H 673.037 -1.00248 -1.27765 0
M  V30 7445 H 675.034 0.0696287 -4.16842 0
M  V30 7446 H 673.694 0.694967 -3.17176 0
M  V30 7447 H 674.705 -2.80912 -4.35097 0
M  V30 7448 H 671.382 -0.234919 -4.16839 0
M  V30 7449 H 672.772 -4.11049 -5.31496 0
M  V30 7450 N 675.492 1.28418 -0.913599 0
M  V30 7451 C 676.739 1.94981 -0.546674 0
M  V30 7452 C 677.067 1.7192 0.909606 0
M  V30 7453 O 676.322 1.03314 1.66207 0
M  V30 7454 C 676.621 3.48283 -0.802099 0
M  V30 7455 C 676.287 3.91444 -2.2379 0
M  V30 7456 C 674.949 4.02939 -2.63046 0
M  V30 7457 C 677.301 4.13542 -3.17227 0
M  V30 7458 C 674.629 4.3391 -3.94891 0
M  V30 7459 C 676.981 4.45992 -4.48636 0
M  V30 7460 C 675.645 4.55698 -4.87746 0
M  V30 7461 H 674.915 0.713487 -0.200042 0
M  V30 7462 H 677.562 1.52756 -1.15489 0
M  V30 7463 H 675.867 3.91643 -0.111076 0
M  V30 7464 H 677.564 3.97903 -0.497375 0
M  V30 7465 H 674.154 3.83024 -1.9233 0
M  V30 7466 H 678.338 4.04114 -2.88107 0
M  V30 7467 H 673.594 4.39631 -4.24894 0
M  V30 7468 H 677.768 4.62038 -5.21051 0
M  V30 7469 H 675.395 4.79451 -5.89942 0
M  V30 7470 N 676.97 0.677563 1.42291 0
M  V30 7471 C 677.918 -0.0106755 2.32598 0
M  V30 7472 C 678.912 -0.787643 1.49975 0
M  V30 7473 O 680.118 -0.695295 1.66029 0
M  V30 7474 H 676.493 -0.0222482 0.751671 0
M  V30 7475 H 678.464 0.768312 2.88339 0
M  V30 7476 C 677.213 -0.946142 3.3458 0
M  V30 7477 H 676.536 -0.357701 3.98197 0
M  V30 7478 H 677.976 -1.39634 4.00348 0
M  V30 7479 C 676.435 -2.05383 2.67057 0
M  V30 7480 O 676.965 -3.1406 2.50458 0
M  V30 7481 N 675.171 -1.82635 2.26038 0
M  V30 7482 H 674.718 -0.942534 2.39737 0
M  V30 7483 H 674.676 -2.56937 1.81192 0
M  V30 7484 N 678.448 -1.51871 0.421078 0
M  V30 7485 C 679.378 -2.30231 -0.389363 0
M  V30 7486 C 680.359 -1.34946 -1.03555 0
M  V30 7487 O 681.544 -1.63859 -1.04229 0
M  V30 7488 C 678.674 -3.13247 -1.49979 0
M  V30 7489 C 677.628 -4.16677 -0.977966 0
M  V30 7490 C 676.954 -4.88112 -2.1829 0
M  V30 7491 C 678.254 -5.22295 -0.0236775 0
M  V30 7492 H 679.948 -2.98229 0.264524 0
M  V30 7493 H 677.494 -1.43424 0.12866 0
M  V30 7494 H 679.447 -3.66838 -2.07383 0
M  V30 7495 H 678.171 -2.4304 -2.18173 0
M  V30 7496 H 676.83 -3.64114 -0.426245 0
M  V30 7497 H 676.478 -4.14423 -2.85066 0
M  V30 7498 H 676.178 -5.58041 -1.84021 0
M  V30 7499 H 677.702 -5.44521 -2.76278 0
M  V30 7500 H 679.116 -5.71055 -0.506899 0
M  V30 7501 H 677.513 -5.99656 0.230782 0
M  V30 7502 H 678.583 -4.76131 0.917999 0
M  V30 7503 N 679.926 -0.151884 -1.56866 0
M  V30 7504 C 680.873 0.785936 -2.17006 0
M  V30 7505 C 681.843 1.2407 -1.10435 0
M  V30 7506 O 683.028 1.31235 -1.38499 0
M  V30 7507 C 680.168 2.01771 -2.79969 0
M  V30 7508 C 679.281 1.6083 -4.00946 0
M  V30 7509 C 678.416 2.79224 -4.51893 0
M  V30 7510 C 677.455 2.3468 -5.65324 0
M  V30 7511 N 676.592 3.461 -6.10867 0
M  V30 7512 H 681.432 0.266286 -2.96808 0
M  V30 7513 H 678.969 0.11972 -1.46612 0
M  V30 7514 H 680.927 2.73989 -3.14621 0
M  V30 7515 H 679.557 2.51139 -2.02803 0
M  V30 7516 H 678.609 0.783592 -3.72242 0
M  V30 7517 H 679.921 1.24119 -4.83111 0
M  V30 7518 H 679.075 3.59625 -4.88625 0
M  V30 7519 H 677.814 3.19183 -3.68746 0
M  V30 7520 H 676.819 1.52721 -5.28163 0
M  V30 7521 H 678.044 1.95801 -6.5026 0
M  V30 7522 H 675.99 3.85671 -5.30654 0
M  V30 7523 H 675.907 3.1342 -6.87971 0
M  V30 7524 H 677.175 4.26844 -6.52246 0
M  V30 7525 N 681.404 1.57128 0.121893 0
M  V30 7526 C 682.815 1.73902 0.679348 0
M  V30 7527 C 683.166 0.770135 1.80453 0
M  V30 7528 O 682.291 -0.0576083 2.16323 0
M  V30 7529 C 682.886 3.15328 1.2391 0
M  V30 7530 C 681.445 3.33618 1.74288 0
M  V30 7531 C 680.592 2.6978 0.641414 0
M  V30 7532 H 683.543 1.58359 -0.104 0
M  V30 7533 H 683.564 3.16718 2.10879 0
M  V30 7534 H 683.076 3.85821 0.419957 0
M  V30 7535 H 681.177 2.68162 2.58689 0
M  V30 7536 H 681.29 4.4176 1.85432 0
M  V30 7537 H 679.654 2.30935 1.0743 0
M  V30 7538 H 680.437 3.42895 -0.166707 0
M  V30 7539 N 682.882 -0.391992 1.52647 0
M  V30 7540 C 683.812 -1.48517 1.8018 0
M  V30 7541 C 684.793 -1.57039 0.653667 0
M  V30 7542 O 685.978 -1.72036 0.900962 0
M  V30 7543 C 683.108 -2.86161 1.96797 0
M  V30 7544 C 682.062 -2.92481 3.12472 0
M  V30 7545 C 681.388 -4.32546 3.14338 0
M  V30 7546 C 682.688 -2.624 4.51601 0
M  V30 7547 H 684.382 -1.25726 2.71723 0
M  V30 7548 H 681.928 -0.603387 1.30749 0
M  V30 7549 H 683.881 -3.62639 2.14641 0
M  V30 7550 H 682.605 -3.10283 1.01941 0
M  V30 7551 H 681.264 -2.18451 2.94406 0
M  V30 7552 H 680.912 -4.53703 2.1717 0
M  V30 7553 H 680.612 -4.37695 3.92042 0
M  V30 7554 H 682.136 -5.10934 3.34333 0
M  V30 7555 H 683.55 -3.28596 4.69785 0
M  V30 7556 H 681.947 -2.78903 5.3135 0
M  V30 7557 H 683.017 -1.57754 4.58521 0
M  V30 7558 N 684.36 -1.4356 -0.65026 0
M  V30 7559 C 685.606 -1.45549 -1.41221 0
M  V30 7560 C 685.939 -0.0805472 -1.94033 0
M  V30 7561 O 685.214 0.899043 -1.72475 0
M  V30 7562 C 685.497 -2.50028 -2.59148 0
M  V30 7563 C 685.35 -3.96808 -2.1181 0
M  V30 7564 C 686.669 -2.51212 -3.61359 0
M  V30 7565 H 683.788 -0.529967 -0.512156 0
M  V30 7566 H 686.43 -1.75127 -0.736933 0
M  V30 7567 H 684.58 -2.24937 -3.16758 0
M  V30 7568 H 686.252 -4.32966 -1.59178 0
M  V30 7569 H 684.495 -4.09498 -1.43156 0
M  V30 7570 H 685.166 -4.6553 -2.96625 0
M  V30 7571 H 687.642 -2.73583 -3.13515 0
M  V30 7572 H 686.518 -3.26252 -4.41419 0
M  V30 7573 H 686.779 -1.54701 -4.1415 0
M  V30 7574 N 685.838 0.888903 -1.30139 0
M  V30 7575 C 687.115 1.62145 -1.094 0
M  V30 7576 C 687.495 2.08041 0.358091 0
M  V30 7577 O 686.843 1.84438 1.34888 0
M  V30 7578 C 687.053 2.794 -2.09133 0
M  V30 7579 C 688.401 3.49826 -2.40638 0
M  V30 7580 O 689.425 2.89583 -2.07412 0
M  V30 7581 O 688.284 4.58457 -2.97455 0
M  V30 7582 H 685.378 0.712475 -0.41989 0
M  V30 7583 H 687.924 0.936023 -1.41551 0
M  V30 7584 H 686.696 2.42762 -3.06891 0
M  V30 7585 H 686.319 3.55643 -1.77776 0
M  V30 7586 N 687.317 1.12792 1.10072 0
M  V30 7587 C 688.728 0.899346 1.63611 0
M  V30 7588 C 689.079 -0.565547 1.87872 0
M  V30 7589 O 688.204 -1.43081 1.62348 0
M  V30 7590 C 688.799 1.62608 2.97227 0
M  V30 7591 C 687.358 1.44356 3.47618 0
M  V30 7592 C 686.505 1.65958 2.22156 0
M  V30 7593 H 689.456 1.28216 0.935223 0
M  V30 7594 H 689.477 1.0793 3.64872 0
M  V30 7595 H 688.989 2.69221 2.79538 0
M  V30 7596 H 687.09 0.400148 3.70445 0
M  V30 7597 H 687.203 2.20218 4.25489 0
M  V30 7598 H 685.567 1.08395 2.30484 0
M  V30 7599 H 686.35 2.73877 2.06993 0
M  V30 7600 N 688.795 -1.27931 0.920396 0
M  V30 7601 C 689.742 -2.27085 0.412422 0
M  V30 7602 C 690.712 -1.57858 -0.516725 0
M  V30 7603 O 691.897 -1.85717 -0.437475 0
M  V30 7604 C 689.037 -3.43466 -0.335399 0
M  V30 7605 C 688.15 -4.27425 0.627017 0
M  V30 7606 C 687.285 -5.31016 -0.139916 0
M  V30 7607 C 686.324 -6.06641 0.815683 0
M  V30 7608 N 685.461 -7.02052 0.0818439 0
M  V30 7609 H 690.301 -2.69913 1.26298 0
M  V30 7610 H 687.838 -1.32732 0.634076 0
M  V30 7611 H 689.796 -4.09744 -0.785226 0
M  V30 7612 H 688.426 -3.01611 -1.15025 0
M  V30 7613 H 687.478 -3.6113 1.19537 0
M  V30 7614 H 688.79 -4.79969 1.35763 0
M  V30 7615 H 687.944 -6.03208 -0.649998 0
M  V30 7616 H 686.683 -4.79257 -0.903543 0
M  V30 7617 H 685.688 -5.33294 1.33708 0
M  V30 7618 H 686.913 -6.60489 1.57897 0
M  V30 7619 H 684.859 -6.52634 -0.663671 0
M  V30 7620 H 684.776 -7.52249 0.752163 0
M  V30 7621 H 686.044 -7.78432 -0.407825 0
M  V30 7622 N 690.273 -0.685099 -1.4193 0
M  V30 7623 C 691.55 -0.140152 -1.95097 0
M  V30 7624 C 691.93 1.34745 -1.62502 0
M  V30 7625 O 691.278 2.08872 -0.926534 0
M  V30 7626 C 691.488 -0.420268 -3.4646 0
M  V30 7627 C 692.836 -0.342338 -4.23218 0
M  V30 7628 O 693.86 -0.354592 -3.54431 0
M  V30 7629 O 692.719 -0.293404 -5.45712 0
M  V30 7630 H 689.813 -0.00885998 -0.826953 0
M  V30 7631 H 692.359 -0.760539 -1.51703 0
M  V30 7632 H 691.131 -1.45037 -3.63428 0
M  V30 7633 H 690.754 0.231616 -3.96925 0
M  V30 7634 N 691.751 1.51645 -0.429126 0
M  V30 7635 C 693 2.01203 0.141538 0
M  V30 7636 C 693.313 1.31828 1.44502 0
M  V30 7637 O 694.519 1.7231 2.09813 0
M  V30 7638 C 692.975 3.58624 0.302786 0
M  V30 7639 C 692.583 4.3693 -0.989775 0
M  V30 7640 C 694.327 4.16353 0.827661 0
M  V30 7641 C 692.234 5.86037 -0.794619 0
M  V30 7642 H 691.164 0.751867 0.05667 0
M  V30 7643 H 693.815 1.74822 -0.557633 0
M  V30 7644 H 692.197 3.81417 1.06476 0
M  V30 7645 H 693.371 4.25887 -1.75945 0
M  V30 7646 H 691.686 3.90614 -1.44256 0
M  V30 7647 H 694.283 5.25455 0.990026 0
M  V30 7648 H 694.626 3.74995 1.80787 0
M  V30 7649 H 695.159 3.97606 0.124213 0
M  V30 7650 H 691.898 6.31792 -1.74697 0
M  V30 7651 H 691.418 5.99765 -0.0645968 0
M  V30 7652 H 693.097 6.45471 -0.444591 0
M  V30 7653 N 693.229 0.160201 1.56784 0
M  V30 7654 C 694.506 -0.533355 1.88188 0
M  V30 7655 C 694.886 -1.82072 1.06831 0
M  V30 7656 O 694.234 -2.27946 0.158959 0
M  V30 7657 C 694.444 -0.786034 3.40033 0
M  V30 7658 C 695.792 -1.12097 4.09536 0
M  V30 7659 O 696.816 -0.874949 3.45287 0
M  V30 7660 O 695.675 -1.58457 5.23023 0
M  V30 7661 H 692.769 -0.273589 0.780434 0
M  V30 7662 H 695.315 0.197803 1.68543 0
M  V30 7663 H 694.087 0.124515 3.91102 0
M  V30 7664 H 693.71 -1.57091 3.65251 0
M  V30 7665 N 694.707 -1.5719 -0.113559 0
M  V30 7666 C 695.637 -2.03772 -1.14013 0
M  V30 7667 C 696.618 -0.923176 -1.42869 0
M  V30 7668 O 697.803 -1.19325 -1.53216 0
M  V30 7669 C 694.933 -2.44663 -2.4649 0
M  V30 7670 C 693.887 -3.59612 -2.32085 0
M  V30 7671 C 693.213 -3.8642 -3.69573 0
M  V30 7672 C 694.513 -4.91149 -1.7768 0
M  V30 7673 H 696.207 -2.89785 -0.752665 0
M  V30 7674 H 693.753 -1.39412 -0.360609 0
M  V30 7675 H 695.706 -2.75857 -3.18561 0
M  V30 7676 H 694.43 -1.55628 -2.87137 0
M  V30 7677 H 693.089 -3.28636 -1.62461 0
M  V30 7678 H 692.737 -2.94581 -4.07715 0
M  V30 7679 H 692.437 -4.63797 -3.60786 0
M  V30 7680 H 693.961 -4.2007 -4.4314 0
M  V30 7681 H 695.375 -5.20843 -2.39574 0
M  V30 7682 H 693.772 -5.72562 -1.79701 0
M  V30 7683 H 694.842 -4.79301 -0.734776 0
M  V30 7684 N 696.185 0.383891 -1.52853 0
M  V30 7685 C 697.41 1.154 -1.7233 0
M  V30 7686 C 697.835 1.82809 -0.44298 0
M  V30 7687 O 697.193 1.71026 0.601645 0
M  V30 7688 C 697.241 2.17386 -2.87708 0
M  V30 7689 O 696.345 3.24082 -2.55038 0
M  V30 7690 H 695.686 0.335709 -0.572883 0
M  V30 7691 H 698.216 0.44662 -1.99666 0
M  V30 7692 H 698.226 2.61296 -3.1335 0
M  V30 7693 H 696.901 1.6771 -3.80587 0
M  V30 7694 H 695.478 2.85273 -2.40153 0
M  V30 7695 N 697.663 1.43903 0.642637 0
M  V30 7696 C 699.074 1.40975 1.22404 0
M  V30 7697 C 699.425 0.1192 1.95838 0
M  V30 7698 O 698.55 -0.780939 2.01818 0
M  V30 7699 C 699.145 2.5538 2.22636 0
M  V30 7700 C 697.704 2.55684 2.76229 0
M  V30 7701 C 696.851 2.32556 1.51039 0
M  V30 7702 H 699.802 1.5265 0.434006 0
M  V30 7703 H 699.823 2.27474 3.05017 0
M  V30 7704 H 699.335 3.49294 1.69161 0
M  V30 7705 H 697.436 1.65679 3.33738 0
M  V30 7706 H 697.549 3.53799 3.23053 0
M  V30 7707 H 695.913 1.81427 1.78764 0
M  V30 7708 H 696.696 3.28569 0.99484 0
M  V30 7709 N 699.141 -0.881989 1.30609 0
M  V30 7710 C 700.39 -1.62878 1.18969 0
M  V30 7711 C 700.703 -1.93946 -0.253859 0
M  V30 7712 O 701.909 -2.67008 -0.491813 0
M  V30 7713 C 700.365 -2.93573 2.0819 0
M  V30 7714 C 699.973 -2.70034 3.57471 0
M  V30 7715 C 701.717 -3.71543 2.0532 0
M  V30 7716 C 699.624 -3.96563 4.38739 0
M  V30 7717 H 698.554 -0.611092 0.441682 0
M  V30 7718 H 701.205 -0.976201 1.55379 0
M  V30 7719 H 699.587 -3.6014 1.64666 0
M  V30 7720 H 700.761 -2.11949 4.09163 0
M  V30 7721 H 699.076 -2.05435 3.62195 0
M  V30 7722 H 701.673 -4.65386 2.63288 0
M  V30 7723 H 702.016 -4.03167 1.03739 0
M  V30 7724 H 702.549 -3.11842 2.46981 0
M  V30 7725 H 699.288 -3.70095 5.41027 0
M  V30 7726 H 698.808 -4.54142 3.9181 0
M  V30 7727 H 700.487 -4.64557 4.50329 0
M  V30 7728 N 700.619 -1.13374 -1.09472 0
M  V30 7729 C 701.569 -0.77946 -2.14263 0
M  V30 7730 C 702.553 0.226271 -1.59301 0
M  V30 7731 O 703.745 0.0302581 -1.76974 0
M  V30 7732 C 700.874 -0.246635 -3.42413 0
M  V30 7733 C 699.96 -1.28124 -4.04283 0
M  V30 7734 N 700.351 -2.48201 -4.40715 0
M  V30 7735 C 698.649 -1.12892 -4.31476 0
M  V30 7736 C 699.35 -3.14347 -4.8945 0
M  V30 7737 N 698.326 -2.41771 -4.86876 0
M  V30 7738 H 702.128 -1.69305 -2.40235 0
M  V30 7739 H 699.642 -1.01598 -1.26695 0
M  V30 7740 H 701.639 0.0254131 -4.16892 0
M  V30 7741 H 700.299 0.661287 -3.17895 0
M  V30 7742 H 701.31 -2.85511 -4.32093 0
M  V30 7743 H 697.987 -0.279117 -4.16566 0
M  V30 7744 H 699.377 -4.16663 -5.27107 0
M  V30 7745 N 702.098 1.27442 -0.927168 0
M  V30 7746 C 703.347 1.93679 -0.563146 0
M  V30 7747 C 703.66 1.73673 0.899837 0
M  V30 7748 O 704.866 2.34247 1.37262 0
M  V30 7749 C 703.322 3.46961 -0.95636 0
M  V30 7750 C 702.93 3.75724 -2.43999 0
M  V30 7751 C 704.674 4.19282 -0.663565 0
M  V30 7752 C 702.581 5.22378 -2.77263 0
M  V30 7753 H 701.511 0.725059 -0.206894 0
M  V30 7754 H 704.162 1.44743 -1.12791 0
M  V30 7755 H 702.544 3.94703 -0.320254 0
M  V30 7756 H 703.718 3.38741 -3.12396 0
M  V30 7757 H 702.033 3.16605 -2.70463 0
M  V30 7758 H 704.63 5.27265 -0.888596 0
M  V30 7759 H 704.973 4.14382 0.399198 0
M  V30 7760 H 705.506 3.7736 -1.25875 0
M  V30 7761 H 702.245 5.32367 -3.82446 0
M  V30 7762 H 701.765 5.6051 -2.13516 0
M  V30 7763 H 703.444 5.9025 -2.64979 0
M  V30 7764 N 703.576 0.692616 1.41565 0
M  V30 7765 C 704.824 0.221896 2.00878 0
M  V30 7766 C 705.145 -1.18164 1.5512 0
M  V30 7767 O 704.415 -1.79679 0.78054 0
M  V30 7768 H 702.995 0.0790463 0.742806 0
M  V30 7769 H 705.657 0.893115 1.73232 0
M  V30 7770 H 704.753 0.23702 3.11199 0
M  V30 7771 N 705.054 -1.51416 0.437162 0
M  V30 7772 C 706.301 -2.02086 -0.129364 0
M  V30 7773 C 706.629 -1.32133 -1.42728 0
M  V30 7774 O 705.884 -0.424916 -1.91031 0
M  V30 7775 C 706.183 -3.55203 -0.39564 0
M  V30 7776 C 705.849 -4.43447 0.81644 0
M  V30 7777 C 704.511 -4.67285 1.14884 0
M  V30 7778 C 706.863 -4.95219 1.62503 0
M  V30 7779 C 704.191 -5.40141 2.29052 0
M  V30 7780 C 706.543 -5.69327 2.7577 0
M  V30 7781 C 705.207 -5.91429 3.09464 0
M  V30 7782 H 704.477 -0.739486 -0.0473375 0
M  V30 7783 H 707.124 -1.82368 0.584321 0
M  V30 7784 H 705.429 -3.73252 -1.19121 0
M  V30 7785 H 707.126 -3.91944 -0.847399 0
M  V30 7786 H 703.716 -4.2509 0.547422 0
M  V30 7787 H 707.9 -4.76686 1.38144 0
M  V30 7788 H 703.156 -5.55468 2.55471 0
M  V30 7789 H 707.33 -6.08433 3.38795 0
M  V30 7790 H 704.957 -6.47662 3.98042 0
M  V30 7791 N 706.532 -0.168513 -1.56696 0
M  V30 7792 C 707.78 0.476216 -1.96409 0
M  V30 7793 C 708.101 1.63968 -1.05544 0
M  V30 7794 O 707.371 1.95525 -0.121235 0
M  V30 7795 H 705.951 0.178921 -0.725256 0
M  V30 7796 H 708.613 -0.249042 -1.93302 0
M  V30 7797 H 707.709 0.838094 -3.00637 0
M  V30 7798 N 708.01 1.57248 0.105221 0
M  V30 7799 C 709.25 1.87393 0.816283 0
M  V30 7800 C 709.614 0.758249 1.76393 0
M  V30 7801 O 710.815 0.941835 2.5176 0
M  V30 7802 C 709.086 3.22775 1.53463 0
M  V30 7803 S 710.645 3.74588 2.28537 0
M  V30 7804 H 707.463 0.656847 0.272164 0
M  V30 7805 H 710.065 1.9536 0.073909 0
M  V30 7806 H 708.769 4.01905 0.830674 0
M  V30 7807 H 708.3 3.17921 2.3171 0
M  V30 7808 H 710.315 3.47193 3.54502 0
M  V30 7809 N 709.488 -0.375779 1.53054 0
M  V30 7810 C 710.737 -1.11674 1.67964 0
M  V30 7811 C 711.05 -1.90755 0.432655 0
M  V30 7812 O 712.256 -2.67538 0.462109 0
M  V30 7813 C 710.712 -2.0344 2.96884 0
M  V30 7814 C 710.32 -1.29719 4.28809 0
M  V30 7815 C 712.064 -2.7759 3.2116 0
M  V30 7816 C 709.971 -2.20327 5.48826 0
M  V30 7817 H 708.901 -0.420597 0.625791 0
M  V30 7818 H 711.552 -0.378499 1.79554 0
M  V30 7819 H 709.934 -2.80953 2.79072 0
M  V30 7820 H 711.108 -0.573394 4.57219 0
M  V30 7821 H 709.423 -0.674735 4.10897 0
M  V30 7822 H 712.02 -3.4559 4.0801 0
M  V30 7823 H 712.363 -3.42399 2.36789 0
M  V30 7824 H 712.896 -2.07164 3.396 0
M  V30 7825 H 709.635 -1.60113 6.35645 0
M  V30 7826 H 709.155 -2.90585 5.2471 0
M  V30 7827 H 710.834 -2.80116 5.83219 0
M  V30 7828 N 710.966 -1.44241 -0.634997 0
M  V30 7829 C 712.377 -1.41622 -1.21655 0
M  V30 7830 C 712.728 -0.129584 -1.95772 0
M  V30 7831 O 711.853 0.770225 -2.02229 0
M  V30 7832 C 712.448 -2.56557 -2.21278 0
M  V30 7833 C 711.007 -2.57145 -2.7487 0
M  V30 7834 C 710.154 -2.33354 -1.49804 0
M  V30 7835 H 713.105 -1.52878 -0.425905 0
M  V30 7836 H 713.126 -2.29089 -3.03807 0
M  V30 7837 H 712.638 -3.50186 -1.67306 0
M  V30 7838 H 710.739 -1.67447 -3.32855 0
M  V30 7839 H 710.852 -3.55507 -3.21172 0
M  V30 7840 H 709.216 -1.82372 -1.77799 0
M  V30 7841 H 709.999 -3.29092 -0.977402 0
M  V30 7842 N 712.444 0.87505 -1.31075 0
M  V30 7843 C 713.855 1.4433 -1.18431 0
M  V30 7844 C 714.206 1.9506 0.211189 0
M  V30 7845 O 713.331 1.85847 1.10859 0
M  V30 7846 C 713.926 2.62341 -2.14389 0
M  V30 7847 C 712.485 3.15225 -2.05694 0
M  V30 7848 C 711.632 1.87929 -2.03907 0
M  V30 7849 H 714.583 0.684061 -1.432 0
M  V30 7850 H 714.604 3.3887 -1.73053 0
M  V30 7851 H 714.116 2.25388 -3.15946 0
M  V30 7852 H 712.217 3.56812 -1.07314 0
M  V30 7853 H 712.33 3.77853 -2.94558 0
M  V30 7854 H 710.694 2.06679 -1.48849 0
M  V30 7855 H 711.477 1.53221 -3.07211 0
M  V30 7856 N 713.922 1.13953 1.08869 0
M  V30 7857 C 715.338 0.878924 1.33218 0
M  V30 7858 C 715.538 -0.482478 1.95638 0
M  V30 7859 O 714.594 -1.22778 2.2064 0
M  V30 7860 C 715.907 2.00798 2.23832 0
M  V30 7861 C 717.455 2.04073 2.37325 0
M  V30 7862 C 717.93 3.16258 3.31278 0
M  V30 7863 N 719.421 3.15805 3.38853 0
M  V30 7864 C 720.156 3.99249 4.11567 0
M  V30 7865 N 719.652 4.92721 4.87029 0
M  V30 7866 N 721.445 3.87327 4.0735 0
M  V30 7867 H 713.596 2.01645 0.66731 0
M  V30 7868 H 715.859 0.878395 0.356547 0
M  V30 7869 H 715.565 2.98986 1.85203 0
M  V30 7870 H 715.439 1.92704 3.24261 0
M  V30 7871 H 717.826 1.06495 2.75214 0
M  V30 7872 H 717.907 2.16239 1.36654 0
M  V30 7873 H 717.551 4.14079 2.9411 0
M  V30 7874 H 717.481 3.0133 4.31866 0
M  V30 7875 H 719.972 2.48102 2.8505 0
M  V30 7876 H 720.285 5.52867 5.39961 0
M  V30 7877 H 718.63 4.96723 4.86098 0
M  V30 7878 H 721.821 3.13627 3.475 0
M  V30 7879 H 721.994 4.52585 4.63757 0
M  V30 7880 N 715.4 -1.26948 0.933913 0
M  V30 7881 C 716.63 -1.97898 0.593279 0
M  V30 7882 C 717.038 -1.69806 -0.834412 0
M  V30 7883 O 716.381 -0.958704 -1.56699 0
M  V30 7884 C 716.443 -3.51657 0.746825 0
M  V30 7885 C 716.107 -4.03384 2.14779 0
M  V30 7886 C 717.104 -4.15682 3.12257 0
M  V30 7887 C 714.789 -4.37577 2.46641 0
M  V30 7888 C 716.783 -4.61455 4.39702 0
M  V30 7889 C 714.47 -4.8304 3.7432 0
M  V30 7890 C 715.468 -4.94939 4.70664 0
M  V30 7891 O 715.156 -5.39403 5.96071 0
M  V30 7892 H 714.888 -0.63814 0.223055 0
M  V30 7893 H 717.442 -1.62608 1.2549 0
M  V30 7894 H 715.672 -3.8669 0.0280889 0
M  V30 7895 H 717.361 -4.03821 0.410328 0
M  V30 7896 H 718.127 -3.89519 2.88964 0
M  V30 7897 H 714.006 -4.27554 1.72391 0
M  V30 7898 H 717.55 -4.70658 5.14905 0
M  V30 7899 H 713.447 -5.08646 3.97429 0
M  V30 7900 H 714.215 -5.57641 5.99148 0
M  V30 7901 N 716.879 -0.700114 -1.41195 0
M  V30 7902 C 717.826 -0.0376652 -2.30769 0
M  V30 7903 C 718.796 0.766544 -1.47354 0
M  V30 7904 O 719.981 0.73365 -1.76131 0
M  V30 7905 C 717.121 0.889452 -3.33441 0
M  V30 7906 C 716.234 0.076373 -4.31932 0
M  V30 7907 C 715.369 1.00155 -5.21673 0
M  V30 7908 C 714.408 0.181644 -6.1183 0
M  V30 7909 N 713.545 1.06087 -6.94039 0
M  V30 7910 H 718.385 -0.80726 -2.86858 0
M  V30 7911 H 715.922 -0.409798 -1.41277 0
M  V30 7912 H 717.88 1.44107 -3.91522 0
M  V30 7913 H 716.51 1.6254 -2.78892 0
M  V30 7914 H 715.562 -0.592223 -3.75762 0
M  V30 7915 H 716.874 -0.559076 -4.95657 0
M  V30 7916 H 716.028 1.62223 -5.8461 0
M  V30 7917 H 714.767 1.67085 -4.58186 0
M  V30 7918 H 713.772 -0.452085 -5.47938 0
M  V30 7919 H 714.997 -0.483925 -6.77374 0
M  V30 7920 H 712.943 1.7161 -6.33156 0
M  V30 7921 H 712.86 0.481094 -7.54468 0
M  V30 7922 H 714.128 1.66822 -7.6144 0
M  V30 7923 N 718.357 1.51182 -0.445186 0
M  V30 7924 C 719.287 2.30821 0.352686 0
M  V30 7925 C 720.268 1.36576 1.01395 0
M  V30 7926 O 721.453 1.65497 1.01609 0
M  V30 7927 C 718.583 3.15593 1.44976 0
M  V30 7928 C 717.537 4.1818 0.911553 0
M  V30 7929 C 716.863 4.91523 2.10497 0
M  V30 7930 C 718.163 5.22266 -0.059418 0
M  V30 7931 H 719.857 2.97771 -0.311936 0
M  V30 7932 H 717.403 1.43201 -0.151461 0
M  V30 7933 H 719.356 3.70091 2.01521 0
M  V30 7934 H 718.08 2.4648 2.14278 0
M  V30 7935 H 716.739 3.64746 0.368264 0
M  V30 7936 H 716.387 4.18906 2.78437 0
M  V30 7937 H 716.087 5.60898 1.7512 0
M  V30 7938 H 717.611 5.48847 2.6758 0
M  V30 7939 H 719.025 5.71789 0.415985 0
M  V30 7940 H 717.422 5.99213 -0.326152 0
M  V30 7941 H 718.492 4.7461 -0.993631 0
M  V30 7942 N 719.835 0.176821 1.56605 0
M  V30 7943 C 721.075 -0.469104 1.98944 0
M  V30 7944 C 721.439 -1.60048 1.06059 0
M  V30 7945 O 722.64 -2.30934 1.3756 0
M  V30 7946 C 720.911 -0.934571 3.44965 0
M  V30 7947 S 722.47 -1.58091 4.09332 0
M  V30 7948 H 719.288 -0.150695 0.694847 0
M  V30 7949 H 721.89 0.27558 1.93548 0
M  V30 7950 H 720.594 -0.100814 4.10276 0
M  V30 7951 H 720.125 -1.71316 3.54139 0
M  V30 7952 H 722.14 -2.86922 4.04834 0
M  V30 7953 N 721.313 -1.57302 -0.09688 0
M  V30 7954 C 722.559 -1.86273 -0.801885 0
M  V30 7955 C 722.892 -0.765694 -1.78468 0
M  V30 7956 O 722.167 0.226495 -1.93177 0
M  V30 7957 C 722.45 -3.25876 -1.53221 0
M  V30 7958 C 722.303 -4.46205 -0.567529 0
M  V30 7959 C 723.622 -3.63352 -2.48321 0
M  V30 7960 H 720.741 -0.67752 -0.29006 0
M  V30 7961 H 723.383 -1.89887 -0.0655577 0
M  V30 7962 H 721.533 -3.22926 -2.15988 0
M  V30 7963 H 723.205 -4.6127 0.0529982 0
M  V30 7964 H 721.448 -4.33636 0.119233 0
M  V30 7965 H 722.119 -5.40608 -1.11564 0
M  V30 7966 H 724.595 -3.67234 -1.95648 0
M  V30 7967 H 723.471 -4.61968 -2.9644 0
M  V30 7968 H 723.732 -2.91941 -3.31998 0
M  V30 7969 N 722.791 0.367657 -1.53252 0
M  V30 7970 C 724.04 1.10782 -1.68554 0
M  V30 7971 C 724.353 1.90523 -0.442765 0
M  V30 7972 O 725.559 2.6729 -0.47629 0
M  V30 7973 C 724.015 2.01863 -2.97959 0
M  V30 7974 C 723.623 1.27443 -4.29491 0
M  V30 7975 C 725.367 2.75883 -3.22628 0
M  V30 7976 C 723.274 2.17414 -5.49987 0
M  V30 7977 H 722.204 0.417272 -0.628013 0
M  V30 7978 H 724.855 0.368971 -1.79752 0
M  V30 7979 H 723.237 2.7947 -2.80558 0
M  V30 7980 H 724.411 0.549138 -4.57516 0
M  V30 7981 H 722.726 0.652935 -4.11249 0
M  V30 7982 H 725.323 3.43421 -4.09837 0
M  V30 7983 H 725.666 3.41138 -2.38601 0
M  V30 7984 H 726.199 2.0536 -3.40693 0
M  V30 7985 H 722.938 1.5674 -6.36485 0
M  V30 7986 H 722.458 2.87799 -5.26243 0
M  V30 7987 H 724.137 2.77019 -5.84696 0
M  V30 7988 N 724.269 1.44576 0.627338 0
M  V30 7989 C 725.68 1.42266 1.20902 0
M  V30 7990 C 726.031 0.139964 1.957 0
M  V30 7991 O 725.156 -0.759489 2.02634 0
M  V30 7992 C 725.751 2.57727 2.19914 0
M  V30 7993 C 724.31 2.58599 2.73502 0
M  V30 7994 C 723.457 2.34145 1.48564 0
M  V30 7995 H 726.408 1.53102 0.417791 0
M  V30 7996 H 726.429 2.30697 3.02588 0
M  V30 7997 H 725.941 3.51068 1.65447 0
M  V30 7998 H 724.042 1.6921 3.31962 0
M  V30 7999 H 724.155 3.57205 3.19282 0
M  V30 8000 H 722.519 1.83313 1.76829 0
M  V30 8001 H 723.302 3.29606 0.959935 0
M  V30 8002 N 725.747 -0.868086 1.31537 0
M  V30 8003 C 727.163 -1.15414 1.10235 0
M  V30 8004 C 727.363 -2.01106 -0.125947 0
M  V30 8005 O 726.419 -2.38994 -0.814734 0
M  V30 8006 C 727.732 -1.84445 2.37488 0
M  V30 8007 C 729.28 -1.97139 2.43116 0
M  V30 8008 C 729.755 -2.69585 3.70254 0
M  V30 8009 N 731.246 -2.77119 3.71159 0
M  V30 8010 C 731.981 -3.33791 4.6623 0
M  V30 8011 N 731.477 -3.9138 5.71659 0
M  V30 8012 N 733.27 -3.31767 4.53747 0
M  V30 8013 H 725.421 -0.297109 2.10312 0
M  V30 8014 H 727.684 -0.194227 0.92789 0
M  V30 8015 H 727.39 -1.2893 3.27215 0
M  V30 8016 H 727.264 -2.84709 2.47428 0
M  V30 8017 H 729.651 -2.51818 1.53856 0
M  V30 8018 H 729.732 -0.95912 2.37138 0
M  V30 8019 H 729.376 -2.15572 4.59881 0
M  V30 8020 H 729.306 -3.71223 3.73499 0
M  V30 8021 H 731.797 -2.3625 2.94948 0
M  V30 8022 H 732.11 -4.3274 6.40278 0
M  V30 8023 H 730.455 -3.8975 5.7543 0
M  V30 8024 H 733.646 -2.86016 3.70557 0
M  V30 8025 H 733.819 -3.75636 5.28017 0
M  V30 8026 N 727.225 -1.14528 -1.08264 0
M  V30 8027 C 728.45 -0.938381 -1.84957 0
M  V30 8028 C 728.875 0.508044 -1.81109 0
M  V30 8029 O 728.233 1.36146 -1.19724 0
M  V30 8030 C 728.281 -1.44568 -3.30352 0
M  V30 8031 O 727.385 -0.638745 -4.07423 0
M  V30 8032 H 726.726 -0.335394 -0.573068 0
M  V30 8033 H 729.256 -1.52287 -1.36637 0
M  V30 8034 H 729.266 -1.45449 -3.81194 0
M  V30 8035 H 727.941 -2.49876 -3.32468 0
M  V30 8036 H 726.518 -0.698801 -3.66294 0
M  V30 8037 O 728.742 1.2085 -1.07133 0
M  V30 8038 H 729.433 1.78311 -0.756635 0
M  V30 END ATOM
M  V30 BEGIN BOND
M  V30 END BOND
M  V30 END CTAB
M  END
$$$$
