drugbank_target|P00780 Subtilisin Carlsberg (DB01942; DB02560; DB02677; DB03290; DB03316; DB03607)
 OpenBabel12092119533D

  0  0  0     0  0            999 V3000
M  V30 BEGIN CTAB
M  V30 COUNTS 5463 5510 0 0 0
M  V30 BEGIN ATOM
M  V30 1 H -0.908 1.98254 -0.117106 0
M  V30 2 N 0 1.576 0 0
M  V30 3 C 0.933 2.03868 1.02534 0
M  V30 4 C 1.911 0.928543 1.3348 0
M  V30 5 O 3.095 1.19667 1.45644 0
M  V30 6 C 0.222 2.43627 2.35294 0
M  V30 7 C -0.732 3.65373 2.2001 0
M  V30 8 S 0.101 5.13292 1.52614 0
M  V30 9 C 1.257 5.56322 2.86805 0
M  V30 10 H 1.49 2.90518 0.631377 0
M  V30 11 H -0.977 1.52953 0.210867 0
M  V30 12 H 0.981 2.67203 3.11629 0
M  V30 13 H -0.358 1.57376 2.7183 0
M  V30 14 H -1.165 3.90944 3.18086 0
M  V30 15 H -1.563 3.418 1.51819 0
M  V30 16 H 0.729 5.58782 3.83104 0
M  V30 17 H 1.672 6.56266 2.65933 0
M  V30 18 H 2.08 4.83886 2.90714 0
M  V30 19 N 1.4781 -0.272755 1.55222 0
M  V30 20 C 2.4111 -1.3627 1.83046 0
M  V30 21 C 3.3891 -1.47536 0.683521 0
M  V30 22 O 4.5731 -1.64157 0.926545 0
M  V30 23 C 1.7001 -2.73908 1.99229 0
M  V30 24 C 0.7461 -2.79925 3.21783 0
M  V30 25 S 1.5791 -2.39146 4.79134 0
M  V30 26 C 2.7351 -3.78758 4.9829 0
M  V30 27 H 2.9681 -1.12464 2.75207 0
M  V30 28 H 0.5011 -0.472398 1.46996 0
M  V30 29 H 2.4591 -3.53171 2.09238 0
M  V30 30 H 1.1201 -2.94965 1.07956 0
M  V30 31 H 0.3131 -3.80946 3.29994 0
M  V30 32 H -0.0849 -2.08683 3.10367 0
M  V30 33 H 2.2071 -4.7403 4.84047 0
M  V30 34 H 3.1501 -3.75499 6.00338 0
M  V30 35 H 3.5581 -3.70072 4.26271 0
M  V30 36 N 2.9562 -1.48159 -0.537278 0
M  V30 37 C 4.3722 -1.34118 -0.865129 0
M  V30 38 C 4.5722 -0.346678 -1.98495 0
M  V30 39 O 3.6282 0.234715 -2.51407 0
M  V30 40 C 4.9412 -2.73963 -1.23954 0
M  V30 41 C 6.4892 -2.82397 -1.34984 0
M  V30 42 C 6.9642 -4.22928 -1.75772 0
M  V30 43 N 8.4552 -4.25566 -1.82887 0
M  V30 44 C 9.1902 -5.31235 -2.15817 0
M  V30 45 N 8.6862 -6.47189 -2.47222 0
M  V30 46 N 10.4792 -5.18624 -2.16761 0
M  V30 47 H 2.6302 -2.1144 0.201715 0
M  V30 48 H 4.8932 -0.947598 0.0275949 0
M  V30 49 H 4.5992 -3.48264 -0.490381 0
M  V30 50 H 4.4732 -3.0702 -2.19132 0
M  V30 51 H 6.8602 -2.08356 -2.08978 0
M  V30 52 H 6.9412 -2.5297 -0.379448 0
M  V30 53 H 6.5852 -4.97482 -1.02341 0
M  V30 54 H 6.5152 -4.49794 -2.73848 0
M  V30 55 H 9.0062 -3.41924 -1.60924 0
M  V30 56 H 9.3192 -7.23564 -2.71433 0
M  V30 57 H 7.6642 -6.50476 -2.44757 0
M  V30 58 H 10.8552 -4.27056 -1.91679 0
M  V30 59 H 11.0282 -6.01078 -2.42093 0
M  V30 60 N 4.4343 0.785586 -1.36625 0
M  V30 61 C 5.3813 1.89838 -1.31264 0
M  V30 62 C 6.3513 1.65115 -0.180633 0
M  V30 63 O 7.5363 1.87222 -0.36777 0
M  V30 64 C 4.6763 3.26706 -1.11163 0
M  V30 65 C 3.7893 3.63476 -2.33472 0
M  V30 66 C 2.9243 4.89481 -2.06353 0
M  V30 67 C 1.9633 5.18941 -3.24602 0
M  V30 68 N 1.1003 6.36131 -2.97123 0
M  V30 69 H 5.9403 1.93756 -2.26413 0
M  V30 70 H 3.4773 0.947454 -1.12524 0
M  V30 71 H 5.4353 4.05639 -0.975337 0
M  V30 72 H 4.0653 3.222 -0.196674 0
M  V30 73 H 3.1173 2.79636 -2.57891 0
M  V30 74 H 4.4293 3.81193 -3.21704 0
M  V30 75 H 3.5833 5.76288 -1.89675 0
M  V30 76 H 2.3223 4.73841 -1.15437 0
M  V30 77 H 1.3273 4.30615 -3.41834 0
M  V30 78 H 2.5523 5.36498 -4.16349 0
M  V30 79 H 0.4983 6.21875 -2.08823 0
M  V30 80 H 0.4153 6.54198 -3.78894 0
M  V30 81 H 1.6833 7.2591 -2.84033 0
M  V30 82 N 5.9124 1.20967 1.01018 0
M  V30 83 C 6.8594 0.964281 2.09691 0
M  V30 84 C 7.8294 -0.107853 1.65749 0
M  V30 85 O 9.0144 0.0381987 1.90762 0
M  V30 86 C 6.1544 0.52943 3.41015 0
M  V30 87 C 5.2674 1.67043 3.98398 0
M  V30 88 C 4.4024 1.18525 5.17808 0
M  V30 89 C 3.4414 2.29892 5.67288 0
M  V30 90 N 2.5784 1.82546 6.77954 0
M  V30 91 H 7.4184 1.89463 2.30017 0
M  V30 92 H 4.9554 0.944289 1.1279 0
M  V30 93 H 6.9134 0.258588 4.16398 0
M  V30 94 H 5.5434 -0.363919 3.20742 0
M  V30 95 H 4.5954 2.05603 3.20049 0
M  V30 96 H 5.9074 2.50877 4.31117 0
M  V30 97 H 5.0614 0.870762 6.00419 0
M  V30 98 H 3.8004 0.316887 4.86669 0
M  V30 99 H 2.8054 2.6215 4.83278 0
M  V30 100 H 4.0304 3.17216 6.00459 0
M  V30 101 H 1.9764 0.980454 6.48632 0
M  V30 102 H 1.8934 2.59956 7.09901 0
M  V30 103 H 3.1614 1.54115 7.64113 0
M  V30 104 N 7.3905 -1.2043 1.01659 0
M  V30 105 C 8.6155 -1.94318 0.724942 0
M  V30 106 C 9.0405 -1.74266 -0.708034 0
M  V30 107 O 8.3985 -1.03694 -1.48719 0
M  V30 108 C 8.4465 -3.44486 1.06591 0
M  V30 109 O 7.5505 -4.12017 0.177599 0
M  V30 110 H 6.8915 -0.60708 0.26898 0
M  V30 111 H 9.4215 -1.52861 1.35995 0
M  V30 112 H 9.4315 -3.95106 1.01762 0
M  V30 113 H 8.1065 -3.58404 2.10997 0
M  V30 114 H 6.6835 -3.71821 0.283421 0
M  V30 115 N 8.8686 -0.792821 -1.36206 0
M  V30 116 C 10.1156 -0.366786 -1.99151 0
M  V30 117 C 10.4436 1.06243 -1.62919 0
M  V30 118 O 9.6986 1.74927 -0.877442 0
M  V30 119 C 9.9976 -0.481501 -3.54142 0
M  V30 120 C 9.6636 -1.87202 -4.10203 0
M  V30 121 C 8.3256 -2.25248 -4.25226 0
M  V30 122 C 10.6776 -2.78237 -4.40719 0
M  V30 123 C 8.0056 -3.53723 -4.68078 0
M  V30 124 C 10.3576 -4.06144 -4.85005 0
M  V30 125 C 9.0216 -4.44207 -4.98234 0
M  V30 126 H 8.2916 -0.134217 -0.728743 0
M  V30 127 H 10.9386 -1.01094 -1.62641 0
M  V30 128 H 9.2436 0.246146 -3.91026 0
M  V30 129 H 10.9406 -0.132844 -4.0078 0
M  V30 130 H 7.5306 -1.56639 -3.98951 0
M  V30 131 H 11.7146 -2.50097 -4.28679 0
M  V30 132 H 6.9706 -3.8308 -4.76508 0
M  V30 133 H 11.1446 -4.76796 -5.07581 0
M  V30 134 H 8.7716 -5.43814 -5.31197 0
M  V30 135 N 10.3467 1.47872 -0.545128 0
M  V30 136 C 11.5927 2.03385 -0.0247951 0
M  V30 137 C 11.9477 1.41325 1.30556 0
M  V30 138 O 11.2407 0.5552 1.8338 0
M  V30 139 C 11.4347 3.57131 0.13867 0
M  V30 140 C 11.2637 4.34097 -1.17429 0
M  V30 141 C 10.0337 4.74458 -1.73831 0
M  V30 142 C 12.2317 4.6998 -2.08861 0
M  V30 143 N 10.2137 5.3602 -2.99258 0
M  V30 144 C 11.5847 5.31719 -3.18866 0
M  V30 145 C 13.6397 4.5191 -2.09003 0
M  V30 146 C 12.3427 5.77295 -4.29096 0
M  V30 147 C 14.3687 4.98477 -3.18237 0
M  V30 148 C 13.7307 5.60253 -4.26961 0
M  V30 149 H 9.8297 0.780339 -0.050943 0
M  V30 150 H 12.4137 1.80507 -0.729753 0
M  V30 151 H 10.5847 3.79802 0.812733 0
M  V30 152 H 12.3167 3.99282 0.659976 0
M  V30 153 H 9.0717 4.56037 -1.2778 0
M  V30 154 H 9.4957 5.71355 -3.63157 0
M  V30 155 H 14.1377 4.03516 -1.26234 0
M  V30 156 H 11.8557 6.24687 -5.12633 0
M  V30 157 H 15.4417 4.86274 -3.1942 0
M  V30 158 H 14.3217 5.95631 -5.10091 0
M  V30 159 N 11.8248 0.280983 1.55075 0
M  V30 160 C 12.7548 -0.597469 2.25727 0
M  V30 161 C 13.7358 -1.15417 1.24952 0
M  V30 162 O 14.9208 -1.18722 1.53684 0
M  V30 163 C 12.0508 -1.7789 2.98283 0
M  V30 164 C 11.0048 -1.35347 4.06036 0
M  V30 165 C 10.3308 -2.61846 4.66198 0
M  V30 166 C 11.6308 -0.499354 5.19907 0
M  V30 167 H 13.3248 -0.00824265 2.99399 0
M  V30 168 H 10.8708 -0.0025244 1.44 0
M  V30 169 H 12.8238 -2.39937 3.46422 0
M  V30 170 H 11.5478 -2.39405 2.22155 0
M  V30 171 H 10.2068 -0.756156 3.58717 0
M  V30 172 H 9.8548 -3.21632 3.86732 0
M  V30 173 H 9.5548 -2.3409 5.38958 0
M  V30 174 H 11.0788 -3.24732 5.1709 0
M  V30 175 H 12.4928 -1.02498 5.64063 0
M  V30 176 H 10.8898 -0.316424 5.99265 0
M  V30 177 H 11.9598 0.480459 4.82514 0
M  V30 178 N 13.3029 -1.57598 0.00835791 0
M  V30 179 C 14.5509 -1.90551 -0.6734 0
M  V30 180 C 14.8719 -0.883301 -1.73847 0
M  V30 181 O 14.1419 0.0781442 -1.95744 0
M  V30 182 H 12.7219 -0.703312 -0.251717 0
M  V30 183 H 15.3839 -1.94833 0.0512592 0
M  V30 184 H 14.4799 -2.9056 -1.13935 0
M  V30 185 N 14.781 0.264519 -1.55364 0
M  V30 186 C 15.714 1.35297 -1.83766 0
M  V30 187 C 16.692 1.47171 -0.691336 0
M  V30 188 O 17.876 1.63663 -0.935238 0
M  V30 189 C 15.003 2.72847 -2.00679 0
M  V30 190 C 14.049 2.78214 -3.23263 0
M  V30 191 S 14.882 2.36601 -4.80396 0
M  V30 192 C 16.038 3.7611 -5.00292 0
M  V30 193 H 16.271 1.11003 -2.758 0
M  V30 194 H 13.804 0.464596 -1.47244 0
M  V30 195 H 15.762 3.52057 -2.11108 0
M  V30 196 H 14.423 2.94388 -1.09518 0
M  V30 197 H 13.616 3.7919 -3.3201 0
M  V30 198 H 13.218 2.07034 -3.11469 0
M  V30 199 H 15.51 4.71457 -4.86554 0
M  V30 200 H 16.453 3.7231 -6.02321 0
M  V30 201 H 16.861 3.67806 -4.28228 0
M  V30 202 N 16.2591 1.48442 0.529413 0
M  V30 203 C 17.1891 1.65902 1.64313 0
M  V30 204 C 18.1701 0.507897 1.6234 0
M  V30 205 O 19.3551 0.740503 1.79528 0
M  V30 206 C 16.4851 1.69911 3.02898 0
M  V30 207 C 15.4391 2.8453 3.19729 0
M  V30 208 C 14.7651 2.73629 4.59381 0
M  V30 209 C 16.0651 4.25821 3.02447 0
M  V30 210 H 17.7591 2.5914 1.49955 0
M  V30 211 H 15.3051 1.24709 0.719982 0
M  V30 212 H 17.2581 1.80715 3.80684 0
M  V30 213 H 15.9821 0.732524 3.18279 0
M  V30 214 H 14.6411 2.73283 2.44361 0
M  V30 215 H 14.2891 1.74938 4.71599 0
M  V30 216 H 13.9891 3.50541 4.71588 0
M  V30 217 H 15.5131 2.86401 5.39265 0
M  V30 218 H 16.9271 4.37898 3.70024 0
M  V30 219 H 15.3241 5.03735 3.26146 0
M  V30 220 H 16.3941 4.42244 1.98867 0
M  V30 221 N 17.7372 -0.778329 1.37039 0
M  V30 222 C 18.9652 -1.56734 1.35063 0
M  V30 223 C 19.3802 -1.88686 -0.0655597 0
M  V30 224 O 18.7372 -1.5096 -1.02554 0
M  V30 225 C 18.7882 -2.88163 2.18276 0
M  V30 226 O 18.5092 -2.57583 3.54376 0
M  V30 227 C 20.0102 -3.82422 2.24206 0
M  V30 228 H 17.2302 -0.485778 0.462883 0
M  V30 229 H 19.7742 -0.965185 1.8029 0
M  V30 230 H 17.9292 -3.44818 1.76576 0
M  V30 231 H 18.3432 -3.41699 3.97922 0
M  V30 232 H 19.8172 -4.71667 2.86765 0
M  V30 233 H 20.2942 -4.21078 1.24861 0
M  V30 234 H 20.9002 -3.31697 2.6619 0
M  V30 235 N 19.2153 -1.21501 -1.00376 0
M  V30 236 C 20.1783 -0.976927 -2.07337 0
M  V30 237 C 21.1783 0.0525322 -1.60714 0
M  V30 238 O 22.3683 -0.184869 -1.73216 0
M  V30 239 C 19.5003 -0.473423 -3.37597 0
M  V30 240 H 20.6933 -1.92587 -2.29892 0
M  V30 241 H 18.2463 -1.03217 -1.17371 0
M  V30 242 H 18.9813 0.480379 -3.20722 0
M  V30 243 H 18.7663 -1.216 -3.72768 0
M  V30 244 H 20.2563 -0.32675 -4.1632 0
M  V30 245 N 20.6934 1.19889 -1.02296 0
M  V30 246 C 21.9404 1.8942 -0.715972 0
M  V30 247 C 22.2684 1.79251 0.754944 0
M  V30 248 O 21.5234 1.17526 1.56481 0
M  V30 249 C 21.8224 3.39883 -1.10518 0
M  V30 250 C 21.4884 3.70254 -2.57337 0
M  V30 251 C 20.1504 3.78254 -2.97452 0
M  V30 252 C 22.5024 3.84052 -3.52354 0
M  V30 253 C 19.8304 3.97514 -4.31509 0
M  V30 254 C 22.1824 4.04824 -4.86108 0
M  V30 255 C 20.8464 4.11054 -5.25919 0
M  V30 256 H 20.1164 0.693138 -0.261993 0
M  V30 257 H 22.7634 1.42012 -1.28472 0
M  V30 258 H 21.0684 3.8915 -0.454953 0
M  V30 259 H 22.7654 3.9199 -0.845261 0
M  V30 260 H 19.3554 3.64632 -2.25258 0
M  V30 261 H 23.5394 3.77221 -3.22518 0
M  V30 262 H 18.7954 4.00574 -4.61898 0
M  V30 263 H 22.9694 4.14442 -5.59653 0
M  V30 264 H 20.5964 4.2573 -6.29808 0
M  V30 265 N 22.1715 0.800033 1.35784 0
M  V30 266 C 23.1045 0.151499 2.27697 0
M  V30 267 C 24.0825 -0.678663 1.4776 0
M  V30 268 O 25.2665 -0.647358 1.77035 0
M  V30 269 C 22.3935 -0.790492 3.29346 0
M  V30 270 C 21.4395 -0.0407832 4.26481 0
M  V30 271 S 22.2725 1.29077 5.19711 0
M  V30 272 C 23.4285 0.353055 6.24903 0
M  V30 273 H 23.6615 0.930796 2.82353 0
M  V30 274 H 21.1945 0.594767 1.42485 0
M  V30 275 H 23.1525 -1.3285 3.88409 0
M  V30 276 H 21.8135 -1.54312 2.73581 0
M  V30 277 H 21.0065 -0.755971 4.98298 0
M  V30 278 H 20.6085 0.427063 3.71554 0
M  V30 279 H 22.9005 -0.464147 6.75908 0
M  V30 280 H 23.8435 1.04023 7.00418 0
M  V30 281 H 24.2515 -0.0483344 5.64479 0
M  V30 282 N 23.6496 -1.47581 0.552962 0
M  V30 283 C 24.5796 -2.32762 -0.185451 0
M  V30 284 C 25.5606 -1.43527 -0.912905 0
M  V30 285 O 26.7456 -1.72388 -0.894201 0
M  V30 286 C 23.8756 -3.25219 -1.21859 0
M  V30 287 C 22.8296 -4.23661 -0.607864 0
M  V30 288 C 22.1556 -5.05413 -1.74533 0
M  V30 289 C 23.4556 -5.20481 0.435582 0
M  V30 290 H 25.1496 -2.94749 0.525684 0
M  V30 291 H 22.6956 -1.41738 0.254251 0
M  V30 292 H 24.6486 -3.8365 -1.7433 0
M  V30 293 H 23.3726 -2.61279 -1.95961 0
M  V30 294 H 22.0316 -3.66451 -0.104489 0
M  V30 295 H 21.6796 -4.3788 -2.47529 0
M  V30 296 H 21.3796 -5.72059 -1.34249 0
M  V30 297 H 22.9036 -5.66701 -2.27338 0
M  V30 298 H 24.3176 -5.733 -0.00290157 0
M  V30 299 H 22.7146 -5.95305 0.757067 0
M  V30 300 H 23.7846 -4.66217 1.33303 0
M  V30 301 N 25.1277 -0.289203 -1.54924 0
M  V30 302 C 26.3737 0.323998 -2.00195 0
M  V30 303 C 26.7067 1.54441 -1.17735 0
M  V30 304 O 25.9817 1.92875 -0.250878 0
M  V30 305 C 26.2647 0.692276 -3.53383 0
M  V30 306 C 26.1177 -0.536457 -4.46589 0
M  V30 307 C 27.4367 1.52335 -4.12895 0
M  V30 308 H 24.5557 0.116289 -0.727768 0
M  V30 309 H 27.1977 -0.398954 -1.85764 0
M  V30 310 H 25.3477 1.30822 -3.65811 0
M  V30 311 H 27.0197 -1.17499 -4.46085 0
M  V30 312 H 25.2627 -1.17192 -4.1767 0
M  V30 313 H 25.9337 -0.234806 -5.515 0
M  V30 314 H 28.4097 1.00302 -4.0383 0
M  V30 315 H 27.2857 1.74982 -5.20262 0
M  V30 316 H 27.5467 2.50886 -3.64018 0
M  V30 317 N 26.6058 1.57591 -0.0167156 0
M  V30 318 C 27.8528 1.91283 0.664597 0
M  V30 319 C 28.1808 0.891949 1.72842 0
M  V30 320 O 27.4358 -0.100931 1.9544 0
M  V30 321 C 27.7348 3.3172 1.33029 0
M  V30 322 C 27.4008 4.4914 0.398047 0
M  V30 323 C 26.0628 4.80992 0.141421 0
M  V30 324 C 28.4148 5.20634 -0.242825 0
M  V30 325 C 25.7428 5.81703 -0.764092 0
M  V30 326 C 28.0948 6.22311 -1.13632 0
M  V30 327 C 26.7588 6.52611 -1.40196 0
M  V30 328 H 26.0288 0.699956 0.243193 0
M  V30 329 H 28.6758 1.9135 -0.0758267 0
M  V30 330 H 26.9808 3.27856 2.14517 0
M  V30 331 H 28.6778 3.55055 1.86379 0
M  V30 332 H 25.2678 4.24262 0.608238 0
M  V30 333 H 29.4518 4.96267 -0.0576019 0
M  V30 334 H 24.7078 6.03532 -0.977732 0
M  V30 335 H 28.8818 6.76834 -1.63917 0
M  V30 336 H 26.5088 7.30467 -2.10529 0
M  V30 337 N 28.0839 -0.256276 1.55502 0
M  V30 338 C 29.3119 -1.00342 1.8094 0
M  V30 339 C 29.7269 -1.79307 0.59114 0
M  V30 340 O 29.0839 -1.77114 -0.440081 0
M  V30 341 C 29.1349 -1.94875 3.04476 0
M  V30 342 O 28.8559 -1.19107 4.21598 0
M  V30 343 C 30.3569 -2.81266 3.42644 0
M  V30 344 H 27.5769 -0.295685 0.602338 0
M  V30 345 H 30.1209 -0.281998 2.02546 0
M  V30 346 H 28.2759 -2.62457 2.84947 0
M  V30 347 H 28.6899 -1.82969 4.91551 0
M  V30 348 H 30.1639 -3.43362 4.32211 0
M  V30 349 H 30.6409 -3.51897 2.62802 0
M  V30 350 H 31.2469 -2.1915 3.64491 0
M  V30 351 N 29.562 -1.4872 -0.521534 0
M  V30 352 C 30.495 -1.58451 -1.64221 0
M  V30 353 C 31.473 -0.434513 -1.56687 0
M  V30 354 O 32.657 -0.647275 -1.77038 0
M  V30 355 C 29.784 -1.52037 -3.02659 0
M  V30 356 C 28.83 -2.71981 -3.28525 0
M  V30 357 S 29.663 -4.33869 -3.13876 0
M  V30 358 C 30.819 -4.30067 -4.54745 0
M  V30 359 H 31.052 -2.53256 -1.55719 0
M  V30 360 H 28.585 -1.37358 -0.705143 0
M  V30 361 H 30.543 -1.49023 -3.82495 0
M  V30 362 H 29.204 -0.585541 -3.08594 0
M  V30 363 H 28.397 -2.63656 -4.29536 0
M  V30 364 H 27.999 -2.72302 -2.56374 0
M  V30 365 H 30.291 -4.00521 -5.46433 0
M  V30 366 H 31.234 -5.31287 -4.68123 0
M  V30 367 H 31.642 -3.60419 -4.34463 0
M  V30 368 N 31.0401 0.771051 -1.3745 0
M  V30 369 C 32.0031 1.86598 -1.33093 0
M  V30 370 C 33.0031 1.59076 -0.234845 0
M  V30 371 O 34.1931 1.67145 -0.490732 0
M  V30 372 C 31.3251 3.23747 -1.06773 0
M  V30 373 H 32.5181 1.91873 -2.30488 0
M  V30 374 H 30.0711 0.970876 -1.2249 0
M  V30 375 H 30.8061 3.24148 -0.099129 0
M  V30 376 H 30.5911 3.45115 -1.86112 0
M  V30 377 H 32.0811 4.03824 -1.06377 0
M  V30 378 N 32.5182 1.22032 0.997298 0
M  V30 379 C 33.7652 1.04222 1.73621 0
M  V30 380 C 34.0932 -0.423264 1.89839 0
M  V30 381 O 33.3482 -1.3302 1.43542 0
M  V30 382 C 33.6472 1.69345 3.14733 0
M  V30 383 C 33.3132 3.19226 3.18442 0
M  V30 384 C 31.9752 3.60124 3.19161 0
M  V30 385 C 34.3272 4.15181 3.15078 0
M  V30 386 C 31.6552 4.95467 3.14212 0
M  V30 387 C 34.0072 5.50495 3.1167 0
M  V30 388 C 32.6712 5.90779 3.10703 0
M  V30 389 H 31.9412 0.381374 0.635323 0
M  V30 390 H 34.5882 1.51732 1.16831 0
M  V30 391 H 32.8932 1.14147 3.74803 0
M  V30 392 H 34.5902 1.53059 3.7064 0
M  V30 393 H 31.1802 2.86659 3.18629 0
M  V30 394 H 35.3642 3.84605 3.13676 0
M  V30 395 H 30.6202 5.25916 3.11805 0
M  V30 396 H 34.7942 6.24576 3.08022 0
M  V30 397 H 32.4212 6.9562 3.06622 0
M  V30 398 N 33.9963 -1.19345 1.0293 0
M  V30 399 C 35.2213 -1.93538 0.745511 0
M  V30 400 C 35.6463 -1.75007 -0.689511 0
M  V30 401 O 35.0043 -1.05265 -1.47611 0
M  V30 402 C 35.0523 -3.43336 1.10239 0
M  V30 403 O 34.1563 -4.11806 0.221289 0
M  V30 404 H 33.4973 -0.604193 0.275404 0
M  V30 405 H 36.0273 -1.5141 1.37609 0
M  V30 406 H 36.0373 -3.94004 1.05947 0
M  V30 407 H 34.7123 -3.56146 2.14786 0
M  V30 408 H 33.2893 -3.715 0.322842 0
M  V30 409 N 35.4744 -0.807222 -1.35358 0
M  V30 410 C 36.7514 -0.311126 -1.9311 0
M  V30 411 C 37.1314 1.19937 -1.73719 0
M  V30 412 O 36.4794 1.99918 -1.10657 0
M  V30 413 C 36.6894 -0.723226 -3.41424 0
M  V30 414 C 38.0374 -0.713078 -4.18569 0
M  V30 415 O 39.0614 -0.664811 -3.49941 0
M  V30 416 O 37.9204 -0.772022 -5.41019 0
M  V30 417 H 35.0144 -0.081526 -0.822972 0
M  V30 418 H 37.5604 -0.890962 -1.4443 0
M  V30 419 H 36.3324 -1.76426 -3.4927 0
M  V30 420 H 35.9554 -0.118232 -3.97424 0
M  V30 421 N 36.9525 1.47285 -0.560781 0
M  V30 422 C 38.1775 2.07359 -0.0410566 0
M  V30 423 C 38.6025 1.41017 1.24483 0
M  V30 424 O 37.9605 0.486368 1.74654 0
M  V30 425 C 38.0085 3.6035 0.134123 0
M  V30 426 O 37.1125 3.94681 1.19587 0
M  V30 427 H 36.4535 0.661887 -0.0529291 0
M  V30 428 H 38.9835 1.89252 -0.777482 0
M  V30 429 H 38.9935 4.0652 0.347207 0
M  V30 430 H 37.6685 4.08034 -0.805047 0
M  V30 431 H 36.2455 3.60251 0.962987 0
M  V30 432 N 38.4306 0.297415 1.54768 0
M  V30 433 C 39.3936 -0.567375 2.22066 0
M  V30 434 C 40.3936 -1.06409 1.20556 0
M  V30 435 O 41.5836 -0.960691 1.45315 0
M  V30 436 C 38.7156 -1.78517 2.90421 0
M  V30 437 H 39.9086 0.0205534 2.99893 0
M  V30 438 H 37.4616 0.0482163 1.56226 0
M  V30 439 H 38.1966 -2.41303 2.16664 0
M  V30 440 H 37.9816 -1.43669 3.64831 0
M  V30 441 H 39.4716 -2.39964 3.41771 0
M  V30 442 N 39.9087 -1.5758 0.0250728 0
M  V30 443 C 41.1337 -1.96337 -0.668317 0
M  V30 444 C 41.5587 -0.901314 -1.651 0
M  V30 445 O 40.9167 0.138187 -1.80773 0
M  V30 446 C 40.9647 -3.34191 -1.35457 0
M  V30 447 O 40.0687 -3.30269 -2.46974 0
M  V30 448 H 39.4097 -0.640281 -0.175887 0
M  V30 449 H 41.9397 -2.0442 0.0857224 0
M  V30 450 H 41.9497 -3.70331 -1.71228 0
M  V30 451 H 40.6247 -4.11036 -0.634218 0
M  V30 452 H 39.2017 -3.05841 -2.13344 0
M  V30 453 N 41.3868 0.248026 -1.55636 0
M  V30 454 C 42.3498 1.29044 -1.89421 0
M  V30 455 C 43.3498 1.41134 -0.770581 0
M  V30 456 O 44.5398 1.39854 -1.03858 0
M  V30 457 C 41.6718 2.66831 -2.12165 0
M  V30 458 H 42.8648 1.00305 -2.82629 0
M  V30 459 H 40.4178 0.487265 -1.48511 0
M  V30 460 H 41.1528 3.00711 -1.21422 0
M  V30 461 H 40.9378 2.59438 -2.93997 0
M  V30 462 H 42.4278 3.42103 -2.3949 0
M  V30 463 N 42.8649 1.48995 0.513639 0
M  V30 464 C 43.8279 1.64229 1.59879 0
M  V30 465 C 44.8279 0.514696 1.5234 0
M  V30 466 O 46.0179 0.78087 1.55718 0
M  V30 467 C 43.1499 1.62783 2.99524 0
M  V30 468 H 44.3429 2.61004 1.47705 0
M  V30 469 H 41.8959 1.37837 0.736936 0
M  V30 470 H 42.6309 0.675461 3.17188 0
M  V30 471 H 42.4159 2.4466 3.06404 0
M  V30 472 H 43.9059 1.76669 3.78388 0
M  V30 473 N 44.343 -0.763751 1.37857 0
M  V30 474 C 45.275 -1.88664 1.30148 0
M  V30 475 C 46.288 -1.61365 0.215685 0
M  V30 476 O 47.477 -1.72134 0.472459 0
M  V30 477 C 44.577 -3.24075 0.991396 0
M  V30 478 C 43.75 -3.78958 2.18426 0
M  V30 479 C 42.809 -4.92862 1.8432 0
M  V30 480 O 41.835 -5.08027 2.56704 0
M  V30 481 N 43.037 -5.75071 0.792081 0
M  V30 482 H 45.802 -1.95791 2.26905 0
M  V30 483 H 43.363 -0.943226 1.31586 0
M  V30 484 H 45.355 -3.97804 0.743935 0
M  V30 485 H 43.925 -3.12399 0.112122 0
M  V30 486 H 43.145 -2.96913 2.59299 0
M  V30 487 H 44.433 -4.12357 2.98058 0
M  V30 488 H 43.831 -5.65375 0.191595 0
M  V30 489 H 42.388 -6.48991 0.60449 0
M  V30 490 N 45.8211 -1.22559 -0.990812 0
M  V30 491 C 47.2321 -1.04791 -1.54518 0
M  V30 492 C 47.5831 0.387998 -1.92325 0
M  V30 493 O 46.7081 1.27328 -1.74976 0
M  V30 494 C 47.3031 -1.896 -2.80779 0
M  V30 495 C 45.8621 -1.76124 -3.32652 0
M  V30 496 C 45.0091 -1.8594 -2.05722 0
M  V30 497 H 47.9601 -1.36374 -0.811662 0
M  V30 498 H 47.9811 -1.41464 -3.53225 0
M  V30 499 H 47.4931 -2.94101 -2.53231 0
M  V30 500 H 45.5941 -0.743643 -3.65104 0
M  V30 501 H 45.7071 -2.58913 -4.03114 0
M  V30 502 H 44.0711 -1.29403 -2.19379 0
M  V30 503 H 44.8541 -2.91976 -1.80568 0
M  V30 504 N 47.2992 1.18797 -1.03562 0
M  V30 505 C 48.2622 2.20464 -0.626769 0
M  V30 506 C 49.2622 1.57721 0.313173 0
M  V30 507 O 50.4522 1.73917 0.0992615 0
M  V30 508 C 47.5842 3.40802 0.0818498 0
M  V30 509 H 48.7772 2.58149 -1.5264 0
M  V30 510 H 46.3302 1.32593 -0.827578 0
M  V30 511 H 47.0652 3.08642 0.995518 0
M  V30 512 H 46.8502 3.8758 -0.593652 0
M  V30 513 H 48.3402 4.16092 0.354584 0
M  V30 514 N 48.7773 0.814389 1.34928 0
M  V30 515 C 49.7243 0.22822 2.29669 0
M  V30 516 C 50.6943 -0.642164 1.53184 0
M  V30 517 O 51.8793 -0.585605 1.81591 0
M  V30 518 C 49.0193 -0.61089 3.3965 0
M  V30 519 C 48.1323 0.280792 4.31086 0
M  V30 520 C 47.2673 -0.567067 5.28165 0
M  V30 521 C 46.3063 0.324531 6.11239 0
M  V30 522 N 45.4433 -0.483756 7.00431 0
M  V30 523 H 50.2833 1.04153 2.79206 0
M  V30 524 H 47.8203 0.525133 1.37407 0
M  V30 525 H 49.7783 -1.11263 4.0209 0
M  V30 526 H 48.4083 -1.38939 2.91369 0
M  V30 527 H 47.4603 0.900688 3.69583 0
M  V30 528 H 48.7723 0.966723 4.89342 0
M  V30 529 H 47.9263 -1.13363 5.96015 0
M  V30 530 H 46.6653 -1.28654 4.70425 0
M  V30 531 H 45.6703 0.903298 5.42329 0
M  V30 532 H 46.8953 1.04198 6.71059 0
M  V30 533 H 44.8413 -1.18706 6.45171 0
M  V30 534 H 44.7583 0.143965 7.55863 0
M  V30 535 H 46.0263 -1.03334 7.7262 0
M  V30 536 N 50.2554 -1.46986 0.568584 0
M  V30 537 C 51.2034 -2.31858 -0.185649 0
M  V30 538 C 52.1974 -1.43624 -0.898249 0
M  V30 539 O 53.4034 -1.60327 -0.818242 0
M  V30 540 H 49.7784 -0.747866 -0.0787399 0
M  V30 541 H 51.7494 -2.93303 0.549191 0
M  V30 542 C 50.4984 -3.26513 -1.19519 0
M  V30 543 H 49.8214 -3.94377 -0.656285 0
M  V30 544 H 51.2614 -3.88707 -1.6936 0
M  V30 545 C 49.7204 -2.50847 -2.24894 0
M  V30 546 O 50.2504 -2.26119 -3.32014 0
M  V30 547 N 48.4564 -2.11656 -1.99124 0
M  V30 548 H 48.0034 -2.31966 -1.12024 0
M  V30 549 H 47.9614 -1.61347 -2.69842 0
M  V30 550 N 51.7335 -0.305618 -1.54608 0
M  V30 551 C 52.9795 0.302746 -2.00528 0
M  V30 552 C 53.3125 1.53184 -1.19367 0
M  V30 553 O 52.5875 1.92598 -0.271321 0
M  V30 554 C 52.8705 0.654756 -3.54097 0
M  V30 555 C 52.7235 -0.583793 -4.45995 0
M  V30 556 C 54.0425 1.47947 -4.14487 0
M  V30 557 H 51.1615 0.108564 -0.72896 0
M  V30 558 H 53.8035 -0.418634 -1.85331 0
M  V30 559 H 51.9535 1.26935 -3.67178 0
M  V30 560 H 53.6255 -1.22224 -4.44814 0
M  V30 561 H 51.8685 -1.21615 -4.16404 0
M  V30 562 H 52.5395 -0.293287 -5.5122 0
M  V30 563 H 55.0155 0.96013 -4.04871 0
M  V30 564 H 53.8915 1.69454 -5.22088 0
M  V30 565 H 54.1525 2.47011 -3.66658 0
M  V30 566 N 53.2116 1.57565 -0.0334293 0
M  V30 567 C 54.1216 2.13943 0.962572 0
M  V30 568 C 55.1376 1.09276 1.35406 0
M  V30 569 O 56.3136 1.41355 1.4346 0
M  V30 570 C 53.3786 2.65887 2.22497 0
M  V30 571 C 52.4396 3.85286 1.8935 0
M  V30 572 C 51.6726 4.34743 3.09571 0
M  V30 573 O 51.8956 3.83352 4.22371 0
M  V30 574 O 50.8296 5.26538 2.91618 0
M  V30 575 H 54.6556 2.99333 0.513169 0
M  V30 576 H 52.2406 1.4822 0.18743 0
M  V30 577 H 54.1226 2.99346 2.96598 0
M  V30 578 H 52.7976 1.83578 2.6661 0
M  V30 579 H 51.7046 3.56746 1.1262 0
M  V30 580 H 53.0376 4.68771 1.5005 0
M  V30 581 N 54.6897 -0.239769 1.55765 0
M  V30 582 C 55.6367 -1.29696 1.90913 0
M  V30 583 C 56.6067 -1.47478 0.764164 0
M  V30 584 O 57.7917 -1.61345 1.01845 0
M  V30 585 C 54.9317 -2.64598 2.21544 0
M  V30 586 C 54.0447 -2.54765 3.48882 0
M  V30 587 C 53.1797 -3.82069 3.69049 0
M  V30 588 C 52.2187 -3.66883 4.89963 0
M  V30 589 N 51.3557 -4.86094 5.06614 0
M  V30 590 H 56.1957 -0.990224 2.81067 0
M  V30 591 H 53.7327 -0.477684 1.39128 0
M  V30 592 H 55.6907 -3.43132 2.3731 0
M  V30 593 H 54.3207 -2.93405 1.34585 0
M  V30 594 H 53.3727 -1.67763 3.41409 0
M  V30 595 H 54.6847 -2.39457 4.37563 0
M  V30 596 H 53.8387 -4.69046 3.84812 0
M  V30 597 H 52.5777 -4.00282 2.78614 0
M  V30 598 H 51.5827 -2.78289 4.74168 0
M  V30 599 H 52.8077 -3.50157 5.81865 0
M  V30 600 H 50.7537 -5.04655 4.19117 0
M  V30 601 H 50.6707 -4.73443 5.89396 0
M  V30 602 H 51.9387 -5.74549 5.26795 0
M  V30 603 N 56.1678 -1.49265 -0.50573 0
M  V30 604 C 57.4448 -1.49012 -1.26707 0
M  V30 605 C 57.8248 -0.215205 -2.1 0
M  V30 606 O 57.1728 0.802547 -2.13943 0
M  V30 607 C 57.3828 -2.7663 -2.12783 0
M  V30 608 C 58.7308 -3.25932 -2.72127 0
M  V30 609 O 59.7548 -2.77715 -2.23054 0
M  V30 610 O 58.6138 -4.09897 -3.61451 0
M  V30 611 H 55.7078 -0.596197 -0.57313 0
M  V30 612 H 58.2538 -1.61524 -0.52039 0
M  V30 613 H 57.0258 -3.60916 -1.5118 0
M  V30 614 H 56.6488 -2.66956 -2.94653 0
M  V30 615 N 57.6459 0.756429 -1.3826 0
M  V30 616 C 58.8759 1.54341 -1.3734 0
M  V30 617 C 59.2839 1.89159 0.0393917 0
M  V30 618 O 58.6269 1.5307 1.01565 0
M  V30 619 C 58.6889 2.87238 -2.16182 0
M  V30 620 C 58.3529 2.74973 -3.65019 0
M  V30 621 C 59.3499 2.44962 -4.58574 0
M  V30 622 C 57.0349 2.92515 -4.08338 0
M  V30 623 C 59.0289 2.32642 -5.93428 0
M  V30 624 C 56.7159 2.79815 -5.43274 0
M  V30 625 C 57.7139 2.49921 -6.35632 0
M  V30 626 O 57.4019 2.37275 -7.68086 0
M  V30 627 H 57.1339 0.484281 -0.471643 0
M  V30 628 H 59.6879 0.944152 -1.82414 0
M  V30 629 H 57.9179 3.49342 -1.65822 0
M  V30 630 H 59.6069 3.48731 -2.07705 0
M  V30 631 H 60.3729 2.31081 -4.26412 0
M  V30 632 H 56.2519 3.14781 -3.368 0
M  V30 633 H 59.7959 2.0923 -6.65484 0
M  V30 634 H 55.6929 2.93269 -5.75034 0
M  V30 635 H 56.4609 2.52509 -7.78577 0
M  V30 636 N 59.124 1.23083 0.984299 0
M  V30 637 C 60.373 1.05466 1.71929 0
M  V30 638 C 60.686 -0.409211 1.91272 0
M  V30 639 O 61.892 -0.705226 2.62181 0
M  V30 640 C 60.348 1.83874 3.09384 0
M  V30 641 C 59.956 3.34566 2.97943 0
M  V30 642 C 61.7 1.74734 3.8687 0
M  V30 643 C 59.607 4.05381 4.30605 0
M  V30 644 H 58.537 0.391039 0.644674 0
M  V30 645 H 61.188 1.47013 1.09815 0
M  V30 646 H 59.57 1.35131 3.72231 0
M  V30 647 H 60.744 3.90767 2.44209 0
M  V30 648 H 59.059 3.44476 2.33934 0
M  V30 649 H 61.656 2.24957 4.85076 0
M  V30 650 H 61.999 0.709372 4.10212 0
M  V30 651 H 62.532 2.21067 3.30717 0
M  V30 652 H 59.271 5.09467 4.1246 0
M  V30 653 H 58.791 3.53967 4.84218 0
M  V30 654 H 60.47 4.11458 4.99311 0
M  V30 655 N 60.6021 -1.18246 1.0419 0
M  V30 656 C 61.8481 -1.88536 0.747122 0
M  V30 657 C 62.1811 -1.80223 -0.723409 0
M  V30 658 O 61.4561 -1.20337 -1.52804 0
M  V30 659 C 61.7391 -3.38968 1.21544 0
M  V30 660 C 61.5921 -3.56084 2.74816 0
M  V30 661 C 62.9111 -4.32648 0.806482 0
M  V30 662 H 60.0301 -0.684619 0.272883 0
M  V30 663 H 62.6721 -1.39113 1.29413 0
M  V30 664 H 60.8221 -3.8119 0.750081 0
M  V30 665 H 62.4941 -3.22946 3.29399 0
M  V30 666 H 60.7371 -2.98699 3.14582 0
M  V30 667 H 61.4081 -4.61639 3.02644 0
M  V30 668 H 63.8841 -3.98211 1.20695 0
M  V30 669 H 62.7601 -5.36462 1.1619 0
M  V30 670 H 63.0211 -4.41146 -0.29029 0
M  V30 671 N 62.0802 -0.821533 -1.34494 0
M  V30 672 C 63.3282 -0.408139 -1.97936 0
M  V30 673 C 63.6492 1.03193 -1.65457 0
M  V30 674 O 62.9192 1.71622 -0.944595 0
M  V30 675 H 61.4992 -0.147928 -0.732206 0
M  V30 676 H 64.1612 -1.05067 -1.64155 0
M  V30 677 H 63.2572 -0.52601 -3.07635 0
M  V30 678 N 63.5583 1.46682 -0.576371 0
M  V30 679 C 64.8053 2.02412 -0.0595339 0
M  V30 680 C 65.1333 1.44859 1.29793 0
M  V30 681 O 64.3883 0.601099 1.8624 0
M  V30 682 C 64.6873 3.57345 0.062886 0
M  V30 683 C 64.3533 4.33908 -1.22616 0
M  V30 684 C 63.0153 4.54544 -1.57933 0
M  V30 685 C 65.3673 4.77919 -2.07948 0
M  V30 686 C 62.6953 5.16444 -2.78393 0
M  V30 687 C 65.0473 5.41149 -3.27629 0
M  V30 688 C 63.7113 5.60014 -3.63236 0
M  V30 689 H 62.9813 0.74068 -0.021785 0
M  V30 690 H 65.6283 1.76128 -0.751735 0
M  V30 691 H 63.9333 3.82729 0.838178 0
M  V30 692 H 65.6303 3.98136 0.478439 0
M  V30 693 H 62.2203 4.18138 -0.941202 0
M  V30 694 H 66.4043 4.61738 -1.81967 0
M  V30 695 H 61.6603 5.29242 -3.06126 0
M  V30 696 H 65.8343 5.74211 -3.94023 0
M  V30 697 H 63.4613 6.07748 -4.56669 0
M  V30 698 N 65.0364 0.313813 1.54444 0
M  V30 699 C 65.9834 -0.55655 2.23989 0
M  V30 700 C 66.9534 -1.11943 1.22711 0
M  V30 701 O 68.1384 -1.16158 1.51367 0
M  V30 702 C 65.2784 -1.71635 2.99392 0
M  V30 703 C 64.3914 -1.18364 4.15468 0
M  V30 704 C 63.5264 -2.30834 4.78424 0
M  V30 705 C 62.5654 -1.74762 5.86622 0
M  V30 706 N 61.7024 -2.80855 6.43479 0
M  V30 707 H 66.5424 0.0430893 2.97969 0
M  V30 708 H 64.0794 0.0330359 1.47063 0
M  V30 709 H 66.0374 -2.39868 3.41349 0
M  V30 710 H 64.6674 -2.28742 2.27765 0
M  V30 711 H 63.7194 -0.393163 3.78363 0
M  V30 712 H 65.0314 -0.733262 4.93381 0
M  V30 713 H 64.1854 -3.0699 5.23299 0
M  V30 714 H 62.9244 -2.79204 3.99871 0
M  V30 715 H 61.9294 -0.970995 5.41158 0
M  V30 716 H 63.1544 -1.2728 6.67066 0
M  V30 717 H 61.1004 -3.28535 5.67804 0
M  V30 718 H 61.0174 -2.40351 7.16776 0
M  V30 719 H 62.2854 -3.5687 6.93011 0
M  V30 720 N 66.5145 -1.57545 0.0417849 0
M  V30 721 C 67.7395 -1.97035 -0.647455 0
M  V30 722 C 68.1645 -0.918775 -1.64135 0
M  V30 723 O 67.5225 0.119006 -1.80909 0
M  V30 724 C 67.5705 -3.35609 -1.31905 0
M  V30 725 O 66.6745 -3.3287 -2.43457 0
M  V30 726 H 66.0155 -0.64211 -0.169086 0
M  V30 727 H 68.5455 -2.04318 0.107399 0
M  V30 728 H 68.5555 -3.72126 -1.67291 0
M  V30 729 H 67.2305 -4.11685 -0.590586 0
M  V30 730 H 65.8075 -3.08087 -2.10088 0
M  V30 731 N 67.9926 0.231505 -1.5589 0
M  V30 732 C 69.2406 0.955461 -1.78088 0
M  V30 733 C 69.5616 1.85262 -0.608533 0
M  V30 734 O 68.8316 1.92277 0.375035 0
M  V30 735 H 67.4116 0.355787 -0.656829 0
M  V30 736 H 70.0736 0.245751 -1.93344 0
M  V30 737 H 69.1696 1.56814 -2.69844 0
M  V30 738 N 69.4707 1.49531 0.497807 0
M  V30 739 C 70.7167 1.59415 1.25358 0
M  V30 740 C 71.0497 0.281422 1.9215 0
M  V30 741 O 70.3247 -0.715249 1.80871 0
M  V30 742 C 70.6077 2.75566 2.3181 0
M  V30 743 C 70.4607 4.16642 1.69498 0
M  V30 744 C 71.7797 2.87347 3.33346 0
M  V30 745 H 68.8987 0.580244 0.454408 0
M  V30 746 H 71.5407 1.81827 0.551262 0
M  V30 747 H 69.6907 2.56587 2.91711 0
M  V30 748 H 71.3627 4.47145 1.13399 0
M  V30 749 H 69.6057 4.22141 0.998978 0
M  V30 750 H 70.2767 4.93792 2.46725 0
M  V30 751 H 72.7527 3.04634 2.83438 0
M  V30 752 H 71.6287 3.70289 4.05188 0
M  V30 753 H 71.8897 1.96834 3.95865 0
M  V30 754 N 70.9488 -0.749086 1.3866 0
M  V30 755 C 71.8958 -1.86291 1.36251 0
M  V30 756 C 72.8658 -1.64578 0.224347 0
M  V30 757 O 74.0508 -1.86181 0.417279 0
M  V30 758 C 71.1908 -3.23644 1.19786 0
M  V30 759 C 70.3038 -3.57158 2.43027 0
M  V30 760 C 69.4388 -4.83838 2.19258 0
M  V30 761 C 68.4778 -5.10152 3.38247 0
M  V30 762 N 67.6148 -6.28029 3.13884 0
M  V30 763 H 72.4548 -1.87685 2.3147 0
M  V30 764 H 69.9918 -0.917287 1.14997 0
M  V30 765 H 71.9498 -4.0291 1.08254 0
M  V30 766 H 70.5798 -3.21566 0.282031 0
M  V30 767 H 69.6318 -2.72701 2.65214 0
M  V30 768 H 70.9438 -3.7253 3.31697 0
M  V30 769 H 70.0978 -5.71057 2.04888 0
M  V30 770 H 68.8368 -4.70614 1.2796 0
M  V30 771 H 67.8418 -4.21401 3.53131 0
M  V30 772 H 69.0668 -5.25271 4.30427 0
M  V30 773 H 67.0128 -6.1612 2.25238 0
M  V30 774 H 66.9298 -6.43922 3.96106 0
M  V30 775 H 68.1978 -7.18124 3.03179 0
M  V30 776 N 72.4269 -1.23603 -0.977757 0
M  V30 777 C 73.6549 -1.09646 -1.75458 0
M  V30 778 C 74.0699 0.351859 -1.85492 0
M  V30 779 O 73.4269 1.24327 -1.336 0
M  V30 780 C 73.4779 -1.71895 -3.18016 0
M  V30 781 O 73.1989 -3.11063 -3.08498 0
M  V30 782 C 74.6999 -1.63415 -4.12081 0
M  V30 783 H 71.9199 -0.38359 -0.550545 0
M  V30 784 H 74.4639 -1.63507 -1.22824 0
M  V30 785 H 72.6189 -1.22061 -3.67668 0
M  V30 786 H 73.0329 -3.41305 -3.9826 0
M  V30 787 H 74.5069 -2.11669 -5.09804 0
M  V30 788 H 74.9839 -0.593462 -4.35172 0
M  V30 789 H 75.5899 -2.12628 -3.68334 0
M  V30 790 N 73.905 1.17692 -1.04816 0
M  V30 791 C 74.868 2.19787 -0.650117 0
M  V30 792 C 75.868 1.58044 0.296427 0
M  V30 793 O 77.058 1.74012 0.0808097 0
M  V30 794 C 74.19 3.40869 0.0456987 0
M  V30 795 H 75.383 2.56516 -1.5537 0
M  V30 796 H 72.936 1.31708 -0.841594 0
M  V30 797 H 73.671 3.09681 0.962726 0
M  V30 798 H 73.456 3.86928 -0.634727 0
M  V30 799 H 74.946 4.16445 0.310432 0
M  V30 800 N 75.3831 0.828654 1.34056 0
M  V30 801 C 76.6081 0.431637 2.02859 0
M  V30 802 C 77.0331 -0.956339 1.61975 0
M  V30 803 O 76.3911 -1.62338 0.807228 0
M  V30 804 C 76.4391 0.548323 3.56407 0
M  V30 805 O 75.5431 -0.429556 4.10157 0
M  V30 806 H 74.8841 0.176886 0.640006 0
M  V30 807 H 77.4141 1.12066 1.71179 0
M  V30 808 H 77.4241 0.426196 4.05768 0
M  V30 809 H 76.0991 1.5606 3.8551 0
M  V30 810 H 74.6761 -0.265836 3.71951 0
M  V30 811 N 76.8612 -1.46375 0.584142 0
M  V30 812 C 78.1072 -2.02678 0.0703716 0
M  V30 813 C 78.4402 -1.4545 -1.28678 0
M  V30 814 O 77.7152 -0.62014 -1.84349 0
M  V30 815 C 77.9982 -3.60099 0.00614674 0
M  V30 816 C 77.8512 -4.27709 1.3923 0
M  V30 817 C 79.1702 -4.34598 -0.693742 0
M  V30 818 H 76.2892 -0.736504 0.027047 0
M  V30 819 H 78.9312 -1.74501 0.751615 0
M  V30 820 H 77.0812 -3.84236 -0.574009 0
M  V30 821 H 78.7532 -4.14832 2.01773 0
M  V30 822 H 76.9962 -3.87016 1.95962 0
M  V30 823 H 77.6672 -5.36478 1.29982 0
M  V30 824 H 80.1432 -4.15615 -0.200869 0
M  V30 825 H 79.0192 -5.44318 -0.707714 0
M  V30 826 H 79.2802 -4.05759 -1.75533 0
M  V30 827 N 78.3393 -0.321999 -1.54275 0
M  V30 828 C 79.2863 0.544664 -2.24281 0
M  V30 829 C 80.2563 1.1129 -1.23303 0
M  V30 830 O 81.4413 1.15354 -1.51981 0
M  V30 831 C 78.5813 1.70045 -3.00298 0
M  V30 832 C 77.6943 1.16159 -4.1609 0
M  V30 833 C 76.8293 2.28293 -4.79641 0
M  V30 834 C 75.8683 1.71648 -5.8754 0
M  V30 835 N 75.0053 2.77438 -6.44959 0
M  V30 836 H 79.8453 -0.0588907 -2.97942 0
M  V30 837 H 77.3823 -0.0408345 -1.47043 0
M  V30 838 H 79.3403 2.38054 -3.42616 0
M  V30 839 H 77.9703 2.27531 -2.28975 0
M  V30 840 H 77.0223 0.373092 -3.78566 0
M  V30 841 H 78.3343 0.707087 -4.93763 0
M  V30 842 H 77.4883 3.0421 -5.2492 0
M  V30 843 H 76.2273 2.77079 -4.01346 0
M  V30 844 H 75.2323 0.942282 -5.41665 0
M  V30 845 H 76.4573 1.23741 -6.67731 0
M  V30 846 H 74.4033 3.25519 -5.69538 0
M  V30 847 H 74.3203 2.36547 -7.1804 0
M  V30 848 H 75.5883 3.53189 -6.94894 0
M  V30 849 N 79.8174 1.5752 -0.0501392 0
M  V30 850 C 80.7644 2.1147 0.924603 0
M  V30 851 C 81.7344 1.02182 1.30951 0
M  V30 852 O 82.9194 1.29723 1.39916 0
M  V30 853 C 80.0594 2.66337 2.19451 0
M  V30 854 C 79.1724 3.89708 1.86418 0
M  V30 855 C 78.3074 4.32893 3.07859 0
M  V30 856 C 77.3464 5.48967 2.70742 0
M  V30 857 N 76.4834 5.87211 3.84874 0
M  V30 858 H 81.3234 2.94465 0.457639 0
M  V30 859 H 78.8604 1.45531 0.214266 0
M  V30 860 H 80.8184 2.96247 2.93758 0
M  V30 861 H 79.4484 1.86141 2.63726 0
M  V30 862 H 78.5004 3.66396 1.02264 0
M  V30 863 H 79.8124 4.74074 1.55096 0
M  V30 864 H 78.9664 4.6435 3.90466 0
M  V30 865 H 77.7054 3.47336 3.42358 0
M  V30 866 H 76.7104 5.17183 1.86551 0
M  V30 867 H 77.9354 6.3624 2.37436 0
M  V30 868 H 75.8814 5.04607 4.19175 0
M  V30 869 H 75.7984 6.66266 3.57247 0
M  V30 870 H 77.0664 6.23282 4.68123 0
M  V30 871 N 81.2955 -0.223234 1.56011 0
M  V30 872 C 82.5725 -0.972108 1.69733 0
M  V30 873 C 82.9525 -2.02485 0.59691 0
M  V30 874 O 82.3005 -2.25037 -0.396324 0
M  V30 875 C 82.5105 -1.58407 3.10979 0
M  V30 876 C 83.8585 -2.07696 3.70334 0
M  V30 877 O 84.8825 -1.68304 3.1393 0
M  V30 878 O 83.7415 -2.80096 4.69264 0
M  V30 879 H 80.8355 -0.453993 0.691245 0
M  V30 880 H 83.3815 -0.215149 1.68331 0
M  V30 881 H 82.1535 -0.823831 3.82529 0
M  V30 882 H 81.7765 -2.40661 3.16493 0
M  V30 883 N 82.7736 -1.49793 -0.48987 0
M  V30 884 C 84.0226 -1.59085 -1.23995 0
M  V30 885 C 84.3356 -0.287907 -1.9347 0
M  V30 886 O 85.5416 -0.259506 -2.70257 0
M  V30 887 C 83.9976 -2.80736 -2.252 0
M  V30 888 C 83.6056 -4.17833 -1.61614 0
M  V30 889 C 85.3496 -2.99364 -3.00967 0
M  V30 890 C 83.2566 -5.30693 -2.60996 0
M  V30 891 H 82.1866 -0.592372 -0.466488 0
M  V30 892 H 84.8376 -1.76197 -0.51252 0
M  V30 893 H 83.2196 -2.57142 -3.01154 0
M  V30 894 H 84.3936 -4.51608 -0.915774 0
M  V30 895 H 82.7086 -4.04656 -0.981977 0
M  V30 896 H 85.3056 -3.80851 -3.75308 0
M  V30 897 H 85.6486 -2.10356 -3.59244 0
M  V30 898 H 86.1816 -3.2305 -2.32128 0
M  V30 899 H 82.9206 -6.21796 -2.07485 0
M  V30 900 H 82.4406 -5.01359 -3.2924 0
M  V30 901 H 84.1196 -5.6049 -3.23202 0
M  V30 902 N 84.2517 0.741722 -1.39055 0
M  V30 903 C 85.5007 1.49656 -1.35225 0
M  V30 904 C 85.8137 1.95533 0.0512708 0
M  V30 905 O 87.0197 2.7067 0.212138 0
M  V30 906 C 85.4757 2.70389 -2.37525 0
M  V30 907 C 85.0837 2.31489 -3.83558 0
M  V30 908 C 86.8277 3.48236 -2.42759 0
M  V30 909 C 84.7347 3.48903 -4.77515 0
M  V30 910 H 83.6647 0.56197 -0.502699 0
M  V30 911 H 86.3157 0.809727 -1.64668 0
M  V30 912 H 84.6977 3.41113 -2.01142 0
M  V30 913 H 85.8717 1.68354 -4.28945 0
M  V30 914 H 84.1867 1.66749 -3.81554 0
M  V30 915 H 86.7837 4.35558 -3.1015 0
M  V30 916 H 87.1267 3.90229 -1.45008 0
M  V30 917 H 87.6597 2.84535 -2.78002 0
M  V30 918 H 84.3987 3.11966 -5.76504 0
M  V30 919 H 83.9187 4.11041 -4.36813 0
M  V30 920 H 85.5977 4.15328 -4.96096 0
M  V30 921 N 85.7298 1.2412 0.971189 0
M  V30 922 C 86.6768 1.0305 2.06517 0
M  V30 923 C 87.6468 -0.0550666 1.66009 0
M  V30 924 O 88.8318 0.0988688 1.90544 0
M  V30 925 C 85.9718 0.637653 3.39158 0
M  V30 926 C 85.0848 1.79633 3.92882 0
M  V30 927 C 84.2198 1.34939 5.13775 0
M  V30 928 C 83.2588 2.47823 5.59687 0
M  V30 929 N 82.3958 2.04022 6.71803 0
M  V30 930 H 87.2358 1.96685 2.23873 0
M  V30 931 H 84.7728 0.979694 1.09729 0
M  V30 932 H 86.7308 0.390931 4.15364 0
M  V30 933 H 85.3608 -0.261693 3.21737 0
M  V30 934 H 84.4128 2.15681 3.13346 0
M  V30 935 H 85.7248 2.64466 4.22918 0
M  V30 936 H 84.8788 1.06134 5.97345 0
M  V30 937 H 83.6178 0.471557 4.85415 0
M  V30 938 H 82.6228 2.77392 4.74693 0
M  V30 939 H 83.8478 3.36158 5.90063 0
M  V30 940 H 81.7938 1.18632 6.45184 0
M  V30 941 H 81.7108 2.82409 7.01271 0
M  V30 942 H 82.9788 1.78347 7.58823 0
M  V30 943 N 87.2079 -1.17134 1.05439 0
M  V30 944 C 88.1179 -2.24878 0.668365 0
M  V30 945 C 89.1339 -1.71186 -0.311687 0
M  V30 946 O 90.3099 -2.00738 -0.163161 0
M  V30 947 C 87.3749 -3.46662 0.051648 0
M  V30 948 C 86.4359 -4.15429 1.08246 0
M  V30 949 C 85.6689 -5.31399 0.495082 0
M  V30 950 O 85.8919 -5.66153 -0.694743 0
M  V30 951 O 84.8259 -5.89187 1.23056 0
M  V30 952 H 88.6519 -2.60189 1.56637 0
M  V30 953 H 86.2369 -1.24482 0.826104 0
M  V30 954 H 88.1189 -4.20394 -0.290966 0
M  V30 955 H 86.7939 -3.13142 -0.819971 0
M  V30 956 H 85.7009 -3.43704 1.47711 0
M  V30 957 H 87.0339 -4.52982 1.92532 0
M  V30 958 N 88.686 -0.835752 -1.33615 0
M  V30 959 C 89.911 -0.442389 -2.02627 0
M  V30 960 C 90.336 0.947735 -1.62479 0
M  V30 961 O 89.694 1.61907 -0.815826 0
M  V30 962 C 89.742 -0.567216 -3.56111 0
M  V30 963 O 88.846 0.407799 -4.10379 0
M  V30 964 H 88.187 -0.180278 -0.639059 0
M  V30 965 H 90.717 -1.12972 -1.70583 0
M  V30 966 H 90.727 -0.447708 -4.05536 0
M  V30 967 H 89.402 -1.58103 -3.84677 0
M  V30 968 H 87.979 0.246107 -3.72087 0
M  V30 969 N 90.1641 1.46063 -0.591896 0
M  V30 970 C 91.4121 2.01938 -0.0808391 0
M  V30 971 C 91.7331 1.46475 1.28725 0
M  V30 972 O 91.0031 0.652944 1.84698 0
M  V30 973 H 89.5831 0.746516 -0.0268938 0
M  V30 974 H 92.2451 1.79055 -0.769752 0
M  V30 975 H 91.3411 3.12094 -0.0187578 0
M  V30 976 N 91.6422 0.330177 1.54103 0
M  V30 977 C 92.8902 -0.269871 2.0029 0
M  V30 978 C 93.2112 -1.52133 1.21986 0
M  V30 979 O 92.4812 -1.93212 0.323438 0
M  V30 980 H 91.0612 -0.10271 0.739905 0
M  V30 981 H 93.7232 0.448249 1.89675 0
M  V30 982 H 92.8192 -0.52166 3.07709 0
M  V30 983 N 93.1203 -1.57491 0.0584922 0
M  V30 984 C 94.0673 -2.11958 -0.913376 0
M  V30 985 C 95.0373 -1.02875 -1.30407 0
M  V30 986 O 96.2223 -1.30464 -1.39226 0
M  V30 987 C 93.3623 -2.67497 -2.18035 0
M  V30 988 C 92.4753 -3.90691 -1.84349 0
M  V30 989 C 91.6103 -4.3452 -3.05559 0
M  V30 990 C 90.6493 -5.50395 -2.67827 0
M  V30 991 N 89.7863 -5.89244 -3.81754 0
M  V30 992 H 94.6263 -2.94704 -0.442017 0
M  V30 993 H 92.1633 -1.45643 -0.206545 0
M  V30 994 H 94.1213 -2.978 -2.92183 0
M  V30 995 H 92.7513 -1.87537 -2.62735 0
M  V30 996 H 91.8033 -3.66934 -1.00319 0
M  V30 997 H 93.1153 -4.7489 -1.5258 0
M  V30 998 H 92.2693 -4.66414 -3.87998 0
M  V30 999 H 91.0083 -3.49147 -3.40511 0
M  V30 1000 H 90.0133 -5.18165 -1.83806 0
M  V30 1001 H 91.2383 -6.3749 -2.34059 0
M  V30 1002 H 89.1843 -5.06823 -4.16493 0
M  V30 1003 H 89.1013 -6.68151 -3.53708 0
M  V30 1004 H 90.3693 -6.25756 -4.64811 0
M  V30 1005 N 94.5984 0.214957 -1.56127 0
M  V30 1006 C 95.8444 0.939762 -1.79712 0
M  V30 1007 C 96.1774 1.83723 -0.629247 0
M  V30 1008 O 95.4524 1.90925 0.371197 0
M  V30 1009 C 95.7354 1.77306 -3.13424 0
M  V30 1010 C 95.5884 0.90164 -4.40671 0
M  V30 1011 C 96.9074 2.74956 -3.43638 0
M  V30 1012 H 94.0264 0.340214 -0.653776 0
M  V30 1013 H 96.6684 0.20824 -1.88855 0
M  V30 1014 H 94.8184 2.39673 -3.0576 0
M  V30 1015 H 96.4904 0.294206 -4.60361 0
M  V30 1016 H 94.7334 0.207368 -4.33304 0
M  V30 1017 H 95.4044 1.51923 -5.30682 0
M  V30 1018 H 97.8804 2.22724 -3.51473 0
M  V30 1019 H 96.7564 3.30358 -4.38355 0
M  V30 1020 H 97.0174 3.53023 -2.66134 0
M  V30 1021 N 96.0765 1.50051 0.48192 0
M  V30 1022 C 97.3535 1.51009 1.2432 0
M  V30 1023 C 97.7335 0.248587 2.09631 0
M  V30 1024 O 97.0815 -0.768409 2.15192 0
M  V30 1025 C 97.2915 2.79981 2.08355 0
M  V30 1026 C 98.6395 3.3022 2.66908 0
M  V30 1027 O 99.6635 2.81228 2.18607 0
M  V30 1028 O 98.5225 4.15595 3.54884 0
M  V30 1029 H 95.6165 0.605239 0.563573 0
M  V30 1030 H 98.1625 1.62332 0.494627 0
M  V30 1031 H 96.9345 3.63275 1.45419 0
M  V30 1032 H 96.5575 2.7161 2.90368 0
M  V30 1033 N 97.5546 -0.734337 1.39446 0
M  V30 1034 C 98.5016 -1.84835 1.38219 0
M  V30 1035 C 99.4716 -1.64331 0.24179 0
M  V30 1036 O 100.657 -1.85728 0.437002 0
M  V30 1037 C 97.7966 -3.22355 1.23212 0
M  V30 1038 C 96.9096 -3.5456 2.46801 0
M  V30 1039 C 96.0446 -4.81485 2.24377 0
M  V30 1040 C 95.0836 -5.06536 3.43639 0
M  V30 1041 N 94.2206 -6.24665 3.20528 0
M  V30 1042 H 99.0606 -1.85219 2.33448 0
M  V30 1043 H 96.5976 -0.905039 1.15963 0
M  V30 1044 H 98.5556 -4.0174 1.12522 0
M  V30 1045 H 97.1856 -3.21248 0.316121 0
M  V30 1046 H 96.2376 -2.69872 2.68092 0
M  V30 1047 H 97.5496 -3.6899 3.3563 0
M  V30 1048 H 96.7036 -5.68852 2.10933 0
M  V30 1049 H 95.4426 -4.6923 1.32944 0
M  V30 1050 H 94.4476 -4.17632 3.5758 0
M  V30 1051 H 95.6726 -5.20676 4.35974 0
M  V30 1052 H 93.6186 -6.13696 2.3176 0
M  V30 1053 H 93.5356 -6.39685 4.02913 0
M  V30 1054 H 94.8036 -7.14868 3.10779 0
M  V30 1055 N 99.0327 -1.24633 -0.964593 0
M  V30 1056 C 99.9647 -0.999302 -2.06268 0
M  V30 1057 C 100.978 0.0323226 -1.62768 0
M  V30 1058 O 102.167 -0.205079 -1.77318 0
M  V30 1059 C 99.2667 -0.486816 -3.35385 0
M  V30 1060 C 98.4397 -1.5823 -4.07777 0
M  V30 1061 C 97.4987 -1.07191 -5.15166 0
M  V30 1062 O 96.5247 -1.76426 -5.41168 0
M  V30 1063 N 97.7267 0.0920373 -5.80427 0
M  V30 1064 H 100.492 -1.94477 -2.28033 0
M  V30 1065 H 98.0527 -1.15704 -1.13244 0
M  V30 1066 H 100.045 -0.130066 -4.04491 0
M  V30 1067 H 98.6147 0.364459 -3.10468 0
M  V30 1068 H 97.8347 -2.11109 -3.32906 0
M  V30 1069 H 99.1227 -2.31854 -4.52903 0
M  V30 1070 H 98.5207 0.670784 -5.61709 0
M  V30 1071 H 97.0777 0.389905 -6.50633 0
M  V30 1072 N 100.511 1.16574 -1.06058 0
M  V30 1073 C 101.758 1.87047 -0.775873 0
M  V30 1074 C 102.086 1.81562 0.697534 0
M  V30 1075 O 101.341 1.22445 1.52662 0
M  V30 1076 C 101.64 3.36195 -1.21275 0
M  V30 1077 C 101.306 3.6188 -2.68986 0
M  V30 1078 C 99.9678 3.68599 -3.09335 0
M  V30 1079 C 102.32 3.72648 -3.64394 0
M  V30 1080 C 99.6478 3.83584 -4.43937 0
M  V30 1081 C 102 3.89154 -4.98741 0
M  V30 1082 C 100.664 3.94114 -5.3873 0
M  V30 1083 H 99.9338 0.684452 -0.283912 0
M  V30 1084 H 102.581 1.37853 -1.32925 0
M  V30 1085 H 100.886 3.87505 -0.578528 0
M  V30 1086 H 102.583 3.89103 -0.969542 0
M  V30 1087 H 99.1728 3.57281 -2.36744 0
M  V30 1088 H 103.357 3.66769 -3.34356 0
M  V30 1089 H 98.6128 3.85677 -4.74409 0
M  V30 1090 H 102.787 3.96427 -5.72554 0
M  V30 1091 H 100.414 4.05478 -6.43033 0
M  V30 1092 N 101.989 0.842826 1.3317 0
M  V30 1093 C 103.405 0.531128 1.50503 0
M  V30 1094 C 103.605 -0.940734 1.78192 0
M  V30 1095 O 102.661 -1.72436 1.84451 0
M  V30 1096 C 103.974 1.40789 2.65705 0
M  V30 1097 C 105.522 1.40708 2.79589 0
M  V30 1098 C 105.997 2.26878 3.97857 0
M  V30 1099 N 107.488 2.24609 4.05099 0
M  V30 1100 C 108.223 2.88019 4.95815 0
M  V30 1101 N 107.719 3.60496 5.9162 0
M  V30 1102 N 109.512 2.77469 4.88843 0
M  V30 1103 H 101.663 1.79557 1.1346 0
M  V30 1104 H 103.926 0.766267 0.558156 0
M  V30 1105 H 103.632 2.454 2.51936 0
M  V30 1106 H 103.506 1.08677 3.61205 0
M  V30 1107 H 105.893 0.368668 2.92788 0
M  V30 1108 H 105.974 1.76829 1.84838 0
M  V30 1109 H 105.618 3.3078 3.85418 0
M  V30 1110 H 105.548 1.88096 4.91861 0
M  V30 1111 H 108.039 1.71906 3.36536 0
M  V30 1112 H 108.352 4.06076 6.57512 0
M  V30 1113 H 106.697 3.64604 5.91683 0
M  V30 1114 H 109.888 2.20406 4.12963 0
M  V30 1115 H 110.061 3.2717 5.59342 0
M  V30 1116 N 103.467 -1.45747 0.599634 0
M  V30 1117 C 104.716 -2.01502 0.0893511 0
M  V30 1118 C 105.029 -1.4748 -1.28488 0
M  V30 1119 O 106.235 -1.95161 -1.88745 0
M  V30 1120 C 104.691 -3.59735 0.109082 0
M  V30 1121 C 104.299 -4.22754 1.48267 0
M  V30 1122 C 106.043 -4.23085 -0.346374 0
M  V30 1123 C 103.95 -5.73115 1.45921 0
M  V30 1124 H 102.88 -0.753417 0.0296347 0
M  V30 1125 H 105.531 -1.67303 0.753788 0
M  V30 1126 H 103.913 -3.91087 -0.621854 0
M  V30 1127 H 105.087 -4.02987 2.23468 0
M  V30 1128 H 103.402 -3.71567 1.87955 0
M  V30 1129 H 105.999 -5.33327 -0.38298 0
M  V30 1130 H 106.342 -3.93201 -1.36743 0
M  V30 1131 H 106.875 -3.9642 0.331038 0
M  V30 1132 H 103.614 -6.07685 2.45762 0
M  V30 1133 H 103.134 -5.95097 0.749665 0
M  V30 1134 H 104.813 -6.3616 1.17941 0
M  V30 1135 N 104.945 -0.338344 -1.53925 0
M  V30 1136 C 106.194 0.260732 -2.00008 0
M  V30 1137 C 106.507 1.52073 -1.23017 0
M  V30 1138 O 107.713 2.19672 -1.5955 0
M  V30 1139 C 106.169 0.51515 -3.56194 0
M  V30 1140 C 105.777 -0.728645 -4.42035 0
M  V30 1141 C 107.521 1.07337 -4.10706 0
M  V30 1142 C 105.428 -0.445315 -5.89721 0
M  V30 1143 H 104.358 0.101205 -0.747177 0
M  V30 1144 H 107.009 -0.452866 -1.77824 0
M  V30 1145 H 105.391 1.28932 -3.74423 0
M  V30 1146 H 106.565 -1.50352 -4.35581 0
M  V30 1147 H 104.88 -1.20813 -3.98489 0
M  V30 1148 H 107.477 1.30022 -5.18651 0
M  V30 1149 H 107.82 2.0273 -3.63602 0
M  V30 1150 H 108.353 0.360034 -3.96167 0
M  V30 1151 H 105.092 -1.36883 -6.41049 0
M  V30 1152 H 104.612 0.291569 -5.99091 0
M  V30 1153 H 106.291 -0.0606218 -6.46972 0
M  V30 1154 N 106.423 1.57458 -0.0668435 0
M  V30 1155 C 107.371 2.13639 0.919851 0
M  V30 1156 C 108.365 1.07204 1.31163 0
M  V30 1157 O 109.571 1.25591 1.28945 0
M  V30 1158 H 105.946 0.683048 0.314562 0
M  V30 1159 H 107.917 2.95415 0.421047 0
M  V30 1160 C 106.666 2.70892 2.17975 0
M  V30 1161 H 105.989 3.5246 1.88711 0
M  V30 1162 H 107.429 3.13803 2.85138 0
M  V30 1163 C 105.888 1.65414 2.93496 0
M  V30 1164 O 106.418 1.07619 3.87015 0
M  V30 1165 N 104.624 1.36564 2.56512 0
M  V30 1166 H 104.171 1.83751 1.80536 0
M  V30 1167 H 104.129 0.66223 3.07347 0
M  V30 1168 N 107.901 -0.206675 1.56239 0
M  V30 1169 C 108.864 -1.23976 1.92776 0
M  V30 1170 C 109.864 -1.39041 0.807729 0
M  V30 1171 O 111.054 -1.37051 1.0753 0
M  V30 1172 C 108.186 -2.61112 2.19165 0
M  V30 1173 H 109.379 -0.927764 2.85189 0
M  V30 1174 H 106.932 -0.447718 1.4975 0
M  V30 1175 H 107.667 -2.97386 1.29352 0
M  V30 1176 H 107.452 -2.51552 3.00772 0
M  V30 1177 H 108.942 -3.35633 2.48476 0
M  V30 1178 N 109.379 -1.50304 -0.473955 0
M  V30 1179 C 110.342 -1.6841 -1.55469 0
M  V30 1180 C 111.342 -0.554905 -1.50922 0
M  V30 1181 O 112.532 -0.821882 -1.53593 0
M  V30 1182 C 109.664 -1.70667 -2.95102 0
M  V30 1183 H 110.857 -2.64828 -1.40733 0
M  V30 1184 H 108.41 -1.39742 -0.700132 0
M  V30 1185 H 109.145 -0.75932 -3.15285 0
M  V30 1186 H 108.93 -2.52698 -2.9981 0
M  V30 1187 H 110.42 -1.8664 -3.73571 0
M  V30 1188 N 110.857 0.726932 -1.39834 0
M  V30 1189 C 111.804 1.841 -1.39197 0
M  V30 1190 C 112.774 1.642 -0.250502 0
M  V30 1191 O 113.959 1.85494 -0.446846 0
M  V30 1192 C 111.099 3.21697 -1.24919 0
M  V30 1193 C 110.212 3.53247 -2.48678 0
M  V30 1194 C 109.347 4.80289 -2.26928 0
M  V30 1195 C 108.386 5.04707 -3.4632 0
M  V30 1196 N 107.523 6.22956 -3.23836 0
M  V30 1197 H 112.363 1.83979 -2.34427 0
M  V30 1198 H 109.9 0.898876 -1.16442 0
M  V30 1199 H 111.858 4.01137 -1.1465 0
M  V30 1200 H 110.488 3.21076 -0.333153 0
M  V30 1201 H 109.54 2.68447 -2.69519 0
M  V30 1202 H 110.852 3.67205 -3.37582 0
M  V30 1203 H 110.006 5.67725 -2.13947 0
M  V30 1204 H 108.745 4.68519 -1.35431 0
M  V30 1205 H 107.75 4.1573 -3.5979 0
M  V30 1206 H 108.975 5.18357 -4.38729 0
M  V30 1207 H 106.921 6.12459 -2.35011 0
M  V30 1208 H 106.838 6.37539 -4.063 0
M  V30 1209 H 108.106 7.1321 -3.14566 0
M  V30 1210 N 112.336 1.25143 0.95797 0
M  V30 1211 C 113.299 1.05321 2.03569 0
M  V30 1212 C 114.299 0.007152 1.60798 0
M  V30 1213 O 115.489 0.24903 1.72411 0
M  V30 1214 C 112.621 0.598394 3.35607 0
M  V30 1215 H 113.814 2.00986 2.22586 0
M  V30 1216 H 111.367 1.07502 1.13459 0
M  V30 1217 H 112.102 -0.361014 3.22284 0
M  V30 1218 H 111.887 1.35351 3.67998 0
M  V30 1219 H 113.377 0.48104 4.1482 0
M  V30 1220 N 113.814 -1.1601 1.06675 0
M  V30 1221 C 114.761 -2.20525 0.680967 0
M  V30 1222 C 115.731 -1.62904 -0.324283 0
M  V30 1223 O 116.916 -1.89615 -0.212294 0
M  V30 1224 C 114.056 -3.45013 0.0776551 0
M  V30 1225 C 113.169 -4.16863 1.13355 0
M  V30 1226 C 112.304 -5.2888 0.49597 0
M  V30 1227 C 111.343 -5.92537 1.53513 0
M  V30 1228 N 110.48 -6.96038 0.920631 0
M  V30 1229 H 115.32 -2.52876 1.57663 0
M  V30 1230 H 112.857 -1.24199 0.788223 0
M  V30 1231 H 114.815 -4.16193 -0.289704 0
M  V30 1232 H 113.445 -3.132 -0.781393 0
M  V30 1233 H 112.497 -3.44248 1.61857 0
M  V30 1234 H 113.809 -4.60294 1.92174 0
M  V30 1235 H 112.963 -6.06653 0.0758604 0
M  V30 1236 H 111.702 -4.86622 -0.324062 0
M  V30 1237 H 110.707 -5.13482 1.9651 0
M  V30 1238 H 111.932 -6.36873 2.35733 0
M  V30 1239 H 109.878 -6.55888 0.12138 0
M  V30 1240 H 109.795 -7.3786 1.64616 0
M  V30 1241 H 111.063 -7.77725 0.525795 0
M  V30 1242 N 115.292 -0.849877 -1.32721 0
M  V30 1243 C 116.222 -0.306308 -2.31482 0
M  V30 1244 C 117.203 0.591952 -1.59468 0
M  V30 1245 O 118.388 0.513199 -1.87296 0
M  V30 1246 C 115.518 0.510204 -3.43532 0
M  V30 1247 C 114.472 -0.293209 -4.26994 0
M  V30 1248 C 113.798 0.647743 -5.30762 0
M  V30 1249 C 115.098 -1.51634 -4.99804 0
M  V30 1250 H 116.792 -1.13153 -2.77195 0
M  V30 1251 H 114.338 -0.545553 -1.33266 0
M  V30 1252 H 116.291 0.900856 -4.11658 0
M  V30 1253 H 115.015 1.36874 -2.96535 0
M  V30 1254 H 113.674 -0.665555 -3.60508 0
M  V30 1255 H 113.322 1.50299 -4.8002 0
M  V30 1256 H 113.022 0.11422 -5.87489 0
M  V30 1257 H 114.546 1.03567 -6.01753 0
M  V30 1258 H 115.96 -1.19824 -5.60638 0
M  V30 1259 H 114.357 -1.98745 -5.66234 0
M  V30 1260 H 115.427 -2.28018 -4.27943 0
M  V30 1261 N 116.77 1.45427 -0.607355 0
M  V30 1262 C 118.047 1.9557 -0.0344566 0
M  V30 1263 C 118.427 1.54979 1.43334 0
M  V30 1264 O 117.775 0.812241 2.13576 0
M  V30 1265 C 117.985 3.48226 -0.232321 0
M  V30 1266 C 119.333 4.2445 -0.113001 0
M  V30 1267 O 120.357 3.55829 -0.162431 0
M  V30 1268 O 119.216 5.465 0.00209442 0
M  V30 1269 H 116.31 0.826222 0.0358667 0
M  V30 1270 H 118.856 1.55594 -0.6774 0
M  V30 1271 H 117.628 3.70739 -1.25174 0
M  V30 1272 H 117.251 3.95092 0.445896 0
M  V30 1273 N 118.248 0.346503 1.53744 0
M  V30 1274 C 119.195 -0.508914 2.25119 0
M  V30 1275 C 120.165 -1.09315 1.25058 0
M  V30 1276 O 121.35 -1.12921 1.53797 0
M  V30 1277 C 118.49 -1.65246 3.02965 0
M  V30 1278 C 117.603 -1.09525 4.17886 0
M  V30 1279 C 116.738 -2.20634 4.83212 0
M  V30 1280 C 115.777 -1.62279 5.90196 0
M  V30 1281 N 114.914 -2.67143 6.49291 0
M  V30 1282 H 119.754 0.106283 2.9781 0
M  V30 1283 H 117.291 0.0642227 1.4696 0
M  V30 1284 H 119.249 -2.32574 3.4636 0
M  V30 1285 H 117.879 -2.2386 2.32565 0
M  V30 1286 H 116.931 -0.312818 3.79112 0
M  V30 1287 H 118.243 -0.628444 4.94825 0
M  V30 1288 H 117.397 -2.95821 5.29693 0
M  V30 1289 H 116.136 -2.70659 4.05703 0
M  V30 1290 H 115.141 -0.855989 5.43096 0
M  V30 1291 H 116.366 -1.13102 6.69615 0
M  V30 1292 H 114.312 -3.16417 5.74645 0
M  V30 1293 H 114.229 -2.25093 7.21713 0
M  V30 1294 H 115.497 -3.4209 7.00425 0
M  V30 1295 N 119.726 -1.57421 0.075193 0
M  V30 1296 C 120.636 -2.1642 -0.905511 0
M  V30 1297 C 121.652 -1.12828 -1.32461 0
M  V30 1298 O 122.828 -1.45109 -1.39661 0
M  V30 1299 C 119.893 -2.71693 -2.15369 0
M  V30 1300 C 118.954 -3.90171 -1.79068 0
M  V30 1301 C 118.187 -4.42798 -2.97936 0
M  V30 1302 O 118.41 -3.94416 -4.12058 0
M  V30 1303 O 117.344 -5.34085 -2.77555 0
M  V30 1304 H 121.17 -3.00588 -0.433626 0
M  V30 1305 H 118.755 -1.48664 -0.148067 0
M  V30 1306 H 120.637 -3.07104 -2.88557 0
M  V30 1307 H 119.312 -1.90582 -2.61649 0
M  V30 1308 H 118.219 -3.59606 -1.03122 0
M  V30 1309 H 119.552 -4.72584 -1.37569 0
M  V30 1310 N 121.204 0.198386 -1.56346 0
M  V30 1311 C 122.167 1.22952 -1.93431 0
M  V30 1312 C 123.167 1.38611 -0.815092 0
M  V30 1313 O 124.357 1.36479 -1.08255 0
M  V30 1314 C 121.489 2.59946 -2.20546 0
M  V30 1315 H 122.682 0.912626 -2.85677 0
M  V30 1316 H 120.235 0.43977 -1.49986 0
M  V30 1317 H 120.97 2.96696 -1.30927 0
M  V30 1318 H 120.755 2.49953 -3.02102 0
M  V30 1319 H 122.245 3.3431 -2.50253 0
M  V30 1320 N 122.682 1.50554 0.465978 0
M  V30 1321 C 123.612 1.72722 1.57128 0
M  V30 1322 C 124.593 0.576294 1.6004 0
M  V30 1323 O 125.778 0.81598 1.76225 0
M  V30 1324 C 122.908 1.82605 2.95419 0
M  V30 1325 C 121.862 2.97835 3.07373 0
M  V30 1326 C 121.188 2.92867 4.47363 0
M  V30 1327 C 122.488 4.38265 2.84114 0
M  V30 1328 H 124.182 2.65267 1.38829 0
M  V30 1329 H 121.728 1.2765 0.666441 0
M  V30 1330 H 123.681 1.96698 3.72677 0
M  V30 1331 H 122.405 0.866858 3.14886 0
M  V30 1332 H 121.064 2.83401 2.3255 0
M  V30 1333 H 120.712 1.94783 4.63755 0
M  V30 1334 H 120.412 3.70227 4.56296 0
M  V30 1335 H 121.936 3.09015 5.26633 0
M  V30 1336 H 123.35 4.53198 3.51118 0
M  V30 1337 H 121.747 5.17115 3.04487 0
M  V30 1338 H 122.817 4.50281 1.7993 0
M  V30 1339 N 124.16 -0.719506 1.40217 0
M  V30 1340 C 125.107 -1.83359 1.40172 0
M  V30 1341 C 126.077 -1.64065 0.259206 0
M  V30 1342 O 127.262 -1.85254 0.456677 0
M  V30 1343 C 124.402 -3.2103 1.26624 0
M  V30 1344 C 123.515 -3.51923 2.50548 0
M  V30 1345 C 122.65 -4.79079 2.29471 0
M  V30 1346 C 121.689 -5.02863 3.48992 0
M  V30 1347 N 120.826 -6.2123 3.27135 0
M  V30 1348 H 125.666 -1.82733 2.35399 0
M  V30 1349 H 123.203 -0.892688 1.16917 0
M  V30 1350 H 125.161 -4.00524 1.16776 0
M  V30 1351 H 123.791 -3.20895 0.350176 0
M  V30 1352 H 122.843 -2.67014 2.70939 0
M  V30 1353 H 124.155 -3.6541 3.39525 0
M  V30 1354 H 123.309 -5.66582 2.16955 0
M  V30 1355 H 122.048 -4.67794 1.37913 0
M  V30 1356 H 121.053 -4.13816 3.6199 0
M  V30 1357 H 122.278 -5.16023 4.41472 0
M  V30 1358 H 120.224 -6.11204 2.38256 0
M  V30 1359 H 120.141 -6.35375 4.09675 0
M  V30 1360 H 121.409 -7.11532 3.18344 0
M  V30 1361 N 125.638 -1.25649 -0.95132 0
M  V30 1362 C 126.548 -1.08073 -2.08224 0
M  V30 1363 C 127.564 -0.0169666 -1.73992 0
M  V30 1364 O 128.74 -0.218593 -2.0021 0
M  V30 1365 C 125.805 -0.704922 -3.39458 0
M  V30 1366 C 124.866 -1.84699 -3.87537 0
M  V30 1367 C 124.099 -1.48902 -5.12508 0
M  V30 1368 O 124.322 -0.386156 -5.69091 0
M  V30 1369 O 123.256 -2.32033 -5.55378 0
M  V30 1370 H 127.082 -2.02924 -2.25954 0
M  V30 1371 H 124.667 -1.04618 -1.06656 0
M  V30 1372 H 126.549 -0.507609 -4.18332 0
M  V30 1373 H 125.224 0.214291 -3.2299 0
M  V30 1374 H 124.131 -2.09919 -3.09653 0
M  V30 1375 H 125.464 -2.74557 -4.08509 0
M  V30 1376 N 127.117 1.15442 -1.07289 0
M  V30 1377 C 128.363 1.86489 -0.796846 0
M  V30 1378 C 128.696 1.82078 0.675371 0
M  V30 1379 O 127.971 1.24346 1.4956 0
M  V30 1380 C 128.254 3.35626 -1.30489 0
M  V30 1381 C 128.107 3.48673 -2.84161 0
M  V30 1382 C 129.426 4.30357 -0.920907 0
M  V30 1383 H 126.545 0.677144 -0.290939 0
M  V30 1384 H 129.187 1.35633 -1.33056 0
M  V30 1385 H 127.337 3.79068 -0.850883 0
M  V30 1386 H 129.009 3.14099 -3.37846 0
M  V30 1387 H 127.252 2.90253 -3.22391 0
M  V30 1388 H 127.923 4.53453 -3.14777 0
M  V30 1389 H 130.399 3.94871 -1.3121 0
M  V30 1390 H 129.275 5.33193 -1.30372 0
M  V30 1391 H 129.536 4.4176 0.173226 0
M  V30 1392 N 128.595 0.856903 1.32268 0
M  V30 1393 C 129.542 0.301172 2.28827 0
M  V30 1394 C 130.512 -0.593104 1.5515 0
M  V30 1395 O 131.697 -0.527537 1.83362 0
M  V30 1396 C 128.837 -0.502523 3.41422 0
M  V30 1397 C 127.95 0.417797 4.29975 0
M  V30 1398 C 127.085 -0.398749 5.29701 0
M  V30 1399 C 126.124 0.518827 6.09897 0
M  V30 1400 N 125.261 -0.260674 7.01616 0
M  V30 1401 H 130.101 1.12983 2.75751 0
M  V30 1402 H 127.638 0.568582 1.35667 0
M  V30 1403 H 129.596 -0.984141 4.05426 0
M  V30 1404 H 128.226 -1.29599 2.95642 0
M  V30 1405 H 127.278 1.01781 3.66531 0
M  V30 1406 H 128.59 1.12191 4.86019 0
M  V30 1407 H 127.744 -0.943435 5.9932 0
M  V30 1408 H 126.483 -1.13622 4.7428 0
M  V30 1409 H 125.488 1.07538 5.39181 0
M  V30 1410 H 126.713 1.25495 6.67404 0
M  V30 1411 H 124.659 -0.981198 6.4862 0
M  V30 1412 H 124.576 0.384364 7.55022 0
M  V30 1413 H 125.844 -0.787014 7.75517 0
M  V30 1414 N 130.073 -1.45103 0.615059 0
M  V30 1415 C 131.021 -2.32331 -0.111791 0
M  V30 1416 C 132.015 -1.46409 -0.852102 0
M  V30 1417 O 133.221 -1.62849 -0.766821 0
M  V30 1418 H 129.596 -0.749993 -0.0549072 0
M  V30 1419 H 131.567 -2.91407 0.642225 0
M  V30 1420 C 130.316 -3.3015 -1.09071 0
M  V30 1421 H 129.639 -3.96265 -0.530485 0
M  V30 1422 H 131.079 -3.93898 -1.56908 0
M  V30 1423 C 129.538 -2.57875 -2.168 0
M  V30 1424 O 130.068 -2.36567 -3.24652 0
M  V30 1425 N 128.274 -2.17884 -1.92289 0
M  V30 1426 H 127.821 -2.35413 -1.04587 0
M  V30 1427 H 127.779 -1.6985 -2.64572 0
M  V30 1428 N 131.551 -0.354651 -1.53558 0
M  V30 1429 C 132.828 0.294281 -1.93374 0
M  V30 1430 C 133.208 1.67313 -1.28723 0
M  V30 1431 O 132.556 2.24179 -0.442247 0
M  V30 1432 C 132.766 0.355445 -3.47185 0
M  V30 1433 C 134.114 0.601007 -4.20325 0
M  V30 1434 O 135.138 0.437106 -3.53508 0
M  V30 1435 O 133.997 0.919322 -5.38712 0
M  V30 1436 H 131.091 0.174033 -0.808481 0
M  V30 1437 H 133.637 -0.406638 -1.64756 0
M  V30 1438 H 132.409 -0.611729 -3.86489 0
M  V30 1439 H 132.032 1.1027 -3.82003 0
M  V30 1440 N 133.029 1.57378 -0.0835403 0
M  V30 1441 C 134.44 1.81261 0.447358 0
M  V30 1442 C 134.791 0.998331 1.68902 0
M  V30 1443 O 133.916 0.224282 2.15235 0
M  V30 1444 C 134.511 3.28767 0.818386 0
M  V30 1445 C 133.07 3.53455 1.29409 0
M  V30 1446 C 132.217 2.75831 0.285024 0
M  V30 1447 H 135.168 1.5566 -0.309115 0
M  V30 1448 H 135.189 3.41459 1.67887 0
M  V30 1449 H 134.701 3.88006 -0.0855019 0
M  V30 1450 H 132.802 2.99534 2.21608 0
M  V30 1451 H 132.915 4.62128 1.2639 0
M  V30 1452 H 131.279 2.42947 0.764767 0
M  V30 1453 H 132.062 3.37813 -0.611341 0
M  V30 1454 N 134.507 -0.190092 1.56449 0
M  V30 1455 C 135.784 -0.935886 1.71757 0
M  V30 1456 C 136.164 -2.01173 0.639726 0
M  V30 1457 O 135.512 -2.25827 -0.348502 0
M  V30 1458 C 135.722 -1.51775 3.1427 0
M  V30 1459 C 137.07 -1.99794 3.74656 0
M  V30 1460 O 138.094 -1.61607 3.1743 0
M  V30 1461 O 136.953 -2.70079 4.751 0
M  V30 1462 H 134.047 -0.439229 0.700719 0
M  V30 1463 H 136.593 -0.179395 1.68749 0
M  V30 1464 H 135.365 -0.742505 3.84191 0
M  V30 1465 H 134.988 -2.33894 3.21527 0
M  V30 1466 N 135.985 -1.50799 -0.457987 0
M  V30 1467 C 137.231 -1.62683 -1.21088 0
M  V30 1468 C 137.564 -0.332268 -1.91336 0
M  V30 1469 O 136.839 0.667043 -1.82704 0
M  V30 1470 C 137.122 -2.81615 -2.24422 0
M  V30 1471 C 136.975 -4.20989 -1.58392 0
M  V30 1472 C 138.294 -2.96085 -3.2561 0
M  V30 1473 H 135.413 -0.592087 -0.438864 0
M  V30 1474 H 138.055 -1.83225 -0.50286 0
M  V30 1475 H 136.205 -2.64231 -2.84806 0
M  V30 1476 H 137.877 -4.49994 -1.01504 0
M  V30 1477 H 136.12 -4.24641 -0.886704 0
M  V30 1478 H 136.791 -5.0016 -2.33547 0
M  V30 1479 H 139.267 -3.12042 -2.75262 0
M  V30 1480 H 138.143 -3.80902 -3.95228 0
M  V30 1481 H 138.404 -2.0726 -3.90507 0
M  V30 1482 N 137.463 0.71206 -1.40597 0
M  V30 1483 C 138.426 1.80785 -1.40888 0
M  V30 1484 C 139.426 1.57937 -0.302103 0
M  V30 1485 O 140.616 1.64913 -0.561182 0
M  V30 1486 C 137.748 3.18927 -1.20409 0
M  V30 1487 H 138.941 1.81924 -2.38419 0
M  V30 1488 H 136.494 0.91805 -1.26497 0
M  V30 1489 H 137.229 3.23436 -0.236522 0
M  V30 1490 H 137.014 3.36911 -2.00582 0
M  V30 1491 H 138.504 3.98949 -1.23408 0
M  V30 1492 N 138.941 1.26152 0.944643 0
M  V30 1493 C 140.171 1.14094 1.72239 0
M  V30 1494 C 140.579 -0.306931 1.86694 0
M  V30 1495 O 139.922 -1.22222 1.3714 0
M  V30 1496 C 139.984 1.73316 3.14963 0
M  V30 1497 C 139.648 3.2239 3.23904 0
M  V30 1498 C 140.645 4.19252 3.07447 0
M  V30 1499 C 138.33 3.62788 3.47405 0
M  V30 1500 C 140.324 5.54491 3.14353 0
M  V30 1501 C 138.011 4.98162 3.53947 0
M  V30 1502 C 139.009 5.93823 3.37436 0
M  V30 1503 O 138.697 7.26732 3.43679 0
M  V30 1504 H 138.429 0.398292 0.546205 0
M  V30 1505 H 140.983 1.67201 1.19301 0
M  V30 1506 H 139.213 1.14667 3.69308 0
M  V30 1507 H 140.902 1.56214 3.74636 0
M  V30 1508 H 141.668 3.8938 2.8915 0
M  V30 1509 H 137.547 2.88816 3.59313 0
M  V30 1510 H 141.091 6.29137 3.01384 0
M  V30 1511 H 136.988 5.27695 3.71763 0
M  V30 1512 H 137.756 7.3496 3.60245 0
M  V30 1513 N 140.419 -1.14872 1.07899 0
M  V30 1514 C 141.665 -1.86064 0.806725 0
M  V30 1515 C 141.998 -1.82434 -0.665706 0
M  V30 1516 O 141.273 -1.25138 -1.48899 0
M  V30 1517 C 141.556 -3.34929 1.32267 0
M  V30 1518 C 141.409 -3.47161 2.86006 0
M  V30 1519 C 142.728 -4.29863 0.943717 0
M  V30 1520 H 139.847 -0.675591 0.294526 0
M  V30 1521 H 142.489 -1.34925 1.33773 0
M  V30 1522 H 140.639 -3.78611 0.870974 0
M  V30 1523 H 142.311 -3.12302 3.39507 0
M  V30 1524 H 140.554 -2.88539 3.23925 0
M  V30 1525 H 141.225 -4.51777 3.17177 0
M  V30 1526 H 143.701 -3.9417 1.33302 0
M  V30 1527 H 142.577 -5.32494 1.33198 0
M  V30 1528 H 142.838 -4.41846 -0.149796 0
M  V30 1529 N 141.898 -0.863906 -1.31812 0
M  V30 1530 C 142.808 -0.318461 -2.32428 0
M  V30 1531 C 143.824 0.568496 -1.64451 0
M  V30 1532 O 145 0.46666 -1.95919 0
M  V30 1533 C 142.065 0.476355 -3.43412 0
M  V30 1534 C 141.126 -0.43784 -4.27061 0
M  V30 1535 C 140.359 0.319138 -5.32745 0
M  V30 1536 O 140.582 1.54799 -5.48993 0
M  V30 1537 O 139.516 -0.319861 -6.01049 0
M  V30 1538 H 143.342 -1.15229 -2.80991 0
M  V30 1539 H 140.927 -0.627103 -1.35602 0
M  V30 1540 H 142.809 0.927156 -4.11074 0
M  V30 1541 H 141.484 1.28683 -2.97022 0
M  V30 1542 H 140.391 -0.937013 -3.62175 0
M  V30 1543 H 141.724 -1.21375 -4.77 0
M  V30 1544 N 143.376 1.44774 -0.622745 0
M  V30 1545 C 144.286 2.34433 0.0886031 0
M  V30 1546 C 145.302 1.52131 0.844529 0
M  V30 1547 O 146.478 1.84886 0.798691 0
M  V30 1548 C 143.543 3.29986 1.0635 0
M  V30 1549 C 142.604 4.28195 0.307873 0
M  V30 1550 C 141.837 5.19183 1.23633 0
M  V30 1551 O 142.06 5.13918 2.47476 0
M  V30 1552 O 140.994 5.97515 0.725189 0
M  V30 1553 H 144.82 2.96693 -0.648599 0
M  V30 1554 H 142.405 1.44408 -0.382957 0
M  V30 1555 H 144.287 3.88825 1.6246 0
M  V30 1556 H 142.962 2.70269 1.78146 0
M  V30 1557 H 141.869 3.72927 -0.296064 0
M  V30 1558 H 143.202 4.90808 -0.3699 0
M  V30 1559 N 144.854 0.36279 1.53368 0
M  V30 1560 C 146.131 -0.284021 1.93527 0
M  V30 1561 C 146.511 -1.66628 1.29608 0
M  V30 1562 O 145.859 -2.23942 0.45413 0
M  V30 1563 C 146.069 -0.337028 3.47369 0
M  V30 1564 C 147.417 -0.578708 4.20638 0
M  V30 1565 O 148.441 -0.418352 3.53735 0
M  V30 1566 O 147.3 -0.89074 5.39192 0
M  V30 1567 H 144.394 -0.169743 0.809393 0
M  V30 1568 H 146.94 0.41537 1.64538 0
M  V30 1569 H 145.712 0.632217 3.86159 0
M  V30 1570 H 145.335 -1.08243 3.82582 0
M  V30 1571 N 146.332 -1.57332 0.0918853 0
M  V30 1572 C 147.282 -2.10385 -0.87876 0
M  V30 1573 C 148.266 -1.01814 -1.24591 0
M  V30 1574 O 149.458 -1.28093 -1.22152 0
M  V30 1575 C 146.587 -2.68517 -2.13901 0
M  V30 1576 C 145.673 -3.84126 -1.79744 0
M  V30 1577 N 146.064 -4.92288 -1.1613 0
M  V30 1578 C 144.362 -3.93801 -2.09373 0
M  V30 1579 C 145.063 -5.7295 -1.00513 0
M  V30 1580 N 144.039 -5.21876 -1.5214 0
M  V30 1581 H 147.841 -2.91395 -0.38293 0
M  V30 1582 H 145.355 -1.62017 -0.111423 0
M  V30 1583 H 147.352 -3.04852 -2.84378 0
M  V30 1584 H 146.012 -1.88961 -2.64053 0
M  V30 1585 H 147.023 -5.1123 -0.828504 0
M  V30 1586 H 143.7 -3.25249 -2.61762 0
M  V30 1587 H 145.09 -6.69978 -0.507902 0
M  V30 1588 N 147.81 0.181792 -1.56548 0
M  V30 1589 C 149.056 0.901431 -1.81665 0
M  V30 1590 C 149.389 1.82347 -0.668075 0
M  V30 1591 O 148.664 1.91669 0.330615 0
M  V30 1592 C 148.947 1.70618 -3.17115 0
M  V30 1593 C 148.8 0.807964 -4.42484 0
M  V30 1594 C 150.119 2.67605 -3.49393 0
M  V30 1595 H 147.238 0.32627 -0.660846 0
M  V30 1596 H 149.88 0.168134 -1.89255 0
M  V30 1597 H 148.03 2.33133 -3.10775 0
M  V30 1598 H 149.702 0.19649 -4.60881 0
M  V30 1599 H 147.945 0.115411 -4.33646 0
M  V30 1600 H 148.616 1.40632 -5.33785 0
M  V30 1601 H 151.092 2.15218 -3.56118 0
M  V30 1602 H 149.968 3.20985 -4.45264 0
M  V30 1603 H 150.229 3.47298 -2.73563 0
M  V30 1604 N 149.288 1.51039 0.449983 0
M  V30 1605 C 150.251 1.70863 1.5277 0
M  V30 1606 C 151.251 0.578846 1.5002 0
M  V30 1607 O 152.441 0.846213 1.52266 0
M  V30 1608 C 149.573 1.75341 2.9235 0
M  V30 1609 H 150.766 2.67034 1.36502 0
M  V30 1610 H 148.319 1.40838 0.677812 0
M  V30 1611 H 149.054 0.809383 3.14037 0
M  V30 1612 H 148.839 2.57436 2.95752 0
M  V30 1613 H 150.329 1.92559 3.70555 0
M  V30 1614 N 150.766 -0.704594 1.40972 0
M  V30 1615 C 151.716 -1.81051 1.38581 0
M  V30 1616 C 152.7 -1.58759 0.261585 0
M  V30 1617 O 153.892 -1.69745 0.501556 0
M  V30 1618 C 151.021 -3.19279 1.26157 0
M  V30 1619 C 150.107 -3.47296 2.43405 0
M  V30 1620 N 150.498 -3.46064 3.68881 0
M  V30 1621 C 148.796 -3.77804 2.37023 0
M  V30 1622 C 149.497 -3.72733 4.46592 0
M  V30 1623 N 148.473 -3.9203 3.76581 0
M  V30 1624 H 152.275 -1.78448 2.33525 0
M  V30 1625 H 149.789 -0.904198 1.349 0
M  V30 1626 H 151.786 -3.98488 1.22526 0
M  V30 1627 H 150.446 -3.231 0.321902 0
M  V30 1628 H 151.457 -3.26656 4.01891 0
M  V30 1629 H 148.134 -3.8905 1.51481 0
M  V30 1630 H 149.524 -3.77993 5.55492 0
M  V30 1631 N 152.244 -1.26651 -0.937939 0
M  V30 1632 C 153.207 -1.08546 -2.01867 0
M  V30 1633 C 154.207 -0.0327327 -1.60767 0
M  V30 1634 O 155.397 -0.276427 -1.71993 0
M  V30 1635 C 152.529 -0.651711 -3.34613 0
M  V30 1636 H 153.722 -2.04502 -2.1936 0
M  V30 1637 H 151.275 -1.09294 -1.11734 0
M  V30 1638 H 152.01 0.309696 -3.22818 0
M  V30 1639 H 151.795 -1.41189 -3.65798 0
M  V30 1640 H 153.285 -0.546973 -4.14002 0
M  V30 1641 N 153.722 1.14298 -1.08507 0
M  V30 1642 C 154.652 2.21542 -0.737646 0
M  V30 1643 C 155.633 1.67773 0.280377 0
M  V30 1644 O 156.818 1.93616 0.150521 0
M  V30 1645 C 153.948 3.46988 -0.147259 0
M  V30 1646 C 152.902 4.13789 -1.09374 0
M  V30 1647 C 152.228 5.33449 -0.365524 0
M  V30 1648 C 153.528 4.62208 -2.4323 0
M  V30 1649 H 155.222 2.5086 -1.6343 0
M  V30 1650 H 152.768 1.20576 -0.787243 0
M  V30 1651 H 154.721 4.21262 0.107808 0
M  V30 1652 H 153.445 3.17037 0.784538 0
M  V30 1653 H 152.104 3.4147 -1.33393 0
M  V30 1654 H 151.752 4.99759 0.57011 0
M  V30 1655 H 151.452 5.79088 -0.996512 0
M  V30 1656 H 152.976 6.10485 -0.118534 0
M  V30 1657 H 154.39 5.27952 -2.23472 0
M  V30 1658 H 152.787 5.18553 -3.02031 0
M  V30 1659 H 153.857 3.77224 -3.04681 0
M  V30 1660 N 155.201 0.870884 1.31352 0
M  V30 1661 C 156.164 0.332243 2.26779 0
M  V30 1662 C 157.164 -0.517302 1.52252 0
M  V30 1663 O 158.354 -0.326477 1.71113 0
M  V30 1664 C 155.486 -0.528066 3.36785 0
M  V30 1665 H 156.679 1.17469 2.75937 0
M  V30 1666 H 154.232 0.64655 1.423 0
M  V30 1667 H 154.967 -1.39167 2.92922 0
M  V30 1668 H 154.752 0.0802582 3.92018 0
M  V30 1669 H 156.242 -0.897179 4.07849 0
M  V30 1670 N 156.679 -1.44442 0.630414 0
M  V30 1671 C 157.611 -2.2892 -0.113347 0
M  V30 1672 C 158.624 -1.41243 -0.80959 0
M  V30 1673 O 159.813 -1.65402 -0.671156 0
M  V30 1674 C 156.913 -3.17594 -1.18266 0
M  V30 1675 C 156.086 -4.33682 -0.569073 0
M  V30 1676 C 155.145 -5.03397 -1.53226 0
M  V30 1677 O 154.171 -5.59438 -1.04967 0
M  V30 1678 N 155.373 -5.04783 -2.86661 0
M  V30 1679 H 158.138 -2.93392 0.611636 0
M  V30 1680 H 155.699 -1.54881 0.471523 0
M  V30 1681 H 157.691 -3.61097 -1.82732 0
M  V30 1682 H 156.261 -2.54876 -1.80988 0
M  V30 1683 H 155.481 -3.9338 0.254187 0
M  V30 1684 H 156.769 -5.08608 -0.139767 0
M  V30 1685 H 156.167 -4.60584 -3.28449 0
M  V30 1686 H 154.724 -5.52077 -3.46489 0
M  V30 1687 N 158.157 -0.370918 -1.53173 0
M  V30 1688 C 159.385 0.217704 -2.05751 0
M  V30 1689 C 159.8 1.42018 -1.24404 0
M  V30 1690 O 159.157 1.80245 -0.286033 0
M  V30 1691 C 159.208 0.605954 -3.56385 0
M  V30 1692 O 158.929 -0.548734 -4.3465 0
M  V30 1693 C 160.43 1.2524 -4.25241 0
M  V30 1694 H 157.65 0.0371659 -0.66997 0
M  V30 1695 H 160.194 -0.530832 -1.9749 0
M  V30 1696 H 158.349 1.3044 -3.6478 0
M  V30 1697 H 158.763 -0.23376 -5.23979 0
M  V30 1698 H 160.237 1.47458 -5.3194 0
M  V30 1699 H 160.714 2.2143 -3.79296 0
M  V30 1700 H 161.32 0.595233 -4.21114 0
M  V30 1701 N 159.635 1.57281 -0.100228 0
M  V30 1702 C 160.881 1.94826 0.563101 0
M  V30 1703 C 161.214 0.982475 1.67514 0
M  V30 1704 O 160.489 0.0164069 1.94493 0
M  V30 1705 C 160.772 3.42453 1.11346 0
M  V30 1706 C 160.625 4.498 0.00612081 0
M  V30 1707 C 161.944 3.91506 2.01024 0
M  V30 1708 H 159.063 0.708428 0.203221 0
M  V30 1709 H 161.705 1.8922 -0.171979 0
M  V30 1710 H 159.855 3.47361 1.7399 0
M  V30 1711 H 161.527 4.57 -0.628357 0
M  V30 1712 H 159.77 4.28756 -0.659581 0
M  V30 1713 H 160.441 5.50306 0.432109 0
M  V30 1714 H 162.917 3.88784 1.48278 0
M  V30 1715 H 161.793 4.95358 2.36457 0
M  V30 1716 H 162.054 3.31099 2.92961 0
M  V30 1717 N 161.113 -0.173488 1.56642 0
M  V30 1718 C 162.524 -0.736155 1.71574 0
M  V30 1719 C 162.875 -1.82888 0.710389 0
M  V30 1720 O 162 -2.16017 -0.1287 0
M  V30 1721 C 162.595 -1.34211 3.11083 0
M  V30 1722 C 161.154 -1.85162 3.27707 0
M  V30 1723 C 160.301 -0.729765 2.67525 0
M  V30 1724 H 163.252 0.0518786 1.58615 0
M  V30 1725 H 163.273 -2.21178 3.09613 0
M  V30 1726 H 162.785 -0.546579 3.84232 0
M  V30 1727 H 160.886 -2.67366 2.59512 0
M  V30 1728 H 160.999 -1.99855 4.35425 0
M  V30 1729 H 159.363 -1.14965 2.27278 0
M  V30 1730 H 160.146 0.0538806 3.43258 0
M  V30 1731 N 162.591 -1.51276 -0.441967 0
M  V30 1732 C 163.821 -1.67273 -1.21257 0
M  V30 1733 C 164.229 -0.367624 -1.85594 0
M  V30 1734 O 163.572 0.663349 -1.71305 0
M  V30 1735 C 163.634 -2.72807 -2.34129 0
M  V30 1736 C 163.298 -4.1554 -1.90198 0
M  V30 1737 C 164.295 -5.00471 -1.40801 0
M  V30 1738 C 161.98 -4.61616 -1.9803 0
M  V30 1739 C 163.974 -6.29536 -0.998174 0
M  V30 1740 C 161.661 -5.90679 -1.56658 0
M  V30 1741 C 162.659 -6.74466 -1.07633 0
M  V30 1742 O 162.347 -8.01116 -0.668459 0
M  V30 1743 H 162.079 -0.564614 -0.371734 0
M  V30 1744 H 164.633 -1.9843 -0.530521 0
M  V30 1745 H 162.863 -2.36954 -3.05597 0
M  V30 1746 H 164.552 -2.77729 -2.96009 0
M  V30 1747 H 165.318 -4.66079 -1.34148 0
M  V30 1748 H 161.197 -3.96526 -2.35135 0
M  V30 1749 H 164.741 -6.94885 -0.61482 0
M  V30 1750 H 160.638 -6.24586 -1.62979 0
M  V30 1751 H 161.406 -8.14633 -0.794722 0
M  V30 1752 N 164.069 0.697108 -1.41344 0
M  V30 1753 C 165.317 1.45426 -1.40341 0
M  V30 1754 C 165.638 1.94996 -0.0128787 0
M  V30 1755 O 164.908 1.71599 0.945027 0
M  V30 1756 H 163.488 0.539594 -0.516573 0
M  V30 1757 H 166.15 0.825201 -1.76569 0
M  V30 1758 H 165.246 2.31817 -2.08967 0
M  V30 1759 N 165.547 1.27147 0.931209 0
M  V30 1760 C 166.796 1.12664 1.67302 0
M  V30 1761 C 167.109 -0.327718 1.92835 0
M  V30 1762 O 168.315 -0.593392 2.64936 0
M  V30 1763 C 166.771 1.9683 3.01307 0
M  V30 1764 C 166.379 3.46901 2.83485 0
M  V30 1765 C 168.123 1.90985 3.79111 0
M  V30 1766 C 166.03 4.23279 4.13024 0
M  V30 1767 H 164.96 0.41803 0.627509 0
M  V30 1768 H 167.611 1.51539 1.03481 0
M  V30 1769 H 165.993 1.50797 3.66164 0
M  V30 1770 H 167.167 4.00773 2.27415 0
M  V30 1771 H 165.482 3.54088 2.19113 0
M  V30 1772 H 168.079 2.45328 4.75098 0
M  V30 1773 H 168.422 0.882718 4.06834 0
M  V30 1774 H 168.955 2.34895 3.21044 0
M  V30 1775 H 165.694 5.26503 3.90481 0
M  V30 1776 H 165.214 3.74186 4.6877 0
M  V30 1777 H 166.893 4.32265 4.81411 0
M  V30 1778 N 167.025 -1.13721 1.09112 0
M  V30 1779 C 168.436 -1.6648 0.845068 0
M  V30 1780 C 168.787 -1.85911 -0.62701 0
M  V30 1781 O 167.912 -1.57556 -1.48341 0
M  V30 1782 C 168.507 -3.02413 1.52748 0
M  V30 1783 C 167.066 -3.52176 1.32849 0
M  V30 1784 C 166.213 -2.27492 1.58564 0
M  V30 1785 H 169.164 -0.976872 1.25072 0
M  V30 1786 H 169.185 -3.68223 0.958752 0
M  V30 1787 H 168.697 -2.88238 2.59885 0
M  V30 1788 H 166.798 -3.7156 0.278137 0
M  V30 1789 H 166.911 -4.32499 2.0611 0
M  V30 1790 H 165.275 -2.33923 1.00758 0
M  V30 1791 H 166.058 -2.15886 2.66924 0
M  V30 1792 N 168.503 -0.877838 -1.30888 0
M  V30 1793 C 169.433 -0.35534 -2.3078 0
M  V30 1794 C 170.414 0.557994 -1.60687 0
M  V30 1795 O 171.599 0.473355 -1.88343 0
M  V30 1796 C 168.729 0.437221 -3.44537 0
M  V30 1797 C 167.683 -0.383715 -4.26276 0
M  V30 1798 C 167.009 0.535014 -5.32017 0
M  V30 1799 C 168.309 -1.62201 -4.96476 0
M  V30 1800 H 170.003 -1.19007 -2.74732 0
M  V30 1801 H 167.549 -0.573698 -1.32078 0
M  V30 1802 H 169.502 0.813334 -4.13477 0
M  V30 1803 H 168.226 1.30553 -2.99372 0
M  V30 1804 H 166.885 -0.741874 -3.59015 0
M  V30 1805 H 166.533 1.40083 -4.831 0
M  V30 1806 H 166.233 -0.0104211 -5.87599 0
M  V30 1807 H 167.757 0.907799 -6.03814 0
M  V30 1808 H 169.171 -1.31689 -5.5797 0
M  V30 1809 H 167.568 -2.10711 -5.61891 0
M  V30 1810 H 168.638 -2.37044 -4.23011 0
M  V30 1811 N 169.982 1.44106 -0.638065 0
M  V30 1812 C 171.231 2.01194 -0.142744 0
M  V30 1813 C 171.544 1.50835 1.24532 0
M  V30 1814 O 172.75 2.00096 1.83504 0
M  V30 1815 C 171.206 3.59319 -0.20442 0
M  V30 1816 C 170.814 4.18674 -1.59423 0
M  V30 1817 C 172.558 4.23854 0.234079 0
M  V30 1818 C 170.465 5.69045 -1.61065 0
M  V30 1819 H 169.395 0.752367 -0.0495998 0
M  V30 1820 H 172.046 1.65246 -0.797881 0
M  V30 1821 H 170.428 3.92598 0.517946 0
M  V30 1822 H 171.602 3.96921 -2.34074 0
M  V30 1823 H 169.917 3.66453 -1.97741 0
M  V30 1824 H 172.514 5.34155 0.241443 0
M  V30 1825 H 172.857 3.96688 1.2627 0
M  V30 1826 H 173.39 3.95403 -0.436025 0
M  V30 1827 H 170.129 6.00956 -2.61787 0
M  V30 1828 H 169.649 5.929 -0.90718 0
M  V30 1829 H 171.328 6.32809 -1.34766 0
M  V30 1830 N 171.46 0.379036 1.52974 0
M  V30 1831 C 172.407 -0.461048 2.26148 0
M  V30 1832 C 173.377 -1.06637 1.27349 0
M  V30 1833 O 174.562 -1.09633 1.56157 0
M  V30 1834 C 171.702 -1.58782 3.06402 0
M  V30 1835 C 170.815 -1.00636 4.20115 0
M  V30 1836 C 169.95 -2.10334 4.87784 0
M  V30 1837 C 168.989 -1.49724 5.93506 0
M  V30 1838 N 168.126 -2.5331 6.54812 0
M  V30 1839 H 172.966 0.169429 2.97518 0
M  V30 1840 H 170.503 0.0953806 1.4679 0
M  V30 1841 H 172.461 -2.25174 3.51215 0
M  V30 1842 H 171.091 -2.18876 2.37261 0
M  V30 1843 H 170.143 -0.232332 3.7969 0
M  V30 1844 H 171.455 -0.523343 4.96047 0
M  V30 1845 H 170.609 -2.84519 5.35849 0
M  V30 1846 H 169.348 -2.61992 4.11353 0
M  V30 1847 H 168.353 -0.740598 5.44789 0
M  V30 1848 H 169.578 -0.988732 6.71864 0
M  V30 1849 H 167.524 -3.04156 5.81227 0
M  V30 1850 H 167.441 -2.09734 7.26325 0
M  V30 1851 H 168.709 -3.27155 7.07524 0
M  V30 1852 N 172.938 -1.57226 0.108567 0
M  V30 1853 C 173.901 -2.13602 -0.831082 0
M  V30 1854 C 174.901 -1.06841 -1.20173 0
M  V30 1855 O 176.091 -1.32666 -1.12895 0
M  V30 1856 C 173.223 -2.66769 -2.12243 0
M  V30 1857 H 174.416 -2.97951 -0.341317 0
M  V30 1858 H 171.969 -1.55667 -0.14057 0
M  V30 1859 H 172.704 -1.85977 -2.65675 0
M  V30 1860 H 172.489 -3.44839 -1.86625 0
M  V30 1861 H 173.979 -3.10332 -2.79435 0
M  V30 1862 N 174.416 0.165178 -1.56732 0
M  V30 1863 C 175.693 0.908443 -1.73224 0
M  V30 1864 C 176.073 2.0013 -0.67165 0
M  V30 1865 O 175.421 2.26353 0.31253 0
M  V30 1866 C 175.631 1.46756 -3.16644 0
M  V30 1867 C 176.979 1.93809 -3.77787 0
M  V30 1868 O 178.003 1.56537 -3.1996 0
M  V30 1869 O 176.862 2.62486 -4.79336 0
M  V30 1870 H 173.956 0.428025 -0.707618 0
M  V30 1871 H 176.502 0.152526 -1.69013 0
M  V30 1872 H 175.274 0.68129 -3.85323 0
M  V30 1873 H 174.897 2.28749 -3.25207 0
M  V30 1874 N 175.894 1.51508 0.433938 0
M  V30 1875 C 176.841 1.73068 1.52696 0
M  V30 1876 C 177.811 0.572441 1.55924 0
M  V30 1877 O 178.996 0.807253 1.72882 0
M  V30 1878 C 176.136 1.86474 2.90381 0
M  V30 1879 C 175.249 3.14037 2.96656 0
M  V30 1880 C 174.384 3.18019 4.25485 0
M  V30 1881 C 173.423 4.39882 4.2564 0
M  V30 1882 N 172.56 4.41394 5.45999 0
M  V30 1883 H 177.4 2.66366 1.33615 0
M  V30 1884 H 174.937 1.32008 0.649018 0
M  V30 1885 H 176.895 1.92229 3.70275 0
M  V30 1886 H 175.525 0.965809 3.08013 0
M  V30 1887 H 174.577 3.17575 2.09404 0
M  V30 1888 H 175.889 4.0394 2.92633 0
M  V30 1889 H 175.043 3.22708 5.13755 0
M  V30 1890 H 173.782 2.2601 4.3217 0
M  V30 1891 H 172.787 4.35366 3.35763 0
M  V30 1892 H 174.012 5.33159 4.20617 0
M  V30 1893 H 171.958 3.52258 5.53399 0
M  V30 1894 H 171.875 5.25111 5.4387 0
M  V30 1895 H 173.143 4.50281 6.36292 0
M  V30 1896 N 177.372 -0.689602 1.41712 0
M  V30 1897 C 178.618 -1.45181 1.41599 0
M  V30 1898 C 178.951 -1.94181 0.0270081 0
M  V30 1899 O 178.226 -1.6993 -0.946265 0
M  V30 1900 C 178.509 -2.65945 2.42787 0
M  V30 1901 C 178.362 -2.22672 3.90816 0
M  V30 1902 C 179.681 -3.68149 2.41151 0
M  V30 1903 H 176.8 -0.526576 0.515642 0
M  V30 1904 H 179.442 -0.784947 1.73028 0
M  V30 1905 H 177.592 -3.2284 2.16116 0
M  V30 1906 H 179.264 -1.71058 4.28412 0
M  V30 1907 H 177.507 -1.54394 4.05395 0
M  V30 1908 H 178.178 -3.0935 4.57172 0
M  V30 1909 H 180.654 -3.2094 2.64834 0
M  V30 1910 H 179.53 -4.50248 3.13955 0
M  V30 1911 H 179.791 -4.18259 1.43221 0
M  V30 1912 N 178.85 -1.27639 -0.924453 0
M  V30 1913 C 179.782 -1.06442 -2.02985 0
M  V30 1914 C 180.795 -0.0194771 -1.62788 0
M  V30 1915 O 181.984 -0.261388 -1.76576 0
M  V30 1916 C 179.084 -0.59327 -3.33667 0
M  V30 1917 C 178.257 -1.71123 -4.02537 0
M  V30 1918 C 177.316 -1.23527 -5.11495 0
M  V30 1919 O 176.342 -1.93553 -5.35281 0
M  V30 1920 N 177.544 -0.0926678 -5.80426 0
M  V30 1921 H 180.309 -2.01633 -2.2173 0
M  V30 1922 H 177.87 -1.19248 -1.09505 0
M  V30 1923 H 179.862 -0.258686 -4.03872 0
M  V30 1924 H 178.432 0.265502 -3.1147 0
M  V30 1925 H 177.652 -2.21593 -3.26022 0
M  V30 1926 H 178.94 -2.46145 -4.45298 0
M  V30 1927 H 178.338 0.491741 -5.63559 0
M  V30 1928 H 176.895 0.182714 -6.51544 0
M  V30 1929 N 180.328 1.1314 -1.09713 0
M  V30 1930 C 181.291 2.16831 -0.742751 0
M  V30 1931 C 182.291 1.59159 0.229129 0
M  V30 1932 O 183.481 1.74199 0.00693237 0
M  V30 1933 C 180.613 3.40756 -0.0989168 0
M  V30 1934 H 181.806 2.49695 -1.66109 0
M  V30 1935 H 179.359 1.2802 -0.896699 0
M  V30 1936 H 180.094 3.13485 0.830514 0
M  V30 1937 H 179.879 3.83888 -0.798265 0
M  V30 1938 H 181.369 4.17386 0.133524 0
M  V30 1939 N 181.806 0.884767 1.30421 0
M  V30 1940 C 182.738 0.308655 2.27112 0
M  V30 1941 C 183.751 -0.536655 1.53701 0
M  V30 1942 O 184.94 -0.35624 1.74909 0
M  V30 1943 C 182.04 -0.579782 3.33904 0
M  V30 1944 C 181.213 0.236417 4.36761 0
M  V30 1945 C 180.272 -0.582482 5.22966 0
M  V30 1946 O 179.298 -0.00525502 5.692 0
M  V30 1947 N 180.5 -1.89163 5.48815 0
M  V30 1948 H 183.265 1.13964 2.77186 0
M  V30 1949 H 180.826 0.747731 1.43599 0
M  V30 1950 H 182.818 -1.13366 3.88497 0
M  V30 1951 H 181.388 -1.31144 2.83761 0
M  V30 1952 H 180.608 0.97174 3.82035 0
M  V30 1953 H 181.896 0.795924 5.02536 0
M  V30 1954 H 181.294 -2.38352 5.13035 0
M  V30 1955 H 179.851 -2.39296 6.06284 0
M  V30 1956 N 183.284 -1.43765 0.645699 0
M  V30 1957 C 184.532 -2.01499 0.155731 0
M  V30 1958 C 184.853 -1.51151 -1.232 0
M  V30 1959 O 184.123 -0.721044 -1.82148 0
M  V30 1960 H 182.703 -0.745003 0.0545817 0
M  V30 1961 H 185.365 -1.76075 0.835677 0
M  V30 1962 H 184.461 -3.1181 0.134577 0
M  V30 1963 N 184.763 -0.387143 -1.52771 0
M  V30 1964 C 186.01 0.195735 -2.01552 0
M  V30 1965 C 186.338 1.46995 -1.27369 0
M  V30 1966 O 185.593 1.92325 -0.361879 0
M  V30 1967 C 185.892 0.512209 -3.53711 0
M  V30 1968 C 185.558 -0.670202 -4.45891 0
M  V30 1969 C 184.22 -0.994586 -4.70809 0
M  V30 1970 C 186.572 -1.46134 -5.00294 0
M  V30 1971 C 183.9 -2.11169 -5.4738 0
M  V30 1972 C 186.252 -2.56903 -5.78086 0
M  V30 1973 C 184.916 -2.89852 -6.01284 0
M  V30 1974 H 184.186 0.0716246 -0.73753 0
M  V30 1975 H 186.833 -0.524046 -1.8419 0
M  V30 1976 H 185.138 1.31329 -3.69134 0
M  V30 1977 H 186.835 0.975804 -3.88946 0
M  V30 1978 H 183.425 -0.407366 -4.2666 0
M  V30 1979 H 187.609 -1.22397 -4.80971 0
M  V30 1980 H 182.865 -2.3707 -5.63567 0
M  V30 1981 H 187.039 -3.18608 -6.19243 0
M  V30 1982 H 184.666 -3.76533 -6.60399 0
M  V30 1983 N 186.241 1.57166 -0.116904 0
M  V30 1984 C 187.188 2.15202 0.83408 0
M  V30 1985 C 188.158 1.07644 1.26499 0
M  V30 1986 O 189.343 1.35541 1.34288 0
M  V30 1987 C 186.483 2.75405 2.07957 0
M  V30 1988 C 185.596 3.97264 1.69721 0
M  V30 1989 C 184.731 4.45561 2.89221 0
M  V30 1990 C 183.77 5.59956 2.47215 0
M  V30 1991 N 182.907 6.03006 3.59622 0
M  V30 1992 H 187.747 2.96141 0.332335 0
M  V30 1993 H 185.284 1.46309 0.152349 0
M  V30 1994 H 187.242 3.08439 2.80929 0
M  V30 1995 H 185.872 1.97159 2.55594 0
M  V30 1996 H 184.924 3.70404 0.866316 0
M  V30 1997 H 186.236 4.80226 1.34849 0
M  V30 1998 H 185.39 4.80493 3.7042 0
M  V30 1999 H 184.129 3.61544 3.27318 0
M  V30 2000 H 183.134 5.2463 1.64448 0
M  V30 2001 H 184.359 6.45738 2.10238 0
M  V30 2002 H 182.305 5.21931 3.97396 0
M  V30 2003 H 182.222 6.80819 3.28667 0
M  V30 2004 H 183.49 6.42576 4.41267 0
M  V30 2005 N 187.719 -0.156864 1.56817 0
M  V30 2006 C 188.967 -0.869404 1.82444 0
M  V30 2007 C 189.288 -1.82147 0.69623 0
M  V30 2008 O 188.558 -1.93847 -0.28287 0
M  V30 2009 H 187.138 -0.324043 0.673056 0
M  V30 2010 H 189.8 -0.153224 1.94297 0
M  V30 2011 H 188.896 -1.43761 2.77019 0
M  V30 2012 N 189.197 -1.51736 -0.425897 0
M  V30 2013 C 190.16 -1.73271 -1.50032 0
M  V30 2014 C 191.16 -0.602639 -1.4908 0
M  V30 2015 O 192.35 -0.87033 -1.509 0
M  V30 2016 C 189.482 -1.79969 -2.89523 0
M  V30 2017 H 190.675 -2.69172 -1.32237 0
M  V30 2018 H 188.228 -1.41899 -0.65532 0
M  V30 2019 H 188.963 -0.859241 -3.1271 0
M  V30 2020 H 188.748 -2.62109 -2.91619 0
M  V30 2021 H 190.238 -1.9843 -3.67444 0
M  V30 2022 N 190.675 0.682077 -1.42076 0
M  V30 2023 C 191.623 1.81707 -1.45208 0
M  V30 2024 C 192.617 1.66183 -0.328591 0
M  V30 2025 O 193.823 1.7288 -0.501264 0
M  V30 2026 H 190.198 0.599014 -0.454628 0
M  V30 2027 H 192.169 1.76183 -2.40836 0
M  V30 2028 C 190.918 3.19816 -1.36428 0
M  V30 2029 H 190.241 3.32385 -2.22171 0
M  V30 2030 H 191.681 3.99272 -1.42681 0
M  V30 2031 C 190.14 3.36809 -0.078191 0
M  V30 2032 O 190.67 3.92124 0.87188 0
M  V30 2033 N 188.876 2.906 0.00229266 0
M  V30 2034 H 188.423 2.45772 -0.771616 0
M  V30 2035 H 188.381 3.02347 0.862179 0
M  V30 2036 N 192.153 1.28127 0.917671 0
M  V30 2037 C 193.399 1.15223 1.66888 0
M  V30 2038 C 193.732 -0.299293 1.9188 0
M  V30 2039 O 193.007 -1.21805 1.51637 0
M  V30 2040 C 193.29 1.94706 3.02922 0
M  V30 2041 C 193.143 3.47898 2.85109 0
M  V30 2042 C 194.462 1.75939 4.03402 0
M  V30 2043 H 191.581 0.419946 0.605652 0
M  V30 2044 H 194.223 1.57398 1.06423 0
M  V30 2045 H 192.373 1.58864 3.54534 0
M  V30 2046 H 194.045 3.93624 2.40537 0
M  V30 2047 H 192.288 3.7373 2.20246 0
M  V30 2048 H 192.959 3.98765 3.81694 0
M  V30 2049 H 195.435 2.07209 3.60837 0
M  V30 2050 H 194.311 2.33931 4.96556 0
M  V30 2051 H 194.572 0.709877 4.36364 0
M  V30 2052 N 193.631 -1.12557 1.10312 0
M  V30 2053 C 194.578 -2.18247 0.750781 0
M  V30 2054 C 195.548 -1.63853 -0.272293 0
M  V30 2055 O 196.733 -1.90195 -0.151862 0
M  V30 2056 C 193.873 -3.44591 0.187379 0
M  V30 2057 C 192.986 -4.13046 1.2656 0
M  V30 2058 C 192.121 -5.27034 0.663978 0
M  V30 2059 C 191.16 -5.87353 1.72287 0
M  V30 2060 N 190.297 -6.92757 1.1416 0
M  V30 2061 H 195.137 -2.47732 1.65628 0
M  V30 2062 H 192.674 -1.21629 0.827337 0
M  V30 2063 H 194.632 -4.16904 -0.157148 0
M  V30 2064 H 193.262 -3.15527 -0.681355 0
M  V30 2065 H 192.314 -3.38924 1.72727 0
M  V30 2066 H 193.626 -4.53947 2.06721 0
M  V30 2067 H 192.78 -6.06104 0.268824 0
M  V30 2068 H 191.519 -4.87407 -0.169082 0
M  V30 2069 H 190.524 -5.06971 2.12746 0
M  V30 2070 H 191.749 -6.29051 2.55875 0
M  V30 2071 H 189.695 -6.5517 0.329984 0
M  V30 2072 H 189.612 -7.3225 1.88007 0
M  V30 2073 H 190.88 -7.75658 0.772956 0
M  V30 2074 N 195.109 -0.891671 -1.2995 0
M  V30 2075 C 196.355 -0.514261 -1.96171 0
M  V30 2076 C 196.688 0.935506 -1.70182 0
M  V30 2077 O 195.963 1.66204 -1.01028 0
M  V30 2078 C 196.246 -0.797719 -3.51153 0
M  V30 2079 C 196.099 -2.2986 -3.86632 0
M  V30 2080 C 197.418 -0.278749 -4.39216 0
M  V30 2081 H 194.537 -0.188314 -0.712535 0
M  V30 2082 H 197.179 -1.11689 -1.53706 0
M  V30 2083 H 195.329 -0.284826 -3.87455 0
M  V30 2084 H 197.001 -2.88042 -3.60319 0
M  V30 2085 H 195.244 -2.76257 -3.34462 0
M  V30 2086 H 195.915 -2.44753 -4.94773 0
M  V30 2087 H 198.391 -0.717825 -4.09862 0
M  V30 2088 H 197.267 -0.506353 -5.46559 0
M  V30 2089 H 197.528 0.820266 -4.34424 0
M  V30 2090 N 196.587 1.43421 -0.653314 0
M  V30 2091 C 197.55 2.29182 0.0287951 0
M  V30 2092 C 198.55 1.42213 0.750465 0
M  V30 2093 O 199.74 1.63843 0.591701 0
M  V30 2094 C 196.872 3.24278 1.05151 0
M  V30 2095 H 198.065 2.90985 -0.725786 0
M  V30 2096 H 195.618 1.50702 -0.414545 0
M  V30 2097 H 196.353 2.6737 1.83532 0
M  V30 2098 H 196.138 3.88396 0.537687 0
M  V30 2099 H 197.628 3.88647 1.52786 0
M  V30 2100 N 198.065 0.39524 1.52563 0
M  V30 2101 C 199.311 -0.185318 2.01952 0
M  V30 2102 C 199.644 -1.45964 1.28095 0
M  V30 2103 O 198.919 -1.90689 0.38315 0
M  V30 2104 C 199.202 -0.447193 3.57312 0
M  V30 2105 C 199.055 0.842828 4.41833 0
M  V30 2106 C 200.374 -1.23529 4.22408 0
M  V30 2107 H 197.493 -0.0658788 0.73405 0
M  V30 2108 H 200.135 0.525975 1.82575 0
M  V30 2109 H 198.285 -1.05312 3.73954 0
M  V30 2110 H 199.957 1.4795 4.36931 0
M  V30 2111 H 198.2 1.45686 4.08605 0
M  V30 2112 H 198.871 0.614165 5.48573 0
M  V30 2113 H 201.347 -0.722445 4.0978 0
M  V30 2114 H 200.223 -1.38727 5.3108 0
M  V30 2115 H 200.484 -2.25213 3.80436 0
M  V30 2116 N 199.544 -1.57102 0.125237 0
M  V30 2117 C 200.474 -2.18659 -0.819174 0
M  V30 2118 C 201.455 -1.12843 -1.27281 0
M  V30 2119 O 202.64 -1.41104 -1.33429 0
M  V30 2120 C 199.77 -2.79096 -2.06695 0
M  V30 2121 C 198.724 -3.90548 -1.75088 0
M  V30 2122 C 198.05 -4.37821 -3.06948 0
M  V30 2123 C 199.35 -5.12356 -1.01435 0
M  V30 2124 H 201.044 -2.9783 -0.306202 0
M  V30 2125 H 198.59 -1.4326 -0.145839 0
M  V30 2126 H 200.543 -3.2082 -2.73226 0
M  V30 2127 H 199.267 -1.97223 -2.60328 0
M  V30 2128 H 197.926 -3.49409 -1.10944 0
M  V30 2129 H 197.574 -3.52799 -3.58527 0
M  V30 2130 H 197.274 -5.12982 -2.86571 0
M  V30 2131 H 198.798 -4.822 -3.74587 0
M  V30 2132 H 200.212 -5.5106 -1.58132 0
M  V30 2133 H 198.609 -5.9314 -0.911319 0
M  V30 2134 H 199.679 -4.849 -0.00218681 0
M  V30 2135 N 201.022 0.148545 -1.56898 0
M  V30 2136 C 202.299 0.890019 -1.74178 0
M  V30 2137 C 202.679 1.99407 -0.692839 0
M  V30 2138 O 202.027 2.26671 0.288505 0
M  V30 2139 C 202.237 1.43389 -3.18183 0
M  V30 2140 C 203.585 1.89791 -3.79822 0
M  V30 2141 O 204.609 1.53134 -3.21603 0
M  V30 2142 O 203.468 2.57387 -4.82093 0
M  V30 2143 H 200.562 0.420496 -0.712118 0
M  V30 2144 H 203.108 0.134591 -1.69165 0
M  V30 2145 H 201.88 0.640383 -3.86024 0
M  V30 2146 H 201.503 2.25287 -3.27615 0
M  V30 2147 N 202.5 1.5196 0.417844 0
M  V30 2148 C 203.728 1.69426 1.18753 0
M  V30 2149 C 204.143 0.399955 1.84515 0
M  V30 2150 O 203.5 -0.623288 1.71527 0
M  V30 2151 C 203.551 2.82375 2.25714 0
M  V30 2152 O 203.272 4.06793 1.62638 0
M  V30 2153 C 204.773 3.11277 3.15628 0
M  V30 2154 H 201.993 0.568031 0.357186 0
M  V30 2155 H 204.537 1.98475 0.49273 0
M  V30 2156 H 202.692 2.5587 2.90877 0
M  V30 2157 H 203.106 4.69667 2.3348 0
M  V30 2158 H 204.58 3.93843 3.86771 0
M  V30 2159 H 205.057 2.24473 3.77503 0
M  V30 2160 H 205.663 3.39515 2.56144 0
M  V30 2161 N 203.978 -0.674533 1.42435 0
M  V30 2162 C 205.226 -1.43175 1.42637 0
M  V30 2163 C 205.547 -1.94951 0.0438992 0
M  V30 2164 O 204.817 -1.7308 -0.917607 0
M  V30 2165 H 203.397 -0.531307 0.525092 0
M  V30 2166 H 206.059 -0.797006 1.77859 0
M  V30 2167 H 205.155 -2.28463 2.12629 0
M  V30 2168 N 205.456 -1.28612 -0.910864 0
M  V30 2169 C 206.705 -1.15311 -1.65488 0
M  V30 2170 C 207.018 0.296999 -1.93332 0
M  V30 2171 O 208.224 0.551168 -2.65847 0
M  V30 2172 C 206.68 -2.01599 -2.98137 0
M  V30 2173 C 206.288 -3.51367 -2.7793 0
M  V30 2174 C 208.032 -1.96993 -3.76024 0
M  V30 2175 C 205.939 -4.29797 -4.06237 0
M  V30 2176 H 204.869 -0.42796 -0.620779 0
M  V30 2177 H 207.52 -1.53166 -1.01057 0
M  V30 2178 H 205.902 -1.56603 -3.63719 0
M  V30 2179 H 207.076 -4.0434 -2.21011 0
M  V30 2180 H 205.391 -3.57529 -2.13452 0
M  V30 2181 H 207.988 -2.52856 -4.71135 0
M  V30 2182 H 208.331 -0.94733 -4.05378 0
M  V30 2183 H 208.864 -2.39973 -3.17266 0
M  V30 2184 H 205.603 -5.32648 -3.82055 0
M  V30 2185 H 205.123 -3.81596 -4.62757 0
M  V30 2186 H 206.802 -4.39869 -4.74473 0
M  V30 2187 N 206.934 1.1197 -1.10907 0
M  V30 2188 C 207.866 2.17592 -0.720175 0
M  V30 2189 C 208.879 1.60938 0.245495 0
M  V30 2190 O 210.068 1.78476 0.0292245 0
M  V30 2191 C 207.168 3.38873 -0.0427917 0
M  V30 2192 C 206.341 4.25006 -1.03388 0
M  V30 2193 C 205.4 5.24774 -0.387075 0
M  V30 2194 O 204.426 5.59631 -1.03934 0
M  V30 2195 N 205.628 5.74208 0.852407 0
M  V30 2196 H 208.393 2.51567 -1.62893 0
M  V30 2197 H 205.954 1.27439 -0.998543 0
M  V30 2198 H 207.946 4.02703 0.401501 0
M  V30 2199 H 206.516 3.03007 0.768456 0
M  V30 2200 H 205.736 3.57716 -1.65629 0
M  V30 2201 H 207.024 4.79397 -1.70458 0
M  V30 2202 H 206.422 5.48062 1.40161 0
M  V30 2203 H 204.979 6.39901 1.23977 0
M  V30 2204 N 208.412 0.89855 1.29475 0
M  V30 2205 C 209.375 0.380272 2.26023 0
M  V30 2206 C 210.375 -0.484891 1.53315 0
M  V30 2207 O 211.565 -0.290108 1.71767 0
M  V30 2208 C 208.697 -0.45651 3.3783 0
M  V30 2209 H 209.89 1.23295 2.73383 0
M  V30 2210 H 207.443 0.676589 1.40897 0
M  V30 2211 H 208.178 -1.32922 2.95808 0
M  V30 2212 H 207.963 0.163393 3.91759 0
M  V30 2213 H 209.453 -0.810466 4.0966 0
M  V30 2214 N 209.89 -1.43072 0.660911 0
M  V30 2215 C 211.115 -2.06584 0.183805 0
M  V30 2216 C 211.54 -1.49257 -1.14472 0
M  V30 2217 O 210.898 -0.605528 -1.70889 0
M  V30 2218 C 210.946 -3.60418 0.114434 0
M  V30 2219 O 210.05 -4.01981 -0.921137 0
M  V30 2220 H 209.391 -0.656669 0.0983994 0
M  V30 2221 H 211.921 -1.83447 0.906006 0
M  V30 2222 H 211.931 -4.07946 -0.0663394 0
M  V30 2223 H 210.606 -4.01519 1.08422 0
M  V30 2224 H 209.183 -3.66029 -0.71253 0
M  V30 2225 N 211.368 -0.403325 -1.52352 0
M  V30 2226 C 212.318 0.442244 -2.2367 0
M  V30 2227 C 213.302 1.01823 -1.24583 0
M  V30 2228 O 214.494 0.942005 -1.49851 0
M  V30 2229 C 211.623 1.5615 -3.05732 0
M  V30 2230 C 210.709 0.996575 -4.12225 0
M  V30 2231 N 211.1 0.157804 -5.05554 0
M  V30 2232 C 209.398 1.26767 -4.27605 0
M  V30 2233 C 210.099 -0.155853 -5.81491 0
M  V30 2234 N 209.075 0.451775 -5.41719 0
M  V30 2235 H 212.877 -0.204964 -2.93184 0
M  V30 2236 H 210.391 -0.213418 -1.60992 0
M  V30 2237 H 212.388 2.17981 -3.55373 0
M  V30 2238 H 211.048 2.21139 -2.37755 0
M  V30 2239 H 212.059 -0.206049 -5.1749 0
M  V30 2240 H 208.736 1.91757 -3.70858 0
M  V30 2241 H 210.126 -0.836329 -6.66675 0
M  V30 2242 N 212.846 1.57033 -0.133567 0
M  V30 2243 C 214.257 1.82593 0.389464 0
M  V30 2244 C 214.608 1.05156 1.6564 0
M  V30 2245 O 213.733 0.292644 2.14412 0
M  V30 2246 C 214.328 3.31204 0.713377 0
M  V30 2247 C 212.887 3.57393 1.18098 0
M  V30 2248 C 212.034 2.76598 0.197126 0
M  V30 2249 H 214.985 1.54598 -0.358481 0
M  V30 2250 H 215.006 3.46627 1.56939 0
M  V30 2251 H 214.518 3.87537 -0.2089 0
M  V30 2252 H 212.619 3.06433 2.11966 0
M  V30 2253 H 212.732 4.65915 1.11624 0
M  V30 2254 H 211.096 2.45257 0.687088 0
M  V30 2255 H 211.879 3.35697 -0.718504 0
M  V30 2256 N 214.325 -0.140222 1.56975 0
M  V30 2257 C 215.602 -0.880769 1.74648 0
M  V30 2258 C 215.982 -1.99036 0.703404 0
M  V30 2259 O 215.33 -2.26821 -0.27648 0
M  V30 2260 C 215.54 -1.417 3.18939 0
M  V30 2261 C 216.888 -1.87774 3.80823 0
M  V30 2262 O 217.912 -1.51427 3.2241 0
M  V30 2263 O 216.771 -2.54827 4.83452 0
M  V30 2264 H 213.865 -0.416713 0.714338 0
M  V30 2265 H 216.411 -0.125618 1.69234 0
M  V30 2266 H 215.183 -0.619902 3.86359 0
M  V30 2267 H 214.806 -2.23546 3.28805 0
M  V30 2268 N 215.803 -1.52179 -0.40978 0
M  V30 2269 C 216.733 -1.78435 -1.5061 0
M  V30 2270 C 217.714 -0.635295 -1.57791 0
M  V30 2271 O 218.899 -0.880823 -1.73076 0
M  V30 2272 C 216.029 -1.93444 -2.88439 0
M  V30 2273 C 214.983 -3.09038 -2.96108 0
M  V30 2274 C 214.309 -3.09268 -4.36185 0
M  V30 2275 C 215.609 -4.48508 -2.67652 0
M  V30 2276 H 217.303 -2.70237 -1.28889 0
M  V30 2277 H 214.849 -1.30036 -0.618605 0
M  V30 2278 H 216.802 -2.10394 -3.65119 0
M  V30 2279 H 215.526 -0.983129 -3.11452 0
M  V30 2280 H 214.185 -2.91837 -2.21872 0
M  V30 2281 H 213.833 -2.11861 -4.56206 0
M  V30 2282 H 213.533 -3.86907 -4.42241 0
M  V30 2283 H 215.057 -3.28348 -5.14801 0
M  V30 2284 H 216.471 -4.65918 -3.34056 0
M  V30 2285 H 214.868 -5.28059 -2.85085 0
M  V30 2286 H 215.938 -4.56649 -1.63095 0
M  V30 2287 N 217.281 0.66697 -1.42791 0
M  V30 2288 C 218.229 1.80157 -1.47127 0
M  V30 2289 C 219.223 1.65825 -0.346199 0
M  V30 2290 O 220.429 1.72338 -0.519572 0
M  V30 2291 H 216.804 0.594158 -0.460956 0
M  V30 2292 H 218.775 1.73619 -2.42692 0
M  V30 2293 C 217.524 3.18351 -1.39813 0
M  V30 2294 H 216.847 3.3001 -2.25684 0
M  V30 2295 H 218.287 3.97736 -1.46908 0
M  V30 2296 C 216.746 3.36707 -0.11391 0
M  V30 2297 O 217.276 3.93027 0.830241 0
M  V30 2298 N 215.482 2.90586 -0.0285295 0
M  V30 2299 H 215.029 2.4494 -0.79764 0
M  V30 2300 H 214.987 3.03245 0.830063 0
M  V30 2301 N 218.759 1.29093 0.90403 0
M  V30 2302 C 220.005 1.16986 1.65656 0
M  V30 2303 C 220.338 -0.278925 1.92186 0
M  V30 2304 O 219.613 -1.2019 1.5292 0
M  V30 2305 C 219.896 1.97908 3.0084 0
M  V30 2306 C 219.749 3.50903 2.81403 0
M  V30 2307 C 221.068 1.80208 4.01513 0
M  V30 2308 H 218.187 0.426346 0.601164 0
M  V30 2309 H 220.829 1.58518 1.04747 0
M  V30 2310 H 218.979 1.62616 3.52829 0
M  V30 2311 H 220.651 3.96153 2.36348 0
M  V30 2312 H 218.894 3.76045 2.1627 0
M  V30 2313 H 219.565 4.02791 3.77443 0
M  V30 2314 H 222.041 2.11025 3.58619 0
M  V30 2315 H 220.917 2.39184 4.94047 0
M  V30 2316 H 221.178 0.756119 4.35586 0
M  V30 2317 N 220.237 -1.11381 1.11499 0
M  V30 2318 C 221.483 -1.83403 0.865512 0
M  V30 2319 C 221.816 -1.84459 -0.607329 0
M  V30 2320 O 221.091 -1.29811 -1.44842 0
M  V30 2321 C 221.374 -3.30552 1.42855 0
M  V30 2322 C 221.227 -3.37886 2.96906 0
M  V30 2323 C 222.546 -4.26643 1.08 0
M  V30 2324 H 219.665 -0.665879 0.31587 0
M  V30 2325 H 222.307 -1.30601 1.37998 0
M  V30 2326 H 220.457 -3.75648 0.990985 0
M  V30 2327 H 222.129 -3.01343 3.49271 0
M  V30 2328 H 220.372 -2.78088 3.32941 0
M  V30 2329 H 221.043 -4.41458 3.31389 0
M  V30 2330 H 223.519 -3.89729 1.45775 0
M  V30 2331 H 222.395 -5.27986 1.50072 0
M  V30 2332 H 222.656 -4.42099 -0.00915037 0
M  V30 2333 N 221.715 -0.905404 -1.28997 0
M  V30 2334 C 222.963 -0.533192 -1.9494 0
M  V30 2335 C 223.284 0.924618 -1.71685 0
M  V30 2336 O 222.554 1.65268 -1.05183 0
M  V30 2337 H 221.134 -0.194194 -0.721317 0
M  V30 2338 H 223.796 -1.15294 -1.57141 0
M  V30 2339 H 222.892 -0.72059 -3.03667 0
M  V30 2340 N 223.193 1.4272 -0.668489 0
M  V30 2341 C 224.441 2.01226 -0.187769 0
M  V30 2342 C 224.762 1.53092 1.2078 0
M  V30 2343 O 224.032 0.74993 1.80977 0
M  V30 2344 H 222.612 0.744041 -0.0664272 0
M  V30 2345 H 225.274 1.74723 -0.863583 0
M  V30 2346 H 224.37 3.11556 -0.184166 0
M  V30 2347 N 224.671 0.411399 1.52136 0
M  V30 2348 C 225.634 -0.401089 2.25663 0
M  V30 2349 C 226.634 -0.971732 1.28117 0
M  V30 2350 O 227.824 -0.850254 1.52041 0
M  V30 2351 C 224.956 -1.56483 3.02863 0
M  V30 2352 H 226.149 0.24295 2.98914 0
M  V30 2353 H 223.702 0.163968 1.55438 0
M  V30 2354 H 224.437 -2.24567 2.33967 0
M  V30 2355 H 224.222 -1.16211 3.74483 0
M  V30 2356 H 225.712 -2.13951 3.58629 0
M  V30 2357 N 226.149 -1.5696 0.141893 0
M  V30 2358 C 227.374 -2.00754 -0.520838 0
M  V30 2359 C 227.799 -1.0213 -1.57959 0
M  V30 2360 O 227.157 0.00371324 -1.813 0
M  V30 2361 C 227.205 -3.43318 -1.10294 0
M  V30 2362 O 226.309 -3.47679 -2.21795 0
M  V30 2363 H 225.65 -0.651564 -0.127908 0
M  V30 2364 H 228.18 -2.03221 0.23712 0
M  V30 2365 H 228.19 -3.82012 -1.43287 0
M  V30 2366 H 226.865 -4.14608 -0.327574 0
M  V30 2367 H 225.442 -3.20824 -1.9007 0
M  V30 2368 N 227.627 0.131896 -1.57047 0
M  V30 2369 C 228.874 0.841932 -1.84168 0
M  V30 2370 C 229.202 1.8048 -0.725066 0
M  V30 2371 O 228.457 1.93618 0.284692 0
M  V30 2372 C 228.756 1.63703 -3.17704 0
M  V30 2373 C 228.422 0.81961 -4.43388 0
M  V30 2374 C 227.084 0.594148 -4.77518 0
M  V30 2375 C 229.436 0.248977 -5.20605 0
M  V30 2376 C 226.764 -0.212409 -5.86315 0
M  V30 2377 C 229.116 -0.544701 -6.30251 0
M  V30 2378 C 227.78 -0.780599 -6.6292 0
M  V30 2379 H 227.05 0.308085 -0.673917 0
M  V30 2380 H 229.697 0.104867 -1.91213 0
M  V30 2381 H 228.002 2.44464 -3.06177 0
M  V30 2382 H 229.699 2.19015 -3.35907 0
M  V30 2383 H 226.289 1.00542 -4.16641 0
M  V30 2384 H 230.473 0.410408 -4.946 0
M  V30 2385 H 225.729 -0.404524 -6.1006 0
M  V30 2386 H 229.903 -0.993922 -6.89271 0
M  V30 2387 H 227.53 -1.40742 -7.47058 0
M  V30 2388 N 229.106 1.52395 0.401703 0
M  V30 2389 C 230.352 1.67065 1.14966 0
M  V30 2390 C 230.685 0.403052 1.89971 0
M  V30 2391 O 229.96 -0.598774 1.85054 0
M  V30 2392 C 230.243 2.8975 2.13815 0
M  V30 2393 C 230.096 4.26578 1.42658 0
M  V30 2394 C 231.415 3.07965 3.14397 0
M  V30 2395 H 228.534 0.607968 0.416587 0
M  V30 2396 H 231.176 1.84965 0.434511 0
M  V30 2397 H 229.326 2.74619 2.74803 0
M  V30 2398 H 230.998 4.53451 0.847329 0
M  V30 2399 H 229.241 4.27639 0.72849 0
M  V30 2400 H 229.912 5.08483 2.14823 0
M  V30 2401 H 232.388 3.22043 2.63491 0
M  V30 2402 H 231.264 3.95308 3.80819 0
M  V30 2403 H 231.525 2.21611 3.82545 0
M  V30 2404 N 230.584 -0.659388 1.43143 0
M  V30 2405 C 231.547 -1.75432 1.47501 0
M  V30 2406 C 232.547 -1.56707 0.360512 0
M  V30 2407 O 233.737 -1.62717 0.622002 0
M  V30 2408 C 230.869 -3.14239 1.32162 0
M  V30 2409 H 232.062 -1.7295 2.45006 0
M  V30 2410 H 229.615 -0.870469 1.29817 0
M  V30 2411 H 230.35 -3.22336 0.356401 0
M  V30 2412 H 230.135 -3.29235 2.12948 0
M  V30 2413 H 231.625 -3.94094 1.3813 0
M  V30 2414 N 232.062 -1.29571 -0.897171 0
M  V30 2415 C 233.31 -1.17456 -1.64464 0
M  V30 2416 C 233.631 0.273698 -1.9307 0
M  V30 2417 O 232.901 1.18684 -1.55855 0
M  V30 2418 H 231.481 -0.431706 -0.609622 0
M  V30 2419 H 234.143 -1.62531 -1.07562 0
M  V30 2420 H 233.239 -1.72648 -2.59998 0
M  V30 2421 N 233.54 1.10788 -1.12088 0
M  V30 2422 C 234.45 2.20599 -0.798338 0
M  V30 2423 C 235.466 1.72712 0.21135 0
M  V30 2424 O 236.642 2.01348 0.0458477 0
M  V30 2425 C 233.707 3.45771 -0.253674 0
M  V30 2426 C 232.768 4.08411 -1.32283 0
M  V30 2427 C 232.001 5.27608 -0.80406 0
M  V30 2428 O 232.224 5.69241 0.363478 0
M  V30 2429 O 231.158 5.8101 -1.57198 0
M  V30 2430 H 234.984 2.50614 -1.7154 0
M  V30 2431 H 232.569 1.19454 -0.897275 0
M  V30 2432 H 234.451 4.21376 0.0453691 0
M  V30 2433 H 233.126 3.1739 0.636005 0
M  V30 2434 H 232.033 3.34507 -1.67499 0
M  V30 2435 H 233.366 4.40986 -2.18614 0
M  V30 2436 N 235.018 0.912232 1.28515 0
M  V30 2437 C 235.981 0.404223 2.25607 0
M  V30 2438 C 236.981 -0.468602 1.53821 0
M  V30 2439 O 238.171 -0.271873 1.72065 0
M  V30 2440 C 235.303 -0.420653 3.38295 0
M  V30 2441 H 236.496 1.26188 2.7206 0
M  V30 2442 H 234.049 0.691495 1.40171 0
M  V30 2443 H 234.784 -1.29777 2.97201 0
M  V30 2444 H 234.569 0.204935 3.91564 0
M  V30 2445 H 236.059 -0.766971 4.10496 0
M  V30 2446 N 236.496 -1.42363 0.676048 0
M  V30 2447 C 237.726 -2.05561 0.206967 0
M  V30 2448 C 238.134 -1.50887 -1.14148 0
M  V30 2449 O 237.477 -0.643933 -1.72044 0
M  V30 2450 C 237.539 -3.5944 0.0659508 0
M  V30 2451 C 237.203 -4.36812 1.34331 0
M  V30 2452 C 238.2 -4.67383 2.27704 0
M  V30 2453 C 235.885 -4.76429 1.59125 0
M  V30 2454 C 237.879 -5.36509 3.44147 0
M  V30 2455 C 235.566 -5.45294 2.75857 0
M  V30 2456 C 236.564 -5.75259 3.68193 0
M  V30 2457 O 236.252 -6.42712 4.82883 0
M  V30 2458 H 235.984 -0.668872 0.0979084 0
M  V30 2459 H 238.538 -1.83467 0.923531 0
M  V30 2460 H 236.768 -3.80197 -0.706204 0
M  V30 2461 H 238.457 -4.0427 -0.363418 0
M  V30 2462 H 239.223 -4.37275 2.09799 0
M  V30 2463 H 235.102 -4.52498 0.881258 0
M  V30 2464 H 238.646 -5.59814 4.16238 0
M  V30 2465 H 234.543 -5.7482 2.93688 0
M  V30 2466 H 235.311 -6.61204 4.82444 0
M  V30 2467 N 237.974 -0.419461 -1.51915 0
M  V30 2468 C 238.922 0.415502 -2.28859 0
M  V30 2469 C 239.916 1.03674 -1.3397 0
M  V30 2470 O 241.122 0.973757 -1.51387 0
M  V30 2471 H 237.497 0.152786 -0.736315 0
M  V30 2472 H 239.468 -0.254531 -2.97312 0
M  V30 2473 C 238.217 1.51425 -3.12995 0
M  V30 2474 H 237.54 1.04556 -3.85886 0
M  V30 2475 H 238.98 2.07208 -3.6992 0
M  V30 2476 C 237.439 2.48745 -2.27217 0
M  V30 2477 O 237.969 3.52871 -1.9195 0
M  V30 2478 N 236.175 2.19202 -1.90785 0
M  V30 2479 H 235.722 1.34556 -2.19664 0
M  V30 2480 H 235.68 2.84561 -1.33687 0
M  V30 2481 N 239.452 1.56882 -0.150215 0
M  V30 2482 C 240.68 2.00593 0.506948 0
M  V30 2483 C 241.095 1.03033 1.58208 0
M  V30 2484 O 240.452 0.0278396 1.82479 0
M  V30 2485 C 240.503 3.44209 1.10465 0
M  V30 2486 O 240.224 4.3804 0.0724636 0
M  V30 2487 C 241.725 4.03214 1.84211 0
M  V30 2488 H 238.945 0.65795 0.13169 0
M  V30 2489 H 241.489 2.03018 -0.245743 0
M  V30 2490 H 239.644 3.42625 1.80795 0
M  V30 2491 H 240.058 5.22007 0.510793 0
M  V30 2492 H 241.532 5.0569 2.21318 0
M  V30 2493 H 242.009 3.44107 2.72923 0
M  V30 2494 H 242.615 4.08437 1.18572 0
M  V30 2495 N 240.93 -0.123565 1.57115 0
M  V30 2496 C 242.207 -0.862196 1.75572 0
M  V30 2497 C 242.587 -1.98279 0.724475 0
M  V30 2498 O 241.935 -2.27102 -0.252407 0
M  V30 2499 C 242.145 -1.38309 3.20424 0
M  V30 2500 C 243.493 -1.83724 3.82793 0
M  V30 2501 O 244.517 -1.47999 3.23998 0
M  V30 2502 O 243.376 -2.49685 4.86127 0
M  V30 2503 H 240.47 -0.409113 0.718718 0
M  V30 2504 H 243.016 -0.107661 1.69358 0
M  V30 2505 H 241.788 -0.578889 3.86994 0
M  V30 2506 H 241.411 -2.20046 3.31158 0
M  V30 2507 N 242.408 -1.52605 -0.393616 0
M  V30 2508 C 243.656 -1.67093 -1.13685 0
M  V30 2509 C 243.977 -0.411011 -1.90619 0
M  V30 2510 O 243.247 0.574491 -1.87287 0
M  V30 2511 H 241.827 -0.615923 -0.422668 0
M  V30 2512 H 244.489 -1.89704 -0.447039 0
M  V30 2513 H 243.585 -2.51922 -1.84232 0
M  V30 2514 N 243.887 0.651787 -1.4349 0
M  V30 2515 C 244.835 1.78586 -1.49029 0
M  V30 2516 C 245.829 1.65448 -0.363767 0
M  V30 2517 O 247.035 1.71777 -0.537821 0
M  V30 2518 H 243.41 0.589236 -0.467231 0
M  V30 2519 H 245.381 1.71035 -2.44519 0
M  V30 2520 C 244.13 3.16851 -1.43181 0
M  V30 2521 H 243.453 3.27598 -2.29171 0
M  V30 2522 H 244.893 3.96156 -1.51118 0
M  V30 2523 C 243.352 3.36568 -0.149616 0
M  V30 2524 O 243.882 3.93885 0.788509 0
M  V30 2525 N 242.088 2.90539 -0.0593484 0
M  V30 2526 H 241.635 2.4408 -0.823575 0
M  V30 2527 H 241.593 3.04108 0.797853 0
M  V30 2528 N 245.365 1.30045 0.890287 0
M  V30 2529 C 246.613 1.18327 1.63839 0
M  V30 2530 C 246.934 -0.263455 1.93212 0
M  V30 2531 O 246.204 -1.17856 1.56482 0
M  V30 2532 H 244.784 0.434933 0.607324 0
M  V30 2533 H 247.446 1.631 1.06698 0
M  V30 2534 H 246.542 1.74024 2.59079 0
M  V30 2535 N 246.843 -1.10192 1.12674 0
M  V30 2536 C 247.793 -2.14754 0.765801 0
M  V30 2537 C 248.777 -1.59154 -0.236409 0
M  V30 2538 O 249.969 -1.76951 -0.0415261 0
M  V30 2539 C 247.098 -3.42563 0.224827 0
M  V30 2540 C 246.184 -4.05091 1.25548 0
M  V30 2541 N 246.575 -4.42287 2.4539 0
M  V30 2542 C 244.873 -4.32186 1.10142 0
M  V30 2543 C 245.574 -4.91441 3.11224 0
M  V30 2544 N 244.55 -4.88405 2.38666 0
M  V30 2545 H 248.352 -2.41309 1.67772 0
M  V30 2546 H 245.866 -1.27339 1.00789 0
M  V30 2547 H 247.863 -4.16868 -0.0519578 0
M  V30 2548 H 246.523 -3.17467 -0.681515 0
M  V30 2549 H 247.534 -4.33902 2.82754 0
M  V30 2550 H 244.211 -4.16735 0.252587 0
M  V30 2551 H 245.601 -5.29749 4.13298 0
M  V30 2552 N 248.321 -0.919034 -1.28029 0
M  V30 2553 C 249.569 -0.553838 -1.94363 0
M  V30 2554 C 249.89 0.906357 -1.72656 0
M  V30 2555 O 249.16 1.64143 -1.0693 0
M  V30 2556 H 247.74 -0.201834 -0.719216 0
M  V30 2557 H 250.402 -1.16954 -1.55909 0
M  V30 2558 H 249.498 -0.752758 -3.02886 0
M  V30 2559 N 249.799 1.42003 -0.683588 0
M  V30 2560 C 251.027 2.05746 -0.218182 0
M  V30 2561 C 251.442 1.51396 1.12804 0
M  V30 2562 O 250.799 0.657303 1.70252 0
M  V30 2563 C 250.85 3.61171 -0.154131 0
M  V30 2564 O 250.571 4.13508 -1.44716 0
M  V30 2565 C 252.072 4.42042 0.333713 0
M  V30 2566 H 249.292 0.662888 -0.10402 0
M  V30 2567 H 251.836 1.81987 -0.9328 0
M  V30 2568 H 249.991 3.84012 0.511231 0
M  V30 2569 H 250.405 5.07453 -1.32632 0
M  V30 2570 H 251.879 5.51028 0.327423 0
M  V30 2571 H 252.356 4.17269 1.37053 0
M  V30 2572 H 252.962 4.24239 -0.300222 0
M  V30 2573 N 251.277 0.427512 1.51691 0
M  V30 2574 C 252.227 -0.406604 2.24345 0
M  V30 2575 C 253.211 -0.998276 1.26187 0
M  V30 2576 O 254.403 -0.918045 1.51331 0
M  V30 2577 C 251.532 -1.51266 3.08177 0
M  V30 2578 C 250.618 -0.930868 4.13758 0
M  V30 2579 N 251.009 -0.0773552 5.05741 0
M  V30 2580 C 249.307 -1.19948 4.29568 0
M  V30 2581 C 250.008 0.248344 5.8117 0
M  V30 2582 N 248.984 -0.365535 5.4237 0
M  V30 2583 H 252.786 0.251581 2.92821 0
M  V30 2584 H 250.3 0.239003 1.60632 0
M  V30 2585 H 252.297 -2.123 3.58796 0
M  V30 2586 H 250.957 -2.17328 2.41244 0
M  V30 2587 H 251.968 0.288351 5.17097 0
M  V30 2588 H 248.645 -1.85832 3.73862 0
M  V30 2589 H 250.035 0.942286 6.6526 0
M  V30 2590 N 252.755 -1.56801 0.158532 0
M  V30 2591 C 254.001 -1.96781 -0.490405 0
M  V30 2592 C 254.334 -1.04397 -1.63753 0
M  V30 2593 O 253.609 -0.0885805 -1.94298 0
M  V30 2594 C 253.892 -3.4635 -0.985594 0
M  V30 2595 C 253.745 -4.49512 0.160824 0
M  V30 2596 C 255.064 -3.98697 -1.86355 0
M  V30 2597 H 252.183 -0.715482 -0.176788 0
M  V30 2598 H 254.825 -1.88451 0.242088 0
M  V30 2599 H 252.975 -3.53579 -1.60978 0
M  V30 2600 H 254.647 -4.54353 0.797537 0
M  V30 2601 H 252.89 -4.26013 0.818256 0
M  V30 2602 H 253.561 -5.51531 -0.227569 0
M  V30 2603 H 256.037 -3.94019 -1.33746 0
M  V30 2604 H 254.913 -5.03792 -2.17909 0
M  V30 2605 H 255.174 -3.41744 -2.8047 0
M  V30 2606 N 254.233 0.115231 -1.57178 0
M  V30 2607 C 255.196 1.12526 -1.99676 0
M  V30 2608 C 256.196 1.34095 -0.88742 0
M  V30 2609 O 257.386 1.30548 -1.15337 0
M  V30 2610 C 254.518 2.4789 -2.34015 0
M  V30 2611 H 255.711 0.759912 -2.90113 0
M  V30 2612 H 253.264 0.359648 -1.52106 0
M  V30 2613 H 253.999 2.89339 -1.4647 0
M  V30 2614 H 253.784 2.33588 -3.14927 0
M  V30 2615 H 255.274 3.20575 -2.67622 0
M  V30 2616 N 255.711 1.52812 0.385517 0
M  V30 2617 C 256.959 1.67694 1.12797 0
M  V30 2618 C 257.28 0.421115 1.90399 0
M  V30 2619 O 256.55 -0.564551 1.87589 0
M  V30 2620 H 255.13 0.618155 0.419396 0
M  V30 2621 H 257.792 1.89938 0.436972 0
M  V30 2622 H 256.888 2.52896 1.82894 0
M  V30 2623 N 257.189 -0.644168 1.43834 0
M  V30 2624 C 258.417 -1.43147 1.49387 0
M  V30 2625 C 258.832 -1.88452 0.114583 0
M  V30 2626 O 258.189 -1.60047 -0.876989 0
M  V30 2627 C 258.24 -2.66046 2.44748 0
M  V30 2628 O 257.961 -2.22633 3.77314 0
M  V30 2629 C 259.462 -3.59311 2.59635 0
M  V30 2630 H 256.682 -0.439447 0.507077 0
M  V30 2631 H 259.226 -0.78895 1.88669 0
M  V30 2632 H 257.381 -3.26418 2.08638 0
M  V30 2633 H 257.795 -3.02216 4.28679 0
M  V30 2634 H 259.269 -4.42187 3.30416 0
M  V30 2635 H 259.746 -4.07259 1.64427 0
M  V30 2636 H 260.352 -3.04816 2.96593 0
M  V30 2637 N 258.668 -1.30515 -0.883378 0
M  V30 2638 C 259.914 -1.19607 -1.63774 0
M  V30 2639 C 260.247 0.248314 -1.92606 0
M  V30 2640 O 259.522 1.17742 -1.54813 0
M  V30 2641 C 259.805 -2.02669 -2.97653 0
M  V30 2642 C 259.658 -3.55335 -2.75784 0
M  V30 2643 C 260.977 -1.86573 -3.98596 0
M  V30 2644 H 258.096 -0.435856 -0.594305 0
M  V30 2645 H 260.738 -1.60165 -1.02212 0
M  V30 2646 H 258.888 -1.68208 -3.50197 0
M  V30 2647 H 260.56 -3.99863 -2.30016 0
M  V30 2648 H 258.803 -3.79438 -2.1026 0
M  V30 2649 H 259.474 -4.08745 -3.70988 0
M  V30 2650 H 261.95 -2.16703 -3.55217 0
M  V30 2651 H 260.826 -2.47014 -4.90179 0
M  V30 2652 H 261.087 -0.825321 -4.34328 0
M  V30 2653 N 260.146 1.09593 -1.13257 0
M  V30 2654 C 261.109 2.14359 -0.811358 0
M  V30 2655 C 262.109 1.59808 0.178377 0
M  V30 2656 O 263.299 1.74132 -0.0484911 0
M  V30 2657 C 260.431 3.40269 -0.207276 0
M  V30 2658 H 261.624 2.44284 -1.73969 0
M  V30 2659 H 259.177 1.25102 -0.936973 0
M  V30 2660 H 259.912 3.15969 0.73036 0
M  V30 2661 H 259.697 3.81154 -0.919992 0
M  V30 2662 H 261.187 4.176 0.000667944 0
M  V30 2663 N 261.624 0.925811 1.2754 0
M  V30 2664 C 262.587 0.428129 2.25166 0
M  V30 2665 C 263.587 -0.452261 1.54309 0
M  V30 2666 O 264.777 -0.253608 1.72344 0
M  V30 2667 C 261.909 -0.384749 3.38722 0
M  V30 2668 H 263.102 1.29066 2.70706 0
M  V30 2669 H 260.655 0.706323 1.3943 0
M  V30 2670 H 261.39 -1.26618 2.98561 0
M  V30 2671 H 261.175 0.246454 3.91325 0
M  V30 2672 H 262.665 -0.723389 4.11287 0
M  V30 2673 N 263.102 -1.41638 0.69111 0
M  V30 2674 C 264.032 -2.3347 0.037248 0
M  V30 2675 C 265.013 -1.51575 -0.771947 0
M  V30 2676 O 266.198 -1.80126 -0.72582 0
M  V30 2677 C 263.328 -3.35354 -0.903064 0
M  V30 2678 C 262.282 -4.27526 -0.201288 0
M  V30 2679 C 261.608 -5.19747 -1.25565 0
M  V30 2680 C 262.908 -5.13959 0.929689 0
M  V30 2681 H 264.602 -2.88397 0.804227 0
M  V30 2682 H 262.148 -1.38669 0.388189 0
M  V30 2683 H 264.101 -3.98519 -1.36969 0
M  V30 2684 H 262.825 -2.78767 -1.70166 0
M  V30 2685 H 261.484 -3.65779 0.245265 0
M  V30 2686 H 261.132 -4.59479 -2.04666 0
M  V30 2687 H 260.832 -5.8225 -0.791128 0
M  V30 2688 H 262.356 -5.85789 -1.72288 0
M  V30 2689 H 263.77 -5.70718 0.543546 0
M  V30 2690 H 262.167 -5.85379 1.32103 0
M  V30 2691 H 263.237 -4.51389 1.77133 0
M  V30 2692 N 264.58 -0.43555 -1.51462 0
M  V30 2693 C 265.857 0.191364 -1.94662 0
M  V30 2694 C 266.237 1.60254 -1.37411 0
M  V30 2695 O 265.585 2.2152 -0.560458 0
M  V30 2696 C 265.795 0.17091 -3.48581 0
M  V30 2697 C 267.143 0.377357 -4.2292 0
M  V30 2698 O 268.167 0.249104 -3.55328 0
M  V30 2699 O 267.026 0.63247 -5.42828 0
M  V30 2700 H 264.12 0.130932 -0.816569 0
M  V30 2701 H 266.666 -0.4934 -1.62369 0
M  V30 2702 H 265.438 -0.815738 -3.82703 0
M  V30 2703 H 265.061 0.898659 -3.87311 0
M  V30 2704 N 266.058 1.56714 -0.166846 0
M  V30 2705 C 267.006 2.19056 0.782123 0
M  V30 2706 C 268 1.15328 1.24079 0
M  V30 2707 O 269.206 1.33537 1.20697 0
M  V30 2708 H 265.581 0.70167 0.270486 0
M  V30 2709 H 267.552 2.97494 0.232322 0
M  V30 2710 C 266.301 2.84206 2.00306 0
M  V30 2711 H 265.624 3.63748 1.65914 0
M  V30 2712 H 267.064 3.31302 2.64604 0
M  V30 2713 C 265.523 1.83744 2.82382 0
M  V30 2714 O 266.053 1.32014 3.79388 0
M  V30 2715 N 264.259 1.52601 2.47308 0
M  V30 2716 H 263.806 1.9486 1.68485 0
M  V30 2717 H 263.764 0.856351 3.02513 0
M  V30 2718 N 267.536 -0.106894 1.57237 0
M  V30 2719 C 268.764 -0.826389 1.8968 0
M  V30 2720 C 269.179 -1.72856 0.759353 0
M  V30 2721 O 268.536 -1.80503 -0.269263 0
M  V30 2722 C 268.587 -1.64967 3.21665 0
M  V30 2723 O 268.308 -0.783804 4.31031 0
M  V30 2724 C 269.809 -2.47326 3.67892 0
M  V30 2725 H 267.029 -0.236927 0.627779 0
M  V30 2726 H 269.573 -0.0876593 2.04312 0
M  V30 2727 H 267.728 -2.34103 3.08666 0
M  V30 2728 H 268.142 -1.35284 5.06753 0
M  V30 2729 H 269.616 -3.00604 4.6297 0
M  V30 2730 H 270.093 -3.25247 2.95146 0
M  V30 2731 H 270.699 -1.83411 3.83719 0
M  V30 2732 N 269.014 -1.53014 -0.377408 0
M  V30 2733 C 270.242 -1.72515 -1.14219 0
M  V30 2734 C 270.657 -0.448735 -1.8339 0
M  V30 2735 O 270.014 0.577592 -1.73119 0
M  V30 2736 C 270.065 -2.8826 -2.18148 0
M  V30 2737 O 269.786 -4.10962 -1.51795 0
M  V30 2738 C 271.287 -3.19536 -3.07264 0
M  V30 2739 H 268.507 -0.577301 -0.342001 0
M  V30 2740 H 271.051 -1.99712 -0.439935 0
M  V30 2741 H 269.206 -2.63492 -2.83991 0
M  V30 2742 H 269.62 -4.75693 -2.20945 0
M  V30 2743 H 271.094 -4.03959 -3.76193 0
M  V30 2744 H 271.571 -2.34403 -3.71419 0
M  V30 2745 H 272.177 -3.46186 -2.47053 0
M  V30 2746 N 270.492 0.636531 -1.44174 0
M  V30 2747 C 271.74 1.39343 -1.46383 0
M  V30 2748 C 272.061 1.94766 -0.0955715 0
M  V30 2749 O 271.331 1.75452 0.871395 0
M  V30 2750 H 269.911 0.517199 -0.538994 0
M  V30 2751 H 272.573 0.74957 -1.7991 0
M  V30 2752 H 271.669 2.22746 -2.18611 0
M  V30 2753 N 271.97 1.30982 0.876444 0
M  V30 2754 C 273.216 1.20474 1.63138 0
M  V30 2755 C 273.549 -0.238096 1.92735 0
M  V30 2756 O 272.824 -1.1692 1.55435 0
M  V30 2757 C 273.107 2.04244 2.96574 0
M  V30 2758 C 272.96 3.56793 2.73896 0
M  V30 2759 C 274.279 1.88684 3.97601 0
M  V30 2760 H 271.398 0.439001 0.591985 0
M  V30 2761 H 274.04 1.60704 1.01361 0
M  V30 2762 H 272.19 1.70063 3.493 0
M  V30 2763 H 273.862 4.01077 2.27892 0
M  V30 2764 H 272.105 3.80548 2.08245 0
M  V30 2765 H 272.776 4.10706 3.68815 0
M  V30 2766 H 275.252 2.18584 3.54062 0
M  V30 2767 H 274.128 2.4961 4.88862 0
M  V30 2768 H 274.389 0.848343 4.33884 0
M  V30 2769 N 273.449 -1.08991 1.13837 0
M  V30 2770 C 274.379 -2.17771 0.842507 0
M  V30 2771 C 275.36 -1.6892 -0.20001 0
M  V30 2772 O 276.545 -1.94113 -0.0579731 0
M  V30 2773 C 273.675 -3.4589 0.312644 0
M  V30 2774 C 272.629 -4.08099 1.28992 0
M  V30 2775 C 271.955 -5.31098 0.619623 0
M  V30 2776 C 273.255 -4.50077 2.65005 0
M  V30 2777 H 274.949 -2.42777 1.75213 0
M  V30 2778 H 272.495 -1.16682 0.843875 0
M  V30 2779 H 274.448 -4.21297 0.0933043 0
M  V30 2780 H 273.172 -3.20419 -0.632382 0
M  V30 2781 H 271.831 -3.34717 1.49533 0
M  V30 2782 H 271.479 -5.0191 -0.33102 0
M  V30 2783 H 271.179 -5.73674 1.27167 0
M  V30 2784 H 272.703 -6.09224 0.409669 0
M  V30 2785 H 274.117 -5.16688 2.48407 0
M  V30 2786 H 272.514 -5.03553 3.26427 0
M  V30 2787 H 273.584 -3.62257 3.22332 0
M  V30 2788 N 274.927 -0.932562 -1.27047 0
M  V30 2789 C 276.175 -0.574422 -1.93765 0
M  V30 2790 C 276.496 0.887993 -1.73608 0
M  V30 2791 O 275.766 1.62999 -1.08665 0
M  V30 2792 H 274.346 -0.209451 -0.717035 0
M  V30 2793 H 277.008 -1.18601 -1.5466 0
M  V30 2794 H 276.104 -0.784841 -3.02071 0
M  V30 2795 N 276.405 1.4127 -0.698611 0
M  V30 2796 C 277.651 2.01478 -0.231207 0
M  V30 2797 C 277.984 1.55215 1.16713 0
M  V30 2798 O 277.259 0.764672 1.78838 0
M  V30 2799 C 277.542 3.58912 -0.292281 0
M  V30 2800 C 277.395 4.15293 -1.72778 0
M  V30 2801 C 278.714 4.38736 0.346194 0
M  V30 2802 H 275.833 0.732025 -0.0854878 0
M  V30 2803 H 278.475 1.67977 -0.887906 0
M  V30 2804 H 276.625 3.87582 0.26686 0
M  V30 2805 H 278.297 3.97486 -2.341 0
M  V30 2806 H 276.54 3.7022 -2.26096 0
M  V30 2807 H 277.211 5.24452 -1.72202 0
M  V30 2808 H 279.687 4.15897 -0.130035 0
M  V30 2809 H 278.563 5.48221 0.272932 0
M  V30 2810 H 278.824 4.18425 1.42734 0
M  V30 2811 N 277.883 0.443576 1.51229 0
M  V30 2812 C 278.846 -0.353132 2.26463 0
M  V30 2813 C 279.846 -0.944338 1.3015 0
M  V30 2814 O 281.036 -0.817813 1.5381 0
M  V30 2815 C 278.168 -1.50023 3.06114 0
M  V30 2816 H 279.361 0.3063 2.98332 0
M  V30 2817 H 276.914 0.196902 1.55055 0
M  V30 2818 H 277.649 -2.19553 2.38677 0
M  V30 2819 H 277.434 -1.08241 3.76864 0
M  V30 2820 H 278.924 -2.06296 3.63087 0
M  V30 2821 N 279.361 -1.56624 0.175154 0
M  V30 2822 C 280.772 -1.83561 -0.340916 0
M  V30 2823 C 281.123 -1.09511 -1.62794 0
M  V30 2824 O 280.248 -0.349389 -2.13561 0
M  V30 2825 C 280.843 -3.32979 -0.625313 0
M  V30 2826 C 279.402 -3.60399 -1.08581 0
M  V30 2827 C 278.549 -2.77024 -0.123722 0
M  V30 2828 H 281.5 -1.53593 0.399344 0
M  V30 2829 H 281.521 -3.50666 -1.47694 0
M  V30 2830 H 281.033 -3.86847 0.311575 0
M  V30 2831 H 279.134 -3.11945 -2.03767 0
M  V30 2832 H 279.247 -4.68711 -0.992317 0
M  V30 2833 H 277.611 -2.46993 -0.621821 0
M  V30 2834 H 278.394 -3.33674 0.807256 0
M  V30 2835 N 280.839 0.0985539 -1.57292 0
M  V30 2836 C 282.064 0.820196 -1.90493 0
M  V30 2837 C 282.489 1.71658 -0.769094 0
M  V30 2838 O 281.847 1.79133 0.279495 0
M  V30 2839 C 281.895 1.61242 -3.22542 0
M  V30 2840 O 280.999 2.72108 -3.09888 0
M  V30 2841 H 280.34 0.225547 -0.62452 0
M  V30 2842 H 282.87 0.0748159 -2.04463 0
M  V30 2843 H 282.88 1.99737 -3.55766 0
M  V30 2844 H 281.555 0.954535 -4.04798 0
M  V30 2845 H 280.132 2.36667 -2.88172 0
M  V30 2846 N 282.317 1.53212 0.369288 0
M  V30 2847 C 283.563 1.69466 1.11397 0
M  V30 2848 C 283.896 0.443257 1.89074 0
M  V30 2849 O 283.171 -0.559386 1.86282 0
M  V30 2850 C 283.454 2.9422 2.07621 0
M  V30 2851 C 283.307 4.29508 1.33577 0
M  V30 2852 C 284.626 3.14565 3.07794 0
M  V30 2853 H 281.745 0.616667 0.403597 0
M  V30 2854 H 284.387 1.85845 0.395179 0
M  V30 2855 H 282.537 2.80387 2.68916 0
M  V30 2856 H 284.209 4.55147 0.750955 0
M  V30 2857 H 282.452 4.29088 0.637618 0
M  V30 2858 H 283.123 5.12926 2.03989 0
M  V30 2859 H 285.599 3.2756 2.56601 0
M  V30 2860 H 284.475 4.03297 3.72348 0
M  V30 2861 H 284.736 2.29675 3.77759 0
M  V30 2862 N 283.795 -0.628877 1.44509 0
M  V30 2863 C 285.02 -1.42048 1.5112 0
M  V30 2864 C 285.445 -1.87594 0.137818 0
M  V30 2865 O 284.803 -1.58873 -0.873437 0
M  V30 2866 C 284.851 -2.61541 2.48251 0
M  V30 2867 O 283.955 -3.61453 1.98559 0
M  V30 2868 H 283.296 -0.424942 0.510216 0
M  V30 2869 H 285.826 -0.767374 1.89664 0
M  V30 2870 H 285.836 -3.09057 2.66361 0
M  V30 2871 H 284.511 -2.27736 3.48007 0
M  V30 2872 H 283.088 -3.20731 1.90227 0
M  V30 2873 N 285.273 -1.31445 -0.869486 0
M  V30 2874 C 286.203 -1.21727 -1.99261 0
M  V30 2875 C 287.184 -0.104359 -1.6978 0
M  V30 2876 O 288.369 -0.289038 -1.92037 0
M  V30 2877 C 285.499 -0.924317 -3.34774 0
M  V30 2878 C 284.453 -1.99685 -3.78563 0
M  V30 2879 C 283.779 -1.55658 -5.11541 0
M  V30 2880 C 285.079 -3.41003 -3.95619 0
M  V30 2881 H 286.773 -2.1569 -2.07649 0
M  V30 2882 H 284.319 -1.03839 -0.997675 0
M  V30 2883 H 286.272 -0.842934 -4.12883 0
M  V30 2884 H 284.996 0.0509793 -3.2656 0
M  V30 2885 H 283.655 -2.06813 -3.02694 0
M  V30 2886 H 283.303 -0.569132 -4.9977 0
M  V30 2887 H 283.003 -2.27409 -5.41811 0
M  V30 2888 H 284.527 -1.48928 -5.92159 0
M  V30 2889 H 285.941 -3.36547 -4.64122 0
M  V30 2890 H 284.338 -4.10975 -4.37286 0
M  V30 2891 H 285.408 -3.81754 -2.98985 0
M  V30 2892 N 286.751 1.08385 -1.14413 0
M  V30 2893 C 287.981 1.8425 -0.934644 0
M  V30 2894 C 288.389 1.81907 0.520234 0
M  V30 2895 O 287.732 1.22126 1.37226 0
M  V30 2896 C 287.794 3.32853 -1.35828 0
M  V30 2897 C 287.458 3.5893 -2.82875 0
M  V30 2898 C 288.455 3.53756 -3.80989 0
M  V30 2899 C 286.14 3.86934 -3.20293 0
M  V30 2900 C 288.134 3.76216 -5.14529 0
M  V30 2901 C 285.821 4.09047 -4.54008 0
M  V30 2902 C 286.819 4.03682 -5.50936 0
M  V30 2903 O 286.507 4.25214 -6.82238 0
M  V30 2904 H 286.239 0.588502 -0.332628 0
M  V30 2905 H 288.793 1.37792 -1.52324 0
M  V30 2906 H 287.023 3.8007 -0.713019 0
M  V30 2907 H 288.712 3.90154 -1.11957 0
M  V30 2908 H 289.478 3.32135 -3.53428 0
M  V30 2909 H 285.357 3.9023 -2.45442 0
M  V30 2910 H 288.901 3.71943 -5.90173 0
M  V30 2911 H 284.798 4.30151 -4.8129 0
M  V30 2912 H 285.566 4.42619 -6.88499 0
M  V30 2913 N 288.23 0.939286 1.26551 0
M  V30 2914 C 289.193 0.451987 2.24699 0
M  V30 2915 C 290.193 -0.435869 1.5478 0
M  V30 2916 O 291.383 -0.235314 1.72603 0
M  V30 2917 C 288.515 -0.348801 3.39111 0
M  V30 2918 H 289.708 1.3193 2.69322 0
M  V30 2919 H 287.261 0.721072 1.38673 0
M  V30 2920 H 287.996 -1.23444 2.99887 0
M  V30 2921 H 287.781 0.287945 3.91041 0
M  V30 2922 H 289.271 -0.679726 4.12031 0
M  V30 2923 N 289.708 -1.40897 0.706093 0
M  V30 2924 C 290.954 -2.01352 0.241889 0
M  V30 2925 C 291.287 -1.55832 -1.15888 0
M  V30 2926 O 290.562 -0.774145 -1.7843 0
M  V30 2927 C 290.845 -3.58752 0.311311 0
M  V30 2928 C 290.698 -4.1437 1.74978 0
M  V30 2929 C 292.017 -4.38914 -0.322922 0
M  V30 2930 H 289.136 -0.731562 0.0893687 0
M  V30 2931 H 291.778 -1.67504 0.896802 0
M  V30 2932 H 289.928 -3.87718 -0.246302 0
M  V30 2933 H 291.6 -3.96239 2.36205 0
M  V30 2934 H 289.843 -3.69016 2.28057 0
M  V30 2935 H 290.514 -5.23532 1.74981 0
M  V30 2936 H 292.99 -4.15822 0.152089 0
M  V30 2937 H 291.866 -5.48358 -0.243855 0
M  V30 2938 H 292.127 -4.19176 -1.40513 0
M  V30 2939 N 291.186 -0.45159 -1.50991 0
M  V30 2940 C 292.133 0.352625 -2.2809 0
M  V30 2941 C 293.103 1.0044 -1.32291 0
M  V30 2942 O 294.288 1.02058 -1.6121 0
M  V30 2943 C 291.428 1.43983 -3.13629 0
M  V30 2944 C 290.541 0.804772 -4.24438 0
M  V30 2945 C 289.676 1.86822 -4.97263 0
M  V30 2946 C 288.715 1.21236 -5.99973 0
M  V30 2947 N 287.852 2.2178 -6.66152 0
M  V30 2948 H 292.692 -0.311186 -2.96371 0
M  V30 2949 H 290.229 -0.165308 -1.46168 0
M  V30 2950 H 292.187 2.08161 -3.61559 0
M  V30 2951 H 290.817 2.07307 -2.47434 0
M  V30 2952 H 289.869 0.0509129 -3.80366 0
M  V30 2953 H 291.181 0.286076 -4.97979 0
M  V30 2954 H 290.335 2.58628 -5.48813 0
M  V30 2955 H 289.074 2.42068 -4.23385 0
M  V30 2956 H 288.079 0.479828 -5.47702 0
M  V30 2957 H 289.304 0.667051 -6.75816 0
M  V30 2958 H 287.25 2.76079 -5.95077 0
M  V30 2959 H 287.167 1.74841 -7.35504 0
M  V30 2960 H 288.435 2.93026 -7.22327 0
M  V30 2961 N 292.664 1.56529 -0.183458 0
M  V30 2962 C 293.91 1.97537 0.459036 0
M  V30 2963 C 294.243 1.06989 1.62071 0
M  V30 2964 O 293.518 0.11948 1.94133 0
M  V30 2965 C 293.801 3.47874 0.930368 0
M  V30 2966 C 293.654 4.492 -0.232317 0
M  V30 2967 C 294.973 4.01612 1.79989 0
M  V30 2968 H 292.092 0.718204 0.165383 0
M  V30 2969 H 294.734 1.88042 -0.272038 0
M  V30 2970 H 292.884 3.56095 1.55333 0
M  V30 2971 H 294.556 4.53027 -0.86972 0
M  V30 2972 H 292.799 4.24657 -0.885928 0
M  V30 2973 H 293.47 5.51823 0.139796 0
M  V30 2974 H 295.946 3.96097 1.27461 0
M  V30 2975 H 294.822 5.07195 2.09867 0
M  V30 2976 H 295.083 3.46163 2.74998 0
M  V30 2977 N 294.142 -0.090211 1.57342 0
M  V30 2978 C 295.072 -1.10976 2.05443 0
M  V30 2979 C 296.053 -1.41482 0.944284 0
M  V30 2980 O 297.238 -1.51428 1.21586 0
M  V30 2981 C 294.368 -2.42831 2.48295 0
M  V30 2982 C 293.322 -2.26721 3.63018 0
M  V30 2983 C 292.648 -3.63796 3.91863 0
M  V30 2984 C 293.948 -1.7037 4.93732 0
M  V30 2985 H 295.642 -0.709564 2.9087 0
M  V30 2986 H 293.188 -0.339874 1.39932 0
M  V30 2987 H 295.141 -3.14431 2.80555 0
M  V30 2988 H 293.865 -2.84795 1.59873 0
M  V30 2989 H 292.524 -1.57565 3.31012 0
M  V30 2990 H 292.172 -4.03297 3.00601 0
M  V30 2991 H 291.872 -3.53861 4.69101 0
M  V30 2992 H 293.396 -4.36855 4.26603 0
M  V30 2993 H 294.81 -2.31816 5.24342 0
M  V30 2994 H 293.207 -1.71181 5.75167 0
M  V30 2995 H 294.277 -0.663542 4.80339 0
M  V30 2996 N 295.62 -1.53406 -0.361157 0
M  V30 2997 C 296.568 -1.80832 -1.46296 0
M  V30 2998 C 297.562 -0.677699 -1.55253 0
M  V30 2999 O 298.768 -0.860723 -1.58087 0
M  V30 3000 H 295.143 -0.572627 -0.487445 0
M  V30 3001 H 297.114 -2.73045 -1.20371 0
M  V30 3002 C 295.863 -2.01907 -2.8307 0
M  V30 3003 H 295.186 -2.88349 -2.76938 0
M  V30 3004 H 296.626 -2.25072 -3.59331 0
M  V30 3005 C 295.085 -0.799449 -3.27277 0
M  V30 3006 O 295.615 0.00971761 -4.01699 0
M  V30 3007 N 293.821 -0.621637 -2.83873 0
M  V30 3008 H 293.368 -1.28126 -2.23476 0
M  V30 3009 H 293.326 0.19298 -3.13807 0
M  V30 3010 N 297.098 0.621204 -1.44841 0
M  V30 3011 C 298.323 1.41244 -1.51871 0
M  V30 3012 C 298.748 1.87519 -0.147764 0
M  V30 3013 O 298.106 1.59334 0.865 0
M  V30 3014 C 298.154 2.60221 -2.49634 0
M  V30 3015 O 297.258 3.60395 -2.00473 0
M  V30 3016 H 296.599 0.42223 -0.512463 0
M  V30 3017 H 299.129 0.757305 -1.90069 0
M  V30 3018 H 299.139 3.0764 -2.67996 0
M  V30 3019 H 297.814 2.25887 -3.4921 0
M  V30 3020 H 296.391 3.19717 -1.91925 0
M  V30 3021 N 298.576 1.31904 0.862503 0
M  V30 3022 C 299.801 1.25135 1.65397 0
M  V30 3023 C 300.226 -0.179 1.87246 0
M  V30 3024 O 299.584 -1.1277 1.4196 0
M  V30 3025 C 299.632 2.00832 2.99498 0
M  V30 3026 O 298.736 1.35075 3.89652 0
M  V30 3027 H 298.077 0.431655 0.504549 0
M  V30 3028 H 300.607 1.74094 1.07483 0
M  V30 3029 H 300.617 2.10709 3.49379 0
M  V30 3030 H 299.292 3.04847 2.82916 0
M  V30 3031 H 297.869 1.33696 3.48109 0
M  V30 3032 N 300.054 -1.07777 1.14986 0
M  V30 3033 C 301.302 -1.79934 0.920235 0
M  V30 3034 C 301.623 -1.86955 -0.554336 0
M  V30 3035 O 300.893 -1.36731 -1.40291 0
M  V30 3036 H 299.473 -0.666424 0.337473 0
M  V30 3037 H 302.135 -1.3027 1.44968 0
M  V30 3038 H 301.231 -2.82539 1.32583 0
M  V30 3039 N 301.532 -0.945985 -1.26051 0
M  V30 3040 C 302.757 -0.612525 -1.98149 0
M  V30 3041 C 303.182 0.806623 -1.69927 0
M  V30 3042 O 302.54 1.54411 -0.950108 0
M  V30 3043 C 302.588 -0.866981 -3.50023 0
M  V30 3044 O 301.692 0.0585333 -4.12358 0
M  V30 3045 H 301.033 -0.23379 -0.621481 0
M  V30 3046 H 303.563 -1.27023 -1.60395 0
M  V30 3047 H 303.573 -0.789792 -4.00283 0
M  V30 3048 H 302.248 -1.90135 -3.69894 0
M  V30 3049 H 300.825 -0.0701241 -3.72834 0
M  V30 3050 N 303.011 1.40521 -0.713556 0
M  V30 3051 C 304.259 2.00527 -0.251692 0
M  V30 3052 C 304.58 1.56857 1.15848 0
M  V30 3053 O 303.85 0.807127 1.785 0
M  V30 3054 H 302.43 0.741551 -0.0900646 0
M  V30 3055 H 305.092 1.71887 -0.918733 0
M  V30 3056 H 304.188 3.10813 -0.283192 0
M  V30 3057 N 304.489 0.459591 1.5075 0
M  V30 3058 C 305.717 -0.0973749 2.06671 0
M  V30 3059 C 306.132 -1.34524 1.32472 0
M  V30 3060 O 305.489 -1.7827 0.390634 0
M  V30 3061 C 305.54 -0.39714 3.59312 0
M  V30 3062 O 305.261 0.801214 4.30711 0
M  V30 3063 C 306.762 -1.00234 4.31819 0
M  V30 3064 H 303.982 0.00195854 0.670997 0
M  V30 3065 H 306.526 0.645072 1.94059 0
M  V30 3066 H 304.681 -1.08951 3.71764 0
M  V30 3067 H 305.095 0.538857 5.21725 0
M  V30 3068 H 306.569 -1.16193 5.39632 0
M  V30 3069 H 307.046 -1.98939 3.91561 0
M  V30 3070 H 307.652 -0.348699 4.23868 0
M  V30 3071 N 305.967 -1.56429 0.191757 0
M  V30 3072 C 307.197 -2.01574 -0.452928 0
M  V30 3073 C 307.605 -1.07107 -1.55964 0
M  V30 3074 O 306.948 -0.067534 -1.83576 0
M  V30 3075 C 307.01 -3.43121 -1.07278 0
M  V30 3076 C 306.674 -4.56879 -0.105214 0
M  V30 3077 C 307.671 -5.15379 0.684149 0
M  V30 3078 C 305.356 -5.023 0.00489824 0
M  V30 3079 C 307.35 -6.17746 1.57062 0
M  V30 3080 C 305.037 -6.04511 0.894935 0
M  V30 3081 C 306.035 -6.62108 1.67637 0
M  V30 3082 O 305.723 -7.62335 2.55149 0
M  V30 3083 H 305.455 -0.665554 -0.118379 0
M  V30 3084 H 308.009 -2.03245 0.296737 0
M  V30 3085 H 306.239 -3.38425 -1.87097 0
M  V30 3086 H 307.928 -3.72093 -1.62177 0
M  V30 3087 H 308.694 -4.81157 0.609365 0
M  V30 3088 H 304.573 -4.57168 -0.593156 0
M  V30 3089 H 308.117 -6.6263 2.181 0
M  V30 3090 H 304.014 -6.38157 0.970847 0
M  V30 3091 H 304.782 -7.79741 2.48892 0
M  V30 3092 N 307.445 0.0818655 -1.57387 0
M  V30 3093 C 308.67 0.799946 -1.91352 0
M  V30 3094 C 309.095 1.70833 -0.787258 0
M  V30 3095 O 308.453 1.79419 0.26048 0
M  V30 3096 C 308.501 1.57812 -3.24234 0
M  V30 3097 O 307.605 2.68806 -3.12757 0
M  V30 3098 H 306.946 0.21891 -0.626877 0
M  V30 3099 H 309.476 0.0531256 -2.04531 0
M  V30 3100 H 309.486 1.95952 -3.57864 0
M  V30 3101 H 308.161 0.911548 -4.05788 0
M  V30 3102 H 306.738 2.33597 -2.90666 0
M  V30 3103 N 308.923 1.53595 0.353017 0
M  V30 3104 C 310.171 1.70049 1.09215 0
M  V30 3105 C 310.492 0.461406 1.89463 0
M  V30 3106 O 309.762 -0.524633 1.88744 0
M  V30 3107 H 308.342 0.626912 0.40619 0
M  V30 3108 H 311.004 1.90822 0.396585 0
M  V30 3109 H 310.1 2.56718 1.77488 0
M  V30 3110 N 310.401 -0.613514 1.45168 0
M  V30 3111 C 311.65 -1.36874 1.4815 0
M  V30 3112 C 311.963 -1.952 0.124982 0
M  V30 3113 O 313.169 -2.71481 0.0324176 0
M  V30 3114 C 311.625 -2.47905 2.60904 0
M  V30 3115 C 311.233 -1.96016 4.02842 0
M  V30 3116 C 312.977 -3.24965 2.73126 0
M  V30 3117 C 310.884 -3.04494 5.06988 0
M  V30 3118 H 309.814 -0.514428 0.551253 0
M  V30 3119 H 312.465 -0.658182 1.7129 0
M  V30 3120 H 310.847 -3.21618 2.31037 0
M  V30 3121 H 312.021 -1.29051 4.4236 0
M  V30 3122 H 310.336 -1.31719 3.95018 0
M  V30 3123 H 312.933 -4.05865 3.48106 0
M  V30 3124 H 313.276 -3.75588 1.79553 0
M  V30 3125 H 313.809 -2.5835 3.0249 0
M  V30 3126 H 310.548 -2.58795 6.0225 0
M  V30 3127 H 310.068 -3.70044 4.72046 0
M  V30 3128 H 311.747 -3.68976 5.31475 0
M  V30 3129 N 311.879 -1.3236 -0.855495 0
M  V30 3130 C 313.125 -1.23054 -1.612 0
M  V30 3131 C 313.458 0.207404 -1.93089 0
M  V30 3132 O 312.733 1.14432 -1.57275 0
M  V30 3133 C 313.016 -2.08937 -2.93287 0
M  V30 3134 C 312.869 -3.61105 -2.68185 0
M  V30 3135 C 314.188 -1.94986 -3.94549 0
M  V30 3136 H 311.307 -0.448364 -0.584926 0
M  V30 3137 H 313.949 -1.62297 -0.987917 0
M  V30 3138 H 312.099 -1.75599 -3.46551 0
M  V30 3139 H 313.771 -4.04652 -2.21483 0
M  V30 3140 H 312.014 -3.83813 -2.02164 0
M  V30 3141 H 312.685 -4.16522 -3.62234 0
M  V30 3142 H 315.161 -2.24189 -3.5054 0
M  V30 3143 H 314.037 -2.57356 -4.84829 0
M  V30 3144 H 314.298 -0.917263 -4.3248 0
M  V30 3145 N 313.357 1.07166 -1.15556 0
M  V30 3146 C 314.582 1.84053 -0.955988 0
M  V30 3147 C 315.007 1.81586 0.490739 0
M  V30 3148 O 314.365 1.21018 1.34997 0
M  V30 3149 C 314.413 3.28957 -1.47714 0
M  V30 3150 O 313.517 4.06795 -0.677593 0
M  V30 3151 H 312.858 0.569842 -0.340847 0
M  V30 3152 H 315.388 1.35178 -1.53584 0
M  V30 3153 H 315.398 3.79788 -1.4908 0
M  V30 3154 H 314.073 3.30068 -2.53037 0
M  V30 3155 H 312.65 3.6561 -0.733721 0
M  V30 3156 N 314.835 0.952656 1.25548 0
M  V30 3157 C 316.083 0.605176 1.92826 0
M  V30 3158 C 316.404 -0.860261 1.74999 0
M  V30 3159 O 315.674 -1.6125 1.11244 0
M  V30 3160 H 314.254 0.220832 0.713612 0
M  V30 3161 H 316.916 1.21047 1.52754 0
M  V30 3162 H 316.012 0.832798 3.00784 0
M  V30 3163 N 316.313 -1.40141 0.720998 0
M  V30 3164 C 317.562 -2.0002 0.259804 0
M  V30 3165 C 317.875 -1.57839 -1.15526 0
M  V30 3166 O 319.081 -2.10455 -1.71525 0
M  V30 3167 C 317.537 -3.57516 0.413566 0
M  V30 3168 C 317.145 -4.08667 1.83562 0
M  V30 3169 C 318.889 -4.24498 0.0134387 0
M  V30 3170 C 316.796 -5.58686 1.93968 0
M  V30 3171 H 315.726 -0.748195 0.0933806 0
M  V30 3172 H 318.377 -1.60313 0.892866 0
M  V30 3173 H 316.759 -3.9495 -0.288169 0
M  V30 3174 H 317.933 -3.82598 2.56817 0
M  V30 3175 H 316.248 -3.543 2.1877 0
M  V30 3176 H 318.845 -5.34654 0.0703954 0
M  V30 3177 H 319.188 -4.03375 -1.02927 0
M  V30 3178 H 319.721 -3.92188 0.665815 0
M  V30 3179 H 316.46 -5.8467 2.96379 0
M  V30 3180 H 315.98 -5.86602 1.25131 0
M  V30 3181 H 317.659 -6.23875 1.71431 0
M  V30 3182 N 317.792 -0.46758 -1.50504 0
M  V30 3183 C 318.702 0.33382 -2.32213 0
M  V30 3184 C 319.718 0.999323 -1.42441 0
M  V30 3185 O 320.894 0.988068 -1.75497 0
M  V30 3186 C 317.959 1.4035 -3.17022 0
M  V30 3187 C 317.02 0.754961 -4.2261 0
M  V30 3188 C 316.253 1.77367 -5.03365 0
M  V30 3189 O 316.476 2.99976 -4.8515 0
M  V30 3190 O 315.41 1.34744 -5.86624 0
M  V30 3191 H 319.236 -0.334067 -3.01857 0
M  V30 3192 H 316.821 -0.229496 -1.47627 0
M  V30 3193 H 318.703 2.02318 -3.69656 0
M  V30 3194 H 317.378 2.05492 -2.5011 0
M  V30 3195 H 316.285 0.0964244 -3.73976 0
M  V30 3196 H 317.618 0.146545 -4.91982 0
M  V30 3197 N 319.27 1.56325 -0.20005 0
M  V30 3198 C 320.516 1.98772 0.431408 0
M  V30 3199 C 320.871 1.0849 1.58895 0
M  V30 3200 O 320.164 0.130331 1.91156 0
M  V30 3201 C 320.358 3.4495 0.935103 0
M  V30 3202 C 320.187 4.49371 -0.172096 0
M  V30 3203 C 318.957 5.0134 -0.631377 0
M  V30 3204 C 321.155 5.04822 -0.982806 0
M  V30 3205 N 319.137 5.89433 -1.71588 0
M  V30 3206 C 320.508 5.89632 -1.91661 0
M  V30 3207 C 322.563 4.87242 -1.02467 0
M  V30 3208 C 321.266 6.58741 -2.88881 0
M  V30 3209 C 323.292 5.57094 -1.98494 0
M  V30 3210 C 322.654 6.41655 -2.90617 0
M  V30 3211 H 318.753 0.771922 0.125144 0
M  V30 3212 H 321.337 1.92266 -0.306883 0
M  V30 3213 H 319.508 3.51946 1.64282 0
M  V30 3214 H 321.24 3.74354 1.53758 0
M  V30 3215 H 317.995 4.73071 -0.223827 0
M  V30 3216 H 318.419 6.38182 -2.25948 0
M  V30 3217 H 323.061 4.21538 -0.326408 0
M  V30 3218 H 320.779 7.23641 -3.5968 0
M  V30 3219 H 324.365 5.45466 -2.0238 0
M  V30 3220 H 323.245 6.94755 -3.63711 0
M  V30 3221 N 320.748 -0.0735177 1.57428 0
M  V30 3222 C 321.711 -1.07192 2.02589 0
M  V30 3223 C 322.711 -1.31695 0.922661 0
M  V30 3224 O 323.901 -1.27445 1.18758 0
M  V30 3225 C 321.033 -2.41599 2.40506 0
M  V30 3226 H 322.226 -0.682727 2.92025 0
M  V30 3227 H 319.779 -0.319193 1.53006 0
M  V30 3228 H 320.514 -2.85354 1.5409 0
M  V30 3229 H 320.299 -2.25156 3.21009 0
M  V30 3230 H 321.789 -3.13367 2.76027 0
M  V30 3231 N 322.226 -1.5378 -0.344866 0
M  V30 3232 C 323.454 -1.74899 -1.10534 0
M  V30 3233 C 323.869 -0.487534 -1.82397 0
M  V30 3234 O 323.226 0.540741 -1.74305 0
M  V30 3235 C 323.277 -2.92822 -2.11984 0
M  V30 3236 O 322.998 -4.14089 -1.43044 0
M  V30 3237 C 324.499 -3.25982 -3.00417 0
M  V30 3238 H 321.719 -0.584426 -0.329678 0
M  V30 3239 H 324.263 -2.006 -0.397474 0
M  V30 3240 H 322.418 -2.69457 -2.78338 0
M  V30 3241 H 322.832 -4.80272 -2.10805 0
M  V30 3242 H 324.306 -4.11848 -3.67539 0
M  V30 3243 H 324.783 -2.42228 -3.66363 0
M  V30 3244 H 325.389 -3.51349 -2.39654 0
M  V30 3245 N 323.704 0.605807 -1.45491 0
M  V30 3246 C 324.932 1.39136 -1.5313 0
M  V30 3247 C 325.347 1.88082 -0.164507 0
M  V30 3248 O 324.704 1.62316 0.834247 0
M  V30 3249 C 324.755 2.59463 -2.51716 0
M  V30 3250 O 324.476 2.12551 -3.83084 0
M  V30 3251 C 325.977 3.52301 -2.6907 0
M  V30 3252 H 323.197 0.425849 -0.51855 0
M  V30 3253 H 325.741 0.73865 -1.90694 0
M  V30 3254 H 323.896 3.20772 -2.17219 0
M  V30 3255 H 324.31 2.90744 -4.36541 0
M  V30 3256 H 325.784 4.33271 -3.42024 0
M  V30 3257 H 326.261 4.02757 -1.75167 0
M  V30 3258 H 326.867 2.96845 -3.04571 0
M  V30 3259 N 325.182 1.32811 0.848464 0
M  V30 3260 C 326.13 1.22231 1.97895 0
M  V30 3261 C 327.124 0.125749 1.68933 0
M  V30 3262 O 328.33 0.289083 1.77663 0
M  V30 3263 H 324.705 0.379058 0.649476 0
M  V30 3264 H 326.676 2.17828 2.03945 0
M  V30 3265 C 325.425 0.968572 3.33937 0
M  V30 3266 H 324.748 1.80458 3.56756 0
M  V30 3267 H 326.188 0.934808 4.13567 0
M  V30 3268 C 324.647 -0.328628 3.35293 0
M  V30 3269 O 325.177 -1.33848 3.78745 0
M  V30 3270 N 323.383 -0.352788 2.88451 0
M  V30 3271 H 322.93 0.469541 2.53285 0
M  V30 3272 H 322.888 -1.22057 2.89741 0
M  V30 3273 N 326.66 -1.06551 1.16123 0
M  V30 3274 C 327.908 -1.78947 0.939267 0
M  V30 3275 C 328.229 -1.87532 -0.534476 0
M  V30 3276 O 327.499 -1.38211 -1.38833 0
M  V30 3277 H 326.079 -0.662807 0.344523 0
M  V30 3278 H 328.741 -1.28725 1.46342 0
M  V30 3279 H 327.837 -2.81117 1.35572 0
M  V30 3280 N 328.138 -0.959301 -1.25041 0
M  V30 3281 C 329.071 -0.427418 -2.24161 0
M  V30 3282 C 330.049 0.493837 -1.54919 0
M  V30 3283 O 331.233 0.427144 -1.83597 0
M  V30 3284 C 328.36 0.383893 -3.36517 0
M  V30 3285 C 327.406 -0.478431 -4.23808 0
M  V30 3286 S 328.239 -1.91353 -5.00144 0
M  V30 3287 C 329.395 -1.11077 -6.15965 0
M  V30 3288 H 329.628 -1.26743 -2.6893 0
M  V30 3289 H 327.161 -0.763714 -1.34189 0
M  V30 3290 H 329.119 0.846039 -4.01687 0
M  V30 3291 H 327.78 1.19878 -2.90324 0
M  V30 3292 H 326.973 0.14406 -5.03794 0
M  V30 3293 H 326.575 -0.87597 -3.63597 0
M  V30 3294 H 328.867 -0.361699 -6.76534 0
M  V30 3295 H 329.81 -1.88472 -6.82557 0
M  V30 3296 H 330.218 -0.638843 -5.60873 0
M  V30 3297 N 329.616 1.39756 -0.72842 0
M  V30 3298 C 330.893 1.94574 -0.200079 0
M  V30 3299 C 331.273 1.66569 1.29684 0
M  V30 3300 O 330.621 0.990326 2.05924 0
M  V30 3301 C 330.831 3.45004 -0.526608 0
M  V30 3302 C 332.179 4.21965 -0.472318 0
M  V30 3303 O 333.203 3.53173 -0.463413 0
M  V30 3304 O 332.062 5.44552 -0.461075 0
M  V30 3305 H 329.156 0.826289 -0.0342851 0
M  V30 3306 H 331.702 1.49293 -0.806829 0
M  V30 3307 H 330.474 3.58796 -1.56144 0
M  V30 3308 H 330.097 3.97449 0.109449 0
M  V30 3309 N 331.094 0.475555 1.50254 0
M  V30 3310 C 332.34 -0.0780073 2.0265 0
M  V30 3311 C 332.673 -1.38968 1.35652 0
M  V30 3312 O 331.948 -1.8839 0.483691 0
M  V30 3313 C 332.231 -0.257161 3.59181 0
M  V30 3314 C 332.084 1.07585 4.36744 0
M  V30 3315 C 333.403 -1.00965 4.28362 0
M  V30 3316 H 330.522 -0.0268758 0.73651 0
M  V30 3317 H 333.164 0.622015 1.7953 0
M  V30 3318 H 331.314 -0.853412 3.79011 0
M  V30 3319 H 332.986 1.70902 4.28474 0
M  V30 3320 H 331.229 1.6714 4.00308 0
M  V30 3321 H 331.9 0.904088 5.44546 0
M  V30 3322 H 334.376 -0.504214 4.13034 0
M  V30 3323 H 333.252 -1.10381 5.37687 0
M  V30 3324 H 333.513 -2.04731 3.91839 0
M  V30 3325 N 332.573 -1.56217 0.208337 0
M  V30 3326 C 333.822 -1.97124 -0.427204 0
M  V30 3327 C 334.135 -1.09859 -1.61835 0
M  V30 3328 O 335.341 -1.40606 -2.32255 0
M  V30 3329 C 333.797 -3.50633 -0.811442 0
M  V30 3330 C 333.405 -4.46582 0.35615 0
M  V30 3331 C 335.149 -4.00282 -1.41332 0
M  V30 3332 C 333.056 -5.91379 -0.0497852 0
M  V30 3333 H 331.986 -0.736086 -0.163381 0
M  V30 3334 H 334.637 -1.8099 0.302456 0
M  V30 3335 H 333.019 -3.62319 -1.59815 0
M  V30 3336 H 334.193 -4.46636 1.1337 0
M  V30 3337 H 332.508 -4.07202 0.870396 0
M  V30 3338 H 335.105 -5.0595 -1.72972 0
M  V30 3339 H 335.448 -3.45359 -2.32449 0
M  V30 3340 H 335.981 -3.91764 -0.690323 0
M  V30 3341 H 332.72 -6.50255 0.827529 0
M  V30 3342 H 332.24 -5.94549 -0.791926 0
M  V30 3343 H 333.919 -6.45209 -0.481042 0
M  V30 3344 N 334.051 0.0651679 -1.57465 0
M  V30 3345 C 334.999 1.09542 -2.05191 0
M  V30 3346 C 335.993 1.39675 -0.958509 0
M  V30 3347 O 337.199 1.39003 -1.14359 0
M  V30 3348 H 333.574 0.370623 -0.654326 0
M  V30 3349 H 335.545 0.666802 -2.90854 0
M  V30 3350 C 334.294 2.39881 -2.51699 0
M  V30 3351 H 333.617 2.17547 -3.3543 0
M  V30 3352 H 335.057 3.104 -2.88839 0
M  V30 3353 C 333.516 3.0631 -1.40271 0
M  V30 3354 O 334.046 3.94664 -0.748523 0
M  V30 3355 N 332.252 2.67041 -1.14618 0
M  V30 3356 H 331.799 1.95281 -1.67997 0
M  V30 3357 H 331.757 3.1181 -0.402688 0
M  V30 3358 N 335.529 1.53961 0.336706 0
M  V30 3359 C 336.462 1.77255 1.43722 0
M  V30 3360 C 337.44 0.62193 1.50236 0
M  V30 3361 O 338.624 0.857874 1.67847 0
M  V30 3362 C 335.751 1.87733 2.81912 0
M  V30 3363 C 334.797 3.09933 2.92991 0
M  V30 3364 S 335.63 4.68836 2.58753 0
M  V30 3365 C 336.786 4.82202 3.99039 0
M  V30 3366 H 337.019 2.70322 1.23748 0
M  V30 3367 H 334.552 1.44917 0.532777 0
M  V30 3368 H 336.51 1.94455 3.61521 0
M  V30 3369 H 335.171 0.956666 2.99177 0
M  V30 3370 H 334.364 3.1396 3.94265 0
M  V30 3371 H 333.966 3.01472 2.21338 0
M  V30 3372 H 336.258 4.64032 4.9364 0
M  V30 3373 H 337.201 5.84298 4.00002 0
M  V30 3374 H 337.609 4.10604 3.87382 0
M  V30 3375 N 337.007 -0.598083 1.45811 0
M  V30 3376 C 338.232 -1.3881 1.54099 0
M  V30 3377 C 338.657 -1.8726 0.177578 0
M  V30 3378 O 338.015 -1.6069 -0.839541 0
M  V30 3379 C 338.063 -2.56217 2.53743 0
M  V30 3380 O 337.167 -3.5716 2.06182 0
M  V30 3381 H 336.508 -0.414024 0.519115 0
M  V30 3382 H 339.038 -0.726971 1.91249 0
M  V30 3383 H 339.048 -3.03337 2.72856 0
M  V30 3384 H 337.723 -2.20303 3.5276 0
M  V30 3385 H 336.3 -3.16624 1.96987 0
M  V30 3386 N 338.485 -1.33259 -0.841409 0
M  V30 3387 C 339.415 -1.25926 -1.96634 0
M  V30 3388 C 340.396 -0.140349 -1.6952 0
M  V30 3389 O 341.581 -0.329707 -1.91381 0
M  V30 3390 C 338.711 -0.99512 -3.32738 0
M  V30 3391 C 337.665 -2.0767 -3.74242 0
M  V30 3392 C 336.991 -1.66474 -5.08125 0
M  V30 3393 C 338.291 -3.49318 -3.88297 0
M  V30 3394 H 339.985 -2.20046 -2.03027 0
M  V30 3395 H 337.531 -1.05931 -0.975425 0
M  V30 3396 H 339.484 -0.930323 -4.11002 0
M  V30 3397 H 338.208 -0.0183004 -3.26595 0
M  V30 3398 H 336.867 -2.13187 -2.98239 0
M  V30 3399 H 336.515 -0.675012 -4.9845 0
M  V30 3400 H 336.215 -2.3885 -5.36865 0
M  V30 3401 H 337.739 -1.61455 -5.88867 0
M  V30 3402 H 339.153 -3.46316 -4.56879 0
M  V30 3403 H 337.55 -4.20158 -4.28471 0
M  V30 3404 H 338.62 -3.8801 -2.9082 0
M  V30 3405 N 339.963 1.05934 -1.16686 0
M  V30 3406 C 341.211 1.78447 -0.948744 0
M  V30 3407 C 341.532 1.87813 0.524523 0
M  V30 3408 O 340.802 1.38945 1.38098 0
M  V30 3409 H 339.382 0.660971 -0.348033 0
M  V30 3410 H 342.044 1.27947 -1.47022 0
M  V30 3411 H 341.14 2.80394 -1.37061 0
M  V30 3412 N 341.441 0.965919 1.2453 0
M  V30 3413 C 342.689 0.625593 1.92174 0
M  V30 3414 C 343.01 -0.841652 1.75901 0
M  V30 3415 O 342.28 -1.60061 1.12948 0
M  V30 3416 H 340.86 0.228388 0.71123 0
M  V30 3417 H 343.522 1.2266 1.51461 0
M  V30 3418 H 342.618 0.864653 2.99884 0
M  V30 3419 N 342.919 -1.39368 0.735821 0
M  V30 3420 C 344.33 -1.83313 0.354015 0
M  V30 3421 C 344.681 -1.61461 -1.11466 0
M  V30 3422 O 343.806 -1.10621 -1.85989 0
M  V30 3423 C 344.401 -3.32781 0.635769 0
M  V30 3424 C 342.96 -3.75142 0.307448 0
M  V30 3425 C 342.107 -2.62358 0.897974 0
M  V30 3426 H 345.058 -1.28349 0.933398 0
M  V30 3427 H 345.079 -3.80388 -0.0921773 0
M  V30 3428 H 344.591 -3.48654 1.70476 0
M  V30 3429 H 342.692 -3.64857 -0.755674 0
M  V30 3430 H 342.805 -4.72532 0.790583 0
M  V30 3431 H 341.169 -2.52624 0.324551 0
M  V30 3432 H 341.952 -2.81036 1.97164 0
M  V30 3433 N 344.397 -0.483516 -1.5 0
M  V30 3434 C 345.622 0.0667119 -2.07293 0
M  V30 3435 C 346.047 1.3164 -1.3436 0
M  V30 3436 O 345.405 1.76945 -0.394987 0
M  V30 3437 C 345.453 0.321126 -3.59167 0
M  V30 3438 O 344.557 1.39927 -3.87936 0
M  V30 3439 H 343.898 -0.0184758 -0.663743 0
M  V30 3440 H 346.428 -0.678125 -1.93035 0
M  V30 3441 H 346.438 0.557906 -4.04168 0
M  V30 3442 H 345.113 -0.592007 -4.11665 0
M  V30 3443 H 343.69 1.14882 -3.54763 0
M  V30 3444 N 345.875 1.56104 -0.216619 0
M  V30 3445 C 347.123 1.97781 0.415593 0
M  V30 3446 C 347.444 1.10536 1.60645 0
M  V30 3447 O 346.714 0.181303 1.95059 0
M  V30 3448 H 345.294 0.730415 0.156534 0
M  V30 3449 H 347.956 1.92445 -0.308366 0
M  V30 3450 H 347.052 3.03072 0.74525 0
M  V30 3451 N 347.353 -0.0568162 1.57498 0
M  V30 3452 C 348.578 -0.769402 1.92601 0
M  V30 3453 C 349.003 -1.69559 0.814336 0
M  V30 3454 O 348.361 -1.79811 -0.231903 0
M  V30 3455 C 348.409 -1.52634 3.26704 0
M  V30 3456 O 347.513 -2.63797 3.16994 0
M  V30 3457 H 346.854 -0.208909 0.63028 0
M  V30 3458 H 349.384 -0.0205798 2.0459 0
M  V30 3459 H 349.394 -1.90234 3.60936 0
M  V30 3460 H 348.069 -0.846875 4.07186 0
M  V30 3461 H 346.646 -2.28943 2.94346 0
M  V30 3462 N 348.832 -1.54138 -0.328536 0
M  V30 3463 C 350.06 -1.76062 -1.08673 0
M  V30 3464 C 350.475 -0.506852 -1.81869 0
M  V30 3465 O 349.832 0.522223 -1.74869 0
M  V30 3466 C 349.883 -2.95054 -2.08866 0
M  V30 3467 O 349.604 -4.15583 -1.38644 0
M  V30 3468 C 351.105 -3.2915 -2.96943 0
M  V30 3469 H 348.325 -0.587889 -0.323461 0
M  V30 3470 H 350.869 -2.0101 -0.376175 0
M  V30 3471 H 349.024 -2.72394 -2.75464 0
M  V30 3472 H 349.438 -4.82481 -2.05699 0
M  V30 3473 H 350.912 -4.15723 -3.63151 0
M  V30 3474 H 351.389 -2.461 -3.63774 0
M  V30 3475 H 351.995 -3.53871 -2.35914 0
M  V30 3476 N 350.31 0.590341 -1.46126 0
M  V30 3477 C 351.273 1.68194 -1.55703 0
M  V30 3478 C 352.273 1.54808 -0.434868 0
M  V30 3479 O 353.463 1.59564 -0.698928 0
M  V30 3480 C 350.595 3.07575 -1.47005 0
M  V30 3481 H 351.788 1.61064 -2.52979 0
M  V30 3482 H 349.341 0.807541 -1.33823 0
M  V30 3483 H 350.076 3.20268 -0.509785 0
M  V30 3484 H 349.861 3.187 -2.28414 0
M  V30 3485 H 351.351 3.87055 -1.56776 0
M  V30 3486 N 351.788 1.33704 0.83433 0
M  V30 3487 C 352.721 1.18675 1.94914 0
M  V30 3488 C 353.699 0.0811145 1.62398 0
M  V30 3489 O 354.883 0.244186 1.86912 0
M  V30 3490 C 352.01 0.821231 3.28593 0
M  V30 3491 C 351.056 1.93501 3.80079 0
M  V30 3492 S 351.889 3.54671 4.01209 0
M  V30 3493 C 353.045 3.20136 5.37833 0
M  V30 3494 H 353.278 2.13043 2.07364 0
M  V30 3495 H 350.811 1.18598 0.988624 0
M  V30 3496 H 352.769 0.617123 4.05835 0
M  V30 3497 H 351.43 -0.103927 3.13928 0
M  V30 3498 H 350.623 1.63273 4.76821 0
M  V30 3499 H 350.225 2.09601 3.09747 0
M  V30 3500 H 352.517 2.71242 6.20833 0
M  V30 3501 H 353.46 4.15975 5.73036 0
M  V30 3502 H 353.868 2.56613 5.02802 0
M  V30 3503 N 353.266 -1.05314 1.17247 0
M  V30 3504 C 354.213 -2.13031 0.888058 0
M  V30 3505 C 355.183 -1.65253 -0.167537 0
M  V30 3506 O 356.368 -1.90775 -0.0305974 0
M  V30 3507 C 353.508 -3.42702 0.406147 0
M  V30 3508 C 352.621 -4.04161 1.52572 0
M  V30 3509 C 351.756 -5.21744 0.997808 0
M  V30 3510 C 350.795 -5.75207 2.09291 0
M  V30 3511 N 349.932 -6.84094 1.57986 0
M  V30 3512 H 354.772 -2.36698 1.81048 0
M  V30 3513 H 352.309 -1.16121 0.903013 0
M  V30 3514 H 354.267 -4.17059 0.108305 0
M  V30 3515 H 352.897 -3.19222 -0.479313 0
M  V30 3516 H 351.949 -3.27253 1.93931 0
M  V30 3517 H 353.261 -4.39881 2.35172 0
M  V30 3518 H 352.415 -6.03168 0.653739 0
M  V30 3519 H 351.154 -4.87495 0.141232 0
M  V30 3520 H 350.159 -4.92414 2.44557 0
M  V30 3521 H 351.384 -6.11505 2.95362 0
M  V30 3522 H 349.33 -6.51745 0.74598 0
M  V30 3523 H 349.247 -7.18811 2.34195 0
M  V30 3524 H 350.515 -7.69172 1.26468 0
M  V30 3525 N 354.744 -0.972509 -1.24016 0
M  V30 3526 C 355.676 -0.464375 -2.24446 0
M  V30 3527 C 356.689 0.4295 -1.57032 0
M  V30 3528 O 357.878 0.234902 -1.76948 0
M  V30 3529 C 354.978 0.348385 -3.37105 0
M  V30 3530 C 354.151 -0.53673 -4.34094 0
M  V30 3531 C 353.21 0.220838 -5.25736 0
M  V30 3532 O 352.236 -0.386867 -5.67884 0
M  V30 3533 N 353.438 1.50907 -5.60542 0
M  V30 3534 H 356.203 -1.32788 -2.68677 0
M  V30 3535 H 353.764 -0.844877 -1.38107 0
M  V30 3536 H 355.756 0.863341 -3.95384 0
M  V30 3537 H 354.326 1.11285 -2.92121 0
M  V30 3538 H 353.546 -1.23261 -3.74433 0
M  V30 3539 H 354.834 -1.14022 -4.95859 0
M  V30 3540 H 354.232 2.02444 -5.28236 0
M  V30 3541 H 352.789 1.96962 -6.21329 0
M  V30 3542 N 356.222 1.38976 -0.743202 0
M  V30 3543 C 357.185 2.28901 -0.117014 0
M  V30 3544 C 358.185 1.46698 0.658503 0
M  V30 3545 O 359.375 1.67274 0.486305 0
M  V30 3546 C 356.507 3.30309 0.84315 0
M  V30 3547 H 357.7 2.8578 -0.909373 0
M  V30 3548 H 355.253 1.47761 -0.509547 0
M  V30 3549 H 355.988 2.785 1.66157 0
M  V30 3550 H 355.773 3.91029 0.289594 0
M  V30 3551 H 357.263 3.97577 1.2776 0
M  V30 3552 N 357.7 0.491464 1.49741 0
M  V30 3553 C 358.946 -0.0565092 2.02721 0
M  V30 3554 C 359.279 -1.37522 1.37118 0
M  V30 3555 O 358.554 -1.87866 0.503645 0
M  V30 3556 C 358.837 -0.219051 3.59433 0
M  V30 3557 C 358.69 1.12211 4.35579 0
M  V30 3558 C 360.009 -0.964157 4.29409 0
M  V30 3559 H 357.128 -0.0190627 0.736753 0
M  V30 3560 H 359.77 0.641021 1.7886 0
M  V30 3561 H 357.92 -0.813165 3.79895 0
M  V30 3562 H 359.592 1.75437 4.26637 0
M  V30 3563 H 357.835 1.71377 3.98513 0
M  V30 3564 H 358.506 0.961794 5.43556 0
M  V30 3565 H 360.982 -0.460378 4.13545 0
M  V30 3566 H 359.858 -1.04671 5.38828 0
M  V30 3567 H 360.119 -2.00563 3.93988 0
M  V30 3568 N 359.178 -1.55987 0.224894 0
M  V30 3569 C 360.455 -1.90232 -0.455083 0
M  V30 3570 C 360.835 -1.14269 -1.77499 0
M  V30 3571 O 360.183 -0.253079 -2.27094 0
M  V30 3572 C 360.393 -3.42993 -0.644758 0
M  V30 3573 C 361.741 -4.13821 -0.950669 0
M  V30 3574 O 362.765 -3.4861 -0.731423 0
M  V30 3575 O 361.624 -5.29128 -1.36695 0
M  V30 3576 H 358.718 -0.79108 -0.241084 0
M  V30 3577 H 361.264 -1.67581 0.267327 0
M  V30 3578 H 360.036 -3.90252 0.28613 0
M  V30 3579 H 359.659 -3.71434 -1.41853 0
M  V30 3580 N 360.656 0.0484629 -1.57525 0
M  V30 3581 C 361.604 1.07359 -2.06341 0
M  V30 3582 C 362.598 1.3865 -0.973269 0
M  V30 3583 O 363.804 1.37783 -1.15827 0
M  V30 3584 H 360.179 0.363662 -0.65822 0
M  V30 3585 H 362.15 0.635916 -2.91545 0
M  V30 3586 C 360.899 2.37198 -2.54229 0
M  V30 3587 H 360.222 2.13977 -3.37719 0
M  V30 3588 H 361.662 3.07319 -2.92115 0
M  V30 3589 C 360.121 3.04805 -1.43511 0
M  V30 3590 O 360.651 3.93848 -0.79034 0
M  V30 3591 N 358.857 2.65811 -1.17444 0
M  V30 3592 H 358.404 1.93488 -1.70059 0
M  V30 3593 H 358.362 3.11366 -0.435737 0
M  V30 3594 N 362.134 1.5431 0.320358 0
M  V30 3595 C 363.097 1.83195 1.3774 0
M  V30 3596 C 364.097 0.703906 1.44575 0
M  V30 3597 O 365.287 0.972214 1.44546 0
M  V30 3598 C 362.419 1.99487 2.76438 0
M  V30 3599 H 363.612 2.77642 1.1338 0
M  V30 3600 H 361.165 1.46076 0.556012 0
M  V30 3601 H 361.9 1.07262 3.06048 0
M  V30 3602 H 361.685 2.81575 2.7287 0
M  V30 3603 H 363.175 2.23271 3.52902 0
M  V30 3604 N 363.613 -0.582584 1.46437 0
M  V30 3605 C 364.843 -1.36484 1.55099 0
M  V30 3606 C 365.251 -1.88233 0.191056 0
M  V30 3607 O 364.594 -1.6429 -0.821858 0
M  V30 3608 C 364.656 -2.588 2.49525 0
M  V30 3609 C 364.32 -2.28517 3.95764 0
M  V30 3610 C 365.317 -1.87346 4.84972 0
M  V30 3611 C 363.002 -2.40658 4.40896 0
M  V30 3612 C 364.996 -1.5871 6.17325 0
M  V30 3613 C 362.683 -2.11635 5.73284 0
M  V30 3614 C 363.681 -1.70725 6.61318 0
M  V30 3615 O 363.369 -1.42057 7.91249 0
M  V30 3616 H 363.101 -0.423297 0.527063 0
M  V30 3617 H 365.655 -0.715188 1.92547 0
M  V30 3618 H 363.885 -3.26571 2.07095 0
M  V30 3619 H 365.574 -3.20868 2.48593 0
M  V30 3620 H 366.34 -1.77481 4.5136 0
M  V30 3621 H 362.219 -2.71463 3.72598 0
M  V30 3622 H 365.763 -1.26704 6.85997 0
M  V30 3623 H 361.66 -2.21124 6.06444 0
M  V30 3624 H 362.428 -1.55901 8.03515 0
M  V30 3625 N 365.091 -1.34144 -0.827227 0
M  V30 3626 C 366.054 -1.25264 -1.91942 0
M  V30 3627 C 367.054 -0.168866 -1.59911 0
M  V30 3628 O 368.244 -0.421198 -1.69031 0
M  V30 3629 C 365.376 -0.932952 -3.27885 0
M  V30 3630 H 366.569 -2.22357 -2.0124 0
M  V30 3631 H 364.122 -1.1837 -1.0207 0
M  V30 3632 H 364.857 0.0349917 -3.24281 0
M  V30 3633 H 364.642 -1.71682 -3.52516 0
M  V30 3634 H 366.132 -0.895874 -4.07877 0
M  V30 3635 N 366.569 1.04691 -1.17803 0
M  V30 3636 C 367.985 1.29963 -0.926379 0
M  V30 3637 C 368.185 1.97251 0.411635 0
M  V30 3638 O 367.241 2.24922 1.14744 0
M  V30 3639 C 368.554 2.16447 -2.08737 0
M  V30 3640 C 370.102 2.29814 -2.12496 0
M  V30 3641 C 370.577 3.19661 -3.27995 0
M  V30 3642 N 372.068 3.27247 -3.27816 0
M  V30 3643 C 372.803 3.96906 -4.13827 0
M  V30 3644 N 372.299 4.6895 -5.09959 0
M  V30 3645 N 374.092 3.93122 -4.01761 0
M  V30 3646 H 366.243 0.594182 -2.0392 0
M  V30 3647 H 368.506 0.324649 -0.890678 0
M  V30 3648 H 368.212 1.74304 -3.05469 0
M  V30 3649 H 368.086 3.17103 -2.04268 0
M  V30 3650 H 370.473 2.71196 -1.16347 0
M  V30 3651 H 370.554 1.2877 -2.21025 0
M  V30 3652 H 370.198 2.78991 -4.24413 0
M  V30 3653 H 370.128 4.20722 -3.16703 0
M  V30 3654 H 372.619 2.75921 -2.58217 0
M  V30 3655 H 372.932 5.19679 -5.71974 0
M  V30 3656 H 371.277 4.67875 -5.13924 0
M  V30 3657 H 374.468 3.35967 -3.2595 0
M  V30 3658 H 374.641 4.47139 -4.6901 0
M  V30 3659 N 368.047 0.979072 1.23499 0
M  V30 3660 C 369.295 0.645941 1.91499 0
M  V30 3661 C 369.616 -0.822948 1.76784 0
M  V30 3662 O 368.886 -1.58854 1.14639 0
M  V30 3663 H 367.466 0.235919 0.708767 0
M  V30 3664 H 370.128 1.2426 1.50152 0
M  V30 3665 H 369.224 0.896411 2.9895 0
M  V30 3666 N 369.525 -1.3858 0.750561 0
M  V30 3667 C 370.771 -2.00481 0.305825 0
M  V30 3668 C 371.104 -1.5944 -1.10872 0
M  V30 3669 O 370.379 -0.83052 -1.75877 0
M  V30 3670 C 370.662 -3.5758 0.425287 0
M  V30 3671 C 370.515 -4.08594 1.88072 0
M  V30 3672 C 371.834 -4.39719 -0.183122 0
M  V30 3673 H 368.953 -0.728348 0.112598 0
M  V30 3674 H 371.595 -1.64566 0.949638 0
M  V30 3675 H 369.745 -3.88306 -0.122828 0
M  V30 3676 H 371.417 -3.88523 2.48691 0
M  V30 3677 H 369.66 -3.61574 2.39681 0
M  V30 3678 H 370.331 -5.177 1.91548 0
M  V30 3679 H 372.807 -4.15128 0.284303 0
M  V30 3680 H 371.683 -5.48856 -0.0692757 0
M  V30 3681 H 371.944 -4.23434 -1.27106 0
M  V30 3682 N 371.003 -0.499398 -1.49478 0
M  V30 3683 C 372.249 0.0457576 -2.02748 0
M  V30 3684 C 372.582 1.36793 -1.37846 0
M  V30 3685 O 371.857 1.87596 -0.513601 0
M  V30 3686 C 372.14 0.199986 -3.59544 0
M  V30 3687 C 371.993 -1.1452 -4.34977 0
M  V30 3688 C 373.312 0.94137 -4.29914 0
M  V30 3689 H 370.431 0.0151552 -0.736844 0
M  V30 3690 H 373.073 -0.650498 -1.78518 0
M  V30 3691 H 371.223 0.793007 -3.8032 0
M  V30 3692 H 372.895 -1.77697 -4.25701 0
M  V30 3693 H 371.138 -1.73488 -3.97598 0
M  V30 3694 H 371.809 -0.990607 -5.43039 0
M  V30 3695 H 374.285 0.43844 -4.13784 0
M  V30 3696 H 373.161 1.01812 -5.39375 0
M  V30 3697 H 373.422 1.98471 -3.95046 0
M  V30 3698 N 372.481 1.55866 -0.233164 0
M  V30 3699 C 373.727 1.98897 0.395959 0
M  V30 3700 C 374.06 1.12091 1.58585 0
M  V30 3701 O 373.335 0.181182 1.93654 0
M  V30 3702 C 373.618 3.50658 0.819224 0
M  V30 3703 C 373.471 4.48233 -0.375109 0
M  V30 3704 C 374.79 4.07135 1.67121 0
M  V30 3705 H 371.909 0.723102 0.142451 0
M  V30 3706 H 374.551 1.87082 -0.331725 0
M  V30 3707 H 372.701 3.60857 1.43925 0
M  V30 3708 H 374.373 4.50031 -1.01341 0
M  V30 3709 H 372.616 4.21624 -1.02058 0
M  V30 3710 H 373.287 5.51988 -0.0358328 0
M  V30 3711 H 375.763 3.99952 1.14795 0
M  V30 3712 H 374.639 5.13615 1.93625 0
M  V30 3713 H 374.9 3.54736 2.63846 0
M  V30 3714 N 373.959 -0.0401083 1.57549 0
M  V30 3715 C 375.205 -0.734211 1.89043 0
M  V30 3716 C 375.538 -1.75591 0.829535 0
M  V30 3717 O 374.813 -1.93868 -0.156706 0
M  V30 3718 C 375.096 -1.41374 3.31188 0
M  V30 3719 C 374.949 -0.406299 4.47961 0
M  V30 3720 C 376.268 -2.35061 3.72068 0
M  V30 3721 H 373.387 -0.265447 0.687537 0
M  V30 3722 H 376.029 0.00294087 1.9 0
M  V30 3723 H 374.179 -2.04206 3.30503 0
M  V30 3724 H 375.851 0.219255 4.60779 0
M  V30 3725 H 374.094 0.275485 4.32924 0
M  V30 3726 H 374.765 -0.920022 5.44279 0
M  V30 3727 H 377.241 -1.82282 3.74049 0
M  V30 3728 H 376.117 -2.79593 4.72355 0
M  V30 3729 H 376.378 -3.21258 3.0372 0
M  V30 3730 N 375.437 -1.54477 -0.31217 0
M  V30 3731 C 376.4 -1.83923 -1.36766 0
M  V30 3732 C 377.4 -0.711563 -1.44199 0
M  V30 3733 O 378.59 -0.979866 -1.44029 0
M  V30 3734 C 375.722 -2.0095 -2.75376 0
M  V30 3735 H 376.915 -2.78239 -1.11906 0
M  V30 3736 H 374.468 -1.46369 -0.548257 0
M  V30 3737 H 375.203 -1.08883 -3.05475 0
M  V30 3738 H 374.988 -2.83018 -2.71373 0
M  V30 3739 H 376.478 -2.2514 -3.51713 0
M  V30 3740 N 376.915 0.57481 -1.46744 0
M  V30 3741 C 377.878 1.66533 -1.57478 0
M  V30 3742 C 378.878 1.54338 -0.451263 0
M  V30 3743 O 380.068 1.58814 -0.715813 0
M  V30 3744 C 377.2 3.05999 -1.50259 0
M  V30 3745 H 378.393 1.58372 -2.54673 0
M  V30 3746 H 375.946 0.793301 -1.34672 0
M  V30 3747 H 376.681 3.19709 -0.543725 0
M  V30 3748 H 376.466 3.16259 -2.31781 0
M  V30 3749 H 377.956 3.8537 -1.60872 0
M  V30 3750 N 378.394 1.34581 0.820102 0
M  V30 3751 C 379.357 1.2628 1.91275 0
M  V30 3752 C 380.357 0.177344 1.59819 0
M  V30 3753 O 381.547 0.430156 1.68806 0
M  V30 3754 C 378.679 0.950327 3.27386 0
M  V30 3755 H 379.872 2.23421 2.00057 0
M  V30 3756 H 377.425 1.1891 1.0144 0
M  V30 3757 H 378.16 -0.0177938 3.24295 0
M  V30 3758 H 377.945 1.73549 3.51601 0
M  V30 3759 H 379.435 0.917492 4.07396 0
M  V30 3760 N 379.872 -1.04064 1.18357 0
M  V30 3761 C 381.12 -1.76915 0.977013 0
M  V30 3762 C 381.441 -1.88624 -0.494577 0
M  V30 3763 O 380.711 -1.41125 -1.3587 0
M  V30 3764 H 379.291 -0.65535 0.358504 0
M  V30 3765 H 381.953 -1.25592 1.49039 0
M  V30 3766 H 381.049 -2.78178 1.41504 0
M  V30 3767 N 381.35 -0.985608 -1.22978 0
M  V30 3768 C 382.298 -0.522631 -2.26652 0
M  V30 3769 C 383.292 0.422998 -1.64034 0
M  V30 3770 O 384.498 0.296319 -1.77544 0
M  V30 3771 H 380.873 -0.150597 -0.736766 0
M  V30 3772 H 382.844 -1.40863 -2.63059 0
M  V30 3773 C 381.593 0.154238 -3.47358 0
M  V30 3774 H 380.916 -0.564329 -3.95797 0
M  V30 3775 H 382.356 0.441744 -4.21693 0
M  V30 3776 C 380.815 1.38719 -3.07016 0
M  V30 3777 O 381.345 2.48307 -3.15764 0
M  V30 3778 N 379.551 1.25975 -2.61875 0
M  V30 3779 H 379.098 0.368068 -2.54957 0
M  V30 3780 H 379.056 2.08578 -2.3525 0
M  V30 3781 N 382.828 1.3818 -0.7579 0
M  V30 3782 C 384.053 2.04827 -0.325679 0
M  V30 3783 C 384.478 1.56788 1.03919 0
M  V30 3784 O 383.836 0.721811 1.66312 0
M  V30 3785 C 383.884 3.58774 -0.362447 0
M  V30 3786 O 382.988 4.07372 0.642033 0
M  V30 3787 H 382.329 0.64833 -0.143402 0
M  V30 3788 H 384.859 1.7677 -1.03023 0
M  V30 3789 H 384.869 4.07434 -0.214844 0
M  V30 3790 H 383.544 3.93096 -1.35824 0
M  V30 3791 H 382.121 3.70068 0.458688 0
M  V30 3792 N 384.306 0.507319 1.49211 0
M  V30 3793 C 385.554 -0.0348839 2.0207 0
M  V30 3794 C 385.875 -1.36898 1.38866 0
M  V30 3795 O 385.145 -1.88133 0.546151 0
M  V30 3796 H 383.725 -0.0158812 0.746831 0
M  V30 3797 H 386.387 0.665998 1.83168 0
M  V30 3798 H 385.483 -0.159917 3.1169 0
M  V30 3799 N 385.784 -1.5574 0.241426 0
M  V30 3800 C 387.009 -2.0366 -0.392111 0
M  V30 3801 C 387.434 -1.11969 -1.51144 0
M  V30 3802 O 386.792 -0.111594 -1.80956 0
M  V30 3803 C 386.84 -3.49638 -0.882371 0
M  V30 3804 O 385.944 -3.6108 -1.99235 0
M  V30 3805 H 385.285 -0.658379 -0.0862122 0
M  V30 3806 H 387.815 -2.01302 0.365881 0
M  V30 3807 H 387.825 -3.90351 -1.18702 0
M  V30 3808 H 386.5 -4.15852 -0.0632361 0
M  V30 3809 H 385.077 -3.32262 -1.69282 0
M  V30 3810 N 387.262 0.0317525 -1.57568 0
M  V30 3811 C 388.487 0.738664 -1.938 0
M  V30 3812 C 388.912 1.68242 -0.841208 0
M  V30 3813 O 388.27 1.80157 0.203267 0
M  V30 3814 C 388.318 1.47417 -3.29091 0
M  V30 3815 O 387.422 2.5872 -3.2115 0
M  V30 3816 H 386.763 0.198856 -0.633524 0
M  V30 3817 H 389.293 -0.0119713 -2.04596 0
M  V30 3818 H 389.303 1.84468 -3.63917 0
M  V30 3819 H 387.978 0.781988 -4.08482 0
M  V30 3820 H 386.555 2.24231 -2.97951 0
M  V30 3821 N 388.74 1.54641 0.303973 0
M  V30 3822 C 389.988 1.73437 1.0375 0
M  V30 3823 C 390.309 0.521449 1.87899 0
M  V30 3824 O 389.579 -0.46432 1.90318 0
M  V30 3825 H 388.159 0.639518 0.386039 0
M  V30 3826 H 390.821 1.91988 0.335675 0
M  V30 3827 H 389.917 2.62235 1.69231 0
M  V30 3828 N 390.218 -0.567019 1.47046 0
M  V30 3829 C 391.166 -1.69593 1.59188 0
M  V30 3830 C 392.16 -1.63046 0.459609 0
M  V30 3831 O 393.366 -1.6835 0.637058 0
M  V30 3832 H 389.741 -0.560993 0.500791 0
M  V30 3833 H 391.712 -1.56488 2.54075 0
M  V30 3834 C 390.461 -3.07964 1.61411 0
M  V30 3835 H 389.784 -3.13679 2.47881 0
M  V30 3836 H 391.224 -3.86671 1.73958 0
M  V30 3837 C 389.683 -3.35123 0.34559 0
M  V30 3838 O 390.213 -3.97812 -0.557521 0
M  V30 3839 N 388.419 -2.89699 0.22864 0
M  V30 3840 H 387.966 -2.38863 0.964479 0
M  V30 3841 H 387.924 -3.08242 -0.619192 0
M  V30 3842 N 391.696 -1.35014 -0.812953 0
M  V30 3843 C 392.924 -1.31031 -1.6012 0
M  V30 3844 C 393.339 0.113558 -1.88458 0
M  V30 3845 O 392.696 1.06363 -1.48301 0
M  V30 3846 C 392.747 -2.10872 -2.93624 0
M  V30 3847 O 392.468 -3.47706 -2.66518 0
M  V30 3848 C 393.969 -2.14401 -3.88004 0
M  V30 3849 H 391.189 -0.45037 -0.497401 0
M  V30 3850 H 393.733 -1.77775 -1.01076 0
M  V30 3851 H 391.888 -1.67744 -3.492 0
M  V30 3852 H 392.302 -3.89097 -3.51715 0
M  V30 3853 H 393.776 -2.74669 -4.78812 0
M  V30 3854 H 394.253 -1.14105 -4.24119 0
M  V30 3855 H 394.859 -2.57662 -3.38364 0
M  V30 3856 N 393.175 1.03435 -1.18907 0
M  V30 3857 C 394.123 2.13703 -0.918353 0
M  V30 3858 C 395.117 1.68947 0.123767 0
M  V30 3859 O 396.323 1.79983 -0.0249701 0
M  V30 3860 H 392.698 0.698112 -0.279542 0
M  V30 3861 H 394.669 2.33731 -1.85506 0
M  V30 3862 C 393.418 3.44542 -0.467532 0
M  V30 3863 H 392.741 3.79394 -1.26095 0
M  V30 3864 H 394.181 4.22812 -0.317164 0
M  V30 3865 C 392.64 3.26829 0.817588 0
M  V30 3866 O 393.17 3.54975 1.88031 0
M  V30 3867 N 391.376 2.80139 0.772677 0
M  V30 3868 H 390.923 2.57434 -0.0923883 0
M  V30 3869 H 390.881 2.68668 1.63294 0
M  V30 3870 N 394.653 0.992116 1.22453 0
M  V30 3871 C 395.881 0.685944 1.95198 0
M  V30 3872 C 396.296 -0.749233 1.73297 0
M  V30 3873 O 395.653 -1.50549 1.03156 0
M  V30 3874 C 395.704 0.981395 3.47924 0
M  V30 3875 O 395.425 2.36018 3.6909 0
M  V30 3876 C 396.926 0.692815 4.37853 0
M  V30 3877 H 394.146 0.253821 0.621141 0
M  V30 3878 H 396.69 1.32668 1.55626 0
M  V30 3879 H 394.845 0.386481 3.85467 0
M  V30 3880 H 395.259 2.45884 4.63294 0
M  V30 3881 H 396.733 0.949818 5.43767 0
M  V30 3882 H 397.21 -0.373181 4.37612 0
M  V30 3883 H 397.816 1.26874 4.05935 0
M  V30 3884 N 396.131 -1.37776 0.765217 0
M  V30 3885 C 397.38 -1.99092 0.323307 0
M  V30 3886 C 397.693 -1.61434 -1.10446 0
M  V30 3887 O 398.899 -2.15805 -1.64743 0
M  V30 3888 C 397.355 -3.56019 0.527098 0
M  V30 3889 C 396.963 -4.0262 1.96471 0
M  V30 3890 C 398.707 -4.2424 0.148483 0
M  V30 3891 C 396.614 -5.52233 2.11644 0
M  V30 3892 H 395.544 -0.744846 0.117137 0
M  V30 3893 H 398.195 -1.57391 0.943417 0
M  V30 3894 H 396.577 -3.95667 -0.162372 0
M  V30 3895 H 397.751 -3.74234 2.68859 0
M  V30 3896 H 396.066 -3.47161 2.29931 0
M  V30 3897 H 398.663 -5.34159 0.240456 0
M  V30 3898 H 399.006 -4.06446 -0.900422 0
M  V30 3899 H 399.539 -3.89872 0.79025 0
M  V30 3900 H 396.278 -5.74945 3.1483 0
M  V30 3901 H 395.798 -5.82324 1.4373 0
M  V30 3902 H 397.477 -6.18106 1.91193 0
M  V30 3903 N 397.609 -0.515225 -1.4894 0
M  V30 3904 C 398.857 0.0241671 -2.02086 0
M  V30 3905 C 399.178 1.3616 -1.3959 0
M  V30 3906 O 398.448 1.87841 -0.556121 0
M  V30 3907 H 397.028 0.0119203 -0.746905 0
M  V30 3908 H 399.69 -0.675702 -1.82812 0
M  V30 3909 H 398.786 0.143385 -3.1177 0
M  V30 3910 N 399.087 1.5561 -0.249682 0
M  V30 3911 C 400.317 2.03116 0.377803 0
M  V30 3912 C 400.725 1.12822 1.51881 0
M  V30 3913 O 400.068 0.13562 1.83199 0
M  V30 3914 C 400.13 3.46866 0.944693 0
M  V30 3915 C 399.794 4.56955 -0.0644259 0
M  V30 3916 C 400.791 5.12485 -0.874957 0
M  V30 3917 C 398.476 5.01936 -0.19132 0
M  V30 3918 C 400.47 6.11491 -1.79881 0
M  V30 3919 C 398.157 6.00773 -1.11868 0
M  V30 3920 C 399.155 6.5543 -1.92095 0
M  V30 3921 O 398.843 7.5234 -2.83267 0
M  V30 3922 H 398.575 0.669489 0.0935961 0
M  V30 3923 H 401.129 2.02004 -0.371966 0
M  V30 3924 H 399.359 3.45136 1.74407 0
M  V30 3925 H 401.048 3.77856 1.48255 0
M  V30 3926 H 401.814 4.78564 -0.787523 0
M  V30 3927 H 397.693 4.59055 0.423072 0
M  V30 3928 H 401.237 6.54078 -2.42543 0
M  V30 3929 H 397.134 6.34114 -1.20703 0
M  V30 3930 H 397.902 7.69966 -2.7766 0
M  V30 3931 N 400.565 -0.0233959 1.57583 0
M  V30 3932 C 401.976 -0.56927 1.77809 0
M  V30 3933 C 402.327 -1.75284 0.881472 0
M  V30 3934 O 401.452 -2.1626 0.0777805 0
M  V30 3935 C 402.047 -1.03949 3.22459 0
M  V30 3936 C 400.606 -1.53084 3.43864 0
M  V30 3937 C 399.753 -0.471454 2.73263 0
M  V30 3938 H 402.704 0.202825 1.57399 0
M  V30 3939 H 402.725 -1.90661 3.29285 0
M  V30 3940 H 402.237 -0.177865 3.87692 0
M  V30 3941 H 400.338 -2.41414 2.83814 0
M  V30 3942 H 400.451 -1.57443 4.52491 0
M  V30 3943 H 398.815 -0.927788 2.37201 0
M  V30 3944 H 399.598 0.380808 3.41181 0
M  V30 3945 N 402.043 -1.548 -0.295768 0
M  V30 3946 C 403.006 -1.85363 -1.34808 0
M  V30 3947 C 404.006 -0.726817 -1.43436 0
M  V30 3948 O 405.196 -0.995088 -1.42981 0
M  V30 3949 C 402.328 -2.03859 -2.73229 0
M  V30 3950 H 403.521 -2.7941 -1.08949 0
M  V30 3951 H 401.074 -1.46942 -0.532702 0
M  V30 3952 H 401.809 -1.12117 -3.04303 0
M  V30 3953 H 401.594 -2.8588 -2.68356 0
M  V30 3954 H 403.084 -2.28857 -3.49305 0
M  V30 3955 N 403.521 0.559213 -1.47345 0
M  V30 3956 C 404.468 1.66645 -1.59682 0
M  V30 3957 C 405.438 1.60168 -0.43994 0
M  V30 3958 O 406.623 1.79031 -0.659736 0
M  V30 3959 C 403.763 3.04969 -1.61518 0
M  V30 3960 C 402.876 3.21897 -2.88108 0
M  V30 3961 C 402.011 4.50608 -2.81294 0
M  V30 3962 C 401.05 4.60961 -4.02717 0
M  V30 3963 N 400.187 5.81024 -3.94151 0
M  V30 3964 H 405.027 1.55439 -2.54249 0
M  V30 3965 H 402.564 0.757219 -1.26113 0
M  V30 3966 H 404.522 3.85064 -1.60566 0
M  V30 3967 H 403.152 3.15015 -0.704645 0
M  V30 3968 H 402.204 2.35248 -2.98936 0
M  V30 3969 H 403.516 3.25412 -3.78032 0
M  V30 3970 H 402.67 5.3896 -2.7858 0
M  V30 3971 H 401.409 4.49568 -1.89049 0
M  V30 3972 H 400.414 3.71021 -4.05738 0
M  V30 3973 H 401.639 4.63761 -4.96087 0
M  V30 3974 H 399.585 5.80938 -3.04708 0
M  V30 3975 H 399.502 5.85909 -4.77752 0
M  V30 3976 H 400.77 6.71744 -3.9545 0
M  V30 3977 N 404.999 1.35443 0.805782 0
M  V30 3978 C 406.229 1.31687 1.59192 0
M  V30 3979 C 406.637 -0.10756 1.88894 0
M  V30 3980 O 405.98 -1.07017 1.49309 0
M  V30 3981 C 406.042 2.05686 2.94845 0
M  V30 3982 C 405.706 3.54868 2.87954 0
M  V30 3983 C 406.703 4.49444 2.61335 0
M  V30 3984 C 404.388 3.97528 3.07046 0
M  V30 3985 C 406.382 5.84655 2.53885 0
M  V30 3986 C 404.069 5.32833 2.99219 0
M  V30 3987 C 405.067 6.26209 2.72674 0
M  V30 3988 O 404.755 7.59032 2.64811 0
M  V30 3989 H 404.487 0.453878 0.50097 0
M  V30 3990 H 407.041 1.78892 1.0093 0
M  V30 3991 H 405.271 1.5312 3.55093 0
M  V30 3992 H 406.96 1.94998 3.55993 0
M  V30 3993 H 407.726 4.17804 2.46303 0
M  V30 3994 H 403.605 3.25233 3.26718 0
M  V30 3995 H 407.149 6.57508 2.33086 0
M  V30 3996 H 403.046 5.64087 3.13809 0
M  V30 3997 H 403.814 7.68967 2.80413 0
M  V30 3998 N 406.477 -1.02803 1.19454 0
M  V30 3999 C 407.754 -1.73299 0.907013 0
M  V30 4000 C 408.134 -2.02772 -0.587086 0
M  V30 4001 O 407.482 -1.68304 -1.54551 0
M  V30 4002 C 407.692 -3.00912 1.76785 0
M  V30 4003 C 409.04 -3.74403 2.00268 0
M  V30 4004 O 410.064 -3.10841 1.73943 0
M  V30 4005 O 408.923 -4.88675 2.4466 0
M  V30 4006 H 406.017 -0.754727 0.338106 0
M  V30 4007 H 408.563 -1.08754 1.30271 0
M  V30 4008 H 407.335 -2.75366 2.7801 0
M  V30 4009 H 406.958 -3.73197 1.37149 0
M  V30 4010 N 407.956 -0.998596 -1.21925 0
M  V30 4011 C 409.181 -0.696015 -1.95372 0
M  V30 4012 C 409.606 0.733826 -1.73195 0
M  V30 4013 O 408.964 1.50242 -1.01474 0
M  V30 4014 C 409.012 -1.01466 -3.4603 0
M  V30 4015 O 408.116 -0.116415 -4.12236 0
M  V30 4016 H 407.457 -0.259938 -0.611006 0
M  V30 4017 H 409.987 -1.33711 -1.54863 0
M  V30 4018 H 409.997 -0.958855 -3.96573 0
M  V30 4019 H 408.672 -2.05653 -3.61497 0
M  V30 4020 H 407.249 -0.228193 -3.72201 0
M  V30 4021 N 409.434 1.37368 -0.772513 0
M  V30 4022 C 410.68 1.99969 -0.337681 0
M  V30 4023 C 411.013 1.61184 1.08321 0
M  V30 4024 O 410.288 0.858395 1.74533 0
M  V30 4025 C 410.571 3.56858 -0.482121 0
M  V30 4026 C 410.424 4.0555 -1.94549 0
M  V30 4027 C 411.743 4.39955 0.113143 0
M  V30 4028 H 408.862 0.726464 -0.124171 0
M  V30 4029 H 411.504 1.63034 -0.975699 0
M  V30 4030 H 409.654 3.88452 0.0610361 0
M  V30 4031 H 411.326 3.84518 -2.54841 0
M  V30 4032 H 409.569 3.57715 -2.45403 0
M  V30 4033 H 410.24 5.14587 -1.9976 0
M  V30 4034 H 412.716 4.14623 -0.35031 0
M  V30 4035 H 411.592 5.48897 -0.0180514 0
M  V30 4036 H 411.853 4.25403 1.20354 0
M  V30 4037 N 410.912 0.523116 1.48665 0
M  V30 4038 C 412.161 -0.01544 2.01694 0
M  V30 4039 C 412.474 -1.35975 1.40606 0
M  V30 4040 O 413.68 -1.98627 1.85093 0
M  V30 4041 C 412.136 -0.0779303 3.59816 0
M  V30 4042 C 411.744 1.26107 4.29885 0
M  V30 4043 C 413.488 -0.565678 4.20714 0
M  V30 4044 C 411.395 1.15954 5.79921 0
M  V30 4045 H 410.325 -0.00954163 0.75394 0
M  V30 4046 H 412.976 0.665865 1.70993 0
M  V30 4047 H 411.358 -0.824165 3.87329 0
M  V30 4048 H 412.532 2.02233 4.14051 0
M  V30 4049 H 410.847 1.68401 3.80828 0
M  V30 4050 H 413.444 -0.6595 5.30617 0
M  V30 4051 H 413.787 -1.56984 3.85567 0
M  V30 4052 H 414.32 0.12467 3.97605 0
M  V30 4053 H 411.059 2.13864 6.19631 0
M  V30 4054 H 410.579 0.439529 5.98187 0
M  V30 4055 H 412.258 0.847361 6.41427 0
M  V30 4056 N 412.39 -1.55475 0.257931 0
M  V30 4057 C 413.353 -2.20551 -0.623706 0
M  V30 4058 C 414.353 -1.17809 -1.09443 0
M  V30 4059 O 415.543 -1.42823 -0.997362 0
M  V30 4060 C 412.675 -2.85784 -1.8585 0
M  V30 4061 H 413.868 -2.99848 -0.0557743 0
M  V30 4062 H 411.421 -1.56298 0.0084422 0
M  V30 4063 H 412.156 -2.10453 -2.46739 0
M  V30 4064 H 411.941 -3.61057 -1.52907 0
M  V30 4065 H 413.431 -3.35553 -2.48584 0
M  V30 4066 N 413.868 0.0150385 -1.57593 0
M  V30 4067 C 415.114 0.704043 -1.90187 0
M  V30 4068 C 415.447 1.74249 -0.857366 0
M  V30 4069 O 414.722 1.94092 0.125843 0
M  V30 4070 C 415.005 1.36087 -3.33395 0
M  V30 4071 C 414.858 0.334981 -4.48551 0
M  V30 4072 C 416.177 2.29112 -3.7576 0
M  V30 4073 H 413.296 0.254475 -0.691673 0
M  V30 4074 H 415.938 -0.0331678 -1.89971 0
M  V30 4075 H 414.088 1.98922 -3.3371 0
M  V30 4076 H 415.76 -0.292534 -4.60372 0
M  V30 4077 H 414.003 -0.344325 -4.32431 0
M  V30 4078 H 414.674 0.833316 -5.45674 0
M  V30 4079 H 417.15 1.76308 -3.76902 0
M  V30 4080 H 416.026 2.72043 -4.76743 0
M  V30 4081 H 416.287 3.16385 -3.08793 0
M  V30 4082 N 415.346 1.54954 0.287554 0
M  V30 4083 C 416.594 1.74528 1.01904 0
M  V30 4084 C 416.915 0.541349 1.87335 0
M  V30 4085 O 416.185 -0.444108 1.908 0
M  V30 4086 H 414.765 0.643576 0.379235 0
M  V30 4087 H 417.427 1.92333 0.315294 0
M  V30 4088 H 416.523 2.64015 1.6644 0
M  V30 4089 N 416.824 -0.551391 1.4764 0
M  V30 4090 C 417.787 -1.64007 1.60107 0
M  V30 4091 C 418.787 -1.53601 0.47576 0
M  V30 4092 O 419.977 -1.57655 0.740988 0
M  V30 4093 C 417.109 -3.03569 1.55108 0
M  V30 4094 H 418.302 -1.543 2.57161 0
M  V30 4095 H 415.855 -0.771776 1.35917 0
M  V30 4096 H 416.59 -3.18804 0.594519 0
M  V30 4097 H 416.375 -3.12532 2.36783 0
M  V30 4098 H 417.865 -3.82762 1.66982 0
M  V30 4099 N 418.302 -1.35869 -0.798587 0
M  V30 4100 C 419.548 -1.2978 -1.55836 0
M  V30 4101 C 419.881 0.125322 -1.93795 0
M  V30 4102 O 419.156 1.07658 -1.61987 0
M  V30 4103 C 419.439 -2.21188 -2.84162 0
M  V30 4104 C 419.292 -3.72155 -2.52628 0
M  V30 4105 C 420.611 -2.11545 -3.85923 0
M  V30 4106 H 417.73 -0.472769 -0.565383 0
M  V30 4107 H 420.372 -1.66341 -0.918192 0
M  V30 4108 H 418.522 -1.90139 -3.38791 0
M  V30 4109 H 420.194 -4.13682 -2.04121 0
M  V30 4110 H 418.437 -3.92042 -1.85704 0
M  V30 4111 H 419.108 -4.31511 -3.44242 0
M  V30 4112 H 421.584 -2.38855 -3.40716 0
M  V30 4113 H 420.46 -2.77688 -4.73477 0
M  V30 4114 H 420.721 -1.09987 -4.282 0
M  V30 4115 N 419.78 1.02168 -1.19998 0
M  V30 4116 C 421.057 1.72816 -0.916191 0
M  V30 4117 C 421.437 2.03081 0.576325 0
M  V30 4118 O 420.785 1.69122 1.53656 0
M  V30 4119 C 420.995 2.9997 -1.78378 0
M  V30 4120 C 422.343 3.73336 -2.02251 0
M  V30 4121 O 423.367 3.09914 -1.75589 0
M  V30 4122 O 422.226 4.87371 -2.47249 0
M  V30 4123 H 419.32 0.752924 -0.342103 0
M  V30 4124 H 421.866 1.08062 -1.30846 0
M  V30 4125 H 420.638 2.73888 -2.79466 0
M  V30 4126 H 420.261 3.72464 -1.39126 0
M  V30 4127 N 421.258 1.00505 1.21394 0
M  V30 4128 C 422.483 0.706367 1.95001 0
M  V30 4129 C 422.908 -0.72463 1.73582 0
M  V30 4130 O 422.266 -1.49702 1.0227 0
M  V30 4131 C 422.314 1.03299 3.45487 0
M  V30 4132 O 421.418 0.138275 4.12168 0
M  V30 4133 H 420.759 0.263175 0.609619 0
M  V30 4134 H 423.289 1.34531 1.54151 0
M  V30 4135 H 423.299 0.979872 3.96059 0
M  V30 4136 H 421.974 2.07567 3.60401 0
M  V30 4137 H 420.551 0.247928 3.72075 0
M  V30 4138 N 422.737 -1.36956 0.779787 0
M  V30 4139 C 423.685 -2.32053 0.15942 0
M  V30 4140 C 424.679 -1.55333 -0.675878 0
M  V30 4141 O 425.885 -1.70668 -0.57204 0
M  V30 4142 H 422.26 -0.751286 0.0327707 0
M  V30 4143 H 424.231 -2.8195 0.977078 0
M  V30 4144 C 422.98 -3.40602 -0.698977 0
M  V30 4145 H 422.303 -3.99746 -0.0655966 0
M  V30 4146 H 423.743 -4.09486 -1.09989 0
M  V30 4147 C 422.202 -2.81359 -1.85307 0
M  V30 4148 O 422.732 -2.72751 -2.94906 0
M  V30 4149 N 420.938 -2.38786 -1.65619 0
M  V30 4150 H 420.485 -2.45987 -0.764725 0
M  V30 4151 H 420.443 -1.99493 -2.43002 0
M  V30 4152 N 424.215 -0.530993 -1.48385 0
M  V30 4153 C 425.44 0.000729535 -2.074 0
M  V30 4154 C 425.865 1.27298 -1.3848 0
M  V30 4155 O 425.223 1.75599 -0.451081 0
M  V30 4156 C 425.271 0.206697 -3.60007 0
M  V30 4157 O 424.375 1.27514 -3.92191 0
M  V30 4158 H 423.716 -0.039583 -0.662819 0
M  V30 4159 H 426.246 -0.739194 -1.9078 0
M  V30 4160 H 426.256 0.42904 -4.05738 0
M  V30 4161 H 424.931 -0.722675 -4.09573 0
M  V30 4162 H 423.508 1.03537 -3.58238 0
M  V30 4163 N 425.693 1.55336 -0.266172 0
M  V30 4164 C 426.641 2.23587 0.641228 0
M  V30 4165 C 427.635 1.22986 1.16494 0
M  V30 4166 O 428.841 1.40943 1.1196 0
M  V30 4167 H 425.216 0.717452 0.225315 0
M  V30 4168 H 427.187 2.9837 0.0426561 0
M  V30 4169 C 425.936 2.96369 1.81826 0
M  V30 4170 H 425.259 3.73563 1.42445 0
M  V30 4171 H 426.699 3.47459 2.42998 0
M  V30 4172 C 425.158 2.0133 2.70125 0
M  V30 4173 O 425.688 1.55875 3.70224 0
M  V30 4174 N 423.894 1.6802 2.37102 0
M  V30 4175 H 423.441 2.05181 1.55751 0
M  V30 4176 H 423.399 1.047 2.96454 0
M  V30 4177 N 427.171 -0.0066808 1.57599 0
M  V30 4178 C 428.587 -0.36267 1.55425 0
M  V30 4179 C 428.787 -1.75209 0.995187 0
M  V30 4180 O 427.843 -2.44616 0.626058 0
M  V30 4181 C 429.156 -0.244017 2.99708 0
M  V30 4182 C 430.704 -0.319451 3.11366 0
M  V30 4183 C 431.179 -0.229998 4.57422 0
M  V30 4184 N 432.67 -0.288105 4.62303 0
M  V30 4185 C 433.405 -0.242127 5.72889 0
M  V30 4186 N 432.901 -0.147133 6.92644 0
M  V30 4187 N 434.694 -0.293502 5.61333 0
M  V30 4188 H 426.845 0.902314 1.92281 0
M  V30 4189 H 429.108 0.34525 0.882896 0
M  V30 4190 H 428.814 0.711678 3.44424 0
M  V30 4191 H 428.688 -1.02877 3.629 0
M  V30 4192 H 431.075 -1.26559 2.66584 0
M  V30 4193 H 431.156 0.495055 2.50964 0
M  V30 4194 H 430.8 0.712566 5.02877 0
M  V30 4195 H 430.73 -1.0629 5.15761 0
M  V30 4196 H 433.221 -0.363126 3.76151 0
M  V30 4197 H 433.534 -0.117763 7.7271 0
M  V30 4198 H 431.879 -0.112857 6.94908 0
M  V30 4199 H 435.07 -0.365864 4.66668 0
M  V30 4200 H 435.243 -0.254204 6.47501 0
M  V30 4201 N 428.649 -1.55105 -0.279332 0
M  V30 4202 C 429.612 -1.86783 -1.32834 0
M  V30 4203 C 430.612 -0.74199 -1.42657 0
M  V30 4204 O 431.802 -1.0102 -1.41918 0
M  V30 4205 C 428.934 -2.06746 -2.71052 0
M  V30 4206 H 430.127 -2.8055 -1.05979 0
M  V30 4207 H 427.68 -1.47499 -0.517087 0
M  V30 4208 H 428.415 -1.15339 -3.03097 0
M  V30 4209 H 428.2 -2.88711 -2.65309 0
M  V30 4210 H 429.69 -2.32549 -3.46858 0
M  V30 4211 N 430.127 0.543554 -1.4793 0
M  V30 4212 C 431.352 1.32995 -1.59145 0
M  V30 4213 C 431.777 1.86472 -0.246956 0
M  V30 4214 O 431.135 1.63696 0.779324 0
M  V30 4215 C 431.183 2.46623 -2.63077 0
M  V30 4216 O 430.287 3.49261 -2.19295 0
M  V30 4217 H 429.628 0.394472 -0.534124 0
M  V30 4218 H 432.158 0.655489 -1.93816 0
M  V30 4219 H 432.168 2.93001 -2.83926 0
M  V30 4220 H 430.843 2.07059 -3.60693 0
M  V30 4221 H 429.42 3.09094 -2.08603 0
M  V30 4222 N 431.605 1.3629 0.791371 0
M  V30 4223 C 432.852 1.30412 1.54916 0
M  V30 4224 C 433.18 -0.117162 1.94147 0
M  V30 4225 O 432.435 -1.08599 1.62803 0
M  V30 4226 C 432.734 2.17068 2.8393 0
M  V30 4227 C 432.4 3.65645 2.63846 0
M  V30 4228 C 431.062 4.0614 2.58077 0
M  V30 4229 C 433.414 4.59855 2.45322 0
M  V30 4230 C 430.742 5.3899 2.31748 0
M  V30 4231 C 433.094 5.9292 2.2052 0
M  V30 4232 C 431.758 6.32542 2.13183 0
M  V30 4233 H 431.028 0.47721 0.566879 0
M  V30 4234 H 433.675 1.68325 0.913172 0
M  V30 4235 H 431.98 1.72085 3.51986 0
M  V30 4236 H 433.677 2.09846 3.4171 0
M  V30 4237 H 430.267 3.33518 2.69191 0
M  V30 4238 H 434.451 4.29443 2.48782 0
M  V30 4239 H 429.707 5.68672 2.24548 0
M  V30 4240 H 433.881 6.65487 2.05182 0
M  V30 4241 H 431.508 7.35412 1.92544 0
M  V30 4242 N 433.083 -1.0153 1.20538 0
M  V30 4243 C 434.308 -1.79283 1.04271 0
M  V30 4244 C 434.733 -1.8372 -0.403544 0
M  V30 4245 O 434.091 -1.27321 -1.2907 0
M  V30 4246 C 434.139 -3.21535 1.63241 0
M  V30 4247 O 433.243 -4.03099 0.870908 0
M  V30 4248 H 432.584 -0.55293 0.367647 0
M  V30 4249 H 435.114 -1.27696 1.59859 0
M  V30 4250 H 435.124 -3.72243 1.6703 0
M  V30 4251 H 433.799 -3.1762 2.68497 0
M  V30 4252 H 432.376 -3.61693 0.907323 0
M  V30 4253 N 434.561 -1.01147 -1.20859 0
M  V30 4254 C 435.786 -0.716698 -1.94623 0
M  V30 4255 C 436.211 0.715415 -1.73964 0
M  V30 4256 O 435.569 1.49157 -1.03062 0
M  V30 4257 C 435.617 -1.0513 -3.44935 0
M  V30 4258 O 434.721 -0.160131 -4.12089 0
M  V30 4259 H 434.062 -0.266404 -0.608214 0
M  V30 4260 H 436.592 -1.35346 -1.53436 0
M  V30 4261 H 436.602 -1.00086 -3.95533 0
M  V30 4262 H 435.277 -2.09475 -3.59295 0
M  V30 4263 H 433.854 -0.267657 -3.71938 0
M  V30 4264 N 436.039 1.36541 -0.78704 0
M  V30 4265 C 437.285 1.99599 -0.358872 0
M  V30 4266 C 437.618 1.62323 1.06606 0
M  V30 4267 O 436.893 0.876858 1.73613 0
M  V30 4268 C 437.176 3.56327 -0.519944 0
M  V30 4269 C 437.029 4.03464 -1.98839 0
M  V30 4270 C 438.348 4.4005 0.0664737 0
M  V30 4271 H 435.467 0.725107 -0.131869 0
M  V30 4272 H 438.109 1.6199 -0.992936 0
M  V30 4273 H 436.259 3.88495 0.0198321 0
M  V30 4274 H 437.931 3.81793 -2.58905 0
M  V30 4275 H 436.174 3.55092 -2.49183 0
M  V30 4276 H 436.845 5.12439 -2.05207 0
M  V30 4277 H 439.321 4.14228 -0.394267 0
M  V30 4278 H 438.197 5.48847 -0.0762682 0
M  V30 4279 H 438.458 4.26655 1.15835 0
M  V30 4280 N 437.518 0.538854 1.48102 0
M  V30 4281 C 438.766 0.00798599 2.02098 0
M  V30 4282 C 439.087 -1.33922 1.41739 0
M  V30 4283 O 438.357 -1.86932 0.585934 0
M  V30 4284 H 436.937 -3.62179e-05 0.747 0
M  V30 4285 H 439.599 0.7047 1.81714 0
M  V30 4286 H 438.695 -0.0937672 3.11959 0
M  V30 4287 N 438.996 -1.55193 0.274407 0
M  V30 4288 C 439.959 -2.212 -0.600279 0
M  V30 4289 C 440.959 -1.18963 -1.08187 0
M  V30 4290 O 442.149 -1.43873 -0.982158 0
M  V30 4291 C 439.281 -2.87739 -1.82809 0
M  V30 4292 H 440.474 -2.9989 -0.0239682 0
M  V30 4293 H 438.027 -1.5628 0.0250192 0
M  V30 4294 H 438.762 -2.13058 -2.44493 0
M  V30 4295 H 438.547 -3.62658 -1.49069 0
M  V30 4296 H 440.037 -3.38171 -2.45011 0
M  V30 4297 N 440.474 -0.00167713 -1.576 0
M  V30 4298 C 441.384 1.00548 -2.1196 0
M  V30 4299 C 442.4 1.3758 -1.06526 0
M  V30 4300 O 443.576 1.46278 -1.38436 0
M  V30 4301 C 440.641 2.27809 -2.6135 0
M  V30 4302 C 439.702 1.97074 -3.81393 0
M  V30 4303 C 438.935 3.18267 -4.28417 0
M  V30 4304 O 439.158 4.30009 -3.74765 0
M  V30 4305 O 438.092 3.02167 -5.20556 0
M  V30 4306 H 441.918 0.573373 -2.98238 0
M  V30 4307 H 439.503 0.217255 -1.47812 0
M  V30 4308 H 441.385 3.02568 -2.93309 0
M  V30 4309 H 440.06 2.70254 -1.78169 0
M  V30 4310 H 438.967 1.19785 -3.54404 0
M  V30 4311 H 440.3 1.59464 -4.65652 0
M  V30 4312 N 441.952 1.55251 0.271103 0
M  V30 4313 C 442.882 1.9127 1.33933 0
M  V30 4314 C 443.863 0.77478 1.5143 0
M  V30 4315 O 445.048 1.03307 1.64442 0
M  V30 4316 C 442.178 2.18627 2.69851 0
M  V30 4317 C 441.132 3.34442 2.67081 0
M  V30 4318 C 440.458 3.47284 4.06569 0
M  V30 4319 C 441.758 4.70784 2.26185 0
M  V30 4320 H 443.452 2.80744 1.04035 0
M  V30 4321 H 440.998 1.35077 0.499017 0
M  V30 4322 H 442.951 2.42413 3.44694 0
M  V30 4323 H 441.675 1.25955 3.01335 0
M  V30 4324 H 440.334 3.10627 1.94695 0
M  V30 4325 H 439.982 2.52074 4.35279 0
M  V30 4326 H 439.682 4.25152 4.0561 0
M  V30 4327 H 441.206 3.73363 4.83148 0
M  V30 4328 H 442.62 4.94102 2.90751 0
M  V30 4329 H 441.017 5.51582 2.36384 0
M  V30 4330 H 442.087 4.69478 1.21319 0
M  V30 4331 N 443.43 -0.535701 1.48216 0
M  V30 4332 C 444.34 -1.66785 1.64985 0
M  V30 4333 C 445.356 -1.65654 0.532414 0
M  V30 4334 O 446.532 -1.8471 0.80275 0
M  V30 4335 C 443.597 -3.0326 1.68031 0
M  V30 4336 C 442.658 -3.1529 2.9136 0
M  V30 4337 C 441.891 -4.45255 2.94252 0
M  V30 4338 O 442.114 -5.32011 2.05719 0
M  V30 4339 O 441.048 -4.6153 3.86359 0
M  V30 4340 H 444.874 -1.55576 2.60825 0
M  V30 4341 H 442.459 -0.70815 1.31551 0
M  V30 4342 H 444.341 -3.84436 1.72589 0
M  V30 4343 H 443.016 -3.14805 0.753628 0
M  V30 4344 H 441.923 -2.3343 2.92337 0
M  V30 4345 H 443.256 -3.08658 3.83394 0
M  V30 4346 N 444.908 -1.36708 -0.784132 0
M  V30 4347 C 446.154 -1.31426 -1.54451 0
M  V30 4348 C 446.487 0.10476 -1.93917 0
M  V30 4349 O 445.762 1.05934 -1.6312 0
M  V30 4350 C 446.045 -2.24189 -2.818 0
M  V30 4351 C 445.898 -3.74813 -2.48667 0
M  V30 4352 C 447.217 -2.15626 -3.83658 0
M  V30 4353 H 444.336 -0.478739 -0.560337 0
M  V30 4354 H 446.978 -1.67305 -0.900498 0
M  V30 4355 H 445.128 -1.93722 -3.36755 0
M  V30 4356 H 446.8 -4.15823 -1.99722 0
M  V30 4357 H 445.043 -3.93989 -1.81535 0
M  V30 4358 H 445.714 -4.35138 -3.39646 0
M  V30 4359 H 448.19 -2.42456 -3.38163 0
M  V30 4360 H 447.066 -2.82694 -4.70506 0
M  V30 4361 H 447.327 -1.14522 -4.27009 0
M  V30 4362 N 446.386 1.0089 -1.21074 0
M  V30 4363 C 447.319 2.09279 -0.909806 0
M  V30 4364 C 448.297 1.61986 0.141145 0
M  V30 4365 O 449.481 1.88495 0.0130332 0
M  V30 4366 C 446.608 3.36723 -0.365374 0
M  V30 4367 C 445.654 4.02919 -1.39852 0
M  V30 4368 S 446.487 4.45835 -2.96633 0
M  V30 4369 C 447.643 5.76471 -2.43786 0
M  V30 4370 H 447.876 2.34484 -1.82769 0
M  V30 4371 H 445.409 1.14115 -1.04006 0
M  V30 4372 H 447.367 4.10459 -0.0578203 0
M  V30 4373 H 446.028 3.09577 0.531136 0
M  V30 4374 H 445.221 4.94634 -0.967117 0
M  V30 4375 H 444.823 3.35441 -1.65395 0
M  V30 4376 H 447.115 6.52027 -1.84029 0
M  V30 4377 H 448.058 6.24418 -3.33928 0
M  V30 4378 H 448.466 5.33104 -1.85636 0
M  V30 4379 N 447.864 1.01787 1.20321 0
M  V30 4380 C 448.827 0.593972 2.2137 0
M  V30 4381 C 449.827 -0.336553 1.57239 0
M  V30 4382 O 451.017 -0.125069 1.7375 0
M  V30 4383 C 448.149 -0.132433 3.40643 0
M  V30 4384 H 449.342 1.48791 2.60387 0
M  V30 4385 H 446.895 0.807803 1.33807 0
M  V30 4386 H 447.63 -1.04123 3.0713 0
M  V30 4387 H 447.415 0.53605 3.88418 0
M  V30 4388 H 448.905 -0.416314 4.1552 0
M  V30 4389 N 449.342 -1.36122 0.79427 0
M  V30 4390 C 450.753 -1.81646 0.431446 0
M  V30 4391 C 451.104 -1.66043 -1.04518 0
M  V30 4392 O 450.229 -1.1841 -1.8113 0
M  V30 4393 C 450.824 -3.29785 0.776341 0
M  V30 4394 C 449.383 -3.73501 0.466282 0
M  V30 4395 C 448.53 -2.58313 1.00844 0
M  V30 4396 H 451.481 -1.24274 0.986995 0
M  V30 4397 H 451.502 -3.80437 0.0692413 0
M  V30 4398 H 451.014 -3.4111 1.8511 0
M  V30 4399 H 449.115 -3.67733 -0.600245 0
M  V30 4400 H 449.228 -4.68754 0.990288 0
M  V30 4401 H 447.592 -2.5102 0.431406 0
M  V30 4402 H 448.375 -2.72421 2.08906 0
M  V30 4403 N 450.82 -0.546701 -1.47814 0
M  V30 4404 C 452.068 -0.0187037 -2.02091 0
M  V30 4405 C 452.389 1.33168 -1.42447 0
M  V30 4406 O 451.659 1.86619 -0.595839 0
M  V30 4407 H 450.239 -0.00392531 -0.74699 0
M  V30 4408 H 452.901 -0.714327 -1.81338 0
M  V30 4409 H 451.997 0.0772219 -3.12004 0
M  V30 4410 N 452.299 1.55045 -0.282633 0
M  V30 4411 C 453.262 2.21515 0.588539 0
M  V30 4412 C 454.262 1.19535 1.07554 0
M  V30 4413 O 455.452 1.44391 0.974514 0
M  V30 4414 C 452.584 2.88704 1.8128 0
M  V30 4415 H 453.777 2.99899 0.00806397 0
M  V30 4416 H 451.33 1.56265 -0.0333067 0
M  V30 4417 H 452.065 2.14352 2.43359 0
M  V30 4418 H 451.85 3.63443 1.47144 0
M  V30 4419 H 453.34 3.39465 2.43214 0
M  V30 4420 N 453.777 0.010035 1.57597 0
M  V30 4421 C 455.025 -0.671371 1.90623 0
M  V30 4422 C 455.346 -1.73753 0.885151 0
M  V30 4423 O 454.616 -1.95752 -0.0760611 0
M  V30 4424 H 453.196 -0.250968 0.703579 0
M  V30 4425 H 455.858 0.0533325 1.94827 0
M  V30 4426 H 454.954 -1.13626 2.90681 0
M  V30 4427 N 455.255 -1.55392 -0.262866 0
M  V30 4428 C 456.501 -1.76737 -0.99458 0
M  V30 4429 C 456.834 -0.572453 -1.85571 0
M  V30 4430 O 456.109 0.429732 -1.89693 0
M  V30 4431 C 456.392 -3.07824 -1.8686 0
M  V30 4432 C 456.245 -4.3769 -1.03672 0
M  V30 4433 C 457.564 -3.35021 -2.85393 0
M  V30 4434 H 454.683 -0.643005 -0.360157 0
M  V30 4435 H 457.325 -1.88126 -0.266216 0
M  V30 4436 H 455.475 -2.98245 -2.48962 0
M  V30 4437 H 457.147 -4.59238 -0.43563 0
M  V30 4438 H 455.39 -4.32461 -0.340513 0
M  V30 4439 H 456.061 -5.25759 -1.6817 0
M  V30 4440 H 458.537 -3.44458 -2.33426 0
M  V30 4441 H 457.413 -4.27989 -3.43681 0
M  V30 4442 H 457.674 -2.55153 -3.61039 0
M  V30 4443 N 456.733 0.527833 -1.48498 0
M  V30 4444 C 457.963 1.30633 -1.60058 0
M  V30 4445 C 458.371 1.87394 -0.260786 0
M  V30 4446 O 457.714 1.67227 0.760317 0
M  V30 4447 C 457.776 2.49361 -2.58958 0
M  V30 4448 C 457.44 2.13671 -4.03972 0
M  V30 4449 C 458.437 1.69217 -4.91591 0
M  V30 4450 C 456.122 2.24129 -4.49524 0
M  V30 4451 C 458.116 1.35689 -6.2279 0
M  V30 4452 C 455.803 1.90212 -5.80743 0
M  V30 4453 C 456.801 1.46063 -6.67199 0
M  V30 4454 O 456.489 1.12593 -7.95976 0
M  V30 4455 H 456.221 0.403444 -0.54241 0
M  V30 4456 H 458.775 0.643233 -1.95068 0
M  V30 4457 H 457.005 3.18659 -2.19073 0
M  V30 4458 H 458.694 3.11421 -2.6033 0
M  V30 4459 H 459.46 1.60607 -4.57636 0
M  V30 4460 H 455.339 2.57447 -3.82416 0
M  V30 4461 H 458.883 1.01157 -6.90227 0
M  V30 4462 H 454.78 1.98464 -6.14233 0
M  V30 4463 H 455.548 1.25972 -8.08748 0
M  V30 4464 N 458.211 1.37122 0.776871 0
M  V30 4465 C 459.436 1.354 1.57104 0
M  V30 4466 C 459.861 -0.0595562 1.88006 0
M  V30 4467 O 459.219 -1.03514 1.48844 0
M  V30 4468 C 459.267 2.19472 2.8612 0
M  V30 4469 O 458.371 1.59582 3.80273 0
M  V30 4470 H 457.712 0.462869 0.476076 0
M  V30 4471 H 460.242 1.80577 0.961932 0
M  V30 4472 H 460.252 2.32502 3.35271 0
M  V30 4473 H 458.927 3.22222 2.62956 0
M  V30 4474 H 457.504 1.55564 3.38902 0
M  V30 4475 N 459.689 -1.00246 1.21608 0
M  V30 4476 C 460.917 -1.77631 1.06089 0
M  V30 4477 C 461.332 -1.84746 -0.38916 0
M  V30 4478 O 460.689 -1.31068 -1.26994 0
M  V30 4479 C 460.74 -3.21415 1.65453 0
M  V30 4480 O 460.461 -3.14703 3.04785 0
M  V30 4481 C 461.962 -4.15289 1.55079 0
M  V30 4482 H 459.182 -0.558162 0.37242 0
M  V30 4483 H 461.726 -1.26093 1.60999 0
M  V30 4484 H 459.881 -3.70053 1.14629 0
M  V30 4485 H 460.295 -4.05056 3.33212 0
M  V30 4486 H 461.769 -5.13965 2.01355 0
M  V30 4487 H 462.246 -4.36279 0.505665 0
M  V30 4488 H 462.852 -3.72543 2.05163 0
M  V30 4489 N 461.167 -1.02423 -1.1978 0
M  V30 4490 C 462.397 -0.736387 -1.93031 0
M  V30 4491 C 462.805 0.708023 -1.75453 0
M  V30 4492 O 462.148 1.4927 -1.07071 0
M  V30 4493 C 462.21 -1.00194 -3.45255 0
M  V30 4494 C 461.874 -2.43698 -3.86601 0
M  V30 4495 C 462.871 -3.41814 -3.91738 0
M  V30 4496 C 460.556 -2.77975 -4.18372 0
M  V30 4497 C 462.55 -4.72265 -4.28071 0
M  V30 4498 C 460.237 -4.08636 -4.54378 0
M  V30 4499 C 461.235 -5.05592 -4.59201 0
M  V30 4500 O 460.923 -6.33914 -4.94376 0
M  V30 4501 H 460.655 -0.269116 -0.620123 0
M  V30 4502 H 463.209 -1.37043 -1.52998 0
M  V30 4503 H 461.439 -0.310747 -3.85449 0
M  V30 4504 H 463.128 -0.704488 -3.9974 0
M  V30 4505 H 463.894 -3.16671 -3.67348 0
M  V30 4506 H 459.773 -2.0319 -4.13805 0
M  V30 4507 H 463.317 -5.4794 -4.3175 0
M  V30 4508 H 459.214 -4.33556 -4.78226 0
M  V30 4509 H 459.982 -6.38317 -5.12341 0
M  V30 4510 N 462.645 1.35699 -0.801477 0
M  V30 4511 C 464.056 1.81415 -0.441073 0
M  V30 4512 C 464.407 1.66595 1.03636 0
M  V30 4513 O 463.532 1.19369 1.80499 0
M  V30 4514 C 464.127 3.29369 -0.793819 0
M  V30 4515 C 462.686 3.73248 -0.486083 0
M  V30 4516 C 461.833 2.57775 -1.02213 0
M  V30 4517 H 464.784 1.23749 -0.993572 0
M  V30 4518 H 464.805 3.80395 -0.0894158 0
M  V30 4519 H 464.317 3.40123 -1.86917 0
M  V30 4520 H 462.418 3.68046 0.580735 0
M  V30 4521 H 462.531 4.68222 -1.01513 0
M  V30 4522 H 460.895 2.50788 -0.444712 0
M  V30 4523 H 461.678 2.71309 -2.10348 0
M  V30 4524 N 464.123 0.554532 1.47522 0
M  V30 4525 C 465.351 0.034257 2.06872 0
M  V30 4526 C 465.766 -1.25826 1.40759 0
M  V30 4527 O 465.123 -1.75425 0.503217 0
M  V30 4528 C 465.174 -0.167827 3.6111 0
M  V30 4529 O 464.895 1.07351 4.24744 0
M  V30 4530 C 466.396 -0.72569 4.3732 0
M  V30 4531 H 463.616 0.0446275 0.669514 0
M  V30 4532 H 466.16 0.767181 1.89564 0
M  V30 4533 H 464.315 -0.850872 3.7794 0
M  V30 4534 H 464.729 0.869563 5.17242 0
M  V30 4535 H 466.203 -0.816394 5.45929 0
M  V30 4536 H 466.68 -1.73635 4.0342 0
M  V30 4537 H 467.286 -0.0784292 4.25228 0
M  V30 4538 N 465.601 -1.54893 0.290851 0
M  V30 4539 C 466.826 -2.04804 -0.32712 0
M  V30 4540 C 467.251 -1.16721 -1.47506 0
M  V30 4541 O 466.609 -0.169107 -1.8051 0
M  V30 4542 C 466.657 -3.52268 -0.770689 0
M  V30 4543 O 465.761 -3.67236 -1.87647 0
M  V30 4544 H 465.102 -0.660789 -0.0652227 0
M  V30 4545 H 467.632 -2.00036 0.429739 0
M  V30 4546 H 467.642 -3.9393 -1.06223 0
M  V30 4547 H 466.317 -4.15843 0.069096 0
M  V30 4548 H 464.894 -3.37479 -1.58626 0
M  V30 4549 N 467.08 -0.0183926 -1.57589 0
M  V30 4550 C 468.308 0.673046 -1.95647 0
M  V30 4551 C 468.723 1.66275 -0.894312 0
M  V30 4552 O 468.08 1.82072 0.124975 0
M  V30 4553 C 468.131 1.38884 -3.33756 0
M  V30 4554 O 467.852 0.438806 -4.35897 0
M  V30 4555 C 469.353 2.1731 -3.86383 0
M  V30 4556 H 466.573 0.186292 -0.644621 0
M  V30 4557 H 469.117 -0.0749748 -2.04363 0
M  V30 4558 H 467.272 2.08835 -3.26293 0
M  V30 4559 H 467.686 0.945869 -5.15901 0
M  V30 4560 H 469.16 2.62863 -4.85394 0
M  V30 4561 H 469.637 3.00764 -3.20059 0
M  V30 4562 H 470.243 1.52339 -3.97081 0
M  V30 4563 N 468.558 1.5553 0.254621 0
M  V30 4564 C 469.788 1.80784 1.00004 0
M  V30 4565 C 470.196 0.59071 1.79742 0
M  V30 4566 O 469.539 -0.449988 1.78103 0
M  V30 4567 C 469.601 2.99268 1.99196 0
M  V30 4568 C 469.265 4.35595 1.38224 0
M  V30 4569 C 470.262 5.13884 0.788611 0
M  V30 4570 C 467.947 4.82281 1.40393 0
M  V30 4571 C 469.941 6.37004 0.224783 0
M  V30 4572 C 467.628 6.05351 0.836243 0
M  V30 4573 C 468.626 6.82551 0.24769 0
M  V30 4574 O 468.314 8.03297 -0.311249 0
M  V30 4575 H 468.046 0.60565 0.300274 0
M  V30 4576 H 470.6 2.03411 0.285143 0
M  V30 4577 H 468.83 2.72377 2.74496 0
M  V30 4578 H 470.519 3.11682 2.60018 0
M  V30 4579 H 471.285 4.78938 0.764423 0
M  V30 4580 H 467.164 4.22189 1.85142 0
M  V30 4581 H 470.708 6.97203 -0.235235 0
M  V30 4582 H 466.605 6.39776 0.857733 0
M  V30 4583 H 467.373 8.1825 -0.20237 0
M  V30 4584 N 470.036 -0.519951 1.48776 0
M  V30 4585 C 470.999 -1.60574 1.6355 0
M  V30 4586 C 471.999 -1.52557 0.508234 0
M  V30 4587 O 473.189 -1.56047 0.774262 0
M  V30 4588 C 470.321 -3.00211 1.61512 0
M  V30 4589 H 471.514 -1.4881 2.60376 0
M  V30 4590 H 469.067 -0.742772 1.37523 0
M  V30 4591 H 469.802 -3.17471 0.662009 0
M  V30 4592 H 469.587 -3.07439 2.43359 0
M  V30 4593 H 471.077 -3.79134 1.75064 0
M  V30 4594 N 471.514 -1.37532 -0.769588 0
M  V30 4595 C 472.742 -1.36059 -1.55871 0
M  V30 4596 C 473.157 0.053544 -1.88724 0
M  V30 4597 O 472.514 1.01591 -1.5161 0
M  V30 4598 C 472.565 -2.20107 -2.86767 0
M  V30 4599 O 472.286 -3.56009 -2.55321 0
M  V30 4600 C 473.787 -2.26636 -3.80987 0
M  V30 4601 H 471.007 -0.465967 -0.482821 0
M  V30 4602 H 473.551 -1.80901 -0.953686 0
M  V30 4603 H 471.706 -1.78768 -3.43687 0
M  V30 4604 H 472.12 -4.0009 -3.39158 0
M  V30 4605 H 473.594 -2.89763 -4.69831 0
M  V30 4606 H 474.071 -1.2754 -4.20274 0
M  V30 4607 H 474.677 -2.68296 -3.29996 0
M  V30 4608 N 472.992 0.995999 -1.22138 0
M  V30 4609 C 473.922 2.10387 -1.01289 0
M  V30 4610 C 474.903 1.69975 0.0651454 0
M  V30 4611 O 476.088 1.9396 -0.0964628 0
M  V30 4612 C 473.218 3.42312 -0.586517 0
M  V30 4613 C 472.172 3.96558 -1.61014 0
M  V30 4614 C 471.498 5.24494 -1.0397 0
M  V30 4615 C 472.798 4.27595 -2.99933 0
M  V30 4616 H 474.492 2.28086 -1.93951 0
M  V30 4617 H 472.038 1.09607 -0.933928 0
M  V30 4618 H 473.991 4.19223 -0.427793 0
M  V30 4619 H 472.715 3.24431 0.375761 0
M  V30 4620 H 471.374 3.21776 -1.75658 0
M  V30 4621 H 471.022 5.02953 -0.0688703 0
M  V30 4622 H 470.722 5.61755 -1.72352 0
M  V30 4623 H 472.246 6.04042 -0.892494 0
M  V30 4624 H 473.66 4.95315 -2.8868 0
M  V30 4625 H 472.057 4.76021 -3.6541 0
M  V30 4626 H 473.127 3.35498 -3.50099 0
M  V30 4627 N 474.47 1.03057 1.19235 0
M  V30 4628 C 475.418 0.606391 2.24557 0
M  V30 4629 C 476.412 -0.361826 1.65491 0
M  V30 4630 O 477.618 -0.23022 1.78522 0
M  V30 4631 H 473.993 0.177838 0.730669 0
M  V30 4632 H 475.964 1.50529 2.5765 0
M  V30 4633 C 474.713 -0.0252127 3.47691 0
M  V30 4634 H 474.036 0.710838 3.9343 0
M  V30 4635 H 475.476 -0.284931 4.23042 0
M  V30 4636 C 473.935 -1.27229 3.11953 0
M  V30 4637 O 474.465 -2.36416 3.24762 0
M  V30 4638 N 472.671 -1.16169 2.6637 0
M  V30 4639 H 472.218 -0.273189 2.56147 0
M  V30 4640 H 472.176 -1.99703 2.42829 0
M  V30 4641 N 475.948 -1.35272 0.808662 0
M  V30 4642 C 477.196 -1.98316 0.389233 0
M  V30 4643 C 477.517 -1.64465 -1.04767 0
M  V30 4644 O 476.787 -0.928175 -1.72516 0
M  V30 4645 H 475.367 -0.733585 0.140935 0
M  V30 4646 H 478.029 -1.6515 1.03496 0
M  V30 4647 H 477.125 -3.08123 0.496631 0
M  V30 4648 N 477.426 -0.562348 -1.47226 0
M  V30 4649 C 478.654 -0.0452275 -2.06851 0
M  V30 4650 C 479.069 1.25078 -1.41424 0
M  V30 4651 O 478.426 1.75156 -0.512513 0
M  V30 4652 C 478.477 0.148674 -3.61194 0
M  V30 4653 O 478.198 -1.09602 -4.24169 0
M  V30 4654 C 479.699 0.702488 -4.37699 0
M  V30 4655 H 476.919 -0.0481775 -0.669268 0
M  V30 4656 H 479.463 -0.777223 -1.89155 0
M  V30 4657 H 477.618 0.830817 -3.78386 0
M  V30 4658 H 478.032 -0.896982 -5.16773 0
M  V30 4659 H 479.506 0.78743 -5.46355 0
M  V30 4660 H 479.983 1.71493 -4.04335 0
M  V30 4661 H 480.589 0.0558772 -4.25263 0
M  V30 4662 N 478.904 1.54736 -0.299062 0
M  V30 4663 C 480.129 2.04975 0.316254 0
M  V30 4664 C 480.554 1.17501 1.46885 0
M  V30 4665 O 479.912 0.178678 1.80417 0
M  V30 4666 C 479.96 3.52672 0.751997 0
M  V30 4667 O 479.064 3.68226 1.85697 0
M  V30 4668 H 478.405 0.661126 0.0617175 0
M  V30 4669 H 480.935 1.99805 -0.440341 0
M  V30 4670 H 480.945 3.94488 1.04133 0
M  V30 4671 H 479.62 4.158 -0.0911482 0
M  V30 4672 H 478.197 3.38316 1.56834 0
M  V30 4673 N 480.382 0.0267497 1.57577 0
M  V30 4674 C 481.315 -0.99059 2.05579 0
M  V30 4675 C 482.293 -1.31884 0.951065 0
M  V30 4676 O 483.477 -1.43592 1.22121 0
M  V30 4677 C 480.604 -2.31125 2.47586 0
M  V30 4678 C 479.65 -2.13777 3.69055 0
M  V30 4679 S 480.483 -1.4388 5.15809 0
M  V30 4680 C 481.639 -2.77321 5.6111 0
M  V30 4681 H 481.872 -0.581976 2.91548 0
M  V30 4682 H 479.405 -0.184876 1.53289 0
M  V30 4683 H 481.363 -3.07049 2.72454 0
M  V30 4684 H 480.024 -2.6912 1.61967 0
M  V30 4685 H 479.217 -3.11405 3.96287 0
M  V30 4686 H 478.819 -1.45996 3.44327 0
M  V30 4687 H 481.111 -3.73565 5.65204 0
M  V30 4688 H 482.054 -2.54756 6.60685 0
M  V30 4689 H 482.462 -2.82459 4.88751 0
M  V30 4690 N 481.861 -1.55662 -0.24637 0
M  V30 4691 C 482.824 -1.89558 -1.28842 0
M  V30 4692 C 483.824 -0.772082 -1.41052 0
M  V30 4693 O 485.014 -1.04007 -1.39743 0
M  V30 4694 C 482.146 -2.12449 -2.66605 0
M  V30 4695 H 483.339 -2.82735 -1.00004 0
M  V30 4696 H 480.892 -1.48562 -0.485684 0
M  V30 4697 H 481.627 -1.21742 -3.00582 0
M  V30 4698 H 481.412 -2.94273 -2.59125 0
M  V30 4699 H 482.902 -2.39854 -3.41847 0
M  V30 4700 N 483.339 0.512053 -1.4905 0
M  V30 4701 C 484.564 1.2959 -1.6193 0
M  V30 4702 C 484.989 1.85906 -0.286454 0
M  V30 4703 O 484.347 1.65312 0.744426 0
M  V30 4704 C 484.395 2.40987 -2.68249 0
M  V30 4705 O 483.499 3.44531 -2.26654 0
M  V30 4706 H 482.84 0.383053 -0.542371 0
M  V30 4707 H 485.37 0.614231 -1.95162 0
M  V30 4708 H 485.38 2.86913 -2.90078 0
M  V30 4709 H 484.055 1.99361 -3.65004 0
M  V30 4710 H 482.632 3.046 -2.15112 0
M  V30 4711 N 484.817 1.37938 0.762283 0
M  V30 4712 C 486.228 1.30094 1.33912 0
M  V30 4713 C 486.579 -0.0472026 1.96143 0
M  V30 4714 O 485.704 -0.94917 1.94473 0
M  V30 4715 C 486.299 2.35592 2.43478 0
M  V30 4716 C 484.858 2.31353 2.96905 0
M  V30 4717 C 484.005 2.18919 1.70205 0
M  V30 4718 H 486.956 1.48423 0.561816 0
M  V30 4719 H 486.977 2.00806 3.23199 0
M  V30 4720 H 486.489 3.33701 1.98155 0
M  V30 4721 H 484.59 1.36799 3.46579 0
M  V30 4722 H 484.703 3.25147 3.51875 0
M  V30 4723 H 483.067 1.65624 1.93496 0
M  V30 4724 H 483.85 3.18956 1.26973 0
M  V30 4725 N 486.295 -0.989507 1.22664 0
M  V30 4726 C 487.245 -2.06478 0.967005 0
M  V30 4727 C 488.229 -1.60682 -0.0836374 0
M  V30 4728 O 489.421 -1.76541 0.127322 0
M  V30 4729 C 486.55 -3.38861 0.550313 0
M  V30 4730 C 485.636 -3.9128 1.63587 0
M  V30 4731 N 486.027 -4.16884 2.86429 0
M  V30 4732 C 484.325 -4.1972 1.50834 0
M  V30 4733 C 485.026 -4.5954 3.56648 0
M  V30 4734 N 484.002 -4.63434 2.84131 0
M  V30 4735 H 487.804 -2.24219 1.90008 0
M  V30 4736 H 485.318 -1.17153 1.12467 0
M  V30 4737 H 487.315 -4.15465 0.345612 0
M  V30 4738 H 485.975 -3.22518 -0.375822 0
M  V30 4739 H 486.986 -4.04976 3.22823 0
M  V30 4740 H 483.663 -4.1243 0.648643 0
M  V30 4741 H 485.053 -4.87944 4.61909 0
M  V30 4742 N 487.773 -1.03688 -1.18687 0
M  V30 4743 C 489.019 -0.739123 -1.88851 0
M  V30 4744 C 489.352 0.731042 -1.79915 0
M  V30 4745 O 488.627 1.53313 -1.19688 0
M  V30 4746 C 488.91 -1.20106 -3.3948 0
M  V30 4747 C 488.763 -2.73304 -3.57246 0
M  V30 4748 C 490.082 -0.788134 -4.32986 0
M  V30 4749 H 487.201 -0.269978 -0.68577 0
M  V30 4750 H 489.843 -1.28822 -1.3966 0
M  V30 4751 H 487.993 -0.733915 -3.81505 0
M  V30 4752 H 489.665 -3.28027 -3.24339 0
M  V30 4753 H 487.908 -3.13313 -3.00029 0
M  V30 4754 H 488.579 -3.00684 -4.62918 0
M  V30 4755 H 491.055 -1.19005 -3.98719 0
M  V30 4756 H 489.931 -1.13915 -5.36949 0
M  V30 4757 H 490.192 0.308988 -4.41019 0
M  V30 4758 N 489.251 1.34841 -0.815825 0
M  V30 4759 C 490.214 2.27959 -0.238185 0
M  V30 4760 C 491.214 1.49983 0.579816 0
M  V30 4761 O 492.404 1.69617 0.396953 0
M  V30 4762 C 489.536 3.34314 0.666876 0
M  V30 4763 H 490.729 2.80558 -1.05958 0
M  V30 4764 H 488.282 1.44852 -0.587156 0
M  V30 4765 H 489.017 2.86916 1.5116 0
M  V30 4766 H 488.802 3.92014 0.0819106 0
M  V30 4767 H 490.292 4.0379 1.06506 0
M  V30 4768 N 490.729 0.570148 1.46925 0
M  V30 4769 C 491.977 0.0508523 2.02036 0
M  V30 4770 C 492.298 -1.30885 1.44548 0
M  V30 4771 O 491.568 -1.85647 0.625453 0
M  V30 4772 H 490.148 0.0158088 0.746833 0
M  V30 4773 H 492.81 0.743086 1.80178 0
M  V30 4774 H 491.906 -0.027575 3.12088 0
M  V30 4775 N 492.207 -1.54576 0.307264 0
M  V30 4776 C 493.17 -2.22423 -0.553224 0
M  V30 4777 C 494.17 -1.21231 -1.05639 0
M  V30 4778 O 495.36 -1.45923 -0.951419 0
M  V30 4779 C 492.492 -2.91552 -1.76664 0
M  V30 4780 H 493.685 -2.99874 0.0396484 0
M  V30 4781 H 491.238 -1.56192 0.0581629 0
M  V30 4782 H 491.973 -2.18196 -2.39918 0
M  V30 4783 H 491.758 -3.65738 -1.41343 0
M  V30 4784 H 493.248 -3.43292 -2.37783 0
M  V30 4785 N 493.685 -0.035106 -1.57561 0
M  V30 4786 C 494.648 0.929819 -2.09492 0
M  V30 4787 C 495.648 1.25026 -1.01119 0
M  V30 4788 O 496.838 1.18961 -1.27255 0
M  V30 4789 C 493.97 2.24457 -2.56577 0
M  V30 4790 H 495.163 0.479935 -2.96035 0
M  V30 4791 H 492.716 0.213033 -1.54841 0
M  V30 4792 H 493.451 2.74061 -1.73382 0
M  V30 4793 H 493.236 2.02508 -3.35757 0
M  V30 4794 H 494.726 2.93607 -2.96959 0
M  V30 4795 N 495.163 1.55791 0.238111 0
M  V30 4796 C 496.126 1.90239 1.27835 0
M  V30 4797 C 497.126 0.779552 1.4064 0
M  V30 4798 O 498.316 1.04747 1.3919 0
M  V30 4799 C 495.448 2.13859 2.65475 0
M  V30 4800 H 496.641 2.83262 0.985034 0
M  V30 4801 H 494.194 1.48818 0.477799 0
M  V30 4802 H 494.929 1.23334 2.99932 0
M  V30 4803 H 494.714 2.95643 2.57561 0
M  V30 4804 H 496.204 2.41664 3.40571 0
M  V30 4805 N 496.642 -0.504142 1.49319 0
M  V30 4806 C 497.572 -1.61473 1.68667 0
M  V30 4807 C 498.553 -1.61455 0.535378 0
M  V30 4808 O 499.738 -1.78245 0.770868 0
M  V30 4809 C 496.868 -2.99971 1.75028 0
M  V30 4810 C 495.822 -3.14854 2.89916 0
M  V30 4811 C 495.148 -4.54671 2.81387 0
M  V30 4812 C 496.448 -2.95176 4.30893 0
M  V30 4813 H 498.142 -1.45535 2.61648 0
M  V30 4814 H 495.688 -0.698711 1.25913 0
M  V30 4815 H 497.641 -3.77562 1.8715 0
M  V30 4816 H 496.365 -3.1699 0.786441 0
M  V30 4817 H 495.024 -2.39687 2.77391 0
M  V30 4818 H 494.672 -4.68562 1.82917 0
M  V30 4819 H 494.372 -4.6557 3.58494 0
M  V30 4820 H 495.896 -5.34327 2.95512 0
M  V30 4821 H 497.31 -3.62538 4.44116 0
M  V30 4822 H 495.707 -3.17549 5.09198 0
M  V30 4823 H 496.777 -1.91332 4.45556 0
M  V30 4824 N 498.12 -1.38341 -0.754957 0
M  V30 4825 C 499.369 -1.33791 -1.5094 0
M  V30 4826 C 499.682 0.0699267 -1.95475 0
M  V30 4827 O 500.888 0.237956 -2.70455 0
M  V30 4828 C 499.344 -2.34934 -2.72643 0
M  V30 4829 C 498.952 -3.81332 -2.35138 0
M  V30 4830 C 500.696 -2.39425 -3.50536 0
M  V30 4831 C 498.603 -4.74164 -3.53444 0
M  V30 4832 H 497.533 -0.497314 -0.566741 0
M  V30 4833 H 500.184 -1.63888 -0.825403 0
M  V30 4834 H 498.566 -1.97878 -3.43017 0
M  V30 4835 H 499.74 -4.27319 -1.7244 0
M  V30 4836 H 498.055 -3.79946 -1.70382 0
M  V30 4837 H 500.652 -3.0598 -4.38498 0
M  V30 4838 H 500.995 -1.41278 -3.91594 0
M  V30 4839 H 501.528 -2.75274 -2.87174 0
M  V30 4840 H 498.267 -5.73501 -3.17453 0
M  V30 4841 H 497.787 -4.3287 -4.15191 0
M  V30 4842 H 499.466 -4.92111 -4.20043 0
M  V30 4843 N 499.598 0.982988 -1.23187 0
M  V30 4844 C 500.528 2.09301 -1.03515 0
M  V30 4845 C 501.509 1.70035 0.0471136 0
M  V30 4846 O 502.694 1.93847 -0.117029 0
M  V30 4847 C 499.824 3.4167 -0.622791 0
M  V30 4848 C 498.778 3.94828 -1.65211 0
M  V30 4849 C 498.104 5.23362 -1.09527 0
M  V30 4850 C 499.404 4.2439 -3.04451 0
M  V30 4851 H 501.098 2.26016 -1.96359 0
M  V30 4852 H 498.644 1.08611 -0.945501 0
M  V30 4853 H 500.597 4.18746 -0.472233 0
M  V30 4854 H 499.321 3.24811 0.341329 0
M  V30 4855 H 497.98 3.19895 -1.79061 0
M  V30 4856 H 497.628 5.02852 -0.122211 0
M  V30 4857 H 497.328 5.59895 -1.783 0
M  V30 4858 H 498.852 6.03062 -0.956511 0
M  V30 4859 H 500.266 4.92225 -2.93917 0
M  V30 4860 H 498.663 4.72118 -3.70438 0
M  V30 4861 H 499.733 3.31765 -3.53638 0
M  V30 4862 N 501.076 1.04316 1.18135 0
M  V30 4863 C 502.301 0.768047 1.92655 0
M  V30 4864 C 502.726 -0.66904 1.758 0
M  V30 4865 O 502.084 -1.46372 1.06981 0
M  V30 4866 C 502.132 1.14239 3.42026 0
M  V30 4867 O 501.236 0.269333 4.1152 0
M  V30 4868 H 500.577 0.282436 0.600937 0
M  V30 4869 H 503.107 1.39367 1.49793 0
M  V30 4870 H 503.117 1.10538 3.92741 0
M  V30 4871 H 501.792 2.18928 3.53615 0
M  V30 4872 H 500.369 0.366175 3.71098 0
M  V30 4873 N 502.554 -1.34406 0.822964 0
M  V30 4874 C 503.501 -2.29519 0.24284 0
M  V30 4875 C 504.471 -1.5359 -0.632397 0
M  V30 4876 O 505.656 -1.8196 -0.57403 0
M  V30 4877 C 502.796 -3.40032 -0.58925 0
M  V30 4878 C 501.909 -4.30899 0.308236 0
M  V30 4879 C 501.044 -5.28515 -0.533425 0
M  V30 4880 C 500.083 -6.1102 0.363444 0
M  V30 4881 N 499.22 -7.00725 -0.439147 0
M  V30 4882 H 504.06 -2.78537 1.05929 0
M  V30 4883 H 501.597 -1.3707 0.533872 0
M  V30 4884 H 503.555 -4.0279 -1.087 0
M  V30 4885 H 502.185 -2.92248 -1.37081 0
M  V30 4886 H 501.237 -3.69002 0.924203 0
M  V30 4887 H 502.549 -4.88717 0.997862 0
M  V30 4888 H 501.703 -5.96725 -1.09565 0
M  V30 4889 H 500.442 -4.71235 -1.25656 0
M  V30 4890 H 499.447 -5.41743 0.937812 0
M  V30 4891 H 500.672 -6.70381 1.08469 0
M  V30 4892 H 498.618 -6.45913 -1.14595 0
M  V30 4893 H 498.535 -7.55756 0.19209 0
M  V30 4894 H 499.803 -7.73263 -0.984124 0
M  V30 4895 N 504.032 -0.577932 -1.46621 0
M  V30 4896 C 504.982 0.178869 -2.27297 0
M  V30 4897 C 505.966 0.866279 -1.35589 0
M  V30 4898 O 507.158 0.761163 -1.59798 0
M  V30 4899 C 504.287 1.19499 -3.2183 0
M  V30 4900 C 503.373 0.50994 -4.21023 0
M  V30 4901 N 503.764 -0.43177 -5.03954 0
M  V30 4902 C 502.062 0.761287 -4.39455 0
M  V30 4903 C 502.763 -0.831693 -5.75724 0
M  V30 4904 N 501.739 -0.181897 -5.43296 0
M  V30 4905 H 505.541 -0.544859 -2.88805 0
M  V30 4906 H 503.055 -0.399373 -1.57413 0
M  V30 4907 H 505.052 1.75131 -3.78332 0
M  V30 4908 H 503.712 1.91959 -2.61881 0
M  V30 4909 H 504.723 -0.807045 -5.11573 0
M  V30 4910 H 501.4 1.47282 -3.90659 0
M  V30 4911 H 502.79 -1.6067 -6.52407 0
M  V30 4912 N 505.51 1.54411 -0.315457 0
M  V30 4913 C 506.921 1.85885 0.174265 0
M  V30 4914 C 507.272 1.23723 1.52273 0
M  V30 4915 O 506.397 0.540246 2.09548 0
M  V30 4916 C 506.992 3.37257 0.322981 0
M  V30 4917 C 505.551 3.68711 0.756922 0
M  V30 4918 C 504.698 2.77013 -0.126195 0
M  V30 4919 H 507.649 1.49374 -0.536007 0
M  V30 4920 H 507.67 3.62539 1.15522 0
M  V30 4921 H 507.182 3.82471 -0.658602 0
M  V30 4922 H 505.283 3.29024 1.74854 0
M  V30 4923 H 505.396 4.75741 0.566291 0
M  V30 4924 H 503.76 2.51588 0.39692 0
M  V30 4925 H 504.543 3.25051 -1.1044 0
M  V30 4926 N 506.988 0.0434614 1.5754 0
M  V30 4927 C 507.936 -0.951465 2.1225 0
M  V30 4928 C 508.93 -1.3274 1.05245 0
M  V30 4929 O 510.136 -1.30795 1.23663 0
M  V30 4930 H 506.511 -0.324667 0.678303 0
M  V30 4931 H 508.482 -0.464855 2.94757 0
M  V30 4932 C 507.231 -2.21972 2.67626 0
M  V30 4933 H 506.554 -1.93923 3.4962 0
M  V30 4934 H 507.994 -2.89765 3.09536 0
M  V30 4935 C 506.453 -2.95919 1.61038 0
M  V30 4936 O 506.983 -3.8857 1.01862 0
M  V30 4937 N 505.189 -2.58511 1.32741 0
M  V30 4938 H 504.736 -1.83244 1.81051 0
M  V30 4939 H 504.694 -3.08296 0.616531 0
M  V30 4940 N 508.466 -1.55915 -0.229846 0
M  V30 4941 C 509.396 -1.94754 -1.28815 0
M  V30 4942 C 510.377 -0.814657 -1.49323 0
M  V30 4943 O 511.562 -1.07631 -1.61645 0
M  V30 4944 C 508.692 -2.25705 -2.63959 0
M  V30 4945 C 507.646 -3.41406 -2.5812 0
M  V30 4946 C 506.972 -3.57941 -3.97218 0
M  V30 4947 C 508.272 -4.76616 -2.13623 0
M  V30 4948 H 509.966 -2.83404 -0.965547 0
M  V30 4949 H 507.512 -1.36353 -0.463028 0
M  V30 4950 H 509.465 -2.51467 -3.38146 0
M  V30 4951 H 508.189 -1.339 -2.9789 0
M  V30 4952 H 506.848 -3.1568 -1.86391 0
M  V30 4953 H 506.496 -2.63526 -4.28443 0
M  V30 4954 H 506.196 -4.35757 -3.94195 0
M  V30 4955 H 507.72 -3.86042 -4.73079 0
M  V30 4956 H 509.134 -5.01637 -2.77549 0
M  V30 4957 H 507.531 -5.57655 -2.21677 0
M  V30 4958 H 508.601 -4.7253 -1.08829 0
M  V30 4959 N 509.944 0.496216 -1.49584 0
M  V30 4960 C 511.169 1.27865 -1.63295 0
M  V30 4961 C 511.594 1.85592 -0.306156 0
M  V30 4962 O 510.952 1.66092 0.726851 0
M  V30 4963 C 511 2.38128 -2.7079 0
M  V30 4964 O 510.104 3.42108 -2.30296 0
M  V30 4965 H 509.445 0.377279 -0.546403 0
M  V30 4966 H 511.975 0.593497 -1.95803 0
M  V30 4967 H 511.985 2.8382 -2.93104 0
M  V30 4968 H 510.66 1.95479 -3.67098 0
M  V30 4969 H 509.237 3.02301 -2.18331 0
M  V30 4970 N 511.423 1.38739 0.74761 0
M  V30 4971 C 512.386 1.36241 1.84312 0
M  V30 4972 C 513.386 0.261811 1.58654 0
M  V30 4973 O 514.576 0.519031 1.66288 0
M  V30 4974 C 511.708 1.12253 3.21888 0
M  V30 4975 H 512.901 2.33712 1.87933 0
M  V30 4976 H 510.454 1.2412 0.949946 0
M  V30 4977 H 511.189 0.154133 3.23934 0
M  V30 4978 H 510.974 1.91943 3.41907 0
M  V30 4979 H 512.464 1.13215 4.0196 0
M  V30 4980 N 512.901 -0.976442 1.23707 0
M  V30 4981 C 514.126 -1.75875 1.09922 0
M  V30 4982 C 514.551 -1.84911 -0.34489 0
M  V30 4983 O 513.909 -1.31363 -1.24954 0
M  V30 4984 C 513.957 -3.16179 1.73388 0
M  V30 4985 O 513.061 -4.00124 0.99871 0
M  V30 4986 H 512.402 -0.540954 0.385052 0
M  V30 4987 H 514.932 -1.22546 1.6384 0
M  V30 4988 H 514.942 -3.66741 1.78788 0
M  V30 4989 H 513.617 -3.08917 2.78466 0
M  V30 4990 H 512.194 -3.58624 1.02193 0
M  V30 4991 N 514.379 -1.04941 -1.1758 0
M  V30 4992 C 515.311 -0.606174 -2.21039 0
M  V30 4993 C 516.324 0.328763 -1.59446 0
M  V30 4994 O 517.513 0.121895 -1.78083 0
M  V30 4995 C 514.613 0.133294 -3.38638 0
M  V30 4996 C 513.786 -0.811711 -4.29802 0
M  V30 4997 C 512.845 -0.113958 -5.26077 0
M  V30 4998 O 511.871 -0.747237 -5.64274 0
M  V30 4999 N 513.073 1.14953 -5.69004 0
M  V30 5000 H 515.838 -1.49606 -2.59689 0
M  V30 5001 H 513.399 -0.930997 -1.32454 0
M  V30 5002 H 515.391 0.610144 -4.00074 0
M  V30 5003 H 513.961 0.924816 -2.98607 0
M  V30 5004 H 513.181 -1.46824 -3.65837 0
M  V30 5005 H 514.469 -1.45326 -4.87604 0
M  V30 5006 H 513.867 1.68441 -5.40041 0
M  V30 5007 H 512.424 1.57049 -6.32597 0
M  V30 5008 N 515.857 1.33968 -0.830081 0
M  V30 5009 C 517.103 1.98357 -0.422191 0
M  V30 5010 C 517.436 1.65633 1.01387 0
M  V30 5011 O 516.711 0.931648 1.70735 0
M  V30 5012 C 516.994 3.54492 -0.633043 0
M  V30 5013 C 516.847 3.96934 -2.11574 0
M  V30 5014 C 518.166 4.40039 -0.0735584 0
M  V30 5015 H 515.285 0.720544 -0.154871 0
M  V30 5016 H 517.927 1.58749 -1.04397 0
M  V30 5017 H 516.077 3.88361 -0.103775 0
M  V30 5018 H 517.749 3.73363 -2.7092 0
M  V30 5019 H 515.992 3.46984 -2.60354 0
M  V30 5020 H 516.663 5.05651 -2.21406 0
M  V30 5021 H 519.139 4.12764 -0.52585 0
M  V30 5022 H 518.015 5.48327 -0.250841 0
M  V30 5023 H 518.276 4.30124 1.02202 0
M  V30 5024 N 517.335 0.585699 1.46312 0
M  V30 5025 C 518.751 0.247607 1.57668 0
M  V30 5026 C 518.951 -1.25007 1.58037 0
M  V30 5027 O 518.007 -2.03196 1.49893 0
M  V30 5028 C 519.32 0.899456 2.86933 0
M  V30 5029 C 520.868 0.873326 3.00569 0
M  V30 5030 C 521.343 1.50477 4.32574 0
M  V30 5031 N 522.834 1.46925 4.3928 0
M  V30 5032 C 523.569 1.92719 5.40044 0
M  V30 5033 N 523.065 2.46499 6.47464 0
M  V30 5034 N 524.858 1.83617 5.31264 0
M  V30 5035 H 517.009 1.55841 1.44317 0
M  V30 5036 H 519.272 0.651564 0.688599 0
M  V30 5037 H 518.978 1.95313 2.92482 0
M  V30 5038 H 518.852 0.409476 3.74971 0
M  V30 5039 H 521.239 -0.171736 2.946 0
M  V30 5040 H 521.32 1.40136 2.13999 0
M  V30 5041 H 520.964 2.54905 4.39302 0
M  V30 5042 H 520.894 0.951944 5.17924 0
M  V30 5043 H 523.385 1.07616 3.62253 0
M  V30 5044 H 523.698 2.79291 7.20567 0
M  V30 5045 H 522.043 2.50526 6.48276 0
M  V30 5046 H 525.234 1.41358 4.46246 0
M  V30 5047 H 525.407 2.19622 6.09648 0
M  V30 5048 N 518.813 -1.54241 0.323641 0
M  V30 5049 C 519.761 -2.25813 -0.557804 0
M  V30 5050 C 520.755 -1.27225 -1.11849 0
M  V30 5051 O 521.961 -1.45001 -1.06652 0
M  V30 5052 H 518.336 -0.72532 -0.198532 0
M  V30 5053 H 520.307 -2.98322 0.0681112 0
M  V30 5054 C 519.056 -3.02913 -1.70701 0
M  V30 5055 H 518.379 -3.78593 -1.28482 0
M  V30 5056 H 519.819 -3.56238 -2.29935 0
M  V30 5057 C 518.278 -2.11217 -2.62467 0
M  V30 5058 O 518.808 -1.69508 -3.64184 0
M  V30 5059 N 517.014 -1.76704 -2.30703 0
M  V30 5060 H 516.561 -2.1082 -1.48029 0
M  V30 5061 H 516.519 -1.15631 -2.92364 0
M  V30 5062 N 520.291 -0.0518155 -1.57515 0
M  V30 5063 C 521.707 0.304735 -1.56664 0
M  V30 5064 C 521.907 1.71395 -1.05953 0
M  V30 5065 O 520.963 2.42123 -0.716414 0
M  V30 5066 C 522.276 0.132614 -3.00407 0
M  V30 5067 C 523.824 0.20367 -3.12337 0
M  V30 5068 C 524.299 0.0600706 -4.57961 0
M  V30 5069 N 525.79 0.116326 -4.63054 0
M  V30 5070 C 526.525 0.0293363 -5.73392 0
M  V30 5071 N 526.021 -0.110038 -6.92713 0
M  V30 5072 N 527.814 0.0849651 -5.62036 0
M  V30 5073 H 519.965 -0.973056 -1.888 0
M  V30 5074 H 522.228 -0.377781 -0.869474 0
M  V30 5075 H 521.934 -0.839019 -3.41546 0
M  V30 5076 H 521.808 0.893376 -3.66468 0
M  V30 5077 H 524.195 1.16578 -2.71097 0
M  V30 5078 H 524.276 -0.587857 -2.48954 0
M  V30 5079 H 523.92 -0.898715 -4.99886 0
M  V30 5080 H 523.85 0.87075 -5.19351 0
M  V30 5081 H 526.341 0.22327 -3.7724 0
M  V30 5082 H 526.654 -0.169104 -7.72615 0
M  V30 5083 H 524.999 -0.145132 -6.94848 0
M  V30 5084 H 528.19 0.192411 -4.67704 0
M  V30 5085 H 528.363 0.0137131 -6.47999 0
M  V30 5086 N 521.769 1.56035 0.221574 0
M  V30 5087 C 522.699 1.95434 1.2778 0
M  V30 5088 C 523.68 0.822564 1.48889 0
M  V30 5089 O 524.865 1.08486 1.61072 0
M  V30 5090 C 521.995 2.27102 2.62759 0
M  V30 5091 C 520.949 3.4277 2.56306 0
M  V30 5092 C 520.275 3.60043 3.95314 0
M  V30 5093 C 521.575 4.77742 2.11093 0
M  V30 5094 H 523.269 2.83912 0.950504 0
M  V30 5095 H 520.815 1.36596 0.455791 0
M  V30 5096 H 522.768 2.53256 3.36807 0
M  V30 5097 H 521.492 1.35478 2.97176 0
M  V30 5098 H 520.151 3.16664 1.84715 0
M  V30 5099 H 519.799 2.65794 4.27039 0
M  V30 5100 H 519.499 4.37841 3.91879 0
M  V30 5101 H 521.023 3.88545 4.71025 0
M  V30 5102 H 522.437 5.03102 2.74885 0
M  V30 5103 H 520.834 5.58823 2.18716 0
M  V30 5104 H 521.904 4.731 1.06321 0
M  V30 5105 N 523.247 -0.488276 1.49845 0
M  V30 5106 C 524.472 -1.26997 1.63971 0
M  V30 5107 C 524.897 -1.85427 0.315994 0
M  V30 5108 O 524.255 -1.66475 -0.718032 0
M  V30 5109 C 524.303 -2.36689 2.72049 0
M  V30 5110 O 523.407 -3.40882 2.32107 0
M  V30 5111 H 522.748 -0.374376 0.548396 0
M  V30 5112 H 525.278 -0.583104 1.96115 0
M  V30 5113 H 525.288 -2.82262 2.94605 0
M  V30 5114 H 523.963 -1.93529 3.68129 0
M  V30 5115 H 522.54 -3.01139 2.19931 0
M  V30 5116 N 524.725 -1.39134 -0.740242 0
M  V30 5117 C 525.95 -1.39518 -1.53459 0
M  V30 5118 C 526.375 0.00968883 -1.88098 0
M  V30 5119 O 525.733 0.995312 -1.51536 0
M  V30 5120 C 525.781 -2.26981 -2.802 0
M  V30 5121 O 524.885 -1.69609 -3.75908 0
M  V30 5122 H 524.226 -0.475328 -0.463637 0
M  V30 5123 H 526.756 -1.83064 -0.913717 0
M  V30 5124 H 526.766 -2.41309 -3.28989 0
M  V30 5125 H 525.441 -3.29081 -2.5432 0
M  V30 5126 H 524.018 -1.64495 -3.34658 0
M  V30 5127 N 526.204 0.969867 -1.24223 0
M  V30 5128 C 527.432 1.74756 -1.10761 0
M  V30 5129 C 527.847 1.85713 0.340041 0
M  V30 5130 O 527.204 1.34389 1.23474 0
M  V30 5131 C 527.255 3.16915 -1.73917 0
M  V30 5132 O 526.976 3.06511 -3.13021 0
M  V30 5133 C 528.477 4.11032 -1.66036 0
M  V30 5134 H 525.697 0.548092 -0.387087 0
M  V30 5135 H 528.241 1.2178 -1.64286 0
M  V30 5136 H 526.396 3.66884 -1.244 0
M  V30 5137 H 526.81 3.96079 -3.43834 0
M  V30 5138 H 528.284 5.08446 -2.14911 0
M  V30 5139 H 528.761 4.34785 -0.621159 0
M  V30 5140 H 529.367 3.66972 -2.14969 0
M  V30 5141 N 527.682 1.05563 1.17022 0
M  V30 5142 C 528.645 0.664098 2.19368 0
M  V30 5143 C 529.645 -0.286358 1.5823 0
M  V30 5144 O 530.835 -0.069728 1.7406 0
M  V30 5145 C 527.967 -0.0239932 3.40892 0
M  V30 5146 H 529.16 1.57 2.55521 0
M  V30 5147 H 526.713 0.849964 1.31169 0
M  V30 5148 H 527.448 -0.942988 3.10287 0
M  V30 5149 H 527.233 0.659351 3.86516 0
M  V30 5150 H 528.723 -0.283909 4.16634 0
M  V30 5151 N 529.16 -1.33526 0.837174 0
M  V30 5152 C 530.388 -2.02047 0.445494 0
M  V30 5153 C 530.803 -1.62995 -0.952788 0
M  V30 5154 O 530.16 -0.842447 -1.61892 0
M  V30 5155 C 530.211 -3.57221 0.554577 0
M  V30 5156 O 529.932 -3.94863 1.89776 0
M  V30 5157 C 531.433 -4.43012 0.159634 0
M  V30 5158 H 528.653 -0.647221 0.177048 0
M  V30 5159 H 531.197 -1.70492 1.12928 0
M  V30 5160 H 529.352 -3.87315 -0.0812781 0
M  V30 5161 H 529.766 -4.89569 1.88208 0
M  V30 5162 H 531.24 -5.51253 0.28701 0
M  V30 5163 H 531.717 -4.29916 -0.898289 0
M  V30 5164 H 532.323 -4.18274 0.769855 0
M  V30 5165 N 530.638 -0.59345 -1.46 0
M  V30 5166 C 531.868 -0.0889642 -2.06408 0
M  V30 5167 C 532.276 1.22597 -1.44106 0
M  V30 5168 O 531.619 1.75448 -0.544398 0
M  V30 5169 C 531.681 0.139902 -3.59228 0
M  V30 5170 C 531.345 -1.09107 -4.43784 0
M  V30 5171 C 532.342 -2.00577 -4.79651 0
M  V30 5172 C 530.027 -1.31593 -4.84756 0
M  V30 5173 C 532.021 -3.12873 -5.55328 0
M  V30 5174 C 529.708 -2.44192 -5.60191 0
M  V30 5175 C 530.706 -3.34661 -5.95392 0
M  V30 5176 O 530.394 -4.45302 -6.69299 0
M  V30 5177 H 530.126 -0.0594613 -0.67338 0
M  V30 5178 H 532.68 -0.817 -1.88452 0
M  V30 5179 H 530.91 0.922672 -3.75531 0
M  V30 5180 H 532.599 0.594228 -4.01527 0
M  V30 5181 H 533.365 -1.84425 -4.48567 0
M  V30 5182 H 529.244 -0.620801 -4.56801 0
M  V30 5183 H 532.788 -3.83511 -5.82722 0
M  V30 5184 H 528.685 -2.60303 -5.90688 0
M  V30 5185 H 529.453 -4.43805 -6.87735 0
M  V30 5186 N 532.116 1.54067 -0.331816 0
M  V30 5187 C 533.046 2.27569 0.522932 0
M  V30 5188 C 534.027 1.28679 1.11247 0
M  V30 5189 O 535.212 1.57504 1.13605 0
M  V30 5190 C 532.342 3.0397 1.67987 0
M  V30 5191 C 531.296 4.10267 1.21924 0
M  V30 5192 C 530.622 4.74555 2.46377 0
M  V30 5193 C 531.922 5.21268 0.32815 0
M  V30 5194 H 533.616 2.99264 -0.0901977 0
M  V30 5195 H 531.162 1.4393 -0.044821 0
M  V30 5196 H 533.115 3.54123 2.28418 0
M  V30 5197 H 531.839 2.29906 2.31971 0
M  V30 5198 H 530.498 3.61009 0.637809 0
M  V30 5199 H 530.146 3.97098 3.08743 0
M  V30 5200 H 529.846 5.46363 2.16243 0
M  V30 5201 H 531.37 5.27487 3.07555 0
M  V30 5202 H 532.784 5.67128 0.838978 0
M  V30 5203 H 531.181 5.99982 0.119228 0
M  V30 5204 H 532.251 4.80673 -0.638839 0
M  V30 5205 N 533.594 0.0601682 1.57485 0
M  V30 5206 C 534.842 -0.610386 1.92662 0
M  V30 5207 C 535.163 -1.70849 0.939981 0
M  V30 5208 O 534.433 -1.95895 -0.0137455 0
M  V30 5209 H 533.013 -0.228457 0.711208 0
M  V30 5210 H 535.675 0.115288 1.94559 0
M  V30 5211 H 534.771 -1.0432 2.94149 0
M  V30 5212 N 535.072 -1.5615 -0.213296 0
M  V30 5213 C 536.297 -1.83986 -0.957282 0
M  V30 5214 C 536.722 -0.641526 -1.76822 0
M  V30 5215 O 536.08 0.409722 -1.7661 0
M  V30 5216 C 536.128 -3.09889 -1.84393 0
M  V30 5217 O 535.232 -2.89163 -2.94038 0
M  V30 5218 H 534.573 -0.606357 -0.270605 0
M  V30 5219 H 537.103 -2.03369 -0.224111 0
M  V30 5220 H 537.113 -3.40209 -2.25215 0
M  V30 5221 H 535.788 -3.96735 -1.24795 0
M  V30 5222 H 534.365 -2.70097 -2.57103 0
M  V30 5223 N 536.55 0.480323 -1.50102 0
M  V30 5224 C 537.775 1.26126 -1.64642 0
M  V30 5225 C 538.2 1.85257 -0.325823 0
M  V30 5226 O 537.558 1.66854 0.709194 0
M  V30 5227 C 537.606 2.35243 -2.73301 0
M  V30 5228 O 536.71 3.39646 -2.33911 0
M  V30 5229 H 536.051 0.371463 -0.550374 0
M  V30 5230 H 538.581 0.572696 -1.96421 0
M  V30 5231 H 538.591 2.80695 -2.96098 0
M  V30 5232 H 537.266 1.91574 -3.6915 0
M  V30 5233 H 535.843 2.99969 -2.21525 0
M  V30 5234 N 538.028 1.39524 0.732853 0
M  V30 5235 C 539.275 1.36865 1.49246 0
M  V30 5236 C 539.603 -0.0347118 1.94469 0
M  V30 5237 O 538.858 -1.01596 1.67262 0
M  V30 5238 C 539.157 2.28916 2.74468 0
M  V30 5239 C 538.823 3.76506 2.481 0
M  V30 5240 C 537.485 4.16721 2.40619 0
M  V30 5241 C 539.837 4.69846 2.25598 0
M  V30 5242 C 537.165 5.48334 2.08679 0
M  V30 5243 C 539.517 6.01739 1.95174 0
M  V30 5244 C 538.181 6.41015 1.86163 0
M  V30 5245 H 537.451 0.500824 0.546129 0
M  V30 5246 H 540.098 1.72047 0.840958 0
M  V30 5247 H 538.403 1.86859 3.4437 0
M  V30 5248 H 540.1 2.2415 3.32502 0
M  V30 5249 H 536.69 3.44635 2.54803 0
M  V30 5250 H 540.874 4.39608 2.30344 0
M  V30 5251 H 536.13 5.77685 2.00226 0
M  V30 5252 H 540.304 6.73591 1.76771 0
M  V30 5253 H 537.931 7.42917 1.61179 0
M  V30 5254 N 539.506 -0.963266 1.24736 0
M  V30 5255 C 540.736 -1.73913 1.11524 0
M  V30 5256 C 541.144 -1.86218 -0.334612 0
M  V30 5257 O 540.487 -1.3531 -1.24245 0
M  V30 5258 C 540.549 -3.17501 1.68622 0
M  V30 5259 C 540.213 -3.28655 3.17546 0
M  V30 5260 C 541.21 -3.13637 4.14642 0
M  V30 5261 C 538.895 -3.52753 3.5759 0
M  V30 5262 C 540.889 -3.2255 5.49764 0
M  V30 5263 C 538.576 -3.61303 4.92852 0
M  V30 5264 C 539.574 -3.46214 5.88748 0
M  V30 5265 O 539.262 -3.5443 7.2155 0
M  V30 5266 H 538.994 -0.552057 0.390139 0
M  V30 5267 H 541.548 -1.2177 1.65412 0
M  V30 5268 H 539.778 -3.70969 1.09172 0
M  V30 5269 H 541.467 -3.76914 1.50635 0
M  V30 5270 H 542.233 -2.94899 3.85045 0
M  V30 5271 H 538.112 -3.63561 2.83451 0
M  V30 5272 H 541.656 -3.1069 6.24594 0
M  V30 5273 H 537.553 -3.79556 5.22118 0
M  V30 5274 H 538.321 -3.71116 7.29531 0
M  V30 5275 N 540.985 -1.06182 -1.16461 0
M  V30 5276 C 542.215 -0.797425 -1.9059 0
M  V30 5277 C 542.623 0.651845 -1.77616 0
M  V30 5278 O 541.966 1.45788 -1.11766 0
M  V30 5279 C 542.028 -1.11128 -3.41893 0
M  V30 5280 C 541.692 -2.55874 -3.78652 0
M  V30 5281 C 542.689 -3.54104 -3.80665 0
M  V30 5282 C 540.374 -2.91144 -4.09317 0
M  V30 5283 C 542.368 -4.85645 -4.12829 0
M  V30 5284 C 540.055 -4.22885 -4.41148 0
M  V30 5285 C 541.053 -5.19945 -4.42883 0
M  V30 5286 O 540.741 -6.49322 -4.73959 0
M  V30 5287 H 540.473 -0.288709 -0.611247 0
M  V30 5288 H 543.027 -1.41841 -1.4856 0
M  V30 5289 H 541.257 -0.433217 -3.84266 0
M  V30 5290 H 542.946 -0.831306 -3.97296 0
M  V30 5291 H 543.712 -3.28197 -3.57088 0
M  V30 5292 H 539.591 -2.16252 -4.07131 0
M  V30 5293 H 543.135 -5.61398 -4.14099 0
M  V30 5294 H 539.032 -4.48551 -4.6419 0
M  V30 5295 H 539.8 -6.54294 -4.91774 0
M  V30 5296 N 542.463 1.3308 -0.844243 0
M  V30 5297 C 543.711 1.97215 -0.441676 0
M  V30 5298 C 544.032 1.67185 1.0037 0
M  V30 5299 O 543.302 0.973588 1.69994 0
M  V30 5300 H 541.882 0.72959 -0.160335 0
M  V30 5301 H 544.544 1.62348 -1.07838 0
M  V30 5302 H 543.64 3.06698 -0.57815 0
M  V30 5303 N 543.941 0.601185 1.45683 0
M  V30 5304 C 544.888 -0.121396 2.30481 0
M  V30 5305 C 545.858 -0.866232 1.41724 0
M  V30 5306 O 547.043 -0.85324 1.70659 0
M  V30 5307 C 544.183 -1.11704 3.26521 0
M  V30 5308 C 543.296 -0.373741 4.3038 0
M  V30 5309 C 542.431 -1.35854 5.13534 0
M  V30 5310 C 541.47 -0.602689 6.09126 0
M  V30 5311 N 540.607 -1.53645 6.85082 0
M  V30 5312 H 545.447 0.607732 2.91737 0
M  V30 5313 H 542.984 0.311502 1.43764 0
M  V30 5314 H 544.942 -1.70735 3.80664 0
M  V30 5315 H 543.572 -1.81366 2.67032 0
M  V30 5316 H 542.624 0.331962 3.78949 0
M  V30 5317 H 543.936 0.2163 4.98331 0
M  V30 5318 H 543.09 -2.02111 5.72046 0
M  V30 5319 H 541.829 -1.98251 4.45587 0
M  V30 5320 H 540.834 0.0735482 5.49751 0
M  V30 5321 H 542.059 0.0161467 6.79098 0
M  V30 5322 H 540.005 -2.14819 6.1983 0
M  V30 5323 H 539.922 -0.999688 7.49361 0
M  V30 5324 H 541.19 -2.1888 7.48139 0
M  V30 5325 N 545.419 -1.53889 0.339982 0
M  V30 5326 C 546.667 -2.00458 -0.257112 0
M  V30 5327 C 546.988 -1.22953 -1.51353 0
M  V30 5328 O 546.258 -0.335734 -1.93002 0
M  V30 5329 H 544.838 -0.740544 -0.0979965 0
M  V30 5330 H 547.5 -1.89386 0.460317 0
M  V30 5331 H 546.596 -3.08035 -0.502057 0
M  V30 5332 N 546.897 -0.0685191 -1.57451 0
M  V30 5333 C 547.827 0.89747 -2.15564 0
M  V30 5334 C 548.808 1.31266 -1.08181 0
M  V30 5335 O 549.993 1.38429 -1.36202 0
M  V30 5336 C 547.123 2.16623 -2.71463 0
M  V30 5337 C 546.077 1.89054 -3.83982 0
M  V30 5338 C 545.403 3.22532 -4.26471 0
M  V30 5339 C 546.703 1.1984 -5.08366 0
M  V30 5340 H 548.397 0.413373 -2.96533 0
M  V30 5341 H 545.943 0.197391 -1.42641 0
M  V30 5342 H 547.896 2.84614 -3.10761 0
M  V30 5343 H 546.62 2.67269 -1.8771 0
M  V30 5344 H 545.279 1.23469 -3.45183 0
M  V30 5345 H 544.927 3.71013 -3.39644 0
M  V30 5346 H 544.627 3.04879 -5.02317 0
M  V30 5347 H 546.151 3.91727 -4.68383 0
M  V30 5348 H 547.565 1.77896 -5.45001 0
M  V30 5349 H 545.962 1.12456 -5.89469 0
M  V30 5350 H 547.032 0.176996 -4.84577 0
M  V30 5351 N 548.375 1.56261 0.205012 0
M  V30 5352 C 549.624 1.79236 0.925058 0
M  V30 5353 C 549.937 0.640011 1.84833 0
M  V30 5354 O 551.143 0.753809 2.60826 0
M  V30 5355 C 549.599 3.17475 1.69522 0
M  V30 5356 C 549.207 4.40482 0.817269 0
M  V30 5357 C 550.951 3.49766 2.4055 0
M  V30 5358 C 548.858 5.69744 1.58573 0
M  V30 5359 H 547.788 0.668287 0.349153 0
M  V30 5360 H 550.439 1.82629 0.178544 0
M  V30 5361 H 548.821 3.08304 2.48526 0
M  V30 5362 H 549.995 4.60752 0.0665988 0
M  V30 5363 H 548.31 4.15827 0.218316 0
M  V30 5364 H 550.907 4.43573 2.98575 0
M  V30 5365 H 551.25 2.73041 3.14252 0
M  V30 5366 H 551.783 3.60341 1.68522 0
M  V30 5367 H 548.522 6.49407 0.891679 0
M  V30 5368 H 548.042 5.53509 2.31059 0
M  V30 5369 H 549.721 6.1051 2.14212 0
M  V30 5370 N 549.853 -0.472356 1.50355 0
M  V30 5371 C 550.801 -1.59126 1.69651 0
M  V30 5372 C 551.795 -1.59793 0.56237 0
M  V30 5373 O 553.001 -1.63957 0.742832 0
M  V30 5374 H 549.376 -0.528008 0.535454 0
M  V30 5375 H 551.347 -1.40013 2.63513 0
M  V30 5376 C 550.096 -2.97075 1.8067 0
M  V30 5377 H 549.419 -2.9728 2.67329 0
M  V30 5378 H 550.859 -3.74825 1.98197 0
M  V30 5379 C 549.318 -3.32247 0.558016 0
M  V30 5380 O 549.848 -4.00553 -0.303399 0
M  V30 5381 N 548.054 -2.87659 0.412415 0
M  V30 5382 H 547.601 -2.32246 1.11443 0
M  V30 5383 H 547.559 -3.11556 -0.421908 0
M  V30 5384 N 551.331 -1.39911 -0.725443 0
M  V30 5385 C 552.577 -1.37858 -1.48738 0
M  V30 5386 C 552.91 0.0224187 -1.94187 0
M  V30 5387 O 552.185 0.989204 -1.67466 0
M  V30 5388 C 552.468 -2.3594 -2.72038 0
M  V30 5389 C 552.321 -3.85023 -2.32546 0
M  V30 5390 C 553.64 -2.31704 -3.74167 0
M  V30 5391 H 550.759 -0.502074 -0.539528 0
M  V30 5392 H 553.401 -1.70974 -0.828728 0
M  V30 5393 H 551.551 -2.0783 -3.28236 0
M  V30 5394 H 553.223 -4.2392 -1.81905 0
M  V30 5395 H 551.466 -4.01334 -1.64661 0
M  V30 5396 H 552.137 -4.49152 -3.20884 0
M  V30 5397 H 554.613 -2.5658 -3.27576 0
M  V30 5398 H 553.489 -3.02395 -4.58092 0
M  V30 5399 H 553.75 -1.3253 -4.21768 0
M  V30 5400 N 552.809 0.956637 -1.25245 0
M  V30 5401 C 553.719 2.0868 -1.0719 0
M  V30 5402 C 554.735 1.73997 -0.00959074 0
M  V30 5403 O 555.911 2.00301 -0.210104 0
M  V30 5404 C 552.976 3.39754 -0.690526 0
M  V30 5405 C 552.037 3.88316 -1.83055 0
M  V30 5406 C 551.27 5.13134 -1.46728 0
M  V30 5407 O 551.493 5.6925 -0.362029 0
M  V30 5408 O 550.427 5.56356 -2.29677 0
M  V30 5409 H 554.253 2.26813 -2.01965 0
M  V30 5410 H 551.838 1.07098 -1.04165 0
M  V30 5411 H 553.72 4.18543 -0.489871 0
M  V30 5412 H 552.395 3.22896 0.227981 0
M  V30 5413 H 551.302 3.1054 -2.08604 0
M  V30 5414 H 552.635 4.09669 -2.72822 0
M  V30 5415 N 554.287 1.06798 1.15896 0
M  V30 5416 C 555.25 0.687328 2.18651 0
M  V30 5417 C 556.25 -0.269559 1.58524 0
M  V30 5418 O 557.44 -0.0512627 1.74125 0
M  V30 5419 C 554.572 0.0121642 3.40898 0
M  V30 5420 H 555.765 1.59701 2.53842 0
M  V30 5421 H 553.318 0.863828 1.3026 0
M  V30 5422 H 554.053 -0.910025 3.1127 0
M  V30 5423 H 553.838 0.700309 3.85795 0
M  V30 5424 H 555.328 -0.239703 4.16911 0
M  V30 5425 N 555.766 -1.3263 0.851289 0
M  V30 5426 C 556.729 -2.27247 0.298541 0
M  V30 5427 C 557.729 -1.51467 -0.539847 0
M  V30 5428 O 558.919 -1.7061 -0.351843 0
M  V30 5429 C 556.051 -3.35964 -0.578004 0
M  V30 5430 H 557.244 -2.7765 1.13359 0
M  V30 5431 H 554.797 -1.43245 0.625354 0
M  V30 5432 H 555.532 -2.90823 -1.435 0
M  V30 5433 H 555.317 -3.92094 0.0220539 0
M  V30 5434 H 556.807 -4.06472 -0.957626 0
M  V30 5435 N 557.244 -0.608902 -1.45362 0
M  V30 5436 C 558.207 0.0992563 -2.28985 0
M  V30 5437 C 559.207 0.793841 -1.39838 0
M  V30 5438 O 560.397 0.641804 -1.61946 0
M  V30 5439 C 557.529 1.15073 -3.20891 0
M  V30 5440 H 558.722 -0.635964 -2.93079 0
M  V30 5441 H 556.275 -0.368007 -1.51906 0
M  V30 5442 H 557.01 1.91667 -2.616 0
M  V30 5443 H 556.795 0.656867 -3.86559 0
M  V30 5444 H 558.285 1.64665 -3.83765 0
M  V30 5445 N 558.722 1.53707 -0.348139 0
M  V30 5446 C 559.654 2.22725 0.540946 0
M  V30 5447 C 560.667 1.2354 1.06027 0
M  V30 5448 O 561.856 1.49867 0.96964 0
M  V30 5449 C 558.956 2.89756 1.75768 0
M  V30 5450 C 558.129 4.15297 1.37285 0
M  V30 5451 C 557.188 4.65697 2.44976 0
M  V30 5452 O 556.214 5.29798 2.08092 0
M  V30 5453 N 557.416 4.42017 3.763 0
M  V30 5454 H 560.181 2.99658 -0.0501592 0
M  V30 5455 H 557.742 1.60979 -0.17248 0
M  V30 5456 H 559.734 3.20388 2.47252 0
M  V30 5457 H 558.304 2.16382 2.25605 0
M  V30 5458 H 557.524 3.9116 0.488584 0
M  V30 5459 H 558.812 4.96948 1.09179 0
M  V30 5460 H 558.21 3.9076 4.09051 0
M  V30 5461 H 556.767 4.77242 4.4394 0
M  V30 5462 O 560.239 0.216617 1.60041 0
M  V30 5463 H 560.93 -0.364805 1.90234 0
M  V30 END ATOM
M  V30 BEGIN BOND
M  V30 END BOND
M  V30 END CTAB
M  END
$$$$
