drugbank_target|P32056 GDP-mannose mannosyl hydrolase (DB04315)
 OpenBabel12092119593D

  0  0  0     0  0            999 V3000
M  V30 BEGIN CTAB
M  V30 COUNTS 2536 2570 0 0 0
M  V30 BEGIN ATOM
M  V30 1 H -0.908 1.98254 -0.117106 0
M  V30 2 N 0 1.576 0 0
M  V30 3 C 0.933 2.03868 1.02534 0
M  V30 4 C 1.911 0.928543 1.3348 0
M  V30 5 O 3.095 1.19667 1.45644 0
M  V30 6 C 0.222 2.43627 2.35294 0
M  V30 7 C -0.732 3.65373 2.2001 0
M  V30 8 S 0.101 5.13292 1.52614 0
M  V30 9 C 1.257 5.56322 2.86805 0
M  V30 10 H 1.49 2.90518 0.631377 0
M  V30 11 H -0.977 1.52953 0.210867 0
M  V30 12 H 0.981 2.67203 3.11629 0
M  V30 13 H -0.358 1.57376 2.7183 0
M  V30 14 H -1.165 3.90944 3.18086 0
M  V30 15 H -1.563 3.418 1.51819 0
M  V30 16 H 0.729 5.58782 3.83104 0
M  V30 17 H 1.672 6.56266 2.65933 0
M  V30 18 H 2.08 4.83886 2.90714 0
M  V30 19 N 1.4781 -0.272755 1.55222 0
M  V30 20 C 2.7251 -1.00433 1.7584 0
M  V30 21 C 3.0531 -1.86275 0.559629 0
M  V30 22 O 2.3081 -1.90269 -0.457857 0
M  V30 23 C 2.6071 -1.91642 3.01675 0
M  V30 24 C 2.2731 -1.21548 4.34208 0
M  V30 25 C 0.9351 -1.02166 4.70229 0
M  V30 26 C 3.2871 -0.716684 5.16249 0
M  V30 27 C 0.6151 -0.316334 5.85847 0
M  V30 28 C 2.9671 -0.0249476 6.32595 0
M  V30 29 C 1.6311 0.180579 6.67256 0
M  V30 30 H 0.9011 -0.367509 0.643443 0
M  V30 31 H 3.5481 -0.276596 1.89492 0
M  V30 32 H 1.8531 -2.71037 2.82924 0
M  V30 33 H 3.5501 -2.48369 3.14824 0
M  V30 34 H 0.1401 -1.37645 4.05896 0
M  V30 35 H 4.3241 -0.854047 4.88896 0
M  V30 36 H -0.4199 -0.146378 6.11225 0
M  V30 37 H 3.7541 0.369311 6.9542 0
M  V30 38 H 1.3811 0.729098 7.56696 0
M  V30 39 N 2.9562 -1.48159 -0.537278 0
M  V30 40 C 3.8862 -1.65029 -1.6519 0
M  V30 41 C 4.8672 -0.499281 -1.62607 0
M  V30 42 O 6.0522 -0.730972 -1.79918 0
M  V30 43 C 3.1822 -1.68303 -3.03795 0
M  V30 44 C 2.1362 -2.8283 -3.21234 0
M  V30 45 C 1.4622 -2.71189 -4.60826 0
M  V30 46 C 2.7622 -4.24211 -3.04701 0
M  V30 47 H 4.4562 -2.58341 -1.51328 0
M  V30 48 H 2.0022 -1.24325 -0.726585 0
M  V30 49 H 3.9552 -1.78693 -3.81637 0
M  V30 50 H 2.6792 -0.715635 -3.18663 0
M  V30 51 H 1.3382 -2.71983 -2.45807 0
M  V30 52 H 0.9862 -1.72435 -4.7252 0
M  V30 53 H 0.6862 -3.48035 -4.7344 0
M  V30 54 H 2.2102 -2.83537 -5.40777 0
M  V30 55 H 3.6242 -4.3593 -3.72341 0
M  V30 56 H 2.0212 -5.01998 -3.28813 0
M  V30 57 H 3.0912 -4.41184 -2.01209 0
M  V30 58 N 4.4343 0.785586 -1.36625 0
M  V30 59 C 5.8503 1.08419 -1.17122 0
M  V30 60 C 6.0503 2.015 0.00208491 0
M  V30 61 O 5.1063 2.43551 0.666278 0
M  V30 62 C 6.4193 1.69498 -2.48377 0
M  V30 63 C 7.9673 1.81821 -2.54775 0
M  V30 64 C 8.4423 2.46315 -3.86126 0
M  V30 65 N 9.9333 2.53779 -3.87492 0
M  V30 66 C 10.6683 3.045 -4.85868 0
M  V30 67 N 10.1643 3.55499 -5.94637 0
M  V30 68 N 11.9573 3.03247 -4.73284 0
M  V30 69 H 4.1083 0.167264 -2.1174 0
M  V30 70 H 6.3713 0.13682 -0.938075 0
M  V30 71 H 6.0773 1.08571 -3.34522 0
M  V30 72 H 5.9513 2.6896 -2.64462 0
M  V30 73 H 8.3383 2.41884 -1.69045 0
M  V30 74 H 8.4193 0.811532 -2.42586 0
M  V30 75 H 8.0633 1.86895 -4.72263 0
M  V30 76 H 7.9933 3.47561 -3.95612 0
M  V30 77 H 10.4843 2.17672 -3.08913 0
M  V30 78 H 10.7973 3.92562 -6.65669 0
M  V30 79 H 9.1423 3.5364 -5.98301 0
M  V30 80 H 12.3333 2.62696 -3.87438 0
M  V30 81 H 12.5063 3.42467 -5.50109 0
M  V30 82 N 5.9124 1.20967 1.01018 0
M  V30 83 C 6.8444 0.922059 2.09835 0
M  V30 84 C 7.8574 -0.0927106 1.62536 0
M  V30 85 O 9.0464 0.139127 1.77957 0
M  V30 86 C 6.1464 0.362004 3.36961 0
M  V30 87 C 5.3194 1.42986 4.13369 0
M  V30 88 C 4.3784 0.879976 5.1879 0
M  V30 89 O 3.4044 1.56219 5.47343 0
M  V30 90 N 4.6064 -0.307396 5.79686 0
M  V30 91 H 7.3714 1.8588 2.35093 0
M  V30 92 H 4.9324 1.11422 1.1746 0
M  V30 93 H 6.9244 -0.0201474 4.04695 0
M  V30 94 H 5.4944 -0.479437 3.08902 0
M  V30 95 H 4.7144 1.98608 3.40512 0
M  V30 96 H 6.0024 2.14885 4.61196 0
M  V30 97 H 5.4004 -0.878796 5.58832 0
M  V30 98 H 3.9574 -0.631115 6.48737 0
M  V30 99 N 7.3905 -1.2043 1.01659 0
M  V30 100 C 8.3005 -2.2689 0.596484 0
M  V30 101 C 9.3165 -1.70107 -0.36599 0
M  V30 102 O 10.4925 -2.00117 -0.226942 0
M  V30 103 C 7.5575 -3.4665 -0.0586659 0
M  V30 104 C 6.6185 -4.18662 0.949751 0
M  V30 105 C 5.8515 -5.32705 0.32577 0
M  V30 106 O 6.0745 -5.63656 -0.874509 0
M  V30 107 O 5.0085 -5.92803 1.04249 0
M  V30 108 H 8.8345 -2.65041 1.4828 0
M  V30 109 H 6.4195 -1.27048 0.786082 0
M  V30 110 H 8.3015 -4.19256 -0.424564 0
M  V30 111 H 6.9765 -3.10375 -0.91918 0
M  V30 112 H 5.8835 -3.48229 1.36702 0
M  V30 113 H 7.2165 -4.58878 1.78023 0
M  V30 114 N 8.8686 -0.792821 -1.36206 0
M  V30 115 C 10.1456 -0.290627 -1.93429 0
M  V30 116 C 10.5256 1.21773 -1.72437 0
M  V30 117 O 9.8736 2.0108 -1.08531 0
M  V30 118 C 10.0836 -0.686973 -3.42172 0
M  V30 119 C 11.4316 -0.668643 -4.19302 0
M  V30 120 O 12.4556 -0.627658 -3.50626 0
M  V30 121 O 11.3146 -0.714597 -5.41808 0
M  V30 122 H 8.4086 -0.0727927 -0.82379 0
M  V30 123 H 10.9546 -0.875593 -1.45367 0
M  V30 124 H 9.7266 -1.72711 -3.51122 0
M  V30 125 H 9.3496 -0.0760733 -3.97527 0
M  V30 126 N 10.3467 1.47872 -0.545128 0
M  V30 127 C 11.5937 2.02493 -0.0165858 0
M  V30 128 C 11.9217 1.42073 1.32836 0
M  V30 129 O 11.1767 0.561459 1.87473 0
M  V30 130 C 11.4757 3.57131 0.13867 0
M  V30 131 C 11.1417 4.36411 -1.13384 0
M  V30 132 C 9.8037 4.57792 -1.48256 0
M  V30 133 C 12.1557 4.82223 -1.97764 0
M  V30 134 C 9.4837 5.22233 -2.67376 0
M  V30 135 C 11.8357 5.47977 -3.16076 0
M  V30 136 C 10.4997 5.67593 -3.51275 0
M  V30 137 H 9.7697 0.740975 -0.00606918 0
M  V30 138 H 12.4167 1.77683 -0.714207 0
M  V30 139 H 10.7217 3.80865 0.919172 0
M  V30 140 H 12.4187 3.97031 0.562782 0
M  V30 141 H 9.0087 4.2004 -0.852297 0
M  V30 142 H 13.1927 4.65493 -1.72132 0
M  V30 143 H 8.4487 5.35616 -2.94831 0
M  V30 144 H 12.6227 5.8244 -3.81755 0
M  V30 145 H 10.2497 6.17298 -4.43675 0
M  V30 146 N 11.8248 0.280983 1.55075 0
M  V30 147 C 12.7878 -0.590896 2.21452 0
M  V30 148 C 13.7878 -1.07682 1.19421 0
M  V30 149 O 14.9778 -0.97605 1.44288 0
M  V30 150 C 12.1098 -1.81587 2.88511 0
M  V30 151 H 13.3028 -0.0112554 2.99898 0
M  V30 152 H 10.8558 0.0316438 1.56268 0
M  V30 153 H 11.5908 -2.43587 2.14093 0
M  V30 154 H 11.3758 -1.4753 3.63287 0
M  V30 155 H 12.8658 -2.43575 3.39206 0
M  V30 156 N 13.3029 -1.57598 0.00835791 0
M  V30 157 C 14.5309 -1.95214 -0.68549 0
M  V30 158 C 14.9459 -0.883706 -1.66841 0
M  V30 159 O 14.3029 0.136565 -1.81988 0
M  V30 160 C 14.3539 -3.32865 -1.41007 0
M  V30 161 O 14.0749 -4.35609 -0.466552 0
M  V30 162 C 15.5759 -3.84991 -2.19765 0
M  V30 163 H 12.7959 -0.643422 -0.190392 0
M  V30 164 H 15.3399 -2.04406 0.0619607 0
M  V30 165 H 13.4949 -3.24956 -2.10908 0
M  V30 166 H 13.9089 -5.15288 -0.978699 0
M  V30 167 H 15.3829 -4.8371 -2.65948 0
M  V30 168 H 15.8599 -3.18137 -3.02796 0
M  V30 169 H 16.4659 -3.96103 -1.54864 0
M  V30 170 N 14.781 0.264519 -1.55364 0
M  V30 171 C 16.027 0.99646 -1.76631 0
M  V30 172 C 16.36 1.85632 -0.570478 0
M  V30 173 O 15.635 1.89647 0.43175 0
M  V30 174 C 15.918 1.87187 -3.07625 0
M  V30 175 C 15.771 1.04138 -4.37579 0
M  V30 176 C 17.09 2.85749 -3.34717 0
M  V30 177 H 14.209 0.360841 -0.642622 0
M  V30 178 H 16.851 0.268218 -1.88097 0
M  V30 179 H 15.001 2.49279 -2.9798 0
M  V30 180 H 16.673 0.440517 -4.59192 0
M  V30 181 H 14.916 0.345115 -4.32425 0
M  V30 182 H 15.587 1.68729 -5.2558 0
M  V30 183 H 18.063 2.33793 -3.4421 0
M  V30 184 H 16.939 3.44136 -4.27623 0
M  V30 185 H 17.2 3.61311 -2.54768 0
M  V30 186 N 16.2591 1.48442 0.529413 0
M  V30 187 C 17.5051 1.5672 1.28711 0
M  V30 188 C 17.8381 0.2406 1.92704 0
M  V30 189 O 17.1131 -0.753454 1.79313 0
M  V30 190 C 17.3961 2.70587 2.37603 0
M  V30 191 C 17.2491 4.12953 1.78297 0
M  V30 192 C 18.5681 2.80212 3.39366 0
M  V30 193 H 15.6871 0.570474 0.466613 0
M  V30 194 H 18.3291 1.80617 0.589706 0
M  V30 195 H 16.4791 2.50342 2.97088 0
M  V30 196 H 18.1511 4.44639 1.22858 0
M  V30 197 H 16.3941 4.19927 1.0883 0
M  V30 198 H 17.0651 4.88448 2.57144 0
M  V30 199 H 19.5411 2.98553 2.89836 0
M  V30 200 H 18.4171 3.61611 4.12951 0
M  V30 201 H 18.6781 1.88393 3.99951 0
M  V30 202 N 17.7372 -0.778329 1.37039 0
M  V30 203 C 19.1532 -1.07796 1.17695 0
M  V30 204 C 19.3532 -2.01498 0.00860115 0
M  V30 205 O 18.4092 -2.43901 -0.653352 0
M  V30 206 C 19.7222 -1.68178 2.49272 0
M  V30 207 C 21.2702 -1.80467 2.55735 0
M  V30 208 C 21.7452 -2.44263 3.87427 0
M  V30 209 N 23.2362 -2.51721 3.88833 0
M  V30 210 C 23.9712 -3.01919 4.87476 0
M  V30 211 N 23.4672 -3.5234 5.96513 0
M  V30 212 N 25.2602 -3.00733 4.74885 0
M  V30 213 H 17.4112 -0.156032 2.11826 0
M  V30 214 H 19.6742 -0.131844 0.938787 0
M  V30 215 H 19.3802 -1.06796 3.35093 0
M  V30 216 H 19.2542 -2.67554 2.65885 0
M  V30 217 H 21.6412 -2.40984 1.70325 0
M  V30 218 H 21.7222 -0.798656 2.43013 0
M  V30 219 H 21.3662 -1.84388 4.73248 0
M  V30 220 H 21.2962 -3.45458 3.9745 0
M  V30 221 H 23.7872 -2.1603 3.10063 0
M  V30 222 H 24.1002 -3.89027 6.67741 0
M  V30 223 H 22.4452 -3.50462 6.00168 0
M  V30 224 H 25.6362 -2.60638 3.88826 0
M  V30 225 H 25.8092 -3.39545 5.51918 0
M  V30 226 N 19.2153 -1.21501 -1.00376 0
M  V30 227 C 20.4403 -1.05977 -1.78279 0
M  V30 228 C 20.8653 0.385994 -1.84097 0
M  V30 229 O 20.2233 1.27849 -1.28547 0
M  V30 230 C 20.2713 -1.66302 -3.19963 0
M  V30 231 O 19.3753 -0.909333 -4.0225 0
M  V30 232 H 18.7163 -0.372906 -0.549397 0
M  V30 233 H 21.2463 -1.6107 -1.26165 0
M  V30 234 H 21.2563 -1.70574 -3.70632 0
M  V30 235 H 19.9313 -2.71515 -3.15043 0
M  V30 236 H 18.5083 -0.941795 -3.60811 0
M  V30 237 N 20.6934 1.19889 -1.02296 0
M  V30 238 C 21.9214 1.9339 -0.735399 0
M  V30 239 C 22.3364 1.75148 0.704887 0
M  V30 240 O 21.6934 1.06954 1.47875 0
M  V30 241 C 21.7444 3.45313 -1.06962 0
M  V30 242 O 21.4654 3.62964 -2.45334 0
M  V30 243 C 22.9664 4.35948 -0.804021 0
M  V30 244 H 20.1864 0.61448 -0.269546 0
M  V30 245 H 22.7304 1.522 -1.36585 0
M  V30 246 H 20.8854 3.84359 -0.484455 0
M  V30 247 H 21.2994 4.56886 -2.57595 0
M  V30 248 H 22.7734 5.41174 -1.0879 0
M  V30 249 H 23.2504 4.3842 0.261691 0
M  V30 250 H 23.8564 4.02574 -1.37164 0
M  V30 251 N 22.1715 0.800033 1.35784 0
M  V30 252 C 23.5825 0.439142 1.81462 0
M  V30 253 C 23.9335 -1.03813 1.66485 0
M  V30 254 O 23.0585 -1.80626 1.19177 0
M  V30 255 C 23.6535 0.790314 3.29453 0
M  V30 256 C 22.2125 0.482111 3.733 0
M  V30 257 C 21.3595 1.01938 2.57883 0
M  V30 258 H 24.3105 0.992254 1.23855 0
M  V30 259 H 24.3315 0.0853677 3.80404 0
M  V30 260 H 23.8435 1.86554 3.40322 0
M  V30 261 H 21.9445 -0.584652 3.67984 0
M  V30 262 H 22.0575 1.01015 4.6833 0
M  V30 263 H 20.4215 0.442043 2.50835 0
M  V30 264 H 21.2045 2.10059 2.71533 0
M  V30 265 N 23.6496 -1.47581 0.552962 0
M  V30 266 C 24.5796 -2.32762 -0.185451 0
M  V30 267 C 25.5606 -1.43527 -0.912905 0
M  V30 268 O 26.7456 -1.72388 -0.894201 0
M  V30 269 C 23.8756 -3.25219 -1.21859 0
M  V30 270 C 22.8296 -4.23661 -0.607864 0
M  V30 271 C 22.1556 -5.05413 -1.74533 0
M  V30 272 C 23.4556 -5.20481 0.435582 0
M  V30 273 H 25.1496 -2.94749 0.525684 0
M  V30 274 H 22.6956 -1.41738 0.254251 0
M  V30 275 H 24.6486 -3.8365 -1.7433 0
M  V30 276 H 23.3726 -2.61279 -1.95961 0
M  V30 277 H 22.0316 -3.66451 -0.104489 0
M  V30 278 H 21.6796 -4.3788 -2.47529 0
M  V30 279 H 21.3796 -5.72059 -1.34249 0
M  V30 280 H 22.9036 -5.66701 -2.27338 0
M  V30 281 H 24.3176 -5.733 -0.00290157 0
M  V30 282 H 22.7146 -5.95305 0.757067 0
M  V30 283 H 23.7846 -4.66217 1.33303 0
M  V30 284 N 25.1277 -0.289203 -1.54924 0
M  V30 285 C 26.3737 0.323998 -2.00195 0
M  V30 286 C 26.7067 1.54441 -1.17735 0
M  V30 287 O 25.9817 1.92875 -0.250878 0
M  V30 288 C 26.2647 0.692276 -3.53383 0
M  V30 289 C 26.1177 -0.536457 -4.46589 0
M  V30 290 C 27.4367 1.52335 -4.12895 0
M  V30 291 H 24.5557 0.116289 -0.727768 0
M  V30 292 H 27.1977 -0.398954 -1.85764 0
M  V30 293 H 25.3477 1.30822 -3.65811 0
M  V30 294 H 27.0197 -1.17499 -4.46085 0
M  V30 295 H 25.2627 -1.17192 -4.1767 0
M  V30 296 H 25.9337 -0.234806 -5.515 0
M  V30 297 H 28.4097 1.00302 -4.0383 0
M  V30 298 H 27.2857 1.74982 -5.20262 0
M  V30 299 H 27.5467 2.50886 -3.64018 0
M  V30 300 N 26.6058 1.57591 -0.0167156 0
M  V30 301 C 27.8308 1.9598 0.67872 0
M  V30 302 C 28.2558 0.892546 1.65575 0
M  V30 303 O 27.6138 -0.147772 1.80697 0
M  V30 304 C 27.6618 3.33468 1.37227 0
M  V30 305 O 26.7658 3.28954 2.48722 0
M  V30 306 H 26.1068 0.639339 0.17928 0
M  V30 307 H 28.6368 2.04463 -0.0748802 0
M  V30 308 H 28.6468 3.69417 1.7319 0
M  V30 309 H 27.3218 4.10694 0.656007 0
M  V30 310 H 25.8988 3.04705 2.14963 0
M  V30 311 N 28.0839 -0.256276 1.55502 0
M  V30 312 C 29.0139 -1.32102 1.92539 0
M  V30 313 C 29.9949 -1.50684 0.789194 0
M  V30 314 O 31.1799 -1.63449 1.04872 0
M  V30 315 C 28.3099 -2.67752 2.21192 0
M  V30 316 C 27.2639 -2.63878 3.36975 0
M  V30 317 C 26.5899 -4.03236 3.51147 0
M  V30 318 C 27.8899 -2.21682 4.72921 0
M  V30 319 H 29.5839 -1.01351 2.81724 0
M  V30 320 H 27.1299 -0.486105 1.35547 0
M  V30 321 H 29.0829 -3.42365 2.45691 0
M  V30 322 H 27.8069 -3.0012 1.28824 0
M  V30 323 H 26.4659 -1.91722 3.12471 0
M  V30 324 H 26.1139 -4.32854 2.56216 0
M  V30 325 H 25.8139 -4.01535 4.29003 0
M  V30 326 H 27.3379 -4.79563 3.77957 0
M  V30 327 H 28.7519 -2.86023 4.96854 0
M  V30 328 H 27.1489 -2.3111 5.53812 0
M  V30 329 H 28.2189 -1.16833 4.70615 0
M  V30 330 N 29.562 -1.4872 -0.521534 0
M  V30 331 C 30.839 -1.4766 -1.2828 0
M  V30 332 C 31.219 -0.19292 -2.10217 0
M  V30 333 O 30.567 0.825193 -2.13079 0
M  V30 334 C 30.777 -2.74358 -2.15705 0
M  V30 335 C 32.125 -3.23028 -2.75569 0
M  V30 336 O 33.149 -2.75333 -2.25987 0
M  V30 337 O 32.008 -4.0604 -3.65778 0
M  V30 338 H 29.102 -0.590085 -0.579421 0
M  V30 339 H 31.648 -1.60963 -0.537492 0
M  V30 340 H 30.42 -3.59292 -1.54999 0
M  V30 341 H 30.043 -2.63816 -2.97467 0
M  V30 342 N 31.0401 0.771051 -1.3745 0
M  V30 343 C 32.2871 1.52963 -1.32697 0
M  V30 344 C 32.6151 1.94299 0.0883274 0
M  V30 345 O 31.8701 1.64397 1.0617 0
M  V30 346 C 32.1691 2.80676 -2.2126 0
M  V30 347 C 31.8351 2.58389 -3.69521 0
M  V30 348 C 30.4971 2.52019 -4.09927 0
M  V30 349 C 32.8491 2.38469 -4.63446 0
M  V30 350 C 30.1771 2.23721 -5.42371 0
M  V30 351 C 32.5291 2.11694 -5.96128 0
M  V30 352 C 31.1931 2.03769 -6.35637 0
M  V30 353 H 30.4631 0.559732 -0.485573 0
M  V30 354 H 33.1101 0.888083 -1.69662 0
M  V30 355 H 31.4151 3.49392 -1.77291 0
M  V30 356 H 33.1121 3.38557 -2.14895 0
M  V30 357 H 29.7021 2.6421 -3.37478 0
M  V30 358 H 33.8861 2.4238 -4.33089 0
M  V30 359 H 29.1421 2.16081 -5.71943 0
M  V30 360 H 33.3161 1.9528 -6.6846 0
M  V30 361 H 30.9431 1.81606 -7.38189 0
M  V30 362 N 32.5182 1.22032 0.997298 0
M  V30 363 C 33.7672 1.03637 1.73038 0
M  V30 364 C 34.0802 -0.429475 1.90827 0
M  V30 365 O 35.2862 -0.732995 2.61418 0
M  V30 366 C 33.7422 1.80582 3.11317 0
M  V30 367 C 33.3502 3.31387 3.01474 0
M  V30 368 C 35.0942 1.70621 3.88701 0
M  V30 369 C 33.0012 4.00791 4.3488 0
M  V30 370 H 31.9312 0.384179 0.648785 0
M  V30 371 H 34.5822 1.4584 1.11368 0
M  V30 372 H 32.9642 1.31175 3.73643 0
M  V30 373 H 34.1382 3.88155 2.4834 0
M  V30 374 H 32.4532 3.41976 2.37575 0
M  V30 375 H 35.0502 2.19799 4.87434 0
M  V30 376 H 35.3932 0.665823 4.10941 0
M  V30 377 H 35.9262 2.17547 3.33044 0
M  V30 378 H 32.6652 5.05064 4.1784 0
M  V30 379 H 32.1852 3.48811 4.87945 0
M  V30 380 H 33.8642 4.06139 5.03647 0
M  V30 381 N 33.9963 -1.19345 1.0293 0
M  V30 382 C 35.2423 -1.89318 0.727083 0
M  V30 383 C 35.5753 -1.79446 -0.742483 0
M  V30 384 O 34.8503 -1.1871 -1.54072 0
M  V30 385 C 35.1333 -3.40238 1.17942 0
M  V30 386 C 34.9863 -3.58979 2.71024 0
M  V30 387 C 36.3053 -4.33479 0.760548 0
M  V30 388 H 33.4243 -0.687475 0.265606 0
M  V30 389 H 36.0663 -1.40477 1.2793 0
M  V30 390 H 34.2163 -3.81964 0.709608 0
M  V30 391 H 35.8883 -3.26421 3.25955 0
M  V30 392 H 34.1313 -3.02018 3.11396 0
M  V30 393 H 34.8023 -4.64823 2.9773 0
M  V30 394 H 37.2783 -3.99469 1.16464 0
M  V30 395 H 36.1543 -5.37664 1.10493 0
M  V30 396 H 36.4153 -4.40813 -0.337063 0
M  V30 397 N 35.4744 -0.807222 -1.35358 0
M  V30 398 C 36.3844 -0.219594 -2.3357 0
M  V30 399 C 37.4004 0.637734 -1.61892 0
M  V30 400 O 38.5764 0.549336 -1.93763 0
M  V30 401 C 35.6414 0.62158 -3.41083 0
M  V30 402 C 34.7024 -0.256315 -4.28534 0
M  V30 403 C 33.9354 0.544807 -5.30912 0
M  V30 404 O 34.1584 1.77944 -5.41934 0
M  V30 405 O 33.0924 -0.0646478 -6.01865 0
M  V30 406 H 36.9184 -1.03208 -2.85625 0
M  V30 407 H 34.5034 -0.569025 -1.38139 0
M  V30 408 H 36.3854 1.10067 -4.06772 0
M  V30 409 H 35.0604 1.41165 -2.91297 0
M  V30 410 H 33.9674 -0.782559 -3.65823 0
M  V30 411 H 35.3004 -1.01034 -4.81719 0
M  V30 412 N 36.9525 1.47285 -0.560781 0
M  V30 413 C 37.9005 2.31756 0.197942 0
M  V30 414 C 38.8945 1.43146 0.905854 0
M  V30 415 O 40.1005 1.59891 0.826733 0
M  V30 416 H 36.4755 0.747438 0.0827049 0
M  V30 417 H 38.4465 2.9359 -0.533629 0
M  V30 418 C 37.1955 3.25874 1.21249 0
M  V30 419 H 36.5185 3.94023 0.67719 0
M  V30 420 H 37.9585 3.87803 1.71419 0
M  V30 421 C 36.4175 2.49651 2.26221 0
M  V30 422 O 36.9475 2.24355 3.33208 0
M  V30 423 N 35.1535 2.10597 2.00243 0
M  V30 424 H 34.7005 2.31369 1.13252 0
M  V30 425 H 34.6585 1.59913 2.70694 0
M  V30 426 N 38.4306 0.297415 1.54768 0
M  V30 427 C 39.6556 -0.318435 2.04941 0
M  V30 428 C 40.0806 -1.4701 1.17345 0
M  V30 429 O 39.4386 -1.80436 0.176758 0
M  V30 430 C 39.4866 -0.755749 3.52592 0
M  V30 431 O 38.5906 -1.86088 3.68028 0
M  V30 432 H 37.9316 -0.062421 0.661059 0
M  V30 433 H 40.4616 0.438215 1.99852 0
M  V30 434 H 40.4716 -1.04552 3.94376 0
M  V30 435 H 39.1466 0.0867233 4.1581 0
M  V30 436 H 37.7236 -1.57193 3.38149 0
M  V30 437 N 39.9087 -1.5758 0.0250728 0
M  V30 438 C 41.3247 -1.56124 -0.331282 0
M  V30 439 C 41.5247 -1.03029 -1.73169 0
M  V30 440 O 40.5807 -0.675215 -2.43305 0
M  V30 441 C 41.8937 -3.00139 -0.183584 0
M  V30 442 C 43.4417 -3.11946 -0.256654 0
M  V30 443 C 43.9167 -4.57793 -0.137792 0
M  V30 444 N 45.4077 -4.6279 -0.194904 0
M  V30 445 C 46.1427 -5.7326 -0.126655 0
M  V30 446 N 45.6387 -6.928 -0.00755288 0
M  V30 447 N 47.4317 -5.61811 -0.180348 0
M  V30 448 H 39.5827 -1.90424 0.94087 0
M  V30 449 H 41.8457 -0.875761 0.362968 0
M  V30 450 H 41.5517 -3.4292 0.780927 0
M  V30 451 H 41.4257 -3.64899 -0.955448 0
M  V30 452 H 43.8127 -2.69079 -1.21162 0
M  V30 453 H 43.8937 -2.49915 0.545517 0
M  V30 454 H 43.5377 -5.01339 0.813739 0
M  V30 455 H 43.4677 -5.17798 -0.958775 0
M  V30 456 H 45.9587 -3.76807 -0.287267 0
M  V30 457 H 46.2717 -7.72791 0.0379428 0
M  V30 458 H 44.6167 -6.94995 0.0271731 0
M  V30 459 H 47.8077 -4.6731 -0.271767 0
M  V30 460 H 47.9807 -6.47882 -0.123697 0
M  V30 461 N 41.3868 0.248026 -1.55636 0
M  V30 462 C 42.6348 0.974295 -1.77065 0
M  V30 463 C 42.9558 1.85897 -0.588849 0
M  V30 464 O 42.2258 1.91868 0.395407 0
M  V30 465 H 40.8058 0.362733 -0.653019 0
M  V30 466 H 43.4678 0.266244 -1.93073 0
M  V30 467 H 42.5638 1.59667 -2.68166 0
M  V30 468 N 42.8649 1.48995 0.513639 0
M  V30 469 C 43.7749 1.67443 1.64317 0
M  V30 470 C 44.7909 0.556947 1.64846 0
M  V30 471 O 45.9669 0.830082 1.83498 0
M  V30 472 C 43.0319 1.72515 3.00732 0
M  V30 473 C 42.0929 2.96009 3.1093 0
M  V30 474 C 41.3259 3.00829 4.40837 0
M  V30 475 O 41.5489 2.13594 5.28898 0
M  V30 476 O 40.4829 3.93168 4.55744 0
M  V30 477 H 44.3089 2.63106 1.51687 0
M  V30 478 H 41.8939 1.32588 0.688543 0
M  V30 479 H 43.7759 1.78277 3.81831 0
M  V30 480 H 42.4509 0.800278 3.13651 0
M  V30 481 H 41.3579 2.9577 2.29065 0
M  V30 482 H 42.6909 3.87934 3.02933 0
M  V30 483 N 44.343 -0.763751 1.37857 0
M  V30 484 C 45.59 -1.52257 1.33506 0
M  V30 485 C 45.918 -1.94343 -0.078022 0
M  V30 486 O 45.173 -1.64958 -1.05297 0
M  V30 487 C 45.472 -2.79499 2.22745 0
M  V30 488 C 45.138 -2.56426 3.70886 0
M  V30 489 C 43.8 -2.49842 4.11257 0
M  V30 490 C 46.152 -2.36008 4.64704 0
M  V30 491 C 43.48 -2.20841 5.43549 0
M  V30 492 C 45.832 -2.0853 5.97242 0
M  V30 493 C 44.496 -2.00396 6.36709 0
M  V30 494 H 43.766 -0.557149 0.488534 0
M  V30 495 H 46.413 -0.879073 1.70131 0
M  V30 496 H 44.718 -3.48447 1.79142 0
M  V30 497 H 46.415 -3.37413 2.16688 0
M  V30 498 H 43.005 -2.62416 3.38874 0
M  V30 499 H 47.189 -2.40079 4.34368 0
M  V30 500 H 42.445 -2.13045 5.73081 0
M  V30 501 H 46.619 -1.91732 6.69486 0
M  V30 502 H 44.246 -1.77688 7.39142 0
M  V30 503 N 45.8211 -1.22559 -0.990812 0
M  V30 504 C 46.7511 -1.0218 -2.09956 0
M  V30 505 C 47.7321 0.0579394 -1.70001 0
M  V30 506 O 48.9171 -0.104684 -1.93918 0
M  V30 507 C 46.0471 -0.601023 -3.4206 0
M  V30 508 C 45.0011 -1.62694 -3.95872 0
M  V30 509 C 44.3271 -1.06193 -5.24049 0
M  V30 510 C 45.6271 -3.01743 -4.2632 0
M  V30 511 H 47.3211 -1.94916 -2.27262 0
M  V30 512 H 44.8671 -0.938566 -1.09211 0
M  V30 513 H 46.8201 -0.445561 -4.19038 0
M  V30 514 H 45.5441 0.362005 -3.24588 0
M  V30 515 H 44.2031 -1.77021 -3.21028 0
M  V30 516 H 43.8511 -0.0901903 -5.02919 0
M  V30 517 H 43.5511 -1.74732 -5.61019 0
M  V30 518 H 45.0751 -0.918092 -6.03658 0
M  V30 519 H 46.4891 -2.90777 -4.94087 0
M  V30 520 H 44.8861 -3.67425 -4.74467 0
M  V30 521 H 45.9561 -3.51518 -3.34011 0
M  V30 522 N 47.2992 1.18797 -1.03562 0
M  V30 523 C 48.2292 2.24472 -0.643019 0
M  V30 524 C 49.2102 1.66433 0.351283 0
M  V30 525 O 50.3952 1.92803 0.232505 0
M  V30 526 C 47.5252 3.473 4.24935e-05 0
M  V30 527 C 46.4792 4.18055 -0.917257 0
M  V30 528 C 45.8052 5.34519 -0.138941 0
M  V30 529 C 47.1052 4.72109 -2.23407 0
M  V30 530 H 48.7992 2.57566 -1.52643 0
M  V30 531 H 46.3452 1.23806 -0.735394 0
M  V30 532 H 48.2982 4.20426 0.286383 0
M  V30 533 H 47.0222 3.13424 0.918299 0
M  V30 534 H 45.6812 3.46821 -1.1879 0
M  V30 535 H 45.3292 4.96891 0.781562 0
M  V30 536 H 45.0292 5.82794 -0.750005 0
M  V30 537 H 46.5532 6.10438 0.1405 0
M  V30 538 H 47.9672 5.36955 -2.00879 0
M  V30 539 H 46.3642 5.30897 -2.79765 0
M  V30 540 H 47.4342 3.89807 -2.88407 0
M  V30 541 N 48.7773 0.814389 1.34928 0
M  V30 542 C 50.0253 0.397636 1.9815 0
M  V30 543 C 50.3463 -1.04069 1.64908 0
M  V30 544 O 49.6163 -1.72121 0.93548 0
M  V30 545 H 48.1963 0.144043 0.732981 0
M  V30 546 H 50.8583 1.04195 1.6471 0
M  V30 547 H 49.9543 0.509688 3.0791 0
M  V30 548 N 50.2554 -1.46986 0.568584 0
M  V30 549 C 51.2024 -2.30153 -0.172707 0
M  V30 550 C 52.1724 -1.39759 -0.897586 0
M  V30 551 O 53.3574 -1.68716 -0.891044 0
M  V30 552 C 50.4974 -3.23952 -1.1895 0
M  V30 553 C 49.6104 -4.29441 -0.469517 0
M  V30 554 C 48.7454 -5.1038 -1.47259 0
M  V30 555 C 47.7844 -6.07632 -0.738225 0
M  V30 556 N 46.9214 -6.8149 -1.68868 0
M  V30 557 H 51.7614 -2.93019 0.542596 0
M  V30 558 H 49.2984 -1.44422 0.279401 0
M  V30 559 H 51.2564 -3.76767 -1.79173 0
M  V30 560 H 49.8864 -2.62926 -1.87269 0
M  V30 561 H 48.9384 -3.79594 0.247467 0
M  V30 562 H 50.2504 -4.98689 0.105241 0
M  V30 563 H 49.4044 -5.67402 -2.14803 0
M  V30 564 H 48.1434 -4.4106 -2.08128 0
M  V30 565 H 47.1484 -5.49778 -0.0489293 0
M  V30 566 H 48.3734 -6.78966 -0.135129 0
M  V30 567 H 46.3194 -6.14891 -2.28573 0
M  V30 568 H 46.2364 -7.46948 -1.16636 0
M  V30 569 H 47.5044 -7.43078 -2.3549 0
M  V30 570 N 51.7335 -0.305618 -1.54608 0
M  V30 571 C 53.1495 0.0476228 -1.59529 0
M  V30 572 C 53.3495 1.52025 -1.32252 0
M  V30 573 O 52.4055 2.27368 -1.09818 0
M  V30 574 C 53.7185 -0.354471 -2.98603 0
M  V30 575 C 55.2665 -0.303622 -3.11524 0
M  V30 576 C 55.7415 -0.680608 -4.52915 0
M  V30 577 N 57.2325 -0.63332 -4.5885 0
M  V30 578 C 57.9675 -0.897432 -5.66334 0
M  V30 579 N 57.4635 -1.22775 -6.81834 0
M  V30 580 N 59.2565 -0.824186 -5.56025 0
M  V30 581 H 51.4075 -1.2653 -1.70599 0
M  V30 582 H 53.6705 -0.513291 -0.797017 0
M  V30 583 H 53.3765 -1.3798 -3.23503 0
M  V30 584 H 53.2505 0.289568 -3.76087 0
M  V30 585 H 55.6375 0.712472 -2.8637 0
M  V30 586 H 55.7185 -0.982348 -2.36185 0
M  V30 587 H 55.3625 -1.69453 -4.78799 0
M  V30 588 H 55.2925 0.0202385 -5.26596 0
M  V30 589 H 57.7835 -0.389138 -3.75891 0
M  V30 590 H 58.0965 -1.41513 -7.59733 0
M  V30 591 H 56.4415 -1.26583 -6.83375 0
M  V30 592 H 59.6325 -0.565748 -4.64669 0
M  V30 593 H 59.8055 -1.03338 -6.39707 0
M  V30 594 N 53.2116 1.57565 -0.0334293 0
M  V30 595 C 54.4396 1.9628 0.654347 0
M  V30 596 C 54.8546 0.910138 1.65414 0
M  V30 597 O 54.2116 -0.107595 1.82183 0
M  V30 598 C 54.2626 3.35067 1.35693 0
M  V30 599 O 53.9836 4.36296 0.397191 0
M  V30 600 C 55.4846 3.88439 2.13613 0
M  V30 601 H 52.7046 0.646369 0.180132 0
M  V30 602 H 55.2486 2.04282 -0.0944721 0
M  V30 603 H 53.4036 3.2827 2.05712 0
M  V30 604 H 53.8176 5.1678 0.896597 0
M  V30 605 H 55.2916 4.8788 2.58219 0
M  V30 606 H 55.7686 3.22914 2.97696 0
M  V30 607 H 56.3746 3.98516 1.48543 0
M  V30 608 N 54.6897 -0.239769 1.55765 0
M  V30 609 C 55.6377 -1.31668 1.91745 0
M  V30 610 C 56.6317 -1.49462 0.797338 0
M  V30 611 O 57.8377 -1.50852 0.982021 0
M  V30 612 H 54.2127 -0.441048 0.609082 0
M  V30 613 H 56.1837 -0.985923 2.81642 0
M  V30 614 C 54.9327 -2.66368 2.2348 0
M  V30 615 H 54.2557 -2.53478 3.09175 0
M  V30 616 H 55.6957 -3.40578 2.52553 0
M  V30 617 C 54.1547 -3.20002 1.05359 0
M  V30 618 O 54.6847 -4.00538 0.305261 0
M  V30 619 N 52.8907 -2.78126 0.842292 0
M  V30 620 H 52.4377 -2.12742 1.45253 0
M  V30 621 H 52.3957 -3.14354 0.053652 0
M  V30 622 N 56.1678 -1.49265 -0.50573 0
M  V30 623 C 57.5838 -1.35923 -0.836486 0
M  V30 624 C 57.7838 -0.388704 -1.97715 0
M  V30 625 O 56.8398 0.181336 -2.51848 0
M  V30 626 C 58.1528 -2.76531 -1.18115 0
M  V30 627 C 59.7008 -2.85197 -1.28964 0
M  V30 628 C 60.1758 -4.26561 -1.66761 0
M  V30 629 N 61.6668 -4.2935 -1.73819 0
M  V30 630 C 62.4018 -5.35693 -2.045 0
M  V30 631 N 61.8978 -6.52287 -2.33438 0
M  V30 632 N 63.6908 -5.23105 -2.05711 0
M  V30 633 H 55.8418 -2.10965 0.246519 0
M  V30 634 H 58.1048 -0.9468 0.0476887 0
M  V30 635 H 57.8108 -3.49226 -0.416398 0
M  V30 636 H 57.6848 -3.11599 -2.1257 0
M  V30 637 H 60.0718 -2.12742 -2.04511 0
M  V30 638 H 60.1528 -2.53718 -0.325704 0
M  V30 639 H 59.7968 -4.99541 -0.917656 0
M  V30 640 H 59.7268 -4.55502 -2.64246 0
M  V30 641 H 62.2178 -3.4526 -1.53635 0
M  V30 642 H 62.5308 -7.29158 -2.56024 0
M  V30 643 H 60.8758 -6.55521 -2.30905 0
M  V30 644 H 64.0668 -4.31026 -1.82577 0
M  V30 645 H 64.2398 -6.06078 -2.29289 0
M  V30 646 N 57.6459 0.756429 -1.3826 0
M  V30 647 C 59.0569 1.33359 -1.30661 0
M  V30 648 C 59.4079 1.96161 0.0388875 0
M  V30 649 O 58.5329 1.94874 0.940918 0
M  V30 650 C 59.1279 2.42477 -2.36622 0
M  V30 651 C 57.6869 2.95922 -2.3261 0
M  V30 652 C 56.8339 1.69275 -2.19639 0
M  V30 653 H 59.7849 0.55552 -1.4866 0
M  V30 654 H 59.8059 3.22345 -2.02174 0
M  V30 655 H 59.3179 1.96739 -3.34538 0
M  V30 656 H 57.4189 3.45996 -1.38267 0
M  V30 657 H 57.5319 3.50494 -3.26636 0
M  V30 658 H 55.8959 1.92793 -1.66442 0
M  V30 659 H 56.6789 1.25619 -3.19491 0
M  V30 660 N 59.124 1.23083 0.984299 0
M  V30 661 C 60.087 1.00979 2.05757 0
M  V30 662 C 61.087 -0.0269573 1.60777 0
M  V30 663 O 62.277 0.212403 1.729 0
M  V30 664 C 59.409 0.527072 3.36801 0
M  V30 665 H 60.602 1.9622 2.26799 0
M  V30 666 H 58.155 1.05072 1.15714 0
M  V30 667 H 58.89 -0.429294 3.21446 0
M  V30 668 H 58.675 1.27515 3.70786 0
M  V30 669 H 60.165 0.392942 4.15747 0
M  V30 670 N 60.6021 -1.18246 1.0419 0
M  V30 671 C 61.5341 -2.2142 0.592088 0
M  V30 672 C 62.5471 -1.59233 -0.338909 0
M  V30 673 O 63.7361 -1.78002 -0.133231 0
M  V30 674 C 60.8361 -3.38546 -0.154854 0
M  V30 675 C 60.0091 -4.3031 0.784328 0
M  V30 676 C 59.0681 -5.26138 0.0804583 0
M  V30 677 O 58.0941 -5.64738 0.711292 0
M  V30 678 N 59.2961 -5.68261 -1.18574 0
M  V30 679 H 62.0611 -2.60636 1.47949 0
M  V30 680 H 59.6221 -1.33044 0.922544 0
M  V30 681 H 61.6141 -3.99678 -0.635606 0
M  V30 682 H 60.1841 -2.98012 -0.943811 0
M  V30 683 H 59.4041 -3.66764 1.44491 0
M  V30 684 H 60.6921 -4.8852 1.42218 0
M  V30 685 H 60.0901 -5.38957 -1.71876 0
M  V30 686 H 58.6471 -6.31584 -1.61074 0
M  V30 687 N 62.0802 -0.821533 -1.34494 0
M  V30 688 C 63.3282 -0.408139 -1.97936 0
M  V30 689 C 63.6492 1.03193 -1.65457 0
M  V30 690 O 62.9192 1.71622 -0.944595 0
M  V30 691 H 61.4992 -0.147928 -0.732206 0
M  V30 692 H 64.1612 -1.05067 -1.64155 0
M  V30 693 H 63.2572 -0.52601 -3.07635 0
M  V30 694 N 63.5583 1.46682 -0.576371 0
M  V30 695 C 64.7883 2.06498 -0.0648694 0
M  V30 696 C 65.1963 1.42665 1.24271 0
M  V30 697 O 64.5393 0.523886 1.76071 0
M  V30 698 C 64.6013 3.5904 0.181816 0
M  V30 699 C 64.2653 4.45028 -1.0392 0
M  V30 700 C 65.2623 4.81959 -1.94966 0
M  V30 701 C 62.9473 4.86259 -1.25927 0
M  V30 702 C 64.9413 5.58942 -3.06371 0
M  V30 703 C 62.6283 5.63002 -2.37638 0
M  V30 704 C 63.6263 5.99257 -3.2769 0
M  V30 705 O 63.3143 6.7445 -4.37461 0
M  V30 706 H 63.0463 0.674028 -0.0515987 0
M  V30 707 H 65.6003 1.89393 -0.794951 0
M  V30 708 H 63.8303 3.74429 0.966436 0
M  V30 709 H 65.5193 4.00806 0.641047 0
M  V30 710 H 66.2853 4.50689 -1.79177 0
M  V30 711 H 62.1643 4.57494 -0.567448 0
M  V30 712 H 65.7083 5.87158 -3.76684 0
M  V30 713 H 61.6053 5.93686 -2.53392 0
M  V30 714 H 62.3733 6.92867 -4.35749 0
M  V30 715 N 65.0364 0.313813 1.54444 0
M  V30 716 C 66.2824 -0.284918 2.01395 0
M  V30 717 C 66.6374 -1.50537 1.19818 0
M  V30 718 O 65.9304 -1.89692 0.269748 0
M  V30 719 C 66.1244 -0.680386 3.50864 0
M  V30 720 C 65.9534 0.500198 4.4691 0
M  V30 721 C 64.7234 0.996248 4.95382 0
M  V30 722 C 66.9214 1.34928 4.96285 0
M  V30 723 N 64.9034 2.14226 5.75309 0
M  V30 724 C 66.2744 2.3426 5.7404 0
M  V30 725 C 68.3294 1.37818 4.78446 0
M  V30 726 C 67.0324 3.36272 6.35856 0
M  V30 727 C 69.0584 2.38695 5.4109 0
M  V30 728 C 68.4204 3.36755 6.18688 0
M  V30 729 H 64.5194 -0.0683689 0.779006 0
M  V30 730 H 67.1034 0.44664 1.89508 0
M  V30 731 H 65.2744 -1.38109 3.63016 0
M  V30 732 H 67.0064 -1.25975 3.84594 0
M  V30 733 H 63.7614 0.56912 4.70168 0
M  V30 734 H 64.1854 2.72005 6.19953 0
M  V30 735 H 68.8274 0.633747 4.18023 0
M  V30 736 H 66.5454 4.11627 6.95405 0
M  V30 737 H 70.1314 2.41721 5.29209 0
M  V30 738 H 69.0114 4.13535 6.66302 0
M  V30 739 N 66.5145 -1.57545 0.0417849 0
M  V30 740 C 67.7615 -1.92317 -0.634082 0
M  V30 741 C 68.0895 -0.919334 -1.71402 0
M  V30 742 O 67.3445 0.0698253 -1.95575 0
M  V30 743 C 67.6435 -3.33794 -1.27735 0
M  V30 744 C 67.3095 -4.49716 -0.326543 0
M  V30 745 C 65.9715 -4.81156 -0.0648814 0
M  V30 746 C 68.3235 -5.20182 0.325623 0
M  V30 747 C 65.6515 -5.80414 0.856539 0
M  V30 748 C 68.0035 -6.20424 1.23518 0
M  V30 749 C 66.6675 -6.50298 1.5056 0
M  V30 750 H 65.9375 -0.703736 -0.232027 0
M  V30 751 H 68.5845 -1.91205 0.106259 0
M  V30 752 H 66.8895 -3.31228 -2.09274 0
M  V30 753 H 68.5865 -3.57975 -1.80707 0
M  V30 754 H 65.1765 -4.25176 -0.540665 0
M  V30 755 H 69.3605 -4.96112 0.136546 0
M  V30 756 H 64.6165 -6.019 1.07363 0
M  V30 757 H 68.7905 -6.74141 1.74664 0
M  V30 758 H 66.4175 -7.27025 2.22123 0
M  V30 759 N 67.9926 0.231505 -1.5589 0
M  V30 760 C 69.2386 0.95877 -1.78705 0
M  V30 761 C 69.5716 1.8438 -0.609725 0
M  V30 762 O 68.8466 1.90521 0.391426 0
M  V30 763 C 69.1296 1.8062 -3.11526 0
M  V30 764 C 68.9826 0.948328 -4.39689 0
M  V30 765 C 70.3016 2.78585 -3.40703 0
M  V30 766 H 67.4206 0.347129 -0.650131 0
M  V30 767 H 70.0626 0.228259 -1.88624 0
M  V30 768 H 68.2126 2.42902 -3.03201 0
M  V30 769 H 69.8846 0.343016 -4.60023 0
M  V30 770 H 68.1276 0.253314 -4.3306 0
M  V30 771 H 68.7986 1.57543 -5.29041 0
M  V30 772 H 71.2746 2.26439 -3.49091 0
M  V30 773 H 70.1506 3.34988 -4.34826 0
M  V30 774 H 70.4116 3.55825 -2.62375 0
M  V30 775 N 69.4707 1.49531 0.497807 0
M  V30 776 C 70.8817 1.52344 1.07927 0
M  V30 777 C 71.2327 0.311469 1.93712 0
M  V30 778 O 70.3577 -0.578405 2.08527 0
M  V30 779 C 70.9527 2.76062 1.96405 0
M  V30 780 C 69.5117 2.81643 2.49709 0
M  V30 781 C 68.6587 2.46299 1.27404 0
M  V30 782 H 71.6097 1.56182 0.281576 0
M  V30 783 H 71.6307 2.56405 2.81135 0
M  V30 784 H 71.1427 3.64254 1.33943 0
M  V30 785 H 69.2437 1.97739 3.15801 0
M  V30 786 H 69.3567 3.83891 2.86643 0
M  V30 787 H 67.7207 1.98148 1.60029 0
M  V30 788 H 68.5037 3.36769 0.66645 0
M  V30 789 N 70.9488 -0.749086 1.3866 0
M  V30 790 C 72.1968 -1.50535 1.34847 0
M  V30 791 C 72.5178 -1.94909 -0.0595016 0
M  V30 792 O 71.7878 -1.67973 -1.00806 0
M  V30 793 H 70.3678 -0.558395 0.49619 0
M  V30 794 H 73.0298 -0.890165 1.73384 0
M  V30 795 H 72.1258 -2.39413 2.00219 0
M  V30 796 N 72.4269 -1.23603 -0.977757 0
M  V30 797 C 73.6749 -1.06759 -1.71601 0
M  V30 798 C 73.9959 0.395929 -1.90938 0
M  V30 799 O 73.2659 1.28356 -1.47992 0
M  V30 800 H 71.8459 -0.392062 -0.635843 0
M  V30 801 H 74.5079 -1.55362 -1.1768 0
M  V30 802 H 73.6039 -1.55763 -2.70452 0
M  V30 803 N 73.905 1.17692 -1.04816 0
M  V30 804 C 75.321 1.39863 -0.768794 0
M  V30 805 C 75.521 1.91118 0.638451 0
M  V30 806 O 74.577 2.10036 1.40146 0
M  V30 807 C 75.89 2.39274 -1.82122 0
M  V30 808 C 77.438 2.52987 -1.843 0
M  V30 809 C 77.913 3.55669 -2.88555 0
M  V30 810 N 79.404 3.63183 -2.87493 0
M  V30 811 C 80.139 4.42381 -3.64811 0
M  V30 812 N 79.635 5.25125 -4.51903 0
M  V30 813 N 81.428 4.37217 -3.53267 0
M  V30 814 H 73.579 0.82752 -1.95617 0
M  V30 815 H 75.842 0.426123 -0.846831 0
M  V30 816 H 75.548 2.08678 -2.83102 0
M  V30 817 H 75.422 3.38725 -1.65967 0
M  V30 818 H 77.809 2.82896 -0.839869 0
M  V30 819 H 77.89 1.53623 -2.04532 0
M  V30 820 H 77.534 3.26499 -3.89051 0
M  V30 821 H 77.464 4.54728 -2.65575 0
M  V30 822 H 79.955 3.04103 -2.24343 0
M  V30 823 H 80.268 5.82728 -5.07591 0
M  V30 824 H 78.613 5.24519 -4.55966 0
M  V30 825 H 81.804 3.71626 -2.84625 0
M  V30 826 H 81.977 4.98696 -4.13771 0
M  V30 827 N 75.3831 0.828654 1.34056 0
M  V30 828 C 76.6291 0.42008 1.98402 0
M  V30 829 C 76.9621 -1.01564 1.65525 0
M  V30 830 O 76.2371 -1.70834 0.929831 0
M  V30 831 C 76.5201 0.62927 3.54559 0
M  V30 832 C 76.3731 2.11152 3.97159 0
M  V30 833 C 77.6921 0.0688756 4.40046 0
M  V30 834 H 74.8111 0.154104 0.720709 0
M  V30 835 H 77.4531 1.04228 1.5886 0
M  V30 836 H 75.6031 0.0996418 3.88372 0
M  V30 837 H 77.2751 2.70522 3.73651 0
M  V30 838 H 75.5181 2.59985 3.47261 0
M  V30 839 H 76.1891 2.20868 5.05887 0
M  V30 840 H 78.6651 0.521458 4.1282 0
M  V30 841 H 77.5411 0.245006 5.48353 0
M  V30 842 H 77.8021 -1.0266 4.30015 0
M  V30 843 N 76.8612 -1.46375 0.584142 0
M  V30 844 C 77.7932 -2.28443 -0.186119 0
M  V30 845 C 78.8062 -1.38596 -0.854115 0
M  V30 846 O 79.9952 -1.63183 -0.723438 0
M  V30 847 C 77.0952 -3.13671 -1.28311 0
M  V30 848 C 76.2682 -4.31652 -0.706758 0
M  V30 849 C 75.3272 -4.98267 -1.69163 0
M  V30 850 O 74.3532 -5.55815 -1.22712 0
M  V30 851 N 75.5552 -4.95408 -3.02575 0
M  V30 852 H 78.3202 -2.9519 0.517986 0
M  V30 853 H 75.8812 -1.56303 0.42201 0
M  V30 854 H 77.8732 -3.55101 -1.94128 0
M  V30 855 H 76.4432 -2.48989 -1.89005 0
M  V30 856 H 75.6632 -3.93989 0.128908 0
M  V30 857 H 76.9512 -5.07906 -0.301506 0
M  V30 858 H 76.3492 -4.49902 -3.42936 0
M  V30 859 H 74.9062 -5.40774 -3.63877 0
M  V30 860 N 78.3393 -0.321999 -1.54275 0
M  V30 861 C 79.2863 0.544664 -2.24281 0
M  V30 862 C 80.2563 1.1129 -1.23303 0
M  V30 863 O 81.4413 1.15354 -1.51981 0
M  V30 864 C 78.5813 1.70045 -3.00298 0
M  V30 865 C 77.6943 1.16159 -4.1609 0
M  V30 866 C 76.8293 2.28293 -4.79641 0
M  V30 867 C 75.8683 1.71648 -5.8754 0
M  V30 868 N 75.0053 2.77438 -6.44959 0
M  V30 869 H 79.8453 -0.0588907 -2.97942 0
M  V30 870 H 77.3823 -0.0408345 -1.47043 0
M  V30 871 H 79.3403 2.38054 -3.42616 0
M  V30 872 H 77.9703 2.27531 -2.28975 0
M  V30 873 H 77.0223 0.373092 -3.78566 0
M  V30 874 H 78.3343 0.707087 -4.93763 0
M  V30 875 H 77.4883 3.0421 -5.2492 0
M  V30 876 H 76.2273 2.77079 -4.01346 0
M  V30 877 H 75.2323 0.942282 -5.41665 0
M  V30 878 H 76.4573 1.23741 -6.67731 0
M  V30 879 H 74.4033 3.25519 -5.69538 0
M  V30 880 H 74.3203 2.36547 -7.1804 0
M  V30 881 H 75.5883 3.53189 -6.94894 0
M  V30 882 N 79.8174 1.5752 -0.0501392 0
M  V30 883 C 81.0944 1.83996 0.663685 0
M  V30 884 C 81.4744 0.938339 1.89099 0
M  V30 885 O 80.8224 -0.00087759 2.285 0
M  V30 886 C 81.0324 3.33702 1.02196 0
M  V30 887 C 82.3804 4.00691 1.40469 0
M  V30 888 O 83.4044 3.38321 1.11433 0
M  V30 889 O 82.2634 5.10658 1.94654 0
M  V30 890 H 79.3574 0.759385 0.32751 0
M  V30 891 H 81.9034 1.69514 -0.0794238 0
M  V30 892 H 80.6754 3.91015 0.149364 0
M  V30 893 H 80.2984 3.53368 1.82255 0
M  V30 894 N 81.2955 -0.223234 1.56011 0
M  V30 895 C 82.2055 -1.29766 1.95443 0
M  V30 896 C 83.2215 -1.51373 0.858028 0
M  V30 897 O 84.3975 -1.64536 1.16146 0
M  V30 898 C 81.4625 -2.62772 2.26167 0
M  V30 899 C 80.5235 -2.49482 3.49367 0
M  V30 900 C 79.7565 -3.76145 3.78616 0
M  V30 901 O 79.9795 -4.79087 3.09568 0
M  V30 902 O 78.9135 -3.73358 4.72109 0
M  V30 903 H 82.7395 -0.99309 2.87004 0
M  V30 904 H 80.3245 -0.425958 1.43199 0
M  V30 905 H 82.2065 -3.41327 2.47131 0
M  V30 906 H 80.8815 -2.92913 1.37781 0
M  V30 907 H 79.7885 -1.69133 3.33684 0
M  V30 908 H 81.1215 -2.2428 4.38131 0
M  V30 909 N 82.7736 -1.49793 -0.48987 0
M  V30 910 C 84.0016 -1.63568 -1.26701 0
M  V30 911 C 84.4166 -0.311465 -1.86213 0
M  V30 912 O 83.7736 0.704416 -1.68357 0
M  V30 913 C 83.8246 -2.71284 -2.38929 0
M  V30 914 O 83.5456 -3.9857 -1.81861 0
M  V30 915 C 85.0466 -2.95864 -3.3012 0
M  V30 916 H 82.2666 -0.550342 -0.383881 0
M  V30 917 H 84.8106 -1.95898 -0.586864 0
M  V30 918 H 82.9656 -2.417 -3.02753 0
M  V30 919 H 83.3796 -4.57993 -2.55622 0
M  V30 920 H 84.8536 -3.74941 -4.05121 0
M  V30 921 H 85.3306 -2.06206 -3.87783 0
M  V30 922 H 85.9366 -3.26907 -2.72051 0
M  V30 923 N 84.2517 0.741722 -1.39055 0
M  V30 924 C 85.1817 1.869 -1.39966 0
M  V30 925 C 86.1627 1.6804 -0.26392 0
M  V30 926 O 87.3477 1.88458 -0.468755 0
M  V30 927 C 84.4777 3.24572 -1.23574 0
M  V30 928 C 83.4317 3.58056 -2.34477 0
M  V30 929 C 82.7577 4.94593 -2.0318 0
M  V30 930 C 84.0577 3.61716 -3.76774 0
M  V30 931 H 85.7517 1.86395 -2.34302 0
M  V30 932 H 83.2977 0.895361 -1.1278 0
M  V30 933 H 85.2507 4.031 -1.22834 0
M  V30 934 H 83.9747 3.25587 -0.257045 0
M  V30 935 H 82.6337 2.81854 -2.34423 0
M  V30 936 H 82.2817 4.92181 -1.03765 0
M  V30 937 H 81.9817 5.17964 -2.77465 0
M  V30 938 H 83.5057 5.75486 -2.04079 0
M  V30 939 H 84.9197 4.30335 -3.78794 0
M  V30 940 H 83.3167 3.96603 -4.50362 0
M  V30 941 H 84.3867 2.61672 -4.08235 0
M  V30 942 N 85.7298 1.2412 0.971189 0
M  V30 943 C 86.6398 1.04747 2.09917 0
M  V30 944 C 87.6558 -0.0107162 1.73997 0
M  V30 945 O 88.8318 0.186714 2.00533 0
M  V30 946 C 85.8968 0.650828 3.40537 0
M  V30 947 C 84.9578 1.7851 3.90426 0
M  V30 948 C 84.1908 1.40729 5.14812 0
M  V30 949 O 84.4138 0.29557 5.69634 0
M  V30 950 O 83.3478 2.23168 5.58999 0
M  V30 951 H 87.1738 1.99304 2.29154 0
M  V30 952 H 84.7588 1.02908 1.08307 0
M  V30 953 H 86.6408 0.440992 4.19086 0
M  V30 954 H 85.3158 -0.265649 3.22608 0
M  V30 955 H 84.2228 2.04966 3.12953 0
M  V30 956 H 85.5558 2.68023 4.12825 0
M  V30 957 N 87.2079 -1.17134 1.05439 0
M  V30 958 C 88.1709 -2.19439 0.661764 0
M  V30 959 C 89.1709 -1.58199 -0.288042 0
M  V30 960 O 90.3609 -1.74053 -0.0715803 0
M  V30 961 C 87.4929 -3.40889 -0.0276209 0
M  V30 962 H 88.6859 -2.55688 1.56728 0
M  V30 963 H 86.2389 -1.31259 0.848567 0
M  V30 964 H 86.9739 -3.10187 -0.94629 0
M  V30 965 H 86.7589 -3.86586 0.655238 0
M  V30 966 H 88.2489 -4.16603 -0.288342 0
M  V30 967 N 88.686 -0.835752 -1.33615 0
M  V30 968 C 89.649 -0.272 -2.2758 0
M  V30 969 C 90.649 0.557487 -1.50827 0
M  V30 970 O 91.839 0.37173 -1.70188 0
M  V30 971 C 88.971 0.617173 -3.35267 0
M  V30 972 H 90.164 -1.10111 -2.78954 0
M  V30 973 H 87.717 -0.608594 -1.43965 0
M  V30 974 H 88.452 1.46884 -2.89129 0
M  V30 975 H 88.237 0.0237066 -3.92093 0
M  V30 976 H 89.727 1.005 -4.05326 0
M  V30 977 N 90.1641 1.46063 -0.591896 0
M  V30 978 C 91.4111 2.02338 -0.0809991 0
M  V30 979 C 91.7391 1.46228 1.28249 0
M  V30 980 O 90.9941 0.620818 1.85592 0
M  V30 981 C 91.2931 3.57391 0.0249813 0
M  V30 982 C 90.9591 4.32583 -1.27211 0
M  V30 983 C 89.6211 4.52844 -1.62745 0
M  V30 984 C 91.9731 4.75687 -2.13005 0
M  V30 985 C 89.3011 5.13462 -2.83855 0
M  V30 986 C 91.6531 5.37644 -3.3335 0
M  V30 987 C 90.3171 5.5613 -3.69155 0
M  V30 988 H 89.5871 0.740407 -0.0296397 0
M  V30 989 H 92.2341 1.75321 -0.770374 0
M  V30 990 H 90.5391 3.83597 0.797537 0
M  V30 991 H 92.2361 3.98621 0.436184 0
M  V30 992 H 88.8261 4.17116 -0.985499 0
M  V30 993 H 93.0101 4.59782 -1.86855 0
M  V30 994 H 88.2661 5.25965 -3.11722 0
M  V30 995 H 92.4401 5.7 -4.00092 0
M  V30 996 H 90.0671 6.0287 -4.63089 0
M  V30 997 N 91.6422 0.330177 1.54103 0
M  V30 998 C 92.5522 -0.541534 2.28264 0
M  V30 999 C 93.5682 -1.12351 1.32866 0
M  V30 1000 O 94.7442 -1.14206 1.65888 0
M  V30 1001 C 91.8092 -1.68322 3.03098 0
M  V30 1002 C 90.8702 -1.13238 4.14096 0
M  V30 1003 C 90.1032 -2.21966 4.85352 0
M  V30 1004 O 90.3262 -3.42437 4.56172 0
M  V30 1005 O 89.2602 -1.87013 5.7211 0
M  V30 1006 H 93.0862 0.060938 3.03639 0
M  V30 1007 H 90.6712 0.09565 1.49093 0
M  V30 1008 H 92.5532 -2.34777 3.49939 0
M  V30 1009 H 91.2282 -2.27176 2.30593 0
M  V30 1010 H 90.1352 -0.432736 3.71589 0
M  V30 1011 H 91.4682 -0.588898 4.88664 0
M  V30 1012 N 93.1203 -1.57491 0.0584922 0
M  V30 1013 C 94.5363 -1.56792 -0.298091 0
M  V30 1014 C 94.7363 -1.06679 -1.70944 0
M  V30 1015 O 93.7923 -0.726672 -2.41818 0
M  V30 1016 C 95.1053 -3.00461 -0.119879 0
M  V30 1017 C 96.6533 -3.1242 -0.190428 0
M  V30 1018 C 97.1283 -4.57982 -0.0406567 0
M  V30 1019 N 98.6193 -4.63099 -0.0966958 0
M  V30 1020 C 99.3543 -5.734 -0.00502943 0
M  V30 1021 N 98.8503 -6.9266 0.139402 0
M  V30 1022 N 100.643 -5.62067 -0.0611391 0
M  V30 1023 H 92.7943 -1.88386 0.98105 0
M  V30 1024 H 95.0573 -0.867865 0.381463 0
M  V30 1025 H 94.7633 -3.41187 0.85349 0
M  V30 1026 H 94.6373 -3.66843 -0.877833 0
M  V30 1027 H 97.0243 -2.71589 -1.15427 0
M  V30 1028 H 97.1053 -2.48702 0.598405 0
M  V30 1029 H 96.7493 -4.995 0.919897 0
M  V30 1030 H 96.6793 -5.19715 -0.848727 0
M  V30 1031 H 99.1703 -3.77331 -0.207277 0
M  V30 1032 H 99.4833 -7.72536 0.201855 0
M  V30 1033 H 97.8283 -6.94781 0.174586 0
M  V30 1034 H 101.019 -4.67782 -0.172583 0
M  V30 1035 H 101.192 -6.47999 0.0137562 0
M  V30 1036 N 94.5984 0.214957 -1.56127 0
M  V30 1037 C 95.5284 1.2695 -1.95974 0
M  V30 1038 C 96.5094 1.48539 -0.828868 0
M  V30 1039 O 97.6944 1.60611 -1.09168 0
M  V30 1040 C 94.8244 2.61794 -2.28214 0
M  V30 1041 C 93.7784 2.54851 -3.43853 0
M  V30 1042 C 93.1044 3.93785 -3.61715 0
M  V30 1043 C 94.4044 2.09065 -4.78632 0
M  V30 1044 H 96.0984 0.93846 -2.84312 0
M  V30 1045 H 93.6444 0.449996 -1.36788 0
M  V30 1046 H 95.5974 3.35731 -2.54682 0
M  V30 1047 H 94.3214 2.96599 -1.36736 0
M  V30 1048 H 92.9804 1.8337 -3.17444 0
M  V30 1049 H 92.6284 4.25908 -2.67602 0
M  V30 1050 H 92.3284 3.90019 -4.39498 0
M  V30 1051 H 93.8524 4.69374 -3.90539 0
M  V30 1052 H 95.2664 2.7275 -5.04262 0
M  V30 1053 H 93.6634 2.16346 -5.59745 0
M  V30 1054 H 94.7334 1.04315 -4.73547 0
M  V30 1055 N 96.0765 1.50051 0.48192 0
M  V30 1056 C 97.3045 1.64237 1.25832 0
M  V30 1057 C 97.7195 0.321336 1.86045 0
M  V30 1058 O 97.0765 -0.695478 1.68729 0
M  V30 1059 C 97.1275 2.72548 2.37487 0
M  V30 1060 O 96.8485 3.99529 1.79745 0
M  V30 1061 C 98.3495 2.9761 3.28547 0
M  V30 1062 H 95.5695 0.55237 0.380957 0
M  V30 1063 H 98.1135 1.96207 0.576467 0
M  V30 1064 H 96.2685 2.43303 3.01467 0
M  V30 1065 H 96.6825 4.59342 2.5319 0
M  V30 1066 H 98.1565 3.77084 4.03127 0
M  V30 1067 H 98.6335 2.0826 3.86684 0
M  V30 1068 H 99.2395 3.28345 2.70314 0
M  V30 1069 N 97.5546 -0.734337 1.39446 0
M  V30 1070 C 98.4876 -1.85715 1.32609 0
M  V30 1071 C 99.4656 -1.6137 0.199636 0
M  V30 1072 O 100.65 -1.84626 0.380195 0
M  V30 1073 C 97.7766 -3.21709 1.05929 0
M  V30 1074 C 96.8226 -3.64913 2.20773 0
M  V30 1075 S 97.6556 -3.74203 3.83056 0
M  V30 1076 C 98.8116 -5.12986 3.58603 0
M  V30 1077 H 99.0446 -1.91232 2.27635 0
M  V30 1078 H 96.5776 -0.899263 1.25509 0
M  V30 1079 H 98.5356 -4.00236 0.912203 0
M  V30 1080 H 97.1966 -3.13848 0.125883 0
M  V30 1081 H 96.3896 -4.63606 1.97699 0
M  V30 1082 H 95.9916 -2.93593 2.31688 0
M  V30 1083 H 98.2836 -5.99339 3.15909 0
M  V30 1084 H 99.2266 -5.41088 4.5676 0
M  V30 1085 H 99.6346 -4.82694 2.9269 0
M  V30 1086 N 99.0327 -1.24633 -0.964593 0
M  V30 1087 C 99.9957 -1.0424 -2.04124 0
M  V30 1088 C 100.996 0.00137563 -1.608 0
M  V30 1089 O 102.186 -0.239883 -1.7254 0
M  V30 1090 C 99.3177 -0.580588 -3.3592 0
M  V30 1091 H 100.511 -1.99803 -2.23649 0
M  V30 1092 H 98.0637 -1.06899 -1.14027 0
M  V30 1093 H 98.7987 0.3781 -3.22088 0
M  V30 1094 H 98.5837 -1.33398 -3.6871 0
M  V30 1095 H 100.074 -0.459034 -4.15069 0
M  V30 1096 N 100.511 1.16574 -1.06058 0
M  V30 1097 C 101.421 2.2452 -0.680282 0
M  V30 1098 C 102.437 1.71348 0.302604 0
M  V30 1099 O 103.613 2.00822 0.152513 0
M  V30 1100 C 100.678 3.46629 -0.0700315 0
M  V30 1101 C 99.7388 4.14849 -1.10448 0
M  V30 1102 C 98.9718 5.31129 -0.523256 0
M  V30 1103 O 99.1948 5.66514 0.664709 0
M  V30 1104 O 98.1288 5.88526 -1.26179 0
M  V30 1105 H 101.955 2.59355 -1.58015 0
M  V30 1106 H 99.5398 1.24043 -0.832694 0
M  V30 1107 H 101.422 4.20543 0.268667 0
M  V30 1108 H 100.097 3.13573 0.803353 0
M  V30 1109 H 99.0038 3.42916 -1.49532 0
M  V30 1110 H 100.337 4.51954 -1.94931 0
M  V30 1111 N 101.989 0.842826 1.3317 0
M  V30 1112 C 102.919 0.294028 2.31641 0
M  V30 1113 C 103.9 -0.600401 1.59151 0
M  V30 1114 O 105.085 -0.523124 1.87022 0
M  V30 1115 C 102.215 -0.528416 3.43257 0
M  V30 1116 C 101.169 0.27056 4.27144 0
M  V30 1117 C 100.495 -0.675881 5.30411 0
M  V30 1118 C 101.795 1.48981 5.00602 0
M  V30 1119 H 103.489 1.11681 2.77791 0
M  V30 1120 H 101.035 0.538478 1.33553 0
M  V30 1121 H 102.988 -0.922674 4.11175 0
M  V30 1122 H 101.712 -1.38445 2.95805 0
M  V30 1123 H 100.371 0.646427 3.60856 0
M  V30 1124 H 100.019 -1.52842 4.79216 0
M  V30 1125 H 99.7189 -0.145374 5.8742 0
M  V30 1126 H 101.243 -1.06757 6.01195 0
M  V30 1127 H 102.657 1.16849 5.61266 0
M  V30 1128 H 101.054 1.95739 5.6728 0
M  V30 1129 H 102.124 2.25746 4.29147 0
M  V30 1130 N 103.467 -1.45747 0.599634 0
M  V30 1131 C 104.715 -2.01893 0.0915472 0
M  V30 1132 C 105.036 -1.47155 -1.27946 0
M  V30 1133 O 104.306 -0.66273 -1.84349 0
M  V30 1134 H 102.886 -0.746363 0.0308524 0
M  V30 1135 H 105.548 -1.78645 0.779237 0
M  V30 1136 H 104.644 -3.1208 0.0353086 0
M  V30 1137 N 104.945 -0.338344 -1.53925 0
M  V30 1138 C 105.875 0.51328 -2.27789 0
M  V30 1139 C 106.856 1.107 -1.29149 0
M  V30 1140 O 108.041 1.12937 -1.57984 0
M  V30 1141 C 105.171 1.66697 -3.04679 0
M  V30 1142 C 104.125 1.20183 -4.1078 0
M  V30 1143 C 103.451 2.44363 -4.75595 0
M  V30 1144 C 104.751 0.30605 -5.21403 0
M  V30 1145 H 106.445 -0.102883 -2.99223 0
M  V30 1146 H 103.991 -0.0509219 -1.4391 0
M  V30 1147 H 105.944 2.26915 -3.55088 0
M  V30 1148 H 104.668 2.30995 -2.30887 0
M  V30 1149 H 103.327 0.622499 -3.61276 0
M  V30 1150 H 102.975 3.07057 -3.98403 0
M  V30 1151 H 102.675 2.13925 -5.47275 0
M  V30 1152 H 104.199 3.05317 -5.28786 0
M  V30 1153 H 105.613 0.814929 -5.67478 0
M  V30 1154 H 104.01 0.0937929 -6.00027 0
M  V30 1155 H 105.08 -0.65921 -4.80398 0
M  V30 1156 N 106.423 1.57458 -0.0668435 0
M  V30 1157 C 107.839 1.56947 0.289772 0
M  V30 1158 C 108.039 1.07584 1.70376 0
M  V30 1159 O 107.095 0.739486 2.41429 0
M  V30 1160 C 108.408 3.0052 0.103943 0
M  V30 1161 C 109.956 3.12517 0.173857 0
M  V30 1162 C 110.431 4.57997 0.0163682 0
M  V30 1163 N 111.922 4.63144 0.0721352 0
M  V30 1164 C 112.657 5.73394 -0.0253794 0
M  V30 1165 N 112.153 6.92576 -0.176133 0
M  V30 1166 N 113.946 5.62091 0.0313305 0
M  V30 1167 H 106.097 1.87863 -0.991027 0
M  V30 1168 H 108.36 0.86583 -0.38606 0
M  V30 1169 H 108.066 3.40729 -0.871572 0
M  V30 1170 H 107.94 3.67304 0.858366 0
M  V30 1171 H 110.327 2.72197 1.13985 0
M  V30 1172 H 110.408 2.48381 -0.611586 0
M  V30 1173 H 110.052 4.99005 -0.946374 0
M  V30 1174 H 109.982 5.20158 0.821153 0
M  V30 1175 H 112.473 3.77436 0.187263 0
M  V30 1176 H 112.786 7.72418 -0.242821 0
M  V30 1177 H 111.131 6.94678 -0.211429 0
M  V30 1178 H 114.322 4.67867 0.147773 0
M  V30 1179 H 114.495 6.47982 -0.048121 0
M  V30 1180 N 107.901 -0.206675 1.56239 0
M  V30 1181 C 108.831 -1.25909 1.96645 0
M  V30 1182 C 109.812 -1.48097 0.836734 0
M  V30 1183 O 110.997 -1.6003 1.10019 0
M  V30 1184 C 108.127 -2.6058 2.29599 0
M  V30 1185 C 107.081 -2.53024 3.452 0
M  V30 1186 C 106.407 -3.91861 3.63798 0
M  V30 1187 C 107.707 -2.06524 4.79734 0
M  V30 1188 H 109.401 -0.923369 2.84806 0
M  V30 1189 H 106.947 -0.442735 1.37025 0
M  V30 1190 H 108.9 -3.34375 2.56459 0
M  V30 1191 H 107.624 -2.95869 1.38307 0
M  V30 1192 H 106.283 -1.81684 3.18412 0
M  V30 1193 H 105.931 -4.24483 2.69857 0
M  V30 1194 H 105.631 -3.87683 4.4156 0
M  V30 1195 H 107.155 -4.67296 3.93022 0
M  V30 1196 H 108.569 -2.70072 5.05702 0
M  V30 1197 H 106.966 -2.13374 5.60885 0
M  V30 1198 H 108.036 -1.01802 4.74093 0
M  V30 1199 N 109.379 -1.50304 -0.473955 0
M  V30 1200 C 110.79 -1.54042 -1.0549 0
M  V30 1201 C 111.141 -0.342248 -1.93192 0
M  V30 1202 O 110.266 0.545157 -2.09421 0
M  V30 1203 C 110.861 -2.79152 -1.91989 0
M  V30 1204 C 109.42 -2.8558 -2.45196 0
M  V30 1205 C 108.567 -2.48295 -1.2347 0
M  V30 1206 H 111.518 -1.5661 -0.256693 0
M  V30 1207 H 111.539 -2.60845 -2.7702 0
M  V30 1208 H 111.051 -3.66339 -1.28131 0
M  V30 1209 H 109.152 -2.02738 -3.12615 0
M  V30 1210 H 109.265 -3.88403 -2.80499 0
M  V30 1211 H 107.629 -2.00669 -1.56856 0
M  V30 1212 H 108.412 -3.37787 -0.612789 0
M  V30 1213 N 110.857 0.726932 -1.39834 0
M  V30 1214 C 112.106 1.48214 -1.36805 0
M  V30 1215 C 112.419 1.95576 0.0305291 0
M  V30 1216 O 113.625 2.7088 0.183417 0
M  V30 1217 C 112.081 2.67854 -2.40379 0
M  V30 1218 C 111.689 2.27408 -3.85992 0
M  V30 1219 C 113.433 3.45641 -2.46439 0
M  V30 1220 C 111.34 3.43819 -4.81189 0
M  V30 1221 H 110.27 0.556606 -0.508631 0
M  V30 1222 H 112.921 0.792216 -1.65518 0
M  V30 1223 H 111.303 3.3896 -2.04749 0
M  V30 1224 H 112.477 1.63795 -4.30706 0
M  V30 1225 H 110.792 1.62692 -3.83302 0
M  V30 1226 H 113.389 4.32244 -3.14753 0
M  V30 1227 H 113.732 3.88669 -1.49139 0
M  V30 1228 H 114.265 2.8157 -2.81004 0
M  V30 1229 H 111.004 3.05834 -5.79781 0
M  V30 1230 H 110.524 4.06385 -4.41148 0
M  V30 1231 H 112.203 4.10043 -5.00474 0
M  V30 1232 N 112.336 1.25143 0.95797 0
M  V30 1233 C 113.564 1.12424 1.73691 0
M  V30 1234 C 113.979 -0.322304 1.86029 0
M  V30 1235 O 113.336 -1.22186 1.35561 0
M  V30 1236 C 113.387 1.76933 3.15241 0
M  V30 1237 O 113.108 3.15932 3.03511 0
M  V30 1238 C 114.609 1.6995 4.09429 0
M  V30 1239 H 111.829 0.3923 0.544373 0
M  V30 1240 H 114.373 1.6544 1.20207 0
M  V30 1241 H 112.528 1.27895 3.6568 0
M  V30 1242 H 112.942 3.47598 3.9278 0
M  V30 1243 H 114.416 2.19753 5.06372 0
M  V30 1244 H 114.893 0.662619 4.34173 0
M  V30 1245 H 115.499 2.18461 3.64904 0
M  V30 1246 N 113.814 -1.1601 1.06675 0
M  V30 1247 C 114.777 -2.18724 0.685001 0
M  V30 1248 C 115.777 -1.58496 -0.271246 0
M  V30 1249 O 116.967 -1.74119 -0.0531156 0
M  V30 1250 C 114.099 -3.40899 0.00853648 0
M  V30 1251 H 115.292 -2.54011 1.59431 0
M  V30 1252 H 112.845 -1.30352 0.862441 0
M  V30 1253 H 113.58 -3.11173 -0.913337 0
M  V30 1254 H 113.365 -3.8587 0.696204 0
M  V30 1255 H 114.855 -4.16886 -0.24414 0
M  V30 1256 N 115.292 -0.849877 -1.32721 0
M  V30 1257 C 116.54 -0.450032 -1.97026 0
M  V30 1258 C 116.861 0.996604 -1.67609 0
M  V30 1259 O 116.131 1.6958 -0.980786 0
M  V30 1260 H 114.711 -0.163426 -0.728904 0
M  V30 1261 H 117.373 -1.08526 -1.6189 0
M  V30 1262 H 116.469 -0.591146 -3.0645 0
M  V30 1263 N 116.77 1.45427 -0.607355 0
M  V30 1264 C 117.702 2.2871 0.149752 0
M  V30 1265 C 118.715 1.39937 0.831958 0
M  V30 1266 O 119.904 1.64313 0.697385 0
M  V30 1267 C 117.004 3.15673 1.23304 0
M  V30 1268 C 116.177 4.32722 0.637996 0
M  V30 1269 C 115.236 5.00895 1.61215 0
M  V30 1270 O 114.262 5.57697 1.13854 0
M  V30 1271 N 115.464 5.00159 2.94655 0
M  V30 1272 H 118.229 2.94328 -0.564882 0
M  V30 1273 H 115.79 1.55612 -0.446823 0
M  V30 1274 H 117.782 3.58144 1.88454 0
M  V30 1275 H 116.352 2.51965 1.8502 0
M  V30 1276 H 115.572 3.93734 -0.191572 0
M  V30 1277 H 116.86 5.08321 0.220665 0
M  V30 1278 H 116.258 4.553 3.35735 0
M  V30 1279 H 114.815 5.46495 3.55228 0
M  V30 1280 N 118.248 0.346503 1.53744 0
M  V30 1281 C 119.495 -0.249104 2.00962 0
M  V30 1282 C 119.823 -1.5032 1.23426 0
M  V30 1283 O 119.078 -1.93217 0.310761 0
M  V30 1284 C 119.377 -0.605809 3.52228 0
M  V30 1285 C 119.043 0.551747 4.47512 0
M  V30 1286 C 117.705 0.86941 4.73281 0
M  V30 1287 C 120.057 1.32818 5.03993 0
M  V30 1288 C 117.385 1.96582 5.52786 0
M  V30 1289 C 119.737 2.41486 5.84694 0
M  V30 1290 C 118.401 2.73808 6.08757 0
M  V30 1291 H 117.671 -0.0911538 0.735372 0
M  V30 1292 H 120.318 0.475027 1.85515 0
M  V30 1293 H 118.623 -1.4107 3.65522 0
M  V30 1294 H 120.32 -1.07858 3.86222 0
M  V30 1295 H 116.91 0.294102 4.2759 0
M  V30 1296 H 121.094 1.09602 4.84047 0
M  V30 1297 H 116.35 2.22045 5.69654 0
M  V30 1298 H 120.524 3.02078 6.27473 0
M  V30 1299 H 118.151 3.58892 6.7015 0
M  V30 1300 N 119.726 -1.57421 0.075193 0
M  V30 1301 C 120.956 -1.97659 -0.601203 0
M  V30 1302 C 121.364 -0.952427 -1.63479 0
M  V30 1303 O 120.707 0.0688241 -1.83571 0
M  V30 1304 C 120.769 -3.34218 -1.32434 0
M  V30 1305 C 120.433 -4.5484 -0.443826 0
M  V30 1306 C 121.43 -5.19034 0.299969 0
M  V30 1307 C 119.115 -5.00952 -0.367709 0
M  V30 1308 C 121.109 -6.27695 1.10807 0
M  V30 1309 C 118.796 -6.09484 0.444058 0
M  V30 1310 C 119.794 -6.72719 1.18061 0
M  V30 1311 O 119.482 -7.79161 1.97898 0
M  V30 1312 H 119.214 -0.65494 -0.167422 0
M  V30 1313 H 121.768 -2.04886 0.145157 0
M  V30 1314 H 119.998 -3.23615 -2.11685 0
M  V30 1315 H 121.687 -3.59038 -1.89331 0
M  V30 1316 H 122.453 -4.84351 0.250776 0
M  V30 1317 H 118.332 -4.51509 -0.930638 0
M  V30 1318 H 121.876 -6.76982 1.68347 0
M  V30 1319 H 117.773 -6.43601 0.494803 0
M  V30 1320 H 118.541 -7.96055 1.90367 0
M  V30 1321 N 121.204 0.198386 -1.56346 0
M  V30 1322 C 122.452 0.91747 -1.80075 0
M  V30 1323 C 122.773 1.83929 -0.647692 0
M  V30 1324 O 122.043 1.93029 0.334166 0
M  V30 1325 H 120.623 0.341774 -0.664228 0
M  V30 1326 H 123.285 0.204684 -1.93822 0
M  V30 1327 H 122.381 1.51055 -2.7311 0
M  V30 1328 N 122.682 1.50554 0.465978 0
M  V30 1329 C 123.928 1.62038 1.21949 0
M  V30 1330 C 124.261 0.322116 1.9151 0
M  V30 1331 O 123.536 -0.676723 1.82348 0
M  V30 1332 C 123.819 2.80421 2.25912 0
M  V30 1333 C 123.672 4.20144 1.60622 0
M  V30 1334 C 124.991 2.94354 3.27176 0
M  V30 1335 H 122.11 0.589752 0.441998 0
M  V30 1336 H 124.752 1.82956 0.51257 0
M  V30 1337 H 122.902 2.62717 2.86203 0
M  V30 1338 H 124.574 4.49449 1.03889 0
M  V30 1339 H 122.817 4.24165 0.909211 0
M  V30 1340 H 123.488 4.98914 2.36196 0
M  V30 1341 H 125.964 3.10578 2.76913 0
M  V30 1342 H 124.84 3.788 3.97242 0
M  V30 1343 H 125.101 2.05186 3.916 0
M  V30 1344 N 124.16 -0.719506 1.40217 0
M  V30 1345 C 125.406 -1.48034 1.39491 0
M  V30 1346 C 125.761 -1.92399 -0.00443536 0
M  V30 1347 O 125.054 -1.64993 -0.974061 0
M  V30 1348 C 125.248 -2.72271 2.31524 0
M  V30 1349 C 125.077 -2.40055 3.80268 0
M  V30 1350 C 123.847 -2.31588 4.49105 0
M  V30 1351 C 126.045 -2.04581 4.71859 0
M  V30 1352 N 124.027 -1.92006 5.83101 0
M  V30 1353 C 125.398 -1.75568 5.94623 0
M  V30 1354 C 127.453 -1.91183 4.59732 0
M  V30 1355 C 126.156 -1.34505 7.06612 0
M  V30 1356 C 128.182 -1.51524 5.71659 0
M  V30 1357 C 127.544 -1.23406 6.93506 0
M  V30 1358 H 123.643 -0.539927 0.565688 0
M  V30 1359 H 126.227 -0.834764 1.75897 0
M  V30 1360 H 124.398 -3.34584 1.97251 0
M  V30 1361 H 126.13 -3.38584 2.21682 0
M  V30 1362 H 122.885 -2.49199 4.02737 0
M  V30 1363 H 123.309 -1.74764 6.54054 0
M  V30 1364 H 127.951 -2.11584 3.66049 0
M  V30 1365 H 125.669 -1.12846 8.00182 0
M  V30 1366 H 129.255 -1.41741 5.6427 0
M  V30 1367 H 128.135 -0.931788 7.78645 0
M  V30 1368 N 125.638 -1.25649 -0.95132 0
M  V30 1369 C 126.57 -1.02112 -2.05197 0
M  V30 1370 C 127.583 0.0150571 -1.62793 0
M  V30 1371 O 128.772 -0.223874 -1.77091 0
M  V30 1372 C 125.872 -0.522361 -3.3485 0
M  V30 1373 C 125.045 -1.62546 -4.06076 0
M  V30 1374 C 124.104 -1.12649 -5.14001 0
M  V30 1375 O 123.13 -1.82156 -5.39266 0
M  V30 1376 N 124.332 0.03047 -5.80492 0
M  V30 1377 H 127.097 -1.96885 -2.25957 0
M  V30 1378 H 124.658 -1.16899 -1.1201 0
M  V30 1379 H 126.65 -0.172961 -4.0433 0
M  V30 1380 H 125.22 0.33151 -3.10837 0
M  V30 1381 H 124.44 -2.14628 -3.30649 0
M  V30 1382 H 125.728 -2.36644 -4.50419 0
M  V30 1383 H 125.126 0.611169 -5.62389 0
M  V30 1384 H 123.683 0.320875 -6.5101 0
M  V30 1385 N 127.117 1.15442 -1.07289 0
M  V30 1386 C 128.067 2.18164 -0.662467 0
M  V30 1387 C 129.051 1.57845 0.312074 0
M  V30 1388 O 130.243 1.76552 0.125905 0
M  V30 1389 C 127.372 3.43246 -0.0611295 0
M  V30 1390 C 126.458 4.1062 -1.06077 0
M  V30 1391 N 126.849 4.53491 -2.24008 0
M  V30 1392 C 125.147 4.36949 -0.893964 0
M  V30 1393 C 125.848 5.05731 -2.87422 0
M  V30 1394 N 124.824 4.99236 -2.15091 0
M  V30 1395 H 128.626 2.49038 -1.56068 0
M  V30 1396 H 126.14 1.32003 -0.945988 0
M  V30 1397 H 128.137 4.16145 0.250792 0
M  V30 1398 H 126.797 3.13854 0.832207 0
M  V30 1399 H 127.808 4.46898 -2.6173 0
M  V30 1400 H 124.485 4.17466 -0.0534693 0
M  V30 1401 H 125.875 5.48865 -3.87553 0
M  V30 1402 N 128.595 0.856903 1.32268 0
M  V30 1403 C 129.842 0.461386 1.97174 0
M  V30 1404 C 130.17 -0.983491 1.67803 0
M  V30 1405 O 129.425 -1.70541 0.959903 0
M  V30 1406 C 129.724 0.649919 3.51441 0
M  V30 1407 C 129.39 2.0656 4.00804 0
M  V30 1408 C 128.052 2.45279 4.13995 0
M  V30 1409 C 130.404 2.98947 4.26943 0
M  V30 1410 C 127.732 3.75653 4.50668 0
M  V30 1411 C 130.084 4.28822 4.65075 0
M  V30 1412 C 128.748 4.67472 4.76472 0
M  V30 1413 H 128.018 0.168833 0.72151 0
M  V30 1414 H 130.665 1.08739 1.57633 0
M  V30 1415 H 128.97 -0.0593018 3.91755 0
M  V30 1416 H 130.667 0.32391 3.9969 0
M  V30 1417 H 127.257 1.75495 3.91024 0
M  V30 1418 H 131.441 2.70265 4.16258 0
M  V30 1419 H 126.697 4.05379 4.57688 0
M  V30 1420 H 130.871 5.0047 4.84255 0
M  V30 1421 H 128.498 5.68539 5.04646 0
M  V30 1422 N 130.073 -1.45103 0.615059 0
M  V30 1423 C 131.303 -2.06254 0.119596 0
M  V30 1424 C 131.711 -1.4591 -1.20445 0
M  V30 1425 O 131.054 -0.570384 -1.7462 0
M  V30 1426 C 131.116 -3.59396 -0.0865591 0
M  V30 1427 C 130.78 -4.42116 1.15683 0
M  V30 1428 C 131.777 -4.7662 2.07676 0
M  V30 1429 C 129.462 -4.82749 1.38775 0
M  V30 1430 C 131.456 -5.50622 3.21082 0
M  V30 1431 C 129.143 -5.56504 2.52481 0
M  V30 1432 C 130.141 -5.90358 3.43463 0
M  V30 1433 O 129.829 -6.62615 4.55189 0
M  V30 1434 H 129.561 -0.672423 0.0694512 0
M  V30 1435 H 132.115 -1.87219 0.844885 0
M  V30 1436 H 130.345 -3.76859 -0.866823 0
M  V30 1437 H 132.034 -4.02365 -0.534555 0
M  V30 1438 H 132.8 -4.4578 1.91063 0
M  V30 1439 H 128.679 -4.55829 0.688545 0
M  V30 1440 H 132.223 -5.76965 3.92119 0
M  V30 1441 H 128.12 -5.86759 2.69043 0
M  V30 1442 H 128.888 -6.81071 4.53966 0
M  V30 1443 N 131.551 -0.354651 -1.53558 0
M  V30 1444 C 132.828 0.294281 -1.93374 0
M  V30 1445 C 133.208 1.67313 -1.28723 0
M  V30 1446 O 132.556 2.24179 -0.442247 0
M  V30 1447 C 132.766 0.355445 -3.47185 0
M  V30 1448 C 134.114 0.601007 -4.20325 0
M  V30 1449 O 135.138 0.437106 -3.53508 0
M  V30 1450 O 133.997 0.919322 -5.38712 0
M  V30 1451 H 131.091 0.174033 -0.808481 0
M  V30 1452 H 133.637 -0.406638 -1.64756 0
M  V30 1453 H 132.409 -0.611729 -3.86489 0
M  V30 1454 H 132.032 1.1027 -3.82003 0
M  V30 1455 N 133.029 1.57378 -0.0835403 0
M  V30 1456 C 134.306 1.85363 0.624507 0
M  V30 1457 C 134.686 0.978239 1.87066 0
M  V30 1458 O 134.034 0.0475908 2.2845 0
M  V30 1459 C 134.244 3.35795 0.950947 0
M  V30 1460 C 135.592 4.03581 1.31939 0
M  V30 1461 O 136.616 3.40609 1.04232 0
M  V30 1462 O 135.475 5.14672 1.83779 0
M  V30 1463 H 132.569 0.766162 0.311329 0
M  V30 1464 H 135.115 1.69307 -0.115362 0
M  V30 1465 H 133.887 3.91244 0.0663899 0
M  V30 1466 H 133.51 3.57154 1.74719 0
M  V30 1467 N 134.507 -0.190092 1.56449 0
M  V30 1468 C 135.455 -1.25501 1.95837 0
M  V30 1469 C 136.449 -1.4685 0.844485 0
M  V30 1470 O 137.655 -1.47651 1.02952 0
M  V30 1471 H 134.03 -0.421447 0.622805 0
M  V30 1472 H 136.001 -0.895821 2.84636 0
M  V30 1473 C 134.75 -2.59124 2.31841 0
M  V30 1474 H 134.073 -2.43514 3.17082 0
M  V30 1475 H 135.513 -3.32371 2.6326 0
M  V30 1476 C 133.972 -3.16488 1.15486 0
M  V30 1477 O 134.502 -3.99365 0.432535 0
M  V30 1478 N 132.708 -2.75305 0.930349 0
M  V30 1479 H 132.255 -2.08013 1.51948 0
M  V30 1480 H 132.213 -3.14024 0.153634 0
M  V30 1481 N 135.985 -1.50799 -0.457987 0
M  V30 1482 C 137.232 -1.62442 -1.20908 0
M  V30 1483 C 137.56 -0.330865 -1.91665 0
M  V30 1484 O 136.815 0.68401 -1.83357 0
M  V30 1485 C 137.114 -2.76358 -2.2663 0
M  V30 1486 C 136.78 -4.16378 -1.73033 0
M  V30 1487 C 135.442 -4.54473 -1.58138 0
M  V30 1488 C 137.794 -5.03836 -1.33413 0
M  V30 1489 C 135.122 -5.77754 -1.02065 0
M  V30 1490 C 137.474 -6.27676 -0.78778 0
M  V30 1491 C 136.138 -6.64562 -0.625561 0
M  V30 1492 H 135.408 -0.594417 -0.442435 0
M  V30 1493 H 138.055 -1.84772 -0.503136 0
M  V30 1494 H 136.36 -2.48167 -3.03184 0
M  V30 1495 H 138.057 -2.82568 -2.84528 0
M  V30 1496 H 134.647 -3.86331 -1.85598 0
M  V30 1497 H 138.831 -4.75026 -1.4375 0
M  V30 1498 H 134.087 -6.04997 -0.882547 0
M  V30 1499 H 138.261 -6.94797 -0.472177 0
M  V30 1500 H 135.888 -7.59965 -0.188926 0
M  V30 1501 N 137.463 0.71206 -1.40597 0
M  V30 1502 C 138.688 1.50617 -1.42581 0
M  V30 1503 C 139.113 1.88079 -0.0282102 0
M  V30 1504 O 138.471 1.53511 0.964579 0
M  V30 1505 C 138.519 2.7557 -2.3258 0
M  V30 1506 O 137.623 3.72414 -1.77148 0
M  V30 1507 H 136.964 0.453966 -0.484573 0
M  V30 1508 H 139.494 0.876649 -1.84868 0
M  V30 1509 H 139.504 3.2406 -2.47889 0
M  V30 1510 H 138.179 2.47639 -3.34138 0
M  V30 1511 H 136.756 3.31276 -1.71204 0
M  V30 1512 N 138.941 1.26152 0.944643 0
M  V30 1513 C 140.189 1.11271 1.6871 0
M  V30 1514 C 140.51 -0.345166 1.91921 0
M  V30 1515 O 139.78 -1.24387 1.51343 0
M  V30 1516 H 138.36 0.408783 0.625224 0
M  V30 1517 H 141.022 1.58427 1.1352 0
M  V30 1518 H 140.118 1.62879 2.66227 0
M  V30 1519 N 140.419 -1.14872 1.07899 0
M  V30 1520 C 141.647 -1.89661 0.82683 0
M  V30 1521 C 142.062 -1.78312 -0.620519 0
M  V30 1522 O 141.419 -1.13888 -1.42604 0
M  V30 1523 C 141.47 -3.39817 1.23316 0
M  V30 1524 O 141.191 -3.50845 2.62372 0
M  V30 1525 C 142.692 -4.31615 1.0111 0
M  V30 1526 H 139.912 -0.60092 0.298557 0
M  V30 1527 H 142.456 -1.4551 1.43691 0
M  V30 1528 H 140.611 -3.8161 0.667286 0
M  V30 1529 H 141.025 -4.44076 2.79101 0
M  V30 1530 H 142.499 -5.35367 1.34486 0
M  V30 1531 H 142.976 -4.39169 -0.0522168 0
M  V30 1532 H 143.582 -3.95572 1.56215 0
M  V30 1533 N 141.898 -0.863906 -1.31812 0
M  V30 1534 C 143.175 -0.39275 -1.91616 0
M  V30 1535 C 143.555 1.12461 -1.7865 0
M  V30 1536 O 142.903 1.95045 -1.19037 0
M  V30 1537 C 143.113 -0.867385 -3.38049 0
M  V30 1538 C 144.461 -0.889966 -4.15168 0
M  V30 1539 O 145.485 -0.812635 -3.46806 0
M  V30 1540 O 144.344 -1.00079 -5.37258 0
M  V30 1541 H 141.438 -0.116358 -0.818773 0
M  V30 1542 H 143.984 -0.951418 -1.40521 0
M  V30 1543 H 142.756 -1.91081 -3.41473 0
M  V30 1544 H 142.379 -0.286687 -3.96565 0
M  V30 1545 N 143.376 1.44774 -0.622745 0
M  V30 1546 C 144.623 2.02121 -0.1239 0
M  V30 1547 C 144.951 1.48915 1.25118 0
M  V30 1548 O 144.206 0.660045 1.84233 0
M  V30 1549 C 144.505 3.57364 -0.0508323 0
M  V30 1550 C 144.171 4.29787 -1.36358 0
M  V30 1551 C 142.833 4.4929 -1.72314 0
M  V30 1552 C 145.185 4.71062 -2.23048 0
M  V30 1553 C 142.513 5.07325 -2.94682 0
M  V30 1554 C 144.865 5.30452 -3.44679 0
M  V30 1555 C 143.529 5.48175 -3.80868 0
M  V30 1556 H 142.799 0.739612 -0.0453381 0
M  V30 1557 H 145.446 1.73648 -0.807389 0
M  V30 1558 H 143.751 3.85202 0.715991 0
M  V30 1559 H 145.448 3.99456 0.351533 0
M  V30 1560 H 142.038 4.14932 -1.07375 0
M  V30 1561 H 146.222 4.55715 -1.96565 0
M  V30 1562 H 141.478 5.19235 -3.22809 0
M  V30 1563 H 145.652 5.61385 -4.12092 0
M  V30 1564 H 143.279 5.92912 -4.75773 0
M  V30 1565 N 144.854 0.36279 1.53368 0
M  V30 1566 C 146.082 -0.228613 2.05633 0
M  V30 1567 C 146.497 -1.42676 1.23649 0
M  V30 1568 O 145.854 -1.80394 0.27647 0
M  V30 1569 C 145.905 -0.624845 3.56059 0
M  V30 1570 O 145.626 0.525675 4.34935 0
M  V30 1571 C 147.127 -1.27493 4.24571 0
M  V30 1572 H 144.347 -0.0407183 0.669763 0
M  V30 1573 H 146.891 0.520352 1.97769 0
M  V30 1574 H 145.046 -1.32373 3.64083 0
M  V30 1575 H 145.46 0.205969 5.24095 0
M  V30 1576 H 146.934 -1.50277 5.31151 0
M  V30 1577 H 147.411 -2.23439 3.78116 0
M  V30 1578 H 148.017 -0.617558 4.20792 0
M  V30 1579 N 146.332 -1.57332 0.0918853 0
M  V30 1580 C 147.56 -1.98574 -0.581048 0
M  V30 1581 C 147.975 -0.970903 -1.61923 0
M  V30 1582 O 147.332 0.0399054 -1.82456 0
M  V30 1583 C 147.383 -3.39872 -1.23164 0
M  V30 1584 O 147.104 -4.37469 -0.234989 0
M  V30 1585 C 148.605 -3.96099 -1.99049 0
M  V30 1586 H 145.825 -0.65261 -0.156018 0
M  V30 1587 H 148.369 -2.0379 0.170225 0
M  V30 1588 H 146.524 -3.35679 -1.93386 0
M  V30 1589 H 146.938 -5.19751 -0.70418 0
M  V30 1590 H 148.412 -4.97127 -2.39934 0
M  V30 1591 H 148.889 -3.3374 -2.85507 0
M  V30 1592 H 149.495 -4.03755 -1.3365 0
M  V30 1593 N 147.81 0.181792 -1.56548 0
M  V30 1594 C 148.76 1.22961 -1.92002 0
M  V30 1595 C 149.744 1.40331 -0.787146 0
M  V30 1596 O 150.936 1.42478 -1.05019 0
M  V30 1597 C 148.065 2.57144 -2.27446 0
M  V30 1598 C 147.151 2.43512 -3.47222 0
M  V30 1599 N 147.542 1.99577 -4.64761 0
M  V30 1600 C 145.84 2.74368 -3.51622 0
M  V30 1601 C 146.541 1.98156 -5.46909 0
M  V30 1602 N 145.517 2.40164 -4.8767 0
M  V30 1603 H 149.319 0.881462 -2.8037 0
M  V30 1604 H 146.833 0.390141 -1.57644 0
M  V30 1605 H 148.83 3.32847 -2.51035 0
M  V30 1606 H 147.49 2.92771 -1.40411 0
M  V30 1607 H 148.501 1.70078 -4.89177 0
M  V30 1608 H 145.178 3.14102 -2.75038 0
M  V30 1609 H 146.568 1.65975 -6.51077 0
M  V30 1610 N 149.288 1.51039 0.449983 0
M  V30 1611 C 150.518 1.66627 1.22143 0
M  V30 1612 C 150.926 0.357776 1.85786 0
M  V30 1613 O 150.269 -0.672424 1.70951 0
M  V30 1614 C 150.331 2.71562 2.35573 0
M  V30 1615 C 149.995 4.14526 1.92399 0
M  V30 1616 C 150.992 4.99717 1.43453 0
M  V30 1617 C 148.677 4.60559 2.00475 0
M  V30 1618 C 150.671 6.28998 1.03155 0
M  V30 1619 C 148.358 5.8984 1.59788 0
M  V30 1620 C 149.356 6.73886 1.11208 0
M  V30 1621 O 149.044 8.0075 0.710935 0
M  V30 1622 H 148.776 0.562635 0.374724 0
M  V30 1623 H 151.33 1.98146 0.541036 0
M  V30 1624 H 149.56 2.3533 3.06849 0
M  V30 1625 H 151.249 2.76156 2.97478 0
M  V30 1626 H 152.015 4.65361 1.36618 0
M  V30 1627 H 147.894 3.95273 2.37235 0
M  V30 1628 H 151.438 6.9455 0.651663 0
M  V30 1629 H 147.335 6.23713 1.66289 0
M  V30 1630 H 148.103 8.142 0.837913 0
M  V30 1631 N 150.766 -0.704594 1.40972 0
M  V30 1632 C 152.012 -1.46675 1.40051 0
M  V30 1633 C 152.345 -1.94199 0.00641102 0
M  V30 1634 O 151.62 -1.68916 -0.964235 0
M  V30 1635 C 151.903 -2.68505 2.39952 0
M  V30 1636 C 151.756 -2.26805 3.88432 0
M  V30 1637 C 153.075 -3.70686 2.37233 0
M  V30 1638 H 150.194 -0.532015 0.510028 0
M  V30 1639 H 152.836 -0.803255 1.72185 0
M  V30 1640 H 150.986 -3.25114 2.1268 0
M  V30 1641 H 152.658 -1.75592 4.26574 0
M  V30 1642 H 150.901 -1.58685 4.03734 0
M  V30 1643 H 151.572 -3.14181 4.53866 0
M  V30 1644 H 154.048 -3.23731 2.61415 0
M  V30 1645 H 152.924 -4.53553 3.09162 0
M  V30 1646 H 153.185 -4.19754 1.38777 0
M  V30 1647 N 152.244 -1.26651 -0.937939 0
M  V30 1648 C 153.49 -1.12553 -1.687 0
M  V30 1649 C 153.823 0.329782 -1.91379 0
M  V30 1650 O 153.098 1.24202 -1.4968 0
M  V30 1651 C 153.381 -1.89862 -3.05981 0
M  V30 1652 C 153.234 -3.43318 -2.90607 0
M  V30 1653 C 154.553 -1.69499 -4.0615 0
M  V30 1654 H 151.672 -0.410257 -0.612257 0
M  V30 1655 H 154.314 -1.55685 -1.08913 0
M  V30 1656 H 152.464 -1.53204 -3.57017 0
M  V30 1657 H 154.136 -3.89747 -2.46769 0
M  V30 1658 H 152.379 -3.70179 -2.26164 0
M  V30 1659 H 153.05 -3.92642 -3.8799 0
M  V30 1660 H 155.526 -2.01442 -3.64088 0
M  V30 1661 H 154.402 -2.26002 -5.00214 0
M  V30 1662 H 154.663 -0.640365 -4.37438 0
M  V30 1663 N 153.722 1.14298 -1.08507 0
M  V30 1664 C 154.652 2.21542 -0.737646 0
M  V30 1665 C 155.633 1.67773 0.280377 0
M  V30 1666 O 156.818 1.93616 0.150521 0
M  V30 1667 C 153.948 3.46988 -0.147259 0
M  V30 1668 C 152.902 4.13789 -1.09374 0
M  V30 1669 C 152.228 5.33449 -0.365524 0
M  V30 1670 C 153.528 4.62208 -2.4323 0
M  V30 1671 H 155.222 2.5086 -1.6343 0
M  V30 1672 H 152.768 1.20576 -0.787243 0
M  V30 1673 H 154.721 4.21262 0.107808 0
M  V30 1674 H 153.445 3.17037 0.784538 0
M  V30 1675 H 152.104 3.4147 -1.33393 0
M  V30 1676 H 151.752 4.99759 0.57011 0
M  V30 1677 H 151.452 5.79088 -0.996512 0
M  V30 1678 H 152.976 6.10485 -0.118534 0
M  V30 1679 H 154.39 5.27952 -2.23472 0
M  V30 1680 H 152.787 5.18553 -3.02031 0
M  V30 1681 H 153.857 3.77224 -3.04681 0
M  V30 1682 N 155.201 0.870884 1.31352 0
M  V30 1683 C 156.449 0.48132 1.96285 0
M  V30 1684 C 156.77 -0.969813 1.69173 0
M  V30 1685 O 156.04 -1.67998 1.00764 0
M  V30 1686 H 154.62 0.175002 0.726212 0
M  V30 1687 H 157.282 1.11087 1.60143 0
M  V30 1688 H 156.378 0.639825 3.05471 0
M  V30 1689 N 156.679 -1.44442 0.630414 0
M  V30 1690 C 157.926 -2.02052 0.134617 0
M  V30 1691 C 158.254 -1.49576 -1.24327 0
M  V30 1692 O 157.509 -0.669806 -1.83881 0
M  V30 1693 C 157.808 -3.57332 0.0697835 0
M  V30 1694 C 157.474 -4.29058 1.38635 0
M  V30 1695 C 156.136 -4.4837 1.74694 0
M  V30 1696 C 158.488 -4.69872 2.25543 0
M  V30 1697 C 155.816 -5.05756 2.97369 0
M  V30 1698 C 158.168 -5.28616 3.47487 0
M  V30 1699 C 156.832 -5.46147 3.8377 0
M  V30 1700 H 156.102 -0.739361 0.0492598 0
M  V30 1701 H 158.749 -1.73217 0.816586 0
M  V30 1702 H 157.054 -3.85577 -0.695553 0
M  V30 1703 H 158.751 -3.99637 -0.330344 0
M  V30 1704 H 155.341 -4.14357 1.09574 0
M  V30 1705 H 159.525 -4.54666 1.98979 0
M  V30 1706 H 154.781 -5.17515 3.25558 0
M  V30 1707 H 158.955 -5.59192 4.15063 0
M  V30 1708 H 156.582 -5.9038 4.7891 0
M  V30 1709 N 158.157 -0.370918 -1.53173 0
M  V30 1710 C 159.573 -0.0200818 -1.59587 0
M  V30 1711 C 159.773 1.46279 -1.38581 0
M  V30 1712 O 158.829 2.22506 -1.19363 0
M  V30 1713 C 160.142 -0.4808 -2.96831 0
M  V30 1714 C 161.69 -0.435477 -3.09956 0
M  V30 1715 C 162.165 -0.872092 -4.4962 0
M  V30 1716 N 163.656 -0.827364 -4.55751 0
M  V30 1717 C 164.391 -1.13683 -5.62018 0
M  V30 1718 N 163.887 -1.51584 -6.76014 0
M  V30 1719 N 165.68 -1.05927 -5.52029 0
M  V30 1720 H 157.831 -1.33652 -1.65079 0
M  V30 1721 H 160.094 -0.546634 -0.774529 0
M  V30 1722 H 159.8 -1.51577 -3.1736 0
M  V30 1723 H 159.674 0.129796 -3.76977 0
M  V30 1724 H 162.061 0.590371 -2.89134 0
M  V30 1725 H 162.142 -1.08164 -2.31806 0
M  V30 1726 H 161.786 -1.89608 -4.71181 0
M  V30 1727 H 161.716 -0.203127 -5.26208 0
M  V30 1728 H 164.207 -0.548216 -3.73902 0
M  V30 1729 H 164.52 -1.73609 -7.53047 0
M  V30 1730 H 162.865 -1.55454 -6.77391 0
M  V30 1731 H 166.056 -0.762321 -4.61851 0
M  V30 1732 H 166.229 -1.30378 -6.34749 0
M  V30 1733 N 159.635 1.57281 -0.100228 0
M  V30 1734 C 160.882 1.94537 0.562268 0
M  V30 1735 C 161.21 0.982315 1.67871 0
M  V30 1736 O 160.465 0.00280936 1.957 0
M  V30 1737 C 160.764 3.38305 1.15259 0
M  V30 1738 C 160.43 4.50618 0.159409 0
M  V30 1739 C 159.092 4.81066 -0.113741 0
M  V30 1740 C 161.444 5.18615 -0.518461 0
M  V30 1741 C 158.772 5.76835 -1.07137 0
M  V30 1742 C 161.124 6.15412 -1.46459 0
M  V30 1743 C 159.788 6.44262 -1.74592 0
M  V30 1744 H 159.058 0.711863 0.205748 0
M  V30 1745 H 161.705 1.90679 -0.17715 0
M  V30 1746 H 160.01 3.38766 1.96836 0
M  V30 1747 H 161.707 3.64435 1.67297 0
M  V30 1748 H 158.297 4.2689 0.382491 0
M  V30 1749 H 162.481 4.95264 -0.320581 0
M  V30 1750 H 157.737 5.975 -1.29628 0
M  V30 1751 H 161.911 6.67194 -1.99564 0
M  V30 1752 H 159.538 7.1828 -2.48953 0
M  V30 1753 N 161.113 -0.173488 1.56642 0
M  V30 1754 C 162.529 -0.525174 1.50712 0
M  V30 1755 C 162.729 -1.8476 0.804107 0
M  V30 1756 O 161.785 -2.49869 0.363574 0
M  V30 1757 C 163.098 -0.559937 2.95441 0
M  V30 1758 C 164.646 -0.647288 3.06234 0
M  V30 1759 C 165.121 -0.712963 4.52417 0
M  V30 1760 N 166.612 -0.775911 4.56655 0
M  V30 1761 C 167.347 -0.847264 5.67106 0
M  V30 1762 N 166.843 -0.879585 6.87194 0
M  V30 1763 N 168.636 -0.886117 5.55071 0
M  V30 1764 H 160.787 0.693681 2.00753 0
M  V30 1765 H 163.05 0.249841 0.914485 0
M  V30 1766 H 162.756 0.343049 3.50023 0
M  V30 1767 H 162.63 -1.40718 3.49969 0
M  V30 1768 H 165.017 -1.5407 2.51687 0
M  V30 1769 H 165.098 0.226586 2.54794 0
M  V30 1770 H 164.742 0.176183 5.07594 0
M  V30 1771 H 164.672 -1.60295 5.0161 0
M  V30 1772 H 167.163 -0.759304 3.70193 0
M  V30 1773 H 167.476 -0.935144 7.67121 0
M  V30 1774 H 165.821 -0.847898 6.89808 0
M  V30 1775 H 169.012 -0.857853 4.60172 0
M  V30 1776 H 169.185 -0.938263 6.41171 0
M  V30 1777 N 162.591 -1.51276 -0.441967 0
M  V30 1778 C 163.837 -1.63958 -1.19355 0
M  V30 1779 C 164.17 -0.352543 -1.90973 0
M  V30 1780 O 163.445 0.647627 -1.83401 0
M  V30 1781 C 163.728 -2.83979 -2.21422 0
M  V30 1782 C 163.581 -4.22646 -1.53918 0
M  V30 1783 C 164.9 -2.99521 -3.22451 0
M  V30 1784 H 162.019 -0.596709 -0.432559 0
M  V30 1785 H 164.661 -1.83748 -0.483398 0
M  V30 1786 H 162.811 -2.67237 -2.81987 0
M  V30 1787 H 164.483 -4.51045 -0.967256 0
M  V30 1788 H 162.726 -4.25558 -0.841615 0
M  V30 1789 H 163.397 -5.02609 -2.28229 0
M  V30 1790 H 165.873 -3.14944 -2.71937 0
M  V30 1791 H 164.749 -3.85072 -3.91166 0
M  V30 1792 H 165.01 -2.11391 -3.88287 0
M  V30 1793 N 164.069 0.697108 -1.41344 0
M  V30 1794 C 165.294 1.49096 -1.44171 0
M  V30 1795 C 165.719 1.88038 -0.0481568 0
M  V30 1796 O 165.077 1.54525 0.948243 0
M  V30 1797 C 165.125 2.73088 -2.3549 0
M  V30 1798 O 164.229 3.70514 -1.81088 0
M  V30 1799 H 163.57 0.448801 -0.489361 0
M  V30 1800 H 166.1 0.856992 -1.85787 0
M  V30 1801 H 166.11 3.21413 -2.51312 0
M  V30 1802 H 164.785 2.44081 -3.36745 0
M  V30 1803 H 163.362 3.29441 -1.74708 0
M  V30 1804 N 165.547 1.27147 0.931209 0
M  V30 1805 C 166.457 1.11372 2.06478 0
M  V30 1806 C 167.473 0.044645 1.73943 0
M  V30 1807 O 168.649 0.250417 1.99837 0
M  V30 1808 C 165.714 0.758838 3.38294 0
M  V30 1809 C 164.775 1.90841 3.84549 0
M  V30 1810 C 164.008 1.57036 5.10074 0
M  V30 1811 O 164.231 0.476645 5.68405 0
M  V30 1812 O 163.165 2.40839 5.51616 0
M  V30 1813 H 166.991 2.06493 2.22698 0
M  V30 1814 H 164.576 1.06301 1.04978 0
M  V30 1815 H 166.458 0.574098 4.17471 0
M  V30 1816 H 165.133 -0.162879 3.2329 0
M  V30 1817 H 164.04 2.14819 3.06274 0
M  V30 1818 H 165.373 2.81021 4.04089 0
M  V30 1819 N 167.025 -1.13721 1.09112 0
M  V30 1820 C 167.935 -2.22638 0.73957 0
M  V30 1821 C 168.951 -1.72091 -0.257068 0
M  V30 1822 O 170.127 -2.01155 -0.0992154 0
M  V30 1823 C 167.192 -3.46322 0.16191 0
M  V30 1824 C 166.253 -4.11775 1.21408 0
M  V30 1825 C 165.486 -5.29555 0.663891 0
M  V30 1826 O 165.709 -5.68077 -0.514274 0
M  V30 1827 O 164.643 -5.84973 1.41738 0
M  V30 1828 H 168.469 -2.55074 1.64836 0
M  V30 1829 H 166.054 -1.21791 0.865289 0
M  V30 1830 H 167.936 -4.21107 -0.157073 0
M  V30 1831 H 166.611 -3.15593 -0.719932 0
M  V30 1832 H 165.518 -3.3883 1.58571 0
M  V30 1833 H 166.851 -4.46627 2.06845 0
M  V30 1834 N 168.503 -0.877838 -1.30888 0
M  V30 1835 C 169.413 -0.343096 -2.32078 0
M  V30 1836 C 170.429 0.551022 -1.65045 0
M  V30 1837 O 171.605 0.445854 -1.96403 0
M  V30 1838 C 168.67 0.439905 -3.43898 0
M  V30 1839 C 167.731 -0.483111 -4.26573 0
M  V30 1840 C 166.964 0.262616 -5.33053 0
M  V30 1841 O 167.187 1.48967 -5.50604 0
M  V30 1842 O 166.121 -0.383593 -6.00676 0
M  V30 1843 H 169.947 -1.18203 -2.79753 0
M  V30 1844 H 167.532 -0.64145 -1.34929 0
M  V30 1845 H 169.414 0.883504 -4.12034 0
M  V30 1846 H 168.089 1.25526 -2.98371 0
M  V30 1847 H 166.996 -0.975374 -3.61161 0
M  V30 1848 H 168.329 -1.26427 -4.75686 0
M  V30 1849 N 169.982 1.44106 -0.638065 0
M  V30 1850 C 170.912 2.33448 0.0494287 0
M  V30 1851 C 171.893 1.48606 0.827672 0
M  V30 1852 O 173.078 1.77308 0.792173 0
M  V30 1853 C 170.208 3.31771 1.02691 0
M  V30 1854 C 169.162 4.26485 0.359823 0
M  V30 1855 C 168.488 5.14729 1.44769 0
M  V30 1856 C 169.788 5.17056 -0.738296 0
M  V30 1857 H 171.482 2.91183 -0.696636 0
M  V30 1858 H 169.028 1.40014 -0.336456 0
M  V30 1859 H 170.981 3.93161 1.51666 0
M  V30 1860 H 169.705 2.7226 1.80395 0
M  V30 1861 H 168.364 3.66437 -0.10934 0
M  V30 1862 H 168.012 4.51566 2.21578 0
M  V30 1863 H 167.712 5.78913 1.00668 0
M  V30 1864 H 169.236 5.78991 1.93911 0
M  V30 1865 H 170.65 5.72342 -0.331354 0
M  V30 1866 H 169.047 5.89879 -1.10286 0
M  V30 1867 H 170.117 4.57652 -1.60258 0
M  V30 1868 N 171.46 0.379036 1.52974 0
M  V30 1869 C 172.39 -0.452706 2.29069 0
M  V30 1870 C 173.371 -1.07237 1.32039 0
M  V30 1871 O 174.556 -1.08708 1.60923 0
M  V30 1872 C 171.686 -1.5856 3.08992 0
M  V30 1873 C 170.64 -1.0925 4.13822 0
M  V30 1874 C 169.966 -2.31668 4.81907 0
M  V30 1875 C 171.266 -0.167702 5.22031 0
M  V30 1876 H 172.96 0.182181 2.98845 0
M  V30 1877 H 170.506 0.0890592 1.43724 0
M  V30 1878 H 172.459 -2.1742 3.6098 0
M  V30 1879 H 171.183 -2.24792 2.36931 0
M  V30 1880 H 169.842 -0.526494 3.628 0
M  V30 1881 H 169.49 -2.96386 4.06404 0
M  V30 1882 H 169.19 -1.9934 5.52754 0
M  V30 1883 H 170.714 -2.91189 5.36695 0
M  V30 1884 H 172.128 -0.664186 5.6944 0
M  V30 1885 H 170.525 0.0653265 6.00064 0
M  V30 1886 H 171.595 0.786347 4.78482 0
M  V30 1887 N 172.938 -1.57226 0.108567 0
M  V30 1888 C 173.868 -2.17778 -0.84232 0
M  V30 1889 C 174.849 -1.11487 -1.2847 0
M  V30 1890 O 176.034 -1.39681 -1.34918 0
M  V30 1891 C 173.164 -2.76888 -2.09644 0
M  V30 1892 C 172.118 -3.88669 -1.79221 0
M  V30 1893 C 171.444 -4.34541 -3.11574 0
M  V30 1894 C 172.744 -5.11251 -1.06864 0
M  V30 1895 H 174.438 -2.97489 -0.337774 0
M  V30 1896 H 171.984 -1.43097 -0.161025 0
M  V30 1897 H 173.937 -3.17904 -2.76614 0
M  V30 1898 H 172.661 -1.94451 -2.62405 0
M  V30 1899 H 171.32 -3.48213 -1.14644 0
M  V30 1900 H 170.968 -3.48977 -3.62249 0
M  V30 1901 H 170.668 -5.09914 -2.91996 0
M  V30 1902 H 172.192 -4.782 -3.7968 0
M  V30 1903 H 173.606 -5.49352 -1.63968 0
M  V30 1904 H 172.003 -5.9214 -0.974178 0
M  V30 1905 H 173.073 -4.8487 -0.0536168 0
M  V30 1906 N 174.416 0.165178 -1.56732 0
M  V30 1907 C 175.827 0.727046 -1.71962 0
M  V30 1908 C 176.178 1.82508 -0.720078 0
M  V30 1909 O 175.303 2.16082 0.117242 0
M  V30 1910 C 175.898 1.32559 -3.11791 0
M  V30 1911 C 174.457 1.83422 -3.28684 0
M  V30 1912 C 173.604 0.715567 -2.67908 0
M  V30 1913 H 176.555 -0.0602896 -1.58585 0
M  V30 1914 H 176.576 2.19533 -3.10782 0
M  V30 1915 H 176.088 0.526195 -3.84516 0
M  V30 1916 H 174.189 2.65986 -2.60926 0
M  V30 1917 H 174.302 1.97543 -4.36478 0
M  V30 1918 H 172.666 1.13758 -2.27884 0
M  V30 1919 H 173.449 -0.0720836 -3.43224 0
M  V30 1920 N 175.894 1.51508 0.433938 0
M  V30 1921 C 177.171 1.54888 1.19453 0
M  V30 1922 C 177.551 0.315154 2.08734 0
M  V30 1923 O 176.899 -0.699558 2.17528 0
M  V30 1924 C 177.109 2.86467 1.99342 0
M  V30 1925 C 178.457 3.38545 2.56267 0
M  V30 1926 O 179.481 2.88041 2.0955 0
M  V30 1927 O 178.34 4.26675 3.41483 0
M  V30 1928 H 175.434 0.622863 0.544032 0
M  V30 1929 H 177.98 1.63823 0.442732 0
M  V30 1930 H 176.752 3.67718 1.33788 0
M  V30 1931 H 176.375 2.8071 2.8158 0
M  V30 1932 N 177.372 -0.689602 1.41712 0
M  V30 1933 C 178.282 -1.83314 1.46401 0
M  V30 1934 C 179.298 -1.7036 0.35405 0
M  V30 1935 O 180.474 -1.92171 0.602692 0
M  V30 1936 C 177.539 -3.19344 1.34982 0
M  V30 1937 C 176.6 -3.44363 2.56344 0
M  V30 1938 C 175.833 -4.73904 2.45461 0
M  V30 1939 O 176.056 -5.508 1.48241 0
M  V30 1940 O 174.99 -4.99839 3.35328 0
M  V30 1941 H 178.816 -1.82314 2.42889 0
M  V30 1942 H 176.401 -0.843438 1.23315 0
M  V30 1943 H 178.283 -4.00547 1.3092 0
M  V30 1944 H 176.958 -3.21014 0.41612 0
M  V30 1945 H 175.865 -2.63067 2.65982 0
M  V30 1946 H 177.198 -3.47512 3.48563 0
M  V30 1947 N 178.85 -1.27639 -0.924453 0
M  V30 1948 C 179.782 -1.06442 -2.02985 0
M  V30 1949 C 180.795 -0.0194771 -1.62788 0
M  V30 1950 O 181.984 -0.261388 -1.76576 0
M  V30 1951 C 179.084 -0.59327 -3.33667 0
M  V30 1952 C 178.257 -1.71123 -4.02537 0
M  V30 1953 C 177.316 -1.23527 -5.11495 0
M  V30 1954 O 176.342 -1.93553 -5.35281 0
M  V30 1955 N 177.544 -0.0926678 -5.80426 0
M  V30 1956 H 180.309 -2.01633 -2.2173 0
M  V30 1957 H 177.87 -1.19248 -1.09505 0
M  V30 1958 H 179.862 -0.258686 -4.03872 0
M  V30 1959 H 178.432 0.265502 -3.1147 0
M  V30 1960 H 177.652 -2.21593 -3.26022 0
M  V30 1961 H 178.94 -2.46145 -4.45298 0
M  V30 1962 H 178.338 0.491741 -5.63559 0
M  V30 1963 H 176.895 0.182714 -6.51544 0
M  V30 1964 N 180.328 1.1314 -1.09713 0
M  V30 1965 C 181.278 2.16709 -0.708593 0
M  V30 1966 C 182.262 1.58471 0.278523 0
M  V30 1967 O 183.454 1.76779 0.088427 0
M  V30 1968 C 180.583 3.43039 -0.133923 0
M  V30 1969 C 179.669 4.08277 -1.14763 0
M  V30 1970 N 180.06 4.48637 -2.33577 0
M  V30 1971 C 178.358 4.34954 -0.986446 0
M  V30 1972 C 179.059 4.9952 -2.98085 0
M  V30 1973 N 178.035 4.94561 -2.25632 0
M  V30 1974 H 181.837 2.45672 -1.61315 0
M  V30 1975 H 179.351 1.29967 -0.973775 0
M  V30 1976 H 181.348 4.16583 0.162465 0
M  V30 1977 H 180.008 3.15549 0.765447 0
M  V30 1978 H 181.019 4.41246 -2.7115 0
M  V30 1979 H 177.696 4.17258 -0.142008 0
M  V30 1980 H 179.086 5.40521 -3.99108 0
M  V30 1981 N 181.806 0.884767 1.30421 0
M  V30 1982 C 183.083 0.423185 1.90967 0
M  V30 1983 C 183.463 -1.09605 1.80416 0
M  V30 1984 O 182.811 -1.93126 1.22125 0
M  V30 1985 C 183.021 0.921056 3.36627 0
M  V30 1986 C 184.369 0.955903 4.137 0
M  V30 1987 O 185.393 0.867706 3.4547 0
M  V30 1988 O 184.252 1.08614 5.35598 0
M  V30 1989 H 181.346 0.129369 0.816819 0
M  V30 1990 H 183.892 0.973653 1.3899 0
M  V30 1991 H 182.664 1.96489 3.3839 0
M  V30 1992 H 182.287 0.349741 3.96059 0
M  V30 1993 N 183.284 -1.43765 0.645699 0
M  V30 1994 C 184.561 -1.9541 0.0862963 0
M  V30 1995 C 184.941 -1.58725 -1.39175 0
M  V30 1996 O 184.289 -0.868581 -2.11348 0
M  V30 1997 C 184.499 -3.47488 0.324565 0
M  V30 1998 C 185.847 -4.24001 0.225497 0
M  V30 1999 O 186.871 -3.55274 0.256715 0
M  V30 2000 O 185.73 -5.46313 0.142801 0
M  V30 2001 H 182.824 -0.826882 -0.0139483 0
M  V30 2002 H 185.37 -1.53743 0.718415 0
M  V30 2003 H 184.142 -3.67289 1.3496 0
M  V30 2004 H 183.765 -3.96135 -0.340987 0
M  V30 2005 N 184.763 -0.387143 -1.52771 0
M  V30 2006 C 185.993 0.195585 -2.05672 0
M  V30 2007 C 186.401 1.41241 -1.25887 0
M  V30 2008 O 185.744 1.81265 -0.298081 0
M  V30 2009 C 185.806 0.632327 -3.53895 0
M  V30 2010 C 185.47 -0.470739 -4.54569 0
M  V30 2011 C 186.467 -1.32746 -5.02667 0
M  V30 2012 C 184.152 -0.637151 -4.98243 0
M  V30 2013 C 186.146 -2.33574 -5.93061 0
M  V30 2014 C 183.833 -1.64877 -5.88438 0
M  V30 2015 C 184.831 -2.49649 -6.35739 0
M  V30 2016 O 184.519 -3.49082 -7.24153 0
M  V30 2017 H 184.251 0.033658 -0.675162 0
M  V30 2018 H 186.805 -0.550221 -1.97893 0
M  V30 2019 H 185.035 1.43008 -3.59285 0
M  V30 2020 H 186.724 1.14048 -3.89548 0
M  V30 2021 H 187.49 -1.21019 -4.69659 0
M  V30 2022 H 183.369 0.0129567 -4.60998 0
M  V30 2023 H 186.913 -2.99777 -6.29904 0
M  V30 2024 H 182.81 -1.76643 -6.2086 0
M  V30 2025 H 183.578 -3.45065 -7.42208 0
M  V30 2026 N 186.241 1.57166 -0.116904 0
M  V30 2027 C 187.657 1.5779 0.239693 0
M  V30 2028 C 187.857 1.1295 1.66867 0
M  V30 2029 O 186.913 0.81592 2.38954 0
M  V30 2030 C 188.226 3.00699 0.00828202 0
M  V30 2031 C 189.774 3.12912 0.0743438 0
M  V30 2032 C 190.249 4.57817 -0.129348 0
M  V30 2033 N 191.74 4.63139 -0.075247 0
M  V30 2034 C 192.475 5.73023 -0.207788 0
M  V30 2035 N 191.971 6.91665 -0.396382 0
M  V30 2036 N 193.764 5.61906 -0.14751 0
M  V30 2037 H 185.915 1.84615 -1.05029 0
M  V30 2038 H 188.178 0.85311 -0.41341 0
M  V30 2039 H 187.884 3.37784 -0.979531 0
M  V30 2040 H 187.758 3.69848 0.741077 0
M  V30 2041 H 190.145 2.75686 1.05268 0
M  V30 2042 H 190.226 2.4631 -0.690297 0
M  V30 2043 H 189.87 4.95742 -1.10465 0
M  V30 2044 H 189.8 5.22507 0.655253 0
M  V30 2045 H 192.291 3.7784 0.0670898 0
M  V30 2046 H 192.604 7.71255 -0.488437 0
M  V30 2047 H 190.949 6.93654 -0.432329 0
M  V30 2048 H 194.14 4.681 -0.00115036 0
M  V30 2049 H 194.313 6.47501 -0.254247 0
M  V30 2050 N 187.719 -0.156864 1.56817 0
M  V30 2051 C 188.965 -0.867645 1.83966 0
M  V30 2052 C 189.32 -1.79233 0.699511 0
M  V30 2053 O 188.613 -1.89186 -0.303176 0
M  V30 2054 C 188.807 -1.68737 3.1506 0
M  V30 2055 C 188.636 -0.843548 4.41718 0
M  V30 2056 C 187.406 -0.512994 5.02689 0
M  V30 2057 C 189.604 -0.178416 5.1399 0
M  V30 2058 N 187.586 0.345456 6.12927 0
M  V30 2059 C 188.957 0.540586 6.17639 0
M  V30 2060 C 191.012 -0.0980696 4.97803 0
M  V30 2061 C 189.715 1.33233 7.06853 0
M  V30 2062 C 191.741 0.680387 5.87473 0
M  V30 2063 C 191.103 1.3877 6.90596 0
M  V30 2064 H 187.202 -0.295642 0.723961 0
M  V30 2065 H 189.786 -0.13365 1.94241 0
M  V30 2066 H 187.957 -2.39268 3.0595 0
M  V30 2067 H 189.689 -2.34056 3.30151 0
M  V30 2068 H 186.444 -0.846476 4.65974 0
M  V30 2069 H 186.868 0.765415 6.72659 0
M  V30 2070 H 191.51 -0.630562 4.18071 0
M  V30 2071 H 189.228 1.87612 7.8602 0
M  V30 2072 H 192.814 0.744415 5.77018 0
M  V30 2073 H 191.694 1.9804 7.58782 0
M  V30 2074 N 189.197 -1.51736 -0.425897 0
M  V30 2075 C 190.127 -1.76827 -1.52494 0
M  V30 2076 C 191.108 -0.618524 -1.58456 0
M  V30 2077 O 192.293 -0.862416 -1.74 0
M  V30 2078 C 189.423 -1.90374 -2.90474 0
M  V30 2079 C 188.377 -3.0588 -2.99369 0
M  V30 2080 C 187.703 -3.04625 -4.3944 0
M  V30 2081 C 189.003 -4.45644 -2.72394 0
M  V30 2082 H 190.697 -2.68855 -1.31748 0
M  V30 2083 H 188.243 -1.29372 -0.632362 0
M  V30 2084 H 190.196 -2.0651 -3.6733 0
M  V30 2085 H 188.92 -0.95004 -3.12477 0
M  V30 2086 H 187.579 -2.89467 -2.24954 0
M  V30 2087 H 187.227 -2.0701 -4.58428 0
M  V30 2088 H 186.927 -3.82195 -4.46319 0
M  V30 2089 H 188.451 -3.22869 -5.18255 0
M  V30 2090 H 189.865 -4.62348 -3.38979 0
M  V30 2091 H 188.262 -5.25006 -2.9067 0
M  V30 2092 H 189.332 -4.54893 -1.67929 0
M  V30 2093 N 190.675 0.682077 -1.42076 0
M  V30 2094 C 191.903 1.47057 -1.4554 0
M  V30 2095 C 192.318 1.8869 -0.0645779 0
M  V30 2096 O 191.675 1.57666 0.919115 0
M  V30 2097 C 191.726 2.72442 -2.37609 0
M  V30 2098 O 191.447 2.32559 -3.71279 0
M  V30 2099 C 192.948 3.66069 -2.50017 0
M  V30 2100 H 190.168 0.452737 -0.495248 0
M  V30 2101 H 192.712 0.838695 -1.8651 0
M  V30 2102 H 190.867 3.31835 -1.9991 0
M  V30 2103 H 191.281 3.13475 -4.20516 0
M  V30 2104 H 192.755 4.50792 -3.18576 0
M  V30 2105 H 193.232 4.11476 -1.53572 0
M  V30 2106 H 193.838 3.12572 -2.88407 0
M  V30 2107 N 192.153 1.28127 0.917671 0
M  V30 2108 C 193.378 1.18007 1.70555 0
M  V30 2109 C 193.803 -0.258257 1.86319 0
M  V30 2110 O 193.161 -1.1869 1.37049 0
M  V30 2111 C 193.209 1.87948 3.07746 0
M  V30 2112 O 192.313 1.18427 3.9503 0
M  V30 2113 H 191.654 0.409867 0.522403 0
M  V30 2114 H 194.184 1.69379 1.1477 0
M  V30 2115 H 194.194 1.95701 3.58001 0
M  V30 2116 H 192.869 2.92573 2.95591 0
M  V30 2117 H 191.446 1.18811 3.53466 0
M  V30 2118 N 193.631 -1.12557 1.10312 0
M  V30 2119 C 194.908 -1.80363 0.756878 0
M  V30 2120 C 195.288 -1.97067 -0.756824 0
M  V30 2121 O 194.636 -1.54601 -1.68259 0
M  V30 2122 C 194.846 -3.14812 1.50647 0
M  V30 2123 C 196.194 -3.90029 1.67817 0
M  V30 2124 O 197.218 -3.24464 1.46974 0
M  V30 2125 O 196.077 -5.07652 2.02365 0
M  V30 2126 H 193.171 -0.780667 0.272926 0
M  V30 2127 H 195.717 -1.19404 1.20586 0
M  V30 2128 H 194.489 -2.97936 2.53672 0
M  V30 2129 H 194.112 -3.83478 1.05026 0
M  V30 2130 N 195.109 -0.891671 -1.2995 0
M  V30 2131 C 196.072 -0.36828 -2.26222 0
M  V30 2132 C 197.072 0.493014 -1.53056 0
M  V30 2133 O 198.262 0.299213 -1.71611 0
M  V30 2134 C 195.394 0.47442 -3.37583 0
M  V30 2135 H 196.587 -1.21844 -2.74033 0
M  V30 2136 H 194.14 -0.669107 -1.41254 0
M  V30 2137 H 194.875 1.34489 -2.95099 0
M  V30 2138 H 194.66 -0.142615 -3.91841 0
M  V30 2139 H 196.15 0.83218 -4.09224 0
M  V30 2140 N 196.587 1.43421 -0.653314 0
M  V30 2141 C 197.517 2.33487 0.0246656 0
M  V30 2142 C 198.498 1.49475 0.811863 0
M  V30 2143 O 199.683 1.78139 0.773322 0
M  V30 2144 C 196.813 3.32841 0.99166 0
M  V30 2145 C 195.767 4.26842 0.314568 0
M  V30 2146 C 195.093 5.16236 1.39302 0
M  V30 2147 C 196.393 5.16243 -0.793095 0
M  V30 2148 H 198.087 2.90427 -0.727481 0
M  V30 2149 H 195.633 1.39649 -0.351287 0
M  V30 2150 H 197.586 3.94747 1.47487 0
M  V30 2151 H 196.31 2.74158 1.77497 0
M  V30 2152 H 194.969 3.663 -0.148199 0
M  V30 2153 H 194.617 4.53891 2.16776 0
M  V30 2154 H 194.317 5.79948 0.945223 0
M  V30 2155 H 195.841 5.81015 1.87759 0
M  V30 2156 H 197.255 5.71958 -0.392039 0
M  V30 2157 H 195.652 5.88676 -1.16536 0
M  V30 2158 H 196.722 4.55927 -1.65103 0
M  V30 2159 N 198.065 0.39524 1.52563 0
M  V30 2160 C 198.995 -0.428384 2.29537 0
M  V30 2161 C 199.976 -1.05831 1.33169 0
M  V30 2162 O 201.161 -1.06995 1.62067 0
M  V30 2163 C 198.291 -1.55274 3.10656 0
M  V30 2164 C 197.245 -1.04855 4.14957 0
M  V30 2165 C 196.571 -2.26543 4.84337 0
M  V30 2166 C 197.871 -0.112324 5.22179 0
M  V30 2167 H 199.565 0.213867 2.98635 0
M  V30 2168 H 197.111 0.104298 1.43622 0
M  V30 2169 H 199.064 -2.1358 3.63265 0
M  V30 2170 H 197.788 -2.22266 2.39302 0
M  V30 2171 H 196.447 -0.487985 3.63338 0
M  V30 2172 H 196.095 -2.92059 4.09525 0
M  V30 2173 H 195.795 -1.93466 5.54837 0
M  V30 2174 H 197.319 -2.85481 5.39753 0
M  V30 2175 H 198.733 -0.603752 5.70112 0
M  V30 2176 H 197.13 0.128968 5.99961 0
M  V30 2177 H 198.2 0.837052 4.77621 0
M  V30 2178 N 199.544 -1.57102 0.125237 0
M  V30 2179 C 200.507 -2.14471 -0.80838 0
M  V30 2180 C 201.507 -1.0811 -1.19033 0
M  V30 2181 O 202.697 -1.33856 -1.11482 0
M  V30 2182 C 199.829 -2.69005 -2.09402 0
M  V30 2183 H 201.022 -2.98297 -0.309696 0
M  V30 2184 H 198.575 -1.55807 -0.124051 0
M  V30 2185 H 199.31 -1.88785 -2.63687 0
M  V30 2186 H 199.095 -3.46799 -1.82957 0
M  V30 2187 H 200.585 -3.13278 -2.76128 0
M  V30 2188 N 201.022 0.148545 -1.56898 0
M  V30 2189 C 202.247 0.880385 -1.87787 0
M  V30 2190 C 202.672 1.74018 -0.714093 0
M  V30 2191 O 202.03 1.78153 0.336343 0
M  V30 2192 C 202.078 1.71422 -3.17249 0
M  V30 2193 O 201.182 2.8183 -3.01074 0
M  V30 2194 H 200.523 0.245301 -0.617028 0
M  V30 2195 H 203.053 0.139826 -2.04122 0
M  V30 2196 H 203.063 2.10954 -3.49231 0
M  V30 2197 H 201.738 1.08284 -4.01556 0
M  V30 2198 H 200.315 2.45715 -2.80497 0
M  V30 2199 N 202.5 1.5196 0.417844 0
M  V30 2200 C 203.777 1.56146 1.17803 0
M  V30 2201 C 204.157 0.337275 2.08388 0
M  V30 2202 O 203.505 -0.676447 2.18258 0
M  V30 2203 C 203.715 2.88566 1.96293 0
M  V30 2204 C 205.063 3.41244 2.52662 0
M  V30 2205 O 206.087 2.90247 2.06483 0
M  V30 2206 O 204.946 4.30273 3.36938 0
M  V30 2207 H 202.04 0.628598 0.537395 0
M  V30 2208 H 204.586 1.64283 0.425331 0
M  V30 2209 H 203.358 3.69116 1.2988 0
M  V30 2210 H 202.981 2.83681 2.78587 0
M  V30 2211 N 203.978 -0.674533 1.42435 0
M  V30 2212 C 204.926 -1.80934 1.46169 0
M  V30 2213 C 205.92 -1.66006 0.3374 0
M  V30 2214 O 207.126 -1.72611 0.510425 0
M  V30 2215 H 203.501 -0.596594 0.457798 0
M  V30 2216 H 205.472 -1.74903 2.41767 0
M  V30 2217 C 204.221 -3.19088 1.38123 0
M  V30 2218 H 203.544 -3.31203 2.23931 0
M  V30 2219 H 204.984 -3.9851 1.44797 0
M  V30 2220 C 203.443 -3.36763 0.0960517 0
M  V30 2221 O 203.973 -3.92581 -0.851073 0
M  V30 2222 N 202.179 -2.90597 0.0131186 0
M  V30 2223 H 201.726 -2.45359 0.784639 0
M  V30 2224 H 201.684 -3.028 -0.846133 0
M  V30 2225 N 205.456 -1.28612 -0.910864 0
M  V30 2226 C 206.702 -1.16106 -1.66274 0
M  V30 2227 C 207.035 0.289113 -1.92036 0
M  V30 2228 O 206.31 1.21 -1.52281 0
M  V30 2229 C 206.593 -1.96309 -3.01885 0
M  V30 2230 C 206.446 -3.49405 -2.8326 0
M  V30 2231 C 207.765 -1.78076 -4.02463 0
M  V30 2232 H 204.884 -0.423152 -0.603417 0
M  V30 2233 H 207.526 -1.57961 -1.05586 0
M  V30 2234 H 205.676 -1.60742 -3.53687 0
M  V30 2235 H 207.348 -3.94894 -2.38446 0
M  V30 2236 H 205.591 -3.74893 -2.18261 0
M  V30 2237 H 206.262 -4.00784 -3.79574 0
M  V30 2238 H 208.738 -2.0912 -3.59733 0
M  V30 2239 H 207.614 -2.36561 -4.95308 0
M  V30 2240 H 207.875 -0.733008 -4.35981 0
M  V30 2241 N 206.934 1.1197 -1.10907 0
M  V30 2242 C 207.884 2.15946 -0.731538 0
M  V30 2243 C 208.868 1.58758 0.261699 0
M  V30 2244 O 210.06 1.76863 0.0696722 0
M  V30 2245 C 207.189 3.42877 -0.170299 0
M  V30 2246 C 206.275 4.07037 -1.19087 0
M  V30 2247 N 206.666 4.46135 -2.38322 0
M  V30 2248 C 204.964 4.33884 -1.03252 0
M  V30 2249 C 205.665 4.96331 -3.03366 0
M  V30 2250 N 204.641 4.9214 -2.30865 0
M  V30 2251 H 208.443 2.43947 -1.63912 0
M  V30 2252 H 205.957 1.28927 -0.987505 0
M  V30 2253 H 207.954 4.16732 0.118271 0
M  V30 2254 H 206.614 3.16343 0.731935 0
M  V30 2255 H 207.625 4.38345 -2.75815 0
M  V30 2256 H 204.302 4.17084 -0.186256 0
M  V30 2257 H 205.692 5.36257 -4.04818 0
M  V30 2258 N 208.412 0.89855 1.29475 0
M  V30 2259 C 209.375 0.380272 2.26023 0
M  V30 2260 C 210.375 -0.484891 1.53315 0
M  V30 2261 O 211.565 -0.290108 1.71767 0
M  V30 2262 C 208.697 -0.45651 3.3783 0
M  V30 2263 H 209.89 1.23295 2.73383 0
M  V30 2264 H 207.443 0.676589 1.40897 0
M  V30 2265 H 208.178 -1.32922 2.95808 0
M  V30 2266 H 207.963 0.163393 3.91759 0
M  V30 2267 H 209.453 -0.810466 4.0966 0
M  V30 2268 N 209.89 -1.43072 0.660911 0
M  V30 2269 C 210.838 -2.32569 -0.0378199 0
M  V30 2270 C 211.832 -1.49046 -0.805092 0
M  V30 2271 O 213.038 -1.65206 -0.714624 0
M  V30 2272 H 209.413 -0.75136 -0.031019 0
M  V30 2273 H 211.384 -2.89216 0.734609 0
M  V30 2274 C 210.133 -3.33453 -0.985124 0
M  V30 2275 H 209.456 -3.97752 -0.404147 0
M  V30 2276 H 210.896 -3.98691 -1.44297 0
M  V30 2277 C 209.355 -2.64642 -2.08486 0
M  V30 2278 O 209.885 -2.46776 -3.16961 0
M  V30 2279 N 208.091 -2.23891 -1.8526 0
M  V30 2280 H 207.638 -2.38621 -0.970449 0
M  V30 2281 H 207.596 -1.78181 -2.59034 0
M  V30 2282 N 211.368 -0.403325 -1.52352 0
M  V30 2283 C 212.593 0.176499 -2.06648 0
M  V30 2284 C 213.018 1.38577 -1.27193 0
M  V30 2285 O 212.376 1.7879 -0.300637 0
M  V30 2286 C 212.424 0.511061 -3.5696 0
M  V30 2287 O 211.528 1.60294 -3.79973 0
M  V30 2288 H 210.869 0.0167337 -0.663789 0
M  V30 2289 H 213.399 -0.574848 -1.96359 0
M  V30 2290 H 213.409 0.771362 -4.00642 0
M  V30 2291 H 212.084 -0.37296 -4.14224 0
M  V30 2292 H 210.661 1.33526 -3.48174 0
M  V30 2293 N 212.846 1.57033 -0.133567 0
M  V30 2294 C 214.262 1.58035 0.222944 0
M  V30 2295 C 214.462 1.14713 1.6566 0
M  V30 2296 O 213.518 0.841218 2.38075 0
M  V30 2297 C 214.831 3.00691 -0.0236116 0
M  V30 2298 C 216.379 3.12973 0.0411512 0
M  V30 2299 C 216.854 4.57654 -0.177899 0
M  V30 2300 N 218.345 4.63033 -0.124365 0
M  V30 2301 C 219.08 5.72771 -0.268553 0
M  V30 2302 N 218.576 6.91206 -0.46972 0
M  V30 2303 N 220.369 5.61718 -0.2071 0
M  V30 2304 H 212.52 1.8349 -1.06981 0
M  V30 2305 H 214.783 0.848677 -0.422436 0
M  V30 2306 H 214.489 3.36726 -1.0153 0
M  V30 2307 H 214.363 3.70614 0.701808 0
M  V30 2308 H 216.75 2.76787 1.02338 0
M  V30 2309 H 216.831 2.45564 -0.716383 0
M  V30 2310 H 216.475 4.94542 -1.15717 0
M  V30 2311 H 216.405 5.23173 0.599797 0
M  V30 2312 H 218.896 3.7789 0.027011 0
M  V30 2313 H 219.209 7.70693 -0.570212 0
M  V30 2314 H 217.554 6.93156 -0.505876 0
M  V30 2315 H 220.745 4.68072 -0.0507986 0
M  V30 2316 H 220.918 6.47195 -0.322909 0
M  V30 2317 N 214.325 -0.140222 1.56975 0
M  V30 2318 C 215.288 -1.15689 1.97861 0
M  V30 2319 C 216.288 -1.3549 0.865974 0
M  V30 2320 O 217.478 -1.32367 1.13246 0
M  V30 2321 C 214.61 -2.51582 2.30042 0
M  V30 2322 H 215.803 -0.805971 2.88867 0
M  V30 2323 H 213.356 -0.383801 1.51515 0
M  V30 2324 H 214.091 -2.91632 1.41849 0
M  V30 2325 H 213.876 -2.38569 3.11171 0
M  V30 2326 H 215.366 -3.24792 2.62488 0
M  V30 2327 N 215.803 -1.52179 -0.40978 0
M  V30 2328 C 217.033 -1.69807 -1.17682 0
M  V30 2329 C 217.441 -0.406908 -1.84773 0
M  V30 2330 O 216.784 0.626863 -1.72673 0
M  V30 2331 C 216.846 -2.77712 -2.2829 0
M  V30 2332 C 216.51 -4.19481 -1.81341 0
M  V30 2333 C 217.507 -5.03345 -1.30154 0
M  V30 2334 C 215.192 -4.65713 -1.88194 0
M  V30 2335 C 217.186 -6.31511 -0.864416 0
M  V30 2336 C 214.873 -5.93869 -1.44093 0
M  V30 2337 C 215.871 -6.76597 -0.933023 0
M  V30 2338 O 215.559 -8.02354 -0.49838 0
M  V30 2339 H 215.291 -0.572372 -0.359675 0
M  V30 2340 H 217.845 -1.99511 -0.488311 0
M  V30 2341 H 216.075 -2.43383 -3.00502 0
M  V30 2342 H 217.764 -2.83946 -2.90051 0
M  V30 2343 H 218.53 -4.68819 -1.24232 0
M  V30 2344 H 214.409 -4.01424 -2.26671 0
M  V30 2345 H 217.953 -6.96033 -0.467286 0
M  V30 2346 H 213.85 -6.27903 -1.49694 0
M  V30 2347 H 214.618 -8.16135 -0.621747 0
M  V30 2348 N 217.281 0.66697 -1.42791 0
M  V30 2349 C 218.528 1.42699 -1.43678 0
M  V30 2350 C 218.856 1.94419 -0.0560425 0
M  V30 2351 O 218.111 1.7182 0.936831 0
M  V30 2352 C 218.41 2.6349 -2.4147 0
M  V30 2353 C 218.076 2.30267 -3.8767 0
M  V30 2354 C 216.738 2.20918 -4.27491 0
M  V30 2355 C 219.09 2.03435 -4.79858 0
M  V30 2356 C 216.418 1.82873 -5.57471 0
M  V30 2357 C 218.77 1.66892 -6.10188 0
M  V30 2358 C 217.434 1.56058 -6.49001 0
M  V30 2359 H 216.704 0.522171 -0.525755 0
M  V30 2360 H 219.351 0.759785 -1.75783 0
M  V30 2361 H 217.656 3.35279 -2.0272 0
M  V30 2362 H 219.353 3.21684 -2.39417 0
M  V30 2363 H 215.943 2.38449 -3.56146 0
M  V30 2364 H 220.127 2.09586 -4.49875 0
M  V30 2365 H 215.383 1.7306 -5.86396 0
M  V30 2366 H 219.557 1.45157 -6.81104 0
M  V30 2367 H 217.184 1.26348 -7.49627 0
M  V30 2368 N 218.759 1.29093 0.90403 0
M  V30 2369 C 219.689 1.16401 2.02418 0
M  V30 2370 C 220.67 0.0593085 1.69997 0
M  V30 2371 O 221.855 0.238021 1.92736 0
M  V30 2372 C 218.985 0.835233 3.37107 0
M  V30 2373 C 217.939 1.89578 3.83724 0
M  V30 2374 C 217.265 1.42041 5.15489 0
M  V30 2375 C 218.565 3.30394 4.04521 0
M  V30 2376 H 220.259 2.10109 2.13295 0
M  V30 2377 H 217.805 1.01157 1.02486 0
M  V30 2378 H 219.758 0.733169 4.14973 0
M  V30 2379 H 218.482 -0.137543 3.2631 0
M  V30 2380 H 217.141 1.98715 3.08071 0
M  V30 2381 H 216.789 0.436426 5.01103 0
M  V30 2382 H 216.489 2.12964 5.4765 0
M  V30 2383 H 218.013 1.33176 5.959 0
M  V30 2384 H 219.427 3.24123 4.72882 0
M  V30 2385 H 217.824 3.99237 4.48029 0
M  V30 2386 H 218.894 3.73692 3.09002 0
M  V30 2387 N 220.237 -1.11381 1.11499 0
M  V30 2388 C 221.2 -2.15622 0.777153 0
M  V30 2389 C 222.2 -1.59504 -0.203779 0
M  V30 2390 O 223.39 -1.74188 0.020782 0
M  V30 2391 C 220.522 -3.40556 0.153116 0
M  V30 2392 H 221.715 -2.47021 1.70061 0
M  V30 2393 H 219.268 -1.26577 0.916952 0
M  V30 2394 H 220.003 -3.14767 -0.780536 0
M  V30 2395 H 219.788 -3.8257 0.859238 0
M  V30 2396 H 221.278 -4.17546 -0.0671044 0
M  V30 2397 N 221.715 -0.905404 -1.28997 0
M  V30 2398 C 222.625 -0.392246 -2.31298 0
M  V30 2399 C 223.641 0.515889 -1.66176 0
M  V30 2400 O 224.817 0.404093 -1.97304 0
M  V30 2401 C 221.882 0.36686 -3.44754 0
M  V30 2402 C 220.943 -0.573485 -4.25452 0
M  V30 2403 C 220.176 0.149488 -5.33491 0
M  V30 2404 O 220.399 1.37255 -5.5364 0
M  V30 2405 O 219.333 -0.510919 -5.99728 0
M  V30 2406 H 223.159 -1.2411 -2.77183 0
M  V30 2407 H 220.744 -0.669926 -1.33538 0
M  V30 2408 H 222.626 0.795907 -4.13816 0
M  V30 2409 H 221.301 1.19169 -3.00966 0
M  V30 2410 H 220.208 -1.05176 -3.59011 0
M  V30 2411 H 221.541 -1.36489 -4.72897 0
M  V30 2412 N 223.193 1.4272 -0.668489 0
M  V30 2413 C 224.14 2.30796 0.0137489 0
M  V30 2414 C 225.11 1.4561 0.799177 0
M  V30 2415 O 226.295 1.74453 0.772702 0
M  V30 2416 C 223.435 3.31377 0.963507 0
M  V30 2417 C 222.548 4.31655 0.172569 0
M  V30 2418 C 221.683 5.19312 1.1175 0
M  V30 2419 C 220.722 6.11274 0.317886 0
M  V30 2420 N 219.859 6.91504 1.2152 0
M  V30 2421 H 224.699 2.88585 -0.743161 0
M  V30 2422 H 222.236 1.42154 -0.378226 0
M  V30 2423 H 224.194 3.88214 1.52792 0
M  V30 2424 H 222.824 2.75202 1.68712 0
M  V30 2425 H 221.876 3.76988 -0.508374 0
M  V30 2426 H 223.188 4.96779 -0.448527 0
M  V30 2427 H 222.342 5.80851 1.75206 0
M  V30 2428 H 221.081 4.5435 1.77249 0
M  V30 2429 H 220.086 5.48809 -0.329918 0
M  V30 2430 H 221.311 6.78283 -0.332917 0
M  V30 2431 H 219.257 6.29176 1.85671 0
M  V30 2432 H 219.174 7.53209 0.649036 0
M  V30 2433 H 220.442 7.57535 1.83742 0
M  V30 2434 N 224.671 0.411399 1.52136 0
M  V30 2435 C 226.087 0.0623865 1.59478 0
M  V30 2436 C 226.287 -1.42554 1.4241 0
M  V30 2437 O 225.343 -2.19263 1.2522 0
M  V30 2438 C 226.656 0.559331 2.95452 0
M  V30 2439 C 228.204 0.517503 3.08692 0
M  V30 2440 C 228.679 0.990994 4.4715 0
M  V30 2441 N 230.17 0.947908 4.53397 0
M  V30 2442 C 230.905 1.28544 5.58806 0
M  V30 2443 N 230.401 1.69454 6.71757 0
M  V30 2444 N 232.194 1.20526 5.49026 0
M  V30 2445 H 224.345 1.37982 1.61477 0
M  V30 2446 H 226.608 0.566977 0.759764 0
M  V30 2447 H 226.314 1.59938 3.1323 0
M  V30 2448 H 226.188 -0.0298014 3.77188 0
M  V30 2449 H 228.575 -0.513505 2.90598 0
M  V30 2450 H 228.656 1.14272 2.28857 0
M  V30 2451 H 228.3 2.02034 4.65988 0
M  V30 2452 H 228.23 0.34257 5.25485 0
M  V30 2453 H 230.721 0.647157 3.72317 0
M  V30 2454 H 231.034 1.93513 7.48179 0
M  V30 2455 H 229.379 1.73359 6.73032 0
M  V30 2456 H 232.57 0.884505 4.59667 0
M  V30 2457 H 232.743 1.47161 6.31069 0
M  V30 2458 N 226.149 -1.5696 0.141893 0
M  V30 2459 C 227.377 -2.00322 -0.517579 0
M  V30 2460 C 227.792 -1.02193 -1.58752 0
M  V30 2461 O 227.149 -0.0181619 -1.82491 0
M  V30 2462 C 227.2 -3.43618 -1.12289 0
M  V30 2463 O 226.921 -4.37995 -0.0956929 0
M  V30 2464 C 228.422 -4.02231 -1.86347 0
M  V30 2465 H 225.642 -0.657243 -0.135177 0
M  V30 2466 H 228.186 -2.03146 0.234973 0
M  V30 2467 H 226.341 -3.41662 -1.82609 0
M  V30 2468 H 226.755 -5.21729 -0.538469 0
M  V30 2469 H 228.229 -5.04509 -2.23997 0
M  V30 2470 H 228.706 -3.42655 -2.74744 0
M  V30 2471 H 229.312 -4.07802 -1.20737 0
M  V30 2472 N 227.627 0.131896 -1.57047 0
M  V30 2473 C 228.875 0.840269 -1.83804 0
M  V30 2474 C 229.196 1.81017 -0.72512 0
M  V30 2475 O 228.466 1.94272 0.251995 0
M  V30 2476 H 227.046 0.313294 -0.678127 0
M  V30 2477 H 229.708 0.122294 -1.94516 0
M  V30 2478 H 228.804 1.39335 -2.79271 0
M  V30 2479 N 229.106 1.52395 0.401703 0
M  V30 2480 C 230.352 1.67065 1.14966 0
M  V30 2481 C 230.685 0.403052 1.89971 0
M  V30 2482 O 229.96 -0.598774 1.85054 0
M  V30 2483 C 230.243 2.8975 2.13815 0
M  V30 2484 C 230.096 4.26578 1.42658 0
M  V30 2485 C 231.415 3.07965 3.14397 0
M  V30 2486 H 228.534 0.607968 0.416587 0
M  V30 2487 H 231.176 1.84965 0.434511 0
M  V30 2488 H 229.326 2.74619 2.74803 0
M  V30 2489 H 230.998 4.53451 0.847329 0
M  V30 2490 H 229.241 4.27639 0.72849 0
M  V30 2491 H 229.912 5.08483 2.14823 0
M  V30 2492 H 232.388 3.22043 2.63491 0
M  V30 2493 H 231.264 3.95308 3.80819 0
M  V30 2494 H 231.525 2.21611 3.82545 0
M  V30 2495 N 230.584 -0.659388 1.43143 0
M  V30 2496 C 231.995 -1.24041 1.39537 0
M  V30 2497 C 232.346 -1.95963 0.0963364 0
M  V30 2498 O 231.471 -2.00892 -0.804438 0
M  V30 2499 C 232.066 -2.25601 2.52764 0
M  V30 2500 C 230.625 -2.79195 2.52443 0
M  V30 2501 C 229.772 -1.53743 2.30778 0
M  V30 2502 H 232.723 -0.451792 1.52133 0
M  V30 2503 H 232.744 -3.07651 2.23899 0
M  V30 2504 H 232.256 -1.73226 3.47296 0
M  V30 2505 H 230.357 -3.35649 1.61773 0
M  V30 2506 H 230.47 -3.2716 3.50004 0
M  V30 2507 H 228.834 -1.80869 1.79328 0
M  V30 2508 H 229.617 -1.03312 3.27386 0
M  V30 2509 N 232.062 -1.29571 -0.897171 0
M  V30 2510 C 233.31 -1.17456 -1.64464 0
M  V30 2511 C 233.631 0.273698 -1.9307 0
M  V30 2512 O 232.901 1.18684 -1.55855 0
M  V30 2513 H 231.481 -0.431706 -0.609622 0
M  V30 2514 H 234.143 -1.62531 -1.07562 0
M  V30 2515 H 233.239 -1.72648 -2.59998 0
M  V30 2516 N 233.54 1.10788 -1.12088 0
M  V30 2517 C 234.47 2.19083 -0.807755 0
M  V30 2518 C 235.451 1.6858 0.226859 0
M  V30 2519 O 236.636 1.93997 0.0888475 0
M  V30 2520 C 233.766 3.46344 -0.257576 0
M  V30 2521 C 232.72 4.101 -1.22483 0
M  V30 2522 C 232.046 5.32016 -0.535052 0
M  V30 2523 C 233.346 4.54236 -2.57811 0
M  V30 2524 H 235.04 2.45534 -1.71328 0
M  V30 2525 H 232.586 1.1801 -0.825205 0
M  V30 2526 H 234.539 4.21392 -0.0262679 0
M  V30 2527 H 233.263 3.19373 0.683278 0
M  V30 2528 H 231.922 3.37054 -1.44189 0
M  V30 2529 H 231.57 5.01319 0.410827 0
M  V30 2530 H 231.27 5.75625 -1.18024 0
M  V30 2531 H 232.794 6.09799 -0.312695 0
M  V30 2532 H 234.208 5.20575 -2.40155 0
M  V30 2533 H 232.605 5.08682 -3.18375 0
M  V30 2534 H 233.675 3.6734 -3.16528 0
M  V30 2535 O 235.057 1.04415 1.23206 0
M  V30 2536 H 235.748 0.716727 1.79952 0
M  V30 END ATOM
M  V30 BEGIN BOND
M  V30 END BOND
M  V30 END CTAB
M  END
$$$$
