drugbank_target|Q7WT42 Inorganic polyphosphate/ATP-glucomannokinase (DB02379)
 OpenBabel12092120293D

  0  0  0     0  0            999 V3000
M  V30 BEGIN CTAB
M  V30 COUNTS 4002 4039 0 0 0
M  V30 BEGIN ATOM
M  V30 1 H -0.908 1.98254 -0.117106 0
M  V30 2 N 0 1.576 0 0
M  V30 3 C 0.933 2.03868 1.02534 0
M  V30 4 C 1.911 0.928543 1.3348 0
M  V30 5 O 3.095 1.19667 1.45644 0
M  V30 6 C 0.222 2.43627 2.35294 0
M  V30 7 C -0.732 3.65373 2.2001 0
M  V30 8 S 0.101 5.13292 1.52614 0
M  V30 9 C 1.257 5.56322 2.86805 0
M  V30 10 H 1.49 2.90518 0.631377 0
M  V30 11 H -0.977 1.52953 0.210867 0
M  V30 12 H 0.981 2.67203 3.11629 0
M  V30 13 H -0.358 1.57376 2.7183 0
M  V30 14 H -1.165 3.90944 3.18086 0
M  V30 15 H -1.563 3.418 1.51819 0
M  V30 16 H 0.729 5.58782 3.83104 0
M  V30 17 H 1.672 6.56266 2.65933 0
M  V30 18 H 2.08 4.83886 2.90714 0
M  V30 19 N 1.4781 -0.272755 1.55222 0
M  V30 20 C 2.4411 -1.32041 1.87344 0
M  V30 21 C 3.4411 -1.42342 0.74803 0
M  V30 22 O 4.6311 -1.41488 1.0162 0
M  V30 23 C 1.7631 -2.70173 2.07893 0
M  V30 24 H 2.9561 -1.04789 2.80997 0
M  V30 25 H 0.5091 -0.51083 1.47717 0
M  V30 26 H 1.2441 -3.02605 1.16622 0
M  V30 27 H 1.0291 -2.64082 2.89833 0
M  V30 28 H 2.5191 -3.45869 2.34017 0
M  V30 29 N 2.9562 -1.48159 -0.537278 0
M  V30 30 C 3.9032 -1.62138 -1.64256 0
M  V30 31 C 4.8732 -0.463668 -1.59497 0
M  V30 32 O 6.0582 -0.686241 -1.78032 0
M  V30 33 C 3.1982 -1.66028 -3.02537 0
M  V30 34 C 2.3112 -2.92855 -3.17585 0
M  V30 35 C 1.4462 -2.87952 -4.46382 0
M  V30 36 C 0.4852 -4.09516 -4.54932 0
M  V30 37 N -0.3778 -4.02733 -5.75109 0
M  V30 38 H 4.4622 -2.56529 -1.51647 0
M  V30 39 H 1.9992 -1.27224 -0.738414 0
M  V30 40 H 3.9572 -1.66265 -3.82638 0
M  V30 41 H 2.5872 -0.751331 -3.13934 0
M  V30 42 H 1.6392 -3.02395 -2.30784 0
M  V30 43 H 2.9512 -3.82822 -3.19764 0
M  V30 44 H 2.1052 -2.8655 -5.34765 0
M  V30 45 H 0.8442 -1.95702 -4.46712 0
M  V30 46 H -0.1508 -4.11201 -3.64957 0
M  V30 47 H 1.0742 -5.02917 -4.56346 0
M  V30 48 H -0.9798 -3.13299 -5.76351 0
M  V30 49 H -1.0628 -4.86397 -5.78752 0
M  V30 50 H 0.2052 -4.05379 -6.65799 0
M  V30 51 N 4.4343 0.785586 -1.36625 0
M  V30 52 C 5.3813 1.89838 -1.31264 0
M  V30 53 C 6.3513 1.65115 -0.180633 0
M  V30 54 O 7.5363 1.87222 -0.36777 0
M  V30 55 C 4.6763 3.26706 -1.11163 0
M  V30 56 C 3.7893 3.63476 -2.33472 0
M  V30 57 C 2.9243 4.89481 -2.06353 0
M  V30 58 C 1.9633 5.18941 -3.24602 0
M  V30 59 N 1.1003 6.36131 -2.97123 0
M  V30 60 H 5.9403 1.93756 -2.26413 0
M  V30 61 H 3.4773 0.947454 -1.12524 0
M  V30 62 H 5.4353 4.05639 -0.975337 0
M  V30 63 H 4.0653 3.222 -0.196674 0
M  V30 64 H 3.1173 2.79636 -2.57891 0
M  V30 65 H 4.4293 3.81193 -3.21704 0
M  V30 66 H 3.5833 5.76288 -1.89675 0
M  V30 67 H 2.3223 4.73841 -1.15437 0
M  V30 68 H 1.3273 4.30615 -3.41834 0
M  V30 69 H 2.5523 5.36498 -4.16349 0
M  V30 70 H 0.4983 6.21875 -2.08823 0
M  V30 71 H 0.4153 6.54198 -3.78894 0
M  V30 72 H 1.6833 7.2591 -2.84033 0
M  V30 73 N 5.9124 1.20967 1.01018 0
M  V30 74 C 7.1894 0.93264 1.71934 0
M  V30 75 C 7.5694 -0.55692 2.03621 0
M  V30 76 O 6.9174 -1.52035 1.7058 0
M  V30 77 C 7.1274 1.81233 2.98254 0
M  V30 78 C 8.4754 2.05804 3.71389 0
M  V30 79 O 9.4994 1.78539 3.08225 0
M  V30 80 O 8.3584 2.51888 4.84989 0
M  V30 81 H 5.4524 0.349272 0.749625 0
M  V30 82 H 7.9984 1.31871 1.06808 0
M  V30 83 H 6.7704 2.82067 2.71208 0
M  V30 84 H 6.3934 1.42674 3.7112 0
M  V30 85 N 7.3905 -1.2043 1.01659 0
M  V30 86 C 8.3005 -2.2689 0.596484 0
M  V30 87 C 9.3165 -1.70107 -0.36599 0
M  V30 88 O 10.4925 -2.00117 -0.226942 0
M  V30 89 C 7.5575 -3.4665 -0.0586659 0
M  V30 90 C 6.6185 -4.18662 0.949751 0
M  V30 91 C 5.8515 -5.32705 0.32577 0
M  V30 92 O 6.0745 -5.63656 -0.874509 0
M  V30 93 O 5.0085 -5.92803 1.04249 0
M  V30 94 H 8.8345 -2.65041 1.4828 0
M  V30 95 H 6.4195 -1.27048 0.786082 0
M  V30 96 H 8.3015 -4.19256 -0.424564 0
M  V30 97 H 6.9765 -3.10375 -0.91918 0
M  V30 98 H 5.8835 -3.48229 1.36702 0
M  V30 99 H 7.2165 -4.58878 1.78023 0
M  V30 100 N 8.8686 -0.792821 -1.36206 0
M  V30 101 C 9.8156 -0.191653 -2.30003 0
M  V30 102 C 10.7856 0.666453 -1.52143 0
M  V30 103 O 11.9706 0.61442 -1.80636 0
M  V30 104 C 9.1106 0.664848 -3.38635 0
M  V30 105 C 8.2236 -0.212175 -4.31479 0
M  V30 106 C 7.3586 0.651022 -5.27196 0
M  V30 107 C 6.3976 -0.227247 -6.11678 0
M  V30 108 N 5.5346 0.595127 -6.99573 0
M  V30 109 H 10.3746 -0.996978 -2.80828 0
M  V30 110 H 7.9116 -0.503206 -1.38225 0
M  V30 111 H 9.8696 1.17645 -4.00269 0
M  V30 112 H 8.4996 1.43557 -2.89122 0
M  V30 113 H 7.5516 -0.841777 -3.70969 0
M  V30 114 H 8.8636 -0.888751 -4.90818 0
M  V30 115 H 8.0176 1.2283 -5.94136 0
M  V30 116 H 6.7566 1.36121 -4.68319 0
M  V30 117 H 5.7616 -0.816904 -5.43697 0
M  V30 118 H 6.9866 -0.93509 -6.72631 0
M  V30 119 H 4.9326 1.28955 -6.432 0
M  V30 120 H 4.8496 -0.0236952 -7.55996 0
M  V30 121 H 6.1176 1.15613 -7.70879 0
M  V30 122 N 10.3467 1.47872 -0.545128 0
M  V30 123 C 11.5717 2.07391 -0.0190611 0
M  V30 124 C 11.9967 1.39688 1.25971 0
M  V30 125 O 11.3547 0.467816 1.7516 0
M  V30 126 C 11.4027 3.60188 0.172335 0
M  V30 127 O 10.5067 3.9339 1.23766 0
M  V30 128 H 9.8477 0.662411 -0.0459059 0
M  V30 129 H 12.3777 1.90066 -0.757365 0
M  V30 130 H 12.3877 4.06129 0.390305 0
M  V30 131 H 11.0627 4.08865 -0.761725 0
M  V30 132 H 9.6397 3.5921 1.00114 0
M  V30 133 N 11.8248 0.280983 1.55075 0
M  V30 134 C 12.7748 -0.618585 2.19448 0
M  V30 135 C 13.7588 -1.11401 1.16098 0
M  V30 136 O 14.9508 -1.0581 1.41891 0
M  V30 137 C 12.0798 -1.79951 2.92357 0
M  V30 138 C 11.1658 -1.321 4.03002 0
M  V30 139 N 11.5568 -0.559044 5.02701 0
M  V30 140 C 9.8548 -1.60346 4.16179 0
M  V30 141 C 10.5558 -0.306722 5.80891 0
M  V30 142 N 9.5318 -0.880825 5.36416 0
M  V30 143 H 13.3338 -0.0286638 2.93886 0
M  V30 144 H 10.8478 0.0848104 1.62178 0
M  V30 145 H 12.8448 -2.45531 3.36927 0
M  V30 146 H 11.5048 -2.39333 2.19431 0
M  V30 147 H 12.5158 -0.205827 5.17491 0
M  V30 148 H 9.1928 -2.20621 3.54447 0
M  V30 149 H 10.5828 0.30391 6.71212 0
M  V30 150 N 13.3029 -1.57598 0.00835791 0
M  V30 151 C 14.2499 -2.08945 -0.980346 0
M  V30 152 C 15.2199 -0.986738 -1.33614 0
M  V30 153 O 16.4049 -1.25968 -1.43306 0
M  V30 154 C 13.5449 -2.60425 -2.26435 0
M  V30 155 C 12.6579 -3.84628 -1.96685 0
M  V30 156 C 11.7929 -4.24579 -3.19228 0
M  V30 157 C 10.8319 -5.41596 -2.85202 0
M  V30 158 N 9.9689 -5.768 -4.00307 0
M  V30 159 H 14.8089 -2.93148 -0.535551 0
M  V30 160 H 12.3459 -1.44912 -0.252776 0
M  V30 161 H 14.3039 -2.88354 -3.01509 0
M  V30 162 H 12.9339 -1.79083 -2.68568 0
M  V30 163 H 11.9859 -3.63556 -1.11942 0
M  V30 164 H 13.2979 -4.69796 -1.67611 0
M  V30 165 H 12.4519 -4.53834 -4.02641 0
M  V30 166 H 11.1909 -3.38137 -3.51447 0
M  V30 167 H 10.1959 -5.12056 -2.00198 0
M  V30 168 H 11.4209 -6.29721 -2.54222 0
M  V30 169 H 9.3669 -4.93316 -4.32407 0
M  V30 170 H 9.2839 -6.5656 -3.74786 0
M  V30 171 H 10.5519 -6.10652 -4.84484 0
M  V30 172 N 14.781 0.264519 -1.55364 0
M  V30 173 C 15.729 1.34702 -1.89626 0
M  V30 174 C 16.723 1.50712 -0.773459 0
M  V30 175 O 17.929 1.52395 -0.957897 0
M  V30 176 H 14.304 0.450682 -0.601988 0
M  V30 177 H 16.275 1.0306 -2.80038 0
M  V30 178 C 15.024 2.6989 -2.19214 0
M  V30 179 H 14.347 2.58365 -3.05103 0
M  V30 180 H 15.787 3.44553 -2.47102 0
M  V30 181 C 14.246 3.21637 -1.00254 0
M  V30 182 O 14.776 4.00973 -0.241501 0
M  V30 183 N 12.982 2.7943 -0.797938 0
M  V30 184 H 12.529 2.15026 -1.4185 0
M  V30 185 H 12.487 3.144 -0.00363422 0
M  V30 186 N 16.2591 1.48442 0.529413 0
M  V30 187 C 17.2221 1.62524 1.61612 0
M  V30 188 C 18.2221 0.498509 1.52877 0
M  V30 189 O 19.4121 0.76431 1.56537 0
M  V30 190 C 16.5441 1.59597 3.01233 0
M  V30 191 H 17.7371 2.59423 1.50465 0
M  V30 192 H 15.2901 1.37047 0.751514 0
M  V30 193 H 16.0251 0.641781 3.17886 0
M  V30 194 H 15.8101 2.41397 3.08982 0
M  V30 195 H 17.3001 1.72646 3.80241 0
M  V30 196 N 17.7372 -0.778329 1.37039 0
M  V30 197 C 19.1482 -1.35421 1.28523 0
M  V30 198 C 19.4992 -1.96075 -0.0700901 0
M  V30 199 O 18.6242 -1.93352 -0.971801 0
M  V30 200 C 19.2192 -2.46211 2.32735 0
M  V30 201 C 17.7782 -2.99585 2.27873 0
M  V30 202 C 16.9252 -1.72748 2.16918 0
M  V30 203 H 19.8762 -0.5791 1.47757 0
M  V30 204 H 19.8972 -3.2552 1.9702 0
M  V30 205 H 19.4092 -2.02036 3.31365 0
M  V30 206 H 17.5102 -3.48152 1.32745 0
M  V30 207 H 17.6232 -3.55646 3.21018 0
M  V30 208 H 15.9872 -1.95416 1.63354 0
M  V30 209 H 16.7702 -1.30686 3.17452 0
M  V30 210 N 19.2153 -1.21501 -1.00376 0
M  V30 211 C 20.1453 -0.999478 -2.11028 0
M  V30 212 C 21.1263 0.0759671 -1.6993 0
M  V30 213 O 22.3113 -0.0841106 -1.94018 0
M  V30 214 C 19.4413 -0.564709 -3.42678 0
M  V30 215 C 18.3953 -1.58486 -3.97576 0
M  V30 216 C 17.7213 -1.00628 -5.25146 0
M  V30 217 C 19.0213 -2.97204 -4.29496 0
M  V30 218 H 20.7153 -1.92495 -2.29317 0
M  V30 219 H 18.2613 -0.92693 -1.102 0
M  V30 220 H 20.2143 -0.401091 -4.19487 0
M  V30 221 H 18.9383 0.396411 -3.24185 0
M  V30 222 H 17.5973 -1.73606 -3.22888 0
M  V30 223 H 17.2453 -0.0368439 -5.02987 0
M  V30 224 H 16.9453 -1.68771 -5.62841 0
M  V30 225 H 18.4693 -0.854015 -6.04598 0
M  V30 226 H 19.8833 -2.8552 -4.97143 0
M  V30 227 H 18.2803 -3.62372 -4.78338 0
M  V30 228 H 19.3503 -3.47956 -3.3772 0
M  V30 229 N 20.6934 1.19889 -1.02296 0
M  V30 230 C 21.9424 1.88743 -0.711257 0
M  V30 231 C 22.2554 1.80112 0.762817 0
M  V30 232 O 23.4614 2.44161 1.18733 0
M  V30 233 C 21.9174 3.38525 -1.22185 0
M  V30 234 C 21.5254 3.55727 -2.72328 0
M  V30 235 C 23.2694 4.12893 -0.985864 0
M  V30 236 C 21.1764 4.99369 -3.16835 0
M  V30 237 H 20.1064 0.706885 -0.262353 0
M  V30 238 H 22.7574 1.35586 -1.23648 0
M  V30 239 H 21.1394 3.91044 -0.624571 0
M  V30 240 H 22.3134 3.13564 -3.3766 0
M  V30 241 H 20.6284 2.94739 -2.9414 0
M  V30 242 H 23.2254 5.18813 -1.29374 0
M  V30 243 H 23.5684 4.16228 0.0775055 0
M  V30 244 H 24.1014 3.66494 -1.54684 0
M  V30 245 H 20.8404 5.01193 -4.22476 0
M  V30 246 H 20.3604 5.42317 -2.56228 0
M  V30 247 H 22.0394 5.67988 -3.09837 0
M  V30 248 N 22.1715 0.800033 1.35784 0
M  V30 249 C 23.4195 0.376597 1.9856 0
M  V30 250 C 23.7405 -1.05812 1.63795 0
M  V30 251 O 23.0105 -1.73103 0.917171 0
M  V30 252 H 21.5905 0.136261 0.734467 0
M  V30 253 H 24.2525 1.02442 1.65806 0
M  V30 254 H 23.3485 0.477002 3.08433 0
M  V30 255 N 23.6496 -1.47581 0.552962 0
M  V30 256 C 24.8986 -2.01684 0.0251995 0
M  V30 257 C 25.2116 -1.43317 -1.33115 0
M  V30 258 O 26.4176 -1.89057 -1.94858 0
M  V30 259 C 24.8736 -3.599 -0.00542052 0
M  V30 260 C 24.4816 -4.27257 1.34742 0
M  V30 261 C 26.2256 -4.21768 -0.4808 0
M  V30 262 C 24.1326 -5.77467 1.27614 0
M  V30 263 H 23.0626 -0.753979 0.00565033 0
M  V30 264 H 25.7136 -1.69616 0.70018 0
M  V30 265 H 24.0956 -3.88911 -0.745961 0
M  V30 266 H 25.2696 -4.09893 2.10534 0
M  V30 267 H 23.5846 -3.77358 1.76039 0
M  V30 268 H 26.1816 -5.31838 -0.55246 0
M  V30 269 H 26.5246 -3.88651 -1.49184 0
M  V30 270 H 27.0576 -3.97273 0.204752 0
M  V30 271 H 23.7966 -6.15196 2.26304 0
M  V30 272 H 23.3166 -5.9718 0.55996 0
M  V30 273 H 24.9956 -6.3959 0.976421 0
M  V30 274 N 25.1277 -0.289203 -1.54924 0
M  V30 275 C 26.4047 0.376032 -1.91951 0
M  V30 276 C 26.7847 1.72622 -1.21511 0
M  V30 277 O 26.1327 2.25853 -0.346767 0
M  V30 278 C 26.3427 0.502378 -3.45365 0
M  V30 279 C 27.6907 0.778741 -4.17398 0
M  V30 280 O 28.7147 0.586647 -3.51336 0
M  V30 281 O 27.5737 1.14698 -5.34328 0
M  V30 282 H 24.6677 0.208167 -0.800372 0
M  V30 283 H 27.2137 -0.336394 -1.66332 0
M  V30 284 H 25.9857 -0.447255 -3.88736 0
M  V30 285 H 25.6087 1.26373 -3.76982 0
M  V30 286 N 26.6058 1.57591 -0.0167156 0
M  V30 287 C 27.8548 1.90461 0.663877 0
M  V30 288 C 28.1678 0.893515 1.73999 0
M  V30 289 O 29.3738 1.11302 2.47637 0
M  V30 290 C 27.8298 3.38155 1.23204 0
M  V30 291 C 27.4378 4.47597 0.189866 0
M  V30 292 C 29.1818 3.80111 1.88986 0
M  V30 293 C 27.0888 5.86379 0.768964 0
M  V30 294 H 26.0188 0.710738 0.251729 0
M  V30 295 H 28.6698 1.83326 -0.0799926 0
M  V30 296 H 27.0518 3.40182 2.02712 0
M  V30 297 H 28.2258 4.57112 -0.581846 0
M  V30 298 H 26.5408 4.14766 -0.368475 0
M  V30 299 H 29.1378 4.81145 2.33247 0
M  V30 300 H 29.4808 3.14511 2.72743 0
M  V30 301 H 30.0138 3.80454 1.16187 0
M  V30 302 H 26.7528 6.55493 -0.0301957 0
M  V30 303 H 26.2728 5.80496 1.50945 0
M  V30 304 H 27.9518 6.34563 1.26251 0
M  V30 305 N 28.0839 -0.256276 1.55502 0
M  V30 306 C 29.3319 -0.983672 1.76545 0
M  V30 307 C 29.6529 -1.86206 0.578982 0
M  V30 308 O 28.9229 -1.91656 -0.405577 0
M  V30 309 H 27.5029 -0.366191 0.651086 0
M  V30 310 H 30.1649 -0.276479 1.92929 0
M  V30 311 H 29.2609 -1.61087 2.67315 0
M  V30 312 N 29.562 -1.4872 -0.521534 0
M  V30 313 C 30.81 -1.56857 -1.27437 0
M  V30 314 C 31.131 -0.247982 -1.93417 0
M  V30 315 O 30.401 0.731151 -1.81744 0
M  V30 316 H 28.981 -0.577885 -0.473347 0
M  V30 317 H 31.643 -1.85233 -0.606205 0
M  V30 318 H 30.739 -2.35402 -2.0492 0
M  V30 319 N 31.0401 0.771051 -1.3745 0
M  V30 320 C 32.2681 1.56015 -1.35893 0
M  V30 321 C 32.6831 1.88718 0.0555523 0
M  V30 322 O 32.0401 1.51502 1.01752 0
M  V30 323 C 32.0911 2.87001 -2.19801 0
M  V30 324 O 31.8121 2.557 -3.55738 0
M  V30 325 C 33.3131 3.81228 -2.26231 0
M  V30 326 H 30.5331 0.483317 -0.465453 0
M  V30 327 H 33.0771 0.955611 -1.80799 0
M  V30 328 H 31.2321 3.43877 -1.78402 0
M  V30 329 H 31.6461 3.39584 -3.99729 0
M  V30 330 H 33.1201 4.70139 -2.89263 0
M  V30 331 H 33.5971 4.20409 -1.27093 0
M  V30 332 H 34.2031 3.30281 -2.67945 0
M  V30 333 N 32.5182 1.22032 0.997298 0
M  V30 334 C 33.7662 1.04016 1.73278 0
M  V30 335 C 34.0872 -0.426255 1.90284 0
M  V30 336 O 33.3572 -1.30694 1.45931 0
M  V30 337 H 31.9372 0.381897 0.642 0
M  V30 338 H 34.5992 1.5347 1.20137 0
M  V30 339 H 33.6952 1.51441 2.72896 0
M  V30 340 N 33.9963 -1.19345 1.0293 0
M  V30 341 C 35.2453 -1.88363 0.721256 0
M  V30 342 C 35.5583 -1.80514 -0.753254 0
M  V30 343 O 36.7643 -2.44788 -1.17436 0
M  V30 344 C 35.2203 -3.37872 1.23978 0
M  V30 345 C 34.8283 -3.54278 2.74211 0
M  V30 346 C 36.5723 -4.12365 1.00775 0
M  V30 347 C 34.4793 -4.97682 3.19479 0
M  V30 348 H 33.4093 -0.705484 0.266098 0
M  V30 349 H 36.0603 -1.34928 1.24365 0
M  V30 350 H 34.4423 -3.90707 0.6453 0
M  V30 351 H 35.6163 -3.11769 3.39318 0
M  V30 352 H 33.9313 -2.93174 2.95699 0
M  V30 353 H 36.5283 -5.18119 1.32123 0
M  V30 354 H 36.8713 -4.16263 -0.0554308 0
M  V30 355 H 37.4043 -3.65668 1.56625 0
M  V30 356 H 34.1433 -4.98945 4.25128 0
M  V30 357 H 33.6633 -5.4095 2.591 0
M  V30 358 H 35.3423 -5.66337 3.12845 0
M  V30 359 N 35.4744 -0.807222 -1.35358 0
M  V30 360 C 36.4214 -0.216037 -2.29787 0
M  V30 361 C 37.3914 0.650278 -1.52842 0
M  V30 362 O 38.5764 0.595227 -1.81278 0
M  V30 363 C 35.7164 0.628893 -3.39321 0
M  V30 364 C 34.8294 -0.257927 -4.31229 0
M  V30 365 C 33.9644 0.595069 -5.27856 0
M  V30 366 C 33.0034 -0.292111 -6.11403 0
M  V30 367 N 32.1404 0.520895 -7.00165 0
M  V30 368 H 36.9804 -1.02671 -2.79755 0
M  V30 369 H 34.5174 -0.517839 -1.37684 0
M  V30 370 H 36.4754 1.13393 -4.01494 0
M  V30 371 H 35.1054 1.40482 -2.90628 0
M  V30 372 H 34.1574 -0.881076 -3.70056 0
M  V30 373 H 35.4694 -0.940759 -4.89848 0
M  V30 374 H 34.6234 1.16522 -5.95405 0
M  V30 375 H 33.3624 1.31146 -4.69736 0
M  V30 376 H 32.3674 -0.874525 -5.428 0
M  V30 377 H 33.5924 -1.00638 -6.71602 0
M  V30 378 H 31.5384 1.22125 -6.44532 0
M  V30 379 H 31.4554 -0.103877 -7.55929 0
M  V30 380 H 32.7234 1.0743 -7.72062 0
M  V30 381 N 36.9525 1.47285 -0.560781 0
M  V30 382 C 38.2005 2.02064 -0.0379868 0
M  V30 383 C 38.5215 1.43711 1.31803 0
M  V30 384 O 37.7915 0.61362 1.86042 0
M  V30 385 H 36.3715 0.746918 -0.0110531 0
M  V30 386 H 39.0335 1.80648 -0.731598 0
M  V30 387 H 38.1295 3.12064 0.0474463 0
M  V30 388 N 38.4306 0.297415 1.54768 0
M  V30 389 C 39.6786 -0.312295 1.99673 0
M  V30 390 C 39.9996 -1.54686 1.18732 0
M  V30 391 O 39.2696 -1.93854 0.282382 0
M  V30 392 H 37.8496 -0.118381 0.73756 0
M  V30 393 H 40.5116 0.407915 1.90583 0
M  V30 394 H 39.6076 -0.586813 3.06534 0
M  V30 395 N 39.9087 -1.5758 0.0250728 0
M  V30 396 C 41.1577 -1.90811 -0.653767 0
M  V30 397 C 41.4707 -0.90273 -1.73523 0
M  V30 398 O 42.6767 -1.12614 -2.47043 0
M  V30 399 C 41.1327 -3.38804 -1.21409 0
M  V30 400 C 40.7407 -4.47692 -0.166126 0
M  V30 401 C 42.4847 -3.81108 -1.86967 0
M  V30 402 C 40.3917 -5.86779 -0.737856 0
M  V30 403 H 39.3217 -0.712063 -0.247956 0
M  V30 404 H 41.9727 -1.83281 0.0897137 0
M  V30 405 H 40.3547 -3.41252 -2.00905 0
M  V30 406 H 41.5287 -4.56797 0.606079 0
M  V30 407 H 39.8437 -4.14565 0.390466 0
M  V30 408 H 42.4407 -4.82375 -2.30692 0
M  V30 409 H 42.7837 -3.15953 -2.71071 0
M  V30 410 H 43.3167 -3.81065 -1.14167 0
M  V30 411 H 40.0557 -6.55468 0.0649577 0
M  V30 412 H 39.5757 -5.81288 -1.47864 0
M  V30 413 H 41.2547 -6.35223 -1.22884 0
M  V30 414 N 41.3868 0.248026 -1.55636 0
M  V30 415 C 42.6328 0.97767 -1.77678 0
M  V30 416 C 42.9658 1.85016 -0.590135 0
M  V30 417 O 42.2408 1.90095 0.411611 0
M  V30 418 C 42.5238 1.83914 -3.09593 0
M  V30 419 C 42.3768 0.99491 -4.38659 0
M  V30 420 C 43.6958 2.82183 -3.37729 0
M  V30 421 H 40.8148 0.354005 -0.646413 0
M  V30 422 H 43.4568 0.248253 -1.88371 0
M  V30 423 H 41.6068 2.46104 -3.00608 0
M  V30 424 H 43.2788 0.391789 -4.59633 0
M  V30 425 H 41.5218 0.299231 -4.32767 0
M  V30 426 H 42.1928 1.63145 -5.2734 0
M  V30 427 H 44.6688 2.30129 -3.4667 0
M  V30 428 H 43.5448 3.39582 -4.31249 0
M  V30 429 H 43.8058 3.58588 -2.58586 0
M  V30 430 N 42.8649 1.48995 0.513639 0
M  V30 431 C 44.1419 1.48338 1.27495 0
M  V30 432 C 44.5219 0.204065 2.10111 0
M  V30 433 O 43.8699 -0.813881 2.13514 0
M  V30 434 C 44.0799 2.75498 2.14247 0
M  V30 435 C 45.4279 3.24484 2.73852 0
M  V30 436 O 46.4519 2.76528 2.24523 0
M  V30 437 O 45.3109 4.07974 3.6362 0
M  V30 438 H 42.4049 0.593149 0.576284 0
M  V30 439 H 44.9509 1.61246 0.528948 0
M  V30 440 H 43.7229 3.60109 1.53092 0
M  V30 441 H 43.3459 2.6539 2.96064 0
M  V30 442 N 44.343 -0.763751 1.37857 0
M  V30 443 C 45.273 -1.89103 1.36975 0
M  V30 444 C 46.254 -1.68439 0.237152 0
M  V30 445 O 47.439 -1.8918 0.438713 0
M  V30 446 C 44.569 -3.26496 1.18395 0
M  V30 447 C 43.523 -3.61741 2.28751 0
M  V30 448 C 42.849 -4.97762 1.95286 0
M  V30 449 C 44.149 -3.67665 3.70972 0
M  V30 450 H 45.843 -1.90099 2.31307 0
M  V30 451 H 43.389 -0.91319 1.11341 0
M  V30 452 H 45.342 -4.05003 1.16406 0
M  V30 453 H 44.066 -3.25955 0.205215 0
M  V30 454 H 42.725 -2.85547 2.29909 0
M  V30 455 H 42.373 -4.93769 0.959221 0
M  V30 456 H 42.073 -5.22313 2.69189 0
M  V30 457 H 43.597 -5.7866 1.94898 0
M  V30 458 H 45.011 -4.36307 3.719 0
M  V30 459 H 43.408 -4.03718 4.43995 0
M  V30 460 H 44.478 -2.68134 4.0402 0
M  V30 461 N 45.8211 -1.22559 -0.990812 0
M  V30 462 C 46.7681 -0.997519 -2.0813 0
M  V30 463 C 47.7381 0.0814702 -1.659 0
M  V30 464 O 48.9231 -0.0685424 -1.90677 0
M  V30 465 C 46.0631 -0.583615 -3.40129 0
M  V30 466 C 45.1761 -1.7336 -3.9569 0
M  V30 467 C 44.3111 -1.26748 -5.15857 0
M  V30 468 C 43.3501 -2.38888 -5.63559 0
M  V30 469 N 42.4871 -1.93308 -6.74964 0
M  V30 470 H 47.3271 -1.93099 -2.26973 0
M  V30 471 H 44.8641 -0.962114 -1.11273 0
M  V30 472 H 46.8221 -0.324801 -4.15934 0
M  V30 473 H 45.4521 0.312845 -3.2128 0
M  V30 474 H 44.5041 -2.10669 -3.16738 0
M  V30 475 H 45.8161 -2.57704 -4.27071 0
M  V30 476 H 44.9701 -0.966173 -5.98957 0
M  V30 477 H 43.7091 -0.394272 -4.86104 0
M  V30 478 H 42.7141 -2.69805 -4.79046 0
M  V30 479 H 43.9391 -3.26728 -5.95336 0
M  V30 480 H 41.8851 -1.08352 -6.4699 0
M  V30 481 H 41.8021 -2.71217 -7.05675 0
M  V30 482 H 43.0701 -1.66252 -7.61564 0
M  V30 483 N 47.2992 1.18797 -1.03562 0
M  V30 484 C 48.2462 2.22253 -0.622259 0
M  V30 485 C 49.2162 1.61987 0.36736 0
M  V30 486 O 50.4012 1.88986 0.262492 0
M  V30 487 C 47.5412 3.45097 0.0138462 0
M  V30 488 C 46.6542 4.19722 -1.02263 0
M  V30 489 C 45.7892 5.30009 -0.355573 0
M  V30 490 C 44.8282 5.96399 -1.37749 0
M  V30 491 N 43.9652 6.98234 -0.735766 0
M  V30 492 H 48.8052 2.56968 -1.50903 0
M  V30 493 H 46.3422 1.26245 -0.755017 0
M  V30 494 H 48.3002 4.15279 0.399948 0
M  V30 495 H 46.9302 3.11018 0.864158 0
M  V30 496 H 45.9822 3.48418 -1.52673 0
M  V30 497 H 47.2942 4.65227 -1.79903 0
M  V30 498 H 46.4482 6.0664 0.0850095 0
M  V30 499 H 45.1872 4.85592 0.452967 0
M  V30 500 H 44.1922 5.18512 -1.82826 0
M  V30 501 H 45.4172 6.42899 -2.18764 0
M  V30 502 H 43.3632 6.55979 0.0525597 0
M  V30 503 H 43.2802 7.41965 -1.44995 0
M  V30 504 H 44.5482 7.78845 -0.31941 0
M  V30 505 N 48.7773 0.814389 1.34928 0
M  V30 506 C 50.0253 0.397636 1.9815 0
M  V30 507 C 50.3463 -1.04069 1.64908 0
M  V30 508 O 49.6163 -1.72121 0.93548 0
M  V30 509 H 48.1963 0.144043 0.732981 0
M  V30 510 H 50.8583 1.04195 1.6471 0
M  V30 511 H 49.9543 0.509688 3.0791 0
M  V30 512 N 50.2554 -1.46986 0.568584 0
M  V30 513 C 51.2024 -2.30153 -0.172707 0
M  V30 514 C 52.1724 -1.39759 -0.897586 0
M  V30 515 O 53.3574 -1.68716 -0.891044 0
M  V30 516 C 50.4974 -3.23952 -1.1895 0
M  V30 517 C 49.6104 -4.29441 -0.469517 0
M  V30 518 C 48.7454 -5.1038 -1.47259 0
M  V30 519 C 47.7844 -6.07632 -0.738225 0
M  V30 520 N 46.9214 -6.8149 -1.68868 0
M  V30 521 H 51.7614 -2.93019 0.542596 0
M  V30 522 H 49.2984 -1.44422 0.279401 0
M  V30 523 H 51.2564 -3.76767 -1.79173 0
M  V30 524 H 49.8864 -2.62926 -1.87269 0
M  V30 525 H 48.9384 -3.79594 0.247467 0
M  V30 526 H 50.2504 -4.98689 0.105241 0
M  V30 527 H 49.4044 -5.67402 -2.14803 0
M  V30 528 H 48.1434 -4.4106 -2.08128 0
M  V30 529 H 47.1484 -5.49778 -0.0489293 0
M  V30 530 H 48.3734 -6.78966 -0.135129 0
M  V30 531 H 46.3194 -6.14891 -2.28573 0
M  V30 532 H 46.2364 -7.46948 -1.16636 0
M  V30 533 H 47.5044 -7.43078 -2.3549 0
M  V30 534 N 51.7335 -0.305618 -1.54608 0
M  V30 535 C 52.6635 0.561482 -2.26649 0
M  V30 536 C 53.6445 1.13415 -1.26772 0
M  V30 537 O 54.8295 1.16262 -1.55553 0
M  V30 538 C 51.9595 1.73122 -3.01075 0
M  V30 539 C 50.9135 1.2887 -4.08138 0
M  V30 540 C 50.2395 2.54396 -4.70305 0
M  V30 541 C 51.5395 0.416578 -5.20636 0
M  V30 542 H 53.2335 -0.0393902 -2.99374 0
M  V30 543 H 50.7795 -0.020385 -1.43986 0
M  V30 544 H 52.7325 2.34396 -3.50195 0
M  V30 545 H 51.4565 2.3584 -2.25936 0
M  V30 546 H 50.1155 0.698991 -3.59875 0
M  V30 547 H 49.7635 3.15439 -3.918 0
M  V30 548 H 49.4635 2.25486 -5.42614 0
M  V30 549 H 50.9875 3.16464 -5.2219 0
M  V30 550 H 52.4015 0.935116 -5.65622 0
M  V30 551 H 50.7985 0.221046 -5.99693 0
M  V30 552 H 51.8685 -0.557162 -4.81688 0
M  V30 553 N 53.2116 1.57565 -0.0334293 0
M  V30 554 C 54.1416 2.13511 0.945265 0
M  V30 555 C 55.1226 1.05231 1.33643 0
M  V30 556 O 56.3076 1.33084 1.41429 0
M  V30 557 C 53.4376 2.6657 2.22616 0
M  V30 558 C 52.3916 3.79676 1.97561 0
M  V30 559 C 51.7176 4.1918 3.31952 0
M  V30 560 C 53.0176 5.0557 1.31135 0
M  V30 561 H 54.7116 2.95538 0.479325 0
M  V30 562 H 52.2576 1.42166 0.229115 0
M  V30 563 H 54.2106 3.04344 2.91466 0
M  V30 564 H 52.9346 1.8171 2.71384 0
M  V30 565 H 51.5936 3.42347 1.31127 0
M  V30 566 H 51.2416 3.31296 3.78487 0
M  V30 567 H 50.9416 4.95402 3.15992 0
M  V30 568 H 52.4656 4.59541 4.02063 0
M  V30 569 H 53.8796 5.40903 1.89992 0
M  V30 570 H 52.2766 5.86818 1.25559 0
M  V30 571 H 53.3466 4.84062 0.284894 0
M  V30 572 N 54.6897 -0.239769 1.55765 0
M  V30 573 C 55.9377 -0.964892 1.77579 0
M  V30 574 C 56.2587 -1.85582 0.598699 0
M  V30 575 O 55.5287 -1.92075 -0.385226 0
M  V30 576 H 54.1087 -0.359265 0.654933 0
M  V30 577 H 56.7707 -0.256001 1.93211 0
M  V30 578 H 55.8667 -1.58243 2.69009 0
M  V30 579 N 56.1678 -1.49265 -0.50573 0
M  V30 580 C 57.0778 -1.68312 -1.63427 0
M  V30 581 C 58.0938 -0.565682 -1.64548 0
M  V30 582 O 59.2698 -0.839801 -1.83055 0
M  V30 583 C 56.3348 -1.74107 -2.99813 0
M  V30 584 C 55.3958 -2.97653 -3.09356 0
M  V30 585 C 54.6288 -3.03163 -4.39236 0
M  V30 586 O 54.8518 -2.16396 -5.27758 0
M  V30 587 O 53.7858 -3.9558 -4.53652 0
M  V30 588 H 57.6118 -2.63907 -1.50289 0
M  V30 589 H 55.1968 -1.32951 -0.681502 0
M  V30 590 H 57.0788 -1.803 -3.80881 0
M  V30 591 H 55.7538 -0.816901 -3.13223 0
M  V30 592 H 54.6608 -2.96981 -2.27493 0
M  V30 593 H 55.9938 -3.89535 -3.00871 0
M  V30 594 N 57.6459 0.756429 -1.3826 0
M  V30 595 C 59.0619 1.0591 -1.19395 0
M  V30 596 C 59.2619 2.01459 -0.0406567 0
M  V30 597 O 58.3179 2.44909 0.614467 0
M  V30 598 C 59.6309 1.64191 -2.51916 0
M  V30 599 C 61.1789 1.76376 -2.58574 0
M  V30 600 C 61.6539 2.38069 -3.91264 0
M  V30 601 N 63.1449 2.45503 -3.92788 0
M  V30 602 C 63.8799 2.94126 -4.92217 0
M  V30 603 N 63.3759 3.42805 -6.02043 0
M  V30 604 N 65.1689 2.9314 -4.7961 0
M  V30 605 H 57.3199 0.122313 -2.12048 0
M  V30 606 H 59.5829 0.116892 -0.940766 0
M  V30 607 H 59.2889 1.01451 -3.3675 0
M  V30 608 H 59.1629 2.6329 -2.70108 0
M  V30 609 H 61.5499 2.38244 -1.74137 0
M  V30 610 H 61.6309 0.759894 -2.44252 0
M  V30 611 H 61.2749 1.76835 -4.76121 0
M  V30 612 H 61.2049 3.39091 -4.02895 0
M  V30 613 H 63.6959 2.1107 -3.13461 0
M  V30 614 H 64.0089 3.78354 -6.73846 0
M  V30 615 H 62.3539 3.4087 -6.05667 0
M  V30 616 H 65.5449 2.54419 -3.92923 0
M  V30 617 H 65.7179 3.30721 -5.5725 0
M  V30 618 N 59.124 1.23083 0.984299 0
M  V30 619 C 60.371 1.06057 1.72505 0
M  V30 620 C 60.699 -0.403105 1.90277 0
M  V30 621 O 59.954 -1.3149 1.44944 0
M  V30 622 C 60.253 1.72673 3.1292 0
M  V30 623 C 59.919 3.22586 3.15038 0
M  V30 624 C 58.581 3.63489 3.15324 0
M  V30 625 C 60.933 4.185 3.10657 0
M  V30 626 C 58.261 4.98772 3.08939 0
M  V30 627 C 60.613 5.53769 3.05814 0
M  V30 628 C 59.277 5.94041 3.04419 0
M  V30 629 H 58.547 0.388091 0.631242 0
M  V30 630 H 61.194 1.52963 1.15215 0
M  V30 631 H 59.499 1.18116 3.73572 0
M  V30 632 H 61.196 1.56982 3.68996 0
M  V30 633 H 57.786 2.90022 3.15571 0
M  V30 634 H 61.97 3.87911 3.09579 0
M  V30 635 H 57.226 5.29193 3.0621 0
M  V30 636 H 61.4 6.27808 3.0138 0
M  V30 637 H 59.027 6.98833 2.99227 0
M  V30 638 N 60.6021 -1.18246 1.0419 0
M  V30 639 C 62.0181 -1.40269 0.761366 0
M  V30 640 C 62.2181 -1.90777 -0.648578 0
M  V30 641 O 61.2741 -2.0929 -1.41258 0
M  V30 642 C 62.5871 -2.40237 1.8085 0
M  V30 643 C 64.1351 -2.53961 1.82955 0
M  V30 644 C 64.6101 -3.57194 2.86664 0
M  V30 645 N 66.1011 -3.64702 2.85563 0
M  V30 646 C 66.8361 -4.44309 3.6246 0
M  V30 647 N 66.3321 -5.27514 4.49111 0
M  V30 648 N 68.1251 -4.39084 3.50944 0
M  V30 649 H 60.2761 -0.837882 1.95175 0
M  V30 650 H 62.5391 -0.430608 0.84456 0
M  V30 651 H 62.2451 -2.10176 2.81991 0
M  V30 652 H 62.1191 -3.39601 1.64168 0
M  V30 653 H 64.5061 -2.83338 0.824855 0
M  V30 654 H 64.5871 -1.54706 2.03715 0
M  V30 655 H 64.2311 -3.28558 3.87314 0
M  V30 656 H 64.1611 -4.5613 2.6316 0
M  V30 657 H 66.6521 -3.05289 2.22727 0
M  V30 658 H 66.9651 -5.85411 5.04493 0
M  V30 659 H 65.3101 -5.2693 4.53178 0
M  V30 660 H 68.5011 -3.7313 2.82651 0
M  V30 661 H 68.6741 -5.00883 4.11121 0
M  V30 662 N 62.0802 -0.821533 -1.34494 0
M  V30 663 C 63.3262 -0.409552 -1.98622 0
M  V30 664 C 63.6592 1.0244 -1.64984 0
M  V30 665 O 62.9342 1.71325 -0.920758 0
M  V30 666 C 63.2172 -0.610458 -3.54888 0
M  V30 667 C 63.0702 -2.09043 -3.98273 0
M  V30 668 C 64.3892 -0.0455379 -4.40076 0
M  V30 669 H 61.5082 -0.15028 -0.721516 0
M  V30 670 H 64.1502 -1.03384 -1.59411 0
M  V30 671 H 62.3002 -0.079044 -3.8842 0
M  V30 672 H 63.9722 -2.68537 -3.75081 0
M  V30 673 H 62.2152 -2.58139 -3.48635 0
M  V30 674 H 62.8862 -2.18182 -5.07051 0
M  V30 675 H 65.3622 -0.499557 -4.1309 0
M  V30 676 H 64.2382 -0.215922 -5.48475 0
M  V30 677 H 64.4992 1.04939 -4.29465 0
M  V30 678 N 63.5583 1.46682 -0.576371 0
M  V30 679 C 64.9693 1.86112 -0.148091 0
M  V30 680 C 65.3203 1.48073 1.2872 0
M  V30 681 O 64.4453 0.892656 1.97131 0
M  V30 682 C 65.0403 3.37786 -0.261982 0
M  V30 683 C 63.5993 3.76235 0.111384 0
M  V30 684 C 62.7463 2.70713 -0.60083 0
M  V30 685 H 65.6973 1.37927 -0.78497 0
M  V30 686 H 65.7183 3.77007 0.514364 0
M  V30 687 H 65.2303 3.6544 -1.30671 0
M  V30 688 H 63.3313 3.54198 1.15649 0
M  V30 689 H 63.4443 4.78391 -0.26052 0
M  V30 690 H 61.8083 2.54666 -0.0417783 0
M  V30 691 H 62.5913 3.01208 -1.64708 0
M  V30 692 N 65.0364 0.313813 1.54444 0
M  V30 693 C 66.2644 -0.293918 2.04802 0
M  V30 694 C 66.6794 -1.46537 1.19047 0
M  V30 695 O 66.0364 -1.81182 0.218939 0
M  V30 696 C 66.0874 -0.737806 3.53891 0
M  V30 697 O 65.8084 0.387038 4.36387 0
M  V30 698 C 67.3094 -1.40936 4.203 0
M  V30 699 H 64.5294 -0.0620057 0.668129 0
M  V30 700 H 67.0734 0.457169 1.99324 0
M  V30 701 H 65.2284 -1.43889 3.59687 0
M  V30 702 H 65.6424 0.0391274 5.24485 0
M  V30 703 H 67.1164 -1.67099 5.26101 0
M  V30 704 H 67.5934 -2.35355 3.70816 0
M  V30 705 H 68.1994 -0.751117 4.18615 0
M  V30 706 N 66.5145 -1.57545 0.0417849 0
M  V30 707 C 67.9255 -1.80011 -0.495259 0
M  V30 708 C 68.2765 -0.953199 -1.71489 0
M  V30 709 O 67.4015 -0.167138 -2.15754 0
M  V30 710 C 67.9965 -3.26482 -0.905265 0
M  V30 711 C 66.5555 -3.499 -1.38734 0
M  V30 712 C 65.7025 -2.74979 -0.358056 0
M  V30 713 H 68.6535 -1.56425 0.267736 0
M  V30 714 H 68.6745 -3.36887 -1.76882 0
M  V30 715 H 68.1865 -3.88096 -0.017401 0
M  V30 716 H 66.2875 -2.93553 -2.29471 0
M  V30 717 H 66.4005 -4.58615 -1.38598 0
M  V30 718 H 64.7645 -2.40834 -0.828912 0
M  V30 719 H 65.5475 -3.39315 0.521561 0
M  V30 720 N 67.9926 0.231505 -1.5589 0
M  V30 721 C 68.9246 1.31006 -1.8807 0
M  V30 722 C 69.9376 1.43539 -0.768145 0
M  V30 723 O 71.1266 1.44614 -1.04638 0
M  V30 724 C 68.2266 2.68688 -2.06543 0
M  V30 725 C 67.3996 2.78228 -3.37502 0
M  V30 726 C 66.4586 3.96857 -3.4553 0
M  V30 727 O 65.4846 3.85662 -4.18633 0
M  V30 728 N 66.6866 5.1072 -2.75944 0
M  V30 729 H 69.4516 1.03731 -2.81176 0
M  V30 730 H 67.0126 0.421573 -1.56315 0
M  V30 731 H 69.0046 3.46412 -2.09239 0
M  V30 732 H 67.5746 2.88605 -1.20109 0
M  V30 733 H 66.7946 1.87059 -3.46991 0
M  V30 734 H 68.0826 2.81564 -4.23791 0
M  V30 735 H 67.4806 5.2271 -2.16311 0
M  V30 736 H 66.0376 5.86523 -2.84314 0
M  V30 737 N 69.4707 1.49531 0.497807 0
M  V30 738 C 70.8817 1.52344 1.07927 0
M  V30 739 C 71.2327 0.311469 1.93712 0
M  V30 740 O 70.3577 -0.578405 2.08527 0
M  V30 741 C 70.9527 2.76062 1.96405 0
M  V30 742 C 69.5117 2.81643 2.49709 0
M  V30 743 C 68.6587 2.46299 1.27404 0
M  V30 744 H 71.6097 1.56182 0.281576 0
M  V30 745 H 71.6307 2.56405 2.81135 0
M  V30 746 H 71.1427 3.64254 1.33943 0
M  V30 747 H 69.2437 1.97739 3.15801 0
M  V30 748 H 69.3567 3.83891 2.86643 0
M  V30 749 H 67.7207 1.98148 1.60029 0
M  V30 750 H 68.5037 3.36769 0.66645 0
M  V30 751 N 70.9488 -0.749086 1.3866 0
M  V30 752 C 71.9118 -1.84457 1.36045 0
M  V30 753 C 72.9118 -1.58682 0.260122 0
M  V30 754 O 74.1018 -1.66343 0.517261 0
M  V30 755 C 71.2338 -3.22008 1.11911 0
M  V30 756 H 72.4268 -1.88182 2.33512 0
M  V30 757 H 69.9798 -0.951266 1.24019 0
M  V30 758 H 70.7148 -3.2395 0.150686 0
M  V30 759 H 70.4998 -3.42111 1.91579 0
M  V30 760 H 71.9898 -4.0208 1.12788 0
M  V30 761 N 72.4269 -1.23603 -0.977757 0
M  V30 762 C 73.6549 -1.09646 -1.75458 0
M  V30 763 C 74.0699 0.351859 -1.85492 0
M  V30 764 O 73.4269 1.24327 -1.336 0
M  V30 765 C 73.4779 -1.71895 -3.18016 0
M  V30 766 O 73.1989 -3.11063 -3.08498 0
M  V30 767 C 74.6999 -1.63415 -4.12081 0
M  V30 768 H 71.9199 -0.38359 -0.550545 0
M  V30 769 H 74.4639 -1.63507 -1.22824 0
M  V30 770 H 72.6189 -1.22061 -3.67668 0
M  V30 771 H 73.0329 -3.41305 -3.9826 0
M  V30 772 H 74.5069 -2.11669 -5.09804 0
M  V30 773 H 74.9839 -0.593462 -4.35172 0
M  V30 774 H 75.5899 -2.12628 -3.68334 0
M  V30 775 N 73.905 1.17692 -1.04816 0
M  V30 776 C 75.316 1.69501 -0.782698 0
M  V30 777 C 75.667 1.83456 0.695577 0
M  V30 778 O 74.792 1.51942 1.54086 0
M  V30 779 C 75.387 3.07874 -1.41419 0
M  V30 780 C 73.946 3.56864 -1.19686 0
M  V30 781 C 73.093 2.3322 -1.50012 0
M  V30 782 H 76.044 1.02262 -1.2136 0
M  V30 783 H 76.065 3.71528 -0.821428 0
M  V30 784 H 75.577 2.97685 -2.49009 0
M  V30 785 H 73.678 3.72337 -0.140043 0
M  V30 786 H 73.791 4.39851 -1.89916 0
M  V30 787 H 72.155 2.37501 -0.920071 0
M  V30 788 H 72.938 2.25644 -2.58727 0
M  V30 789 N 75.3831 0.828654 1.34056 0
M  V30 790 C 76.2931 0.256725 2.33191 0
M  V30 791 C 77.3091 -0.611898 1.62886 0
M  V30 792 O 78.4851 -0.51844 1.94613 0
M  V30 793 C 75.5501 -0.567238 3.42028 0
M  V30 794 C 74.6111 0.324458 4.28072 0
M  V30 795 C 73.8441 -0.460274 5.31712 0
M  V30 796 O 74.0671 -1.693 5.44696 0
M  V30 797 O 73.0011 0.160391 6.01686 0
M  V30 798 H 76.8271 1.07739 2.83947 0
M  V30 799 H 74.4121 0.59093 1.37217 0
M  V30 800 H 76.2941 -1.03582 4.08471 0
M  V30 801 H 74.9691 -1.36513 2.93506 0
M  V30 802 H 73.8761 0.840659 3.64532 0
M  V30 803 H 75.2091 1.08685 4.8005 0
M  V30 804 N 76.8612 -1.46375 0.584142 0
M  V30 805 C 78.0862 -2.07268 0.0740405 0
M  V30 806 C 78.5112 -1.42979 -1.22223 0
M  V30 807 O 77.8692 -0.514092 -1.73859 0
M  V30 808 C 77.9172 -3.60518 -0.0767769 0
M  V30 809 O 77.0212 -3.96533 -1.13292 0
M  V30 810 H 76.3622 -0.660961 0.0634524 0
M  V30 811 H 78.8922 -1.87991 0.807492 0
M  V30 812 H 78.9022 -4.07021 -0.282489 0
M  V30 813 H 77.5772 -4.06702 0.86986 0
M  V30 814 H 76.1542 -3.61738 -0.905553 0
M  V30 815 N 78.3393 -0.321999 -1.54275 0
M  V30 816 C 79.5853 0.281461 -2.00837 0
M  V30 817 C 79.9183 1.51909 -1.20985 0
M  V30 818 O 79.1933 1.923 -0.291733 0
M  V30 819 C 79.4763 0.617162 -3.54772 0
M  V30 820 C 79.3293 -0.631064 -4.45351 0
M  V30 821 C 80.6483 1.43542 -4.16033 0
M  V30 822 H 77.7673 0.100826 -0.730071 0
M  V30 823 H 80.4093 -0.438268 -1.84876 0
M  V30 824 H 78.5593 1.23034 -3.68504 0
M  V30 825 H 80.2313 -1.26934 -4.43492 0
M  V30 826 H 78.4743 -1.26025 -4.15091 0
M  V30 827 H 79.1453 -0.351735 -5.50878 0
M  V30 828 H 81.6213 0.917134 -4.05867 0
M  V30 829 H 80.4973 1.63907 -5.23856 0
M  V30 830 H 80.7583 2.43108 -3.69257 0
M  V30 831 N 79.8174 1.5752 -0.0501392 0
M  V30 832 C 80.7804 2.1037 0.909786 0
M  V30 833 C 81.7804 1.02308 1.24056 0
M  V30 834 O 82.9704 1.28385 1.17741 0
M  V30 835 C 80.1024 2.58708 2.21998 0
M  V30 836 H 81.2954 2.96479 0.451665 0
M  V30 837 H 78.8484 1.55038 0.198248 0
M  V30 838 H 79.5834 1.75989 2.72394 0
M  V30 839 H 79.3684 3.37675 1.99295 0
M  V30 840 H 80.8584 2.99747 2.9076 0
M  V30 841 N 81.2955 -0.223234 1.56011 0
M  V30 842 C 82.2055 -1.29766 1.95443 0
M  V30 843 C 83.2215 -1.51373 0.858028 0
M  V30 844 O 84.3975 -1.64536 1.16146 0
M  V30 845 C 81.4625 -2.62772 2.26167 0
M  V30 846 C 80.5235 -2.49482 3.49367 0
M  V30 847 C 79.7565 -3.76145 3.78616 0
M  V30 848 O 79.9795 -4.79087 3.09568 0
M  V30 849 O 78.9135 -3.73358 4.72109 0
M  V30 850 H 82.7395 -0.99309 2.87004 0
M  V30 851 H 80.3245 -0.425958 1.43199 0
M  V30 852 H 82.2065 -3.41327 2.47131 0
M  V30 853 H 80.8815 -2.92913 1.37781 0
M  V30 854 H 79.7885 -1.69133 3.33684 0
M  V30 855 H 81.1215 -2.2428 4.38131 0
M  V30 856 N 82.7736 -1.49793 -0.48987 0
M  V30 857 C 83.7366 -1.66752 -1.57246 0
M  V30 858 C 84.7366 -0.538867 -1.51502 0
M  V30 859 O 85.9266 -0.805545 -1.54456 0
M  V30 860 C 83.0586 -1.67528 -2.96896 0
M  V30 861 H 84.2516 -2.63321 -1.43534 0
M  V30 862 H 81.8046 -1.38992 -0.714914 0
M  V30 863 H 82.5396 -0.725837 -3.16073 0
M  V30 864 H 82.3246 -2.49504 -3.02473 0
M  V30 865 H 83.8146 -1.82667 -3.7553 0
M  V30 866 N 84.2517 0.741722 -1.39055 0
M  V30 867 C 85.4977 1.50336 -1.36113 0
M  V30 868 C 85.8307 1.94148 0.0450796 0
M  V30 869 O 85.1057 1.66301 1.00868 0
M  V30 870 C 85.3887 2.74773 -2.32749 0
M  V30 871 C 85.2417 2.37023 -3.82283 0
M  V30 872 C 86.5607 3.76846 -2.27322 0
M  V30 873 H 83.6797 0.545351 -0.495743 0
M  V30 874 H 86.3217 0.848624 -1.69995 0
M  V30 875 H 84.4717 3.30639 -2.03986 0
M  V30 876 H 86.1437 1.8684 -4.21768 0
M  V30 877 H 84.3867 1.69334 -3.99385 0
M  V30 878 H 85.0577 3.26104 -4.45376 0
M  V30 879 H 87.5337 3.30548 -2.5274 0
M  V30 880 H 86.4097 4.6159 -2.97028 0
M  V30 881 H 86.6707 4.23286 -1.27599 0
M  V30 882 N 85.7298 1.2412 0.971189 0
M  V30 883 C 86.6928 1.03156 2.04674 0
M  V30 884 C 87.6928 -0.00990322 1.60797 0
M  V30 885 O 88.8828 0.230729 1.72665 0
M  V30 886 C 86.0148 0.562765 3.36223 0
M  V30 887 H 87.2078 1.98614 2.24705 0
M  V30 888 H 84.7608 1.06293 1.14593 0
M  V30 889 H 85.4958 -0.395176 3.21883 0
M  V30 890 H 85.2808 1.31441 3.69413 0
M  V30 891 H 86.7708 0.437015 4.15307 0
M  V30 892 N 87.2079 -1.17134 1.05439 0
M  V30 893 C 88.1379 -2.2342 0.678649 0
M  V30 894 C 89.1189 -1.66971 -0.32476 0
M  V30 895 O 90.3039 -1.93149 -0.201802 0
M  V30 896 C 87.4339 -3.47256 0.0552099 0
M  V30 897 C 86.3879 -4.16543 0.98365 0
M  V30 898 C 85.7139 -5.34231 0.223961 0
M  V30 899 C 87.0139 -4.68495 2.3089 0
M  V30 900 H 88.7079 -2.55105 1.56722 0
M  V30 901 H 86.2539 -1.2262 0.754998 0
M  V30 902 H 88.2069 -4.20828 -0.21946 0
M  V30 903 H 86.9309 -3.14846 -0.868319 0
M  V30 904 H 85.5899 -3.44887 1.24293 0
M  V30 905 H 85.2379 -4.98071 -0.702412 0
M  V30 906 H 84.9379 -5.81527 0.842627 0
M  V30 907 H 86.4619 -6.10585 -0.0433671 0
M  V30 908 H 87.8759 -5.33691 2.09396 0
M  V30 909 H 86.2729 -5.26379 2.88176 0
M  V30 910 H 87.3429 -3.85169 2.94572 0
M  V30 911 N 88.686 -0.835752 -1.33615 0
M  V30 912 C 89.932 -0.430596 -1.98176 0
M  V30 913 C 90.265 1.00684 -1.66061 0
M  V30 914 O 89.54 1.70339 -0.938877 0
M  V30 915 C 89.823 -0.648065 -3.5422 0
M  V30 916 C 89.676 -2.13255 -3.96033 0
M  V30 917 C 90.995 -0.0922113 -4.40003 0
M  V30 918 H 88.114 -0.157924 -0.719881 0
M  V30 919 H 90.756 -1.05069 -1.58305 0
M  V30 920 H 88.906 -0.120237 -3.88314 0
M  V30 921 H 90.578 -2.725 -3.72211 0
M  V30 922 H 88.821 -2.61823 -3.45878 0
M  V30 923 H 89.492 -2.23547 -5.04708 0
M  V30 924 H 91.968 -0.543343 -4.12537 0
M  V30 925 H 90.844 -0.274083 -5.48215 0
M  V30 926 H 91.105 1.00378 -4.30554 0
M  V30 927 N 90.1641 1.46063 -0.591896 0
M  V30 928 C 91.4101 2.02638 -0.0811191 0
M  V30 929 C 91.7431 1.4613 1.27905 0
M  V30 930 O 91.0181 0.629908 1.84017 0
M  V30 931 C 91.3011 3.60091 -0.0252436 0
M  V30 932 C 91.1541 4.26965 -1.41496 0
M  V30 933 C 92.4731 4.3496 0.670685 0
M  V30 934 H 89.5921 0.73635 -0.0309524 0
M  V30 935 H 92.2341 1.741 -0.760859 0
M  V30 936 H 90.3841 3.84535 0.553624 0
M  V30 937 H 92.0561 4.13756 -2.0397 0
M  V30 938 H 90.2991 3.85971 -1.98011 0
M  V30 939 H 90.9701 5.35781 -1.32825 0
M  V30 940 H 93.4461 4.15716 0.178825 0
M  V30 941 H 92.3221 5.44686 0.678837 0
M  V30 942 H 92.5831 4.06685 1.73379 0
M  V30 943 N 91.6422 0.330177 1.54103 0
M  V30 944 C 92.6052 -0.520144 2.2322 0
M  V30 945 C 93.6052 -1.03828 1.22786 0
M  V30 946 O 94.7952 -0.929652 1.4732 0
M  V30 947 C 91.9272 -1.72317 2.94142 0
M  V30 948 H 93.1202 0.0841605 2.99782 0
M  V30 949 H 90.6732 0.0813433 1.56088 0
M  V30 950 H 91.4082 -2.36653 2.21734 0
M  V30 951 H 91.1932 -1.35898 3.67796 0
M  V30 952 H 92.6832 -2.3266 3.46784 0
M  V30 953 N 93.1203 -1.57491 0.0584922 0
M  V30 954 C 94.0303 -2.15448 -0.928414 0
M  V30 955 C 95.0463 -1.11416 -1.3365 0
M  V30 956 O 96.2223 -1.4362 -1.41193 0
M  V30 957 C 93.2873 -2.69393 -2.18239 0
M  V30 958 C 92.3483 -3.88249 -1.83196 0
M  V30 959 C 91.5813 -4.39613 -3.02616 0
M  V30 960 O 91.8043 -3.90023 -4.16219 0
M  V30 961 O 90.7383 -5.31111 -2.83204 0
M  V30 962 H 94.5643 -3.00112 -0.465483 0
M  V30 963 H 92.1493 -1.48499 -0.163826 0
M  V30 964 H 94.0313 -3.04026 -2.91798 0
M  V30 965 H 92.7063 -1.87796 -2.63656 0
M  V30 966 H 91.6133 -3.58492 -1.06931 0
M  V30 967 H 92.9463 -4.71098 -1.42573 0
M  V30 968 N 94.5984 0.214957 -1.56127 0
M  V30 969 C 95.5284 1.2695 -1.95974 0
M  V30 970 C 96.5094 1.48539 -0.828868 0
M  V30 971 O 97.6944 1.60611 -1.09168 0
M  V30 972 C 94.8244 2.61794 -2.28214 0
M  V30 973 C 93.7784 2.54851 -3.43853 0
M  V30 974 C 93.1044 3.93785 -3.61715 0
M  V30 975 C 94.4044 2.09065 -4.78632 0
M  V30 976 H 96.0984 0.93846 -2.84312 0
M  V30 977 H 93.6444 0.449996 -1.36788 0
M  V30 978 H 95.5974 3.35731 -2.54682 0
M  V30 979 H 94.3214 2.96599 -1.36736 0
M  V30 980 H 92.9804 1.8337 -3.17444 0
M  V30 981 H 92.6284 4.25908 -2.67602 0
M  V30 982 H 92.3284 3.90019 -4.39498 0
M  V30 983 H 93.8524 4.69374 -3.90539 0
M  V30 984 H 95.2664 2.7275 -5.04262 0
M  V30 985 H 93.6634 2.16346 -5.59745 0
M  V30 986 H 94.7334 1.04315 -4.73547 0
M  V30 987 N 96.0765 1.50051 0.48192 0
M  V30 988 C 97.3015 1.64508 1.26301 0
M  V30 989 C 97.7265 0.323851 1.85291 0
M  V30 990 O 97.0845 -0.710969 1.66778 0
M  V30 991 C 97.1325 2.7305 2.35533 0
M  V30 992 O 96.2365 2.3355 3.39895 0
M  V30 993 H 95.5775 0.549978 0.372048 0
M  V30 994 H 98.1075 1.9636 0.574786 0
M  V30 995 H 98.1175 2.95799 2.8101 0
M  V30 996 H 96.7925 3.68946 1.91967 0
M  V30 997 H 95.3695 2.21205 3.00204 0
M  V30 998 N 97.5546 -0.734337 1.39446 0
M  V30 999 C 98.5176 -1.83004 1.37994 0
M  V30 1000 C 99.5176 -1.58397 0.276938 0
M  V30 1001 O 100.708 -1.65785 0.534875 0
M  V30 1002 C 97.8396 -3.20802 1.1532 0
M  V30 1003 H 99.0326 -1.85694 2.35494 0
M  V30 1004 H 96.5856 -0.938059 1.25021 0
M  V30 1005 H 97.3206 -3.23772 0.185036 0
M  V30 1006 H 97.1056 -3.4006 1.95197 0
M  V30 1007 H 98.5956 -4.00862 1.17046 0
M  V30 1008 N 99.0327 -1.24633 -0.964593 0
M  V30 1009 C 100.449 -1.01239 -1.2338 0
M  V30 1010 C 100.649 0.2769 -1.99588 0
M  V30 1011 O 99.7047 0.992241 -2.32187 0
M  V30 1012 C 101.018 -2.22937 -2.01791 0
M  V30 1013 C 102.566 -2.27594 -2.14872 0
M  V30 1014 C 103.041 -3.48921 -2.96678 0
M  V30 1015 N 104.532 -3.49257 -3.04259 0
M  V30 1016 C 105.267 -4.39795 -3.67924 0
M  V30 1017 N 104.763 -5.40591 -4.33281 0
M  V30 1018 N 106.556 -4.275 -3.64966 0
M  V30 1019 H 98.7067 -2.0748 -0.454502 0
M  V30 1020 H 100.97 -0.910647 -0.26349 0
M  V30 1021 H 100.676 -3.16587 -1.53184 0
M  V30 1022 H 100.55 -2.25306 -3.02518 0
M  V30 1023 H 102.937 -1.34473 -2.6268 0
M  V30 1024 H 103.018 -2.2925 -1.13482 0
M  V30 1025 H 102.662 -4.42359 -2.49562 0
M  V30 1026 H 102.592 -3.4451 -3.98272 0
M  V30 1027 H 105.083 -2.76337 -2.57771 0
M  V30 1028 H 105.396 -6.05904 -4.79687 0
M  V30 1029 H 103.741 -5.44475 -4.3194 0
M  V30 1030 H 106.932 -3.47987 -3.13086 0
M  V30 1031 H 107.105 -4.98258 -4.14298 0
M  V30 1032 N 100.511 1.16574 -1.06058 0
M  V30 1033 C 101.922 1.68662 -0.800632 0
M  V30 1034 C 102.273 1.84184 0.67608 0
M  V30 1035 O 101.398 1.53568 1.52466 0
M  V30 1036 C 101.993 3.06356 -1.44676 0
M  V30 1037 C 100.552 3.55575 -1.23465 0
M  V30 1038 C 99.6988 2.31616 -1.52477 0
M  V30 1039 H 102.65 1.00969 -1.22438 0
M  V30 1040 H 102.671 3.70636 -0.860788 0
M  V30 1041 H 102.183 2.95027 -2.52152 0
M  V30 1042 H 100.284 3.72167 -0.179527 0
M  V30 1043 H 100.397 4.37812 -1.94571 0
M  V30 1044 H 98.7608 2.36512 -0.945209 0
M  V30 1045 H 99.5438 2.22887 -2.61106 0
M  V30 1046 N 101.989 0.842826 1.3317 0
M  V30 1047 C 102.899 0.281444 2.32906 0
M  V30 1048 C 103.915 -0.594587 1.63526 0
M  V30 1049 O 105.091 -0.49777 1.95152 0
M  V30 1050 C 102.156 -0.530929 3.42611 0
M  V30 1051 C 101.217 0.369843 4.27704 0
M  V30 1052 C 100.45 -0.403853 5.3217 0
M  V30 1053 O 100.673 -1.63513 5.46461 0
M  V30 1054 O 99.6069 0.224199 6.01482 0
M  V30 1055 H 103.433 1.10744 2.82789 0
M  V30 1056 H 101.018 0.60545 1.36582 0
M  V30 1057 H 102.9 -0.992437 4.09547 0
M  V30 1058 H 101.575 -1.33392 2.94938 0
M  V30 1059 H 100.482 0.879275 3.6362 0
M  V30 1060 H 101.815 1.13771 4.78871 0
M  V30 1061 N 103.467 -1.45747 0.599634 0
M  V30 1062 C 104.43 -2.28917 -0.113835 0
M  V30 1063 C 105.43 -1.3933 -0.802729 0
M  V30 1064 O 106.62 -1.61534 -0.652103 0
M  V30 1065 C 103.752 -3.20152 -1.17114 0
M  V30 1066 H 104.945 -2.93478 0.617289 0
M  V30 1067 H 102.498 -1.52137 0.358327 0
M  V30 1068 H 103.233 -2.60374 -1.93329 0
M  V30 1069 H 103.018 -3.86133 -0.681468 0
M  V30 1070 H 104.508 -3.82708 -1.67105 0
M  V30 1071 N 104.945 -0.338344 -1.53925 0
M  V30 1072 C 106.356 0.146651 -1.86123 0
M  V30 1073 C 106.707 1.5042 -1.2597 0
M  V30 1074 O 105.832 2.08723 -0.571294 0
M  V30 1075 C 106.427 0.272879 -3.37699 0
M  V30 1076 C 104.986 0.702103 -3.69794 0
M  V30 1077 C 104.133 -0.167304 -2.76795 0
M  V30 1078 H 107.084 -0.558123 -1.48562 0
M  V30 1079 H 107.105 1.10128 -3.64214 0
M  V30 1080 H 106.617 -0.715307 -3.81451 0
M  V30 1081 H 104.718 1.6995 -3.31584 0
M  V30 1082 H 104.831 0.495604 -4.7653 0
M  V30 1083 H 103.195 0.359527 -2.5215 0
M  V30 1084 H 103.978 -1.15253 -3.23375 0
M  V30 1085 N 106.423 1.57458 -0.0668435 0
M  V30 1086 C 107.386 2.11323 0.887422 0
M  V30 1087 C 108.386 1.03618 1.22964 0
M  V30 1088 O 109.576 1.29626 1.16373 0
M  V30 1089 C 106.708 2.61048 2.19242 0
M  V30 1090 H 107.901 2.96942 0.420194 0
M  V30 1091 H 105.454 1.55239 0.181793 0
M  V30 1092 H 106.189 1.78868 2.70512 0
M  V30 1093 H 105.974 3.39769 1.95702 0
M  V30 1094 H 107.464 3.02814 2.87565 0
M  V30 1095 N 107.901 -0.206675 1.56239 0
M  V30 1096 C 108.864 -1.23976 1.92776 0
M  V30 1097 C 109.864 -1.39041 0.807729 0
M  V30 1098 O 111.054 -1.37051 1.0753 0
M  V30 1099 C 108.186 -2.61112 2.19165 0
M  V30 1100 H 109.379 -0.927764 2.85189 0
M  V30 1101 H 106.932 -0.447718 1.4975 0
M  V30 1102 H 107.667 -2.97386 1.29352 0
M  V30 1103 H 107.452 -2.51552 3.00772 0
M  V30 1104 H 108.942 -3.35633 2.48476 0
M  V30 1105 N 109.379 -1.50304 -0.473955 0
M  V30 1106 C 110.627 -1.60832 -1.22382 0
M  V30 1107 C 110.948 -0.30939 -1.9253 0
M  V30 1108 O 110.218 0.67296 -1.83978 0
M  V30 1109 H 108.798 -0.592652 -0.454723 0
M  V30 1110 H 111.46 -1.87068 -0.546968 0
M  V30 1111 H 110.556 -2.41803 -1.97327 0
M  V30 1112 N 110.857 0.726932 -1.39834 0
M  V30 1113 C 112.082 1.52121 -1.40976 0
M  V30 1114 C 112.507 1.88098 -0.00826029 0
M  V30 1115 O 111.865 1.52479 0.980807 0
M  V30 1116 C 111.913 2.78021 -2.29644 0
M  V30 1117 O 111.017 3.74272 -1.73188 0
M  V30 1118 H 110.358 0.45908 -0.479731 0
M  V30 1119 H 112.888 0.896207 -1.83927 0
M  V30 1120 H 112.898 3.26671 -2.44438 0
M  V30 1121 H 111.573 2.51169 -3.31492 0
M  V30 1122 H 110.15 3.33073 -1.6768 0
M  V30 1123 N 112.336 1.25143 0.95797 0
M  V30 1124 C 113.747 1.08851 1.51685 0
M  V30 1125 C 114.098 -0.33687 1.93286 0
M  V30 1126 O 113.223 -1.22644 1.7829 0
M  V30 1127 C 113.818 1.96978 2.75654 0
M  V30 1128 C 112.377 1.84881 3.27866 0
M  V30 1129 C 111.524 1.91329 2.0072 0
M  V30 1130 H 114.475 1.38478 0.77522 0
M  V30 1131 H 114.496 1.5078 3.4935 0
M  V30 1132 H 114.008 3.00712 2.45345 0
M  V30 1133 H 112.109 0.840182 3.63004 0
M  V30 1134 H 112.222 2.6951 3.96107 0
M  V30 1135 H 110.586 1.35174 2.15871 0
M  V30 1136 H 111.369 2.96661 1.72764 0
M  V30 1137 N 113.814 -1.1601 1.06675 0
M  V30 1138 C 115.06 -1.86909 0.786945 0
M  V30 1139 C 115.393 -1.81717 -0.685018 0
M  V30 1140 O 114.668 -1.23551 -1.50218 0
M  V30 1141 C 114.951 -3.36313 1.28707 0
M  V30 1142 C 114.804 -3.50175 2.82308 0
M  V30 1143 C 116.123 -4.3084 0.898071 0
M  V30 1144 H 113.242 -0.678677 0.287343 0
M  V30 1145 H 115.884 -1.36336 1.32334 0
M  V30 1146 H 114.034 -3.79513 0.830768 0
M  V30 1147 H 115.706 -3.15886 3.36175 0
M  V30 1148 H 113.949 -2.91959 3.20847 0
M  V30 1149 H 114.62 -4.55116 3.12368 0
M  V30 1150 H 117.096 -3.95561 1.29114 0
M  V30 1151 H 115.972 -5.33876 1.27543 0
M  V30 1152 H 116.233 -4.41662 -0.196651 0
M  V30 1153 N 115.292 -0.849877 -1.32721 0
M  V30 1154 C 116.54 -0.450032 -1.97026 0
M  V30 1155 C 116.861 0.996604 -1.67609 0
M  V30 1156 O 116.131 1.6958 -0.980786 0
M  V30 1157 H 114.711 -0.163426 -0.728904 0
M  V30 1158 H 117.373 -1.08526 -1.6189 0
M  V30 1159 H 116.469 -0.591146 -3.0645 0
M  V30 1160 N 116.77 1.45427 -0.607355 0
M  V30 1161 C 118.016 2.0254 -0.102607 0
M  V30 1162 C 118.349 1.47478 1.26348 0
M  V30 1163 O 117.624 0.64939 1.83339 0
M  V30 1164 C 117.907 3.60044 -0.0634347 0
M  V30 1165 C 117.76 4.2544 -1.46017 0
M  V30 1166 C 119.079 4.35646 0.624514 0
M  V30 1167 H 116.198 0.73598 -0.0387607 0
M  V30 1168 H 118.84 1.73284 -0.779282 0
M  V30 1169 H 116.99 3.85101 0.512808 0
M  V30 1170 H 118.662 4.11569 -2.08347 0
M  V30 1171 H 116.905 3.83849 -2.02094 0
M  V30 1172 H 117.576 5.34342 -1.385 0
M  V30 1173 H 120.052 4.15882 0.134723 0
M  V30 1174 H 118.928 5.45376 0.621028 0
M  V30 1175 H 119.189 4.08501 1.69055 0
M  V30 1176 N 118.248 0.346503 1.53744 0
M  V30 1177 C 119.476 -0.25041 2.05379 0
M  V30 1178 C 119.891 -1.43979 1.22129 0
M  V30 1179 O 119.248 -1.80677 0.257321 0
M  V30 1180 C 119.299 -0.662575 3.55376 0
M  V30 1181 O 119.02 0.479515 4.35468 0
M  V30 1182 C 120.521 -1.31989 4.23195 0
M  V30 1183 H 117.741 -0.0478198 0.669294 0
M  V30 1184 H 120.285 0.499346 1.9831 0
M  V30 1185 H 118.44 -1.36227 3.62658 0
M  V30 1186 H 118.854 0.15037 5.24284 0
M  V30 1187 H 120.328 -1.55902 5.29527 0
M  V30 1188 H 120.805 -2.27436 3.75725 0
M  V30 1189 H 121.411 -0.662154 4.20114 0
M  V30 1190 N 119.726 -1.57421 0.075193 0
M  V30 1191 C 120.973 -1.93618 -0.593146 0
M  V30 1192 C 121.301 -0.955484 -1.69413 0
M  V30 1193 O 120.556 0.0283251 -1.9568 0
M  V30 1194 C 120.855 -3.36428 -1.20626 0
M  V30 1195 C 120.521 -4.50307 -0.231078 0
M  V30 1196 C 119.183 -4.81186 0.0371936 0
M  V30 1197 C 121.535 -5.19374 0.435888 0
M  V30 1198 C 118.863 -5.78466 0.979461 0
M  V30 1199 C 121.215 -6.17665 1.3665 0
M  V30 1200 C 119.879 -6.46958 1.6432 0
M  V30 1201 H 119.149 -0.708499 -0.217047 0
M  V30 1202 H 121.796 -1.90937 0.146793 0
M  V30 1203 H 120.101 -3.35592 -2.02201 0
M  V30 1204 H 121.798 -3.61727 -1.73073 0
M  V30 1205 H 118.388 -4.26227 -0.450357 0
M  V30 1206 H 122.572 -4.95711 0.241748 0
M  V30 1207 H 117.828 -5.99487 1.20106 0
M  V30 1208 H 122.002 -6.70284 1.88924 0
M  V30 1209 H 119.629 -7.2215 2.37494 0
M  V30 1210 N 121.204 0.198386 -1.56346 0
M  V30 1211 C 122.615 0.763358 -1.70381 0
M  V30 1212 C 122.966 1.83995 -0.681203 0
M  V30 1213 O 122.091 2.15785 0.16305 0
M  V30 1214 C 122.686 1.39143 -3.08909 0
M  V30 1215 C 121.245 1.90352 -3.2472 0
M  V30 1216 C 120.392 0.772233 -2.6633 0
M  V30 1217 H 123.343 -0.0266377 -1.58678 0
M  V30 1218 H 123.364 2.26076 -3.06055 0
M  V30 1219 H 122.876 0.607638 -3.83314 0
M  V30 1220 H 120.977 2.71461 -2.55225 0
M  V30 1221 H 121.09 2.06757 -4.3219 0
M  V30 1222 H 119.454 1.18566 -2.2542 0
M  V30 1223 H 120.237 0.00073556 -3.433 0
M  V30 1224 N 122.682 1.50554 0.465978 0
M  V30 1225 C 123.93 1.61479 1.21528 0
M  V30 1226 C 124.251 0.319596 1.92363 0
M  V30 1227 O 123.521 -0.663194 1.84333 0
M  V30 1228 H 122.101 0.595055 0.451573 0
M  V30 1229 H 124.763 1.87355 0.53704 0
M  V30 1230 H 123.859 2.42846 1.96042 0
M  V30 1231 N 124.16 -0.719506 1.40217 0
M  V30 1232 C 125.409 -1.47486 1.37589 0
M  V30 1233 C 125.722 -1.9559 -0.0201568 0
M  V30 1234 O 126.928 -2.70973 -0.169049 0
M  V30 1235 C 125.384 -2.66575 2.41796 0
M  V30 1236 C 124.992 -2.25358 3.87192 0
M  V30 1237 C 126.736 -3.4433 2.48269 0
M  V30 1238 C 124.643 -3.41262 4.83005 0
M  V30 1239 H 123.573 -0.553901 0.511576 0
M  V30 1240 H 126.224 -0.783427 1.65936 0
M  V30 1241 H 124.606 -3.3787 2.06543 0
M  V30 1242 H 125.78 -1.61509 4.31569 0
M  V30 1243 H 124.095 -1.60657 3.84159 0
M  V30 1244 H 126.692 -4.30569 3.17041 0
M  V30 1245 H 127.035 -3.87872 1.51198 0
M  V30 1246 H 127.568 -2.80076 2.82493 0
M  V30 1247 H 124.307 -3.02755 5.81394 0
M  V30 1248 H 123.827 -4.0404 4.43297 0
M  V30 1249 H 125.506 -4.07383 5.02641 0
M  V30 1250 N 125.638 -1.25649 -0.95132 0
M  V30 1251 C 126.887 -1.09988 -1.69073 0
M  V30 1252 C 127.2 0.358355 -1.92289 0
M  V30 1253 O 128.406 0.635466 -2.63958 0
M  V30 1254 C 126.862 -1.92012 -3.044 0
M  V30 1255 C 126.47 -3.42347 -2.88968 0
M  V30 1256 C 128.214 -1.8493 -3.82101 0
M  V30 1257 C 126.121 -4.16655 -4.19705 0
M  V30 1258 H 125.051 -0.407993 -0.63408 0
M  V30 1259 H 127.702 -1.49873 -1.05879 0
M  V30 1260 H 126.084 -1.44952 -3.68517 0
M  V30 1261 H 127.258 -3.97104 -2.33762 0
M  V30 1262 H 125.573 -3.50557 -2.24719 0
M  V30 1263 H 128.17 -2.37739 -4.78941 0
M  V30 1264 H 128.513 -0.817883 -4.08187 0
M  V30 1265 H 129.046 -2.29758 -3.2474 0
M  V30 1266 H 125.785 -5.20224 -3.98807 0
M  V30 1267 H 125.305 -3.66681 -4.74663 0
M  V30 1268 H 126.984 -4.24551 -4.88227 0
M  V30 1269 N 127.117 1.15442 -1.07289 0
M  V30 1270 C 128.049 2.19773 -0.650585 0
M  V30 1271 C 129.062 1.60076 0.296572 0
M  V30 1272 O 130.251 1.78293 0.0859905 0
M  V30 1273 C 127.351 3.38838 0.0650398 0
M  V30 1274 C 126.524 4.2808 -0.898141 0
M  V30 1275 C 125.583 5.2574 -0.219926 0
M  V30 1276 O 124.609 5.62654 -0.860773 0
M  V30 1277 N 125.811 5.71205 1.03466 0
M  V30 1278 H 128.576 2.56622 -1.54808 0
M  V30 1279 H 126.137 1.30551 -0.957494 0
M  V30 1280 H 128.129 4.01222 0.529415 0
M  V30 1281 H 126.699 3.00409 0.864466 0
M  V30 1282 H 125.919 3.62804 -1.54165 0
M  V30 1283 H 127.207 4.84577 -1.5512 0
M  V30 1284 H 126.605 5.43325 1.57526 0
M  V30 1285 H 125.162 6.35633 1.44272 0
M  V30 1286 N 128.595 0.856903 1.32268 0
M  V30 1287 C 129.545 0.274899 2.26337 0
M  V30 1288 C 130.529 -0.580543 1.50062 0
M  V30 1289 O 131.721 -0.429559 1.71708 0
M  V30 1290 C 128.85 -0.533841 3.39124 0
M  V30 1291 C 127.936 0.334114 4.22782 0
M  V30 1292 N 128.327 1.42143 4.85416 0
M  V30 1293 C 126.625 0.124256 4.45827 0
M  V30 1294 C 127.326 1.95559 5.47843 0
M  V30 1295 N 126.302 1.25444 5.28928 0
M  V30 1296 H 130.104 1.10612 2.72291 0
M  V30 1297 H 127.618 0.703258 1.46383 0
M  V30 1298 H 129.615 -0.96722 4.05525 0
M  V30 1299 H 128.275 -1.36283 2.94715 0
M  V30 1300 H 129.286 1.80436 4.85451 0
M  V30 1301 H 125.963 -0.669837 4.12092 0
M  V30 1302 H 127.353 2.86714 6.07655 0
M  V30 1303 N 130.073 -1.45103 0.615059 0
M  V30 1304 C 131.321 -2.01784 0.112955 0
M  V30 1305 C 131.642 -1.48504 -1.26378 0
M  V30 1306 O 130.912 -0.682245 -1.83636 0
M  V30 1307 H 129.492 -0.745993 0.0387668 0
M  V30 1308 H 132.154 -1.77808 0.798141 0
M  V30 1309 H 131.25 -3.12025 0.0684069 0
M  V30 1310 N 131.551 -0.354651 -1.53558 0
M  V30 1311 C 132.797 0.238797 -2.01389 0
M  V30 1312 C 133.13 1.49309 -1.2418 0
M  V30 1313 O 132.405 1.91638 -0.332457 0
M  V30 1314 C 132.688 0.541771 -3.56001 0
M  V30 1315 C 132.541 -0.725388 -4.43912 0
M  V30 1316 C 133.86 1.34685 -4.18984 0
M  V30 1317 H 130.979 0.0853177 -0.732045 0
M  V30 1318 H 133.621 -0.477384 -1.83905 0
M  V30 1319 H 131.771 1.15189 -3.71031 0
M  V30 1320 H 133.443 -1.36313 -4.407 0
M  V30 1321 H 131.686 -1.34801 -4.12324 0
M  V30 1322 H 132.357 -0.468505 -5.50008 0
M  V30 1323 H 134.833 0.830837 -4.07721 0
M  V30 1324 H 133.709 1.52759 -5.27215 0
M  V30 1325 H 133.97 2.35221 -3.74331 0
M  V30 1326 N 133.029 1.57378 -0.0835403 0
M  V30 1327 C 134.275 1.94217 0.583733 0
M  V30 1328 C 134.608 0.964653 1.68547 0
M  V30 1329 O 133.883 -0.00422258 1.945 0
M  V30 1330 C 134.166 3.41253 1.14972 0
M  V30 1331 C 134.019 4.49768 0.0538277 0
M  V30 1332 C 135.338 3.89352 2.05166 0
M  V30 1333 H 132.457 0.706233 0.210724 0
M  V30 1334 H 135.099 1.89392 -0.1519 0
M  V30 1335 H 133.249 3.45496 1.77665 0
M  V30 1336 H 134.921 4.57641 -0.579851 0
M  V30 1337 H 133.164 4.29432 -0.614068 0
M  V30 1338 H 133.835 5.49817 0.490452 0
M  V30 1339 H 136.311 3.87189 1.52393 0
M  V30 1340 H 135.187 4.92822 2.41698 0
M  V30 1341 H 135.448 3.27973 2.96456 0
M  V30 1342 N 134.507 -0.190092 1.56449 0
M  V30 1343 C 135.457 -1.23977 1.91347 0
M  V30 1344 C 136.441 -1.40747 0.779693 0
M  V30 1345 O 137.633 -1.43033 1.04262 0
M  V30 1346 C 134.762 -2.58347 2.26079 0
M  V30 1347 C 133.848 -2.4535 3.45925 0
M  V30 1348 N 134.239 -2.02039 4.63696 0
M  V30 1349 C 132.537 -2.76229 3.50162 0
M  V30 1350 C 133.238 -2.01053 5.4585 0
M  V30 1351 N 132.214 -2.42747 4.8639 0
M  V30 1352 H 136.016 -0.896318 2.79899 0
M  V30 1353 H 133.53 -0.398496 1.57435 0
M  V30 1354 H 135.527 -3.34173 2.49267 0
M  V30 1355 H 134.187 -2.93512 1.38856 0
M  V30 1356 H 135.198 -1.7267 4.88268 0
M  V30 1357 H 131.875 -3.15556 2.73369 0
M  V30 1358 H 133.265 -1.69426 6.50188 0
M  V30 1359 N 135.985 -1.50799 -0.457987 0
M  V30 1360 C 137.21 -1.66496 -1.23668 0
M  V30 1361 C 137.635 -0.353288 -1.84752 0
M  V30 1362 O 136.993 0.684346 -1.67888 0
M  V30 1363 C 137.041 -2.76763 -2.3116 0
M  V30 1364 O 136.145 -2.38928 -3.36136 0
M  V30 1365 H 135.486 -0.555828 -0.363252 0
M  V30 1366 H 138.016 -1.9725 -0.543474 0
M  V30 1367 H 138.026 -3.00232 -2.76269 0
M  V30 1368 H 136.701 -3.71954 -1.86073 0
M  V30 1369 H 135.278 -2.25953 -2.96647 0
M  V30 1370 N 137.463 0.71206 -1.40597 0
M  V30 1371 C 138.426 1.80785 -1.40888 0
M  V30 1372 C 139.426 1.57937 -0.302103 0
M  V30 1373 O 140.616 1.64913 -0.561182 0
M  V30 1374 C 137.748 3.18927 -1.20409 0
M  V30 1375 H 138.941 1.81924 -2.38419 0
M  V30 1376 H 136.494 0.91805 -1.26497 0
M  V30 1377 H 137.229 3.23436 -0.236522 0
M  V30 1378 H 137.014 3.36911 -2.00582 0
M  V30 1379 H 138.504 3.98949 -1.23408 0
M  V30 1380 N 138.941 1.26152 0.944643 0
M  V30 1381 C 139.904 1.07474 2.0244 0
M  V30 1382 C 140.904 0.0242064 1.60782 0
M  V30 1383 O 142.094 0.267302 1.72137 0
M  V30 1384 C 139.226 0.633956 3.34953 0
M  V30 1385 H 140.419 2.03336 2.20442 0
M  V30 1386 H 137.972 1.087 1.12312 0
M  V30 1387 H 138.707 -0.326811 3.22649 0
M  V30 1388 H 138.492 1.39247 3.66542 0
M  V30 1389 H 139.982 0.52501 4.14287 0
M  V30 1390 N 140.419 -1.14872 1.07899 0
M  V30 1391 C 141.367 -2.21857 0.698727 0
M  V30 1392 C 142.361 -1.66845 -0.293086 0
M  V30 1393 O 143.567 -1.79321 -0.156204 0
M  V30 1394 H 139.942 -0.722691 0.207899 0
M  V30 1395 H 141.913 -2.51205 1.61054 0
M  V30 1396 C 140.662 -3.47498 0.11858 0
M  V30 1397 H 139.985 -3.90154 0.872914 0
M  V30 1398 H 141.425 -4.23858 -0.109759 0
M  V30 1399 C 139.884 -3.16947 -1.1422 0
M  V30 1400 O 140.414 -3.3426 -2.22785 0
M  V30 1401 N 138.62 -2.70946 -1.05055 0
M  V30 1402 H 138.167 -2.57058 -0.167038 0
M  V30 1403 H 138.125 -2.50879 -1.89491 0
M  V30 1404 N 141.898 -0.863906 -1.31812 0
M  V30 1405 C 143.144 -0.472535 -1.97218 0
M  V30 1406 C 143.477 0.971394 -1.68159 0
M  V30 1407 O 142.752 1.68309 -0.974798 0
M  V30 1408 C 143.035 -0.723054 -3.52766 0
M  V30 1409 C 142.888 -2.21608 -3.91421 0
M  V30 1410 C 144.207 -0.185522 -4.39709 0
M  V30 1411 H 141.326 -0.173158 -0.71637 0
M  V30 1412 H 143.968 -1.08403 -1.56041 0
M  V30 1413 H 142.118 -0.202577 -3.87971 0
M  V30 1414 H 143.79 -2.80334 -3.66347 0
M  V30 1415 H 142.033 -2.691 -3.40246 0
M  V30 1416 H 142.704 -2.34203 -4.99853 0
M  V30 1417 H 145.18 -0.630726 -4.11292 0
M  V30 1418 H 144.056 -0.390306 -5.47511 0
M  V30 1419 H 144.317 0.912229 -4.32586 0
M  V30 1420 N 143.376 1.44774 -0.622745 0
M  V30 1421 C 144.653 1.95522 -0.0551974 0
M  V30 1422 C 145.033 1.5649 1.41683 0
M  V30 1423 O 144.381 0.834848 2.12703 0
M  V30 1424 C 144.591 3.4796 -0.269242 0
M  V30 1425 C 145.939 4.24306 -0.158014 0
M  V30 1426 O 146.963 3.55637 -0.200162 0
M  V30 1427 O 145.822 5.46471 -0.0558693 0
M  V30 1428 H 142.916 0.826556 0.0271015 0
M  V30 1429 H 145.462 1.54866 -0.693864 0
M  V30 1430 H 144.234 3.6939 -1.29099 0
M  V30 1431 H 143.857 3.95543 0.403966 0
M  V30 1432 N 144.854 0.36279 1.53368 0
M  V30 1433 C 145.801 -0.485008 2.25646 0
M  V30 1434 C 146.771 -1.07982 1.2621 0
M  V30 1435 O 147.956 -1.11284 1.54986 0
M  V30 1436 C 145.096 -1.62023 3.04701 0
M  V30 1437 C 144.209 -1.05086 4.19024 0
M  V30 1438 C 143.344 -2.15496 4.85525 0
M  V30 1439 C 142.383 -1.5601 5.91884 0
M  V30 1440 N 141.52 -2.60241 6.52088 0
M  V30 1441 H 146.36 0.137864 2.97681 0
M  V30 1442 H 143.897 0.0798061 1.46883 0
M  V30 1443 H 145.855 -2.28887 3.48807 0
M  V30 1444 H 144.485 -2.2138 2.34927 0
M  V30 1445 H 143.537 -0.27259 3.79422 0
M  V30 1446 H 144.849 -0.575926 4.95464 0
M  V30 1447 H 144.003 -2.90186 5.32801 0
M  V30 1448 H 142.742 -2.66341 4.08551 0
M  V30 1449 H 141.747 -0.798338 5.43973 0
M  V30 1450 H 142.972 -1.05994 6.70777 0
M  V30 1451 H 140.918 -3.10304 5.77968 0
M  V30 1452 H 140.835 -2.17426 7.24059 0
M  V30 1453 H 142.103 -3.34641 7.04014 0
M  V30 1454 N 146.332 -1.57332 0.0918853 0
M  V30 1455 C 147.557 -1.98995 -0.584442 0
M  V30 1456 C 147.982 -0.970528 -1.61128 0
M  V30 1457 O 147.34 0.0613904 -1.81196 0
M  V30 1458 C 147.388 -3.39636 -1.21161 0
M  V30 1459 O 146.492 -3.40447 -2.32744 0
M  V30 1460 H 145.833 -0.647165 -0.148572 0
M  V30 1461 H 148.363 -2.03873 0.172347 0
M  V30 1462 H 148.373 -3.7726 -1.55367 0
M  V30 1463 H 147.048 -4.13356 -0.459313 0
M  V30 1464 H 145.625 -3.14614 -2.0018 0
M  V30 1465 N 147.81 0.181792 -1.56548 0
M  V30 1466 C 149.056 0.896803 -1.82562 0
M  V30 1467 C 149.411 1.80324 -0.670908 0
M  V30 1468 O 148.704 1.8868 0.333235 0
M  V30 1469 C 148.898 1.73728 -3.12335 0
M  V30 1470 C 148.727 0.913714 -4.4032 0
M  V30 1471 C 147.497 0.592903 -5.01809 0
M  V30 1472 C 149.695 0.260164 -5.13642 0
M  V30 1473 N 147.677 -0.247901 -6.13399 0
M  V30 1474 C 149.048 -0.442256 -6.18421 0
M  V30 1475 C 151.103 0.177253 -4.97584 0
M  V30 1476 C 149.806 -1.21971 -7.08883 0
M  V30 1477 C 151.832 -0.586839 -5.88481 0
M  V30 1478 C 151.194 -1.27766 -6.92716 0
M  V30 1479 H 147.293 0.307122 -0.719166 0
M  V30 1480 H 149.877 0.164535 -1.94004 0
M  V30 1481 H 148.048 2.44105 -3.02105 0
M  V30 1482 H 149.78 2.39279 -3.26386 0
M  V30 1483 H 146.535 0.920502 -4.64568 0
M  V30 1484 H 146.959 -0.658304 -6.73792 0
M  V30 1485 H 151.601 0.696993 -4.17015 0
M  V30 1486 H 149.319 -1.75083 -7.88905 0
M  V30 1487 H 152.905 -0.652522 -5.78129 0
M  V30 1488 H 151.785 -1.85943 -7.61836 0
M  V30 1489 N 149.288 1.51039 0.449983 0
M  V30 1490 C 150.218 1.74379 1.55288 0
M  V30 1491 C 151.199 0.593236 1.5942 0
M  V30 1492 O 152.384 0.834625 1.7535 0
M  V30 1493 C 149.514 1.85728 2.93466 0
M  V30 1494 C 148.468 3.01078 3.04197 0
M  V30 1495 C 147.794 2.97595 4.44231 0
M  V30 1496 C 149.094 4.41254 2.7945 0
M  V30 1497 H 150.788 2.66725 1.36008 0
M  V30 1498 H 148.334 1.2835 0.652864 0
M  V30 1499 H 150.287 2.0064 3.70569 0
M  V30 1500 H 149.011 0.900207 3.13949 0
M  V30 1501 H 147.67 2.85851 2.29531 0
M  V30 1502 H 147.318 1.99691 4.61663 0
M  V30 1503 H 147.018 3.75046 4.52343 0
M  V30 1504 H 148.542 3.14583 5.23326 0
M  V30 1505 H 149.956 4.56897 3.46292 0
M  V30 1506 H 148.353 5.20315 2.98985 0
M  V30 1507 H 149.423 4.52164 1.75144 0
M  V30 1508 N 150.766 -0.704594 1.40972 0
M  V30 1509 C 151.714 -1.83994 1.42299 0
M  V30 1510 C 152.708 -1.66684 0.302111 0
M  V30 1511 O 153.914 -1.73655 0.473697 0
M  V30 1512 H 150.289 -0.606171 0.44504 0
M  V30 1513 H 152.26 -1.79992 2.38003 0
M  V30 1514 C 151.009 -3.21946 1.31323 0
M  V30 1515 H 150.332 -3.35878 2.16855 0
M  V30 1516 H 151.772 -4.01491 1.36311 0
M  V30 1517 C 150.231 -3.36891 0.0245977 0
M  V30 1518 O 150.761 -3.90687 -0.934153 0
M  V30 1519 N 148.967 -2.90559 -0.0485243 0
M  V30 1520 H 148.514 -2.46968 0.732419 0
M  V30 1521 H 148.472 -3.00937 -0.910171 0
M  V30 1522 N 152.244 -1.26651 -0.937939 0
M  V30 1523 C 153.472 -1.15173 -1.7188 0
M  V30 1524 C 153.887 0.292668 -1.86518 0
M  V30 1525 O 153.244 1.20014 -1.37488 0
M  V30 1526 C 153.295 -1.81925 -3.12387 0
M  V30 1527 O 153.016 -3.2072 -2.98446 0
M  V30 1528 C 154.517 -1.76442 -4.06673 0
M  V30 1529 H 151.737 -0.400911 -0.538063 0
M  V30 1530 H 154.281 -1.67332 -1.1756 0
M  V30 1531 H 152.436 -1.33696 -3.63599 0
M  V30 1532 H 152.85 -3.53802 -3.872 0
M  V30 1533 H 154.324 -2.27781 -5.02812 0
M  V30 1534 H 154.801 -0.731608 -4.33064 0
M  V30 1535 H 155.407 -2.24238 -3.61382 0
M  V30 1536 N 153.722 1.14298 -1.08507 0
M  V30 1537 C 154.999 1.81544 -0.728088 0
M  V30 1538 C 155.379 1.95838 0.78808 0
M  V30 1539 O 154.727 1.51904 1.70697 0
M  V30 1540 C 154.937 3.17169 -1.45619 0
M  V30 1541 C 156.285 3.9265 -1.61591 0
M  V30 1542 O 157.309 3.26762 -1.41793 0
M  V30 1543 O 156.168 5.10807 -1.94263 0
M  V30 1544 H 153.262 0.78491 -0.260471 0
M  V30 1545 H 155.808 1.21307 -1.18671 0
M  V30 1546 H 154.58 3.01934 -2.489 0
M  V30 1547 H 154.203 3.851 -0.989124 0
M  V30 1548 N 155.201 0.870884 1.31352 0
M  V30 1549 C 156.45 0.478408 1.95944 0
M  V30 1550 C 156.763 -0.974493 1.69597 0
M  V30 1551 O 157.969 -1.47316 2.28058 0
M  V30 1552 C 156.425 0.804609 3.50791 0
M  V30 1553 C 156.033 2.27433 3.85977 0
M  V30 1554 C 157.777 0.480648 4.2177 0
M  V30 1555 C 155.684 2.5429 5.33939 0
M  V30 1556 H 154.614 0.175175 0.733369 0
M  V30 1557 H 157.265 1.06391 1.4951 0
M  V30 1558 H 155.647 0.148347 3.95722 0
M  V30 1559 H 156.821 2.97373 3.52002 0
M  V30 1560 H 155.136 2.56442 3.28065 0
M  V30 1561 H 157.733 0.658519 5.30629 0
M  V30 1562 H 158.076 -0.578979 4.12254 0
M  V30 1563 H 158.609 1.09349 3.82476 0
M  V30 1564 H 155.348 3.58939 5.48491 0
M  V30 1565 H 154.868 1.88945 5.69263 0
M  V30 1566 H 156.547 2.39066 6.01212 0
M  V30 1567 N 156.679 -1.44442 0.630414 0
M  V30 1568 C 157.956 -1.9549 0.0655657 0
M  V30 1569 C 158.336 -1.5724 -1.40851 0
M  V30 1570 O 157.684 -0.846116 -2.12257 0
M  V30 1571 C 157.894 -3.47812 0.287691 0
M  V30 1572 C 159.242 -4.24216 0.180513 0
M  V30 1573 O 160.266 -3.55526 0.219019 0
M  V30 1574 O 159.125 -5.46434 0.0848493 0
M  V30 1575 H 156.219 -0.826688 -0.0227177 0
M  V30 1576 H 158.765 -1.54496 0.702068 0
M  V30 1577 H 157.537 -3.687 1.31056 0
M  V30 1578 H 157.16 -3.95751 -0.382984 0
M  V30 1579 N 158.157 -0.370918 -1.53173 0
M  V30 1580 C 159.12 0.460778 -2.24521 0
M  V30 1581 C 160.12 1.00536 -1.25496 0
M  V30 1582 O 161.31 0.890266 -1.49733 0
M  V30 1583 C 158.442 1.64457 -2.98608 0
M  V30 1584 H 159.635 -0.163613 -2.99453 0
M  V30 1585 H 157.188 -0.122699 -1.55818 0
M  V30 1586 H 157.923 2.30691 -2.2793 0
M  V30 1587 H 157.708 1.26099 -3.7127 0
M  V30 1588 H 159.198 2.23384 -3.5283 0
M  V30 1589 N 159.635 1.57281 -0.100228 0
M  V30 1590 C 160.565 2.17328 0.853857 0
M  V30 1591 C 161.546 1.10804 1.2906 0
M  V30 1592 O 162.731 1.38963 1.35657 0
M  V30 1593 C 159.861 2.75772 2.11109 0
M  V30 1594 C 158.815 3.87713 1.81279 0
M  V30 1595 C 158.141 4.32882 3.13874 0
M  V30 1596 C 159.441 5.10677 1.09574 0
M  V30 1597 H 161.135 2.97305 0.353545 0
M  V30 1598 H 158.681 1.43009 0.168612 0
M  V30 1599 H 160.634 3.16433 2.78296 0
M  V30 1600 H 159.358 1.93057 2.63432 0
M  V30 1601 H 158.017 3.476 1.16489 0
M  V30 1602 H 157.665 3.47051 3.64095 0
M  V30 1603 H 157.365 5.08358 2.94696 0
M  V30 1604 H 158.889 4.7618 3.82211 0
M  V30 1605 H 160.303 5.48474 1.66879 0
M  V30 1606 H 158.7 5.91615 1.00557 0
M  V30 1607 H 159.77 4.84835 0.0793299 0
M  V30 1608 N 161.113 -0.173488 1.56642 0
M  V30 1609 C 162.043 -1.2171 1.99271 0
M  V30 1610 C 163.024 -1.46289 0.867959 0
M  V30 1611 O 164.209 -1.5766 1.13388 0
M  V30 1612 C 161.339 -2.55651 2.35074 0
M  V30 1613 C 160.293 -2.45645 3.50489 0
M  V30 1614 C 159.619 -3.84056 3.72028 0
M  V30 1615 C 160.919 -1.96302 4.84007 0
M  V30 1616 H 162.613 -0.86275 2.867 0
M  V30 1617 H 160.159 -0.413571 1.37933 0
M  V30 1618 H 162.112 -3.2886 2.63494 0
M  V30 1619 H 160.836 -2.92869 1.44552 0
M  V30 1620 H 159.495 -1.7489 3.22194 0
M  V30 1621 H 159.143 -4.18664 2.788 0
M  V30 1622 H 158.843 -3.7823 4.49684 0
M  V30 1623 H 160.367 -4.58854 4.02846 0
M  V30 1624 H 161.781 -2.59284 5.11317 0
M  V30 1625 H 160.178 -2.01429 5.65284 0
M  V30 1626 H 161.248 -0.917226 4.76146 0
M  V30 1627 N 162.591 -1.51276 -0.441967 0
M  V30 1628 C 163.819 -1.67516 -1.21434 0
M  V30 1629 C 164.234 -0.37055 -1.85128 0
M  V30 1630 O 163.591 0.650498 -1.70513 0
M  V30 1631 C 163.642 -2.78748 -2.30177 0
M  V30 1632 O 163.363 -4.04154 -1.69089 0
M  V30 1633 C 164.864 -3.06217 -3.20541 0
M  V30 1634 H 162.084 -0.562276 -0.366178 0
M  V30 1635 H 164.628 -1.97666 -0.524244 0
M  V30 1636 H 162.783 -2.5121 -2.94911 0
M  V30 1637 H 163.197 -4.65894 -2.40922 0
M  V30 1638 H 164.671 -3.8764 -3.92987 0
M  V30 1639 H 165.148 -2.18439 -3.81026 0
M  V30 1640 H 165.754 -3.35397 -2.61513 0
M  V30 1641 N 164.069 0.697108 -1.41344 0
M  V30 1642 C 165.032 1.79281 -1.42797 0
M  V30 1643 C 166.032 1.57607 -0.318837 0
M  V30 1644 O 167.222 1.64309 -0.578642 0
M  V30 1645 C 164.354 3.17632 -1.23785 0
M  V30 1646 H 165.547 1.79385 -2.40335 0
M  V30 1647 H 163.1 0.904582 -1.27464 0
M  V30 1648 H 163.835 3.23167 -0.270814 0
M  V30 1649 H 163.62 3.34765 -2.04144 0
M  V30 1650 H 165.11 3.97617 -1.27633 0
M  V30 1651 N 165.547 1.27147 0.931209 0
M  V30 1652 C 166.963 1.04475 1.20653 0
M  V30 1653 C 167.163 -0.223885 2.00252 0
M  V30 1654 O 166.219 -0.930332 2.34736 0
M  V30 1655 C 167.532 2.28209 1.95809 0
M  V30 1656 C 169.08 2.33211 2.08762 0
M  V30 1657 C 169.555 3.56665 2.87323 0
M  V30 1658 N 171.046 3.57201 2.94892 0
M  V30 1659 C 171.781 4.49395 3.56134 0
M  V30 1660 N 171.277 5.51889 4.18796 0
M  V30 1661 N 173.07 4.37026 3.53504 0
M  V30 1662 H 165.221 2.08612 0.399333 0
M  V30 1663 H 167.484 0.917312 0.239253 0
M  V30 1664 H 167.19 3.20538 1.44736 0
M  V30 1665 H 167.064 2.33247 2.96438 0
M  V30 1666 H 169.451 1.41391 2.59023 0
M  V30 1667 H 169.532 2.32178 1.07364 0
M  V30 1668 H 169.176 4.4882 2.37746 0
M  V30 1669 H 169.106 3.54948 3.88998 0
M  V30 1670 H 171.597 2.83074 2.50354 0
M  V30 1671 H 171.91 6.18409 4.63454 0
M  V30 1672 H 170.255 5.55735 4.17353 0
M  V30 1673 H 173.446 3.56166 3.03749 0
M  V30 1674 H 173.619 5.09067 4.00942 0
M  V30 1675 N 167.025 -1.13721 1.09112 0
M  V30 1676 C 167.955 -2.21148 0.749385 0
M  V30 1677 C 168.936 -1.6792 -0.271475 0
M  V30 1678 O 170.121 -1.93693 -0.140251 0
M  V30 1679 C 167.251 -3.46905 0.165659 0
M  V30 1680 C 166.205 -4.13203 1.11567 0
M  V30 1681 C 165.531 -5.33248 0.393809 0
M  V30 1682 C 166.831 -4.60912 2.45678 0
M  V30 1683 H 168.525 -2.4999 1.64758 0
M  V30 1684 H 166.071 -1.20156 0.793626 0
M  V30 1685 H 168.024 -4.21313 -0.085466 0
M  V30 1686 H 166.748 -3.17449 -0.767714 0
M  V30 1687 H 165.407 -3.40758 1.35202 0
M  V30 1688 H 165.055 -5.00054 -0.543599 0
M  V30 1689 H 164.755 -5.78552 1.02721 0
M  V30 1690 H 166.279 -6.10413 0.150908 0
M  V30 1691 H 167.693 -5.26759 2.26269 0
M  V30 1692 H 166.09 -5.16944 3.04776 0
M  V30 1693 H 167.16 -3.75603 3.06677 0
M  V30 1694 N 168.503 -0.877838 -1.30888 0
M  V30 1695 C 169.751 -0.491723 -1.96027 0
M  V30 1696 C 170.072 0.960827 -1.69685 0
M  V30 1697 O 169.342 1.67462 -1.01654 0
M  V30 1698 H 167.922 -0.17885 -0.725273 0
M  V30 1699 H 170.584 -1.11935 -1.59551 0
M  V30 1700 H 169.68 -0.656016 -3.05128 0
M  V30 1701 N 169.982 1.44106 -0.638065 0
M  V30 1702 C 171.398 1.56672 -0.304286 0
M  V30 1703 C 171.598 1.6244 1.19228 0
M  V30 1704 O 170.654 1.57121 1.9766 0
M  V30 1705 C 171.967 2.83503 -1.00231 0
M  V30 1706 C 173.515 2.97226 -0.981116 0
M  V30 1707 C 173.99 4.26868 -1.65974 0
M  V30 1708 N 175.481 4.33698 -1.62666 0
M  V30 1709 C 176.216 5.32745 -2.12063 0
M  V30 1710 N 175.712 6.38157 -2.6968 0
M  V30 1711 N 177.505 5.24299 -2.02651 0
M  V30 1712 H 169.656 1.38605 -1.60942 0
M  V30 1713 H 171.919 0.664661 -0.675965 0
M  V30 1714 H 171.625 2.85251 -2.0573 0
M  V30 1715 H 171.499 3.73251 -0.54439 0
M  V30 1716 H 173.886 2.95027 0.0654188 0
M  V30 1717 H 173.967 2.08808 -1.47759 0
M  V30 1718 H 173.611 4.29826 -2.70576 0
M  V30 1719 H 173.541 5.14156 -1.13804 0
M  V30 1720 H 176.032 3.58138 -1.20606 0
M  V30 1721 H 176.345 7.10029 -3.05087 0
M  V30 1722 H 174.69 6.38823 -2.73734 0
M  V30 1723 H 177.881 4.4086 -1.57353 0
M  V30 1724 H 178.054 6.01334 -2.41457 0
M  V30 1725 N 171.46 0.379036 1.52974 0
M  V30 1726 C 172.871 -0.0972525 1.86447 0
M  V30 1727 C 173.222 -1.47027 1.29914 0
M  V30 1728 O 172.347 -2.07135 0.626433 0
M  V30 1729 C 172.942 -0.183248 3.38304 0
M  V30 1730 C 171.501 -0.603812 3.71525 0
M  V30 1731 C 170.648 0.240632 2.76254 0
M  V30 1732 H 173.599 0.597316 1.4703 0
M  V30 1733 H 173.62 -1.00432 3.67006 0
M  V30 1734 H 173.132 0.816191 3.79421 0
M  V30 1735 H 171.233 -1.61099 3.35973 0
M  V30 1736 H 171.346 -0.369086 4.77676 0
M  V30 1737 H 169.71 -0.292548 2.53014 0
M  V30 1738 H 170.493 1.23786 3.20206 0
M  V30 1739 N 172.938 -1.57226 0.108567 0
M  V30 1740 C 174.184 -1.95121 -0.552761 0
M  V30 1741 C 174.517 -0.991345 -1.66991 0
M  V30 1742 O 173.792 -0.0267211 -1.94482 0
M  V30 1743 C 174.075 -3.43039 -1.09528 0
M  V30 1744 C 173.928 -4.49797 0.0177332 0
M  V30 1745 C 175.247 -3.92567 -1.98945 0
M  V30 1746 H 172.366 -0.709496 -0.199461 0
M  V30 1747 H 175.008 -1.89126 0.182011 0
M  V30 1748 H 173.158 -3.48279 -1.72146 0
M  V30 1749 H 174.83 -4.56661 0.652584 0
M  V30 1750 H 173.073 -4.284 0.682309 0
M  V30 1751 H 173.744 -5.50528 -0.402919 0
M  V30 1752 H 176.22 -3.89565 -1.46214 0
M  V30 1753 H 175.096 -4.96605 -2.33827 0
M  V30 1754 H 175.357 -3.32648 -2.91201 0
M  V30 1755 N 174.416 0.165178 -1.56732 0
M  V30 1756 C 175.326 1.22423 -2.00125 0
M  V30 1757 C 176.342 1.48084 -0.913619 0
M  V30 1758 O 177.518 1.60112 -1.22172 0
M  V30 1759 C 174.583 2.54197 -2.35764 0
M  V30 1760 C 173.644 2.36343 -3.58386 0
M  V30 1761 C 172.877 3.61834 -3.92316 0
M  V30 1762 O 173.1 4.67267 -3.27135 0
M  V30 1763 O 172.034 3.55579 -4.85641 0
M  V30 1764 H 175.86 0.885886 -2.90492 0
M  V30 1765 H 173.445 0.372518 -1.44681 0
M  V30 1766 H 175.327 3.3192 -2.59629 0
M  V30 1767 H 174.002 2.87598 -1.48557 0
M  V30 1768 H 172.909 1.56632 -3.39731 0
M  V30 1769 H 174.242 2.07865 -4.46154 0
M  V30 1770 N 175.894 1.51508 0.433938 0
M  V30 1771 C 177.14 1.64588 1.18484 0
M  V30 1772 C 177.473 0.362666 1.90784 0
M  V30 1773 O 176.748 -0.637892 1.83742 0
M  V30 1774 C 177.031 2.85149 2.19913 0
M  V30 1775 C 176.884 4.23456 1.51674 0
M  V30 1776 C 178.203 3.01227 3.20858 0
M  V30 1777 H 175.322 0.598994 0.429389 0
M  V30 1778 H 177.964 1.84002 0.473647 0
M  V30 1779 H 176.114 2.68729 2.80566 0
M  V30 1780 H 177.786 4.51552 0.943322 0
M  V30 1781 H 176.029 4.25998 0.819035 0
M  V30 1782 H 176.7 5.03812 2.2556 0
M  V30 1783 H 179.176 3.16382 2.70263 0
M  V30 1784 H 178.052 3.87141 3.89118 0
M  V30 1785 H 178.313 2.13447 3.8716 0
M  V30 1786 N 177.372 -0.689602 1.41712 0
M  V30 1787 C 178.621 -1.44534 1.40686 0
M  V30 1788 C 178.934 -1.95588 0.0213352 0
M  V30 1789 O 180.14 -2.71271 -0.111534 0
M  V30 1790 C 178.596 -2.61387 2.47396 0
M  V30 1791 C 178.204 -2.17094 3.91885 0
M  V30 1792 C 179.948 -3.38986 2.55517 0
M  V30 1793 C 177.855 -3.3094 4.90135 0
M  V30 1794 H 176.785 -0.542925 0.52321 0
M  V30 1795 H 179.436 -0.748054 1.6756 0
M  V30 1796 H 177.818 -3.33412 2.13664 0
M  V30 1797 H 178.992 -1.52318 4.34897 0
M  V30 1798 H 177.307 -1.52473 3.8748 0
M  V30 1799 H 179.904 -4.23747 3.26102 0
M  V30 1800 H 180.247 -3.84578 1.59391 0
M  V30 1801 H 180.78 -2.74021 2.8837 0
M  V30 1802 H 177.519 -2.90355 5.87685 0
M  V30 1803 H 177.039 -3.94546 4.51767 0
M  V30 1804 H 178.718 -3.9663 5.11169 0
M  V30 1805 N 178.85 -1.27639 -0.924453 0
M  V30 1806 C 179.798 -1.10485 -2.04685 0
M  V30 1807 C 180.792 -0.0270421 -1.69378 0
M  V30 1808 O 181.998 -0.185008 -1.79047 0
M  V30 1809 H 178.373 -0.340546 -0.670472 0
M  V30 1810 H 180.344 -2.05566 -2.16298 0
M  V30 1811 C 179.093 -0.772229 -3.39016 0
M  V30 1812 H 178.416 -1.59351 -3.66671 0
M  V30 1813 H 179.856 -0.692097 -4.18313 0
M  V30 1814 C 178.315 0.523554 -3.32807 0
M  V30 1815 O 178.845 1.55702 -3.70297 0
M  V30 1816 N 177.051 0.520363 -2.85903 0
M  V30 1817 H 176.598 -0.32107 -2.55591 0
M  V30 1818 H 176.556 1.38742 -2.82131 0
M  V30 1819 N 180.328 1.1314 -1.09713 0
M  V30 1820 C 181.605 1.80762 -0.747302 0
M  V30 1821 C 181.985 1.96663 0.767265 0
M  V30 1822 O 181.333 1.53706 1.69076 0
M  V30 1823 C 181.543 3.15606 -1.48975 0
M  V30 1824 C 182.891 3.90914 -1.65746 0
M  V30 1825 O 183.915 3.25239 -1.45251 0
M  V30 1826 O 182.774 5.08718 -1.9967 0
M  V30 1827 H 179.868 0.782103 -0.268782 0
M  V30 1828 H 182.414 1.20041 -1.19951 0
M  V30 1829 H 181.186 2.99278 -2.52088 0
M  V30 1830 H 180.809 3.84029 -1.02991 0
M  V30 1831 N 181.806 0.884767 1.30421 0
M  V30 1832 C 182.769 0.356277 2.26414 0
M  V30 1833 C 183.769 -0.501124 1.52792 0
M  V30 1834 O 184.959 -0.30831 1.7145 0
M  V30 1835 C 182.091 -0.492316 3.37326 0
M  V30 1836 H 183.284 1.20389 2.74675 0
M  V30 1837 H 180.837 0.661607 1.41607 0
M  V30 1838 H 181.572 -1.36052 2.94381 0
M  V30 1839 H 181.357 0.121832 3.91911 0
M  V30 1840 H 182.847 -0.853871 4.08777 0
M  V30 1841 N 183.284 -1.43765 0.645699 0
M  V30 1842 C 184.561 -1.9541 0.0862963 0
M  V30 1843 C 184.941 -1.58725 -1.39175 0
M  V30 1844 O 184.289 -0.868581 -2.11348 0
M  V30 1845 C 184.499 -3.47488 0.324565 0
M  V30 1846 C 185.847 -4.24001 0.225497 0
M  V30 1847 O 186.871 -3.55274 0.256715 0
M  V30 1848 O 185.73 -5.46313 0.142801 0
M  V30 1849 H 182.824 -0.826882 -0.0139483 0
M  V30 1850 H 185.37 -1.53743 0.718415 0
M  V30 1851 H 184.142 -3.67289 1.3496 0
M  V30 1852 H 183.765 -3.96135 -0.340987 0
M  V30 1853 N 184.763 -0.387143 -1.52771 0
M  V30 1854 C 185.726 0.436939 -2.24997 0
M  V30 1855 C 186.726 0.991991 -1.26555 0
M  V30 1856 O 187.916 0.874335 -1.50669 0
M  V30 1857 C 185.048 1.61281 -3.00335 0
M  V30 1858 H 186.241 -0.195365 -2.99263 0
M  V30 1859 H 183.794 -0.139218 -1.55679 0
M  V30 1860 H 184.529 2.2826 -2.30364 0
M  V30 1861 H 184.314 1.22154 -3.72587 0
M  V30 1862 H 185.804 2.19629 -3.5518 0
M  V30 1863 N 186.241 1.57166 -0.116904 0
M  V30 1864 C 187.204 2.14039 0.819742 0
M  V30 1865 C 188.204 1.07477 1.19605 0
M  V30 1866 O 189.394 1.33263 1.1219 0
M  V30 1867 C 186.526 2.67891 2.10826 0
M  V30 1868 H 187.719 2.98128 0.325511 0
M  V30 1869 H 185.272 1.55739 0.132312 0
M  V30 1870 H 186.007 1.87384 2.64685 0
M  V30 1871 H 185.792 3.45823 1.84793 0
M  V30 1872 H 187.282 3.11809 2.77785 0
M  V30 1873 N 187.719 -0.156864 1.56817 0
M  V30 1874 C 188.967 -0.869404 1.82444 0
M  V30 1875 C 189.288 -1.82147 0.69623 0
M  V30 1876 O 188.558 -1.93847 -0.28287 0
M  V30 1877 H 187.138 -0.324043 0.673056 0
M  V30 1878 H 189.8 -0.153224 1.94297 0
M  V30 1879 H 188.896 -1.43761 2.77019 0
M  V30 1880 N 189.197 -1.51736 -0.425897 0
M  V30 1881 C 190.127 -1.76827 -1.52494 0
M  V30 1882 C 191.108 -0.618524 -1.58456 0
M  V30 1883 O 192.293 -0.862416 -1.74 0
M  V30 1884 C 189.423 -1.90374 -2.90474 0
M  V30 1885 C 188.377 -3.0588 -2.99369 0
M  V30 1886 C 187.703 -3.04625 -4.3944 0
M  V30 1887 C 189.003 -4.45644 -2.72394 0
M  V30 1888 H 190.697 -2.68855 -1.31748 0
M  V30 1889 H 188.243 -1.29372 -0.632362 0
M  V30 1890 H 190.196 -2.0651 -3.6733 0
M  V30 1891 H 188.92 -0.95004 -3.12477 0
M  V30 1892 H 187.579 -2.89467 -2.24954 0
M  V30 1893 H 187.227 -2.0701 -4.58428 0
M  V30 1894 H 186.927 -3.82195 -4.46319 0
M  V30 1895 H 188.451 -3.22869 -5.18255 0
M  V30 1896 H 189.865 -4.62348 -3.38979 0
M  V30 1897 H 188.262 -5.25006 -2.9067 0
M  V30 1898 H 189.332 -4.54893 -1.67929 0
M  V30 1899 N 190.675 0.682077 -1.42076 0
M  V30 1900 C 191.638 1.77756 -1.44691 0
M  V30 1901 C 192.638 1.5726 -0.335535 0
M  V30 1902 O 193.828 1.63686 -0.596037 0
M  V30 1903 C 190.96 3.16301 -1.27146 0
M  V30 1904 H 192.153 1.76826 -2.42224 0
M  V30 1905 H 189.706 0.891012 -1.28416 0
M  V30 1906 H 190.441 3.22862 -0.305075 0
M  V30 1907 H 190.226 3.32581 -2.07683 0
M  V30 1908 H 191.716 3.96241 -1.31843 0
M  V30 1909 N 192.153 1.28127 0.917671 0
M  V30 1910 C 193.063 1.13556 2.05286 0
M  V30 1911 C 194.079 0.0630914 1.73886 0
M  V30 1912 O 195.255 0.271598 1.9956 0
M  V30 1913 C 192.32 0.794676 3.3747 0
M  V30 1914 C 191.381 1.94909 3.82504 0
M  V30 1915 C 190.614 1.62437 5.0838 0
M  V30 1916 O 190.837 0.536905 5.67867 0
M  V30 1917 O 189.771 2.46677 5.4903 0
M  V30 1918 H 193.597 2.08844 2.20495 0
M  V30 1919 H 191.182 1.07409 1.03845 0
M  V30 1920 H 193.064 0.618344 4.16839 0
M  V30 1921 H 191.739 -0.128581 3.23445 0
M  V30 1922 H 190.646 2.18055 3.03978 0
M  V30 1923 H 191.979 2.85291 4.01086 0
M  V30 1924 N 193.631 -1.12557 1.10312 0
M  V30 1925 C 194.594 -2.16434 0.75424 0
M  V30 1926 C 195.594 -1.59278 -0.220685 0
M  V30 1927 O 196.784 -1.742 0.00230591 0
M  V30 1928 C 193.916 -3.40699 0.116987 0
M  V30 1929 H 195.109 -2.48811 1.67431 0
M  V30 1930 H 192.662 -1.27542 0.903475 0
M  V30 1931 H 193.397 -3.13921 -0.813877 0
M  V30 1932 H 193.182 -3.83459 0.818613 0
M  V30 1933 H 194.672 -4.17451 -0.111387 0
M  V30 1934 N 195.109 -0.891671 -1.2995 0
M  V30 1935 C 196.525 -0.58662 -1.48428 0
M  V30 1936 C 196.725 0.873951 -1.81561 0
M  V30 1937 O 195.781 1.65471 -1.90724 0
M  V30 1938 C 197.094 -1.50553 -2.60296 0
M  V30 1939 C 198.642 -1.50988 -2.74175 0
M  V30 1940 C 199.117 -2.41488 -3.89163 0
M  V30 1941 N 200.608 -2.39489 -3.96483 0
M  V30 1942 C 201.343 -3.06223 -4.84784 0
M  V30 1943 N 200.839 -3.82206 -5.77833 0
M  V30 1944 N 202.632 -2.95421 -4.78208 0
M  V30 1945 H 194.783 -1.83644 -1.06718 0
M  V30 1946 H 197.046 -0.786455 -0.529332 0
M  V30 1947 H 196.752 -2.54581 -2.42654 0
M  V30 1948 H 196.626 -1.22008 -3.56923 0
M  V30 1949 H 199.013 -0.47708 -2.91218 0
M  V30 1950 H 199.094 -1.83567 -1.78148 0
M  V30 1951 H 198.738 -3.44857 -3.72876 0
M  V30 1952 H 198.668 -2.06222 -4.84541 0
M  V30 1953 H 201.159 -1.84278 -3.29924 0
M  V30 1954 H 201.472 -4.302 -6.41988 0
M  V30 1955 H 199.817 -3.86313 -5.77743 0
M  V30 1956 H 203.008 -2.35581 -4.04499 0
M  V30 1957 H 203.181 -3.47704 -5.46814 0
M  V30 1958 N 196.587 1.43421 -0.653314 0
M  V30 1959 C 197.817 2.05864 -0.174238 0
M  V30 1960 C 198.225 1.49052 1.16534 0
M  V30 1961 O 197.568 0.616481 1.73047 0
M  V30 1962 C 197.63 3.59499 -0.00875873 0
M  V30 1963 C 197.294 4.38893 -1.27364 0
M  V30 1964 C 198.291 4.70947 -2.20239 0
M  V30 1965 C 195.976 4.789 -1.51525 0
M  V30 1966 C 197.97 5.41916 -3.35568 0
M  V30 1967 C 195.657 5.49614 -2.67147 0
M  V30 1968 C 196.655 5.81044 -3.58994 0
M  V30 1969 O 196.343 6.50313 -4.72597 0
M  V30 1970 H 196.075 0.670345 -0.0872549 0
M  V30 1971 H 198.629 1.84913 -0.894226 0
M  V30 1972 H 196.859 3.79025 0.7666 0
M  V30 1973 H 198.548 4.0364 0.427687 0
M  V30 1974 H 199.314 4.40558 -2.02815 0
M  V30 1975 H 195.193 4.53843 -0.809158 0
M  V30 1976 H 198.737 5.66365 -4.07279 0
M  V30 1977 H 194.634 5.79419 -2.84505 0
M  V30 1978 H 195.402 6.68795 -4.71864 0
M  V30 1979 N 198.065 0.39524 1.52563 0
M  V30 1980 C 199.313 -0.184678 2.01254 0
M  V30 1981 C 199.634 -1.46822 1.28329 0
M  V30 1982 O 198.904 -1.91666 0.405094 0
M  V30 1983 H 197.484 -0.0712355 0.743596 0
M  V30 1984 H 200.146 0.528293 1.87603 0
M  V30 1985 H 199.242 -0.390681 3.09645 0
M  V30 1986 N 199.544 -1.57102 0.125237 0
M  V30 1987 C 200.507 -2.14471 -0.80838 0
M  V30 1988 C 201.507 -1.0811 -1.19033 0
M  V30 1989 O 202.697 -1.33856 -1.11482 0
M  V30 1990 C 199.829 -2.69005 -2.09402 0
M  V30 1991 H 201.022 -2.98297 -0.309696 0
M  V30 1992 H 198.575 -1.55807 -0.124051 0
M  V30 1993 H 199.31 -1.88785 -2.63687 0
M  V30 1994 H 199.095 -3.46799 -1.82957 0
M  V30 1995 H 200.585 -3.13278 -2.76128 0
M  V30 1996 N 201.022 0.148545 -1.56898 0
M  V30 1997 C 202.27 0.859717 -1.82902 0
M  V30 1998 C 202.591 1.81775 -0.70588 0
M  V30 1999 O 201.861 1.93994 0.272586 0
M  V30 2000 H 200.441 0.320469 -0.674766 0
M  V30 2001 H 203.103 0.142918 -1.94375 0
M  V30 2002 H 202.199 1.4229 -2.77777 0
M  V30 2003 N 202.5 1.5196 0.417844 0
M  V30 2004 C 203.463 1.74065 1.49111 0
M  V30 2005 C 204.463 0.610537 1.48758 0
M  V30 2006 O 205.653 0.87832 1.50437 0
M  V30 2007 C 202.785 1.81502 2.88565 0
M  V30 2008 H 203.978 2.69869 1.30807 0
M  V30 2009 H 201.531 1.42244 0.647785 0
M  V30 2010 H 202.266 0.875813 3.1225 0
M  V30 2011 H 202.051 2.63651 2.90225 0
M  V30 2012 H 203.541 2.00376 3.66387 0
M  V30 2013 N 203.978 -0.674533 1.42435 0
M  V30 2014 C 205.226 -1.43175 1.42637 0
M  V30 2015 C 205.547 -1.94951 0.0438992 0
M  V30 2016 O 204.817 -1.7308 -0.917607 0
M  V30 2017 H 203.397 -0.531307 0.525092 0
M  V30 2018 H 206.059 -0.797006 1.77859 0
M  V30 2019 H 205.155 -2.28463 2.12629 0
M  V30 2020 N 205.456 -1.28612 -0.910864 0
M  V30 2021 C 206.702 -1.16106 -1.66274 0
M  V30 2022 C 207.035 0.289113 -1.92036 0
M  V30 2023 O 206.31 1.21 -1.52281 0
M  V30 2024 C 206.593 -1.96309 -3.01885 0
M  V30 2025 C 206.446 -3.49405 -2.8326 0
M  V30 2026 C 207.765 -1.78076 -4.02463 0
M  V30 2027 H 204.884 -0.423152 -0.603417 0
M  V30 2028 H 207.526 -1.57961 -1.05586 0
M  V30 2029 H 205.676 -1.60742 -3.53687 0
M  V30 2030 H 207.348 -3.94894 -2.38446 0
M  V30 2031 H 205.591 -3.74893 -2.18261 0
M  V30 2032 H 206.262 -4.00784 -3.79574 0
M  V30 2033 H 208.738 -2.0912 -3.59733 0
M  V30 2034 H 207.614 -2.36561 -4.95308 0
M  V30 2035 H 207.875 -0.733008 -4.35981 0
M  V30 2036 N 206.934 1.1197 -1.10907 0
M  V30 2037 C 207.881 2.17846 -0.762345 0
M  V30 2038 C 208.851 1.63995 0.263599 0
M  V30 2039 O 210.036 1.90273 0.141773 0
M  V30 2040 C 207.176 3.44487 -0.205651 0
M  V30 2041 C 206.289 4.12369 -1.28748 0
M  V30 2042 C 205.424 5.26674 -0.691919 0
M  V30 2043 C 204.463 5.86431 -1.75399 0
M  V30 2044 N 203.6 6.92142 -1.17833 0
M  V30 2045 H 208.44 2.46851 -1.6694 0
M  V30 2046 H 205.977 1.21188 -0.833776 0
M  V30 2047 H 207.935 4.16981 0.135037 0
M  V30 2048 H 206.565 3.15884 0.664613 0
M  V30 2049 H 205.617 3.38003 -1.74522 0
M  V30 2050 H 206.929 4.52844 -2.09125 0
M  V30 2051 H 206.083 6.05953 -0.300963 0
M  V30 2052 H 204.822 4.8749 0.143232 0
M  V30 2053 H 203.827 5.05835 -2.15432 0
M  V30 2054 H 205.052 6.27685 -2.59208 0
M  V30 2055 H 202.998 6.54985 -0.364725 0
M  V30 2056 H 202.915 7.31242 -1.91887 0
M  V30 2057 H 204.183 7.75237 -0.81408 0
M  V30 2058 N 208.412 0.89855 1.29475 0
M  V30 2059 C 209.66 0.522847 1.9522 0
M  V30 2060 C 209.981 -0.93371 1.71192 0
M  V30 2061 O 209.251 -1.65823 1.04305 0
M  V30 2062 H 207.831 0.190366 0.722336 0
M  V30 2063 H 210.493 1.14459 1.5775 0
M  V30 2064 H 209.589 0.704476 3.04045 0
M  V30 2065 N 209.89 -1.43072 0.660911 0
M  V30 2066 C 211.118 -2.06067 0.185422 0
M  V30 2067 C 211.533 -1.49582 -1.15198 0
M  V30 2068 O 210.89 -0.630134 -1.71276 0
M  V30 2069 C 210.941 -3.61371 0.0966523 0
M  V30 2070 O 210.662 -4.15758 1.38119 0
M  V30 2071 C 212.163 -4.41455 -0.403996 0
M  V30 2072 H 209.383 -0.664459 0.0934604 0
M  V30 2073 H 211.927 -1.83447 0.90373 0
M  V30 2074 H 210.082 -3.8315 -0.572259 0
M  V30 2075 H 210.496 -5.09499 1.24542 0
M  V30 2076 H 211.97 -5.50437 -0.415045 0
M  V30 2077 H 212.447 -4.15036 -1.43674 0
M  V30 2078 H 213.053 -4.24663 0.232691 0
M  V30 2079 N 211.368 -0.403325 -1.52352 0
M  V30 2080 C 212.614 0.174605 -2.02047 0
M  V30 2081 C 212.947 1.45282 -1.28867 0
M  V30 2082 O 212.222 1.90483 -0.393257 0
M  V30 2083 C 212.505 0.428238 -3.57545 0
M  V30 2084 C 212.358 -0.866248 -4.4138 0
M  V30 2085 C 213.677 1.21287 -4.23057 0
M  V30 2086 H 210.796 0.0619851 -0.734389 0
M  V30 2087 H 213.438 -0.53565 -1.82293 0
M  V30 2088 H 211.588 1.03327 -3.74507 0
M  V30 2089 H 213.26 -1.50265 -4.3614 0
M  V30 2090 H 211.503 -1.47851 -4.07827 0
M  V30 2091 H 212.174 -0.643249 -5.48239 0
M  V30 2092 H 214.65 0.700703 -4.10158 0
M  V30 2093 H 213.526 1.35909 -5.31808 0
M  V30 2094 H 213.787 2.23193 -3.81625 0
M  V30 2095 N 212.846 1.57033 -0.133567 0
M  V30 2096 C 213.776 2.1909 0.807567 0
M  V30 2097 C 214.757 1.13517 1.26681 0
M  V30 2098 O 215.942 1.41809 1.32679 0
M  V30 2099 C 213.072 2.80188 2.05212 0
M  V30 2100 C 212.026 3.91471 1.73015 0
M  V30 2101 C 211.352 4.39443 3.04622 0
M  V30 2102 C 212.652 5.12886 0.987168 0
M  V30 2103 H 214.346 2.97988 0.290403 0
M  V30 2104 H 211.892 1.43335 0.138239 0
M  V30 2105 H 213.845 3.22264 2.71521 0
M  V30 2106 H 212.569 1.98601 2.59278 0
M  V30 2107 H 211.228 3.49993 1.0909 0
M  V30 2108 H 210.876 3.54695 3.56651 0
M  V30 2109 H 210.576 5.14495 2.83847 0
M  V30 2110 H 212.1 4.8418 3.72024 0
M  V30 2111 H 213.514 5.51891 1.55208 0
M  V30 2112 H 211.911 5.93615 0.87985 0
M  V30 2113 H 212.981 4.84894 -0.0235286 0
M  V30 2114 N 214.325 -0.140222 1.56975 0
M  V30 2115 C 215.571 -0.852949 1.83991 0
M  V30 2116 C 215.904 -1.80512 0.716187 0
M  V30 2117 O 215.179 -1.92479 -0.279681 0
M  V30 2118 C 215.462 -1.6215 3.21527 0
M  V30 2119 C 215.315 -0.690363 4.4447 0
M  V30 2120 C 216.634 -2.58247 3.56366 0
M  V30 2121 H 213.753 -0.308634 0.669264 0
M  V30 2122 H 216.395 -0.117898 1.89634 0
M  V30 2123 H 214.545 -2.24812 3.16847 0
M  V30 2124 H 216.217 -0.0742264 4.6124 0
M  V30 2125 H 214.46 -0.000396433 4.338 0
M  V30 2126 H 215.131 -1.2643 5.37326 0
M  V30 2127 H 217.607 -2.05701 3.61699 0
M  V30 2128 H 216.483 -3.09067 4.53617 0
M  V30 2129 H 216.744 -3.39923 2.82674 0
M  V30 2130 N 215.803 -1.52179 -0.40978 0
M  V30 2131 C 217.052 -1.65434 -1.15388 0
M  V30 2132 C 217.365 -0.390056 -1.91671 0
M  V30 2133 O 218.571 -0.402399 -2.68501 0
M  V30 2134 C 217.027 -2.92279 -2.10003 0
M  V30 2135 C 216.635 -4.25813 -1.39239 0
M  V30 2136 C 218.379 -3.14897 -2.84675 0
M  V30 2137 C 216.286 -5.43782 -2.32498 0
M  V30 2138 H 215.216 -0.616267 -0.434432 0
M  V30 2139 H 217.867 -1.78666 -0.418401 0
M  V30 2140 H 216.249 -2.72744 -2.871 0
M  V30 2141 H 217.423 -4.55828 -0.675099 0
M  V30 2142 H 215.738 -4.09292 -0.766097 0
M  V30 2143 H 218.335 -4.0021 -3.54593 0
M  V30 2144 H 218.678 -2.29103 -3.47588 0
M  V30 2145 H 219.211 -3.34901 -2.14677 0
M  V30 2146 H 215.95 -6.3192 -1.74233 0
M  V30 2147 H 215.47 -5.18106 -3.02201 0
M  V30 2148 H 217.149 -5.76834 -2.93038 0
M  V30 2149 N 217.281 0.66697 -1.42791 0
M  V30 2150 C 218.509 1.45505 -1.47091 0
M  V30 2151 C 218.924 1.8861 -0.0845873 0
M  V30 2152 O 218.281 1.58632 0.90234 0
M  V30 2153 C 218.332 2.69906 -2.40485 0
M  V30 2154 O 218.053 2.28608 -3.73725 0
M  V30 2155 C 219.554 3.63396 -2.53886 0
M  V30 2156 H 216.774 0.447459 -0.500022 0
M  V30 2157 H 219.318 0.818866 -1.8739 0
M  V30 2158 H 217.473 3.29696 -2.03419 0
M  V30 2159 H 217.887 3.08997 -4.23817 0
M  V30 2160 H 219.361 4.47387 -3.2334 0
M  V30 2161 H 219.838 4.09824 -1.57927 0
M  V30 2162 H 220.444 3.09495 -2.91706 0
M  V30 2163 N 218.759 1.29093 0.90403 0
M  V30 2164 C 219.689 1.16401 2.02418 0
M  V30 2165 C 220.67 0.0593085 1.69997 0
M  V30 2166 O 221.855 0.238021 1.92736 0
M  V30 2167 C 218.985 0.835233 3.37107 0
M  V30 2168 C 217.939 1.89578 3.83724 0
M  V30 2169 C 217.265 1.42041 5.15489 0
M  V30 2170 C 218.565 3.30394 4.04521 0
M  V30 2171 H 220.259 2.10109 2.13295 0
M  V30 2172 H 217.805 1.01157 1.02486 0
M  V30 2173 H 219.758 0.733169 4.14973 0
M  V30 2174 H 218.482 -0.137543 3.2631 0
M  V30 2175 H 217.141 1.98715 3.08071 0
M  V30 2176 H 216.789 0.436426 5.01103 0
M  V30 2177 H 216.489 2.12964 5.4765 0
M  V30 2178 H 218.013 1.33176 5.959 0
M  V30 2179 H 219.427 3.24123 4.72882 0
M  V30 2180 H 217.824 3.99237 4.48029 0
M  V30 2181 H 218.894 3.73692 3.09002 0
M  V30 2182 N 220.237 -1.11381 1.11499 0
M  V30 2183 C 221.485 -1.8277 0.862524 0
M  V30 2184 C 221.806 -1.85097 -0.613534 0
M  V30 2185 O 221.076 -1.32198 -1.4457 0
M  V30 2186 H 219.656 -0.676823 0.316101 0
M  V30 2187 H 222.318 -1.34816 1.4075 0
M  V30 2188 H 221.414 -2.86614 1.23527 0
M  V30 2189 N 221.715 -0.905404 -1.28997 0
M  V30 2190 C 222.943 -0.549846 -1.9946 0
M  V30 2191 C 223.358 0.866834 -1.67724 0
M  V30 2192 O 222.715 1.57298 -0.925404 0
M  V30 2193 C 222.766 -0.739387 -3.53858 0
M  V30 2194 O 222.487 -2.10031 -3.84472 0
M  V30 2195 C 223.988 -0.389541 -4.41585 0
M  V30 2196 H 221.208 -0.210429 -0.637151 0
M  V30 2197 H 223.752 -1.21632 -1.64396 0
M  V30 2198 H 221.907 -0.120023 -3.87214 0
M  V30 2199 H 222.321 -2.13385 -4.79132 0
M  V30 2200 H 223.795 -0.572972 -5.49018 0
M  V30 2201 H 224.272 0.673756 -4.34001 0
M  V30 2202 H 224.878 -0.986089 -4.1371 0
M  V30 2203 N 223.193 1.4272 -0.668489 0
M  V30 2204 C 224.441 2.01226 -0.187769 0
M  V30 2205 C 224.762 1.53092 1.2078 0
M  V30 2206 O 224.032 0.74993 1.80977 0
M  V30 2207 H 222.612 0.744041 -0.0664272 0
M  V30 2208 H 225.274 1.74723 -0.863583 0
M  V30 2209 H 224.37 3.11556 -0.184166 0
M  V30 2210 N 224.671 0.411399 1.52136 0
M  V30 2211 C 225.92 -0.165009 2.01024 0
M  V30 2212 C 226.233 -1.4603 1.30133 0
M  V30 2213 O 227.439 -2.1181 1.69849 0
M  V30 2214 C 225.895 -0.344618 3.58246 0
M  V30 2215 C 225.503 0.938716 4.38055 0
M  V30 2216 C 227.247 -0.876195 4.15359 0
M  V30 2217 C 225.154 0.726172 5.86925 0
M  V30 2218 H 224.084 -0.0654407 0.751155 0
M  V30 2219 H 226.735 0.537192 1.75461 0
M  V30 2220 H 225.117 -1.10921 3.80148 0
M  V30 2221 H 226.291 1.70963 4.27912 0
M  V30 2222 H 224.606 1.39688 3.92271 0
M  V30 2223 H 227.203 -1.05128 5.24263 0
M  V30 2224 H 227.546 -1.85152 3.7286 0
M  V30 2225 H 228.079 -0.170607 3.97434 0
M  V30 2226 H 224.818 1.67312 6.33788 0
M  V30 2227 H 224.338 -0.00540283 5.998 0
M  V30 2228 H 226.017 0.369231 6.45946 0
M  V30 2229 N 226.149 -1.5696 0.141893 0
M  V30 2230 C 227.397 -1.95573 -0.509484 0
M  V30 2231 C 227.718 -1.02746 -1.65736 0
M  V30 2232 O 226.988 -0.0880311 -1.95702 0
M  V30 2233 H 225.568 -0.722115 -0.191205 0
M  V30 2234 H 228.23 -1.93697 0.216196 0
M  V30 2235 H 227.326 -2.99171 -0.889 0
M  V30 2236 N 227.627 0.131896 -1.57047 0
M  V30 2237 C 228.852 0.860418 -1.8871 0
M  V30 2238 C 229.277 1.73251 -0.73251 0
M  V30 2239 O 228.635 1.785 0.317429 0
M  V30 2240 C 228.683 1.68047 -3.19049 0
M  V30 2241 O 227.787 2.7862 -3.04047 0
M  V30 2242 H 227.128 0.238743 -0.619595 0
M  V30 2243 H 229.658 0.118169 -2.04258 0
M  V30 2244 H 229.668 2.07238 -3.51449 0
M  V30 2245 H 228.343 1.04018 -4.02682 0
M  V30 2246 H 226.92 2.42726 -2.83088 0
M  V30 2247 N 229.106 1.52395 0.401703 0
M  V30 2248 C 230.069 1.75636 1.47257 0
M  V30 2249 C 231.069 0.62628 1.48103 0
M  V30 2250 O 232.259 0.894227 1.49497 0
M  V30 2251 C 229.391 1.84553 2.86624 0
M  V30 2252 H 230.584 2.71241 1.27938 0
M  V30 2253 H 228.137 1.42923 0.632662 0
M  V30 2254 H 228.872 0.908882 3.11303 0
M  V30 2255 H 228.657 2.66715 2.87412 0
M  V30 2256 H 230.147 2.04251 3.64241 0
M  V30 2257 N 230.584 -0.659388 1.43143 0
M  V30 2258 C 231.831 -1.41935 1.44433 0
M  V30 2259 C 232.159 -1.94387 0.0663522 0
M  V30 2260 O 231.414 -1.72314 -0.927706 0
M  V30 2261 C 231.713 -2.62206 2.42864 0
M  V30 2262 C 231.379 -2.28208 3.88886 0
M  V30 2263 C 230.041 -2.18647 4.28657 0
M  V30 2264 C 232.393 -2.00887 4.8093 0
M  V30 2265 C 229.721 -1.79914 5.58433 0
M  V30 2266 C 232.073 -1.63653 6.11065 0
M  V30 2267 C 230.737 -1.52614 6.49819 0
M  V30 2268 H 230.007 -0.519376 0.528517 0
M  V30 2269 H 232.654 -0.750453 1.76183 0
M  V30 2270 H 230.959 -3.34199 2.04495 0
M  V30 2271 H 232.656 -3.2041 2.41119 0
M  V30 2272 H 229.246 -2.36557 3.57406 0
M  V30 2273 H 233.43 -2.07198 4.5098 0
M  V30 2274 H 228.686 -1.69948 5.87305 0
M  V30 2275 H 232.86 -1.41543 6.81864 0
M  V30 2276 H 230.487 -1.22371 7.50286 0
M  V30 2277 N 232.062 -1.29571 -0.897171 0
M  V30 2278 C 233.311 -1.1706 -1.64256 0
M  V30 2279 C 233.624 0.276476 -1.93636 0
M  V30 2280 O 234.83 0.52294 -2.66416 0
M  V30 2281 C 233.286 -2.0475 -2.95982 0
M  V30 2282 C 232.894 -3.54295 -2.74187 0
M  V30 2283 C 234.638 -2.0097 -3.73914 0
M  V30 2284 C 232.545 -4.34081 -4.01656 0
M  V30 2285 H 231.475 -0.43452 -0.616205 0
M  V30 2286 H 234.126 -1.54229 -0.994268 0
M  V30 2287 H 232.508 -1.60452 -3.62038 0
M  V30 2288 H 233.682 -4.06662 -2.1671 0
M  V30 2289 H 231.997 -3.59773 -2.09648 0
M  V30 2290 H 234.594 -2.57838 -4.68427 0
M  V30 2291 H 234.937 -0.990273 -4.0435 0
M  V30 2292 H 235.47 -2.43325 -3.14703 0
M  V30 2293 H 232.209 -5.36671 -3.76384 0
M  V30 2294 H 231.729 -3.86483 -4.58684 0
M  V30 2295 H 233.408 -4.44877 -4.69781 0
M  V30 2296 N 233.54 1.10788 -1.12088 0
M  V30 2297 C 234.787 1.82671 -0.873931 0
M  V30 2298 C 235.115 1.85004 0.600311 0
M  V30 2299 O 234.37 1.30365 1.45957 0
M  V30 2300 C 234.669 3.29294 -1.38926 0
M  V30 2301 C 234.335 3.47113 -2.87791 0
M  V30 2302 C 232.997 3.51684 -3.28439 0
M  V30 2303 C 235.349 3.52808 -3.83635 0
M  V30 2304 C 232.677 3.59513 -4.63646 0
M  V30 2305 C 235.029 3.62169 -5.18668 0
M  V30 2306 C 233.693 3.65003 -5.58864 0
M  V30 2307 H 232.963 0.668441 -0.319794 0
M  V30 2308 H 235.61 1.30613 -1.40045 0
M  V30 2309 H 233.915 3.83894 -0.783122 0
M  V30 2310 H 235.612 3.83416 -1.17443 0
M  V30 2311 H 232.202 3.4423 -2.5535 0
M  V30 2312 H 236.386 3.4853 -3.53328 0
M  V30 2313 H 231.642 3.59987 -4.94185 0
M  V30 2314 H 235.816 3.6552 -5.92763 0
M  V30 2315 H 233.443 3.70822 -6.63623 0
M  V30 2316 N 235.018 0.912232 1.28515 0
M  V30 2317 C 236.295 0.463597 1.90027 0
M  V30 2318 C 236.675 -1.05753 1.82701 0
M  V30 2319 O 236.023 -1.90492 1.26194 0
M  V30 2320 C 236.233 0.992253 3.34597 0
M  V30 2321 C 237.581 1.04344 4.11579 0
M  V30 2322 O 238.605 0.94079 3.43551 0
M  V30 2323 O 237.464 1.1995 5.33174 0
M  V30 2324 H 234.558 0.146666 0.813891 0
M  V30 2325 H 237.104 1.00292 1.36893 0
M  V30 2326 H 235.876 2.03623 3.34146 0
M  V30 2327 H 235.499 0.433672 3.95228 0
M  V30 2328 N 236.496 -1.42363 0.676048 0
M  V30 2329 C 237.744 -2.01123 0.198437 0
M  V30 2330 C 238.065 -1.53731 -1.19966 0
M  V30 2331 O 237.335 -0.759518 -1.80577 0
M  V30 2332 H 235.915 -0.743678 0.0703721 0
M  V30 2333 H 238.577 -1.74263 0.872837 0
M  V30 2334 H 237.673 -3.11454 0.200686 0
M  V30 2335 N 237.974 -0.419461 -1.51915 0
M  V30 2336 C 238.921 0.400927 -2.27291 0
M  V30 2337 C 239.891 1.03224 -1.30131 0
M  V30 2338 O 241.076 1.05455 -1.59009 0
M  V30 2339 C 238.216 1.50603 -3.10504 0
M  V30 2340 C 237.329 0.89462 -4.22635 0
M  V30 2341 C 236.464 1.97328 -4.93189 0
M  V30 2342 C 235.503 1.33935 -5.97267 0
M  V30 2343 N 234.64 2.3586 -6.61298 0
M  V30 2344 H 239.48 -0.248251 -2.96964 0
M  V30 2345 H 237.017 -0.134266 -1.46486 0
M  V30 2346 H 238.975 2.15783 -3.57062 0
M  V30 2347 H 237.605 2.12509 -2.42981 0
M  V30 2348 H 236.657 0.131583 -3.80172 0
M  V30 2349 H 237.969 0.391641 -4.9726 0
M  V30 2350 H 237.123 2.70211 -5.43204 0
M  V30 2351 H 235.862 2.50994 -4.18155 0
M  V30 2352 H 234.867 0.595896 -5.46561 0
M  V30 2353 H 236.092 0.810252 -6.74249 0
M  V30 2354 H 234.038 2.88639 -5.89087 0
M  V30 2355 H 233.955 1.90403 -7.3163 0
M  V30 2356 H 235.223 3.08282 -7.15949 0
M  V30 2357 N 239.452 1.56882 -0.150215 0
M  V30 2358 C 240.382 2.19935 0.784284 0
M  V30 2359 C 241.363 1.14854 1.25469 0
M  V30 2360 O 242.548 1.43209 1.31168 0
M  V30 2361 C 239.678 2.82349 2.02229 0
M  V30 2362 C 238.632 3.93285 1.68853 0
M  V30 2363 C 237.958 4.42649 2.99944 0
M  V30 2364 C 239.258 5.13904 0.932714 0
M  V30 2365 H 240.952 2.9828 0.258781 0
M  V30 2366 H 238.498 1.43473 0.123029 0
M  V30 2367 H 240.451 3.25126 2.68088 0
M  V30 2368 H 239.175 2.0134 2.57157 0
M  V30 2369 H 237.834 3.5113 1.05371 0
M  V30 2370 H 237.482 3.58458 3.52869 0
M  V30 2371 H 237.182 5.17476 2.78374 0
M  V30 2372 H 238.706 4.88099 3.66868 0
M  V30 2373 H 240.12 5.53506 1.49345 0
M  V30 2374 H 238.517 5.94515 0.81684 0
M  V30 2375 H 239.587 4.84842 -0.0749568 0
M  V30 2376 N 240.93 -0.123565 1.57115 0
M  V30 2377 C 242.176 -0.833386 1.84885 0
M  V30 2378 C 242.509 -1.79742 0.735292 0
M  V30 2379 O 241.784 -1.92764 -0.25925 0
M  V30 2380 C 242.067 -1.5873 3.23228 0
M  V30 2381 C 241.92 -0.643183 4.45178 0
M  V30 2382 C 243.239 -2.54453 3.59085 0
M  V30 2383 H 240.358 -0.301518 0.6725 0
M  V30 2384 H 243 -0.097778 1.89748 0
M  V30 2385 H 241.15 -2.21438 3.19214 0
M  V30 2386 H 242.822 -0.0253015 4.61293 0
M  V30 2387 H 241.065 0.0456139 4.33776 0
M  V30 2388 H 241.736 -1.20724 5.38637 0
M  V30 2389 H 244.212 -2.01853 3.63861 0
M  V30 2390 H 243.088 -3.04238 4.5687 0
M  V30 2391 H 243.349 -3.36906 2.86264 0
M  V30 2392 N 242.408 -1.52605 -0.393616 0
M  V30 2393 C 243.819 -1.59417 -0.971761 0
M  V30 2394 C 244.17 -0.444173 -1.91106 0
M  V30 2395 O 243.295 0.433382 -2.12016 0
M  V30 2396 C 243.89 -2.88936 -1.76921 0
M  V30 2397 C 242.449 -2.98175 -2.29714 0
M  V30 2398 C 241.596 -2.54491 -1.10135 0
M  V30 2399 H 244.547 -1.57751 -0.173317 0
M  V30 2400 H 244.568 -2.75163 -2.62804 0
M  V30 2401 H 244.08 -3.72616 -1.08532 0
M  V30 2402 H 242.181 -2.19024 -3.01429 0
M  V30 2403 H 242.294 -4.02726 -2.59517 0
M  V30 2404 H 240.658 -2.08702 -1.45999 0
M  V30 2405 H 241.441 -3.4056 -0.432874 0
M  V30 2406 N 243.887 0.651787 -1.4349 0
M  V30 2407 C 244.835 1.78586 -1.49029 0
M  V30 2408 C 245.829 1.65448 -0.363767 0
M  V30 2409 O 247.035 1.71777 -0.537821 0
M  V30 2410 H 243.41 0.589236 -0.467231 0
M  V30 2411 H 245.381 1.71035 -2.44519 0
M  V30 2412 C 244.13 3.16851 -1.43181 0
M  V30 2413 H 243.453 3.27598 -2.29171 0
M  V30 2414 H 244.893 3.96156 -1.51118 0
M  V30 2415 C 243.352 3.36568 -0.149616 0
M  V30 2416 O 243.882 3.93885 0.788509 0
M  V30 2417 N 242.088 2.90539 -0.0593484 0
M  V30 2418 H 241.635 2.4408 -0.823575 0
M  V30 2419 H 241.593 3.04108 0.797853 0
M  V30 2420 N 245.365 1.30045 0.890287 0
M  V30 2421 C 246.328 1.15963 1.977 0
M  V30 2422 C 247.328 0.0923777 1.60534 0
M  V30 2423 O 248.518 0.340071 1.70848 0
M  V30 2424 C 245.65 0.775451 3.31963 0
M  V30 2425 H 246.843 2.12502 2.11619 0
M  V30 2426 H 244.396 1.13366 1.07601 0
M  V30 2427 H 245.131 -0.189671 3.23745 0
M  V30 2428 H 244.916 1.54668 3.60306 0
M  V30 2429 H 246.406 0.700251 4.11687 0
M  V30 2430 N 246.843 -1.10192 1.12674 0
M  V30 2431 C 247.753 -2.20172 0.810026 0
M  V30 2432 C 248.769 -1.72821 -0.202188 0
M  V30 2433 O 249.945 -2.01369 -0.0351691 0
M  V30 2434 C 247.01 -3.45631 0.272007 0
M  V30 2435 C 246.071 -4.07704 1.34447 0
M  V30 2436 C 245.304 -5.27175 0.832029 0
M  V30 2437 O 245.527 -5.69425 -0.333284 0
M  V30 2438 O 244.461 -5.80168 1.60277 0
M  V30 2439 H 248.287 -2.49701 1.72867 0
M  V30 2440 H 245.872 -1.18977 0.903597 0
M  V30 2441 H 247.754 -4.21394 -0.0230219 0
M  V30 2442 H 246.429 -3.17723 -0.619164 0
M  V30 2443 H 245.336 -3.33614 1.6927 0
M  V30 2444 H 246.669 -4.3982 2.2095 0
M  V30 2445 N 248.321 -0.919034 -1.28029 0
M  V30 2446 C 249.251 -0.428581 -2.29533 0
M  V30 2447 C 250.232 0.50659 -1.62381 0
M  V30 2448 O 251.417 0.413195 -1.89753 0
M  V30 2449 C 248.547 0.327388 -3.45753 0
M  V30 2450 C 247.501 -0.519137 -4.2484 0
M  V30 2451 C 246.827 0.365486 -5.33449 0
M  V30 2452 C 248.127 -1.77914 -4.91064 0
M  V30 2453 H 249.821 -1.27687 -2.70807 0
M  V30 2454 H 247.367 -0.615428 -1.30186 0
M  V30 2455 H 249.32 0.681378 -4.15855 0
M  V30 2456 H 248.044 1.20963 -3.03374 0
M  V30 2457 H 246.703 -0.855717 -3.56473 0
M  V30 2458 H 246.351 1.24642 -4.87312 0
M  V30 2459 H 246.051 -0.197356 -5.87268 0
M  V30 2460 H 247.575 0.715241 -6.06396 0
M  V30 2461 H 248.989 -1.49374 -5.53498 0
M  V30 2462 H 247.386 -2.2848 -5.54903 0
M  V30 2463 H 248.456 -2.50382 -4.15255 0
M  V30 2464 N 249.799 1.42003 -0.683588 0
M  V30 2465 C 251.047 2.01015 -0.209101 0
M  V30 2466 C 251.368 1.54365 1.19149 0
M  V30 2467 O 250.638 0.769083 1.80172 0
M  V30 2468 H 249.218 0.743294 -0.074315 0
M  V30 2469 H 251.88 1.73798 -0.882066 0
M  V30 2470 H 250.976 3.11343 -0.2172 0
M  V30 2471 N 251.277 0.427512 1.51691 0
M  V30 2472 C 252.227 -0.406604 2.24345 0
M  V30 2473 C 253.211 -0.998276 1.26187 0
M  V30 2474 O 254.403 -0.918045 1.51331 0
M  V30 2475 C 251.532 -1.51266 3.08177 0
M  V30 2476 C 250.618 -0.930868 4.13758 0
M  V30 2477 N 251.009 -0.0773552 5.05741 0
M  V30 2478 C 249.307 -1.19948 4.29568 0
M  V30 2479 C 250.008 0.248344 5.8117 0
M  V30 2480 N 248.984 -0.365535 5.4237 0
M  V30 2481 H 252.786 0.251581 2.92821 0
M  V30 2482 H 250.3 0.239003 1.60632 0
M  V30 2483 H 252.297 -2.123 3.58796 0
M  V30 2484 H 250.957 -2.17328 2.41244 0
M  V30 2485 H 251.968 0.288351 5.17097 0
M  V30 2486 H 248.645 -1.85832 3.73862 0
M  V30 2487 H 250.035 0.942286 6.6526 0
M  V30 2488 N 252.755 -1.56801 0.158532 0
M  V30 2489 C 253.685 -2.20347 -0.772609 0
M  V30 2490 C 254.666 -1.15518 -1.24859 0
M  V30 2491 O 255.851 -1.43902 -1.30406 0
M  V30 2492 C 252.981 -2.83417 -2.00729 0
M  V30 2493 C 251.935 -3.94174 -1.66765 0
M  V30 2494 C 251.261 -4.44233 -2.97592 0
M  V30 2495 C 252.561 -5.14392 -0.905447 0
M  V30 2496 H 254.255 -2.98413 -0.242959 0
M  V30 2497 H 251.801 -1.43537 -0.115419 0
M  V30 2498 H 253.754 -3.26543 -2.6636 0
M  V30 2499 H 252.478 -2.02701 -2.56086 0
M  V30 2500 H 251.137 -3.51684 -1.03508 0
M  V30 2501 H 250.785 -3.60325 -3.50963 0
M  V30 2502 H 250.485 -5.18945 -2.75626 0
M  V30 2503 H 252.009 -4.90037 -3.64274 0
M  V30 2504 H 253.423 -5.5429 -1.46408 0
M  V30 2505 H 251.82 -5.9494 -0.7853 0
M  V30 2506 H 252.89 -4.84795 0.100668 0
M  V30 2507 N 254.233 0.115231 -1.57178 0
M  V30 2508 C 255.143 1.15994 -2.03918 0
M  V30 2509 C 256.159 1.45103 -0.960268 0
M  V30 2510 O 257.335 1.56144 -1.27204 0
M  V30 2511 C 254.4 2.46568 -2.43732 0
M  V30 2512 C 253.461 2.24822 -3.65723 0
M  V30 2513 C 252.694 3.4917 -4.03629 0
M  V30 2514 O 252.917 4.56623 -3.41835 0
M  V30 2515 O 251.851 3.39949 -4.96708 0
M  V30 2516 H 255.677 0.793019 -2.93164 0
M  V30 2517 H 253.262 0.3263 -1.45793 0
M  V30 2518 H 255.144 3.23492 -2.70057 0
M  V30 2519 H 253.819 2.82726 -1.57631 0
M  V30 2520 H 252.726 1.45744 -3.44542 0
M  V30 2521 H 254.059 1.93566 -4.52541 0
M  V30 2522 N 255.711 1.52812 0.385517 0
M  V30 2523 C 256.96 1.67249 1.12741 0
M  V30 2524 C 257.273 0.4205 1.91027 0
M  V30 2525 O 258.479 0.445064 2.67827 0
M  V30 2526 C 256.935 2.95583 2.05326 0
M  V30 2527 C 256.543 4.27974 1.32447 0
M  V30 2528 C 258.287 3.19386 2.7963 0
M  V30 2529 C 256.194 5.47412 2.23818 0
M  V30 2530 H 255.124 0.6231 0.424573 0
M  V30 2531 H 257.775 1.79309 0.389924 0
M  V30 2532 H 256.157 2.77277 2.82725 0
M  V30 2533 H 257.331 4.56844 0.602495 0
M  V30 2534 H 255.646 4.10459 0.700885 0
M  V30 2535 H 258.243 4.05801 3.48181 0
M  V30 2536 H 258.586 2.34604 3.43899 0
M  V30 2537 H 259.119 3.38274 2.09322 0
M  V30 2538 H 255.858 6.34612 1.64157 0
M  V30 2539 H 255.378 5.22849 2.93921 0
M  V30 2540 H 257.057 5.81423 2.83824 0
M  V30 2541 N 257.189 -0.644168 1.43834 0
M  V30 2542 C 258.466 -1.40188 1.36406 0
M  V30 2543 C 258.846 -2.11094 0.0163124 0
M  V30 2544 O 258.194 -2.05426 -1.00062 0
M  V30 2545 C 258.404 -2.3791 2.55343 0
M  V30 2546 C 259.752 -3.01637 2.98832 0
M  V30 2547 O 260.776 -2.48237 2.55455 0
M  V30 2548 O 259.635 -3.98477 3.74003 0
M  V30 2549 H 256.729 -0.626773 0.539523 0
M  V30 2550 H 259.275 -0.670317 1.559 0
M  V30 2551 H 258.047 -1.84525 3.4506 0
M  V30 2552 H 257.67 -3.18503 2.37995 0
M  V30 2553 N 258.668 -1.30515 -0.883378 0
M  V30 2554 C 259.916 -1.19194 -1.63209 0
M  V30 2555 C 260.237 0.253205 -1.93349 0
M  V30 2556 O 259.507 1.17025 -1.57105 0
M  V30 2557 H 258.087 -0.438148 -0.605009 0
M  V30 2558 H 260.749 -1.63663 -1.05832 0
M  V30 2559 H 259.845 -1.75396 -2.58153 0
M  V30 2560 N 260.146 1.09593 -1.13257 0
M  V30 2561 C 261.096 2.14345 -0.777179 0
M  V30 2562 C 262.08 1.59277 0.227966 0
M  V30 2563 O 263.272 1.76971 0.0321413 0
M  V30 2564 C 260.401 3.42439 -0.242991 0
M  V30 2565 C 259.487 4.04419 -1.27694 0
M  V30 2566 N 259.878 4.40979 -2.47732 0
M  V30 2567 C 258.176 4.31596 -1.12432 0
M  V30 2568 C 258.877 4.89784 -3.13826 0
M  V30 2569 N 257.853 4.87133 -2.41252 0
M  V30 2570 H 261.655 2.40415 -1.69049 0
M  V30 2571 H 259.169 1.26803 -1.01463 0
M  V30 2572 H 261.166 4.16889 0.0298496 0
M  V30 2573 H 259.826 3.17824 0.66467 0
M  V30 2574 H 260.837 4.32396 -2.85051 0
M  V30 2575 H 257.514 4.16595 -0.274684 0
M  V30 2576 H 258.904 5.2755 -4.16102 0
M  V30 2577 N 261.624 0.925811 1.2754 0
M  V30 2578 C 262.901 0.483726 1.89524 0
M  V30 2579 C 263.281 -1.03809 1.83812 0
M  V30 2580 O 262.629 -1.89143 1.28207 0
M  V30 2581 C 262.839 1.02769 3.33526 0
M  V30 2582 C 264.187 1.08703 4.10449 0
M  V30 2583 O 265.211 0.977175 3.42534 0
M  V30 2584 O 264.07 1.25599 5.31871 0
M  V30 2585 H 261.164 0.15529 0.812289 0
M  V30 2586 H 263.71 1.01738 1.35822 0
M  V30 2587 H 262.482 2.07155 3.31967 0
M  V30 2588 H 262.105 0.475567 3.94746 0
M  V30 2589 N 263.102 -1.41638 0.69111 0
M  V30 2590 C 264.065 -2.29178 0.0319786 0
M  V30 2591 C 265.065 -1.44153 -0.712496 0
M  V30 2592 O 266.255 -1.65354 -0.548053 0
M  V30 2593 C 263.387 -3.26952 -0.965161 0
M  V30 2594 H 264.58 -2.88959 0.802681 0
M  V30 2595 H 262.133 -1.4955 0.454356 0
M  V30 2596 H 262.868 -2.72142 -1.76378 0
M  V30 2597 H 262.653 -3.89685 -0.434522 0
M  V30 2598 H 264.143 -3.92561 -1.42428 0
M  V30 2599 N 264.58 -0.43555 -1.51462 0
M  V30 2600 C 265.49 0.383001 -2.31453 0
M  V30 2601 C 266.506 1.02931 -1.4029 0
M  V30 2602 O 267.682 1.02507 -1.73362 0
M  V30 2603 C 264.747 1.47043 -3.13973 0
M  V30 2604 C 263.808 0.844433 -4.20913 0
M  V30 2605 C 263.041 1.88004 -4.9949 0
M  V30 2606 O 263.264 3.10199 -4.78678 0
M  V30 2607 O 262.198 1.47157 -5.83634 0
M  V30 2608 H 266.024 -0.269964 -3.02498 0
M  V30 2609 H 263.609 -0.19813 -1.4808 0
M  V30 2610 H 265.491 2.10113 -3.65281 0
M  V30 2611 H 264.166 2.10751 -2.45695 0
M  V30 2612 H 263.073 0.175729 -3.73687 0
M  V30 2613 H 264.406 0.250869 -4.9156 0
M  V30 2614 N 266.058 1.56714 -0.166846 0
M  V30 2615 C 267.286 2.0112 0.485644 0
M  V30 2616 C 267.701 1.04705 1.57106 0
M  V30 2617 O 267.058 0.0471923 1.82439 0
M  V30 2618 C 267.109 3.45361 1.06808 0
M  V30 2619 O 266.83 4.38092 0.0259995 0
M  V30 2620 C 268.331 4.05145 1.79924 0
M  V30 2621 H 265.551 0.65931 0.124704 0
M  V30 2622 H 268.095 2.02746 -0.267262 0
M  V30 2623 H 266.25 3.44524 1.7715 0
M  V30 2624 H 266.664 5.22519 0.455398 0
M  V30 2625 H 268.138 5.08009 2.15942 0
M  V30 2626 H 268.615 3.46982 2.69258 0
M  V30 2627 H 269.221 4.09672 1.14234 0
M  V30 2628 N 267.536 -0.106894 1.57237 0
M  V30 2629 C 268.483 -1.13049 2.01217 0
M  V30 2630 C 269.453 -1.40471 0.886403 0
M  V30 2631 O 270.638 -1.52133 1.15153 0
M  V30 2632 C 267.778 -2.4487 2.43172 0
M  V30 2633 C 266.891 -2.24281 3.69218 0
M  V30 2634 C 266.026 -3.49417 4.00101 0
M  V30 2635 C 265.065 -3.24038 5.19294 0
M  V30 2636 N 264.202 -4.41409 5.45988 0
M  V30 2637 H 269.042 -0.748456 2.88448 0
M  V30 2638 H 266.579 -0.358054 1.42676 0
M  V30 2639 H 268.537 -3.21786 2.65537 0
M  V30 2640 H 267.167 -2.80944 1.58967 0
M  V30 2641 H 266.219 -1.38224 3.54398 0
M  V30 2642 H 267.531 -2.01512 4.56283 0
M  V30 2643 H 266.685 -4.34746 4.2318 0
M  V30 2644 H 265.424 -3.75229 3.11535 0
M  V30 2645 H 264.429 -2.37102 4.96047 0
M  V30 2646 H 265.654 -2.99584 6.09447 0
M  V30 2647 H 263.6 -4.67319 4.60379 0
M  V30 2648 H 263.517 -4.21788 6.274 0
M  V30 2649 H 264.785 -5.27836 5.73593 0
M  V30 2650 N 269.014 -1.53014 -0.377408 0
M  V30 2651 C 269.977 -1.77957 -1.44444 0
M  V30 2652 C 270.977 -0.649763 -1.47087 0
M  V30 2653 O 272.167 -0.917897 -1.48055 0
M  V30 2654 C 269.299 -1.89089 -2.83651 0
M  V30 2655 H 270.492 -2.73243 -1.23606 0
M  V30 2656 H 268.045 -1.43912 -0.609844 0
M  V30 2657 H 268.78 -0.958293 -3.09818 0
M  V30 2658 H 268.565 -2.71254 -2.83132 0
M  V30 2659 H 270.055 -2.1002 -3.60945 0
M  V30 2660 N 270.492 0.636531 -1.44174 0
M  V30 2661 C 271.717 1.42847 -1.50364 0
M  V30 2662 C 272.142 1.87665 -0.127867 0
M  V30 2663 O 271.5 1.58408 0.88185 0
M  V30 2664 C 271.548 2.62854 -2.4686 0
M  V30 2665 O 270.652 3.62501 -1.9664 0
M  V30 2666 H 269.993 0.427642 -0.507955 0
M  V30 2667 H 272.523 0.777422 -1.89255 0
M  V30 2668 H 272.533 3.10465 -2.64718 0
M  V30 2669 H 271.208 2.29578 -3.46795 0
M  V30 2670 H 269.785 3.21735 -1.88523 0
M  V30 2671 N 271.97 1.30982 0.876444 0
M  V30 2672 C 272.933 1.18054 1.96459 0
M  V30 2673 C 273.933 0.109399 1.60427 0
M  V30 2674 O 275.123 0.358173 1.70478 0
M  V30 2675 C 272.255 0.810616 3.31122 0
M  V30 2676 H 273.448 2.14735 2.09354 0
M  V30 2677 H 271.001 1.145 1.06392 0
M  V30 2678 H 271.736 -0.155322 3.23928 0
M  V30 2679 H 271.521 1.58481 3.58645 0
M  V30 2680 H 273.011 0.743876 4.10921 0
M  V30 2681 N 273.449 -1.08991 1.13837 0
M  V30 2682 C 274.695 -1.81526 0.90422 0
M  V30 2683 C 275.028 -1.85706 -0.568066 0
M  V30 2684 O 274.303 -1.32855 -1.42056 0
M  V30 2685 C 274.586 -3.27447 1.49835 0
M  V30 2686 C 274.439 -3.31512 3.04006 0
M  V30 2687 C 275.758 -4.24256 1.17025 0
M  V30 2688 H 272.877 -0.659029 0.329923 0
M  V30 2689 H 275.519 -1.27644 1.40737 0
M  V30 2690 H 273.669 -3.73462 1.07044 0
M  V30 2691 H 275.341 -2.93867 3.55584 0
M  V30 2692 H 273.584 -2.70963 3.38765 0
M  V30 2693 H 274.255 -4.34329 3.40679 0
M  V30 2694 H 276.731 -3.86549 1.54009 0
M  V30 2695 H 275.607 -5.24684 1.61237 0
M  V30 2696 H 275.868 -4.42019 0.0846274 0
M  V30 2697 N 274.927 -0.932562 -1.27047 0
M  V30 2698 C 275.89 -0.440064 -2.24936 0
M  V30 2699 C 276.89 0.444071 -1.54547 0
M  V30 2700 O 278.08 0.244465 -1.72476 0
M  V30 2701 C 275.212 0.36678 -3.38921 0
M  V30 2702 H 276.405 -1.305 -2.70018 0
M  V30 2703 H 273.958 -0.713707 -1.39054 0
M  V30 2704 H 274.693 1.25033 -2.99228 0
M  V30 2705 H 274.478 -0.267204 -3.91188 0
M  V30 2706 H 275.968 0.701567 -4.11665 0
M  V30 2707 N 276.405 1.4127 -0.698611 0
M  V30 2708 C 277.821 1.55241 -0.370462 0
M  V30 2709 C 278.021 1.67351 1.12231 0
M  V30 2710 O 277.077 1.65363 1.90818 0
M  V30 2711 C 278.39 2.78997 -1.12165 0
M  V30 2712 C 279.938 2.92797 -1.1063 0
M  V30 2713 C 280.413 4.19445 -1.8393 0
M  V30 2714 N 281.904 4.26409 -1.80914 0
M  V30 2715 C 282.639 5.23271 -2.34467 0
M  V30 2716 N 282.135 6.26145 -2.96504 0
M  V30 2717 N 283.928 5.15232 -2.24706 0
M  V30 2718 H 276.079 1.31654 -1.66676 0
M  V30 2719 H 278.342 0.635393 -0.703548 0
M  V30 2720 H 278.048 2.76268 -2.17644 0
M  V30 2721 H 277.922 3.70606 -0.702209 0
M  V30 2722 H 280.309 2.95039 -0.0597713 0
M  V30 2723 H 280.39 2.02353 -1.56483 0
M  V30 2724 H 280.034 4.17964 -2.88563 0
M  V30 2725 H 279.964 5.08866 -1.35509 0
M  V30 2726 H 282.455 3.527 -1.35687 0
M  V30 2727 H 282.768 6.96451 -3.34927 0
M  V30 2728 H 281.113 6.26638 -3.00583 0
M  V30 2729 H 284.304 4.33789 -1.7591 0
M  V30 2730 H 284.477 5.90552 -2.66745 0
M  V30 2731 N 277.883 0.443576 1.51229 0
M  V30 2732 C 278.793 -0.370721 2.31652 0
M  V30 2733 C 279.809 -1.02186 1.40833 0
M  V30 2734 O 280.985 -1.01586 1.73903 0
M  V30 2735 C 278.05 -1.45376 3.14749 0
M  V30 2736 C 277.111 -0.822099 4.21355 0
M  V30 2737 C 276.344 -1.85353 5.0048 0
M  V30 2738 O 276.567 -3.07656 4.80316 0
M  V30 2739 O 275.501 -1.4406 5.84406 0
M  V30 2740 H 279.327 0.286002 3.0235 0
M  V30 2741 H 276.912 0.20598 1.47973 0
M  V30 2742 H 278.794 -2.08173 3.66391 0
M  V30 2743 H 277.469 -2.09445 2.46809 0
M  V30 2744 H 276.376 -0.155909 3.73775 0
M  V30 2745 H 277.709 -0.224797 4.91686 0
M  V30 2746 N 279.361 -1.56624 0.175154 0
M  V30 2747 C 280.777 -1.58571 -0.180966 0
M  V30 2748 C 280.977 -1.19065 -1.6256 0
M  V30 2749 O 280.033 -0.904044 -2.35761 0
M  V30 2750 C 281.346 -3.00522 0.103326 0
M  V30 2751 C 282.894 -3.12972 0.0418426 0
M  V30 2752 C 283.369 -4.57022 0.299175 0
M  V30 2753 N 284.86 -4.62541 0.247086 0
M  V30 2754 C 285.595 -5.71857 0.420318 0
M  V30 2755 N 285.091 -6.89717 0.652816 0
M  V30 2756 N 286.884 -5.60972 0.355957 0
M  V30 2757 H 279.035 -1.80589 1.11809 0
M  V30 2758 H 281.298 -0.837178 0.444788 0
M  V30 2759 H 281.004 -3.33916 1.10422 0
M  V30 2760 H 280.878 -3.72344 -0.603299 0
M  V30 2761 H 283.265 -2.79403 -0.949636 0
M  V30 2762 H 283.346 -2.43578 0.781238 0
M  V30 2763 H 282.99 -4.913 1.28788 0
M  V30 2764 H 282.92 -5.24579 -0.460876 0
M  V30 2765 H 285.411 -3.77829 0.0731895 0
M  V30 2766 H 285.724 -7.68911 0.774347 0
M  V30 2767 H 284.069 -6.91572 0.689476 0
M  V30 2768 H 287.26 -4.67773 0.174882 0
M  V30 2769 H 287.433 -6.46111 0.494388 0
M  V30 2770 N 280.839 0.0985539 -1.57292 0
M  V30 2771 C 282.116 0.834155 -1.76921 0
M  V30 2772 C 282.496 1.97101 -0.755928 0
M  V30 2773 O 281.844 2.27474 0.216245 0
M  V30 2774 C 282.054 1.33194 -3.22584 0
M  V30 2775 C 283.402 1.77611 -3.85668 0
M  V30 2776 O 284.426 1.42825 -3.26312 0
M  V30 2777 O 283.285 2.4192 -4.90038 0
M  V30 2778 H 280.379 0.397628 -0.725135 0
M  V30 2779 H 282.925 0.0807044 -1.69508 0
M  V30 2780 H 281.697 0.517248 -3.87866 0
M  V30 2781 H 281.32 2.1475 -3.34616 0
M  V30 2782 N 282.317 1.53212 0.369288 0
M  V30 2783 C 283.565 1.68881 1.11012 0
M  V30 2784 C 283.886 0.441285 1.89941 0
M  V30 2785 O 283.156 -0.544623 1.88177 0
M  V30 2786 H 281.736 0.622569 0.412816 0
M  V30 2787 H 284.398 1.90391 0.416802 0
M  V30 2788 H 283.494 2.54822 1.80201 0
M  V30 2789 N 283.795 -0.628877 1.44509 0
M  V30 2790 C 284.725 -1.75187 1.54376 0
M  V30 2791 C 285.706 -1.65411 0.396618 0
M  V30 2792 O 286.891 -1.84137 0.617031 0
M  V30 2793 C 284.021 -3.13725 1.48976 0
M  V30 2794 C 282.975 -3.38291 2.62189 0
M  V30 2795 C 282.301 -4.76883 2.41841 0
M  V30 2796 C 283.601 -3.30632 4.04326 0
M  V30 2797 H 285.295 -1.67187 2.48373 0
M  V30 2798 H 282.841 -0.802909 1.19538 0
M  V30 2799 H 284.794 -3.92064 1.54478 0
M  V30 2800 H 283.518 -3.22515 0.514961 0
M  V30 2801 H 282.177 -2.62334 2.56079 0
M  V30 2802 H 281.825 -4.82378 1.42548 0
M  V30 2803 H 281.525 -4.94278 3.17747 0
M  V30 2804 H 283.049 -5.57449 2.49165 0
M  V30 2805 H 284.463 -3.98873 4.11793 0
M  V30 2806 H 282.86 -3.59561 4.80454 0
M  V30 2807 H 283.93 -2.28404 4.27738 0
M  V30 2808 N 285.273 -1.31445 -0.869486 0
M  V30 2809 C 286.498 -1.24256 -1.66058 0
M  V30 2810 C 286.923 0.188928 -1.87149 0
M  V30 2811 O 286.281 1.13522 -1.4136 0
M  V30 2812 C 286.329 -1.9924 -3.00559 0
M  V30 2813 O 285.433 -1.33007 -3.90362 0
M  V30 2814 H 284.774 -0.428973 -0.506831 0
M  V30 2815 H 287.304 -1.73521 -1.08404 0
M  V30 2816 H 287.314 -2.08854 -3.50491 0
M  V30 2817 H 285.989 -3.03342 -2.84528 0
M  V30 2818 H 284.566 -1.31848 -3.48813 0
M  V30 2819 N 286.751 1.08385 -1.14413 0
M  V30 2820 C 287.997 1.81212 -0.923793 0
M  V30 2821 C 288.352 1.84555 0.543814 0
M  V30 2822 O 287.645 1.31056 1.39767 0
M  V30 2823 C 287.839 3.26273 -1.45879 0
M  V30 2824 C 287.668 3.37063 -2.97689 0
M  V30 2825 C 286.438 3.4824 -3.66138 0
M  V30 2826 C 288.636 3.28698 -3.95553 0
M  V30 2827 N 286.618 3.47824 -5.05858 0
M  V30 2828 C 287.989 3.35276 -5.21527 0
M  V30 2829 C 290.044 3.12437 -3.8767 0
M  V30 2830 C 288.747 3.27267 -6.40538 0
M  V30 2831 C 290.773 3.05757 -5.06228 0
M  V30 2832 C 290.135 3.12938 -6.3107 0
M  V30 2833 H 286.234 0.6769 -0.391574 0
M  V30 2834 H 288.818 1.29455 -1.45429 0
M  V30 2835 H 286.989 3.76474 -0.95507 0
M  V30 2836 H 288.721 3.87165 -1.17835 0
M  V30 2837 H 285.476 3.52141 -3.16692 0
M  V30 2838 H 285.9 3.51171 -5.78798 0
M  V30 2839 H 290.542 3.05747 -2.92025 0
M  V30 2840 H 288.26 3.32718 -7.36427 0
M  V30 2841 H 291.846 2.94295 -5.01878 0
M  V30 2842 H 290.726 3.078 -7.21269 0
M  V30 2843 N 288.23 0.939286 1.26551 0
M  V30 2844 C 289.507 0.5038 1.89001 0
M  V30 2845 C 289.887 -1.01854 1.84903 0
M  V30 2846 O 289.235 -1.87773 1.30206 0
M  V30 2847 C 289.445 1.063 3.32417 0
M  V30 2848 C 290.793 1.13051 4.09273 0
M  V30 2849 O 291.817 1.01345 3.41479 0
M  V30 2850 O 290.676 1.31233 5.30509 0
M  V30 2851 H 287.77 0.163897 0.810597 0
M  V30 2852 H 290.316 1.03173 1.34735 0
M  V30 2853 H 289.088 2.10665 3.29752 0
M  V30 2854 H 288.711 0.517408 3.94219 0
M  V30 2855 N 289.708 -1.40897 0.706093 0
M  V30 2856 C 290.618 -2.3455 0.0482286 0
M  V30 2857 C 291.634 -1.56796 -0.754396 0
M  V30 2858 O 292.81 -1.89228 -0.689538 0
M  V30 2859 C 289.875 -3.35625 -0.869303 0
M  V30 2860 C 288.936 -4.29261 -0.0576994 0
M  V30 2861 C 288.169 -5.25508 -0.931531 0
M  V30 2862 O 288.392 -5.27472 -2.17092 0
M  V30 2863 O 287.326 -6.00727 -0.375587 0
M  V30 2864 H 291.152 -2.92407 0.820476 0
M  V30 2865 H 288.737 -1.4193 0.4665 0
M  V30 2866 H 290.619 -3.97635 -1.39514 0
M  V30 2867 H 289.294 -2.80196 -1.62086 0
M  V30 2868 H 288.201 -3.70566 0.512988 0
M  V30 2869 H 289.534 -4.87817 0.655426 0
M  V30 2870 N 291.186 -0.45159 -1.50991 0
M  V30 2871 C 292.416 0.108177 -2.06317 0
M  V30 2872 C 292.824 1.35774 -1.31765 0
M  V30 2873 O 292.167 1.79838 -0.374694 0
M  V30 2874 C 292.229 0.481659 -3.56259 0
M  V30 2875 C 291.893 -0.663114 -4.52163 0
M  V30 2876 C 292.89 -1.53947 -4.96585 0
M  V30 2877 C 290.575 -0.8479 -4.95092 0
M  V30 2878 C 292.569 -2.58518 -5.82621 0
M  V30 2879 C 290.256 -1.89686 -5.80915 0
M  V30 2880 C 291.254 -2.76388 -6.24579 0
M  V30 2881 O 290.942 -3.79482 -7.08695 0
M  V30 2882 H 290.674 0.00499183 -0.675982 0
M  V30 2883 H 293.228 -0.633659 -1.95381 0
M  V30 2884 H 291.458 1.27641 -3.65027 0
M  V30 2885 H 293.147 0.974233 -3.94035 0
M  V30 2886 H 293.913 -1.4083 -4.64103 0
M  V30 2887 H 289.792 -0.18258 -4.60638 0
M  V30 2888 H 293.336 -3.26224 -6.16623 0
M  V30 2889 H 289.233 -2.02817 -6.12809 0
M  V30 2890 H 290.001 -3.76234 -7.26905 0
M  V30 2891 N 292.664 1.56529 -0.183458 0
M  V30 2892 C 293.889 2.02064 0.467428 0
M  V30 2893 C 294.314 1.06282 1.55196 0
M  V30 2894 O 293.672 0.0443565 1.81246 0
M  V30 2895 C 293.72 3.46122 1.01153 0
M  V30 2896 O 292.824 3.53437 2.12499 0
M  V30 2897 H 292.165 0.654726 0.110588 0
M  V30 2898 H 294.695 2.02521 -0.290917 0
M  V30 2899 H 294.705 3.85676 1.33108 0
M  V30 2900 H 293.38 4.15331 0.217533 0
M  V30 2901 H 291.957 3.2575 1.81497 0
M  V30 2902 N 294.142 -0.090211 1.57342 0
M  V30 2903 C 295.388 -0.793982 1.86611 0
M  V30 2904 C 295.721 -1.78142 0.773252 0
M  V30 2905 O 294.996 -1.93271 -0.218304 0
M  V30 2906 C 295.279 -1.51839 3.26523 0
M  V30 2907 C 295.132 -0.548609 4.46442 0
M  V30 2908 C 296.451 -2.46779 3.64401 0
M  V30 2909 H 293.57 -0.287186 0.678744 0
M  V30 2910 H 296.212 -0.0575076 1.89913 0
M  V30 2911 H 294.362 -2.14617 3.23839 0
M  V30 2912 H 296.034 0.0725513 4.61243 0
M  V30 2913 H 294.277 0.137614 4.33582 0
M  V30 2914 H 294.948 -1.09271 5.41076 0
M  V30 2915 H 297.424 -1.94089 3.68061 0
M  V30 2916 H 296.3 -2.94479 4.63221 0
M  V30 2917 H 296.561 -3.30758 2.93346 0
M  V30 2918 N 295.62 -1.53406 -0.361157 0
M  V30 2919 C 296.55 -1.83136 -1.44857 0
M  V30 2920 C 297.531 -0.685174 -1.5569 0
M  V30 2921 O 298.716 -0.93544 -1.70186 0
M  V30 2922 C 295.846 -2.02522 -2.82138 0
M  V30 2923 C 294.8 -3.18302 -2.86126 0
M  V30 2924 C 294.126 -3.22989 -4.26125 0
M  V30 2925 C 295.426 -4.56796 -2.53248 0
M  V30 2926 H 297.12 -2.74201 -1.20226 0
M  V30 2927 H 294.666 -1.31938 -0.576922 0
M  V30 2928 H 296.619 -2.21904 -3.58241 0
M  V30 2929 H 295.343 -1.08172 -3.08166 0
M  V30 2930 H 294.002 -2.98747 -2.12475 0
M  V30 2931 H 293.65 -2.26267 -4.49235 0
M  V30 2932 H 293.35 -4.00781 -4.29708 0
M  V30 2933 H 294.874 -3.44559 -5.04094 0
M  V30 2934 H 296.288 -4.7631 -3.19064 0
M  V30 2935 H 294.685 -5.36862 -2.68141 0
M  V30 2936 H 295.755 -4.61606 -1.48484 0
M  V30 2937 N 297.098 0.621204 -1.44841 0
M  V30 2938 C 298.028 1.74366 -1.55303 0
M  V30 2939 C 299.009 1.65199 -0.405385 0
M  V30 2940 O 300.194 1.83807 -0.626787 0
M  V30 2941 C 297.324 3.12931 -1.50637 0
M  V30 2942 C 296.278 3.36896 -2.63979 0
M  V30 2943 C 295.604 4.75594 -2.44366 0
M  V30 2944 C 296.904 3.28483 -4.06074 0
M  V30 2945 H 298.598 1.65867 -2.49256 0
M  V30 2946 H 296.144 0.796558 -1.19962 0
M  V30 2947 H 298.097 3.9124 -1.56555 0
M  V30 2948 H 296.821 3.22237 -0.532057 0
M  V30 2949 H 295.48 2.60972 -2.57467 0
M  V30 2950 H 295.128 4.81616 -1.45105 0
M  V30 2951 H 294.828 4.92586 -3.20364 0
M  V30 2952 H 296.352 5.5612 -2.52117 0
M  V30 2953 H 297.766 3.96684 -4.13902 0
M  V30 2954 H 296.163 3.57008 -4.82354 0
M  V30 2955 H 297.233 2.26133 -4.28943 0
M  V30 2956 N 298.576 1.31904 0.862503 0
M  V30 2957 C 299.508 1.16005 1.97675 0
M  V30 2958 C 300.521 0.0971234 1.6251 0
M  V30 2959 O 301.71 0.345337 1.75128 0
M  V30 2960 C 298.81 0.751791 3.30456 0
M  V30 2961 C 297.983 1.90133 3.93914 0
M  V30 2962 C 297.042 1.4779 5.05019 0
M  V30 2963 O 296.068 2.18872 5.25437 0
M  V30 2964 N 297.27 0.369491 5.79323 0
M  V30 2965 H 300.035 2.11982 2.11857 0
M  V30 2966 H 297.596 1.24337 1.03691 0
M  V30 2967 H 299.588 0.451084 4.02178 0
M  V30 2968 H 298.158 -0.116593 3.12382 0
M  V30 2969 H 297.378 2.36896 3.15078 0
M  V30 2970 H 298.666 2.67111 4.33047 0
M  V30 2971 H 298.064 -0.222299 5.65263 0
M  V30 2972 H 296.621 0.128354 6.51674 0
M  V30 2973 N 300.054 -1.07777 1.14986 0
M  V30 2974 C 301.47 -1.32373 0.891596 0
M  V30 2975 C 301.67 -1.9609 -0.463788 0
M  V30 2976 O 300.726 -2.21801 -1.20667 0
M  V30 2977 C 302.039 -2.21905 2.02925 0
M  V30 2978 C 303.587 -2.35367 2.06329 0
M  V30 2979 C 304.062 -3.28245 3.19405 0
M  V30 2980 N 305.553 -3.35824 3.19024 0
M  V30 2981 C 306.288 -4.07739 4.03158 0
M  V30 2982 N 305.784 -4.82306 4.97346 0
M  V30 2983 N 307.577 -4.03635 3.91197 0
M  V30 2984 H 299.728 -0.648039 2.02273 0
M  V30 2985 H 301.991 -0.348149 0.881757 0
M  V30 2986 H 301.697 -1.82342 3.0074 0
M  V30 2987 H 301.571 -3.22407 1.95789 0
M  V30 2988 H 303.958 -2.74186 1.09116 0
M  V30 2989 H 304.039 -1.34585 2.17533 0
M  V30 2990 H 303.683 -2.90146 4.16867 0
M  V30 2991 H 303.613 -4.28971 3.05437 0
M  V30 2992 H 306.104 -2.8267 2.50811 0
M  V30 2993 H 306.417 -5.34661 5.57994 0
M  V30 2994 H 304.762 -4.81337 5.01338 0
M  V30 2995 H 307.953 -3.44491 3.16928 0
M  V30 2996 H 308.126 -4.59417 4.5699 0
M  V30 2997 N 301.532 -0.945985 -1.26051 0
M  V30 2998 C 302.762 -0.612136 -1.97323 0
M  V30 2999 C 303.17 0.818171 -1.70595 0
M  V30 3000 O 302.513 1.55777 -0.973613 0
M  V30 3001 C 302.575 -0.780347 -3.50929 0
M  V30 3002 C 302.239 -2.18619 -4.01317 0
M  V30 3003 C 303.236 -3.16209 -4.12683 0
M  V30 3004 C 300.921 -2.50805 -4.35203 0
M  V30 3005 C 302.915 -4.44085 -4.57238 0
M  V30 3006 C 300.602 -3.78912 -4.79446 0
M  V30 3007 C 301.6 -4.75365 -4.90425 0
M  V30 3008 O 301.288 -6.01191 -5.3369 0
M  V30 3009 H 301.02 -0.229134 -0.635982 0
M  V30 3010 H 303.574 -1.27036 -1.61404 0
M  V30 3011 H 301.804 -0.0649864 -3.86645 0
M  V30 3012 H 303.493 -0.448842 -4.03411 0
M  V30 3013 H 304.259 -2.92668 -3.86744 0
M  V30 3014 H 300.138 -1.76463 -4.2589 0
M  V30 3015 H 303.682 -5.19373 -4.65723 0
M  V30 3016 H 299.579 -4.02265 -5.0483 0
M  V30 3017 H 300.347 -6.04442 -5.51899 0
M  V30 3018 N 303.011 1.40521 -0.713556 0
M  V30 3019 C 304.258 2.00923 -0.25219 0
M  V30 3020 C 304.586 1.56571 1.15395 0
M  V30 3021 O 303.841 0.775874 1.79663 0
M  V30 3022 C 304.14 3.56317 -0.278 0
M  V30 3023 C 303.806 4.20246 -1.63415 0
M  V30 3024 C 302.468 4.37422 -2.00538 0
M  V30 3025 C 304.82 4.55923 -2.52554 0
M  V30 3026 C 302.148 4.87558 -3.2635 0
M  V30 3027 C 304.5 5.07458 -3.77716 0
M  V30 3028 C 303.164 5.22843 -4.14959 0
M  V30 3029 H 302.434 0.735231 -0.0922829 0
M  V30 3030 H 305.081 1.68161 -0.916188 0
M  V30 3031 H 303.386 3.88976 0.469567 0
M  V30 3032 H 305.083 4.00883 0.0967819 0
M  V30 3033 H 301.673 4.07263 -1.33546 0
M  V30 3034 H 305.857 4.42291 -2.25149 0
M  V30 3035 H 301.113 4.97654 -3.55176 0
M  V30 3036 H 305.287 5.34041 -4.4696 0
M  V30 3037 H 302.914 5.61454 -5.12516 0
M  V30 3038 N 304.489 0.459591 1.5075 0
M  V30 3039 C 305.714 -0.0996819 2.0716 0
M  V30 3040 C 306.139 -1.33761 1.32249 0
M  V30 3041 O 305.497 -1.77551 0.366786 0
M  V30 3042 C 305.545 -0.378226 3.58611 0
M  V30 3043 O 304.649 -1.46081 3.85661 0
M  V30 3044 H 303.99 0.00791392 0.663953 0
M  V30 3045 H 306.52 0.647329 1.9409 0
M  V30 3046 H 306.53 -0.622135 4.03229 0
M  V30 3047 H 305.205 0.526439 4.12555 0
M  V30 3048 H 303.782 -1.20511 3.5289 0
M  V30 3049 N 305.967 -1.56429 0.191757 0
M  V30 3050 C 306.917 -2.15548 -0.743184 0
M  V30 3051 C 307.901 -1.09531 -1.17863 0
M  V30 3052 O 309.093 -1.35602 -1.13759 0
M  V30 3053 C 306.222 -2.81577 -1.96391 0
M  V30 3054 C 305.308 -3.9478 -1.54951 0
M  V30 3055 N 305.699 -4.98677 -0.845876 0
M  V30 3056 C 303.997 -4.06319 -1.83905 0
M  V30 3057 C 304.698 -5.78183 -0.638724 0
M  V30 3058 N 303.674 -5.30495 -1.18643 0
M  V30 3059 H 307.476 -2.9324 -0.196839 0
M  V30 3060 H 304.99 -1.62398 -0.0081603 0
M  V30 3061 H 306.987 -3.22321 -2.64415 0
M  V30 3062 H 305.647 -2.05371 -2.51501 0
M  V30 3063 H 306.658 -5.15464 -0.501704 0
M  V30 3064 H 303.335 -3.41238 -2.40548 0
M  V30 3065 H 304.725 -6.71851 -0.0807929 0
M  V30 3066 N 307.445 0.0818655 -1.57387 0
M  V30 3067 C 308.691 0.784074 -1.8703 0
M  V30 3068 C 309.024 1.77729 -0.782689 0
M  V30 3069 O 308.299 1.93384 0.208051 0
M  V30 3070 C 308.582 1.50105 -3.27323 0
M  V30 3071 C 308.435 0.524925 -4.46727 0
M  V30 3072 C 309.754 2.44843 -3.65705 0
M  V30 3073 H 306.873 0.283582 -0.680257 0
M  V30 3074 H 309.515 0.0474352 -1.89941 0
M  V30 3075 H 307.665 2.12897 -3.24972 0
M  V30 3076 H 309.337 -0.0970111 -4.61198 0
M  V30 3077 H 307.58 -0.160606 -4.33503 0
M  V30 3078 H 308.251 1.064 -5.41648 0
M  V30 3079 H 310.727 1.92135 -3.69085 0
M  V30 3080 H 309.603 2.92018 -4.64776 0
M  V30 3081 H 309.864 3.29197 -2.95096 0
M  V30 3082 N 308.923 1.53595 0.353017 0
M  V30 3083 C 309.833 1.83897 1.45667 0
M  V30 3084 C 310.849 0.728334 1.58023 0
M  V30 3085 O 312.025 1.01968 1.73679 0
M  V30 3086 C 309.09 2.03383 2.80778 0
M  V30 3087 C 308.151 3.27262 2.77845 0
M  V30 3088 C 307.384 3.45809 4.06512 0
M  V30 3089 O 307.607 2.68387 5.03314 0
M  V30 3090 O 306.541 4.39207 4.11559 0
M  V30 3091 H 310.367 2.77686 1.2298 0
M  V30 3092 H 307.952 1.39132 0.544308 0
M  V30 3093 H 309.834 2.17698 3.60812 0
M  V30 3094 H 308.509 1.12783 3.03417 0
M  V30 3095 H 307.416 3.18359 1.96465 0
M  V30 3096 H 308.749 4.17824 2.60161 0
M  V30 3097 N 310.401 -0.613514 1.45168 0
M  V30 3098 C 311.648 -1.37268 1.48875 0
M  V30 3099 C 311.976 -1.94077 0.128161 0
M  V30 3100 O 311.231 -1.75178 -0.872416 0
M  V30 3101 C 311.53 -2.54347 2.51083 0
M  V30 3102 C 311.196 -2.1572 3.95949 0
M  V30 3103 C 309.858 -2.04899 4.35396 0
M  V30 3104 C 312.21 -1.85485 4.87078 0
M  V30 3105 C 309.538 -1.62057 5.63875 0
M  V30 3106 C 311.89 -1.4413 6.15962 0
M  V30 3107 C 310.554 -1.31863 6.54346 0
M  V30 3108 H 309.824 -0.502299 0.544773 0
M  V30 3109 H 312.471 -0.694021 1.78481 0
M  V30 3110 H 310.776 -3.27524 2.15024 0
M  V30 3111 H 312.473 -3.12577 2.51191 0
M  V30 3112 H 309.063 -2.25066 3.64751 0
M  V30 3113 H 313.247 -1.92745 4.57343 0
M  V30 3114 H 308.503 -1.51177 5.92415 0
M  V30 3115 H 312.677 -1.19778 6.86022 0
M  V30 3116 H 310.304 -0.984392 7.538 0
M  V30 3117 N 311.879 -1.3236 -0.855495 0
M  V30 3118 C 312.809 -1.23833 -1.97958 0
M  V30 3119 C 313.79 -0.122361 -1.69659 0
M  V30 3120 O 314.975 -0.30939 -1.9172 0
M  V30 3121 C 312.105 -0.959772 -3.33775 0
M  V30 3122 C 311.059 -2.03689 -3.76424 0
M  V30 3123 C 310.385 -1.61075 -5.09862 0
M  V30 3124 C 311.685 -3.4518 -3.9198 0
M  V30 3125 H 313.379 -2.1788 -2.0535 0
M  V30 3126 H 310.925 -1.04891 -0.986605 0
M  V30 3127 H 312.878 -0.886678 -4.11966 0
M  V30 3128 H 311.602 0.0163404 -3.26596 0
M  V30 3129 H 310.261 -2.10012 -3.00484 0
M  V30 3130 H 309.909 -0.622107 -4.99138 0
M  V30 3131 H 309.609 -2.33143 -5.39368 0
M  V30 3132 H 311.133 -1.55201 -5.90546 0
M  V30 3133 H 312.547 -3.4145 -4.60526 0
M  V30 3134 H 310.944 -4.1559 -4.32903 0
M  V30 3135 H 312.014 -3.84903 -2.94919 0
M  V30 3136 N 313.357 1.07166 -1.15556 0
M  V30 3137 C 314.604 1.79798 -0.931604 0
M  V30 3138 C 314.932 1.8682 0.54115 0
M  V30 3139 O 314.187 1.34942 1.41736 0
M  V30 3140 C 314.486 3.24707 -1.49332 0
M  V30 3141 C 314.152 3.37781 -2.98688 0
M  V30 3142 C 312.814 3.41057 -3.39461 0
M  V30 3143 C 315.166 3.40424 -3.94665 0
M  V30 3144 C 312.494 3.4458 -4.74849 0
M  V30 3145 C 314.846 3.45485 -5.29927 0
M  V30 3146 C 313.51 3.47039 -5.70193 0
M  V30 3147 H 312.78 0.657928 -0.340898 0
M  V30 3148 H 315.427 1.26091 -1.44129 0
M  V30 3149 H 313.732 3.81208 -0.904859 0
M  V30 3150 H 315.429 3.79486 -1.29582 0
M  V30 3151 H 312.019 3.35932 -2.66172 0
M  V30 3152 H 316.203 3.37113 -3.64237 0
M  V30 3153 H 311.459 3.44083 -5.05388 0
M  V30 3154 H 315.633 3.46476 -6.04092 0
M  V30 3155 H 313.26 3.49522 -6.75084 0
M  V30 3156 N 314.835 0.952656 1.25548 0
M  V30 3157 C 316.06 0.623025 1.97821 0
M  V30 3158 C 316.485 -0.7976 1.70352 0
M  V30 3159 O 315.843 -1.53905 0.958283 0
M  V30 3160 C 315.891 0.885532 3.49558 0
M  V30 3161 O 314.995 -0.0366641 4.12384 0
M  V30 3162 H 314.336 0.237082 0.620232 0
M  V30 3163 H 316.866 1.27871 1.59719 0
M  V30 3164 H 316.876 0.811009 3.99858 0
M  V30 3165 H 315.551 1.92094 3.6888 0
M  V30 3166 H 314.128 0.0898954 3.72792 0
M  V30 3167 N 316.313 -1.40141 0.720998 0
M  V30 3168 C 317.724 -1.83678 0.334553 0
M  V30 3169 C 318.075 -1.6027 -1.13173 0
M  V30 3170 O 317.2 -1.08643 -1.87152 0
M  V30 3171 C 317.795 -3.33437 0.600437 0
M  V30 3172 C 316.354 -3.75447 0.267642 0
M  V30 3173 C 315.501 -2.63296 0.870097 0
M  V30 3174 H 318.452 -1.29331 0.919732 0
M  V30 3175 H 318.473 -3.80269 -0.132517 0
M  V30 3176 H 317.985 -3.50442 1.66768 0
M  V30 3177 H 316.086 -3.64035 -0.794329 0
M  V30 3178 H 316.199 -4.73344 0.74042 0
M  V30 3179 H 314.563 -2.52954 0.297739 0
M  V30 3180 H 315.346 -2.83112 1.94172 0
M  V30 3181 N 317.792 -0.46758 -1.50504 0
M  V30 3182 C 318.702 0.33382 -2.32213 0
M  V30 3183 C 319.718 0.999323 -1.42441 0
M  V30 3184 O 320.894 0.988068 -1.75497 0
M  V30 3185 C 317.959 1.4035 -3.17022 0
M  V30 3186 C 317.02 0.754961 -4.2261 0
M  V30 3187 C 316.253 1.77367 -5.03365 0
M  V30 3188 O 316.476 2.99976 -4.8515 0
M  V30 3189 O 315.41 1.34744 -5.86624 0
M  V30 3190 H 319.236 -0.334067 -3.01857 0
M  V30 3191 H 316.821 -0.229496 -1.47627 0
M  V30 3192 H 318.703 2.02318 -3.69656 0
M  V30 3193 H 317.378 2.05492 -2.5011 0
M  V30 3194 H 316.285 0.0964244 -3.73976 0
M  V30 3195 H 317.618 0.146545 -4.91982 0
M  V30 3196 N 319.27 1.56325 -0.20005 0
M  V30 3197 C 320.2 2.22318 0.713916 0
M  V30 3198 C 321.181 1.18788 1.21752 0
M  V30 3199 O 322.366 1.47309 1.26545 0
M  V30 3200 C 319.496 2.88639 1.93144 0
M  V30 3201 C 318.45 3.98457 1.56255 0
M  V30 3202 C 317.776 4.51967 2.85709 0
M  V30 3203 C 319.076 5.16612 0.768747 0
M  V30 3204 H 320.77 2.98952 0.163755 0
M  V30 3205 H 318.316 1.43792 0.0773219 0
M  V30 3206 H 320.269 3.33491 2.57608 0
M  V30 3207 H 318.993 2.09419 2.50621 0
M  V30 3208 H 317.652 3.54305 0.941471 0
M  V30 3209 H 317.3 3.69503 3.41287 0
M  V30 3210 H 317 5.26071 2.6177 0
M  V30 3211 H 318.524 4.99523 3.51154 0
M  V30 3212 H 319.938 5.57977 1.3166 0
M  V30 3213 H 318.335 5.96812 0.627286 0
M  V30 3214 H 319.405 4.84358 -0.229168 0
M  V30 3215 N 320.748 -0.0735177 1.57428 0
M  V30 3216 C 321.995 -0.772999 1.87166 0
M  V30 3217 C 322.323 -1.77665 0.791551 0
M  V30 3218 O 321.578 -1.94541 -0.212636 0
M  V30 3219 C 321.877 -1.51799 3.23561 0
M  V30 3220 C 321.543 -0.654484 4.46125 0
M  V30 3221 C 320.205 -0.416511 4.79394 0
M  V30 3222 C 322.557 -0.0555862 5.2117 0
M  V30 3223 C 319.885 0.429869 5.85123 0
M  V30 3224 C 322.237 0.778239 6.27795 0
M  V30 3225 C 320.901 1.0261 6.59566 0
M  V30 3226 H 320.171 -0.282861 0.684888 0
M  V30 3227 H 322.818 -0.0338272 1.9147 0
M  V30 3228 H 321.123 -2.32932 3.1504 0
M  V30 3229 H 322.82 -2.06397 3.43804 0
M  V30 3230 H 319.41 -0.850091 4.20085 0
M  V30 3231 H 323.594 -0.226558 4.95783 0
M  V30 3232 H 318.85 0.630665 6.08139 0
M  V30 3233 H 323.024 1.24906 6.85107 0
M  V30 3234 H 320.651 1.68371 7.4132 0
M  V30 3235 N 322.226 -1.5378 -0.344866 0
M  V30 3236 C 323.475 -1.7018 -1.08267 0
M  V30 3237 C 323.788 -0.471 -1.89845 0
M  V30 3238 O 324.994 -0.515917 -2.66553 0
M  V30 3239 C 323.45 -3.00923 -1.97417 0
M  V30 3240 C 323.058 -4.31335 -1.21053 0
M  V30 3241 C 324.802 -3.26688 -2.71063 0
M  V30 3242 C 322.709 -5.53153 -2.09225 0
M  V30 3243 H 321.639 -0.634138 -0.407903 0
M  V30 3244 H 324.29 -1.8028 -0.342246 0
M  V30 3245 H 322.672 -2.84676 -2.75274 0
M  V30 3246 H 323.846 -4.58281 -0.481159 0
M  V30 3247 H 322.161 -4.12173 -0.591813 0
M  V30 3248 H 324.758 -4.1489 -3.37299 0
M  V30 3249 H 325.101 -2.43639 -3.37558 0
M  V30 3250 H 325.634 -3.43705 -2.0028 0
M  V30 3251 H 322.373 -6.38741 -1.47274 0
M  V30 3252 H 321.893 -5.30458 -2.79955 0
M  V30 3253 H 323.572 -5.88744 -2.68308 0
M  V30 3254 N 323.704 0.605807 -1.45491 0
M  V30 3255 C 324.95 1.36679 -1.49823 0
M  V30 3256 C 325.283 1.93693 -0.140175 0
M  V30 3257 O 324.558 1.75158 0.845581 0
M  V30 3258 C 324.841 2.51337 -2.57879 0
M  V30 3259 C 324.694 1.99508 -4.03134 0
M  V30 3260 C 326.013 3.53463 -2.62205 0
M  V30 3261 H 323.132 0.495617 -0.545466 0
M  V30 3262 H 325.774 0.682732 -1.7731 0
M  V30 3263 H 323.924 3.09691 -2.34571 0
M  V30 3264 H 325.596 1.45789 -4.37656 0
M  V30 3265 H 323.839 1.30496 -4.13707 0
M  V30 3266 H 324.51 2.82169 -4.74431 0
M  V30 3267 H 326.986 3.04953 -2.83095 0
M  V30 3268 H 325.862 4.31178 -3.39672 0
M  V30 3269 H 326.123 4.09197 -1.67363 0
M  V30 3270 N 325.182 1.32811 0.848464 0
M  V30 3271 C 326.43 1.23479 1.59991 0
M  V30 3272 C 326.751 -0.201853 1.93952 0
M  V30 3273 O 326.021 -1.12818 1.60153 0
M  V30 3274 H 324.601 0.454034 0.593179 0
M  V30 3275 H 327.263 1.66412 1.01455 0
M  V30 3276 H 326.359 1.82178 2.53412 0
M  V30 3277 N 326.66 -1.06551 1.16123 0
M  V30 3278 C 327.908 -1.78947 0.939267 0
M  V30 3279 C 328.229 -1.87532 -0.534476 0
M  V30 3280 O 327.499 -1.38211 -1.38833 0
M  V30 3281 H 326.079 -0.662807 0.344523 0
M  V30 3282 H 328.741 -1.28725 1.46342 0
M  V30 3283 H 327.837 -2.81117 1.35572 0
M  V30 3284 N 328.138 -0.959301 -1.25041 0
M  V30 3285 C 329.386 -0.615393 -1.92503 0
M  V30 3286 C 329.707 0.850969 -1.75452 0
M  V30 3287 O 328.977 1.60658 -1.12098 0
M  V30 3288 H 327.557 -0.224613 -0.712431 0
M  V30 3289 H 330.219 -1.21855 -1.5211 0
M  V30 3290 H 329.315 -0.848738 -3.00338 0
M  V30 3291 N 329.616 1.39756 -0.72842 0
M  V30 3292 C 330.865 1.99879 -0.270407 0
M  V30 3293 C 331.178 1.58449 1.14688 0
M  V30 3294 O 332.384 2.11362 1.70407 0
M  V30 3295 C 330.84 3.57292 -0.43252 0
M  V30 3296 C 330.448 4.07688 -1.85727 0
M  V30 3297 C 332.192 4.24485 -0.0359507 0
M  V30 3298 C 330.099 5.5765 -1.96928 0
M  V30 3299 H 329.029 0.747689 -0.0973472 0
M  V30 3300 H 331.68 1.59837 -0.901355 0
M  V30 3301 H 330.062 3.95097 0.267219 0
M  V30 3302 H 331.236 3.81231 -2.58843 0
M  V30 3303 H 329.551 3.53135 -2.20646 0
M  V30 3304 H 332.148 5.34609 -0.0987484 0
M  V30 3305 H 332.491 4.03915 1.00787 0
M  V30 3306 H 333.024 3.9183 -0.686604 0
M  V30 3307 H 329.763 5.8309 -2.99476 0
M  V30 3308 H 329.283 5.8593 -1.28241 0
M  V30 3309 H 330.962 6.22957 -1.74737 0
M  V30 3310 N 331.094 0.475555 1.50254 0
M  V30 3311 C 332.319 -0.0777042 2.07254 0
M  V30 3312 C 332.744 -1.3235 1.3366 0
M  V30 3313 O 332.102 -1.77152 0.385597 0
M  V30 3314 C 332.15 -0.340169 3.58992 0
M  V30 3315 O 331.254 -1.41982 3.87188 0
M  V30 3316 H 330.595 0.0149556 0.663832 0
M  V30 3317 H 333.125 0.667878 1.93392 0
M  V30 3318 H 333.135 -0.579332 4.03866 0
M  V30 3319 H 331.81 0.570167 4.11973 0
M  V30 3320 H 330.387 -1.16762 3.54148 0
M  V30 3321 N 332.573 -1.56217 0.208337 0
M  V30 3322 C 333.52 -2.19699 -0.707192 0
M  V30 3323 C 334.49 -1.14836 -1.20008 0
M  V30 3324 O 335.675 -1.4314 -1.26157 0
M  V30 3325 C 332.815 -2.87061 -1.91546 0
M  V30 3326 C 331.928 -4.06483 -1.46271 0
M  V30 3327 C 331.063 -4.61665 -2.62752 0
M  V30 3328 C 330.102 -5.73417 -2.14147 0
M  V30 3329 N 329.239 -6.22948 -3.23853 0
M  V30 3330 H 334.079 -2.97575 -0.159111 0
M  V30 3331 H 331.616 -1.46948 -0.0667874 0
M  V30 3332 H 333.574 -3.24294 -2.62468 0
M  V30 3333 H 332.204 -2.11725 -2.43664 0
M  V30 3334 H 331.256 -3.74825 -0.648886 0
M  V30 3335 H 332.568 -4.87271 -1.06622 0
M  V30 3336 H 331.722 -5.01272 -3.41776 0
M  V30 3337 H 330.461 -3.80013 -3.05682 0
M  V30 3338 H 329.466 -5.33326 -1.33581 0
M  V30 3339 H 330.691 -6.56897 -1.72232 0
M  V30 3340 H 328.637 -5.44213 -3.6629 0
M  V30 3341 H 328.554 -6.98823 -2.88414 0
M  V30 3342 H 329.822 -6.6721 -4.03052 0
M  V30 3343 N 334.051 0.0651679 -1.57465 0
M  V30 3344 C 335.467 0.420105 -1.53972 0
M  V30 3345 C 335.667 1.78782 -0.929474 0
M  V30 3346 O 334.723 2.46771 -0.534839 0
M  V30 3347 C 336.036 0.355084 -2.98596 0
M  V30 3348 C 337.584 0.434792 -3.09965 0
M  V30 3349 C 338.059 0.399609 -4.56253 0
M  V30 3350 N 339.55 0.459488 -4.60915 0
M  V30 3351 C 340.285 0.454584 -5.71595 0
M  V30 3352 N 339.781 0.404102 -6.9162 0
M  V30 3353 N 341.574 0.501635 -5.59857 0
M  V30 3354 H 333.725 -0.830328 -1.95498 0
M  V30 3355 H 335.988 -0.312244 -0.895102 0
M  V30 3356 H 335.694 -0.583357 -3.46828 0
M  V30 3357 H 335.568 1.16275 -3.58831 0
M  V30 3358 H 337.955 1.36366 -2.61703 0
M  V30 3359 H 338.036 -0.40157 -2.52628 0
M  V30 3360 H 337.68 -0.525436 -5.05175 0
M  V30 3361 H 337.61 1.25359 -5.11461 0
M  V30 3362 H 340.101 0.502482 -3.74544 0
M  V30 3363 H 340.414 0.404468 -7.71741 0
M  V30 3364 H 338.759 0.37069 -6.94011 0
M  V30 3365 H 341.95 0.538812 -4.64989 0
M  V30 3366 H 342.123 0.494345 -6.46112 0
M  V30 3367 N 335.529 1.53961 0.336706 0
M  V30 3368 C 336.492 1.81724 1.39675 0
M  V30 3369 C 337.492 0.688532 1.45313 0
M  V30 3370 O 338.682 0.956829 1.45569 0
M  V30 3371 C 335.814 1.96543 2.78538 0
M  V30 3372 H 337.007 2.76424 1.16318 0
M  V30 3373 H 334.56 1.45478 0.571474 0
M  V30 3374 H 335.295 1.0401 3.07168 0
M  V30 3375 H 335.08 2.78665 2.75841 0
M  V30 3376 H 336.57 2.19516 3.5525 0
M  V30 3377 N 337.007 -0.598083 1.45811 0
M  V30 3378 C 338.284 -1.35777 1.40797 0
M  V30 3379 C 338.664 -2.10935 0.083462 0
M  V30 3380 O 338.012 -2.08505 -0.934763 0
M  V30 3381 C 338.222 -2.29666 2.62783 0
M  V30 3382 C 339.57 -2.91977 3.08277 0
M  V30 3383 O 340.594 -2.39984 2.63223 0
M  V30 3384 O 339.453 -3.86376 3.86491 0
M  V30 3385 H 336.547 -0.609291 0.55919 0
M  V30 3386 H 339.093 -0.620379 1.57954 0
M  V30 3387 H 337.865 -1.73454 3.50756 0
M  V30 3388 H 337.488 -3.1077 2.48008 0
M  V30 3389 N 338.485 -1.33259 -0.841409 0
M  V30 3390 C 339.395 -1.25332 -1.98316 0
M  V30 3391 C 340.411 -0.164364 -1.73222 0
M  V30 3392 O 341.587 -0.387486 -1.97637 0
M  V30 3393 C 338.652 -0.990078 -3.32262 0
M  V30 3394 C 337.713 -2.16879 -3.70489 0
M  V30 3395 C 336.946 -1.91801 -4.98044 0
M  V30 3396 O 337.169 -0.867075 -5.63771 0
M  V30 3397 O 336.103 -2.78267 -5.33714 0
M  V30 3398 H 339.929 -2.21344 -2.07944 0
M  V30 3399 H 337.514 -1.1328 -0.974058 0
M  V30 3400 H 339.396 -0.860321 -4.12524 0
M  V30 3401 H 338.071 -0.0602155 -3.23644 0
M  V30 3402 H 336.978 -2.35407 -2.90748 0
M  V30 3403 H 338.311 -3.0819 -3.8377 0
M  V30 3404 N 339.963 1.05934 -1.16686 0
M  V30 3405 C 341.193 1.82226 -0.973515 0
M  V30 3406 C 341.601 1.8297 0.481532 0
M  V30 3407 O 340.944 1.25009 1.34604 0
M  V30 3408 C 341.006 3.29897 -1.42858 0
M  V30 3409 C 340.67 3.52849 -2.90425 0
M  V30 3410 C 341.667 3.45595 -3.88407 0
M  V30 3411 C 339.352 3.80053 -3.28428 0
M  V30 3412 C 341.346 3.65217 -5.22394 0
M  V30 3413 C 339.033 3.99325 -4.62583 0
M  V30 3414 C 340.031 3.91905 -5.59374 0
M  V30 3415 O 339.719 4.10647 -6.91104 0
M  V30 3416 H 339.451 0.581314 -0.345036 0
M  V30 3417 H 342.005 1.3453 -1.55212 0
M  V30 3418 H 340.235 3.78472 -0.793477 0
M  V30 3419 H 341.924 3.87692 -1.20207 0
M  V30 3420 H 342.69 3.24564 -3.60393 0
M  V30 3421 H 338.569 3.84936 -2.53664 0
M  V30 3422 H 342.113 3.59341 -5.9793 0
M  V30 3423 H 338.01 4.19846 -4.90306 0
M  V30 3424 H 338.778 4.27915 -6.97733 0
M  V30 3425 N 341.441 0.965919 1.2453 0
M  V30 3426 C 342.371 0.513476 2.27784 0
M  V30 3427 C 343.352 -0.445974 1.6415 0
M  V30 3428 O 344.537 -0.342485 1.91156 0
M  V30 3429 C 341.667 -0.198839 3.4673 0
M  V30 3430 C 340.621 0.676456 4.2262 0
M  V30 3431 C 339.947 -0.167248 5.34438 0
M  V30 3432 C 341.247 1.96017 4.84123 0
M  V30 3433 H 342.941 1.3765 2.65881 0
M  V30 3434 H 340.487 0.663321 1.27813 0
M  V30 3435 H 342.44 -0.526567 4.18097 0
M  V30 3436 H 341.164 -1.0962 3.07654 0
M  V30 3437 H 339.823 0.98743 3.53052 0
M  V30 3438 H 339.471 -1.0647 4.91603 0
M  V30 3439 H 339.171 0.415181 5.86131 0
M  V30 3440 H 340.695 -0.489688 6.08633 0
M  V30 3441 H 342.109 1.69814 5.47573 0
M  V30 3442 H 340.506 2.48918 5.4604 0
M  V30 3443 H 341.576 2.65622 4.05676 0
M  V30 3444 N 342.919 -1.39368 0.735821 0
M  V30 3445 C 344.33 -1.83313 0.354015 0
M  V30 3446 C 344.681 -1.61461 -1.11466 0
M  V30 3447 O 343.806 -1.10621 -1.85989 0
M  V30 3448 C 344.401 -3.32781 0.635769 0
M  V30 3449 C 342.96 -3.75142 0.307448 0
M  V30 3450 C 342.107 -2.62358 0.897974 0
M  V30 3451 H 345.058 -1.28349 0.933398 0
M  V30 3452 H 345.079 -3.80388 -0.0921773 0
M  V30 3453 H 344.591 -3.48654 1.70476 0
M  V30 3454 H 342.692 -3.64857 -0.755674 0
M  V30 3455 H 342.805 -4.72532 0.790583 0
M  V30 3456 H 341.169 -2.52624 0.324551 0
M  V30 3457 H 341.952 -2.81036 1.97164 0
M  V30 3458 N 344.397 -0.483516 -1.5 0
M  V30 3459 C 345.345 0.318061 -2.30415 0
M  V30 3460 C 346.339 0.978988 -1.38247 0
M  V30 3461 O 347.545 0.908673 -1.55381 0
M  V30 3462 H 343.92 0.121419 -0.742133 0
M  V30 3463 H 345.891 -0.380403 -2.95965 0
M  V30 3464 C 344.64 1.38013 -3.19136 0
M  V30 3465 H 343.963 0.880952 -3.89973 0
M  V30 3466 H 345.403 1.91332 -3.78375 0
M  V30 3467 C 343.862 2.38884 -2.37563 0
M  V30 3468 O 344.392 3.44412 -2.06744 0
M  V30 3469 N 342.598 2.10912 -1.99911 0
M  V30 3470 H 342.145 1.25118 -2.25174 0
M  V30 3471 H 342.103 2.78635 -1.45636 0
M  V30 3472 N 345.875 1.56104 -0.216619 0
M  V30 3473 C 346.805 2.23063 0.690296 0
M  V30 3474 C 347.786 1.20072 1.20485 0
M  V30 3475 O 348.971 1.48643 1.24976 0
M  V30 3476 C 346.101 2.90672 1.90072 0
M  V30 3477 C 345.055 4.00092 1.5202 0
M  V30 3478 C 344.381 4.54972 2.80899 0
M  V30 3479 C 345.681 5.17398 0.71391 0
M  V30 3480 H 347.375 2.99109 0.132038 0
M  V30 3481 H 344.921 1.43866 0.0620664 0
M  V30 3482 H 346.874 3.36204 2.54057 0
M  V30 3483 H 345.598 2.12066 2.48386 0
M  V30 3484 H 344.257 3.55283 0.903839 0
M  V30 3485 H 343.905 3.73102 3.37348 0
M  V30 3486 H 343.605 5.28817 2.56176 0
M  V30 3487 H 345.129 5.0322 3.45836 0
M  V30 3488 H 346.543 5.59342 1.25735 0
M  V30 3489 H 344.94 5.97444 0.563951 0
M  V30 3490 H 346.01 4.84088 -0.280527 0
M  V30 3491 N 347.353 -0.0568162 1.57498 0
M  V30 3492 C 348.769 -0.411933 1.54192 0
M  V30 3493 C 348.969 -1.78287 0.938942 0
M  V30 3494 O 348.025 -2.46483 0.547919 0
M  V30 3495 C 349.338 -0.339244 2.9878 0
M  V30 3496 C 350.886 -0.418348 3.10192 0
M  V30 3497 C 351.361 -0.375407 4.56459 0
M  V30 3498 N 352.852 -0.435038 4.61153 0
M  V30 3499 C 353.587 -0.424265 5.71828 0
M  V30 3500 N 353.083 -0.367418 6.91825 0
M  V30 3501 N 354.876 -0.471938 5.60115 0
M  V30 3502 H 347.027 0.840684 1.95055 0
M  V30 3503 H 349.29 0.316987 0.893433 0
M  V30 3504 H 348.996 0.601742 3.46514 0
M  V30 3505 H 348.87 -1.14371 3.59443 0
M  V30 3506 H 351.257 -1.34976 2.62422 0
M  V30 3507 H 351.338 0.414962 2.52412 0
M  V30 3508 H 350.982 0.552219 5.04889 0
M  V30 3509 H 350.912 -1.22645 5.12119 0
M  V30 3510 H 353.403 -0.482612 3.74806 0
M  V30 3511 H 353.716 -0.363535 7.71944 0
M  V30 3512 H 352.061 -0.333879 6.94198 0
M  V30 3513 H 355.252 -0.514145 4.65268 0
M  V30 3514 H 355.425 -0.460073 6.46365 0
M  V30 3515 N 348.832 -1.54138 -0.328536 0
M  V30 3516 C 349.762 -1.86167 -1.40939 0
M  V30 3517 C 350.743 -0.718044 -1.54202 0
M  V30 3518 O 351.928 -0.971328 -1.68163 0
M  V30 3519 C 349.058 -2.08461 -2.77779 0
M  V30 3520 C 348.012 -3.24299 -2.7931 0
M  V30 3521 C 347.338 -3.31955 -4.19178 0
M  V30 3522 C 348.638 -4.62065 -2.43502 0
M  V30 3523 H 350.332 -2.76689 -1.14383 0
M  V30 3524 H 347.878 -1.33132 -0.548806 0
M  V30 3525 H 349.831 -2.29453 -3.53454 0
M  V30 3526 H 348.555 -1.14684 -3.05802 0
M  V30 3527 H 347.214 -3.03187 -2.0609 0
M  V30 3528 H 346.862 -2.35745 -4.44335 0
M  V30 3529 H 346.562 -4.09805 -4.2111 0
M  V30 3530 H 348.086 -3.55175 -4.96672 0
M  V30 3531 H 349.5 -4.8297 -3.08889 0
M  V30 3532 H 347.897 -5.42429 -2.56693 0
M  V30 3533 H 348.967 -4.64652 -1.38659 0
M  V30 3534 N 350.31 0.590341 -1.46126 0
M  V30 3535 C 351.726 0.912917 -1.30912 0
M  V30 3536 C 351.926 1.99616 -0.274893 0
M  V30 3537 O 350.982 2.50397 0.325197 0
M  V30 3538 C 352.295 1.3375 -2.69317 0
M  V30 3539 C 353.843 1.45077 -2.77348 0
M  V30 3540 C 354.318 1.90904 -4.16317 0
M  V30 3541 N 355.809 1.9811 -4.18696 0
M  V30 3542 C 356.544 2.34828 -5.23109 0
M  V30 3543 N 356.04 2.70393 -6.37856 0
M  V30 3544 N 357.833 2.35317 -5.10473 0
M  V30 3545 H 349.984 -0.125358 -2.1203 0
M  V30 3546 H 352.247 0.00658481 -0.947977 0
M  V30 3547 H 351.953 0.615614 -3.4627 0
M  V30 3548 H 351.827 2.30058 -2.9892 0
M  V30 3549 H 354.214 2.16353 -2.00687 0
M  V30 3550 H 354.295 0.4704 -2.51438 0
M  V30 3551 H 353.939 1.20209 -4.9347 0
M  V30 3552 H 353.869 2.89886 -4.39629 0
M  V30 3553 H 356.36 1.73146 -3.359 0
M  V30 3554 H 356.673 2.97341 -7.13308 0
M  V30 3555 H 355.018 2.68048 -6.41229 0
M  V30 3556 H 358.209 2.0695 -4.19868 0
M  V30 3557 H 358.382 2.63605 -5.9196 0
M  V30 3558 N 351.788 1.33704 0.83433 0
M  V30 3559 C 353.016 1.28467 1.62185 0
M  V30 3560 C 353.431 -0.143526 1.88254 0
M  V30 3561 O 352.788 -1.08709 1.4659 0
M  V30 3562 C 352.839 2.06174 2.96942 0
M  V30 3563 O 352.56 3.43422 2.72016 0
M  V30 3564 C 354.061 2.08201 3.91366 0
M  V30 3565 H 351.281 0.4424 0.504503 0
M  V30 3566 H 353.825 1.76145 1.03891 0
M  V30 3567 H 351.98 1.62167 3.51825 0
M  V30 3568 H 352.394 3.83453 3.57861 0
M  V30 3569 H 353.868 2.67017 4.83121 0
M  V30 3570 H 354.345 1.07343 4.2588 0
M  V30 3571 H 354.951 2.52246 3.42421 0
M  V30 3572 N 353.266 -1.05314 1.17247 0
M  V30 3573 C 354.677 -1.59753 0.96623 0
M  V30 3574 C 355.028 -1.9005 -0.487378 0
M  V30 3575 O 354.153 -1.68126 -1.36245 0
M  V30 3576 C 354.748 -2.90249 1.74759 0
M  V30 3577 C 353.307 -3.41352 1.58606 0
M  V30 3578 C 352.454 -2.15103 1.75002 0
M  V30 3579 H 355.405 -0.881406 1.31973 0
M  V30 3580 H 355.426 -3.60097 1.22925 0
M  V30 3581 H 354.938 -2.68166 2.8055 0
M  V30 3582 H 353.039 -3.68474 0.552985 0
M  V30 3583 H 353.152 -4.16019 2.37624 0
M  V30 3584 H 351.516 -2.25804 1.17833 0
M  V30 3585 H 352.299 -1.95491 2.82202 0
M  V30 3586 N 354.744 -0.972509 -1.24016 0
M  V30 3587 C 355.993 -0.632603 -1.91523 0
M  V30 3588 C 356.306 0.836641 -1.76804 0
M  V30 3589 O 357.512 1.28728 -2.39043 0
M  V30 3590 C 355.968 -1.08082 -3.43287 0
M  V30 3591 C 355.576 -2.57386 -3.66683 0
M  V30 3592 C 357.32 -0.814288 -4.16617 0
M  V30 3593 C 355.227 -2.95915 -5.12043 0
M  V30 3594 H 354.157 -0.232898 -0.717129 0
M  V30 3595 H 356.808 -1.17936 -1.40582 0
M  V30 3596 H 355.19 -0.462339 -3.93292 0
M  V30 3597 H 356.364 -3.24405 -3.27258 0
M  V30 3598 H 354.679 -2.81701 -3.06649 0
M  V30 3599 H 357.276 -1.0781 -5.23718 0
M  V30 3600 H 357.619 0.24955 -4.15551 0
M  V30 3601 H 358.152 -1.39397 -3.72577 0
M  V30 3602 H 354.891 -4.0139 -5.18234 0
M  V30 3603 H 354.411 -2.33584 -5.52448 0
M  V30 3604 H 356.09 -2.86086 -5.80314 0
M  V30 3605 N 356.222 1.38976 -0.743202 0
M  V30 3606 C 357.468 2.0064 -0.295189 0
M  V30 3607 C 357.801 1.5885 1.11716 0
M  V30 3608 O 357.076 0.821181 1.76315 0
M  V30 3609 C 357.359 3.578 -0.406318 0
M  V30 3610 C 357.212 4.09586 -1.85903 0
M  V30 3611 C 358.531 4.39616 0.206439 0
M  V30 3612 H 355.65 0.728935 -0.108733 0
M  V30 3613 H 358.292 1.65067 -0.940897 0
M  V30 3614 H 356.442 3.88235 0.143419 0
M  V30 3615 H 358.114 3.89837 -2.46627 0
M  V30 3616 H 356.357 3.6284 -2.3776 0
M  V30 3617 H 357.028 5.18708 -1.888 0
M  V30 3618 H 359.504 4.15273 -0.262283 0
M  V30 3619 H 358.38 5.48812 0.0983819 0
M  V30 3620 H 358.641 4.22754 1.2935 0
M  V30 3621 N 357.7 0.491464 1.49741 0
M  V30 3622 C 359.111 0.0413169 1.86654 0
M  V30 3623 C 359.462 -1.36985 1.40462 0
M  V30 3624 O 358.587 -2.01917 0.778354 0
M  V30 3625 C 359.182 0.0682023 3.38731 0
M  V30 3626 C 357.741 -0.32656 3.74981 0
M  V30 3627 C 356.888 0.444888 2.73708 0
M  V30 3628 H 359.839 0.704733 1.42194 0
M  V30 3629 H 359.86 -0.729322 3.73445 0
M  V30 3630 H 359.372 1.09539 3.72321 0
M  V30 3631 H 357.473 -1.35734 3.46997 0
M  V30 3632 H 357.586 -0.013741 4.79098 0
M  V30 3633 H 355.95 -0.104062 2.54487 0
M  V30 3634 H 356.733 1.47197 3.10142 0
M  V30 3635 N 359.178 -1.55987 0.224894 0
M  V30 3636 C 360.141 -2.19178 -0.670348 0
M  V30 3637 C 361.141 -1.15461 -1.11917 0
M  V30 3638 O 362.331 -1.40675 -1.02743 0
M  V30 3639 C 359.463 -2.81777 -1.9187 0
M  V30 3640 H 360.656 -2.99662 -0.119364 0
M  V30 3641 H 358.209 -1.5628 -0.0247128 0
M  V30 3642 H 358.944 -2.05172 -2.51147 0
M  V30 3643 H 358.729 -3.57732 -1.60531 0
M  V30 3644 H 360.219 -3.30205 -2.55645 0
M  V30 3645 N 360.656 0.0484629 -1.57525 0
M  V30 3646 C 361.902 0.744226 -1.88651 0
M  V30 3647 C 362.235 1.76029 -0.820212 0
M  V30 3648 O 361.51 1.93782 0.166985 0
M  V30 3649 C 361.793 1.43128 -3.30434 0
M  V30 3650 C 361.646 0.43005 -4.47739 0
M  V30 3651 C 362.965 2.37031 -3.70816 0
M  V30 3652 H 360.084 0.269089 -0.68612 0
M  V30 3653 H 362.726 0.00713532 -1.89999 0
M  V30 3654 H 360.876 2.05956 -3.29415 0
M  V30 3655 H 362.548 -0.194816 -4.60888 0
M  V30 3656 H 360.791 -0.252522 -4.33064 0
M  V30 3657 H 361.462 0.948874 -5.43783 0
M  V30 3658 H 363.938 1.84263 -3.73077 0
M  V30 3659 H 362.814 2.82094 -4.70865 0
M  V30 3660 H 363.075 3.22864 -3.02012 0
M  V30 3661 N 362.134 1.5431 0.320358 0
M  V30 3662 C 363.064 1.86912 1.3995 0
M  V30 3663 C 364.045 0.726211 1.53819 0
M  V30 3664 O 365.23 0.980233 1.67646 0
M  V30 3665 C 362.36 2.09932 2.7667 0
M  V30 3666 C 361.314 3.25776 2.77586 0
M  V30 3667 C 360.64 3.34173 4.17412 0
M  V30 3668 C 361.94 4.6335 2.41048 0
M  V30 3669 H 363.634 2.77292 1.12914 0
M  V30 3670 H 361.18 1.33421 0.541738 0
M  V30 3671 H 363.133 2.31324 3.52232 0
M  V30 3672 H 361.857 1.16304 3.0519 0
M  V30 3673 H 360.516 3.04276 2.04479 0
M  V30 3674 H 360.164 2.38098 4.43078 0
M  V30 3675 H 359.864 4.12033 4.18931 0
M  V30 3676 H 361.388 3.57803 4.94782 0
M  V30 3677 H 362.802 4.84602 3.06324 0
M  V30 3678 H 361.199 5.43782 2.53813 0
M  V30 3679 H 362.269 4.65381 1.36193 0
M  V30 3680 N 363.613 -0.582584 1.46437 0
M  V30 3681 C 365.029 -0.905962 1.31394 0
M  V30 3682 C 365.229 -1.99468 0.285476 0
M  V30 3683 O 364.285 -2.50566 -0.311914 0
M  V30 3684 C 365.598 -1.3232 2.70022 0
M  V30 3685 C 367.146 -1.43604 2.78113 0
M  V30 3686 C 367.621 -1.88694 4.17323 0
M  V30 3687 N 369.112 -1.95887 4.19741 0
M  V30 3688 C 369.847 -2.32051 5.24347 0
M  V30 3689 N 369.343 -2.67006 6.39281 0
M  V30 3690 N 371.136 -2.32606 5.11713 0
M  V30 3691 H 363.287 0.1366 2.1196 0
M  V30 3692 H 365.55 -0.00155736 0.947999 0
M  V30 3693 H 365.256 -0.597242 3.46592 0
M  V30 3694 H 365.13 -2.28469 3.00136 0
M  V30 3695 H 367.517 -2.15286 2.01832 0
M  V30 3696 H 367.598 -0.457059 2.51684 0
M  V30 3697 H 367.242 -1.1759 4.941 0
M  V30 3698 H 367.172 -2.8755 4.4116 0
M  V30 3699 H 369.663 -1.71362 3.36814 0
M  V30 3700 H 369.976 -2.93554 7.14875 0
M  V30 3701 H 368.321 -2.64644 6.42642 0
M  V30 3702 H 371.512 -2.04721 4.2096 0
M  V30 3703 H 371.685 -2.60462 5.93349 0
M  V30 3704 N 365.091 -1.34144 -0.827227 0
M  V30 3705 C 366.039 -1.25364 -1.95925 0
M  V30 3706 C 367.033 -0.152608 -1.68711 0
M  V30 3707 O 368.239 -0.317311 -1.77181 0
M  V30 3708 H 364.614 -0.389342 -0.643364 0
M  V30 3709 H 366.585 -2.21045 -2.00454 0
M  V30 3710 C 365.334 -1.02158 -3.32354 0
M  V30 3711 H 364.657 -1.86111 -3.5384 0
M  V30 3712 H 366.097 -1.00048 -4.12027 0
M  V30 3713 C 364.556 0.275244 -3.35774 0
M  V30 3714 O 365.086 1.27806 -3.80826 0
M  V30 3715 N 363.292 0.306853 -2.88975 0
M  V30 3716 H 362.839 -0.509777 -2.52506 0
M  V30 3717 H 362.797 1.17432 -2.91646 0
M  V30 3718 N 366.569 1.04691 -1.17803 0
M  V30 3719 C 367.479 2.16057 -0.914151 0
M  V30 3720 C 368.495 1.73589 0.119503 0
M  V30 3721 O 369.671 2.01308 -0.0609468 0
M  V30 3722 C 366.736 3.4394 -0.436603 0
M  V30 3723 C 365.797 4.00825 -1.53746 0
M  V30 3724 C 365.03 5.22604 -1.0826 0
M  V30 3725 O 365.253 5.70367 0.0612244 0
M  V30 3726 O 364.187 5.7186 -1.87775 0
M  V30 3727 H 368.013 2.41169 -1.84584 0
M  V30 3728 H 365.598 1.1453 -0.959334 0
M  V30 3729 H 367.48 4.21024 -0.178057 0
M  V30 3730 H 366.155 3.20316 0.466869 0
M  V30 3731 H 365.062 3.25158 -1.84995 0
M  V30 3732 H 366.395 4.28778 -2.41683 0
M  V30 3733 N 368.047 0.979072 1.23499 0
M  V30 3734 C 369.01 0.523244 2.23147 0
M  V30 3735 C 370.01 -0.386406 1.56088 0
M  V30 3736 O 371.2 -0.180283 1.73265 0
M  V30 3737 C 368.332 -0.240739 3.40049 0
M  V30 3738 H 369.525 1.40432 2.64989 0
M  V30 3739 H 367.078 0.764824 1.36309 0
M  V30 3740 H 367.813 -1.13841 3.03662 0
M  V30 3741 H 367.598 0.412207 3.89927 0
M  V30 3742 H 369.088 -0.548297 4.13985 0
M  V30 3743 N 369.525 -1.3858 0.750561 0
M  V30 3744 C 370.773 -1.99789 0.30477 0
M  V30 3745 C 371.094 -1.59874 -1.11649 0
M  V30 3746 O 370.364 -0.85417 -1.76297 0
M  V30 3747 H 368.944 -0.738902 0.109694 0
M  V30 3748 H 371.606 -1.69391 0.963983 0
M  V30 3749 H 370.702 -3.09952 0.365499 0
M  V30 3750 N 371.003 -0.499398 -1.49478 0
M  V30 3751 C 372.252 0.0475259 -2.01644 0
M  V30 3752 C 372.565 1.38195 -1.38425 0
M  V30 3753 O 373.771 2.01547 -1.8191 0
M  V30 3754 C 372.227 0.135164 -3.59646 0
M  V30 3755 C 371.835 -1.19252 -4.31837 0
M  V30 3756 C 373.579 0.632538 -4.19761 0
M  V30 3757 C 371.486 -1.06713 -5.81693 0
M  V30 3758 H 370.416 0.0215349 -0.753692 0
M  V30 3759 H 373.067 -0.638577 -1.7203 0
M  V30 3760 H 371.449 0.885681 -3.85969 0
M  V30 3761 H 372.623 -1.9562 -4.17216 0
M  V30 3762 H 370.938 -1.62321 -3.83459 0
M  V30 3763 H 373.535 0.743833 -5.29501 0
M  V30 3764 H 373.878 1.63098 -3.83021 0
M  V30 3765 H 374.411 -0.0613987 -3.97753 0
M  V30 3766 H 371.15 -2.03979 -6.22955 0
M  V30 3767 H 370.67 -0.344307 -5.98811 0
M  V30 3768 H 372.349 -0.745208 -6.42694 0
M  V30 3769 N 372.481 1.55866 -0.233164 0
M  V30 3770 C 373.727 1.98897 0.395959 0
M  V30 3771 C 374.06 1.12091 1.58585 0
M  V30 3772 O 373.335 0.181182 1.93654 0
M  V30 3773 C 373.618 3.50658 0.819224 0
M  V30 3774 C 373.471 4.48233 -0.375109 0
M  V30 3775 C 374.79 4.07135 1.67121 0
M  V30 3776 H 371.909 0.723102 0.142451 0
M  V30 3777 H 374.551 1.87082 -0.331725 0
M  V30 3778 H 372.701 3.60857 1.43925 0
M  V30 3779 H 374.373 4.50031 -1.01341 0
M  V30 3780 H 372.616 4.21624 -1.02058 0
M  V30 3781 H 373.287 5.51988 -0.0358328 0
M  V30 3782 H 375.763 3.99952 1.14795 0
M  V30 3783 H 374.639 5.13615 1.93625 0
M  V30 3784 H 374.9 3.54736 2.63846 0
M  V30 3785 N 373.959 -0.0401083 1.57549 0
M  V30 3786 C 375.207 -0.731677 1.8839 0
M  V30 3787 C 375.528 -1.76481 0.829425 0
M  V30 3788 O 374.798 -1.95411 -0.1383 0
M  V30 3789 H 373.378 -0.273225 0.695239 0
M  V30 3790 H 376.04 -0.00867725 1.94898 0
M  V30 3791 H 375.136 -1.22816 2.86919 0
M  V30 3792 N 375.437 -1.54477 -0.31217 0
M  V30 3793 C 376.4 -1.83923 -1.36766 0
M  V30 3794 C 377.4 -0.711563 -1.44199 0
M  V30 3795 O 378.59 -0.979866 -1.44029 0
M  V30 3796 C 375.722 -2.0095 -2.75376 0
M  V30 3797 H 376.915 -2.78239 -1.11906 0
M  V30 3798 H 374.468 -1.46369 -0.548257 0
M  V30 3799 H 375.203 -1.08883 -3.05475 0
M  V30 3800 H 374.988 -2.83018 -2.71373 0
M  V30 3801 H 376.478 -2.2514 -3.51713 0
M  V30 3802 N 376.915 0.57481 -1.46744 0
M  V30 3803 C 377.878 1.66533 -1.57478 0
M  V30 3804 C 378.878 1.54338 -0.451263 0
M  V30 3805 O 380.068 1.58814 -0.715813 0
M  V30 3806 C 377.2 3.05999 -1.50259 0
M  V30 3807 H 378.393 1.58372 -2.54673 0
M  V30 3808 H 375.946 0.793301 -1.34672 0
M  V30 3809 H 376.681 3.19709 -0.543725 0
M  V30 3810 H 376.466 3.16259 -2.31781 0
M  V30 3811 H 377.956 3.8537 -1.60872 0
M  V30 3812 N 378.394 1.34581 0.820102 0
M  V30 3813 C 379.643 1.26437 1.57151 0
M  V30 3814 C 379.956 -0.163111 1.94919 0
M  V30 3815 O 381.162 -0.366722 2.69012 0
M  V30 3816 C 379.618 2.21658 2.83541 0
M  V30 3817 C 379.226 3.69679 2.53065 0
M  V30 3818 C 380.97 2.22428 3.61561 0
M  V30 3819 C 378.877 4.56761 3.75664 0
M  V30 3820 H 377.807 0.469707 0.589823 0
M  V30 3821 H 380.458 1.59763 0.902656 0
M  V30 3822 H 378.84 1.81287 3.52067 0
M  V30 3823 H 380.014 4.18605 1.92631 0
M  V30 3824 H 378.329 3.71384 1.88316 0
M  V30 3825 H 380.926 2.8471 4.52597 0
M  V30 3826 H 381.269 1.22434 3.97889 0
M  V30 3827 H 381.802 2.61259 2.99981 0
M  V30 3828 H 378.541 5.57702 3.44454 0
M  V30 3829 H 378.061 4.12568 4.35371 0
M  V30 3830 H 379.74 4.71509 4.43044 0
M  V30 3831 N 379.872 -1.04064 1.18357 0
M  V30 3832 C 380.782 -2.15569 0.925596 0
M  V30 3833 C 381.798 -1.7365 -0.110295 0
M  V30 3834 O 382.974 -2.01273 0.0716218 0
M  V30 3835 C 380.039 -3.43704 0.454836 0
M  V30 3836 C 379.1 -4.00004 1.55869 0
M  V30 3837 C 378.333 -5.22023 1.1103 0
M  V30 3838 O 378.556 -5.70392 -0.0309756 0
M  V30 3839 O 377.49 -5.70856 1.90805 0
M  V30 3840 H 381.316 -2.40187 1.8586 0
M  V30 3841 H 378.901 -1.1402 0.965394 0
M  V30 3842 H 380.783 -4.20923 0.200382 0
M  V30 3843 H 379.458 -3.20559 -0.449876 0
M  V30 3844 H 378.365 -3.24172 1.86716 0
M  V30 3845 H 379.698 -4.2749 2.43953 0
M  V30 3846 N 381.35 -0.985608 -1.22978 0
M  V30 3847 C 382.599 -0.652881 -1.90841 0
M  V30 3848 C 382.912 0.817842 -1.77681 0
M  V30 3849 O 384.118 1.26185 -2.40395 0
M  V30 3850 C 382.574 -1.11717 -3.42122 0
M  V30 3851 C 382.182 -2.6126 -3.63933 0
M  V30 3852 C 383.926 -0.85843 -4.1573 0
M  V30 3853 C 381.833 -3.0133 -5.08876 0
M  V30 3854 H 380.763 -0.240491 -0.714619 0
M  V30 3855 H 383.414 -1.1942 -1.39324 0
M  V30 3856 H 381.796 -0.504027 -3.92779 0
M  V30 3857 H 382.97 -3.27858 -3.23799 0
M  V30 3858 H 381.285 -2.84937 -3.03644 0
M  V30 3859 H 383.882 -1.13359 -5.22546 0
M  V30 3860 H 384.225 0.205461 -4.15793 0
M  V30 3861 H 384.758 -1.43341 -3.71077 0
M  V30 3862 H 381.497 -4.06864 -5.13947 0
M  V30 3863 H 381.017 -2.3943 -5.49939 0
M  V30 3864 H 382.696 -2.92224 -5.77247 0
M  V30 3865 N 382.828 1.3818 -0.7579 0
M  V30 3866 C 383.791 2.28764 -0.141286 0
M  V30 3867 C 384.791 1.47388 0.642907 0
M  V30 3868 O 385.981 1.67781 0.468536 0
M  V30 3869 C 383.113 3.31184 0.808069 0
M  V30 3870 H 384.306 2.848 -0.939633 0
M  V30 3871 H 381.859 1.47212 -0.525191 0
M  V30 3872 H 382.594 2.80247 1.63193 0
M  V30 3873 H 382.379 3.91314 0.248104 0
M  V30 3874 H 383.869 3.98909 1.23536 0
M  V30 3875 N 384.306 0.507319 1.49211 0
M  V30 3876 C 385.236 -0.256939 2.32082 0
M  V30 3877 C 386.217 -0.956609 1.40652 0
M  V30 3878 O 387.402 -0.946788 1.69557 0
M  V30 3879 C 384.532 -1.31802 3.21318 0
M  V30 3880 C 383.486 -0.737855 4.21592 0
M  V30 3881 C 382.812 -1.89992 4.99807 0
M  V30 3882 C 384.112 0.275325 5.21574 0
M  V30 3883 H 385.806 0.434798 2.96226 0
M  V30 3884 H 383.352 0.210546 1.42452 0
M  V30 3885 H 385.305 -1.86045 3.78107 0
M  V30 3886 H 384.029 -2.03903 2.5513 0
M  V30 3887 H 382.688 -0.217126 3.65956 0
M  V30 3888 H 382.336 -2.60877 4.30061 0
M  V30 3889 H 382.036 -1.51777 5.6766 0
M  V30 3890 H 383.56 -2.44657 5.59442 0
M  V30 3891 H 384.974 -0.179193 5.7302 0
M  V30 3892 H 383.371 0.573649 5.97352 0
M  V30 3893 H 384.441 1.18903 4.70096 0
M  V30 3894 N 385.784 -1.5574 0.241426 0
M  V30 3895 C 386.716 -2.18469 -0.693091 0
M  V30 3896 C 387.729 -1.15942 -1.14286 0
M  V30 3897 O 388.918 -1.42832 -1.07058 0
M  V30 3898 C 386.018 -2.7696 -1.95311 0
M  V30 3899 C 385.191 -4.04853 -1.65568 0
M  V30 3900 C 384.25 -4.47715 -2.76474 0
M  V30 3901 O 383.276 -5.14205 -2.44094 0
M  V30 3902 N 384.478 -4.15044 -4.05855 0
M  V30 3903 H 387.243 -2.99292 -0.156388 0
M  V30 3904 H 384.804 -1.61784 0.0611752 0
M  V30 3905 H 386.796 -3.02594 -2.68736 0
M  V30 3906 H 385.366 -2.00326 -2.39975 0
M  V30 3907 H 384.586 -3.86865 -0.756886 0
M  V30 3908 H 385.874 -4.88246 -1.43153 0
M  V30 3909 H 385.272 -3.61654 -4.34998 0
M  V30 3910 H 383.829 -4.45526 -4.75762 0
M  V30 3911 N 387.262 0.0317525 -1.57568 0
M  V30 3912 C 388.212 1.04101 -2.02847 0
M  V30 3913 C 389.196 1.3219 -0.917317 0
M  V30 3914 O 390.388 1.31819 -1.18121 0
M  V30 3915 C 387.517 2.34295 -2.5092 0
M  V30 3916 C 386.603 2.09308 -3.68851 0
M  V30 3917 N 386.994 1.5437 -4.81667 0
M  V30 3918 C 385.292 2.39604 -3.76172 0
M  V30 3919 C 385.993 1.45126 -5.63306 0
M  V30 3920 N 384.969 1.92589 -5.08341 0
M  V30 3921 H 388.771 0.610217 -2.87495 0
M  V30 3922 H 386.285 0.238108 -1.60645 0
M  V30 3923 H 388.282 3.07404 -2.81617 0
M  V30 3924 H 386.942 2.78055 -1.67677 0
M  V30 3925 H 387.953 1.22678 -5.03161 0
M  V30 3926 H 384.63 2.86457 -3.03724 0
M  V30 3927 H 386.02 1.03163 -6.63933 0
M  V30 3928 N 388.74 1.54641 0.303973 0
M  V30 3929 C 389.687 1.85386 1.37479 0
M  V30 3930 C 390.657 0.702528 1.50512 0
M  V30 3931 O 391.842 0.950867 1.65418 0
M  V30 3932 C 388.982 2.10413 2.73533 0
M  V30 3933 C 388.095 3.38049 2.68974 0
M  V30 3934 C 387.23 3.52934 3.97002 0
M  V30 3935 C 386.269 4.74373 3.86829 0
M  V30 3936 N 385.406 4.8608 5.06627 0
M  V30 3937 H 390.246 2.76732 1.1056 0
M  V30 3938 H 387.783 1.37034 0.534805 0
M  V30 3939 H 389.741 2.22919 3.52652 0
M  V30 3940 H 388.371 1.22338 2.98719 0
M  V30 3941 H 387.423 3.3418 1.81736 0
M  V30 3942 H 388.735 4.27288 2.57346 0
M  V30 3943 H 387.889 3.65088 4.84557 0
M  V30 3944 H 386.628 2.61824 4.1146 0
M  V30 3945 H 385.633 4.62255 2.97658 0
M  V30 3946 H 386.858 5.66888 3.73918 0
M  V30 3947 H 384.804 3.97891 5.21554 0
M  V30 3948 H 384.721 5.69315 4.9741 0
M  V30 3949 H 385.989 5.02587 5.95841 0
M  V30 3950 N 390.218 -0.567019 1.47046 0
M  V30 3951 C 391.148 -1.68482 1.61667 0
M  V30 3952 C 392.129 -1.6358 0.466418 0
M  V30 3953 O 393.314 -1.81354 0.694574 0
M  V30 3954 C 390.444 -3.07124 1.62148 0
M  V30 3955 C 389.398 -3.26867 2.76301 0
M  V30 3956 C 388.724 -4.66196 2.61849 0
M  V30 3957 C 390.024 -3.13186 4.17986 0
M  V30 3958 H 391.718 -1.56502 2.5524 0
M  V30 3959 H 389.264 -0.751486 1.22836 0
M  V30 3960 H 391.217 -3.8516 1.70968 0
M  V30 3961 H 389.941 -3.2004 0.651287 0
M  V30 3962 H 388.6 -2.51237 2.66975 0
M  V30 3963 H 388.248 -4.75898 1.62879 0
M  V30 3964 H 387.948 -4.80356 3.38425 0
M  V30 3965 H 389.472 -5.46379 2.72584 0
M  V30 3966 H 390.886 -3.81049 4.2834 0
M  V30 3967 H 389.283 -3.3886 4.95272 0
M  V30 3968 H 390.353 -2.10057 4.3704 0
M  V30 3969 N 391.696 -1.35014 -0.812953 0
M  V30 3970 C 392.659 -1.27292 -1.90602 0
M  V30 3971 C 393.659 -0.185817 -1.59723 0
M  V30 3972 O 394.849 -0.439102 -1.68575 0
M  V30 3973 C 391.981 -0.967676 -3.26877 0
M  V30 3974 H 393.174 -2.24479 -1.9887 0
M  V30 3975 H 390.727 -1.19446 -1.00808 0
M  V30 3976 H 391.462 0.0005954 -3.243 0
M  V30 3977 H 391.247 -1.75412 -3.50675 0
M  V30 3978 H 392.737 -0.939085 -4.06904 0
M  V30 3979 N 393.175 1.03435 -1.18907 0
M  V30 3980 C 394.122 2.11591 -0.921837 0
M  V30 3981 C 395.092 1.65499 0.141226 0
M  V30 3982 O 396.277 1.908 0.000242829 0
M  V30 3983 C 393.417 3.42012 -0.460616 0
M  V30 3984 C 392.53 4.01682 -1.58982 0
M  V30 3985 C 391.665 5.20091 -1.08069 0
M  V30 3986 C 390.704 5.71805 -2.18416 0
M  V30 3987 N 389.841 6.81494 -1.68849 0
M  V30 3988 H 394.681 2.33787 -1.8479 0
M  V30 3989 H 392.218 1.1467 -0.921373 0
M  V30 3990 H 394.176 4.16834 -0.174642 0
M  V30 3991 H 392.806 3.19944 0.428467 0
M  V30 3992 H 391.858 3.24127 -1.99113 0
M  V30 3993 H 393.17 4.36084 -2.4214 0
M  V30 3994 H 392.324 6.02051 -0.749615 0
M  V30 3995 H 391.063 4.87209 -0.218771 0
M  V30 3996 H 390.068 4.88461 -2.5236 0
M  V30 3997 H 391.293 6.06728 -3.05054 0
M  V30 3998 H 389.239 6.50475 -0.849572 0
M  V30 3999 H 389.156 7.14994 -2.45601 0
M  V30 4000 H 390.424 7.67063 -1.38689 0
M  V30 4001 O 394.692 1.12039 1.16316 0
M  V30 4002 H 395.383 0.829719 1.7503 0
M  V30 END ATOM
M  V30 BEGIN BOND
M  V30 END BOND
M  V30 END CTAB
M  END
$$$$
