drugbank_target|O95298 NADH dehydrogenase [ubiquinone] 1 subunit C2 (DB00157; DB01136)
 OpenBabel12092119253D

  0  0  0     0  0            999 V3000
M  V30 BEGIN CTAB
M  V30 COUNTS 2013 2044 0 0 0
M  V30 BEGIN ATOM
M  V30 1 H -0.908 1.98254 -0.117106 0
M  V30 2 N 0 1.576 0 0
M  V30 3 C 0.933 2.03868 1.02534 0
M  V30 4 C 1.911 0.928543 1.3348 0
M  V30 5 O 3.095 1.19667 1.45644 0
M  V30 6 C 0.222 2.43627 2.35294 0
M  V30 7 C -0.732 3.65373 2.2001 0
M  V30 8 S 0.101 5.13292 1.52614 0
M  V30 9 C 1.257 5.56322 2.86805 0
M  V30 10 H 1.49 2.90518 0.631377 0
M  V30 11 H -0.977 1.52953 0.210867 0
M  V30 12 H 0.981 2.67203 3.11629 0
M  V30 13 H -0.358 1.57376 2.7183 0
M  V30 14 H -1.165 3.90944 3.18086 0
M  V30 15 H -1.563 3.418 1.51819 0
M  V30 16 H 0.729 5.58782 3.83104 0
M  V30 17 H 1.672 6.56266 2.65933 0
M  V30 18 H 2.08 4.83886 2.90714 0
M  V30 19 N 1.4781 -0.272755 1.55222 0
M  V30 20 C 2.7271 -1.00211 1.75045 0
M  V30 21 C 3.0401 -1.87441 0.559046 0
M  V30 22 O 4.2461 -2.63856 0.639698 0
M  V30 23 C 2.7021 -1.83165 3.09804 0
M  V30 24 C 2.3101 -1.008 4.36513 0
M  V30 25 C 4.0541 -2.55529 3.38977 0
M  V30 26 C 1.9611 -1.83194 5.62311 0
M  V30 27 H 0.8911 -0.377878 0.652476 0
M  V30 28 H 3.5421 -0.257776 1.8168 0
M  V30 29 H 1.9241 -2.61694 2.97207 0
M  V30 30 H 3.0981 -0.266855 4.60027 0
M  V30 31 H 1.4131 -0.398897 4.14485 0
M  V30 32 H 4.0101 -3.17578 4.30172 0
M  V30 33 H 4.3531 -3.25825 2.59121 0
M  V30 34 H 4.8861 -1.84029 3.52673 0
M  V30 35 H 1.6251 -1.17318 6.44916 0
M  V30 36 H 1.1451 -2.54905 5.4294 0
M  V30 37 H 2.8241 -2.40552 6.00619 0
M  V30 38 N 2.9562 -1.48159 -0.537278 0
M  V30 39 C 3.9192 -1.61665 -1.62472 0
M  V30 40 C 4.9192 -0.490395 -1.5314 0
M  V30 41 O 6.1092 -0.755998 -1.5694 0
M  V30 42 C 3.2412 -1.57997 -3.02076 0
M  V30 43 H 4.4342 -2.58621 -1.51839 0
M  V30 44 H 1.9872 -1.36647 -0.758771 0
M  V30 45 H 2.7222 -0.624913 -3.18222 0
M  V30 46 H 2.5072 -2.39755 -3.10258 0
M  V30 47 H 3.9972 -1.70627 -3.81151 0
M  V30 48 N 4.4343 0.785586 -1.36625 0
M  V30 49 C 5.8503 1.08419 -1.17122 0
M  V30 50 C 6.0503 2.015 0.00208491 0
M  V30 51 O 5.1063 2.43551 0.666278 0
M  V30 52 C 6.4193 1.69498 -2.48377 0
M  V30 53 C 7.9673 1.81821 -2.54775 0
M  V30 54 C 8.4423 2.46315 -3.86126 0
M  V30 55 N 9.9333 2.53779 -3.87492 0
M  V30 56 C 10.6683 3.045 -4.85868 0
M  V30 57 N 10.1643 3.55499 -5.94637 0
M  V30 58 N 11.9573 3.03247 -4.73284 0
M  V30 59 H 4.1083 0.167264 -2.1174 0
M  V30 60 H 6.3713 0.13682 -0.938075 0
M  V30 61 H 6.0773 1.08571 -3.34522 0
M  V30 62 H 5.9513 2.6896 -2.64462 0
M  V30 63 H 8.3383 2.41884 -1.69045 0
M  V30 64 H 8.4193 0.811532 -2.42586 0
M  V30 65 H 8.0633 1.86895 -4.72263 0
M  V30 66 H 7.9933 3.47561 -3.95612 0
M  V30 67 H 10.4843 2.17672 -3.08913 0
M  V30 68 H 10.7973 3.92562 -6.65669 0
M  V30 69 H 9.1423 3.5364 -5.98301 0
M  V30 70 H 12.3333 2.62696 -3.87438 0
M  V30 71 H 12.5063 3.42467 -5.50109 0
M  V30 72 N 5.9124 1.20967 1.01018 0
M  V30 73 C 7.3284 0.965905 1.27053 0
M  V30 74 C 7.5284 -0.350785 1.98423 0
M  V30 75 O 6.5844 -1.07773 2.28344 0
M  V30 76 C 7.8974 2.15294 2.09926 0
M  V30 77 C 9.4454 2.19463 2.23171 0
M  V30 78 C 9.9204 3.3767 3.09424 0
M  V30 79 N 11.4114 3.37724 3.17012 0
M  V30 80 C 12.1464 4.25837 3.83993 0
M  V30 81 N 11.6424 5.24138 4.53047 0
M  V30 82 N 13.4354 4.1366 3.80581 0
M  V30 83 H 5.5864 2.0565 0.531194 0
M  V30 84 H 7.8494 0.90024 0.297106 0
M  V30 85 H 7.5554 3.10684 1.64828 0
M  V30 86 H 7.4294 2.13923 3.10672 0
M  V30 87 H 9.8164 1.24632 2.6749 0
M  V30 88 H 9.8974 2.2488 1.21912 0
M  V30 89 H 9.5414 4.32791 2.65808 0
M  V30 90 H 9.4714 3.29491 4.10784 0
M  V30 91 H 11.9624 2.6658 2.6785 0
M  V30 92 H 12.2754 5.87684 5.01844 0
M  V30 93 H 10.6204 5.28068 4.5185 0
M  V30 94 H 13.8114 3.36127 3.25785 0
M  V30 95 H 13.9844 4.82538 4.32505 0
M  V30 96 N 7.3905 -1.2043 1.01659 0
M  V30 97 C 8.3385 -2.25249 0.580143 0
M  V30 98 C 9.3325 -1.65057 -0.381115 0
M  V30 99 O 10.5385 -1.78241 -0.251039 0
M  V30 100 H 6.9135 -0.732695 0.169299 0
M  V30 101 H 8.8845 -2.59389 1.47512 0
M  V30 102 C 7.6335 -3.47638 -0.065788 0
M  V30 103 H 6.9565 -3.94233 0.664874 0
M  V30 104 H 8.3965 -4.2268 -0.334282 0
M  V30 105 C 6.8555 -3.10447 -1.3086 0
M  V30 106 O 7.3855 -3.21981 -2.4019 0
M  V30 107 N 5.5915 -2.64996 -1.1927 0
M  V30 108 H 5.1385 -2.55811 -0.303064 0
M  V30 109 H 5.0965 -2.40482 -2.02523 0
M  V30 110 N 8.8686 -0.792821 -1.36206 0
M  V30 111 C 10.2796 -0.429513 -1.81692 0
M  V30 112 C 10.6306 1.04695 -1.65932 0
M  V30 113 O 9.7556 1.81256 -1.18218 0
M  V30 114 C 10.3506 -0.772831 -3.29868 0
M  V30 115 C 8.9096 -0.462307 -3.7355 0
M  V30 116 C 8.0566 -1.00569 -2.5842 0
M  V30 117 H 11.0076 -0.985672 -1.24379 0
M  V30 118 H 11.0286 -0.0651928 -3.80444 0
M  V30 119 H 10.5406 -1.84747 -3.41307 0
M  V30 120 H 8.6416 0.604158 -3.67669 0
M  V30 121 H 8.7546 -0.985299 -4.68859 0
M  V30 122 H 7.1186 -0.428734 -2.51066 0
M  V30 123 H 7.9016 -2.08616 -2.72643 0
M  V30 124 N 10.3467 1.47872 -0.545128 0
M  V30 125 C 11.2567 2.33633 0.212746 0
M  V30 126 C 12.2727 1.4744 0.923983 0
M  V30 127 O 13.4487 1.80393 0.895572 0
M  V30 128 C 10.5137 3.23884 1.23693 0
M  V30 129 C 9.5747 4.25961 0.534417 0
M  V30 130 C 8.8077 5.11899 1.5098 0
M  V30 131 O 9.0307 5.00077 2.7437 0
M  V30 132 O 7.9647 5.92831 1.0409 0
M  V30 133 H 11.7907 2.99714 -0.490416 0
M  V30 134 H 9.3757 1.46235 -0.305871 0
M  V30 135 H 11.2577 3.79666 1.82843 0
M  V30 136 H 9.9327 2.60446 1.92222 0
M  V30 137 H 8.8397 3.73972 -0.0979679 0
M  V30 138 H 10.1727 4.92079 -0.109213 0
M  V30 139 N 11.8248 0.280983 1.55075 0
M  V30 140 C 13.2358 -0.215629 1.85451 0
M  V30 141 C 13.5868 -1.54991 1.203 0
M  V30 142 O 12.7118 -2.10699 0.493435 0
M  V30 143 C 13.3068 -0.398026 3.36454 0
M  V30 144 C 11.8658 -0.838866 3.66933 0
M  V30 145 C 11.0128 0.064458 2.77225 0
M  V30 146 H 13.9638 0.502601 1.50531 0
M  V30 147 H 13.9848 -1.23569 3.59876 0
M  V30 148 H 13.4968 0.573241 3.83843 0
M  V30 149 H 11.5978 -1.8214 3.25048 0
M  V30 150 H 11.7108 -0.672123 4.74362 0
M  V30 151 H 10.0748 -0.452863 2.50642 0
M  V30 152 H 10.8578 1.03172 3.2743 0
M  V30 153 N 13.3029 -1.57598 0.00835791 0
M  V30 154 C 14.2329 -2.1198 -0.979113 0
M  V30 155 C 15.2139 -1.03091 -1.35301 0
M  V30 156 O 16.3989 -1.30818 -1.43528 0
M  V30 157 C 13.5289 -2.62995 -2.26828 0
M  V30 158 C 12.4829 -3.76485 -2.03576 0
M  V30 159 C 11.8089 -4.13846 -3.38579 0
M  V30 160 C 13.1089 -5.0342 -1.39161 0
M  V30 161 H 14.8029 -2.94738 -0.526281 0
M  V30 162 H 12.3489 -1.41783 -0.251704 0
M  V30 163 H 14.3019 -2.99669 -2.96271 0
M  V30 164 H 13.0259 -1.7737 -2.7424 0
M  V30 165 H 11.6849 -3.40217 -1.36557 0
M  V30 166 H 11.3329 -3.25232 -3.83709 0
M  V30 167 H 11.0329 -4.90312 -3.23834 0
M  V30 168 H 12.5569 -4.53086 -4.09323 0
M  V30 169 H 13.9709 -5.37812 -1.98573 0
M  V30 170 H 12.3679 -5.84746 -1.34878 0
M  V30 171 H 13.4379 -4.83548 -0.361868 0
M  V30 172 N 14.781 0.264519 -1.55364 0
M  V30 173 C 16.197 0.61215 -1.47394 0
M  V30 174 C 16.397 1.89134 -0.695018 0
M  V30 175 O 15.453 2.51563 -0.217275 0
M  V30 176 C 16.766 0.731235 -2.91674 0
M  V30 177 C 18.314 0.82473 -3.01939 0
M  V30 178 C 18.789 0.975522 -4.4749 0
M  V30 179 N 20.28 1.04083 -4.51354 0
M  V30 180 C 21.015 1.17646 -5.61201 0
M  V30 181 N 20.511 1.27874 -6.80896 0
M  V30 182 N 22.304 1.20823 -5.48961 0
M  V30 183 H 14.455 -0.575456 -2.04456 0
M  V30 184 H 16.718 -0.196099 -0.927496 0
M  V30 185 H 16.424 -0.138392 -3.51428 0
M  V30 186 H 16.298 1.60883 -3.41169 0
M  V30 187 H 18.685 1.68482 -2.42276 0
M  V30 188 H 18.766 -0.0776479 -2.55682 0
M  V30 189 H 18.41 0.120058 -5.07758 0
M  V30 190 H 18.34 1.89268 -4.91412 0
M  V30 191 H 20.831 0.973846 -3.65136 0
M  V30 192 H 21.144 1.38081 -7.60364 0
M  V30 193 H 19.489 1.24863 -6.83692 0
M  V30 194 H 22.68 1.12469 -4.54388 0
M  V30 195 H 22.853 1.31049 -6.3461 0
M  V30 196 N 16.2591 1.48442 0.529413 0
M  V30 197 C 17.5061 1.56488 1.28521 0
M  V30 198 C 17.8341 0.239042 1.93025 0
M  V30 199 O 17.0891 -0.770713 1.79885 0
M  V30 200 C 17.3881 2.6523 2.39558 0
M  V30 201 C 17.0541 4.07648 1.92702 0
M  V30 202 C 15.7161 4.46411 1.79641 0
M  V30 203 C 18.0681 4.96896 1.573 0
M  V30 204 C 15.3961 5.72226 1.29514 0
M  V30 205 C 17.7481 6.23202 1.08636 0
M  V30 206 C 16.4121 6.60821 0.941919 0
M  V30 207 H 15.6821 0.572631 0.470292 0
M  V30 208 H 18.3291 1.82161 0.59072 0
M  V30 209 H 16.6341 2.33419 3.14679 0
M  V30 210 H 18.3311 2.68671 2.97686 0
M  V30 211 H 14.9211 3.77036 2.03819 0
M  V30 212 H 19.1051 4.67626 1.66251 0
M  V30 213 H 14.3611 6.00097 1.17019 0
M  V30 214 H 18.5351 6.91753 0.803136 0
M  V30 215 H 16.1621 7.58198 0.5513 0
M  V30 216 N 17.7372 -0.778329 1.37039 0
M  V30 217 C 18.6672 -1.90546 1.34962 0
M  V30 218 C 19.6482 -1.68681 0.219274 0
M  V30 219 O 20.8332 -1.89634 0.418624 0
M  V30 220 C 17.9632 -3.27734 1.14925 0
M  V30 221 C 16.9172 -3.64147 2.24902 0
M  V30 222 C 16.2432 -4.99806 1.89996 0
M  V30 223 C 17.5432 -3.71579 3.67051 0
M  V30 224 H 19.2372 -1.92541 2.29277 0
M  V30 225 H 16.7832 -0.924948 1.10366 0
M  V30 226 H 18.7362 -4.06215 1.12104 0
M  V30 227 H 17.4602 -3.26154 0.170631 0
M  V30 228 H 16.1192 -2.8797 2.26868 0
M  V30 229 H 15.7672 -4.94759 0.906796 0
M  V30 230 H 15.4672 -5.25139 2.63634 0
M  V30 231 H 16.9912 -5.80694 1.88749 0
M  V30 232 H 18.4052 -4.40227 3.67251 0
M  V30 233 H 16.8022 -4.08405 4.39688 0
M  V30 234 H 17.8722 -2.72404 4.01154 0
M  V30 235 N 19.2153 -1.21501 -1.00376 0
M  V30 236 C 20.6263 -1.03146 -1.55621 0
M  V30 237 C 20.9773 0.408375 -1.91903 0
M  V30 238 O 20.1023 1.29177 -1.73616 0
M  V30 239 C 20.6973 -1.86612 -2.82775 0
M  V30 240 C 19.2563 -1.72586 -3.34501 0
M  V30 241 C 18.4033 -1.83747 -2.07683 0
M  V30 242 H 21.3543 -1.35505 -0.826081 0
M  V30 243 H 21.3753 -1.3771 -3.54706 0
M  V30 244 H 20.8873 -2.91399 -2.56336 0
M  V30 245 H 18.9883 -0.704877 -3.65872 0
M  V30 246 H 19.1013 -2.54623 -4.05837 0
M  V30 247 H 17.4653 -1.27069 -2.20739 0
M  V30 248 H 18.2483 -2.90044 -1.83655 0
M  V30 249 N 20.6934 1.19889 -1.02296 0
M  V30 250 C 21.9704 1.85148 -0.630832 0
M  V30 251 C 22.3504 1.91385 0.890782 0
M  V30 252 O 21.6984 1.42642 1.78509 0
M  V30 253 C 21.9084 3.24442 -1.28602 0
M  V30 254 C 23.2564 4.00663 -1.4055 0
M  V30 255 O 24.2804 3.33818 -1.24273 0
M  V30 256 O 23.1394 5.20387 -1.66913 0
M  V30 257 H 20.2334 0.797613 -0.218499 0
M  V30 258 H 22.7794 1.27427 -1.12074 0
M  V30 259 H 21.5514 3.14704 -2.32545 0
M  V30 260 H 21.1744 3.89802 -0.7836 0
M  V30 261 N 22.1715 0.800033 1.35784 0
M  V30 262 C 23.0815 0.207204 2.33683 0
M  V30 263 C 24.0975 -0.64631 1.61551 0
M  V30 264 O 25.2735 -0.559604 1.93469 0
M  V30 265 C 22.3385 -0.639659 3.40748 0
M  V30 266 C 21.3995 0.233585 4.28664 0
M  V30 267 C 20.6325 -0.572954 5.30616 0
M  V30 268 O 20.8555 -1.80816 5.40982 0
M  V30 269 O 19.7895 0.0327285 6.01891 0
M  V30 270 H 23.6155 1.01692 2.86169 0
M  V30 271 H 21.2005 0.561691 1.38439 0
M  V30 272 H 23.0825 -1.12223 4.06182 0
M  V30 273 H 21.7575 -1.42708 2.90544 0
M  V30 274 H 20.6645 0.763147 3.66233 0
M  V30 275 H 21.9975 0.984784 4.82248 0
M  V30 276 N 23.6496 -1.47581 0.552962 0
M  V30 277 C 24.6126 -2.28439 -0.186605 0
M  V30 278 C 25.6126 -1.36706 -0.84665 0
M  V30 279 O 26.8026 -1.59378 -0.703164 0
M  V30 280 C 23.9346 -3.16264 -1.2724 0
M  V30 281 H 25.1276 -2.95294 0.523609 0
M  V30 282 H 22.6806 -1.532 0.309745 0
M  V30 283 H 23.4156 -2.54091 -2.01514 0
M  V30 284 H 23.2006 -3.83769 -0.803968 0
M  V30 285 H 24.6906 -3.77198 -1.79196 0
M  V30 286 N 25.1277 -0.289203 -1.54924 0
M  V30 287 C 26.5437 0.0645403 -1.59469 0
M  V30 288 C 26.7437 1.53419 -1.30632 0
M  V30 289 O 25.7997 2.2852 -1.074 0
M  V30 290 C 27.1127 -0.32278 -2.98963 0
M  V30 291 C 28.6607 -0.270564 -3.11828 0
M  V30 292 C 29.1357 -0.632532 -4.53611 0
M  V30 293 N 30.6267 -0.584617 -4.59496 0
M  V30 294 C 31.3617 -0.837314 -5.67254 0
M  V30 295 N 30.8577 -1.15536 -6.83098 0
M  V30 296 N 32.6507 -0.765166 -5.56868 0
M  V30 297 H 24.8017 -1.24714 -1.71931 0
M  V30 298 H 27.0647 -0.504809 -0.802416 0
M  V30 299 H 26.7707 -1.34541 -3.24948 0
M  V30 300 H 26.6447 0.32944 -3.75759 0
M  V30 301 H 29.0317 0.742805 -2.85598 0
M  V30 302 H 29.1127 -0.957242 -2.37214 0
M  V30 303 H 28.7567 -1.64365 -4.80569 0
M  V30 304 H 28.6867 0.07609 -5.26545 0
M  V30 305 H 31.1777 -0.349248 -3.76283 0
M  V30 306 H 31.4907 -1.33447 -7.61191 0
M  V30 307 H 29.8357 -1.19328 -6.84679 0
M  V30 308 H 33.0267 -0.516432 -4.65243 0
M  V30 309 H 33.1997 -0.965477 -6.40767 0
M  V30 310 N 26.6058 1.57591 -0.0167156 0
M  V30 311 C 27.8308 1.9598 0.67872 0
M  V30 312 C 28.2558 0.892546 1.65575 0
M  V30 313 O 27.6138 -0.147772 1.80697 0
M  V30 314 C 27.6618 3.33468 1.37227 0
M  V30 315 O 26.7658 3.28954 2.48722 0
M  V30 316 H 26.1068 0.639339 0.17928 0
M  V30 317 H 28.6368 2.04463 -0.0748802 0
M  V30 318 H 28.6468 3.69417 1.7319 0
M  V30 319 H 27.3218 4.10694 0.656007 0
M  V30 320 H 25.8988 3.04705 2.14963 0
M  V30 321 N 28.0839 -0.256276 1.55502 0
M  V30 322 C 29.0139 -1.32102 1.92539 0
M  V30 323 C 29.9949 -1.50684 0.789194 0
M  V30 324 O 31.1799 -1.63449 1.04872 0
M  V30 325 C 28.3099 -2.67752 2.21192 0
M  V30 326 C 27.2639 -2.63878 3.36975 0
M  V30 327 C 26.5899 -4.03236 3.51147 0
M  V30 328 C 27.8899 -2.21682 4.72921 0
M  V30 329 H 29.5839 -1.01351 2.81724 0
M  V30 330 H 27.1299 -0.486105 1.35547 0
M  V30 331 H 29.0829 -3.42365 2.45691 0
M  V30 332 H 27.8069 -3.0012 1.28824 0
M  V30 333 H 26.4659 -1.91722 3.12471 0
M  V30 334 H 26.1139 -4.32854 2.56216 0
M  V30 335 H 25.8139 -4.01535 4.29003 0
M  V30 336 H 27.3379 -4.79563 3.77957 0
M  V30 337 H 28.7519 -2.86023 4.96854 0
M  V30 338 H 27.1489 -2.3111 5.53812 0
M  V30 339 H 28.2189 -1.16833 4.70615 0
M  V30 340 N 29.562 -1.4872 -0.521534 0
M  V30 341 C 30.973 -1.50607 -1.10337 0
M  V30 342 C 31.324 -0.280612 -1.94183 0
M  V30 343 O 30.449 0.611507 -2.0758 0
M  V30 344 C 31.044 -2.72903 -2.00772 0
M  V30 345 C 29.603 -2.77634 -2.54158 0
M  V30 346 C 28.75 -2.44241 -1.31307 0
M  V30 347 H 31.701 -1.55714 -0.306388 0
M  V30 348 H 31.722 -2.519 -2.85178 0
M  V30 349 H 31.234 -3.62077 -1.39721 0
M  V30 350 H 29.335 -1.92689 -3.18907 0
M  V30 351 H 29.448 -3.79283 -2.92714 0
M  V30 352 H 27.812 -1.95577 -1.63161 0
M  V30 353 H 28.595 -3.35666 -0.719943 0
M  V30 354 N 31.0401 0.771051 -1.3745 0
M  V30 355 C 32.4511 1.34737 -1.29239 0
M  V30 356 C 32.8021 1.96109 0.0596908 0
M  V30 357 O 31.9271 1.93865 0.961534 0
M  V30 358 C 32.5221 2.44973 -2.34037 0
M  V30 359 C 31.0811 2.98372 -2.29458 0
M  V30 360 C 30.2281 1.71595 -2.17831 0
M  V30 361 H 33.1791 0.571256 -1.48062 0
M  V30 362 H 33.2001 3.24471 -1.98744 0
M  V30 363 H 32.7121 2.00276 -3.32432 0
M  V30 364 H 30.8131 3.47443 -1.34589 0
M  V30 365 H 30.9261 3.53939 -3.229 0
M  V30 366 H 29.2901 1.94547 -1.64388 0
M  V30 367 H 30.0731 1.29001 -3.18141 0
M  V30 368 N 32.5182 1.22032 0.997298 0
M  V30 369 C 33.9292 1.0397 1.55071 0
M  V30 370 C 34.2802 -0.398192 1.92117 0
M  V30 371 O 33.4052 -1.28254 1.74298 0
M  V30 372 C 34.0002 1.88109 2.81781 0
M  V30 373 C 32.5592 1.74357 3.33581 0
M  V30 374 C 31.7062 1.84846 2.06706 0
M  V30 375 H 34.6572 1.35941 0.818883 0
M  V30 376 H 34.6782 1.39589 3.53971 0
M  V30 377 H 34.1902 2.92754 2.54787 0
M  V30 378 H 32.2912 0.72427 3.65493 0
M  V30 379 H 32.4042 2.56772 4.04481 0
M  V30 380 H 30.7682 1.28238 2.20062 0
M  V30 381 H 31.5512 2.91014 1.82114 0
M  V30 382 N 33.9963 -1.19345 1.0293 0
M  V30 383 C 34.9433 -2.2258 0.610464 0
M  V30 384 C 35.9133 -1.6179 -0.375946 0
M  V30 385 O 37.0983 -1.88844 -0.272511 0
M  V30 386 C 34.2383 -3.45085 -0.0321473 0
M  V30 387 C 33.3513 -4.20258 1.00035 0
M  V30 388 C 32.4863 -5.3019 0.32746 0
M  V30 389 C 31.5253 -5.97121 1.34584 0
M  V30 390 N 30.6623 -6.98615 0.698726 0
M  V30 391 H 35.5023 -2.57764 1.49538 0
M  V30 392 H 33.0393 -1.26644 0.748311 0
M  V30 393 H 34.9973 -4.15061 -0.421966 0
M  V30 394 H 33.6273 -3.10555 -0.88064 0
M  V30 395 H 32.6793 -3.49223 1.50823 0
M  V30 396 H 33.9913 -4.66175 1.77433 0
M  V30 397 H 33.1453 -6.06587 -0.11718 0
M  V30 398 H 31.8843 -4.85345 -0.478713 0
M  V30 399 H 30.8893 -5.19474 1.80074 0
M  V30 400 H 32.1143 -6.4405 2.15352 0
M  V30 401 H 30.0603 -6.55942 -0.0873471 0
M  V30 402 H 29.9773 -7.42724 1.41058 0
M  V30 403 H 31.2453 -7.79004 0.278102 0
M  V30 404 N 35.4744 -0.807222 -1.35358 0
M  V30 405 C 36.4044 -0.232509 -2.3234 0
M  V30 406 C 37.3854 0.642386 -1.57504 0
M  V30 407 O 38.5704 0.572526 -1.85569 0
M  V30 408 C 35.7004 0.619238 -3.41735 0
M  V30 409 C 34.6544 -0.157215 -4.27711 0
M  V30 410 C 33.9804 0.816273 -5.28433 0
M  V30 411 C 35.2804 -1.35656 -5.04376 0
M  V30 412 H 36.9744 -1.04276 -2.80654 0
M  V30 413 H 34.5204 -0.50288 -1.34934 0
M  V30 414 H 36.4734 1.03137 -4.08584 0
M  V30 415 H 35.1974 1.46239 -2.92031 0
M  V30 416 H 33.8564 -0.550525 -3.62443 0
M  V30 417 H 33.5044 1.65494 -4.74996 0
M  V30 418 H 33.2044 0.301067 -5.86828 0
M  V30 419 H 34.7284 1.22659 -5.98153 0
M  V30 420 H 36.1424 -1.01927 -5.64166 0
M  V30 421 H 34.5394 -1.8063 -5.7227 0
M  V30 422 H 35.6094 -2.14288 -4.34981 0
M  V30 423 N 36.9525 1.47285 -0.560781 0
M  V30 424 C 38.1805 2.06855 -0.0430262 0
M  V30 425 C 38.5955 1.41291 1.25229 0
M  V30 426 O 37.9525 0.510648 1.7521 0
M  V30 427 C 38.0035 3.61178 0.152518 0
M  V30 428 O 37.7245 4.24285 -1.0915 0
M  V30 429 C 39.2255 4.37624 0.707145 0
M  V30 430 H 36.4455 0.669319 -0.0474652 0
M  V30 431 H 38.9895 1.89237 -0.77521 0
M  V30 432 H 37.1445 3.78298 0.834843 0
M  V30 433 H 37.5585 5.16868 -0.891482 0
M  V30 434 H 39.0325 5.46271 0.793244 0
M  V30 435 H 39.5095 4.04152 1.71923 0
M  V30 436 H 40.1155 4.25257 0.0604027 0
M  V30 437 N 38.4306 0.297415 1.54768 0
M  V30 438 C 39.7076 -0.365847 1.92148 0
M  V30 439 C 40.0876 -1.71975 1.22424 0
M  V30 440 O 39.4356 -2.25666 0.358739 0
M  V30 441 C 39.6456 -0.484056 3.45627 0
M  V30 442 C 40.9936 -0.756594 4.17805 0
M  V30 443 O 42.0176 -0.568007 3.51642 0
M  V30 444 O 40.8766 -1.11863 5.34929 0
M  V30 445 H 37.9706 -0.203919 0.801465 0
M  V30 446 H 40.5166 0.34521 1.66152 0
M  V30 447 H 39.2886 0.467865 3.88493 0
M  V30 448 H 38.9116 -1.24372 3.77647 0
M  V30 449 N 39.9087 -1.5758 0.0250728 0
M  V30 450 C 41.3197 -1.79476 -0.514323 0
M  V30 451 C 41.6707 -0.934956 -1.72491 0
M  V30 452 O 40.7957 -0.144245 -2.15919 0
M  V30 453 C 41.3907 -3.25503 -0.939842 0
M  V30 454 C 39.9497 -3.48408 -1.42438 0
M  V30 455 C 39.0967 -2.74583 -0.387201 0
M  V30 456 H 42.0477 -1.567 0.25113 0
M  V30 457 H 42.0687 -3.34992 -1.80445 0
M  V30 458 H 41.5807 -3.88056 -0.0585628 0
M  V30 459 H 39.6817 -2.91103 -2.32572 0
M  V30 460 H 39.7947 -4.57119 -1.43455 0
M  V30 461 H 38.1587 -2.39942 -0.854409 0
M  V30 462 H 38.9417 -3.39849 0.485543 0
M  V30 463 N 41.3868 0.248026 -1.55636 0
M  V30 464 C 42.8028 0.596483 -1.48035 0
M  V30 465 C 43.0028 1.88386 -0.715039 0
M  V30 466 O 42.0588 2.51319 -0.243944 0
M  V30 467 C 43.3718 0.700258 -2.92433 0
M  V30 468 C 44.9198 0.792659 -3.02797 0
M  V30 469 C 45.3948 0.928005 -4.485 0
M  V30 470 N 46.8858 0.992903 -4.52433 0
M  V30 471 C 47.6208 1.11687 -5.62418 0
M  V30 472 N 47.1168 1.20645 -6.82214 0
M  V30 473 N 48.9098 1.14994 -5.50212 0
M  V30 474 H 41.0608 -0.597109 -2.03834 0
M  V30 475 H 43.3238 -0.205925 -0.925364 0
M  V30 476 H 43.0298 -0.175658 -3.51261 0
M  V30 477 H 42.9038 1.57255 -3.42857 0
M  V30 478 H 45.2908 1.65903 -2.4405 0
M  V30 479 H 45.3718 -0.104762 -2.55585 0
M  V30 480 H 45.0158 0.0661971 -5.07857 0
M  V30 481 H 44.9458 1.84045 -4.93391 0
M  V30 482 H 47.4368 0.935064 -3.66149 0
M  V30 483 H 47.7498 1.30008 -7.61786 0
M  V30 484 H 46.0948 1.17605 -6.84977 0
M  V30 485 H 49.2858 1.07643 -4.55555 0
M  V30 486 H 49.4588 1.24311 -6.35965 0
M  V30 487 N 42.8649 1.48995 0.513639 0
M  V30 488 C 43.7949 1.67636 1.62544 0
M  V30 489 C 44.7759 0.525087 1.61793 0
M  V30 490 O 45.9609 0.759502 1.78732 0
M  V30 491 C 43.0909 1.73114 3.01079 0
M  V30 492 C 42.0449 2.87905 3.16693 0
M  V30 493 C 41.3709 2.78486 4.56453 0
M  V30 494 C 42.6709 4.29005 2.97913 0
M  V30 495 H 44.3649 2.60716 1.47198 0
M  V30 496 H 41.9109 1.25465 0.706714 0
M  V30 497 H 43.8639 1.84742 3.78746 0
M  V30 498 H 42.5879 0.766241 3.17484 0
M  V30 499 H 41.2469 2.75859 2.41448 0
M  V30 500 H 40.8949 1.7993 4.69717 0
M  V30 501 H 40.5949 3.55523 4.67843 0
M  V30 502 H 42.1189 2.92104 5.36197 0
M  V30 503 H 43.5329 4.41798 3.65359 0
M  V30 504 H 41.9299 5.07166 3.20785 0
M  V30 505 H 42.9999 4.44329 1.94165 0
M  V30 506 N 44.343 -0.763751 1.37857 0
M  V30 507 C 45.273 -1.89103 1.36975 0
M  V30 508 C 46.254 -1.68439 0.237152 0
M  V30 509 O 47.439 -1.8918 0.438713 0
M  V30 510 C 44.569 -3.26496 1.18395 0
M  V30 511 C 43.523 -3.61741 2.28751 0
M  V30 512 C 42.849 -4.97762 1.95286 0
M  V30 513 C 44.149 -3.67665 3.70972 0
M  V30 514 H 45.843 -1.90099 2.31307 0
M  V30 515 H 43.389 -0.91319 1.11341 0
M  V30 516 H 45.342 -4.05003 1.16406 0
M  V30 517 H 44.066 -3.25955 0.205215 0
M  V30 518 H 42.725 -2.85547 2.29909 0
M  V30 519 H 42.373 -4.93769 0.959221 0
M  V30 520 H 42.073 -5.22313 2.69189 0
M  V30 521 H 43.597 -5.7866 1.94898 0
M  V30 522 H 45.011 -4.36307 3.719 0
M  V30 523 H 43.408 -4.03718 4.43995 0
M  V30 524 H 44.478 -2.68134 4.0402 0
M  V30 525 N 45.8211 -1.22559 -0.990812 0
M  V30 526 C 47.0511 -1.07623 -1.76355 0
M  V30 527 C 47.4591 0.37601 -1.85426 0
M  V30 528 O 46.8021 1.27228 -1.32509 0
M  V30 529 C 46.8641 -1.61507 -3.21179 0
M  V30 530 C 46.5281 -3.10146 -3.35646 0
M  V30 531 C 47.5251 -4.07553 -3.22796 0
M  V30 532 C 45.2101 -3.49644 -3.60631 0
M  V30 533 C 47.2041 -5.42442 -3.34716 0
M  V30 534 C 44.8911 -4.84682 -3.72192 0
M  V30 535 C 45.8891 -5.8089 -3.59243 0
M  V30 536 O 45.5771 -7.13476 -3.70415 0
M  V30 537 H 45.3091 -0.377745 -0.560611 0
M  V30 538 H 47.8631 -1.62658 -1.25425 0
M  V30 539 H 46.0931 -1.00881 -3.73309 0
M  V30 540 H 47.7821 -1.42202 -3.80175 0
M  V30 541 H 48.5481 -3.78381 -3.03403 0
M  V30 542 H 44.4271 -2.75282 -3.69785 0
M  V30 543 H 47.9711 -6.17518 -3.24526 0
M  V30 544 H 43.8681 -5.13534 -3.91092 0
M  V30 545 H 44.6361 -7.21083 -3.87275 0
M  V30 546 N 47.2992 1.18797 -1.03562 0
M  V30 547 C 48.5482 1.87978 -0.731235 0
M  V30 548 C 48.8612 1.80911 0.743671 0
M  V30 549 O 50.0672 2.45407 1.16137 0
M  V30 550 C 48.5232 3.3721 -1.25768 0
M  V30 551 C 48.1312 3.52818 -2.76085 0
M  V30 552 C 49.8752 4.11825 -1.0296 0
M  V30 553 C 47.7822 4.9598 -3.22114 0
M  V30 554 H 46.7122 0.704063 -0.269835 0
M  V30 555 H 49.3632 1.34266 -1.25079 0
M  V30 556 H 47.7452 3.90359 -0.666011 0
M  V30 557 H 48.9192 3.09965 -3.40966 0
M  V30 558 H 47.2342 2.91602 -2.97249 0
M  V30 559 H 49.8312 5.17411 -1.34869 0
M  V30 560 H 50.1742 4.16287 0.0333546 0
M  V30 561 H 50.7072 3.64833 -1.58562 0
M  V30 562 H 47.4462 4.96684 -4.27768 0
M  V30 563 H 46.9662 5.39569 -2.61965 0
M  V30 564 H 48.6452 5.6467 -3.15844 0
M  V30 565 N 48.7773 0.814389 1.34928 0
M  V30 566 C 50.0253 0.397636 1.9815 0
M  V30 567 C 50.3463 -1.04069 1.64908 0
M  V30 568 O 49.6163 -1.72121 0.93548 0
M  V30 569 H 48.1963 0.144043 0.732981 0
M  V30 570 H 50.8583 1.04195 1.6471 0
M  V30 571 H 49.9543 0.509688 3.0791 0
M  V30 572 N 50.2554 -1.46986 0.568584 0
M  V30 573 C 51.5024 -2.02441 0.0487986 0
M  V30 574 C 51.8304 -1.44169 -1.30559 0
M  V30 575 O 51.0854 -0.591213 -1.86556 0
M  V30 576 C 51.3844 -3.57306 -0.081836 0
M  V30 577 C 51.0504 -4.34552 1.20313 0
M  V30 578 C 49.7124 -4.55376 1.5552 0
M  V30 579 C 52.0644 -4.79016 2.05411 0
M  V30 580 C 49.3924 -5.17913 2.7565 0
M  V30 581 C 51.7444 -5.42879 3.24754 0
M  V30 582 C 50.4084 -5.61933 3.60261 0
M  V30 583 H 49.6784 -0.740785 0.0178567 0
M  V30 584 H 52.3254 -1.76525 0.742384 0
M  V30 585 H 50.6304 -3.8228 -0.858463 0
M  V30 586 H 52.3274 -3.97876 -0.499546 0
M  V30 587 H 48.9174 -4.18631 0.919014 0
M  V30 588 H 53.1014 -4.62696 1.79516 0
M  V30 589 H 48.3574 -5.30858 3.03315 0
M  V30 590 H 52.5314 -5.76293 3.90973 0
M  V30 591 H 50.1584 -6.10161 4.53439 0
M  V30 592 N 51.7335 -0.305618 -1.54608 0
M  V30 593 C 52.6635 0.561482 -2.26649 0
M  V30 594 C 53.6445 1.13415 -1.26772 0
M  V30 595 O 54.8295 1.16262 -1.55553 0
M  V30 596 C 51.9595 1.73122 -3.01075 0
M  V30 597 C 50.9135 1.2887 -4.08138 0
M  V30 598 C 50.2395 2.54396 -4.70305 0
M  V30 599 C 51.5395 0.416578 -5.20636 0
M  V30 600 H 53.2335 -0.0393902 -2.99374 0
M  V30 601 H 50.7795 -0.020385 -1.43986 0
M  V30 602 H 52.7325 2.34396 -3.50195 0
M  V30 603 H 51.4565 2.3584 -2.25936 0
M  V30 604 H 50.1155 0.698991 -3.59875 0
M  V30 605 H 49.7635 3.15439 -3.918 0
M  V30 606 H 49.4635 2.25486 -5.42614 0
M  V30 607 H 50.9875 3.16464 -5.2219 0
M  V30 608 H 52.4015 0.935116 -5.65622 0
M  V30 609 H 50.7985 0.221046 -5.99693 0
M  V30 610 H 51.8685 -0.557162 -4.81688 0
M  V30 611 N 53.2116 1.57565 -0.0334293 0
M  V30 612 C 54.4596 1.91598 0.642999 0
M  V30 613 C 54.7806 0.910847 1.7242 0
M  V30 614 O 54.0506 -0.0469931 1.95844 0
M  V30 615 H 52.6306 0.707228 0.240496 0
M  V30 616 H 55.2926 1.94726 -0.0822488 0
M  V30 617 H 54.3886 2.92336 1.09298 0
M  V30 618 N 54.6897 -0.239769 1.55765 0
M  V30 619 C 55.9197 -0.982743 1.8173 0
M  V30 620 C 56.3277 -1.7917 0.607835 0
M  V30 621 O 55.6707 -1.78525 -0.432973 0
M  V30 622 C 55.7327 -1.96332 3.01155 0
M  V30 623 C 55.3967 -1.34062 4.36894 0
M  V30 624 C 56.3937 -0.739539 5.14613 0
M  V30 625 C 54.0787 -1.35784 4.83599 0
M  V30 626 C 56.0727 -0.163989 6.37189 0
M  V30 627 C 53.7597 -0.778441 6.06122 0
M  V30 628 C 54.7577 -0.182548 6.82756 0
M  V30 629 O 54.4457 0.387887 8.02964 0
M  V30 630 H 54.1777 -0.294481 0.608487 0
M  V30 631 H 56.7317 -0.26572 2.03674 0
M  V30 632 H 54.9617 -2.71884 2.74984 0
M  V30 633 H 56.6507 -2.57032 3.14149 0
M  V30 634 H 57.4167 -0.718687 4.79646 0
M  V30 635 H 53.2957 -1.81105 4.23936 0
M  V30 636 H 56.8397 0.301753 6.96947 0
M  V30 637 H 52.7367 -0.796645 6.40565 0
M  V30 638 H 53.5047 0.28044 8.18019 0
M  V30 639 N 56.1678 -1.49265 -0.50573 0
M  V30 640 C 57.4078 -1.60128 -1.27038 0
M  V30 641 C 57.7718 -0.279557 -1.89954 0
M  V30 642 O 58.9728 -0.263329 -2.67507 0
M  V30 643 C 57.2438 -2.72507 -2.31246 0
M  V30 644 S 58.8028 -3.0329 -3.17113 0
M  V30 645 H 55.6208 -0.564863 -0.4318 0
M  V30 646 H 58.2228 -1.86902 -0.573397 0
M  V30 647 H 56.9268 -3.67068 -1.83546 0
M  V30 648 H 56.4578 -2.4771 -3.05619 0
M  V30 649 H 58.4728 -2.44448 -4.31809 0
M  V30 650 N 57.6459 0.756429 -1.3826 0
M  V30 651 C 58.8709 1.55077 -1.37717 0
M  V30 652 C 59.2959 1.88073 0.03164 0
M  V30 653 O 58.6539 1.50364 1.01293 0
M  V30 654 C 58.7019 2.8283 -2.23695 0
M  V30 655 O 57.8059 3.77862 -1.6521 0
M  V30 656 H 57.1469 0.469152 -0.469885 0
M  V30 657 H 59.6769 0.935019 -1.81985 0
M  V30 658 H 59.6869 3.31783 -2.37453 0
M  V30 659 H 58.3619 2.58144 -3.2609 0
M  V30 660 H 56.9389 3.36555 -1.60578 0
M  V30 661 N 59.124 1.23083 0.984299 0
M  V30 662 C 60.372 1.05848 1.72165 0
M  V30 663 C 60.693 -0.406049 1.90726 0
M  V30 664 O 59.963 -1.29139 1.47309 0
M  V30 665 H 58.543 0.388685 0.637913 0
M  V30 666 H 61.205 1.54736 1.18503 0
M  V30 667 H 60.301 1.54327 2.71274 0
M  V30 668 N 60.6021 -1.18246 1.0419 0
M  V30 669 C 61.5321 -2.24127 0.654914 0
M  V30 670 C 62.5131 -1.66617 -0.342451 0
M  V30 671 O 63.6981 -1.92924 -0.222277 0
M  V30 672 C 60.8281 -3.47295 0.0183757 0
M  V30 673 C 59.7821 -4.17563 0.939414 0
M  V30 674 C 59.1081 -5.34438 0.167286 0
M  V30 675 C 60.4081 -4.70917 2.25908 0
M  V30 676 H 62.1021 -2.56753 1.54007 0
M  V30 677 H 59.6481 -1.23414 0.74195 0
M  V30 678 H 61.6011 -4.20572 -0.264082 0
M  V30 679 H 60.3251 -3.13907 -0.901664 0
M  V30 680 H 58.9841 -3.46186 1.20628 0
M  V30 681 H 58.6321 -4.97298 -0.7552 0
M  V30 682 H 58.3321 -5.82388 0.780901 0
M  V30 683 H 59.8561 -6.10504 -0.108125 0
M  V30 684 H 61.2701 -5.35882 2.03724 0
M  V30 685 H 59.6671 -5.29406 2.82577 0
M  V30 686 H 60.7371 -3.88272 2.9047 0
M  V30 687 N 62.0802 -0.821533 -1.34494 0
M  V30 688 C 63.3292 -0.405355 -1.97585 0
M  V30 689 C 63.6422 1.03677 -1.65863 0
M  V30 690 O 64.8482 1.55679 -2.22433 0
M  V30 691 C 63.3042 -0.673861 -3.53535 0
M  V30 692 C 62.9122 -2.12951 -3.94152 0
M  V30 693 C 64.6562 -0.32378 -4.23263 0
M  V30 694 C 62.5632 -2.34298 -5.43009 0
M  V30 695 H 61.4932 -0.147836 -0.739365 0
M  V30 696 H 64.1442 -1.00769 -1.53355 0
M  V30 697 H 62.5262 -0.00137554 -3.96 0
M  V30 698 H 63.7002 -2.84104 -3.62797 0
M  V30 699 H 62.0152 -2.44089 -3.37356 0
M  V30 700 H 64.6122 -0.461126 -5.32708 0
M  V30 701 H 64.9552 0.731586 -4.09821 0
M  V30 702 H 65.4882 -0.950786 -3.8627 0
M  V30 703 H 62.2272 -3.38335 -5.61435 0
M  V30 704 H 61.7472 -1.67687 -5.75883 0
M  V30 705 H 63.4262 -2.16588 -6.09671 0
M  V30 706 N 63.5583 1.46682 -0.576371 0
M  V30 707 C 64.8353 1.95599 0.00703437 0
M  V30 708 C 65.2153 1.51904 1.46589 0
M  V30 709 O 64.5633 0.766755 2.15251 0
M  V30 710 C 64.7733 3.4864 -0.158404 0
M  V30 711 C 66.1213 4.24594 -0.0229439 0
M  V30 712 O 67.1453 3.56094 -0.0869173 0
M  V30 713 O 66.0043 5.46373 0.118015 0
M  V30 714 H 63.0983 0.825275 0.053384 0
M  V30 715 H 65.6443 1.56996 -0.644244 0
M  V30 716 H 64.4163 3.7331 -1.17282 0
M  V30 717 H 64.0393 3.94057 0.5296 0
M  V30 718 N 65.0364 0.313813 1.54444 0
M  V30 719 C 65.9844 -0.572171 2.25453 0
M  V30 720 C 66.9784 -1.12657 1.2651 0
M  V30 721 O 68.1844 -1.07573 1.44319 0
M  V30 722 H 64.5594 -0.203146 0.724041 0
M  V30 723 H 66.5304 0.0491145 2.9836 0
M  V30 724 C 65.2794 -1.72626 3.0182 0
M  V30 725 H 64.6024 -1.30891 3.77767 0
M  V30 726 H 66.0424 -2.32199 3.54767 0
M  V30 727 C 64.5014 -2.63806 2.09542 0
M  V30 728 O 65.0314 -3.65256 1.67185 0
M  V30 729 N 63.2374 -2.31824 1.75232 0
M  V30 730 H 62.7844 -1.49368 2.09873 0
M  V30 731 H 62.7424 -2.93095 1.13767 0
M  V30 732 N 66.5145 -1.57545 0.0417849 0
M  V30 733 C 67.4445 -2.14009 -0.933929 0
M  V30 734 C 68.4255 -1.05938 -1.33083 0
M  V30 735 O 69.6105 -1.33833 -1.40721 0
M  V30 736 C 66.7405 -2.67747 -2.21199 0
M  V30 737 C 65.6945 -3.80718 -1.95544 0
M  V30 738 C 65.0205 -4.20935 -3.29724 0
M  V30 739 C 66.3205 -5.06258 -1.28452 0
M  V30 740 H 68.0145 -2.95788 -0.463645 0
M  V30 741 H 65.5605 -1.42285 -0.221573 0
M  V30 742 H 67.5135 -3.05886 -2.89848 0
M  V30 743 H 66.2375 -1.83147 -2.70416 0
M  V30 744 H 64.8965 -3.43037 -1.2931 0
M  V30 745 H 64.5445 -3.33298 -3.76724 0
M  V30 746 H 64.2445 -4.9707 -3.13361 0
M  V30 747 H 65.7685 -4.61666 -3.9962 0
M  V30 748 H 67.1825 -5.41903 -1.8712 0
M  V30 749 H 65.5795 -5.87475 -1.22445 0
M  V30 750 H 66.6495 -4.84207 -0.259219 0
M  V30 751 N 67.9926 0.231505 -1.5589 0
M  V30 752 C 69.2416 0.955346 -1.7764 0
M  V30 753 C 69.5546 1.85893 -0.608546 0
M  V30 754 O 70.7606 2.62067 -0.70943 0
M  V30 755 C 69.2166 1.74886 -3.14552 0
M  V30 756 C 68.8246 0.891915 -4.39032 0
M  V30 757 C 70.5686 2.46452 -3.45633 0
M  V30 758 C 68.4756 1.68221 -5.66971 0
M  V30 759 H 67.4056 0.360446 -0.662265 0
M  V30 760 H 70.0566 0.209516 -1.823 0
M  V30 761 H 68.4386 2.53723 -3.04041 0
M  V30 762 H 69.6126 0.144793 -4.60572 0
M  V30 763 H 67.9276 0.288863 -4.15397 0
M  V30 764 H 70.5246 3.06061 -4.38441 0
M  V30 765 H 70.8676 3.18841 -2.67668 0
M  V30 766 H 71.4006 1.74613 -3.57428 0
M  V30 767 H 68.1396 1.00178 -6.478 0
M  V30 768 H 67.6596 2.4042 -5.49507 0
M  V30 769 H 69.3386 2.24544 -6.06786 0
M  V30 770 N 69.4707 1.49531 0.497807 0
M  V30 771 C 70.8867 1.36365 0.829266 0
M  V30 772 C 71.0867 0.399184 1.97506 0
M  V30 773 O 70.1427 -0.167977 2.51941 0
M  V30 774 C 71.4557 2.77153 1.16647 0
M  V30 775 C 73.0037 2.85877 1.27449 0
M  V30 776 C 73.4787 4.2744 1.64497 0
M  V30 777 N 74.9697 4.30265 1.7154 0
M  V30 778 C 75.7047 5.3677 2.01656 0
M  V30 779 N 75.2007 6.53516 2.29976 0
M  V30 780 N 76.9937 5.24189 2.02934 0
M  V30 781 H 69.1447 2.10831 -0.257703 0
M  V30 782 H 71.4077 0.946534 -0.0527091 0
M  V30 783 H 71.1137 3.49442 0.397872 0
M  V30 784 H 70.9877 3.12722 2.10915 0
M  V30 785 H 73.3747 2.13824 2.0338 0
M  V30 786 H 73.4557 2.53887 0.312244 0
M  V30 787 H 73.0997 5.00021 0.891151 0
M  V30 788 H 73.0297 4.56896 2.61827 0
M  V30 789 H 75.5207 3.4607 1.51802 0
M  V30 790 H 75.8337 7.30506 2.52153 0
M  V30 791 H 74.1787 6.56737 2.27425 0
M  V30 792 H 77.3697 4.31988 1.80289 0
M  V30 793 H 77.5427 6.07286 2.26071 0
M  V30 794 N 70.9488 -0.749086 1.3866 0
M  V30 795 C 72.3648 -1.05276 1.19955 0
M  V30 796 C 72.5648 -2.01435 0.05134 0
M  V30 797 O 71.6208 -2.45232 -0.60147 0
M  V30 798 C 72.9338 -1.62853 2.52783 0
M  V30 799 C 74.4818 -1.75002 2.59506 0
M  V30 800 C 74.9568 -2.35991 3.92521 0
M  V30 801 N 76.4478 -2.43416 3.94085 0
M  V30 802 C 77.1828 -2.91511 4.9377 0
M  V30 803 N 76.6788 -3.39608 6.03853 0
M  V30 804 N 78.4718 -2.90592 4.81157 0
M  V30 805 H 70.6228 -0.111066 2.12109 0
M  V30 806 H 72.8858 -0.111901 0.941373 0
M  V30 807 H 72.5918 -0.99664 3.37283 0
M  V30 808 H 72.4658 -2.61854 2.715 0
M  V30 809 H 74.8528 -2.37317 1.75398 0
M  V30 810 H 74.9338 -0.74693 2.44652 0
M  V30 811 H 74.5778 -1.74308 4.77053 0
M  V30 812 H 74.5078 -3.3695 4.04688 0
M  V30 813 H 76.9988 -2.09405 3.14576 0
M  V30 814 H 77.3118 -3.74775 6.75843 0
M  V30 815 H 75.6568 -3.37653 6.07466 0
M  V30 816 H 78.8478 -2.52332 3.94267 0
M  V30 817 H 79.0208 -3.27762 5.58996 0
M  V30 818 N 72.4269 -1.23603 -0.977757 0
M  V30 819 C 73.8429 -0.999251 -1.24447 0
M  V30 820 C 74.0429 0.298053 -1.99283 0
M  V30 821 O 73.0989 1.01681 -2.31122 0
M  V30 822 C 74.4119 -2.20784 -2.04144 0
M  V30 823 C 75.9599 -2.25303 -2.17273 0
M  V30 824 C 76.4349 -3.45755 -3.00362 0
M  V30 825 N 77.9259 -3.4601 -3.07947 0
M  V30 826 C 78.6609 -4.35868 -3.72568 0
M  V30 827 N 78.1569 -5.35966 -4.38991 0
M  V30 828 N 79.9499 -4.23605 -3.6948 0
M  V30 829 H 72.1009 -2.06986 -0.476483 0
M  V30 830 H 74.3639 -0.907801 -0.273134 0
M  V30 831 H 74.0699 -3.14945 -1.56533 0
M  V30 832 H 73.9439 -2.22085 -3.04891 0
M  V30 833 H 76.3309 -1.3168 -2.64092 0
M  V30 834 H 76.4119 -2.28033 -1.15907 0
M  V30 835 H 76.0559 -4.39687 -2.5424 0
M  V30 836 H 75.9859 -3.40266 -4.01904 0
M  V30 837 H 78.4769 -2.73588 -2.60688 0
M  V30 838 H 78.7899 -6.00783 -4.86086 0
M  V30 839 H 77.1349 -5.39863 -4.37691 0
M  V30 840 H 80.3259 -3.44647 -3.16759 0
M  V30 841 H 80.4989 -4.93836 -4.1956 0
M  V30 842 N 73.905 1.17692 -1.04816 0
M  V30 843 C 75.316 1.69501 -0.782698 0
M  V30 844 C 75.667 1.83456 0.695577 0
M  V30 845 O 74.792 1.51942 1.54086 0
M  V30 846 C 75.387 3.07874 -1.41419 0
M  V30 847 C 73.946 3.56864 -1.19686 0
M  V30 848 C 73.093 2.3322 -1.50012 0
M  V30 849 H 76.044 1.02262 -1.2136 0
M  V30 850 H 76.065 3.71528 -0.821428 0
M  V30 851 H 75.577 2.97685 -2.49009 0
M  V30 852 H 73.678 3.72337 -0.140043 0
M  V30 853 H 73.791 4.39851 -1.89916 0
M  V30 854 H 72.155 2.37501 -0.920071 0
M  V30 855 H 72.938 2.25644 -2.58727 0
M  V30 856 N 75.3831 0.828654 1.34056 0
M  V30 857 C 76.6321 0.415828 1.97367 0
M  V30 858 C 76.9451 -1.02796 1.6641 0
M  V30 859 O 78.1511 -1.54497 2.23255 0
M  V30 860 C 76.6071 0.692601 3.53173 0
M  V30 861 C 76.2151 2.15038 3.93017 0
M  V30 862 C 77.9591 0.346222 4.23086 0
M  V30 863 C 75.8661 2.37174 5.41758 0
M  V30 864 H 74.7961 0.151755 0.738571 0
M  V30 865 H 77.4471 1.01581 1.52819 0
M  V30 866 H 75.8291 0.0223764 3.95994 0
M  V30 867 H 77.0031 2.86024 3.61285 0
M  V30 868 H 75.3181 2.45875 3.36057 0
M  V30 869 H 77.9151 0.48937 5.32456 0
M  V30 870 H 78.2581 -0.709842 4.10204 0
M  V30 871 H 78.7911 0.971258 3.85761 0
M  V30 872 H 75.5301 3.41308 5.59633 0
M  V30 873 H 75.0501 1.70738 5.74986 0
M  V30 874 H 76.7291 2.19818 6.08514 0
M  V30 875 N 76.8612 -1.46375 0.584142 0
M  V30 876 C 77.8242 -2.28784 -0.138108 0
M  V30 877 C 78.8242 -1.38471 -0.817462 0
M  V30 878 O 80.0142 -1.60833 -0.669199 0
M  V30 879 C 77.1462 -3.18892 -1.20503 0
M  V30 880 H 78.3392 -2.94117 0.586127 0
M  V30 881 H 75.8922 -1.52509 0.342171 0
M  V30 882 H 76.6272 -2.58309 -1.96079 0
M  V30 883 H 76.4122 -3.85388 -0.722384 0
M  V30 884 H 77.9022 -3.80914 -1.71155 0
M  V30 885 N 78.3393 -0.321999 -1.54275 0
M  V30 886 C 79.5673 0.283052 -2.04955 0
M  V30 887 C 79.9823 1.45904 -1.19823 0
M  V30 888 O 79.3393 1.81063 -0.228545 0
M  V30 889 C 79.3903 0.719028 -3.54277 0
M  V30 890 O 79.1113 -0.410175 -4.36176 0
M  V30 891 C 80.6123 1.38705 -4.21041 0
M  V30 892 H 77.8323 0.0584616 -0.668448 0
M  V30 893 H 80.3763 -0.467734 -1.99079 0
M  V30 894 H 78.5313 1.41979 -3.60445 0
M  V30 895 H 78.9453 -0.0669416 -5.24457 0
M  V30 896 H 80.4193 1.64306 -5.2698 0
M  V30 897 H 80.8963 2.33385 -3.72059 0
M  V30 898 H 81.5023 0.728906 -4.19007 0
M  V30 899 N 79.8174 1.5752 -0.0501392 0
M  V30 900 C 80.7804 2.1037 0.909786 0
M  V30 901 C 81.7804 1.02308 1.24056 0
M  V30 902 O 82.9704 1.28385 1.17741 0
M  V30 903 C 80.1024 2.58708 2.21998 0
M  V30 904 H 81.2954 2.96479 0.451665 0
M  V30 905 H 78.8484 1.55038 0.198248 0
M  V30 906 H 79.5834 1.75989 2.72394 0
M  V30 907 H 79.3684 3.37675 1.99295 0
M  V30 908 H 80.8584 2.99747 2.9076 0
M  V30 909 N 81.2955 -0.223234 1.56011 0
M  V30 910 C 82.5435 -0.946003 1.78592 0
M  V30 911 C 82.8645 -1.84936 0.618349 0
M  V30 912 O 82.1345 -1.92473 -0.364833 0
M  V30 913 H 80.7145 -0.352298 0.658707 0
M  V30 914 H 83.3765 -0.235494 1.93472 0
M  V30 915 H 82.4725 -1.55381 2.70672 0
M  V30 916 N 82.7736 -1.49793 -0.48987 0
M  V30 917 C 83.7036 -1.70201 -1.59856 0
M  V30 918 C 84.6846 -0.55076 -1.60937 0
M  V30 919 O 85.8696 -0.787841 -1.77501 0
M  V30 920 C 82.9996 -1.77882 -2.98287 0
M  V30 921 C 81.9536 -2.92907 -3.12073 0
M  V30 922 C 81.2796 -2.85712 -4.51965 0
M  V30 923 C 82.5796 -4.3369 -2.91051 0
M  V30 924 H 84.2736 -2.63025 -1.43032 0
M  V30 925 H 81.8196 -1.26574 -0.686664 0
M  V30 926 H 83.7726 -1.90744 -3.75759 0
M  V30 927 H 82.4966 -0.816653 -3.16225 0
M  V30 928 H 81.1556 -2.79665 -2.37029 0
M  V30 929 H 80.8036 -1.8738 -4.66795 0
M  V30 930 H 80.5036 -3.62921 -4.62128 0
M  V30 931 H 82.0276 -3.00598 -5.31482 0
M  V30 932 H 83.4416 -4.47555 -3.58284 0
M  V30 933 H 81.8386 -5.12205 -3.12675 0
M  V30 934 H 82.9086 -4.47362 -1.87071 0
M  V30 935 N 84.2517 0.741722 -1.39055 0
M  V30 936 C 85.2017 1.84661 -1.33732 0
M  V30 937 C 86.1857 1.59397 -0.219401 0
M  V30 938 O 87.3777 1.71015 -0.456375 0
M  V30 939 C 84.5067 3.22512 -1.17647 0
M  V30 940 C 83.5927 3.53628 -2.34112 0
M  V30 941 N 83.9837 3.55723 -3.59576 0
M  V30 942 C 82.2817 3.83956 -2.26923 0
M  V30 943 C 82.9827 3.84443 -4.36553 0
M  V30 944 N 81.9587 4.01877 -3.66055 0
M  V30 945 H 85.7607 1.84576 -2.28711 0
M  V30 946 H 83.2747 0.939647 -1.32455 0
M  V30 947 H 85.2717 4.01597 -1.11917 0
M  V30 948 H 83.9317 3.2384 -0.236124 0
M  V30 949 H 84.9427 3.37196 -3.93089 0
M  V30 950 H 81.6197 3.92929 -1.41113 0
M  V30 951 H 83.0097 3.92588 -5.45274 0
M  V30 952 N 85.7298 1.2412 0.971189 0
M  V30 953 C 87.1458 1.00584 1.23916 0
M  V30 954 C 87.3458 -0.287481 1.99439 0
M  V30 955 O 86.4018 -1.00454 2.31658 0
M  V30 956 C 87.7148 2.21864 2.0297 0
M  V30 957 C 89.2628 2.26452 2.16076 0
M  V30 958 C 89.7378 3.47343 2.98524 0
M  V30 959 N 91.2288 3.47639 3.06107 0
M  V30 960 C 91.9638 4.37837 3.70251 0
M  V30 961 N 91.4598 5.38286 4.36142 0
M  V30 962 N 93.2528 4.25558 3.67228 0
M  V30 963 H 85.4038 2.07236 0.465499 0
M  V30 964 H 87.6668 0.909236 0.268315 0
M  V30 965 H 87.3728 3.15771 1.54861 0
M  V30 966 H 87.2468 2.23698 3.03709 0
M  V30 967 H 89.6338 1.33078 2.6339 0
M  V30 968 H 89.7148 2.28645 1.14696 0
M  V30 969 H 89.3588 4.41029 2.51905 0
M  V30 970 H 89.2888 3.42393 4.00093 0
M  V30 971 H 91.7798 2.74966 2.59233 0
M  V30 972 H 92.0928 6.03352 4.82894 0
M  V30 973 H 90.4378 5.42176 4.34822 0
M  V30 974 H 93.6288 3.46322 3.14927 0
M  V30 975 H 93.8018 4.96054 4.16935 0
M  V30 976 N 87.2079 -1.17134 1.05439 0
M  V30 977 C 88.1399 -2.2078 0.615539 0
M  V30 978 C 89.1529 -1.59584 -0.322001 0
M  V30 979 O 90.3419 -1.78133 -0.114344 0
M  V30 980 C 87.4419 -3.38691 -0.118938 0
M  V30 981 C 86.6149 -4.29454 0.829924 0
M  V30 982 C 85.6739 -5.26024 0.136258 0
M  V30 983 O 84.6999 -5.63952 0.77115 0
M  V30 984 N 85.9019 -5.69487 -1.1254 0
M  V30 985 H 88.6669 -2.59052 1.50705 0
M  V30 986 H 86.2279 -1.32058 0.936603 0
M  V30 987 H 88.2199 -4.00329 -0.593179 0
M  V30 988 H 86.7899 -2.98996 -0.91215 0
M  V30 989 H 86.0099 -3.65211 1.48373 0
M  V30 990 H 87.2979 -4.86984 1.47392 0
M  V30 991 H 86.6959 -5.4075 -1.6615 0
M  V30 992 H 85.2529 -6.33257 -1.54366 0
M  V30 993 N 88.686 -0.835752 -1.33615 0
M  V30 994 C 89.616 -0.281739 -2.31794 0
M  V30 995 C 90.597 0.608833 -1.58831 0
M  V30 996 O 91.782 0.533035 -1.86741 0
M  V30 997 C 88.912 0.546612 -3.42971 0
M  V30 998 C 87.866 -0.247904 -4.27281 0
M  V30 999 C 87.192 0.704001 -5.30045 0
M  V30 1000 C 88.492 -1.46324 -5.01385 0
M  V30 1001 H 90.186 -1.10206 -2.78379 0
M  V30 1002 H 87.732 -0.531388 -1.33837 0
M  V30 1003 H 89.685 0.944467 -4.1068 0
M  V30 1004 H 88.409 1.40011 -2.95067 0
M  V30 1005 H 87.068 -0.627281 -3.61194 0
M  V30 1006 H 86.716 1.55381 -4.78399 0
M  V30 1007 H 86.416 0.176524 -5.87335 0
M  V30 1008 H 87.94 1.09944 -6.0062 0
M  V30 1009 H 89.354 -1.13871 -5.61877 0
M  V30 1010 H 87.751 -1.92728 -5.6831 0
M  V30 1011 H 88.821 -2.23467 -4.30338 0
M  V30 1012 N 90.1641 1.46063 -0.591896 0
M  V30 1013 C 91.0941 2.33172 0.123673 0
M  V30 1014 C 92.0751 1.45897 0.87453 0
M  V30 1015 O 93.2601 1.74698 0.848181 0
M  V30 1016 C 90.3901 3.28336 1.13194 0
M  V30 1017 C 89.3441 4.25124 0.495324 0
M  V30 1018 C 88.6701 5.09863 1.61071 0
M  V30 1019 C 89.9701 5.19143 -0.573425 0
M  V30 1020 H 91.6641 2.93252 -0.603646 0
M  V30 1021 H 89.2101 1.41014 -0.291741 0
M  V30 1022 H 91.1631 3.88137 1.64097 0
M  V30 1023 H 89.8871 2.66383 1.88965 0
M  V30 1024 H 88.5461 3.66599 0.00729452 0
M  V30 1025 H 88.1941 4.44288 2.35832 0
M  V30 1026 H 87.8941 5.75417 1.19035 0
M  V30 1027 H 89.4181 5.72529 2.12233 0
M  V30 1028 H 90.8321 5.73106 -0.1491 0
M  V30 1029 H 89.2291 5.93089 -0.914636 0
M  V30 1030 H 90.2991 4.62519 -1.45617 0
M  V30 1031 N 91.6422 0.330177 1.54103 0
M  V30 1032 C 92.8722 -0.271784 2.04805 0
M  V30 1033 C 93.2802 -1.45816 1.20559 0
M  V30 1034 O 92.6232 -1.82247 0.2306 0
M  V30 1035 C 92.6852 -0.763238 3.51305 0
M  V30 1036 C 92.3492 0.301705 4.56003 0
M  V30 1037 C 93.3462 1.13999 5.07248 0
M  V30 1038 C 91.0312 0.451793 5.00264 0
M  V30 1039 C 93.0252 2.11402 6.01322 0
M  V30 1040 C 90.7122 1.42924 5.94151 0
M  V30 1041 C 91.7102 2.25882 6.44567 0
M  V30 1042 O 91.3982 3.21965 7.3661 0
M  V30 1043 H 91.1302 -0.058693 0.673447 0
M  V30 1044 H 93.6842 0.476395 1.99799 0
M  V30 1045 H 91.9142 -1.56244 3.5373 0
M  V30 1046 H 93.6032 -1.28427 3.85047 0
M  V30 1047 H 94.3692 1.03505 4.73827 0
M  V30 1048 H 90.2482 -0.184044 4.60632 0
M  V30 1049 H 93.7922 2.76192 6.40596 0
M  V30 1050 H 89.6892 1.53479 6.26988 0
M  V30 1051 H 90.4572 3.17281 7.54503 0
M  V30 1052 N 93.1203 -1.57491 0.0584922 0
M  V30 1053 C 94.3693 -1.92155 -0.613146 0
M  V30 1054 C 94.6823 -0.939334 -1.71569 0
M  V30 1055 O 95.8883 -1.17829 -2.44599 0
M  V30 1056 C 94.3443 -3.41303 -1.14195 0
M  V30 1057 C 93.9523 -4.47944 -0.0711265 0
M  V30 1058 C 95.6963 -3.84988 -1.78841 0
M  V30 1059 C 93.6033 -5.88212 -0.613225 0
M  V30 1060 H 92.5333 -0.717162 -0.232796 0
M  V30 1061 H 95.1843 -1.83049 0.12857 0
M  V30 1062 H 93.5663 -3.45437 -1.93621 0
M  V30 1063 H 94.7403 -4.55408 0.702836 0
M  V30 1064 H 93.0553 -4.13644 0.478313 0
M  V30 1065 H 95.6523 -4.87159 -2.20408 0
M  V30 1066 H 95.9953 -3.21632 -2.64308 0
M  V30 1067 H 96.5283 -3.83401 -1.06059 0
M  V30 1068 H 93.2673 -6.55183 0.203978 0
M  V30 1069 H 92.7873 -5.84294 -1.35501 0
M  V30 1070 H 94.4663 -6.37687 -1.09383 0
M  V30 1071 N 94.5984 0.214957 -1.56127 0
M  V30 1072 C 95.8264 0.955092 -1.83536 0
M  V30 1073 C 96.2414 1.77677 -0.638472 0
M  V30 1074 O 95.5984 1.78219 0.392968 0
M  V30 1075 C 95.6494 1.86734 -3.09536 0
M  V30 1076 O 95.3704 1.07887 -4.24608 0
M  V30 1077 C 96.8714 2.72082 -3.4998 0
M  V30 1078 H 94.0914 0.279611 -0.609966 0
M  V30 1079 H 96.6354 0.228197 -2.03223 0
M  V30 1080 H 94.7904 2.5481 -2.91806 0
M  V30 1081 H 95.2044 1.69872 -4.9623 0
M  V30 1082 H 96.6784 3.31782 -4.41163 0
M  V30 1083 H 97.1554 3.44806 -2.7204 0
M  V30 1084 H 97.7614 2.09409 -3.70173 0
M  V30 1085 N 96.0765 1.50051 0.48192 0
M  V30 1086 C 97.0395 1.67584 1.5636 0
M  V30 1087 C 98.0395 0.546894 1.51214 0
M  V30 1088 O 99.2295 0.813725 1.54026 0
M  V30 1089 C 96.3615 1.691 2.96003 0
M  V30 1090 H 97.5545 2.64078 1.42136 0
M  V30 1091 H 95.1075 1.39369 0.707533 0
M  V30 1092 H 95.8425 0.742589 3.15684 0
M  V30 1093 H 95.6275 2.51105 3.01146 0
M  V30 1094 H 97.1175 1.84656 3.74556 0
M  V30 1095 N 97.5546 -0.734337 1.39446 0
M  V30 1096 C 98.8016 -1.49391 1.36706 0
M  V30 1097 C 99.1296 -1.94465 -0.0367813 0
M  V30 1098 O 98.3846 -1.67154 -1.01774 0
M  V30 1099 C 98.6836 -2.74711 2.28623 0
M  V30 1100 C 98.3496 -2.48501 3.76242 0
M  V30 1101 C 97.0116 -2.41062 4.16464 0
M  V30 1102 C 99.3636 -2.26098 4.69606 0
M  V30 1103 C 96.6916 -2.09262 5.48112 0
M  V30 1104 C 99.0436 -1.95814 6.01531 0
M  V30 1105 C 97.7076 -1.86845 6.40816 0
M  V30 1106 H 96.9776 -0.546661 0.500243 0
M  V30 1107 H 99.6246 -0.842788 1.71957 0
M  V30 1108 H 97.9296 -3.44569 1.86492 0
M  V30 1109 H 99.6266 -3.32741 2.23796 0
M  V30 1110 H 96.2166 -2.55169 3.44364 0
M  V30 1111 H 100.401 -2.30812 4.39363 0
M  V30 1112 H 95.6566 -2.00841 5.77471 0
M  V30 1113 H 99.8306 -1.77488 6.73403 0
M  V30 1114 H 97.4576 -1.6197 7.42745 0
M  V30 1115 N 99.0327 -1.24633 -0.964593 0
M  V30 1116 C 100.28 -1.08788 -1.70796 0
M  V30 1117 C 100.608 0.372783 -1.90894 0
M  V30 1118 O 99.8627 1.29167 -1.47018 0
M  V30 1119 C 100.162 -1.7763 -3.10133 0
M  V30 1120 C 99.8277 -3.27557 -3.09866 0
M  V30 1121 C 98.4897 -3.6846 -3.09501 0
M  V30 1122 C 100.842 -4.23389 -3.03959 0
M  V30 1123 C 98.1697 -5.03624 -3.00965 0
M  V30 1124 C 100.522 -5.58565 -2.96965 0
M  V30 1125 C 99.1857 -5.98809 -2.9493 0
M  V30 1126 H 98.4557 -0.398084 -0.624988 0
M  V30 1127 H 101.103 -1.54777 -1.12767 0
M  V30 1128 H 99.4077 -1.24044 -3.71645 0
M  V30 1129 H 101.105 -1.62832 -3.66451 0
M  V30 1130 H 97.6947 -2.95006 -3.10917 0
M  V30 1131 H 101.879 -3.92787 -3.03368 0
M  V30 1132 H 97.1347 -5.33998 -2.97752 0
M  V30 1133 H 101.309 -6.32523 -2.91354 0
M  V30 1134 H 98.9357 -7.03505 -2.88071 0
M  V30 1135 N 100.511 1.16574 -1.06058 0
M  V30 1136 C 101.758 1.87047 -0.775873 0
M  V30 1137 C 102.086 1.81562 0.697534 0
M  V30 1138 O 101.341 1.22445 1.52662 0
M  V30 1139 C 101.64 3.36195 -1.21275 0
M  V30 1140 C 101.306 3.6188 -2.68986 0
M  V30 1141 C 99.9678 3.68599 -3.09335 0
M  V30 1142 C 102.32 3.72648 -3.64394 0
M  V30 1143 C 99.6478 3.83584 -4.43937 0
M  V30 1144 C 102 3.89154 -4.98741 0
M  V30 1145 C 100.664 3.94114 -5.3873 0
M  V30 1146 H 99.9338 0.684452 -0.283912 0
M  V30 1147 H 102.581 1.37853 -1.32925 0
M  V30 1148 H 100.886 3.87505 -0.578528 0
M  V30 1149 H 102.583 3.89103 -0.969542 0
M  V30 1150 H 99.1728 3.57281 -2.36744 0
M  V30 1151 H 103.357 3.66769 -3.34356 0
M  V30 1152 H 98.6128 3.85677 -4.74409 0
M  V30 1153 H 102.787 3.96427 -5.72554 0
M  V30 1154 H 100.414 4.05478 -6.43033 0
M  V30 1155 N 101.989 0.842826 1.3317 0
M  V30 1156 C 102.952 0.284065 2.27433 0
M  V30 1157 C 103.952 -0.54948 1.5112 0
M  V30 1158 O 105.142 -0.362699 1.70382 0
M  V30 1159 C 102.274 -0.599384 3.35589 0
M  V30 1160 H 103.467 1.11589 2.78366 0
M  V30 1161 H 101.02 0.616221 1.4364 0
M  V30 1162 H 101.755 -1.45349 2.89904 0
M  V30 1163 H 101.54 -0.00291266 3.921 0
M  V30 1164 H 103.03 -0.983488 4.05854 0
M  V30 1165 N 103.467 -1.45747 0.599634 0
M  V30 1166 C 104.715 -2.01893 0.0915472 0
M  V30 1167 C 105.036 -1.47155 -1.27946 0
M  V30 1168 O 104.306 -0.66273 -1.84349 0
M  V30 1169 H 102.886 -0.746363 0.0308524 0
M  V30 1170 H 105.548 -1.78645 0.779237 0
M  V30 1171 H 104.644 -3.1208 0.0353086 0
M  V30 1172 N 104.945 -0.338344 -1.53925 0
M  V30 1173 C 106.175 0.260919 -2.04946 0
M  V30 1174 C 106.583 1.45174 -1.2133 0
M  V30 1175 O 105.926 1.82122 -0.240262 0
M  V30 1176 C 105.988 0.744596 -3.51704 0
M  V30 1177 C 105.652 -0.325883 -4.55837 0
M  V30 1178 C 106.649 -1.16687 -5.06636 0
M  V30 1179 C 104.334 -0.478317 -5.00017 0
M  V30 1180 C 106.328 -2.14588 -6.00192 0
M  V30 1181 C 104.015 -1.46073 -5.93385 0
M  V30 1182 C 105.013 -2.29297 -6.4336 0
M  V30 1183 O 104.701 -3.25867 -7.34892 0
M  V30 1184 H 104.433 0.0551207 -0.673749 0
M  V30 1185 H 106.987 -0.486984 -1.99544 0
M  V30 1186 H 105.217 1.54366 -3.54553 0
M  V30 1187 H 106.906 1.26383 -3.85723 0
M  V30 1188 H 107.672 -1.06016 -4.73271 0
M  V30 1189 H 103.551 0.159613 -4.60724 0
M  V30 1190 H 107.095 -2.79585 -6.39123 0
M  V30 1191 H 102.992 -1.56802 -6.26166 0
M  V30 1192 H 103.76 -3.21278 -7.5281 0
M  V30 1193 N 106.423 1.57458 -0.0668435 0
M  V30 1194 C 107.653 1.97337 0.611677 0
M  V30 1195 C 108.061 0.943744 1.63982 0
M  V30 1196 O 107.404 -0.0785584 1.83532 0
M  V30 1197 C 107.466 3.33511 1.34205 0
M  V30 1198 C 107.13 4.54598 0.467941 0
M  V30 1199 C 108.127 5.19186 -0.272439 0
M  V30 1200 C 105.812 5.0075 0.39427 0
M  V30 1201 C 107.806 6.28274 -1.07476 0
M  V30 1202 C 105.493 6.09711 -0.411729 0
M  V30 1203 C 106.491 6.73335 -1.14492 0
M  V30 1204 O 106.179 7.80199 -1.93763 0
M  V30 1205 H 105.911 0.654042 0.170893 0
M  V30 1206 H 108.465 2.04961 -0.134289 0
M  V30 1207 H 106.695 3.22487 2.13398 0
M  V30 1208 H 108.384 3.58029 1.91233 0
M  V30 1209 H 109.15 4.84477 -0.225086 0
M  V30 1210 H 105.029 4.51009 0.954569 0
M  V30 1211 H 108.573 6.77866 -1.64755 0
M  V30 1212 H 104.47 6.43854 -0.460664 0
M  V30 1213 H 105.238 7.97053 -1.86142 0
M  V30 1214 N 107.901 -0.206675 1.56239 0
M  V30 1215 C 108.831 -1.25909 1.96645 0
M  V30 1216 C 109.812 -1.48097 0.836734 0
M  V30 1217 O 110.997 -1.6003 1.10019 0
M  V30 1218 C 108.127 -2.6058 2.29599 0
M  V30 1219 C 107.081 -2.53024 3.452 0
M  V30 1220 C 106.407 -3.91861 3.63798 0
M  V30 1221 C 107.707 -2.06524 4.79734 0
M  V30 1222 H 109.401 -0.923369 2.84806 0
M  V30 1223 H 106.947 -0.442735 1.37025 0
M  V30 1224 H 108.9 -3.34375 2.56459 0
M  V30 1225 H 107.624 -2.95869 1.38307 0
M  V30 1226 H 106.283 -1.81684 3.18412 0
M  V30 1227 H 105.931 -4.24483 2.69857 0
M  V30 1228 H 105.631 -3.87683 4.4156 0
M  V30 1229 H 107.155 -4.67296 3.93022 0
M  V30 1230 H 108.569 -2.70072 5.05702 0
M  V30 1231 H 106.966 -2.13374 5.60885 0
M  V30 1232 H 108.036 -1.01802 4.74093 0
M  V30 1233 N 109.379 -1.50304 -0.473955 0
M  V30 1234 C 110.625 -1.61389 -1.22806 0
M  V30 1235 C 110.958 -0.311955 -1.91678 0
M  V30 1236 O 110.233 0.686384 -1.81986 0
M  V30 1237 C 110.516 -2.79219 -2.27396 0
M  V30 1238 C 110.369 -4.19286 -1.62848 0
M  V30 1239 C 111.688 -2.92614 -3.28732 0
M  V30 1240 H 108.807 -0.587399 -0.445119 0
M  V30 1241 H 111.449 -1.82681 -0.522265 0
M  V30 1242 H 109.599 -2.61195 -2.87592 0
M  V30 1243 H 111.271 -4.48892 -1.06271 0
M  V30 1244 H 109.514 -4.23677 -0.931693 0
M  V30 1245 H 110.185 -4.97655 -2.38838 0
M  V30 1246 H 112.661 -3.09105 -2.78556 0
M  V30 1247 H 111.537 -3.76688 -3.99246 0
M  V30 1248 H 111.798 -2.03107 -3.92683 0
M  V30 1249 N 110.857 0.726932 -1.39834 0
M  V30 1250 C 111.804 1.841 -1.39197 0
M  V30 1251 C 112.774 1.642 -0.250502 0
M  V30 1252 O 113.959 1.85494 -0.446846 0
M  V30 1253 C 111.099 3.21697 -1.24919 0
M  V30 1254 C 110.212 3.53247 -2.48678 0
M  V30 1255 C 109.347 4.80289 -2.26928 0
M  V30 1256 C 108.386 5.04707 -3.4632 0
M  V30 1257 N 107.523 6.22956 -3.23836 0
M  V30 1258 H 112.363 1.83979 -2.34427 0
M  V30 1259 H 109.9 0.898876 -1.16442 0
M  V30 1260 H 111.858 4.01137 -1.1465 0
M  V30 1261 H 110.488 3.21076 -0.333153 0
M  V30 1262 H 109.54 2.68447 -2.69519 0
M  V30 1263 H 110.852 3.67205 -3.37582 0
M  V30 1264 H 110.006 5.67725 -2.13947 0
M  V30 1265 H 108.745 4.68519 -1.35431 0
M  V30 1266 H 107.75 4.1573 -3.5979 0
M  V30 1267 H 108.975 5.18357 -4.38729 0
M  V30 1268 H 106.921 6.12459 -2.35011 0
M  V30 1269 H 106.838 6.37539 -4.063 0
M  V30 1270 H 108.106 7.1321 -3.14566 0
M  V30 1271 N 112.336 1.25143 0.95797 0
M  V30 1272 C 113.752 1.01892 1.22842 0
M  V30 1273 C 113.952 -0.266311 1.99732 0
M  V30 1274 O 113.008 -0.979913 2.3271 0
M  V30 1275 C 114.321 2.24004 2.00606 0
M  V30 1276 C 115.869 2.28731 2.13662 0
M  V30 1277 C 116.344 3.5049 2.94823 0
M  V30 1278 N 117.835 3.50866 3.02403 0
M  V30 1279 C 118.57 4.4174 3.65586 0
M  V30 1280 N 118.066 5.42882 4.30408 0
M  V30 1281 N 119.859 4.29429 3.62694 0
M  V30 1282 H 112.01 2.07718 0.443493 0
M  V30 1283 H 114.273 0.912031 0.258657 0
M  V30 1284 H 113.979 3.17395 1.51503 0
M  V30 1285 H 113.853 2.26907 3.01319 0
M  V30 1286 H 116.24 1.35865 2.61963 0
M  V30 1287 H 116.321 2.29848 1.12265 0
M  V30 1288 H 115.965 4.43676 2.47213 0
M  V30 1289 H 115.895 3.46617 3.96439 0
M  V30 1290 H 118.386 2.777 2.56302 0
M  V30 1291 H 118.699 6.0844 4.76467 0
M  V30 1292 H 117.044 5.46758 4.29047 0
M  V30 1293 H 120.235 3.49643 3.11236 0
M  V30 1294 H 120.408 5.00448 4.1165 0
M  V30 1295 N 113.814 -1.1601 1.06675 0
M  V30 1296 C 114.724 -2.24156 0.692179 0
M  V30 1297 C 115.74 -1.71507 -0.293513 0
M  V30 1298 O 116.916 -2.009 -0.141861 0
M  V30 1299 C 113.981 -3.46587 0.0884131 0
M  V30 1300 C 113.042 -4.14257 1.12646 0
M  V30 1301 C 112.275 -5.30844 0.551416 0
M  V30 1302 O 112.498 -5.66858 -0.634656 0
M  V30 1303 O 111.432 -5.87848 1.29298 0
M  V30 1304 H 115.258 -2.58513 1.59388 0
M  V30 1305 H 112.843 -1.23599 0.83926 0
M  V30 1306 H 114.725 -4.20679 -0.246361 0
M  V30 1307 H 113.4 -3.13994 -0.786712 0
M  V30 1308 H 112.307 -3.42118 1.51348 0
M  V30 1309 H 113.64 -4.50914 1.97325 0
M  V30 1310 N 115.292 -0.849877 -1.32721 0
M  V30 1311 C 116.569 -0.372405 -1.92022 0
M  V30 1312 C 116.949 1.1435 -1.77447 0
M  V30 1313 O 116.297 1.96296 -1.16962 0
M  V30 1314 C 116.507 -0.831482 -3.3895 0
M  V30 1315 C 117.855 -0.845882 -4.16089 0
M  V30 1316 O 118.879 -0.775806 -3.47649 0
M  V30 1317 O 117.738 -0.943753 -5.38289 0
M  V30 1318 H 114.832 -0.107667 -0.819961 0
M  V30 1319 H 117.378 -0.93646 -1.41522 0
M  V30 1320 H 116.15 -1.87448 -3.4348 0
M  V30 1321 H 115.773 -0.24461 -3.96847 0
M  V30 1322 N 116.77 1.45427 -0.607355 0
M  V30 1323 C 118 2.06314 -0.108656 0
M  V30 1324 C 118.408 1.45269 1.21217 0
M  V30 1325 O 117.751 0.561115 1.74921 0
M  V30 1326 C 117.813 3.59345 0.105618 0
M  V30 1327 C 117.477 4.42723 -1.13337 0
M  V30 1328 C 118.474 4.77715 -2.05145 0
M  V30 1329 C 116.159 4.83478 -1.36213 0
M  V30 1330 C 118.153 5.52317 -3.18158 0
M  V30 1331 C 115.84 5.57835 -2.49527 0
M  V30 1332 C 116.838 5.92171 -3.40327 0
M  V30 1333 O 116.526 6.65019 -4.51669 0
M  V30 1334 H 116.258 0.672782 -0.0658842 0
M  V30 1335 H 118.812 1.87664 -0.834945 0
M  V30 1336 H 117.042 3.76394 0.886796 0
M  V30 1337 H 118.731 4.02076 0.555886 0
M  V30 1338 H 119.497 4.46787 -1.88697 0
M  V30 1339 H 115.376 4.56188 -0.664362 0
M  V30 1340 H 118.92 5.79036 -3.89054 0
M  V30 1341 H 114.817 5.88177 -2.65928 0
M  V30 1342 H 115.585 6.83469 -4.50348 0
M  V30 1343 N 118.248 0.346503 1.53744 0
M  V30 1344 C 119.178 -0.501193 2.28058 0
M  V30 1345 C 120.159 -1.10014 1.29734 0
M  V30 1346 O 121.344 -1.12097 1.58581 0
M  V30 1347 C 118.474 -1.65078 3.05559 0
M  V30 1348 C 117.428 -1.18003 4.11411 0
M  V30 1349 C 116.754 -2.41837 4.76884 0
M  V30 1350 C 118.054 -0.278394 5.21558 0
M  V30 1351 H 119.748 0.11875 2.99164 0
M  V30 1352 H 117.294 0.0585531 1.43881 0
M  V30 1353 H 119.247 -2.25028 3.56287 0
M  V30 1354 H 117.971 -2.29767 2.32109 0
M  V30 1355 H 116.63 -0.603331 3.61601 0
M  V30 1356 H 116.278 -3.0494 4.00026 0
M  V30 1357 H 115.978 -2.1102 5.48402 0
M  V30 1358 H 117.502 -3.02508 5.30397 0
M  V30 1359 H 118.916 -0.784823 5.67903 0
M  V30 1360 H 117.313 -0.0619707 6.00068 0
M  V30 1361 H 118.383 0.684677 4.80042 0
M  V30 1362 N 119.726 -1.57421 0.075193 0
M  V30 1363 C 120.956 -1.97659 -0.601203 0
M  V30 1364 C 121.364 -0.952427 -1.63479 0
M  V30 1365 O 120.707 0.0688241 -1.83571 0
M  V30 1366 C 120.769 -3.34218 -1.32434 0
M  V30 1367 C 120.433 -4.5484 -0.443826 0
M  V30 1368 C 121.43 -5.19034 0.299969 0
M  V30 1369 C 119.115 -5.00952 -0.367709 0
M  V30 1370 C 121.109 -6.27695 1.10807 0
M  V30 1371 C 118.796 -6.09484 0.444058 0
M  V30 1372 C 119.794 -6.72719 1.18061 0
M  V30 1373 O 119.482 -7.79161 1.97898 0
M  V30 1374 H 119.214 -0.65494 -0.167422 0
M  V30 1375 H 121.768 -2.04886 0.145157 0
M  V30 1376 H 119.998 -3.23615 -2.11685 0
M  V30 1377 H 121.687 -3.59038 -1.89331 0
M  V30 1378 H 122.453 -4.84351 0.250776 0
M  V30 1379 H 118.332 -4.51509 -0.930638 0
M  V30 1380 H 121.876 -6.76982 1.68347 0
M  V30 1381 H 117.773 -6.43601 0.494803 0
M  V30 1382 H 118.541 -7.96055 1.90367 0
M  V30 1383 N 121.204 0.198386 -1.56346 0
M  V30 1384 C 122.167 1.22952 -1.93431 0
M  V30 1385 C 123.167 1.38611 -0.815092 0
M  V30 1386 O 124.357 1.36479 -1.08255 0
M  V30 1387 C 121.489 2.59946 -2.20546 0
M  V30 1388 H 122.682 0.912626 -2.85677 0
M  V30 1389 H 120.235 0.43977 -1.49986 0
M  V30 1390 H 120.97 2.96696 -1.30927 0
M  V30 1391 H 120.755 2.49953 -3.02102 0
M  V30 1392 H 122.245 3.3431 -2.50253 0
M  V30 1393 N 122.682 1.50554 0.465978 0
M  V30 1394 C 123.928 1.62038 1.21949 0
M  V30 1395 C 124.261 0.322116 1.9151 0
M  V30 1396 O 123.536 -0.676723 1.82348 0
M  V30 1397 C 123.819 2.80421 2.25912 0
M  V30 1398 C 123.672 4.20144 1.60622 0
M  V30 1399 C 124.991 2.94354 3.27176 0
M  V30 1400 H 122.11 0.589752 0.441998 0
M  V30 1401 H 124.752 1.82956 0.51257 0
M  V30 1402 H 122.902 2.62717 2.86203 0
M  V30 1403 H 124.574 4.49449 1.03889 0
M  V30 1404 H 122.817 4.24165 0.909211 0
M  V30 1405 H 123.488 4.98914 2.36196 0
M  V30 1406 H 125.964 3.10578 2.76913 0
M  V30 1407 H 124.84 3.788 3.97242 0
M  V30 1408 H 125.101 2.05186 3.916 0
M  V30 1409 N 124.16 -0.719506 1.40217 0
M  V30 1410 C 125.576 -1.02707 1.22161 0
M  V30 1411 C 125.776 -2.0128 0.0940557 0
M  V30 1412 O 124.832 -2.46452 -0.549318 0
M  V30 1413 C 126.145 -1.57454 2.56181 0
M  V30 1414 C 127.693 -1.69458 2.63159 0
M  V30 1415 C 128.168 -2.27611 3.97438 0
M  V30 1416 N 129.659 -2.35002 3.99159 0
M  V30 1417 C 130.394 -2.80972 4.99842 0
M  V30 1418 N 129.89 -3.26723 6.10921 0
M  V30 1419 N 131.683 -2.80321 4.87213 0
M  V30 1420 H 123.834 -0.0660492 2.12297 0
M  V30 1421 H 126.097 -0.0919077 0.943534 0
M  V30 1422 H 125.803 -0.924873 3.39321 0
M  V30 1423 H 125.677 -2.56036 2.76993 0
M  V30 1424 H 128.064 -2.33543 1.80393 0
M  V30 1425 H 128.145 -0.694867 2.46181 0
M  V30 1426 H 127.789 -1.6415 4.80643 0
M  V30 1427 H 127.719 -3.2829 4.11744 0
M  V30 1428 H 130.21 -2.02685 3.18947 0
M  V30 1429 H 130.523 -3.60355 6.8364 0
M  V30 1430 H 128.868 -3.24692 6.14492 0
M  V30 1431 H 132.059 -2.43912 3.9953 0
M  V30 1432 H 132.232 -3.15831 5.65822 0
M  V30 1433 N 125.638 -1.25649 -0.95132 0
M  V30 1434 C 126.915 -1.01361 -1.67288 0
M  V30 1435 C 127.295 0.459135 -2.06046 0
M  V30 1436 O 126.643 1.43723 -1.7764 0
M  V30 1437 C 126.853 -1.95256 -2.89268 0
M  V30 1438 C 128.201 -2.23289 -3.61147 0
M  V30 1439 O 129.225 -1.93041 -2.99355 0
M  V30 1440 O 128.084 -2.74741 -4.72419 0
M  V30 1441 H 125.178 -0.38464 -0.732107 0
M  V30 1442 H 127.724 -1.36817 -1.00395 0
M  V30 1443 H 126.496 -2.94685 -2.57442 0
M  V30 1444 H 126.119 -1.60218 -3.6389 0
M  V30 1445 N 127.117 1.15442 -1.07289 0
M  V30 1446 C 128.533 1.38201 -0.798288 0
M  V30 1447 C 128.733 1.92429 0.597769 0
M  V30 1448 O 127.789 2.12962 1.3566 0
M  V30 1449 C 129.102 2.35357 -1.87156 0
M  V30 1450 C 130.65 2.49021 -1.89624 0
M  V30 1451 C 131.125 3.49468 -2.96034 0
M  V30 1452 N 132.616 3.57003 -2.95132 0
M  V30 1453 C 133.351 4.34543 -3.74112 0
M  V30 1454 N 132.847 5.15421 -4.6294 0
M  V30 1455 N 134.64 4.29625 -3.62462 0
M  V30 1456 H 126.791 0.78584 -1.97328 0
M  V30 1457 H 129.054 0.408065 -0.855679 0
M  V30 1458 H 128.76 2.02626 -2.87464 0
M  V30 1459 H 128.634 3.35129 -1.73114 0
M  V30 1460 H 131.021 2.81051 -0.899687 0
M  V30 1461 H 131.102 1.4925 -2.07745 0
M  V30 1462 H 130.746 3.18173 -3.95889 0
M  V30 1463 H 130.676 4.48992 -2.75161 0
M  V30 1464 H 133.167 2.99276 -2.30743 0
M  V30 1465 H 133.48 5.7183 -5.19837 0
M  V30 1466 H 131.825 5.14729 -4.66989 0
M  V30 1467 H 135.016 3.65505 -2.92444 0
M  V30 1468 H 135.189 4.89807 -4.24256 0
M  V30 1469 N 128.595 0.856903 1.32268 0
M  V30 1470 C 129.505 0.306131 2.32594 0
M  V30 1471 C 130.521 -0.577209 1.64147 0
M  V30 1472 O 131.697 -0.477043 1.95669 0
M  V30 1473 C 128.762 -0.494561 3.43154 0
M  V30 1474 C 127.823 0.415186 4.27288 0
M  V30 1475 C 127.056 -0.347387 5.32568 0
M  V30 1476 O 127.279 -1.57708 5.48165 0
M  V30 1477 O 126.213 0.287982 6.01211 0
M  V30 1478 H 130.039 1.13737 2.81598 0
M  V30 1479 H 127.624 0.619902 1.35932 0
M  V30 1480 H 129.506 -0.948944 4.10576 0
M  V30 1481 H 128.181 -1.30257 2.96336 0
M  V30 1482 H 127.088 0.917793 3.62667 0
M  V30 1483 H 128.421 1.18844 4.77637 0
M  V30 1484 N 130.073 -1.45103 0.615059 0
M  V30 1485 C 131.006 -2.27717 -0.148408 0
M  V30 1486 C 131.984 -1.37584 -0.866572 0
M  V30 1487 O 133.168 -1.67017 -0.87393 0
M  V30 1488 C 130.295 -3.16136 -1.21557 0
M  V30 1489 C 129.341 -4.22263 -0.599712 0
M  V30 1490 S 130.174 -5.3215 0.598081 0
M  V30 1491 C 131.33 -6.24137 -0.469484 0
M  V30 1492 H 131.563 -2.92121 0.552483 0
M  V30 1493 H 129.096 -1.49054 0.402778 0
M  V30 1494 H 131.054 -3.67633 -1.82638 0
M  V30 1495 H 129.715 -2.50982 -1.88857 0
M  V30 1496 H 128.908 -4.84081 -1.4029 0
M  V30 1497 H 128.51 -3.73945 -0.063876 0
M  V30 1498 H 130.802 -6.63984 -1.34652 0
M  V30 1499 H 131.745 -7.0801 0.112725 0
M  V30 1500 H 132.153 -5.58971 -0.788168 0
M  V30 1501 N 131.551 -0.354651 -1.53558 0
M  V30 1502 C 132.798 0.238443 -2.01091 0
M  V30 1503 C 133.126 1.49663 -1.24222 0
M  V30 1504 O 132.381 1.93049 -0.321003 0
M  V30 1505 C 132.68 0.587121 -3.52545 0
M  V30 1506 C 132.346 -0.575472 -4.47213 0
M  V30 1507 C 131.008 -0.894497 -4.72813 0
M  V30 1508 C 133.36 -1.35489 -5.03281 0
M  V30 1509 C 130.688 -1.99511 -5.51736 0
M  V30 1510 C 133.04 -2.44583 -5.83405 0
M  V30 1511 C 131.704 -2.77033 -6.07296 0
M  V30 1512 H 130.974 0.0872526 -0.735845 0
M  V30 1513 H 133.621 -0.484859 -1.8526 0
M  V30 1514 H 131.926 1.39129 -3.66265 0
M  V30 1515 H 133.623 1.05809 -3.86789 0
M  V30 1516 H 130.213 -0.316774 -4.27428 0
M  V30 1517 H 134.397 -1.12167 -4.83459 0
M  V30 1518 H 129.653 -2.25063 -5.68469 0
M  V30 1519 H 133.827 -3.05401 -6.25862 0
M  V30 1520 H 131.454 -3.6244 -6.68237 0
M  V30 1521 N 133.029 1.57378 -0.0835403 0
M  V30 1522 C 134.277 1.93547 0.581718 0
M  V30 1523 C 134.598 0.96524 1.69435 0
M  V30 1524 O 133.868 0.0153369 1.95894 0
M  V30 1525 H 132.448 0.714521 0.217874 0
M  V30 1526 H 135.11 1.94366 -0.144158 0
M  V30 1527 H 134.206 2.95665 0.999423 0
M  V30 1528 N 134.507 -0.190092 1.56449 0
M  V30 1529 C 135.737 -0.92443 1.84764 0
M  V30 1530 C 136.145 -1.77146 0.664529 0
M  V30 1531 O 135.488 -1.79812 -0.375957 0
M  V30 1532 C 135.55 -1.86651 3.07248 0
M  V30 1533 C 135.214 -1.20094 4.40938 0
M  V30 1534 C 136.211 -0.575445 5.16706 0
M  V30 1535 C 133.896 -1.2033 4.87674 0
M  V30 1536 C 135.89 0.0388111 6.37388 0
M  V30 1537 C 133.577 -0.585214 6.08291 0
M  V30 1538 C 134.575 0.0347578 6.82991 0
M  V30 1539 O 134.263 0.643147 8.01323 0
M  V30 1540 H 133.995 -0.274974 0.617548 0
M  V30 1541 H 136.549 -0.200788 2.04416 0
M  V30 1542 H 134.779 -2.62998 2.83494 0
M  V30 1543 H 136.468 -2.46907 3.22167 0
M  V30 1544 H 137.234 -0.565728 4.81689 0
M  V30 1545 H 133.113 -1.67526 4.29484 0
M  V30 1546 H 136.657 0.523329 6.95634 0
M  V30 1547 H 132.554 -0.592451 6.42775 0
M  V30 1548 H 133.322 0.540545 8.16713 0
M  V30 1549 N 135.985 -1.50799 -0.457987 0
M  V30 1550 C 136.918 -1.65273 -1.57353 0
M  V30 1551 C 137.896 -0.500578 -1.54703 0
M  V30 1552 O 139.08 -0.721781 -1.74134 0
M  V30 1553 C 136.207 -1.64737 -2.95938 0
M  V30 1554 C 135.253 -2.8567 -3.16693 0
M  V30 1555 S 136.086 -4.46791 -2.95191 0
M  V30 1556 C 137.242 -4.48968 -4.36095 0
M  V30 1557 H 137.475 -2.59633 -1.44838 0
M  V30 1558 H 135.008 -1.40225 -0.64625 0
M  V30 1559 H 136.966 -1.65112 -3.7583 0
M  V30 1560 H 135.627 -0.715899 -3.05833 0
M  V30 1561 H 134.82 -2.81637 -4.17967 0
M  V30 1562 H 134.422 -2.8293 -2.44594 0
M  V30 1563 H 136.714 -4.23337 -5.28954 0
M  V30 1564 H 137.657 -5.50664 -4.45168 0
M  V30 1565 H 138.065 -3.78522 -4.18786 0
M  V30 1566 N 137.463 0.71206 -1.40597 0
M  V30 1567 C 138.41 1.82613 -1.41142 0
M  V30 1568 C 139.38 1.63925 -0.267903 0
M  V30 1569 O 140.565 1.85009 -0.466495 0
M  V30 1570 C 137.705 3.20354 -1.28324 0
M  V30 1571 C 136.818 3.50589 -2.52411 0
M  V30 1572 C 135.953 4.77855 -2.32009 0
M  V30 1573 C 134.992 5.01005 -3.51654 0
M  V30 1574 N 134.129 6.19487 -3.30425 0
M  V30 1575 H 138.969 1.81482 -2.36365 0
M  V30 1576 H 136.506 0.886475 -1.17388 0
M  V30 1577 H 138.464 3.99899 -1.18899 0
M  V30 1578 H 137.094 3.20705 -0.367189 0
M  V30 1579 H 136.146 2.65573 -2.72351 0
M  V30 1580 H 137.458 3.63604 -3.41458 0
M  V30 1581 H 136.612 5.65424 -2.19956 0
M  V30 1582 H 135.351 4.67056 -1.40392 0
M  V30 1583 H 134.356 4.1189 -3.64179 0
M  V30 1584 H 135.581 5.13674 -4.44202 0
M  V30 1585 H 133.527 6.09932 -2.41494 0
M  V30 1586 H 133.444 6.33194 -4.13039 0
M  V30 1587 H 134.712 7.09834 -3.22113 0
M  V30 1588 N 138.941 1.26152 0.944643 0
M  V30 1589 C 139.871 1.09902 2.06019 0
M  V30 1590 C 140.852 0.00519538 1.70099 0
M  V30 1591 O 142.037 0.176583 1.93396 0
M  V30 1592 C 139.167 0.727562 3.39594 0
M  V30 1593 C 138.121 1.77274 3.89561 0
M  V30 1594 C 137.447 1.25569 5.19747 0
M  V30 1595 C 138.747 3.17357 4.14827 0
M  V30 1596 H 140.441 2.03217 2.19871 0
M  V30 1597 H 137.987 0.978452 1.05652 0
M  V30 1598 H 139.94 0.600777 4.17095 0
M  V30 1599 H 138.664 -0.241287 3.25707 0
M  V30 1600 H 137.323 1.88814 3.14237 0
M  V30 1601 H 136.971 0.276783 5.02238 0
M  V30 1602 H 136.671 1.95433 5.54148 0
M  V30 1603 H 138.195 1.1415 5.99835 0
M  V30 1604 H 139.609 3.08914 4.82954 0
M  V30 1605 H 138.006 3.84781 4.60504 0
M  V30 1606 H 139.076 3.63673 3.20734 0
M  V30 1607 N 140.419 -1.14872 1.07899 0
M  V30 1608 C 141.369 -2.17809 0.674027 0
M  V30 1609 C 142.353 -1.58008 -0.303699 0
M  V30 1610 O 143.545 -1.76616 -0.11654 0
M  V30 1611 C 140.674 -3.43208 0.0793318 0
M  V30 1612 C 139.76 -4.10051 1.08253 0
M  V30 1613 N 140.151 -4.52296 2.2641 0
M  V30 1614 C 138.449 -4.36469 0.917124 0
M  V30 1615 C 139.15 -5.04199 2.901 0
M  V30 1616 N 138.126 -4.98088 2.17736 0
M  V30 1617 H 141.928 -2.48207 1.57386 0
M  V30 1618 H 139.442 -1.315 0.952976 0
M  V30 1619 H 141.439 -4.16272 -0.228719 0
M  V30 1620 H 140.099 -3.14291 -0.815551 0
M  V30 1621 H 141.11 -4.45504 2.64096 0
M  V30 1622 H 137.787 -4.17432 0.0756078 0
M  V30 1623 H 139.177 -5.46802 3.90458 0
M  V30 1624 N 141.898 -0.863906 -1.31812 0
M  V30 1625 C 143.309 -0.52522 -1.7916 0
M  V30 1626 C 143.66 0.957518 -1.71248 0
M  V30 1627 O 142.785 1.74734 -1.27659 0
M  V30 1628 C 143.38 -0.9466 -3.25307 0
M  V30 1629 C 141.939 -0.659668 -3.70574 0
M  V30 1630 C 141.086 -1.14126 -2.52726 0
M  V30 1631 H 144.037 -1.05022 -1.1898 0
M  V30 1632 H 144.058 -0.266766 -3.79564 0
M  V30 1633 H 143.57 -2.02579 -3.31034 0
M  V30 1634 H 141.671 0.408416 -3.70355 0
M  V30 1635 H 141.784 -1.23245 -4.62977 0
M  V30 1636 H 140.148 -0.561216 -2.4844 0
M  V30 1637 H 140.931 -2.22775 -2.61201 0
M  V30 1638 N 143.376 1.44774 -0.622745 0
M  V30 1639 C 144.286 2.34433 0.0886031 0
M  V30 1640 C 145.302 1.52131 0.844529 0
M  V30 1641 O 146.478 1.84886 0.798691 0
M  V30 1642 C 143.543 3.29986 1.0635 0
M  V30 1643 C 142.604 4.28195 0.307873 0
M  V30 1644 C 141.837 5.19183 1.23633 0
M  V30 1645 O 142.06 5.13918 2.47476 0
M  V30 1646 O 140.994 5.97515 0.725189 0
M  V30 1647 H 144.82 2.96693 -0.648599 0
M  V30 1648 H 142.405 1.44408 -0.382957 0
M  V30 1649 H 144.287 3.88825 1.6246 0
M  V30 1650 H 142.962 2.70269 1.78146 0
M  V30 1651 H 141.869 3.72927 -0.296064 0
M  V30 1652 H 143.202 4.90808 -0.3699 0
M  V30 1653 N 144.854 0.36279 1.53368 0
M  V30 1654 C 146.131 -0.284021 1.93527 0
M  V30 1655 C 146.511 -1.66628 1.29608 0
M  V30 1656 O 145.859 -2.23942 0.45413 0
M  V30 1657 C 146.069 -0.337028 3.47369 0
M  V30 1658 C 147.417 -0.578708 4.20638 0
M  V30 1659 O 148.441 -0.418352 3.53735 0
M  V30 1660 O 147.3 -0.89074 5.39192 0
M  V30 1661 H 144.394 -0.169743 0.809393 0
M  V30 1662 H 146.94 0.41537 1.64538 0
M  V30 1663 H 145.712 0.632217 3.86159 0
M  V30 1664 H 145.335 -1.08243 3.82582 0
M  V30 1665 N 146.332 -1.57332 0.0918853 0
M  V30 1666 C 147.579 -1.94236 -0.572577 0
M  V30 1667 C 147.907 -0.973398 -1.6839 0
M  V30 1668 O 147.162 0.00756912 -1.95699 0
M  V30 1669 C 147.461 -3.37689 -1.17051 0
M  V30 1670 C 147.127 -4.50527 -0.183304 0
M  V30 1671 C 145.789 -4.81119 0.0882276 0
M  V30 1672 C 148.141 -5.18883 0.49095 0
M  V30 1673 C 145.469 -5.77395 1.04076 0
M  V30 1674 C 147.821 -6.1618 1.43193 0
M  V30 1675 C 146.485 -6.45179 1.71173 0
M  V30 1676 H 145.755 -0.710762 -0.209521 0
M  V30 1677 H 148.402 -1.9077 0.167036 0
M  V30 1678 H 146.707 -3.37718 -1.9863 0
M  V30 1679 H 148.404 -3.63543 -1.69227 0
M  V30 1680 H 144.994 -4.26681 -0.405124 0
M  V30 1681 H 149.178 -4.95427 0.294312 0
M  V30 1682 H 144.434 -5.98179 1.26457 0
M  V30 1683 H 148.608 -6.68243 1.96023 0
M  V30 1684 H 146.235 -7.1959 2.4514 0
M  V30 1685 N 147.81 0.181792 -1.56548 0
M  V30 1686 C 149.221 0.745244 -1.71181 0
M  V30 1687 C 149.572 1.83262 -0.70068 0
M  V30 1688 O 148.697 2.15946 0.140154 0
M  V30 1689 C 149.292 1.35859 -3.10367 0
M  V30 1690 C 147.851 1.86898 -3.2672 0
M  V30 1691 C 146.998 0.743942 -2.67134 0
M  V30 1692 H 149.949 -0.0434661 -1.5864 0
M  V30 1693 H 149.97 2.22817 -3.08436 0
M  V30 1694 H 149.482 0.566948 -3.83937 0
M  V30 1695 H 147.583 2.68738 -2.5809 0
M  V30 1696 H 147.696 2.02162 -4.34359 0
M  V30 1697 H 146.06 1.16169 -2.26665 0
M  V30 1698 H 146.843 -0.035676 -3.43281 0
M  V30 1699 N 149.288 1.51039 0.449983 0
M  V30 1700 C 150.198 1.74261 1.57067 0
M  V30 1701 C 151.214 0.626363 1.62335 0
M  V30 1702 O 152.39 0.907162 1.79812 0
M  V30 1703 C 149.455 1.85114 2.93144 0
M  V30 1704 C 148.516 3.0893 2.98095 0
M  V30 1705 C 147.749 3.19256 4.27681 0
M  V30 1706 O 147.972 2.35835 5.19363 0
M  V30 1707 O 146.906 4.12144 4.38658 0
M  V30 1708 H 150.732 2.69303 1.40391 0
M  V30 1709 H 148.317 1.35389 0.631688 0
M  V30 1710 H 150.199 1.94311 3.73926 0
M  V30 1711 H 148.874 0.932588 3.09975 0
M  V30 1712 H 147.781 3.0522 2.16314 0
M  V30 1713 H 149.114 4.00433 2.86206 0
M  V30 1714 N 150.766 -0.704594 1.40972 0
M  V30 1715 C 151.676 -1.84856 1.44448 0
M  V30 1716 C 152.692 -1.70726 0.335961 0
M  V30 1717 O 153.868 -1.92799 0.582276 0
M  V30 1718 C 150.933 -3.20758 1.31587 0
M  V30 1719 C 149.994 -3.47063 2.52677 0
M  V30 1720 C 149.227 -4.76481 2.4042 0
M  V30 1721 O 149.45 -5.52341 1.42391 0
M  V30 1722 O 148.384 -5.03367 3.30007 0
M  V30 1723 H 152.21 -1.8488 2.40942 0
M  V30 1724 H 149.795 -0.85647 1.22413 0
M  V30 1725 H 151.677 -4.01913 1.26665 0
M  V30 1726 H 150.352 -3.21438 0.382049 0
M  V30 1727 H 149.259 -2.65873 2.63177 0
M  V30 1728 H 150.592 -3.5119 3.44858 0
M  V30 1729 N 152.244 -1.26651 -0.937939 0
M  V30 1730 C 153.521 -1.0313 -1.66204 0
M  V30 1731 C 153.901 0.437256 -2.06522 0
M  V30 1732 O 153.249 1.41831 -1.79154 0
M  V30 1733 C 153.459 -1.98314 -2.87181 0
M  V30 1734 C 154.807 -2.27107 -3.58758 0
M  V30 1735 O 155.831 -1.96205 -2.97291 0
M  V30 1736 O 154.69 -2.79736 -4.69479 0
M  V30 1737 H 151.784 -0.392384 -0.727986 0
M  V30 1738 H 154.33 -1.37874 -0.989382 0
M  V30 1739 H 153.102 -2.97399 -2.54302 0
M  V30 1740 H 152.725 -1.64068 -3.6217 0
M  V30 1741 N 153.722 1.14298 -1.08507 0
M  V30 1742 C 154.669 2.19414 -0.715965 0
M  V30 1743 C 155.639 1.63399 0.298326 0
M  V30 1744 O 156.824 1.89929 0.182101 0
M  V30 1745 C 153.964 3.44845 -0.132534 0
M  V30 1746 C 153.077 4.15007 -1.19973 0
M  V30 1747 C 152.212 5.28024 -0.580048 0
M  V30 1748 C 151.251 5.9002 -1.62921 0
M  V30 1749 N 150.388 6.94485 -1.03125 0
M  V30 1750 H 155.228 2.50336 -1.61666 0
M  V30 1751 H 152.765 1.2293 -0.807882 0
M  V30 1752 H 154.723 4.16601 0.223454 0
M  V30 1753 H 153.353 3.14403 0.731467 0
M  V30 1754 H 152.405 3.41629 -1.67313 0
M  V30 1755 H 153.717 4.57178 -1.99473 0
M  V30 1756 H 152.871 6.06455 -0.172364 0
M  V30 1757 H 151.61 4.87076 0.246603 0
M  V30 1758 H 150.615 5.10291 -2.04654 0
M  V30 1759 H 151.84 6.33042 -2.45835 0
M  V30 1760 H 149.786 6.55612 -0.225711 0
M  V30 1761 H 149.703 7.35148 -1.76334 0
M  V30 1762 H 150.971 7.7679 -0.649458 0
M  V30 1763 N 155.201 0.870884 1.31352 0
M  V30 1764 C 156.148 0.325425 2.28494 0
M  V30 1765 C 157.118 -0.576615 1.5577 0
M  V30 1766 O 158.303 -0.508059 1.83911 0
M  V30 1767 C 155.443 -0.466283 3.41935 0
M  V30 1768 C 154.556 0.463378 4.29508 0
M  V30 1769 C 153.691 -0.342544 5.30094 0
M  V30 1770 C 152.73 0.583486 6.09313 0
M  V30 1771 N 151.867 -0.186244 7.01853 0
M  V30 1772 H 156.707 1.15901 2.74538 0
M  V30 1773 H 154.244 0.58294 1.35056 0
M  V30 1774 H 156.202 -0.941085 4.06447 0
M  V30 1775 H 154.832 -1.26456 2.97 0
M  V30 1776 H 153.884 1.05663 3.65431 0
M  V30 1777 H 155.196 1.1734 4.84802 0
M  V30 1778 H 154.35 -0.879816 6.00287 0
M  V30 1779 H 153.089 -1.08585 4.75458 0
M  V30 1780 H 152.094 1.13251 5.3801 0
M  V30 1781 H 153.319 1.32566 6.66035 0
M  V30 1782 H 151.265 -0.912348 6.49625 0
M  V30 1783 H 151.182 0.464422 7.54572 0
M  V30 1784 H 152.45 -0.704716 7.76308 0
M  V30 1785 N 156.679 -1.44442 0.630414 0
M  V30 1786 C 157.907 -2.06414 0.141671 0
M  V30 1787 C 158.322 -1.47105 -1.18345 0
M  V30 1788 O 157.679 -0.593662 -1.72574 0
M  V30 1789 C 157.73 -3.61494 0.0199784 0
M  V30 1790 O 157.451 -4.18594 1.29269 0
M  V30 1791 C 158.952 -4.40499 -0.497544 0
M  V30 1792 H 156.172 -0.666292 0.0793452 0
M  V30 1793 H 158.716 -1.85323 0.864614 0
M  V30 1794 H 156.871 -3.8185 -0.653402 0
M  V30 1795 H 157.285 -5.12026 1.13707 0
M  V30 1796 H 158.759 -5.49433 -0.531708 0
M  V30 1797 H 159.236 -4.11895 -1.52445 0
M  V30 1798 H 159.842 -4.25061 0.142562 0
M  V30 1799 N 158.157 -0.370918 -1.53173 0
M  V30 1800 C 159.387 0.217389 -2.05453 0
M  V30 1801 C 159.795 1.42568 -1.24382 0
M  V30 1802 O 159.138 1.81571 -0.278839 0
M  V30 1803 C 159.2 0.669827 -3.53205 0
M  V30 1804 C 158.864 -0.4225 -4.55043 0
M  V30 1805 C 159.861 -1.27407 -5.04047 0
M  V30 1806 C 157.546 -0.58427 -4.9889 0
M  V30 1807 C 159.54 -2.27271 -5.95505 0
M  V30 1808 C 157.227 -1.58627 -5.90153 0
M  V30 1809 C 158.225 -2.42892 -6.38351 0
M  V30 1810 O 157.913 -3.41382 -7.27814 0
M  V30 1811 H 157.645 0.0408171 -0.674767 0
M  V30 1812 H 160.199 -0.5292 -1.98466 0
M  V30 1813 H 158.429 1.4681 -3.57748 0
M  V30 1814 H 160.118 1.18173 -3.88317 0
M  V30 1815 H 160.884 -1.16031 -4.70916 0
M  V30 1816 H 156.763 0.061851 -4.60959 0
M  V30 1817 H 160.307 -2.93079 -6.33049 0
M  V30 1818 H 156.204 -1.70048 -6.22699 0
M  V30 1819 H 156.972 -3.37173 -7.45826 0
M  V30 1820 N 159.635 1.57281 -0.100228 0
M  V30 1821 C 160.883 1.94153 0.561157 0
M  V30 1822 C 161.204 0.983157 1.68401 0
M  V30 1823 O 160.474 0.0361132 1.95867 0
M  V30 1824 H 159.054 0.716791 0.210283 0
M  V30 1825 H 161.716 1.94202 -0.164765 0
M  V30 1826 H 160.812 2.96709 0.968008 0
M  V30 1827 N 161.113 -0.173488 1.56642 0
M  V30 1828 C 162.023 -1.23482 1.99473 0
M  V30 1829 C 163.039 -1.48567 0.905752 0
M  V30 1830 O 164.215 -1.60758 1.21321 0
M  V30 1831 C 161.28 -2.55444 2.34413 0
M  V30 1832 C 160.341 -2.38241 3.57127 0
M  V30 1833 C 159.574 -3.63909 3.90392 0
M  V30 1834 O 159.797 -4.68996 3.24653 0
M  V30 1835 O 158.731 -3.58149 4.83749 0
M  V30 1836 H 162.557 -0.901279 2.90018 0
M  V30 1837 H 160.142 -0.380185 1.44482 0
M  V30 1838 H 162.024 -3.33292 2.57865 0
M  V30 1839 H 160.699 -2.88382 1.4703 0
M  V30 1840 H 159.606 -1.58431 3.38896 0
M  V30 1841 H 160.939 -2.10228 4.45045 0
M  V30 1842 N 162.591 -1.51276 -0.441967 0
M  V30 1843 C 163.84 -1.6295 -1.18871 0
M  V30 1844 C 164.153 -0.349312 -1.92456 0
M  V30 1845 O 165.359 -0.345355 -2.69295 0
M  V30 1846 C 163.815 -2.87759 -2.16155 0
M  V30 1847 C 163.423 -4.22764 -1.48239 0
M  V30 1848 C 165.167 -3.08788 -2.91291 0
M  V30 1849 C 163.074 -5.38728 -2.4398 0
M  V30 1850 H 162.004 -0.606913 -0.447406 0
M  V30 1851 H 164.655 -1.77739 -0.456205 0
M  V30 1852 H 163.037 -2.66593 -2.92821 0
M  V30 1853 H 164.211 -4.54293 -0.771635 0
M  V30 1854 H 162.526 -4.07575 -0.852741 0
M  V30 1855 H 165.123 -3.92599 -3.63002 0
M  V30 1856 H 165.466 -2.21679 -3.5237 0
M  V30 1857 H 165.999 -3.30272 -2.21733 0
M  V30 1858 H 162.738 -6.28082 -1.87598 0
M  V30 1859 H 162.258 -5.1158 -3.13123 0
M  V30 1860 H 163.937 -5.70489 -3.05207 0
M  V30 1861 N 164.069 0.697108 -1.41344 0
M  V30 1862 C 165.316 1.45714 -1.40619 0
M  V30 1863 C 165.644 1.94494 -0.0147907 0
M  V30 1864 O 164.899 1.69794 0.973066 0
M  V30 1865 C 165.198 2.68553 -2.35826 0
M  V30 1866 C 164.864 2.38438 -3.82698 0
M  V30 1867 C 163.526 2.29936 -4.22709 0
M  V30 1868 C 165.878 2.13567 -4.75435 0
M  V30 1869 C 163.206 1.94656 -5.53467 0
M  V30 1870 C 165.558 1.79797 -6.06511 0
M  V30 1871 C 164.222 1.69789 -6.45545 0
M  V30 1872 H 163.492 0.533206 -0.51456 0
M  V30 1873 H 166.139 0.796901 -1.74131 0
M  V30 1874 H 164.444 3.39503 -1.95563 0
M  V30 1875 H 166.141 3.2669 -2.32539 0
M  V30 1876 H 162.731 2.4595 -3.51008 0
M  V30 1877 H 166.915 2.19082 -4.45328 0
M  V30 1878 H 162.171 1.8546 -5.82593 0
M  V30 1879 H 166.345 1.59572 -6.77872 0
M  V30 1880 H 163.972 1.4222 -7.46778 0
M  V30 1881 N 165.547 1.27147 0.931209 0
M  V30 1882 C 166.457 1.11372 2.06478 0
M  V30 1883 C 167.473 0.044645 1.73943 0
M  V30 1884 O 168.649 0.250417 1.99837 0
M  V30 1885 C 165.714 0.758838 3.38294 0
M  V30 1886 C 164.775 1.90841 3.84549 0
M  V30 1887 C 164.008 1.57036 5.10074 0
M  V30 1888 O 164.231 0.476645 5.68405 0
M  V30 1889 O 163.165 2.40839 5.51616 0
M  V30 1890 H 166.991 2.06493 2.22698 0
M  V30 1891 H 164.576 1.06301 1.04978 0
M  V30 1892 H 166.458 0.574098 4.17471 0
M  V30 1893 H 165.133 -0.162879 3.2329 0
M  V30 1894 H 164.04 2.14819 3.06274 0
M  V30 1895 H 165.373 2.81021 4.04089 0
M  V30 1896 N 167.025 -1.13721 1.09112 0
M  V30 1897 C 167.972 -2.19031 0.727591 0
M  V30 1898 C 168.942 -1.63555 -0.289656 0
M  V30 1899 O 170.127 -1.90023 -0.172026 0
M  V30 1900 C 167.267 -3.4477 0.15082 0
M  V30 1901 C 166.38 -4.14365 1.22172 0
M  V30 1902 C 165.515 -5.27709 0.608042 0
M  V30 1903 C 164.554 -5.89147 1.66047 0
M  V30 1904 N 163.691 -6.93929 1.06806 0
M  V30 1905 H 168.531 -2.49475 1.62991 0
M  V30 1906 H 166.068 -1.22499 0.81439 0
M  V30 1907 H 168.026 -4.16714 -0.201358 0
M  V30 1908 H 166.656 -3.14787 -0.714783 0
M  V30 1909 H 165.708 -3.40737 1.69122 0
M  V30 1910 H 167.02 -4.56114 2.01895 0
M  V30 1911 H 166.174 -6.06355 0.204523 0
M  V30 1912 H 164.913 -4.872 -0.220769 0
M  V30 1913 H 163.918 -5.09198 2.07357 0
M  V30 1914 H 165.143 -6.31729 2.49189 0
M  V30 1915 H 163.089 -6.55483 0.260476 0
M  V30 1916 H 163.006 -7.34202 1.8023 0
M  V30 1917 H 164.274 -7.76434 0.690644 0
M  V30 1918 N 168.503 -0.877838 -1.30888 0
M  V30 1919 C 169.75 -0.492696 -1.96415 0
M  V30 1920 C 170.078 0.956671 -1.69346 0
M  V30 1921 O 169.333 1.68993 -0.986913 0
M  V30 1922 C 169.632 -0.705748 -3.50363 0
M  V30 1923 C 169.298 -2.1291 -3.97467 0
M  V30 1924 C 167.96 -2.51834 -4.1004 0
M  V30 1925 C 170.312 -3.05702 -4.22132 0
M  V30 1926 C 167.64 -3.82775 -4.44635 0
M  V30 1927 C 169.992 -4.36166 -4.58194 0
M  V30 1928 C 168.656 -4.74993 -4.68975 0
M  V30 1929 H 167.926 -0.18029 -0.718733 0
M  V30 1930 H 170.573 -1.11233 -1.55883 0
M  V30 1931 H 168.878 -0.00303058 -3.918 0
M  V30 1932 H 170.575 -0.387456 -3.99124 0
M  V30 1933 H 167.165 -1.81694 -3.88182 0
M  V30 1934 H 171.349 -2.76853 -4.11906 0
M  V30 1935 H 166.605 -4.12609 -4.51181 0
M  V30 1936 H 170.779 -5.08111 -4.76231 0
M  V30 1937 H 168.406 -5.76495 -4.95537 0
M  V30 1938 N 169.982 1.44106 -0.638065 0
M  V30 1939 C 170.932 2.27843 0.0847285 0
M  V30 1940 C 171.916 1.39055 0.809471 0
M  V30 1941 O 173.108 1.62808 0.694435 0
M  V30 1942 C 170.237 3.26497 1.06089 0
M  V30 1943 C 169.323 4.22772 0.33541 0
M  V30 1944 N 169.714 5.01737 -0.639787 0
M  V30 1945 C 168.012 4.42227 0.578921 0
M  V30 1946 C 168.713 5.71792 -1.06904 0
M  V30 1947 N 167.689 5.42079 -0.406395 0
M  V30 1948 H 171.491 2.86305 -0.663814 0
M  V30 1949 H 169.005 1.55627 -0.464122 0
M  V30 1950 H 171.002 3.8525 1.59337 0
M  V30 1951 H 169.662 2.69595 1.80966 0
M  V30 1952 H 170.673 5.07799 -1.01789 0
M  V30 1953 H 167.35 3.96415 1.31003 0
M  V30 1954 H 168.74 6.45205 -1.8751 0
M  V30 1955 N 171.46 0.379036 1.52974 0
M  V30 1956 C 172.871 -0.0972525 1.86447 0
M  V30 1957 C 173.222 -1.47027 1.29914 0
M  V30 1958 O 172.347 -2.07135 0.626433 0
M  V30 1959 C 172.942 -0.183248 3.38304 0
M  V30 1960 C 171.501 -0.603812 3.71525 0
M  V30 1961 C 170.648 0.240632 2.76254 0
M  V30 1962 H 173.599 0.597316 1.4703 0
M  V30 1963 H 173.62 -1.00432 3.67006 0
M  V30 1964 H 173.132 0.816191 3.79421 0
M  V30 1965 H 171.233 -1.61099 3.35973 0
M  V30 1966 H 171.346 -0.369086 4.77676 0
M  V30 1967 H 169.71 -0.292548 2.53014 0
M  V30 1968 H 170.493 1.23786 3.20206 0
M  V30 1969 N 172.938 -1.57226 0.108567 0
M  V30 1970 C 174.187 -1.94008 -0.551703 0
M  V30 1971 C 174.5 -0.993442 -1.68494 0
M  V30 1972 O 175.706 -1.25551 -2.40726 0
M  V30 1973 C 174.162 -3.44763 -1.03279 0
M  V30 1974 C 173.77 -4.47943 0.0714193 0
M  V30 1975 C 175.514 -3.90483 -1.66503 0
M  V30 1976 C 173.421 -5.89865 -0.425779 0
M  V30 1977 H 172.351 -0.724206 -0.209863 0
M  V30 1978 H 175.002 -1.82547 0.186741 0
M  V30 1979 H 173.384 -3.51422 -1.82533 0
M  V30 1980 H 174.558 -4.52942 0.847365 0
M  V30 1981 H 172.873 -4.11913 0.609669 0
M  V30 1982 H 175.47 -4.93925 -2.04798 0
M  V30 1983 H 175.813 -3.29877 -2.53942 0
M  V30 1984 H 176.346 -3.86581 -0.938074 0
M  V30 1985 H 173.085 -6.54202 0.412316 0
M  V30 1986 H 172.605 -5.88309 -1.16843 0
M  V30 1987 H 174.284 -6.40844 -0.890397 0
M  V30 1988 N 174.416 0.165178 -1.56732 0
M  V30 1989 C 175.832 0.517174 -1.50988 0
M  V30 1990 C 176.032 1.84331 -0.813894 0
M  V30 1991 O 175.088 2.49672 -0.37682 0
M  V30 1992 C 176.401 0.544261 -2.95733 0
M  V30 1993 C 177.949 0.631039 -3.06573 0
M  V30 1994 C 178.424 0.68896 -4.52788 0
M  V30 1995 N 179.915 0.751683 -4.5706 0
M  V30 1996 C 180.65 0.817177 -5.67547 0
M  V30 1997 N 180.146 0.843129 -6.8765 0
M  V30 1998 N 181.939 0.856668 -5.55534 0
M  V30 1999 H 174.09 -0.704318 -2.00382 0
M  V30 2000 H 176.353 -0.254687 -0.913148 0
M  V30 2001 H 176.059 -0.361607 -3.49836 0
M  V30 2002 H 175.933 1.3886 -3.5071 0
M  V30 2003 H 178.32 1.52733 -2.52501 0
M  V30 2004 H 178.401 -0.240095 -2.54671 0
M  V30 2005 H 178.045 -0.2031 -5.07494 0
M  V30 2006 H 177.975 1.57633 -5.02454 0
M  V30 2007 H 180.466 0.739661 -3.70591 0
M  V30 2008 H 180.779 0.894448 -7.67606 0
M  V30 2009 H 179.124 0.811304 -6.90248 0
M  V30 2010 H 182.315 0.833437 -4.60621 0
M  V30 2011 H 182.488 0.904247 -6.4166 0
M  V30 2012 O 175.933 1.58495 0.310088 0
M  V30 2013 H 176.624 1.68365 0.957755 0
M  V30 END ATOM
M  V30 BEGIN BOND
M  V30 END BOND
M  V30 END CTAB
M  END
$$$$
